
#######################################################################
#
#                 Cambridge Crystallographic Data Centre
#                                CCDC 
#
#######################################################################
#
# If this CIF has been generated from an entry in the Cambridge 
# Structural Database, then it will include bibliographic, chemical, 
# crystal, experimental, refinement or atomic coordinate data resulting 
# from the CCDC's data processing and validation procedures.
#
#######################################################################

data_WULQIE01
_chemical_name_common            MOP-100
_chemical_formula_moiety         'C96 H96 B8 N64 Pd6 4+,4(N1 O3 1-),25(H2 O1)'
_chemical_name_systematic        
"octakis(\m~3~-tetrakis(Imidazolyl)borate-N,N',N'')-hexa-palladium(ii) tetranitrate pentacosahydrate"
_symmetry_cell_setting           triclinic
_symmetry_space_group_name_H-M   'P -1'
_symmetry_Int_Tables_number      2
_space_group_name_Hall           '-P 1'
loop_
_symmetry_equiv_pos_site_id
_symmetry_equiv_pos_as_xyz
1 x,y,z
2 -x,-y,-z
_cell_length_a                   19.4691(5)
_cell_length_b                   19.7241(5)
_cell_length_c                   23.4120(9)
_cell_angle_alpha                110.754(2)
_cell_angle_beta                 93.660(2)
_cell_angle_gamma                116.5570(10)
_cell_volume                     7249.69
_exptl_crystal_colour            colorless
_exptl_crystal_description       rod
_cell_formula_units_Z            2
loop_
_atom_site_label
_atom_site_type_symbol
_atom_site_fract_x
_atom_site_fract_y
_atom_site_fract_z
C1 C -0.12940(15) -0.06758(17) 0.20431(13)
H1 H -0.1737 -0.0980 0.2161
C2 C -0.11633(15) -0.09139(16) 0.14532(13)
H2 H -0.1517 -0.1399 0.1093
C3 C -0.01279(15) 0.02880(16) 0.20725(12)
H3 H 0.0368 0.0773 0.2217
C4 C 0.04183(17) 0.21640(17) 0.33043(15)
H4 H 0.0025 0.2239 0.3138
C5 C 0.11938(19) 0.27171(17) 0.35185(15)
H5 H 0.1431 0.3248 0.3525
C6 C 0.10397(17) 0.16478(17) 0.36347(13)
H6 H 0.1145 0.1284 0.3738
C7 C -0.05369(18) 0.00925(19) 0.40582(13)
H7 H -0.0744 0.0389 0.4318
C8 C -0.03263(16) -0.04179(17) 0.41711(13)
H8 H -0.0360 -0.0533 0.4524
C9 C -0.00967(16) -0.04214(15) 0.32856(14)
H9 H 0.0056 -0.0537 0.2910
C10 C -0.19139(16) 0.04636(17) 0.29213(15)
H10 H -0.2133 0.0056 0.2505
C11 C -0.22752(15) 0.08359(16) 0.32765(14)
H11 H -0.2797 0.0708 0.3147
C12 C -0.11091(17) 0.13820(18) 0.38491(14)
H12 H -0.0660 0.1714 0.4193
C13 C -0.1909(2) -0.48530(19) -0.00083(16)
H13 H -0.1609 -0.4797 -0.0299
C14 C -0.2605(2) -0.5522(2) -0.01252(17)
H14 H -0.2856 -0.6011 -0.0501
C15 C -0.2283(3) -0.4617(3) 0.0817(2)
H15 H -0.2285 -0.4367 0.1237
C16 C -0.14543(17) -0.27872(19) 0.18554(14)
H16 H -0.1932 -0.2922 0.1611
C17 C -0.11819(16) -0.23618(18) 0.24782(13)
H17 H -0.1438 -0.2146 0.2746
C18 C -0.03135(16) -0.26707(15) 0.21368(13)
H18 H 0.0146 -0.2706 0.2120
C19 C -0.1032(3) -0.2975(2) 0.00058(17)
H19 H -0.1346 -0.3502 -0.0331
C20 C -0.0740(2) -0.2251(2) -0.00370(15)
H20 H -0.0803 -0.2189 -0.0409
C21 C -0.03922(14) -0.20008(14) 0.09175(12)
H21 H -0.0163 -0.1712 0.1353
C22 C -0.02054(16) -0.42546(16) 0.09890(13)
H22 H -0.0623 -0.4688 0.1038
C23 C 0.05362(17) -0.41566(15) 0.09789(14)
H23 H 0.0710 -0.4514 0.1010
C24 C 0.05086(15) -0.31182(15) 0.08794(12)
H24 H 0.0670 -0.2623 0.0836
C25 C 0.20659(18) 0.20031(19) 0.54292(14)
H25 H 0.1764 0.1905 0.5713
C26 C 0.20352(19) 0.24038(19) 0.50716(14)
H26 H 0.1704 0.2627 0.5068
C27 C 0.29039(18) 0.20305(17) 0.48598(13)
H27 H 0.3287 0.1946 0.4678
C28 C 0.2762(3) 0.1145(3) 0.66147(18)
H28 H 0.2589 0.0577 0.6477
C29 C 0.2905(3) 0.1671(2) 0.72162(16)
H29 H 0.2831 0.1526 0.7553
C30 C 0.3167(3) 0.2321(3) 0.66650(16)
H30 H 0.3343 0.2767 0.6553
C31 C 0.20514(17) -0.04083(17) 0.52277(13)
H31 H 0.2360 -0.0407 0.5549
C32 C 0.14408(15) -0.10892(15) 0.47604(12)
H32 H 0.1253 -0.1640 0.4701
C33 C 0.15826(16) -0.00086(16) 0.46326(12)
H33 H 0.1507 0.0321 0.4463
C34 C 0.43731(19) 0.18896(19) 0.57373(14)
H34 H 0.4526 0.2340 0.6127
C35 C 0.48628(17) 0.17149(19) 0.54087(14)
H35 H 0.5416 0.2028 0.5539
C36 C 0.36659(16) 0.07612(17) 0.48755(12)
H36 H 0.3229 0.0280 0.4564
C37 C 0.16458(15) -0.01293(15) -0.04285(11)
H37 H 0.1951 0.0139 -0.0653
C38 C 0.11737(15) 0.00870(15) -0.01014(12)
H38 H 0.1091 0.0526 -0.0073
C39 C 0.10996(14) -0.09804(14) 0.00095(12)
H39 H 0.0964 -0.1413 0.0133
C40 C 0.12147(16) -0.27264(16) -0.06696(13)
H40 H 0.0849 -0.2933 -0.1049
C41 C 0.11954(16) -0.31411(15) -0.03171(12)
H41 H 0.0803 -0.3686 -0.0408
C42 C 0.22363(14) -0.19175(13) 0.01490(12)
H42 H 0.2706 -0.1455 0.0439
C43 C 0.15953(14) -0.14738(15) -0.17457(12)
H43 H 0.1396 -0.1110 -0.1676
C44 C 0.15813(16) -0.20150(16) -0.23211(13)
H44 H 0.1359 -0.2075 -0.2712
C45 C 0.21628(15) -0.21840(16) -0.16261(13)
H45 H 0.2424 -0.2377 -0.1436
C46 C 0.36808(14) -0.03962(14) -0.03816(12)
H46 H 0.3725 -0.0725 -0.0760
C47 C 0.42855(14) 0.02921(15) 0.00988(12)
H47 H 0.4821 0.0518 0.0106
C48 C 0.32145(15) 0.01044(14) 0.03739(11)
H48 H 0.2862 0.0172 0.0607
C49 C 0.07911(17) -0.35392(18) 0.30982(17)
H49 H 0.0645 -0.4101 0.2957
C50 C 0.02928(18) -0.32451(17) 0.31396(17)
H50 H -0.0259 -0.3567 0.3038
C51 C 0.14696(15) -0.21930(15) 0.34489(12)
H51 H 0.1889 -0.1644 0.3601
C52 C 0.31005(17) -0.31375(17) 0.24260(14)
H52 H 0.3471 -0.3196 0.2645
C53 C 0.30369(15) -0.31563(15) 0.18591(13)
H53 H 0.3361 -0.3250 0.1603
C54 C 0.21298(15) -0.29333(14) 0.21797(11)
H54 H 0.1709 -0.2829 0.2207
C55 C 0.31795(16) -0.16513(18) 0.44265(13)
H55 H 0.2910 -0.1916 0.4667
C56 C 0.37641(15) -0.08561(18) 0.46563(13)
H56 H 0.3968 -0.0475 0.5081
C57 C 0.35573(15) -0.14132(15) 0.36441(13)
H57 H 0.3592 -0.1491 0.3234
C58 C 0.2064(2) -0.43822(19) 0.30144(18)
H58 H 0.1956 -0.4533 0.2581
C59 C 0.2092(5) -0.4517(2) 0.3823(2)
H59 H 0.2053 -0.4746 0.4113
C60 C 0.2274(5) -0.3706(3) 0.3968(2)
H60 H 0.2357 -0.3305 0.4366
C61 C 0.6825(4) 0.4974(3) 0.4441(4)
H61 H 0.6491 0.5117 0.4274
C62 C 0.7608(3) 0.5550(2) 0.4762(3)
H62 H 0.7895 0.6090 0.4789
C63 C 0.7237(4) 0.4471(4) 0.4709(4)
H63 H 0.7297 0.4051 0.4758
C64 C 0.5132(2) 0.3798(2) 0.49482(14)
H64 H 0.5550 0.4007 0.5294
C65 C 0.44124(19) 0.36935(19) 0.49743(14)
H65 H 0.4249 0.3835 0.5342
C66 C 0.4403(2) 0.32560(19) 0.39897(13)
H66 H 0.4228 0.3027 0.3551
C67 C 0.6442(2) 0.2521(2) 0.39788(18)
H67 H 0.6914 0.2841 0.3899
C68 C 0.62281(19) 0.1795(2) 0.40220(16)
H68 H 0.6529 0.1533 0.3987
C69 C 0.5298(2) 0.20931(18) 0.41609(14)
H69 H 0.4825 0.2064 0.4239
C70 C 0.5726(5) 0.3837(3) 0.30662(19)
H70 H 0.5927 0.4410 0.3288
C71 C 0.5479(4) 0.3389(3) 0.24318(19)
H71 H 0.5553 0.3614 0.2137
C72 C 0.52409(17) 0.25405(17) 0.28280(13)
H72 H 0.5078 0.2041 0.2865
C73 C 0.3482(2) 0.40656(19) 0.28664(15)
H73 H 0.3794 0.4506 0.2768
C74 C 0.3550(3) 0.4084(2) 0.34439(15)
H74 H 0.3920 0.4538 0.3814
C75 C 0.26073(17) 0.28785(16) 0.27989(13)
H75 H 0.2190 0.2327 0.2634
C76 C 0.10363(17) 0.22087(16) 0.15745(14)
H76 H 0.0996 0.2688 0.1755
C77 C 0.04247(16) 0.14148(16) 0.13473(13)
H77 H -0.0107 0.1249 0.1331
C78 C 0.15191(16) 0.14017(14) 0.12563(12)
H78 H 0.1884 0.1220 0.1175
C79 C 0.2203(3) 0.4023(2) 0.1680(2)
H79 H 0.1761 0.3826 0.1835
C80 C 0.3049(3) 0.47295(18) 0.13274(15)
H80 H 0.3337 0.5124 0.1180
C81 C 0.3199(3) 0.4114(2) 0.1334(2)
H81 H 0.3608 0.4030 0.1203
C82 C 0.31085(19) 0.23579(17) 0.07668(13)
H82 H 0.2836 0.2417 0.0463
C83 C 0.35734(18) 0.20092(16) 0.06702(14)
H83 H 0.3673 0.1782 0.0285
C84 C 0.35826(18) 0.24122(15) 0.16545(13)
H84 H 0.3693 0.2520 0.2080
C85 C 0.55069(18) -0.09565(19) 0.27778(14)
H85 H 0.5668 -0.1347 0.2608
C86 C 0.53572(18) -0.07285(18) 0.33561(14)
H86 H 0.5418 -0.0921 0.3655
C87 C 0.51319(15) -0.00532(17) 0.29006(12)
H87 H 0.4995 0.0308 0.2823
C88 C 0.61561(17) 0.10202(18) 0.21104(13)
H88 H 0.6630 0.1159 0.2362
C89 C 0.59928(15) 0.15638(17) 0.20086(12)
H89 H 0.6335 0.2140 0.2166
C90 C 0.49773(15) 0.03233(16) 0.15060(12)
H90 H 0.4476 -0.0117 0.1250
C91 C 0.44324(16) -0.17509(16) 0.06991(13)
H91 H 0.4803 -0.1675 0.0462
C92 C 0.36492(15) -0.22967(16) 0.04781(13)
H92 H 0.3389 -0.2671 0.0055
C93 C 0.38758(13) -0.16330(14) 0.14750(12)
H93 H 0.3807 -0.1452 0.1880
C94 C 0.60272(16) -0.15480(18) 0.14177(14)
H94 H 0.5652 -0.2023 0.1451
C95 C 0.66736(15) -0.14461(17) 0.11972(13)
H95 H 0.6818 -0.1855 0.1059
C96 C 0.66874(16) -0.03048(18) 0.14347(13)
H96 H 0.6838 0.0238 0.1490
B1 B -0.04778(19) 0.06094(19) 0.31467(15)
B2 B -0.09317(19) -0.34365(18) 0.09287(15)
B3 B 0.28396(19) 0.12419(19) 0.55319(13)
B4 B 0.20982(16) -0.12409(16) -0.05780(13)
B5 B 0.23554(19) -0.28830(18) 0.33026(14)
B6 B 0.5846(3) 0.3465(2) 0.40399(16)
B7 B 0.2579(2) 0.29473(18) 0.17203(16)
B8 B 0.53977(18) -0.05977(19) 0.18005(15)
N1 N -0.06333(12) 0.01123(13) 0.24338(10)
N2 N -0.04240(12) -0.03153(12) 0.14851(10)
N3 N 0.03019(13) 0.14540(13) 0.33747(10)
N4 N 0.15932(15) 0.23942(14) 0.37277(11)
N5 N -0.03926(12) 0.01021(13) 0.34880(10)
N6 N -0.00509(12) -0.07447(12) 0.36753(9)
N7 N -0.11593(12) 0.08003(13) 0.32918(11)
N8 N -0.17606(13) 0.14227(13) 0.38484(11)
N9 N -0.16925(13) -0.42586(14) 0.05913(11)
N10 N -0.2894(2) -0.5380(3) 0.0395(2)
N11 N -0.09051(13) -0.29957(12) 0.16322(10)
N12 N -0.04580(13) -0.22894(13) 0.26682(10)
N13 N -0.07985(13) -0.28250(14) 0.06214(10)
N14 N -0.03369(12) -0.16179(12) 0.05464(10)
N15 N -0.02251(13) -0.36037(13) 0.09144(10)
N16 N 0.09668(13) -0.34381(12) 0.09151(10)
N17 N 0.26281(14) 0.17649(14) 0.52956(10)
N18 N 0.25690(15) 0.24267(14) 0.47167(11)
N19 N 0.28944(13) 0.15311(13) 0.62464(10)
N20 N 0.3164(2) 0.2413(2) 0.72493(13)
N21 N 0.21524(12) 0.02956(13) 0.51571(10)
N22 N 0.11402(12) -0.08403(13) 0.43867(10)
N23 N 0.36048(13) 0.12750(14) 0.53873(10)
N24 N 0.44168(13) 0.10014(13) 0.48503(10)
N25 N 0.15922(11) -0.08177(11) -0.03690(9)
N26 N 0.08338(12) -0.04363(12) 0.01822(9)
N27 N 0.18768(11) -0.19388(11) -0.03649(9)
N28 N 0.18442(12) -0.26342(12) 0.01968(10)
N29 N 0.19765(12) -0.15916(11) -0.12878(9)
N30 N 0.19378(14) -0.24562(14) -0.22467(10)
N31 N 0.29871(12) -0.05237(11) -0.02090(10)
N32 N 0.39910(12) 0.06083(11) 0.05748(10)
N33 N 0.15661(13) -0.28700(13) 0.33003(11)
N34 N 0.07172(12) -0.24008(12) 0.33540(10)
N35 N 0.24978(13) -0.30121(12) 0.26275(10)
N36 N 0.24410(12) -0.30232(12) 0.16858(10)
N37 N 0.30361(13) -0.20188(13) 0.37791(10)
N38 N 0.40224(12) -0.06882(14) 0.41499(11)
N39 N 0.23125(14) -0.35949(12) 0.34363(10)
N40 N 0.1984(2) -0.49070(18) 0.32282(15)
N41 N 0.65963(14) 0.42744(15) 0.43877(11)
N42 N 0.7842(3) 0.5243(3) 0.4988(2)
N43 N 0.51545(16) 0.35367(16) 0.43098(11)
N44 N 0.39568(16) 0.33461(15) 0.43734(11)
N45 N 0.58533(16) 0.27086(16) 0.40715(11)
N46 N 0.54928(14) 0.15143(15) 0.41265(11)
N47 N 0.56250(18) 0.32852(15) 0.33174(11)
N48 N 0.51132(15) 0.25739(14) 0.22931(11)
N49 N 0.28792(16) 0.32913(13) 0.24451(11)
N50 N 0.29854(15) 0.33257(14) 0.33992(11)
N51 N 0.17185(14) 0.22043(12) 0.15014(10)
N52 N 0.07447(13) 0.08859(12) 0.11390(10)
N53 N 0.26615(16) 0.36646(12) 0.15583(13)
N54 N 0.2454(3) 0.46819(18) 0.15550(19)
N55 N 0.31087(15) 0.26120(13) 0.13959(11)
N56 N 0.38774(14) 0.20427(12) 0.12332(10)
N57 N 0.53814(12) -0.05164(13) 0.24935(10)
N58 N 0.51045(13) -0.01708(14) 0.34209(10)
N59 N 0.55166(12) 0.02270(13) 0.17861(10)
N60 N 0.52340(12) 0.11204(13) 0.16314(10)
N61 N 0.45851(12) -0.13236(13) 0.13426(10)
N62 N 0.32825(12) -0.22292(12) 0.09591(10)
N63 N 0.60432(12) -0.07754(13) 0.15875(10)
N64 N 0.70860(15) -0.06842(16) 0.11989(12)
Pd1 Pd 0.019577(10) -0.037064(11) 0.082706(9)
Pd2 Pd 0.032693(11) -0.157694(11) 0.353275(9)
Pd3 Pd 0.213806(11) -0.285053(10) 0.093170(9)
Pd4 Pd 0.457179(12) 0.159827(11) 0.142509(9)
Pd5 Pd 0.277900(14) 0.289285(13) 0.406982(9)
Pd6 Pd 0.476818(11) 0.041082(12) 0.414961(9)
loop_
_geom_bond_atom_site_label_1
_geom_bond_atom_site_label_2
_geom_bond_site_symmetry_1
_geom_bond_site_symmetry_2
C1 H1 1_555 1_555
C2 C1 1_555 1_555
H2 C2 1_555 1_555
C3 H3 1_555 1_555
C4 H4 1_555 1_555
C5 C4 1_555 1_555
H5 C5 1_555 1_555
C6 H6 1_555 1_555
C7 H7 1_555 1_555
C8 C7 1_555 1_555
H8 C8 1_555 1_555
C9 H9 1_555 1_555
C10 H10 1_555 1_555
C11 C10 1_555 1_555
H11 C11 1_555 1_555
C12 H12 1_555 1_555
C13 H13 1_555 1_555
C14 C13 1_555 1_555
H14 C14 1_555 1_555
C15 H15 1_555 1_555
C16 H16 1_555 1_555
C17 C16 1_555 1_555
H17 C17 1_555 1_555
C18 H18 1_555 1_555
C19 H19 1_555 1_555
C20 C19 1_555 1_555
H20 C20 1_555 1_555
C21 H21 1_555 1_555
C22 H22 1_555 1_555
C23 C22 1_555 1_555
H23 C23 1_555 1_555
C24 H24 1_555 1_555
C25 H25 1_555 1_555
C26 C25 1_555 1_555
H26 C26 1_555 1_555
C27 H27 1_555 1_555
C28 H28 1_555 1_555
C29 C28 1_555 1_555
H29 C29 1_555 1_555
C30 H30 1_555 1_555
C31 H31 1_555 1_555
C32 C31 1_555 1_555
H32 C32 1_555 1_555
C33 H33 1_555 1_555
C34 H34 1_555 1_555
C35 C34 1_555 1_555
H35 C35 1_555 1_555
C36 H36 1_555 1_555
C37 H37 1_555 1_555
C38 C37 1_555 1_555
H38 C38 1_555 1_555
C39 H39 1_555 1_555
C40 H40 1_555 1_555
C41 C40 1_555 1_555
H41 C41 1_555 1_555
C42 H42 1_555 1_555
C43 H43 1_555 1_555
C44 C43 1_555 1_555
H44 C44 1_555 1_555
C45 H45 1_555 1_555
C46 H46 1_555 1_555
C47 C46 1_555 1_555
H47 C47 1_555 1_555
C48 H48 1_555 1_555
C49 H49 1_555 1_555
C50 C49 1_555 1_555
H50 C50 1_555 1_555
C51 H51 1_555 1_555
C52 H52 1_555 1_555
C53 C52 1_555 1_555
H53 C53 1_555 1_555
C54 H54 1_555 1_555
C55 H55 1_555 1_555
C56 C55 1_555 1_555
H56 C56 1_555 1_555
C57 H57 1_555 1_555
C58 H58 1_555 1_555
C59 H59 1_555 1_555
C60 C59 1_555 1_555
H60 C60 1_555 1_555
C61 H61 1_555 1_555
C62 C61 1_555 1_555
H62 C62 1_555 1_555
C63 H63 1_555 1_555
C64 H64 1_555 1_555
C65 C64 1_555 1_555
H65 C65 1_555 1_555
C66 H66 1_555 1_555
C67 H67 1_555 1_555
C68 C67 1_555 1_555
H68 C68 1_555 1_555
C69 H69 1_555 1_555
C70 H70 1_555 1_555
C71 C70 1_555 1_555
H71 C71 1_555 1_555
C72 H72 1_555 1_555
C73 H73 1_555 1_555
C74 C73 1_555 1_555
H74 C74 1_555 1_555
C75 H75 1_555 1_555
C76 H76 1_555 1_555
C77 C76 1_555 1_555
H77 C77 1_555 1_555
C78 H78 1_555 1_555
C79 H79 1_555 1_555
C80 H80 1_555 1_555
C81 C80 1_555 1_555
H81 C81 1_555 1_555
C82 H82 1_555 1_555
C83 C82 1_555 1_555
H83 C83 1_555 1_555
C84 H84 1_555 1_555
C85 H85 1_555 1_555
C86 C85 1_555 1_555
H86 C86 1_555 1_555
C87 H87 1_555 1_555
C88 H88 1_555 1_555
C89 C88 1_555 1_555
H89 C89 1_555 1_555
C90 H90 1_555 1_555
C91 H91 1_555 1_555
C92 C91 1_555 1_555
H92 C92 1_555 1_555
C93 H93 1_555 1_555
C94 H94 1_555 1_555
C95 C94 1_555 1_555
H95 C95 1_555 1_555
C96 H96 1_555 1_555
B1 N1 1_555 1_555
B2 N9 1_555 1_555
B3 N17 1_555 1_555
B4 N25 1_555 1_555
B5 N33 1_555 1_555
B6 N41 1_555 1_555
B7 N49 1_555 1_555
B8 N57 1_555 1_555
N1 C1 1_555 1_555
N2 C2 1_555 1_555
N3 C4 1_555 1_555
N4 C5 1_555 1_555
N5 C7 1_555 1_555
N6 C8 1_555 1_555
N7 C10 1_555 1_555
N8 C11 1_555 1_555
N9 C13 1_555 1_555
N10 C14 1_555 1_555
N11 C16 1_555 1_555
N12 C17 1_555 1_555
N13 C19 1_555 1_555
N14 C20 1_555 1_555
N15 C22 1_555 1_555
N16 C23 1_555 1_555
N17 C25 1_555 1_555
N18 C26 1_555 1_555
N19 C28 1_555 1_555
N20 C29 1_555 1_555
N21 C31 1_555 1_555
N22 C32 1_555 1_555
N23 C34 1_555 1_555
N24 C35 1_555 1_555
N25 C37 1_555 1_555
N26 C38 1_555 1_555
N27 C40 1_555 1_555
N28 C41 1_555 1_555
N29 C43 1_555 1_555
N30 C44 1_555 1_555
N31 C46 1_555 1_555
N32 C47 1_555 1_555
N33 C49 1_555 1_555
N34 C50 1_555 1_555
N35 C52 1_555 1_555
N36 C53 1_555 1_555
N37 C55 1_555 1_555
N38 C56 1_555 1_555
N39 C58 1_555 1_555
N40 C58 1_555 1_555
N41 C61 1_555 1_555
N42 C62 1_555 1_555
N43 C64 1_555 1_555
N44 C65 1_555 1_555
N45 C67 1_555 1_555
N46 C68 1_555 1_555
N47 C70 1_555 1_555
N48 C71 1_555 1_555
N49 C73 1_555 1_555
N50 C74 1_555 1_555
N51 C76 1_555 1_555
N52 C77 1_555 1_555
N53 C79 1_555 1_555
N54 C79 1_555 1_555
N55 C82 1_555 1_555
N56 C83 1_555 1_555
N57 C85 1_555 1_555
N58 C86 1_555 1_555
N59 C88 1_555 1_555
N60 C89 1_555 1_555
N61 C91 1_555 1_555
N62 C92 1_555 1_555
N63 C94 1_555 1_555
N64 C95 1_555 1_555
Pd1 N2 1_555 1_555
Pd2 N6 1_555 1_555
Pd3 N16 1_555 1_555
Pd4 N32 1_555 1_555
Pd5 N4 1_555 1_555
Pd6 N24 1_555 1_555
C3 N1 1_555 1_555
C3 N2 1_555 1_555
C6 N3 1_555 1_555
C6 N4 1_555 1_555
C9 N5 1_555 1_555
C9 N6 1_555 1_555
C12 N7 1_555 1_555
C12 N8 1_555 1_555
C15 N9 1_555 1_555
C15 N10 1_555 1_555
C18 N11 1_555 1_555
C18 N12 1_555 1_555
C21 N13 1_555 1_555
C21 N14 1_555 1_555
C24 N15 1_555 1_555
C24 N16 1_555 1_555
C27 N17 1_555 1_555
C27 N18 1_555 1_555
C30 N19 1_555 1_555
C30 N20 1_555 1_555
C33 N21 1_555 1_555
C33 N22 1_555 1_555
C36 N23 1_555 1_555
C36 N24 1_555 1_555
C39 N25 1_555 1_555
C39 N26 1_555 1_555
C42 N27 1_555 1_555
C42 N28 1_555 1_555
C45 N29 1_555 1_555
C45 N30 1_555 1_555
C48 N31 1_555 1_555
C48 N32 1_555 1_555
C51 N33 1_555 1_555
C51 N34 1_555 1_555
C54 N35 1_555 1_555
C54 N36 1_555 1_555
C57 N37 1_555 1_555
C57 N38 1_555 1_555
C59 N40 1_555 1_555
C60 N39 1_555 1_555
C63 N41 1_555 1_555
C63 N42 1_555 1_555
C66 N43 1_555 1_555
C66 N44 1_555 1_555
C69 N45 1_555 1_555
C69 N46 1_555 1_555
C72 N47 1_555 1_555
C72 N48 1_555 1_555
C75 N49 1_555 1_555
C75 N50 1_555 1_555
C78 N51 1_555 1_555
C78 N52 1_555 1_555
C80 N54 1_555 1_555
C81 N53 1_555 1_555
C84 N55 1_555 1_555
C84 N56 1_555 1_555
C87 N57 1_555 1_555
C87 N58 1_555 1_555
C90 N59 1_555 1_555
C90 N60 1_555 1_555
C93 N61 1_555 1_555
C93 N62 1_555 1_555
C96 N63 1_555 1_555
C96 N64 1_555 1_555
B1 N3 1_555 1_555
B1 N5 1_555 1_555
B1 N7 1_555 1_555
B2 N11 1_555 1_555
B2 N13 1_555 1_555
B2 N15 1_555 1_555
B3 N19 1_555 1_555
B3 N21 1_555 1_555
B3 N23 1_555 1_555
B4 N27 1_555 1_555
B4 N29 1_555 1_555
B4 N31 1_555 1_555
B5 N35 1_555 1_555
B5 N37 1_555 1_555
B5 N39 1_555 1_555
B6 N43 1_555 1_555
B6 N45 1_555 1_555
B6 N47 1_555 1_555
B7 N51 1_555 1_555
B7 N53 1_555 1_555
B7 N55 1_555 1_555
B8 N59 1_555 1_555
B8 N61 1_555 1_555
B8 N63 1_555 1_555
N12 Pd2 1_555 1_555
N14 Pd1 1_555 1_555
N18 Pd5 1_555 1_555
N22 Pd2 1_555 1_555
N26 Pd1 1_555 1_555
N28 Pd3 1_555 1_555
N34 Pd2 1_555 1_555
N36 Pd3 1_555 1_555
N38 Pd6 1_555 1_555
N44 Pd5 1_555 1_555
N46 Pd6 1_555 1_555
N48 Pd4 1_555 1_555
N50 Pd5 1_555 1_555
N52 Pd1 1_555 1_555
N56 Pd4 1_555 1_555
N58 Pd6 1_555 1_555
N60 Pd4 1_555 1_555
N62 Pd3 1_555 1_555

#END
