
#######################################################################
#
#                 Cambridge Crystallographic Data Centre
#                                CCDC 
#
#######################################################################
#
# If this CIF has been generated from an entry in the Cambridge 
# Structural Database, then it will include bibliographic, chemical, 
# crystal, experimental, refinement or atomic coordinate data resulting 
# from the CCDC's data processing and validation procedures.
#
#######################################################################

data_WOSMUO04
_chemical_formula_moiety         
'C3 H12 N2 2+,6(C1 H1 O2 1-),0.5(H2 O1),2(Mg1 2+)'
_chemical_name_systematic        
'di-magnesium propane-1,3-diammonium hexaformate hemihydrate'
_symmetry_cell_setting           rhombohedral
_symmetry_space_group_name_H-M   'R -3 c'
_symmetry_Int_Tables_number      167
_space_group_name_Hall           '-R 3 2"c'
loop_
_symmetry_equiv_pos_site_id
_symmetry_equiv_pos_as_xyz
1 x,y,z
2 -y,x-y,z
3 -x+y,-x,z
4 y,x,1/2-z
5 x-y,-y,1/2-z
6 -x,-x+y,1/2-z
7 2/3+x,1/3+y,1/3+z
8 2/3-y,1/3+x-y,1/3+z
9 2/3-x+y,1/3-x,1/3+z
10 2/3+y,1/3+x,5/6-z
11 2/3+x-y,1/3-y,5/6-z
12 2/3-x,1/3-x+y,5/6-z
13 1/3+x,2/3+y,2/3+z
14 1/3-y,2/3+x-y,2/3+z
15 1/3-x+y,2/3-x,2/3+z
16 1/3+y,2/3+x,1/6-z
17 1/3+x-y,2/3-y,1/6-z
18 1/3-x,2/3-x+y,1/6-z
19 -x,-y,-z
20 y,-x+y,-z
21 x-y,x,-z
22 -y,-x,1/2+z
23 -x+y,y,1/2+z
24 x,x-y,1/2+z
25 1/3-x,2/3-y,2/3-z
26 1/3+y,2/3-x+y,2/3-z
27 1/3+x-y,2/3+x,2/3-z
28 1/3-y,2/3-x,1/6+z
29 1/3-x+y,2/3+y,1/6+z
30 1/3+x,2/3+x-y,1/6+z
31 2/3-x,1/3-y,1/3-z
32 2/3+y,1/3-x+y,1/3-z
33 2/3+x-y,1/3+x,1/3-z
34 2/3-y,1/3-x,5/6+z
35 2/3-x+y,1/3+y,5/6+z
36 2/3+x,1/3+x-y,5/6+z
_cell_length_a                   28.5128(2)
_cell_length_b                   28.5128(2)
_cell_length_c                   86.6456(7)
_cell_angle_alpha                90
_cell_angle_beta                 90
_cell_angle_gamma                120
_cell_volume                     61003.8
_exptl_crystal_colour            colorless
_exptl_crystal_description       'hexagonal plate'
_cell_formula_units_Z            144
loop_
_atom_site_label
_atom_site_type_symbol
_atom_site_fract_x
_atom_site_fract_y
_atom_site_fract_z
Mg1 Mg 0.5000 0.5000 0.5000
Mg2 Mg 0.66524(2) 0.49671(2) 0.45625(2)
Mg3 Mg 0.50154(2) 0.33617(2) 0.54286(2)
Mg4 Mg 0.33178(2) 0.33227(2) 0.45831(2)
Mg5 Mg 0.49861(2) 0.49744(2) 0.41549(2)
Mg6 Mg 0.6667 0.3333 0.49963(2)
Mg7 Mg 0.34392(2) 0.17293(2) 0.49970(2)
Mg8 Mg 0.6667 0.3333 0.41158(2)
Mg9 Mg 0.6667 0.3333 0.5833
Mg10 Mg 0.3333 0.16520(3) 0.4167
Mg11 Mg 0.17074(2) 0.17290(2) 0.54009(2)
Mg12 Mg 0.0000 0.0000 0.5000
O1 O 0.57350(5) 0.53022(5) 0.48804(2)
O2 O 0.63763(5) 0.52968(5) 0.47395(2)
C1 C 0.58995(7) 0.50961(7) 0.47855(2)
H1 H 0.5644 0.4759 0.4744
O3 O 0.52725(6) 0.46169(6) 0.51363(2)
O4 O 0.53214(5) 0.40410(5) 0.52930(2)
C2 C 0.51463(8) 0.43373(8) 0.52524(2)
H2 H 0.4889 0.4350 0.5317
O5 O 0.46279(5) 0.42885(5) 0.48750(2)
O6 O 0.39681(5) 0.36697(5) 0.47325(2)
C3 C 0.42433(7) 0.41343(7) 0.47821(2)
H3 H 0.4157 0.4394 0.4747
O7 O 0.63519(5) 0.43093(5) 0.47047(2)
O8 O 0.64062(5) 0.37589(6) 0.48701(2)
C4 C 0.65294(8) 0.40177(7) 0.47488(2)
H4 H 0.6780 0.3990 0.4684
O9 O 0.59130(5) 0.46216(5) 0.44544(2)
O10 O 0.52851(5) 0.45971(5) 0.42995(2)
C5 C 0.57414(7) 0.48300(8) 0.43620(2)
H5 H 0.5974 0.5195 0.4336
O11 O 0.69603(5) 0.46370(5) 0.44083(2)
O12 O 0.69885(5) 0.40452(5) 0.42482(2)
C6 C 0.67545(7) 0.41983(7) 0.43408(2)
H6 H 0.6387 0.3955 0.4361
O13 O 0.69594(5) 0.56741(5) 0.44376(2)
O14 O 0.76110(5) 0.63371(5) 0.43012(2)
C7 C 0.73991(7) 0.58893(7) 0.43658(2)
H7 H 0.7585 0.5695 0.4360
O15 O 0.53269(5) 0.30730(5) 0.52586(2)
O16 O 0.59565(5) 0.30293(5) 0.51218(2)
C8 C 0.57997(8) 0.32495(8) 0.52161(2)
H8 H 0.6064 0.3580 0.5259
O17 O 0.43377(5) 0.30385(5) 0.52902(2)
O18 O 0.38400(5) 0.24651(5) 0.51079(2)
C9 C 0.40631(7) 0.25765(7) 0.52360(2)
H9 H 0.4020 0.2286 0.5297
O19 O 0.57373(5) 0.37155(5) 0.55464(2)
O20 O 0.63674(5) 0.37271(5) 0.56967(2)
C10 C 0.59095(7) 0.35024(8) 0.56370(2)
H10 H 0.5674 0.3138 0.5663
O21 O 0.46946(5) 0.26330(5) 0.55513(2)
O22 O 0.40222(5) 0.19717(5) 0.56841(2)
C11 C 0.42537(7) 0.24258(7) 0.56246(2)
H11 H 0.4086 0.2636 0.5635
O23 O 0.46683(5) 0.36684(5) 0.55757(2)
O24 O 0.46712(5) 0.43328(5) 0.57085(2)
C12 C 0.48956(8) 0.41086(7) 0.56456(2)
H12 H 0.5276 0.4288 0.5651
O25 O 0.36444(5) 0.39883(5) 0.44390(2)
O26 O 0.42464(5) 0.45948(5) 0.42770(2)
C13 C 0.40997(8) 0.42473(8) 0.43819(2)
H13 H 0.4365 0.4177 0.4421
O27 O 0.30005(5) 0.26591(5) 0.47284(2)
O28 O 0.30427(5) 0.20182(5) 0.48605(2)
C14 C 0.32429(7) 0.24469(7) 0.47855(2)
H14 H 0.3620 0.2628 0.4771
O29 O 0.37058(5) 0.29850(5) 0.44543(2)
O30 O 0.36894(5) 0.23396(5) 0.43072(2)
C15 C 0.34681(7) 0.25551(7) 0.43770(2)
H15 H 0.3088 0.2382 0.4372
O31 O 0.26070(5) 0.29265(5) 0.44602(2)
O32 O 0.19586(5) 0.29268(5) 0.43209(2)
C16 C 0.24224(7) 0.31529(7) 0.43774(2)
H16 H 0.2650 0.3523 0.4356
O33 O 0.29971(5) 0.36861(5) 0.47278(2)
O34 O 0.23991(5) 0.37729(5) 0.48687(2)
C17 C 0.25303(8) 0.35691(8) 0.47613(2)
H17 H 0.2249 0.3304 0.4701
O35 O 0.27529(5) 0.14334(5) 0.51297(2)
O36 O 0.20772(5) 0.14509(5) 0.52475(2)
C18 C 0.25660(8) 0.16208(8) 0.52243(2)
H18 H 0.2815 0.1917 0.5284
O37 O 0.41457(5) 0.20482(5) 0.48698(2)
O38 O 0.47156(5) 0.20721(5) 0.46936(2)
C19 C 0.42550(8) 0.19257(8) 0.47424(2)
H19 H 0.3963 0.1703 0.4678
O39 O 0.10257(5) 0.13957(5) 0.52532(2)
O40 O 0.03537(5) 0.07114(5) 0.51288(2)
C20 C 0.07698(7) 0.09131(7) 0.52080(2)
H20 H 0.0906 0.0686 0.5237
O41 O 0.23934(5) 0.20716(5) 0.55414(2)
O42 O 0.29958(5) 0.20451(5) 0.56976(2)
C21 C 0.25829(8) 0.18457(8) 0.56206(2)
H21 H 0.2379 0.1465 0.5622
O43 O 0.20496(5) 0.24249(5) 0.52674(2)
O44 O 0.20757(5) 0.30919(5) 0.51294(2)
C22 C 0.18587(8) 0.27002(7) 0.52215(2)
H22 H 0.1514 0.2609 0.5259
O45 O 0.13315(5) 0.20233(5) 0.55411(2)
O46 O 0.13159(5) 0.26058(5) 0.57078(2)
C23 C 0.15392(8) 0.24632(7) 0.56092(2)
H23 H 0.1900 0.2715 0.5584
O47 O 0.13791(5) 0.10016(5) 0.55214(2)
O48 O 0.07052(5) 0.03208(5) 0.56480(2)
C24 C 0.09250(7) 0.07738(7) 0.55878(2)
H24 H 0.0737 0.0966 0.5592
O49 O 0.45984(6) 0.12651(6) 0.5833
H25 H 0.4269(6) 0.1232(7) 0.5859(2)
H25O H 0.4565(7) 0.0936(6) 0.5808(2)
N1 N 0.51116(6) 0.19079(7) 0.55823(2)
H26 H 0.5472 0.2102 0.5596
H27 H 0.4956 0.1701 0.5666
H28 H 0.4980 0.2134 0.5568
C25 C 0.49885(9) 0.15547(8) 0.54436(2)
H29 H 0.4609 0.1264 0.5446
H30 H 0.5219 0.1390 0.5443
C26 C 0.50950(10) 0.19010(9) 0.53026(2)
H31 H 0.5465 0.2209 0.5309
H32 H 0.4847 0.2046 0.5303
C27 C 0.50294(8) 0.16100(8) 0.51512(2)
H33 H 0.5315 0.1517 0.5140
H34 H 0.4678 0.1275 0.5148
N2 N 0.50644(7) 0.19758(7) 0.50242(2)
H35 H 0.4756 0.1990 0.5020
H36 H 0.5112 0.1849 0.4934
H37 H 0.5346 0.2310 0.5041
O50 O 0.50108(6) 0.29379(5) 0.41467(2)
H38 H 0.5306(6) 0.2904(8) 0.4173(2)
H39 H 0.4715(6) 0.2614(7) 0.4123(2)
N3 N 0.48181(7) 0.34224(7) 0.49656(2)
H40 H 0.4764 0.3703 0.4948
H41 H 0.5012 0.3482 0.5053
H42 H 0.4496 0.3117 0.4976
C28 C 0.51195(8) 0.33654(8) 0.48328(2)
H43 H 0.5090 0.3008 0.4836
H44 H 0.5504 0.3641 0.4840
C29 C 0.48916(8) 0.34306(8) 0.46834(2)
H45 H 0.4499 0.3186 0.4685
H46 H 0.4956 0.3802 0.4678
C30 C 0.51117(8) 0.33229(8) 0.45395(2)
H47 H 0.5506 0.3559 0.4536
H48 H 0.5030 0.2946 0.4538
N4 N 0.48603(6) 0.34287(6) 0.44033(2)
H49 H 0.4502 0.3282 0.4419
H50 H 0.4916 0.3280 0.4319
H51 H 0.5011 0.3788 0.4389
N5 N 0.47698(7) 0.28409(7) 0.34236(2)
H52 H 0.4908 0.2671 0.3479
H53 H 0.4797 0.2790 0.3322
H54 H 0.4419 0.2705 0.3449
C31 C 0.50724(9) 0.34237(8) 0.34584(2)
H55 H 0.4972 0.3615 0.3383
H56 H 0.5460 0.3555 0.3446
C32 C 0.49746(10) 0.35629(9) 0.36174(2)
H57 H 0.5204 0.3954 0.3632
H58 H 0.4597 0.3477 0.3624
C33 C 0.50816(13) 0.32794(10) 0.37462(3)
H59 H 0.5406 0.3256 0.3723
H60 H 0.4775 0.2911 0.3757
N6 N 0.51625(7) 0.35900(7) 0.38933(2)
H61 H 0.5494 0.3887 0.3893
H62 H 0.5132 0.3379 0.3974
H63 H 0.4910 0.3690 0.3900
O51 O 0.29693(16) 0.29391(16) 0.58361(4)
H64 H 0.2634(13) 0.294(2) 0.5841(7)
H65 H 0.292(2) 0.2648(17) 0.5772(6)
O52 O 0.3741(3) 0.3333 0.5833
H66 H 0.4085(12) 0.3631(10) 0.5810(9)
H66P H 0.3787(16) 0.3036(10) 0.5857(9)
H67? H 0.5404 0.2095 0.5643
H68? H 0.4916 0.1566 0.5618
H69? H 0.4907 0.2067 0.5584
C34? C 0.5295(10) 0.1899(13) 0.5418(2)
H70? H 0.5541 0.2271 0.5383
H71? H 0.5493 0.1701 0.5415
C35? C 0.4820(10) 0.1636(12) 0.53113(18)
H72? H 0.4634 0.1847 0.5308
H73? H 0.4563 0.1270 0.5348
H74? H 0.5394 0.1663 0.5165
H75? H 0.4802 0.1239 0.5114
N7? N 0.5401(17) 0.3864(11) 0.4918(4)
H76? H 0.5335 0.4113 0.4875
H77? H 0.5759 0.3985 0.4916
H78? H 0.5284 0.3806 0.5017
H79? H 0.4824 0.3094 0.4896
H80? H 0.5370 0.3232 0.4811
H81? H 0.4836 0.3579 0.3448
H82? H 0.5377 0.3611 0.3387
C36? C 0.5280(8) 0.3489(9) 0.36240(14)
H83? H 0.5454 0.3270 0.3637
H84? H 0.5557 0.3869 0.3640
C37? C 0.4858(8) 0.3331(12) 0.37472(16)
H85? H 0.4649 0.2937 0.3758
H86? H 0.4609 0.3463 0.3722
H87? H 0.5485 0.3880 0.3870
H88? H 0.5215 0.3349 0.3947
H89? H 0.4969 0.3696 0.3951
N8? N 0.32411(16) 0.36303(15) 0.50616(4)
H90? H 0.3180 0.3491 0.4966
H91? H 0.3538 0.3962 0.5061
H92? H 0.2953 0.3655 0.5093
N9? N 0.3523(2) 0.3663(2) 0.55991(5)
H93? H 0.3460 0.3419 0.5674
H94? H 0.3371 0.3863 0.5626
H95? H 0.3882 0.3882 0.5587
C38? C 0.3327(4) 0.3273(4) 0.51683(11)
H96? H 0.3613 0.3209 0.5130
H97? H 0.2993 0.2924 0.5181
C39? C 0.3495(5) 0.3594(4) 0.53225(11)
H98? H 0.3885 0.3740 0.5335
H99? H 0.3439 0.3904 0.5310
C40? C 0.3273(7) 0.3365(6) 0.54450(15)
H100? H 0.3265 0.3017 0.5448
H101? H 0.2897 0.3285 0.5441
N10? N 0.3166(2) 0.3687(2) 0.50919(6)
H102? H 0.3260 0.3830 0.4997
H103? H 0.3244 0.3953 0.5161
H104? H 0.2809 0.3446 0.5094
N11? N 0.3514(2) 0.3275(2) 0.55667(6)
H105? H 0.3638 0.3501 0.5648
H106? H 0.3710 0.3108 0.5556
H107? H 0.3164 0.3026 0.5582
C41? C 0.3480(3) 0.3403(3) 0.51322(8)
H108? H 0.3870 0.3664 0.5131
H109? H 0.3407 0.3121 0.5056
C42? C 0.3304(2) 0.3145(2) 0.52963(5)
H110? H 0.2909 0.2962 0.5305
H111? H 0.3417 0.2876 0.5312
C43? C 0.3566(3) 0.3592(3) 0.54222(8)
H112? H 0.3946 0.3847 0.5398
H113? H 0.3371 0.3792 0.5432
N12? N 0.32411(16) 0.36303(15) 0.50616(4)
H114? H 0.3358 0.3611 0.4967
H115? H 0.3358 0.3979 0.5085
H116? H 0.2877 0.3442 0.5064
N13? N 0.3069(3) 0.3205(3) 0.55920(7)
H117? H 0.3233 0.3196 0.5680
H118? H 0.2753 0.2892 0.5582
H119? H 0.3005 0.3483 0.5595
C44? C 0.3455(6) 0.3398(6) 0.51753(13)
H120? H 0.3851 0.3619 0.5181
H121? H 0.3360 0.3030 0.5145
C45? C 0.3201(4) 0.3390(4) 0.53359(9)
H122? H 0.3235 0.3746 0.5352
H123? H 0.2814 0.3124 0.5331
C46? C 0.3414(4) 0.3272(4) 0.54624(9)
H124? H 0.3783 0.3567 0.5482
H125? H 0.3426 0.2939 0.5445
loop_
_geom_bond_atom_site_label_1
_geom_bond_atom_site_label_2
_geom_bond_site_symmetry_1
_geom_bond_site_symmetry_2
O1 C1 1_555 1_555
O2 C1 1_555 1_555
C1 H1 1_555 1_555
O3 C2 1_555 1_555
O4 C2 1_555 1_555
C2 H2 1_555 1_555
O5 C3 1_555 1_555
O6 C3 1_555 1_555
C3 H3 1_555 1_555
O7 C4 1_555 1_555
O8 C4 1_555 1_555
C4 H4 1_555 1_555
O9 C5 1_555 1_555
O10 C5 1_555 1_555
C5 H5 1_555 1_555
O11 C6 1_555 1_555
O12 C6 1_555 1_555
C6 H6 1_555 1_555
O13 C7 1_555 1_555
O14 C7 1_555 1_555
C7 H7 1_555 1_555
O15 C8 1_555 1_555
O16 C8 1_555 1_555
C8 H8 1_555 1_555
O17 C9 1_555 1_555
O18 C9 1_555 1_555
C9 H9 1_555 1_555
O19 C10 1_555 1_555
O20 C10 1_555 1_555
C10 H10 1_555 1_555
O21 C11 1_555 1_555
O22 C11 1_555 1_555
C11 H11 1_555 1_555
O23 C12 1_555 1_555
O24 C12 1_555 1_555
C12 H12 1_555 1_555
O25 C13 1_555 1_555
O26 C13 1_555 1_555
C13 H13 1_555 1_555
O27 C14 1_555 1_555
O28 C14 1_555 1_555
C14 H14 1_555 1_555
O29 C15 1_555 1_555
O30 C15 1_555 1_555
C15 H15 1_555 1_555
O31 C16 1_555 1_555
O32 C16 1_555 1_555
C16 H16 1_555 1_555
O33 C17 1_555 1_555
O34 C17 1_555 1_555
C17 H17 1_555 1_555
O35 C18 1_555 1_555
O36 C18 1_555 1_555
C18 H18 1_555 1_555
O37 C19 1_555 1_555
O38 C19 1_555 1_555
C19 H19 1_555 1_555
O39 C20 1_555 1_555
O40 C20 1_555 1_555
C20 H20 1_555 1_555
O41 C21 1_555 1_555
O42 C21 1_555 1_555
C21 H21 1_555 1_555
O43 C22 1_555 1_555
O44 C22 1_555 1_555
C22 H22 1_555 1_555
O45 C23 1_555 1_555
O46 C23 1_555 1_555
C23 H23 1_555 1_555
O47 C24 1_555 1_555
O48 C24 1_555 1_555
C24 H24 1_555 1_555
O49 H25 1_555 1_555
N1 H26 1_555 1_555
H27 N1 1_555 1_555
H28 N1 1_555 1_555
C25 N1 1_555 1_555
H29 C25 1_555 1_555
H30 C25 1_555 1_555
C26 C25 1_555 1_555
H31 C26 1_555 1_555
H32 C26 1_555 1_555
C27 C26 1_555 1_555
H33 C27 1_555 1_555
H34 C27 1_555 1_555
N2 C27 1_555 1_555
H35 N2 1_555 1_555
H36 N2 1_555 1_555
H37 N2 1_555 1_555
O50 H38 1_555 1_555
H39 O50 1_555 1_555
N3 H40 1_555 1_555
H41 N3 1_555 1_555
H42 N3 1_555 1_555
C28 N3 1_555 1_555
H43 C28 1_555 1_555
H44 C28 1_555 1_555
C29 C28 1_555 1_555
H45 C29 1_555 1_555
H46 C29 1_555 1_555
C30 C29 1_555 1_555
H47 C30 1_555 1_555
H48 C30 1_555 1_555
N4 C30 1_555 1_555
H49 N4 1_555 1_555
H50 N4 1_555 1_555
H51 N4 1_555 1_555
N5 H52 1_555 1_555
H53 N5 1_555 1_555
H54 N5 1_555 1_555
C31 N5 1_555 1_555
H55 C31 1_555 1_555
H56 C31 1_555 1_555
C32 C31 1_555 1_555
H57 C32 1_555 1_555
H58 C32 1_555 1_555
C33 C32 1_555 1_555
H59 C33 1_555 1_555
H60 C33 1_555 1_555
N6 C33 1_555 1_555
H61 N6 1_555 1_555
H62 N6 1_555 1_555
H63 N6 1_555 1_555
O51 H64 1_555 1_555
H65 O51 1_555 1_555
O52 H66 1_555 1_555
H25O O49 1_555 1_555
H66P O52 1_555 1_555

#END
