
#######################################################################
#
#                 Cambridge Crystallographic Data Centre
#                                CCDC 
#
#######################################################################
#
# If this CIF has been generated from an entry in the Cambridge 
# Structural Database, then it will include bibliographic, chemical, 
# crystal, experimental, refinement or atomic coordinate data resulting 
# from the CCDC's data processing and validation procedures.
#
#######################################################################

data_ABEGAS
_chemical_formula_moiety         'C19 H26 Cl1 N5 O2'
_chemical_name_systematic        
(E)-5-(4-chlorophenyl)-1-(3,7-dimethylocta-2,6-dien-1-yl)-N-nitro-1,3,5-triazinan-2-imine
_symmetry_cell_setting           monoclinic
_symmetry_space_group_name_H-M   'P 21/c'
_symmetry_Int_Tables_number      14
_space_group_name_Hall           '-P 2ybc'
loop_
_symmetry_equiv_pos_site_id
_symmetry_equiv_pos_as_xyz
1 x,y,z
2 -x,1/2+y,1/2-z
3 -x,-y,-z
4 x,1/2-y,1/2+z
_cell_length_a                   5.8324(11)
_cell_length_b                   38.200(5)
_cell_length_c                   9.1298(13)
_cell_angle_alpha                90
_cell_angle_beta                 94.170(15)
_cell_angle_gamma                90
_cell_volume                     2028.71
_exptl_crystal_colour            white
_cell_formula_units_Z            4
_exptl_crystal_recrystallization_method 'Vapour Deposition'
loop_
_atom_site_label
_atom_site_type_symbol
_atom_site_fract_x
_atom_site_fract_y
_atom_site_fract_z
C1 C 0.821(2) 0.5271(3) -0.1128(16)
H1 H 0.9222 0.5274 -0.1937
H2 H 0.8056 0.5030 -0.0777
H3 H 0.8859 0.5418 -0.0324
C2 C 0.4206(9) 0.72062(11) 0.4113(5)
C3 C 0.5216(9) 0.69083(12) 0.6426(5)
H4 H 0.6576 0.7037 0.6859
H5 H 0.4344 0.6818 0.7236
C4 C 0.7230(9) 0.67673(13) 0.4389(5)
H6 H 0.7682 0.6579 0.3725
H7 H 0.8651 0.6877 0.4837
C5 C 0.4269(9) 0.63564(12) 0.5133(5)
C6 C 0.2222(9) 0.63322(13) 0.5794(5)
H8 H 0.1836 0.6508 0.6472
C7 C 0.0726(10) 0.60580(13) 0.5488(6)
H9 H -0.0655 0.6042 0.5975
C8 C 0.1230(10) 0.58085(13) 0.4481(7)
C9 C 0.3241(11) 0.58328(15) 0.3779(7)
H10 H 0.3583 0.5663 0.3066
C10 C 0.4759(10) 0.61040(13) 0.4115(6)
H11 H 0.6154 0.6117 0.3641
C11 C 0.6667(9) 0.70994(12) 0.2055(5)
H12 H 0.6026 0.7325 0.1687
H13 H 0.8364 0.7119 0.2128
C12 C 0.5971(10) 0.68227(13) 0.1006(5)
H14 H 0.4396 0.6819 0.0658
C13 C 0.7292(11) 0.65763(13) 0.0486(5)
C14 C 0.9839(11) 0.65427(16) 0.0869(7)
H15 H 1.0399 0.6752 0.1404
H16 H 1.0636 0.6519 -0.0035
H17 H 1.0138 0.6335 0.1485
C15 C 0.6270(12) 0.63097(14) -0.0617(6)
H18 H 0.4669 0.6379 -0.0918
H19 H 0.7153 0.6317 -0.1503
C16 C 0.6266(16) 0.59456(17) -0.0056(7)
H20 H 0.5428 0.5938 0.0848
H21 H 0.7869 0.5871 0.0203
C17 C 0.515(2) 0.5694(2) -0.1176(9)
H22 H 0.3665 0.5759 -0.1583
C18 C 0.5930(16) 0.54051(19) -0.1647(8)
C19 C 0.4754(16) 0.51833(19) -0.2816(8)
H23 H 0.3317 0.5296 -0.3185
H24 H 0.4414 0.4953 -0.2409
H25 H 0.5757 0.5155 -0.3624
Cl1 Cl -0.0628(3) 0.54624(4) 0.4066(2)
N1 N 0.5876(7) 0.70309(10) 0.3535(4)
N2 N 0.3761(7) 0.71438(9) 0.5493(4)
H26 H 0.2571 0.7245 0.5854
N3 N 0.5948(7) 0.66188(10) 0.5530(4)
N4 N 0.3068(8) 0.74399(10) 0.3188(4)
N5 N 0.1275(7) 0.76202(10) 0.3676(4)
O1 O 0.0328(7) 0.75506(9) 0.4811(4)
O2 O 0.0543(6) 0.78643(9) 0.2855(3)
loop_
_geom_bond_atom_site_label_1
_geom_bond_atom_site_label_2
_geom_bond_site_symmetry_1
_geom_bond_site_symmetry_2
C1 H1 1_555 1_555
H2 C1 1_555 1_555
H3 C1 1_555 1_555
C2 N1 1_555 1_555
C3 H4 1_555 1_555
H5 C3 1_555 1_555
C4 H6 1_555 1_555
H7 C4 1_555 1_555
C5 C6 1_555 1_555
C6 H8 1_555 1_555
C7 C6 1_555 1_555
H9 C7 1_555 1_555
C8 C7 1_555 1_555
C9 C8 1_555 1_555
H10 C9 1_555 1_555
C10 C5 1_555 1_555
H11 C10 1_555 1_555
C11 H12 1_555 1_555
H13 C11 1_555 1_555
C12 C11 1_555 1_555
H14 C12 1_555 1_555
C13 C12 1_555 1_555
C14 C13 1_555 1_555
H15 C14 1_555 1_555
H16 C14 1_555 1_555
H17 C14 1_555 1_555
C15 C13 1_555 1_555
H18 C15 1_555 1_555
H19 C15 1_555 1_555
C16 C15 1_555 1_555
H20 C16 1_555 1_555
H21 C16 1_555 1_555
C17 C16 1_555 1_555
H22 C17 1_555 1_555
C18 C1 1_555 1_555
C19 C18 1_555 1_555
H23 C19 1_555 1_555
H24 C19 1_555 1_555
H25 C19 1_555 1_555
Cl1 C8 1_555 1_555
N1 C4 1_555 1_555
N2 C2 1_555 1_555
H26 N2 1_555 1_555
N3 C3 1_555 1_555
N4 C2 1_555 1_555
N5 N4 1_555 1_555
O1 N5 1_555 1_555
O2 N5 1_555 1_555
C3 N2 1_555 1_555
C4 N3 1_555 1_555
C5 N3 1_555 1_555
C9 C10 1_555 1_555
C11 N1 1_555 1_555
C17 C18 1_555 1_555

#END
