
#######################################################################
#
#                 Cambridge Crystallographic Data Centre
#                                CCDC 
#
#######################################################################
#
# If this CIF has been generated from an entry in the Cambridge 
# Structural Database, then it will include bibliographic, chemical, 
# crystal, experimental, refinement or atomic coordinate data resulting 
# from the CCDC's data processing and validation procedures.
#
#######################################################################

data_ADAFES
_chemical_formula_moiety         'C82 H32 F20 N6'
_chemical_name_systematic        
7,22-bis(9-anthryl)-2,12,17,27-tetrakis(pentafluorophenyl)-31,32,33,34,35,36-hexaazaheptacyclo-[26.2.1.1^3,6^.1^8,11^.1^13,16^.1^18,21^.1^23,26^]hexatriaconta-1(31),2,4,6(36),7,9,11,13(34),14,16,18(33),19,21,23,25,27,29-heptadecaene
_symmetry_cell_setting           trigonal
_symmetry_space_group_name_H-M   'P -3'
_symmetry_Int_Tables_number      147
_space_group_name_Hall           '-P 3'
loop_
_symmetry_equiv_pos_site_id
_symmetry_equiv_pos_as_xyz
1 x,y,z
2 -y,x-y,z
3 -x+y,-x,z
4 -x,-y,-z
5 y,-x+y,-z
6 x-y,x,-z
_cell_length_a                   23.167(3)
_cell_length_b                   23.167(3)
_cell_length_c                   14.0618(16)
_cell_angle_alpha                90
_cell_angle_beta                 90
_cell_angle_gamma                120
_cell_volume                     6535.99
_exptl_crystal_colour            violet
_exptl_crystal_description       prism
_cell_formula_units_Z            3
loop_
_atom_site_label
_atom_site_type_symbol
_atom_site_fract_x
_atom_site_fract_y
_atom_site_fract_z
C1 C 0.0492(4) 0.3791(3) 0.7193(6)
C2 C 0.0793(3) 0.3518(3) 0.7806(5)
H1 H 0.0619 0.3299 0.8395
C3 C 0.1379(3) 0.3629(3) 0.7388(6)
H2 H 0.1693 0.3527 0.7660
C4 C 0.1433(3) 0.3929(3) 0.6455(6)
C5 C 0.1952(3) 0.4133(3) 0.5781(5)
C6 C 0.1979(3) 0.4436(3) 0.4868(6)
C7 C 0.2442(3) 0.4509(3) 0.4087(6)
H3 H 0.2774 0.4382 0.4102
C8 C 0.2298(3) 0.4791(3) 0.3347(6)
H4 H 0.2516 0.4905 0.2748
C9 C 0.1745(3) 0.4890(3) 0.3639(6)
C10 C 0.1512(3) 0.5239(3) 0.3097(6)
C11 C 0.1076(3) 0.5503(3) 0.3390(6)
C12 C 0.0835(3) 0.5533(3) 0.4362(5)
H5 H 0.0941 0.5407 0.4950
C13 C 0.0419(3) 0.5792(3) 0.4200(6)
H6 H 0.0168 0.5868 0.4667
C14 C 0.0433(3) 0.5931(3) 0.3149(7)
C15 C 0.0111(3) 0.6196(3) 0.2604(5)
C16 C 0.2527(3) 0.4040(3) 0.6046(5)
C17 C 0.3138(3) 0.4605(3) 0.6411(5)
C18 C 0.3204(3) 0.5243(4) 0.6475(5)
H7 H 0.2847 0.5309 0.6287
C19 C 0.3796(3) 0.5776(3) 0.6817(6)
H8 H 0.3842 0.6206 0.6845
C20 C 0.4329(3) 0.5691(4) 0.7121(5)
H9 H 0.4726 0.6060 0.7360
C21 C 0.4270(3) 0.5059(4) 0.7070(5)
H10 H 0.4623 0.4998 0.7297
C22 C 0.3678(3) 0.4496(4) 0.6674(5)
C23 C 0.3615(3) 0.3857(4) 0.6606(5)
H11 H 0.3977 0.3800 0.6793
C24 C 0.3034(4) 0.3314(4) 0.6271(5)
C25 C 0.2939(4) 0.2640(5) 0.6208(6)
H12 H 0.3299 0.2576 0.6385
C26 C 0.2374(5) 0.2112(4) 0.5916(7)
H13 H 0.2334 0.1683 0.5910
C27 C 0.1827(4) 0.2190(4) 0.5611(7)
H14 H 0.1427 0.1813 0.5394
C28 C 0.1877(4) 0.2799(4) 0.5632(6)
H15 H 0.1505 0.2837 0.5433
C29 C 0.2491(4) 0.3412(4) 0.5952(5)
C30 C 0.1653(3) 0.5291(4) 0.2030(6)
C31 C 0.2027(3) 0.5914(3) 0.1553(7)
C32 C 0.2133(3) 0.5952(4) 0.0560(8)
C33 C 0.1885(3) 0.5370(5) 0.0061(6)
C34 C 0.1519(4) 0.4756(4) 0.0492(9)
C35 C 0.1415(4) 0.4728(4) 0.1479(7)
C36 C 0.0373(6) 0.6320(8) 0.1527(6)
C37 C 0.0946(6) 0.6927(8) 0.1353(8)
C38 C 0.1202(5) 0.7091(8) 0.0436(9)
C39 C 0.0885(5) 0.6647(8) -0.0307(7)
C40 C 0.0312(6) 0.6040(7) -0.0133(7)
C41 C 0.0056(6) 0.5877(7) 0.0784(7)
F1 F 0.1268(6) 0.7384(8) 0.2073(8)
F2 F 0.1771(5) 0.7722(10) 0.0259(6)
F3 F 0.1143(5) 0.6869(8) -0.1271(9)
F4 F -0.0003(6) 0.5630(6) -0.0858(7)
F5 F -0.0458(8) 0.5318(6) 0.0932(6)
N1 N 0.0868(2) 0.4006(2) 0.6345(5)
H16 H 0.0768 0.4161 0.5837
N2 N 0.1555(2) 0.4677(2) 0.4613(4)
N3 N 0.0863(2) 0.5781(2) 0.2682(4)
F6 F 0.23074(16) 0.64882(18) 0.2034(3)
F7 F 0.25007(19) 0.6554(2) 0.0111(3)
F8 F 0.20064(18) 0.54124(18) -0.0952(4)
F9 F 0.1256(2) 0.4196(2) -0.0075(3)
F10 F 0.10420(18) 0.41013(18) 0.1855(3)
C1C C -0.0492(4) 0.6209(3) 0.2807(6)
C2C C -0.0793(3) 0.6482(3) 0.2194(5)
H1C H -0.0619 0.6701 0.1605
C3C C -0.1379(3) 0.6371(3) 0.2612(6)
H2C H -0.1693 0.6473 0.2340
C4C C -0.1433(3) 0.6071(3) 0.3545(6)
C5C C -0.1952(3) 0.5867(3) 0.4219(5)
C6C C -0.1979(3) 0.5564(3) 0.5132(6)
C7C C -0.2442(3) 0.5491(3) 0.5913(6)
H3C H -0.2774 0.5618 0.5898
C8C C -0.2298(3) 0.5209(3) 0.6653(6)
H4C H -0.2516 0.5095 0.7252
C9C C -0.1745(3) 0.5110(3) 0.6361(6)
C10C C -0.1512(3) 0.4761(3) 0.6903(6)
C11C C -0.1076(3) 0.4497(3) 0.6610(6)
C12C C -0.0835(3) 0.4467(3) 0.5638(5)
H5C H -0.0941 0.4593 0.5050
C13C C -0.0419(3) 0.4208(3) 0.5800(6)
H6C H -0.0168 0.4132 0.5333
C14C C -0.0433(3) 0.4069(3) 0.6851(7)
C15C C -0.0111(3) 0.3804(3) 0.7396(5)
C16C C -0.2527(3) 0.5960(3) 0.3954(5)
C17C C -0.3138(3) 0.5395(3) 0.3589(5)
C18C C -0.3204(3) 0.4757(4) 0.3525(5)
H7C H -0.2847 0.4691 0.3713
C19C C -0.3796(3) 0.4224(3) 0.3183(6)
H8C H -0.3842 0.3794 0.3155
C20C C -0.4329(3) 0.4309(4) 0.2879(5)
H9C H -0.4726 0.3940 0.2640
C21C C -0.4270(3) 0.4941(4) 0.2930(5)
H10C H -0.4623 0.5002 0.2703
C22C C -0.3678(3) 0.5504(4) 0.3326(5)
C23C C -0.3615(3) 0.6143(4) 0.3394(5)
H11C H -0.3977 0.6200 0.3207
C24C C -0.3034(4) 0.6686(4) 0.3729(5)
C25C C -0.2939(4) 0.7360(5) 0.3792(6)
H12C H -0.3299 0.7424 0.3615
C26C C -0.2374(5) 0.7888(4) 0.4084(7)
H13C H -0.2334 0.8317 0.4090
C27C C -0.1827(4) 0.7810(4) 0.4389(7)
H14C H -0.1427 0.8187 0.4606
C28C C -0.1877(4) 0.7201(4) 0.4368(6)
H15C H -0.1505 0.7163 0.4567
C29C C -0.2491(4) 0.6588(4) 0.4048(5)
C30C C -0.1653(3) 0.4709(4) 0.7970(6)
C31C C -0.2027(3) 0.4086(3) 0.8447(7)
C32C C -0.2133(3) 0.4048(4) 0.9440(8)
C33C C -0.1885(3) 0.4630(5) 0.9939(6)
C34C C -0.1519(4) 0.5244(4) 0.9508(9)
C35C C -0.1415(4) 0.5272(4) 0.8521(7)
C36C C -0.0373(6) 0.3680(8) 0.8473(6)
C37C C -0.0946(6) 0.3073(8) 0.8647(8)
C38C C -0.1202(5) 0.2909(8) 0.9564(9)
C39C C -0.0885(5) 0.3353(8) 1.0307(7)
C40C C -0.0312(6) 0.3960(7) 1.0133(7)
C41C C -0.0056(6) 0.4123(7) 0.9216(7)
F1C F -0.1268(6) 0.2616(8) 0.7927(8)
F2C F -0.1771(5) 0.2278(10) 0.9741(6)
F3C F -0.1143(5) 0.3131(8) 1.1271(9)
F4C F 0.0003(6) 0.4370(6) 1.0858(7)
F5C F 0.0458(8) 0.4682(6) 0.9068(6)
N1C N -0.0868(2) 0.5994(2) 0.3655(5)
H16C H -0.0768 0.5839 0.4163
N2C N -0.1555(2) 0.5323(2) 0.5387(4)
N3C N -0.0863(2) 0.4219(2) 0.7318(4)
F6C F -0.23074(16) 0.35118(18) 0.7966(3)
F7C F -0.25007(19) 0.3446(2) 0.9889(3)
F8C F -0.20064(18) 0.45876(18) 1.0952(4)
F9C F -0.1256(2) 0.5804(2) 1.0075(3)
F10C F -0.10420(18) 0.58987(18) 0.8145(3)
C42? C 0.0415(12) 0.6533(10) 0.1649(14)
C43? C 0.0890(13) 0.7196(9) 0.1493(16)
C44? C 0.1135(10) 0.7413(10) 0.058(2)
C45? C 0.0904(14) 0.6966(16) -0.0174(14)
C46? C 0.0430(14) 0.6302(14) -0.0017(15)
C47? C 0.0185(9) 0.6085(8) 0.089(2)
F11? F 0.1008(11) 0.7624(7) 0.2293(14)
F12? F 0.1537(11) 0.8143(9) 0.0504(15)
F13? F 0.1217(11) 0.7232(11) -0.1018(15)
F14? F 0.0320(14) 0.5919(12) -0.0968(17)
F15? F -0.0264(15) 0.5404(10) 0.0968(18)
loop_
_geom_bond_atom_site_label_1
_geom_bond_atom_site_label_2
_geom_bond_site_symmetry_1
_geom_bond_site_symmetry_2
C1 C2 1_555 1_555
C2 H1 1_555 1_555
C3 C2 1_555 1_555
H2 C3 1_555 1_555
C4 C3 1_555 1_555
C5 C4 1_555 1_555
C6 C5 1_555 1_555
C7 C6 1_555 1_555
H3 C7 1_555 1_555
C8 C7 1_555 1_555
H4 C8 1_555 1_555
C9 C8 1_555 1_555
C10 C9 1_555 1_555
C11 C10 1_555 1_555
C12 C11 1_555 1_555
H5 C12 1_555 1_555
C13 C12 1_555 1_555
H6 C13 1_555 1_555
C14 C13 1_555 1_555
C15 C14 1_555 1_555
C16 C5 1_555 1_555
C17 C16 1_555 1_555
C18 C17 1_555 1_555
H7 C18 1_555 1_555
C19 C18 1_555 1_555
H8 C19 1_555 1_555
C20 C19 1_555 1_555
H9 C20 1_555 1_555
C21 C20 1_555 1_555
H10 C21 1_555 1_555
C22 C17 1_555 1_555
C23 C22 1_555 1_555
H11 C23 1_555 1_555
C24 C23 1_555 1_555
C25 C24 1_555 1_555
H12 C25 1_555 1_555
C26 C25 1_555 1_555
H13 C26 1_555 1_555
C27 C26 1_555 1_555
H14 C27 1_555 1_555
C28 C27 1_555 1_555
H15 C28 1_555 1_555
C29 C16 1_555 1_555
C30 C10 1_555 1_555
C31 C30 1_555 1_555
C32 C31 1_555 1_555
C33 C32 1_555 1_555
C34 C33 1_555 1_555
C35 C30 1_555 1_555
C36 C15 1_555 1_555
C37 C36 1_555 1_555
C38 C37 1_555 1_555
C39 C38 1_555 1_555
C40 C39 1_555 1_555
C41 C36 1_555 1_555
F1 C37 1_555 1_555
F2 C38 1_555 1_555
F3 C39 1_555 1_555
F4 C40 1_555 1_555
F5 C41 1_555 1_555
N1 C1 1_555 1_555
H16 N1 1_555 1_555
N2 C6 1_555 1_555
N3 C11 1_555 1_555
F6 C31 1_555 1_555
F7 C32 1_555 1_555
F8 C33 1_555 1_555
F9 C34 1_555 1_555
F10 C35 1_555 1_555
C1C C15 1_555 1_555
C2C C1C 1_555 1_555
H1C C2C 1_555 1_555
C3C C2C 1_555 1_555
H2C C3C 1_555 1_555
C4C C3C 1_555 1_555
C5C C4C 1_555 1_555
C6C C5C 1_555 1_555
C7C C6C 1_555 1_555
H3C C7C 1_555 1_555
C8C C7C 1_555 1_555
H4C C8C 1_555 1_555
C9C C8C 1_555 1_555
C10C C9C 1_555 1_555
C11C C10C 1_555 1_555
C12C C11C 1_555 1_555
H5C C12C 1_555 1_555
C13C C12C 1_555 1_555
H6C C13C 1_555 1_555
C14C C13C 1_555 1_555
C15C C1 1_555 1_555
C16C C5C 1_555 1_555
C17C C16C 1_555 1_555
C18C C17C 1_555 1_555
H7C C18C 1_555 1_555
C19C C18C 1_555 1_555
H8C C19C 1_555 1_555
C20C C19C 1_555 1_555
H9C C20C 1_555 1_555
C21C C20C 1_555 1_555
H10C C21C 1_555 1_555
C22C C17C 1_555 1_555
C23C C22C 1_555 1_555
H11C C23C 1_555 1_555
C24C C23C 1_555 1_555
C25C C24C 1_555 1_555
H12C C25C 1_555 1_555
C26C C25C 1_555 1_555
H13C C26C 1_555 1_555
C27C C26C 1_555 1_555
H14C C27C 1_555 1_555
C28C C27C 1_555 1_555
H15C C28C 1_555 1_555
C29C C16C 1_555 1_555
C30C C10C 1_555 1_555
C31C C30C 1_555 1_555
C32C C31C 1_555 1_555
C33C C32C 1_555 1_555
C34C C33C 1_555 1_555
C35C C30C 1_555 1_555
C36C C15C 1_555 1_555
C37C C36C 1_555 1_555
C38C C37C 1_555 1_555
C39C C38C 1_555 1_555
C40C C39C 1_555 1_555
C41C C36C 1_555 1_555
F1C C37C 1_555 1_555
F2C C38C 1_555 1_555
F3C C39C 1_555 1_555
F4C C40C 1_555 1_555
F5C C41C 1_555 1_555
N1C C1C 1_555 1_555
H16C N1C 1_555 1_555
N2C C6C 1_555 1_555
N3C C11C 1_555 1_555
F6C C31C 1_555 1_555
F7C C32C 1_555 1_555
F8C C33C 1_555 1_555
F9C C34C 1_555 1_555
F10C C35C 1_555 1_555
C4 N1 1_555 1_555
C9 N2 1_555 1_555
C14 N3 1_555 1_555
C21 C22 1_555 1_555
C24 C29 1_555 1_555
C28 C29 1_555 1_555
C34 C35 1_555 1_555
C40 C41 1_555 1_555
C4C N1C 1_555 1_555
C9C N2C 1_555 1_555
C14C C15C 1_555 1_555
C14C N3C 1_555 1_555
C21C C22C 1_555 1_555
C24C C29C 1_555 1_555
C28C C29C 1_555 1_555
C34C C35C 1_555 1_555
C40C C41C 1_555 1_555

#END
