
#######################################################################
#
#                 Cambridge Crystallographic Data Centre
#                                CCDC 
#
#######################################################################
#
# If this CIF has been generated from an entry in the Cambridge 
# Structural Database, then it will include bibliographic, chemical, 
# crystal, experimental, refinement or atomic coordinate data resulting 
# from the CCDC's data processing and validation procedures.
#
#######################################################################

data_ADARUU
_chemical_formula_moiety         
'C50 H76 N3 3+,C60 H76 O16,3(F6 P1 1-),4(C2 H3 N1)'
_chemical_name_systematic        
"(1,1'-(Ammoniodihexane-6,1-diyl)bis(4-(3,5-di-t-butylphenyl)pyridinium)) 1,18,21,38-tetramethyl-5,8,11,14,25,28,31,34,42,45,48,51,58,61,64,67-hexadecaoxaundecacyclo-[36.32.2.0^2,37^.0^4,35^.0^15,24^.0^17,22^.0^18,55^.0^21,54^.0^39,70^.-0^41,68^.0^52,57^]doheptaconta-2(37),3,15(24),16,22,35,39(70),40,52,54,56,68-dodecaene tris(hexafluorophosphate) acetonitrile solvate"
_symmetry_cell_setting           monoclinic
_symmetry_space_group_name_H-M   'C 2/c'
_symmetry_Int_Tables_number      15
_space_group_name_Hall           '-C 2yn'
loop_
_symmetry_equiv_pos_site_id
_symmetry_equiv_pos_as_xyz
1 x,y,z
2 -x,y,1/2-z
3 1/2+x,1/2+y,z
4 1/2-x,1/2+y,1/2-z
5 -x,-y,-z
6 x,-y,1/2+z
7 1/2-x,1/2-y,-z
8 1/2+x,1/2-y,1/2+z
_cell_length_a                   57.243(3)
_cell_length_b                   13.7391(4)
_cell_length_c                   36.6570(11)
_cell_angle_alpha                90
_cell_angle_beta                 113.394(4)
_cell_angle_gamma                90
_cell_volume                     26459.6
_exptl_crystal_colour            yellow
_exptl_crystal_description       prism
_cell_formula_units_Z            8
loop_
_atom_site_label
_atom_site_type_symbol
_atom_site_fract_x
_atom_site_fract_y
_atom_site_fract_z
O1 O 0.13166(7) 0.7263(3) 0.35733(9)
O2 O 0.08855(7) 0.7246(3) 0.27815(10)
O3 O 0.08640(8) 0.6554(3) 0.20192(12)
O4 O 0.11096(7) 0.4654(3) 0.19918(11)
O5 O 0.18136(7) 0.6963(3) 0.38149(10)
O6 O 0.21409(10) 0.6721(5) 0.34005(16)
O7 O 0.20261(8) 0.5574(3) 0.27345(13)
O8 O 0.15947(7) 0.4307(3) 0.23178(11)
O9 O 0.12585(9) 0.2916(3) 0.53311(11)
O10 O 0.08851(12) 0.1529(4) 0.48121(14)
O11 O 0.05937(10) 0.0602(4) 0.40759(13)
O12 O 0.08419(13) 0.0420(5) 0.35478(16)
O13 O 0.17430(9) 0.2636(3) 0.55826(11)
O14 O 0.19115(10) 0.0689(3) 0.54521(12)
O15 O 0.15949(12) 0.0010(3) 0.46920(12)
O16 O 0.13159(11) 0.0012(4) 0.38774(12)
C1 C 0.14462(11) 0.6931(4) 0.39556(13)
C2 C 0.13267(11) 0.6762(4) 0.42177(15)
H1 H 0.1148 0.6858 0.4132
C3 C 0.14709(11) 0.6455(3) 0.46028(14)
C4 C 0.13674(12) 0.6328(4) 0.49304(16)
C5 C 0.14536(12) 0.5324(4) 0.51070(14)
C6 C 0.12966(13) 0.4602(4) 0.51498(15)
H2 H 0.1121 0.4729 0.5076
C7 C 0.13951(13) 0.3697(4) 0.52992(15)
C8 C 0.16584(12) 0.3540(4) 0.54224(14)
C9 C 0.18161(12) 0.4264(4) 0.53885(14)
H3 H 0.1994 0.4153 0.5476
C10 C 0.17117(12) 0.5157(4) 0.52245(14)
C11 C 0.18612(11) 0.6009(4) 0.51659(14)
C12 C 0.17300(11) 0.6309(4) 0.47318(14)
C13 C 0.18478(11) 0.6461(4) 0.44693(14)
H4 H 0.2025 0.6348 0.4553
C14 C 0.17054(11) 0.6779(4) 0.40839(13)
C15 C 0.15223(14) 0.7066(4) 0.52606(16)
H5 H 0.1484 0.7737 0.5155
H6 H 0.1471 0.7006 0.5488
C16 C 0.18077(15) 0.6880(4) 0.54035(16)
H7 H 0.1879 0.6724 0.5691
H8 H 0.1893 0.7475 0.5365
C17 C 0.10830(13) 0.6509(5) 0.47906(19)
H9 H 0.0990 0.6039 0.4582
H10 H 0.1043 0.7171 0.4684
H11 H 0.1032 0.6434 0.5015
C18 C 0.21450(13) 0.5826(5) 0.53010(17)
H12 H 0.2172 0.5281 0.5150
H13 H 0.2218 0.5666 0.5585
H14 H 0.2227 0.6411 0.5255
C19 C 0.10653(11) 0.7580(5) 0.34716(16)
H15 H 0.1063 0.8074 0.3667
H16 H 0.0960 0.7022 0.3486
C20 C 0.09545(11) 0.8002(4) 0.30699(16)
H17 H 0.0802 0.8391 0.3039
H18 H 0.1080 0.8439 0.3030
C21 C 0.07190(12) 0.7573(5) 0.24016(17)
H19 H 0.0802 0.8101 0.2312
H20 H 0.0562 0.7838 0.2416
C22 C 0.06525(11) 0.6755(6) 0.21108(19)
H21 H 0.0607 0.6171 0.2226
H22 H 0.0504 0.6937 0.1866
C23 C 0.08071(13) 0.5918(5) 0.16871(17)
H23 H 0.0920 0.6081 0.1549
H24 H 0.0629 0.6033 0.1498
C24 C 0.08386(12) 0.4859(5) 0.17971(19)
H25 H 0.0753 0.4709 0.1979
H26 H 0.0761 0.4452 0.1556
C25 C 0.20785(13) 0.7205(6) 0.39720(17)
H27 H 0.2111 0.7741 0.4166
H28 H 0.2179 0.6634 0.4114
C26 C 0.21594(15) 0.7494(7) 0.3666(2)
H29 H 0.2053 0.8045 0.3517
H30 H 0.2338 0.7720 0.3789
C27 C 0.22966(14) 0.6615(7) 0.3239(3)
H31 H 0.2464 0.6489 0.3456
H32 H 0.2310 0.7255 0.3125
C28 C 0.22676(12) 0.5920(7) 0.29423(19)
H33 H 0.2330 0.6211 0.2750
H34 H 0.2379 0.5360 0.3068
C29 C 0.19862(11) 0.5013(4) 0.23885(16)
H35 H 0.2153 0.4865 0.2378
H36 H 0.1885 0.5398 0.2149
C30 C 0.18520(10) 0.4093(4) 0.23847(16)
H37 H 0.1857 0.3663 0.2172
H38 H 0.1936 0.3753 0.2642
C31 C 0.11750(10) 0.3724(4) 0.21265(14)
C32 C 0.10058(10) 0.2989(4) 0.21082(14)
H39 H 0.0828 0.3110 0.1985
C33 C 0.10924(10) 0.2080(4) 0.22674(13)
C34 C 0.09247(10) 0.1221(4) 0.22741(15)
C35 C 0.10181(10) 0.0907(4) 0.27067(14)
C36 C 0.08624(12) 0.0806(4) 0.29145(16)
H40 H 0.0685 0.0933 0.2789
C37 C 0.09716(13) 0.0518(5) 0.33084(17)
C38 C 0.12301(14) 0.0307(4) 0.34872(15)
C39 C 0.13855(12) 0.0403(4) 0.32767(15)
H41 H 0.1562 0.0257 0.3398
C40 C 0.12750(10) 0.0719(4) 0.28828(14)
C41 C 0.14170(10) 0.0863(4) 0.26125(14)
C42 C 0.13521(10) 0.1886(4) 0.24478(14)
C43 C 0.15228(10) 0.2616(4) 0.24579(14)
H42 H 0.1700 0.2484 0.2572
C44 C 0.14385(10) 0.3531(4) 0.23039(14)
C45 C 0.09983(12) 0.0367(4) 0.20579(15)
H43 H 0.0904 -0.0227 0.2070
H44 H 0.0950 0.0537 0.1775
C46 C 0.12845(12) 0.0166(4) 0.22524(16)
H45 H 0.1360 0.0260 0.2054
H46 H 0.1314 -0.0518 0.2345
C47 C 0.06394(11) 0.1417(5) 0.20773(19)
H47 H 0.0596 0.1957 0.2213
H48 H 0.0546 0.0832 0.2095
H49 H 0.0593 0.1587 0.1798
C48 C 0.16998(11) 0.0662(4) 0.28050(18)
H50 H 0.1780 0.1109 0.3029
H51 H 0.1775 0.0759 0.2610
H52 H 0.1728 -0.0010 0.2901
C49 C 0.0625(2) 0.0288(10) 0.3451(3)
H53 H 0.0581 -0.0243 0.3252
H54 H 0.0540 0.0881 0.3305
C50 C 0.04972(18) 0.0048(8) 0.3722(3)
H55 H 0.0312 0.0170 0.3584
H56 H 0.0521 -0.0653 0.3790
C51 C 0.0771(2) 0.0136(6) 0.4380(3)
H57 H 0.0938 0.0197 0.4363
H58 H 0.0728 -0.0564 0.4370
C52 C 0.0782(3) 0.0588(7) 0.4772(2)
H59 H 0.0609 0.0619 0.4770
H60 H 0.0889 0.0180 0.4999
C53 C 0.08725(16) 0.2026(6) 0.51422(19)
H61 H 0.0968 0.1659 0.5389
H62 H 0.0693 0.2081 0.5111
C54 C 0.09849(14) 0.3014(5) 0.51677(18)
H63 H 0.0925 0.3312 0.4900
H64 H 0.0933 0.3437 0.5341
C55 C 0.20003(13) 0.2376(4) 0.56683(16)
H65 H 0.2117 0.2771 0.5892
H66 H 0.2041 0.2496 0.5433
C56 C 0.20315(14) 0.1328(5) 0.57742(17)
H67 H 0.2216 0.1175 0.5895
H68 H 0.1962 0.1206 0.5978
C57 C 0.16452(16) 0.0593(5) 0.53272(18)
H69 H 0.1558 0.1191 0.5190
H70 H 0.1601 0.0477 0.5558
C58 C 0.15680(18) -0.0250(5) 0.50521(17)
H71 H 0.1677 -0.0819 0.5176
H72 H 0.1389 -0.0426 0.4994
C59 C 0.1581(2) -0.0816(5) 0.44459(18)
H73 H 0.1432 -0.1223 0.4416
H74 H 0.1736 -0.1218 0.4566
C60 C 0.15564(19) -0.0433(5) 0.40496(18)
H75 H 0.1693 0.0045 0.4083
H76 H 0.1570 -0.0971 0.3879
N1 N 0.16491(8) 0.5829(3) 0.30577(12)
H77 H 0.1757 0.5756 0.2929
H78 H 0.1725 0.6254 0.3265
N2 N 0.15340(9) 0.6524(3) 0.13033(11)
N3 N 0.14217(9) 0.2785(3) 0.43554(12)
C61 C 0.14077(10) 0.6283(4) 0.27744(14)
H79 H 0.1274 0.6212 0.2881
H80 H 0.1349 0.5937 0.2517
C62 C 0.14439(10) 0.7354(4) 0.27094(15)
H81 H 0.1275 0.7640 0.2554
H82 H 0.1512 0.7680 0.2972
C63 C 0.16178(10) 0.7589(4) 0.24992(14)
H83 H 0.1778 0.7220 0.2629
H84 H 0.1660 0.8291 0.2534
C64 C 0.15059(11) 0.7356(4) 0.20550(14)
H85 H 0.1474 0.6647 0.2016
H86 H 0.1341 0.7696 0.1924
C65 C 0.16850(12) 0.7668(4) 0.18669(16)
H87 H 0.1843 0.7283 0.1987
H88 H 0.1730 0.8359 0.1935
C66 C 0.15849(14) 0.7562(4) 0.14196(16)
H89 H 0.1426 0.7942 0.1294
H90 H 0.1711 0.7823 0.1323
C67 C 0.16223(11) 0.4866(4) 0.32257(16)
H91 H 0.1519 0.4426 0.3007
H92 H 0.1532 0.4953 0.3404
C68 C 0.18799(12) 0.4407(5) 0.3456(2)
H93 H 0.1979 0.4830 0.3684
H94 H 0.1975 0.4360 0.3281
C69 C 0.18553(15) 0.3393(5) 0.3609(2)
H95 H 0.1732 0.3008 0.3387
H96 H 0.2022 0.3060 0.3698
C70 C 0.17694(12) 0.3412(4) 0.39444(17)
H97 H 0.1602 0.3737 0.3855
H98 H 0.1892 0.3799 0.4166
C71 C 0.17482(11) 0.2391(4) 0.40958(16)
H99 H 0.1912 0.2046 0.4166
H100 H 0.1616 0.2020 0.3881
C72 C 0.16803(11) 0.2422(5) 0.44627(15)
H101 H 0.1695 0.1761 0.4577
H102 H 0.1802 0.2851 0.4668
C73 C 0.13025(12) 0.6155(4) 0.12087(16)
H103 H 0.1164 0.6575 0.1178
C74 C 0.12625(11) 0.5172(4) 0.11556(15)
H104 H 0.1096 0.4922 0.1088
C75 C 0.14580(10) 0.4537(4) 0.11980(13)
C76 C 0.16947(10) 0.4956(4) 0.12737(14)
H105 H 0.1833 0.4556 0.1287
C77 C 0.17287(11) 0.5945(4) 0.13287(14)
H106 H 0.1892 0.6220 0.1385
C78 C 0.14224(10) 0.3468(4) 0.11710(13)
C79 C 0.11781(11) 0.3062(4) 0.09920(14)
H107 H 0.1034 0.3476 0.0882
C80 C 0.11455(12) 0.2051(4) 0.09749(15)
C81 C 0.13562(12) 0.1467(4) 0.11441(15)
H108 H 0.1334 0.0781 0.1137
C82 C 0.15995(12) 0.1839(4) 0.13232(14)
C83 C 0.16287(11) 0.2845(4) 0.13332(13)
H109 H 0.1795 0.3113 0.1455
C84 C 0.08761(14) 0.1630(5) 0.07723(18)
C85 C 0.07737(15) 0.1873(7) 0.0334(2)
H110 H 0.0771 0.2581 0.0301
H111 H 0.0600 0.1618 0.0203
H112 H 0.0883 0.1578 0.0216
C86 C 0.07088(14) 0.2009(7) 0.0970(2)
H113 H 0.0702 0.2721 0.0954
H114 H 0.0779 0.1809 0.1250
H115 H 0.0537 0.1744 0.0836
C87 C 0.08747(17) 0.0514(6) 0.0814(2)
H116 H 0.0700 0.0272 0.0683
H117 H 0.0943 0.0338 0.1096
H118 H 0.0981 0.0221 0.0689
C88 C 0.18358(13) 0.1183(4) 0.15022(16)
C89 C 0.20133(15) 0.1537(5) 0.19146(17)
H119 H 0.2162 0.1109 0.2021
H120 H 0.1923 0.1526 0.2092
H121 H 0.2069 0.2203 0.1896
C90 C 0.17669(17) 0.0117(5) 0.1542(2)
H122 H 0.1923 -0.0270 0.1657
H123 H 0.1660 -0.0140 0.1279
H124 H 0.1674 0.0083 0.1716
C91 C 0.19786(13) 0.1205(5) 0.12309(17)
H125 H 0.2130 0.0792 0.1342
H126 H 0.2030 0.1875 0.1208
H127 H 0.1868 0.0962 0.0967
C92 C 0.12215(11) 0.2152(4) 0.42267(15)
H128 H 0.1252 0.1474 0.4224
C93 C 0.09778(11) 0.2485(5) 0.41022(16)
H129 H 0.0841 0.2033 0.4023
C94 C 0.09268(11) 0.3479(4) 0.40890(15)
C95 C 0.11387(11) 0.4101(4) 0.42201(15)
H130 H 0.1113 0.4785 0.4216
C96 C 0.13787(11) 0.3742(4) 0.43526(14)
H131 H 0.1519 0.4179 0.4445
C97 C 0.06666(12) 0.3863(5) 0.39489(18)
C98 C 0.04735(13) 0.3307(6) 0.3997(2)
H132 H 0.0513 0.2686 0.4120
C99 C 0.02269(14) 0.3656(7) 0.3866(2)
C100 C 0.01729(14) 0.4557(7) 0.3668(3)
H133 H 0.0003 0.4791 0.3568
C101 C 0.03571(14) 0.5121(6) 0.3611(3)
C102 C 0.06027(13) 0.4755(5) 0.3757(2)
H134 H 0.0733 0.5130 0.3724
C103 C 0.00184(16) 0.3047(9) 0.3926(3)
C104 C -0.02391(17) 0.3445(10) 0.3714(4)
H135 H -0.0251 0.4085 0.3823
H136 H -0.0364 0.3004 0.3746
H137 H -0.0274 0.3511 0.3431
C105 C 0.0096(3) 0.2812(18) 0.4343(4)
H138 H 0.0112 0.3413 0.4495
H139 H 0.0261 0.2475 0.4439
H140 H -0.0032 0.2390 0.4377
C106 C 0.0005(2) 0.2024(9) 0.3726(4)
H141 H 0.0171 0.1699 0.3850
H142 H -0.0037 0.2111 0.3441
H143 H -0.0126 0.1626 0.3762
C107 C 0.02907(18) 0.6100(8) 0.3381(4)
C108 C 0.00218(18) 0.6347(11) 0.3243(5)
H144 H -0.0027 0.6386 0.3471
H145 H -0.0080 0.5845 0.3059
H146 H -0.0009 0.6977 0.3107
C109 C 0.0459(2) 0.6899(8) 0.3646(5)
H147 H 0.0420 0.6975 0.3882
H148 H 0.0425 0.7513 0.3498
H149 H 0.0638 0.6721 0.3727
C110 C 0.0369(2) 0.6007(11) 0.3003(4)
H150 H 0.0331 0.6620 0.2854
H151 H 0.0271 0.5478 0.2830
H152 H 0.0551 0.5867 0.3096
P1 P 0.24645(3) 0.75845(14) 0.19566(5)
F1 F 0.26022(11) 0.8313(6) 0.2288(2)
F2 F 0.27187(10) 0.6989(5) 0.21016(18)
F3 F 0.22117(11) 0.8154(6) 0.1795(2)
F4 F 0.23707(11) 0.7016(6) 0.22446(17)
F5 F 0.23297(12) 0.6821(6) 0.16226(19)
F6 F 0.25616(12) 0.8091(5) 0.16617(19)
P2 P 0.05048(10) 0.5285(5) 0.05005(16)
F7 F 0.0290(3) 0.4585(14) 0.0266(5)
F8 F 0.0708(2) 0.6017(11) 0.0749(3)
F9 F 0.0634(2) 0.4608(11) 0.0831(4)
F10 F 0.0695(3) 0.4850(11) 0.0319(4)
F11 F 0.0380(3) 0.6095(14) 0.0208(4)
F12 F 0.0334(2) 0.5654(13) 0.0723(4)
P3 P 0.2500 0.2500 0.5000
F13 F 0.24465(11) 0.2885(5) 0.45707(13)
F14 F 0.22660(10) 0.1798(4) 0.48230(18)
F15 F 0.23214(10) 0.3319(4) 0.50413(17)
F13F F 0.25535(11) 0.2115(5) 0.54293(13)
F14F F 0.27340(10) 0.3202(4) 0.51770(18)
F15F F 0.26786(10) 0.1681(4) 0.49587(17)
P4 P 0.0000 0.9488(6) 0.2500
F16 F 0.0257(2) 0.9128(12) 0.2540(4)
F17 F 0.0062(3) 0.9030(12) 0.2908(3)
F18 F 0.0126(3) 1.0328(10) 0.2769(4)
F16A F -0.0257(2) 0.9128(12) 0.2460(4)
F17A F -0.0062(3) 0.9030(12) 0.2092(3)
F18A F -0.0126(3) 1.0328(10) 0.2231(4)
P5 P 0.0000 1.0000 0.0000
F19 F 0.0207(2) 0.9267(13) 0.0075(5)
F20 F 0.0146(3) 1.0429(13) 0.0392(5)
F21 F -0.0110(3) 0.9350(15) 0.0213(5)
F19D F -0.0207(2) 1.0733(13) -0.0075(5)
F20D F -0.0146(3) 0.9571(13) -0.0392(5)
F21D F 0.0110(3) 1.0650(15) -0.0213(5)
N4 N 0.2089(3) -0.0240(10) 0.3904(6)
C111 C 0.2225(2) 0.0350(7) 0.3906(3)
C112 C 0.2393(2) 0.1046(7) 0.3913(3)
N5 N 0.22866(15) 0.3929(7) 0.1568(3)
C113 C 0.24604(16) 0.4145(6) 0.1827(3)
C114 C 0.26862(16) 0.4403(8) 0.2181(3)
N6 N 0.0926(3) 0.8149(11) 0.1172(4)
C115 C 0.0740(2) 0.8276(9) 0.1113(4)
C116 C 0.0515(7) 0.830(3) 0.1092(11)
N7 N 0.1055(2) 0.4985(9) 0.3346(4)
C117 C 0.1010(3) 0.4164(12) 0.3203(4)
C118 C 0.1011(8) 0.3276(14) 0.3099(7)
N8 N 0.0377(5) 0.376(2) 0.2388(9)
C119 C 0.0362(6) 0.327(2) 0.2655(10)
C120 C 0.0298(5) 0.274(2) 0.2936(8)
C121? C 0.2286(4) -0.0298(13) 0.5044(6)
C122? C 0.2337(3) -0.1155(19) 0.5200(11)
C123? C 0.2406(4) -0.2044(15) 0.5082(6)
loop_
_geom_bond_atom_site_label_1
_geom_bond_atom_site_label_2
_geom_bond_site_symmetry_1
_geom_bond_site_symmetry_2
O1 C1 1_555 1_555
O2 C20 1_555 1_555
O3 C22 1_555 1_555
O4 C24 1_555 1_555
O5 C14 1_555 1_555
O6 C26 1_555 1_555
O7 C28 1_555 1_555
O8 C30 1_555 1_555
O9 C7 1_555 1_555
O10 C52 1_555 1_555
O11 C50 1_555 1_555
O12 C37 1_555 1_555
O13 C8 1_555 1_555
O14 C56 1_555 1_555
O15 C58 1_555 1_555
O16 C38 1_555 1_555
C1 C2 1_555 1_555
C2 H1 1_555 1_555
C3 C2 1_555 1_555
C4 C3 1_555 1_555
C5 C4 1_555 1_555
C6 C5 1_555 1_555
H2 C6 1_555 1_555
C7 C6 1_555 1_555
C8 C7 1_555 1_555
C9 C8 1_555 1_555
H3 C9 1_555 1_555
C10 C5 1_555 1_555
C11 C10 1_555 1_555
C12 C3 1_555 1_555
C13 C12 1_555 1_555
H4 C13 1_555 1_555
C14 C1 1_555 1_555
C15 C4 1_555 1_555
H5 C15 1_555 1_555
H6 C15 1_555 1_555
C16 C11 1_555 1_555
H7 C16 1_555 1_555
H8 C16 1_555 1_555
C17 C4 1_555 1_555
H9 C17 1_555 1_555
H10 C17 1_555 1_555
H11 C17 1_555 1_555
C18 C11 1_555 1_555
H12 C18 1_555 1_555
H13 C18 1_555 1_555
H14 C18 1_555 1_555
C19 O1 1_555 1_555
H15 C19 1_555 1_555
H16 C19 1_555 1_555
C20 C19 1_555 1_555
H17 C20 1_555 1_555
H18 C20 1_555 1_555
C21 O2 1_555 1_555
H19 C21 1_555 1_555
H20 C21 1_555 1_555
C22 C21 1_555 1_555
H21 C22 1_555 1_555
H22 C22 1_555 1_555
C23 O3 1_555 1_555
H23 C23 1_555 1_555
H24 C23 1_555 1_555
C24 C23 1_555 1_555
H25 C24 1_555 1_555
H26 C24 1_555 1_555
C25 O5 1_555 1_555
H27 C25 1_555 1_555
H28 C25 1_555 1_555
C26 C25 1_555 1_555
H29 C26 1_555 1_555
H30 C26 1_555 1_555
C27 O6 1_555 1_555
H31 C27 1_555 1_555
H32 C27 1_555 1_555
C28 C27 1_555 1_555
H33 C28 1_555 1_555
H34 C28 1_555 1_555
C29 O7 1_555 1_555
H35 C29 1_555 1_555
H36 C29 1_555 1_555
C30 C29 1_555 1_555
H37 C30 1_555 1_555
H38 C30 1_555 1_555
C31 O4 1_555 1_555
C32 C31 1_555 1_555
H39 C32 1_555 1_555
C33 C32 1_555 1_555
C34 C33 1_555 1_555
C35 C34 1_555 1_555
C36 C35 1_555 1_555
H40 C36 1_555 1_555
C37 C36 1_555 1_555
C38 C37 1_555 1_555
C39 C38 1_555 1_555
H41 C39 1_555 1_555
C40 C35 1_555 1_555
C41 C40 1_555 1_555
C42 C33 1_555 1_555
C43 C42 1_555 1_555
H42 C43 1_555 1_555
C44 O8 1_555 1_555
C45 C34 1_555 1_555
H43 C45 1_555 1_555
H44 C45 1_555 1_555
C46 C41 1_555 1_555
H45 C46 1_555 1_555
H46 C46 1_555 1_555
C47 C34 1_555 1_555
H47 C47 1_555 1_555
H48 C47 1_555 1_555
H49 C47 1_555 1_555
C48 C41 1_555 1_555
H50 C48 1_555 1_555
H51 C48 1_555 1_555
H52 C48 1_555 1_555
C49 O12 1_555 1_555
H53 C49 1_555 1_555
H54 C49 1_555 1_555
C50 C49 1_555 1_555
H55 C50 1_555 1_555
H56 C50 1_555 1_555
C51 O11 1_555 1_555
H57 C51 1_555 1_555
H58 C51 1_555 1_555
C52 C51 1_555 1_555
H59 C52 1_555 1_555
H60 C52 1_555 1_555
C53 O10 1_555 1_555
H61 C53 1_555 1_555
H62 C53 1_555 1_555
C54 O9 1_555 1_555
H63 C54 1_555 1_555
H64 C54 1_555 1_555
C55 O13 1_555 1_555
H65 C55 1_555 1_555
H66 C55 1_555 1_555
C56 C55 1_555 1_555
H67 C56 1_555 1_555
H68 C56 1_555 1_555
C57 O14 1_555 1_555
H69 C57 1_555 1_555
H70 C57 1_555 1_555
C58 C57 1_555 1_555
H71 C58 1_555 1_555
H72 C58 1_555 1_555
C59 O15 1_555 1_555
H73 C59 1_555 1_555
H74 C59 1_555 1_555
C60 O16 1_555 1_555
H75 C60 1_555 1_555
H76 C60 1_555 1_555
N1 H77 1_555 1_555
H78 N1 1_555 1_555
N2 C66 1_555 1_555
N3 C72 1_555 1_555
C61 N1 1_555 1_555
H79 C61 1_555 1_555
H80 C61 1_555 1_555
C62 C61 1_555 1_555
H81 C62 1_555 1_555
H82 C62 1_555 1_555
C63 C62 1_555 1_555
H83 C63 1_555 1_555
H84 C63 1_555 1_555
C64 C63 1_555 1_555
H85 C64 1_555 1_555
H86 C64 1_555 1_555
C65 C64 1_555 1_555
H87 C65 1_555 1_555
H88 C65 1_555 1_555
C66 C65 1_555 1_555
H89 C66 1_555 1_555
H90 C66 1_555 1_555
C67 N1 1_555 1_555
H91 C67 1_555 1_555
H92 C67 1_555 1_555
C68 C67 1_555 1_555
H93 C68 1_555 1_555
H94 C68 1_555 1_555
C69 C68 1_555 1_555
H95 C69 1_555 1_555
H96 C69 1_555 1_555
C70 C69 1_555 1_555
H97 C70 1_555 1_555
H98 C70 1_555 1_555
C71 C70 1_555 1_555
H99 C71 1_555 1_555
H100 C71 1_555 1_555
C72 C71 1_555 1_555
H101 C72 1_555 1_555
H102 C72 1_555 1_555
C73 N2 1_555 1_555
H103 C73 1_555 1_555
C74 C73 1_555 1_555
H104 C74 1_555 1_555
C75 C74 1_555 1_555
C76 C75 1_555 1_555
H105 C76 1_555 1_555
C77 N2 1_555 1_555
H106 C77 1_555 1_555
C78 C75 1_555 1_555
C79 C78 1_555 1_555
H107 C79 1_555 1_555
C80 C79 1_555 1_555
C81 C80 1_555 1_555
H108 C81 1_555 1_555
C82 C81 1_555 1_555
C83 C78 1_555 1_555
H109 C83 1_555 1_555
C84 C80 1_555 1_555
C85 C84 1_555 1_555
H110 C85 1_555 1_555
H111 C85 1_555 1_555
H112 C85 1_555 1_555
C86 C84 1_555 1_555
H113 C86 1_555 1_555
H114 C86 1_555 1_555
H115 C86 1_555 1_555
C87 C84 1_555 1_555
H116 C87 1_555 1_555
H117 C87 1_555 1_555
H118 C87 1_555 1_555
C88 C82 1_555 1_555
C89 C88 1_555 1_555
H119 C89 1_555 1_555
H120 C89 1_555 1_555
H121 C89 1_555 1_555
C90 C88 1_555 1_555
H122 C90 1_555 1_555
H123 C90 1_555 1_555
H124 C90 1_555 1_555
C91 C88 1_555 1_555
H125 C91 1_555 1_555
H126 C91 1_555 1_555
H127 C91 1_555 1_555
C92 N3 1_555 1_555
H128 C92 1_555 1_555
C93 C92 1_555 1_555
H129 C93 1_555 1_555
C94 C93 1_555 1_555
C95 C94 1_555 1_555
H130 C95 1_555 1_555
C96 N3 1_555 1_555
H131 C96 1_555 1_555
C97 C94 1_555 1_555
C98 C97 1_555 1_555
H132 C98 1_555 1_555
C99 C98 1_555 1_555
C100 C99 1_555 1_555
H133 C100 1_555 1_555
C101 C100 1_555 1_555
C102 C97 1_555 1_555
H134 C102 1_555 1_555
C103 C99 1_555 1_555
C104 C103 1_555 1_555
H135 C104 1_555 1_555
H136 C104 1_555 1_555
H137 C104 1_555 1_555
C105 C103 1_555 1_555
H138 C105 1_555 1_555
H139 C105 1_555 1_555
H140 C105 1_555 1_555
C106 C103 1_555 1_555
H141 C106 1_555 1_555
H142 C106 1_555 1_555
H143 C106 1_555 1_555
C107 C101 1_555 1_555
C108 C107 1_555 1_555
H144 C108 1_555 1_555
H145 C108 1_555 1_555
H146 C108 1_555 1_555
C109 C107 1_555 1_555
H147 C109 1_555 1_555
H148 C109 1_555 1_555
H149 C109 1_555 1_555
C110 C107 1_555 1_555
H150 C110 1_555 1_555
H151 C110 1_555 1_555
H152 C110 1_555 1_555
P1 F1 1_555 1_555
F2 P1 1_555 1_555
F3 P1 1_555 1_555
F4 P1 1_555 1_555
F5 P1 1_555 1_555
F6 P1 1_555 1_555
P2 F7 1_555 1_555
F8 P2 1_555 1_555
F9 P2 1_555 1_555
F10 P2 1_555 1_555
F11 P2 1_555 1_555
F12 P2 1_555 1_555
P3 F13 1_555 1_555
F14 P3 1_555 1_555
F15 P3 1_555 1_555
P4 F16 1_555 1_555
F17 P4 1_555 1_555
F18 P4 1_555 1_555
P5 F19 1_555 1_555
F20 P5 1_555 1_555
F21 P5 1_555 1_555
N4 C111 1_555 1_555
C111 C112 1_555 1_555
N5 C113 1_555 1_555
C113 C114 1_555 1_555
N6 C115 1_555 1_555
C115 C116 1_555 1_555
N7 C117 1_555 1_555
C117 C118 1_555 1_555
N8 C119 1_555 1_555
C119 C120 1_555 1_555
F13F P3 1_555 1_555
F14F P3 1_555 1_555
F15F P3 1_555 1_555
F16A P4 1_555 1_555
F17A P4 1_555 1_555
F18A P4 1_555 1_555
F19D P5 1_555 1_555
F20D P5 1_555 1_555
F21D P5 1_555 1_555
C9 C10 1_555 1_555
C11 C12 1_555 1_555
C13 C14 1_555 1_555
C15 C16 1_555 1_555
C31 C44 1_555 1_555
C39 C40 1_555 1_555
C41 C42 1_555 1_555
C43 C44 1_555 1_555
C45 C46 1_555 1_555
C53 C54 1_555 1_555
C59 C60 1_555 1_555
C76 C77 1_555 1_555
C82 C83 1_555 1_555
C95 C96 1_555 1_555
C101 C102 1_555 1_555

#END
