
#######################################################################
#
#                 Cambridge Crystallographic Data Centre
#                                CCDC 
#
#######################################################################
#
# If this CIF has been generated from an entry in the Cambridge 
# Structural Database, then it will include bibliographic, chemical, 
# crystal, experimental, refinement or atomic coordinate data resulting 
# from the CCDC's data processing and validation procedures.
#
#######################################################################

data_ADIJAY
_chemical_formula_moiety         'C28 H40 N2 O8 S2'
_chemical_name_systematic        
Dithio-bis(ethane-1,2-diyl)-bis(1,5,7-trimethyl-2,4-dioxo-3-azabicyclo(3.3.1)nona-7-carboxylate)
_symmetry_cell_setting           monoclinic
_symmetry_space_group_name_H-M   'C 2/c'
_symmetry_Int_Tables_number      15
_space_group_name_Hall           '-C 2yn'
loop_
_symmetry_equiv_pos_site_id
_symmetry_equiv_pos_as_xyz
1 x,y,z
2 1/2+x,1/2+y,z
3 x,-y,1/2+z
4 1/2+x,1/2-y,1/2+z
5 -x,-y,-z
6 1/2-x,1/2-y,-z
7 -x,y,1/2-z
8 1/2-x,1/2+y,1/2-z
_cell_length_a                   21.660(34)
_cell_length_b                   8.974(5)
_cell_length_c                   15.643(13)
_cell_angle_alpha                90
_cell_angle_beta                 100.36(10)
_cell_angle_gamma                90
_cell_volume                     2991.07
_exptl_crystal_colour            colorless
_exptl_crystal_description       prism
_chemical_melting_point          256-258deg.C
_cell_formula_units_Z            4
_exptl_crystal_recrystallization_method dichloromethane/hexane
loop_
_atom_site_label
_atom_site_type_symbol
_atom_site_fract_x
_atom_site_fract_y
_atom_site_fract_z
S1 S 0.45205(4) 0.08710(11) 0.23934(6)
O1 O 0.22197(11) 0.3163(3) -0.10462(15)
O2 O 0.35517(13) 0.5561(3) 0.1032(2)
O3 O 0.43225(11) 0.3028(2) 0.01057(14)
O4 O 0.36324(14) 0.1794(3) -0.0854(2)
N1 N 0.28833(12) 0.4432(3) -0.0036(2)
H1 H 0.27651(12) 0.3838(3) 0.0369(2)
C1 C 0.27907(14) 0.5148(3) -0.1571(2)
C2 C 0.25982(15) 0.4168(4) -0.0879(2)
C3 C 0.3338(2) 0.5488(3) 0.0268(2)
C4 C 0.3548(2) 0.6468(3) -0.0419(2)
C5 C 0.3009(2) 0.6652(3) -0.1175(2)
H2 H 0.2666(2) 0.7137(3) -0.0977(2)
H3 H 0.3139(2) 0.7270(3) -0.1611(2)
C6 C 0.3341(2) 0.4390(4) -0.1897(2)
H4 H 0.3429(2) 0.4953(4) -0.2383(2)
H5 H 0.3210(2) 0.3413(4) -0.2105(2)
C7 C 0.39522(14) 0.4242(3) -0.1237(2)
C8 C 0.40996(15) 0.5718(3) -0.0748(2)
H6 H 0.44266(15) 0.5545(3) -0.0257(2)
H7 H 0.42597(15) 0.6403(3) -0.1127(2)
C9 C 0.3763(2) 0.7985(4) -0.0013(3)
H8 H 0.3417(2) 0.8453(4) 0.0189(3)
H9 H 0.4101(2) 0.7836(4) 0.0467(3)
H10 H 0.3902(2) 0.8611(4) -0.0439(3)
C10 C 0.2240(2) 0.5333(4) -0.2322(2)
H11 H 0.1897(2) 0.5801(4) -0.2113(2)
H12 H 0.2365(2) 0.5943(4) -0.2765(2)
H13 H 0.2110(2) 0.4373(4) -0.2559(2)
C11 C 0.4490(2) 0.3873(5) -0.1731(2)
H14 H 0.4877(2) 0.3774(5) -0.1326(2)
H15 H 0.4398(2) 0.2957(5) -0.2045(2)
H16 H 0.4527(2) 0.4664(5) -0.2132(2)
C12 C 0.39361(14) 0.2892(4) -0.0649(2)
C13 C 0.4393(2) 0.1765(4) 0.0701(2)
H17 H 0.4801(2) 0.1333(4) 0.0728(2)
H18 H 0.4082(2) 0.1021(4) 0.0500(2)
C14 C 0.4329(2) 0.2299(4) 0.1576(2)
H19 H 0.4596(2) 0.3146(4) 0.1731(2)
H20 H 0.3903(2) 0.2610(4) 0.1559(2)
S1F S 0.54795(4) 0.08710(11) 0.26066(6)
C14F C 0.5671(2) 0.2299(4) 0.3424(2)
C13F C 0.5607(2) 0.1765(4) 0.4299(2)
O3F O 0.56775(11) 0.3028(2) 0.48943(14)
C12F C 0.60639(14) 0.2892(4) 0.5649(2)
O4F O 0.63676(14) 0.1794(3) 0.5854(2)
C7F C 0.60478(14) 0.4242(3) 0.6237(2)
C6F C 0.6659(2) 0.4390(4) 0.6897(2)
C1F C 0.72093(14) 0.5148(3) 0.6571(2)
C2F C 0.74018(15) 0.4168(4) 0.5879(2)
O1F O 0.77803(11) 0.3163(3) 0.60462(15)
N1F N 0.71167(12) 0.4432(3) 0.5036(2)
H1F H 0.72349(12) 0.3838(3) 0.4631(2)
C3F C 0.6662(2) 0.5488(3) 0.4732(2)
O2F O 0.64483(13) 0.5561(3) 0.3968(2)
C4F C 0.6452(2) 0.6468(3) 0.5419(2)
C5F C 0.6991(2) 0.6652(3) 0.6175(2)
C10F C 0.7760(2) 0.5333(4) 0.7322(2)
H11F H 0.8103(2) 0.5801(4) 0.7113(2)
H12F H 0.7635(2) 0.5943(4) 0.7765(2)
H13F H 0.7890(2) 0.4373(4) 0.7559(2)
H2F H 0.7334(2) 0.7137(3) 0.5977(2)
H3F H 0.6861(2) 0.7270(3) 0.6611(2)
C8F C 0.59004(15) 0.5718(3) 0.5748(2)
C11F C 0.5510(2) 0.3873(5) 0.6731(2)
H14F H 0.5123(2) 0.3774(5) 0.6326(2)
H15F H 0.5602(2) 0.2957(5) 0.7045(2)
H16F H 0.5473(2) 0.4664(5) 0.7132(2)
H6F H 0.55734(15) 0.5545(3) 0.5257(2)
H7F H 0.57403(15) 0.6403(3) 0.6127(2)
C9F C 0.6237(2) 0.7985(4) 0.5013(3)
H8F H 0.6583(2) 0.8453(4) 0.4811(3)
H9F H 0.5899(2) 0.7836(4) 0.4533(3)
H10F H 0.6098(2) 0.8611(4) 0.5439(3)
H4F H 0.6571(2) 0.4953(4) 0.7383(2)
H5F H 0.6790(2) 0.3413(4) 0.7105(2)
H17F H 0.5199(2) 0.1333(4) 0.4272(2)
H18F H 0.5918(2) 0.1021(4) 0.4500(2)
H19F H 0.5404(2) 0.3146(4) 0.3269(2)
H20F H 0.6097(2) 0.2610(4) 0.3441(2)
loop_
_geom_bond_atom_site_label_1
_geom_bond_atom_site_label_2
_geom_bond_site_symmetry_1
_geom_bond_site_symmetry_2
S1 C14 1_555 1_555
O1 C2 1_555 1_555
O2 C3 1_555 1_555
O3 C12 1_555 1_555
O4 C12 1_555 1_555
N1 H1 1_555 1_555
C1 C2 1_555 1_555
C2 N1 1_555 1_555
C3 N1 1_555 1_555
C4 C3 1_555 1_555
C5 C1 1_555 1_555
H2 C5 1_555 1_555
H3 C5 1_555 1_555
C6 C1 1_555 1_555
H4 C6 1_555 1_555
H5 C6 1_555 1_555
C7 C6 1_555 1_555
C8 C4 1_555 1_555
H6 C8 1_555 1_555
H7 C8 1_555 1_555
C9 C4 1_555 1_555
H8 C9 1_555 1_555
H9 C9 1_555 1_555
H10 C9 1_555 1_555
C10 C1 1_555 1_555
H11 C10 1_555 1_555
H12 C10 1_555 1_555
H13 C10 1_555 1_555
C11 C7 1_555 1_555
H14 C11 1_555 1_555
H15 C11 1_555 1_555
H16 C11 1_555 1_555
C12 C7 1_555 1_555
C13 O3 1_555 1_555
H17 C13 1_555 1_555
H18 C13 1_555 1_555
C14 C13 1_555 1_555
H19 C14 1_555 1_555
H20 C14 1_555 1_555
S1F S1 1_555 1_555
C14F S1F 1_555 1_555
C13F C14F 1_555 1_555
O3F C13F 1_555 1_555
C12F O3F 1_555 1_555
O4F C12F 1_555 1_555
C7F C12F 1_555 1_555
C6F C7F 1_555 1_555
C1F C6F 1_555 1_555
C2F C1F 1_555 1_555
O1F C2F 1_555 1_555
N1F C2F 1_555 1_555
H1F N1F 1_555 1_555
C3F N1F 1_555 1_555
O2F C3F 1_555 1_555
C4F C3F 1_555 1_555
C5F C1F 1_555 1_555
C10F C1F 1_555 1_555
H11F C10F 1_555 1_555
H12F C10F 1_555 1_555
H13F C10F 1_555 1_555
H2F C5F 1_555 1_555
H3F C5F 1_555 1_555
C8F C7F 1_555 1_555
C11F C7F 1_555 1_555
H14F C11F 1_555 1_555
H15F C11F 1_555 1_555
H16F C11F 1_555 1_555
H6F C8F 1_555 1_555
H7F C8F 1_555 1_555
C9F C4F 1_555 1_555
H8F C9F 1_555 1_555
H9F C9F 1_555 1_555
H10F C9F 1_555 1_555
H4F C6F 1_555 1_555
H5F C6F 1_555 1_555
H17F C13F 1_555 1_555
H18F C13F 1_555 1_555
H19F C14F 1_555 1_555
H20F C14F 1_555 1_555
C4 C5 1_555 1_555
C7 C8 1_555 1_555
C4F C5F 1_555 1_555
C4F C8F 1_555 1_555

#END
