
#######################################################################
#
#                 Cambridge Crystallographic Data Centre
#                                CCDC 
#
#######################################################################
#
# If this CIF has been generated from an entry in the Cambridge 
# Structural Database, then it will include bibliographic, chemical, 
# crystal, experimental, refinement or atomic coordinate data resulting 
# from the CCDC's data processing and validation procedures.
#
#######################################################################

data_AFOGUA
_chemical_formula_moiety         
'3(C1 H6 N3 1+),C24 H15 O9 S3 3-,3.3(C9 H14 O1),1.3(C6 F6),4.8(C1 H4 O1)'
_chemical_name_systematic        
'tris(Guanidinium) 1,3,5-tris(4-sulfonatophenyl)benzene tris(isophorone) hexafluorobenzene clathrate methanol solvate'
_symmetry_cell_setting           hexagonal
_symmetry_space_group_name_H-M   'P 63'
_symmetry_Int_Tables_number      173
_space_group_name_Hall           'P 6c'
loop_
_symmetry_equiv_pos_site_id
_symmetry_equiv_pos_as_xyz
1 x,y,z
2 -y,x-y,z
3 -x+y,-x,z
4 -x,-y,1/2+z
5 y,-x+y,1/2+z
6 x-y,x,1/2+z
_cell_length_a                   24.069(2)
_cell_length_b                   24.069(2)
_cell_length_c                   7.3724(7)
_cell_angle_alpha                90
_cell_angle_beta                 90
_cell_angle_gamma                120
_cell_volume                     3698.76
_exptl_crystal_colour            colorless
_exptl_crystal_description       rod
_cell_formula_units_Z            2
loop_
_atom_site_label
_atom_site_type_symbol
_atom_site_fract_x
_atom_site_fract_y
_atom_site_fract_z
N1 N 0.14441(19) 0.2863(2) 0.9084(8)
H6 H 0.130328 0.292913 0.805122
H7 H 0.130779 0.293352 1.011861
N2 N 0.2068(3) 0.2549(3) 0.7552(6)
H8 H 0.193014 0.261408 0.651217
H9 H 0.234526 0.241209 0.756526
N3 N 0.2077(3) 0.2562(3) 1.0657(6)
H10 H 0.235716 0.242860 1.066182
H11 H 0.193944 0.263365 1.168823
C9 C 0.1861(2) 0.2657(2) 0.9081(9)
O4 O 0.43065(19) 0.52553(19) 0.4971(6)
C10 C 0.4230(2) 0.4863(2) 0.3789(8)
C11 C 0.3867(3) 0.4793(3) 0.2134(9)
H12 H 0.369820 0.507033 0.194558
C12 C 0.3764(3) 0.4354(3) 0.0881(8)
C13 C 0.3991(3) 0.3884(3) 0.1104(7)
H13 H 0.438797 0.403332 0.038450
H14 H 0.366250 0.346668 0.059538
C14 C 0.4128(3) 0.3779(3) 0.3081(8)
C15 C 0.4531(2) 0.4447(2) 0.3939(8)
H15 H 0.459870 0.439370 0.523776
H16 H 0.495657 0.466772 0.334537
C16 C 0.3416(3) 0.4310(3) -0.0838(12)
H17 H 0.303512 0.388297 -0.093485
H18 H 0.369956 0.438285 -0.187467
H19 H 0.328563 0.463596 -0.083242
C17 C 0.3496(2) 0.3396(2) 0.4118(9)
H20 H 0.325725 0.362674 0.408458
H21 H 0.358764 0.334171 0.538035
H22 H 0.323972 0.297356 0.355212
C18 C 0.4497(3) 0.3425(3) 0.3122(8)
H23 H 0.423848 0.300047 0.257241
H24 H 0.459622 0.337656 0.438193
H25 H 0.489776 0.366841 0.243951
F1 F 0.6037(2) 0.4000(2) 0.4417(10)
F2 F 0.7329(2) 0.4629(2) 0.4424(9)
C19 C 0.6348(4) 0.3672(4) 0.4426(10)
C20 C 0.7004(4) 0.3991(3) 0.4429(10)
F1A F 0.6000(2) 0.2037(3) 0.4417(10)
F2A F 0.5371(2) 0.2700(3) 0.4424(9)
C19A C 0.6328(4) 0.2676(6) 0.4426(10)
C20A C 0.6009(3) 0.3013(5) 0.4429(10)
F1B F 0.7963(3) 0.3963(2) 0.4417(10)
F2B F 0.7300(3) 0.2671(2) 0.4424(9)
C19B C 0.7324(6) 0.3652(4) 0.4426(10)
C20B C 0.6987(5) 0.2996(4) 0.4429(10)
S1 S 0.12741(5) 0.31189(5) 0.4112(2)
O1 O 0.08821(19) 0.29429(18) 0.5739(5)
O2 O 0.17014(14) 0.28580(13) 0.4082(6)
O3 O 0.08871(19) 0.29695(18) 0.2475(4)
C1 C 0.2943(2) 0.5997(2) 0.4468(7)
C2 C 0.3609(2) 0.6279(2) 0.4478(7)
H1 H 0.379817 0.601476 0.449166
C3 C 0.2527(2) 0.5285(2) 0.4403(8)
C4 C 0.1948(3) 0.5003(3) 0.3455(8)
H2 H 0.181402 0.526832 0.287250
C5 C 0.1568(2) 0.4348(2) 0.3350(7)
H3 H 0.116952 0.416175 0.272467
C6 C 0.1769(2) 0.3961(2) 0.4162(9)
C7 C 0.2345(2) 0.4234(2) 0.5128(7)
H4 H 0.247818 0.396845 0.571323
C8 C 0.2716(2) 0.4889(2) 0.5225(7)
H5 H 0.311113 0.507499 0.586872
S1A S 0.68811(5) 0.81552(7) 0.4112(2)
O1A O 0.70571(18) 0.79392(26) 0.5739(5)
O2A O 0.71420(13) 0.88434(19) 0.4082(6)
O3A O 0.70305(18) 0.79176(26) 0.2475(4)
C1A C 0.4003(2) 0.6946(3) 0.4468(7)
C2A C 0.3721(2) 0.7330(3) 0.4478(7)
H1A H 0.398524 0.778341 0.449166
C3A C 0.4715(2) 0.7242(3) 0.4403(8)
C4A C 0.4997(3) 0.6945(4) 0.3455(8)
H2A H 0.473168 0.654570 0.287250
C5A C 0.5652(2) 0.7220(3) 0.3350(7)
H3A H 0.583825 0.700777 0.272467
C6A C 0.6039(2) 0.7808(3) 0.4162(9)
C7A C 0.5766(2) 0.8111(3) 0.5128(7)
H4A H 0.603155 0.850973 0.571323
C8A C 0.5111(2) 0.7827(3) 0.5225(7)
H5A H 0.492501 0.803614 0.586872
S1B S 0.18448(7) 0.87259(5) 0.4112(2)
O1B O 0.20608(26) 0.91179(19) 0.5739(5)
O2B O 0.11566(19) 0.82986(14) 0.4082(6)
O3B O 0.20824(26) 0.91129(19) 0.2475(4)
C1B C 0.3054(3) 0.7057(2) 0.4468(7)
C2B C 0.2670(3) 0.6391(2) 0.4478(7)
H1B H 0.221659 0.620183 0.449166
C3B C 0.2758(3) 0.7473(2) 0.4403(8)
C4B C 0.3055(4) 0.8052(3) 0.3455(8)
H2B H 0.345430 0.818598 0.287250
C5B C 0.2780(3) 0.8432(2) 0.3350(7)
H3B H 0.299223 0.883048 0.272467
C6B C 0.2192(3) 0.8231(2) 0.4162(9)
C7B C 0.1889(3) 0.7655(2) 0.5128(7)
H4B H 0.149027 0.752182 0.571323
C8B C 0.2173(3) 0.7284(2) 0.5225(7)
H5B H 0.196386 0.688887 0.586872
loop_
_geom_bond_atom_site_label_1
_geom_bond_atom_site_label_2
_geom_bond_site_symmetry_1
_geom_bond_site_symmetry_2
S1 O1 1_555 1_555
O2 S1 1_555 1_555
O3 S1 1_555 1_555
C1 C2 1_555 1_555
C2 H1 1_555 1_555
C3 C1 1_555 1_555
C4 C3 1_555 1_555
H2 C4 1_555 1_555
C5 C4 1_555 1_555
H3 C5 1_555 1_555
C6 S1 1_555 1_555
C7 C6 1_555 1_555
H4 C7 1_555 1_555
C8 C3 1_555 1_555
H5 C8 1_555 1_555
N1 H6 1_555 1_555
H7 N1 1_555 1_555
N2 H8 1_555 1_555
H9 N2 1_555 1_555
N3 H10 1_555 1_555
H11 N3 1_555 1_555
C9 N1 1_555 1_555
O4 C10 1_555 1_555
C10 C11 1_555 1_555
C11 H12 1_555 1_555
C12 C11 1_555 1_555
C13 C12 1_555 1_555
H13 C13 1_555 1_555
H14 C13 1_555 1_555
C14 C13 1_555 1_555
C15 C10 1_555 1_555
H15 C15 1_555 1_555
H16 C15 1_555 1_555
C16 C12 1_555 1_555
H17 C16 1_555 1_555
H18 C16 1_555 1_555
H19 C16 1_555 1_555
C17 C14 1_555 1_555
H20 C17 1_555 1_555
H21 C17 1_555 1_555
H22 C17 1_555 1_555
C18 C14 1_555 1_555
H23 C18 1_555 1_555
H24 C18 1_555 1_555
H25 C18 1_555 1_555
F1 C19 1_555 1_555
F2 C20 1_555 1_555
C19 C20 1_555 1_555
C20 C19B 1_555 1_555
S1A O1A 1_555 1_555
O2A S1A 1_555 1_555
O3A S1A 1_555 1_555
C1A C2 1_555 1_555
C2A C1A 1_555 1_555
H1A C2A 1_555 1_555
C3A C1A 1_555 1_555
C4A C3A 1_555 1_555
H2A C4A 1_555 1_555
C5A C4A 1_555 1_555
H3A C5A 1_555 1_555
C6A S1A 1_555 1_555
C7A C6A 1_555 1_555
H4A C7A 1_555 1_555
C8A C3A 1_555 1_555
H5A C8A 1_555 1_555
S1B O1B 1_555 1_555
O2B S1B 1_555 1_555
O3B S1B 1_555 1_555
C1B C2A 1_555 1_555
C2B C1 1_555 1_555
H1B C2B 1_555 1_555
C3B C1B 1_555 1_555
C4B C3B 1_555 1_555
H2B C4B 1_555 1_555
C5B C4B 1_555 1_555
H3B C5B 1_555 1_555
C6B S1B 1_555 1_555
C7B C6B 1_555 1_555
H4B C7B 1_555 1_555
C8B C3B 1_555 1_555
H5B C8B 1_555 1_555
F1A C19A 1_555 1_555
F2A C20A 1_555 1_555
C19A C20A 1_555 1_555
C20A C19 1_555 1_555
F1B C19B 1_555 1_555
F2B C20B 1_555 1_555
C19B C20B 1_555 1_555
C20B C19A 1_555 1_555
C5 C6 1_555 1_555
C7 C8 1_555 1_555
N2 C9 1_555 1_555
N3 C9 1_555 1_555
C14 C15 1_555 1_555
C5A C6A 1_555 1_555
C7A C8A 1_555 1_555
C1B C2B 1_555 1_555
C5B C6B 1_555 1_555
C7B C8B 1_555 1_555

#END
