
#######################################################################
#
#                 Cambridge Crystallographic Data Centre
#                                CCDC 
#
#######################################################################
#
# If this CIF has been generated from an entry in the Cambridge 
# Structural Database, then it will include bibliographic, chemical, 
# crystal, experimental, refinement or atomic coordinate data resulting 
# from the CCDC's data processing and validation procedures.
#
#######################################################################

data_AFOHUB
_chemical_name_common            
'10,20-Di-t-butyl-2,8,12,18-tetrakis(2,6-dichlorophenyl)-6,16-di-n-hexylsuperoctazethrene diradicaloid acetonitrile toluene solvate'
_chemical_formula_moiety         'C90 H68 Cl8,C2 H3 N1,C7 H8'
_chemical_name_systematic        
"8,18-Di-t-butyl-6,10,16,20-tetrakis(2,6-dichlorophenyl)-4,14-di-n-hexyldiphenaleno[2,1,9,8-jklm:2',1',9',8'-wxyz]pyranthrene  diradicaloid acetonitrile toluene solvate"
_symmetry_cell_setting           triclinic
_symmetry_space_group_name_H-M   'P -1'
_symmetry_Int_Tables_number      2
_space_group_name_Hall           '-P 1'
loop_
_symmetry_equiv_pos_site_id
_symmetry_equiv_pos_as_xyz
1 x,y,z
2 -x,-y,-z
_cell_length_a                   13.0759(9)
_cell_length_b                   13.5700(11)
_cell_length_c                   22.5690(16)
_cell_angle_alpha                74.875(6)
_cell_angle_beta                 89.235(6)
_cell_angle_gamma                89.210(6)
_cell_volume                     3865.35
_exptl_crystal_colour            violet
_exptl_crystal_description       prism
_cell_formula_units_Z            2
_exptl_crystal_recrystallization_method acetonitrile/toluene
loop_
_atom_site_label
_atom_site_type_symbol
_atom_site_fract_x
_atom_site_fract_y
_atom_site_fract_z
C1 C 0.8859(8) 0.6095(10) 0.0817(6)
H1 H 0.8629 0.6751 0.0841
C2 C 0.9358(9) 0.6030(9) 0.0295(6)
C3 C 0.9757(8) 0.5058(9) 0.0265(5)
C4 C 0.9713(9) 0.4192(9) 0.0795(5)
C5 C 0.9145(8) 0.4304(9) 0.1319(5)
C6 C 0.8987(9) 0.3435(9) 0.1834(5)
C7 C 0.8347(8) 0.3506(9) 0.2326(5)
C8 C 0.8174(10) 0.2671(10) 0.2836(6)
C9 C 0.7515(10) 0.2776(11) 0.3329(6)
H2 H 0.7403 0.2203 0.3668
C10 C 0.7041(9) 0.3691(11) 0.3320(6)
C11 C 0.7237(8) 0.4520(9) 0.2832(5)
H3 H 0.6931 0.5158 0.2835
C12 C 0.7867(9) 0.4472(9) 0.2330(6)
C13 C 0.8068(8) 0.5306(9) 0.1829(5)
C14 C 0.8658(8) 0.5262(8) 0.1324(5)
C15 C 1.0146(8) 0.3240(9) 0.0784(6)
C16 C 1.0171(9) 0.2420(9) 0.1365(6)
C17 C 1.0845(9) 0.1588(10) 0.1481(5)
H4 H 1.1374 0.1566 0.1191
C18 C 1.0764(10) 0.0787(9) 0.2011(6)
H5 H 1.1239 0.0234 0.2073
C19 C 1.0041(10) 0.0775(9) 0.2432(5)
H6 H 0.9945 0.0182 0.2761
C20 C 0.9409(10) 0.1656(9) 0.2389(6)
C21 C 0.9516(9) 0.2503(9) 0.1844(5)
C22 C 0.8725(10) 0.1733(10) 0.2854(5)
C23 C 0.7584(9) 0.6323(11) 0.1853(6)
C24 C 0.7985(9) 0.6956(12) 0.2199(6)
C25 C 0.7535(11) 0.7863(11) 0.2235(6)
H7 H 0.7820 0.8250 0.2486
C26 C 0.6649(12) 0.8206(12) 0.1895(7)
H8 H 0.6331 0.8834 0.1909
C27 C 0.6262(10) 0.7652(12) 0.1555(7)
H9 H 0.5673 0.7904 0.1319
C28 C 0.6677(9) 0.6702(10) 0.1523(6)
Cl1 Cl 0.9068(3) 0.6522(3) 0.26303(19)
Cl2 Cl 0.6147(3) 0.5994(3) 0.10760(18)
C29 C 0.8567(10) 0.0837(10) 0.3390(7)
C30 C 0.9102(10) 0.0684(11) 0.3933(7)
C31 C 0.8913(14) -0.0179(14) 0.4432(7)
H10 H 0.9278 -0.0293 0.4806
C32 C 0.8158(15) -0.0860(13) 0.4346(9)
H11 H 0.7995 -0.1422 0.4683
C33 C 0.7646(12) -0.0761(12) 0.3810(8)
H12 H 0.7181 -0.1261 0.3755
C34 C 0.7848(10) 0.0102(10) 0.3360(6)
Cl3 Cl 1.0002(3) 0.1551(4) 0.39960(18)
Cl4 Cl 0.7120(3) 0.0236(3) 0.2709(2)
C35 C 0.6388(11) 0.3786(11) 0.3860(6)
C36 C 0.6779(13) 0.4600(14) 0.4115(7)
H13 H 0.7518 0.4667 0.4039
H14 H 0.6643 0.4428 0.4558
H15 H 0.6437 0.5248 0.3918
C37 C 0.5264(11) 0.4048(13) 0.3612(7)
H16 H 0.5280 0.4635 0.3251
H17 H 0.4835 0.4214 0.3933
H18 H 0.4981 0.3458 0.3499
C38 C 0.6326(10) 0.2788(11) 0.4371(6)
H19 H 0.6093 0.2239 0.4198
H20 H 0.5842 0.2875 0.4689
H21 H 0.7004 0.2613 0.4551
C39 C 1.0558(8) 0.3108(8) 0.0229(6)
C40 C 1.0787(7) 0.2058(8) 0.0127(5)
H22 H 1.0476 0.2028 -0.0265
H23 H 1.0449 0.1538 0.0459
C41 C 1.1928(7) 0.1769(7) 0.0109(6)
H24 H 1.2210 0.2088 -0.0305
H25 H 1.2302 0.2045 0.0408
C42 C 1.2106(10) 0.0620(8) 0.0257(6)
H26 H 1.2847 0.0489 0.0219
H27 H 1.1907 0.0320 0.0691
C43 C 1.1534(11) 0.0066(11) -0.0140(6)
H28 H 1.1548 -0.0675 0.0062
H29 H 1.0811 0.0296 -0.0168
C44 C 1.1972(13) 0.0240(15) -0.0778(6)
H30 H 1.2713 0.0081 -0.0748
H31 H 1.1892 0.0972 -0.0992
C45 C 1.1481(13) -0.0395(12) -0.1171(7)
H32 H 1.1587 -0.1123 -0.0975
H33 H 1.1798 -0.0223 -0.1580
H34 H 1.0746 -0.0243 -0.1207
C1A C 1.1141(8) 0.3905(10) -0.0817(6)
H1A H 1.1371 0.3249 -0.0841
C2A C 1.0642(9) 0.3970(9) -0.0295(6)
C3A C 1.0243(8) 0.4942(9) -0.0265(5)
C4A C 1.0287(9) 0.5808(9) -0.0795(5)
C5A C 1.0855(8) 0.5696(9) -0.1319(5)
C6A C 1.1013(9) 0.6565(9) -0.1834(5)
C7A C 1.1653(8) 0.6494(9) -0.2326(5)
C8A C 1.1826(10) 0.7329(10) -0.2836(6)
C9A C 1.2485(10) 0.7224(11) -0.3329(6)
H2A H 1.2597 0.7797 -0.3668
C10A C 1.2959(9) 0.6309(11) -0.3320(6)
C11A C 1.2763(8) 0.5480(9) -0.2832(5)
H3A H 1.3069 0.4842 -0.2835
C12A C 1.2133(9) 0.5528(9) -0.2330(6)
C13A C 1.1932(8) 0.4694(9) -0.1829(5)
C14A C 1.1342(8) 0.4738(8) -0.1324(5)
C15A C 0.9854(8) 0.6760(9) -0.0784(6)
C16A C 0.9829(9) 0.7580(9) -0.1365(6)
C17A C 0.9155(9) 0.8412(10) -0.1481(5)
H4A H 0.8626 0.8434 -0.1191
C18A C 0.9236(10) 0.9213(9) -0.2011(6)
H5A H 0.8761 0.9766 -0.2073
C19A C 0.9959(10) 0.9225(9) -0.2432(5)
H6A H 1.0055 0.9818 -0.2761
C20A C 1.0591(10) 0.8344(9) -0.2389(6)
C21A C 1.0484(9) 0.7497(9) -0.1844(5)
C22A C 1.1275(10) 0.8267(10) -0.2854(5)
C23A C 1.2416(9) 0.3677(11) -0.1853(6)
C24A C 1.2015(9) 0.3044(12) -0.2199(6)
C25A C 1.2465(11) 0.2137(11) -0.2235(6)
H7A H 1.2180 0.1750 -0.2486
C26A C 1.3351(12) 0.1794(12) -0.1895(7)
H8A H 1.3669 0.1166 -0.1909
C27A C 1.3738(10) 0.2348(12) -0.1555(7)
H9A H 1.4327 0.2096 -0.1319
C28A C 1.3323(9) 0.3298(10) -0.1523(6)
Cl1A Cl 1.0932(3) 0.3478(3) -0.26303(19)
Cl2A Cl 1.3853(3) 0.4006(3) -0.10760(18)
C29A C 1.1433(10) 0.9163(10) -0.3390(7)
C30A C 1.0898(10) 0.9316(11) -0.3933(7)
C31A C 1.1087(14) 1.0179(14) -0.4432(7)
H10A H 1.0722 1.0293 -0.4806
C32A C 1.1842(15) 1.0860(13) -0.4346(9)
H11A H 1.2005 1.1422 -0.4683
C33A C 1.2354(12) 1.0761(12) -0.3810(8)
H12A H 1.2819 1.1261 -0.3755
C34A C 1.2152(10) 0.9898(10) -0.3360(6)
Cl3A Cl 0.9998(3) 0.8449(4) -0.39960(18)
Cl4A Cl 1.2880(3) 0.9764(3) -0.2709(2)
C35A C 1.3612(11) 0.6214(11) -0.3860(6)
C36A C 1.3221(13) 0.5400(14) -0.4115(7)
H13A H 1.2482 0.5333 -0.4039
H14A H 1.3357 0.5572 -0.4558
H15A H 1.3563 0.4752 -0.3918
C37A C 1.4736(11) 0.5952(13) -0.3612(7)
H16A H 1.4720 0.5365 -0.3251
H17A H 1.5165 0.5786 -0.3933
H18A H 1.5019 0.6542 -0.3499
C38A C 1.3674(10) 0.7212(11) -0.4371(6)
H19A H 1.3907 0.7761 -0.4198
H20A H 1.4158 0.7125 -0.4689
H21A H 1.2996 0.7387 -0.4551
C39A C 0.9442(8) 0.6892(8) -0.0229(6)
C40A C 0.9213(7) 0.7942(8) -0.0127(5)
H22A H 0.9524 0.7972 0.0265
H23A H 0.9551 0.8462 -0.0459
C41A C 0.8072(7) 0.8231(7) -0.0109(6)
H24A H 0.7790 0.7912 0.0305
H25A H 0.7698 0.7955 -0.0408
C42A C 0.7894(10) 0.9380(8) -0.0257(6)
H26A H 0.7153 0.9511 -0.0219
H27A H 0.8093 0.9680 -0.0691
C43A C 0.8466(11) 0.9934(11) 0.0140(6)
H28A H 0.8452 1.0675 -0.0062
H29A H 0.9189 0.9704 0.0168
C44A C 0.8028(13) 0.9760(15) 0.0778(6)
H30A H 0.7287 0.9919 0.0748
H31A H 0.8108 0.9028 0.0992
C45A C 0.8519(13) 1.0395(12) 0.1171(7)
H32A H 0.8413 1.1123 0.0975
H33A H 0.8202 1.0223 0.1580
H34A H 0.9254 1.0243 0.1207
C46 C 0.5105(11) 1.2145(11) 0.2416(6)
H35 H 0.5012 1.2457 0.2744
C47 C 0.5863(10) 1.2477(11) 0.1969(7)
H36 H 0.6348 1.2961 0.2022
C48 C 0.5920(11) 1.2117(10) 0.1453(6)
H37 H 0.6430 1.2376 0.1150
C49 C 0.5259(10) 1.1395(10) 0.1364(6)
C50 C 0.4588(9) 1.0933(10) 0.1845(6)
C51 C 0.4030(8) 1.0024(9) 0.1826(6)
C52 C 0.3387(9) 0.9563(10) 0.2330(6)
C53 C 0.2896(9) 0.8598(10) 0.2342(6)
C54 C 0.2268(9) 0.8185(10) 0.2851(6)
H38 H 0.1931 0.7567 0.2858
C55 C 0.2090(10) 0.8587(11) 0.3344(6)
C56 C 0.2566(10) 0.9508(11) 0.3321(6)
H39 H 0.2431 0.9833 0.3640
C57 C 0.3249(9) 0.9982(9) 0.2835(6)
C58 C 0.3776(11) 1.0883(10) 0.2854(6)
C59 C 0.4484(9) 1.1331(10) 0.2364(6)
C60 C 0.5248(9) 1.1081(10) 0.0800(6)
C61 C 0.4735(8) 1.0117(10) 0.0795(6)
C62 C 0.4747(8) 0.9710(9) 0.0273(5)
C63 C 0.4283(8) 0.8746(10) 0.0300(6)
C64 C 0.3797(8) 0.8279(9) 0.0827(6)
H40 H 0.3512 0.7629 0.0850
C65 C 0.3675(8) 0.8646(10) 0.1326(6)
C66 C 0.4155(9) 0.9619(10) 0.1318(6)
C67 C 0.3059(8) 0.8171(9) 0.1833(6)
C68 C 0.3574(8) 1.1365(8) 0.3379(4)
C69 C 0.4140(6) 1.1058(7) 0.3914(5)
C70 C 0.3967(8) 1.1515(9) 0.4391(4)
H41 H 0.4355 1.1305 0.4757
C71 C 0.3228(9) 1.2279(8) 0.4333(5)
H42 H 0.3109 1.2591 0.4659
C72 C 0.2661(7) 1.2586(7) 0.3798(6)
H43 H 0.2155 1.3108 0.3759
C73 C 0.2834(7) 1.2129(8) 0.3322(4)
Cl5 Cl 0.5085(4) 1.0168(4) 0.39849(19)
Cl6 Cl 0.2109(3) 1.2488(3) 0.26804(19)
C74 C 0.2557(11) 0.7162(11) 0.1852(6)
C75 C 0.3063(10) 0.6255(12) 0.2101(6)
C76 C 0.2637(12) 0.5330(12) 0.2133(7)
H44 H 0.3004 0.4715 0.2305
C77 C 0.1668(14) 0.5306(11) 0.1911(7)
H45 H 0.1360 0.4668 0.1930
C78 C 0.1127(10) 0.6218(12) 0.1657(6)
H46 H 0.0461 0.6197 0.1498
C79 C 0.1565(11) 0.7137(10) 0.1639(6)
Cl7 Cl 0.4284(3) 0.6251(3) 0.2367(2)
Cl8 Cl 0.0891(3) 0.8265(3) 0.1351(2)
C80 C 0.1432(10) 0.8030(12) 0.3890(6)
C81 C 0.1336(12) 0.8624(13) 0.4371(7)
H47 H 0.1028 0.9295 0.4187
H48 H 0.2016 0.8712 0.4526
H49 H 0.0902 0.8249 0.4710
C82 C 0.0342(10) 0.7892(10) 0.3672(6)
H50 H -0.0057 0.7475 0.4014
H51 H 0.0381 0.7552 0.3338
H52 H 0.0011 0.8562 0.3523
C83 C 0.1951(11) 0.6985(11) 0.4190(6)
H53 H 0.2679 0.7086 0.4248
H54 H 0.1873 0.6527 0.3921
H55 H 0.1626 0.6681 0.4588
C84 C 0.4351(8) 0.8358(8) -0.0232(7)
C85 C 0.4052(7) 0.7248(8) -0.0130(6)
H56 H 0.4373 0.6852 0.0256
H57 H 0.4354 0.6995 -0.0468
C86 C 0.2914(7) 0.7007(8) -0.0090(6)
H58 H 0.2572 0.7444 -0.0456
H59 H 0.2618 0.7179 0.0277
C87 C 0.2694(11) 0.5891(8) -0.0053(8)
H60 H 0.1966 0.5762 0.0064
H61 H 0.2789 0.5784 -0.0468
C88 C 0.3317(11) 0.5132(9) 0.0376(9)
H62 H 0.3445 0.5390 0.0740
H63 H 0.3988 0.5078 0.0178
C89 C 0.2882(12) 0.4070(9) 0.0597(8)
H64 H 0.2949 0.3713 0.0267
H65 H 0.2146 0.4116 0.0696
C90 C 0.3447(14) 0.3470(14) 0.1161(7)
H66 H 0.4162 0.3684 0.1135
H67 H 0.3418 0.2740 0.1185
H68 H 0.3125 0.3598 0.1529
C46A C 0.4895(11) 0.7855(11) -0.2416(6)
H35A H 0.4988 0.7543 -0.2744
C47A C 0.4137(10) 0.7523(11) -0.1969(7)
H36A H 0.3652 0.7039 -0.2022
C48A C 0.4080(11) 0.7883(10) -0.1453(6)
H37A H 0.3570 0.7624 -0.1150
C49A C 0.4741(10) 0.8605(10) -0.1364(6)
C50A C 0.5412(9) 0.9067(10) -0.1845(6)
C51A C 0.5970(8) 0.9976(9) -0.1826(6)
C52A C 0.6613(9) 1.0437(10) -0.2330(6)
C53A C 0.7104(9) 1.1402(10) -0.2342(6)
C54A C 0.7732(9) 1.1815(10) -0.2851(6)
H38A H 0.8069 1.2433 -0.2858
C55A C 0.7910(10) 1.1413(11) -0.3344(6)
C56A C 0.7434(10) 1.0492(11) -0.3321(6)
H39A H 0.7569 1.0167 -0.3640
C57A C 0.6751(9) 1.0018(9) -0.2835(6)
C58A C 0.6224(11) 0.9117(10) -0.2854(6)
C59A C 0.5516(9) 0.8669(10) -0.2364(6)
C60A C 0.4752(9) 0.8919(10) -0.0800(6)
C61A C 0.5265(8) 0.9883(10) -0.0795(6)
C62A C 0.5253(8) 1.0290(9) -0.0273(5)
C63A C 0.5717(8) 1.1254(10) -0.0300(6)
C64A C 0.6203(8) 1.1721(9) -0.0827(6)
H40A H 0.6488 1.2371 -0.0850
C65A C 0.6325(8) 1.1354(10) -0.1326(6)
C66A C 0.5845(9) 1.0381(10) -0.1318(6)
C67A C 0.6941(8) 1.1829(9) -0.1833(6)
C68A C 0.6426(8) 0.8635(8) -0.3379(4)
C69A C 0.5860(6) 0.8942(7) -0.3914(5)
C70A C 0.6033(8) 0.8485(9) -0.4391(4)
H41A H 0.5645 0.8695 -0.4757
C71A C 0.6772(9) 0.7721(8) -0.4333(5)
H42A H 0.6891 0.7409 -0.4659
C72A C 0.7339(7) 0.7414(7) -0.3798(6)
H43A H 0.7845 0.6892 -0.3759
C73A C 0.7166(7) 0.7871(8) -0.3322(4)
Cl5A Cl 0.4915(4) 0.9832(4) -0.39849(19)
Cl6A Cl 0.7891(3) 0.7512(3) -0.26804(19)
C74A C 0.7443(11) 1.2838(11) -0.1852(6)
C75A C 0.6937(10) 1.3745(12) -0.2101(6)
C76A C 0.7363(12) 1.4670(12) -0.2133(7)
H44A H 0.6996 1.5285 -0.2305
C77A C 0.8332(14) 1.4694(11) -0.1911(7)
H45A H 0.8640 1.5332 -0.1930
C78A C 0.8873(10) 1.3782(12) -0.1657(6)
H46A H 0.9539 1.3803 -0.1498
C79A C 0.8435(11) 1.2863(10) -0.1639(6)
Cl7A Cl 0.5716(3) 1.3749(3) -0.2367(2)
Cl8A Cl 0.9109(3) 1.1735(3) -0.1351(2)
C80A C 0.8568(10) 1.1970(12) -0.3890(6)
C81A C 0.8664(12) 1.1376(13) -0.4371(7)
H47A H 0.8972 1.0705 -0.4187
H48A H 0.7984 1.1288 -0.4526
H49A H 0.9098 1.1751 -0.4710
C82A C 0.9658(10) 1.2108(10) -0.3672(6)
H50A H 1.0057 1.2525 -0.4014
H51A H 0.9619 1.2448 -0.3338
H52A H 0.9989 1.1438 -0.3523
C83A C 0.8049(11) 1.3015(11) -0.4190(6)
H53A H 0.7321 1.2914 -0.4248
H54A H 0.8127 1.3473 -0.3921
H55A H 0.8374 1.3319 -0.4588
C84A C 0.5649(8) 1.1642(8) 0.0232(7)
C85A C 0.5948(7) 1.2752(8) 0.0130(6)
H56A H 0.5627 1.3148 -0.0256
H57A H 0.5646 1.3005 0.0468
C86A C 0.7086(7) 1.2993(8) 0.0090(6)
H58A H 0.7428 1.2556 0.0456
H59A H 0.7382 1.2821 -0.0277
C87A C 0.7306(11) 1.4109(8) 0.0053(8)
H60A H 0.8034 1.4238 -0.0064
H61A H 0.7211 1.4216 0.0468
C88A C 0.6683(11) 1.4868(9) -0.0376(9)
H62A H 0.6555 1.4610 -0.0740
H63A H 0.6012 1.4922 -0.0178
C89A C 0.7118(12) 1.5930(9) -0.0597(8)
H64A H 0.7051 1.6287 -0.0267
H65A H 0.7854 1.5884 -0.0696
C90A C 0.6553(14) 1.6530(14) -0.1161(7)
H66A H 0.5838 1.6316 -0.1135
H67A H 0.6582 1.7260 -0.1185
H68A H 0.6875 1.6402 -0.1529
C91 C 0.4916(15) 0.7833(18) 0.3369(9)
C92 C 0.5420(14) 0.7437(13) 0.3928(10)
N1 N 0.5853(15) 0.7131(13) 0.4380(8)
C93 C 0.0419(15) 0.4364(19) 0.4027(10)
C94 C 0.0547(19) 0.3970(17) 0.4655(10)
C95 C 0.150(2) 0.3981(17) 0.4913(9)
C96 C 0.2335(16) 0.439(2) 0.4543(16)
C97 C 0.2207(17) 0.4781(19) 0.3914(15)
C98 C 0.125(2) 0.4769(17) 0.3656(9)
C99 C -0.054(2) 0.423(3) 0.3739(17)
loop_
_geom_bond_atom_site_label_1
_geom_bond_atom_site_label_2
_geom_bond_site_symmetry_1
_geom_bond_site_symmetry_2
C1 H1 1_555 1_555
C2 C1 1_555 1_555
C3 C2 1_555 1_555
C4 C3 1_555 1_555
C5 C4 1_555 1_555
C6 C5 1_555 1_555
C7 C6 1_555 1_555
C8 C7 1_555 1_555
C9 C8 1_555 1_555
H2 C9 1_555 1_555
C10 C9 1_555 1_555
C11 C10 1_555 1_555
H3 C11 1_555 1_555
C12 C7 1_555 1_555
C13 C12 1_555 1_555
C14 C1 1_555 1_555
C15 C4 1_555 1_555
C16 C15 1_555 1_555
C17 C16 1_555 1_555
H4 C17 1_555 1_555
C18 C17 1_555 1_555
H5 C18 1_555 1_555
C19 C18 1_555 1_555
H6 C19 1_555 1_555
C20 C19 1_555 1_555
C21 C6 1_555 1_555
C22 C8 1_555 1_555
C23 C13 1_555 1_555
C24 C23 1_555 1_555
C25 C24 1_555 1_555
H7 C25 1_555 1_555
C26 C25 1_555 1_555
H8 C26 1_555 1_555
C27 C26 1_555 1_555
H9 C27 1_555 1_555
C28 C23 1_555 1_555
Cl1 C24 1_555 1_555
Cl2 C28 1_555 1_555
C29 C22 1_555 1_555
C30 C29 1_555 1_555
C31 C30 1_555 1_555
H10 C31 1_555 1_555
C32 C31 1_555 1_555
H11 C32 1_555 1_555
C33 C32 1_555 1_555
H12 C33 1_555 1_555
C34 C29 1_555 1_555
Cl3 C30 1_555 1_555
Cl4 C34 1_555 1_555
C35 C10 1_555 1_555
C36 C35 1_555 1_555
H13 C36 1_555 1_555
H14 C36 1_555 1_555
H15 C36 1_555 1_555
C37 C35 1_555 1_555
H16 C37 1_555 1_555
H17 C37 1_555 1_555
H18 C37 1_555 1_555
C38 C35 1_555 1_555
H19 C38 1_555 1_555
H20 C38 1_555 1_555
H21 C38 1_555 1_555
C39 C15 1_555 1_555
C40 C39 1_555 1_555
H22 C40 1_555 1_555
H23 C40 1_555 1_555
C41 C40 1_555 1_555
H24 C41 1_555 1_555
H25 C41 1_555 1_555
C42 C41 1_555 1_555
H26 C42 1_555 1_555
H27 C42 1_555 1_555
C43 C42 1_555 1_555
H28 C43 1_555 1_555
H29 C43 1_555 1_555
C44 C43 1_555 1_555
H30 C44 1_555 1_555
H31 C44 1_555 1_555
C45 C44 1_555 1_555
H32 C45 1_555 1_555
H33 C45 1_555 1_555
H34 C45 1_555 1_555
C46 H35 1_555 1_555
C47 C46 1_555 1_555
H36 C47 1_555 1_555
C48 C47 1_555 1_555
H37 C48 1_555 1_555
C49 C48 1_555 1_555
C50 C49 1_555 1_555
C51 C50 1_555 1_555
C52 C51 1_555 1_555
C53 C52 1_555 1_555
C54 C53 1_555 1_555
H38 C54 1_555 1_555
C55 C54 1_555 1_555
C56 C55 1_555 1_555
H39 C56 1_555 1_555
C57 C52 1_555 1_555
C58 C57 1_555 1_555
C59 C46 1_555 1_555
C60 C49 1_555 1_555
C61 C60 1_555 1_555
C62 C61 1_555 1_555
C63 C62 1_555 1_555
C64 C63 1_555 1_555
H40 C64 1_555 1_555
C65 C64 1_555 1_555
C66 C51 1_555 1_555
C67 C53 1_555 1_555
C68 C58 1_555 1_555
C69 C68 1_555 1_555
C70 C69 1_555 1_555
H41 C70 1_555 1_555
C71 C70 1_555 1_555
H42 C71 1_555 1_555
C72 C71 1_555 1_555
H43 C72 1_555 1_555
C73 C68 1_555 1_555
Cl5 C69 1_555 1_555
Cl6 C73 1_555 1_555
C74 C67 1_555 1_555
C75 C74 1_555 1_555
C76 C75 1_555 1_555
H44 C76 1_555 1_555
C77 C76 1_555 1_555
H45 C77 1_555 1_555
C78 C77 1_555 1_555
H46 C78 1_555 1_555
C79 C74 1_555 1_555
Cl7 C75 1_555 1_555
Cl8 C79 1_555 1_555
C80 C55 1_555 1_555
C81 C80 1_555 1_555
H47 C81 1_555 1_555
H48 C81 1_555 1_555
H49 C81 1_555 1_555
C82 C80 1_555 1_555
H50 C82 1_555 1_555
H51 C82 1_555 1_555
H52 C82 1_555 1_555
C83 C80 1_555 1_555
H53 C83 1_555 1_555
H54 C83 1_555 1_555
H55 C83 1_555 1_555
C84 C63 1_555 1_555
C85 C84 1_555 1_555
H56 C85 1_555 1_555
H57 C85 1_555 1_555
C86 C85 1_555 1_555
H58 C86 1_555 1_555
H59 C86 1_555 1_555
C87 C86 1_555 1_555
H60 C87 1_555 1_555
H61 C87 1_555 1_555
C88 C87 1_555 1_555
H62 C88 1_555 1_555
H63 C88 1_555 1_555
C89 C88 1_555 1_555
H64 C89 1_555 1_555
H65 C89 1_555 1_555
C90 C89 1_555 1_555
H66 C90 1_555 1_555
H67 C90 1_555 1_555
H68 C90 1_555 1_555
C91 C92 1_555 1_555
C92 N1 1_555 1_555
C93 C94 1_555 1_555
C94 C95 1_555 1_555
C95 C96 1_555 1_555
C96 C97 1_555 1_555
C97 C98 1_555 1_555
C98 C93 1_555 1_555
C99 C93 1_555 1_555
C1A H1A 1_555 1_555
C2A C39 1_555 1_555
C3A C3 1_555 1_555
C4A C3A 1_555 1_555
C5A C4A 1_555 1_555
C6A C5A 1_555 1_555
C7A C6A 1_555 1_555
C8A C7A 1_555 1_555
C9A C8A 1_555 1_555
H2A C9A 1_555 1_555
C10A C9A 1_555 1_555
C11A C10A 1_555 1_555
H3A C11A 1_555 1_555
C12A C7A 1_555 1_555
C13A C12A 1_555 1_555
C14A C1A 1_555 1_555
C15A C4A 1_555 1_555
C16A C15A 1_555 1_555
C17A C16A 1_555 1_555
H4A C17A 1_555 1_555
C18A C17A 1_555 1_555
H5A C18A 1_555 1_555
C19A C18A 1_555 1_555
H6A C19A 1_555 1_555
C20A C19A 1_555 1_555
C21A C6A 1_555 1_555
C22A C8A 1_555 1_555
C23A C13A 1_555 1_555
C24A C23A 1_555 1_555
C25A C24A 1_555 1_555
H7A C25A 1_555 1_555
C26A C25A 1_555 1_555
H8A C26A 1_555 1_555
C27A C26A 1_555 1_555
H9A C27A 1_555 1_555
C28A C23A 1_555 1_555
Cl1A C24A 1_555 1_555
Cl2A C28A 1_555 1_555
C29A C22A 1_555 1_555
C30A C29A 1_555 1_555
C31A C30A 1_555 1_555
H10A C31A 1_555 1_555
C32A C31A 1_555 1_555
H11A C32A 1_555 1_555
C33A C32A 1_555 1_555
H12A C33A 1_555 1_555
C34A C29A 1_555 1_555
Cl3A C30A 1_555 1_555
Cl4A C34A 1_555 1_555
C35A C10A 1_555 1_555
C36A C35A 1_555 1_555
H13A C36A 1_555 1_555
H14A C36A 1_555 1_555
H15A C36A 1_555 1_555
C37A C35A 1_555 1_555
H16A C37A 1_555 1_555
H17A C37A 1_555 1_555
H18A C37A 1_555 1_555
C38A C35A 1_555 1_555
H19A C38A 1_555 1_555
H20A C38A 1_555 1_555
H21A C38A 1_555 1_555
C39A C2 1_555 1_555
C40A C39A 1_555 1_555
H22A C40A 1_555 1_555
H23A C40A 1_555 1_555
C41A C40A 1_555 1_555
H24A C41A 1_555 1_555
H25A C41A 1_555 1_555
C42A C41A 1_555 1_555
H26A C42A 1_555 1_555
H27A C42A 1_555 1_555
C43A C42A 1_555 1_555
H28A C43A 1_555 1_555
H29A C43A 1_555 1_555
C44A C43A 1_555 1_555
H30A C44A 1_555 1_555
H31A C44A 1_555 1_555
C45A C44A 1_555 1_555
H32A C45A 1_555 1_555
H33A C45A 1_555 1_555
H34A C45A 1_555 1_555
C46A H35A 1_555 1_555
C47A C46A 1_555 1_555
H36A C47A 1_555 1_555
C48A C47A 1_555 1_555
H37A C48A 1_555 1_555
C49A C48A 1_555 1_555
C50A C49A 1_555 1_555
C51A C50A 1_555 1_555
C52A C51A 1_555 1_555
C53A C52A 1_555 1_555
C54A C53A 1_555 1_555
H38A C54A 1_555 1_555
C55A C54A 1_555 1_555
C56A C55A 1_555 1_555
H39A C56A 1_555 1_555
C57A C52A 1_555 1_555
C58A C57A 1_555 1_555
C59A C46A 1_555 1_555
C60A C84 1_555 1_555
C61A C60A 1_555 1_555
C62A C62 1_555 1_555
C63A C62A 1_555 1_555
C64A C63A 1_555 1_555
H40A C64A 1_555 1_555
C65A C64A 1_555 1_555
C66A C51A 1_555 1_555
C67A C53A 1_555 1_555
C68A C58A 1_555 1_555
C69A C68A 1_555 1_555
C70A C69A 1_555 1_555
H41A C70A 1_555 1_555
C71A C70A 1_555 1_555
H42A C71A 1_555 1_555
C72A C71A 1_555 1_555
H43A C72A 1_555 1_555
C73A C68A 1_555 1_555
Cl5A C69A 1_555 1_555
Cl6A C73A 1_555 1_555
C74A C67A 1_555 1_555
C75A C74A 1_555 1_555
C76A C75A 1_555 1_555
H44A C76A 1_555 1_555
C77A C76A 1_555 1_555
H45A C77A 1_555 1_555
C78A C77A 1_555 1_555
H46A C78A 1_555 1_555
C79A C74A 1_555 1_555
Cl7A C75A 1_555 1_555
Cl8A C79A 1_555 1_555
C80A C55A 1_555 1_555
C81A C80A 1_555 1_555
H47A C81A 1_555 1_555
H48A C81A 1_555 1_555
H49A C81A 1_555 1_555
C82A C80A 1_555 1_555
H50A C82A 1_555 1_555
H51A C82A 1_555 1_555
H52A C82A 1_555 1_555
C83A C80A 1_555 1_555
H53A C83A 1_555 1_555
H54A C83A 1_555 1_555
H55A C83A 1_555 1_555
C84A C60 1_555 1_555
C85A C84A 1_555 1_555
H56A C85A 1_555 1_555
H57A C85A 1_555 1_555
C86A C85A 1_555 1_555
H58A C86A 1_555 1_555
H59A C86A 1_555 1_555
C87A C86A 1_555 1_555
H60A C87A 1_555 1_555
H61A C87A 1_555 1_555
C88A C87A 1_555 1_555
H62A C88A 1_555 1_555
H63A C88A 1_555 1_555
C89A C88A 1_555 1_555
H64A C89A 1_555 1_555
H65A C89A 1_555 1_555
C90A C89A 1_555 1_555
H66A C90A 1_555 1_555
H67A C90A 1_555 1_555
H68A C90A 1_555 1_555
C5 C14 1_555 1_555
C11 C12 1_555 1_555
C13 C14 1_555 1_555
C16 C21 1_555 1_555
C20 C21 1_555 1_555
C20 C22 1_555 1_555
C27 C28 1_555 1_555
C33 C34 1_555 1_555
C50 C59 1_555 1_555
C56 C57 1_555 1_555
C58 C59 1_555 1_555
C61 C66 1_555 1_555
C65 C66 1_555 1_555
C65 C67 1_555 1_555
C72 C73 1_555 1_555
C78 C79 1_555 1_555
C1A C2A 1_555 1_555
C2A C3A 1_555 1_555
C5A C14A 1_555 1_555
C11A C12A 1_555 1_555
C13A C14A 1_555 1_555
C15A C39A 1_555 1_555
C16A C21A 1_555 1_555
C20A C21A 1_555 1_555
C20A C22A 1_555 1_555
C27A C28A 1_555 1_555
C33A C34A 1_555 1_555
C49A C60A 1_555 1_555
C50A C59A 1_555 1_555
C56A C57A 1_555 1_555
C58A C59A 1_555 1_555
C61A C62A 1_555 1_555
C61A C66A 1_555 1_555
C63A C84A 1_555 1_555
C65A C66A 1_555 1_555
C65A C67A 1_555 1_555
C72A C73A 1_555 1_555
C78A C79A 1_555 1_555

#END
