
#######################################################################
#
#                 Cambridge Crystallographic Data Centre
#                                CCDC 
#
#######################################################################
#
# If this CIF has been generated from an entry in the Cambridge 
# Structural Database, then it will include bibliographic, chemical, 
# crystal, experimental, refinement or atomic coordinate data resulting 
# from the CCDC's data processing and validation procedures.
#
#######################################################################

data_AFUGUE
_chemical_formula_moiety         'C21 H15 Cl3 N2'
_chemical_name_systematic        
1-Phenyl-3-(2,4-dichlorophenyl)-5-(4-chlorophenyl)-4,5-dihydro-1H-pyrazole
_symmetry_cell_setting           monoclinic
_symmetry_space_group_name_H-M   'P 21/c'
_symmetry_Int_Tables_number      14
_space_group_name_Hall           '-P 2ybc'
loop_
_symmetry_equiv_pos_site_id
_symmetry_equiv_pos_as_xyz
1 x,y,z
2 -x,1/2+y,1/2-z
3 -x,-y,-z
4 x,1/2-y,1/2+z
_cell_length_a                   8.4779(17)
_cell_length_b                   15.706(3)
_cell_length_c                   14.185(3)
_cell_angle_alpha                90
_cell_angle_beta                 97.98(3)
_cell_angle_gamma                90
_cell_volume                     1870.5
_chemical_melting_point          '128.5-129.5 deg.C'
_cell_formula_units_Z            4
_exptl_crystal_recrystallization_method 'diethyl ether'
loop_
_atom_site_label
_atom_site_type_symbol
_atom_site_fract_x
_atom_site_fract_y
_atom_site_fract_z
Cl1 Cl 0.63599(11) 0.08815(5) 0.96881(6)
Cl2 Cl 0.63775(15) 0.01506(8) 0.60526(6)
Cl3 Cl 0.54800(15) -0.22189(9) 1.48240(9)
N1 N 0.9329(3) -0.14934(16) 1.02439(15)
N2 N 0.9702(3) -0.16554(17) 1.11913(16)
C1 C 0.6999(3) 0.01769(17) 0.88754(19)
C2 C 0.6506(3) 0.03832(19) 0.7930(2)
H1 H 0.5868 0.0858 0.7772
C3 C 0.6970(4) -0.0122(2) 0.7236(2)
C4 C 0.7908(4) -0.0828(2) 0.7456(2)
H2 H 0.8219 -0.1168 0.6977
C5 C 0.8372(4) -0.10222(18) 0.8395(2)
H3 H 0.9003 -0.1501 0.8542
C6 C 0.7940(3) -0.05307(17) 0.91458(18)
C7 C 0.8508(3) -0.08025(17) 1.01209(18)
C8 C 0.8230(3) -0.04001(19) 1.10446(19)
H4 H 0.7109 -0.0405 1.1116
H5 H 0.8617 0.0182 1.1090
C9 C 0.9203(3) -0.09750(18) 1.17920(19)
H6 H 1.0143 -0.0665 1.2093
C10 C 1.0714(3) -0.23265(19) 1.1493(2)
C11 C 1.1167(4) -0.2909(2) 1.0843(2)
H7 H 1.0822 -0.2842 1.0196
C12 C 1.2127(5) -0.3584(2) 1.1161(3)
H8 H 1.2424 -0.3969 1.0720
C13 C 1.2657(5) -0.3706(3) 1.2105(3)
H9 H 1.3292 -0.4172 1.2307
C14 C 1.2237(4) -0.3127(2) 1.2750(3)
H10 H 1.2593 -0.3202 1.3395
C15 C 1.1289(4) -0.2434(2) 1.2454(2)
H11 H 1.1035 -0.2039 1.2897
C16 C 0.8260(3) -0.12950(18) 1.25526(18)
C17 C 0.8580(4) -0.0989(2) 1.3466(2)
H12 H 0.9383 -0.0588 1.3615
C18 C 0.7718(5) -0.1270(3) 1.4170(2)
H13 H 0.7933 -0.1058 1.4786
C19 C 0.6559(4) -0.1860(2) 1.3944(2)
C20 C 0.6219(4) -0.2173(2) 1.3041(3)
H14 H 0.5419 -0.2577 1.2897
C21 C 0.7072(4) -0.1884(2) 1.2345(2)
H15 H 0.6838 -0.2092 1.1727
loop_
_geom_bond_atom_site_label_1
_geom_bond_atom_site_label_2
_geom_bond_site_symmetry_1
_geom_bond_site_symmetry_2
Cl1 C1 1_555 1_555
Cl2 C3 1_555 1_555
Cl3 C19 1_555 1_555
N1 N2 1_555 1_555
N2 C9 1_555 1_555
C1 C2 1_555 1_555
C2 H1 1_555 1_555
C3 C2 1_555 1_555
C4 C3 1_555 1_555
H2 C4 1_555 1_555
C5 C4 1_555 1_555
H3 C5 1_555 1_555
C6 C1 1_555 1_555
C7 N1 1_555 1_555
C8 C7 1_555 1_555
H4 C8 1_555 1_555
H5 C8 1_555 1_555
C9 C8 1_555 1_555
H6 C9 1_555 1_555
C10 N2 1_555 1_555
C11 C10 1_555 1_555
H7 C11 1_555 1_555
C12 C11 1_555 1_555
H8 C12 1_555 1_555
C13 C12 1_555 1_555
H9 C13 1_555 1_555
C14 C13 1_555 1_555
H10 C14 1_555 1_555
C15 C10 1_555 1_555
H11 C15 1_555 1_555
C16 C9 1_555 1_555
C17 C16 1_555 1_555
H12 C17 1_555 1_555
C18 C17 1_555 1_555
H13 C18 1_555 1_555
C19 C18 1_555 1_555
C20 C19 1_555 1_555
H14 C20 1_555 1_555
C21 C16 1_555 1_555
H15 C21 1_555 1_555
C5 C6 1_555 1_555
C6 C7 1_555 1_555
C14 C15 1_555 1_555
C20 C21 1_555 1_555

#END
