
#######################################################################
#
#                 Cambridge Crystallographic Data Centre
#                                CCDC 
#
#######################################################################
#
# If this CIF has been generated from an entry in the Cambridge 
# Structural Database, then it will include bibliographic, chemical, 
# crystal, experimental, refinement or atomic coordinate data resulting 
# from the CCDC's data processing and validation procedures.
#
#######################################################################

data_AFUHAN
_chemical_formula_moiety         'C11 H9 N1 O1,C12 H8 N2,C6 F4 I2'
_chemical_name_systematic        
'phenazine 4-phenylpyridine N-oxide 1,2,4,5-tetrafluoro-3,6-diiodobenzene'
_symmetry_cell_setting           monoclinic
_symmetry_space_group_name_H-M   'C 2/c'
_symmetry_Int_Tables_number      15
_space_group_name_Hall           '-C 2yn'
loop_
_symmetry_equiv_pos_site_id
_symmetry_equiv_pos_as_xyz
1 x,y,z
2 -x,y,1/2-z
3 1/2+x,1/2+y,z
4 1/2-x,1/2+y,1/2-z
5 -x,-y,-z
6 x,-y,1/2+z
7 1/2-x,1/2-y,-z
8 1/2+x,1/2-y,1/2+z
_cell_length_a                   11.5359(2)
_cell_length_b                   30.2815(4)
_cell_length_c                   7.5700(1)
_cell_angle_alpha                90
_cell_angle_beta                 102.366(2)
_cell_angle_gamma                90
_cell_volume                     2583.03
_exptl_crystal_colour            'light green'
_exptl_crystal_description       cube
_cell_formula_units_Z            4
loop_
_atom_site_label
_atom_site_type_symbol
_atom_site_fract_x
_atom_site_fract_y
_atom_site_fract_z
I1 I 0.610832(18) 0.713073(6) 0.56704(3)
F1 F 0.7301(2) 0.66196(6) 0.9336(3)
F2 F 0.66437(19) 0.81045(6) 0.7384(3)
C1 C 0.6957(3) 0.73519(10) 0.8249(5)
C2 C 0.7062(3) 0.77978(11) 0.8664(6)
C3 C 0.7400(3) 0.70593(11) 0.9626(6)
I1F I 0.889168(18) 0.786927(6) 1.43296(3)
F1F F 0.7699(2) 0.83804(6) 1.0664(3)
F2F F 0.83563(19) 0.68955(6) 1.2616(3)
C1F C 0.8043(3) 0.76481(10) 1.1751(5)
C2F C 0.7938(3) 0.72022(11) 1.1336(6)
C3F C 0.7600(3) 0.79407(11) 1.0374(6)
O1 O 0.500 0.67997(11) 0.250
N1 N 0.500 0.63610(12) 0.250
C4 C 0.3992(3) 0.42583(12) 0.2661(5)
H1 H 0.3308(3) 0.41061(12) 0.2754(5)
C5 C 0.500 0.40265(15) 0.250
H2 H 0.500 0.37194(15) 0.250
C6 C 0.500 0.54397(14) 0.250
C7 C 0.3969(3) 0.56843(12) 0.2412(6)
H3 H 0.3252(3) 0.55370(12) 0.2329(6)
C8 C 0.500 0.49515(14) 0.250
C9 C 0.4000(3) 0.47126(11) 0.2682(5)
H4 H 0.3323(3) 0.48635(11) 0.2821(5)
C10 C 0.3983(3) 0.61370(12) 0.2444(6)
H5 H 0.3283(3) 0.62911(12) 0.2426(6)
C4A C 0.6008(3) 0.42583(12) 0.2339(5)
H1A H 0.6692(3) 0.41061(12) 0.2246(5)
C7A C 0.6031(3) 0.56843(12) 0.2588(6)
H3A H 0.6748(3) 0.55370(12) 0.2671(6)
C9A C 0.6000(3) 0.47126(11) 0.2318(5)
H4A H 0.6677(3) 0.48635(11) 0.2179(5)
C10A C 0.6017(3) 0.61370(12) 0.2556(6)
H5A H 0.6717(3) 0.62911(12) 0.2574(6)
N2 N 0.6127(2) 0.96129(10) 0.3727(4)
C11 C 0.6108(3) 1.04006(13) 0.3736(5)
H6 H 0.6835(3) 1.04057(13) 0.4555(5)
C12 C 0.6101(3) 0.88222(14) 0.3715(6)
H7 H 0.6834(3) 0.88165(14) 0.4518(6)
C13 C 0.5568(3) 0.99889(12) 0.3125(4)
C14 C 0.5567(3) 0.92372(12) 0.3113(5)
C15 C 0.5550(4) 0.84361(14) 0.3126(8)
H8 H 0.5900(4) 0.81692(14) 0.3553(8)
C16 C 0.5560(4) 1.07869(13) 0.3119(6)
H9 H 0.5922(4) 1.10541(13) 0.3513(6)
N2A N 0.3873(2) 0.96129(10) 0.1273(4)
C11A C 0.3892(3) 1.04006(13) 0.1264(5)
H6A H 0.3165(3) 1.04057(13) 0.0445(5)
C12A C 0.3899(3) 0.88222(14) 0.1285(6)
H7A H 0.3166(3) 0.88165(14) 0.0482(6)
C13A C 0.4432(3) 0.99889(12) 0.1875(4)
C14A C 0.4433(3) 0.92372(12) 0.1887(5)
C15A C 0.4450(4) 0.84361(14) 0.1874(8)
H8A H 0.4100(4) 0.81692(14) 0.1447(8)
C16A C 0.4440(4) 1.07869(13) 0.1881(6)
H9A H 0.4078(4) 1.10541(13) 0.1487(6)
loop_
_geom_bond_atom_site_label_1
_geom_bond_atom_site_label_2
_geom_bond_site_symmetry_1
_geom_bond_site_symmetry_2
I1 C1 1_555 1_555
F1 C3 1_555 1_555
F2 C2 1_555 1_555
C1 C2 1_555 1_555
C2 C3F 1_555 1_555
C3 C1 1_555 1_555
O1 N1 1_555 1_555
N1 C10 1_555 1_555
C4 H1 1_555 1_555
C5 C4 1_555 1_555
H2 C5 1_555 1_555
C6 C7 1_555 1_555
C7 H3 1_555 1_555
C8 C6 1_555 1_555
C9 C4 1_555 1_555
H4 C9 1_555 1_555
C10 C7 1_555 1_555
H5 C10 1_555 1_555
N2 C13 1_555 1_555
C11 H6 1_555 1_555
C12 H7 1_555 1_555
C13 C11 1_555 1_555
C14 N2 1_555 1_555
C15 C12 1_555 1_555
H8 C15 1_555 1_555
C16 C11 1_555 1_555
H9 C16 1_555 1_555
I1F C1F 1_555 1_555
F1F C3F 1_555 1_555
F2F C2F 1_555 1_555
C1F C2F 1_555 1_555
C2F C3 1_555 1_555
C3F C1F 1_555 1_555
C4A C5 1_555 1_555
H1A C4A 1_555 1_555
C7A C6 1_555 1_555
H3A C7A 1_555 1_555
C9A C8 1_555 1_555
H4A C9A 1_555 1_555
C10A N1 1_555 1_555
H5A C10A 1_555 1_555
N2A C13A 1_555 1_555
C11A H6A 1_555 1_555
C12A H7A 1_555 1_555
C13A C13 1_555 1_555
C14A C14 1_555 1_555
C15A C15 1_555 1_555
H8A C15A 1_555 1_555
C16A C16 1_555 1_555
H9A C16A 1_555 1_555
C8 C9 1_555 1_555
C12 C14 1_555 1_555
C4A C9A 1_555 1_555
C7A C10A 1_555 1_555
N2A C14A 1_555 1_555
C11A C13A 1_555 1_555
C11A C16A 1_555 1_555
C12A C14A 1_555 1_555
C12A C15A 1_555 1_555

#END
