
#######################################################################
#
#                 Cambridge Crystallographic Data Centre
#                                CCDC 
#
#######################################################################
#
# If this CIF has been generated from an entry in the Cambridge 
# Structural Database, then it will include bibliographic, chemical, 
# crystal, experimental, refinement or atomic coordinate data resulting 
# from the CCDC's data processing and validation procedures.
#
#######################################################################

data_AFUJOC
_chemical_formula_moiety         'C9 H9 N2 S1 1+,C7 H5 O6 S1 1-'
_chemical_name_systematic        
'4-Phenyl-1,3-thiazol-2-aminium 5-sulfonatosalicylic acid'
_symmetry_cell_setting           triclinic
_symmetry_space_group_name_H-M   'P -1'
_symmetry_Int_Tables_number      2
_space_group_name_Hall           '-P 1'
loop_
_symmetry_equiv_pos_site_id
_symmetry_equiv_pos_as_xyz
1 x,y,z
2 -x,-y,-z
_cell_length_a                   7.6065(6)
_cell_length_b                   8.5459(9)
_cell_length_c                   14.2563(14)
_cell_angle_alpha                107.351(2)
_cell_angle_beta                 97.8740(10)
_cell_angle_gamma                102.4270(10)
_cell_volume                     843.471
_exptl_crystal_colour            colorless
_exptl_crystal_description       block
_cell_formula_units_Z            2
loop_
_atom_site_label
_atom_site_type_symbol
_atom_site_fract_x
_atom_site_fract_y
_atom_site_fract_z
N1 N 1.0506(3) 0.2285(3) 0.55930(18)
N2 N 1.2253(4) 0.1937(3) 0.69721(19)
H1 H 1.2896 0.2972 0.7384
H2 H 1.2880 0.1188 0.7024
H3 H 1.1174 0.1654 0.7140
S1 S 1.34115(11) 0.14351(12) 0.52278(6)
C1 C 1.1970(4) 0.1931(4) 0.6037(2)
C2 C 1.0493(4) 0.2199(4) 0.4592(2)
C3 C 1.1968(4) 0.1754(4) 0.4293(2)
H4 H 1.2191 0.1631 0.3653
C4 C 0.9005(4) 0.2621(4) 0.4019(2)
C5 C 0.8891(5) 0.2321(5) 0.2993(3)
H5 H 0.9706 0.1799 0.2674
C6 C 0.7589(6) 0.2789(5) 0.2447(3)
H6 H 0.7539 0.2592 0.1765
C7 C 0.6369(5) 0.3541(5) 0.2902(3)
H7 H 0.5497 0.3866 0.2533
C8 C 0.6438(5) 0.3813(5) 0.3907(3)
H8 H 0.5597 0.4310 0.4215
C9 C 0.7746(4) 0.3358(4) 0.4465(2)
H9 H 0.7778 0.3548 0.5145
O1 O 0.1861(3) 0.0983(3) 0.16437(17)
H10 H 0.1777 0.0016 0.1653
O2 O 0.2320(4) -0.0164(3) 0.01010(18)
O3 O 0.2823(3) 0.1773(3) -0.10100(16)
H11 H 0.2737 0.0899 -0.0872
O4 O 0.0970(3) 0.8194(2) 0.20722(15)
O5 O 0.4193(3) 0.8649(3) 0.27266(17)
O6 O 0.1889(3) 0.6760(3) 0.31996(16)
S2 S 0.23861(10) 0.74556(9) 0.24297(5)
C10 C 0.2183(4) 0.1060(4) 0.0771(2)
C11 C 0.2356(4) 0.2759(4) 0.0679(2)
C12 C 0.2637(4) 0.3019(4) -0.0218(2)
C13 C 0.2737(5) 0.4619(4) -0.0311(2)
H12 H 0.2879 0.4779 -0.0917
C14 C 0.2629(4) 0.5945(4) 0.0477(2)
H13 H 0.2702 0.7004 0.0408
C15 C 0.2407(4) 0.5712(4) 0.1390(2)
C16 C 0.2246(4) 0.4133(4) 0.1482(2)
H14 H 0.2064 0.3976 0.2084
loop_
_geom_bond_atom_site_label_1
_geom_bond_atom_site_label_2
_geom_bond_site_symmetry_1
_geom_bond_site_symmetry_2
N1 C1 1_555 1_555
N2 H1 1_555 1_555
H2 N2 1_555 1_555
H3 N2 1_555 1_555
S1 C1 1_555 1_555
C1 N2 1_555 1_555
C2 N1 1_555 1_555
C3 S1 1_555 1_555
H4 C3 1_555 1_555
C4 C2 1_555 1_555
C5 C4 1_555 1_555
H5 C5 1_555 1_555
C6 C5 1_555 1_555
H6 C6 1_555 1_555
C7 C6 1_555 1_555
H7 C7 1_555 1_555
C8 C7 1_555 1_555
H8 C8 1_555 1_555
C9 C4 1_555 1_555
H9 C9 1_555 1_555
O1 H10 1_555 1_555
O2 C10 1_555 1_555
O3 H11 1_555 1_555
O4 S2 1_555 1_555
O5 S2 1_555 1_555
O6 S2 1_555 1_555
S2 C15 1_555 1_555
C10 O1 1_555 1_555
C11 C10 1_555 1_555
C12 O3 1_555 1_555
C13 C12 1_555 1_555
H12 C13 1_555 1_555
C14 C13 1_555 1_555
H13 C14 1_555 1_555
C15 C14 1_555 1_555
C16 C11 1_555 1_555
H14 C16 1_555 1_555
C2 C3 1_555 1_555
C8 C9 1_555 1_555
C11 C12 1_555 1_555
C15 C16 1_555 1_555

#END
