
#######################################################################
#
#                 Cambridge Crystallographic Data Centre
#                                CCDC 
#
#######################################################################
#
# If this CIF has been generated from an entry in the Cambridge 
# Structural Database, then it will include bibliographic, chemical, 
# crystal, experimental, refinement or atomic coordinate data resulting 
# from the CCDC's data processing and validation procedures.
#
#######################################################################

data_AFUJUJ
_chemical_formula_moiety         'C27 H20 N2 O4'
_chemical_name_systematic        
2-[4-(9H-carbazol-9-yl)phenyl]-4-(hydroxymethyl)-3a,4,7,7a-tetrahydro-1H-4,7-epoxyisoindole-1,3(2H)-dione
_symmetry_cell_setting           monoclinic
_symmetry_space_group_name_H-M   'P 21/c'
_symmetry_Int_Tables_number      14
_space_group_name_Hall           '-P 2ybc'
loop_
_symmetry_equiv_pos_site_id
_symmetry_equiv_pos_as_xyz
1 x,y,z
2 -x,1/2+y,1/2-z
3 -x,-y,-z
4 x,1/2-y,1/2+z
_cell_length_a                   13.3657(5)
_cell_length_b                   10.0390(3)
_cell_length_c                   15.8436(5)
_cell_angle_alpha                90
_cell_angle_beta                 97.407(3)
_cell_angle_gamma                90
_cell_volume                     2108.13
_exptl_crystal_colour            colorless
_exptl_crystal_description       block
_cell_formula_units_Z            4
loop_
_atom_site_label
_atom_site_type_symbol
_atom_site_fract_x
_atom_site_fract_y
_atom_site_fract_z
N1 N 0.77478(12) 0.09257(17) 0.21050(11)
O1 O 0.25634(11) 0.31435(14) 0.39663(9)
O2 O 0.50174(11) 0.15660(17) 0.50408(10)
N2 N 0.42389(12) 0.09599(17) 0.37210(11)
C1 C 0.68633(15) 0.0933(2) 0.25184(12)
C2 C 0.55341(16) 0.2128(2) 0.30672(13)
H1 H 0.5215 0.2926 0.3164
O3 O 0.30861(11) 0.03307(16) 0.25905(10)
C3 C 0.78146(15) 0.1422(2) 0.12887(12)
C4 C 0.64095(16) 0.2132(2) 0.26814(13)
H2 H 0.6690 0.2933 0.2533
C5 C 0.55976(15) -0.0258(2) 0.31660(13)
H3 H 0.5332 -0.1055 0.3338
C6 C 0.64556(16) -0.0261(2) 0.27671(13)
H4 H 0.6764 -0.1064 0.2663
C7 C 0.86475(15) 0.0253(2) 0.23845(13)
C8 C 0.82888(17) 0.2158(2) -0.02868(14)
H5 H 0.8439 0.2416 -0.0820
C9 C 0.51367(15) 0.0938(2) 0.33072(13)
C10 C 0.87559(15) 0.1064(2) 0.10472(13)
C11 C 0.32812(15) 0.0668(2) 0.33301(14)
C12 C 0.25394(15) 0.0850(2) 0.39631(14)
H6 H 0.2154 0.0040 0.4047
C13 C 1.02430(16) -0.0264(2) 0.18938(15)
H7 H 1.0680 -0.0219 0.1483
C14 C 0.89865(16) 0.1440(2) 0.02477(13)
H8 H 0.9603 0.1209 0.0077
C15 C 0.42557(16) 0.1320(2) 0.45799(13)
C16 C 0.31751(15) 0.1336(2) 0.47841(14)
H9 H 0.3084 0.0784 0.5278
O4 O 0.36850(19) 0.32747(19) 0.61896(11)
H10 H 0.3549 0.3827 0.6539
C17 C 0.73585(16) 0.2502(2) -0.00359(13)
H11 H 0.6901 0.2992 -0.0405
C18 C 0.71015(16) 0.2131(2) 0.07503(13)
H12 H 0.6477 0.2347 0.0912
C19 C 0.27568(17) 0.2791(2) 0.48573(14)
C20 C 0.18558(16) 0.2086(2) 0.37187(15)
H13 H 0.1534 0.2113 0.3127
C21 C 0.92908(15) 0.0331(2) 0.17516(13)
C22 C 0.11469(18) 0.2177(3) 0.43870(17)
H14 H 0.0463 0.1970 0.4322
C23 C 0.89372(17) -0.0377(2) 0.31595(14)
H15 H 0.8513 -0.0403 0.3581
C24 C 0.17008(19) 0.2611(2) 0.50829(16)
H16 H 0.1484 0.2774 0.5608
C25 C 1.05239(17) -0.0918(2) 0.26516(15)
H17 H 1.1150 -0.1334 0.2747
C26 C 0.3427(2) 0.3790(2) 0.53568(15)
H18 H 0.4032 0.3935 0.5090
H19 H 0.3078 0.4633 0.5379
C27 C 0.98810(17) -0.0963(2) 0.32773(16)
H20 H 1.0092 -0.1399 0.3787
loop_
_geom_bond_atom_site_label_1
_geom_bond_atom_site_label_2
_geom_bond_site_symmetry_1
_geom_bond_site_symmetry_2
N1 C1 1_555 1_555
O1 C19 1_555 1_555
O2 C15 1_555 1_555
N2 C9 1_555 1_555
C1 C4 1_555 1_555
C2 H1 1_555 1_555
O3 C11 1_555 1_555
C3 N1 1_555 1_555
C4 C2 1_555 1_555
H2 C4 1_555 1_555
C5 H3 1_555 1_555
C6 C1 1_555 1_555
H4 C6 1_555 1_555
C7 N1 1_555 1_555
C8 H5 1_555 1_555
C9 C2 1_555 1_555
C10 C3 1_555 1_555
C11 N2 1_555 1_555
C12 C11 1_555 1_555
H6 C12 1_555 1_555
C13 H7 1_555 1_555
C14 C8 1_555 1_555
H8 C14 1_555 1_555
C15 N2 1_555 1_555
C16 C12 1_555 1_555
H9 C16 1_555 1_555
O4 H10 1_555 1_555
C17 C8 1_555 1_555
H11 C17 1_555 1_555
C18 C3 1_555 1_555
H12 C18 1_555 1_555
C19 C16 1_555 1_555
C20 O1 1_555 1_555
H13 C20 1_555 1_555
C21 C7 1_555 1_555
C22 C20 1_555 1_555
H14 C22 1_555 1_555
C23 C7 1_555 1_555
H15 C23 1_555 1_555
C24 C19 1_555 1_555
H16 C24 1_555 1_555
C25 C13 1_555 1_555
H17 C25 1_555 1_555
C26 O4 1_555 1_555
H18 C26 1_555 1_555
H19 C26 1_555 1_555
C27 C23 1_555 1_555
H20 C27 1_555 1_555
C5 C6 1_555 1_555
C5 C9 1_555 1_555
C10 C14 1_555 1_555
C10 C21 1_555 1_555
C12 C20 1_555 1_555
C13 C21 1_555 1_555
C15 C16 1_555 1_555
C17 C18 1_555 1_555
C19 C26 1_555 1_555
C22 C24 1_555 1_555
C25 C27 1_555 1_555

#END
