
#######################################################################
#
#                 Cambridge Crystallographic Data Centre
#                                CCDC 
#
#######################################################################
#
# If this CIF has been generated from an entry in the Cambridge 
# Structural Database, then it will include bibliographic, chemical, 
# crystal, experimental, refinement or atomic coordinate data resulting 
# from the CCDC's data processing and validation procedures.
#
#######################################################################

data_AFUJUH
_chemical_formula_moiety         'C27 H29 N1 O2 S1'
_chemical_name_systematic        
4-(1-(2,6-Dimethylphenyl)benzylidene)-1-(4-p-tolylsulfonyl)piperidine
_symmetry_cell_setting           monoclinic
_symmetry_space_group_name_H-M   'P 21/n'
_symmetry_Int_Tables_number      14
_space_group_name_Hall           '-P 2yn'
loop_
_symmetry_equiv_pos_site_id
_symmetry_equiv_pos_as_xyz
1 x,y,z
2 1/2-x,1/2+y,1/2-z
3 -x,-y,-z
4 1/2+x,1/2-y,1/2+z
_cell_length_a                   10.2967(15)
_cell_length_b                   7.6056(11)
_cell_length_c                   29.784(4)
_cell_angle_alpha                90
_cell_angle_beta                 92.502(3)
_cell_angle_gamma                90
_cell_volume                     2330.24
_exptl_crystal_colour            colorless
_exptl_crystal_description       prism
_chemical_melting_point          '172-173 deg.C'
_cell_formula_units_Z            4
_exptl_crystal_recrystallization_method 'ethyl acetate/dichloromethane'
loop_
_atom_site_label
_atom_site_type_symbol
_atom_site_fract_x
_atom_site_fract_y
_atom_site_fract_z
S1 S 0.75209(5) 0.75953(6) 1.012584(13)
O1 O 0.82048(13) 0.63496(16) 1.04092(4)
O2 O 0.67751(12) 0.89578(16) 1.03213(4)
N1 N 0.65105(13) 0.64548(16) 0.97955(4)
C1 C 0.86218(17) 0.8538(2) 0.97618(5)
C2 C 0.97067(18) 0.7636(2) 0.96379(6)
H1 H 0.9932 0.6581 0.9779
C3 C 1.04602(18) 0.8293(3) 0.93058(6)
H2 H 1.1195 0.7678 0.9225
C4 C 1.01399(19) 0.9855(3) 0.90902(6)
C5 C 0.9065(2) 1.0758(2) 0.92223(6)
H3 H 0.8846 1.1820 0.9084
C6 C 0.83052(18) 1.0123(2) 0.95550(6)
H4 H 0.7583 1.0754 0.9641
C7 C 1.0953(2) 1.0563(3) 0.87229(7)
H5 H 1.1831 1.0153 0.8768
H6 H 1.0942 1.1824 0.8730
H7 H 1.0604 1.0162 0.8437
C8 C 0.56420(16) 0.7497(2) 0.94902(5)
H8 H 0.6148 0.8030 0.9259
H9 H 0.5248 0.8433 0.9658
C9 C 0.45792(16) 0.6353(2) 0.92706(5)
H10 H 0.4023 0.5897 0.9498
H11 H 0.4049 0.7049 0.9060
C10 C 0.51955(15) 0.4852(2) 0.90265(5)
C11 C 0.60978(17) 0.3820(2) 0.93335(5)
H12 H 0.6522 0.2922 0.9161
H13 H 0.5597 0.3235 0.9558
C12 C 0.71252(18) 0.4966(2) 0.95677(5)
H14 H 0.7626 0.4271 0.9787
H15 H 0.7715 0.5410 0.9349
C13 C 0.50499(15) 0.45187(19) 0.85854(5)
C14 C 0.40087(17) 0.5334(2) 0.82928(5)
C15 C 0.27382(18) 0.5402(2) 0.84274(6)
H16 H 0.2540 0.4945 0.8706
C16 C 0.1758(2) 0.6137(3) 0.81555(8)
H17 H 0.0912 0.6174 0.8252
C17 C 0.2036(3) 0.6814(3) 0.77413(8)
H18 H 0.1381 0.7326 0.7560
C18 C 0.3272(3) 0.6729(3) 0.75989(7)
H19 H 0.3459 0.7178 0.7319
C19 C 0.4249(2) 0.5984(2) 0.78666(5)
H20 H 0.5085 0.5913 0.7761
C20 C 0.59256(17) 0.3236(2) 0.83629(5)
C21 C 0.55221(18) 0.1485(2) 0.82963(5)
C22 C 0.6333(2) 0.0325(2) 0.80885(6)
H21 H 0.6058 -0.0826 0.8038
C23 C 0.7538(2) 0.0833(3) 0.79552(7)
H22 H 0.8079 0.0026 0.7822
C24 C 0.79377(19) 0.2541(3) 0.80205(6)
H23 H 0.8747 0.2887 0.7925
C25 C 0.71564(17) 0.3756(2) 0.82255(5)
C26 C 0.4235(2) 0.0875(2) 0.84564(6)
H24 H 0.4071 -0.0305 0.8354
H25 H 0.3559 0.1636 0.8339
H26 H 0.4251 0.0902 0.8779
C27 C 0.7663(2) 0.5608(2) 0.82964(7)
H27 H 0.8350 0.5602 0.8525
H28 H 0.6971 0.6352 0.8389
H29 H 0.7989 0.6044 0.8021
loop_
_geom_bond_atom_site_label_1
_geom_bond_atom_site_label_2
_geom_bond_site_symmetry_1
_geom_bond_site_symmetry_2
S1 O1 1_555 1_555
O2 S1 1_555 1_555
N1 S1 1_555 1_555
C1 S1 1_555 1_555
C2 C1 1_555 1_555
H1 C2 1_555 1_555
C3 C2 1_555 1_555
H2 C3 1_555 1_555
C4 C3 1_555 1_555
C5 C4 1_555 1_555
H3 C5 1_555 1_555
C6 C1 1_555 1_555
H4 C6 1_555 1_555
C7 C4 1_555 1_555
H5 C7 1_555 1_555
H6 C7 1_555 1_555
H7 C7 1_555 1_555
C8 N1 1_555 1_555
H8 C8 1_555 1_555
H9 C8 1_555 1_555
C9 C8 1_555 1_555
H10 C9 1_555 1_555
H11 C9 1_555 1_555
C10 C9 1_555 1_555
C11 C10 1_555 1_555
H12 C11 1_555 1_555
H13 C11 1_555 1_555
C12 N1 1_555 1_555
H14 C12 1_555 1_555
H15 C12 1_555 1_555
C13 C10 1_555 1_555
C14 C13 1_555 1_555
C15 C14 1_555 1_555
H16 C15 1_555 1_555
C16 C15 1_555 1_555
H17 C16 1_555 1_555
C17 C16 1_555 1_555
H18 C17 1_555 1_555
C18 C17 1_555 1_555
H19 C18 1_555 1_555
C19 C14 1_555 1_555
H20 C19 1_555 1_555
C20 C13 1_555 1_555
C21 C20 1_555 1_555
C22 C21 1_555 1_555
H21 C22 1_555 1_555
C23 C22 1_555 1_555
H22 C23 1_555 1_555
C24 C23 1_555 1_555
H23 C24 1_555 1_555
C25 C20 1_555 1_555
C26 C21 1_555 1_555
H24 C26 1_555 1_555
H25 C26 1_555 1_555
H26 C26 1_555 1_555
C27 C25 1_555 1_555
H27 C27 1_555 1_555
H28 C27 1_555 1_555
H29 C27 1_555 1_555
C5 C6 1_555 1_555
C11 C12 1_555 1_555
C18 C19 1_555 1_555
C24 C25 1_555 1_555

#END
