
#######################################################################
#
#                 Cambridge Crystallographic Data Centre
#                                CCDC 
#
#######################################################################
#
# If this CIF has been generated from an entry in the Cambridge 
# Structural Database, then it will include bibliographic, chemical, 
# crystal, experimental, refinement or atomic coordinate data resulting 
# from the CCDC's data processing and validation procedures.
#
#######################################################################

data_AFUKES
_chemical_formula_moiety         'C26 H27 N1 O2 S1'
_chemical_name_systematic        
1-(4-p-Tolylsulfonyl)-4-phenyl-4-(1-phenylvinyl)piperidine
_symmetry_cell_setting           monoclinic
_symmetry_space_group_name_H-M   'P 21/c'
_symmetry_Int_Tables_number      14
_space_group_name_Hall           '-P 2ybc'
loop_
_symmetry_equiv_pos_site_id
_symmetry_equiv_pos_as_xyz
1 x,y,z
2 -x,1/2+y,1/2-z
3 -x,-y,-z
4 x,1/2-y,1/2+z
_cell_length_a                   12.6685(19)
_cell_length_b                   7.0554(8)
_cell_length_c                   24.878(4)
_cell_angle_alpha                90
_cell_angle_beta                 102.867(4)
_cell_angle_gamma                90
_cell_volume                     2167.79
_exptl_crystal_colour            colorless
_exptl_crystal_description       prism
_chemical_melting_point          '136-138 deg.C'
_cell_formula_units_Z            4
_exptl_crystal_recrystallization_method 'ethyl acetate/dichloromethane'
loop_
_atom_site_label
_atom_site_type_symbol
_atom_site_fract_x
_atom_site_fract_y
_atom_site_fract_z
S1 S 0.76418(9) 1.42766(13) 1.00682(4)
O1 O 0.6713(2) 1.5498(3) 0.99149(10)
O2 O 0.8648(2) 1.4993(4) 1.03839(10)
N1 N 0.7882(2) 1.3419(4) 0.94923(10)
C1 C 0.7246(3) 1.2319(5) 1.04229(13)
C2 C 0.6166(3) 1.1990(5) 1.04074(14)
H1 H 0.5640 1.2845 1.0235
C3 C 0.5880(3) 1.0373(6) 1.06518(15)
H2 H 0.5152 1.0169 1.0647
C4 C 0.6625(3) 0.9046(5) 1.09033(14)
C5 C 0.7698(3) 0.9416(5) 1.09184(15)
H3 H 0.8222 0.8553 1.1088
C6 C 0.8014(3) 1.1040(5) 1.06873(14)
H4 H 0.8745 1.1273 1.0710
C7 C 0.6283(4) 0.7243(6) 1.11394(17)
H5 H 0.5741 0.7524 1.1343
H6 H 0.6899 0.6675 1.1381
H7 H 0.5992 0.6381 1.0845
C8 C 0.6963(3) 1.2424(5) 0.91347(13)
H8 H 0.6303 1.3141 0.9118
H9 H 0.6874 1.1188 0.9289
C9 C 0.7157(3) 1.2191(4) 0.85571(13)
H10 H 0.7210 1.3435 0.8399
H11 H 0.6540 1.1548 0.8329
C10 C 0.8194(3) 1.1058(4) 0.85481(12)
C11 C 0.9115(3) 1.2083(5) 0.89558(13)
H12 H 0.9772 1.1342 0.8992
H13 H 0.9239 1.3299 0.8799
C12 C 0.8912(3) 1.2418(5) 0.95303(13)
H14 H 0.8892 1.1212 0.9715
H15 H 0.9499 1.3164 0.9746
C13 C 0.8055(3) 0.8973(4) 0.86978(13)
C14 C 0.8740(3) 0.8029(5) 0.90841(15)
H16 H 0.8612 0.6760 0.9149
H17 H 0.9349 0.8633 0.9290
C15 C 0.7080(3) 0.7934(4) 0.83747(14)
C16 C 0.6222(3) 0.7545(5) 0.86171(17)
H18 H 0.6246 0.7958 0.8975
C17 C 0.5334(3) 0.6557(6) 0.8336(2)
H19 H 0.4757 0.6334 0.8503
C18 C 0.5289(4) 0.5901(5) 0.7817(2)
H20 H 0.4687 0.5227 0.7630
C19 C 0.6133(4) 0.6238(5) 0.75719(17)
H21 H 0.6108 0.5778 0.7219
C20 C 0.7024(3) 0.7255(5) 0.78426(15)
H22 H 0.7591 0.7489 0.7669
C21 C 0.8451(3) 1.1063(4) 0.79691(13)
C22 C 0.9379(3) 1.0171(5) 0.78906(14)
H23 H 0.9851 0.9625 0.8191
C23 C 0.9620(3) 1.0072(5) 0.73766(16)
H24 H 1.0251 0.9473 0.7335
C24 C 0.8922(3) 1.0865(5) 0.69223(15)
H25 H 0.9076 1.0795 0.6574
C25 C 0.8001(3) 1.1752(5) 0.69951(15)
H26 H 0.7529 1.2289 0.6693
C26 C 0.7764(3) 1.1862(5) 0.75110(13)
H27 H 0.7137 1.2476 0.7552
loop_
_geom_bond_atom_site_label_1
_geom_bond_atom_site_label_2
_geom_bond_site_symmetry_1
_geom_bond_site_symmetry_2
S1 O1 1_555 1_555
O2 S1 1_555 1_555
N1 S1 1_555 1_555
C1 S1 1_555 1_555
C2 C1 1_555 1_555
H1 C2 1_555 1_555
C3 C2 1_555 1_555
H2 C3 1_555 1_555
C4 C3 1_555 1_555
C5 C4 1_555 1_555
H3 C5 1_555 1_555
C6 C1 1_555 1_555
H4 C6 1_555 1_555
C7 C4 1_555 1_555
H5 C7 1_555 1_555
H6 C7 1_555 1_555
H7 C7 1_555 1_555
C8 N1 1_555 1_555
H8 C8 1_555 1_555
H9 C8 1_555 1_555
C9 C8 1_555 1_555
H10 C9 1_555 1_555
H11 C9 1_555 1_555
C10 C9 1_555 1_555
C11 C10 1_555 1_555
H12 C11 1_555 1_555
H13 C11 1_555 1_555
C12 N1 1_555 1_555
H14 C12 1_555 1_555
H15 C12 1_555 1_555
C13 C10 1_555 1_555
C14 C13 1_555 1_555
H16 C14 1_555 1_555
H17 C14 1_555 1_555
C15 C13 1_555 1_555
C16 C15 1_555 1_555
H18 C16 1_555 1_555
C17 C16 1_555 1_555
H19 C17 1_555 1_555
C18 C17 1_555 1_555
H20 C18 1_555 1_555
C19 C18 1_555 1_555
H21 C19 1_555 1_555
C20 C15 1_555 1_555
H22 C20 1_555 1_555
C21 C10 1_555 1_555
C22 C21 1_555 1_555
H23 C22 1_555 1_555
C23 C22 1_555 1_555
H24 C23 1_555 1_555
C24 C23 1_555 1_555
H25 C24 1_555 1_555
C25 C24 1_555 1_555
H26 C25 1_555 1_555
C26 C21 1_555 1_555
H27 C26 1_555 1_555
C5 C6 1_555 1_555
C11 C12 1_555 1_555
C19 C20 1_555 1_555
C25 C26 1_555 1_555

#END
