
#######################################################################
#
#                 Cambridge Crystallographic Data Centre
#                                CCDC 
#
#######################################################################
#
# If this CIF has been generated from an entry in the Cambridge 
# Structural Database, then it will include bibliographic, chemical, 
# crystal, experimental, refinement or atomic coordinate data resulting 
# from the CCDC's data processing and validation procedures.
#
#######################################################################

data_AGAGUK
_chemical_formula_moiety         'C15 H14 N4'
_chemical_name_systematic        
(4-(Hexahydro-3H-pyrrolo(1,2-c)imidazol-3-ylidene)cyclohexa-2,5-dien-1-ylidene)malonitrile
_symmetry_cell_setting           orthorhombic
_symmetry_space_group_name_H-M   'P 21 21 21'
_symmetry_Int_Tables_number      19
_space_group_name_Hall           'P 2ac 2ab'
loop_
_symmetry_equiv_pos_site_id
_symmetry_equiv_pos_as_xyz
1 x,y,z
2 1/2-x,-y,1/2+z
3 -x,1/2+y,1/2-z
4 1/2+x,1/2-y,-z
_cell_length_a                   7.803(1)
_cell_length_b                   9.474(1)
_cell_length_c                   17.819(4)
_cell_angle_alpha                90
_cell_angle_beta                 90
_cell_angle_gamma                90
_cell_volume                     1317.28
_exptl_crystal_colour            yellow
_exptl_crystal_description       'rectangular prism'
_cell_formula_units_Z            4
_exptl_crystal_recrystallization_method acetonitrile
loop_
_atom_site_label
_atom_site_type_symbol
_atom_site_fract_x
_atom_site_fract_y
_atom_site_fract_z
N1 N 0.7634(3) 0.97536(16) 0.13200(9)
N2 N 0.7690(3) 1.11648(18) 0.03431(10)
H1 H 0.772(3) 1.145(2) -0.0156(13)
N3 N 0.7693(3) 0.26923(19) -0.10296(10)
N4 N 0.9043(3) 0.5540(2) -0.28842(11)
C1 C 0.8477(3) 0.8751(2) 0.18395(12)
H2 H 0.957(3) 0.833(3) 0.1598(13)
H3 H 0.769(3) 0.799(2) 0.1967(12)
C2 C 0.8911(4) 0.9668(2) 0.25278(14)
H4 H 0.996(4) 0.940(3) 0.2780(14)
H5 H 0.800(3) 0.958(2) 0.2934(14)
C3 C 0.8945(3) 1.1189(2) 0.22292(12)
H6 H 0.876(3) 1.192(3) 0.2634(13)
H7 H 1.008(3) 1.141(2) 0.1963(13)
C4 C 0.7502(3) 1.1196(2) 0.16556(11)
H8 H 0.641(3) 1.128(2) 0.1931(11)
C5 C 0.7607(4) 1.2176(2) 0.09696(13)
H9 H 0.648(4) 1.279(3) 0.0929(15)
H10 H 0.866(4) 1.277(3) 0.0957(14)
C6 C 0.7792(3) 0.9832(2) 0.05756(11)
C7 C 0.7999(3) 0.8651(2) 0.00653(11)
C8 C 0.8514(3) 0.8877(2) -0.06834(11)
H11 H 0.884(3) 0.986(2) -0.0850(12)
C9 C 0.8640(3) 0.7771(2) -0.11814(11)
H12 H 0.902(3) 0.794(2) -0.1695(11)
C10 C 0.8229(2) 0.6369(2) -0.09635(12)
C11 C 0.7743(3) 0.6156(2) -0.02108(11)
H13 H 0.750(3) 0.520(2) -0.0051(11)
C12 C 0.7628(3) 0.7264(2) 0.02919(11)
H14 H 0.729(3) 0.706(2) 0.0838(13)
C13 C 0.8291(3) 0.5212(2) -0.14941(11)
C14 C 0.7974(3) 0.3820(2) -0.12451(11)
C15 C 0.8702(3) 0.5399(2) -0.22556(12)
loop_
_geom_bond_atom_site_label_1
_geom_bond_atom_site_label_2
_geom_bond_site_symmetry_1
_geom_bond_site_symmetry_2
N1 C1 1_555 1_555
N2 H1 1_555 1_555
N3 C14 1_555 1_555
N4 C15 1_555 1_555
C1 H2 1_555 1_555
H3 C1 1_555 1_555
C2 C1 1_555 1_555
H4 C2 1_555 1_555
H5 C2 1_555 1_555
C3 C2 1_555 1_555
H6 C3 1_555 1_555
H7 C3 1_555 1_555
C4 N1 1_555 1_555
H8 C4 1_555 1_555
C5 N2 1_555 1_555
H9 C5 1_555 1_555
H10 C5 1_555 1_555
C6 N1 1_555 1_555
C7 C6 1_555 1_555
C8 C7 1_555 1_555
H11 C8 1_555 1_555
C9 C8 1_555 1_555
H12 C9 1_555 1_555
C10 C9 1_555 1_555
C11 C10 1_555 1_555
H13 C11 1_555 1_555
C12 C7 1_555 1_555
H14 C12 1_555 1_555
C13 C10 1_555 1_555
C14 C13 1_555 1_555
C15 C13 1_555 1_555
N2 C6 1_555 1_555
C3 C4 1_555 1_555
C4 C5 1_555 1_555
C11 C12 1_555 1_555

#END
