
#######################################################################
#
#                 Cambridge Crystallographic Data Centre
#                                CCDC 
#
#######################################################################
#
# If this CIF has been generated from an entry in the Cambridge 
# Structural Database, then it will include bibliographic, chemical, 
# crystal, experimental, refinement or atomic coordinate data resulting 
# from the CCDC's data processing and validation procedures.
#
#######################################################################

data_AGATOS
_chemical_formula_moiety         'C84 H20 Cl4'
_chemical_name_systematic        
Tetrachloro-tetraphenyl-C~2v~-(1809)-iso-C60fullerene
_symmetry_cell_setting           orthorhombic
_symmetry_space_group_name_H-M   'P b c n'
_symmetry_Int_Tables_number      60
_space_group_name_Hall           '-P 2n 2ab'
loop_
_symmetry_equiv_pos_site_id
_symmetry_equiv_pos_as_xyz
1 x,y,z
2 1/2-x,1/2-y,1/2+z
3 -x,y,1/2-z
4 1/2+x,1/2-y,-z
5 -x,-y,-z
6 1/2+x,1/2+y,1/2-z
7 x,-y,1/2+z
8 1/2-x,1/2+y,z
_cell_length_a                   29.974(4)
_cell_length_b                   15.7348(15)
_cell_length_c                   20.264(3)
_cell_angle_alpha                90
_cell_angle_beta                 90
_cell_angle_gamma                90
_cell_volume                     9557.21
_exptl_crystal_colour            brown-red
_exptl_crystal_description       block
_cell_formula_units_Z            8
_exptl_crystal_recrystallization_method 'carbon disulfide'
loop_
_atom_site_label
_atom_site_type_symbol
_atom_site_fract_x
_atom_site_fract_y
_atom_site_fract_z
Cl1 Cl 0.72706(8) 0.16284(14) 0.10216(12)
Cl2 Cl 0.82083(8) 0.24023(14) 0.13319(11)
Cl3 Cl 0.86042(8) 0.30062(15) -0.23955(12)
Cl4 Cl 0.76871(8) 0.21792(15) -0.27160(11)
C1 C 0.9735(3) 0.2593(5) 0.0399(5)
H1 H 0.9784 0.2539 -0.0052
C2 C 0.7776(3) 0.0227(5) 0.0719(4)
C3 C 0.8172(3) -0.1400(5) 0.0540(5)
C4 C 0.7722(3) 0.1153(5) 0.0576(4)
C5 C 0.6558(3) -0.0837(5) 0.0011(4)
H2 H 0.6709 -0.1353 0.0010
C6 C 0.9157(3) 0.1402(5) 0.0312(5)
C7 C 0.9327(3) 0.1649(5) -0.1184(4)
C8 C 0.9445(3) 0.0801(5) -0.0125(4)
C9 C 0.7478(3) 0.0698(5) -0.0583(4)
C10 C 0.9602(3) -0.0651(5) -0.0939(4)
C11 C 0.8528(3) -0.2030(5) -0.1555(5)
C12 C 0.9257(3) -0.1522(6) -0.0132(4)
C13 C 0.7823(3) 0.1493(5) -0.1490(4)
C14 C 0.9196(3) -0.0343(6) -0.2180(5)
C15 C 0.7433(3) -0.0847(5) -0.0751(4)
C16 C 0.7007(3) 0.0255(5) -0.2156(4)
C17 C 0.8928(3) -0.1545(5) 0.0352(5)
C18 C 0.7548(3) 0.0817(5) -0.1283(4)
C19 C 0.8602(3) 0.0607(6) -0.2507(4)
C20 C 0.8206(3) 0.0046(5) 0.0987(4)
C21 C 0.8753(3) -0.1543(6) -0.2021(4)
C22 C 0.9521(3) 0.0912(5) -0.0781(5)
C23 C 0.9437(3) -0.0038(5) 0.0152(4)
C24 C 0.8373(3) 0.1867(5) 0.0085(4)
C25 C 0.8043(3) -0.0776(6) -0.2255(5)
C26 C 0.7977(3) -0.2006(5) -0.0719(5)
C27 C 0.9380(3) -0.1344(6) -0.1260(5)
C28 C 0.8082(3) 0.1953(5) -0.1031(4)
C29 C 0.8876(3) 0.1917(5) -0.0866(4)
C30 C 0.6564(3) 0.0661(6) -0.0103(5)
H3 H 0.6713 0.1168 -0.0184
C31 C 0.7284(3) -0.0111(5) -0.0294(4)
C32 C 0.8031(3) 0.1589(5) -0.2169(4)
C33 C 0.9663(3) 0.2375(6) -0.1307(4)
C34 C 0.9518(3) -0.0767(6) -0.0232(4)
C35 C 0.6789(3) -0.0097(6) -0.0158(4)
C36 C 0.8911(3) 0.0743(5) 0.0746(4)
C37 C 0.8007(3) 0.1847(5) -0.0364(4)
C38 C 0.7675(3) -0.1490(5) -0.0420(4)
C39 C 0.8868(3) -0.0824(5) 0.0780(4)
C40 C 0.7863(3) 0.0036(6) -0.2266(4)
C41 C 0.8833(3) 0.1322(5) -0.2206(4)
C42 C 0.6111(3) 0.0676(6) 0.0076(5)
H4 H 0.5963 0.1194 0.0106
C43 C 0.7571(3) -0.0379(5) 0.0311(4)
C44 C 0.8483(3) 0.0802(5) 0.0931(4)
C45 C 0.8492(3) -0.1909(5) 0.0200(4)
C46 C 0.8410(3) -0.2219(5) -0.0414(5)
C47 C 0.7669(3) 0.1271(5) -0.0156(4)
C48 C 0.7770(3) -0.1170(5) 0.0252(4)
C49 C 0.8516(3) 0.2105(5) -0.1262(4)
C50 C 0.8806(3) 0.1806(5) -0.0152(4)
C51 C 0.9423(3) 0.2057(5) 0.0706(4)
C52 C 0.8515(3) 0.1996(6) -0.2001(4)
C53 C 0.9588(3) 0.0184(5) -0.1189(5)
C54 C 0.9118(3) -0.0086(5) 0.0674(4)
C55 C 0.9211(3) 0.1149(6) -0.1837(5)
C56 C 0.8059(3) -0.1923(5) -0.1420(5)
C57 C 0.8405(3) -0.0760(6) 0.0910(4)
C58 C 0.9613(3) 0.2727(6) 0.1732(4)
H5 H 0.9570 0.2772 0.2185
C59 C 0.8487(3) -0.0916(5) -0.2399(4)
C60 C 0.8128(3) 0.0745(5) -0.2418(4)
C61 C 0.7454(3) 0.0112(6) -0.1795(4)
C62 C 0.9519(3) 0.3216(6) -0.1284(5)
H6 H 0.9222 0.3340 -0.1188
C63 C 0.8199(3) 0.1543(5) 0.0753(5)
C64 C 0.9403(3) 0.0321(6) -0.1833(5)
C65 C 0.7498(3) -0.0740(5) -0.1428(5)
C66 C 0.9914(3) 0.3275(6) 0.1424(5)
H7 H 1.0071 0.3678 0.1667
C67 C 0.9375(3) 0.2117(6) 0.1384(5)
H8 H 0.9184 0.1749 0.1606
C68 C 0.6112(3) -0.0827(6) 0.0180(5)
H9 H 0.5965 -0.1333 0.0275
C69 C 0.8786(3) -0.0177(6) -0.2499(4)
C70 C 0.9188(3) -0.1188(6) -0.1879(5)
C71 C 0.9166(3) -0.1884(6) -0.0786(5)
C72 C 0.9974(3) 0.3205(6) 0.0752(5)
H10 H 1.0173 0.3563 0.0535
C73 C 0.6659(4) 0.0698(8) -0.1889(6)
H11 H 0.6688 0.0919 -0.1465
C74 C 0.6563(3) 0.0051(7) -0.3131(5)
H12 H 0.6528 -0.0197 -0.3544
C75 C 0.7827(3) -0.1282(5) -0.1752(5)
C76 C 0.9830(4) 0.3892(7) -0.1409(6)
H13 H 0.9743 0.4459 -0.1395
C77 C 1.0098(3) 0.2174(7) -0.1457(5)
H14 H 1.0189 0.1611 -0.1486
C78 C 1.0265(4) 0.3663(7) -0.1552(6)
H15 H 1.0474 0.4085 -0.1642
C79 C 0.6964(3) -0.0068(7) -0.2782(5)
H16 H 0.7199 -0.0364 -0.2975
C80 C 0.8743(3) -0.2229(5) -0.0929(5)
C81 C 0.5883(3) -0.0066(6) 0.0207(5)
H17 H 0.5581 -0.0054 0.0311
C82 C 1.0394(4) 0.2831(7) -0.1563(5)
H18 H 1.0692 0.2703 -0.1644
C83 C 0.6261(4) 0.0827(8) -0.2232(6)
H19 H 0.6023 0.1114 -0.2039
C84 C 0.6231(4) 0.0511(6) -0.2880(5)
H20 H 0.5980 0.0623 -0.3133
loop_
_geom_bond_atom_site_label_1
_geom_bond_atom_site_label_2
_geom_bond_site_symmetry_1
_geom_bond_site_symmetry_2
Cl1 C4 1_555 1_555
Cl2 C63 1_555 1_555
Cl3 C52 1_555 1_555
Cl4 C32 1_555 1_555
C1 H1 1_555 1_555
C2 C4 1_555 1_555
C3 C45 1_555 1_555
C4 C47 1_555 1_555
C5 H2 1_555 1_555
C6 C8 1_555 1_555
C7 C22 1_555 1_555
C8 C22 1_555 1_555
C9 C18 1_555 1_555
C10 C27 1_555 1_555
C11 C21 1_555 1_555
C12 C17 1_555 1_555
C13 C18 1_555 1_555
C14 C64 1_555 1_555
C15 C31 1_555 1_555
C16 C61 1_555 1_555
C17 C39 1_555 1_555
C18 C61 1_555 1_555
C19 C41 1_555 1_555
C20 C2 1_555 1_555
C21 C59 1_555 1_555
C22 C53 1_555 1_555
C23 C8 1_555 1_555
C24 C37 1_555 1_555
C25 C40 1_555 1_555
C26 C38 1_555 1_555
C27 C70 1_555 1_555
C28 C13 1_555 1_555
C29 C7 1_555 1_555
C30 H3 1_555 1_555
C31 C9 1_555 1_555
C32 C13 1_555 1_555
C33 C7 1_555 1_555
C34 C10 1_555 1_555
C35 C5 1_555 1_555
C36 C6 1_555 1_555
C37 C28 1_555 1_555
C38 C15 1_555 1_555
C39 C54 1_555 1_555
C40 C60 1_555 1_555
C41 C52 1_555 1_555
C42 C30 1_555 1_555
H4 C42 1_555 1_555
C43 C2 1_555 1_555
C44 C20 1_555 1_555
C45 C17 1_555 1_555
C46 C26 1_555 1_555
C47 C9 1_555 1_555
C48 C3 1_555 1_555
C49 C28 1_555 1_555
C50 C6 1_555 1_555
C51 C1 1_555 1_555
C52 C32 1_555 1_555
C53 C10 1_555 1_555
C54 C23 1_555 1_555
C55 C7 1_555 1_555
C56 C11 1_555 1_555
C57 C3 1_555 1_555
C58 H5 1_555 1_555
C59 C25 1_555 1_555
C60 C19 1_555 1_555
C61 C40 1_555 1_555
C62 C33 1_555 1_555
H6 C62 1_555 1_555
C63 C4 1_555 1_555
C64 C53 1_555 1_555
C65 C15 1_555 1_555
C66 C58 1_555 1_555
H7 C66 1_555 1_555
C67 C51 1_555 1_555
H8 C67 1_555 1_555
C68 C5 1_555 1_555
H9 C68 1_555 1_555
C69 C14 1_555 1_555
C70 C14 1_555 1_555
C71 C12 1_555 1_555
C72 C1 1_555 1_555
H10 C72 1_555 1_555
C73 C16 1_555 1_555
H11 C73 1_555 1_555
C74 H12 1_555 1_555
C75 C25 1_555 1_555
C76 C62 1_555 1_555
H13 C76 1_555 1_555
C77 C33 1_555 1_555
H14 C77 1_555 1_555
C78 C76 1_555 1_555
H15 C78 1_555 1_555
C79 C16 1_555 1_555
H16 C79 1_555 1_555
C80 C11 1_555 1_555
C81 C42 1_555 1_555
H17 C81 1_555 1_555
C82 C77 1_555 1_555
H18 C82 1_555 1_555
C83 C73 1_555 1_555
H19 C83 1_555 1_555
C84 C74 1_555 1_555
H20 C84 1_555 1_555
C6 C51 1_555 1_555
C12 C34 1_555 1_555
C19 C69 1_555 1_555
C20 C57 1_555 1_555
C21 C70 1_555 1_555
C23 C34 1_555 1_555
C24 C50 1_555 1_555
C24 C63 1_555 1_555
C26 C56 1_555 1_555
C27 C71 1_555 1_555
C29 C49 1_555 1_555
C29 C50 1_555 1_555
C30 C35 1_555 1_555
C31 C35 1_555 1_555
C31 C43 1_555 1_555
C32 C60 1_555 1_555
C36 C44 1_555 1_555
C36 C54 1_555 1_555
C37 C47 1_555 1_555
C38 C48 1_555 1_555
C39 C57 1_555 1_555
C41 C55 1_555 1_555
C43 C48 1_555 1_555
C44 C63 1_555 1_555
C45 C46 1_555 1_555
C46 C80 1_555 1_555
C49 C52 1_555 1_555
C55 C64 1_555 1_555
C56 C75 1_555 1_555
C58 C67 1_555 1_555
C59 C69 1_555 1_555
C61 C65 1_555 1_555
C65 C75 1_555 1_555
C66 C72 1_555 1_555
C68 C81 1_555 1_555
C71 C80 1_555 1_555
C74 C79 1_555 1_555
C78 C82 1_555 1_555
C83 C84 1_555 1_555

#END
