
#######################################################################
#
#                 Cambridge Crystallographic Data Centre
#                                CCDC 
#
#######################################################################
#
# If this CIF has been generated from an entry in the Cambridge 
# Structural Database, then it will include bibliographic, chemical, 
# crystal, experimental, refinement or atomic coordinate data resulting 
# from the CCDC's data processing and validation procedures.
#
#######################################################################

data_AGECIA
_chemical_formula_moiety         'C17 H24 N2 O1 Si1'
_chemical_name_systematic        
10b-((Trimethylsilyl)oxy)-5,6,6a,7,7a,8,10a,10b-octahydrobenzo[6,7]indeno[1,2-c]pyrazole
_symmetry_cell_setting           monoclinic
_symmetry_space_group_name_H-M   'P 21/n'
_symmetry_Int_Tables_number      14
_space_group_name_Hall           '-P 2yn'
loop_
_symmetry_equiv_pos_site_id
_symmetry_equiv_pos_as_xyz
1 x,y,z
2 1/2-x,1/2+y,1/2-z
3 -x,-y,-z
4 1/2+x,1/2-y,1/2+z
_cell_length_a                   13.2419(16)
_cell_length_b                   8.6081(10)
_cell_length_c                   15.4864(19)
_cell_angle_alpha                90
_cell_angle_beta                 109.7600(10)
_cell_angle_gamma                90
_cell_volume                     1661.31
_exptl_crystal_colour            colorless
_exptl_crystal_description       block
_cell_formula_units_Z            4
loop_
_atom_site_label
_atom_site_type_symbol
_atom_site_fract_x
_atom_site_fract_y
_atom_site_fract_z
Si1 Si 0.76887(3) 0.43530(4) 1.10625(2)
O1 O 0.75245(7) 0.28287(11) 1.03846(6)
N1 N 0.94160(9) 0.18691(14) 1.02448(8)
N2 N 0.96410(10) 0.09581(15) 1.09047(8)
C1 C 0.90897(12) 0.51027(18) 1.14704(11)
H1 H 0.9576 0.4269 1.1740
H2 H 0.9159 0.5900 1.1920
H3 H 0.9257 0.5526 1.0961
C2 C 0.73652(13) 0.35498(19) 1.20558(10)
H4 H 0.6632 0.3206 1.1853
H5 H 0.7466 0.4341 1.2514
H6 H 0.7830 0.2688 1.2312
C3 C 0.67736(12) 0.59855(16) 1.05221(10)
H7 H 0.6989 0.6435 1.0044
H8 H 0.6807 0.6761 1.0977
H9 H 0.6052 0.5604 1.0267
C4 C 0.74636(10) 0.25331(15) 0.94536(9)
C5 C 0.84083(11) 0.14384(16) 0.95058(9)
H10 H 0.8519 0.1381 0.8912
C6 C 0.88437(12) -0.03324(18) 1.07558(10)
H11 H 0.8460 -0.0254 1.1188
H12 H 0.9203 -0.1331 1.0837
C7 C 0.80697(11) -0.01637(16) 0.97748(10)
H13 H 0.8200 -0.0981 0.9385
C8 C 0.68572(11) -0.00372(16) 0.96215(10)
H14 H 0.6473 -0.0942 0.9301
H15 H 0.6731 0.0072 1.0200
C9 C 0.65158(10) 0.14306(15) 0.90342(9)
H16 H 0.6494 0.1175 0.8411
C10 C 0.54693(11) 0.22258(16) 0.89594(10)
H17 H 0.5491 0.2582 0.9560
H18 H 0.4879 0.1499 0.8730
C11 C 0.53011(11) 0.36090(17) 0.83037(10)
H19 H 0.5009 0.3228 0.7679
H20 H 0.4772 0.4297 0.8405
C12 C 0.63058(11) 0.45419(16) 0.84009(9)
C13 C 0.62071(12) 0.59749(17) 0.79509(9)
H21 H 0.5526 0.6342 0.7617
C14 C 0.70947(12) 0.68595(17) 0.79894(9)
H22 H 0.7006 0.7811 0.7688
C15 C 0.81234(12) 0.63188(16) 0.84815(9)
H23 H 0.8724 0.6898 0.8504
C16 C 0.82380(11) 0.49055(16) 0.89375(9)
H24 H 0.8922 0.4542 0.9266
C17 C 0.73418(10) 0.40205(16) 0.89103(9)
loop_
_geom_bond_atom_site_label_1
_geom_bond_atom_site_label_2
_geom_bond_site_symmetry_1
_geom_bond_site_symmetry_2
Si1 O1 1_555 1_555
O1 C4 1_555 1_555
N1 N2 1_555 1_555
N2 C6 1_555 1_555
C1 Si1 1_555 1_555
H1 C1 1_555 1_555
H2 C1 1_555 1_555
H3 C1 1_555 1_555
C2 Si1 1_555 1_555
H4 C2 1_555 1_555
H5 C2 1_555 1_555
H6 C2 1_555 1_555
C3 Si1 1_555 1_555
H7 C3 1_555 1_555
H8 C3 1_555 1_555
H9 C3 1_555 1_555
C4 C5 1_555 1_555
C5 N1 1_555 1_555
H10 C5 1_555 1_555
C6 H11 1_555 1_555
H12 C6 1_555 1_555
C7 C5 1_555 1_555
H13 C7 1_555 1_555
C8 C7 1_555 1_555
H14 C8 1_555 1_555
H15 C8 1_555 1_555
C9 C4 1_555 1_555
H16 C9 1_555 1_555
C10 C9 1_555 1_555
H17 C10 1_555 1_555
H18 C10 1_555 1_555
C11 C10 1_555 1_555
H19 C11 1_555 1_555
H20 C11 1_555 1_555
C12 C11 1_555 1_555
C13 C12 1_555 1_555
H21 C13 1_555 1_555
C14 C13 1_555 1_555
H22 C14 1_555 1_555
C15 C14 1_555 1_555
H23 C15 1_555 1_555
C16 C15 1_555 1_555
H24 C16 1_555 1_555
C17 C4 1_555 1_555
C6 C7 1_555 1_555
C8 C9 1_555 1_555
C12 C17 1_555 1_555
C16 C17 1_555 1_555

#END
