
#######################################################################
#
#                 Cambridge Crystallographic Data Centre
#                                CCDC 
#
#######################################################################
#
# If this CIF has been generated from an entry in the Cambridge 
# Structural Database, then it will include bibliographic, chemical, 
# crystal, experimental, refinement or atomic coordinate data resulting 
# from the CCDC's data processing and validation procedures.
#
#######################################################################

data_AGETUD
_chemical_formula_moiety         'C27 H25 N1 O1'
_chemical_name_systematic        
1-(4-((3-Benzylidene-2-benzofuran-1(3H)-ylidene)methyl)phenyl)piperidine
_symmetry_cell_setting           monoclinic
_symmetry_space_group_name_H-M   'P 21/c'
_symmetry_Int_Tables_number      14
_space_group_name_Hall           '-P 2ybc'
loop_
_symmetry_equiv_pos_site_id
_symmetry_equiv_pos_as_xyz
1 x,y,z
2 -x,1/2+y,1/2-z
3 -x,-y,-z
4 x,1/2-y,1/2+z
_cell_length_a                   8.4778(18)
_cell_length_b                   17.232(4)
_cell_length_c                   15.832(3)
_cell_angle_alpha                90
_cell_angle_beta                 102.571(6)
_cell_angle_gamma                90
_cell_volume                     2257.44
_exptl_crystal_colour            green
_exptl_crystal_description       prismatic
_cell_formula_units_Z            4
loop_
_atom_site_label
_atom_site_type_symbol
_atom_site_fract_x
_atom_site_fract_y
_atom_site_fract_z
N1 N -0.4758(4) 0.87297(15) 0.85624(18)
O1 O 0.2822(3) 0.73611(12) 0.99726(13)
C1 C 0.1656(4) 0.84627(19) 1.0545(2)
H1 H 0.1896 0.8853 1.0959
C2 C 0.2901(4) 0.79860(19) 1.0531(2)
C3 C 0.4529(4) 0.8015(2) 1.1051(2)
C4 C 0.5265(5) 0.8521(2) 1.1717(2)
H2 H 0.4681 0.8918 1.1904
C5 C 0.6875(5) 0.8411(2) 1.2086(3)
H3 H 0.7397 0.8743 1.2521
C6 C 0.7728(5) 0.7806(2) 1.1811(3)
H4 H 0.8819 0.7746 1.2064
C7 C 0.7020(5) 0.7300(2) 1.1185(2)
H5 H 0.7601 0.6889 1.1021
C8 C 0.5406(4) 0.74123(19) 1.0796(2)
C9 C 0.4310(4) 0.69961(19) 1.0119(2)
C10 C 0.4604(4) 0.6366(2) 0.9672(2)
H6 H 0.5638 0.6164 0.9862
C11 C 0.3630(4) 0.59396(18) 0.8955(2)
C12 C 0.4195(5) 0.5230(2) 0.8717(2)
H7 H 0.5178 0.5040 0.9027
C13 C 0.3335(6) 0.4803(2) 0.8036(3)
H8 H 0.3733 0.4327 0.7899
C14 C 0.1913(5) 0.5072(2) 0.7563(3)
H9 H 0.1341 0.4787 0.7097
C15 C 0.1320(5) 0.5777(2) 0.7781(3)
H10 H 0.0338 0.5963 0.7465
C16 C 0.2171(4) 0.6199(2) 0.8456(2)
H11 H 0.1762 0.6674 0.8587
C17 C 0.0023(4) 0.84885(19) 1.0046(2)
C18 C -0.0696(4) 0.7925(2) 0.9444(2)
H12 H -0.0098 0.7492 0.9354
C19 C -0.2256(5) 0.7996(2) 0.8984(2)
H13 H -0.2692 0.7605 0.8600
C20 C -0.3219(4) 0.86385(18) 0.9074(2)
C21 C -0.2539(5) 0.9177(2) 0.9682(2)
H14 H -0.3146 0.9603 0.9782
C22 C -0.0959(5) 0.9098(2) 1.0152(2)
H15 H -0.0546 0.9477 1.0558
C23 C -0.5555(5) 0.8059(2) 0.8077(2)
H16 H -0.5795 0.7681 0.8486
H17 H -0.4806 0.7820 0.7772
C24 C -0.7061(5) 0.8243(3) 0.7447(3)
H18 H -0.6782 0.8500 0.6954
H19 H -0.7596 0.7760 0.7242
C25 C -0.8205(5) 0.8734(3) 0.7772(3)
H20 H -0.8684 0.8441 0.8176
H21 H -0.9066 0.8895 0.7294
C26 C -0.7369(6) 0.9435(3) 0.8216(3)
H22 H -0.7147 0.9788 0.7779
H23 H -0.8098 0.9697 0.8516
C27 C -0.5846(5) 0.9275(2) 0.8839(2)
H24 H -0.5277 0.9763 0.8979
H25 H -0.6106 0.9080 0.9367
loop_
_geom_bond_atom_site_label_1
_geom_bond_atom_site_label_2
_geom_bond_site_symmetry_1
_geom_bond_site_symmetry_2
N1 C20 1_555 1_555
O1 C2 1_555 1_555
C1 H1 1_555 1_555
C2 C1 1_555 1_555
C3 C2 1_555 1_555
C4 C3 1_555 1_555
H2 C4 1_555 1_555
C5 C4 1_555 1_555
H3 C5 1_555 1_555
C6 C5 1_555 1_555
H4 C6 1_555 1_555
C7 C6 1_555 1_555
H5 C7 1_555 1_555
C8 C3 1_555 1_555
C9 O1 1_555 1_555
C10 C9 1_555 1_555
H6 C10 1_555 1_555
C11 C10 1_555 1_555
C12 C11 1_555 1_555
H7 C12 1_555 1_555
C13 C12 1_555 1_555
H8 C13 1_555 1_555
C14 C13 1_555 1_555
H9 C14 1_555 1_555
C15 C14 1_555 1_555
H10 C15 1_555 1_555
C16 C11 1_555 1_555
H11 C16 1_555 1_555
C17 C1 1_555 1_555
C18 C17 1_555 1_555
H12 C18 1_555 1_555
C19 C18 1_555 1_555
H13 C19 1_555 1_555
C20 C19 1_555 1_555
C21 C20 1_555 1_555
H14 C21 1_555 1_555
C22 C17 1_555 1_555
H15 C22 1_555 1_555
C23 N1 1_555 1_555
H16 C23 1_555 1_555
H17 C23 1_555 1_555
C24 C23 1_555 1_555
H18 C24 1_555 1_555
H19 C24 1_555 1_555
C25 C24 1_555 1_555
H20 C25 1_555 1_555
H21 C25 1_555 1_555
C26 C25 1_555 1_555
H22 C26 1_555 1_555
H23 C26 1_555 1_555
C27 N1 1_555 1_555
H24 C27 1_555 1_555
H25 C27 1_555 1_555
C7 C8 1_555 1_555
C8 C9 1_555 1_555
C15 C16 1_555 1_555
C21 C22 1_555 1_555
C26 C27 1_555 1_555

#END
