
#######################################################################
#
#                 Cambridge Crystallographic Data Centre
#                                CCDC 
#
#######################################################################
#
# If this CIF has been generated from an entry in the Cambridge 
# Structural Database, then it will include bibliographic, chemical, 
# crystal, experimental, refinement or atomic coordinate data resulting 
# from the CCDC's data processing and validation procedures.
#
#######################################################################

data_AGEVAL
_chemical_formula_moiety         'C22 H17 N1 O2'
_chemical_name_systematic        
2-(4-Methoxyphenyl)-3-phenylisoquinolin-1(2H)-one
_symmetry_cell_setting           monoclinic
_symmetry_space_group_name_H-M   'P 21/n'
_symmetry_Int_Tables_number      14
_space_group_name_Hall           '-P 2yn'
loop_
_symmetry_equiv_pos_site_id
_symmetry_equiv_pos_as_xyz
1 x,y,z
2 1/2-x,1/2+y,1/2-z
3 -x,-y,-z
4 1/2+x,1/2-y,1/2+z
_cell_length_a                   9.3974(10)
_cell_length_b                   16.1269(18)
_cell_length_c                   11.7851(13)
_cell_angle_alpha                90
_cell_angle_beta                 113.249(2)
_cell_angle_gamma                90
_cell_volume                     1641.01
_exptl_crystal_colour            orange
_exptl_crystal_description       block
_cell_formula_units_Z            4
loop_
_atom_site_label
_atom_site_type_symbol
_atom_site_fract_x
_atom_site_fract_y
_atom_site_fract_z
O1 O -0.03623(10) 0.29492(6) -0.01580(9)
O2 O -0.11874(10) 0.42768(6) 0.42814(8)
N1 N 0.15872(11) 0.38472(6) 0.09170(9)
C1 C 0.08620(13) 0.32833(7) -0.00465(11)
C2 C 0.16589(13) 0.31246(7) -0.08736(11)
C3 C 0.09986(14) 0.25640(7) -0.18525(12)
H1 H 0.0040 0.2303 -0.1982
C4 C 0.17447(16) 0.23911(8) -0.26302(12)
H2 H 0.1304 0.2006 -0.3287
C5 C 0.31464(16) 0.27815(8) -0.24516(12)
H3 H 0.3647 0.2664 -0.2993
C6 C 0.38076(15) 0.33362(8) -0.14948(11)
H4 H 0.4758 0.3599 -0.1383
C7 C 0.30780(13) 0.35147(7) -0.06810(11)
C8 C 0.37195(13) 0.40826(7) 0.03314(11)
H5 H 0.4675 0.4349 0.0470
C9 C 0.29900(12) 0.42469(7) 0.10940(10)
C10 C 0.36129(13) 0.48697(7) 0.21021(11)
C11 C 0.50931(14) 0.47643(7) 0.30210(11)
H6 H 0.5676 0.4283 0.3019
C12 C 0.57185(15) 0.53581(8) 0.39376(12)
H7 H 0.6720 0.5276 0.4568
C13 C 0.48912(15) 0.60695(8) 0.39386(12)
H8 H 0.5319 0.6473 0.4569
C14 C 0.34323(15) 0.61875(8) 0.30106(12)
H9 H 0.2872 0.6680 0.2997
C15 C 0.27862(15) 0.55915(8) 0.21030(12)
H10 H 0.1780 0.5673 0.1480
C16 C 0.08951(13) 0.39488(7) 0.18083(11)
C17 C -0.04385(14) 0.44267(8) 0.15134(11)
H11 H -0.0893 0.4685 0.0727
C18 C -0.10996(14) 0.45254(8) 0.23622(11)
H12 H -0.2006 0.4853 0.2162
C19 C -0.04347(13) 0.41427(7) 0.35175(11)
C20 C 0.08944(13) 0.36620(7) 0.38112(11)
H13 H 0.1350 0.3402 0.4596
C21 C 0.15510(13) 0.35657(7) 0.29478(11)
H14 H 0.2454 0.3235 0.3142
C22 C -0.06273(17) 0.38408(9) 0.54279(12)
H15 H -0.0711 0.3242 0.5270
H16 H -0.1245 0.3993 0.5899
H17 H 0.0459 0.3987 0.5902
loop_
_geom_bond_atom_site_label_1
_geom_bond_atom_site_label_2
_geom_bond_site_symmetry_1
_geom_bond_site_symmetry_2
O1 C1 1_555 1_555
O2 C19 1_555 1_555
N1 C1 1_555 1_555
C1 C2 1_555 1_555
C2 C3 1_555 1_555
C3 H1 1_555 1_555
C4 C3 1_555 1_555
H2 C4 1_555 1_555
C5 C4 1_555 1_555
H3 C5 1_555 1_555
C6 C5 1_555 1_555
H4 C6 1_555 1_555
C7 C2 1_555 1_555
C8 C7 1_555 1_555
H5 C8 1_555 1_555
C9 N1 1_555 1_555
C10 C9 1_555 1_555
C11 C10 1_555 1_555
H6 C11 1_555 1_555
C12 C11 1_555 1_555
H7 C12 1_555 1_555
C13 C12 1_555 1_555
H8 C13 1_555 1_555
C14 C13 1_555 1_555
H9 C14 1_555 1_555
C15 C10 1_555 1_555
H10 C15 1_555 1_555
C16 N1 1_555 1_555
C17 C16 1_555 1_555
H11 C17 1_555 1_555
C18 C17 1_555 1_555
H12 C18 1_555 1_555
C19 C18 1_555 1_555
C20 C19 1_555 1_555
H13 C20 1_555 1_555
C21 C16 1_555 1_555
H14 C21 1_555 1_555
C22 O2 1_555 1_555
H15 C22 1_555 1_555
H16 C22 1_555 1_555
H17 C22 1_555 1_555
C6 C7 1_555 1_555
C8 C9 1_555 1_555
C14 C15 1_555 1_555
C20 C21 1_555 1_555

#END
