
#######################################################################
#
#                 Cambridge Crystallographic Data Centre
#                                CCDC 
#
#######################################################################
#
# If this CIF has been generated from an entry in the Cambridge 
# Structural Database, then it will include bibliographic, chemical, 
# crystal, experimental, refinement or atomic coordinate data resulting 
# from the CCDC's data processing and validation procedures.
#
#######################################################################

data_AGEYES
_chemical_formula_moiety         'C18 H22 Cl1 N1 O2'
_chemical_name_systematic        2-Chloro-3-(octylamino)-1,4-naphthoquinone
_symmetry_cell_setting           monoclinic
_symmetry_space_group_name_H-M   'P 21'
_symmetry_Int_Tables_number      4
_space_group_name_Hall           'P 2yb'
loop_
_symmetry_equiv_pos_site_id
_symmetry_equiv_pos_as_xyz
1 x,y,z
2 -x,1/2+y,-z
_cell_length_a                   7.4007(5)
_cell_length_b                   4.7305(3)
_cell_length_c                   22.8178(15)
_cell_angle_alpha                90
_cell_angle_beta                 91.218(4)
_cell_angle_gamma                90
_cell_volume                     798.648
_exptl_crystal_colour            red
_exptl_crystal_description       block
_cell_formula_units_Z            2
loop_
_atom_site_label
_atom_site_type_symbol
_atom_site_fract_x
_atom_site_fract_y
_atom_site_fract_z
O1 O 0.4544(3) 0.6505(7) 0.30456(12)
C1 C 0.6082(5) 0.6808(9) 0.32507(16)
Cl1 Cl 0.70218(11) 0.2843(2) 0.24828(4)
C2 C 0.7594(5) 0.5185(9) 0.30420(16)
C3 C 0.9316(5) 0.5442(9) 0.32669(17)
O2 O 1.1114(3) 0.7423(7) 0.40340(11)
C4 C 0.9620(5) 0.7372(9) 0.37939(16)
C5 C 0.8126(5) 0.9135(9) 0.39983(17)
C6 C 0.8411(5) 1.1035(9) 0.44599(17)
H1 H 0.9569 1.1175 0.4646
C7 C 0.7000(5) 1.2714(12) 0.46455(15)
H2 H 0.7191 1.4023 0.4956
C8 C 0.5303(5) 1.2483(11) 0.43758(15)
H3 H 0.4339 1.3644 0.4503
C9 C 0.5007(5) 1.0569(9) 0.39234(17)
H4 H 0.3842 1.0406 0.3744
C10 C 0.6401(5) 0.8913(9) 0.37353(16)
N1 N 1.0868(4) 0.4171(8) 0.31227(14)
H5 H 1.179(6) 0.476(10) 0.3338(19)
C11 C 1.1285(5) 0.2450(10) 0.26053(15)
H6 H 1.0340 0.0986 0.2552
H7 H 1.2453 0.1474 0.2675
C12 C 1.1393(5) 0.4207(10) 0.20444(16)
H8 H 1.0186 0.5008 0.1949
H9 H 1.2239 0.5801 0.2112
C13 C 1.2027(5) 0.2464(11) 0.15252(16)
H10 H 1.3308 0.1930 0.1594
H11 H 1.1309 0.0700 0.1502
C14 C 1.1855(5) 0.4010(10) 0.09452(17)
H12 H 1.2501 0.5838 0.0978
H13 H 1.0563 0.4424 0.0863
C15 C 1.2612(5) 0.2341(9) 0.04297(15)
H14 H 1.3918 0.2011 0.0503
H15 H 1.2010 0.0473 0.0410
C16 C 1.2358(5) 0.3820(10) -0.01608(17)
H16 H 1.1048 0.4019 -0.0248
H17 H 1.2878 0.5745 -0.0132
C17 C 1.3226(5) 0.2278(10) -0.06644(16)
H18 H 1.2696 0.0361 -0.0696
H19 H 1.4534 0.2061 -0.0575
C18 C 1.2994(6) 0.3758(10) -0.12516(17)
H20 H 1.1704 0.3947 -0.1349
H21 H 1.3581 0.2644 -0.1556
H22 H 1.3548 0.5638 -0.1229
loop_
_geom_bond_atom_site_label_1
_geom_bond_atom_site_label_2
_geom_bond_site_symmetry_1
_geom_bond_site_symmetry_2
O1 C1 1_555 1_555
C1 C2 1_555 1_555
Cl1 C2 1_555 1_555
C2 C3 1_555 1_555
C3 C4 1_555 1_555
O2 C4 1_555 1_555
C4 C5 1_555 1_555
C5 C6 1_555 1_555
C6 H1 1_555 1_555
C7 C6 1_555 1_555
H2 C7 1_555 1_555
C8 C7 1_555 1_555
H3 C8 1_555 1_555
C9 C8 1_555 1_555
H4 C9 1_555 1_555
C10 C1 1_555 1_555
N1 C3 1_555 1_555
H5 N1 1_555 1_555
C11 N1 1_555 1_555
H6 C11 1_555 1_555
H7 C11 1_555 1_555
C12 C11 1_555 1_555
H8 C12 1_555 1_555
H9 C12 1_555 1_555
C13 C12 1_555 1_555
H10 C13 1_555 1_555
H11 C13 1_555 1_555
C14 C13 1_555 1_555
H12 C14 1_555 1_555
H13 C14 1_555 1_555
C15 C14 1_555 1_555
H14 C15 1_555 1_555
H15 C15 1_555 1_555
C16 C15 1_555 1_555
H16 C16 1_555 1_555
H17 C16 1_555 1_555
C17 C16 1_555 1_555
H18 C17 1_555 1_555
H19 C17 1_555 1_555
C18 C17 1_555 1_555
H20 C18 1_555 1_555
H21 C18 1_555 1_555
H22 C18 1_555 1_555
C5 C10 1_555 1_555
C9 C10 1_555 1_555

#END
