
#######################################################################
#
#                 Cambridge Crystallographic Data Centre
#                                CCDC 
#
#######################################################################
#
# If this CIF has been generated from an entry in the Cambridge 
# Structural Database, then it will include bibliographic, chemical, 
# crystal, experimental, refinement or atomic coordinate data resulting 
# from the CCDC's data processing and validation procedures.
#
#######################################################################

data_AGIDUS
_chemical_formula_moiety         'C4 H1 N5 O6 2-,H2 O1,2(K1 1+)'
_chemical_name_systematic        
'di-potassium 4-(dinitromethanidyl)-1H-1,2,3-triazole-5-carboxylate monohydrate'
_symmetry_cell_setting           monoclinic
_symmetry_space_group_name_H-M   'P 21/c'
_symmetry_Int_Tables_number      14
_space_group_name_Hall           '-P 2ybc'
loop_
_symmetry_equiv_pos_site_id
_symmetry_equiv_pos_as_xyz
1 x,y,z
2 -x,1/2+y,1/2-z
3 -x,-y,-z
4 x,1/2-y,1/2+z
_cell_length_a                   14.226(4)
_cell_length_b                   7.1776(19)
_cell_length_c                   9.876(3)
_cell_angle_alpha                90
_cell_angle_beta                 107.066(5)
_cell_angle_gamma                90
_cell_volume                     964.02
_exptl_crystal_colour            colorless
_exptl_crystal_description       block
_cell_formula_units_Z            4
loop_
_atom_site_label
_atom_site_type_symbol
_atom_site_fract_x
_atom_site_fract_y
_atom_site_fract_z
K1 K 0.06730(5) 0.39533(10) 0.20810(8)
K2 K 0.59445(6) 0.75944(11) 1.05655(8)
O1 O 0.22330(16) 0.4268(3) 0.4499(2)
O2 O 0.30283(17) 0.3486(3) 0.6651(3)
O3 O 0.06717(16) 0.6278(3) 0.4228(2)
O4 O 0.04891(16) 0.7417(3) 0.6175(2)
O5 O 0.35408(17) 0.8502(3) 0.7842(2)
O6 O 0.40231(16) 0.8331(3) 1.0199(2)
N1 N 0.25030(19) 0.5957(4) 1.0180(3)
H1 H 0.284(4) 0.630(7) 1.123(6)
N2 N 0.1732(2) 0.4794(4) 0.9928(3)
N3 N 0.1404(2) 0.4547(4) 0.8542(3)
N4 N 0.2349(2) 0.4382(4) 0.5801(3)
N5 N 0.0950(2) 0.6399(4) 0.5546(3)
C1 C 0.1772(2) 0.5495(4) 0.6391(4)
C2 C 0.1974(2) 0.5573(5) 0.7922(3)
C3 C 0.2682(2) 0.6496(4) 0.8966(4)
C4 C 0.3479(2) 0.7889(4) 0.9010(4)
O1B O 0.77670(16) 1.5732(3) 1.5501(2)
O2B O 0.69717(17) 1.6514(3) 1.3349(3)
O3B O 0.93283(16) 1.3722(3) 1.5772(2)
O4B O 0.95109(16) 1.2583(3) 1.3825(2)
O5B O 0.64592(17) 1.1498(3) 1.2158(2)
O6B O 0.59769(16) 1.1669(3) 0.9801(2)
N1B N 0.74970(19) 1.4043(4) 0.9820(3)
H1B H 0.716(4) 1.370(7) 0.877(6)
N2B N 0.8268(2) 1.5206(4) 1.0072(3)
N3B N 0.8596(2) 1.5453(4) 1.1458(3)
N4B N 0.7651(2) 1.5618(4) 1.4199(3)
N5B N 0.9050(2) 1.3601(4) 1.4454(3)
C1B C 0.8228(2) 1.4505(4) 1.3609(4)
C2B C 0.8026(2) 1.4427(5) 1.2078(3)
C3B C 0.7318(2) 1.3504(4) 1.1034(4)
C4B C 0.6521(2) 1.2111(4) 1.0990(4)
O7 O 0.5028(2) 0.5369(4) 0.8200(3)
H2 H 0.533(3) 0.471(6) 0.777(5)
H3 H 0.464(3) 0.580(6) 0.767(5)
loop_
_geom_bond_atom_site_label_1
_geom_bond_atom_site_label_2
_geom_bond_site_symmetry_1
_geom_bond_site_symmetry_2
O1 N4 1_555 1_555
O2 N4 1_555 1_555
O3 N5 1_555 1_555
O4 N5 1_555 1_555
O5 C4 1_555 1_555
O6 C4 1_555 1_555
N1 H1 1_555 1_555
N2 N1 1_555 1_555
N3 N2 1_555 1_555
N4 C1 1_555 1_555
N5 C1 1_555 1_555
C1 C2 1_555 1_555
C2 N3 1_555 1_555
C3 N1 1_555 1_555
C4 C3 1_555 1_555
O7 H2 1_555 1_555
H3 O7 1_555 1_555
O1B N4B 1_555 1_555
O2B N4B 1_555 1_555
O3B N5B 1_555 1_555
O4B N5B 1_555 1_555
O5B C4B 1_555 1_555
O6B C4B 1_555 1_555
N1B H1B 1_555 1_555
N2B N1B 1_555 1_555
N3B N2B 1_555 1_555
N4B C1B 1_555 1_555
N5B C1B 1_555 1_555
C1B C2B 1_555 1_555
C2B N3B 1_555 1_555
C3B N1B 1_555 1_555
C4B C3B 1_555 1_555
C2 C3 1_555 1_555
C2B C3B 1_555 1_555

#END
