
#######################################################################
#
#                 Cambridge Crystallographic Data Centre
#                                CCDC 
#
#######################################################################
#
# If this CIF has been generated from an entry in the Cambridge 
# Structural Database, then it will include bibliographic, chemical, 
# crystal, experimental, refinement or atomic coordinate data resulting 
# from the CCDC's data processing and validation procedures.
#
#######################################################################

data_AGIDOM
_chemical_formula_moiety         'C5 H4 N5 O6 1-,K1 1+'
_chemical_name_systematic        
'potassium [4-(methoxycarbonyl)-1H-1,2,3-triazol-5-yl](dinitro)methanide'
_symmetry_cell_setting           orthorhombic
_symmetry_space_group_name_H-M   'P n m a'
_symmetry_Int_Tables_number      62
_space_group_name_Hall           '-P 2ac 2n'
loop_
_symmetry_equiv_pos_site_id
_symmetry_equiv_pos_as_xyz
1 x,y,z
2 1/2-x,-y,1/2+z
3 -x,1/2+y,-z
4 1/2+x,1/2-y,1/2-z
5 -x,-y,-z
6 1/2+x,y,1/2-z
7 x,1/2-y,z
8 1/2-x,1/2+y,1/2+z
_cell_length_a                   8.8837(12)
_cell_length_b                   7.7267(10)
_cell_length_c                   15.068(2)
_cell_angle_alpha                90
_cell_angle_beta                 90
_cell_angle_gamma                90
_cell_volume                     1034.29
_exptl_crystal_colour            yellow
_exptl_crystal_description       prismatic
_cell_formula_units_Z            4
loop_
_atom_site_label
_atom_site_type_symbol
_atom_site_fract_x
_atom_site_fract_y
_atom_site_fract_z
K1 K 0.47725(7) 1.2500 0.26939(3)
N1 N 0.0819(3) 0.7500 -0.05026(14)
N2 N -0.0389(2) 0.7500 -0.00175(15)
N3 N 0.0054(2) 0.7500 0.08289(14)
N4 N 0.27586(17) 0.90471(19) 0.21108(9)
O1 O 0.23131(17) 1.03863(17) 0.17329(9)
O2 O 0.3550(2) 0.91559(19) 0.27867(9)
O3 O 0.3871(3) 0.7500 -0.10901(13)
O4 O 0.4560(2) 0.7500 0.03353(14)
C1 C 0.2029(3) 0.7500 0.00387(15)
C2 C 0.1547(2) 0.7500 0.09019(14)
C3 C 0.2331(2) 0.7500 0.17511(14)
C4 C 0.3568(3) 0.7500 -0.03139(17)
C5 C 0.6150(3) 0.7500 0.0098(3)
H1 H -0.055(3) 0.7500 0.123(2)
N4F N 0.27586(17) 0.59529(19) 0.21108(9)
O1F O 0.23131(17) 0.46137(17) 0.17329(9)
O2F O 0.3550(2) 0.58441(19) 0.27867(9)
H2? H 0.6430 0.8626 -0.0115
H3? H 0.6326 0.6657 -0.0358
H4? H 0.6741 0.7218 0.0611
loop_
_geom_bond_atom_site_label_1
_geom_bond_atom_site_label_2
_geom_bond_site_symmetry_1
_geom_bond_site_symmetry_2
N1 N2 1_555 1_555
N2 N3 1_555 1_555
N3 C2 1_555 1_555
N4 O1 1_555 1_555
O2 N4 1_555 1_555
O3 C4 1_555 1_555
O4 C4 1_555 1_555
C1 N1 1_555 1_555
C2 C1 1_555 1_555
C3 N4 1_555 1_555
C4 C1 1_555 1_555
C5 O4 1_555 1_555
H1 N3 1_555 1_555
N4F C3 1_555 1_555
O1F N4F 1_555 1_555
O2F N4F 1_555 1_555
C2 C3 1_555 1_555

#END
