
#######################################################################
#
#                 Cambridge Crystallographic Data Centre
#                                CCDC 
#
#######################################################################
#
# If this CIF has been generated from an entry in the Cambridge 
# Structural Database, then it will include bibliographic, chemical, 
# crystal, experimental, refinement or atomic coordinate data resulting 
# from the CCDC's data processing and validation procedures.
#
#######################################################################

data_AGIFAA
_chemical_formula_moiety         'C4 H1 N7 O8 2-,2(K1 1+)'
_chemical_name_systematic        
'di-potassium [5-(dinitromethanidyl)-2H-1,2,3-triazol-4-yl](dinitro)methanide'
_symmetry_cell_setting           orthorhombic
_symmetry_space_group_name_H-M   'P n n m'
_symmetry_Int_Tables_number      58
_space_group_name_Hall           '-P 2 2n'
loop_
_symmetry_equiv_pos_site_id
_symmetry_equiv_pos_as_xyz
1 x,y,z
2 -x,-y,z
3 1/2-x,1/2+y,1/2-z
4 1/2+x,1/2-y,1/2-z
5 -x,-y,-z
6 x,y,-z
7 1/2+x,1/2-y,1/2+z
8 1/2-x,1/2+y,1/2+z
_cell_length_a                   12.6634(17)
_cell_length_b                   6.5765(9)
_cell_length_c                   7.1997(10)
_cell_angle_alpha                90
_cell_angle_beta                 90
_cell_angle_gamma                90
_cell_volume                     599.597
_exptl_crystal_colour            yellow
_exptl_crystal_description       block
_cell_formula_units_Z            4
loop_
_atom_site_label
_atom_site_type_symbol
_atom_site_fract_x
_atom_site_fract_y
_atom_site_fract_z
N1 N 0.3932(2) 0.8018(4) 0.3439(4)
C1 C 0.45135(19) 0.6455(4) 0.4023(4)
C2 C 0.5000 0.5000 0.2752(3)
N2 N 0.44883(18) 0.3338(4) 0.2149(3)
N3 N 0.60389(18) 0.5451(3) 0.2155(3)
O1 O 0.64485(9) 0.69773(18) 0.27666(18)
O2 O 0.48670(17) 0.2085(4) 0.1054(3)
O3 O 0.65353(18) 0.4340(4) 0.1047(4)
N4 N 0.3529(13) 0.8694(17) 0.5000
H1 H 0.3017 0.9553 0.5000
N1A N 0.6068(2) 0.1982(4) 0.3439(4)
C1A C 0.54865(19) 0.3545(4) 0.4023(4)
N2A N 0.55117(18) 0.6662(4) 0.2149(3)
N3A N 0.39611(18) 0.4549(3) 0.2155(3)
O1A O 0.35515(9) 0.30227(18) 0.27666(18)
O2A O 0.51330(17) 0.7915(4) 0.1054(3)
O3A O 0.34647(18) 0.5660(4) 0.1047(4)
N4A N 0.6471(13) 0.1306(17) 0.5000
H1A H 0.6983 0.0447 0.5000
N1D N 0.6068(2) 0.1982(4) 0.6561(4)
C1D C 0.54865(19) 0.3545(4) 0.5977(4)
C2D C 0.5000 0.5000 0.7248(3)
N2D N 0.55117(18) 0.6662(4) 0.7851(3)
N3D N 0.39611(18) 0.4549(3) 0.7845(3)
O1D O 0.35515(9) 0.30227(18) 0.72334(18)
O2D O 0.51330(17) 0.7915(4) 0.8946(3)
O3D O 0.34647(18) 0.5660(4) 0.8953(4)
N1E N 0.3932(2) 0.8018(4) 0.6561(4)
C1E C 0.45135(19) 0.6455(4) 0.5977(4)
N2E N 0.44883(18) 0.3338(4) 0.7851(3)
N3E N 0.60389(18) 0.5451(3) 0.7845(3)
O1E O 0.64485(9) 0.69773(18) 0.72334(18)
O2E O 0.48670(17) 0.2085(4) 0.8946(3)
O3E O 0.65353(18) 0.4340(4) 0.8953(4)
K1 K 0.68346(4) 0.03640(8) 0.0000
N5? N 0.379(3) 0.898(6) 0.5000
H2? H 0.3616 1.0246 0.5000
loop_
_geom_bond_atom_site_label_1
_geom_bond_atom_site_label_2
_geom_bond_site_symmetry_1
_geom_bond_site_symmetry_2
N1 C1 1_555 1_555
C1 C2 1_555 1_555
C2 N2 1_555 1_555
N2 O2 1_555 1_555
N3 C2 1_555 1_555
O1 N3 1_555 1_555
O3 N3 1_555 1_555
N4 N1 1_555 1_555
H1 N4 1_555 1_555
N1A C1A 1_555 1_555
C1A C2 1_555 1_555
N2A C2 1_555 1_555
N3A C2 1_555 1_555
O1A N2 1_555 1_555
O2A N2A 1_555 1_555
O3A N3A 1_555 1_555
N4A N1A 1_555 1_555
H1A N4A 1_555 1_555
N1D N4A 1_555 1_555
C1D C1A 1_555 1_555
C2D C1D 1_555 1_555
N2D C2D 1_555 1_555
N3D C2D 1_555 1_555
O1D N3D 1_555 1_555
O2D N2D 1_555 1_555
O3D N3D 1_555 1_555
N1E N4 1_555 1_555
C1E C1 1_555 1_555
N2E C2D 1_555 1_555
N3E C2D 1_555 1_555
O1E N2D 1_555 1_555
O2E N2E 1_555 1_555
O3E N3E 1_555 1_555
N2 N3A 1_555 1_555
N3 N2A 1_555 1_555
O1 N2A 1_555 1_555
N3A O1A 1_555 1_555
N1D C1D 1_555 1_555
C2D C1E 1_555 1_555
N2D N3E 1_555 1_555
N3D N2E 1_555 1_555
O1D N2E 1_555 1_555
N1E C1E 1_555 1_555
N3E O1E 1_555 1_555

#END
