
#######################################################################
#
#                 Cambridge Crystallographic Data Centre
#                                CCDC 
#
#######################################################################
#
# If this CIF has been generated from an entry in the Cambridge 
# Structural Database, then it will include bibliographic, chemical, 
# crystal, experimental, refinement or atomic coordinate data resulting 
# from the CCDC's data processing and validation procedures.
#
#######################################################################

data_AGINOW
_chemical_formula_moiety         'C40 H26 N4'
_chemical_name_systematic        
N,N'-([2,2'-bipyridine]-5,5'-diyl)bis[1-(anthracen-9-yl)methanimine]
_symmetry_cell_setting           monoclinic
_symmetry_space_group_name_H-M   'I 2/a'
_symmetry_Int_Tables_number      15
_space_group_name_Hall           '-I 2ya'
loop_
_symmetry_equiv_pos_site_id
_symmetry_equiv_pos_as_xyz
1 x,y,z
2 1/2-x,y,-z
3 1/2+x,1/2+y,1/2+z
4 -x,1/2+y,1/2-z
5 -x,-y,-z
6 1/2+x,-y,z
7 1/2-x,1/2-y,1/2-z
8 x,1/2-y,1/2+z
_cell_length_a                   25.902(4)
_cell_length_b                   4.0170(5)
_cell_length_c                   29.044(4)
_cell_angle_alpha                90
_cell_angle_beta                 114.274(10)
_cell_angle_gamma                90
_cell_volume                     2754.81
_exptl_crystal_colour            'dark yellow'
_exptl_crystal_description       plate
_cell_formula_units_Z            4
loop_
_atom_site_label
_atom_site_type_symbol
_atom_site_fract_x
_atom_site_fract_y
_atom_site_fract_z
N1 N 0.39246(14) 0.6432(8) 0.09593(13)
N2 N 0.43567(15) 0.7699(8) -0.00812(14)
C1 C 0.50366(16) 1.0435(9) 0.06461(15)
H1 H 0.5377 1.1676 0.0799
C2 C 0.48419(17) 0.9507(9) 0.01527(16)
C3 C 0.34269(17) 0.7134(9) 0.23820(15)
C4 C 0.47359(18) 0.9559(9) 0.09164(16)
H2 H 0.4865 1.0244 0.1259
C5 C 0.37366(17) 0.8046(8) 0.20845(16)
C6 C 0.26976(17) 0.4506(9) 0.16384(16)
C7 C 0.30052(17) 0.5347(9) 0.13388(16)
C8 C 0.36533(18) 0.8002(9) 0.29022(16)
H3 H 0.3448 0.7439 0.3097
C9 C 0.35175(16) 0.7147(9) 0.15691(15)
C10 C 0.22640(18) 0.2603(9) 0.06225(16)
H4 H 0.2118 0.1930 0.0279
C11 C 0.41554(18) 0.9614(9) 0.31279(16)
H5 H 0.4296 1.0197 0.3475
C12 C 0.19619(18) 0.1822(10) 0.09169(17)
H6 H 0.1615 0.0627 0.0772
C13 C 0.21694(17) 0.2788(9) 0.14072(16)
H7 H 0.1959 0.2313 0.1601
C14 C 0.29169(17) 0.5449(9) 0.21455(16)
H8 H 0.2707 0.4913 0.2338
C15 C 0.42431(17) 0.7681(10) 0.07021(16)
C16 C 0.38419(17) 0.8273(10) 0.12804(16)
H9 H 0.3995 1.0460 0.1337
C17 C 0.42668(17) 0.9696(9) 0.23436(16)
H10 H 0.4485 1.0304 0.2162
C18 C 0.27625(18) 0.4309(10) 0.08244(15)
H11 H 0.2954 0.4821 0.0616
C19 C 0.40714(18) 0.6780(10) 0.01978(17)
H12 H 0.3740 0.5464 0.0043
C20 C 0.44671(19) 1.0417(10) 0.28454(17)
H13 H 0.4824 1.1483 0.3007
N1D N 0.60754(14) 1.3568(8) -0.09593(13)
N2D N 0.56433(15) 1.2301(8) 0.00812(14)
C1D C 0.49634(16) 0.9565(9) -0.06461(15)
H1D H 0.4623 0.8324 -0.0799
C2D C 0.51581(17) 1.0493(9) -0.01527(16)
C3D C 0.65731(17) 1.2866(9) -0.23820(15)
C4D C 0.52641(18) 1.0441(9) -0.09164(16)
H2D H 0.5135 0.9756 -0.1259
C5D C 0.62634(17) 1.1954(8) -0.20845(16)
C6D C 0.73024(17) 1.5494(9) -0.16384(16)
C7D C 0.69948(17) 1.4653(9) -0.13388(16)
C8D C 0.63467(18) 1.1998(9) -0.29022(16)
H3D H 0.6552 1.2561 -0.3097
C9D C 0.64825(16) 1.2853(9) -0.15691(15)
C10D C 0.77360(18) 1.7397(9) -0.06225(16)
H4D H 0.7882 1.8070 -0.0279
C11D C 0.58446(18) 1.0386(9) -0.31279(16)
H5D H 0.5704 0.9803 -0.3475
C12D C 0.80381(18) 1.8178(10) -0.09169(17)
H6D H 0.8385 1.9373 -0.0772
C13D C 0.78306(17) 1.7212(9) -0.14072(16)
H7D H 0.8041 1.7687 -0.1601
C14D C 0.70831(17) 1.4551(9) -0.21455(16)
H8D H 0.7293 1.5087 -0.2338
C15D C 0.57569(17) 1.2319(10) -0.07021(16)
C16D C 0.61581(17) 1.1727(10) -0.12804(16)
H9D H 0.6005 0.9540 -0.1337
C17D C 0.57332(17) 1.0304(9) -0.23436(16)
H10D H 0.5515 0.9696 -0.2162
C18D C 0.72375(18) 1.5691(10) -0.08244(15)
H11D H 0.7046 1.5179 -0.0616
C19D C 0.59286(18) 1.3220(10) -0.01978(17)
H12D H 0.6260 1.4536 -0.0043
C20D C 0.55329(19) 0.9583(10) -0.28454(17)
H13D H 0.5176 0.8517 -0.3007
loop_
_geom_bond_atom_site_label_1
_geom_bond_atom_site_label_2
_geom_bond_site_symmetry_1
_geom_bond_site_symmetry_2
N1 C15 1_555 1_555
N2 C2 1_555 1_555
C1 H1 1_555 1_555
C2 C1 1_555 1_555
C3 C5 1_555 1_555
C4 C1 1_555 1_555
H2 C4 1_555 1_555
C5 C9 1_555 1_555
C6 C7 1_555 1_555
C7 C9 1_555 1_555
C8 C3 1_555 1_555
H3 C8 1_555 1_555
C9 C16 1_555 1_555
C10 H4 1_555 1_555
C11 C8 1_555 1_555
H5 C11 1_555 1_555
C12 C10 1_555 1_555
H6 C12 1_555 1_555
C13 C6 1_555 1_555
H7 C13 1_555 1_555
C14 C3 1_555 1_555
H8 C14 1_555 1_555
C15 C4 1_555 1_555
C16 N1 1_555 1_555
H9 C16 1_555 1_555
C17 C5 1_555 1_555
H10 C17 1_555 1_555
C18 C7 1_555 1_555
H11 C18 1_555 1_555
C19 N2 1_555 1_555
H12 C19 1_555 1_555
C20 C11 1_555 1_555
H13 C20 1_555 1_555
N1D C15D 1_555 1_555
N2D C2D 1_555 1_555
C1D H1D 1_555 1_555
C2D C2 1_555 1_555
C3D C5D 1_555 1_555
C4D C1D 1_555 1_555
H2D C4D 1_555 1_555
C5D C9D 1_555 1_555
C6D C7D 1_555 1_555
C7D C9D 1_555 1_555
C8D C3D 1_555 1_555
H3D C8D 1_555 1_555
C9D C16D 1_555 1_555
C10D H4D 1_555 1_555
C11D C8D 1_555 1_555
H5D C11D 1_555 1_555
C12D C10D 1_555 1_555
H6D C12D 1_555 1_555
C13D C6D 1_555 1_555
H7D C13D 1_555 1_555
C14D C3D 1_555 1_555
H8D C14D 1_555 1_555
C15D C4D 1_555 1_555
C16D N1D 1_555 1_555
H9D C16D 1_555 1_555
C17D C5D 1_555 1_555
H10D C17D 1_555 1_555
C18D C7D 1_555 1_555
H11D C18D 1_555 1_555
C19D N2D 1_555 1_555
H12D C19D 1_555 1_555
C20D C11D 1_555 1_555
H13D C20D 1_555 1_555
C6 C14 1_555 1_555
C10 C18 1_555 1_555
C12 C13 1_555 1_555
C15 C19 1_555 1_555
C17 C20 1_555 1_555
C1D C2D 1_555 1_555
C6D C14D 1_555 1_555
C10D C18D 1_555 1_555
C12D C13D 1_555 1_555
C15D C19D 1_555 1_555
C17D C20D 1_555 1_555

#END
