
#######################################################################
#
#                 Cambridge Crystallographic Data Centre
#                                CCDC 
#
#######################################################################
#
# If this CIF has been generated from an entry in the Cambridge 
# Structural Database, then it will include bibliographic, chemical, 
# crystal, experimental, refinement or atomic coordinate data resulting 
# from the CCDC's data processing and validation procedures.
#
#######################################################################

data_AGIZOI
_chemical_formula_moiety         'C22 H14 F1 N1'
_chemical_name_systematic        4-fluoro-6-phenyl-11H-benzo[a]carbazole
_symmetry_cell_setting           monoclinic
_symmetry_space_group_name_H-M   'C 2/c'
_symmetry_Int_Tables_number      15
_space_group_name_Hall           '-C 2yn'
loop_
_symmetry_equiv_pos_site_id
_symmetry_equiv_pos_as_xyz
1 x,y,z
2 -x,y,1/2-z
3 1/2+x,1/2+y,z
4 1/2-x,1/2+y,1/2-z
5 -x,-y,-z
6 x,-y,1/2+z
7 1/2-x,1/2-y,-z
8 1/2+x,1/2-y,1/2+z
_cell_length_a                   29.6595(15)
_cell_length_b                   10.6323(5)
_cell_length_c                   9.8499(5)
_cell_angle_alpha                90
_cell_angle_beta                 99.329(5)
_cell_angle_gamma                90
_cell_volume                     3065.07
_exptl_crystal_colour            'light yellow'
_exptl_crystal_description       block
_cell_formula_units_Z            8
loop_
_atom_site_label
_atom_site_type_symbol
_atom_site_fract_x
_atom_site_fract_y
_atom_site_fract_z
F1 F 0.78997(5) 0.24185(16) 0.15376(16)
N1 N 0.66514(7) 0.06989(16) 0.54639(18)
H1 H 0.6808 0.0286 0.6129
C1 C 0.61929(8) 0.09816(18) 0.5345(2)
C2 C 0.58871(10) 0.0679(2) 0.6236(3)
H2 H 0.5982 0.0242 0.7050
C3 C 0.54419(10) 0.1051(2) 0.5863(3)
H3 H 0.5232 0.0854 0.6435
C4 C 0.52953(8) 0.1713(2) 0.4658(3)
H4 H 0.4991 0.1957 0.4441
C5 C 0.55990(7) 0.2013(2) 0.3777(2)
H5 H 0.5499 0.2451 0.2966
C6 C 0.60557(7) 0.16515(17) 0.4116(2)
C7 C 0.64642(7) 0.17888(16) 0.34777(19)
C8 C 0.65541(7) 0.23514(17) 0.22457(19)
C9 C 0.69941(7) 0.23253(19) 0.1971(2)
H6 H 0.7057 0.2694 0.1166
C10 C 0.73552(7) 0.17528(18) 0.2882(2)
C11 C 0.72734(7) 0.11388(17) 0.4092(2)
C12 C 0.68169(7) 0.11825(17) 0.4351(2)
C13 C 0.76415(8) 0.0561(2) 0.4964(3)
H7 H 0.7588 0.0144 0.5752
C14 C 0.80738(9) 0.0608(2) 0.4663(3)
H8 H 0.8311 0.0214 0.5242
C15 C 0.81631(8) 0.1238(2) 0.3499(3)
H9 H 0.8459 0.1280 0.3302
C16 C 0.78162(7) 0.1786(2) 0.2662(2)
C17 C 0.61910(6) 0.29886(18) 0.12568(19)
C18 C 0.59691(7) 0.4049(2) 0.1636(2)
H10 H 0.6031 0.4331 0.2541
C19 C 0.56590(7) 0.4691(2) 0.0695(2)
H11 H 0.5518 0.5410 0.0964
C20 C 0.55578(7) 0.4276(2) -0.0635(2)
H12 H 0.5346 0.4708 -0.1266
C21 C 0.57697(8) 0.3219(2) -0.1036(2)
H13 H 0.5699 0.2933 -0.1938
C22 C 0.60885(8) 0.2579(2) -0.0096(2)
H14 H 0.6234 0.1872 -0.0375
loop_
_geom_bond_atom_site_label_1
_geom_bond_atom_site_label_2
_geom_bond_site_symmetry_1
_geom_bond_site_symmetry_2
F1 C16 1_555 1_555
N1 H1 1_555 1_555
C1 N1 1_555 1_555
C2 C1 1_555 1_555
H2 C2 1_555 1_555
C3 C2 1_555 1_555
H3 C3 1_555 1_555
C4 C3 1_555 1_555
H4 C4 1_555 1_555
C5 C4 1_555 1_555
H5 C5 1_555 1_555
C6 C1 1_555 1_555
C7 C6 1_555 1_555
C8 C7 1_555 1_555
C9 C8 1_555 1_555
H6 C9 1_555 1_555
C10 C9 1_555 1_555
C11 C10 1_555 1_555
C12 N1 1_555 1_555
C13 C11 1_555 1_555
H7 C13 1_555 1_555
C14 C13 1_555 1_555
H8 C14 1_555 1_555
C15 C14 1_555 1_555
H9 C15 1_555 1_555
C16 C10 1_555 1_555
C17 C8 1_555 1_555
C18 C17 1_555 1_555
H10 C18 1_555 1_555
C19 C18 1_555 1_555
H11 C19 1_555 1_555
C20 C19 1_555 1_555
H12 C20 1_555 1_555
C21 C20 1_555 1_555
H13 C21 1_555 1_555
C22 C17 1_555 1_555
H14 C22 1_555 1_555
C5 C6 1_555 1_555
C7 C12 1_555 1_555
C11 C12 1_555 1_555
C15 C16 1_555 1_555
C21 C22 1_555 1_555

#END
