
#######################################################################
#
#                 Cambridge Crystallographic Data Centre
#                                CCDC 
#
#######################################################################
#
# If this CIF has been generated from an entry in the Cambridge 
# Structural Database, then it will include bibliographic, chemical, 
# crystal, experimental, refinement or atomic coordinate data resulting 
# from the CCDC's data processing and validation procedures.
#
#######################################################################

data_AGODAD
_chemical_formula_moiety         'C16 H13 N3'
_chemical_name_systematic        1-Phenyl-4-(2-phenylvinyl)-1H-1,2,3-triazole
_symmetry_cell_setting           orthorhombic
_symmetry_space_group_name_H-M   'P n a 21'
_symmetry_Int_Tables_number      33
_space_group_name_Hall           'P 2c -2n'
loop_
_symmetry_equiv_pos_site_id
_symmetry_equiv_pos_as_xyz
1 x,y,z
2 -x,-y,1/2+z
3 1/2+x,1/2-y,z
4 1/2-x,1/2+y,1/2+z
_cell_length_a                   11.8598(10)
_cell_length_b                   5.6497(4)
_cell_length_c                   18.4376(15)
_cell_angle_alpha                90
_cell_angle_beta                 90
_cell_angle_gamma                90
_cell_volume                     1235.4
_exptl_crystal_colour            colorless
_exptl_crystal_description       BLOCK
_cell_formula_units_Z            4
loop_
_atom_site_label
_atom_site_type_symbol
_atom_site_fract_x
_atom_site_fract_y
_atom_site_fract_z
N1 N 0.78408(15) 0.4046(3) 0.61875(10)
N2 N 0.74343(15) 0.6288(3) 0.61825(11)
N3 N 0.65346(16) 0.6331(3) 0.65856(11)
C1 C 0.88197(15) 0.3485(3) 0.57726(11)
C2 C 0.96831(16) 0.5138(3) 0.57204(12)
H1 H 0.9636 0.6594 0.5976
C3 C 1.06088(16) 0.4644(3) 0.52938(13)
H2 H 1.1200 0.5770 0.5255
C4 C 1.06854(17) 0.2510(4) 0.49189(12)
H3 H 1.1319 0.2186 0.4620
C5 C 0.98284(19) 0.0874(4) 0.49872(13)
H4 H 0.9883 -0.0590 0.4736
C6 C 0.88899(17) 0.1319(3) 0.54130(13)
H5 H 0.8308 0.0174 0.5459
C7 C 0.71730(17) 0.2645(3) 0.65958(12)
H6 H 0.7260 0.0998 0.6685
C8 C 0.63426(16) 0.4104(3) 0.68550(12)
C9 C 0.54036(18) 0.3566(3) 0.73399(12)
H7 H 0.5324 0.1996 0.7517
C10 C 0.46529(17) 0.5197(3) 0.75449(12)
H8 H 0.4757 0.6745 0.7355
C11 C 0.36924(17) 0.4868(3) 0.80277(11)
C12 C 0.35345(18) 0.2835(4) 0.84526(12)
H9 H 0.4082 0.1608 0.8441
C13 C 0.25919(19) 0.2596(4) 0.88874(13)
H10 H 0.2495 0.1205 0.9170
C14 C 0.17819(18) 0.4386(4) 0.89131(13)
H11 H 0.1135 0.4218 0.9213
C15 C 0.19268(18) 0.6411(4) 0.84991(13)
H12 H 0.1380 0.7638 0.8514
C16 C 0.28697(18) 0.6640(4) 0.80645(12)
H13 H 0.2962 0.8035 0.7783
loop_
_geom_bond_atom_site_label_1
_geom_bond_atom_site_label_2
_geom_bond_site_symmetry_1
_geom_bond_site_symmetry_2
N1 N2 1_555 1_555
N2 N3 1_555 1_555
N3 C8 1_555 1_555
C1 N1 1_555 1_555
C2 C1 1_555 1_555
H1 C2 1_555 1_555
C3 C2 1_555 1_555
H2 C3 1_555 1_555
C4 C3 1_555 1_555
H3 C4 1_555 1_555
C5 C4 1_555 1_555
H4 C5 1_555 1_555
C6 C1 1_555 1_555
H5 C6 1_555 1_555
C7 N1 1_555 1_555
H6 C7 1_555 1_555
C8 C7 1_555 1_555
C9 C8 1_555 1_555
H7 C9 1_555 1_555
C10 C9 1_555 1_555
H8 C10 1_555 1_555
C11 C10 1_555 1_555
C12 C11 1_555 1_555
H9 C12 1_555 1_555
C13 C12 1_555 1_555
H10 C13 1_555 1_555
C14 C13 1_555 1_555
H11 C14 1_555 1_555
C15 C14 1_555 1_555
H12 C15 1_555 1_555
C16 C11 1_555 1_555
H13 C16 1_555 1_555
C5 C6 1_555 1_555
C15 C16 1_555 1_555

#END
