
#######################################################################
#
#                 Cambridge Crystallographic Data Centre
#                                CCDC 
#
#######################################################################
#
# If this CIF has been generated from an entry in the Cambridge 
# Structural Database, then it will include bibliographic, chemical, 
# crystal, experimental, refinement or atomic coordinate data resulting 
# from the CCDC's data processing and validation procedures.
#
#######################################################################

data_AGOVAW
_chemical_formula_moiety         'C78 H66 B2 F20 N2'
_chemical_name_systematic        
'2,5-bis((isoquinolin-2-ium-2-yl)bis(pentafluorophenyl)boranidyl)-1,4-bis(3,5-di-t-butylphenyl)octahydropentalene unknown solvate'
_symmetry_cell_setting           triclinic
_symmetry_space_group_name_H-M   'P -1'
_symmetry_Int_Tables_number      2
_space_group_name_Hall           '-P 1'
loop_
_symmetry_equiv_pos_site_id
_symmetry_equiv_pos_as_xyz
1 x,y,z
2 -x,-y,-z
_cell_length_a                   14.8511(9)
_cell_length_b                   15.7674(10)
_cell_length_c                   17.5829(11)
_cell_angle_alpha                74.081(6)
_cell_angle_beta                 82.307(5)
_cell_angle_gamma                83.693(5)
_cell_volume                     3912.16
_exptl_crystal_colour            colorless
_exptl_crystal_description       prism
_cell_formula_units_Z            2
loop_
_atom_site_label
_atom_site_type_symbol
_atom_site_fract_x
_atom_site_fract_y
_atom_site_fract_z
F1 F 0.25549(15) 0.35397(13) 0.26383(12)
F2 F 0.24528(16) 0.21430(13) 0.38616(13)
F3 F 0.12685(18) 0.21610(14) 0.51772(13)
F4 F 0.01453(18) 0.36362(15) 0.52026(14)
F5 F 0.02474(15) 0.50648(14) 0.39970(13)
F6 F 0.18362(15) 0.59674(13) 0.07046(11)
F7 F 0.34365(17) 0.60744(15) -0.01692(13)
F8 F 0.50159(17) 0.55780(17) 0.05290(14)
F9 F 0.49321(15) 0.49711(16) 0.21385(14)
F10 F 0.33451(14) 0.48507(13) 0.30243(12)
F11 F 0.04011(14) 0.88845(13) 0.44720(12)
F12 F -0.10754(15) 0.99687(14) 0.44467(13)
F13 F -0.10371(16) 1.16976(15) 0.35964(15)
F14 F 0.05442(16) 1.22928(14) 0.27394(14)
F15 F 0.20291(14) 1.12229(12) 0.27162(12)
F16 F 0.18198(16) 1.00298(14) 0.18929(12)
F17 F 0.30049(19) 1.03716(16) 0.06051(13)
F18 F 0.4828(2) 1.00696(17) 0.07210(15)
F19 F 0.54285(16) 0.94221(16) 0.21759(15)
F20 F 0.42798(14) 0.90816(13) 0.34723(12)
N1 N 0.0728(2) 0.51826(18) 0.19738(16)
N2 N 0.27071(19) 0.93869(18) 0.43137(17)
C1 C 0.1270(2) 0.6256(2) 0.2763(2)
H1 H 0.061420 0.627911 0.298514
C2 C 0.1853(2) 0.6287(2) 0.3432(2)
H2 H 0.145500 0.642584 0.388785
H3 H 0.219818 0.570987 0.362301
C3 C 0.2509(2) 0.7016(2) 0.3059(2)
H4 H 0.305091 0.678596 0.275098
C4 C 0.2808(2) 0.7547(2) 0.3582(2)
H5 H 0.332240 0.788770 0.326053
C5 C 0.1997(2) 0.8243(2) 0.3675(2)
H6 H 0.166972 0.803063 0.421990
C6 C 0.1353(2) 0.8183(2) 0.30672(19)
H7 H 0.082391 0.784823 0.334374
H8 H 0.112623 0.878173 0.277444
C7 C 0.1918(2) 0.7704(2) 0.2494(2)
H9 H 0.230814 0.812095 0.208393
C8 C 0.1429(2) 0.7146(2) 0.21025(19)
H10 H 0.188014 0.699219 0.167579
C9 C 0.0608(2) 0.7635(2) 0.1697(2)
C10 C 0.0635(2) 0.7823(2) 0.0873(2)
H11 H 0.116996 0.764879 0.057319
C11 C -0.0107(3) 0.8263(2) 0.0477(2)
C12 C -0.0866(3) 0.8540(2) 0.0924(2)
H12 H -0.136673 0.885530 0.065846
C13 C -0.0919(3) 0.8373(2) 0.1749(2)
C14 C -0.0178(2) 0.7889(2) 0.2125(2)
H13 H -0.021632 0.773027 0.268903
C15 C -0.0106(3) 0.8451(3) -0.0430(2)
C16 C 0.0758(3) 0.8062(3) -0.0818(2)
H14 H 0.128913 0.830660 -0.070564
H15 H 0.073600 0.821062 -0.139493
H16 H 0.080667 0.741743 -0.060514
C17 C -0.0932(3) 0.8062(3) -0.0620(2)
H17 H -0.088270 0.741773 -0.040581
H18 H -0.094263 0.820922 -0.119808
H19 H -0.149485 0.831188 -0.037783
C18 C -0.0173(3) 0.9453(2) -0.0807(2)
H20 H -0.073287 0.972183 -0.057730
H21 H -0.018522 0.956975 -0.138303
H22 H 0.035544 0.970860 -0.070311
C19 C -0.1737(3) 0.8701(3) 0.2246(2)
C20 C -0.2239(3) 0.7925(3) 0.2749(3)
H23 H -0.249567 0.764201 0.240380
H24 H -0.273268 0.813032 0.310077
H25 H -0.181668 0.749735 0.307021
C21 C -0.2389(3) 0.9357(3) 0.1739(3)
H26 H -0.204955 0.983060 0.137133
H27 H -0.285164 0.961111 0.208375
H28 H -0.268670 0.905317 0.143550
C22 C -0.1410(3) 0.9202(3) 0.2787(3)
H29 H -0.099587 0.880571 0.314031
H30 H -0.193733 0.940849 0.310686
H31 H -0.109060 0.971153 0.245766
C23 C 0.3168(2) 0.7004(2) 0.43565(19)
C24 C 0.2621(2) 0.6531(2) 0.4991(2)
H32 H 0.199349 0.652340 0.493985
C25 C 0.2951(3) 0.6063(2) 0.5706(2)
C26 C 0.3868(3) 0.6099(2) 0.5769(2)
H33 H 0.410594 0.578688 0.625288
C27 C 0.4451(2) 0.6576(2) 0.5149(2)
C28 C 0.4083(2) 0.7014(2) 0.4447(2)
H34 H 0.447003 0.733181 0.401183
C29 C 0.2310(3) 0.5529(3) 0.6382(2)
C30 C 0.2036(4) 0.4739(3) 0.6133(3)
H35 H 0.177999 0.495329 0.562232
H36 H 0.157826 0.442988 0.653837
H37 H 0.257372 0.433210 0.607864
C31 C 0.1459(3) 0.6082(3) 0.6560(3)
H38 H 0.162342 0.660544 0.669253
H39 H 0.107880 0.573295 0.701173
H40 H 0.112077 0.626680 0.609290
C32 C 0.2782(4) 0.5159(5) 0.7133(3)
H41 H 0.334532 0.481100 0.701351
H42 H 0.237729 0.477937 0.754029
H43 H 0.292685 0.564700 0.732926
C33 C 0.5453(2) 0.6591(2) 0.5255(2)
C34 C 0.5906(3) 0.5650(3) 0.5374(2)
H44 H 0.560519 0.526005 0.585220
H45 H 0.655217 0.565147 0.543645
H46 H 0.585194 0.543529 0.491050
C35 C 0.5972(3) 0.7198(3) 0.4536(2)
H47 H 0.595396 0.698920 0.406273
H48 H 0.660678 0.718993 0.463620
H49 H 0.568717 0.780236 0.445041
C36 C 0.5516(3) 0.6929(3) 0.5986(2)
H50 H 0.521274 0.752539 0.590941
H51 H 0.615839 0.694428 0.605326
H52 H 0.521852 0.653172 0.646095
C37 C 0.1448(2) 0.4424(2) 0.3253(2)
C38 C 0.1959(3) 0.3634(2) 0.3278(2)
C39 C 0.1914(3) 0.2885(2) 0.3901(2)
C40 C 0.1317(3) 0.2879(2) 0.4561(2)
C41 C 0.0770(3) 0.3629(3) 0.4573(2)
C42 C 0.0844(3) 0.4371(2) 0.3932(2)
C43 C 0.0826(3) 0.4431(2) 0.1692(2)
H53 H 0.135217 0.403286 0.178451
C44 C 0.0185(3) 0.4259(3) 0.1289(2)
H54 H 0.026158 0.373023 0.112000
C45 C -0.0596(3) 0.4843(2) 0.1113(2)
C46 C -0.1281(3) 0.4708(3) 0.0694(2)
H55 H -0.124462 0.418403 0.052008
C47 C -0.1996(3) 0.5319(3) 0.0533(2)
H56 H -0.245822 0.521784 0.025083
C48 C -0.2057(3) 0.6097(3) 0.0780(2)
H57 H -0.255250 0.652682 0.065098
C49 C -0.1417(3) 0.6244(2) 0.1202(2)
H58 H -0.147080 0.676815 0.137661
C50 C -0.0680(3) 0.5621(2) 0.1378(2)
C51 C -0.0007(2) 0.5740(2) 0.18229(19)
H59 H -0.008112 0.624465 0.202716
C52 C 0.2482(3) 0.5371(2) 0.1924(2)
C53 C 0.2588(3) 0.5683(2) 0.1100(2)
C54 C 0.3409(3) 0.5753(3) 0.0632(2)
C55 C 0.4205(3) 0.5516(3) 0.0974(2)
C56 C 0.4154(3) 0.5214(3) 0.1784(2)
C57 C 0.3320(3) 0.5150(2) 0.2231(2)
C58 C 0.1308(2) 0.9963(2) 0.3562(2)
C59 C 0.0483(3) 0.9713(2) 0.4000(2)
C60 C -0.0305(3) 1.0270(3) 0.4013(2)
C61 C -0.0286(3) 1.1141(3) 0.3586(2)
C62 C 0.0504(3) 1.1436(3) 0.3161(2)
C63 C 0.1273(3) 1.0857(2) 0.3155(2)
C64 C 0.2970(3) 0.9552(2) 0.2771(2)
C65 C 0.2716(3) 0.9874(2) 0.2004(2)
C66 C 0.3318(3) 1.0055(3) 0.1322(2)
C67 C 0.4226(4) 0.9912(3) 0.1381(3)
C68 C 0.4521(3) 0.9587(3) 0.2108(3)
C69 C 0.3904(3) 0.9420(2) 0.2777(2)
C70 C 0.2753(2) 0.8762(2) 0.4993(2)
H60 H 0.250393 0.821510 0.505036
C71 C 0.3163(2) 0.8882(2) 0.5638(2)
C72 C 0.3204(3) 0.8209(3) 0.6338(2)
H61 H 0.296108 0.766119 0.638787
C73 C 0.3598(3) 0.8340(3) 0.6959(3)
H62 H 0.363082 0.788360 0.743890
C74 C 0.3947(3) 0.9149(3) 0.6875(3)
H63 H 0.421363 0.923406 0.730826
C75 C 0.3922(3) 0.9820(3) 0.6203(2)
H64 H 0.417458 1.035987 0.616371
C76 C 0.3509(3) 0.9701(2) 0.5554(2)
C77 C 0.3441(3) 1.0348(3) 0.4832(2)
H65 H 0.367369 1.090634 0.475772
C78 C 0.3050(3) 1.0187(2) 0.4242(2)
H66 H 0.300863 1.063974 0.376114
B1 B 0.1503(3) 0.5332(3) 0.2496(2)
B2 B 0.2229(3) 0.9268(3) 0.3566(2)
loop_
_geom_bond_atom_site_label_1
_geom_bond_atom_site_label_2
_geom_bond_site_symmetry_1
_geom_bond_site_symmetry_2
F1 C38 1_555 1_555
F2 C39 1_555 1_555
F3 C40 1_555 1_555
F4 C41 1_555 1_555
F5 C42 1_555 1_555
F6 C53 1_555 1_555
F7 C54 1_555 1_555
F8 C55 1_555 1_555
F9 C56 1_555 1_555
F10 C57 1_555 1_555
F11 C59 1_555 1_555
F12 C60 1_555 1_555
F13 C61 1_555 1_555
F14 C62 1_555 1_555
F15 C63 1_555 1_555
F16 C65 1_555 1_555
F17 C66 1_555 1_555
F18 C67 1_555 1_555
F19 C68 1_555 1_555
F20 C69 1_555 1_555
N1 C43 1_555 1_555
N2 C70 1_555 1_555
C1 H1 1_555 1_555
C2 C1 1_555 1_555
H2 C2 1_555 1_555
H3 C2 1_555 1_555
C3 C2 1_555 1_555
H4 C3 1_555 1_555
C4 C3 1_555 1_555
H5 C4 1_555 1_555
C5 C4 1_555 1_555
H6 C5 1_555 1_555
C6 C5 1_555 1_555
H7 C6 1_555 1_555
H8 C6 1_555 1_555
C7 C3 1_555 1_555
H9 C7 1_555 1_555
C8 C1 1_555 1_555
H10 C8 1_555 1_555
C9 C8 1_555 1_555
C10 C9 1_555 1_555
H11 C10 1_555 1_555
C11 C10 1_555 1_555
C12 C11 1_555 1_555
H12 C12 1_555 1_555
C13 C12 1_555 1_555
C14 C9 1_555 1_555
H13 C14 1_555 1_555
C15 C11 1_555 1_555
C16 C15 1_555 1_555
H14 C16 1_555 1_555
H15 C16 1_555 1_555
H16 C16 1_555 1_555
C17 C15 1_555 1_555
H17 C17 1_555 1_555
H18 C17 1_555 1_555
H19 C17 1_555 1_555
C18 C15 1_555 1_555
H20 C18 1_555 1_555
H21 C18 1_555 1_555
H22 C18 1_555 1_555
C19 C13 1_555 1_555
C20 C19 1_555 1_555
H23 C20 1_555 1_555
H24 C20 1_555 1_555
H25 C20 1_555 1_555
C21 C19 1_555 1_555
H26 C21 1_555 1_555
H27 C21 1_555 1_555
H28 C21 1_555 1_555
C22 C19 1_555 1_555
H29 C22 1_555 1_555
H30 C22 1_555 1_555
H31 C22 1_555 1_555
C23 C4 1_555 1_555
C24 C23 1_555 1_555
H32 C24 1_555 1_555
C25 C24 1_555 1_555
C26 C25 1_555 1_555
H33 C26 1_555 1_555
C27 C26 1_555 1_555
C28 C23 1_555 1_555
H34 C28 1_555 1_555
C29 C25 1_555 1_555
C30 C29 1_555 1_555
H35 C30 1_555 1_555
H36 C30 1_555 1_555
H37 C30 1_555 1_555
C31 C29 1_555 1_555
H38 C31 1_555 1_555
H39 C31 1_555 1_555
H40 C31 1_555 1_555
C32 C29 1_555 1_555
H41 C32 1_555 1_555
H42 C32 1_555 1_555
H43 C32 1_555 1_555
C33 C27 1_555 1_555
C34 C33 1_555 1_555
H44 C34 1_555 1_555
H45 C34 1_555 1_555
H46 C34 1_555 1_555
C35 C33 1_555 1_555
H47 C35 1_555 1_555
H48 C35 1_555 1_555
H49 C35 1_555 1_555
C36 C33 1_555 1_555
H50 C36 1_555 1_555
H51 C36 1_555 1_555
H52 C36 1_555 1_555
C37 C38 1_555 1_555
C38 C39 1_555 1_555
C39 C40 1_555 1_555
C40 C41 1_555 1_555
C41 C42 1_555 1_555
C42 C37 1_555 1_555
C43 H53 1_555 1_555
C44 C43 1_555 1_555
H54 C44 1_555 1_555
C45 C44 1_555 1_555
C46 C45 1_555 1_555
H55 C46 1_555 1_555
C47 C46 1_555 1_555
H56 C47 1_555 1_555
C48 C47 1_555 1_555
H57 C48 1_555 1_555
C49 C48 1_555 1_555
H58 C49 1_555 1_555
C50 C45 1_555 1_555
C51 N1 1_555 1_555
H59 C51 1_555 1_555
C52 C53 1_555 1_555
C53 C54 1_555 1_555
C54 C55 1_555 1_555
C55 C56 1_555 1_555
C56 C57 1_555 1_555
C57 C52 1_555 1_555
C58 C59 1_555 1_555
C59 C60 1_555 1_555
C60 C61 1_555 1_555
C61 C62 1_555 1_555
C62 C63 1_555 1_555
C63 C58 1_555 1_555
C64 C65 1_555 1_555
C65 C66 1_555 1_555
C66 C67 1_555 1_555
C67 C68 1_555 1_555
C68 C69 1_555 1_555
C69 C64 1_555 1_555
C70 H60 1_555 1_555
C71 C70 1_555 1_555
C72 C71 1_555 1_555
H61 C72 1_555 1_555
C73 C72 1_555 1_555
H62 C73 1_555 1_555
C74 C73 1_555 1_555
H63 C74 1_555 1_555
C75 C74 1_555 1_555
H64 C75 1_555 1_555
C76 C71 1_555 1_555
C77 C76 1_555 1_555
H65 C77 1_555 1_555
C78 N2 1_555 1_555
H66 C78 1_555 1_555
B1 N1 1_555 1_555
B2 N2 1_555 1_555
C1 B1 1_555 1_555
C5 B2 1_555 1_555
C6 C7 1_555 1_555
C7 C8 1_555 1_555
C13 C14 1_555 1_555
C27 C28 1_555 1_555
C37 B1 1_555 1_555
C49 C50 1_555 1_555
C50 C51 1_555 1_555
C52 B1 1_555 1_555
C58 B2 1_555 1_555
C64 B2 1_555 1_555
C75 C76 1_555 1_555
C77 C78 1_555 1_555

#END
