
#######################################################################
#
#                 Cambridge Crystallographic Data Centre
#                                CCDC 
#
#######################################################################
#
# If this CIF has been generated from an entry in the Cambridge 
# Structural Database, then it will include bibliographic, chemical, 
# crystal, experimental, refinement or atomic coordinate data resulting 
# from the CCDC's data processing and validation procedures.
#
#######################################################################

data_AGURID
_chemical_formula_moiety         'C35 H31 N11'
_chemical_name_systematic        
8-Cyano-2-(5-cyano-2-(diethylamino)-2H-indazol-3-yl)-4-(5-cyano-2-(3,3-diethyltriaz-1-en-1-yl)phenyl)pyrimido(1,2-a)indole
_symmetry_cell_setting           monoclinic
_symmetry_space_group_name_H-M   'C 2/c'
_symmetry_Int_Tables_number      15
_space_group_name_Hall           '-C 2yn'
loop_
_symmetry_equiv_pos_site_id
_symmetry_equiv_pos_as_xyz
1 x,y,z
2 1/2+x,1/2+y,z
3 x,-y,1/2+z
4 1/2+x,1/2-y,1/2+z
5 -x,-y,-z
6 1/2-x,1/2-y,-z
7 -x,y,1/2-z
8 1/2-x,1/2+y,1/2-z
_cell_length_a                   33.922(2)
_cell_length_b                   10.165(1)
_cell_length_c                   19.071(2)
_cell_angle_alpha                90
_cell_angle_beta                 90.268(8)
_cell_angle_gamma                90
_cell_volume                     6575.94
_exptl_crystal_colour            red
_exptl_crystal_description       tablet
_chemical_melting_point          '270.6-271.9 deg.C'
_cell_formula_units_Z            8
_exptl_crystal_recrystallization_method ethanol
loop_
_atom_site_label
_atom_site_type_symbol
_atom_site_fract_x
_atom_site_fract_y
_atom_site_fract_z
N1 N 0.76665(5) 1.0760(2) 0.36092(8)
N2 N 0.79391(5) 0.9812(2) 0.37239(8)
N3 N 0.81993(5) 0.9465(2) 0.31789(8)
N4 N 0.68632(6) 1.0769(2) 0.6787(1)
N5 N 0.86133(4) 0.6222(1) 0.52240(8)
N6 N 0.80975(4) 0.7853(2) 0.52922(8)
N7 N 0.91127(6) 0.1762(2) 0.7653(1)
N8 N 0.94019(5) 0.7420(2) 0.51590(9)
N9 N 0.97259(5) 0.7814(2) 0.5430(1)
N10 N 0.96732(6) 0.8613(2) 0.5962(1)
N11 N 0.94790(7) 0.3407(3) 0.2347(1)
C1 C 0.69946(6) 1.0746(2) 0.6239(1)
C2 C 0.71589(5) 1.0735(2) 0.5545(1)
C3 C 0.70062(5) 1.1619(2) 0.5035(1)
C4 C 0.71561(6) 1.1680(2) 0.4383(1)
C5 C 0.74727(5) 1.0831(2) 0.4223(1)
C6 C 0.76257(5) 0.9930(2) 0.4724(1)
C7 C 0.74630(5) 0.9887(2) 0.5398(1)
C8 C 0.79317(5) 0.9260(2) 0.4375(1)
C9 C 0.81830(5) 0.8208(2) 0.4645(1)
C10 C 0.83100(5) 0.6877(2) 0.5595(1)
C11 C 0.82816(5) 0.6348(2) 0.6250(1)
C12 C 0.85623(5) 0.5328(2) 0.6302(1)
C13 C 0.87704(5) 0.5256(2) 0.56586(9)
C14 C 0.90571(5) 0.4309(2) 0.5542(1)
C15 C 0.91390(6) 0.3440(2) 0.6073(1)
C16 C 0.89364(6) 0.3495(2) 0.6713(1)
C17 C 0.86508(6) 0.4421(2) 0.6829(1)
C18 C 0.90332(6) 0.2539(2) 0.7242(1)
C19 C 0.85074(5) 0.7636(2) 0.42720(9)
C20 C 0.87259(5) 0.6682(2) 0.45722(9)
C21 C 0.90996(5) 0.6173(2) 0.42695(9)
C22 C 0.91051(5) 0.5353(2) 0.3697(1)
C23 C 0.94633(6) 0.4900(2) 0.3439(1)
C24 C 0.98139(6) 0.5269(2) 0.3762(1)
C25 C 0.98083(6) 0.6093(2) 0.4327(1)
C26 C 0.94537(5) 0.6569(2) 0.4588(1)
C27 C 0.79665(8) 0.8881(3) 0.2594(1)
C28 C 0.77650(8) 0.7638(3) 0.2806(1)
C29 C 0.84239(8) 1.0642(3) 0.2972(1)
C30 C 0.86915(8) 1.1117(3) 0.3537(2)
C31 C 1.00343(9) 0.9020(3) 0.6335(2)
C32 C 1.0097(1) 1.0382(4) 0.6292(2)
C33 C 0.92764(8) 0.8919(3) 0.6238(1)
C34 C 0.9042(1) 0.9829(3) 0.5800(2)
C35 C 0.94703(6) 0.4064(3) 0.2830(1)
H1 H 0.6800 1.2148 0.5167
H2 H 0.7054 1.2291 0.4024
H3 H 0.7552 0.9313 0.5746
H4 H 0.8092 0.6602 0.6579
H5 H 0.9190 0.4266 0.5085
H6 H 0.9333 0.2817 0.6015
H7 H 0.8504 0.4424 0.7272
H8 H 0.8578 0.7984 0.3812
H9 H 0.8858 0.5068 0.3477
H10 H 1.0047 0.4868 0.3604
H11 H 1.0035 0.6383 0.4563
H12 H 0.8168 0.8719 0.2231
H13 H 0.7788 0.9472 0.2421
H14 H 0.7552 0.7753 0.3184
H15 H 0.7640 0.7224 0.2386
H16 H 0.7991 0.7015 0.2967
H17 H 0.8567 1.0354 0.2545
H18 H 0.8252 1.1344 0.2779
H19 H 0.8535 1.1409 0.3962
H20 H 0.8828 1.1882 0.3413
H21 H 0.8850 1.0463 0.3720
H22 H 0.9357 0.9298 0.6745
H23 H 0.9144 0.7984 0.6286
H24 H 0.9262 1.0515 0.5513
H25 H 0.8973 0.9455 0.5267
H26 H 0.8784 1.0201 0.6028
H27 H 1.0011 0.8782 0.6815
H28 H 1.0255 0.8583 0.6137
H29 H 1.0330 1.0631 0.6537
H30 H 1.0120 1.0620 0.5812
H31 H 0.9877 1.0819 0.6490
loop_
_geom_bond_atom_site_label_1
_geom_bond_atom_site_label_2
_geom_bond_site_symmetry_1
_geom_bond_site_symmetry_2
N1 N2 1_555 1_555
N2 N3 1_555 1_555
N3 C27 1_555 1_555
N4 C1 1_555 1_555
N5 C10 1_555 1_555
N6 C9 1_555 1_555
N7 C18 1_555 1_555
N8 N9 1_555 1_555
N9 N10 1_555 1_555
N10 C31 1_555 1_555
N11 C35 1_555 1_555
C1 C2 1_555 1_555
C2 C3 1_555 1_555
C3 C4 1_555 1_555
C4 C5 1_555 1_555
C5 N1 1_555 1_555
C6 C5 1_555 1_555
C7 C2 1_555 1_555
C8 N2 1_555 1_555
C9 C8 1_555 1_555
C10 N6 1_555 1_555
C11 C10 1_555 1_555
C12 C11 1_555 1_555
C13 N5 1_555 1_555
C14 C13 1_555 1_555
C15 C14 1_555 1_555
C16 C15 1_555 1_555
C17 C12 1_555 1_555
C18 C16 1_555 1_555
C19 C9 1_555 1_555
C20 N5 1_555 1_555
C21 C20 1_555 1_555
C22 C21 1_555 1_555
C23 C22 1_555 1_555
C24 C23 1_555 1_555
C25 C24 1_555 1_555
C26 N8 1_555 1_555
C27 C28 1_555 1_555
C28 H14 1_555 1_555
C29 N3 1_555 1_555
C30 C29 1_555 1_555
C31 C32 1_555 1_555
C32 H29 1_555 1_555
C33 N10 1_555 1_555
C34 C33 1_555 1_555
C35 C23 1_555 1_555
H1 C3 1_555 1_555
H2 C4 1_555 1_555
H3 C7 1_555 1_555
H4 C11 1_555 1_555
H5 C14 1_555 1_555
H6 C15 1_555 1_555
H7 C17 1_555 1_555
H8 C19 1_555 1_555
H9 C22 1_555 1_555
H10 C24 1_555 1_555
H11 C25 1_555 1_555
H12 C27 1_555 1_555
H13 C27 1_555 1_555
H15 C28 1_555 1_555
H16 C28 1_555 1_555
H17 C29 1_555 1_555
H18 C29 1_555 1_555
H19 C30 1_555 1_555
H20 C30 1_555 1_555
H21 C30 1_555 1_555
H22 C33 1_555 1_555
H23 C33 1_555 1_555
H24 C34 1_555 1_555
H25 C34 1_555 1_555
H26 C34 1_555 1_555
H27 C31 1_555 1_555
H28 C31 1_555 1_555
H30 C32 1_555 1_555
H31 C32 1_555 1_555
C6 C8 1_555 1_555
C6 C7 1_555 1_555
C12 C13 1_555 1_555
C16 C17 1_555 1_555
C19 C20 1_555 1_555
C21 C26 1_555 1_555
C25 C26 1_555 1_555

#END
