
#######################################################################
#
#                 Cambridge Crystallographic Data Centre
#                                CCDC 
#
#######################################################################
#
# If this CIF has been generated from an entry in the Cambridge 
# Structural Database, then it will include bibliographic, chemical, 
# crystal, experimental, refinement or atomic coordinate data resulting 
# from the CCDC's data processing and validation procedures.
#
#######################################################################

data_AHAVUC
_chemical_formula_moiety         'C28 H18 B1 F9'
_chemical_name_systematic        
1,3-diphenyl-2-(2,4,6-tris(trifluoromethyl)phenyl)-2,4,5,6-tetrahydrocyclopenta[c]borole
_symmetry_cell_setting           triclinic
_symmetry_space_group_name_H-M   'P -1'
_symmetry_Int_Tables_number      2
_space_group_name_Hall           '-P 1'
loop_
_symmetry_equiv_pos_site_id
_symmetry_equiv_pos_as_xyz
1 x,y,z
2 -x,-y,-z
_cell_length_a                   9.7736(5)
_cell_length_b                   16.1049(8)
_cell_length_c                   16.4046(8)
_cell_angle_alpha                76.766(2)
_cell_angle_beta                 74.775(2)
_cell_angle_gamma                75.510(2)
_cell_volume                     2375.15
_exptl_crystal_colour            violet
_exptl_crystal_description       block
_cell_formula_units_Z            4
loop_
_atom_site_label
_atom_site_type_symbol
_atom_site_fract_x
_atom_site_fract_y
_atom_site_fract_z
B1 B 0.5041(2) 0.75459(13) 0.00004(12)
C1 C 0.60446(19) 0.82393(11) -0.01961(11)
C2 C 0.55558(19) 0.88424(11) -0.08324(11)
C3 C 0.43889(19) 0.86141(11) -0.11140(11)
C4 C 0.40292(18) 0.78529(11) -0.06753(11)
C5 C 0.50185(18) 0.67294(11) 0.07592(11)
C6 C 0.41431(19) 0.67729(11) 0.15823(11)
C7 C 0.4144(2) 0.60583(13) 0.22406(12)
H1 H 0.3533 0.6111 0.2790
C8 C 0.5039(3) 0.52677(13) 0.20944(13)
C9 C 0.5931(2) 0.51938(12) 0.12968(12)
H2 H 0.6556 0.4655 0.1195
C10 C 0.59055(19) 0.59149(11) 0.06468(11)
C11 C 0.3161(2) 0.76068(12) 0.17965(11)
C12 C 0.6882(2) 0.57851(11) -0.02023(12)
C13 C 0.72223(19) 0.82746(11) 0.01905(12)
C14 C 0.8269(2) 0.87670(13) -0.02692(13)
H3 H 0.8239 0.9048 -0.0842
C15 C 0.9342(2) 0.88520(14) 0.00948(14)
H4 H 1.0031 0.9194 -0.0227
C16 C 0.9414(2) 0.84416(13) 0.09224(15)
H5 H 1.0137 0.8511 0.1176
C17 C 0.8424(2) 0.79266(13) 0.13821(14)
H6 H 0.8483 0.7632 0.1948
C18 C 0.7344(2) 0.78397(11) 0.10174(12)
H7 H 0.6680 0.7479 0.1335
C19 C 0.5785(2) 0.97265(12) -0.13175(12)
H8 H 0.6630 0.9679 -0.1807
H9 H 0.5929 1.0081 -0.0939
C20 C 0.4363(2) 1.01202(12) -0.16308(13)
H10 H 0.3625 1.0418 -0.1192
H11 H 0.4532 1.0546 -0.2169
C21 C 0.3867(2) 0.93440(12) -0.17820(12)
H12 H 0.2800 0.9456 -0.1698
H13 H 0.4316 0.9216 -0.2367
C22 C 0.29080(19) 0.74730(11) -0.08146(11)
C23 C 0.2552(2) 0.76600(13) -0.16215(12)
H14 H 0.3083 0.8006 -0.2086
C24 C 0.1443(2) 0.73511(14) -0.17537(12)
H15 H 0.1216 0.7489 -0.2304
C25 C 0.0662(2) 0.68403(13) -0.10851(13)
H16 H -0.0111 0.6636 -0.1173
C26 C 0.1016(2) 0.66310(12) -0.02912(12)
H17 H 0.0492 0.6275 0.0166
C27 C 0.21309(19) 0.69371(11) -0.01578(11)
H18 H 0.2371 0.6780 0.0390
F1 F 0.30658(12) 0.82292(7) 0.11061(7)
F2 F 0.35868(17) 0.79265(9) 0.23437(10)
F3 F 0.18103(13) 0.75042(8) 0.21709(8)
C28 C 0.5049(4) 0.44968(18) 0.27960(18)
F4 F 0.6091(5) 0.4228(3) 0.3089(3)
F5 F 0.3788(3) 0.45497(15) 0.33881(15)
F6 F 0.4856(3) 0.37734(11) 0.24891(13)
F7 F 0.68180(13) 0.65239(7) -0.07876(7)
F8 F 0.82702(12) 0.55129(8) -0.01516(8)
F9 F 0.65677(14) 0.51940(8) -0.05362(8)
B2 B 0.0237(2) 0.21553(12) 0.50284(12)
C29 C 0.12625(18) 0.18706(11) 0.56947(11)
C30 C 0.07777(18) 0.11804(11) 0.62321(11)
C31 C -0.04084(18) 0.09428(11) 0.59804(11)
C32 C -0.07726(18) 0.14600(11) 0.52606(11)
C33 C 0.01777(17) 0.29987(11) 0.42994(11)
C34 C 0.09981(18) 0.29946(11) 0.34582(11)
C35 C 0.0937(2) 0.37293(12) 0.28189(11)
H19 H 0.1517 0.3700 0.2258
C36 C 0.0027(2) 0.45032(12) 0.30032(12)
C37 C -0.07981(19) 0.45436(11) 0.38245(11)
H20 H -0.1421 0.5074 0.3956
C38 C -0.07106(18) 0.38053(11) 0.44543(11)
C39 C 0.20050(19) 0.21808(11) 0.32064(11)
C40 C -0.0074(3) 0.52991(13) 0.23192(13)
C41 C -0.16037(19) 0.39201(11) 0.53299(11)
C42 C 0.24554(19) 0.22362(11) 0.57650(11)
C43 C 0.25859(19) 0.30973(12) 0.54059(12)
H21 H 0.1903 0.3458 0.5089
C44 C 0.3697(2) 0.34321(12) 0.55062(13)
H22 H 0.3765 0.4019 0.5261
C45 C 0.4706(2) 0.29173(13) 0.59613(12)
H23 H 0.5445 0.3154 0.6046
C46 C 0.4633(2) 0.20528(13) 0.62929(12)
H24 H 0.5344 0.1690 0.6588
C47 C 0.3528(2) 0.17190(12) 0.61951(11)
H25 H 0.3492 0.1125 0.6424
C48 C 0.1063(2) 0.05875(11) 0.70460(11)
H26 H 0.1217 0.0915 0.7445
H27 H 0.1922 0.0118 0.6926
C49 C -0.0326(2) 0.02138(12) 0.74190(11)
H28 H -0.1049 0.0590 0.7798
H29 H -0.0105 -0.0380 0.7753
C50 C -0.0899(2) 0.01946(11) 0.66317(11)
H30 H -0.0479 -0.0363 0.6420
H31 H -0.1968 0.0278 0.6773
C51 C -0.18901(18) 0.13681(11) 0.48574(10)
C52 C -0.26115(19) 0.20696(11) 0.43412(11)
H32 H -0.2339 0.2619 0.4219
C53 C -0.3716(2) 0.19739(12) 0.40061(11)
H33 H -0.4200 0.2459 0.3664
C54 C -0.41193(19) 0.11758(12) 0.41662(11)
H34 H -0.4888 0.1115 0.3945
C55 C -0.33895(19) 0.04672(12) 0.46533(12)
H35 H -0.3645 -0.0085 0.4755
C56 C -0.22919(18) 0.05603(11) 0.49911(11)
H36 H -0.1799 0.0068 0.5321
F13 F 0.20618(12) 0.15219(7) 0.38749(7)
F14 F 0.16138(15) 0.18951(8) 0.26182(8)
F15 F 0.33602(12) 0.22906(7) 0.28786(9)
F16 F -0.0524(5) 0.60245(18) 0.2653(2)
F17 F -0.0754(5) 0.5283(4) 0.1770(3)
F18 F 0.1306(4) 0.5418(2) 0.1880(2)
F19 F -0.16194(12) 0.31697(7) 0.58832(7)
F20 F -0.29880(12) 0.42855(7) 0.53149(7)
F21 F -0.11342(15) 0.44409(9) 0.56747(8)
F10? F 0.4221(10) 0.4174(6) 0.3136(6)
F11? F 0.6525(7) 0.4028(4) 0.2782(4)
F12? F 0.5380(6) 0.4829(3) 0.3576(3)
F22? F -0.1366(4) 0.5860(2) 0.2494(2)
F23? F -0.0185(6) 0.5103(3) 0.1587(3)
F24? F 0.0914(6) 0.5686(3) 0.2140(4)
loop_
_geom_bond_atom_site_label_1
_geom_bond_atom_site_label_2
_geom_bond_site_symmetry_1
_geom_bond_site_symmetry_2
B1 C1 1_555 1_555
C1 C2 1_555 1_555
C2 C3 1_555 1_555
C3 C4 1_555 1_555
C4 B1 1_555 1_555
C5 B1 1_555 1_555
C6 C5 1_555 1_555
C7 C6 1_555 1_555
H1 C7 1_555 1_555
C8 C7 1_555 1_555
C9 C8 1_555 1_555
H2 C9 1_555 1_555
C10 C5 1_555 1_555
C11 C6 1_555 1_555
C12 C10 1_555 1_555
C13 C1 1_555 1_555
C14 C13 1_555 1_555
H3 C14 1_555 1_555
C15 C14 1_555 1_555
H4 C15 1_555 1_555
C16 C15 1_555 1_555
H5 C16 1_555 1_555
C17 C16 1_555 1_555
H6 C17 1_555 1_555
C18 C13 1_555 1_555
H7 C18 1_555 1_555
C19 C2 1_555 1_555
H8 C19 1_555 1_555
H9 C19 1_555 1_555
C20 C19 1_555 1_555
H10 C20 1_555 1_555
H11 C20 1_555 1_555
C21 C3 1_555 1_555
H12 C21 1_555 1_555
H13 C21 1_555 1_555
C22 C4 1_555 1_555
C23 C22 1_555 1_555
H14 C23 1_555 1_555
C24 C23 1_555 1_555
H15 C24 1_555 1_555
C25 C24 1_555 1_555
H16 C25 1_555 1_555
C26 C25 1_555 1_555
H17 C26 1_555 1_555
C27 C22 1_555 1_555
H18 C27 1_555 1_555
F1 C11 1_555 1_555
F2 C11 1_555 1_555
F3 C11 1_555 1_555
C28 C8 1_555 1_555
F4 C28 1_555 1_555
F5 C28 1_555 1_555
F6 C28 1_555 1_555
F7 C12 1_555 1_555
F8 C12 1_555 1_555
F9 C12 1_555 1_555
B2 C29 1_555 1_555
C29 C30 1_555 1_555
C30 C31 1_555 1_555
C31 C32 1_555 1_555
C32 B2 1_555 1_555
C33 B2 1_555 1_555
C34 C33 1_555 1_555
C35 C34 1_555 1_555
H19 C35 1_555 1_555
C36 C35 1_555 1_555
C37 C36 1_555 1_555
H20 C37 1_555 1_555
C38 C33 1_555 1_555
C39 C34 1_555 1_555
C40 C36 1_555 1_555
C41 C38 1_555 1_555
C42 C29 1_555 1_555
C43 C42 1_555 1_555
H21 C43 1_555 1_555
C44 C43 1_555 1_555
H22 C44 1_555 1_555
C45 C44 1_555 1_555
H23 C45 1_555 1_555
C46 C45 1_555 1_555
H24 C46 1_555 1_555
C47 C42 1_555 1_555
H25 C47 1_555 1_555
C48 C30 1_555 1_555
H26 C48 1_555 1_555
H27 C48 1_555 1_555
C49 C48 1_555 1_555
H28 C49 1_555 1_555
H29 C49 1_555 1_555
C50 C31 1_555 1_555
H30 C50 1_555 1_555
H31 C50 1_555 1_555
C51 C32 1_555 1_555
C52 C51 1_555 1_555
H32 C52 1_555 1_555
C53 C52 1_555 1_555
H33 C53 1_555 1_555
C54 C53 1_555 1_555
H34 C54 1_555 1_555
C55 C54 1_555 1_555
H35 C55 1_555 1_555
C56 C51 1_555 1_555
H36 C56 1_555 1_555
F13 C39 1_555 1_555
F14 C39 1_555 1_555
F15 C39 1_555 1_555
F16 C40 1_555 1_555
F17 C40 1_555 1_555
F18 C40 1_555 1_555
F19 C41 1_555 1_555
F20 C41 1_555 1_555
F21 C41 1_555 1_555
C9 C10 1_555 1_555
C17 C18 1_555 1_555
C20 C21 1_555 1_555
C26 C27 1_555 1_555
C37 C38 1_555 1_555
C46 C47 1_555 1_555
C49 C50 1_555 1_555
C55 C56 1_555 1_555

#END
