
#######################################################################
#
#                 Cambridge Crystallographic Data Centre
#                                CCDC 
#
#######################################################################
#
# If this CIF has been generated from an entry in the Cambridge 
# Structural Database, then it will include bibliographic, chemical, 
# crystal, experimental, refinement or atomic coordinate data resulting 
# from the CCDC's data processing and validation procedures.
#
#######################################################################

data_AHIDOM
_chemical_formula_moiety         'C15 H12 F3 N1 O1'
_chemical_name_systematic        
'2,2,2-trifluoroethyl N-phenylbenzenecarboximidate'
_symmetry_cell_setting           monoclinic
_symmetry_space_group_name_H-M   'P 21/c'
_symmetry_Int_Tables_number      14
_space_group_name_Hall           '-P 2ybc'
loop_
_symmetry_equiv_pos_site_id
_symmetry_equiv_pos_as_xyz
1 x,y,z
2 -x,1/2+y,1/2-z
3 -x,-y,-z
4 x,1/2-y,1/2+z
_cell_length_a                   17.4506(15)
_cell_length_b                   9.8876(10)
_cell_length_c                   7.8639(8)
_cell_angle_alpha                90
_cell_angle_beta                 102.344(10)
_cell_angle_gamma                90
_cell_volume                     1325.5
_cell_formula_units_Z            4
loop_
_atom_site_label
_atom_site_type_symbol
_atom_site_fract_x
_atom_site_fract_y
_atom_site_fract_z
C1 C 0.27838(8) 0.34132(15) 0.1515(2)
C2 C 0.27336(9) 0.47348(15) 0.2380(2)
C3 C 0.20322(10) 0.51719(17) 0.2757(2)
H1 H 0.1571 0.4643 0.2408
C4 C 0.20037(11) 0.63728(19) 0.3636(2)
H2 H 0.1523 0.6667 0.3892
C5 C 0.26696(12) 0.71452(19) 0.4142(2)
H3 H 0.2649 0.7966 0.4759
C6 C 0.33660(12) 0.67279(18) 0.3754(3)
H4 H 0.3823 0.7270 0.4088
C7 C 0.34025(10) 0.55220(17) 0.2881(2)
H5 H 0.3885 0.5234 0.2624
C8 C 0.16300(9) 0.34981(15) -0.0618(2)
C9 C 0.16690(10) 0.45792(16) -0.1715(2)
H6 H 0.2164 0.4908 -0.1847
C10 C 0.09859(11) 0.51822(18) -0.2619(2)
H7 H 0.1016 0.5928 -0.3363
C11 C 0.02640(10) 0.47108(19) -0.2449(2)
H8 H -0.0203 0.5132 -0.3063
C12 C 0.02253(10) 0.36206(19) -0.1378(2)
H9 H -0.0271 0.3289 -0.1258
C13 C 0.09036(9) 0.30044(17) -0.0476(2)
H10 H 0.0871 0.2242 0.0240
C14 C 0.36227(10) 0.15267(16) 0.1537(2)
H11 H 0.3781 0.1679 0.0416
H12 H 0.3153 0.0938 0.1330
C15 C 0.42725(10) 0.08986(19) 0.2821(2)
F1 F 0.45093(7) -0.02451(11) 0.22030(16)
F2 F 0.48927(7) 0.16818(13) 0.3248(2)
F3 F 0.40590(9) 0.05828(15) 0.42961(16)
N1 N 0.23194(7) 0.28412(13) 0.02780(17)
O1 O 0.34641(6) 0.27776(11) 0.22839(14)
loop_
_geom_bond_atom_site_label_1
_geom_bond_atom_site_label_2
_geom_bond_site_symmetry_1
_geom_bond_site_symmetry_2
C1 C2 1_555 1_555
C2 C3 1_555 1_555
C3 H1 1_555 1_555
C4 C3 1_555 1_555
H2 C4 1_555 1_555
C5 C4 1_555 1_555
H3 C5 1_555 1_555
C6 C5 1_555 1_555
H4 C6 1_555 1_555
C7 C2 1_555 1_555
H5 C7 1_555 1_555
C8 C9 1_555 1_555
C9 H6 1_555 1_555
C10 C9 1_555 1_555
H7 C10 1_555 1_555
C11 C10 1_555 1_555
H8 C11 1_555 1_555
C12 C11 1_555 1_555
H9 C12 1_555 1_555
C13 C8 1_555 1_555
H10 C13 1_555 1_555
C14 H11 1_555 1_555
H12 C14 1_555 1_555
C15 C14 1_555 1_555
F1 C15 1_555 1_555
F2 C15 1_555 1_555
F3 C15 1_555 1_555
N1 C1 1_555 1_555
O1 C1 1_555 1_555
C6 C7 1_555 1_555
C8 N1 1_555 1_555
C12 C13 1_555 1_555
C14 O1 1_555 1_555

#END
