
#######################################################################
#
#                 Cambridge Crystallographic Data Centre
#                                CCDC 
#
#######################################################################
#
# If this CIF has been generated from an entry in the Cambridge 
# Structural Database, then it will include bibliographic, chemical, 
# crystal, experimental, refinement or atomic coordinate data resulting 
# from the CCDC's data processing and validation procedures.
#
#######################################################################

data_AHITES
_chemical_formula_moiety         'C18 H16 N2 O4,2(H2 O1)'
_chemical_name_systematic        
"3,3'-(1,4-phenylenebis(oxymethylene))bis(1-pyridin-1-ol) dihydrate"
_symmetry_cell_setting           monoclinic
_symmetry_space_group_name_H-M   'P 21/c'
_symmetry_Int_Tables_number      14
_space_group_name_Hall           '-P 2ybc'
loop_
_symmetry_equiv_pos_site_id
_symmetry_equiv_pos_as_xyz
1 x,y,z
2 -x,1/2+y,1/2-z
3 -x,-y,-z
4 x,1/2-y,1/2+z
_cell_length_a                   5.589(2)
_cell_length_b                   6.798(2)
_cell_length_c                   22.763(8)
_cell_angle_alpha                90
_cell_angle_beta                 95.805(7)
_cell_angle_gamma                90
_cell_volume                     860.423
_exptl_crystal_colour            colorless
_exptl_crystal_description       BLOCK
_cell_formula_units_Z            2
loop_
_atom_site_label
_atom_site_type_symbol
_atom_site_fract_x
_atom_site_fract_y
_atom_site_fract_z
O1 O 0.2920(3) -0.3005(3) 0.23484(8)
N1 N 0.4171(3) -0.2353(3) 0.19333(7)
C1 C 0.3625(3) -0.0617(3) 0.16678(8)
H1 H 0.2310 0.0095 0.1771
C2 C 0.4975(3) 0.0119(3) 0.12465(7)
C3 C 0.6916(4) -0.0963(3) 0.10941(9)
H2 H 0.7859 -0.0496 0.0810
C4 C 0.7434(3) -0.2751(3) 0.13701(8)
H3 H 0.8726 -0.3498 0.1270
C5 C 0.6059(3) -0.3412(3) 0.17862(8)
H4 H 0.6423 -0.4609 0.1972
C6 C 0.4311(3) 0.2080(3) 0.09747(8)
H5 H 0.3822 0.2975 0.1272
H6 H 0.5679 0.2647 0.0806
O2 O 0.2364(2) 0.17729(17) 0.05231(5)
C7 C 0.1245(3) 0.3426(2) 0.02748(8)
C8 C 0.2117(3) 0.5323(3) 0.03553(7)
H7 H 0.3544 0.5547 0.0593
C9 C -0.0871(3) 0.3110(3) -0.00821(8)
H8 H -0.1461 0.1838 -0.0139
O1B O -0.2920(3) 1.3005(3) -0.23484(8)
N1B N -0.4171(3) 1.2353(3) -0.19333(7)
C1B C -0.3625(3) 1.0617(3) -0.16678(8)
H1B H -0.2310 0.9905 -0.1771
C2B C -0.4975(3) 0.9881(3) -0.12465(7)
C3B C -0.6916(4) 1.0963(3) -0.10941(9)
H2B H -0.7859 1.0496 -0.0810
C4B C -0.7434(3) 1.2751(3) -0.13701(8)
H3B H -0.8726 1.3498 -0.1270
C5B C -0.6059(3) 1.3412(3) -0.17862(8)
H4B H -0.6423 1.4609 -0.1972
C6B C -0.4311(3) 0.7920(3) -0.09747(8)
H5B H -0.3822 0.7025 -0.1272
H6B H -0.5679 0.7353 -0.0806
O2B O -0.2364(2) 0.82271(17) -0.05231(5)
C7B C -0.1245(3) 0.6574(2) -0.02748(8)
C8B C -0.2117(3) 0.4677(3) -0.03553(7)
H7B H -0.3544 0.4453 -0.0593
C9B C 0.0871(3) 0.6890(3) 0.00821(8)
H8B H 0.1461 0.8162 0.0139
O3 O -0.0627(4) -0.1629(3) 0.29995(8)
H9 H -0.1264 -0.0424 0.2853
H10 H 0.0539 -0.2068 0.2783
loop_
_geom_bond_atom_site_label_1
_geom_bond_atom_site_label_2
_geom_bond_site_symmetry_1
_geom_bond_site_symmetry_2
O1 N1 1_555 1_555
N1 C1 1_555 1_555
C1 H1 1_555 1_555
C2 C1 1_555 1_555
C3 C2 1_555 1_555
H2 C3 1_555 1_555
C4 C3 1_555 1_555
H3 C4 1_555 1_555
C5 N1 1_555 1_555
H4 C5 1_555 1_555
C6 C2 1_555 1_555
H5 C6 1_555 1_555
H6 C6 1_555 1_555
O2 C6 1_555 1_555
C7 O2 1_555 1_555
C8 C7 1_555 1_555
H7 C8 1_555 1_555
C9 C7 1_555 1_555
H8 C9 1_555 1_555
O3 H9 1_555 1_555
H10 O3 1_555 1_555
O1B N1B 1_555 1_555
N1B C1B 1_555 1_555
C1B H1B 1_555 1_555
C2B C1B 1_555 1_555
C3B C2B 1_555 1_555
H2B C3B 1_555 1_555
C4B C3B 1_555 1_555
H3B C4B 1_555 1_555
C5B N1B 1_555 1_555
H4B C5B 1_555 1_555
C6B C2B 1_555 1_555
H5B C6B 1_555 1_555
H6B C6B 1_555 1_555
O2B C6B 1_555 1_555
C7B O2B 1_555 1_555
C8B C9 1_555 1_555
H7B C8B 1_555 1_555
C9B C8 1_555 1_555
H8B C9B 1_555 1_555
C4 C5 1_555 1_555
C4B C5B 1_555 1_555
C7B C8B 1_555 1_555
C7B C9B 1_555 1_555

#END
