
#######################################################################
#
#                 Cambridge Crystallographic Data Centre
#                                CCDC 
#
#######################################################################
#
# If this CIF has been generated from an entry in the Cambridge 
# Structural Database, then it will include bibliographic, chemical, 
# crystal, experimental, refinement or atomic coordinate data resulting 
# from the CCDC's data processing and validation procedures.
#
#######################################################################

data_AHOLIT
_chemical_name_common            1-Phenyl-1-benzarsole
_chemical_formula_moiety         'C14 H11 As1'
_chemical_name_systematic        1-Phenyl-1H-arsindole
_symmetry_cell_setting           orthorhombic
_symmetry_space_group_name_H-M   'P 21 21 21'
_symmetry_Int_Tables_number      19
_space_group_name_Hall           'P 2ac 2ab'
loop_
_symmetry_equiv_pos_site_id
_symmetry_equiv_pos_as_xyz
1 x,y,z
2 1/2+x,1/2-y,-z
3 -x,1/2+y,1/2-z
4 1/2-x,-y,1/2+z
_cell_length_a                   6.2615(8)
_cell_length_b                   8.0747(9)
_cell_length_c                   22.260(3)
_cell_angle_alpha                90
_cell_angle_beta                 90
_cell_angle_gamma                90
_cell_volume                     1125.46
_exptl_crystal_colour            colorless
_exptl_crystal_description       prism
_chemical_melting_point          '61-63 deg.C'
_cell_formula_units_Z            4
_exptl_crystal_recrystallization_method methanol
loop_
_atom_site_label
_atom_site_type_symbol
_atom_site_fract_x
_atom_site_fract_y
_atom_site_fract_z
As1 As 0.36097(3) 0.46757(3) 0.423576(9)
C1 C 0.1072(3) 0.3819(3) 0.46252(9)
H1 H 0.0945 0.2719 0.4772
C2 C -0.0473(3) 0.4945(2) 0.46637(9)
H2 H -0.1772 0.4720 0.4869
C3 C -0.0078(3) 0.6546(3) 0.43758(8)
C4 C -0.1460(4) 0.7873(3) 0.43618(9)
H3 H -0.2825 0.7791 0.4546
C5 C -0.0852(4) 0.9330(3) 0.40786(10)
H4 H -0.1810 1.0241 0.4065
C6 C 0.1150(4) 0.9462(2) 0.38151(9)
H5 H 0.1552 1.0466 0.3623
C7 C 0.2562(3) 0.8151(3) 0.38287(9)
H6 H 0.3936 0.8253 0.3652
C8 C 0.1952(3) 0.6676(2) 0.41039(8)
C9 C 0.3310(3) 0.3622(2) 0.34525(9)
C10 C 0.5021(4) 0.2699(3) 0.32338(10)
H7 H 0.6312 0.2643 0.3457
C11 C 0.4847(4) 0.1854(3) 0.26878(11)
H8 H 0.6008 0.1210 0.2543
C12 C 0.2981(4) 0.1960(3) 0.23594(11)
H9 H 0.2870 0.1393 0.1987
C13 C 0.1291(4) 0.2872(3) 0.25649(10)
H10 H 0.0021 0.2947 0.2333
C14 C 0.1430(4) 0.3693(3) 0.31142(9)
H11 H 0.0242 0.4304 0.3260
loop_
_geom_bond_atom_site_label_1
_geom_bond_atom_site_label_2
_geom_bond_site_symmetry_1
_geom_bond_site_symmetry_2
As1 C1 1_555 1_555
C1 H1 1_555 1_555
C2 C1 1_555 1_555
H2 C2 1_555 1_555
C3 C2 1_555 1_555
C4 C3 1_555 1_555
H3 C4 1_555 1_555
C5 C4 1_555 1_555
H4 C5 1_555 1_555
C6 C5 1_555 1_555
H5 C6 1_555 1_555
C7 C6 1_555 1_555
H6 C7 1_555 1_555
C8 As1 1_555 1_555
C9 As1 1_555 1_555
C10 C9 1_555 1_555
H7 C10 1_555 1_555
C11 C10 1_555 1_555
H8 C11 1_555 1_555
C12 C11 1_555 1_555
H9 C12 1_555 1_555
C13 C12 1_555 1_555
H10 C13 1_555 1_555
C14 C9 1_555 1_555
H11 C14 1_555 1_555
C3 C8 1_555 1_555
C7 C8 1_555 1_555
C13 C14 1_555 1_555

#END
