
#######################################################################
#
#                 Cambridge Crystallographic Data Centre
#                                CCDC 
#
#######################################################################
#
# If this CIF has been generated from an entry in the Cambridge 
# Structural Database, then it will include bibliographic, chemical, 
# crystal, experimental, refinement or atomic coordinate data resulting 
# from the CCDC's data processing and validation procedures.
#
#######################################################################

data_AHOREW
_chemical_formula_moiety         'C20 H15 N5 O2 2+,2(Cl1 O4 1-),H2 O1'
_chemical_name_systematic        
'bis(2-oxidoimidazo[1,2-a]pyridin-1-ium-3-yl)(pyridin-1-ium-2-yl)methyl radical cation bis(perchlorate) monohydrate'
_symmetry_cell_setting           monoclinic
_symmetry_space_group_name_H-M   'P 21/c'
_symmetry_Int_Tables_number      14
_space_group_name_Hall           '-P 2ybc'
loop_
_symmetry_equiv_pos_site_id
_symmetry_equiv_pos_as_xyz
1 x,y,z
2 -x,1/2+y,1/2-z
3 -x,-y,-z
4 x,1/2-y,1/2+z
_cell_length_a                   8.9344(2)
_cell_length_b                   18.8814(6)
_cell_length_c                   14.1420(4)
_cell_angle_alpha                90
_cell_angle_beta                 90.449(2)
_cell_angle_gamma                90
_cell_volume                     2385.6
_exptl_crystal_colour            green
_exptl_crystal_description       block
_cell_formula_units_Z            4
loop_
_atom_site_label
_atom_site_type_symbol
_atom_site_fract_x
_atom_site_fract_y
_atom_site_fract_z
C1 C 0.6339(4) 0.19471(18) 0.6771(2)
H1 H 0.7011 0.1604 0.6569
C2 C 0.5495(5) 0.1837(2) 0.7552(3)
H2 H 0.5580 0.1411 0.7879
C3 C 0.4516(5) 0.2346(2) 0.7867(3)
H3 H 0.3936 0.2257 0.8397
C4 C 0.4385(4) 0.2985(2) 0.7405(3)
H4 H 0.3722 0.3332 0.7611
C5 C 0.5280(4) 0.30925(18) 0.6621(2)
C6 C 0.6512(4) 0.35475(18) 0.5374(3)
C7 C 0.6973(4) 0.28230(17) 0.5493(2)
C8 C 0.7739(3) 0.24246(16) 0.4819(2)
C9 C 0.8797(3) 0.27089(17) 0.4218(2)
C10 C 0.9982(4) 0.36809(19) 0.5190(3)
H5 H 0.9429 0.3588 0.5730
C11 C 1.1041(5) 0.4204(2) 0.5199(4)
H6 H 1.1210 0.4467 0.5745
C12 C 1.1858(5) 0.4342(2) 0.4394(4)
H7 H 1.2565 0.4704 0.4400
C13 C 1.1644(4) 0.3956(2) 0.3593(3)
H8 H 1.2195 0.4051 0.3051
C14 C 1.0583(4) 0.34171(19) 0.3600(3)
C15 C 0.9096(4) 0.24801(18) 0.3250(2)
C16 C 0.7283(3) 0.16809(17) 0.4625(2)
C17 C 0.5806(4) 0.14815(19) 0.4549(2)
H9 H 0.5053 0.1808 0.4670
C18 C 0.5441(5) 0.0796(2) 0.4293(3)
H10 H 0.4443 0.0663 0.4233
C19 C 0.6551(5) 0.0317(2) 0.4129(3)
H11 H 0.6317 -0.0142 0.3942
C20 C 0.8030(5) 0.0522(2) 0.4244(3)
H12 H 0.8800 0.0198 0.4154
N1 N 0.6187(3) 0.25662(14) 0.62897(19)
N2 N 0.5460(3) 0.36681(15) 0.6068(2)
H13 H 0.4981 0.4060 0.6137
N3 N 0.9743(3) 0.32973(14) 0.4388(2)
N4 N 1.0196(3) 0.29461(16) 0.2932(2)
H14 H 1.0578 0.2933 0.2376
N5 N 0.8337(3) 0.11876(15) 0.4484(2)
H15 H 0.9260 0.1308 0.4552
O1 O 0.6903(3) 0.39815(13) 0.4779(2)
O2 O 0.8519(3) 0.20118(14) 0.27807(17)
Cl1 Cl 0.19809(9) 0.31072(5) 0.04712(6)
O3 O 0.0691(3) 0.28486(18) 0.0958(2)
O4 O 0.2867(4) 0.2523(2) 0.0158(3)
O5 O 0.2867(4) 0.35336(18) 0.1074(3)
O6 O 0.1486(4) 0.3492(3) -0.0331(3)
Cl2 Cl 0.83702(13) 0.48656(7) 0.20261(8)
O7 O 0.8394(5) 0.4507(3) 0.2894(3)
O8 O 0.6836(6) 0.4829(4) 0.1786(5)
O9 O 0.8950(13) 0.5501(3) 0.2167(6)
O10 O 0.9100(7) 0.4485(4) 0.1358(4)
O11 O 0.5380(4) 0.49584(17) 0.3673(3)
H16 H 0.5903 0.4950 0.3174
H17 H 0.5836 0.4736 0.4111
loop_
_geom_bond_atom_site_label_1
_geom_bond_atom_site_label_2
_geom_bond_site_symmetry_1
_geom_bond_site_symmetry_2
C1 H1 1_555 1_555
C2 C1 1_555 1_555
H2 C2 1_555 1_555
C3 C2 1_555 1_555
H3 C3 1_555 1_555
C4 C3 1_555 1_555
H4 C4 1_555 1_555
C5 C4 1_555 1_555
C6 C7 1_555 1_555
C7 C8 1_555 1_555
C8 C9 1_555 1_555
C9 C15 1_555 1_555
C10 H5 1_555 1_555
C11 C10 1_555 1_555
H6 C11 1_555 1_555
C12 C11 1_555 1_555
H7 C12 1_555 1_555
C13 C12 1_555 1_555
H8 C13 1_555 1_555
C14 C13 1_555 1_555
C15 N4 1_555 1_555
C16 C8 1_555 1_555
C17 C16 1_555 1_555
H9 C17 1_555 1_555
C18 C17 1_555 1_555
H10 C18 1_555 1_555
C19 C18 1_555 1_555
H11 C19 1_555 1_555
C20 C19 1_555 1_555
H12 C20 1_555 1_555
N1 C1 1_555 1_555
N2 C5 1_555 1_555
H13 N2 1_555 1_555
N3 C9 1_555 1_555
N4 C14 1_555 1_555
H14 N4 1_555 1_555
N5 C16 1_555 1_555
H15 N5 1_555 1_555
O1 C6 1_555 1_555
O2 C15 1_555 1_555
Cl1 O3 1_555 1_555
O4 Cl1 1_555 1_555
O5 Cl1 1_555 1_555
O6 Cl1 1_555 1_555
Cl2 O7 1_555 1_555
O8 Cl2 1_555 1_555
O9 Cl2 1_555 1_555
O10 Cl2 1_555 1_555
O11 H16 1_555 1_555
H17 O11 1_555 1_555
C5 N1 1_555 1_555
C6 N2 1_555 1_555
C7 N1 1_555 1_555
C10 N3 1_555 1_555
C14 N3 1_555 1_555
C20 N5 1_555 1_555

#END
