
#######################################################################
#
#                 Cambridge Crystallographic Data Centre
#                                CCDC 
#
#######################################################################
#
# If this CIF has been generated from an entry in the Cambridge 
# Structural Database, then it will include bibliographic, chemical, 
# crystal, experimental, refinement or atomic coordinate data resulting 
# from the CCDC's data processing and validation procedures.
#
#######################################################################

data_AHOVAW
_chemical_formula_moiety         'C18 H16 N2 O4,2(H2 O1)'
_chemical_name_systematic        
"4,4'-(1,4-phenylenebis(oxymethylene))bis(1-pyridin-1-ol) hydrate"
_symmetry_cell_setting           monoclinic
_symmetry_space_group_name_H-M   'P 21/c'
_symmetry_Int_Tables_number      14
_space_group_name_Hall           '-P 2ybc'
loop_
_symmetry_equiv_pos_site_id
_symmetry_equiv_pos_as_xyz
1 x,y,z
2 -x,1/2+y,1/2-z
3 -x,-y,-z
4 x,1/2-y,1/2+z
_cell_length_a                   15.9371(6)
_cell_length_b                   19.0995(7)
_cell_length_c                   12.4723(5)
_cell_angle_alpha                90
_cell_angle_beta                 111.1320(10)
_cell_angle_gamma                90
_cell_volume                     3541.15
_exptl_crystal_colour            colorless
_exptl_crystal_description       BLOCK
_cell_formula_units_Z            8
loop_
_atom_site_label
_atom_site_type_symbol
_atom_site_fract_x
_atom_site_fract_y
_atom_site_fract_z
N1 N 0.55166(11) 0.63081(9) 1.38117(13)
N2 N -0.06673(12) 0.67218(11) 0.12973(15)
O1 O 0.34443(10) 0.67899(9) 0.99044(11)
O2 O 0.13646(10) 0.70208(10) 0.53027(12)
O3 O 0.59142(11) 0.61562(9) 1.49079(12)
O4 O -0.10226(12) 0.66373(13) 0.01784(14)
C1 C 0.55258(15) 0.69646(12) 1.34436(18)
H1 H 0.5791 0.7317 1.3972
C2 C 0.51519(15) 0.71241(12) 1.23042(17)
H2 H 0.5164 0.7584 1.2064
C3 C 0.47579(13) 0.66145(13) 1.15089(17)
C4 C 0.47404(15) 0.59487(14) 1.19110(19)
H3 H 0.4465 0.5593 1.1396
C5 C 0.51208(15) 0.58010(12) 1.3053(2)
H4 H 0.5106 0.5346 1.3310
C6 C 0.43803(15) 0.67742(17) 1.02504(18)
H5 H 0.4602 0.7223 1.0102
H6 H 0.4563 0.6417 0.9826
C7 C 0.29544(14) 0.68687(10) 0.87482(15)
C8 C 0.33298(14) 0.69128(11) 0.79004(16)
H7 H 0.3951 0.6907 0.8099
C9 C 0.27729(15) 0.69648(12) 0.67669(17)
H8 H 0.3022 0.6993 0.6199
C10 C 0.18533(14) 0.69762(11) 0.64624(16)
C11 C 0.14804(14) 0.69493(12) 0.73056(17)
H9 H 0.0860 0.6968 0.7108
C12 C 0.20367(14) 0.68949(11) 0.84419(16)
H10 H 0.1787 0.6876 0.9010
C13 C 0.04361(16) 0.69642(17) 0.49303(19)
H11 H 0.0186 0.7377 0.5156
H12 H 0.0272 0.6559 0.5280
C14 C 0.00651(15) 0.68917(13) 0.36434(18)
C15 C 0.04486(17) 0.64507(14) 0.3079(2)
H13 H 0.0966 0.6203 0.3497
C16 C 0.00784(17) 0.63693(14) 0.1905(2)
H14 H 0.0346 0.6070 0.1534
C17 C -0.06823(16) 0.72426(15) 0.29889(19)
H15 H -0.0955 0.7551 0.3341
C18 C -0.10455(16) 0.71548(14) 0.18270(19)
H16 H -0.1562 0.7400 0.1400
O5 O -0.26610(13) 0.69846(11) -0.13488(15)
H17 H -0.2128 0.6833 -0.0752
H18 H -0.3109 0.6695 -0.1216
O6 O -0.11160(10) 0.55548(10) 0.51917(12)
O7 O 0.10310(10) 0.55568(10) 0.97839(12)
O8 O -0.37887(13) 0.52929(10) 0.01935(14)
O9 O 0.32593(14) 0.59234(14) 1.48157(14)
N3 N -0.33587(12) 0.54364(10) 0.12838(15)
N4 N 0.30052(13) 0.57747(13) 1.37227(15)
C19 C -0.31974(17) 0.49263(13) 0.2065(2)
H19 H -0.3399 0.4475 0.1828
C20 C -0.27443(18) 0.50528(14) 0.3202(2)
H20 H -0.2634 0.4687 0.3728
C21 C -0.24487(14) 0.57160(14) 0.35791(18)
C22 C -0.26399(15) 0.62307(13) 0.27655(19)
H21 H -0.2459 0.6687 0.2992
C23 C -0.30903(15) 0.60915(12) 0.16274(19)
H22 H -0.3211 0.6451 0.1090
C24 C -0.19696(17) 0.58658(17) 0.48342(19)
H23 H -0.1911 0.6367 0.4961
H24 H -0.2311 0.5678 0.5274
C25 C -0.06031(14) 0.55624(12) 0.63487(17)
C26 C -0.08694(15) 0.58608(14) 0.71778(18)
H25 H -0.1428 0.6077 0.6972
C27 C -0.03068(16) 0.58386(15) 0.83136(18)
H26 H -0.0491 0.6038 0.8872
C28 C 0.05208(15) 0.55259(12) 0.86319(17)
C29 C 0.07886(15) 0.52261(13) 0.78046(18)
H27 H 0.1348 0.5011 0.8011
C30 C 0.02238(15) 0.52461(13) 0.66702(18)
H28 H 0.0406 0.5042 0.6113
C31 C 0.19101(15) 0.52587(14) 1.01712(18)
H29 H 0.2261 0.5455 0.9750
H30 H 0.1876 0.4755 1.0061
C32 C 0.23288(14) 0.54342(11) 1.14235(17)
C33 C 0.23013(18) 0.61037(13) 1.1800(2)
H31 H 0.2048 0.6456 1.1267
C34 C 0.26330(18) 0.62621(14) 1.2926(2)
H32 H 0.2602 0.6722 1.3155
C35 C 0.31019(17) 0.51287(16) 1.3385(2)
H33 H 0.3407 0.4795 1.3929
C36 C 0.27570(16) 0.49481(13) 1.2242(2)
H34 H 0.2815 0.4491 1.2024
O10 O -0.42500(12) 0.63350(9) -0.13869(14)
H35 H -0.4595 0.6152 -0.2146
H36 H -0.4131 0.5932 -0.0931
O11 O 0.49416(13) 0.59827(12) 1.63193(14)
H37 H 0.4362 0.5916 1.5846
H38 H 0.5248 0.6016 1.5788
O12 O 0.70710(14) 0.71427(12) 1.63343(16)
H39 H 0.6663 0.6789 1.5862
H40 H 0.7189 0.6938 1.7054
loop_
_geom_bond_atom_site_label_1
_geom_bond_atom_site_label_2
_geom_bond_site_symmetry_1
_geom_bond_site_symmetry_2
N1 O3 1_555 1_555
N2 O4 1_555 1_555
O1 C6 1_555 1_555
O2 C10 1_555 1_555
C1 N1 1_555 1_555
H1 C1 1_555 1_555
C2 C1 1_555 1_555
H2 C2 1_555 1_555
C3 C2 1_555 1_555
C4 C3 1_555 1_555
H3 C4 1_555 1_555
C5 N1 1_555 1_555
H4 C5 1_555 1_555
C6 C3 1_555 1_555
H5 C6 1_555 1_555
H6 C6 1_555 1_555
C7 O1 1_555 1_555
C8 C7 1_555 1_555
H7 C8 1_555 1_555
C9 C8 1_555 1_555
H8 C9 1_555 1_555
C10 C9 1_555 1_555
C11 C10 1_555 1_555
H9 C11 1_555 1_555
C12 C7 1_555 1_555
H10 C12 1_555 1_555
C13 O2 1_555 1_555
H11 C13 1_555 1_555
H12 C13 1_555 1_555
C14 C13 1_555 1_555
C15 C14 1_555 1_555
H13 C15 1_555 1_555
C16 N2 1_555 1_555
H14 C16 1_555 1_555
C17 C14 1_555 1_555
H15 C17 1_555 1_555
C18 N2 1_555 1_555
H16 C18 1_555 1_555
O5 H17 1_555 1_555
H18 O5 1_555 1_555
O6 C24 1_555 1_555
O7 C28 1_555 1_555
O8 N3 1_555 1_555
O9 N4 1_555 1_555
N3 C19 1_555 1_555
N4 C34 1_555 1_555
C19 H19 1_555 1_555
C20 C19 1_555 1_555
H20 C20 1_555 1_555
C21 C20 1_555 1_555
C22 C21 1_555 1_555
H21 C22 1_555 1_555
C23 N3 1_555 1_555
H22 C23 1_555 1_555
C24 C21 1_555 1_555
H23 C24 1_555 1_555
H24 C24 1_555 1_555
C25 O6 1_555 1_555
C26 C25 1_555 1_555
H25 C26 1_555 1_555
C27 C26 1_555 1_555
H26 C27 1_555 1_555
C28 C27 1_555 1_555
C29 C28 1_555 1_555
H27 C29 1_555 1_555
C30 C25 1_555 1_555
H28 C30 1_555 1_555
C31 O7 1_555 1_555
H29 C31 1_555 1_555
H30 C31 1_555 1_555
C32 C31 1_555 1_555
C33 C32 1_555 1_555
H31 C33 1_555 1_555
C34 C33 1_555 1_555
H32 C34 1_555 1_555
C35 N4 1_555 1_555
H33 C35 1_555 1_555
C36 C32 1_555 1_555
H34 C36 1_555 1_555
O10 H35 1_555 1_555
H36 O10 1_555 1_555
O11 H37 1_555 1_555
H38 O11 1_555 1_555
O12 H39 1_555 1_555
H40 O12 1_555 1_555
C4 C5 1_555 1_555
C11 C12 1_555 1_555
C15 C16 1_555 1_555
C17 C18 1_555 1_555
C22 C23 1_555 1_555
C29 C30 1_555 1_555
C35 C36 1_555 1_555

#END
