
#######################################################################
#
#                 Cambridge Crystallographic Data Centre
#                                CCDC 
#
#######################################################################
#
# If this CIF has been generated from an entry in the Cambridge 
# Structural Database, then it will include bibliographic, chemical, 
# crystal, experimental, refinement or atomic coordinate data resulting 
# from the CCDC's data processing and validation procedures.
#
#######################################################################

data_AHPSUM
_chemical_formula_moiety         'C3 H9 N1 O4 S1'
_chemical_name_systematic        '3-Amino-2-hydroxy-1-propane-sulfonic acid'
_symmetry_cell_setting           orthorhombic
_symmetry_space_group_name_H-M   'P b c a'
_symmetry_Int_Tables_number      61
_space_group_name_Hall           '-P 2ac 2ab'
loop_
_symmetry_equiv_pos_site_id
_symmetry_equiv_pos_as_xyz
1 x,y,z
2 1/2-x,-y,1/2+z
3 1/2+x,1/2-y,-z
4 -x,1/2+y,1/2-z
5 -x,-y,-z
6 1/2+x,y,1/2-z
7 1/2-x,1/2+y,z
8 x,1/2-y,1/2+z
_cell_length_a                   9.909(4)
_cell_length_b                   12.032(3)
_cell_length_c                   10.251(4)
_cell_angle_alpha                90
_cell_angle_beta                 90
_cell_angle_gamma                90
_cell_volume                     1222.18
_exptl_crystal_colour            colorless
_cell_formula_units_Z            8
loop_
_atom_site_label
_atom_site_type_symbol
_atom_site_fract_x
_atom_site_fract_y
_atom_site_fract_z
S1 S 0.72630 0.50430 0.75800
C1 C 0.61190 0.56010 0.87460
C2 C 0.60430 0.68720 0.87400
N1 N 0.48760 0.84440 0.98180
O1 O 0.68250 0.38850 0.74060
O2 O 0.86060 0.51050 0.81660
O3 O 0.71320 0.56710 0.63800
O4 O 0.73070 0.73240 0.90790
H1 H 0.51600 0.52700 0.85500
H2 H 0.64500 0.53400 0.97000
H3 H 0.57800 0.72100 0.77400
H4 H 0.40400 0.68500 0.94900
H5 H 0.52900 0.69200 1.07200
H6 H 0.56400 0.87600 1.03100
H7 H 0.43300 0.86300 0.90300
H8 H 0.42900 0.86000 1.04100
H9 H 0.76000 0.78700 0.84200
C3 C 0.49980 0.72050 0.97570
loop_
_geom_bond_atom_site_label_1
_geom_bond_atom_site_label_2
_geom_bond_site_symmetry_1
_geom_bond_site_symmetry_2
S1 C1 1_555 1_555
C1 C2 1_555 1_555
C2 O4 1_555 1_555
N1 H6 1_555 1_555
O1 S1 1_555 1_555
O2 S1 1_555 1_555
O3 S1 1_555 1_555
O4 H9 1_555 1_555
H1 C1 1_555 1_555
H2 C1 1_555 1_555
H3 C2 1_555 1_555
H4 C3 1_555 1_555
H5 C3 1_555 1_555
H7 N1 1_555 1_555
H8 N1 1_555 1_555
C3 C2 1_555 1_555
N1 C3 1_555 1_555

#END
