
#######################################################################
#
#                 Cambridge Crystallographic Data Centre
#                                CCDC 
#
#######################################################################
#
# If this CIF has been generated from an entry in the Cambridge 
# Structural Database, then it will include bibliographic, chemical, 
# crystal, experimental, refinement or atomic coordinate data resulting 
# from the CCDC's data processing and validation procedures.
#
#######################################################################

data_AHUQOJ
_chemical_formula_moiety         'C9 H12 Cl3 N3 O3'
_chemical_name_systematic        
'Ethyl 2-diazo-3-(trichloroacetylamino)pentanoate'
_symmetry_cell_setting           triclinic
_symmetry_space_group_name_H-M   'P -1'
_symmetry_Int_Tables_number      2
_space_group_name_Hall           '-P 1'
loop_
_symmetry_equiv_pos_site_id
_symmetry_equiv_pos_as_xyz
1 x,y,z
2 -x,-y,-z
_cell_length_a                   9.6616(19)
_cell_length_b                   10.436(2)
_cell_length_c                   15.210(3)
_cell_angle_alpha                89.51(3)
_cell_angle_beta                 71.86(3)
_cell_angle_gamma                78.36(3)
_cell_volume                     1424.98
_exptl_crystal_description       Block
_cell_formula_units_Z            4
loop_
_atom_site_label
_atom_site_type_symbol
_atom_site_fract_x
_atom_site_fract_y
_atom_site_fract_z
Cl1 Cl -0.54106(12) 1.46533(12) 0.31875(8)
Cl2 Cl -0.71170(14) 1.64671(10) 0.22842(8)
Cl3 Cl -0.85899(13) 1.51226(14) 0.38204(8)
O1 O -0.7827(3) 1.3120(3) 0.2407(2)
O2 O -0.6297(3) 1.4678(3) -0.0555(2)
O3 O -0.8146(3) 1.3769(2) -0.06904(17)
N1 N -0.5857(3) 1.3723(3) 0.1370(2)
N2 N -0.7719(5) 1.2013(4) 0.0440(3)
N3 N -0.8524(7) 1.1348(5) 0.0604(4)
C1 C -0.7026(4) 1.4975(3) 0.2838(2)
C2 C -0.6944(4) 1.3833(3) 0.2172(3)
C3 C -0.5597(6) 1.2620(6) 0.0710(4)
H1 H -0.5877 1.1928 0.1127
C4 C -0.6771(5) 1.2809(4) 0.0236(3)
C5 C -0.7017(4) 1.3834(4) -0.0366(3)
C6 C -0.4169(7) 1.2083(7) 0.0233(5)
H2 H -0.3832 1.2671 -0.0247
H3 H -0.4173 1.1278 -0.0079
C7 C -0.3004(5) 1.1760(5) 0.0700(4)
H4 H -0.2050 1.1448 0.0243
H5 H -0.3233 1.1092 0.1127
H6 H -0.2978 1.2531 0.1029
C8 C -0.8530(5) 1.4816(4) -0.1253(3)
H7 H -0.7676 1.4862 -0.1788
H8 H -0.8848 1.5650 -0.0897
C9 C -0.9760(5) 1.4522(5) -0.1554(3)
H9 H -1.0040 1.5193 -0.1938
H10 H -1.0602 1.4491 -0.1019
H11 H -0.9435 1.3690 -0.1898
H23 H -0.5227 1.4409 0.1186
Cl4 Cl 0.48509(13) 1.09219(14) 0.32619(11)
Cl5 Cl 0.39364(13) 0.86073(15) 0.40866(8)
Cl6 Cl 0.58234(11) 0.84645(12) 0.22065(8)
O4 O 0.3081(3) 0.9631(3) 0.19179(17)
O5 O -0.1036(3) 0.9181(3) 0.46226(17)
O6 O -0.1598(3) 0.7943(2) 0.36372(15)
N4 N 0.1693(3) 1.0329(3) 0.33768(18)
N5 N -0.0403(4) 0.9271(3) 0.2251(2)
N6 N -0.0375(5) 0.8953(4) 0.1544(3)
C10 C 0.4333(4) 0.9457(4) 0.3057(2)
C11 C 0.2951(4) 0.9812(3) 0.2730(2)
C12 C 0.0329(3) 1.0790(3) 0.3128(2)
H12 H 0.0620 1.1134 0.2510
C13 C -0.0393(4) 0.9642(3) 0.3066(2)
C14 C -0.1021(3) 0.8930(3) 0.3842(2)
C15 C -0.0685(4) 1.1901(3) 0.3797(3)
H13 H -0.0149 1.2593 0.3799
H14 H -0.0966 1.1589 0.4417
C16 C -0.2083(5) 1.2456(4) 0.3545(4)
H15 H -0.2701 1.3149 0.3991
H16 H -0.2620 1.1775 0.3546
H17 H -0.1811 1.2793 0.2940
C17 C -0.2344(4) 0.7257(3) 0.4422(2)
H18 H -0.3250 0.7829 0.4807
H19 H -0.1700 0.6981 0.4797
C18 C -0.2703(5) 0.6095(4) 0.4049(3)
H20 H -0.3191 0.5618 0.4554
H21 H -0.1800 0.5538 0.3668
H22 H -0.3349 0.6380 0.3686
H24 H 0.1620 1.0466 0.4010
loop_
_geom_bond_atom_site_label_1
_geom_bond_atom_site_label_2
_geom_bond_site_symmetry_1
_geom_bond_site_symmetry_2
Cl1 C1 1_555 1_555
Cl2 C1 1_555 1_555
Cl3 C1 1_555 1_555
Cl4 C10 1_555 1_555
Cl5 C10 1_555 1_555
Cl6 C10 1_555 1_555
O1 C2 1_555 1_555
O2 C5 1_555 1_555
O3 C5 1_555 1_555
O4 C11 1_555 1_555
O5 C14 1_555 1_555
O6 C14 1_555 1_555
N1 C2 1_555 1_555
N2 N3 1_555 1_555
N4 C11 1_555 1_555
N5 N6 1_555 1_555
C1 C2 1_555 1_555
C3 N1 1_555 1_555
H1 C3 1_555 1_555
C4 N2 1_555 1_555
C5 C4 1_555 1_555
C6 C3 1_555 1_555
H2 C6 1_555 1_555
H3 C6 1_555 1_555
C7 C6 1_555 1_555
H4 C7 1_555 1_555
H5 C7 1_555 1_555
H6 C7 1_555 1_555
C8 O3 1_555 1_555
H7 C8 1_555 1_555
H8 C8 1_555 1_555
C9 C8 1_555 1_555
H9 C9 1_555 1_555
H10 C9 1_555 1_555
H11 C9 1_555 1_555
C10 C11 1_555 1_555
C12 N4 1_555 1_555
H12 C12 1_555 1_555
C13 N5 1_555 1_555
C14 C13 1_555 1_555
C15 C12 1_555 1_555
H13 C15 1_555 1_555
H14 C15 1_555 1_555
C16 C15 1_555 1_555
H15 C16 1_555 1_555
H16 C16 1_555 1_555
H17 C16 1_555 1_555
C17 O6 1_555 1_555
H18 C17 1_555 1_555
H19 C17 1_555 1_555
C18 C17 1_555 1_555
H20 C18 1_555 1_555
H21 C18 1_555 1_555
H22 C18 1_555 1_555
H23 N1 1_555 1_555
H24 N4 1_555 1_555
C3 C4 1_555 1_555
C12 C13 1_555 1_555

#END
