
#######################################################################
#
#                 Cambridge Crystallographic Data Centre
#                                CCDC 
#
#######################################################################
#
# If this CIF has been generated from an entry in the Cambridge 
# Structural Database, then it will include bibliographic, chemical, 
# crystal, experimental, refinement or atomic coordinate data resulting 
# from the CCDC's data processing and validation procedures.
#
#######################################################################

data_AJERIS
_chemical_formula_moiety         'C20 H30 O4'
_chemical_name_systematic        
2,5-dihydroxy-8-isopropyl-1,5-dimethyl-15-oxatricyclo[9.3.2.0^2,6^]hexadeca-7,11-dien-16-one
_symmetry_cell_setting           hexagonal
_symmetry_space_group_name_H-M   'P 65'
_symmetry_Int_Tables_number      170
_space_group_name_Hall           'P 65'
loop_
_symmetry_equiv_pos_site_id
_symmetry_equiv_pos_as_xyz
1 x,y,z
2 x-y,x,5/6+z
3 y,-x+y,1/6+z
4 -y,x-y,2/3+z
5 -x+y,-x,1/3+z
6 -x,-y,1/2+z
_cell_length_a                   9.8128(1)
_cell_length_b                   9.8128(1)
_cell_length_c                   32.8075(5)
_cell_angle_alpha                90
_cell_angle_beta                 90
_cell_angle_gamma                120
_cell_volume                     2735.83
_cell_formula_units_Z            6
loop_
_atom_site_label
_atom_site_type_symbol
_atom_site_fract_x
_atom_site_fract_y
_atom_site_fract_z
O1 O -0.19125(13) -0.85074(13) -0.04104(3)
O2 O -0.51273(13) -1.38223(12) -0.11632(3)
O3 O -0.62998(14) -1.33273(15) -0.16594(3)
O4 O -0.28551(14) -1.16003(14) -0.02798(3)
C1 C -0.40312(17) -1.06865(17) -0.08019(4)
C2 C -0.66978(17) -1.09603(16) -0.06360(4)
C3 C -0.78379(17) -1.09515(17) -0.03225(5)
C4 C -0.52965(17) -1.07615(16) -0.05293(4)
C5 C -0.33395(18) -1.17684(18) -0.06975(4)
C6 C -0.63295(19) -1.36587(17) -0.13001(4)
C7 C -0.84725(19) -1.30309(18) -0.11525(5)
C8 C -0.7513(2) -1.1230(2) 0.01128(5)
C9 C -0.73365(17) -1.12670(17) -0.10673(4)
C10 C -0.76976(19) -1.39713(17) -0.10408(4)
C11 C -0.8170(2) -1.49814(18) -0.07312(5)
C12 C -0.25264(18) -0.90291(18) -0.08173(4)
C13 C -0.18929(19) -1.1098(2) -0.09834(5)
C14 C -0.4439(2) -1.35640(19) -0.07491(4)
C15 C -0.7240(2) -1.56684(19) -0.05531(5)
C16 C -0.5666(2) -1.42983(19) -0.04042(5)
C17 C -0.28037(19) -0.78069(19) -0.10215(5)
C18 C -0.1331(2) -0.9339(2) -0.10369(5)
C19 C -0.3520(2) -1.4433(2) -0.07727(5)
C20 C -0.7868(2) -0.9408(2) -0.03485(6)
H1 H -0.2575(11) -0.845(3) -0.0271(2)
H2 H -0.238(2) -1.0665(2) -0.0218(2)
H3 H -0.44607(17) -1.09479(17) -0.10787(4)
H4 H -0.88922(17) -1.18053(17) -0.03939(5)
H5 H -0.50767(17) -1.06565(16) -0.02516(4)
H6 H -0.9436(9) -1.3396(4) -0.0998(4)
H7 H -0.8771(16) -1.3187(7) -0.14378(13)
H8 H -0.6484(7) -1.0411(9) 0.01924(15)
H9 H -0.8287(10) -1.1223(16) 0.02907(7)
H10 H -0.7564(16) -1.2230(7) 0.01306(10)
H11 H -0.7895(11) -1.0697(9) -0.1111(3)
H12 H -0.6460(4) -1.0886(11) -0.12560(17)
H13 H -0.9148(2) -1.52827(18) -0.06170(5)
H14 H -0.10663(19) -1.1226(10) -0.0860(4)
H15 H -0.2195(12) -1.1625(6) -0.12454(7)
H16 H -0.7809(2) -1.6357(14) -0.0327(2)
H17 H -0.7057(9) -1.6271(14) -0.0758(3)
H18 H -0.5252(2) -1.4645(12) -0.0184(3)
H19 H -0.5830(6) -1.3499(3) -0.0277(4)
H20 H -0.1828(4) -0.6829(5) -0.1039(4)
H21 H -0.3214(15) -0.8157(8) -0.12907(16)
H22 H -0.3545(12) -0.7659(12) -0.0865(2)
H23 H -0.1261(18) -0.9066(12) -0.13233(8)
H24 H -0.0286(6) -0.8695(8) -0.0924(4)
H25 H -0.2931(14) -1.4164(14) -0.1022(2)
H26 H -0.2811(13) -1.4136(14) -0.0546(3)
H27 H -0.4238(3) -1.5547(2) -0.0765(5)
H28 H -0.8060(18) -0.9231(9) -0.06251(10)
H29 H -0.8690(12) -0.9472(7) -0.0176(4)
H30 H -0.6873(7) -0.8553(3) -0.0260(4)
loop_
_geom_bond_atom_site_label_1
_geom_bond_atom_site_label_2
_geom_bond_site_symmetry_1
_geom_bond_site_symmetry_2
O1 C12 1_555 1_555
O2 C6 1_555 1_555
O3 C6 1_555 1_555
O4 C5 1_555 1_555
C1 C4 1_555 1_555
C2 C3 1_555 1_555
C3 C8 1_555 1_555
C4 C2 1_555 1_555
C5 C1 1_555 1_555
C6 C10 1_555 1_555
C7 C9 1_555 1_555
C8 H8 1_555 1_555
C9 C2 1_555 1_555
C10 C7 1_555 1_555
C11 C10 1_555 1_555
C12 C1 1_555 1_555
C13 C5 1_555 1_555
C14 O2 1_555 1_555
C15 C11 1_555 1_555
C16 C14 1_555 1_555
C17 C12 1_555 1_555
C18 C12 1_555 1_555
C19 C14 1_555 1_555
C20 C3 1_555 1_555
H1 O1 1_555 1_555
H2 O4 1_555 1_555
H3 C1 1_555 1_555
H4 C3 1_555 1_555
H5 C4 1_555 1_555
H6 C7 1_555 1_555
H7 C7 1_555 1_555
H9 C8 1_555 1_555
H10 C8 1_555 1_555
H11 C9 1_555 1_555
H12 C9 1_555 1_555
H13 C11 1_555 1_555
H14 C13 1_555 1_555
H15 C13 1_555 1_555
H16 C15 1_555 1_555
H17 C15 1_555 1_555
H18 C16 1_555 1_555
H19 C16 1_555 1_555
H20 C17 1_555 1_555
H21 C17 1_555 1_555
H22 C17 1_555 1_555
H23 C18 1_555 1_555
H24 C18 1_555 1_555
H25 C19 1_555 1_555
H26 C19 1_555 1_555
H27 C19 1_555 1_555
H28 C20 1_555 1_555
H29 C20 1_555 1_555
H30 C20 1_555 1_555
C5 C14 1_555 1_555
C13 C18 1_555 1_555
C15 C16 1_555 1_555

#END
