
#######################################################################
#
#                 Cambridge Crystallographic Data Centre
#                                CCDC 
#
#######################################################################
#
# If this CIF has been generated from an entry in the Cambridge 
# Structural Database, then it will include bibliographic, chemical, 
# crystal, experimental, refinement or atomic coordinate data resulting 
# from the CCDC's data processing and validation procedures.
#
#######################################################################

data_AJETEP
_chemical_formula_moiety         'C28 H32 N2'
_chemical_name_systematic        
1-(4-t-Butylbenzyl)-2-(4-t-butylphenyl)-1H-benzimidazole
_symmetry_cell_setting           monoclinic
_symmetry_space_group_name_H-M   'P 21/c'
_symmetry_Int_Tables_number      14
_space_group_name_Hall           '-P 2ybc'
loop_
_symmetry_equiv_pos_site_id
_symmetry_equiv_pos_as_xyz
1 x,y,z
2 -x,1/2+y,1/2-z
3 -x,-y,-z
4 x,1/2-y,1/2+z
_cell_length_a                   6.2142(5)
_cell_length_b                   21.1112(13)
_cell_length_c                   17.4624(12)
_cell_angle_alpha                90
_cell_angle_beta                 92.869(6)
_cell_angle_gamma                90
_cell_volume                     2288.01
_exptl_crystal_colour            colorless
_exptl_crystal_description       block
_cell_formula_units_Z            4
loop_
_atom_site_label
_atom_site_type_symbol
_atom_site_fract_x
_atom_site_fract_y
_atom_site_fract_z
N1 N 0.7010(2) 0.17678(6) 0.27399(7)
N2 N 1.0343(2) 0.14275(6) 0.31033(7)
C1 C 0.7112(3) 0.17535(7) 0.35346(9)
C2 C 0.5570(3) 0.18846(8) 0.40650(10)
H1 H 0.4192 0.2021 0.3913
C3 C 0.6195(3) 0.18016(9) 0.48290(10)
H2 H 0.5214 0.1884 0.5201
C4 C 0.8268(3) 0.15961(9) 0.50544(10)
H3 H 0.8632 0.1547 0.5574
C5 C 0.9793(3) 0.14633(8) 0.45281(10)
H4 H 1.1170 0.1328 0.4684
C6 C 0.9185(3) 0.15411(7) 0.37498(9)
C7 C 0.8992(2) 0.15635(7) 0.25137(9)
C8 C 0.9583(2) 0.14654(7) 0.17169(9)
C9 C 0.8876(3) 0.18418(8) 0.10959(9)
H5 H 0.7887 0.2164 0.1168
C10 C 0.9638(3) 0.17391(9) 0.03713(10)
H6 H 0.9141 0.1995 -0.0033
C11 C 1.1119(3) 0.12648(8) 0.02342(10)
C12 C 1.1810(3) 0.08896(8) 0.08579(10)
H7 H 1.2802 0.0568 0.0785
C13 C 1.1055(3) 0.09845(8) 0.15806(10)
H8 H 1.1537 0.0723 0.1982
C14 C 1.1974(3) 0.11519(9) -0.05650(10)
C15 C 1.4372(5) 0.1228(2) -0.0550(2)
H9 H 1.4726 0.1670 -0.0576
H10 H 1.4930 0.1011 -0.0980
H11 H 1.4996 0.1051 -0.0083
C16 C 1.1017(6) 0.16598(17) -0.11722(17)
H12 H 0.9475 0.1625 -0.1212
H13 H 1.1587 0.1580 -0.1664
H14 H 1.1414 0.2079 -0.1004
C17 C 1.1189(8) 0.0513(2) -0.0846(2)
H15 H 0.9695 0.0541 -0.1011
H16 H 1.1360 0.0209 -0.0438
H17 H 1.2014 0.0381 -0.1268
C18 C 0.5117(2) 0.19700(7) 0.22771(9)
H18 H 0.3834 0.1845 0.2533
H19 H 0.5100 0.1753 0.1787
C19 C 0.5039(2) 0.26793(7) 0.21354(8)
C20 C 0.6751(3) 0.30771(8) 0.23238(10)
H20 H 0.7992 0.2912 0.2568
C21 C 0.6647(3) 0.37210(8) 0.21545(10)
H21 H 0.7823 0.3976 0.2292
C22 C 0.4846(2) 0.39941(7) 0.17869(9)
C23 C 0.3127(3) 0.35908(8) 0.16148(11)
H22 H 0.1875 0.3756 0.1379
C24 C 0.3214(3) 0.29478(8) 0.17827(11)
H23 H 0.2026 0.2694 0.1656
C25 C 0.4755(3) 0.47028(7) 0.15925(10)
C26 C 0.6985(3) 0.49533(9) 0.14043(12)
H24 H 0.7489 0.4729 0.0970
H25 H 0.7974 0.4891 0.1838
H26 H 0.6887 0.5397 0.1287
C27 C 0.3234(3) 0.48367(9) 0.08955(12)
H27 H 0.3723 0.4612 0.0459
H28 H 0.3218 0.5283 0.0791
H29 H 0.1806 0.4699 0.1000
C28 C 0.3968(4) 0.50619(9) 0.22849(12)
H30 H 0.2570 0.4909 0.2404
H31 H 0.3882 0.5506 0.2168
H32 H 0.4959 0.4997 0.2717
C29? C 1.3773(13) 0.0576(4) -0.0524(3)
C30? C 1.3128(12) 0.1723(4) -0.0785(4)
C31? C 1.0230(11) 0.0946(4) -0.1102(3)
H33? H 1.3107 0.0193 -0.0360
H34? H 1.4934 0.0688 -0.0166
H35? H 1.4323 0.0514 -0.1023
H36? H 1.2128 0.2068 -0.0851
H37? H 1.3811 0.1648 -0.1258
H38? H 1.4201 0.1828 -0.0391
H39? H 0.9132 0.1266 -0.1137
H40? H 0.9627 0.0558 -0.0922
H41? H 1.0787 0.0879 -0.1598
loop_
_geom_bond_atom_site_label_1
_geom_bond_atom_site_label_2
_geom_bond_site_symmetry_1
_geom_bond_site_symmetry_2
N1 C1 1_555 1_555
N2 C6 1_555 1_555
C1 C2 1_555 1_555
C2 H1 1_555 1_555
C3 C2 1_555 1_555
H2 C3 1_555 1_555
C4 C3 1_555 1_555
H3 C4 1_555 1_555
C5 C4 1_555 1_555
H4 C5 1_555 1_555
C6 C1 1_555 1_555
C7 N1 1_555 1_555
C8 C7 1_555 1_555
C9 C8 1_555 1_555
H5 C9 1_555 1_555
C10 C9 1_555 1_555
H6 C10 1_555 1_555
C11 C10 1_555 1_555
C12 C11 1_555 1_555
H7 C12 1_555 1_555
C13 C8 1_555 1_555
H8 C13 1_555 1_555
C14 C11 1_555 1_555
C15 C14 1_555 1_555
H9 C15 1_555 1_555
H10 C15 1_555 1_555
H11 C15 1_555 1_555
C16 C14 1_555 1_555
H12 C16 1_555 1_555
H13 C16 1_555 1_555
H14 C16 1_555 1_555
C17 C14 1_555 1_555
H15 C17 1_555 1_555
H16 C17 1_555 1_555
H17 C17 1_555 1_555
C18 N1 1_555 1_555
H18 C18 1_555 1_555
H19 C18 1_555 1_555
C19 C18 1_555 1_555
C20 C19 1_555 1_555
H20 C20 1_555 1_555
C21 C20 1_555 1_555
H21 C21 1_555 1_555
C22 C21 1_555 1_555
C23 C22 1_555 1_555
H22 C23 1_555 1_555
C24 C19 1_555 1_555
H23 C24 1_555 1_555
C25 C22 1_555 1_555
C26 C25 1_555 1_555
H24 C26 1_555 1_555
H25 C26 1_555 1_555
H26 C26 1_555 1_555
C27 C25 1_555 1_555
H27 C27 1_555 1_555
H28 C27 1_555 1_555
H29 C27 1_555 1_555
C28 C25 1_555 1_555
H30 C28 1_555 1_555
H31 C28 1_555 1_555
H32 C28 1_555 1_555
N2 C7 1_555 1_555
C5 C6 1_555 1_555
C12 C13 1_555 1_555
C23 C24 1_555 1_555

#END
