
#######################################################################
#
#                 Cambridge Crystallographic Data Centre
#                                CCDC 
#
#######################################################################
#
# If this CIF has been generated from an entry in the Cambridge 
# Structural Database, then it will include bibliographic, chemical, 
# crystal, experimental, refinement or atomic coordinate data resulting 
# from the CCDC's data processing and validation procedures.
#
#######################################################################

data_AJEWOC
_chemical_formula_moiety         'C12 H11 N1 O2'
_chemical_name_systematic        2-(4-Pyridylmethoxy)phenol
_symmetry_cell_setting           orthorhombic
_symmetry_space_group_name_H-M   'P b c a'
_symmetry_Int_Tables_number      61
_space_group_name_Hall           '-P 2ac 2ab'
loop_
_symmetry_equiv_pos_site_id
_symmetry_equiv_pos_as_xyz
1 x,y,z
2 1/2-x,-y,1/2+z
3 -x,1/2+y,1/2-z
4 1/2+x,1/2-y,-z
5 -x,-y,-z
6 1/2+x,y,1/2-z
7 x,1/2-y,1/2+z
8 1/2-x,1/2+y,z
_cell_length_a                   11.800(3)
_cell_length_b                   9.114(4)
_cell_length_c                   19.041(7)
_cell_angle_alpha                90
_cell_angle_beta                 90
_cell_angle_gamma                90
_cell_volume                     2047.77
_exptl_crystal_colour            colorless
_exptl_crystal_description       block
_cell_formula_units_Z            8
_exptl_crystal_recrystallization_method methanol
loop_
_atom_site_label
_atom_site_type_symbol
_atom_site_fract_x
_atom_site_fract_y
_atom_site_fract_z
C1 C 0.0611(2) -0.0878(3) 0.41781(16)
H1 H 0.0138 -0.0732 0.3794
C2 C 0.0381(2) -0.1961(3) 0.46523(17)
H2 H -0.0256 -0.2541 0.4577
C3 C 0.1917(2) -0.1394(3) 0.53017(15)
H3 H 0.2377 -0.1565 0.5690
C4 C 0.2214(2) -0.0278(3) 0.48491(15)
H4 H 0.2859 0.0280 0.4934
C5 C 0.1553(2) 0.0002(3) 0.42746(14)
C6 C 0.1845(2) 0.1187(3) 0.37560(15)
H5 H 0.2593 0.1576 0.3856
H6 H 0.1849 0.0789 0.3284
C7 C 0.1055(2) 0.3409(3) 0.33056(13)
C8 C 0.1831(2) 0.3476(3) 0.27619(14)
H7 H 0.2389 0.2761 0.2721
C9 C 0.1775(2) 0.4614(3) 0.22763(14)
H8 H 0.2288 0.4653 0.1906
C10 C 0.0966(2) 0.5674(3) 0.23453(15)
H9 H 0.0934 0.6441 0.2024
C11 C 0.0199(2) 0.5614(3) 0.28856(15)
H10 H -0.0347 0.6345 0.2927
C12 C 0.0226(2) 0.4485(3) 0.33687(14)
N1 N 0.1011(2) -0.2237(2) 0.52130(12)
O1 O 0.10215(15) 0.23246(18) 0.38082(9)
O2 O -0.05674(18) 0.4472(2) 0.38861(11)
H11 H -0.0530 0.3694 0.4101
loop_
_geom_bond_atom_site_label_1
_geom_bond_atom_site_label_2
_geom_bond_site_symmetry_1
_geom_bond_site_symmetry_2
C1 H1 1_555 1_555
C2 C1 1_555 1_555
H2 C2 1_555 1_555
C3 H3 1_555 1_555
C4 C3 1_555 1_555
H4 C4 1_555 1_555
C5 C1 1_555 1_555
C6 C5 1_555 1_555
H5 C6 1_555 1_555
H6 C6 1_555 1_555
C7 C8 1_555 1_555
C8 H7 1_555 1_555
C9 C8 1_555 1_555
H8 C9 1_555 1_555
C10 C9 1_555 1_555
H9 C10 1_555 1_555
C11 C10 1_555 1_555
H10 C11 1_555 1_555
C12 C7 1_555 1_555
N1 C2 1_555 1_555
O1 C6 1_555 1_555
O2 C12 1_555 1_555
H11 O2 1_555 1_555
C3 N1 1_555 1_555
C4 C5 1_555 1_555
C7 O1 1_555 1_555
C11 C12 1_555 1_555

#END
