
#######################################################################
#
#                 Cambridge Crystallographic Data Centre
#                                CCDC 
#
#######################################################################
#
# If this CIF has been generated from an entry in the Cambridge 
# Structural Database, then it will include bibliographic, chemical, 
# crystal, experimental, refinement or atomic coordinate data resulting 
# from the CCDC's data processing and validation procedures.
#
#######################################################################

data_AJEZIZ
_chemical_formula_moiety         'C27 H32 N2 O4 S1'
_chemical_name_systematic        
'Ethyl 4-hydroxy-2,6-diphenyl-1-(2-(thiomorpholin-4-yl)propanoyl)-1,2,5,6-tetrahydropyridine-3-carboxylate'
_symmetry_cell_setting           triclinic
_symmetry_space_group_name_H-M   'P -1'
_symmetry_Int_Tables_number      2
_space_group_name_Hall           '-P 1'
loop_
_symmetry_equiv_pos_site_id
_symmetry_equiv_pos_as_xyz
1 x,y,z
2 -x,-y,-z
_cell_length_a                   9.904(3)
_cell_length_b                   11.400(4)
_cell_length_c                   12.103(4)
_cell_angle_alpha                93.908(18)
_cell_angle_beta                 104.941(15)
_cell_angle_gamma                106.819(16)
_cell_volume                     1248.67
_exptl_crystal_colour            colorless
_exptl_crystal_description       block
_cell_formula_units_Z            2
_exptl_crystal_recrystallization_method ethanol
loop_
_atom_site_label
_atom_site_type_symbol
_atom_site_fract_x
_atom_site_fract_y
_atom_site_fract_z
C1 C 1.19148(14) 0.27730(12) 0.23357(11)
H1 H 1.2819 0.2883 0.2959
C2 C 1.22176(15) 0.24683(13) 0.12043(12)
H2 H 1.2817 0.3218 0.1013
H3 H 1.2769 0.1885 0.1293
C3 C 1.08292(15) 0.19255(12) 0.02448(11)
C4 C 0.95026(14) 0.14479(11) 0.04268(10)
C5 C 0.93213(13) 0.13505(11) 0.16238(10)
H4 H 0.8828 0.0472 0.1626
C6 C 1.10345(14) 0.08311(12) 0.31764(10)
C7 C 1.25989(15) 0.11016(13) 0.39709(11)
H5 H 1.3274 0.1358 0.3501
C8 C 1.45086(15) 0.27218(15) 0.54032(13)
H6 H 1.4994 0.2871 0.4801
H7 H 1.4889 0.2154 0.5853
C9 C 1.4863(2) 0.39292(17) 0.61776(16)
H8 H 1.4450 0.4485 0.5733
H9 H 1.5924 0.4315 0.6454
C10 C 1.2279(2) 0.29267(17) 0.65584(14)
H10 H 1.1697 0.2655 0.7082
H11 H 1.1886 0.3499 0.6126
C11 C 1.21338(17) 0.18191(15) 0.57289(12)
H12 H 1.2508 0.1239 0.6163
H13 H 1.1099 0.1405 0.5329
C12 C 1.15095(14) 0.39523(12) 0.24545(11)
C13 C 1.12638(16) 0.43177(14) 0.34780(13)
H14 H 1.1291 0.3814 0.4051
C14 C 1.0980(2) 0.54136(16) 0.36610(16)
H15 H 1.0809 0.5643 0.4352
C15 C 1.0948(2) 0.61727(16) 0.28258(18)
H16 H 1.0773 0.6922 0.2955
C16 C 1.1173(2) 0.58217(16) 0.18069(17)
H17 H 1.1135 0.6327 0.1235
C17 C 1.14591(18) 0.47184(13) 0.16176(13)
H18 H 1.1618 0.4490 0.0921
C18 C 0.83851(13) 0.20571(12) 0.19968(11)
C19 C 0.80193(16) 0.18358(14) 0.30119(12)
H19 H 0.8339 0.1262 0.3429
C20 C 0.71920(19) 0.24515(16) 0.34109(15)
H20 H 0.6955 0.2294 0.4093
C21 C 0.6719(2) 0.32964(16) 0.28039(16)
H21 H 0.6165 0.3720 0.3075
C22 C 0.7062(2) 0.35187(16) 0.17939(16)
H22 H 0.6733 0.4090 0.1379
C23 C 0.78906(16) 0.29013(13) 0.13889(12)
H23 H 0.8116 0.3057 0.0702
C24 C 1.2782(2) -0.00907(15) 0.43919(14)
H24 H 1.3719 0.0096 0.4965
H25 H 1.2733 -0.0661 0.3751
H26 H 1.2008 -0.0457 0.4725
C25 C 0.82265(15) 0.08996(12) -0.05693(11)
C26 C 0.56361(17) -0.00482(15) -0.12584(13)
H27 H 0.4891 -0.0668 -0.1038
H28 H 0.5820 -0.0430 -0.1922
C27 C 0.5094(2) 0.1005(2) -0.15733(19)
H29 H 0.4967 0.1411 -0.0904
H30 H 0.4167 0.0701 -0.2167
H31 H 0.5797 0.1585 -0.1852
N1 N 1.07728(11) 0.16791(10) 0.24818(9)
N2 N 1.29325(11) 0.21563(10) 0.48737(9)
O1 O 1.00568(11) -0.01107(9) 0.31843(9)
O2 O 1.10662(12) 0.19398(11) -0.07897(9)
H32 H 1.0283 0.1614 -0.1296
O3 O 0.82742(12) 0.08937(11) -0.15678(8)
O4 O 0.69839(10) 0.03850(9) -0.03050(8)
S1 S 1.41530(6) 0.37181(4) 0.73873(4)
loop_
_geom_bond_atom_site_label_1
_geom_bond_atom_site_label_2
_geom_bond_site_symmetry_1
_geom_bond_site_symmetry_2
C1 H1 1_555 1_555
C2 C1 1_555 1_555
H2 C2 1_555 1_555
H3 C2 1_555 1_555
C3 C2 1_555 1_555
C4 C3 1_555 1_555
C5 C4 1_555 1_555
H4 C5 1_555 1_555
C6 C7 1_555 1_555
C7 H5 1_555 1_555
C8 H6 1_555 1_555
H7 C8 1_555 1_555
C9 C8 1_555 1_555
H8 C9 1_555 1_555
H9 C9 1_555 1_555
C10 H10 1_555 1_555
H11 C10 1_555 1_555
C11 C10 1_555 1_555
H12 C11 1_555 1_555
H13 C11 1_555 1_555
C12 C1 1_555 1_555
C13 C12 1_555 1_555
H14 C13 1_555 1_555
C14 C13 1_555 1_555
H15 C14 1_555 1_555
C15 C14 1_555 1_555
H16 C15 1_555 1_555
C16 C15 1_555 1_555
H17 C16 1_555 1_555
C17 C12 1_555 1_555
H18 C17 1_555 1_555
C18 C5 1_555 1_555
C19 C18 1_555 1_555
H19 C19 1_555 1_555
C20 C19 1_555 1_555
H20 C20 1_555 1_555
C21 C20 1_555 1_555
H21 C21 1_555 1_555
C22 C21 1_555 1_555
H22 C22 1_555 1_555
C23 C18 1_555 1_555
H23 C23 1_555 1_555
C24 C7 1_555 1_555
H24 C24 1_555 1_555
H25 C24 1_555 1_555
H26 C24 1_555 1_555
C25 C4 1_555 1_555
C26 H27 1_555 1_555
H28 C26 1_555 1_555
C27 C26 1_555 1_555
H29 C27 1_555 1_555
H30 C27 1_555 1_555
H31 C27 1_555 1_555
N1 C1 1_555 1_555
N2 C7 1_555 1_555
O1 C6 1_555 1_555
O2 C3 1_555 1_555
H32 O2 1_555 1_555
O3 C25 1_555 1_555
O4 C25 1_555 1_555
S1 C9 1_555 1_555
C5 N1 1_555 1_555
C6 N1 1_555 1_555
C8 N2 1_555 1_555
C10 S1 1_555 1_555
C11 N2 1_555 1_555
C16 C17 1_555 1_555
C22 C23 1_555 1_555
C26 O4 1_555 1_555

#END
