
#######################################################################
#
#                 Cambridge Crystallographic Data Centre
#                                CCDC 
#
#######################################################################
#
# If this CIF has been generated from an entry in the Cambridge 
# Structural Database, then it will include bibliographic, chemical, 
# crystal, experimental, refinement or atomic coordinate data resulting 
# from the CCDC's data processing and validation procedures.
#
#######################################################################

data_AJIBEB
_chemical_name_common            
bis(1-(5-chloro-2-methoxyphenyl)ethylidene)hydrazine
_chemical_formula_moiety         'C18 H18 Cl2 N2 O2'
_chemical_name_systematic        
(E,E)-2,5-bis(5-chloro-2-methoxyphenyl)-3,4-diazahexa-2,4-diene
_symmetry_cell_setting           orthorhombic
_symmetry_space_group_name_H-M   'P 21 21 2'
_symmetry_Int_Tables_number      18
_space_group_name_Hall           'P 2 2ab'
loop_
_symmetry_equiv_pos_site_id
_symmetry_equiv_pos_as_xyz
1 x,y,z
2 -x,-y,z
3 1/2-x,1/2+y,-z
4 1/2+x,1/2-y,-z
_cell_length_a                   7.9030(19)
_cell_length_b                   27.862(7)
_cell_length_c                   3.9819(10)
_cell_angle_alpha                90
_cell_angle_beta                 90
_cell_angle_gamma                90
_cell_volume                     876.788
_exptl_crystal_colour            colorless
_exptl_crystal_description       block
_cell_formula_units_Z            2
_exptl_crystal_recrystallization_method acetone
loop_
_atom_site_label
_atom_site_type_symbol
_atom_site_fract_x
_atom_site_fract_y
_atom_site_fract_z
Cl1 Cl 0.35358(10) 0.29469(2) 0.1116(2)
O1 O 0.9306(2) 0.40920(6) 0.5876(6)
N1 N 0.5044(3) 0.47464(6) 0.4965(5)
C1 C 0.6541(3) 0.40440(7) 0.3671(6)
C2 C 0.8000(3) 0.38071(8) 0.4798(6)
C3 C 0.8050(4) 0.33068(10) 0.4871(7)
H1 H 0.9006 0.3150 0.5674
C4 C 0.6670(3) 0.30434(8) 0.3743(7)
H2 H 0.6702 0.2710 0.3770
C5 C 0.5261(4) 0.32784(9) 0.2588(7)
C6 C 0.5175(3) 0.37744(8) 0.2532(6)
H3 H 0.4208 0.3927 0.1736
C7 C 1.0770(4) 0.38654(12) 0.7221(9)
H4 H 1.0453 0.3671 0.9111
H5 H 1.1565 0.4106 0.7929
H6 H 1.1279 0.3667 0.5532
C8 C 0.6407(3) 0.45789(8) 0.3653(6)
C9 C 0.7746(3) 0.48801(9) 0.2056(7)
H7 H 0.7244 0.5081 0.0369
H8 H 0.8580 0.4676 0.1039
H9 H 0.8274 0.5077 0.3734
Cl1A Cl 0.64642(10) 0.70531(2) 0.1116(2)
O1A O 0.0694(2) 0.59080(6) 0.5876(6)
N1A N 0.4956(3) 0.52536(6) 0.4965(5)
C1A C 0.3459(3) 0.59560(7) 0.3671(6)
C2A C 0.2000(3) 0.61929(8) 0.4798(6)
C3A C 0.1950(4) 0.66932(10) 0.4871(7)
H1A H 0.0994 0.6850 0.5674
C4A C 0.3330(3) 0.69566(8) 0.3743(7)
H2A H 0.3298 0.7290 0.3770
C5A C 0.4739(4) 0.67216(9) 0.2588(7)
C6A C 0.4825(3) 0.62256(8) 0.2532(6)
H3A H 0.5792 0.6073 0.1736
C7A C -0.0770(4) 0.61346(12) 0.7221(9)
H4A H -0.0453 0.6329 0.9111
H5A H -0.1565 0.5894 0.7929
H6A H -0.1279 0.6333 0.5532
C8A C 0.3593(3) 0.54211(8) 0.3653(6)
C9A C 0.2254(3) 0.51199(9) 0.2056(7)
H7A H 0.2756 0.4919 0.0369
H8A H 0.1420 0.5324 0.1039
H9A H 0.1726 0.4923 0.3734
loop_
_geom_bond_atom_site_label_1
_geom_bond_atom_site_label_2
_geom_bond_site_symmetry_1
_geom_bond_site_symmetry_2
Cl1 C5 1_555 1_555
O1 C2 1_555 1_555
N1 C8 1_555 1_555
C1 C2 1_555 1_555
C2 C3 1_555 1_555
C3 H1 1_555 1_555
C4 C3 1_555 1_555
H2 C4 1_555 1_555
C5 C4 1_555 1_555
C6 C1 1_555 1_555
H3 C6 1_555 1_555
C7 O1 1_555 1_555
H4 C7 1_555 1_555
H5 C7 1_555 1_555
H6 C7 1_555 1_555
C8 C1 1_555 1_555
C9 C8 1_555 1_555
H7 C9 1_555 1_555
H8 C9 1_555 1_555
H9 C9 1_555 1_555
Cl1A C5A 1_555 1_555
O1A C2A 1_555 1_555
N1A N1 1_555 1_555
C1A C2A 1_555 1_555
C2A C3A 1_555 1_555
C3A H1A 1_555 1_555
C4A C3A 1_555 1_555
H2A C4A 1_555 1_555
C5A C4A 1_555 1_555
C6A C1A 1_555 1_555
H3A C6A 1_555 1_555
C7A O1A 1_555 1_555
H4A C7A 1_555 1_555
H5A C7A 1_555 1_555
H6A C7A 1_555 1_555
C8A N1A 1_555 1_555
C9A C8A 1_555 1_555
H7A C9A 1_555 1_555
H8A C9A 1_555 1_555
H9A C9A 1_555 1_555
C5 C6 1_555 1_555
C1A C8A 1_555 1_555
C5A C6A 1_555 1_555

#END
