
#######################################################################
#
#                 Cambridge Crystallographic Data Centre
#                                CCDC 
#
#######################################################################
#
# If this CIF has been generated from an entry in the Cambridge 
# Structural Database, then it will include bibliographic, chemical, 
# crystal, experimental, refinement or atomic coordinate data resulting 
# from the CCDC's data processing and validation procedures.
#
#######################################################################

data_AJISIX
_chemical_name_common            
"N,N'-pyridine-2,6-diylbis(2-methylpropanamide) 7-((4-(dimethylamino)phenyl)ethynyl)-1,5,7-trimethyl-3-azabicyclo[3.3.1]nonane-2,4-dione"
_chemical_formula_moiety         'C21 H26 N2 O2,C13 H19 N3 O2'
_chemical_name_systematic        
"(1R,5S,7r)-7-([4-(Dimethylamino)phenyl]ethynyl)-1,5,7-trimethyl-3-azabicyclo[3.3.1]nonane-2,4-dione and N,N'-(pyridine-2,6-diyl)bis(2-methylpropanamide)"
_symmetry_cell_setting           monoclinic
_symmetry_space_group_name_H-M   'P 21/c'
_symmetry_Int_Tables_number      14
_space_group_name_Hall           '-P 2ybc'
loop_
_symmetry_equiv_pos_site_id
_symmetry_equiv_pos_as_xyz
1 x,y,z
2 -x,1/2+y,1/2-z
3 -x,-y,-z
4 x,1/2-y,1/2+z
_cell_length_a                   14.7314(8)
_cell_length_b                   20.9219(12)
_cell_length_c                   21.3156(13)
_cell_angle_alpha                90
_cell_angle_beta                 99.323(2)
_cell_angle_gamma                90
_cell_volume                     6482.88
_exptl_crystal_colour            colorless
_exptl_crystal_description       needle
_cell_formula_units_Z            8
loop_
_atom_site_label
_atom_site_type_symbol
_atom_site_fract_x
_atom_site_fract_y
_atom_site_fract_z
O1 O 0.37115(15) 0.47451(9) 0.79096(10)
O2 O 0.40207(15) 0.26306(10) 0.77481(10)
N1 N 0.37362(17) 0.36764(11) 0.78408(11)
H1 H 0.382(2) 0.3724(13) 0.7432(9)
N2 N 0.69460(18) 0.39161(13) 0.56619(12)
C1 C 0.3713(2) 0.42319(14) 0.81819(14)
C2 C 0.3664(2) 0.41717(14) 0.88894(14)
C3 C 0.4634(2) 0.42162(14) 0.92781(14)
H2 H 0.4576 0.4237 0.9734
H3 H 0.4914 0.4623 0.9169
C4 C 0.5302(2) 0.36707(15) 0.91903(14)
C5 C 0.5675(2) 0.37527(16) 0.85944(15)
C6 C 0.5966(2) 0.38063(16) 0.81045(15)
C7 C 0.6274(2) 0.38402(15) 0.75010(15)
C8 C 0.6464(2) 0.44187(16) 0.72303(15)
H4 H 0.6427 0.4804 0.7460
C9 C 0.6708(2) 0.44424(16) 0.66284(15)
H5 H 0.6845 0.4843 0.6456
C10 C 0.6756(2) 0.38873(16) 0.62713(15)
C11 C 0.7106(2) 0.45255(17) 0.53819(16)
H6 H 0.6561 0.4797 0.5371
H7 H 0.7227 0.4460 0.4948
H8 H 0.7637 0.4734 0.5637
C12 C 0.3076(2) 0.47171(15) 0.90749(15)
H9 H 0.2464 0.4699 0.8815
H10 H 0.3368 0.5126 0.9005
H11 H 0.3019 0.4677 0.9525
C13 C 0.6102(2) 0.36800(18) 0.97520(15)
H12 H 0.6523 0.3326 0.9708
H13 H 0.5859 0.3634 1.0151
H14 H 0.6433 0.4086 0.9754
C14 C 0.4806(2) 0.30211(14) 0.91838(14)
H15 H 0.5192 0.2695 0.9018
H16 H 0.4765 0.2904 0.9628
C15 C 0.3832(2) 0.29868(14) 0.87922(14)
C16 C 0.3257(2) 0.35247(14) 0.90063(14)
H17 H 0.2621 0.3498 0.8771
H18 H 0.3230 0.3476 0.9465
C17 C 0.3407(2) 0.23369(15) 0.88845(15)
H19 H 0.2796 0.2312 0.8624
H20 H 0.3352 0.2281 0.9333
H21 H 0.3800 0.1999 0.8756
C18 C 0.3876(2) 0.30756(14) 0.80913(14)
C19 C 0.6353(2) 0.32869(16) 0.71535(15)
H22 H 0.6240 0.2885 0.7334
C20 C 0.6591(2) 0.33034(16) 0.65539(15)
H23 H 0.6644 0.2916 0.6331
C21 C 0.6923(2) 0.33391(17) 0.52748(16)
H24 H 0.7416 0.3049 0.5463
H25 H 0.7012 0.3454 0.4843
H26 H 0.6327 0.3127 0.5259
O3 O -0.10287(16) 0.48111(10) 0.78603(10)
O4 O -0.12699(14) 0.26826(9) 0.78171(9)
N3 N 0.18993(19) 0.35884(14) 0.56507(13)
N4 N -0.12783(16) 0.37515(11) 0.78514(12)
H27 H -0.1177(19) 0.3760(13) 0.7439(9)
C22 C 0.1854(2) 0.29955(17) 0.52994(16)
H28 H 0.2350 0.2712 0.5493
H29 H 0.1922 0.3083 0.4858
H30 H 0.1259 0.2789 0.5309
C23 C 0.1716(2) 0.36021(16) 0.62623(15)
C24 C 0.1566(2) 0.30403(16) 0.65872(15)
H31 H 0.1619 0.2638 0.6390
C25 C 0.1340(2) 0.30635(16) 0.71899(15)
H32 H 0.1238 0.2676 0.7400
C26 C 0.1260(2) 0.36414(15) 0.74967(15)
C27 C 0.0958(2) 0.36636(15) 0.81044(15)
C28 C 0.0657(2) 0.36831(14) 0.85923(15)
C29 C 0.0290(2) 0.36919(14) 0.91983(14)
C30 C -0.0341(2) 0.31106(14) 0.92356(14)
H33 H -0.0397 0.3041 0.9687
H34 H -0.0036 0.2729 0.9091
C31 C -0.1318(2) 0.31532(14) 0.88481(14)
C32 C -0.12828(19) 0.31646(14) 0.81383(14)
C33 C -0.1760(2) 0.37673(14) 0.90252(15)
H35 H -0.1791 0.3765 0.9486
H36 H -0.2397 0.3795 0.8791
C34 C -0.1216(2) 0.43456(14) 0.88676(14)
C35 C -0.1682(3) 0.49668(16) 0.90120(17)
H37 H -0.2301 0.4985 0.8761
H38 H -0.1320 0.5331 0.8902
H39 H -0.1725 0.4984 0.9466
C36 C -0.1163(2) 0.43316(14) 0.81570(15)
C37 C -0.0242(2) 0.43182(14) 0.92570(15)
H40 H -0.0289 0.4385 0.9711
H41 H 0.0120 0.4677 0.9123
C38 C 0.1105(2) 0.36561(16) 0.97491(15)
H42 H 0.1452 0.3261 0.9713
H43 H 0.0874 0.3659 1.0155
H44 H 0.1509 0.4025 0.9730
C39 C 0.1670(2) 0.41819(16) 0.65821(15)
H45 H 0.1798 0.4570 0.6382
C40 C 0.1441(2) 0.41976(15) 0.71862(15)
H46 H 0.1408 0.4597 0.7392
C41 C 0.2054(2) 0.41762(18) 0.53279(17)
H47 H 0.1486 0.4428 0.5257
H48 H 0.2242 0.4077 0.4918
H49 H 0.2541 0.4422 0.5590
C42 C -0.1870(2) 0.25710(15) 0.89932(15)
H50 H -0.1921 0.2568 0.9446
H51 H -0.1557 0.2181 0.8888
H52 H -0.2486 0.2589 0.8739
O5 O 0.40465(17) 0.19965(10) 0.55871(10)
O6 O 0.43658(18) 0.57329(10) 0.59867(11)
N5 N 0.41339(18) 0.26937(12) 0.64164(12)
H53 H 0.408(2) 0.2701(14) 0.6836(9)
N6 N 0.41493(16) 0.37951(11) 0.64715(11)
N7 N 0.41419(17) 0.48841(11) 0.66153(12)
H54 H 0.3976(19) 0.4792(13) 0.6995(10)
C43 C 0.4442(3) 0.09533(16) 0.64103(18)
H55 H 0.4402 0.0613 0.6721
H56 H 0.5089 0.1038 0.6385
H57 H 0.4120 0.0820 0.5992
C44 C 0.4000(2) 0.15547(14) 0.66161(15)
H58 H 0.4333 0.1682 0.7045
C45 C 0.4070(2) 0.20980(14) 0.61586(15)
C46 C 0.4251(2) 0.32805(14) 0.61147(14)
C47 C 0.43063(19) 0.43684(14) 0.62278(14)
C48 C 0.4127(2) 0.55175(14) 0.64655(15)
C49 C 0.3736(2) 0.59505(14) 0.69301(15)
H59 H 0.3953 0.5798 0.7374
C50 C 0.4058(2) 0.66352(15) 0.68648(17)
H60 H 0.4732 0.6645 0.6924
H61 H 0.3843 0.6903 0.7188
H62 H 0.3808 0.6797 0.6441
C51 C 0.2996(3) 0.14474(17) 0.6665(2)
H63 H 0.2650 0.1357 0.6242
H64 H 0.2747 0.1832 0.6838
H65 H 0.2943 0.1084 0.6948
C52 C 0.4481(2) 0.33154(15) 0.55123(14)
H66 H 0.4521 0.2941 0.5266
C53 C 0.4651(2) 0.39108(14) 0.52802(14)
H67 H 0.4822 0.3950 0.4871
C54 C 0.45751(19) 0.44465(14) 0.56379(14)
H68 H 0.4702 0.4859 0.5487
C55 C 0.2683(2) 0.59129(16) 0.67877(17)
H69 H 0.2421 0.6222 0.7053
H70 H 0.2485 0.5481 0.6880
H71 H 0.2472 0.6012 0.6338
O7 O 0.1294(2) 0.80904(11) 0.43461(11)
O8 O 0.03312(19) 0.44136(11) 0.41128(11)
N8 N 0.10579(18) 0.73750(11) 0.35304(12)
H72 H 0.112(2) 0.7312(14) 0.3115(9)
N9 N 0.08541(16) 0.62786(11) 0.35286(11)
N10 N 0.06909(17) 0.51884(11) 0.34473(12)
H73 H 0.0901(19) 0.5240(14) 0.3080(10)
C56 C 0.2589(3) 0.85280(17) 0.34481(18)
H74 H 0.2767 0.8896 0.3211
H75 H 0.2870 0.8140 0.3308
H76 H 0.2802 0.8592 0.3904
C57 C 0.1547(2) 0.84593(14) 0.33268(15)
H77 H 0.1341 0.8315 0.2879
C58 C 0.1280(2) 0.79605(15) 0.37823(16)
C59 C 0.0829(2) 0.68230(14) 0.38532(14)
C60 C 0.0650(2) 0.57376(14) 0.38175(14)
C61 C 0.0551(2) 0.45725(15) 0.36061(15)
C62 C 0.0713(2) 0.40811(14) 0.31173(16)
H78 H 0.0433 0.4242 0.2687
C63 C 0.1743(2) 0.39963(16) 0.31292(18)
H79 H 0.2010 0.4401 0.3017
H80 H 0.1846 0.3667 0.2822
H81 H 0.2034 0.3867 0.3556
C64 C 0.0259(3) 0.34505(15) 0.32344(18)
H82 H 0.0544 0.3277 0.3647
H83 H 0.0339 0.3147 0.2897
H84 H -0.0399 0.3520 0.3235
C65 C 0.1085(3) 0.90885(16) 0.34349(18)
H85 H 0.1287 0.9231 0.3873
H86 H 0.0416 0.9031 0.3361
H87 H 0.1252 0.9411 0.3140
C66 C 0.0600(2) 0.68565(15) 0.44590(15)
H88 H 0.0577 0.7255 0.4670
C67 C 0.0406(2) 0.62922(15) 0.47439(15)
H89 H 0.0254 0.6298 0.5160
C68 C 0.0431(2) 0.57212(15) 0.44290(15)
H90 H 0.0304 0.5329 0.4622
loop_
_geom_bond_atom_site_label_1
_geom_bond_atom_site_label_2
_geom_bond_site_symmetry_1
_geom_bond_site_symmetry_2
O1 C1 1_555 1_555
O2 C18 1_555 1_555
N1 H1 1_555 1_555
N2 C10 1_555 1_555
C1 N1 1_555 1_555
C2 C1 1_555 1_555
C3 C2 1_555 1_555
H2 C3 1_555 1_555
H3 C3 1_555 1_555
C4 C3 1_555 1_555
C5 C4 1_555 1_555
C6 C5 1_555 1_555
C7 C6 1_555 1_555
C8 C7 1_555 1_555
H4 C8 1_555 1_555
C9 C8 1_555 1_555
H5 C9 1_555 1_555
C10 C9 1_555 1_555
C11 N2 1_555 1_555
H6 C11 1_555 1_555
H7 C11 1_555 1_555
H8 C11 1_555 1_555
C12 C2 1_555 1_555
H9 C12 1_555 1_555
H10 C12 1_555 1_555
H11 C12 1_555 1_555
C13 C4 1_555 1_555
H12 C13 1_555 1_555
H13 C13 1_555 1_555
H14 C13 1_555 1_555
C14 C4 1_555 1_555
H15 C14 1_555 1_555
H16 C14 1_555 1_555
C15 C14 1_555 1_555
C16 C2 1_555 1_555
H17 C16 1_555 1_555
H18 C16 1_555 1_555
C17 C15 1_555 1_555
H19 C17 1_555 1_555
H20 C17 1_555 1_555
H21 C17 1_555 1_555
C18 N1 1_555 1_555
C19 C7 1_555 1_555
H22 C19 1_555 1_555
C20 C10 1_555 1_555
H23 C20 1_555 1_555
C21 N2 1_555 1_555
H24 C21 1_555 1_555
H25 C21 1_555 1_555
H26 C21 1_555 1_555
O3 C36 1_555 1_555
O4 C32 1_555 1_555
N3 C22 1_555 1_555
N4 H27 1_555 1_555
C22 H28 1_555 1_555
H29 C22 1_555 1_555
H30 C22 1_555 1_555
C23 N3 1_555 1_555
C24 C23 1_555 1_555
H31 C24 1_555 1_555
C25 C24 1_555 1_555
H32 C25 1_555 1_555
C26 C25 1_555 1_555
C27 C26 1_555 1_555
C28 C27 1_555 1_555
C29 C28 1_555 1_555
C30 C29 1_555 1_555
H33 C30 1_555 1_555
H34 C30 1_555 1_555
C31 C30 1_555 1_555
C32 N4 1_555 1_555
C33 C31 1_555 1_555
H35 C33 1_555 1_555
H36 C33 1_555 1_555
C34 C33 1_555 1_555
C35 C34 1_555 1_555
H37 C35 1_555 1_555
H38 C35 1_555 1_555
H39 C35 1_555 1_555
C36 N4 1_555 1_555
C37 C29 1_555 1_555
H40 C37 1_555 1_555
H41 C37 1_555 1_555
C38 C29 1_555 1_555
H42 C38 1_555 1_555
H43 C38 1_555 1_555
H44 C38 1_555 1_555
C39 C23 1_555 1_555
H45 C39 1_555 1_555
C40 C26 1_555 1_555
H46 C40 1_555 1_555
C41 N3 1_555 1_555
H47 C41 1_555 1_555
H48 C41 1_555 1_555
H49 C41 1_555 1_555
C42 C31 1_555 1_555
H50 C42 1_555 1_555
H51 C42 1_555 1_555
H52 C42 1_555 1_555
O5 C45 1_555 1_555
O6 C48 1_555 1_555
N5 H53 1_555 1_555
N6 C46 1_555 1_555
N7 H54 1_555 1_555
C43 H55 1_555 1_555
H56 C43 1_555 1_555
H57 C43 1_555 1_555
C44 C43 1_555 1_555
H58 C44 1_555 1_555
C45 N5 1_555 1_555
C46 N5 1_555 1_555
C47 N6 1_555 1_555
C48 N7 1_555 1_555
C49 C48 1_555 1_555
H59 C49 1_555 1_555
C50 C49 1_555 1_555
H60 C50 1_555 1_555
H61 C50 1_555 1_555
H62 C50 1_555 1_555
C51 C44 1_555 1_555
H63 C51 1_555 1_555
H64 C51 1_555 1_555
H65 C51 1_555 1_555
C52 C46 1_555 1_555
H66 C52 1_555 1_555
C53 C52 1_555 1_555
H67 C53 1_555 1_555
C54 C47 1_555 1_555
H68 C54 1_555 1_555
C55 C49 1_555 1_555
H69 C55 1_555 1_555
H70 C55 1_555 1_555
H71 C55 1_555 1_555
O7 C58 1_555 1_555
O8 C61 1_555 1_555
N8 H72 1_555 1_555
N9 C59 1_555 1_555
N10 H73 1_555 1_555
C56 H74 1_555 1_555
H75 C56 1_555 1_555
H76 C56 1_555 1_555
C57 C56 1_555 1_555
H77 C57 1_555 1_555
C58 N8 1_555 1_555
C59 N8 1_555 1_555
C60 N9 1_555 1_555
C61 N10 1_555 1_555
C62 C61 1_555 1_555
H78 C62 1_555 1_555
C63 C62 1_555 1_555
H79 C63 1_555 1_555
H80 C63 1_555 1_555
H81 C63 1_555 1_555
C64 C62 1_555 1_555
H82 C64 1_555 1_555
H83 C64 1_555 1_555
H84 C64 1_555 1_555
C65 C57 1_555 1_555
H85 C65 1_555 1_555
H86 C65 1_555 1_555
H87 C65 1_555 1_555
C66 C59 1_555 1_555
H88 C66 1_555 1_555
C67 C66 1_555 1_555
H89 C67 1_555 1_555
C68 C60 1_555 1_555
H90 C68 1_555 1_555
C15 C16 1_555 1_555
C15 C18 1_555 1_555
C19 C20 1_555 1_555
C31 C32 1_555 1_555
C34 C36 1_555 1_555
C34 C37 1_555 1_555
C39 C40 1_555 1_555
N7 C47 1_555 1_555
C44 C45 1_555 1_555
C53 C54 1_555 1_555
N10 C60 1_555 1_555
C57 C58 1_555 1_555
C67 C68 1_555 1_555

#END
