
#######################################################################
#
#                 Cambridge Crystallographic Data Centre
#                                CCDC 
#
#######################################################################
#
# If this CIF has been generated from an entry in the Cambridge 
# Structural Database, then it will include bibliographic, chemical, 
# crystal, experimental, refinement or atomic coordinate data resulting 
# from the CCDC's data processing and validation procedures.
#
#######################################################################

data_AJISOD
_chemical_name_common            
"N,N'-pyridine-2,6-diylbis(2-methylpropanamide) 7-ethynyl-1,5,7-trimethyl-3-azabicyclo[3.3.1]nonane-2,4-dione"
_chemical_formula_moiety         '3(C13 H19 N3 O2),2(C13 H17 N1 O2)'
_chemical_name_systematic        
"(1R,5S,7r)-7-Ethynyl-1,5,7-trimethyl-3-azabicyclo[3.3.1]nonane-2,4-dione and N,N'-(pyridine-2,6-diyl)bis(2-methylpropanamide)"
_symmetry_cell_setting           monoclinic
_symmetry_space_group_name_H-M   'C 2/c'
_symmetry_Int_Tables_number      15
_space_group_name_Hall           '-C 2yn'
loop_
_symmetry_equiv_pos_site_id
_symmetry_equiv_pos_as_xyz
1 x,y,z
2 -x,y,1/2-z
3 1/2+x,1/2+y,z
4 1/2-x,1/2+y,1/2-z
5 -x,-y,-z
6 x,-y,1/2+z
7 1/2-x,1/2-y,-z
8 1/2+x,1/2-y,1/2+z
_cell_length_a                   23.360(3)
_cell_length_b                   10.9607(12)
_cell_length_c                   24.960(3)
_cell_angle_alpha                90
_cell_angle_beta                 92.137(4)
_cell_angle_gamma                90
_cell_volume                     6386.36
_exptl_crystal_colour            colorless
_exptl_crystal_description       plate
_cell_formula_units_Z            4
loop_
_atom_site_label
_atom_site_type_symbol
_atom_site_fract_x
_atom_site_fract_y
_atom_site_fract_z
O1 O 0.51074(8) 0.84270(15) 0.60910(7)
N1 N 0.46019(10) 0.88443(18) 0.53298(8)
H1 H 0.4667(11) 0.9612(15) 0.5395(9)
O2 O 0.40281(8) 0.94462(15) 0.46365(7)
C1 C 0.34939(12) 0.7269(2) 0.57662(10)
C2 C 0.40086(12) 0.7290(2) 0.48493(10)
C3 C 0.34718(13) 0.9609(3) 0.60347(11)
H2 H 0.3451 1.0444 0.6134
C4 C 0.34974(13) 0.8578(3) 0.59117(10)
C5 C 0.34517(12) 0.7109(2) 0.51496(10)
H3 H 0.3306 0.6277 0.5070
H4 H 0.3163 0.7693 0.5003
C6 C 0.38930(13) 0.7003(2) 0.42585(9)
H5 H 0.3599 0.7560 0.4110
H6 H 0.3759 0.6160 0.4220
H7 H 0.4247 0.7106 0.4064
C7 C 0.47921(12) 0.8053(2) 0.57277(11)
C8 C 0.42044(13) 0.8603(2) 0.49162(10)
C9 C 0.44687(12) 0.6447(2) 0.50941(9)
H8 H 0.4340 0.5589 0.5060
H9 H 0.4825 0.6536 0.4895
C10 C 0.45901(12) 0.6748(2) 0.56846(10)
C11 C 0.40335(12) 0.6609(2) 0.59937(10)
H10 H 0.3944 0.5728 0.6017
H11 H 0.4110 0.6904 0.6364
C12 C 0.29659(13) 0.6694(2) 0.60156(11)
H12 H 0.2621 0.7133 0.5891
H13 H 0.3005 0.6746 0.6407
H14 H 0.2935 0.5836 0.5908
C13 C 0.50471(12) 0.5908(2) 0.59332(10)
H15 H 0.5121 0.6134 0.6309
H16 H 0.5401 0.5988 0.5737
H17 H 0.4913 0.5061 0.5913
N2 N 0.45600(10) 0.14949(17) 0.57767(8)
O3 O 0.56787(8) 0.21000(15) 0.70559(7)
O4 O 0.35645(8) 0.38098(15) 0.48187(7)
N3 N 0.39429(10) 0.19684(18) 0.50599(8)
H18 H 0.4022(10) 0.1223(16) 0.4943(9)
N4 N 0.51834(10) 0.08781(19) 0.64653(8)
H19 H 0.5183(10) 0.0132(15) 0.6310(8)
C14 C 0.28040(14) 0.1671(3) 0.43352(12)
H20 H 0.2560 0.2364 0.4425
H21 H 0.2828 0.1103 0.4639
H22 H 0.2639 0.1251 0.4019
C15 C 0.33988(13) 0.2126(2) 0.42170(10)
H23 H 0.3646 0.1414 0.4129
C16 C 0.36410(12) 0.2735(2) 0.47206(10)
C17 C 0.41464(12) 0.2239(2) 0.55848(10)
C18 C 0.47635(12) 0.1703(2) 0.62817(10)
C19 C 0.56065(12) 0.1103(2) 0.68410(10)
C20 C 0.59954(13) 0.0035(2) 0.69750(10)
H24 H 0.5835 -0.0719 0.6801
C21 C 0.65882(13) 0.0298(2) 0.67583(11)
H25 H 0.6745 0.1040 0.6927
H26 H 0.6554 0.0414 0.6369
H27 H 0.6844 -0.0391 0.6840
C22 C 0.60317(13) -0.0142(2) 0.75842(10)
H28 H 0.5646 -0.0271 0.7716
H29 H 0.6201 0.0587 0.7754
H30 H 0.6271 -0.0853 0.7672
C23 C 0.33836(15) 0.3002(2) 0.37517(11)
H31 H 0.3172 0.3737 0.3847
H32 H 0.3193 0.2614 0.3439
H33 H 0.3776 0.3225 0.3665
C24 C 0.39155(12) 0.3177(2) 0.58798(10)
H34 H 0.3616 0.3676 0.5733
C25 C 0.41344(12) 0.3360(2) 0.63926(10)
H35 H 0.3987 0.4000 0.6604
C26 C 0.45656(12) 0.2626(2) 0.66029(10)
H36 H 0.4721 0.2750 0.6956
N5 N 0.59448(11) 0.46270(19) 0.73081(8)
H37 H 0.5846(10) 0.3860(15) 0.7233(9)
N6 N 0.5000 0.4760(3) 0.7500
O5 O 0.66923(8) 0.58622(16) 0.75471(7)
C27 C 0.70662(13) 0.3107(2) 0.77263(10)
H38 H 0.6723 0.2721 0.7863
H39 H 0.7236 0.3650 0.8001
H40 H 0.7344 0.2476 0.7637
C28 C 0.69038(12) 0.3845(2) 0.72231(10)
H41 H 0.6693 0.3301 0.6962
C29 C 0.65107(13) 0.4891(2) 0.73721(10)
C30 C 0.54784(12) 0.5379(2) 0.74195(9)
C31 C 0.74335(13) 0.4329(2) 0.69643(11)
H42 H 0.7705 0.3660 0.6916
H43 H 0.7612 0.4956 0.7195
H44 H 0.7326 0.4684 0.6615
C32 C 0.55041(13) 0.6647(2) 0.74274(10)
H45 H 0.5854 0.7071 0.7385
C33 C 0.5000 0.7256(3) 0.7500
H46 H 0.5000 0.8123 0.7500
N5A N 0.40552(11) 0.46270(19) 0.76919(8)
H37A H 0.4154(10) 0.3860(15) 0.7767(9)
O5A O 0.33077(8) 0.58622(16) 0.74529(7)
C27A C 0.29338(13) 0.3107(2) 0.72737(10)
H38A H 0.3277 0.2721 0.7137
H39A H 0.2764 0.3650 0.6999
H40A H 0.2656 0.2476 0.7363
C28A C 0.30962(12) 0.3845(2) 0.77769(10)
H41A H 0.3307 0.3301 0.8038
C29A C 0.34893(13) 0.4891(2) 0.76279(10)
C30A C 0.45216(12) 0.5379(2) 0.75805(9)
C31A C 0.25665(13) 0.4329(2) 0.80357(11)
H42A H 0.2295 0.3660 0.8084
H43A H 0.2388 0.4956 0.7805
H44A H 0.2674 0.4684 0.8385
C32A C 0.44959(13) 0.6647(2) 0.75726(10)
H45A H 0.4146 0.7071 0.7615
loop_
_geom_bond_atom_site_label_1
_geom_bond_atom_site_label_2
_geom_bond_site_symmetry_1
_geom_bond_site_symmetry_2
O1 C7 1_555 1_555
N1 H1 1_555 1_555
O2 C8 1_555 1_555
C1 C4 1_555 1_555
C2 C5 1_555 1_555
C3 H2 1_555 1_555
C4 C3 1_555 1_555
C5 C1 1_555 1_555
H3 C5 1_555 1_555
H4 C5 1_555 1_555
C6 C2 1_555 1_555
H5 C6 1_555 1_555
H6 C6 1_555 1_555
H7 C6 1_555 1_555
C7 N1 1_555 1_555
C8 N1 1_555 1_555
C9 C2 1_555 1_555
H8 C9 1_555 1_555
H9 C9 1_555 1_555
C10 C7 1_555 1_555
C11 C1 1_555 1_555
H10 C11 1_555 1_555
H11 C11 1_555 1_555
C12 C1 1_555 1_555
H12 C12 1_555 1_555
H13 C12 1_555 1_555
H14 C12 1_555 1_555
C13 C10 1_555 1_555
H15 C13 1_555 1_555
H16 C13 1_555 1_555
H17 C13 1_555 1_555
N2 C17 1_555 1_555
O3 C19 1_555 1_555
O4 C16 1_555 1_555
N3 H18 1_555 1_555
N4 H19 1_555 1_555
C14 H20 1_555 1_555
H21 C14 1_555 1_555
H22 C14 1_555 1_555
C15 C14 1_555 1_555
H23 C15 1_555 1_555
C16 N3 1_555 1_555
C17 N3 1_555 1_555
C18 N2 1_555 1_555
C19 N4 1_555 1_555
C20 C19 1_555 1_555
H24 C20 1_555 1_555
C21 C20 1_555 1_555
H25 C21 1_555 1_555
H26 C21 1_555 1_555
H27 C21 1_555 1_555
C22 C20 1_555 1_555
H28 C22 1_555 1_555
H29 C22 1_555 1_555
H30 C22 1_555 1_555
C23 C15 1_555 1_555
H31 C23 1_555 1_555
H32 C23 1_555 1_555
H33 C23 1_555 1_555
C24 C17 1_555 1_555
H34 C24 1_555 1_555
C25 C24 1_555 1_555
H35 C25 1_555 1_555
C26 C18 1_555 1_555
H36 C26 1_555 1_555
N5 H37 1_555 1_555
N6 C30 1_555 1_555
O5 C29 1_555 1_555
C27 H38 1_555 1_555
H39 C27 1_555 1_555
H40 C27 1_555 1_555
C28 C27 1_555 1_555
H41 C28 1_555 1_555
C29 N5 1_555 1_555
C30 N5 1_555 1_555
C31 C28 1_555 1_555
H42 C31 1_555 1_555
H43 C31 1_555 1_555
H44 C31 1_555 1_555
C32 C30 1_555 1_555
H45 C32 1_555 1_555
C33 C32 1_555 1_555
H46 C33 1_555 1_555
N5A H37A 1_555 1_555
O5A C29A 1_555 1_555
C27A H38A 1_555 1_555
H39A C27A 1_555 1_555
H40A C27A 1_555 1_555
C28A C27A 1_555 1_555
H41A C28A 1_555 1_555
C29A N5A 1_555 1_555
C30A N6 1_555 1_555
C31A C28A 1_555 1_555
H42A C31A 1_555 1_555
H43A C31A 1_555 1_555
H44A C31A 1_555 1_555
C32A C33 1_555 1_555
H45A C32A 1_555 1_555
C2 C8 1_555 1_555
C9 C10 1_555 1_555
C10 C11 1_555 1_555
N4 C18 1_555 1_555
C15 C16 1_555 1_555
C25 C26 1_555 1_555
C28 C29 1_555 1_555
N5A C30A 1_555 1_555
C28A C29A 1_555 1_555
C30A C32A 1_555 1_555

#END
