
#######################################################################
#
#                 Cambridge Crystallographic Data Centre
#                                CCDC 
#
#######################################################################
#
# If this CIF has been generated from an entry in the Cambridge 
# Structural Database, then it will include bibliographic, chemical, 
# crystal, experimental, refinement or atomic coordinate data resulting 
# from the CCDC's data processing and validation procedures.
#
#######################################################################

data_AJIVEV
_chemical_formula_moiety         
'2(C12 H9 N2 1+),C8 H2 Cl4 O4,C8 Cl4 O4 2-,3(H2 O1)'
_chemical_name_systematic        
'bis(1,10-Phenanthrolinium) 2,3,5,6-tetrachloroterephthalic acid 2,3,5,6-tetrachloroterephthalate trihydrate'
_symmetry_cell_setting           triclinic
_symmetry_space_group_name_H-M   'P -1'
_symmetry_Int_Tables_number      2
_space_group_name_Hall           '-P 1'
loop_
_symmetry_equiv_pos_site_id
_symmetry_equiv_pos_as_xyz
1 x,y,z
2 -x,-y,-z
_cell_length_a                   8.2931(11)
_cell_length_b                   12.0916(16)
_cell_length_c                   12.3108(16)
_cell_angle_alpha                102.127(2)
_cell_angle_beta                 109.454(1)
_cell_angle_gamma                106.072(2)
_cell_volume                     1054.43
_exptl_crystal_colour            colorless
_exptl_crystal_description       block
_cell_formula_units_Z            1
loop_
_atom_site_label
_atom_site_type_symbol
_atom_site_fract_x
_atom_site_fract_y
_atom_site_fract_z
C1 C 0.8004(4) 0.6428(2) 0.3931(3)
C2 C 0.9036(4) 0.5691(2) 0.4489(2)
C3 C 0.9437(4) 0.4846(3) 0.3768(2)
C4 C 0.9631(4) 0.5845(2) 0.5736(2)
Cl1 Cl 0.87168(13) 0.46445(9) 0.22274(7)
Cl2 Cl 0.91751(13) 0.69016(8) 0.66445(7)
O1 O 0.6217(3) 0.58790(18) 0.3543(2)
H1 H 0.5692 0.6279 0.3211
O2 O 0.8792(3) 0.7397(2) 0.3880(3)
C1A C 1.1996(4) 0.3572(2) 0.6069(3)
C2A C 1.0964(4) 0.4309(2) 0.5511(2)
C3A C 1.0563(4) 0.5154(3) 0.6232(2)
C4A C 1.0369(4) 0.4155(2) 0.4264(2)
Cl1A Cl 1.12832(13) 0.53555(9) 0.77726(7)
Cl2A Cl 1.08249(13) 0.30984(8) 0.33555(7)
O1A O 1.3783(3) 0.41210(18) 0.6457(2)
H1A H 1.4308 0.3721 0.6789
O2A O 1.1208(3) 0.2603(2) 0.6120(3)
C5 C 0.3805(4) 0.6728(2) 0.1275(2)
C6 C 0.4441(3) 0.5832(2) 0.0631(2)
C7 C 0.5945(4) 0.6239(2) 0.0353(2)
C8 C 0.3489(3) 0.4573(2) 0.0266(2)
Cl3 Cl 0.71191(12) 0.78008(7) 0.07764(8)
Cl4 Cl 0.15768(11) 0.40487(7) 0.05612(9)
O3 O 0.4225(3) 0.68953(18) 0.24061(17)
O4 O 0.2923(3) 0.7218(2) 0.06687(19)
C5A C 0.6195(4) 0.3272(2) -0.1275(2)
C6A C 0.5559(3) 0.4168(2) -0.0631(2)
C7A C 0.4055(4) 0.3761(2) -0.0353(2)
C8A C 0.6511(3) 0.5427(2) -0.0266(2)
Cl3A Cl 0.28809(12) 0.21992(7) -0.07764(8)
Cl4A Cl 0.84232(11) 0.59513(7) -0.05612(9)
O3A O 0.5775(3) 0.31047(18) -0.24061(17)
O4A O 0.7077(3) 0.2782(2) -0.06687(19)
C9 C 0.4661(4) 0.6718(3) 0.5789(3)
H2 H 0.4955 0.6056 0.5512
C10 C 0.4929(5) 0.7087(3) 0.7015(3)
H3 H 0.5405 0.6685 0.7531
C11 C 0.4483(5) 0.8047(3) 0.7442(3)
H4 H 0.4651 0.8306 0.8253
C12 C 0.3759(4) 0.8639(3) 0.6632(3)
C13 C 0.3258(5) 0.9656(3) 0.6993(3)
H5 H 0.3370 0.9933 0.7789
C14 C 0.2628(4) 1.0217(3) 0.6203(3)
H6 H 0.2320 1.0878 0.6462
C15 C 0.2427(4) 0.9811(2) 0.4973(3)
C16 C 0.1782(4) 1.0353(3) 0.4106(3)
H7 H 0.1465 1.1019 0.4327
C17 C 0.1613(5) 0.9916(3) 0.2938(3)
H8 H 0.1163 1.0272 0.2365
C18 C 0.2122(4) 0.8929(3) 0.2614(3)
H9 H 0.2014 0.8628 0.1822
C19 C 0.3581(4) 0.8207(2) 0.5431(3)
C20 C 0.2910(3) 0.8807(2) 0.4601(3)
N1 N 0.2759(3) 0.8421(2) 0.3436(2)
H10 H 0.3070 0.7780 0.3214
N2 N 0.4023(3) 0.7248(2) 0.5005(2)
O5 O 0.3445(8) 0.9208(5) -0.0130(5)
O6 O -0.023(2) 0.9425(14) -0.0330(15)
O7? O 0.2373(14) 0.9245(9) -0.0266(9)
O8? O -0.022(2) 1.1004(14) 0.0653(14)
loop_
_geom_bond_atom_site_label_1
_geom_bond_atom_site_label_2
_geom_bond_site_symmetry_1
_geom_bond_site_symmetry_2
C1 C2 1_555 1_555
C2 C3 1_555 1_555
C3 Cl1 1_555 1_555
C4 C2 1_555 1_555
C5 C6 1_555 1_555
C6 C7 1_555 1_555
C7 Cl3 1_555 1_555
C8 C6 1_555 1_555
Cl2 C4 1_555 1_555
Cl4 C8 1_555 1_555
O1 C1 1_555 1_555
H1 O1 1_555 1_555
O2 C1 1_555 1_555
O3 C5 1_555 1_555
O4 C5 1_555 1_555
C9 H2 1_555 1_555
C10 C9 1_555 1_555
H3 C10 1_555 1_555
C11 C10 1_555 1_555
H4 C11 1_555 1_555
C12 C11 1_555 1_555
C13 C12 1_555 1_555
H5 C13 1_555 1_555
C14 C13 1_555 1_555
H6 C14 1_555 1_555
C15 C14 1_555 1_555
C16 C15 1_555 1_555
H7 C16 1_555 1_555
C17 C16 1_555 1_555
H8 C17 1_555 1_555
C18 C17 1_555 1_555
H9 C18 1_555 1_555
C19 C12 1_555 1_555
C20 C15 1_555 1_555
N1 C18 1_555 1_555
H10 N1 1_555 1_555
N2 C9 1_555 1_555
C1A C2A 1_555 1_555
C2A C3A 1_555 1_555
C3A C4 1_555 1_555
C4A C3 1_555 1_555
C5A C6A 1_555 1_555
C6A C7A 1_555 1_555
C7A C8 1_555 1_555
C8A C7 1_555 1_555
Cl1A C3A 1_555 1_555
Cl2A C4A 1_555 1_555
Cl3A C7A 1_555 1_555
Cl4A C8A 1_555 1_555
O1A C1A 1_555 1_555
H1A O1A 1_555 1_555
O2A C1A 1_555 1_555
O3A C5A 1_555 1_555
O4A C5A 1_555 1_555
C19 C20 1_555 1_555
C19 N2 1_555 1_555
C20 N1 1_555 1_555
C2A C4A 1_555 1_555
C6A C8A 1_555 1_555

#END
