
#######################################################################
#
#                 Cambridge Crystallographic Data Centre
#                                CCDC 
#
#######################################################################
#
# If this CIF has been generated from an entry in the Cambridge 
# Structural Database, then it will include bibliographic, chemical, 
# crystal, experimental, refinement or atomic coordinate data resulting 
# from the CCDC's data processing and validation procedures.
#
#######################################################################

data_AJOGUD
_chemical_formula_moiety         'C15 H23 N3 O2'
_chemical_name_systematic        
N,N'-(4-ethylpyridine-2,6-diyl)bis(2-methylpropanamide)
_symmetry_cell_setting           orthorhombic
_symmetry_space_group_name_H-M   'P b c a'
_symmetry_Int_Tables_number      61
_space_group_name_Hall           '-P 2ac 2ab'
loop_
_symmetry_equiv_pos_site_id
_symmetry_equiv_pos_as_xyz
1 x,y,z
2 1/2+x,1/2-y,-z
3 -x,1/2+y,1/2-z
4 1/2-x,-y,1/2+z
5 -x,-y,-z
6 1/2-x,1/2+y,z
7 x,1/2-y,1/2+z
8 1/2+x,y,1/2-z
_cell_length_a                   19.2542(8)
_cell_length_b                   14.6162(5)
_cell_length_c                   22.1772(9)
_cell_angle_alpha                90
_cell_angle_beta                 90
_cell_angle_gamma                90
_cell_volume                     6241.18
_exptl_crystal_colour            colorless
_exptl_crystal_description       needle
_cell_formula_units_Z            16
loop_
_atom_site_label
_atom_site_type_symbol
_atom_site_fract_x
_atom_site_fract_y
_atom_site_fract_z
O1 O 0.25653(5) 0.46841(7) 0.14645(5)
O2 O 0.10725(5) 0.88729(7) -0.02517(5)
N1 N 0.22480(6) 0.61164(8) 0.17535(5)
H1 H 0.2264 0.6506 0.2055
N2 N 0.18719(6) 0.73189(8) 0.11747(5)
C1 C 0.25949(10) 0.44348(13) 0.28038(8)
H2 H 0.2109 0.4601 0.2877
H3 H 0.2836 0.4363 0.3190
H4 H 0.2613 0.3857 0.2580
C2 C 0.29449(8) 0.51833(11) 0.24374(7)
H5 H 0.2924 0.5771 0.2667
C3 C 0.25692(7) 0.52995(10) 0.18422(7)
C4 C 0.18920(7) 0.64100(10) 0.12318(6)
C5 C 0.15170(7) 0.76583(9) 0.07046(6)
N3 N 0.15316(6) 0.86187(8) 0.06825(5)
H6 H 0.1688 0.8899 0.1007
C6 C 0.13317(7) 0.91652(10) 0.02164(7)
C7 C 0.14463(9) 1.01813(11) 0.03123(8)
H7 H 0.1779 1.0269 0.0654
C8 C 0.07661(13) 1.06368(13) 0.04697(11)
H8 H 0.0844 1.1292 0.0537
H9 H 0.0577 1.0360 0.0837
H10 H 0.0437 1.0554 0.0137
C9 C 0.11698(7) 0.71155(10) 0.02879(6)
H11 H 0.0912 0.7384 -0.0032
C10 C 0.12083(7) 0.61712(10) 0.03507(6)
C11 C 0.08493(8) 0.55591(10) -0.00971(7)
H12 H 0.0366 0.5776 -0.0153
H13 H 0.0828 0.4931 0.0070
C12 C 0.12052(11) 0.55282(13) -0.07051(8)
H14 H 0.1225 0.6147 -0.0875
H15 H 0.0943 0.5128 -0.0977
H16 H 0.1678 0.5290 -0.0657
C13 C 0.15785(7) 0.58107(10) 0.08303(7)
H17 H 0.1617 0.5168 0.0883
C14 C 0.37049(9) 0.49381(14) 0.23179(9)
H18 H 0.3728 0.4359 0.2096
H19 H 0.3951 0.4874 0.2703
H20 H 0.3923 0.5424 0.2079
C15 C 0.17524(12) 1.05977(13) -0.02500(12)
H21 H 0.1408 1.0578 -0.0575
H22 H 0.2165 1.0251 -0.0370
H23 H 0.1882 1.1235 -0.0170
O3 O 0.22300(5) 0.71096(7) 0.28929(5)
N4 N 0.20831(6) 0.69050(9) 0.39021(6)
H24 H 0.1763 0.6820 0.4180
C16 C 0.08748(9) 0.58799(13) 0.32114(10)
H25 H 0.0370 0.5817 0.3177
H26 H 0.1036 0.5559 0.3573
H27 H 0.1097 0.5614 0.2854
C17 C 0.10643(8) 0.68889(11) 0.32573(7)
H28 H 0.0834 0.7153 0.3622
C18 C 0.18469(8) 0.69837(10) 0.33266(7)
C19 C 0.27710(7) 0.69417(10) 0.41099(7)
N5 N 0.28168(6) 0.68146(8) 0.47050(5)
C20 C 0.34502(8) 0.68480(9) 0.49503(7)
N6 N 0.34344(7) 0.67389(9) 0.55783(6)
H29 H 0.3019 0.6682 0.5739
C21 C 0.39790(8) 0.67084(10) 0.59755(7)
C22 C 0.37680(9) 0.66828(13) 0.66294(7)
H30 H 0.3273 0.6479 0.6659
C23 C 0.42237(13) 0.60233(14) 0.69786(9)
H31 H 0.4141 0.5398 0.6836
H32 H 0.4112 0.6062 0.7409
H33 H 0.4713 0.6183 0.6917
C24 C 0.08273(9) 0.74164(16) 0.27071(9)
H34 H 0.1066 0.7182 0.2349
H35 H 0.0937 0.8066 0.2759
H36 H 0.0325 0.7343 0.2657
C25 C 0.33426(8) 0.70969(10) 0.37413(7)
H37 H 0.3288 0.7190 0.3320
C26 C 0.39958(8) 0.71115(10) 0.40065(7)
C27 C 0.46336(8) 0.73026(12) 0.36305(7)
H38 H 0.4536 0.7146 0.3204
H39 H 0.5020 0.6910 0.3771
C28 C 0.48501(9) 0.82959(13) 0.36703(8)
H40 H 0.4473 0.8685 0.3522
H41 H 0.5266 0.8394 0.3424
H42 H 0.4952 0.8451 0.4091
C29 C 0.40546(8) 0.69861(10) 0.46232(7)
H43 H 0.4495 0.6994 0.4816
C30 C 0.38289(10) 0.76523(14) 0.68704(8)
H44 H 0.4310 0.7862 0.6831
H45 H 0.3693 0.7663 0.7296
H46 H 0.3523 0.8057 0.6640
O4 O 0.45827(6) 0.67391(9) 0.58176(5)
loop_
_geom_bond_atom_site_label_1
_geom_bond_atom_site_label_2
_geom_bond_site_symmetry_1
_geom_bond_site_symmetry_2
O1 C3 1_555 1_555
O2 C6 1_555 1_555
N1 H1 1_555 1_555
N2 C4 1_555 1_555
C1 H2 1_555 1_555
H3 C1 1_555 1_555
H4 C1 1_555 1_555
C2 C1 1_555 1_555
H5 C2 1_555 1_555
C3 N1 1_555 1_555
C4 N1 1_555 1_555
C5 N2 1_555 1_555
N3 C5 1_555 1_555
H6 N3 1_555 1_555
C6 N3 1_555 1_555
C7 C6 1_555 1_555
H7 C7 1_555 1_555
C8 C7 1_555 1_555
H8 C8 1_555 1_555
H9 C8 1_555 1_555
H10 C8 1_555 1_555
C9 C5 1_555 1_555
H11 C9 1_555 1_555
C10 C9 1_555 1_555
C11 C10 1_555 1_555
H12 C11 1_555 1_555
H13 C11 1_555 1_555
C12 C11 1_555 1_555
H14 C12 1_555 1_555
H15 C12 1_555 1_555
H16 C12 1_555 1_555
C13 C4 1_555 1_555
H17 C13 1_555 1_555
C14 C2 1_555 1_555
H18 C14 1_555 1_555
H19 C14 1_555 1_555
H20 C14 1_555 1_555
C15 C7 1_555 1_555
H21 C15 1_555 1_555
H22 C15 1_555 1_555
H23 C15 1_555 1_555
O3 C18 1_555 1_555
N4 H24 1_555 1_555
C16 H25 1_555 1_555
H26 C16 1_555 1_555
H27 C16 1_555 1_555
C17 C16 1_555 1_555
H28 C17 1_555 1_555
C18 N4 1_555 1_555
C19 N4 1_555 1_555
N5 C19 1_555 1_555
C20 N5 1_555 1_555
N6 C20 1_555 1_555
H29 N6 1_555 1_555
C21 N6 1_555 1_555
C22 C21 1_555 1_555
H30 C22 1_555 1_555
C23 C22 1_555 1_555
H31 C23 1_555 1_555
H32 C23 1_555 1_555
H33 C23 1_555 1_555
C24 C17 1_555 1_555
H34 C24 1_555 1_555
H35 C24 1_555 1_555
H36 C24 1_555 1_555
C25 C19 1_555 1_555
H37 C25 1_555 1_555
C26 C25 1_555 1_555
C27 C26 1_555 1_555
H38 C27 1_555 1_555
H39 C27 1_555 1_555
C28 C27 1_555 1_555
H40 C28 1_555 1_555
H41 C28 1_555 1_555
H42 C28 1_555 1_555
C29 C20 1_555 1_555
H43 C29 1_555 1_555
C30 C22 1_555 1_555
H44 C30 1_555 1_555
H45 C30 1_555 1_555
H46 C30 1_555 1_555
O4 C21 1_555 1_555
C2 C3 1_555 1_555
C10 C13 1_555 1_555
C17 C18 1_555 1_555
C26 C29 1_555 1_555

#END
