
#######################################################################
#
#                 Cambridge Crystallographic Data Centre
#                                CCDC 
#
#######################################################################
#
# If this CIF has been generated from an entry in the Cambridge 
# Structural Database, then it will include bibliographic, chemical, 
# crystal, experimental, refinement or atomic coordinate data resulting 
# from the CCDC's data processing and validation procedures.
#
#######################################################################

data_AJOGEL
_chemical_formula_moiety         'C15 H16 O4'
_chemical_name_systematic        
2-((1,3a,4,5,6,6a-Hexahydro-2-methoxycarbonyl-1-pentalenyl)carbonyl)furan
_symmetry_cell_setting           monoclinic
_symmetry_space_group_name_H-M   'P 21/c'
_symmetry_Int_Tables_number      14
_space_group_name_Hall           '-P 2ybc'
loop_
_symmetry_equiv_pos_site_id
_symmetry_equiv_pos_as_xyz
1 x,y,z
2 -x,1/2+y,1/2-z
3 -x,-y,-z
4 x,1/2-y,1/2+z
_cell_length_a                   10.9887(1)
_cell_length_b                   8.8189(1)
_cell_length_c                   13.9145(2)
_cell_angle_alpha                90
_cell_angle_beta                 106.651(1)
_cell_angle_gamma                90
_cell_volume                     1291.89
_cell_formula_units_Z            4
loop_
_atom_site_label
_atom_site_type_symbol
_atom_site_fract_x
_atom_site_fract_y
_atom_site_fract_z
C1 C 0.6288(1) 0.1077(1) 0.3793(1)
C2 C 0.6602(1) 0.1105(1) 0.2808(1)
C3 C 0.5481(1) 0.2038(2) 0.2099(1)
C4 C 0.4585(1) 0.1086(2) 0.1262(1)
C5 C 0.3546(2) 0.0559(2) 0.1703(1)
C6 C 0.3299(1) 0.1936(2) 0.2271(1)
C7 C 0.4638(1) 0.2569(2) 0.2768(1)
C8 C 0.5249(1) 0.1865(2) 0.3763(1)
C9 C 0.7045(1) 0.0289(1) 0.4706(1)
O1 O 0.6841(1) 0.0342(1) 0.5515(1)
O2 O 0.8005(1) -0.0509(1) 0.4535(1)
C10 C 0.8820(2) -0.1276(2) 0.5403(1)
C11 C 0.7867(1) 0.1870(1) 0.2903(1)
O3 O 0.8380(1) 0.2690(1) 0.3612(1)
C12 C 0.8424(1) 0.1649(1) 0.2076(1)
O4 O 0.9478(1) 0.2510(1) 0.2105(1)
C13 C 0.9797(1) 0.2184(2) 0.1254(1)
C14 C 0.8999(1) 0.1143(2) 0.0700(1)
C15 C 0.8105(1) 0.0790(2) 0.1228(1)
H1 H 0.6624(12) 0.0070(17) 0.2544(10)
H2 H 0.5826(14) 0.2893(18) 0.1800(11)
H3 H 0.4186(17) 0.1760(20) 0.0682(14)
H4 H 0.5027(18) 0.0240(20) 0.1030(14)
H5 H 0.2753(18) 0.0210(20) 0.1181(14)
H6 H 0.3863(18) -0.0330(20) 0.2170(15)
H7 H 0.2789(16) 0.2690(20) 0.1782(13)
H8 H 0.2834(16) 0.1710(20) 0.2780(13)
H9 H 0.4626(15) 0.3680(20) 0.2823(11)
H10 H 0.4882(15) 0.1923(18) 0.4319(12)
H11 H 0.8303(18) -0.1990(20) 0.5703(14)
H12 H 0.9210(18) -0.0520(20) 0.5946(15)
H13 H 0.9482(18) -0.1780(20) 0.5167(13)
H14 H 1.0524(16) 0.2731(19) 0.1144(12)
H15 H 0.9018(15) 0.0724(18) 0.0046(12)
H16 H 0.7414(15) 0.0054(19) 0.1040(11)
loop_
_geom_bond_atom_site_label_1
_geom_bond_atom_site_label_2
_geom_bond_site_symmetry_1
_geom_bond_site_symmetry_2
C1 C2 1_555 1_555
C2 C3 1_555 1_555
C3 C4 1_555 1_555
C4 C5 1_555 1_555
C5 C6 1_555 1_555
C6 C7 1_555 1_555
C7 C3 1_555 1_555
C8 C1 1_555 1_555
C9 C1 1_555 1_555
O1 C9 1_555 1_555
O2 C9 1_555 1_555
C10 O2 1_555 1_555
C11 C2 1_555 1_555
O3 C11 1_555 1_555
C12 C11 1_555 1_555
O4 C12 1_555 1_555
C13 O4 1_555 1_555
C14 C13 1_555 1_555
C15 C12 1_555 1_555
H1 C2 1_555 1_555
H2 C3 1_555 1_555
H3 C4 1_555 1_555
H4 C4 1_555 1_555
H5 C5 1_555 1_555
H6 C5 1_555 1_555
H7 C6 1_555 1_555
H8 C6 1_555 1_555
H9 C7 1_555 1_555
H10 C8 1_555 1_555
H11 C10 1_555 1_555
H12 C10 1_555 1_555
H13 C10 1_555 1_555
H14 C13 1_555 1_555
H15 C14 1_555 1_555
H16 C15 1_555 1_555
C7 C8 1_555 1_555
C14 C15 1_555 1_555

#END
