
#######################################################################
#
#                 Cambridge Crystallographic Data Centre
#                                CCDC 
#
#######################################################################
#
# If this CIF has been generated from an entry in the Cambridge 
# Structural Database, then it will include bibliographic, chemical, 
# crystal, experimental, refinement or atomic coordinate data resulting 
# from the CCDC's data processing and validation procedures.
#
#######################################################################

data_AJOTIE
_chemical_formula_moiety         'C23 H26 Cl1 N1 O1 S1'
_chemical_name_systematic        
N-(2-(4-chlorophenyl)-3-(phenylethynyl)pent-4-en-2-yl)-2-methylpropane-2-sulfinamide
_symmetry_cell_setting           monoclinic
_symmetry_space_group_name_H-M   'P 21'
_symmetry_Int_Tables_number      4
_space_group_name_Hall           'P 2yb'
loop_
_symmetry_equiv_pos_site_id
_symmetry_equiv_pos_as_xyz
1 x,y,z
2 -x,1/2+y,-z
_cell_length_a                   6.4662(12)
_cell_length_b                   21.960(4)
_cell_length_c                   16.229(3)
_cell_angle_alpha                90
_cell_angle_beta                 98.991(2)
_cell_angle_gamma                90
_cell_volume                     2276.17
_exptl_crystal_colour            colorless
_cell_formula_units_Z            4
loop_
_atom_site_label
_atom_site_type_symbol
_atom_site_fract_x
_atom_site_fract_y
_atom_site_fract_z
C1 C 0.5555(9) 0.1301(3) 0.0226(4)
H1 H 0.4770 0.1606 -0.0072
C2 C 0.5916(10) 0.0768(3) -0.0161(4)
H2 H 0.5349 0.0717 -0.0720
C3 C 0.7059(10) 0.0316(3) 0.0236(4)
H3 H 0.7276 -0.0042 -0.0045
C4 C 0.7868(10) 0.0384(3) 0.1023(5)
H4 H 0.8684 0.0075 0.1298
C5 C 0.7517(10) 0.0912(3) 0.1448(4)
H5 H 0.8080 0.0947 0.2010
C6 C 0.6350(7) 0.1390(3) 0.1061(3)
C7 C 0.6015(8) 0.1943(3) 0.1475(3)
C8 C 0.5787(7) 0.2390(3) 0.1851(3)
C9 C 0.5442(7) 0.2956(2) 0.2291(3)
H6 H 0.6819 0.3123 0.2518
C10 C 0.4324(8) 0.3424(3) 0.1697(3)
H7 H 0.3176 0.3292 0.1321
C11 C 0.4839(10) 0.3994(4) 0.1670(4)
H8 H 0.5977 0.4143 0.2036
H9 H 0.4069 0.4253 0.1285
C12 C 0.4254(6) 0.2825(2) 0.3049(2)
C13 C 0.1987(7) 0.2629(3) 0.2711(3)
H10 H 0.1264 0.2537 0.3170
H11 H 0.2008 0.2274 0.2367
H12 H 0.1277 0.2954 0.2387
C14 C 0.5477(7) 0.2356(2) 0.3613(3)
C15 C 0.4789(9) 0.1779(3) 0.3727(4)
H13 H 0.3467 0.1665 0.3461
C16 C 0.5989(13) 0.1358(3) 0.4225(4)
H14 H 0.5485 0.0967 0.4289
C17 C 0.7943(11) 0.1527(3) 0.4622(3)
C18 C 0.8702(8) 0.2097(3) 0.4517(3)
H15 H 1.0033 0.2207 0.4778
C19 C 0.7484(7) 0.2504(2) 0.4023(3)
H16 H 0.8003 0.2893 0.3957
C20 C 0.4476(8) 0.4109(3) 0.4845(3)
C21 C 0.6681(10) 0.3893(4) 0.5168(4)
H17 H 0.7399 0.3809 0.4706
H18 H 0.6620 0.3529 0.5492
H19 H 0.7419 0.4204 0.5512
C22 C 0.3313(12) 0.4269(4) 0.5569(4)
H20 H 0.4020 0.4598 0.5886
H21 H 0.3284 0.3920 0.5923
H22 H 0.1906 0.4389 0.5352
C23 C 0.4531(12) 0.4653(3) 0.4263(5)
H23 H 0.5117 0.4999 0.4579
H24 H 0.3134 0.4747 0.3999
H25 H 0.5378 0.4555 0.3845
Cl1 Cl 0.9451(3) 0.10029(8) 0.52678(10)
N1 N 0.4299(5) 0.34096(18) 0.3495(2)
H26 H 0.4985 0.3714 0.3341
O1 O 0.0882(5) 0.3722(2) 0.3982(3)
S1 S 0.3014(2) 0.34753(6) 0.42955(8)
C24 C 0.0160(8) 0.9635(3) -0.2094(4)
H27 H -0.0129 0.9240 -0.2285
C25 C 0.0272(9) 1.0109(5) -0.2655(4)
H28 H 0.0084 1.0031 -0.3225
C26 C 0.0660(10) 1.0689(4) -0.2363(6)
H29 H 0.0724 1.1003 -0.2743
C27 C 0.0951(10) 1.0816(4) -0.1547(6)
H30 H 0.1222 1.1212 -0.1360
C28 C 0.0844(8) 1.0351(4) -0.0992(4)
H31 H 0.1020 1.0436 -0.0424
C29 C 0.0480(7) 0.9760(3) -0.1258(3)
C30 C 0.0509(7) 0.9278(3) -0.0656(3)
C31 C 0.0596(7) 0.8876(3) -0.0163(3)
C32 C 0.0917(6) 0.8352(2) 0.0397(3)
H32 H -0.0280 0.8335 0.0700
C33 C 0.0913(8) 0.7766(3) -0.0095(3)
H33 H 0.1824 0.7737 -0.0484
C34 C -0.0272(10) 0.7301(3) -0.0012(4)
H34 H -0.1201 0.7314 0.0371
H35 H -0.0194 0.6955 -0.0336
C35 C 0.2928(6) 0.8447(2) 0.1061(2)
C36 C 0.4826(7) 0.8575(3) 0.0618(3)
H36 H 0.4581 0.8940 0.0292
H37 H 0.5022 0.8239 0.0259
H38 H 0.6058 0.8625 0.1027
C37 C 0.2505(7) 0.8948(2) 0.1652(3)
C38 C 0.3538(8) 0.9500(3) 0.1720(3)
H39 H 0.4553 0.9578 0.1386
C39 C 0.3092(10) 0.9946(3) 0.2281(4)
H40 H 0.3816 1.0313 0.2320
C40 C 0.1621(9) 0.9844(3) 0.2763(3)
C41 C 0.0506(7) 0.9304(3) 0.2693(3)
H41 H -0.0539 0.9241 0.3017
C42 C 0.0937(6) 0.8865(2) 0.2149(3)
H42 H 0.0177 0.8503 0.2108
C43 C 0.4372(7) 0.7173(3) 0.2870(3)
C44 C 0.4180(11) 0.6618(3) 0.2290(5)
H43 H 0.3965 0.6259 0.2602
H44 H 0.5442 0.6575 0.2052
H45 H 0.3014 0.6674 0.1851
C45 C 0.2339(9) 0.7332(3) 0.3152(4)
H46 H 0.1245 0.7343 0.2678
H47 H 0.2459 0.7725 0.3416
H48 H 0.2013 0.7032 0.3541
C46 C 0.6154(10) 0.7086(4) 0.3605(4)
H49 H 0.6344 0.7455 0.3926
H50 H 0.7425 0.6989 0.3396
H51 H 0.5808 0.6759 0.3952
Cl2 Cl 0.1038(3) 1.03914(9) 0.34688(10)
N2 N 0.3221(5) 0.7867(2) 0.1547(2)
H52 H 0.2363 0.7568 0.1440
O2 O 0.7141(5) 0.7608(2) 0.1962(3)
S2 S 0.52579(19) 0.78221(7) 0.22998(8)
loop_
_geom_bond_atom_site_label_1
_geom_bond_atom_site_label_2
_geom_bond_site_symmetry_1
_geom_bond_site_symmetry_2
C1 H1 1_555 1_555
C2 C1 1_555 1_555
H2 C2 1_555 1_555
C3 C2 1_555 1_555
H3 C3 1_555 1_555
C4 C3 1_555 1_555
H4 C4 1_555 1_555
C5 C4 1_555 1_555
H5 C5 1_555 1_555
C6 C1 1_555 1_555
C7 C6 1_555 1_555
C8 C7 1_555 1_555
C9 C8 1_555 1_555
H6 C9 1_555 1_555
C10 C9 1_555 1_555
H7 C10 1_555 1_555
C11 C10 1_555 1_555
H8 C11 1_555 1_555
H9 C11 1_555 1_555
C12 C9 1_555 1_555
C13 C12 1_555 1_555
H10 C13 1_555 1_555
H11 C13 1_555 1_555
H12 C13 1_555 1_555
C14 C12 1_555 1_555
C15 C14 1_555 1_555
H13 C15 1_555 1_555
C16 C15 1_555 1_555
H14 C16 1_555 1_555
C17 C16 1_555 1_555
C18 C17 1_555 1_555
H15 C18 1_555 1_555
C19 C14 1_555 1_555
H16 C19 1_555 1_555
C20 C21 1_555 1_555
C21 H17 1_555 1_555
H18 C21 1_555 1_555
H19 C21 1_555 1_555
C22 C20 1_555 1_555
H20 C22 1_555 1_555
H21 C22 1_555 1_555
H22 C22 1_555 1_555
C23 C20 1_555 1_555
H23 C23 1_555 1_555
H24 C23 1_555 1_555
H25 C23 1_555 1_555
Cl1 C17 1_555 1_555
N1 C12 1_555 1_555
H26 N1 1_555 1_555
O1 S1 1_555 1_555
S1 C20 1_555 1_555
C24 H27 1_555 1_555
C25 C24 1_555 1_555
H28 C25 1_555 1_555
C26 C25 1_555 1_555
H29 C26 1_555 1_555
C27 C26 1_555 1_555
H30 C27 1_555 1_555
C28 C27 1_555 1_555
H31 C28 1_555 1_555
C29 C24 1_555 1_555
C30 C29 1_555 1_555
C31 C30 1_555 1_555
C32 C31 1_555 1_555
H32 C32 1_555 1_555
C33 C32 1_555 1_555
H33 C33 1_555 1_555
C34 C33 1_555 1_555
H34 C34 1_555 1_555
H35 C34 1_555 1_555
C35 C32 1_555 1_555
C36 C35 1_555 1_555
H36 C36 1_555 1_555
H37 C36 1_555 1_555
H38 C36 1_555 1_555
C37 C35 1_555 1_555
C38 C37 1_555 1_555
H39 C38 1_555 1_555
C39 C38 1_555 1_555
H40 C39 1_555 1_555
C40 C39 1_555 1_555
C41 C40 1_555 1_555
H41 C41 1_555 1_555
C42 C37 1_555 1_555
H42 C42 1_555 1_555
C43 C44 1_555 1_555
C44 H43 1_555 1_555
H44 C44 1_555 1_555
H45 C44 1_555 1_555
C45 C43 1_555 1_555
H46 C45 1_555 1_555
H47 C45 1_555 1_555
H48 C45 1_555 1_555
C46 C43 1_555 1_555
H49 C46 1_555 1_555
H50 C46 1_555 1_555
H51 C46 1_555 1_555
Cl2 C40 1_555 1_555
N2 C35 1_555 1_555
H52 N2 1_555 1_555
O2 S2 1_555 1_555
S2 C43 1_555 1_555
C5 C6 1_555 1_555
C18 C19 1_555 1_555
N1 S1 1_555 1_555
C28 C29 1_555 1_555
C41 C42 1_555 1_555
N2 S2 1_555 1_555

#END
