
#######################################################################
#
#                 Cambridge Crystallographic Data Centre
#                                CCDC 
#
#######################################################################
#
# If this CIF has been generated from an entry in the Cambridge 
# Structural Database, then it will include bibliographic, chemical, 
# crystal, experimental, refinement or atomic coordinate data resulting 
# from the CCDC's data processing and validation procedures.
#
#######################################################################

data_AJOVIG
_chemical_compound_source        'I. oligandrum roots'
_chemical_name_common            'illioliganpyranone B'
_chemical_formula_moiety         'C15 H22 O2'
_chemical_name_systematic        
'2,2,6-trimethyltricyclo[5.3.1.0^1,6^]undec-8-ene-8-carboxylic acid'
_symmetry_cell_setting           triclinic
_symmetry_space_group_name_H-M   'P 1'
_symmetry_Int_Tables_number      1
_space_group_name_Hall           'P 1'
loop_
_symmetry_equiv_pos_site_id
_symmetry_equiv_pos_as_xyz
1 x,y,z
_cell_length_a                   6.8272(4)
_cell_length_b                   7.7944(4)
_cell_length_c                   13.3283(7)
_cell_angle_alpha                86.232(4)
_cell_angle_beta                 78.091(4)
_cell_angle_gamma                70.492(5)
_cell_volume                     654.143
_exptl_crystal_colour            colorless
_exptl_crystal_description       plate
_cell_formula_units_Z            2
loop_
_atom_site_label
_atom_site_type_symbol
_atom_site_fract_x
_atom_site_fract_y
_atom_site_fract_z
O1 O 0.4936(2) -0.02898(18) 0.10103(11)
O2 O 0.76749(19) 0.07682(17) 0.05954(10)
H1 H 0.8195 -0.0169 0.0225
C1 C 0.1637(3) 0.3671(2) 0.31899(13)
C2 C -0.0648(3) 0.3776(2) 0.36839(15)
H2 H -0.1455 0.3850 0.3136
H3 H -0.0617 0.2646 0.4075
C3 C -0.1793(3) 0.5411(3) 0.44017(15)
H4 H -0.1051 0.5306 0.4979
H5 H -0.3258 0.5427 0.4688
C4 C -0.1851(3) 0.7179(2) 0.38199(15)
H6 H -0.2665 0.8220 0.4288
H7 H -0.2607 0.7273 0.3249
C5 C 0.0364(3) 0.7319(2) 0.33809(14)
C6 C 0.1772(3) 0.5584(2) 0.27659(13)
C7 C 0.4123(3) 0.5469(2) 0.24493(14)
H8 H 0.4216 0.6569 0.2053
H9 H 0.4706 0.5446 0.3073
C8 C 0.5433(3) 0.3805(2) 0.18128(13)
H10 H 0.6896 0.3600 0.1547
C9 C 0.4527(3) 0.2617(2) 0.16239(12)
C10 C 0.2167(3) 0.3083(2) 0.20339(13)
H11 H 0.1489 0.2218 0.1857
C11 C 0.1122(3) 0.5128(2) 0.17833(13)
H12 H -0.0428 0.5500 0.1824
H13 H 0.1836 0.5540 0.1136
C12 C 0.1357(3) 0.7617(3) 0.42680(16)
H14 H 0.2681 0.7863 0.3986
H15 H 0.1653 0.6523 0.4695
H16 H 0.0368 0.8656 0.4686
C13 C 0.0079(3) 0.8975(3) 0.26715(17)
H17 H -0.0471 0.8767 0.2084
H18 H 0.1449 0.9162 0.2428
H19 H -0.0922 1.0058 0.3049
C14 C 0.5739(3) 0.0908(2) 0.10490(13)
C15 C 0.3126(3) 0.2597(3) 0.38895(15)
H20 H 0.2603 0.3113 0.4583
H21 H 0.4548 0.2666 0.3626
H22 H 0.3184 0.1322 0.3909
O3 O -0.0588(2) 0.80238(17) 0.93065(11)
O4 O -0.2853(2) 0.65897(18) 1.00698(11)
H23 H -0.3501 0.7615 1.0347
C16 C 0.3877(3) 0.3547(2) 0.79355(13)
C17 C 0.5611(3) 0.3806(3) 0.70590(14)
H24 H 0.4942 0.4508 0.6501
H25 H 0.6368 0.4517 0.7314
C18 C 0.7207(3) 0.1985(3) 0.66298(15)
H26 H 0.8306 0.2206 0.6075
H27 H 0.7915 0.1290 0.7178
C19 C 0.6074(3) 0.0884(3) 0.62119(15)
H28 H 0.7140 -0.0251 0.5899
H29 H 0.5376 0.1593 0.5664
C20 C 0.4394(3) 0.0387(2) 0.70327(14)
C21 C 0.2898(3) 0.2111(2) 0.76463(13)
C22 C 0.1431(3) 0.1673(2) 0.85980(14)
H30 H 0.0605 0.0982 0.8383
H31 H 0.2305 0.0895 0.9069
C23 C -0.0069(3) 0.3373(2) 0.91568(14)
H32 H -0.1107 0.3296 0.9739
C24 C 0.0074(2) 0.4987(2) 0.88269(13)
C25 C 0.1673(2) 0.5004(2) 0.78632(13)
H33 H 0.1699 0.6229 0.7600
C26 C 0.1470(3) 0.3706(2) 0.70810(13)
H34 H 0.2124 0.3877 0.6363
H35 H 0.0012 0.3681 0.7134
C27 C 0.5536(3) -0.1074(3) 0.77478(16)
H36 H 0.4505 -0.1546 0.8198
H37 H 0.6204 -0.0531 0.8165
H38 H 0.6623 -0.2071 0.7335
C28 C 0.3142(3) -0.0425(3) 0.64813(15)
H39 H 0.2439 0.0478 0.6011
H40 H 0.2074 -0.0766 0.6988
H41 H 0.4112 -0.1507 0.6093
C29 C -0.1157(3) 0.6658(2) 0.94146(14)
C30 C 0.4630(3) 0.3358(3) 0.89495(15)
H42 H 0.5987 0.2369 0.8896
H43 H 0.3578 0.3084 0.9497
H44 H 0.4810 0.4500 0.9108
loop_
_geom_bond_atom_site_label_1
_geom_bond_atom_site_label_2
_geom_bond_site_symmetry_1
_geom_bond_site_symmetry_2
O1 C14 1_555 1_555
O2 H1 1_555 1_555
C1 C2 1_555 1_555
C2 H2 1_555 1_555
H3 C2 1_555 1_555
C3 C2 1_555 1_555
H4 C3 1_555 1_555
H5 C3 1_555 1_555
C4 C3 1_555 1_555
H6 C4 1_555 1_555
H7 C4 1_555 1_555
C5 C4 1_555 1_555
C6 C1 1_555 1_555
C7 C6 1_555 1_555
H8 C7 1_555 1_555
H9 C7 1_555 1_555
C8 C7 1_555 1_555
H10 C8 1_555 1_555
C9 C8 1_555 1_555
C10 C1 1_555 1_555
H11 C10 1_555 1_555
C11 C6 1_555 1_555
H12 C11 1_555 1_555
H13 C11 1_555 1_555
C12 C5 1_555 1_555
H14 C12 1_555 1_555
H15 C12 1_555 1_555
H16 C12 1_555 1_555
C13 C5 1_555 1_555
H17 C13 1_555 1_555
H18 C13 1_555 1_555
H19 C13 1_555 1_555
C14 O2 1_555 1_555
C15 C1 1_555 1_555
H20 C15 1_555 1_555
H21 C15 1_555 1_555
H22 C15 1_555 1_555
O3 C29 1_555 1_555
O4 H23 1_555 1_555
C16 C17 1_555 1_555
C17 H24 1_555 1_555
H25 C17 1_555 1_555
C18 C17 1_555 1_555
H26 C18 1_555 1_555
H27 C18 1_555 1_555
C19 C18 1_555 1_555
H28 C19 1_555 1_555
H29 C19 1_555 1_555
C20 C19 1_555 1_555
C21 C16 1_555 1_555
C22 C21 1_555 1_555
H30 C22 1_555 1_555
H31 C22 1_555 1_555
C23 C22 1_555 1_555
H32 C23 1_555 1_555
C24 C23 1_555 1_555
C25 C16 1_555 1_555
H33 C25 1_555 1_555
C26 C21 1_555 1_555
H34 C26 1_555 1_555
H35 C26 1_555 1_555
C27 C20 1_555 1_555
H36 C27 1_555 1_555
H37 C27 1_555 1_555
H38 C27 1_555 1_555
C28 C20 1_555 1_555
H39 C28 1_555 1_555
H40 C28 1_555 1_555
H41 C28 1_555 1_555
C29 O4 1_555 1_555
C30 C16 1_555 1_555
H42 C30 1_555 1_555
H43 C30 1_555 1_555
H44 C30 1_555 1_555
C5 C6 1_555 1_555
C9 C10 1_555 1_555
C9 C14 1_555 1_555
C10 C11 1_555 1_555
C20 C21 1_555 1_555
C24 C25 1_555 1_555
C24 C29 1_555 1_555
C25 C26 1_555 1_555

#END
