
#######################################################################
#
#                 Cambridge Crystallographic Data Centre
#                                CCDC 
#
#######################################################################
#
# If this CIF has been generated from an entry in the Cambridge 
# Structural Database, then it will include bibliographic, chemical, 
# crystal, experimental, refinement or atomic coordinate data resulting 
# from the CCDC's data processing and validation procedures.
#
#######################################################################

data_AKAFAT
_chemical_formula_moiety         'C7 H4 Se6'
_chemical_name_systematic        Methylenediselenotetraselenafulvalene
_symmetry_cell_setting           monoclinic
_symmetry_space_group_name_H-M   'P 21/a'
_symmetry_Int_Tables_number      14
_space_group_name_Hall           '-P 2yab'
loop_
_symmetry_equiv_pos_site_id
_symmetry_equiv_pos_as_xyz
1 x,y,z
2 1/2+x,1/2-y,z
3 -x,-y,-z
4 1/2-x,1/2+y,-z
_cell_length_a                   20.207(3)
_cell_length_b                   13.381(1)
_cell_length_c                   8.603(3)
_cell_angle_alpha                90
_cell_angle_beta                 100.87(2)
_cell_angle_gamma                90
_cell_volume                     2284.43
_exptl_crystal_colour            orange
_exptl_crystal_description       plate
_cell_formula_units_Z            8
loop_
_atom_site_label
_atom_site_type_symbol
_atom_site_fract_x
_atom_site_fract_y
_atom_site_fract_z
Se1 Se 1.08415(5) 0.34047(7) 0.7821(1)
Se2 Se 0.92567(5) 0.30719(8) 0.6955(1)
Se3 Se 1.09670(6) 0.16501(9) 1.0569(1)
Se4 Se 0.93774(7) 0.13211(9) 0.9733(2)
Se5 Se 0.92870(5) 0.38046(9) 0.3094(1)
Se6 Se 1.08789(5) 0.40874(8) 0.4052(1)
C1 C 1.0045(5) 0.3452(7) 0.622(1)
C2 C 0.9770(5) 0.2270(7) 0.853(1)
C3 C 1.0445(5) 0.2408(7) 0.889(1)
C4 C 1.0167(6) 0.1321(9) 1.145(2)
C5 C 1.0061(5) 0.3728(7) 0.472(1)
C6 C 1.0453(6) 0.4130(8) 0.191(1)
C7 C 0.9805(6) 0.4016(8) 0.154(1)
H1 H 1.0260 0.0685 1.1998
H2 H 1.0149 0.1813 1.2284
H3 H 1.0727 0.4224 0.1085
H4 H 0.9595 0.3985 0.0454
Se7 Se 0.78900(6) 0.13909(8) 0.6629(1)
Se8 Se 0.74729(6) -0.09012(8) 0.6523(1)
Se9 Se 0.90964(7) 0.0851(1) 0.4603(2)
Se10 Se 0.86578(7) -0.1435(1) 0.4505(2)
Se11 Se 0.70826(7) -0.0690(1) 1.0223(2)
Se12 Se 0.74366(7) 0.16290(9) 1.0245(2)
C8 C 0.7526(5) 0.0324(8) 0.771(1)
C9 C 0.8214(6) -0.0527(9) 0.564(1)
C10 C 0.8403(5) 0.0463(9) 0.566(1)
C11 C 0.8977(7) -0.0365(10) 0.327(2)
C12 C 0.7381(5) 0.0412(8) 0.912(1)
C13 C 0.7303(6) 0.101(1) 1.210(2)
C14 C 0.7154(6) 0.006(1) 1.211(2)
H5 H 0.8623 -0.0233 0.2279
H6 H 0.9367 -0.0543 0.2878
H7 H 0.7359 0.1378 1.3161
H8 H 0.7094 -0.0292 1.3104
loop_
_geom_bond_atom_site_label_1
_geom_bond_atom_site_label_2
_geom_bond_site_symmetry_1
_geom_bond_site_symmetry_2
Se1 C1 1_555 1_555
Se2 C1 1_555 1_555
Se3 C3 1_555 1_555
Se4 C2 1_555 1_555
Se5 C5 1_555 1_555
Se6 C5 1_555 1_555
Se7 C8 1_555 1_555
Se8 C8 1_555 1_555
Se9 C10 1_555 1_555
Se10 C9 1_555 1_555
Se11 C12 1_555 1_555
Se12 C12 1_555 1_555
C1 C5 1_555 1_555
C2 Se2 1_555 1_555
C3 Se1 1_555 1_555
C4 Se3 1_555 1_555
C6 Se6 1_555 1_555
C7 Se5 1_555 1_555
C8 C12 1_555 1_555
C9 Se8 1_555 1_555
C10 Se7 1_555 1_555
C11 Se9 1_555 1_555
C13 Se12 1_555 1_555
C14 Se11 1_555 1_555
H1 C4 1_555 1_555
H2 C4 1_555 1_555
H3 C6 1_555 1_555
H4 C7 1_555 1_555
H5 C11 1_555 1_555
H6 C11 1_555 1_555
H7 C13 1_555 1_555
H8 C14 1_555 1_555
Se4 C4 1_555 1_555
Se10 C11 1_555 1_555
C2 C3 1_555 1_555
C6 C7 1_555 1_555
C9 C10 1_555 1_555
C13 C14 1_555 1_555

#END
