
#######################################################################
#
#                 Cambridge Crystallographic Data Centre
#                                CCDC 
#
#######################################################################
#
# If this CIF has been generated from an entry in the Cambridge 
# Structural Database, then it will include bibliographic, chemical, 
# crystal, experimental, refinement or atomic coordinate data resulting 
# from the CCDC's data processing and validation procedures.
#
#######################################################################

data_AKASOU
_chemical_formula_moiety         'C25 H31 O3 P1 Si1'
_chemical_name_systematic        
'(2-methoxy-5-t-butyl(dimethyl)siloxyphenyl)(diphenyl)phosphine oxide'
_symmetry_cell_setting           monoclinic
_symmetry_space_group_name_H-M   'P 21/n'
_symmetry_Int_Tables_number      14
_space_group_name_Hall           '-P 2yn'
loop_
_symmetry_equiv_pos_site_id
_symmetry_equiv_pos_as_xyz
1 x,y,z
2 1/2+x,1/2-y,1/2+z
3 -x,-y,-z
4 1/2-x,1/2+y,1/2-z
_cell_length_a                   10.989(2)
_cell_length_b                   16.162(3)
_cell_length_c                   13.431(3)
_cell_angle_alpha                90
_cell_angle_beta                 92.114(5)
_cell_angle_gamma                90
_cell_volume                     2383.78
_exptl_crystal_colour            colorless
_exptl_crystal_description       prism
_chemical_melting_point          134-135deg.C
_cell_formula_units_Z            4
loop_
_atom_site_label
_atom_site_type_symbol
_atom_site_fract_x
_atom_site_fract_y
_atom_site_fract_z
P1 P 0.80011(4) 0.19437(2) 0.28751(3)
Si1 Si 0.76088(5) -0.00965(3) -0.13948(4)
O1 O 0.81356(11) 0.26508(7) 0.21747(9)
O2 O 0.73748(11) 0.02041(7) 0.36129(8)
O3 O 0.81995(13) 0.04183(8) -0.04218(9)
C1 C 0.79310(14) 0.09748(10) 0.21950(11)
C2 C 0.75762(15) 0.02205(10) 0.26039(12)
C3 C 0.74728(16) -0.04803(11) 0.20087(13)
H1 H 0.7251 -0.0996 0.2290
C4 C 0.76953(18) -0.04237(11) 0.09986(13)
H2 H 0.7632 -0.0905 0.0593
C5 C 0.80079(16) 0.03245(11) 0.05756(12)
C6 C 0.81450(14) 0.10174(10) 0.11804(12)
H3 H 0.8388 0.1528 0.0898
C7 C 0.64235(18) -0.03183(13) 0.39214(15)
H4 H 0.6289 -0.0227 0.4630
H5 H 0.6649 -0.0897 0.3816
H6 H 0.5675 -0.0192 0.3532
C8 C 0.66001(15) 0.19837(10) 0.35369(13)
C9 C 0.55129(17) 0.19556(12) 0.29648(15)
H7 H 0.5532 0.1924 0.2259
C10 C 0.44097(18) 0.19736(13) 0.34273(19)
H8 H 0.3673 0.1943 0.3036
C11 C 0.43645(19) 0.20346(12) 0.44477(18)
H9 H 0.3601 0.2053 0.4757
C12 C 0.5433(2) 0.20691(13) 0.50201(17)
H10 H 0.5405 0.2111 0.5724
C13 C 0.65521(18) 0.20426(11) 0.45662(14)
H11 H 0.7285 0.2065 0.4963
C14 C 0.92216(14) 0.19310(10) 0.38127(12)
C15 C 0.96975(16) 0.12201(11) 0.42590(13)
H12 H 0.9402 0.0692 0.4053
C16 C 1.06028(16) 0.12777(12) 0.50043(13)
H13 H 1.0923 0.0788 0.5305
C17 C 1.10409(16) 0.20360(12) 0.53112(13)
H14 H 1.1652 0.2071 0.5828
C18 C 1.05880(18) 0.27470(12) 0.48640(15)
H15 H 1.0895 0.3272 0.5069
C19 C 0.96867(16) 0.26974(11) 0.41166(14)
H16 H 0.9383 0.3189 0.3809
C20 C 0.59520(19) -0.02528(15) -0.12300(17)
H17 H 0.5581 0.0272 -0.1036
H18 H 0.5834 -0.0667 -0.0709
H19 H 0.5568 -0.0446 -0.1858
C21 C 0.8400(2) -0.11079(13) -0.15195(17)
H20 H 0.9271 -0.1037 -0.1360
H21 H 0.8287 -0.1310 -0.2205
H22 H 0.8058 -0.1509 -0.1060
C22 C 0.79077(17) 0.06039(12) -0.24696(13)
C23 C 0.7523(2) 0.01726(15) -0.34595(15)
H23 H 0.7676 0.0544 -0.4018
H24 H 0.6653 0.0038 -0.3457
H25 H 0.7995 -0.0337 -0.3530
C24 C 0.7185(2) 0.14099(13) -0.23870(17)
H26 H 0.7368 0.1774 -0.2946
H27 H 0.7413 0.1686 -0.1758
H28 H 0.6312 0.1285 -0.2405
C25 C 0.92686(18) 0.07973(15) -0.24752(16)
H29 H 0.9430 0.1166 -0.3034
H30 H 0.9727 0.0282 -0.2547
H31 H 0.9521 0.1068 -0.1848
loop_
_geom_bond_atom_site_label_1
_geom_bond_atom_site_label_2
_geom_bond_site_symmetry_1
_geom_bond_site_symmetry_2
P1 O1 1_555 1_555
Si1 O3 1_555 1_555
O2 C2 1_555 1_555
O3 C5 1_555 1_555
C1 P1 1_555 1_555
C2 C1 1_555 1_555
C3 C2 1_555 1_555
H1 C3 1_555 1_555
C4 C3 1_555 1_555
H2 C4 1_555 1_555
C5 C4 1_555 1_555
C6 C1 1_555 1_555
H3 C6 1_555 1_555
C7 O2 1_555 1_555
H4 C7 1_555 1_555
H5 C7 1_555 1_555
H6 C7 1_555 1_555
C8 P1 1_555 1_555
C9 C8 1_555 1_555
H7 C9 1_555 1_555
C10 C9 1_555 1_555
H8 C10 1_555 1_555
C11 C10 1_555 1_555
H9 C11 1_555 1_555
C12 C11 1_555 1_555
H10 C12 1_555 1_555
C13 C8 1_555 1_555
H11 C13 1_555 1_555
C14 P1 1_555 1_555
C15 C14 1_555 1_555
H12 C15 1_555 1_555
C16 C15 1_555 1_555
H13 C16 1_555 1_555
C17 C16 1_555 1_555
H14 C17 1_555 1_555
C18 C17 1_555 1_555
H15 C18 1_555 1_555
C19 C14 1_555 1_555
H16 C19 1_555 1_555
C20 Si1 1_555 1_555
H17 C20 1_555 1_555
H18 C20 1_555 1_555
H19 C20 1_555 1_555
C21 Si1 1_555 1_555
H20 C21 1_555 1_555
H21 C21 1_555 1_555
H22 C21 1_555 1_555
C22 Si1 1_555 1_555
C23 C22 1_555 1_555
H23 C23 1_555 1_555
H24 C23 1_555 1_555
H25 C23 1_555 1_555
C24 C22 1_555 1_555
H26 C24 1_555 1_555
H27 C24 1_555 1_555
H28 C24 1_555 1_555
C25 C22 1_555 1_555
H29 C25 1_555 1_555
H30 C25 1_555 1_555
H31 C25 1_555 1_555
C5 C6 1_555 1_555
C12 C13 1_555 1_555
C18 C19 1_555 1_555

#END
