
#######################################################################
#
#                 Cambridge Crystallographic Data Centre
#                                CCDC 
#
#######################################################################
#
# If this CIF has been generated from an entry in the Cambridge 
# Structural Database, then it will include bibliographic, chemical, 
# crystal, experimental, refinement or atomic coordinate data resulting 
# from the CCDC's data processing and validation procedures.
#
#######################################################################

data_AKIFAB
_chemical_formula_moiety         'C84 H136 O66 S2,5(C1 H4 O1),23(H2 O1)'
_chemical_name_systematic        
"bis(6,6'-dideoxy-\b-cyclodextrin)-6,6:6',6'-bis(sulfide) methanol solvate hydrate"
_symmetry_cell_setting           monoclinic
_symmetry_space_group_name_H-M   'C 2'
_symmetry_Int_Tables_number      5
_space_group_name_Hall           'C 2y'
loop_
_symmetry_equiv_pos_site_id
_symmetry_equiv_pos_as_xyz
1 x,y,z
2 -x,y,-z
3 1/2+x,1/2+y,z
4 1/2-x,1/2+y,-z
_cell_length_a                   35.557(2)
_cell_length_b                   12.3387(5)
_cell_length_c                   31.543(2)
_cell_angle_alpha                90
_cell_angle_beta                 115.272(4)
_cell_angle_gamma                90
_cell_volume                     12514.3
_exptl_crystal_colour            colorless
_exptl_crystal_description       prism
_cell_formula_units_Z            4
loop_
_atom_site_label
_atom_site_type_symbol
_atom_site_fract_x
_atom_site_fract_y
_atom_site_fract_z
O1 O 0.48819(11) 0.7063(4) 0.23147(12)
C1 C 0.46769(16) 0.7905(5) 0.24407(17)
H1 H 0.4784 0.7931 0.2790
O2 O 0.42417(11) 0.7729(4) 0.22373(11)
C2 C 0.47574(18) 0.8979(6) 0.22656(18)
H2 H 0.5061 0.9151 0.2429
O3 O 0.45264(19) 0.9787(5) 0.23834(16)
H3 H 0.4669 1.0011 0.2657
C3 C 0.46268(17) 0.8942(5) 0.17389(17)
H4 H 0.4317 0.8893 0.1573
O4 O 0.47615(15) 0.9916(4) 0.15968(14)
H5 H 0.4714 0.9868 0.1313
C4 C 0.48160(14) 0.7964(5) 0.16133(16)
H6 H 0.5123 0.8069 0.1736
C5 C 0.47309(16) 0.6938(5) 0.18129(17)
H7 H 0.4424 0.6815 0.1674
C6 C 0.4939(2) 0.5944(7) 0.1722(2)
H8 H 0.4802 0.5785 0.1382
H9 H 0.4885 0.5320 0.1886
S1 S 0.54940(7) 0.6028(2) 0.18987(8)
O5 O 0.36482(12) 0.5870(4) 0.26382(14)
C7 C 0.32850(16) 0.6494(5) 0.24954(18)
H10 H 0.3124 0.6238 0.2670
O6 O 0.30319(11) 0.6370(3) 0.20100(12)
C8 C 0.33839(16) 0.7687(5) 0.26042(17)
H11 H 0.3524 0.7784 0.2952
O7 O 0.30100(11) 0.8313(4) 0.24205(13)
H12 H 0.2889 0.8252 0.2597
C9 C 0.36712(15) 0.8099(5) 0.23951(17)
H13 H 0.3514 0.8102 0.2046
O8 O 0.37979(12) 0.9170(4) 0.25464(15)
H14 H 0.4004 0.9330 0.2495
C10 C 0.40474(16) 0.7365(5) 0.25272(17)
H15 H 0.4241 0.7464 0.2866
C11 C 0.39255(16) 0.6176(5) 0.24267(18)
H16 H 0.3775 0.6074 0.2080
C12 C 0.42880(19) 0.5380(6) 0.2618(2)
H17 H 0.4520 0.5657 0.2554
H18 H 0.4200 0.4673 0.2457
S2 S 0.44656(4) 0.51952(17) 0.32509(5)
O9 O 0.23551(16) 0.4091(4) 0.13916(19)
C13 C 0.1995(2) 0.4651(6) 0.1142(2)
H19 H 0.1756 0.4132 0.1036
O10 O 0.20060(14) 0.5153(4) 0.07354(15)
C14 C 0.19130(17) 0.5568(5) 0.1427(2)
H20 H 0.1865 0.5242 0.1690
O11 O 0.15537(12) 0.6197(4) 0.11356(14)
H21 H 0.1538 0.6231 0.0863
C15 C 0.22953(15) 0.6290(5) 0.16278(17)
H22 H 0.2317 0.6706 0.1367
O12 O 0.22469(11) 0.7032(4) 0.19485(14)
H23 H 0.2454 0.7447 0.2058
C16 C 0.26877(17) 0.5627(5) 0.1879(2)
H24 H 0.2686 0.5286 0.2165
C17 C 0.2724(2) 0.4751(5) 0.1557(3)
H25 H 0.2761 0.5084 0.1288
C18 C 0.3095(3) 0.3965(9) 0.1839(6)
H26 H 0.3330 0.4394 0.2066
H27 H 0.3006 0.3451 0.2019
O13 O 0.3228(4) 0.3400(11) 0.1564(6)
H28 H 0.3485 0.3291 0.1708
O14 O 0.16053(13) 0.3748(5) -0.04037(17)
C19 C 0.15425(18) 0.4652(8) -0.0695(2)
H29 H 0.1342 0.4444 -0.1020
O15 O 0.19112(11) 0.5018(5) -0.07107(14)
C20 C 0.1353(2) 0.5575(10) -0.0533(3)
H30 H 0.1071 0.5346 -0.0568
O16 O 0.13054(18) 0.6510(7) -0.0820(2)
H31 H 0.1125 0.6923 -0.0802
C21 C 0.16213(19) 0.5827(7) -0.0020(2)
H32 H 0.1891 0.6136 0.0009
O17 O 0.14247(16) 0.6611(5) 0.01609(18)
H33 H 0.1175 0.6437 0.0079
C22 C 0.17127(19) 0.4819(7) 0.0280(2)
H34 H 0.1453 0.4555 0.0295
C23 C 0.18938(18) 0.3920(7) 0.0075(2)
H35 H 0.2162 0.4184 0.0082
C24 C 0.1970(3) 0.2874(7) 0.0332(3)
H36 H 0.2127 0.3013 0.0672
H37 H 0.1700 0.2546 0.0280
O18 O 0.2197(2) 0.2131(5) 0.0187(2)
H38 H 0.2440 0.2363 0.0268
O19 O 0.24929(11) 0.3858(3) -0.13312(12)
C25 C 0.25289(15) 0.4833(5) -0.15612(17)
H39 H 0.2596 0.4636 -0.1828
O20 O 0.28507(11) 0.5500(4) -0.12428(13)
C26 C 0.21271(15) 0.5451(5) -0.17462(19)
H40 H 0.1903 0.4984 -0.1977
O21 O 0.21709(13) 0.6397(4) -0.19837(17)
H41 H 0.1995 0.6380 -0.2265
C27 C 0.20065(16) 0.5755(5) -0.1355(2)
H42 H 0.2219 0.6254 -0.1128
O22 O 0.16069(12) 0.6264(4) -0.15507(17)
H43 H 0.1634 0.6927 -0.1483
C28 C 0.19825(15) 0.4714(5) -0.11099(18)
H44 H 0.1743 0.4271 -0.1328
C29 C 0.23825(16) 0.4037(6) -0.09467(19)
H45 H 0.2614 0.4429 -0.0689
C30 C 0.23425(18) 0.2921(6) -0.07841(19)
H46 H 0.2607 0.2525 -0.0698
H47 H 0.2291 0.2975 -0.0500
O23 O 0.20145(13) 0.2327(4) -0.11338(14)
H48 H 0.2082 0.2158 -0.1350
O24 O 0.39776(11) 0.5319(4) -0.08737(14)
C31 C 0.40581(16) 0.6442(5) -0.08492(18)
H49 H 0.4342 0.6563 -0.0832
O25 O 0.40398(10) 0.6893(4) -0.04392(12)
C32 C 0.37443(16) 0.7033(6) -0.12695(18)
H50 H 0.3767 0.6778 -0.1559
O26 O 0.38381(12) 0.8157(4) -0.12048(12)
H51 H 0.3772 0.8453 -0.1467
C33 C 0.33085(16) 0.6787(5) -0.13111(17)
H52 H 0.3278 0.7142 -0.1043
O27 O 0.30124(11) 0.7262(4) -0.17381(12)
H53 H 0.2779 0.7295 -0.1732
C34 C 0.32309(15) 0.5606(6) -0.12963(18)
H54 H 0.3199 0.5257 -0.1596
C35 C 0.35798(16) 0.5041(5) -0.08787(19)
H55 H 0.3574 0.5304 -0.0582
C36 C 0.35560(18) 0.3828(6) -0.0890(2)
H56 H 0.3795 0.3525 -0.0616
H57 H 0.3297 0.3592 -0.0873
O28 O 0.35624(14) 0.3433(5) -0.13093(16)
H58 H 0.3526 0.2759 -0.1325
O29 O 0.49239(11) 0.6831(4) 0.07231(12)
C37 C 0.49065(15) 0.7867(5) 0.08916(16)
H59 H 0.5192 0.8069 0.1127
O30 O 0.46353(10) 0.7931(3) 0.11103(11)
C38 C 0.47598(18) 0.8726(5) 0.04894(18)
H60 H 0.4986 0.8827 0.0384
O31 O 0.46980(17) 0.9716(4) 0.06742(14)
H61 H 0.4663 1.0215 0.0480
C39 C 0.43695(16) 0.8341(5) 0.00737(17)
H62 H 0.4129 0.8365 0.0160
O32 O 0.42943(14) 0.9074(4) -0.03010(14)
H63 H 0.4112 0.8816 -0.0550
C40 C 0.44233(14) 0.7196(5) -0.00595(16)
H64 H 0.4653 0.7171 -0.0163
C41 C 0.45305(16) 0.6453(5) 0.03689(17)
H65 H 0.4312 0.6530 0.0487
C42 C 0.4584(3) 0.5275(6) 0.0287(2)
H66 H 0.4361 0.5045 -0.0017
H67 H 0.4855 0.5167 0.0273
O33 O 0.4570(5) 0.4645(6) 0.0647(3)
H68 H 0.4690 0.4051 0.0661
O34 O 0.52846(12) 0.4428(4) 0.25942(15)
C43 C 0.52429(16) 0.3414(6) 0.2768(2)
H69 H 0.4941 0.3275 0.2680
O35 O 0.54596(10) 0.3374(3) 0.32575(12)
C44 C 0.5415(2) 0.2491(7) 0.2562(2)
H70 H 0.5253 0.2491 0.2214
O36 O 0.53626(16) 0.1487(5) 0.27327(18)
H71 H 0.5108 0.1331 0.2618
C45 C 0.58650(17) 0.2753(5) 0.2677(2)
H72 H 0.6032 0.2716 0.3024
O37 O 0.60185(15) 0.1955(4) 0.24579(19)
H73 H 0.6258 0.2130 0.2492
C46 C 0.59039(15) 0.3878(5) 0.25099(19)
H74 H 0.5767 0.3905 0.2160
C47 C 0.57132(17) 0.4742(6) 0.2712(2)
H75 H 0.5872 0.4744 0.3061
C48 C 0.5715(2) 0.5868(7) 0.2535(3)
H76 H 0.6006 0.6130 0.2669
H77 H 0.5558 0.6343 0.2657
O38 O 0.50455(10) 0.4175(3) 0.41038(12)
C49 C 0.52366(14) 0.3400(4) 0.44486(17)
H78 H 0.5068 0.3313 0.4631
O39 O 0.56455(10) 0.3721(3) 0.47649(12)
C50 C 0.52660(14) 0.2293(4) 0.42453(16)
H79 H 0.4979 0.1986 0.4085
O40 O 0.55069(11) 0.1590(3) 0.46187(12)
H80 H 0.5407 0.0961 0.4560
C51 C 0.54465(14) 0.2382(4) 0.38859(17)
H81 H 0.5746 0.2585 0.4057
O41 O 0.54259(11) 0.1372(3) 0.36620(13)
H82 H 0.5177 0.1168 0.3528
C52 C 0.52287(14) 0.3278(4) 0.35345(17)
H83 H 0.4934 0.3073 0.3332
C53 C 0.52463(15) 0.4348(4) 0.37869(18)
H84 H 0.5544 0.4543 0.3979
C54 C 0.50283(16) 0.5305(5) 0.3477(2)
H85 H 0.5107 0.5343 0.3212
H86 H 0.5122 0.5983 0.3660
O42 O 0.59468(10) 0.5675(3) 0.57341(13)
C55 C 0.62241(15) 0.5002(4) 0.61004(17)
H87 H 0.6271 0.5327 0.6409
O43 O 0.66093(10) 0.4888(3) 0.60778(12)
C56 C 0.60488(16) 0.3857(5) 0.60694(18)
H88 H 0.5785 0.3904 0.6109
O44 O 0.63364(13) 0.3208(3) 0.64384(13)
H89 H 0.6580 0.3373 0.6485
C57 C 0.59494(15) 0.3398(5) 0.55867(19)
H90 H 0.6216 0.3265 0.5560
O45 O 0.57374(12) 0.2385(3) 0.55386(13)
H91 H 0.5685 0.2116 0.5274
C58 C 0.56840(15) 0.4159(4) 0.52008(17)
H92 H 0.5402 0.4210 0.5197
C59 C 0.58768(15) 0.5295(4) 0.52718(18)
H93 H 0.6147 0.5265 0.5245
C60 C 0.55856(19) 0.6095(5) 0.4917(2)
H94 H 0.5439 0.5729 0.4611
H95 H 0.5374 0.6344 0.5022
O46 O 0.5800(2) 0.6983(4) 0.4864(2)
H96 H 0.5788 0.7493 0.5035
O47 O 0.74150(10) 0.6993(3) 0.63944(12)
C61 C 0.77722(14) 0.6298(4) 0.65702(16)
H97 H 0.8026 0.6736 0.6760
O48 O 0.78175(10) 0.5825(3) 0.61867(11)
C62 C 0.77221(15) 0.5412(4) 0.68728(17)
H98 H 0.7708 0.5758 0.7152
O49 O 0.80794(10) 0.4712(3) 0.70351(12)
H99 H 0.8110 0.4464 0.6804
C63 C 0.73208(14) 0.4775(4) 0.66108(17)
H100 H 0.7348 0.4332 0.6360
O50 O 0.72261(11) 0.4077(3) 0.69089(12)
H101 H 0.7007 0.4289 0.6923
C64 C 0.69526(14) 0.5544(4) 0.63849(15)
H102 H 0.6884 0.5877 0.6633
C65 C 0.70346(15) 0.6440(4) 0.60980(17)
H103 H 0.7062 0.6115 0.5822
C66 C 0.67060(16) 0.7316(4) 0.59345(17)
H104 H 0.6793 0.7910 0.5785
H105 H 0.6440 0.7015 0.5700
O51 O 0.66509(13) 0.7722(3) 0.63256(13)
H106 H 0.6597 0.8387 0.6289
O52 O 0.84131(10) 0.7154(3) 0.56170(12)
O53 O 0.81690(10) 0.5912(3) 0.49991(11)
C67 C 0.85088(14) 0.6228(4) 0.54229(17)
H107 H 0.8753 0.6394 0.5355
C68 C 0.86174(15) 0.5284(4) 0.57545(18)
H108 H 0.8879 0.5464 0.6036
O54 O 0.86943(11) 0.4350(3) 0.55355(13)
H109 H 0.8879 0.3968 0.5739
C69 C 0.82746(14) 0.5075(4) 0.59175(15)
H110 H 0.8020 0.4822 0.5642
O55 O 0.83917(11) 0.4261(3) 0.62755(12)
H111 H 0.8232 0.3725 0.6176
C70 C 0.81688(14) 0.6104(4) 0.61018(16)
H112 H 0.8407 0.6320 0.6402
C71 C 0.80701(15) 0.7017(4) 0.57427(18)
H113 H 0.7818 0.6809 0.5455
C72 C 0.79946(18) 0.8124(5) 0.5906(2)
H114 H 0.7796 0.8044 0.6048
H115 H 0.8260 0.8400 0.6151
O56 O 0.78337(14) 0.8896(3) 0.55338(17)
H116 H 0.7573 0.8885 0.5415
O57 O 0.77825(11) 0.7016(3) 0.38043(12)
C73 C 0.78975(15) 0.6176(4) 0.35780(17)
H117 H 0.7906 0.6473 0.3287
O58 O 0.76113(10) 0.5305(3) 0.34530(11)
C74 C 0.83284(15) 0.5776(4) 0.39025(18)
H118 H 0.8526 0.6399 0.3976
O59 O 0.84670(12) 0.4934(3) 0.36887(13)
H119 H 0.8345 0.4352 0.3691
C75 C 0.83300(15) 0.5371(4) 0.43603(17)
H120 H 0.8132 0.4750 0.4292
O60 O 0.87370(11) 0.5016(3) 0.46658(12)
H121 H 0.8753 0.4934 0.4937
C76 C 0.81851(14) 0.6298(4) 0.45747(17)
H122 H 0.8384 0.6918 0.4649
C77 C 0.77513(16) 0.6661(4) 0.42227(17)
H123 H 0.7562 0.6019 0.4142
C78 C 0.75518(19) 0.7575(5) 0.4375(2)
H124 H 0.7602 0.7467 0.4706
H125 H 0.7679 0.8274 0.4352
O61 O 0.71182(13) 0.7608(4) 0.40883(15)
H126 H 0.7019 0.6982 0.4065
O62 O 0.66044(10) 0.5555(3) 0.24051(11)
C79 C 0.64941(15) 0.4448(4) 0.23515(17)
H127 H 0.6274 0.4324 0.2027
O63 O 0.63440(10) 0.4095(3) 0.26795(12)
C80 C 0.68705(15) 0.3751(4) 0.24273(17)
H128 H 0.6962 0.3921 0.2176
O64 O 0.67529(11) 0.2641(3) 0.23895(12)
H129 H 0.6772 0.2420 0.2650
C81 C 0.72287(14) 0.3993(4) 0.29023(16)
H130 H 0.7155 0.3716 0.3155
O65 O 0.75838(10) 0.3436(3) 0.29265(13)
H131 H 0.7675 0.3034 0.3164
C82 C 0.73123(14) 0.5209(4) 0.29709(16)
H132 H 0.7434 0.5479 0.2758
C83 C 0.69071(15) 0.5828(4) 0.28779(16)
H133 H 0.6800 0.5597 0.3110
C84 C 0.69517(15) 0.7049(4) 0.28886(17)
H134 H 0.6671 0.7374 0.2731
H135 H 0.7074 0.7291 0.3220
O66 O 0.72014(11) 0.7458(3) 0.26707(12)
H136 H 0.7062 0.7458 0.2378
O67 O 0.29621(19) 0.3104(6) 0.0573(3)
O68 O 0.34418(19) 0.0718(6) 0.2872(2)
O69 O 0.4653(2) 0.0505(7) 0.3302(2)
O70 O 0.4919(2) -0.1501(7) 0.3652(2)
O71 O 0.3641(3) 0.6671(8) 0.0960(3)
O72 O 0.6877(2) 0.6010(5) 0.4537(3)
O73 O 0.70237(15) -0.1880(5) 0.50886(16)
O74 O 0.51193(15) -0.0315(4) 0.45005(18)
O75 O 0.43435(16) -0.1328(4) 0.4664(2)
O76 O 0.63550(14) -0.0768(5) 0.20102(15)
O77 O 0.43190(17) 0.0630(4) 0.3971(2)
O78 O 0.9145(3) 0.3968(16) 0.7023(2)
O79 O 0.5636(4) 0.0148(16) 0.1974(10)
H137 H 0.561(5) 0.075(6) 0.177(5)
H138 H 0.566(6) 0.011(14) 0.227(3)
O80 O 0.4446(6) -0.2533(9) 0.3999(7)
O81 O 0.1432(5) 0.8671(13) -0.0135(3)
O82 O 0.4508(4) 0.3733(13) -0.1025(7)
O83 O 0.5000 0.2838(13) 0.0000
O84 O 0.1908(4) 0.0191(11) -0.0266(6)
O85 O 0.3916(6) 0.4694(13) 0.1489(7)
O86 O 0.561(3) 1.226(4) 0.1399(12)
O87 O 0.0151(7) 0.786(2) -0.0905(15)
O88 O 0.5712(2) -0.1759(6) 0.3697(2)
H139 H 0.5956 -0.1752 0.3720
C85 C 0.5715(3) -0.2110(10) 0.4115(4)
H140 H 0.5430 -0.2119 0.4087
H141 H 0.5885 -0.1618 0.4368
H142 H 0.5832 -0.2843 0.4185
O89 O 0.4441(3) 1.1476(10) 0.0087(4)
H143 H 0.4368 1.1994 -0.0105
C86 C 0.4848(6) 1.1540(16) 0.0355(7)
H144 H 0.4933 1.0936 0.0579
H145 H 0.4911 1.2228 0.0527
H146 H 0.4999 1.1502 0.0158
O90 O 0.0532(6) 0.7044(16) -0.1409(7)
H147 H 0.0275 0.7139 -0.1560
C87 C 0.0685(3) 0.7724(16) -0.1020(4)
H148 H 0.0985 0.7612 -0.0845
H149 H 0.0546 0.7558 -0.0818
H150 H 0.0631 0.8480 -0.1123
O91 O 0.0729(3) 0.6253(16) 0.1061(4)
H151 H 0.0573 0.6797 0.0962
C88 C 0.0688(7) 0.5599(10) 0.0683(6)
H152 H 0.0869 0.4964 0.0798
H153 H 0.0768 0.6012 0.0469
H154 H 0.0399 0.5361 0.0516
O92 O 0.4211(7) 0.1901(10) 0.2315(6)
H155 H 0.4425 0.1622 0.2526
C89 C 0.4084(10) 0.278(3) 0.250(3)
H156 H 0.3835 0.3100 0.2252
H157 H 0.4307 0.3316 0.2616
H158 H 0.4020 0.2528 0.2755
O93? O 0.6053(3) 0.6342(7) 0.4199(3)
O94? O 0.3929(10) 0.241(2) 0.2926(8)
loop_
_geom_bond_atom_site_label_1
_geom_bond_atom_site_label_2
_geom_bond_site_symmetry_1
_geom_bond_site_symmetry_2
O1 C1 1_555 1_555
C1 H1 1_555 1_555
O2 C1 1_555 1_555
C2 C1 1_555 1_555
H2 C2 1_555 1_555
O3 C2 1_555 1_555
H3 O3 1_555 1_555
C3 C2 1_555 1_555
H4 C3 1_555 1_555
O4 C3 1_555 1_555
H5 O4 1_555 1_555
C4 C3 1_555 1_555
H6 C4 1_555 1_555
C5 O1 1_555 1_555
H7 C5 1_555 1_555
C6 C5 1_555 1_555
H8 C6 1_555 1_555
H9 C6 1_555 1_555
S1 C6 1_555 1_555
O5 C7 1_555 1_555
C7 H10 1_555 1_555
O6 C7 1_555 1_555
C8 C7 1_555 1_555
H11 C8 1_555 1_555
O7 C8 1_555 1_555
H12 O7 1_555 1_555
C9 C8 1_555 1_555
H13 C9 1_555 1_555
O8 C9 1_555 1_555
H14 O8 1_555 1_555
C10 O2 1_555 1_555
H15 C10 1_555 1_555
C11 O5 1_555 1_555
H16 C11 1_555 1_555
C12 C11 1_555 1_555
H17 C12 1_555 1_555
H18 C12 1_555 1_555
S2 C12 1_555 1_555
O9 C13 1_555 1_555
C13 H19 1_555 1_555
O10 C13 1_555 1_555
C14 C13 1_555 1_555
H20 C14 1_555 1_555
O11 C14 1_555 1_555
H21 O11 1_555 1_555
C15 C14 1_555 1_555
H22 C15 1_555 1_555
O12 C15 1_555 1_555
H23 O12 1_555 1_555
C16 O6 1_555 1_555
H24 C16 1_555 1_555
C17 O9 1_555 1_555
H25 C17 1_555 1_555
C18 C17 1_555 1_555
H26 C18 1_555 1_555
H27 C18 1_555 1_555
O13 C18 1_555 1_555
H28 O13 1_555 1_555
O14 C19 1_555 1_555
C19 H29 1_555 1_555
O15 C19 1_555 1_555
C20 C19 1_555 1_555
H30 C20 1_555 1_555
O16 C20 1_555 1_555
H31 O16 1_555 1_555
C21 C20 1_555 1_555
H32 C21 1_555 1_555
O17 C21 1_555 1_555
H33 O17 1_555 1_555
C22 O10 1_555 1_555
H34 C22 1_555 1_555
C23 O14 1_555 1_555
H35 C23 1_555 1_555
C24 C23 1_555 1_555
H36 C24 1_555 1_555
H37 C24 1_555 1_555
O18 C24 1_555 1_555
H38 O18 1_555 1_555
O19 C25 1_555 1_555
C25 H39 1_555 1_555
O20 C25 1_555 1_555
C26 C25 1_555 1_555
H40 C26 1_555 1_555
O21 C26 1_555 1_555
H41 O21 1_555 1_555
C27 C26 1_555 1_555
H42 C27 1_555 1_555
O22 C27 1_555 1_555
H43 O22 1_555 1_555
C28 O15 1_555 1_555
H44 C28 1_555 1_555
C29 O19 1_555 1_555
H45 C29 1_555 1_555
C30 C29 1_555 1_555
H46 C30 1_555 1_555
H47 C30 1_555 1_555
O23 C30 1_555 1_555
H48 O23 1_555 1_555
O24 C31 1_555 1_555
C31 H49 1_555 1_555
O25 C31 1_555 1_555
C32 C31 1_555 1_555
H50 C32 1_555 1_555
O26 C32 1_555 1_555
H51 O26 1_555 1_555
C33 C32 1_555 1_555
H52 C33 1_555 1_555
O27 C33 1_555 1_555
H53 O27 1_555 1_555
C34 O20 1_555 1_555
H54 C34 1_555 1_555
C35 O24 1_555 1_555
H55 C35 1_555 1_555
C36 C35 1_555 1_555
H56 C36 1_555 1_555
H57 C36 1_555 1_555
O28 C36 1_555 1_555
H58 O28 1_555 1_555
O29 C37 1_555 1_555
C37 H59 1_555 1_555
O30 C4 1_555 1_555
C38 C37 1_555 1_555
H60 C38 1_555 1_555
O31 C38 1_555 1_555
H61 O31 1_555 1_555
C39 C38 1_555 1_555
H62 C39 1_555 1_555
O32 C39 1_555 1_555
H63 O32 1_555 1_555
C40 O25 1_555 1_555
H64 C40 1_555 1_555
C41 O29 1_555 1_555
H65 C41 1_555 1_555
C42 C41 1_555 1_555
H66 C42 1_555 1_555
H67 C42 1_555 1_555
O33 C42 1_555 1_555
H68 O33 1_555 1_555
O34 C43 1_555 1_555
C43 H69 1_555 1_555
O35 C43 1_555 1_555
C44 C43 1_555 1_555
H70 C44 1_555 1_555
O36 C44 1_555 1_555
H71 O36 1_555 1_555
C45 C44 1_555 1_555
H72 C45 1_555 1_555
O37 C45 1_555 1_555
H73 O37 1_555 1_555
C46 C45 1_555 1_555
H74 C46 1_555 1_555
C47 O34 1_555 1_555
H75 C47 1_555 1_555
C48 S1 1_555 1_555
H76 C48 1_555 1_555
H77 C48 1_555 1_555
O38 C49 1_555 1_555
C49 H78 1_555 1_555
O39 C49 1_555 1_555
C50 C49 1_555 1_555
H79 C50 1_555 1_555
O40 C50 1_555 1_555
H80 O40 1_555 1_555
C51 C50 1_555 1_555
H81 C51 1_555 1_555
O41 C51 1_555 1_555
H82 O41 1_555 1_555
C52 O35 1_555 1_555
H83 C52 1_555 1_555
C53 O38 1_555 1_555
H84 C53 1_555 1_555
C54 S2 1_555 1_555
H85 C54 1_555 1_555
H86 C54 1_555 1_555
O42 C55 1_555 1_555
C55 H87 1_555 1_555
O43 C55 1_555 1_555
C56 C55 1_555 1_555
H88 C56 1_555 1_555
O44 C56 1_555 1_555
H89 O44 1_555 1_555
C57 C56 1_555 1_555
H90 C57 1_555 1_555
O45 C57 1_555 1_555
H91 O45 1_555 1_555
C58 O39 1_555 1_555
H92 C58 1_555 1_555
C59 O42 1_555 1_555
H93 C59 1_555 1_555
C60 C59 1_555 1_555
H94 C60 1_555 1_555
H95 C60 1_555 1_555
O46 C60 1_555 1_555
H96 O46 1_555 1_555
O47 C61 1_555 1_555
C61 H97 1_555 1_555
O48 C61 1_555 1_555
C62 C61 1_555 1_555
H98 C62 1_555 1_555
O49 C62 1_555 1_555
H99 O49 1_555 1_555
C63 C62 1_555 1_555
H100 C63 1_555 1_555
O50 C63 1_555 1_555
H101 O50 1_555 1_555
C64 O43 1_555 1_555
H102 C64 1_555 1_555
C65 O47 1_555 1_555
H103 C65 1_555 1_555
C66 C65 1_555 1_555
H104 C66 1_555 1_555
H105 C66 1_555 1_555
O51 C66 1_555 1_555
H106 O51 1_555 1_555
O52 C67 1_555 1_555
O53 C67 1_555 1_555
C67 H107 1_555 1_555
C68 C67 1_555 1_555
H108 C68 1_555 1_555
O54 C68 1_555 1_555
H109 O54 1_555 1_555
C69 C68 1_555 1_555
H110 C69 1_555 1_555
O55 C69 1_555 1_555
H111 O55 1_555 1_555
C70 O48 1_555 1_555
H112 C70 1_555 1_555
C71 O52 1_555 1_555
H113 C71 1_555 1_555
C72 C71 1_555 1_555
H114 C72 1_555 1_555
H115 C72 1_555 1_555
O56 C72 1_555 1_555
H116 O56 1_555 1_555
O57 C73 1_555 1_555
C73 H117 1_555 1_555
O58 C73 1_555 1_555
C74 C73 1_555 1_555
H118 C74 1_555 1_555
O59 C74 1_555 1_555
H119 O59 1_555 1_555
C75 C74 1_555 1_555
H120 C75 1_555 1_555
O60 C75 1_555 1_555
H121 O60 1_555 1_555
C76 O53 1_555 1_555
H122 C76 1_555 1_555
C77 O57 1_555 1_555
H123 C77 1_555 1_555
C78 C77 1_555 1_555
H124 C78 1_555 1_555
H125 C78 1_555 1_555
O61 C78 1_555 1_555
H126 O61 1_555 1_555
O62 C79 1_555 1_555
C79 H127 1_555 1_555
O63 C46 1_555 1_555
C80 C79 1_555 1_555
H128 C80 1_555 1_555
O64 C80 1_555 1_555
H129 O64 1_555 1_555
C81 C80 1_555 1_555
H130 C81 1_555 1_555
O65 C81 1_555 1_555
H131 O65 1_555 1_555
C82 O58 1_555 1_555
H132 C82 1_555 1_555
C83 O62 1_555 1_555
H133 C83 1_555 1_555
C84 C83 1_555 1_555
H134 C84 1_555 1_555
H135 C84 1_555 1_555
O66 C84 1_555 1_555
H136 O66 1_555 1_555
O79 H137 1_555 1_555
H138 O79 1_555 1_555
O88 H139 1_555 1_555
C85 O88 1_555 1_555
H140 C85 1_555 1_555
H141 C85 1_555 1_555
H142 C85 1_555 1_555
O89 H143 1_555 1_555
C86 O89 1_555 1_555
H144 C86 1_555 1_555
H145 C86 1_555 1_555
H146 C86 1_555 1_555
O90 H147 1_555 1_555
C87 O90 1_555 1_555
H148 C87 1_555 1_555
H149 C87 1_555 1_555
H150 C87 1_555 1_555
O91 H151 1_555 1_555
C88 O91 1_555 1_555
H152 C88 1_555 1_555
H153 C88 1_555 1_555
H154 C88 1_555 1_555
O92 H155 1_555 1_555
C89 O92 1_555 1_555
H156 C89 1_555 1_555
H157 C89 1_555 1_555
H158 C89 1_555 1_555
C4 C5 1_555 1_555
C9 C10 1_555 1_555
C10 C11 1_555 1_555
C15 C16 1_555 1_555
C16 C17 1_555 1_555
C21 C22 1_555 1_555
C22 C23 1_555 1_555
C27 C28 1_555 1_555
C28 C29 1_555 1_555
C33 C34 1_555 1_555
C34 C35 1_555 1_555
C37 O30 1_555 1_555
C39 C40 1_555 1_555
C40 C41 1_555 1_555
C46 C47 1_555 1_555
C47 C48 1_555 1_555
C51 C52 1_555 1_555
C52 C53 1_555 1_555
C53 C54 1_555 1_555
C57 C58 1_555 1_555
C58 C59 1_555 1_555
C63 C64 1_555 1_555
C64 C65 1_555 1_555
C69 C70 1_555 1_555
C70 C71 1_555 1_555
C75 C76 1_555 1_555
C76 C77 1_555 1_555
C79 O63 1_555 1_555
C81 C82 1_555 1_555
C82 C83 1_555 1_555

#END
