
#######################################################################
#
#                 Cambridge Crystallographic Data Centre
#                                CCDC 
#
#######################################################################
#
# If this CIF has been generated from an entry in the Cambridge 
# Structural Database, then it will include bibliographic, chemical, 
# crystal, experimental, refinement or atomic coordinate data resulting 
# from the CCDC's data processing and validation procedures.
#
#######################################################################

data_AKIMUE
_chemical_formula_moiety         'C38 H34 N10 4+,C8 H10,4(F6 P1 1-)'
_chemical_name_systematic        
'6,12,25,31,42,47-hexaaza-3,15,22,34-tetraazonianonacyclo[34.2.2.2^17,20^.1^3,6^.1^7,11^.1^12,15^.1^22,25^.1^26,30^.1^31,34^]octatetraconta-1(38),3(48),4,7(47),8,10,13,15(46),17,19,22(43),23,26(42),27,29,32,34(41),36,39,44-icosaene tetrakis(hexafluorophosphate) p-xylene solvate'
_symmetry_cell_setting           triclinic
_symmetry_space_group_name_H-M   'P -1'
_symmetry_Int_Tables_number      2
_space_group_name_Hall           '-P 1'
loop_
_symmetry_equiv_pos_site_id
_symmetry_equiv_pos_as_xyz
1 x,y,z
2 -x,-y,-z
_cell_length_a                   10.424(2)
_cell_length_b                   11.226(2)
_cell_length_c                   11.926(2)
_cell_angle_alpha                111.47(3)
_cell_angle_beta                 91.65(3)
_cell_angle_gamma                91.96(3)
_cell_volume                     1296.7
_exptl_crystal_colour            colorless
_exptl_crystal_description       Prism
_cell_formula_units_Z            1
loop_
_atom_site_label
_atom_site_type_symbol
_atom_site_fract_x
_atom_site_fract_y
_atom_site_fract_z
P1 P 0.83621(9) 0.03625(8) 0.30149(8)
F1 F 0.7047(2) 0.0007(2) 0.3475(2)
F2 F 0.7720(2) 0.0108(2) 0.17216(19)
F3 F 0.8765(2) -0.1089(2) 0.2578(2)
F4 F 0.9710(2) 0.0760(2) 0.25786(19)
F5 F 0.7999(2) 0.18341(19) 0.34627(18)
F6 F 0.9051(2) 0.06216(19) 0.43080(17)
P2 P 0.43503(10) 0.29941(9) 0.23396(9)
F7 F 0.3188(4) 0.2639(5) 0.1529(5)
F8 F 0.5250(6) 0.2266(7) 0.1287(5)
F9 F 0.4637(8) 0.4294(5) 0.2127(5)
F10 F 0.4312(7) 0.1776(5) 0.2714(5)
F11 F 0.5697(5) 0.3430(5) 0.3262(4)
F12 F 0.3687(6) 0.3808(6) 0.3543(5)
N1 N 0.8365(3) 0.1574(3) 0.0170(3)
N2 N 0.9370(3) 0.3111(3) 0.1621(2)
N3 N 0.8593(3) 0.4945(3) 0.3030(2)
N4 N 0.7713(3) 0.6800(3) 0.4310(2)
N5 N 0.5741(3) 0.7333(3) 0.4458(3)
C1 C 0.7328(4) 0.0738(3) -0.0622(3)
H1 H 0.6608 0.0685 -0.0142
H2 H 0.7632 -0.0119 -0.1006
C2 C 0.8211(3) 0.2578(3) 0.1169(3)
H3 H 0.7430 0.2863 0.1500
C3 C 0.9661(4) 0.1466(3) -0.0026(3)
H4 H 1.0030 0.0847 -0.0669
C4 C 1.0292(3) 0.2413(3) 0.0876(3)
H5 H 1.1177 0.2572 0.0982
C5 C 0.9602(3) 0.4240(3) 0.2672(3)
C6 C 1.0820(3) 0.4545(4) 0.3212(3)
H6 H 1.1492 0.4005 0.2932
C7 C 1.0997(4) 0.5686(4) 0.4187(3)
H7 H 1.1801 0.5927 0.4581
C8 C 0.9978(3) 0.6467(3) 0.4576(3)
H8 H 1.0076 0.7247 0.5221
C9 C 0.8808(3) 0.6037(3) 0.3962(3)
C10 C 0.6493(3) 0.6369(3) 0.3999(3)
H9 H 0.6222 0.5530 0.3536
C11 C 0.7721(4) 0.8105(3) 0.4990(3)
H10 H 0.8439 0.8649 0.5320
C12 C 0.6492(4) 0.8425(3) 0.5076(3)
H11 H 0.6198 0.9238 0.5481
C13 C 0.4338(3) 0.7270(4) 0.4263(3)
H12 H 0.3953 0.7746 0.5019
H13 H 0.4019 0.6385 0.4005
C14 C 0.3936(3) 0.7813(3) 0.3327(3)
C15 C 0.2730(3) 0.8290(3) 0.3354(3)
H14 H 0.2186 0.8293 0.3960
C16 C 0.2322(4) 0.8761(3) 0.2494(3)
H15 H 0.1507 0.9081 0.2527
C17 C 0.3113(3) 0.8763(3) 0.1579(3)
C18 C 0.4316(4) 0.8299(4) 0.1555(4)
H16 H 0.4861 0.8300 0.0951
C19 C 0.4726(4) 0.7829(4) 0.2423(4)
H17 H 0.5545 0.7520 0.2395
N1A N 0.1635(3) 0.8426(3) -0.0170(3)
N2A N 0.0630(3) 0.6889(3) -0.1621(2)
N3A N 0.1407(3) 0.5055(3) -0.3030(2)
N4A N 0.2287(3) 0.3200(3) -0.4310(2)
N5A N 0.4259(3) 0.2667(3) -0.4458(3)
C1A C 0.2672(4) 0.9262(3) 0.0622(3)
H1A H 0.3392 0.9315 0.0142
H2A H 0.2368 1.0119 0.1006
C2A C 0.1789(3) 0.7422(3) -0.1169(3)
H3A H 0.2570 0.7137 -0.1500
C3A C 0.0339(4) 0.8534(3) 0.0026(3)
H4A H -0.0030 0.9153 0.0669
C4A C -0.0292(3) 0.7587(3) -0.0876(3)
H5A H -0.1177 0.7428 -0.0982
C5A C 0.0398(3) 0.5760(3) -0.2672(3)
C6A C -0.0820(3) 0.5455(4) -0.3212(3)
H6A H -0.1492 0.5995 -0.2932
C7A C -0.0997(4) 0.4314(4) -0.4187(3)
H7A H -0.1801 0.4073 -0.4581
C8A C 0.0022(3) 0.3533(3) -0.4576(3)
H8A H -0.0076 0.2753 -0.5221
C9A C 0.1192(3) 0.3963(3) -0.3962(3)
C10A C 0.3507(3) 0.3631(3) -0.3999(3)
H9A H 0.3778 0.4470 -0.3536
C11A C 0.2279(4) 0.1895(3) -0.4990(3)
H10A H 0.1561 0.1351 -0.5320
C12A C 0.3508(4) 0.1575(3) -0.5076(3)
H11A H 0.3802 0.0762 -0.5481
C13A C 0.5662(3) 0.2730(4) -0.4263(3)
H12A H 0.6047 0.2254 -0.5019
H13A H 0.5981 0.3615 -0.4005
C14A C 0.6064(3) 0.2187(3) -0.3327(3)
C15A C 0.7270(3) 0.1710(3) -0.3354(3)
H14A H 0.7814 0.1707 -0.3960
C16A C 0.7678(4) 0.1239(3) -0.2494(3)
H15A H 0.8493 0.0919 -0.2527
C17A C 0.6887(3) 0.1237(3) -0.1579(3)
C18A C 0.5684(4) 0.1701(4) -0.1555(4)
H16A H 0.5139 0.1700 -0.0951
C19A C 0.5274(4) 0.2171(4) -0.2423(4)
H17A H 0.4455 0.2480 -0.2395
C20 C -0.2515(4) 0.5945(4) 0.0799(4)
H18 H -0.3168 0.5429 0.0227
H19 H -0.2550 0.6818 0.0857
H20 H -0.2655 0.5897 0.1574
C21 C -0.1220(4) 0.5458(3) 0.0392(3)
C22 C -0.0097(4) 0.6033(3) 0.1058(3)
H21 H -0.0148 0.6735 0.1773
C23 C 0.1096(4) 0.5580(3) 0.0674(3)
H22 H 0.1829 0.5980 0.1140
C20A C 0.2515(4) 0.4055(4) -0.0799(4)
H18A H 0.3168 0.4571 -0.0227
H19A H 0.2550 0.3182 -0.0857
H20A H 0.2655 0.4103 -0.1574
C21A C 0.1220(4) 0.4542(3) -0.0392(3)
C22A C 0.0097(4) 0.3967(3) -0.1058(3)
H21A H 0.0148 0.3265 -0.1773
C23A C -0.1096(4) 0.4420(3) -0.0674(3)
H22A H -0.1829 0.4020 -0.1140
F13? F 0.3428(4) 0.3850(7) 0.1857(7)
F14? F 0.4246(7) 0.1915(6) 0.1011(5)
F15? F 0.5529(3) 0.3641(4) 0.1983(5)
F16? F 0.3026(3) 0.2330(4) 0.2617(4)
F17? F 0.5117(6) 0.2123(7) 0.2796(8)
F18? F 0.4323(8) 0.4040(7) 0.3637(5)
loop_
_geom_bond_atom_site_label_1
_geom_bond_atom_site_label_2
_geom_bond_site_symmetry_1
_geom_bond_site_symmetry_2
P1 F1 1_555 1_555
F2 P1 1_555 1_555
F3 P1 1_555 1_555
F4 P1 1_555 1_555
F5 P1 1_555 1_555
F6 P1 1_555 1_555
P2 F7 1_555 1_555
F8 P2 1_555 1_555
F9 P2 1_555 1_555
F10 P2 1_555 1_555
F11 P2 1_555 1_555
F12 P2 1_555 1_555
N1 C1 1_555 1_555
N2 C2 1_555 1_555
N3 C5 1_555 1_555
N4 C9 1_555 1_555
N5 C10 1_555 1_555
C1 H1 1_555 1_555
H2 C1 1_555 1_555
C2 N1 1_555 1_555
H3 C2 1_555 1_555
C3 N1 1_555 1_555
H4 C3 1_555 1_555
C4 N2 1_555 1_555
H5 C4 1_555 1_555
C5 N2 1_555 1_555
C6 C5 1_555 1_555
H6 C6 1_555 1_555
C7 C6 1_555 1_555
H7 C7 1_555 1_555
C8 C7 1_555 1_555
H8 C8 1_555 1_555
C9 N3 1_555 1_555
C10 N4 1_555 1_555
H9 C10 1_555 1_555
C11 N4 1_555 1_555
H10 C11 1_555 1_555
C12 N5 1_555 1_555
H11 C12 1_555 1_555
C13 N5 1_555 1_555
H12 C13 1_555 1_555
H13 C13 1_555 1_555
C14 C13 1_555 1_555
C15 C14 1_555 1_555
H14 C15 1_555 1_555
C16 C15 1_555 1_555
H15 C16 1_555 1_555
C17 C16 1_555 1_555
C18 C17 1_555 1_555
H16 C18 1_555 1_555
C19 C14 1_555 1_555
H17 C19 1_555 1_555
C20 H18 1_555 1_555
H19 C20 1_555 1_555
H20 C20 1_555 1_555
C21 C20 1_555 1_555
C22 C21 1_555 1_555
H21 C22 1_555 1_555
C23 C22 1_555 1_555
H22 C23 1_555 1_555
N1A C1A 1_555 1_555
N2A C2A 1_555 1_555
N3A C5A 1_555 1_555
N4A C9A 1_555 1_555
N5A C10A 1_555 1_555
C1A C17 1_555 1_555
H1A C1A 1_555 1_555
H2A C1A 1_555 1_555
C2A N1A 1_555 1_555
H3A C2A 1_555 1_555
C3A N1A 1_555 1_555
H4A C3A 1_555 1_555
C4A N2A 1_555 1_555
H5A C4A 1_555 1_555
C5A N2A 1_555 1_555
C6A C5A 1_555 1_555
H6A C6A 1_555 1_555
C7A C6A 1_555 1_555
H7A C7A 1_555 1_555
C8A C7A 1_555 1_555
H8A C8A 1_555 1_555
C9A N3A 1_555 1_555
C10A N4A 1_555 1_555
H9A C10A 1_555 1_555
C11A N4A 1_555 1_555
H10A C11A 1_555 1_555
C12A N5A 1_555 1_555
H11A C12A 1_555 1_555
C13A N5A 1_555 1_555
H12A C13A 1_555 1_555
H13A C13A 1_555 1_555
C14A C13A 1_555 1_555
C15A C14A 1_555 1_555
H14A C15A 1_555 1_555
C16A C15A 1_555 1_555
H15A C16A 1_555 1_555
C17A C1 1_555 1_555
C18A C17A 1_555 1_555
H16A C18A 1_555 1_555
C19A C14A 1_555 1_555
H17A C19A 1_555 1_555
C20A H18A 1_555 1_555
H19A C20A 1_555 1_555
H20A C20A 1_555 1_555
C21A C23 1_555 1_555
C22A C21A 1_555 1_555
H21A C22A 1_555 1_555
C23A C21 1_555 1_555
H22A C23A 1_555 1_555
C3 C4 1_555 1_555
C8 C9 1_555 1_555
C11 C12 1_555 1_555
C18 C19 1_555 1_555
C3A C4A 1_555 1_555
C8A C9A 1_555 1_555
C11A C12A 1_555 1_555
C16A C17A 1_555 1_555
C18A C19A 1_555 1_555
C20A C21A 1_555 1_555
C22A C23A 1_555 1_555

#END
