
#######################################################################
#
#                 Cambridge Crystallographic Data Centre
#                                CCDC 
#
#######################################################################
#
# If this CIF has been generated from an entry in the Cambridge 
# Structural Database, then it will include bibliographic, chemical, 
# crystal, experimental, refinement or atomic coordinate data resulting 
# from the CCDC's data processing and validation procedures.
#
#######################################################################

data_AKIQAO
_chemical_formula_moiety         'C16 H8 F2 N4 O2'
_chemical_name_systematic        
5,5'-bis(3-fluorophenyl)-2,2'-bi-1,3,4-oxadiazole
_symmetry_cell_setting           monoclinic
_symmetry_space_group_name_H-M   'P 21/c'
_symmetry_Int_Tables_number      14
_space_group_name_Hall           '-P 2ybc'
loop_
_symmetry_equiv_pos_site_id
_symmetry_equiv_pos_as_xyz
1 x,y,z
2 -x,1/2+y,1/2-z
3 -x,-y,-z
4 x,1/2-y,1/2+z
_cell_length_a                   6.7300(13)
_cell_length_b                   7.8225(16)
_cell_length_c                   13.239(3)
_cell_angle_alpha                90
_cell_angle_beta                 92.76(3)
_cell_angle_gamma                90
_cell_volume                     696.164
_exptl_crystal_description       needle
_cell_formula_units_Z            2
loop_
_atom_site_label
_atom_site_type_symbol
_atom_site_fract_x
_atom_site_fract_y
_atom_site_fract_z
C1 C 0.14998(19) 0.2529(2) 0.72219(11)
H1 H 0.0408 0.2717 0.7612
C2 C 0.2887(2) 0.1308(2) 0.74874(11)
C3 C 0.45421(19) 0.09882(18) 0.69447(10)
H2 H 0.5465 0.0160 0.7152
C4 C 0.47813(17) 0.19459(16) 0.60782(10)
C5 C 0.3400(2) 0.31921(18) 0.57809(11)
H3 H 0.3572 0.3831 0.5199
C6 C 0.1768(2) 0.34743(19) 0.63572(12)
H4 H 0.0844 0.4308 0.6160
C7 C 0.64907(18) 0.16685(16) 0.54572(10)
C8 C 0.91461(18) 0.05675(16) 0.49841(10)
F1 F 0.26137(16) 0.03455(16) 0.83188(8)
N1 N 0.69076(17) 0.24454(16) 0.46363(10)
N2 N 0.86759(17) 0.17094(16) 0.43232(9)
O1 O 0.78526(13) 0.04411(11) 0.57306(7)
C1B C 1.85002(19) -0.2529(2) 0.27781(11)
H1B H 1.9592 -0.2717 0.2388
C2B C 1.7113(2) -0.1308(2) 0.25126(11)
C3B C 1.54579(19) -0.09882(18) 0.30553(10)
H2B H 1.4535 -0.0160 0.2848
C4B C 1.52187(17) -0.19459(16) 0.39218(10)
C5B C 1.6600(2) -0.31921(18) 0.42191(11)
H3B H 1.6428 -0.3831 0.4801
C6B C 1.8232(2) -0.34743(19) 0.36428(12)
H4B H 1.9156 -0.4308 0.3840
C7B C 1.35093(18) -0.16685(16) 0.45428(10)
C8B C 1.08539(18) -0.05675(16) 0.50159(10)
F1B F 1.73863(16) -0.03455(16) 0.16812(8)
N1B N 1.30924(17) -0.24454(16) 0.53637(10)
N2B N 1.13241(17) -0.17094(16) 0.56768(9)
O1B O 1.21474(13) -0.04411(11) 0.42694(7)
loop_
_geom_bond_atom_site_label_1
_geom_bond_atom_site_label_2
_geom_bond_site_symmetry_1
_geom_bond_site_symmetry_2
C1 H1 1_555 1_555
C2 C1 1_555 1_555
C3 C2 1_555 1_555
H2 C3 1_555 1_555
C4 C3 1_555 1_555
C5 C4 1_555 1_555
H3 C5 1_555 1_555
C6 C1 1_555 1_555
H4 C6 1_555 1_555
C7 C4 1_555 1_555
C8 N2 1_555 1_555
F1 C2 1_555 1_555
N1 C7 1_555 1_555
N2 N1 1_555 1_555
O1 C7 1_555 1_555
C1B H1B 1_555 1_555
C2B C1B 1_555 1_555
C3B C2B 1_555 1_555
H2B C3B 1_555 1_555
C4B C3B 1_555 1_555
C5B C4B 1_555 1_555
H3B C5B 1_555 1_555
C6B C1B 1_555 1_555
H4B C6B 1_555 1_555
C7B C4B 1_555 1_555
C8B C8 1_555 1_555
F1B C2B 1_555 1_555
N1B C7B 1_555 1_555
N2B C8B 1_555 1_555
O1B C7B 1_555 1_555
C5 C6 1_555 1_555
C8 O1 1_555 1_555
C5B C6B 1_555 1_555
C8B O1B 1_555 1_555
N1B N2B 1_555 1_555

#END
