
#######################################################################
#
#                 Cambridge Crystallographic Data Centre
#                                CCDC 
#
#######################################################################
#
# If this CIF has been generated from an entry in the Cambridge 
# Structural Database, then it will include bibliographic, chemical, 
# crystal, experimental, refinement or atomic coordinate data resulting 
# from the CCDC's data processing and validation procedures.
#
#######################################################################

data_AKOBOR
_chemical_formula_moiety         'C12 H14 O2 S5'
_chemical_name_systematic        
'(5R,8R)-4,9-diethyl(1,4)dithiino(5,6-f)benzo(1,2,3)trithiole 5,8-dioxide'
_symmetry_cell_setting           orthorhombic
_symmetry_space_group_name_H-M   'P 21 21 21'
_symmetry_Int_Tables_number      19
_space_group_name_Hall           'P 2ac 2ab'
loop_
_symmetry_equiv_pos_site_id
_symmetry_equiv_pos_as_xyz
1 x,y,z
2 1/2-x,-y,1/2+z
3 1/2+x,1/2-y,-z
4 -x,1/2+y,1/2-z
_cell_length_a                   8.936(2)
_cell_length_b                   32.872(2)
_cell_length_c                   5.076(3)
_cell_angle_alpha                90
_cell_angle_beta                 90
_cell_angle_gamma                90
_cell_volume                     1491.05
_exptl_crystal_colour            orange
_exptl_crystal_description       needle
_chemical_melting_point          175-176deg.C
_cell_formula_units_Z            4
_exptl_crystal_recrystallization_method hexane/dichloromethane
loop_
_atom_site_label
_atom_site_type_symbol
_atom_site_fract_x
_atom_site_fract_y
_atom_site_fract_z
S1 S 0.4720(2) 0.21224(5) 0.7502(3)
S2 S 0.1208(2) 0.16942(5) 0.6021(3)
S3 S 0.4169(4) 0.02738(6) 0.4086(6)
S4 S 0.6000(4) 0.01054(8) 0.6264(9)
S5 S 0.7130(3) 0.06286(7) 0.5806(7)
O1 O 0.4638(7) 0.2132(2) 1.0451(10)
O2 O 0.0795(7) 0.1810(2) 0.3245(9)
C1 C 0.304(1) 0.2351(2) 0.634(1)
C2 C 0.1681(9) 0.2156(2) 0.765(1)
C3 C 0.2992(6) 0.1435(2) 0.593(1)
C4 C 0.2832(8) 0.1024(2) 0.516(1)
C5 C 0.4136(9) 0.0786(2) 0.524(1)
C6 C 0.5514(8) 0.0952(2) 0.598(2)
C7 C 0.5675(8) 0.1358(2) 0.662(1)
C8 C 0.4359(8) 0.1596(2) 0.657(1)
C9 C 0.7198(9) 0.1509(2) 0.746(1)
C10 C 0.750(1) 0.1453(4) 1.033(2)
C11 C 0.1380(10) 0.0828(2) 0.436(1)
C12 C 0.122(1) 0.0824(3) 0.137(2)
H1 H 0.2976 0.2315 0.4485
H2 H 0.3059 0.2633 0.6737
H3 H 0.0858 0.2338 0.7550
H4 H 0.1904 0.2101 0.9440
H5 H 0.7263 0.1791 0.7056
H6 H 0.7936 0.1365 0.6485
H7 H 0.8474 0.1554 1.0733
H8 H 0.6778 0.1597 1.1328
H9 H 0.7454 0.1172 1.0757
H10 H 0.0572 0.0976 0.5102
H11 H 0.1359 0.0556 0.4993
H12 H 0.1232 0.1095 0.0729
H13 H 0.0297 0.0698 0.0909
H14 H 0.2023 0.0675 0.0619
loop_
_geom_bond_atom_site_label_1
_geom_bond_atom_site_label_2
_geom_bond_site_symmetry_1
_geom_bond_site_symmetry_2
S1 O1 1_555 1_555
S2 O2 1_555 1_555
S3 S4 1_555 1_555
S4 S5 1_555 1_555
S5 C6 1_555 1_555
C1 S1 1_555 1_555
C2 S2 1_555 1_555
C3 S2 1_555 1_555
C4 C3 1_555 1_555
C5 S3 1_555 1_555
C6 C5 1_555 1_555
C7 C6 1_555 1_555
C8 S1 1_555 1_555
C9 C7 1_555 1_555
C10 C9 1_555 1_555
C11 C4 1_555 1_555
C12 C11 1_555 1_555
H1 C1 1_555 1_555
H2 C1 1_555 1_555
H3 C2 1_555 1_555
H4 C2 1_555 1_555
H5 C9 1_555 1_555
H6 C9 1_555 1_555
H7 C10 1_555 1_555
H8 C10 1_555 1_555
H9 C10 1_555 1_555
H10 C11 1_555 1_555
H11 C11 1_555 1_555
H12 C12 1_555 1_555
H13 C12 1_555 1_555
H14 C12 1_555 1_555
C1 C2 1_555 1_555
C3 C8 1_555 1_555
C4 C5 1_555 1_555
C7 C8 1_555 1_555

#END
