
#######################################################################
#
#                 Cambridge Crystallographic Data Centre
#                                CCDC 
#
#######################################################################
#
# If this CIF has been generated from an entry in the Cambridge 
# Structural Database, then it will include bibliographic, chemical, 
# crystal, experimental, refinement or atomic coordinate data resulting 
# from the CCDC's data processing and validation procedures.
#
#######################################################################

data_AKOGAJ
_chemical_formula_moiety         'C20 H18 N2 O2'
_chemical_name_systematic        
(3R,4R)-2,5-Dimethyl-3,4-diphenyl-2,5-diazabicyclo[4.2.0]oct-1(6)-ene-7,8-dione
_symmetry_cell_setting           monoclinic
_symmetry_space_group_name_H-M   'P 21'
_symmetry_Int_Tables_number      4
_space_group_name_Hall           'P 2yb'
loop_
_symmetry_equiv_pos_site_id
_symmetry_equiv_pos_as_xyz
1 x,y,z
2 -x,1/2+y,-z
_cell_length_a                   8.9343(19)
_cell_length_b                   6.5722(14)
_cell_length_c                   14.533(3)
_cell_angle_alpha                90
_cell_angle_beta                 97.941(3)
_cell_angle_gamma                90
_cell_volume                     845.166
_chemical_melting_point          260-262deg.C
_cell_formula_units_Z            2
loop_
_atom_site_label
_atom_site_type_symbol
_atom_site_fract_x
_atom_site_fract_y
_atom_site_fract_z
C1 C 0.45272(17) 0.1936(4) 0.69763(11)
C2 C 0.4007(2) 0.3898(4) 0.67771(14)
H1 H 0.4115 0.4883 0.7241
C3 C 0.3328(3) 0.4396(5) 0.58919(17)
H2 H 0.2966 0.5707 0.5762
C4 C 0.3191(3) 0.2942(6) 0.52040(17)
H3 H 0.2743 0.3275 0.4607
C5 C 0.3710(3) 0.1009(6) 0.53943(16)
H4 H 0.3619 0.0033 0.4927
C6 C 0.4365(2) 0.0509(4) 0.62757(13)
H5 H 0.4704 -0.0813 0.6402
C7 C 0.78905(18) 0.1595(3) 0.75447(11)
C8 C 0.8353(2) 0.2853(4) 0.68770(14)
H6 H 0.7980 0.4173 0.6806
C9 C 0.9373(3) 0.2150(7) 0.63122(16)
H7 H 0.9679 0.2998 0.5861
C10 C 0.9931(3) 0.0210(7) 0.64178(19)
H8 H 1.0621 -0.0250 0.6041
C11 C 0.9481(2) -0.1051(5) 0.70713(17)
H9 H 0.9863 -0.2367 0.7140
C12 C 0.8448(2) -0.0367(4) 0.76364(15)
H10 H 0.8133 -0.1233 0.8078
C13 C 0.52379(18) 0.1350(3) 0.79381(11)
H11 H 0.5393 -0.0127 0.7947
C14 C 0.68146(18) 0.2383(3) 0.81789(11)
H12 H 0.6691 0.3851 0.8079
C15 C 0.64623(19) 0.1937(3) 0.97527(11)
C16 C 0.49115(19) 0.1864(3) 0.95026(11)
C17 C 0.4629(2) 0.1844(3) 1.04707(12)
C18 C 0.6329(2) 0.1869(4) 1.07506(12)
C19 C 0.9003(2) 0.2665(4) 0.94794(15)
H13 H 0.9131 0.4061 0.9311
H14 H 0.9688 0.1825 0.9194
H15 H 0.9211 0.2527 1.0142
C20 C 0.25849(19) 0.1662(4) 0.84305(14)
H16 H 0.2157 0.1640 0.9001
H17 H 0.2332 0.0424 0.8094
H18 H 0.2187 0.2801 0.8062
N1 N 0.42270(14) 0.1846(3) 0.86361(9)
N2 N 0.74610(14) 0.2035(3) 0.91638(9)
O1 O 0.71917(19) 0.1814(3) 1.14765(9)
O2 O 0.35193(18) 0.1859(3) 1.08787(10)
loop_
_geom_bond_atom_site_label_1
_geom_bond_atom_site_label_2
_geom_bond_site_symmetry_1
_geom_bond_site_symmetry_2
C1 C2 1_555 1_555
C2 H1 1_555 1_555
C3 C2 1_555 1_555
H2 C3 1_555 1_555
C4 C3 1_555 1_555
H3 C4 1_555 1_555
C5 C4 1_555 1_555
H4 C5 1_555 1_555
C6 C1 1_555 1_555
H5 C6 1_555 1_555
C7 C8 1_555 1_555
C8 H6 1_555 1_555
C9 C8 1_555 1_555
H7 C9 1_555 1_555
C10 C9 1_555 1_555
H8 C10 1_555 1_555
C11 C10 1_555 1_555
H9 C11 1_555 1_555
C12 C7 1_555 1_555
H10 C12 1_555 1_555
C13 C1 1_555 1_555
H11 C13 1_555 1_555
C14 C7 1_555 1_555
H12 C14 1_555 1_555
C15 C16 1_555 1_555
C16 C17 1_555 1_555
C17 C18 1_555 1_555
C18 C15 1_555 1_555
C19 H13 1_555 1_555
H14 C19 1_555 1_555
H15 C19 1_555 1_555
C20 H16 1_555 1_555
H17 C20 1_555 1_555
H18 C20 1_555 1_555
N1 C13 1_555 1_555
N2 C14 1_555 1_555
O1 C18 1_555 1_555
O2 C17 1_555 1_555
C5 C6 1_555 1_555
C11 C12 1_555 1_555
C13 C14 1_555 1_555
C15 N2 1_555 1_555
C16 N1 1_555 1_555
C19 N2 1_555 1_555
C20 N1 1_555 1_555

#END
