
#######################################################################
#
#                 Cambridge Crystallographic Data Centre
#                                CCDC 
#
#######################################################################
#
# If this CIF has been generated from an entry in the Cambridge 
# Structural Database, then it will include bibliographic, chemical, 
# crystal, experimental, refinement or atomic coordinate data resulting 
# from the CCDC's data processing and validation procedures.
#
#######################################################################

data_AKOGOY03
_chemical_formula_moiety         'C14 H16 N1 1+,C2 Cl3 O2 1-'
_chemical_name_systematic        'Dibenzylammonium trichloroacetate'
_symmetry_cell_setting           orthorhombic
_symmetry_space_group_name_H-M   'P n m a'
_symmetry_Int_Tables_number      62
_space_group_name_Hall           '-P 2ac 2n'
loop_
_symmetry_equiv_pos_site_id
_symmetry_equiv_pos_as_xyz
1 x,y,z
2 1/2-x,-y,1/2+z
3 1/2+x,1/2-y,1/2-z
4 -x,1/2+y,-z
5 -x,-y,-z
6 1/2+x,y,1/2-z
7 1/2-x,1/2+y,1/2+z
8 x,1/2-y,z
_cell_length_a                   27.9771(10)
_cell_length_b                   17.8261(7)
_cell_length_c                   10.0751(3)
_cell_angle_alpha                90
_cell_angle_beta                 90
_cell_angle_gamma                90
_cell_volume                     5024.68
_exptl_crystal_colour            colorless
_exptl_crystal_description       prism
_cell_formula_units_Z            12
loop_
_atom_site_label
_atom_site_type_symbol
_atom_site_fract_x
_atom_site_fract_y
_atom_site_fract_z
Cl1 Cl 0.27901(3) 0.2500 0.30351(7)
Cl2 Cl 0.36631(3) 0.33032(4) 0.33974(7)
O1 O 0.28816(7) 0.2500 0.5890(2)
O2 O 0.36726(7) 0.2500 0.60311(18)
C1 C 0.33429(9) 0.2500 0.3885(3)
C2 C 0.32902(9) 0.2500 0.5436(3)
Cl2G Cl 0.36631(3) 0.16968(4) 0.33974(7)
Cl3 Cl 0.59883(3) 0.2500 0.35453(8)
Cl4 Cl 0.68560(2) 0.33041(3) 0.40260(6)
O3 O 0.68217(7) 0.2500 0.66413(18)
O4 O 0.60318(7) 0.2500 0.6427(2)
C3 C 0.65225(9) 0.2500 0.4476(3)
C4 C 0.64434(9) 0.2500 0.6018(2)
Cl4G Cl 0.68560(2) 0.16959(3) 0.40260(6)
Cl5 Cl 0.55011(3) 0.2500 0.90916(9)
Cl6 Cl 0.50991(3) 0.33045(4) 1.12799(7)
O5 O 0.45242(6) 0.2500 0.83846(18)
O6 O 0.41981(7) 0.2500 1.03883(19)
C5 C 0.45338(9) 0.2500 0.9602(3)
C6 C 0.50419(10) 0.2500 1.0276(3)
Cl6G Cl 0.50991(3) 0.16955(4) 1.12799(7)
N1 N 0.69099(7) 0.2500 0.9316(2)
H1 H 0.7230 0.2500 0.9401
H2 H 0.6840 0.2500 0.8444
C7 C 0.68954(6) 0.39044(11) 0.93318(19)
C8 C 0.67112(7) 0.31941(11) 0.9941(2)
H3 H 0.6790 0.3193 1.0878
H4 H 0.6366 0.3185 0.9863
C9 C 0.72277(7) 0.43377(12) 1.0005(2)
H5 H 0.7354 0.4165 1.0803
C10 C 0.73746(8) 0.50208(13) 0.9510(2)
H6 H 0.7594 0.5309 0.9981
C11 C 0.71987(8) 0.52749(13) 0.8326(2)
H7 H 0.7298 0.5735 0.7990
C12 C 0.67188(8) 0.41665(13) 0.8133(2)
H8 H 0.6496 0.3884 0.7664
C13 C 0.68724(9) 0.48461(13) 0.7632(2)
H9 H 0.6755 0.5016 0.6822
C7G C 0.68954(6) 0.10956(11) 0.93318(19)
C8G C 0.67112(7) 0.18059(11) 0.9941(2)
H3G H 0.6790 0.1807 1.0878
H4G H 0.6366 0.1815 0.9863
C9G C 0.72277(7) 0.06623(12) 1.0005(2)
H5G H 0.7354 0.0835 1.0803
C10G C 0.73746(8) -0.00208(13) 0.9510(2)
H6G H 0.7594 -0.0309 0.9981
C11G C 0.71987(8) -0.02749(13) 0.8326(2)
H7G H 0.7298 -0.0735 0.7990
C12G C 0.67188(8) 0.08335(13) 0.8133(2)
H8G H 0.6496 0.1116 0.7664
C13G C 0.68724(9) 0.01539(13) 0.7632(2)
H9G H 0.6755 -0.0016 0.6822
N2 N 0.65862(7) 0.7500 0.1269(2)
H10 H 0.6505 0.7500 0.2133
H11 H 0.6315 0.7500 0.0788
C14 C 0.65971(7) 0.61071(12) 0.1329(2)
C15 C 0.62804(7) 0.57730(13) 0.0447(2)
H12 H 0.6218 0.6000 -0.0366
C16 C 0.68639(7) 0.68063(12) 0.0967(2)
H13 H 0.7163 0.6819 0.1451
H14 H 0.6938 0.6795 0.0026
C17 C 0.61428(8) 0.47684(13) 0.1967(2)
H15 H 0.5994 0.4317 0.2178
C18 C 0.66775(8) 0.57655(12) 0.2541(2)
H16 H 0.6886 0.5985 0.3148
C19 C 0.60569(8) 0.51072(13) 0.0767(2)
H17 H 0.5847 0.4887 0.0167
C20 C 0.64503(9) 0.51006(13) 0.2857(2)
H18 H 0.6506 0.4876 0.3676
C14G C 0.65971(7) 0.88929(12) 0.1329(2)
C15G C 0.62804(7) 0.92270(13) 0.0447(2)
H12G H 0.6218 0.9000 -0.0366
C16G C 0.68639(7) 0.81937(12) 0.0967(2)
H13G H 0.7163 0.8181 0.1451
H14G H 0.6938 0.8205 0.0026
C17G C 0.61428(8) 1.02316(13) 0.1967(2)
H15G H 0.5994 1.0683 0.2178
C18G C 0.66775(8) 0.92345(12) 0.2541(2)
H16G H 0.6886 0.9015 0.3148
C19G C 0.60569(8) 0.98928(13) 0.0767(2)
H17G H 0.5847 1.0113 0.0167
C20G C 0.64503(9) 0.98994(13) 0.2857(2)
H18G H 0.6506 1.0124 0.3676
N3 N 0.50260(8) 0.2500 0.6048(2)
H19 H 0.5347 0.2500 0.6003
H20 H 0.4944 0.2500 0.6912
C21 C 0.50656(7) 0.38868(11) 0.60094(19)
C22 C 0.54375(8) 0.42551(13) 0.5368(2)
H21 H 0.5546 0.4078 0.4555
C23 C 0.48412(7) 0.32022(11) 0.5415(2)
H22 H 0.4497 0.3227 0.5529
H23 H 0.4908 0.3189 0.4471
C24 C 0.49106(8) 0.41618(12) 0.7217(2)
H24 H 0.4659 0.3927 0.7656
C25 C 0.54966(8) 0.51425(13) 0.7136(2)
H25 H 0.5643 0.5558 0.7519
C26 C 0.56467(8) 0.48800(14) 0.5923(2)
H26 H 0.5891 0.5126 0.5474
C27 C 0.51265(8) 0.47843(12) 0.7778(2)
H27 H 0.5021 0.4962 0.8595
C21G C 0.50656(7) 0.11132(11) 0.60094(19)
C22G C 0.54375(8) 0.07449(13) 0.5368(2)
H21G H 0.5546 0.0922 0.4555
C23G C 0.48412(7) 0.17978(11) 0.5415(2)
H22G H 0.4497 0.1773 0.5529
H23G H 0.4908 0.1811 0.4471
C24G C 0.49106(8) 0.08382(12) 0.7217(2)
H24G H 0.4659 0.1073 0.7656
C25G C 0.54966(8) -0.01425(13) 0.7136(2)
H25G H 0.5643 -0.0558 0.7519
C26G C 0.56467(8) 0.01200(14) 0.5923(2)
H26G H 0.5891 -0.0126 0.5474
C27G C 0.51265(8) 0.02157(12) 0.7778(2)
H27G H 0.5021 0.0038 0.8595
loop_
_geom_bond_atom_site_label_1
_geom_bond_atom_site_label_2
_geom_bond_site_symmetry_1
_geom_bond_site_symmetry_2
Cl1 C1 1_555 1_555
Cl2 C1 1_555 1_555
O1 C2 1_555 1_555
O2 C2 1_555 1_555
C1 C2 1_555 1_555
Cl3 C3 1_555 1_555
Cl4 C3 1_555 1_555
O3 C4 1_555 1_555
O4 C4 1_555 1_555
C3 C4 1_555 1_555
Cl5 C6 1_555 1_555
Cl6 C6 1_555 1_555
O5 C5 1_555 1_555
O6 C5 1_555 1_555
C5 C6 1_555 1_555
C6 Cl6G 1_555 1_555
N1 H1 1_555 1_555
H2 N1 1_555 1_555
C7 C8 1_555 1_555
C8 N1 1_555 1_555
H3 C8 1_555 1_555
H4 C8 1_555 1_555
C9 C7 1_555 1_555
H5 C9 1_555 1_555
C10 C9 1_555 1_555
H6 C10 1_555 1_555
C11 C10 1_555 1_555
H7 C11 1_555 1_555
C12 C7 1_555 1_555
H8 C12 1_555 1_555
C13 C11 1_555 1_555
H9 C13 1_555 1_555
N2 H10 1_555 1_555
H11 N2 1_555 1_555
C14 C15 1_555 1_555
C15 H12 1_555 1_555
C16 N2 1_555 1_555
H13 C16 1_555 1_555
H14 C16 1_555 1_555
C17 H15 1_555 1_555
C18 C14 1_555 1_555
H16 C18 1_555 1_555
C19 C15 1_555 1_555
H17 C19 1_555 1_555
C20 C17 1_555 1_555
H18 C20 1_555 1_555
N3 H19 1_555 1_555
H20 N3 1_555 1_555
C21 C22 1_555 1_555
C22 H21 1_555 1_555
C23 N3 1_555 1_555
H22 C23 1_555 1_555
H23 C23 1_555 1_555
C24 C21 1_555 1_555
H24 C24 1_555 1_555
C25 H25 1_555 1_555
C26 C22 1_555 1_555
H26 C26 1_555 1_555
C27 C24 1_555 1_555
H27 C27 1_555 1_555
Cl2G C1 1_555 1_555
Cl4G C3 1_555 1_555
C7G C8G 1_555 1_555
C8G N1 1_555 1_555
H3G C8G 1_555 1_555
H4G C8G 1_555 1_555
C9G C7G 1_555 1_555
H5G C9G 1_555 1_555
C10G C9G 1_555 1_555
H6G C10G 1_555 1_555
C11G C10G 1_555 1_555
H7G C11G 1_555 1_555
C12G C7G 1_555 1_555
H8G C12G 1_555 1_555
C13G C11G 1_555 1_555
H9G C13G 1_555 1_555
C14G C15G 1_555 1_555
C15G H12G 1_555 1_555
C16G N2 1_555 1_555
H13G C16G 1_555 1_555
H14G C16G 1_555 1_555
C17G H15G 1_555 1_555
C18G C14G 1_555 1_555
H16G C18G 1_555 1_555
C19G C15G 1_555 1_555
H17G C19G 1_555 1_555
C20G C17G 1_555 1_555
H18G C20G 1_555 1_555
C21G C22G 1_555 1_555
C22G H21G 1_555 1_555
C23G N3 1_555 1_555
H22G C23G 1_555 1_555
H23G C23G 1_555 1_555
C24G C21G 1_555 1_555
H24G C24G 1_555 1_555
C25G H25G 1_555 1_555
C26G C22G 1_555 1_555
H26G C26G 1_555 1_555
C27G C24G 1_555 1_555
H27G C27G 1_555 1_555
C12 C13 1_555 1_555
C14 C16 1_555 1_555
C17 C19 1_555 1_555
C18 C20 1_555 1_555
C21 C23 1_555 1_555
C25 C26 1_555 1_555
C25 C27 1_555 1_555
C12G C13G 1_555 1_555
C14G C16G 1_555 1_555
C17G C19G 1_555 1_555
C18G C20G 1_555 1_555
C21G C23G 1_555 1_555
C25G C26G 1_555 1_555
C25G C27G 1_555 1_555

#END
