
#######################################################################
#
#                 Cambridge Crystallographic Data Centre
#                                CCDC 
#
#######################################################################
#
# If this CIF has been generated from an entry in the Cambridge 
# Structural Database, then it will include bibliographic, chemical, 
# crystal, experimental, refinement or atomic coordinate data resulting 
# from the CCDC's data processing and validation procedures.
#
#######################################################################

data_AKOROH
_chemical_compound_source        'whole plant of Ligulariopsis shichuana'
_chemical_formula_moiety         'C22 H28 O8'
_chemical_name_systematic        
3\b-Acetoxy-9\b-angeloyloxy-1\b,10\b-epoxy-8\a-hydroxyeremophil-7(11)-en-8\b(12)-olide
_chemical_properties_biological  'moderate antibacterial activity'
_symmetry_cell_setting           orthorhombic
_symmetry_space_group_name_H-M   'P 21 21 21'
_symmetry_Int_Tables_number      19
_space_group_name_Hall           'P 2ac 2ab'
loop_
_symmetry_equiv_pos_site_id
_symmetry_equiv_pos_as_xyz
1 x,y,z
2 1/2-x,-y,1/2+z
3 1/2+x,1/2-y,-z
4 -x,1/2+y,1/2-z
_cell_length_a                   7.440(1)
_cell_length_b                   12.589(2)
_cell_length_c                   22.981(5)
_cell_angle_alpha                90
_cell_angle_beta                 90
_cell_angle_gamma                90
_cell_volume                     2152.45
_exptl_crystal_colour            white
_exptl_crystal_description       columns
_chemical_melting_point          '212-214 deg.C'
_cell_formula_units_Z            4
_exptl_crystal_recrystallization_method methanol
loop_
_atom_site_label
_atom_site_type_symbol
_atom_site_fract_x
_atom_site_fract_y
_atom_site_fract_z
O1 O 0.3251(3) 0.7357(2) 0.0299(1)
O2 O 0.3786(3) 0.9870(2) 0.1917(1)
O3 O 0.5758(3) 0.8455(2) 0.1783(1)
O4 O 0.2156(5) 1.0704(2) 0.2591(1)
O5 O 0.4601(3) 0.4217(2) 0.1097(1)
O6 O 0.3986(3) 0.4045(2) 0.2045(1)
O7 O 0.1866(3) 0.9221(2) 0.0983(1)
O8 O 0.3237(4) 1.0576(2) 0.0554(1)
C1 C 0.4869(4) 0.7050(2) 0.0609(1)
C2 C 0.5291(4) 0.5877(2) 0.0639(1)
C3 C 0.4320(4) 0.5376(2) 0.1145(1)
C4 C 0.2328(4) 0.5634(2) 0.1150(1)
C5 C 0.2072(4) 0.6840(2) 0.1287(1)
C6 C 0.2492(4) 0.7011(5) 0.1944(1)
C7 C 0.2676(4) 0.8164(2) 0.2082(1)
C8 C 0.3995(4) 0.8782(2) 0.1723(1)
C9 C 0.3537(4) 0.8685(2) 0.1077(1)
C10 C 0.3325(4) 0.7527(2) 0.0922(1)
C11 C 0.1850(5) 0.8796(2) 0.2453(1)
C12 C 0.2530(6) 0.9885(3) 0.2350(2)
C13 C 0.0442(6) 0.8566(3) 0.2895(2)
C14 C 0.1344(5) 0.5228(3) 0.0606(2)
C15 C 0.0089(4) 0.7154(2) 0.1188(2)
C16 C 0.4395(5) 0.3654(2) 0.1583(2)
C17 C 0.4737(7) 0.2495(2) 0.1502(2)
C18 C 0.1901(6) 1.0202(2) 0.0750(1)
C19 C 0.0029(6) 1.0711(3) 0.0801(2)
C20 C -0.1399(6) 1.0103(4) 0.1170(2)
C21 C -0.0321(7) 1.1585(3) 0.0556(2)
C22 C 0.0948(7) 1.2211(3) 0.0176(2)
H1 H 0.6054 0.8493 0.2126
H2 H 0.5907 0.7518 0.0554
H3 H 0.4923 0.5536 0.0280
H4 H 0.6576 0.5778 0.0684
H5 H 0.4861 0.5628 0.1509
H6 H 0.1814 0.5248 0.1481
H7 H 0.1532 0.6708 0.2177
H8 H 0.3599 0.6646 0.2043
H9 H 0.4486 0.9008 0.0840
H10 H 0.0070 0.7838 0.2861
H11 H -0.0572 0.9023 0.2832
H12 H 0.0920 0.8688 0.3277
H13 H 0.1775 0.5600 0.0270
H14 H 0.0076 0.5348 0.0649
H15 H 0.1565 0.4481 0.0561
H16 H -0.0146 0.7823 0.1373
H17 H -0.0682 0.6619 0.1351
H18 H -0.0139 0.7214 0.0778
H19 H 0.5989 0.2381 0.1423
H20 H 0.4035 0.2237 0.1180
H21 H 0.4404 0.2119 0.1849
H22 H -0.1009 1.0070 0.1568
H23 H -0.1537 0.9396 0.1021
H24 H -0.2529 1.0469 0.1149
H25 H -0.1462 1.1867 0.0615
H26 H 0.1880 1.2515 0.0413
H27 H 0.0298 1.2768 -0.0016
H28 H 0.1475 1.1749 -0.0109
loop_
_geom_bond_atom_site_label_1
_geom_bond_atom_site_label_2
_geom_bond_site_symmetry_1
_geom_bond_site_symmetry_2
O1 C1 1_555 1_555
O2 C8 1_555 1_555
O3 C8 1_555 1_555
O4 C12 1_555 1_555
O5 C3 1_555 1_555
O6 C16 1_555 1_555
O7 C9 1_555 1_555
O8 C18 1_555 1_555
C1 C2 1_555 1_555
C2 C3 1_555 1_555
C3 C4 1_555 1_555
C4 C5 1_555 1_555
C5 C6 1_555 1_555
C6 C7 1_555 1_555
C7 C8 1_555 1_555
C8 C9 1_555 1_555
C9 C10 1_555 1_555
C10 O1 1_555 1_555
C11 C7 1_555 1_555
C12 O2 1_555 1_555
C13 C11 1_555 1_555
C14 C4 1_555 1_555
C15 C5 1_555 1_555
C16 O5 1_555 1_555
C17 C16 1_555 1_555
C18 O7 1_555 1_555
C19 C18 1_555 1_555
C20 C19 1_555 1_555
C21 C19 1_555 1_555
C22 C21 1_555 1_555
H1 O3 1_555 1_555
H2 C1 1_555 1_555
H3 C2 1_555 1_555
H4 C2 1_555 1_555
H5 C3 1_555 1_555
H6 C4 1_555 1_555
H7 C6 1_555 1_555
H8 C6 1_555 1_555
H9 C9 1_555 1_555
H10 C13 1_555 1_555
H11 C13 1_555 1_555
H12 C13 1_555 1_555
H13 C14 1_555 1_555
H14 C14 1_555 1_555
H15 C14 1_555 1_555
H16 C15 1_555 1_555
H17 C15 1_555 1_555
H18 C15 1_555 1_555
H19 C17 1_555 1_555
H20 C17 1_555 1_555
H21 C17 1_555 1_555
H22 C20 1_555 1_555
H23 C20 1_555 1_555
H24 C20 1_555 1_555
H25 C21 1_555 1_555
H26 C22 1_555 1_555
H27 C22 1_555 1_555
H28 C22 1_555 1_555
C1 C10 1_555 1_555
C5 C10 1_555 1_555
C11 C12 1_555 1_555

#END
