
#######################################################################
#
#                 Cambridge Crystallographic Data Centre
#                                CCDC 
#
#######################################################################
#
# If this CIF has been generated from an entry in the Cambridge 
# Structural Database, then it will include bibliographic, chemical, 
# crystal, experimental, refinement or atomic coordinate data resulting 
# from the CCDC's data processing and validation procedures.
#
#######################################################################

data_AKOXON01
_chemical_name_common            'bis(collidine)bromanium perchlorate'
_chemical_formula_moiety         'C16 H22 Br1 N2 1+,Cl1 O4 1-'
_chemical_name_systematic        
'bis(2,4,6-trimethylpyridine)bromanium perchlorate'
_symmetry_cell_setting           monoclinic
_symmetry_space_group_name_H-M   'C 2/c'
_symmetry_Int_Tables_number      15
_space_group_name_Hall           '-C 2yn'
loop_
_symmetry_equiv_pos_site_id
_symmetry_equiv_pos_as_xyz
1 x,y,z
2 1/2+x,1/2+y,z
3 -x,y,1/2-z
4 1/2-x,1/2+y,1/2-z
5 -x,-y,-z
6 1/2-x,1/2-y,-z
7 x,-y,1/2+z
8 1/2+x,1/2-y,1/2+z
_cell_length_a                   27.3108(5)
_cell_length_b                   11.0568(1)
_cell_length_c                   23.5758(4)
_cell_angle_alpha                90
_cell_angle_beta                 127.217(3)
_cell_angle_gamma                90
_cell_volume                     5669.37
_exptl_crystal_colour            colorless
_exptl_crystal_description       block
_cell_formula_units_Z            12
loop_
_atom_site_label
_atom_site_type_symbol
_atom_site_fract_x
_atom_site_fract_y
_atom_site_fract_z
Br1 Br 0.5000 0.0000 0.5000
N1 N 0.57344(7) 0.10967(16) 0.58125(8)
C1 C 0.57950(9) 0.2237(2) 0.56540(11)
C2 C 0.63051(10) 0.2910(2) 0.61554(12)
C3 C 0.67500(10) 0.2451(2) 0.68295(12)
C4 C 0.66605(10) 0.1293(2) 0.69756(11)
C5 C 0.61540(10) 0.0627(2) 0.64699(11)
C6 C 0.52958(11) 0.2740(2) 0.49340(13)
C7 C 0.73041(12) 0.3179(3) 0.73841(15)
C8 C 0.60390(13) -0.0617(2) 0.66271(13)
H1 H 0.6341 0.3698 0.6030
H2 H 0.6952 0.0958 0.7429
H3 H 0.5414 0.3562 0.4928
H4 H 0.5253 0.2265 0.4555
H5 H 0.4908 0.2733 0.4859
H6 H 0.7296 0.3320 0.7770
H7 H 0.7310 0.3936 0.7197
H8 H 0.7670 0.2755 0.7550
H9 H 0.5646 -0.0646 0.6536
H10 H 0.6044 -0.1199 0.6322
H11 H 0.6353 -0.0804 0.7115
N1D N 0.42656(7) -0.10967(16) 0.41875(8)
C1D C 0.42050(9) -0.2237(2) 0.43460(11)
C2D C 0.36949(10) -0.2910(2) 0.38446(12)
C3D C 0.32500(10) -0.2451(2) 0.31705(12)
C4D C 0.33395(10) -0.1293(2) 0.30244(11)
C5D C 0.38460(10) -0.0627(2) 0.35301(11)
C6D C 0.47042(11) -0.2740(2) 0.50660(13)
C7D C 0.26959(12) -0.3179(3) 0.26159(15)
C8D C 0.39610(13) 0.0617(2) 0.33729(13)
H1D H 0.3659 -0.3698 0.3970
H2D H 0.3048 -0.0958 0.2571
H3D H 0.4586 -0.3562 0.5072
H4D H 0.4747 -0.2265 0.5445
H5D H 0.5092 -0.2733 0.5141
H6D H 0.2704 -0.3320 0.2230
H7D H 0.2690 -0.3936 0.2803
H8D H 0.2330 -0.2755 0.2450
H9D H 0.4354 0.0646 0.3464
H10D H 0.3956 0.1199 0.3678
H11D H 0.3647 0.0804 0.2885
Br2 Br 0.797343(10) 0.04941(2) 0.645187(11)
N2 N 0.72842(8) 0.16494(18) 0.56597(10)
C9 C 0.67534(11) 0.1162(2) 0.50895(13)
C10 C 0.63165(12) 0.1906(3) 0.45434(14)
C11 C 0.64075(11) 0.3137(2) 0.45595(13)
C12 C 0.69537(12) 0.3591(2) 0.51495(14)
C13 C 0.73884(11) 0.2853(2) 0.56986(12)
C14 C 0.66596(16) -0.0166(3) 0.5073(2)
C15 C 0.59284(14) 0.3935(3) 0.39590(16)
C16 C 0.79737(13) 0.3358(3) 0.63467(15)
N3 N 0.87053(8) -0.06687(18) 0.72366(10)
C17 C 0.91218(11) -0.0253(2) 0.79080(12)
C18 C 0.96185(11) -0.0953(3) 0.83986(12)
C19 C 0.97057(10) -0.2085(3) 0.82234(13)
C20 C 0.92680(11) -0.2486(2) 0.75329(13)
C21 C 0.87681(10) -0.1782(2) 0.70465(12)
C22 C 0.90232(14) 0.0975(3) 0.80954(15)
C23 C 1.02536(13) -0.2854(3) 0.87576(16)
C24 C 0.82838(13) -0.2223(3) 0.63011(15)
H12 H 0.5953 0.1558 0.4159
H13 H 0.7037 0.4400 0.5178
H14 H 0.6688 -0.0402 0.5476
H15 H 0.6970 -0.0583 0.5082
H16 H 0.6270 -0.0374 0.4658
H17 H 0.6006 0.4748 0.4094
H18 H 0.5927 0.3826 0.3556
H19 H 0.5543 0.3711 0.3829
H20 H 0.8007 0.3127 0.6757
H21 H 0.8317 0.3037 0.6385
H22 H 0.7978 0.4219 0.6326
H23 H 0.9912 -0.0679 0.8867
H24 H 0.9314 -0.3238 0.7396
H25 H 0.8610 0.1030 0.7940
H26 H 0.9097 0.1601 0.7872
H27 H 0.9296 0.1055 0.8593
H28 H 1.0283 -0.2956 0.9175
H29 H 1.0617 -0.2488 0.8884
H30 H 1.0227 -0.3633 0.8568
H31 H 0.7893 -0.2208 0.6210
H32 H 0.8257 -0.1737 0.5943
H33 H 0.8368 -0.3040 0.6245
Cl1 Cl 0.65410(3) 0.64028(5) 0.56560(3)
O1 O 0.64043(14) 0.7519(2) 0.58276(15)
O2 O 0.60044(10) 0.5662(2) 0.52651(13)
O3 O 0.67384(12) 0.6623(2) 0.52265(13)
O4 O 0.70082(12) 0.5765(2) 0.62811(12)
Cl2 Cl 0.5000 0.09892(10) 0.2500
O5 O 0.4834(2) 0.1684(6) 0.2823(3)
O6 O 0.4490(2) 0.0271(3) 0.20049(18)
O5B O 0.5166(2) 0.1684(6) 0.2177(3)
O6B O 0.5510(2) 0.0271(3) 0.29951(18)
loop_
_geom_bond_atom_site_label_1
_geom_bond_atom_site_label_2
_geom_bond_site_symmetry_1
_geom_bond_site_symmetry_2
Br1 N1 1_555 1_555
N1 C1 1_555 1_555
C1 C2 1_555 1_555
C2 C3 1_555 1_555
C3 C4 1_555 1_555
C4 C5 1_555 1_555
C5 N1 1_555 1_555
C6 C1 1_555 1_555
C7 C3 1_555 1_555
C8 C5 1_555 1_555
H1 C2 1_555 1_555
H2 C4 1_555 1_555
H3 C6 1_555 1_555
H4 C6 1_555 1_555
H5 C6 1_555 1_555
H6 C7 1_555 1_555
H7 C7 1_555 1_555
H8 C7 1_555 1_555
H9 C8 1_555 1_555
H10 C8 1_555 1_555
H11 C8 1_555 1_555
Br2 N2 1_555 1_555
N2 C9 1_555 1_555
C9 C10 1_555 1_555
C10 C11 1_555 1_555
C11 C12 1_555 1_555
C12 C13 1_555 1_555
C13 N2 1_555 1_555
C14 C9 1_555 1_555
C15 C11 1_555 1_555
C16 C13 1_555 1_555
N3 Br2 1_555 1_555
C17 N3 1_555 1_555
C18 C17 1_555 1_555
C19 C18 1_555 1_555
C20 C19 1_555 1_555
C21 N3 1_555 1_555
C22 C17 1_555 1_555
C23 C19 1_555 1_555
C24 C21 1_555 1_555
H12 C10 1_555 1_555
H13 C12 1_555 1_555
H14 C14 1_555 1_555
H15 C14 1_555 1_555
H16 C14 1_555 1_555
H17 C15 1_555 1_555
H18 C15 1_555 1_555
H19 C15 1_555 1_555
H20 C16 1_555 1_555
H21 C16 1_555 1_555
H22 C16 1_555 1_555
H23 C18 1_555 1_555
H24 C20 1_555 1_555
H25 C22 1_555 1_555
H26 C22 1_555 1_555
H27 C22 1_555 1_555
H28 C23 1_555 1_555
H29 C23 1_555 1_555
H30 C23 1_555 1_555
H31 C24 1_555 1_555
H32 C24 1_555 1_555
H33 C24 1_555 1_555
Cl1 O1 1_555 1_555
O2 Cl1 1_555 1_555
O3 Cl1 1_555 1_555
O4 Cl1 1_555 1_555
Cl2 O5 1_555 1_555
O6 Cl2 1_555 1_555
N1D Br1 1_555 1_555
C1D N1D 1_555 1_555
C2D C1D 1_555 1_555
C3D C2D 1_555 1_555
C4D C3D 1_555 1_555
C5D N1D 1_555 1_555
C6D C1D 1_555 1_555
C7D C3D 1_555 1_555
C8D C5D 1_555 1_555
H1D C2D 1_555 1_555
H2D C4D 1_555 1_555
H3D C6D 1_555 1_555
H4D C6D 1_555 1_555
H5D C6D 1_555 1_555
H6D C7D 1_555 1_555
H7D C7D 1_555 1_555
H8D C7D 1_555 1_555
H9D C8D 1_555 1_555
H10D C8D 1_555 1_555
H11D C8D 1_555 1_555
O5B Cl2 1_555 1_555
O6B Cl2 1_555 1_555
C20 C21 1_555 1_555
C4D C5D 1_555 1_555

#END
