
#######################################################################
#
#                 Cambridge Crystallographic Data Centre
#                                CCDC 
#
#######################################################################
#
# If this CIF has been generated from an entry in the Cambridge 
# Structural Database, then it will include bibliographic, chemical, 
# crystal, experimental, refinement or atomic coordinate data resulting 
# from the CCDC's data processing and validation procedures.
#
#######################################################################

data_AKUCIU
_chemical_formula_moiety         'C30 H14 O2 S2'
_chemical_name_systematic        
'2-((6-(1-benzofuran-2-ylethynyl)thieno[2,3-f][1]benzothiophen-2-yl)ethynyl)-1-benzofuran unknown solvate'
_symmetry_cell_setting           triclinic
_symmetry_space_group_name_H-M   'P -1'
_symmetry_Int_Tables_number      2
_space_group_name_Hall           '-P 1'
loop_
_symmetry_equiv_pos_site_id
_symmetry_equiv_pos_as_xyz
1 x,y,z
2 -x,-y,-z
_cell_length_a                   9.3360(12)
_cell_length_b                   11.3386(15)
_cell_length_c                   13.7115(18)
_cell_angle_alpha                69.468(3)
_cell_angle_beta                 84.086(3)
_cell_angle_gamma                75.934(3)
_cell_volume                     1318.25
_exptl_crystal_colour            colorless
_exptl_crystal_description       prismatic
_cell_formula_units_Z            2
_exptl_crystal_recrystallization_method 'hot toluene'
loop_
_atom_site_label
_atom_site_type_symbol
_atom_site_fract_x
_atom_site_fract_y
_atom_site_fract_z
O1 O 0.2344(2) 0.27230(19) 0.68916(16)
C1 C 0.4897(3) -0.5095(2) 0.90009(19)
H1 H 0.4834 -0.5153 0.8347
C2 C 0.4578(3) -0.3914(2) 0.91459(19)
C3 C 0.4680(3) -0.3795(2) 1.0128(2)
C4 C 0.3919(3) -0.1650(3) 0.9076(2)
C5 C 0.3477(3) -0.0290(3) 0.8708(2)
C6 C 0.3099(3) 0.0878(3) 0.8346(2)
C7 C 0.2667(3) 0.2221(3) 0.7928(2)
C8 C 0.2498(3) 0.3151(3) 0.8328(2)
H2 H 0.2648 0.3037 0.9018
C9 C 0.2051(3) 0.4349(3) 0.7528(2)
C10 C 0.1960(3) 0.4040(3) 0.6651(2)
C11 C 0.1557(3) 0.4962(3) 0.5699(2)
H3 H 0.1494 0.4735 0.5117
C12 C 0.1256(3) 0.6212(3) 0.5643(2)
H4 H 0.0979 0.6859 0.5011
C13 C 0.1352(3) 0.6552(3) 0.6519(3)
H5 H 0.1149 0.7421 0.6453
C14 C 0.1735(3) 0.5642(3) 0.7460(2)
H6 H 0.1786 0.5873 0.8041
S1 S 0.4027(3) -0.24309(15) 0.81720(12)
C15 C 0.425(2) -0.245(2) 1.0017(13)
H7 H 0.4219 -0.2169 1.0580
O1A O 0.7656(2) -1.27230(19) 1.31084(16)
C1A C 0.5103(3) -0.4905(2) 1.09991(19)
H1A H 0.5166 -0.4847 1.1653
C2A C 0.5422(3) -0.6086(2) 1.08541(19)
C3A C 0.5320(3) -0.6205(2) 0.9872(2)
C4A C 0.6081(3) -0.8350(3) 1.0924(2)
C5A C 0.6523(3) -0.9710(3) 1.1292(2)
C6A C 0.6901(3) -1.0878(3) 1.1654(2)
C7A C 0.7333(3) -1.2221(3) 1.2072(2)
C8A C 0.7502(3) -1.3151(3) 1.1672(2)
H2A H 0.7352 -1.3037 1.0982
C9A C 0.7949(3) -1.4349(3) 1.2472(2)
C10A C 0.8040(3) -1.4040(3) 1.3349(2)
C11A C 0.8443(3) -1.4962(3) 1.4301(2)
H3A H 0.8506 -1.4735 1.4883
C12A C 0.8744(3) -1.6212(3) 1.4357(2)
H4A H 0.9021 -1.6859 1.4989
C13A C 0.8648(3) -1.6552(3) 1.3481(3)
H5A H 0.8851 -1.7421 1.3547
C14A C 0.8265(3) -1.5642(3) 1.2540(2)
H6A H 0.8214 -1.5873 1.1959
S1A S 0.5973(3) -0.75691(15) 1.18280(12)
C15A C 0.575(2) -0.755(2) 0.9983(13)
H7A H 0.5781 -0.7831 0.9420
O2 O 0.6645(3) 0.2734(2) 0.70872(18)
C17 C 0.8794(3) -0.5164(2) 0.95465(19)
H9 H 0.8000 -0.5266 0.9249
C18 C 0.9027(3) -0.3959(3) 0.9384(2)
C19 C 1.0216(3) -0.3771(2) 0.98292(19)
C20 C 0.9024(3) -0.1651(3) 0.8890(2)
C21 C 0.8653(4) -0.0299(3) 0.8456(3)
C22 C 0.8296(4) 0.0841(3) 0.8063(3)
C23 C 0.7931(4) 0.2211(3) 0.7631(3)
C24 C 0.8547(3) 0.3081(3) 0.7661(2)
H10 H 0.9428 0.2932 0.7991
C25 C 0.7685(3) 0.4310(3) 0.71166(19)
C26 C 0.6500(3) 0.4080(3) 0.6758(2)
C27 C 0.5407(3) 0.5054(4) 0.6208(2)
H11 H 0.4604 0.4890 0.5970
C28 C 0.5551(4) 0.6290(4) 0.6023(2)
H12 H 0.4825 0.6981 0.5653
C29 C 0.6732(4) 0.6531(3) 0.6369(2)
H13 H 0.6797 0.7382 0.6223
C30 C 0.7822(3) 0.5551(3) 0.6925(2)
H14 H 0.8624 0.5718 0.7164
S3 S 0.79427(16) -0.25193(19) 0.86241(13)
C31 C 1.024(3) -0.2441(19) 0.9537(17)
H15 H 1.0951 -0.2129 0.9741
O2A O 1.3355(3) -1.2734(2) 1.29128(18)
C17A C 1.1206(3) -0.4836(2) 1.04535(19)
H9A H 1.2000 -0.4734 1.0751
C18A C 1.0973(3) -0.6041(3) 1.0616(2)
C19A C 0.9784(3) -0.6229(2) 1.01708(19)
C20A C 1.0976(3) -0.8349(3) 1.1110(2)
C21A C 1.1347(4) -0.9701(3) 1.1544(3)
C22A C 1.1704(4) -1.0841(3) 1.1937(3)
C23A C 1.2069(4) -1.2211(3) 1.2369(3)
C24A C 1.1453(3) -1.3081(3) 1.2339(2)
H10A H 1.0572 -1.2932 1.2009
C25A C 1.2315(3) -1.4310(3) 1.28834(19)
C26A C 1.3500(3) -1.4080(3) 1.3242(2)
C27A C 1.4593(3) -1.5054(4) 1.3792(2)
H11A H 1.5396 -1.4890 1.4030
C28A C 1.4449(4) -1.6290(4) 1.3977(2)
H12A H 1.5175 -1.6981 1.4347
C29A C 1.3268(4) -1.6531(3) 1.3631(2)
H13A H 1.3203 -1.7382 1.3777
C30A C 1.2178(3) -1.5551(3) 1.3075(2)
H14A H 1.1376 -1.5718 1.2836
S3A S 1.20573(16) -0.74807(19) 1.13759(13)
C31A C 0.976(3) -0.7559(19) 1.0463(17)
H15A H 0.9049 -0.7871 1.0259
S2? S 0.430(2) -0.2391(16) 1.0254(11)
C16? C 0.407(3) -0.2508(13) 0.8426(11)
H8? H 0.3890 -0.2236 0.7718
S4? S 1.032(3) -0.226(2) 0.9573(19)
C32? C 0.829(3) -0.264(3) 0.881(2)
H16? H 0.7433 -0.2432 0.8435
loop_
_geom_bond_atom_site_label_1
_geom_bond_atom_site_label_2
_geom_bond_site_symmetry_1
_geom_bond_site_symmetry_2
O1 C7 1_555 1_555
C1 H1 1_555 1_555
C2 C1 1_555 1_555
C3 C2 1_555 1_555
C4 C5 1_555 1_555
C5 C6 1_555 1_555
C6 C7 1_555 1_555
C7 C8 1_555 1_555
C8 H2 1_555 1_555
C9 C8 1_555 1_555
C10 O1 1_555 1_555
C11 C10 1_555 1_555
H3 C11 1_555 1_555
C12 C11 1_555 1_555
H4 C12 1_555 1_555
C13 C12 1_555 1_555
H5 C13 1_555 1_555
C14 C9 1_555 1_555
H6 C14 1_555 1_555
S1 C2 1_555 1_555
C15 C3 1_555 1_555
H7 C15 1_555 1_555
O2 C23 1_555 1_555
C17 H9 1_555 1_555
C18 C17 1_555 1_555
C19 C18 1_555 1_555
C20 C21 1_555 1_555
C21 C22 1_555 1_555
C22 C23 1_555 1_555
C23 C24 1_555 1_555
C24 H10 1_555 1_555
C25 C24 1_555 1_555
C26 O2 1_555 1_555
C27 C26 1_555 1_555
H11 C27 1_555 1_555
C28 C27 1_555 1_555
H12 C28 1_555 1_555
C29 C28 1_555 1_555
H13 C29 1_555 1_555
C30 C25 1_555 1_555
H14 C30 1_555 1_555
S3 C18 1_555 1_555
C31 C19 1_555 1_555
H15 C31 1_555 1_555
O1A C7A 1_555 1_555
C1A C3 1_555 1_555
H1A C1A 1_555 1_555
C2A C1A 1_555 1_555
C3A C1 1_555 1_555
C4A C5A 1_555 1_555
C5A C6A 1_555 1_555
C6A C7A 1_555 1_555
C7A C8A 1_555 1_555
C8A H2A 1_555 1_555
C9A C8A 1_555 1_555
C10A O1A 1_555 1_555
C11A C10A 1_555 1_555
H3A C11A 1_555 1_555
C12A C11A 1_555 1_555
H4A C12A 1_555 1_555
C13A C12A 1_555 1_555
H5A C13A 1_555 1_555
C14A C9A 1_555 1_555
H6A C14A 1_555 1_555
S1A C2A 1_555 1_555
C15A C3A 1_555 1_555
H7A C15A 1_555 1_555
O2A C23A 1_555 1_555
C17A C19 1_555 1_555
H9A C17A 1_555 1_555
C18A C17A 1_555 1_555
C19A C17 1_555 1_555
C20A C21A 1_555 1_555
C21A C22A 1_555 1_555
C22A C23A 1_555 1_555
C23A C24A 1_555 1_555
C24A H10A 1_555 1_555
C25A C24A 1_555 1_555
C26A O2A 1_555 1_555
C27A C26A 1_555 1_555
H11A C27A 1_555 1_555
C28A C27A 1_555 1_555
H12A C28A 1_555 1_555
C29A C28A 1_555 1_555
H13A C29A 1_555 1_555
C30A C25A 1_555 1_555
H14A C30A 1_555 1_555
S3A C18A 1_555 1_555
C31A C19A 1_555 1_555
H15A C31A 1_555 1_555
C4 S1 1_555 1_555
C4 C15 1_555 1_555
C9 C10 1_555 1_555
C13 C14 1_555 1_555
C20 S3 1_555 1_555
C20 C31 1_555 1_555
C25 C26 1_555 1_555
C29 C30 1_555 1_555
C2A C3A 1_555 1_555
C4A S1A 1_555 1_555
C4A C15A 1_555 1_555
C9A C10A 1_555 1_555
C13A C14A 1_555 1_555
C18A C19A 1_555 1_555
C20A S3A 1_555 1_555
C20A C31A 1_555 1_555
C25A C26A 1_555 1_555
C29A C30A 1_555 1_555

#END
