
#######################################################################
#
#                 Cambridge Crystallographic Data Centre
#                                CCDC 
#
#######################################################################
#
# If this CIF has been generated from an entry in the Cambridge 
# Structural Database, then it will include bibliographic, chemical, 
# crystal, experimental, refinement or atomic coordinate data resulting 
# from the CCDC's data processing and validation procedures.
#
#######################################################################

data_AKUDOB
_chemical_formula_moiety         'C56 H36 N2 O4'
_chemical_name_systematic        
"diethyl 4,4'-(pentacyclo[6.6.6.0^2,7^.0^9,14^.0^15,20^]icosa-2,4,6,9,11,13,15,17,19-nonaene-1,8-diyldiethyne-2,1-diyl)bis(3-(pyridin-3-ylethynyl)benzoate)"
_symmetry_cell_setting           triclinic
_symmetry_space_group_name_H-M   'P -1'
_symmetry_Int_Tables_number      2
_space_group_name_Hall           '-P 1'
loop_
_symmetry_equiv_pos_site_id
_symmetry_equiv_pos_as_xyz
1 x,y,z
2 -x,-y,-z
_cell_length_a                   9.1134(11)
_cell_length_b                   13.830(2)
_cell_length_c                   16.661(2)
_cell_angle_alpha                89.312(5)
_cell_angle_beta                 75.124(5)
_cell_angle_gamma                87.829(6)
_cell_volume                     2028.08
_exptl_crystal_colour            colorless
_exptl_crystal_description       block
_cell_formula_units_Z            2
loop_
_atom_site_label
_atom_site_type_symbol
_atom_site_fract_x
_atom_site_fract_y
_atom_site_fract_z
O1 O 1.04631(12) 0.72190(8) 0.37496(7)
O2 O 0.97678(15) 0.61967(8) 0.48264(7)
O3 O 0.07945(17) -0.08249(9) -0.36204(7)
O4 O -0.00834(12) -0.18710(7) -0.25882(6)
N1 N 0.24991(18) 0.17512(13) 0.47354(10)
N2 N 0.5534(18) 0.4323(12) -0.4093(10)
C1 C 1.1739(2) 0.86812(12) 0.37278(13)
H1 H 1.2501 0.8473 0.3242
H2 H 1.2174 0.9113 0.4043
H3 H 1.0915 0.9010 0.3564
C2 C 1.1157(2) 0.78142(11) 0.42521(11)
H4 H 1.1986 0.7458 0.4402
H5 H 1.0416 0.8014 0.4757
C3 C 0.98345(17) 0.64145(10) 0.41173(9)
C4 C 0.92302(16) 0.58170(10) 0.35399(9)
C5 C 0.84641(16) 0.49956(10) 0.38572(8)
H6 H 0.8378 0.4818 0.4407
C6 C 0.78188(15) 0.44306(10) 0.33570(8)
C7 C 0.79953(15) 0.46799(10) 0.25160(8)
C8 C 0.87984(17) 0.55012(11) 0.22021(9)
H7 H 0.8932 0.5667 0.1646
C9 C 0.93974(17) 0.60705(11) 0.27080(9)
H8 H 0.9912 0.6623 0.2494
C10 C 0.69190(17) 0.36286(10) 0.37158(9)
C11 C 0.61042(18) 0.30112(11) 0.40505(9)
C12 C 0.50305(18) 0.23209(11) 0.44620(9)
C13 C 0.5392(2) 0.16146(13) 0.49770(12)
H9 H 0.6369 0.1552 0.5051
C14 C 0.4271(2) 0.09998(14) 0.53823(12)
H10 H 0.4471 0.0538 0.5754
C15 C 0.2873(2) 0.10793(14) 0.52296(11)
H11 H 0.2146 0.0642 0.5484
C16 C 0.35666(19) 0.23635(13) 0.43684(11)
H12 H 0.3310 0.2846 0.4030
C17 C 0.73471(16) 0.40980(10) 0.19943(8)
C18 C 0.67923(15) 0.36162(10) 0.15691(8)
C19 C 0.60140(14) 0.30583(9) 0.10701(8)
C20 C 0.52710(15) 0.21506(9) 0.15130(8)
C21 C 0.53241(16) 0.18305(10) 0.22941(8)
H13 H 0.5856 0.2166 0.2602
C22 C 0.45679(18) 0.09974(11) 0.26126(9)
H14 H 0.4597 0.0774 0.3137
C23 C 0.37752(19) 0.05006(11) 0.21554(10)
H15 H 0.3266 -0.0050 0.2377
C24 C 0.37320(16) 0.08164(10) 0.13660(9)
H16 H 0.3201 0.0479 0.1058
C25 C 0.44885(15) 0.16368(9) 0.10462(8)
C26 C 0.45675(15) 0.20815(9) 0.01865(8)
C27 C 0.62759(14) 0.21636(9) -0.02274(8)
C28 C 0.70479(15) 0.26773(9) 0.02466(8)
C29 C 0.85998(15) 0.27884(10) -0.00340(8)
H17 H 0.9117 0.3127 0.0281
C30 C 0.93771(16) 0.23861(10) -0.07953(9)
H18 H 1.0421 0.2453 -0.0987
C31 C 0.86105(17) 0.18890(11) -0.12680(9)
H19 H 0.9139 0.1629 -0.1777
C32 C 0.70480(16) 0.17765(10) -0.09845(8)
H20 H 0.6531 0.1444 -0.1303
C33 C 0.47124(14) 0.36470(9) 0.08337(8)
C34 C 0.42659(16) 0.45904(10) 0.10624(8)
H21 H 0.4780 0.4936 0.1373
C35 C 0.30395(17) 0.50172(10) 0.08227(9)
H22 H 0.2720 0.5649 0.0983
C36 C 0.22928(17) 0.45102(11) 0.03485(10)
H23 H 0.1482 0.4806 0.0185
C37 C 0.27448(16) 0.35588(11) 0.01119(9)
H24 H 0.2243 0.3218 -0.0209
C38 C 0.39521(15) 0.31290(9) 0.03616(8)
C39 C 0.37669(15) 0.15258(10) -0.02986(8)
C40 C 0.31293(16) 0.10535(10) -0.06893(9)
C41 C 0.24208(15) 0.05212(10) -0.12141(8)
C42 C 0.16330(16) -0.03160(10) -0.09388(9)
H25 H 0.1529 -0.0528 -0.0396
C43 C 0.10039(16) -0.08348(10) -0.14674(9)
H26 H 0.0482 -0.1393 -0.1279
C44 C 0.11551(16) -0.05179(10) -0.22812(9)
C45 C 0.19027(16) 0.03240(10) -0.25541(9)
H27 H 0.1976 0.0540 -0.3093
C46 C 0.25483(15) 0.08527(10) -0.20332(9)
C47 C 0.33602(16) 0.17019(10) -0.23433(9)
C48 C 0.40519(17) 0.23977(10) -0.26316(9)
C49 C 0.48996(16) 0.32107(10) -0.30042(9)
C50 C 0.46935(18) 0.36220(11) -0.37343(9)
H28 H 0.3949 0.3394 -0.3968
C51 C 0.6560(2) 0.47191(11) -0.37380(10)
H29 H 0.7118 0.5232 -0.4008
C52 C 0.680(2) 0.4409(15) -0.3030(12)
H30 H 0.7479 0.4705 -0.2788
C53 C 0.59743(19) 0.36094(11) -0.26547(10)
H31 H 0.6148 0.3345 -0.2170
C54 C 0.06049(17) -0.10763(10) -0.29058(9)
C55 C -0.06453(18) -0.24532(11) -0.31635(10)
H32 H 0.0195 -0.2711 -0.3600
H33 H -0.1314 -0.2064 -0.3416
C56 C -0.14933(18) -0.32605(12) -0.26637(12)
H34 H -0.1830 -0.3687 -0.3025
H35 H -0.2357 -0.2997 -0.2257
H36 H -0.0836 -0.3615 -0.2389
H37? H 0.3994 0.3352 -0.3978
H38? H 0.7166 0.5225 -0.3979
H39? H 0.6100 0.3365 -0.2153
C57? C 0.549(2) 0.4431(16) -0.4128(13)
H40? H 0.5315 0.4732 -0.4597
N3? N 0.681(2) 0.4320(12) -0.3015(9)
loop_
_geom_bond_atom_site_label_1
_geom_bond_atom_site_label_2
_geom_bond_site_symmetry_1
_geom_bond_site_symmetry_2
O1 C2 1_555 1_555
O2 C3 1_555 1_555
O3 C54 1_555 1_555
O4 C54 1_555 1_555
N1 C15 1_555 1_555
N2 C50 1_555 1_555
C1 H1 1_555 1_555
H2 C1 1_555 1_555
H3 C1 1_555 1_555
C2 C1 1_555 1_555
H4 C2 1_555 1_555
H5 C2 1_555 1_555
C3 O1 1_555 1_555
C4 C3 1_555 1_555
C5 C4 1_555 1_555
H6 C5 1_555 1_555
C6 C5 1_555 1_555
C7 C6 1_555 1_555
C8 C7 1_555 1_555
H7 C8 1_555 1_555
C9 C4 1_555 1_555
H8 C9 1_555 1_555
C10 C6 1_555 1_555
C11 C10 1_555 1_555
C12 C11 1_555 1_555
C13 C12 1_555 1_555
H9 C13 1_555 1_555
C14 C13 1_555 1_555
H10 C14 1_555 1_555
C15 C14 1_555 1_555
H11 C15 1_555 1_555
C16 N1 1_555 1_555
H12 C16 1_555 1_555
C17 C7 1_555 1_555
C18 C17 1_555 1_555
C19 C18 1_555 1_555
C20 C19 1_555 1_555
C21 C20 1_555 1_555
H13 C21 1_555 1_555
C22 C21 1_555 1_555
H14 C22 1_555 1_555
C23 C22 1_555 1_555
H15 C23 1_555 1_555
C24 C23 1_555 1_555
H16 C24 1_555 1_555
C25 C20 1_555 1_555
C26 C25 1_555 1_555
C27 C26 1_555 1_555
C28 C19 1_555 1_555
C29 C28 1_555 1_555
H17 C29 1_555 1_555
C30 C29 1_555 1_555
H18 C30 1_555 1_555
C31 C30 1_555 1_555
H19 C31 1_555 1_555
C32 C27 1_555 1_555
H20 C32 1_555 1_555
C33 C19 1_555 1_555
C34 C33 1_555 1_555
H21 C34 1_555 1_555
C35 C34 1_555 1_555
H22 C35 1_555 1_555
C36 C35 1_555 1_555
H23 C36 1_555 1_555
C37 C36 1_555 1_555
H24 C37 1_555 1_555
C38 C26 1_555 1_555
C39 C26 1_555 1_555
C40 C39 1_555 1_555
C41 C40 1_555 1_555
C42 C41 1_555 1_555
H25 C42 1_555 1_555
C43 C42 1_555 1_555
H26 C43 1_555 1_555
C44 C43 1_555 1_555
C45 C44 1_555 1_555
H27 C45 1_555 1_555
C46 C41 1_555 1_555
C47 C46 1_555 1_555
C48 C47 1_555 1_555
C49 C48 1_555 1_555
C50 C49 1_555 1_555
H28 C50 1_555 1_555
C51 N2 1_555 1_555
H29 C51 1_555 1_555
C52 C51 1_555 1_555
H30 C52 1_555 1_555
C53 C49 1_555 1_555
H31 C53 1_555 1_555
C54 C44 1_555 1_555
C55 O4 1_555 1_555
H32 C55 1_555 1_555
H33 C55 1_555 1_555
C56 C55 1_555 1_555
H34 C56 1_555 1_555
H35 C56 1_555 1_555
H36 C56 1_555 1_555
C8 C9 1_555 1_555
C12 C16 1_555 1_555
C24 C25 1_555 1_555
C27 C28 1_555 1_555
C31 C32 1_555 1_555
C33 C38 1_555 1_555
C37 C38 1_555 1_555
C45 C46 1_555 1_555
C52 C53 1_555 1_555

#END
