
#######################################################################
#
#                 Cambridge Crystallographic Data Centre
#                                CCDC 
#
#######################################################################
#
# If this CIF has been generated from an entry in the Cambridge 
# Structural Database, then it will include bibliographic, chemical, 
# crystal, experimental, refinement or atomic coordinate data resulting 
# from the CCDC's data processing and validation procedures.
#
#######################################################################

data_AKUNIE
_chemical_formula_moiety         'C12 H5 F4 N1 O2'
_chemical_name_systematic        2,3,4,5-Tetrafluoro-6-nitrobiphenyl
_symmetry_cell_setting           monoclinic
_symmetry_space_group_name_H-M   'P 21/n'
_symmetry_Int_Tables_number      14
_space_group_name_Hall           '-P 2yn'
loop_
_symmetry_equiv_pos_site_id
_symmetry_equiv_pos_as_xyz
1 x,y,z
2 1/2-x,1/2+y,1/2-z
3 -x,-y,-z
4 1/2+x,1/2-y,1/2+z
_cell_length_a                   7.6907(5)
_cell_length_b                   11.4847(8)
_cell_length_c                   11.9766(8)
_cell_angle_alpha                90
_cell_angle_beta                 92.53(2)
_cell_angle_gamma                90
_cell_volume                     1056.81
_exptl_crystal_colour            colorless
_exptl_crystal_description       stick
_chemical_melting_point          '343-344 K'
_cell_formula_units_Z            4
loop_
_atom_site_label
_atom_site_type_symbol
_atom_site_fract_x
_atom_site_fract_y
_atom_site_fract_z
F1 F 0.6533(3) 0.43368(18) 0.74274(19)
O1 O 0.2254(4) 0.0767(2) 0.7756(2)
O2 O 0.4249(4) -0.0319(2) 0.7072(2)
N1 N 0.3526(10) 0.0607(5) 0.7232(4)
F2 F 0.6527(3) 0.43921(18) 0.51869(18)
F3 F 0.4997(3) 0.26695(19) 0.39447(16)
F4 F 0.3562(3) 0.08188(17) 0.49818(16)
C1 C 0.4343(4) 0.1638(3) 0.6737(3)
C2 C 0.5044(4) 0.2530(3) 0.7415(3)
C3 C 0.5750(4) 0.3452(3) 0.6831(3)
C4 C 0.5769(5) 0.3493(3) 0.5691(3)
C5 C 0.5027(5) 0.2610(3) 0.5053(3)
C6 C 0.4335(4) 0.1665(3) 0.5586(3)
C7 C 0.5061(4) 0.2493(3) 0.8656(3)
C8 C 0.5797(5) 0.1548(3) 0.9230(3)
C9 C 0.5792(5) 0.1516(3) 1.0389(3)
C10 C 0.5083(5) 0.2411(3) 1.0981(3)
C11 C 0.4346(5) 0.3366(3) 1.0409(3)
C12 C 0.4333(5) 0.3410(3) 0.9254(3)
H1 H 0.626(5) 0.094(3) 0.883(3)
H2 H 0.627(5) 0.084(4) 1.071(3)
H3 H 0.515(5) 0.231(3) 1.177(3)
H4 H 0.382(5) 0.401(4) 1.086(4)
H5 H 0.395(4) 0.415(3) 0.879(3)
F5? F 0.371(7) 0.075(3) 0.736(3)
N2? N 0.656(3) 0.4504(13) 0.7332(12)
O3? O 0.780(3) 0.4209(18) 0.7860(18)
O4? O 0.580(3) 0.5376(19) 0.7091(19)
loop_
_geom_bond_atom_site_label_1
_geom_bond_atom_site_label_2
_geom_bond_site_symmetry_1
_geom_bond_site_symmetry_2
F1 C3 1_555 1_555
O1 N1 1_555 1_555
O2 N1 1_555 1_555
N1 C1 1_555 1_555
F2 C4 1_555 1_555
F3 C5 1_555 1_555
F4 C6 1_555 1_555
C1 C2 1_555 1_555
C2 C3 1_555 1_555
C3 C4 1_555 1_555
C4 C5 1_555 1_555
C5 C6 1_555 1_555
C6 C1 1_555 1_555
C7 C2 1_555 1_555
C8 C7 1_555 1_555
C9 C8 1_555 1_555
C10 C9 1_555 1_555
C11 C10 1_555 1_555
C12 C7 1_555 1_555
H1 C8 1_555 1_555
H2 C9 1_555 1_555
H3 C10 1_555 1_555
H4 C11 1_555 1_555
H5 C12 1_555 1_555
C11 C12 1_555 1_555

#END
