
#######################################################################
#
#                 Cambridge Crystallographic Data Centre
#                                CCDC 
#
#######################################################################
#
# If this CIF has been generated from an entry in the Cambridge 
# Structural Database, then it will include bibliographic, chemical, 
# crystal, experimental, refinement or atomic coordinate data resulting 
# from the CCDC's data processing and validation procedures.
#
#######################################################################

data_AKUNUP
_chemical_formula_moiety         'C29 H61 Ca1 N1 O5 Si2'
_chemical_name_systematic        
(2,2,6,6-Tetramethylheptane-3,5-dionato-O,O')-tris(tetrahydrofuran)-(bis(trimethylsilyl)amido-N)-calcium
_symmetry_cell_setting           monoclinic
_symmetry_space_group_name_H-M   'P 21/n'
_symmetry_Int_Tables_number      14
_space_group_name_Hall           '-P 2yn'
loop_
_symmetry_equiv_pos_site_id
_symmetry_equiv_pos_as_xyz
1 x,y,z
2 1/2+x,1/2-y,1/2+z
3 -x,-y,-z
4 1/2-x,1/2+y,1/2-z
_cell_length_a                   9.7679(11)
_cell_length_b                   20.827(2)
_cell_length_c                   18.189(2)
_cell_angle_alpha                90
_cell_angle_beta                 93.129(2)
_cell_angle_gamma                90
_cell_volume                     3694.78
_exptl_crystal_colour            colorless
_exptl_crystal_description       prism
_chemical_melting_point          '4 deg.C'
_cell_formula_units_Z            4
loop_
_atom_site_label
_atom_site_type_symbol
_atom_site_fract_x
_atom_site_fract_y
_atom_site_fract_z
Ca1 Ca 0.90465(17) 0.31293(7) 0.75503(9)
Si1 Si 0.8290(3) 0.18207(12) 0.64024(14)
Si2 Si 0.6041(3) 0.21638(11) 0.73618(16)
O1 O 1.0834(6) 0.3812(3) 0.7914(3)
O2 O 1.0219(6) 0.3322(3) 0.6509(3)
O3 O 0.7575(6) 0.3983(2) 0.7044(3)
O4 O 1.0297(6) 0.2356(2) 0.8298(3)
O5 O 0.8362(6) 0.3529(3) 0.8755(3)
N1 N 0.7678(6) 0.2265(3) 0.7074(4)
C1 C 1.1747(10) 0.5144(4) 0.8234(6)
H1 H 1.2225 0.5419 0.8602
H2 H 1.0871 0.5004 0.8418
H3 H 1.1578 0.5385 0.7776
C2 C 1.2630(9) 0.4558(4) 0.8089(5)
C3 C 1.3949(10) 0.4806(4) 0.7752(6)
H4 H 1.4364 0.5142 0.8068
H5 H 1.3720 0.4981 0.7261
H6 H 1.4598 0.4450 0.7713
C4 C 1.3070(10) 0.4239(5) 0.8830(5)
H7 H 1.3697 0.4526 0.9113
H8 H 1.3535 0.3833 0.8738
H9 H 1.2258 0.4157 0.9109
C5 C 1.1802(10) 0.4093(4) 0.7615(5)
C6 C 1.2025(9) 0.4023(4) 0.6868(5)
H10 H 1.2791 0.4247 0.6694
C7 C 1.1263(9) 0.3668(4) 0.6351(5)
C8 C 1.1546(10) 0.3666(4) 0.5531(5)
C9 C 1.0360(9) 0.3991(5) 0.5130(5)
H11 H 0.9503 0.3791 0.5268
H12 H 1.0447 0.3947 0.4598
H13 H 1.0356 0.4447 0.5262
C10 C 1.1597(10) 0.2967(5) 0.5262(5)
H14 H 1.0790 0.2735 0.5419
H15 H 1.2430 0.2760 0.5472
H16 H 1.1603 0.2960 0.4723
C11 C 1.2906(9) 0.4000(5) 0.5359(6)
H17 H 1.3644 0.3844 0.5700
H18 H 1.2808 0.4465 0.5416
H19 H 1.3128 0.3902 0.4852
C12 C 0.5581(9) 0.2809(4) 0.8003(6)
H20 H 0.4634 0.2748 0.8143
H21 H 0.5664 0.3227 0.7762
H22 H 0.6201 0.2794 0.8445
C13 C 0.4715(10) 0.2186(5) 0.6602(6)
H23 H 0.3925 0.1929 0.6734
H24 H 0.5090 0.2010 0.6156
H25 H 0.4426 0.2631 0.6512
C14 C 0.5783(9) 0.1406(4) 0.7870(6)
H26 H 0.4820 0.1371 0.7991
H27 H 0.6369 0.1405 0.8325
H28 H 0.6023 0.1041 0.7562
C15 C 0.7904(9) 0.2164(5) 0.5477(5)
H29 H 0.8353 0.1906 0.5109
H30 H 0.8245 0.2606 0.5464
H31 H 0.6911 0.2162 0.5367
C16 C 0.7608(11) 0.0972(4) 0.6322(6)
H32 H 0.7976 0.0763 0.5892
H33 H 0.6605 0.0982 0.6265
H34 H 0.7891 0.0730 0.6767
C17 C 1.0207(9) 0.1705(4) 0.6528(5)
H35 H 1.0546 0.1502 0.6087
H36 H 1.0417 0.1431 0.6957
H37 H 1.0652 0.2124 0.6604
C18 C 0.9722(10) 0.1788(4) 0.8608(5)
H38 H 0.9001 0.1903 0.8946
H39 H 0.9313 0.1509 0.8213
C19 C 1.0835(13) 0.1464(6) 0.9000(8)
H40 H 1.0724 0.0993 0.8954
H41 H 1.0859 0.1579 0.9529
C20 C 1.2116(12) 0.1672(5) 0.8671(7)
H42 H 1.2895 0.1683 0.9042
H43 H 1.2348 0.1389 0.8258
C21 C 1.1744(10) 0.2318(5) 0.8411(5)
H44 H 1.2070 0.2641 0.8779
H45 H 1.2183 0.2409 0.7944
C22 C 0.6697(9) 0.3871(4) 0.6416(5)
H46 H 0.5780 0.3739 0.6566
H47 H 0.7070 0.3523 0.6115
C23 C 0.6584(12) 0.4479(5) 0.5975(7)
H48 H 0.7028 0.4430 0.5501
H49 H 0.5612 0.4600 0.5873
C24 C 0.7298(13) 0.4960(5) 0.6442(7)
H50 H 0.7864 0.5242 0.6142
H51 H 0.6630 0.5229 0.6693
C25 C 0.8138(10) 0.4617(4) 0.6963(6)
H52 H 0.8172 0.4843 0.7443
H53 H 0.9083 0.4587 0.6796
C26 C 0.7539(13) 0.4093(6) 0.8880(7)
H54 H 0.7853 0.4454 0.8577
H55 H 0.6567 0.4004 0.8732
C27 C 0.7659(18) 0.4257(7) 0.9615(8)
H56 H 0.6851 0.4102 0.9869
H57 H 0.7713 0.4729 0.9669
C28 C 0.890(2) 0.3960(7) 0.9933(7)
H58 H 0.8752 0.3790 1.0430
H59 H 0.9665 0.4272 0.9967
C29 C 0.9185(11) 0.3431(5) 0.9412(5)
H60 H 1.0168 0.3431 0.9304
H61 H 0.8965 0.3011 0.9633
loop_
_geom_bond_atom_site_label_1
_geom_bond_atom_site_label_2
_geom_bond_site_symmetry_1
_geom_bond_site_symmetry_2
Ca1 O1 1_555 1_555
Si1 N1 1_555 1_555
Si2 N1 1_555 1_555
O1 C5 1_555 1_555
O2 Ca1 1_555 1_555
O3 Ca1 1_555 1_555
O4 Ca1 1_555 1_555
O5 Ca1 1_555 1_555
N1 Ca1 1_555 1_555
C1 H1 1_555 1_555
H2 C1 1_555 1_555
H3 C1 1_555 1_555
C2 C1 1_555 1_555
C3 C2 1_555 1_555
H4 C3 1_555 1_555
H5 C3 1_555 1_555
H6 C3 1_555 1_555
C4 C2 1_555 1_555
H7 C4 1_555 1_555
H8 C4 1_555 1_555
H9 C4 1_555 1_555
C5 C2 1_555 1_555
C6 C5 1_555 1_555
H10 C6 1_555 1_555
C7 O2 1_555 1_555
C8 C7 1_555 1_555
C9 C8 1_555 1_555
H11 C9 1_555 1_555
H12 C9 1_555 1_555
H13 C9 1_555 1_555
C10 C8 1_555 1_555
H14 C10 1_555 1_555
H15 C10 1_555 1_555
H16 C10 1_555 1_555
C11 C8 1_555 1_555
H17 C11 1_555 1_555
H18 C11 1_555 1_555
H19 C11 1_555 1_555
C12 Si2 1_555 1_555
H20 C12 1_555 1_555
H21 C12 1_555 1_555
H22 C12 1_555 1_555
C13 Si2 1_555 1_555
H23 C13 1_555 1_555
H24 C13 1_555 1_555
H25 C13 1_555 1_555
C14 Si2 1_555 1_555
H26 C14 1_555 1_555
H27 C14 1_555 1_555
H28 C14 1_555 1_555
C15 Si1 1_555 1_555
H29 C15 1_555 1_555
H30 C15 1_555 1_555
H31 C15 1_555 1_555
C16 Si1 1_555 1_555
H32 C16 1_555 1_555
H33 C16 1_555 1_555
H34 C16 1_555 1_555
C17 Si1 1_555 1_555
H35 C17 1_555 1_555
H36 C17 1_555 1_555
H37 C17 1_555 1_555
C18 O4 1_555 1_555
H38 C18 1_555 1_555
H39 C18 1_555 1_555
C19 C18 1_555 1_555
H40 C19 1_555 1_555
H41 C19 1_555 1_555
C20 C19 1_555 1_555
H42 C20 1_555 1_555
H43 C20 1_555 1_555
C21 O4 1_555 1_555
H44 C21 1_555 1_555
H45 C21 1_555 1_555
C22 O3 1_555 1_555
H46 C22 1_555 1_555
H47 C22 1_555 1_555
C23 C22 1_555 1_555
H48 C23 1_555 1_555
H49 C23 1_555 1_555
C24 C23 1_555 1_555
H50 C24 1_555 1_555
H51 C24 1_555 1_555
C25 O3 1_555 1_555
H52 C25 1_555 1_555
H53 C25 1_555 1_555
C26 O5 1_555 1_555
H54 C26 1_555 1_555
H55 C26 1_555 1_555
C27 C26 1_555 1_555
H56 C27 1_555 1_555
H57 C27 1_555 1_555
C28 C27 1_555 1_555
H58 C28 1_555 1_555
H59 C28 1_555 1_555
C29 O5 1_555 1_555
H60 C29 1_555 1_555
H61 C29 1_555 1_555
C6 C7 1_555 1_555
C20 C21 1_555 1_555
C24 C25 1_555 1_555
C28 C29 1_555 1_555

#END
