
#######################################################################
#
#                 Cambridge Crystallographic Data Centre
#                                CCDC 
#
#######################################################################
#
# If this CIF has been generated from an entry in the Cambridge 
# Structural Database, then it will include bibliographic, chemical, 
# crystal, experimental, refinement or atomic coordinate data resulting 
# from the CCDC's data processing and validation procedures.
#
#######################################################################

data_AKUQIH
_chemical_formula_moiety         'C24 H28 Cl1 N1 O2'
_chemical_name_systematic        
3-(Benzyloxy)-4-(1-chloro-2-phenylethyl)-1-cyclohexylazetidin-2-one
_symmetry_cell_setting           monoclinic
_symmetry_space_group_name_H-M   'C 2'
_symmetry_Int_Tables_number      5
_space_group_name_Hall           'C 2y'
loop_
_symmetry_equiv_pos_site_id
_symmetry_equiv_pos_as_xyz
1 x,y,z
2 -x,y,-z
3 1/2+x,1/2+y,z
4 1/2-x,1/2+y,-z
_cell_length_a                   26.5869(12)
_cell_length_b                   5.4737(3)
_cell_length_c                   14.5005(7)
_cell_angle_alpha                90
_cell_angle_beta                 95.769(1)
_cell_angle_gamma                90
_cell_volume                     2099.55
_exptl_crystal_colour            colorless
_exptl_crystal_description       lath
_cell_formula_units_Z            4
loop_
_atom_site_label
_atom_site_type_symbol
_atom_site_fract_x
_atom_site_fract_y
_atom_site_fract_z
Cl1 Cl 0.053680(11) 0.48821(7) 0.094384(19)
O1 O 0.18371(4) 1.1188(2) -0.05694(6)
N1 N 0.12983(4) 0.7942(2) -0.02484(6)
C1 C 0.14663(4) 0.6295(2) 0.05327(7)
H1 H 0.1544 0.4612 0.0319
O2 O 0.20057(3) 0.9129(2) 0.15513(6)
C2 C 0.19485(4) 0.7928(2) 0.06883(7)
H2 H 0.2262 0.7048 0.0551
C3 C 0.17104(4) 0.9419(2) -0.01444(7)
C4 C 0.11408(4) 0.6268(2) 0.13311(8)
H3 H 0.1083 0.7987 0.1528
C5 C 0.13922(4) 0.4836(3) 0.21599(8)
H4 H 0.1383 0.3072 0.2009
H5 H 0.1751 0.5332 0.2273
C6 C 0.11369(5) 0.5250(3) 0.30321(7)
C7 C 0.07875(5) 0.3599(3) 0.33157(8)
H6 H 0.0715 0.2143 0.2971
C8 C 0.05412(5) 0.4058(3) 0.41027(9)
H7 H 0.0302 0.2919 0.4290
C9 C 0.06451(5) 0.6167(4) 0.46112(9)
H8 H 0.0476 0.6485 0.5145
C10 C 0.09960(6) 0.7810(3) 0.43403(9)
H9 H 0.1070 0.9252 0.4693
C11 C 0.12414(6) 0.7361(3) 0.35523(9)
H10 H 0.1481 0.8502 0.3369
C12 C 0.24758(5) 1.0437(3) 0.17365(8)
H11 H 0.2415 1.2217 0.1681
H12 H 0.2712 0.9962 0.1281
C13 C 0.27025(4) 0.9826(3) 0.27035(7)
C14 C 0.26300(5) 1.1319(3) 0.34494(9)
H13 H 0.2431 1.2754 0.3357
C15 C 0.28491(6) 1.0723(3) 0.43385(9)
H14 H 0.2800 1.1757 0.4848
C16 C 0.31359(5) 0.8640(3) 0.44760(9)
H15 H 0.3287 0.8246 0.5079
C17 C 0.32057(5) 0.7113(3) 0.37362(9)
H16 H 0.3401 0.5666 0.3833
C18 C 0.29880(5) 0.7708(3) 0.28509(8)
H17 H 0.3035 0.6660 0.2344
C19 C 0.09084(4) 0.7692(2) -0.10351(8)
H18 H 0.0661 0.6416 -0.0879
C20 C 0.11490(5) 0.6868(3) -0.18930(8)
H19 H 0.1307 0.5245 -0.1776
H20 H 0.1418 0.8035 -0.2019
C21 C 0.07595(6) 0.6715(3) -0.27413(9)
H21 H 0.0512 0.5413 -0.2646
H22 H 0.0931 0.6285 -0.3294
C22 C 0.04830(6) 0.9149(3) -0.29078(9)
H23 H 0.0726 1.0415 -0.3067
H24 H 0.0220 0.8982 -0.3438
C23 C 0.02393(5) 0.9941(3) -0.20589(9)
H25 H -0.0027 0.8754 -0.1938
H26 H 0.0077 1.1553 -0.2177
C24 C 0.06259(5) 1.0113(3) -0.12028(8)
H27 H 0.0871 1.1433 -0.1293
H28 H 0.0450 1.0527 -0.0653
loop_
_geom_bond_atom_site_label_1
_geom_bond_atom_site_label_2
_geom_bond_site_symmetry_1
_geom_bond_site_symmetry_2
Cl1 C4 1_555 1_555
O1 C3 1_555 1_555
N1 C1 1_555 1_555
C1 H1 1_555 1_555
O2 C2 1_555 1_555
C2 C1 1_555 1_555
H2 C2 1_555 1_555
C3 N1 1_555 1_555
C4 C1 1_555 1_555
H3 C4 1_555 1_555
C5 C4 1_555 1_555
H4 C5 1_555 1_555
H5 C5 1_555 1_555
C6 C5 1_555 1_555
C7 C6 1_555 1_555
H6 C7 1_555 1_555
C8 C7 1_555 1_555
H7 C8 1_555 1_555
C9 C8 1_555 1_555
H8 C9 1_555 1_555
C10 C9 1_555 1_555
H9 C10 1_555 1_555
C11 C6 1_555 1_555
H10 C11 1_555 1_555
C12 O2 1_555 1_555
H11 C12 1_555 1_555
H12 C12 1_555 1_555
C13 C12 1_555 1_555
C14 C13 1_555 1_555
H13 C14 1_555 1_555
C15 C14 1_555 1_555
H14 C15 1_555 1_555
C16 C15 1_555 1_555
H15 C16 1_555 1_555
C17 C16 1_555 1_555
H16 C17 1_555 1_555
C18 C13 1_555 1_555
H17 C18 1_555 1_555
C19 N1 1_555 1_555
H18 C19 1_555 1_555
C20 C19 1_555 1_555
H19 C20 1_555 1_555
H20 C20 1_555 1_555
C21 C20 1_555 1_555
H21 C21 1_555 1_555
H22 C21 1_555 1_555
C22 C21 1_555 1_555
H23 C22 1_555 1_555
H24 C22 1_555 1_555
C23 C22 1_555 1_555
H25 C23 1_555 1_555
H26 C23 1_555 1_555
C24 C19 1_555 1_555
H27 C24 1_555 1_555
H28 C24 1_555 1_555
C2 C3 1_555 1_555
C10 C11 1_555 1_555
C17 C18 1_555 1_555
C23 C24 1_555 1_555

#END
