
#######################################################################
#
#                 Cambridge Crystallographic Data Centre
#                                CCDC 
#
#######################################################################
#
# If this CIF has been generated from an entry in the Cambridge 
# Structural Database, then it will include bibliographic, chemical, 
# crystal, experimental, refinement or atomic coordinate data resulting 
# from the CCDC's data processing and validation procedures.
#
#######################################################################

data_AKUSIJ
_chemical_formula_moiety         'C22 H15 Cl1 N4 O1'
_chemical_name_systematic        
4-(9-(2-Chlorobenzyl)-9H-purin-6-yl)-1-naphthol
_symmetry_cell_setting           orthorhombic
_symmetry_space_group_name_H-M   'P b c a'
_symmetry_Int_Tables_number      61
_space_group_name_Hall           '-P 2ac 2ab'
loop_
_symmetry_equiv_pos_site_id
_symmetry_equiv_pos_as_xyz
1 x,y,z
2 1/2-x,-y,1/2+z
3 -x,1/2+y,1/2-z
4 1/2+x,1/2-y,-z
5 -x,-y,-z
6 1/2+x,y,1/2-z
7 x,1/2-y,1/2+z
8 1/2-x,1/2+y,z
_cell_length_a                   18.588(13)
_cell_length_b                   8.804(6)
_cell_length_c                   22.536(16)
_cell_angle_alpha                90
_cell_angle_beta                 90
_cell_angle_gamma                90
_cell_volume                     3687.99
_exptl_crystal_colour            colorless
_exptl_crystal_description       block
_cell_formula_units_Z            8
loop_
_atom_site_label
_atom_site_type_symbol
_atom_site_fract_x
_atom_site_fract_y
_atom_site_fract_z
C1 C 0.0541(2) 0.1402(5) 0.9469(2)
H1 H 0.0255 0.0501 0.9544
H2 H 0.0708 0.1778 0.9849
C2 C 0.11849(12) 0.0951(3) 0.91051(12)
C3 C 0.17202(15) 0.0068(4) 0.93629(12)
C4 C 0.22784(16) -0.0497(4) 0.90169(17)
H3 H 0.2637 -0.1088 0.9189
C5 C 0.23014(17) -0.0179(5) 0.84131(16)
H4 H 0.2675 -0.0557 0.8182
C6 C 0.17661(19) 0.0704(5) 0.81552(12)
H5 H 0.1781 0.0917 0.7751
C7 C 0.12079(15) 0.1269(4) 0.85012(12)
H6 H 0.0850 0.1860 0.8329
C8 C -0.22655(10) 0.8712(2) 0.84130(10)
C9 C -0.22953(11) 0.7644(2) 0.88434(11)
H7 H -0.2736 0.7385 0.9011
C10 C -0.16674(11) 0.6930(2) 0.90365(11)
H8 H -0.1700 0.6187 0.9329
C11 C -0.10039(10) 0.7289(2) 0.88092(9)
C12 C -0.09522(10) 0.8439(2) 0.83703(9)
C13 C -0.02929(11) 0.8876(3) 0.81012(10)
H9 H 0.0133 0.8416 0.8221
C14 C -0.02757(13) 0.9955(3) 0.76711(11)
H10 H 0.0160 1.0202 0.7493
C15 C -0.09036(13) 1.0698(3) 0.74932(12)
H11 H -0.0884 1.1448 0.7203
C16 C -0.15427(12) 1.0323(3) 0.77448(11)
H12 H -0.1957 1.0838 0.7631
C17 C -0.15890(10) 0.9172(2) 0.81732(9)
C18 C -0.03785(10) 0.6400(2) 0.90155(9)
C19 C -0.03815(10) 0.4826(2) 0.90049(9)
C20 C -0.05746(11) 0.2462(2) 0.89213(10)
H13 H -0.0789 0.1536 0.8830
C21 C 0.02090(10) 0.4086(2) 0.92487(9)
C22 C 0.07380(12) 0.6241(3) 0.94502(11)
H14 H 0.1133 0.6770 0.9596
Cl1 Cl 0.16330(4) -0.04187(8) 1.00954(3)
N1 N 0.02036(9) 0.7102(2) 0.92372(9)
N2 N 0.07845(9) 0.4737(2) 0.94836(9)
N3 N 0.00716(8) 0.25667(19) 0.91988(8)
N4 N -0.08701(8) 0.37642(19) 0.87938(8)
O1 O -0.28527(7) 0.93734(18) 0.81712(7)
H15 H -0.3215 0.9071 0.8342
C23? C 0.0450(4) 0.1237(9) 0.9407(4)
C24? C 0.11766(18) 0.1123(5) 0.91088(19)
C25? C 0.1712(2) 0.0366(6) 0.94219(19)
C26? C 0.2404(2) 0.0276(7) 0.9191(2)
C27? C 0.2561(2) 0.0942(7) 0.8647(3)
C28? C 0.2025(3) 0.1698(7) 0.8334(2)
C29? C 0.1333(2) 0.1789(6) 0.85647(19)
H16? H 0.0169 0.0335 0.9320
H17? H 0.0513 0.1298 0.9834
H18? H 0.2762 -0.0231 0.9400
H19? H 0.3024 0.0881 0.8492
H20? H 0.2130 0.2144 0.7970
H21? H 0.0975 0.2295 0.8355
loop_
_geom_bond_atom_site_label_1
_geom_bond_atom_site_label_2
_geom_bond_site_symmetry_1
_geom_bond_site_symmetry_2
C1 H1 1_555 1_555
H2 C1 1_555 1_555
C2 C1 1_555 1_555
C3 C2 1_555 1_555
C4 C3 1_555 1_555
H3 C4 1_555 1_555
C5 C4 1_555 1_555
H4 C5 1_555 1_555
C6 C5 1_555 1_555
H5 C6 1_555 1_555
C7 C2 1_555 1_555
H6 C7 1_555 1_555
C8 C9 1_555 1_555
C9 H7 1_555 1_555
C10 C9 1_555 1_555
H8 C10 1_555 1_555
C11 C10 1_555 1_555
C12 C11 1_555 1_555
C13 C12 1_555 1_555
H9 C13 1_555 1_555
C14 C13 1_555 1_555
H10 C14 1_555 1_555
C15 C14 1_555 1_555
H11 C15 1_555 1_555
C16 C15 1_555 1_555
H12 C16 1_555 1_555
C17 C8 1_555 1_555
C18 C11 1_555 1_555
C19 C18 1_555 1_555
C20 H13 1_555 1_555
C21 C19 1_555 1_555
C22 H14 1_555 1_555
Cl1 C3 1_555 1_555
N1 C18 1_555 1_555
N2 C21 1_555 1_555
N3 C1 1_555 1_555
N4 C19 1_555 1_555
O1 C8 1_555 1_555
H15 O1 1_555 1_555
C6 C7 1_555 1_555
C12 C17 1_555 1_555
C16 C17 1_555 1_555
C20 N3 1_555 1_555
C20 N4 1_555 1_555
C21 N3 1_555 1_555
C22 N1 1_555 1_555
C22 N2 1_555 1_555

#END
