
#######################################################################
#
#                 Cambridge Crystallographic Data Centre
#                                CCDC 
#
#######################################################################
#
# If this CIF has been generated from an entry in the Cambridge 
# Structural Database, then it will include bibliographic, chemical, 
# crystal, experimental, refinement or atomic coordinate data resulting 
# from the CCDC's data processing and validation procedures.
#
#######################################################################

data_ALAFEY
_chemical_formula_moiety         'C19 H22 O2 S2'
_chemical_name_systematic        
(1R*,2S*,2'S*)-1-Phenyl-2-(phenylthio)-2-((2S*)-tetrahydropyran-2-ylthio)ethanol
_symmetry_cell_setting           monoclinic
_symmetry_space_group_name_H-M   'P 21/c'
_symmetry_Int_Tables_number      14
_space_group_name_Hall           '-P 2ybc'
loop_
_symmetry_equiv_pos_site_id
_symmetry_equiv_pos_as_xyz
1 x,y,z
2 -x,1/2+y,1/2-z
3 -x,-y,-z
4 x,1/2-y,1/2+z
_cell_length_a                   9.6140(19)
_cell_length_b                   19.734(4)
_cell_length_c                   9.1720(18)
_cell_angle_alpha                90
_cell_angle_beta                 93.45(3)
_cell_angle_gamma                90
_cell_volume                     1736.98
_exptl_crystal_colour            colorless
_exptl_crystal_description       prism
_chemical_melting_point          '375-376 K'
_cell_formula_units_Z            4
_exptl_crystal_recrystallization_method ethanol
loop_
_atom_site_label
_atom_site_type_symbol
_atom_site_fract_x
_atom_site_fract_y
_atom_site_fract_z
S1 S 0.46413(7) 0.73291(4) 0.76995(8)
S2 S 0.72437(7) 0.66816(4) 0.87033(7)
O1 O 0.6615(2) 0.66505(12) 0.5384(2)
H1 H 0.6292 0.7046 0.5336
O2 O 0.6324(3) 0.57057(12) 1.0482(2)
C1 C 0.5571(3) 0.65214(15) 0.7735(3)
H2 H 0.5042 0.6187 0.8307
C2 C 0.5733(3) 0.62349(16) 0.6197(3)
H3 H 0.4792 0.6217 0.5671
C3 C 0.2938(3) 0.71135(15) 0.6979(3)
C4 C 0.2182(3) 0.65732(16) 0.7502(3)
H4 H 0.2595 0.6283 0.8232
C5 C 0.0821(3) 0.64589(17) 0.6954(4)
H5 H 0.0311 0.6087 0.7309
C6 C 0.0207(3) 0.68780(18) 0.5906(4)
H6 H -0.0732 0.6805 0.5559
C7 C 0.0958(4) 0.74046(19) 0.5363(4)
H7 H 0.0544 0.7687 0.4619
C8 C 0.2325(3) 0.75261(17) 0.5895(4)
H8 H 0.2836 0.7891 0.5517
C9 C 0.6320(3) 0.55259(15) 0.6279(3)
C10 C 0.7603(3) 0.53656(16) 0.5750(3)
H9 H 0.8140 0.5710 0.5327
C11 C 0.8108(3) 0.47060(17) 0.5833(4)
H10 H 0.8985 0.4602 0.5465
C12 C 0.7340(4) 0.42011(17) 0.6448(3)
H11 H 0.7690 0.3751 0.6510
C13 C 0.6052(4) 0.43556(17) 0.6976(3)
H12 H 0.5516 0.4010 0.7394
C14 C 0.5553(3) 0.50122(17) 0.6892(3)
H13 H 0.4673 0.5114 0.7259
C15 C 0.6740(3) 0.63887(16) 1.0510(3)
H14 H 0.5923 0.6666 1.0778
C16 C 0.7930(4) 0.65274(19) 1.1646(3)
H15 H 0.8264 0.6998 1.1532
H16 H 0.7584 0.6483 1.2636
C17 C 0.9132(4) 0.6041(2) 1.1490(4)
H17 H 0.9831 0.6102 1.2317
H18 H 0.9588 0.6137 1.0573
C18 C 0.8597(5) 0.5316(2) 1.1470(4)
H19 H 0.8247 0.5202 1.2432
H20 H 0.9368 0.5001 1.1281
C19 C 0.7431(4) 0.52347(18) 1.0287(4)
H21 H 0.7807 0.5308 0.9318
H22 H 0.7061 0.4767 1.0313
loop_
_geom_bond_atom_site_label_1
_geom_bond_atom_site_label_2
_geom_bond_site_symmetry_1
_geom_bond_site_symmetry_2
S1 C1 1_555 1_555
S2 C1 1_555 1_555
O1 H1 1_555 1_555
O2 C15 1_555 1_555
C1 H2 1_555 1_555
C2 O1 1_555 1_555
H3 C2 1_555 1_555
C3 S1 1_555 1_555
C4 C3 1_555 1_555
H4 C4 1_555 1_555
C5 C4 1_555 1_555
H5 C5 1_555 1_555
C6 C5 1_555 1_555
H6 C6 1_555 1_555
C7 C6 1_555 1_555
H7 C7 1_555 1_555
C8 C3 1_555 1_555
H8 C8 1_555 1_555
C9 C2 1_555 1_555
C10 C9 1_555 1_555
H9 C10 1_555 1_555
C11 C10 1_555 1_555
H10 C11 1_555 1_555
C12 C11 1_555 1_555
H11 C12 1_555 1_555
C13 C12 1_555 1_555
H12 C13 1_555 1_555
C14 C9 1_555 1_555
H13 C14 1_555 1_555
C15 S2 1_555 1_555
H14 C15 1_555 1_555
C16 C15 1_555 1_555
H15 C16 1_555 1_555
H16 C16 1_555 1_555
C17 C16 1_555 1_555
H17 C17 1_555 1_555
H18 C17 1_555 1_555
C18 C17 1_555 1_555
H19 C18 1_555 1_555
H20 C18 1_555 1_555
C19 O2 1_555 1_555
H21 C19 1_555 1_555
H22 C19 1_555 1_555
C1 C2 1_555 1_555
C7 C8 1_555 1_555
C13 C14 1_555 1_555
C18 C19 1_555 1_555

#END
