
#######################################################################
#
#                 Cambridge Crystallographic Data Centre
#                                CCDC 
#
#######################################################################
#
# If this CIF has been generated from an entry in the Cambridge 
# Structural Database, then it will include bibliographic, chemical, 
# crystal, experimental, refinement or atomic coordinate data resulting 
# from the CCDC's data processing and validation procedures.
#
#######################################################################

data_ALASAI
_chemical_formula_moiety         'C26 H26 O3'
_chemical_name_systematic        
7,7-Dibenzyl-3,4,5-trimethyl-3H-isochromene-6,8(4H,7H)-dione
_symmetry_cell_setting           orthorhombic
_symmetry_space_group_name_H-M   'P 21 21 21'
_symmetry_Int_Tables_number      19
_space_group_name_Hall           'P 2ac 2ab'
loop_
_symmetry_equiv_pos_site_id
_symmetry_equiv_pos_as_xyz
1 x,y,z
2 1/2-x,-y,1/2+z
3 -x,1/2+y,1/2-z
4 1/2+x,1/2-y,-z
_cell_length_a                   10.3292(11)
_cell_length_b                   13.7223(14)
_cell_length_c                   15.3534(16)
_cell_angle_alpha                90
_cell_angle_beta                 90
_cell_angle_gamma                90
_cell_volume                     2176.2
_exptl_crystal_colour            colorless
_exptl_crystal_description       block
_cell_formula_units_Z            4
loop_
_atom_site_label
_atom_site_type_symbol
_atom_site_fract_x
_atom_site_fract_y
_atom_site_fract_z
O1 O 0.51657(13) 0.82676(10) 0.74762(17)
O2 O 0.96605(15) 0.89145(12) 0.73882(16)
O3 O 0.58307(15) 0.53629(10) 0.74621(18)
C1 C 0.6704(3) 0.8298(2) 0.95327(19)
H1 H 0.5886 0.8208 0.9293
C2 C 0.7025(4) 0.7810(3) 1.0284(2)
H2 H 0.6435 0.7378 1.0531
C3 C 0.8184(5) 0.7948(3) 1.0667(2)
H3 H 0.8389 0.7627 1.1183
C4 C 0.9053(4) 0.8565(3) 1.0290(2)
H4 H 0.9855 0.8664 1.0551
C5 C 0.8756(3) 0.9046(2) 0.9522(2)
H5 H 0.9366 0.9459 0.9271
C6 C 0.7569(3) 0.8923(2) 0.91215(17)
C7 C 0.7245(3) 0.94147(18) 0.82811(17)
H6 H 0.7807 0.9975 0.8212
H7 H 0.6362 0.9653 0.8314
C8 C 0.73755(17) 0.87582(12) 0.74566(18)
C9 C 0.7183(3) 0.94000(18) 0.66344(17)
H8 H 0.6305 0.9651 0.6636
H9 H 0.7766 0.9953 0.6669
C10 C 0.7416(3) 0.8881(2) 0.57859(17)
C11 C 0.6471(3) 0.8318(3) 0.5398(2)
H10 H 0.5663 0.8264 0.5660
C12 C 0.6710(4) 0.7832(3) 0.4626(2)
H11 H 0.6060 0.7458 0.4373
C13 C 0.7883(5) 0.7896(3) 0.4235(2)
H12 H 0.8047 0.7554 0.3724
C14 C 0.8818(4) 0.8465(3) 0.4594(2)
H13 H 0.9618 0.8525 0.4322
C15 C 0.8584(3) 0.8953(3) 0.5361(2)
H14 H 0.9232 0.9342 0.5598
C16 C 0.87556(18) 0.83389(14) 0.74524(18)
C17 C 0.89916(17) 0.73016(13) 0.75442(15)
C18 C 0.79880(17) 0.66714(13) 0.75786(15)
C19 C 0.66485(15) 0.69806(11) 0.75092(16)
C20 C 0.62940(17) 0.80045(13) 0.74822(18)
C21 C 1.0388(2) 0.6976(2) 0.7621(2)
H15 H 1.0618 0.6595 0.7120
H16 H 1.0491 0.6589 0.8137
H17 H 1.0941 0.7537 0.7655
C22 C 0.8134(2) 0.55982(16) 0.77665(17)
H18 H 0.8994 0.5397 0.7565
C23 C 0.7142(3) 0.50139(17) 0.7267(3)
H19 H 0.7202 0.4336 0.7463
C24 C 0.56905(19) 0.63188(14) 0.7489(2)
H20 H 0.4848 0.6557 0.7495
C25 C 0.8074(4) 0.5427(2) 0.8753(2)
H21 H 0.8151 0.4743 0.8872
H22 H 0.7262 0.5662 0.8974
H23 H 0.8771 0.5770 0.9031
C26 C 0.7338(4) 0.5026(3) 0.6297(3)
H24 H 0.8117 0.4679 0.6154
H25 H 0.7409 0.5687 0.6099
H26 H 0.6614 0.4718 0.6017
loop_
_geom_bond_atom_site_label_1
_geom_bond_atom_site_label_2
_geom_bond_site_symmetry_1
_geom_bond_site_symmetry_2
O1 C20 1_555 1_555
O2 C16 1_555 1_555
O3 C23 1_555 1_555
C1 H1 1_555 1_555
C2 C1 1_555 1_555
H2 C2 1_555 1_555
C3 C2 1_555 1_555
H3 C3 1_555 1_555
C4 C3 1_555 1_555
H4 C4 1_555 1_555
C5 C4 1_555 1_555
H5 C5 1_555 1_555
C6 C1 1_555 1_555
C7 C6 1_555 1_555
H6 C7 1_555 1_555
H7 C7 1_555 1_555
C8 C7 1_555 1_555
C9 C8 1_555 1_555
H8 C9 1_555 1_555
H9 C9 1_555 1_555
C10 C9 1_555 1_555
C11 C10 1_555 1_555
H10 C11 1_555 1_555
C12 C11 1_555 1_555
H11 C12 1_555 1_555
C13 C12 1_555 1_555
H12 C13 1_555 1_555
C14 C13 1_555 1_555
H13 C14 1_555 1_555
C15 C10 1_555 1_555
H14 C15 1_555 1_555
C16 C8 1_555 1_555
C17 C16 1_555 1_555
C18 C17 1_555 1_555
C19 C18 1_555 1_555
C20 C8 1_555 1_555
C21 C17 1_555 1_555
H15 C21 1_555 1_555
H16 C21 1_555 1_555
H17 C21 1_555 1_555
C22 C18 1_555 1_555
H18 C22 1_555 1_555
C23 C22 1_555 1_555
H19 C23 1_555 1_555
C24 O3 1_555 1_555
H20 C24 1_555 1_555
C25 C22 1_555 1_555
H21 C25 1_555 1_555
H22 C25 1_555 1_555
H23 C25 1_555 1_555
C26 C23 1_555 1_555
H24 C26 1_555 1_555
H25 C26 1_555 1_555
H26 C26 1_555 1_555
C5 C6 1_555 1_555
C14 C15 1_555 1_555
C19 C20 1_555 1_555
C19 C24 1_555 1_555

#END
