
#######################################################################
#
#                 Cambridge Crystallographic Data Centre
#                                CCDC 
#
#######################################################################
#
# If this CIF has been generated from an entry in the Cambridge 
# Structural Database, then it will include bibliographic, chemical, 
# crystal, experimental, refinement or atomic coordinate data resulting 
# from the CCDC's data processing and validation procedures.
#
#######################################################################

data_ALECUQ
_chemical_formula_moiety         'C16 H23 N1 O2'
_chemical_name_systematic        
4-Hydroxy-2-(hydroxy(phenyl)methyl)-2,5,5-trimethylhexanenitrile
_symmetry_cell_setting           monoclinic
_symmetry_space_group_name_H-M   'P 21/n'
_symmetry_Int_Tables_number      14
_space_group_name_Hall           '-P 2yn'
loop_
_symmetry_equiv_pos_site_id
_symmetry_equiv_pos_as_xyz
1 x,y,z
2 1/2-x,1/2+y,1/2-z
3 -x,-y,-z
4 1/2+x,1/2-y,1/2+z
_cell_length_a                   9.7044(2)
_cell_length_b                   7.0265(2)
_cell_length_c                   23.8043(5)
_cell_angle_alpha                90
_cell_angle_beta                 93.6590(10)
_cell_angle_gamma                90
_cell_volume                     1619.86
_exptl_crystal_colour            colorless
_exptl_crystal_description       needle
_cell_formula_units_Z            4
loop_
_atom_site_label
_atom_site_type_symbol
_atom_site_fract_x
_atom_site_fract_y
_atom_site_fract_z
C1 C 0.15678(15) 0.6107(2) 0.37593(6)
C2 C 0.08317(19) 0.7625(3) 0.39501(8)
H1 H 0.0411 0.8468 0.3692
C3 C 0.2198(2) 0.4901(3) 0.41482(8)
H2 H 0.2709 0.3873 0.4029
C4 C 0.0708(2) 0.7915(5) 0.45136(11)
H3 H 0.0198 0.8941 0.4634
C5 C 0.2075(3) 0.5209(4) 0.47219(10)
H4 H 0.2505 0.4389 0.4985
C6 C 0.1325(3) 0.6714(6) 0.48960(11)
H5 H 0.1237 0.6915 0.5278
C7 C 0.16904(13) 0.58432(19) 0.31344(6)
H6 H 0.1702 0.7108 0.2961
O1 O 0.29208(9) 0.48892(15) 0.30081(4)
H7 H 0.3589 0.5560 0.3101
C8 C 0.05015(13) 0.46746(18) 0.28267(6)
C9 C -0.08325(15) 0.5515(2) 0.29590(6)
N1 N -0.18949(14) 0.6072(2) 0.30484(7)
C10 C 0.06459(13) 0.48894(19) 0.21863(5)
H8 H 0.0733 0.6234 0.2103
H9 H 0.1500 0.4280 0.2095
C11 C -0.05207(13) 0.40791(19) 0.17958(6)
H10 H -0.1391 0.4262 0.1977
C12 C -0.06612(16) 0.5039(2) 0.12110(6)
C13 C -0.1068(2) 0.7128(3) 0.12765(8)
H11 H -0.0329 0.7800 0.1477
H12 H -0.1885 0.7205 0.1482
H13 H -0.1244 0.7688 0.0911
C14 C 0.0684(2) 0.4898(3) 0.09150(7)
H14 H 0.0571 0.5502 0.0553
H15 H 0.0918 0.3583 0.0867
H16 H 0.1409 0.5520 0.1138
C15 C -0.1812(2) 0.4025(3) 0.08562(8)
H17 H -0.1947 0.4644 0.0497
H18 H -0.2653 0.4076 0.1047
H19 H -0.1557 0.2721 0.0802
C16 C 0.04996(16) 0.2599(2) 0.30313(6)
H20 H 0.0428 0.2574 0.3432
H21 H 0.1342 0.1989 0.2940
H22 H -0.0272 0.1938 0.2850
O2 O -0.02881(9) 0.20718(13) 0.17460(5)
H23 H -0.1027 0.1507 0.1748
loop_
_geom_bond_atom_site_label_1
_geom_bond_atom_site_label_2
_geom_bond_site_symmetry_1
_geom_bond_site_symmetry_2
C1 C2 1_555 1_555
C2 H1 1_555 1_555
C3 C1 1_555 1_555
H2 C3 1_555 1_555
C4 C2 1_555 1_555
H3 C4 1_555 1_555
C5 C3 1_555 1_555
H4 C5 1_555 1_555
C6 C4 1_555 1_555
H5 C6 1_555 1_555
C7 C1 1_555 1_555
H6 C7 1_555 1_555
O1 C7 1_555 1_555
H7 O1 1_555 1_555
C8 C7 1_555 1_555
C9 C8 1_555 1_555
N1 C9 1_555 1_555
C10 C8 1_555 1_555
H8 C10 1_555 1_555
H9 C10 1_555 1_555
C11 C10 1_555 1_555
H10 C11 1_555 1_555
C12 C11 1_555 1_555
C13 C12 1_555 1_555
H11 C13 1_555 1_555
H12 C13 1_555 1_555
H13 C13 1_555 1_555
C14 C12 1_555 1_555
H14 C14 1_555 1_555
H15 C14 1_555 1_555
H16 C14 1_555 1_555
C15 C12 1_555 1_555
H17 C15 1_555 1_555
H18 C15 1_555 1_555
H19 C15 1_555 1_555
C16 C8 1_555 1_555
H20 C16 1_555 1_555
H21 C16 1_555 1_555
H22 C16 1_555 1_555
O2 C11 1_555 1_555
H23 O2 1_555 1_555
C5 C6 1_555 1_555

#END
