
#######################################################################
#
#                 Cambridge Crystallographic Data Centre
#                                CCDC 
#
#######################################################################
#
# If this CIF has been generated from an entry in the Cambridge 
# Structural Database, then it will include bibliographic, chemical, 
# crystal, experimental, refinement or atomic coordinate data resulting 
# from the CCDC's data processing and validation procedures.
#
#######################################################################

data_ALEDAX
_chemical_formula_moiety         'C10 H15 N1 O2'
_chemical_name_systematic        
5-t-Butyl-3-methyl-2-oxotetrahydrofuran-3-carbonitrile
_symmetry_cell_setting           monoclinic
_symmetry_space_group_name_H-M   'P n'
_symmetry_Int_Tables_number      7
_space_group_name_Hall           'P -2yac'
loop_
_symmetry_equiv_pos_site_id
_symmetry_equiv_pos_as_xyz
1 x,y,z
2 1/2+x,-y,1/2+z
_cell_length_a                   10.557(7)
_cell_length_b                   10.130(6)
_cell_length_c                   10.861(7)
_cell_angle_alpha                90
_cell_angle_beta                 110.844(10)
_cell_angle_gamma                90
_cell_volume                     1085.48
_exptl_crystal_colour            colorless
_exptl_crystal_description       needle
_cell_formula_units_Z            4
loop_
_atom_site_label
_atom_site_type_symbol
_atom_site_fract_x
_atom_site_fract_y
_atom_site_fract_z
O1 O 0.5512(6) 0.0801(6) 0.2972(5)
C1 C 0.4526(8) 0.0153(9) 0.4643(7)
C2 C 0.7678(7) -0.0176(7) 0.3730(6)
O2 O 0.6923(8) 0.1512(6) 0.2033(8)
C3 C 0.7002(8) -0.0342(8) 0.4762(7)
H1 H 0.7196 -0.1205 0.5175
H2 H 0.7306 0.0332 0.5437
C4 C 0.4638(11) -0.0970(13) 0.5616(11)
H3 H 0.3892 -0.0923 0.5925
H4 H 0.5475 -0.0891 0.6350
H5 H 0.4616 -0.1801 0.5185
C5 C 0.5529(7) -0.0196(7) 0.3978(7)
H6 H 0.5225 -0.1031 0.3511
C6 C 0.7601(9) -0.1385(8) 0.3011(8)
C7 C 0.3135(10) 0.0270(12) 0.3622(10)
H7 H 0.3162 0.0845 0.2929
H8 H 0.2528 0.0628 0.4018
H9 H 0.2822 -0.0586 0.3265
C8 C 0.6694(9) 0.0826(7) 0.2814(8)
C9 C 0.9143(9) 0.0335(10) 0.4290(10)
H10 H 0.9417 0.0426 0.5228
H11 H 0.9196 0.1177 0.3906
H12 H 0.9732 -0.0279 0.4084
C10 C 0.4913(11) 0.1501(11) 0.5343(10)
H13 H 0.4847 0.2175 0.4702
H14 H 0.5825 0.1463 0.5964
H15 H 0.4306 0.1702 0.5798
N1 N 0.7513(10) -0.2396(9) 0.2482(9)
O3 O 0.4150(6) 0.6210(6) -0.0209(5)
C11 C 0.5613(8) 0.5174(9) -0.1275(7)
C12 C 0.4840(7) 0.4958(7) -0.0357(7)
H16 H 0.4144 0.4285 -0.0745
C13 C 0.4672(8) 0.5020(7) 0.1765(8)
O4 O 0.3586(9) 0.7163(6) 0.1369(9)
C14 C 0.4048(9) 0.6228(8) 0.0984(9)
C15 C 0.5617(9) 0.4579(9) 0.1016(9)
H17 H 0.6480 0.5036 0.1347
H18 H 0.5776 0.3634 0.1093
C16 C 0.3517(10) 0.4083(9) 0.1496(8)
C17 C 0.6651(10) 0.6313(10) -0.0785(9)
H19 H 0.6184 0.7112 -0.0730
H20 H 0.7118 0.6435 -0.1390
H21 H 0.7293 0.6098 0.0070
N2 N 0.2643(11) 0.3360(8) 0.1295(9)
C18 C 0.4634(10) 0.5500(13) -0.2626(9)
H22 H 0.3904 0.4873 -0.2873
H23 H 0.5092 0.5465 -0.3246
H24 H 0.4277 0.6372 -0.2622
C19 C 0.6354(13) 0.3907(12) -0.1317(13)
H25 H 0.7101 0.3799 -0.0502
H26 H 0.6686 0.3944 -0.2032
H27 H 0.5744 0.3174 -0.1444
C20 C 0.5366(12) 0.5192(12) 0.3230(10)
H28 H 0.4830 0.5758 0.3560
H29 H 0.6243 0.5580 0.3410
H30 H 0.5467 0.4347 0.3654
loop_
_geom_bond_atom_site_label_1
_geom_bond_atom_site_label_2
_geom_bond_site_symmetry_1
_geom_bond_site_symmetry_2
O1 C5 1_555 1_555
C1 C4 1_555 1_555
C2 C3 1_555 1_555
O2 C8 1_555 1_555
C3 H1 1_555 1_555
H2 C3 1_555 1_555
C4 H3 1_555 1_555
H4 C4 1_555 1_555
H5 C4 1_555 1_555
C5 C1 1_555 1_555
H6 C5 1_555 1_555
C6 C2 1_555 1_555
C7 C1 1_555 1_555
H7 C7 1_555 1_555
H8 C7 1_555 1_555
H9 C7 1_555 1_555
C8 O1 1_555 1_555
C9 C2 1_555 1_555
H10 C9 1_555 1_555
H11 C9 1_555 1_555
H12 C9 1_555 1_555
C10 C1 1_555 1_555
H13 C10 1_555 1_555
H14 C10 1_555 1_555
H15 C10 1_555 1_555
N1 C6 1_555 1_555
O3 C12 1_555 1_555
C11 C12 1_555 1_555
C12 H16 1_555 1_555
C13 C14 1_555 1_555
O4 C14 1_555 1_555
C14 O3 1_555 1_555
C15 C12 1_555 1_555
H17 C15 1_555 1_555
H18 C15 1_555 1_555
C16 C13 1_555 1_555
C17 C11 1_555 1_555
H19 C17 1_555 1_555
H20 C17 1_555 1_555
H21 C17 1_555 1_555
N2 C16 1_555 1_555
C18 C11 1_555 1_555
H22 C18 1_555 1_555
H23 C18 1_555 1_555
H24 C18 1_555 1_555
C19 C11 1_555 1_555
H25 C19 1_555 1_555
H26 C19 1_555 1_555
H27 C19 1_555 1_555
C20 C13 1_555 1_555
H28 C20 1_555 1_555
H29 C20 1_555 1_555
H30 C20 1_555 1_555
C2 C8 1_555 1_555
C3 C5 1_555 1_555
C13 C15 1_555 1_555

#END
