
#######################################################################
#
#                 Cambridge Crystallographic Data Centre
#                                CCDC 
#
#######################################################################
#
# If this CIF has been generated from an entry in the Cambridge 
# Structural Database, then it will include bibliographic, chemical, 
# crystal, experimental, refinement or atomic coordinate data resulting 
# from the CCDC's data processing and validation procedures.
#
#######################################################################

data_ALEJEH
_chemical_formula_moiety         'C17 H25 Br1 O3'
_chemical_name_systematic        
(S*)-3-bromo-5-((R*)-1-cyclohexyl-4,4-dimethyl-3-oxopentyl)-5H-furan-2-one
_symmetry_cell_setting           monoclinic
_symmetry_space_group_name_H-M   'P 21/c'
_symmetry_Int_Tables_number      14
_space_group_name_Hall           '-P 2ybc'
loop_
_symmetry_equiv_pos_site_id
_symmetry_equiv_pos_as_xyz
1 x,y,z
2 -x,1/2+y,1/2-z
3 -x,-y,-z
4 x,1/2-y,1/2+z
_cell_length_a                   9.477(3)
_cell_length_b                   10.226(3)
_cell_length_c                   17.617(5)
_cell_angle_alpha                90
_cell_angle_beta                 93.780(3)
_cell_angle_gamma                90
_cell_volume                     1703.58
_exptl_crystal_description       block
_cell_formula_units_Z            4
loop_
_atom_site_label
_atom_site_type_symbol
_atom_site_fract_x
_atom_site_fract_y
_atom_site_fract_z
Br1 Br 0.25662(2) 0.31150(2) 0.894053(12)
C1 C 0.1480(2) 0.4546(2) 0.75953(12)
C2 C -0.0187(2) 0.31537(19) 0.70233(13)
H1 H -0.1201 0.3320 0.7116
C3 C -0.0127(2) 0.2448(2) 0.62595(12)
H2 H -0.0635 0.1596 0.6300
C4 C 0.1414(2) 0.2137(2) 0.60930(13)
H3 H 0.1448 0.1956 0.5542
H4 H 0.1998 0.2924 0.6209
C5 C 0.2078(2) 0.09882(19) 0.65336(12)
C6 C 0.3699(2) 0.0897(2) 0.66104(12)
C7 C 0.4260(3) 0.0838(3) 0.58132(15)
H5 H 0.3815 0.0106 0.5530
H6 H 0.5287 0.0712 0.5858
H7 H 0.4036 0.1657 0.5543
C8 C 0.1438(2) 0.3326(2) 0.80395(12)
C9 C 0.0502(2) 0.2507(2) 0.77122(12)
H8 H 0.0302 0.1652 0.7886
C10 C 0.4139(3) -0.0332(3) 0.70570(18)
H9 H 0.3729 -0.0315 0.7553
H10 H 0.5173 -0.0364 0.7131
H11 H 0.3800 -0.1107 0.6773
C11 C 0.4341(3) 0.2091(3) 0.70290(17)
H12 H 0.5372 0.2004 0.7080
H13 H 0.3975 0.2149 0.7535
H14 H 0.4086 0.2885 0.6740
C12 C -0.0867(2) 0.3218(2) 0.55913(13)
H15 H -0.0191 0.3899 0.5431
C13 C -0.2228(2) 0.3921(2) 0.57913(13)
H16 H -0.2903 0.3271 0.5973
H17 H -0.2002 0.4549 0.6209
C14 C -0.2923(3) 0.4655(2) 0.51036(13)
H18 H -0.3822 0.5048 0.5246
H19 H -0.2292 0.5373 0.4960
C15 C -0.3218(3) 0.3752(3) 0.44204(14)
H20 H -0.3938 0.3095 0.4540
H21 H -0.3598 0.4271 0.3978
C16 C -0.1865(3) 0.3060(2) 0.42216(14)
H22 H -0.2083 0.2443 0.3797
H23 H -0.1181 0.3712 0.4053
C17 C -0.1209(2) 0.2315(2) 0.49070(13)
H24 H -0.0329 0.1883 0.4765
H25 H -0.1872 0.1625 0.5053
O1 O 0.21817(16) 0.55191(15) 0.77051(9)
O2 O 0.05360(15) 0.44140(14) 0.69840(9)
O3 O 0.13417(16) 0.01501(15) 0.67937(9)
loop_
_geom_bond_atom_site_label_1
_geom_bond_atom_site_label_2
_geom_bond_site_symmetry_1
_geom_bond_site_symmetry_2
Br1 C8 1_555 1_555
C1 C8 1_555 1_555
C2 H1 1_555 1_555
C3 C2 1_555 1_555
H2 C3 1_555 1_555
C4 C3 1_555 1_555
H3 C4 1_555 1_555
H4 C4 1_555 1_555
C5 C4 1_555 1_555
C6 C5 1_555 1_555
C7 C6 1_555 1_555
H5 C7 1_555 1_555
H6 C7 1_555 1_555
H7 C7 1_555 1_555
C8 C9 1_555 1_555
C9 C2 1_555 1_555
H8 C9 1_555 1_555
C10 C6 1_555 1_555
H9 C10 1_555 1_555
H10 C10 1_555 1_555
H11 C10 1_555 1_555
C11 C6 1_555 1_555
H12 C11 1_555 1_555
H13 C11 1_555 1_555
H14 C11 1_555 1_555
C12 C3 1_555 1_555
H15 C12 1_555 1_555
C13 C12 1_555 1_555
H16 C13 1_555 1_555
H17 C13 1_555 1_555
C14 C13 1_555 1_555
H18 C14 1_555 1_555
H19 C14 1_555 1_555
C15 C14 1_555 1_555
H20 C15 1_555 1_555
H21 C15 1_555 1_555
C16 C15 1_555 1_555
H22 C16 1_555 1_555
H23 C16 1_555 1_555
C17 C12 1_555 1_555
H24 C17 1_555 1_555
H25 C17 1_555 1_555
O1 C1 1_555 1_555
O2 C1 1_555 1_555
O3 C5 1_555 1_555
C2 O2 1_555 1_555
C16 C17 1_555 1_555

#END
