
#######################################################################
#
#                 Cambridge Crystallographic Data Centre
#                                CCDC 
#
#######################################################################
#
# If this CIF has been generated from an entry in the Cambridge 
# Structural Database, then it will include bibliographic, chemical, 
# crystal, experimental, refinement or atomic coordinate data resulting 
# from the CCDC's data processing and validation procedures.
#
#######################################################################

data_ALEMIP
_chemical_formula_moiety         'C22 H19 N3 O2'
_chemical_name_systematic        
'ethyl 2-(1H-indol-1-yl)-4-methyl-6-phenylpyrimidine-5-carboxylate'
_symmetry_cell_setting           monoclinic
_symmetry_space_group_name_H-M   'P 21/c'
_symmetry_Int_Tables_number      14
_space_group_name_Hall           '-P 2ybc'
loop_
_symmetry_equiv_pos_site_id
_symmetry_equiv_pos_as_xyz
1 x,y,z
2 -x,1/2+y,1/2-z
3 -x,-y,-z
4 x,1/2-y,1/2+z
_cell_length_a                   10.7934(13)
_cell_length_b                   7.0017(6)
_cell_length_c                   25.099(2)
_cell_angle_alpha                90
_cell_angle_beta                 90.141(11)
_cell_angle_gamma                90
_cell_volume                     1896.78
_exptl_crystal_colour            colorless
_exptl_crystal_description       needle
_cell_formula_units_Z            4
_exptl_crystal_recrystallization_method chloroform
loop_
_atom_site_label
_atom_site_type_symbol
_atom_site_fract_x
_atom_site_fract_y
_atom_site_fract_z
O1 O 0.2743(3) 0.1994(5) 0.45087(10)
O2 O 0.2316(2) -0.1006(3) 0.42978(9)
N1 N 0.4882(2) 0.0772(3) 0.21898(9)
N2 N 0.5117(2) 0.0888(3) 0.31030(9)
N3 N 0.3098(2) 0.0705(3) 0.27098(9)
C1 C 0.6163(3) 0.0783(4) 0.21139(13)
H1 H 0.6750 0.0757 0.2386
C2 C 0.6424(3) 0.0837(4) 0.15945(13)
H2 H 0.7211 0.0852 0.1445
C3 C 0.5273(3) 0.0869(4) 0.13083(12)
C4 C 0.4978(4) 0.0974(4) 0.07688(12)
H3 H 0.5603 0.1013 0.0515
C5 C 0.3763(4) 0.1021(5) 0.06166(13)
H4 H 0.3560 0.1093 0.0257
C6 C 0.2830(4) 0.0962(5) 0.09948(13)
H5 H 0.2009 0.1002 0.0882
C7 C 0.3083(3) 0.0846(4) 0.15337(12)
H6 H 0.2451 0.0784 0.1784
C8 C 0.4308(3) 0.0828(4) 0.16837(11)
C9 C 0.4328(3) 0.0789(4) 0.26916(11)
C10 C 0.4615(3) 0.0885(4) 0.35875(11)
C11 C 0.3333(3) 0.0791(4) 0.36587(11)
C12 C 0.2598(3) 0.0702(4) 0.32004(11)
C13 C 0.1224(3) 0.0606(4) 0.32165(11)
C14 C 0.0604(3) -0.0682(5) 0.28953(13)
H7 H 0.1050 -0.1466 0.2666
C15 C -0.0672(3) -0.0815(6) 0.29111(14)
H8 H -0.1079 -0.1700 0.2697
C16 C -0.1336(3) 0.0341(7) 0.32394(15)
H9 H -0.2194 0.0234 0.3252
C17 C -0.0742(3) 0.1669(6) 0.35527(14)
H10 H -0.1198 0.2474 0.3772
C18 C 0.0538(3) 0.1802(5) 0.35406(13)
H11 H 0.0939 0.2703 0.3752
C19 C 0.5504(3) 0.0979(4) 0.40487(12)
H12 H 0.5048 0.1061 0.4376
H13 H 0.6023 0.2084 0.4012
H14 H 0.6010 -0.0150 0.4053
C20 C 0.2787(3) 0.0703(5) 0.41983(13)
C21 C 0.1704(5) -0.1286(7) 0.48038(15)
H15 H 0.2315 -0.1451 0.5084
H16 H 0.1203 -0.0178 0.4889
C22 C 0.0934(6) -0.2952(8) 0.4769(2)
H17 H 0.0311 -0.2760 0.4500
H18 H 0.0542 -0.3173 0.5106
H19 H 0.1432 -0.4038 0.4677
loop_
_geom_bond_atom_site_label_1
_geom_bond_atom_site_label_2
_geom_bond_site_symmetry_1
_geom_bond_site_symmetry_2
O1 C20 1_555 1_555
O2 C20 1_555 1_555
N1 C1 1_555 1_555
N2 C9 1_555 1_555
N3 C9 1_555 1_555
C1 H1 1_555 1_555
C2 C1 1_555 1_555
H2 C2 1_555 1_555
C3 C2 1_555 1_555
C4 C3 1_555 1_555
H3 C4 1_555 1_555
C5 C4 1_555 1_555
H4 C5 1_555 1_555
C6 C5 1_555 1_555
H5 C6 1_555 1_555
C7 C6 1_555 1_555
H6 C7 1_555 1_555
C8 N1 1_555 1_555
C9 N1 1_555 1_555
C10 N2 1_555 1_555
C11 C10 1_555 1_555
C12 N3 1_555 1_555
C13 C12 1_555 1_555
C14 C13 1_555 1_555
H7 C14 1_555 1_555
C15 C14 1_555 1_555
H8 C15 1_555 1_555
C16 C15 1_555 1_555
H9 C16 1_555 1_555
C17 C16 1_555 1_555
H10 C17 1_555 1_555
C18 C13 1_555 1_555
H11 C18 1_555 1_555
C19 C10 1_555 1_555
H12 C19 1_555 1_555
H13 C19 1_555 1_555
H14 C19 1_555 1_555
C20 C11 1_555 1_555
C21 O2 1_555 1_555
H15 C21 1_555 1_555
H16 C21 1_555 1_555
C22 C21 1_555 1_555
H17 C22 1_555 1_555
H18 C22 1_555 1_555
H19 C22 1_555 1_555
C3 C8 1_555 1_555
C7 C8 1_555 1_555
C11 C12 1_555 1_555
C17 C18 1_555 1_555

#END
