
#######################################################################
#
#                 Cambridge Crystallographic Data Centre
#                                CCDC 
#
#######################################################################
#
# If this CIF has been generated from an entry in the Cambridge 
# Structural Database, then it will include bibliographic, chemical, 
# crystal, experimental, refinement or atomic coordinate data resulting 
# from the CCDC's data processing and validation procedures.
#
#######################################################################

data_ALETOC
_chemical_formula_moiety         'C16 H12 O4,C12 H12 N2'
_chemical_name_systematic        
"4,4'-ethene-1,2-diyldibenzoic acid 4,4'-ethane-1,2-diyldipyridine"
_symmetry_cell_setting           monoclinic
_symmetry_space_group_name_H-M   'C 2/c'
_symmetry_Int_Tables_number      15
_space_group_name_Hall           '-C 2yn'
loop_
_symmetry_equiv_pos_site_id
_symmetry_equiv_pos_as_xyz
1 x,y,z
2 -x,y,1/2-z
3 1/2+x,1/2+y,z
4 1/2-x,1/2+y,1/2-z
5 -x,-y,-z
6 x,-y,1/2+z
7 1/2-x,1/2-y,-z
8 1/2+x,1/2-y,1/2+z
_cell_length_a                   18.601(6)
_cell_length_b                   7.515(3)
_cell_length_c                   16.698(6)
_cell_angle_alpha                90
_cell_angle_beta                 98.510(5)
_cell_angle_gamma                90
_cell_volume                     2308.46
_exptl_crystal_colour            colorless
_exptl_crystal_description       block
_cell_formula_units_Z            4
loop_
_atom_site_label
_atom_site_type_symbol
_atom_site_fract_x
_atom_site_fract_y
_atom_site_fract_z
O1 O 0.16609(18) 0.2945(5) 0.38116(18)
H1 H 0.1443 0.2953 0.4204
O2 O 0.07796(19) 0.1137(5) 0.3338(2)
C1 C 0.16257(19) 0.1963(5) 0.2469(2)
C2 C 0.2217(2) 0.1790(5) 0.1021(2)
C3 C 0.12493(19) 0.1152(5) 0.1800(2)
H2 H 0.0795 0.0658 0.1826
C4 C 0.22946(19) 0.2736(5) 0.2412(2)
H3 H 0.2551 0.3315 0.2858
C5 C 0.1309(2) 0.1979(6) 0.3244(2)
C6 C 0.1543(2) 0.1064(5) 0.1083(2)
H4 H 0.1281 0.0505 0.0635
C7 C 0.2581(2) 0.2647(5) 0.1696(2)
H5 H 0.3028 0.3175 0.1667
C8 C 0.2537(2) 0.1650(5) 0.0253(2)
H6 H 0.2760 0.0624 0.0098
O1F O 0.33391(18) 0.2055(5) -0.38116(18)
H1F H 0.3557 0.2047 -0.4204
O2F O 0.42204(19) 0.3863(5) -0.3338(2)
C1F C 0.33743(19) 0.3037(5) -0.2469(2)
C2F C 0.2783(2) 0.3210(5) -0.1021(2)
C3F C 0.37507(19) 0.3848(5) -0.1800(2)
H2F H 0.4205 0.4342 -0.1826
C4F C 0.27054(19) 0.2264(5) -0.2412(2)
H3F H 0.2449 0.1685 -0.2858
C5F C 0.3691(2) 0.3021(6) -0.3244(2)
C6F C 0.3457(2) 0.3936(5) -0.1083(2)
H4F H 0.3719 0.4495 -0.0635
C7F C 0.2419(2) 0.2353(5) -0.1696(2)
H5F H 0.1972 0.1825 -0.1667
C8F C 0.2463(2) 0.3350(5) -0.0253(2)
H6F H 0.2240 0.4376 -0.0098
N1 N 0.09992(18) 0.6879(5) 0.00918(19)
C9 C 0.0313(2) 0.7405(7) 0.0032(3)
H7 H 0.0084 0.7841 -0.0461
C10 C 0.0964(2) 0.6141(6) 0.1470(2)
H8 H 0.1209 0.5703 0.1955
C11 C 0.0245(2) 0.6658(6) 0.1412(2)
C12 C 0.1313(2) 0.6284(6) 0.0797(3)
H9 H 0.1797 0.5939 0.0847
C13 C -0.0070(2) 0.7329(7) 0.0675(3)
H10 H -0.0547 0.7736 0.0612
C14 C -0.0166(3) 0.6543(10) 0.2117(3)
H11 H -0.0506 0.7530 0.2066
H12 H -0.0455 0.5464 0.2045
N1A N -0.09992(18) 0.6879(5) 0.49082(19)
C9A C -0.0313(2) 0.7405(7) 0.4968(3)
H7A H -0.0084 0.7841 0.5461
C10A C -0.0964(2) 0.6141(6) 0.3530(2)
H8A H -0.1209 0.5703 0.3045
C11A C -0.0245(2) 0.6658(6) 0.3588(2)
C12A C -0.1313(2) 0.6284(6) 0.4203(3)
H9A H -0.1797 0.5939 0.4153
C13A C 0.0070(2) 0.7329(7) 0.4325(3)
H10A H 0.0547 0.7736 0.4388
C14A C 0.0166(3) 0.6543(10) 0.2883(3)
H11A H 0.0506 0.7530 0.2934
H12A H 0.0455 0.5464 0.2955
loop_
_geom_bond_atom_site_label_1
_geom_bond_atom_site_label_2
_geom_bond_site_symmetry_1
_geom_bond_site_symmetry_2
O1 H1 1_555 1_555
O2 C5 1_555 1_555
C1 C3 1_555 1_555
C2 C6 1_555 1_555
C3 H2 1_555 1_555
C4 C1 1_555 1_555
H3 C4 1_555 1_555
C5 O1 1_555 1_555
C6 C3 1_555 1_555
H4 C6 1_555 1_555
C7 C2 1_555 1_555
H5 C7 1_555 1_555
C8 C2 1_555 1_555
H6 C8 1_555 1_555
N1 C9 1_555 1_555
C9 H7 1_555 1_555
C10 H8 1_555 1_555
C11 C10 1_555 1_555
C12 N1 1_555 1_555
H9 C12 1_555 1_555
C13 C9 1_555 1_555
H10 C13 1_555 1_555
C14 C11 1_555 1_555
H11 C14 1_555 1_555
H12 C14 1_555 1_555
O1F H1F 1_555 1_555
O2F C5F 1_555 1_555
C1F C3F 1_555 1_555
C2F C6F 1_555 1_555
C3F H2F 1_555 1_555
C4F C1F 1_555 1_555
H3F C4F 1_555 1_555
C5F O1F 1_555 1_555
C6F C3F 1_555 1_555
H4F C6F 1_555 1_555
C7F C2F 1_555 1_555
H5F C7F 1_555 1_555
C8F C8 1_555 1_555
H6F C8F 1_555 1_555
N1A C9A 1_555 1_555
C9A H7A 1_555 1_555
C10A H8A 1_555 1_555
C11A C10A 1_555 1_555
C12A N1A 1_555 1_555
H9A C12A 1_555 1_555
C13A C9A 1_555 1_555
H10A C13A 1_555 1_555
C14A C14 1_555 1_555
H11A C14A 1_555 1_555
H12A C14A 1_555 1_555
C1 C5 1_555 1_555
C4 C7 1_555 1_555
C10 C12 1_555 1_555
C11 C13 1_555 1_555
C1F C5F 1_555 1_555
C2F C8F 1_555 1_555
C4F C7F 1_555 1_555
C10A C12A 1_555 1_555
C11A C13A 1_555 1_555
C11A C14A 1_555 1_555

#END
