
#######################################################################
#
#                 Cambridge Crystallographic Data Centre
#                                CCDC 
#
#######################################################################
#
# If this CIF has been generated from an entry in the Cambridge 
# Structural Database, then it will include bibliographic, chemical, 
# crystal, experimental, refinement or atomic coordinate data resulting 
# from the CCDC's data processing and validation procedures.
#
#######################################################################

data_ALIXUQ
_chemical_formula_moiety         'C15 H17 Cl1 N2 O5,H2 O1'
_chemical_name_systematic        
'Ethyl 6-(chloromethyl)-4-(4-hydroxy-3-methoxyphenyl)-2-oxo-1,2,3,4-tetrahydropyrimidine-5-carboxylate monohydrate'
_symmetry_cell_setting           triclinic
_symmetry_space_group_name_H-M   'P -1'
_symmetry_Int_Tables_number      2
_space_group_name_Hall           '-P 1'
loop_
_symmetry_equiv_pos_site_id
_symmetry_equiv_pos_as_xyz
1 x,y,z
2 -x,-y,-z
_cell_length_a                   9.7182(3)
_cell_length_b                   10.0643(3)
_cell_length_c                   10.7404(3)
_cell_angle_alpha                64.5330(10)
_cell_angle_beta                 64.4290(10)
_cell_angle_gamma                78.1120(10)
_cell_volume                     855.248
_exptl_crystal_colour            colorless
_exptl_crystal_description       block
_cell_formula_units_Z            2
loop_
_atom_site_label
_atom_site_type_symbol
_atom_site_fract_x
_atom_site_fract_y
_atom_site_fract_z
Cl1 Cl 0.36457(6) 0.13197(6) 0.86913(5)
O1 O 1.16714(12) 0.70187(11) -0.01597(13)
O2 O 1.33154(12) 0.46438(13) -0.01252(12)
H1 H 1.3818 0.3908 0.0174
O3 O 0.53434(15) 0.15303(13) 0.33443(12)
O4 O 0.75710(14) 0.54563(13) 0.51230(12)
N1 N 0.57414(17) 0.13839(14) 0.53297(14)
H2 H 0.5510 0.0470 0.5778
N2 N 0.62233(14) 0.35145(14) 0.32204(13)
H3 H 0.6026 0.4062 0.2441
C1 C 0.87361(15) 0.42543(15) 0.27121(14)
O5 O 0.6996(2) 0.35952(18) 0.73415(14)
C2 C 0.93881(16) 0.56268(15) 0.17450(15)
H4 H 0.8788 0.6479 0.1724
C3 C 0.66813(16) 0.33729(16) 0.53391(15)
C4 C 0.96397(17) 0.29945(15) 0.27336(16)
H5 H 0.9216 0.2076 0.3380
C5 C 1.18232(16) 0.44545(16) 0.08354(15)
C6 C 1.09188(16) 0.57310(15) 0.08170(15)
C7 C 0.70339(16) 0.41882(15) 0.36768(15)
H6 H 0.6640 0.5202 0.3512
C8 C 0.60669(17) 0.20263(17) 0.60752(15)
C9 C 1.11743(17) 0.30913(16) 0.17975(16)
H7 H 1.1771 0.2237 0.1816
C10 C 0.57694(17) 0.21339(17) 0.39075(16)
C11 C 0.56402(19) 0.11005(19) 0.77110(17)
H8 H 0.6210 0.1399 0.8096
H9 H 0.5891 0.0074 0.7857
C12 C 0.8633(3) 0.7715(3) 0.4414(3)
H10 H 0.9504 0.7536 0.3620
H11 H 0.8920 0.8315 0.4753
H12 H 0.7844 0.8216 0.4053
C13 C 1.0825(2) 0.83554(18) -0.0242(2)
H13 H 1.0005 0.8380 -0.0524
H14 H 1.1481 0.9168 -0.0975
H15 H 1.0416 0.8426 0.0717
C14 C 0.8058(2) 0.6281(2) 0.5683(2)
H16 H 0.8860 0.5742 0.6027
H17 H 0.7208 0.6449 0.6512
C15 C 0.70741(18) 0.41046(19) 0.60717(16)
O6 O 0.51961(14) 0.24530(13) 0.05575(13)
H18 H 0.533(2) 0.235(2) 0.127(2)
H19 H 0.595(2) 0.275(2) -0.014(2)
loop_
_geom_bond_atom_site_label_1
_geom_bond_atom_site_label_2
_geom_bond_site_symmetry_1
_geom_bond_site_symmetry_2
Cl1 C11 1_555 1_555
O1 C6 1_555 1_555
O2 H1 1_555 1_555
O3 C10 1_555 1_555
O4 C14 1_555 1_555
N1 H2 1_555 1_555
N2 H3 1_555 1_555
C1 C2 1_555 1_555
O5 C15 1_555 1_555
C2 H4 1_555 1_555
C3 C7 1_555 1_555
C4 C1 1_555 1_555
H5 C4 1_555 1_555
C5 O2 1_555 1_555
C6 C2 1_555 1_555
C7 N2 1_555 1_555
H6 C7 1_555 1_555
C8 N1 1_555 1_555
C9 C4 1_555 1_555
H7 C9 1_555 1_555
C10 N1 1_555 1_555
C11 C8 1_555 1_555
H8 C11 1_555 1_555
H9 C11 1_555 1_555
C12 H10 1_555 1_555
H11 C12 1_555 1_555
H12 C12 1_555 1_555
C13 O1 1_555 1_555
H13 C13 1_555 1_555
H14 C13 1_555 1_555
H15 C13 1_555 1_555
C14 C12 1_555 1_555
H16 C14 1_555 1_555
H17 C14 1_555 1_555
C15 O4 1_555 1_555
O6 H18 1_555 1_555
H19 O6 1_555 1_555
N2 C10 1_555 1_555
C1 C7 1_555 1_555
C3 C8 1_555 1_555
C3 C15 1_555 1_555
C5 C6 1_555 1_555
C5 C9 1_555 1_555

#END
