
#######################################################################
#
#                 Cambridge Crystallographic Data Centre
#                                CCDC 
#
#######################################################################
#
# If this CIF has been generated from an entry in the Cambridge 
# Structural Database, then it will include bibliographic, chemical, 
# crystal, experimental, refinement or atomic coordinate data resulting 
# from the CCDC's data processing and validation procedures.
#
#######################################################################

data_ALUQUT
_chemical_formula_moiety         'C34 H28 O8,C1 H2 Cl2'
_chemical_name_systematic        
'(+-)-2,15-Diacetyl-1,16-dihydroxy-4,6,11,13-tetramethoxy(6)helicene dichloromethane solvate'
_symmetry_cell_setting           monoclinic
_symmetry_space_group_name_H-M   'P 21/c'
_symmetry_Int_Tables_number      14
_space_group_name_Hall           '-P 2ybc'
loop_
_symmetry_equiv_pos_site_id
_symmetry_equiv_pos_as_xyz
1 x,y,z
2 x,1/2-y,1/2+z
3 -x,-y,-z
4 -x,1/2+y,1/2-z
_cell_length_a                   10.8059(19)
_cell_length_b                   13.875(3)
_cell_length_c                   19.881(4)
_cell_angle_alpha                90
_cell_angle_beta                 97.165(4)
_cell_angle_gamma                90
_cell_volume                     2957.52
_exptl_crystal_colour            yellow
_exptl_crystal_description       plate
_cell_formula_units_Z            4
loop_
_atom_site_label
_atom_site_type_symbol
_atom_site_fract_x
_atom_site_fract_y
_atom_site_fract_z
O1 O 0.8596(4) 0.3602(2) -0.27972(18)
H1 H 0.763(8) 0.393(5) -0.250(4)
O2 O 0.7617(4) 0.4292(2) -0.1816(2)
O3 O 1.3219(4) 0.3987(3) -0.13033(19)
O4 O 1.3997(4) 0.3405(3) -0.36755(19)
O5 O 0.5532(4) 0.1372(3) -0.3874(2)
O6 O 0.7133(4) 0.0671(2) -0.14741(18)
O7 O 1.2612(4) 0.0654(2) -0.17884(19)
O8 O 1.1212(4) 0.1264(2) -0.28101(18)
H2 H 1.191(6) 0.115(4) -0.251(3)
C1 C 0.9718(5) 0.3635(3) -0.2400(2)
C2 C 0.9761(5) 0.4007(3) -0.1742(2)
C3 C 1.0963(5) 0.4095(3) -0.1357(2)
H3 H 1.1021 0.4296 -0.0897
C4 C 1.2023(5) 0.3900(3) -0.1631(3)
C5 C 1.1975(5) 0.3576(3) -0.2318(2)
C6 C 1.0793(5) 0.3353(3) -0.2687(3)
C7 C 1.3086(5) 0.3523(3) -0.2630(3)
H4 H 1.3877 0.3605 -0.2369
C8 C 1.3005(5) 0.3354(3) -0.3311(3)
C9 C 1.1868(6) 0.3079(3) -0.3699(3)
C10 C 1.0791(5) 0.2957(3) -0.3369(2)
C11 C 1.1776(6) 0.2930(3) -0.4418(3)
H5 H 1.2504 0.2980 -0.4639
C12 C 1.0679(6) 0.2720(3) -0.4783(3)
H6 H 1.0604 0.2737 -0.5264
C13 C 0.9630(5) 0.2472(3) -0.4454(2)
C14 C 0.9755(5) 0.2460(3) -0.3736(2)
C15 C 0.8464(6) 0.2232(3) -0.4833(2)
H7 H 0.8377 0.2259 -0.5314
C16 C 0.7471(6) 0.1966(3) -0.4514(3)
H8 H 0.6663 0.1908 -0.4761
C17 C 0.7669(5) 0.1775(3) -0.3797(2)
C18 C 0.8838(5) 0.1910(3) -0.3418(2)
C19 C 0.6631(6) 0.1433(3) -0.3461(3)
C20 C 0.6803(5) 0.1224(3) -0.2793(3)
H9 H 0.6103 0.1088 -0.2563
C21 C 0.8018(6) 0.1208(3) -0.2434(2)
C22 C 0.9053(5) 0.1487(3) -0.2755(2)
C23 C 0.8205(5) 0.0859(3) -0.1750(2)
C24 C 0.9375(6) 0.0696(3) -0.1440(3)
H10 H 0.9484 0.0477 -0.0984
C25 C 1.0453(5) 0.0843(3) -0.1781(2)
C26 C 1.0268(5) 0.1221(3) -0.2439(2)
C27 C 0.8671(6) 0.4370(3) -0.1484(3)
C28 C 0.8780(6) 0.4869(4) -0.0804(3)
H11 H 0.7951 0.5068 -0.0708
H12 H 0.9316 0.5437 -0.0814
H13 H 0.9146 0.4424 -0.0451
C29 C 1.3332(6) 0.4250(4) -0.0598(3)
H14 H 1.4216 0.4295 -0.0417
H15 H 1.2927 0.3760 -0.0345
H16 H 1.2929 0.4875 -0.0550
C30 C 1.5167(6) 0.3709(5) -0.3329(3)
H17 H 1.5793 0.3715 -0.3646
H18 H 1.5429 0.3263 -0.2956
H19 H 1.5082 0.4359 -0.3147
C31 C 0.4471(6) 0.1004(5) -0.3578(3)
H20 H 0.3739 0.0993 -0.3923
H21 H 0.4303 0.1421 -0.3202
H22 H 0.4650 0.0349 -0.3409
C32 C 0.7248(7) 0.0429(4) -0.0774(3)
H23 H 0.6418 0.0309 -0.0642
H24 H 0.7643 0.0963 -0.0506
H25 H 0.7760 -0.0152 -0.0693
C33 C 1.1687(5) 0.0526(3) -0.1482(3)
C34 C 1.1841(6) 0.0038(4) -0.0808(3)
H26 H 1.2721 -0.0129 -0.0682
H27 H 1.1334 -0.0549 -0.0832
H28 H 1.1570 0.0473 -0.0466
C35 C 0.4707(6) 0.2006(4) -0.1248(3)
H29 H 0.4912 0.1392 -0.1463
H30 H 0.3906 0.2244 -0.1487
Cl1 Cl 0.45485(17) 0.17994(12) -0.03762(8)
Cl2 Cl 0.58978(14) 0.28622(10) -0.13274(7)
loop_
_geom_bond_atom_site_label_1
_geom_bond_atom_site_label_2
_geom_bond_site_symmetry_1
_geom_bond_site_symmetry_2
O1 H1 1_555 1_555
O2 C27 1_555 1_555
O3 C4 1_555 1_555
O4 C8 1_555 1_555
O5 C19 1_555 1_555
O6 C23 1_555 1_555
O7 C33 1_555 1_555
O8 H2 1_555 1_555
C1 O1 1_555 1_555
C2 C1 1_555 1_555
C3 C2 1_555 1_555
H3 C3 1_555 1_555
C4 C3 1_555 1_555
C5 C4 1_555 1_555
C6 C1 1_555 1_555
C7 C5 1_555 1_555
H4 C7 1_555 1_555
C8 C7 1_555 1_555
C9 C8 1_555 1_555
C10 C6 1_555 1_555
C11 C9 1_555 1_555
H5 C11 1_555 1_555
C12 C11 1_555 1_555
H6 C12 1_555 1_555
C13 C12 1_555 1_555
C14 C10 1_555 1_555
C15 C13 1_555 1_555
H7 C15 1_555 1_555
C16 C15 1_555 1_555
H8 C16 1_555 1_555
C17 C16 1_555 1_555
C18 C14 1_555 1_555
C19 C17 1_555 1_555
C20 C19 1_555 1_555
H9 C20 1_555 1_555
C21 C20 1_555 1_555
C22 C18 1_555 1_555
C23 C21 1_555 1_555
C24 C23 1_555 1_555
H10 C24 1_555 1_555
C25 C24 1_555 1_555
C26 O8 1_555 1_555
C27 C2 1_555 1_555
C28 C27 1_555 1_555
H11 C28 1_555 1_555
H12 C28 1_555 1_555
H13 C28 1_555 1_555
C29 O3 1_555 1_555
H14 C29 1_555 1_555
H15 C29 1_555 1_555
H16 C29 1_555 1_555
C30 O4 1_555 1_555
H17 C30 1_555 1_555
H18 C30 1_555 1_555
H19 C30 1_555 1_555
C31 O5 1_555 1_555
H20 C31 1_555 1_555
H21 C31 1_555 1_555
H22 C31 1_555 1_555
C32 O6 1_555 1_555
H23 C32 1_555 1_555
H24 C32 1_555 1_555
H25 C32 1_555 1_555
C33 C25 1_555 1_555
C34 C33 1_555 1_555
H26 C34 1_555 1_555
H27 C34 1_555 1_555
H28 C34 1_555 1_555
C35 H29 1_555 1_555
H30 C35 1_555 1_555
Cl1 C35 1_555 1_555
Cl2 C35 1_555 1_555
C5 C6 1_555 1_555
C9 C10 1_555 1_555
C13 C14 1_555 1_555
C17 C18 1_555 1_555
C21 C22 1_555 1_555
C22 C26 1_555 1_555
C25 C26 1_555 1_555

#END
