
#######################################################################
#
#                 Cambridge Crystallographic Data Centre
#                                CCDC 
#
#######################################################################
#
# If this CIF has been generated from an entry in the Cambridge 
# Structural Database, then it will include bibliographic, chemical, 
# crystal, experimental, refinement or atomic coordinate data resulting 
# from the CCDC's data processing and validation procedures.
#
#######################################################################

data_ALUYOX
_chemical_formula_moiety         'C19 H8 F9 N1'
_chemical_name_systematic        
2,4,6-trifluoro-3,5-bis(3-(trifluoromethyl)phenyl)pyridine
_symmetry_cell_setting           triclinic
_symmetry_space_group_name_H-M   'P -1'
_symmetry_Int_Tables_number      2
_space_group_name_Hall           '-P 1'
loop_
_symmetry_equiv_pos_site_id
_symmetry_equiv_pos_as_xyz
1 x,y,z
2 -x,-y,-z
_cell_length_a                   7.6635(2)
_cell_length_b                   10.3180(3)
_cell_length_c                   10.9074(3)
_cell_angle_alpha                91.757(1)
_cell_angle_beta                 103.519(1)
_cell_angle_gamma                103.325(2)
_cell_volume                     812.733
_exptl_crystal_colour            colorless
_exptl_crystal_description       block
_cell_formula_units_Z            2
loop_
_atom_site_label
_atom_site_type_symbol
_atom_site_fract_x
_atom_site_fract_y
_atom_site_fract_z
C1 C -0.22506(19) 0.09010(14) 0.35156(13)
C2 C -0.10356(18) 0.21115(13) 0.40471(12)
C3 C -0.05565(18) 0.22079(13) 0.53638(13)
C4 C -0.12309(18) 0.12102(13) 0.60857(13)
C5 C -0.2407(2) 0.00806(14) 0.53567(14)
C6 C -0.03790(19) 0.32042(13) 0.32893(12)
C7 C -0.1656(2) 0.35962(15) 0.23270(13)
H1 H -0.2936 0.3175 0.2178
C8 C -0.1068(2) 0.45920(15) 0.15908(14)
H2 H -0.1944 0.4840 0.0928
C9 C 0.0786(2) 0.52288(15) 0.18150(14)
H3 H 0.1189 0.5914 0.1309
C10 C 0.2053(2) 0.48598(14) 0.27829(13)
C11 C 0.14914(19) 0.38462(14) 0.35217(13)
H4 H 0.2374 0.3595 0.4178
C12 C 0.4047(2) 0.56086(17) 0.30901(16)
C13 C -0.08032(18) 0.13616(13) 0.74877(12)
C14 C 0.10142(18) 0.17881(13) 0.82080(13)
H5 H 0.2008 0.1976 0.7806
C15 C 0.13638(18) 0.19369(13) 0.95180(13)
C16 C -0.0067(2) 0.16751(14) 1.01218(13)
H6 H 0.0188 0.1785 1.1019
C17 C -0.1873(2) 0.12517(15) 0.94002(14)
H7 H -0.2862 0.1067 0.9806
C18 C -0.22472(19) 0.10964(14) 0.80963(14)
H8 H -0.3492 0.0808 0.7610
C19 C 0.3321(2) 0.23967(15) 1.02851(14)
F1 F -0.28075(14) 0.06872(9) 0.22511(8)
F2 F 0.05813(12) 0.33411(8) 0.59721(8)
F3 F -0.31015(14) -0.09603(9) 0.59466(9)
F4 F 0.44228(18) 0.65993(12) 0.39943(13)
F5 F 0.45355(18) 0.61700(15) 0.21030(12)
F6 F 0.51945(15) 0.48384(12) 0.35116(13)
F7 F 0.35192(14) 0.21512(12) 1.14922(9)
F8 F 0.40008(15) 0.37024(11) 1.02910(12)
F9 F 0.44450(15) 0.18064(15) 0.98488(12)
N1 N -0.29193(18) -0.01016(12) 0.41151(12)
loop_
_geom_bond_atom_site_label_1
_geom_bond_atom_site_label_2
_geom_bond_site_symmetry_1
_geom_bond_site_symmetry_2
C1 C2 1_555 1_555
C2 C3 1_555 1_555
C3 C4 1_555 1_555
C4 C5 1_555 1_555
C5 F3 1_555 1_555
C6 C2 1_555 1_555
C7 C6 1_555 1_555
H1 C7 1_555 1_555
C8 C7 1_555 1_555
H2 C8 1_555 1_555
C9 C8 1_555 1_555
H3 C9 1_555 1_555
C10 C9 1_555 1_555
C11 C6 1_555 1_555
H4 C11 1_555 1_555
C12 C10 1_555 1_555
C13 C4 1_555 1_555
C14 C13 1_555 1_555
H5 C14 1_555 1_555
C15 C14 1_555 1_555
C16 C15 1_555 1_555
H6 C16 1_555 1_555
C17 C16 1_555 1_555
H7 C17 1_555 1_555
C18 C13 1_555 1_555
H8 C18 1_555 1_555
C19 C15 1_555 1_555
F1 C1 1_555 1_555
F2 C3 1_555 1_555
F4 C12 1_555 1_555
F5 C12 1_555 1_555
F6 C12 1_555 1_555
F7 C19 1_555 1_555
F8 C19 1_555 1_555
F9 C19 1_555 1_555
N1 C1 1_555 1_555
C5 N1 1_555 1_555
C10 C11 1_555 1_555
C17 C18 1_555 1_555

#END
