
#######################################################################
#
#                 Cambridge Crystallographic Data Centre
#                                CCDC 
#
#######################################################################
#
# If this CIF has been generated from an entry in the Cambridge 
# Structural Database, then it will include bibliographic, chemical, 
# crystal, experimental, refinement or atomic coordinate data resulting 
# from the CCDC's data processing and validation procedures.
#
#######################################################################

data_AMACOH
_chemical_formula_moiety         'C21 H23 Br1 N2 O2'
_chemical_name_systematic        
'(1R,2R)-(2-((4-Bromophenyl)amino)-1,2-dihydronaphthalen-1-yl)carbamic acid t-butyl ester'
_symmetry_cell_setting           monoclinic
_symmetry_space_group_name_H-M   'P 21'
_symmetry_Int_Tables_number      4
_space_group_name_Hall           'P 2yb'
loop_
_symmetry_equiv_pos_site_id
_symmetry_equiv_pos_as_xyz
1 x,y,z
2 -x,1/2+y,-z
_cell_length_a                   13.412(4)
_cell_length_b                   5.2445(14)
_cell_length_c                   14.249(4)
_cell_angle_alpha                90
_cell_angle_beta                 92.856(4)
_cell_angle_gamma                90
_cell_volume                     1001.02
_cell_formula_units_Z            2
loop_
_atom_site_label
_atom_site_type_symbol
_atom_site_fract_x
_atom_site_fract_y
_atom_site_fract_z
Br1 Br 0.2765(1) 0.1328(2) 0.4132(1)
O1 O 0.7652(3) 0.5819(7) 0.1203(2)
N1 N 0.7941(3) 0.1580(9) 0.1324(2)
N2 N 0.7008(4) 0.3175(10) 0.3017(3)
C1 C 0.5981(4) 0.6588(15) -0.0194(4)
C2 C 0.6398(5) 0.3477(13) -0.1447(4)
C3 C 0.7645(4) 0.6753(14) -0.0916(4)
C4 C 0.6803(4) 0.5062(10) -0.0631(4)
O2 O 0.7193(3) 0.3093(6) 0.0034(2)
C5 C 0.7604(4) 0.3668(10) 0.0866(4)
C6 C 0.8484(3) 0.1664(11) 0.2235(3)
C7 C 0.9320(4) -0.0307(11) 0.2286(3)
C8 C 0.9740(4) -0.1339(12) 0.1505(4)
C9 C 1.0493(4) -0.3125(15) 0.1587(4)
C10 C 1.0860(4) -0.3838(19) 0.2461(5)
C11 C 1.0475(4) -0.2822(13) 0.3246(4)
C12 C 0.9700(4) -0.1105(12) 0.3185(4)
C13 C 0.9268(5) 0.0007(15) 0.4015(4)
C14 C 0.8387(5) 0.1041(16) 0.3968(3)
C15 C 0.7781(4) 0.1223(14) 0.3040(3)
C16 C 0.6052(4) 0.2689(10) 0.3283(3)
C17 C 0.5815(4) 0.0602(10) 0.3840(4)
C18 C 0.4835(5) 0.0220(11) 0.4103(4)
C19 C 0.4095(4) 0.1886(12) 0.3808(3)
C20 C 0.4322(5) 0.3961(12) 0.3266(4)
C21 C 0.5287(5) 0.4397(11) 0.3012(4)
H1 H 0.7832 0.0117 0.1067
H2 H 0.7153 0.4684 0.2830
H3 H 0.5538 0.5447 0.0108
H4 H 0.5614 0.7526 -0.0676
H5 H 0.6272 0.7753 0.0261
H6 H 0.6925 0.2450 -0.1679
H7 H 0.6138 0.4579 -0.1938
H8 H 0.5875 0.2391 -0.1242
H9 H 0.7862 0.7809 -0.0395
H10 H 0.7418 0.7810 -0.1434
H11 H 0.8191 0.5716 -0.1101
H13 H 0.8784 0.3360 0.2314
H14 H 0.9508 -0.0816 0.0910
H15 H 1.0749 -0.3839 0.1052
H16 H 1.1375 -0.5023 0.2520
H17 H 1.0742 -0.3301 0.3835
H18 H 0.9632 -0.0028 0.4587
H19 H 0.8123 0.1682 0.4511
H20 H 0.7451 -0.0425 0.2930
H21 H 0.6313 -0.0541 0.4037
H22 H 0.4685 -0.1165 0.4478
H23 H 0.3818 0.5084 0.3068
H24 H 0.5431 0.5831 0.2660
H12? H 0.7147 0.1387 -0.0142
loop_
_geom_bond_atom_site_label_1
_geom_bond_atom_site_label_2
_geom_bond_site_symmetry_1
_geom_bond_site_symmetry_2
Br1 C19 1_555 1_555
O1 C5 1_555 1_555
N1 C5 1_555 1_555
N2 C15 1_555 1_555
C1 C4 1_555 1_555
C2 C4 1_555 1_555
C3 C4 1_555 1_555
C4 O2 1_555 1_555
O2 C5 1_555 1_555
C6 N1 1_555 1_555
C7 C6 1_555 1_555
C8 C7 1_555 1_555
C9 C8 1_555 1_555
C10 C9 1_555 1_555
C11 C10 1_555 1_555
C12 C7 1_555 1_555
C13 C12 1_555 1_555
C14 C13 1_555 1_555
C15 C6 1_555 1_555
C16 N2 1_555 1_555
C17 C16 1_555 1_555
C18 C17 1_555 1_555
C19 C18 1_555 1_555
C20 C19 1_555 1_555
C21 C16 1_555 1_555
H1 N1 1_555 1_555
H2 N2 1_555 1_555
H3 C1 1_555 1_555
H4 C1 1_555 1_555
H5 C1 1_555 1_555
H6 C2 1_555 1_555
H7 C2 1_555 1_555
H8 C2 1_555 1_555
H9 C3 1_555 1_555
H10 C3 1_555 1_555
H11 C3 1_555 1_555
H13 C6 1_555 1_555
H14 C8 1_555 1_555
H15 C9 1_555 1_555
H16 C10 1_555 1_555
H17 C11 1_555 1_555
H18 C13 1_555 1_555
H19 C14 1_555 1_555
H20 C15 1_555 1_555
H21 C17 1_555 1_555
H22 C18 1_555 1_555
H23 C20 1_555 1_555
H24 C21 1_555 1_555
C11 C12 1_555 1_555
C14 C15 1_555 1_555
C20 C21 1_555 1_555

#END
