
#######################################################################
#
#                 Cambridge Crystallographic Data Centre
#                                CCDC 
#
#######################################################################
#
# If this CIF has been generated from an entry in the Cambridge 
# Structural Database, then it will include bibliographic, chemical, 
# crystal, experimental, refinement or atomic coordinate data resulting 
# from the CCDC's data processing and validation procedures.
#
#######################################################################

data_AMALEH
_chemical_formula_moiety         'C20 H32 O4'
_chemical_name_systematic        
'12,16-dihydroxy-14,15-cyclopimaran-18-oic acid'
_symmetry_cell_setting           monoclinic
_symmetry_space_group_name_H-M   'P 21'
_symmetry_Int_Tables_number      4
_space_group_name_Hall           'P 2yb'
loop_
_symmetry_equiv_pos_site_id
_symmetry_equiv_pos_as_xyz
1 x,y,z
2 -x,1/2+y,-z
_cell_length_a                   8.1285(2)
_cell_length_b                   10.8566(4)
_cell_length_c                   20.9089(5)
_cell_angle_alpha                90
_cell_angle_beta                 97.9420(10)
_cell_angle_gamma                90
_cell_volume                     1827.47
_exptl_crystal_colour            colorless
_exptl_crystal_description       plate
_cell_formula_units_Z            4
loop_
_atom_site_label
_atom_site_type_symbol
_atom_site_fract_x
_atom_site_fract_y
_atom_site_fract_z
O1 O -0.0728(2) 0.97226(18) 0.74514(7)
O2 O 0.0009(2) 1.08114(13) 0.83289(6)
O3 O 0.82588(19) 0.78200(18) 1.20066(6)
H1 H 0.8816 0.7201 1.1969
O4 O 0.31644(19) 0.7743(3) 1.20014(7)
H2 H 0.4148 0.7661 1.2147
C1 C -0.0262(2) 0.98222(18) 0.80788(8)
C2 C -0.0179(2) 0.86085(17) 0.84505(8)
C3 C 0.11152(19) 0.87845(15) 0.90632(7)
H3 H 0.0811 0.9570 0.9246
C4 C 0.2877(2) 0.8989(2) 0.89096(8)
H4 H 0.3316 0.8221 0.8768
H5 H 0.2856 0.9582 0.8561
C5 C 0.3992(2) 0.9461(2) 0.95007(8)
H6 H 0.3617 1.0270 0.9614
H7 H 0.5118 0.9541 0.9402
C6 C 0.39783(19) 0.85913(17) 1.00726(7)
H8 H 0.4416 0.7796 0.9951
C7 C 0.5116(2) 0.90555(19) 1.06596(9)
H9 H 0.5788 0.9771 1.0574
C8 C 0.5984(2) 0.8172(2) 1.11526(8)
H10 H 0.5644 0.7310 1.1088
C9 C 0.7798(2) 0.8355(3) 1.13953(10)
H11 H 0.8456 0.7993 1.1090
H12 H 0.8038 0.9230 1.1421
C10 C -0.1928(2) 0.8473(2) 0.86560(10)
H13 H -0.2262 0.9259 0.8817
H14 H -0.2714 0.8262 0.8280
C11 C -0.2002(3) 0.7494(2) 0.91743(11)
H15 H -0.1767 0.6693 0.9003
H16 H -0.3112 0.7470 0.9295
C12 C -0.0749(2) 0.77670(19) 0.97708(9)
H17 H -0.0824 0.7129 1.0090
H18 H -0.1033 0.8545 0.9956
C13 C 0.1055(2) 0.78334(15) 0.96195(7)
C14 C 0.4656(2) 0.90152(18) 1.13376(8)
C15 C 0.5110(4) 1.0091(2) 1.17878(12)
H19 H 0.4284 1.0724 1.1703
H20 H 0.6172 1.0411 1.1719
H21 H 0.5163 0.9820 1.2227
C16 C 0.3024(2) 0.8428(2) 1.14134(8)
H22 H 0.2236 0.9098 1.1452
C17 C 0.2287(2) 0.7640(2) 1.08479(8)
H23 H 0.1180 0.7376 1.0911
H24 H 0.2966 0.6912 1.0823
C18 C 0.21997(19) 0.83730(15) 1.02154(7)
H25 H 0.1747 0.9184 1.0300
C19 C 0.1650(3) 0.65335(17) 0.94747(10)
H26 H 0.1773 0.6051 0.9863
H27 H 0.2700 0.6586 0.9315
H28 H 0.0850 0.6151 0.9155
C20 C 0.0198(3) 0.7539(2) 0.80107(10)
H29 H -0.0580 0.7553 0.7621
H30 H 0.0103 0.6771 0.8231
H31 H 0.1305 0.7625 0.7906
H32 H -0.092(4) 1.049(3) 0.7281(13)
O5 O 0.5365(3) 0.54820(15) 0.34288(7)
O6 O 0.5436(3) 0.4407(2) 0.25450(8)
O7 O 0.85370(17) 0.20281(14) 0.70532(6)
H33 H 0.8083 0.2280 0.7355
O8 O 1.37103(17) 0.25889(16) 0.71047(6)
H34 H 1.3078 0.2618 0.7378
C21 C 0.5345(3) 0.4430(2) 0.31116(9)
C22 C 0.5207(2) 0.32953(19) 0.35298(8)
C23 C 0.6473(2) 0.34496(16) 0.41581(7)
H35 H 0.6183 0.4243 0.4336
C24 C 0.6329(2) 0.25081(16) 0.47100(8)
C25 C 0.7470(2) 0.29916(15) 0.53155(7)
H36 H 0.7007 0.3782 0.5431
C26 C 0.9261(2) 0.32416(17) 0.51973(8)
H37 H 0.9755 0.2454 0.5096
C27 C 1.0287(2) 0.37573(19) 0.58045(9)
H38 H 1.0832 0.4542 0.5735
C28 C 0.9769(2) 0.36357(17) 0.64694(8)
C29 C 0.9951(3) 0.4741(2) 0.69114(11)
H39 H 0.9902 0.4481 0.7347
H40 H 0.9068 0.5313 0.6780
H41 H 1.1000 0.5133 0.6888
C30 C 0.8264(2) 0.3618(2) 0.40256(8)
H42 H 0.8702 0.2835 0.3902
H43 H 0.8291 0.4191 0.3672
C31 C 0.9326(2) 0.4104(2) 0.46240(9)
H44 H 0.8934 0.4914 0.4727
H45 H 1.0466 0.4184 0.4541
C32 C 0.6850(3) 0.11910(18) 0.45577(10)
H46 H 0.6924 0.0697 0.4941
H47 H 0.7913 0.1211 0.4406
H48 H 0.6040 0.0842 0.4230
C33 C 0.4512(2) 0.2500(2) 0.48430(9)
H49 H 0.4377 0.1855 0.5153
H50 H 0.4269 0.3280 0.5035
C34 C 0.3265(2) 0.2290(2) 0.42346(11)
H51 H 0.3440 0.1479 0.4061
H52 H 0.2146 0.2317 0.4346
C35 C 0.3440(2) 0.3257(2) 0.37218(10)
H53 H 0.3173 0.4060 0.3884
H54 H 0.2648 0.3083 0.3341
C36 C 0.7571(2) 0.21653(16) 0.59156(8)
H55 H 0.6475 0.1846 0.5955
H56 H 0.8295 0.1471 0.5866
C37 C 0.8229(2) 0.28693(17) 0.65224(8)
H57 H 0.7352 0.3435 0.6615
C38 C 1.1271(2) 0.29503(19) 0.63009(8)
H58 H 1.1094 0.2065 0.6228
C39 C 1.3041(2) 0.3300(2) 0.65563(10)
H59 H 1.3729 0.3187 0.6217
H60 H 1.3078 0.4165 0.6673
C40 C 0.5500(4) 0.2166(3) 0.31170(11)
H61 H 0.4791 0.2215 0.2710
H62 H 0.5251 0.1430 0.3339
H63 H 0.6639 0.2149 0.3044
H64 H 0.558(4) 0.616(3) 0.3135(15)
loop_
_geom_bond_atom_site_label_1
_geom_bond_atom_site_label_2
_geom_bond_site_symmetry_1
_geom_bond_site_symmetry_2
O1 C1 1_555 1_555
O2 C1 1_555 1_555
O3 H1 1_555 1_555
O4 H2 1_555 1_555
C1 C2 1_555 1_555
C2 C3 1_555 1_555
C3 H3 1_555 1_555
C4 C3 1_555 1_555
H4 C4 1_555 1_555
H5 C4 1_555 1_555
C5 C4 1_555 1_555
H6 C5 1_555 1_555
H7 C5 1_555 1_555
C6 C5 1_555 1_555
H8 C6 1_555 1_555
C7 C6 1_555 1_555
H9 C7 1_555 1_555
C8 C7 1_555 1_555
H10 C8 1_555 1_555
C9 O3 1_555 1_555
H11 C9 1_555 1_555
H12 C9 1_555 1_555
C10 C2 1_555 1_555
H13 C10 1_555 1_555
H14 C10 1_555 1_555
C11 C10 1_555 1_555
H15 C11 1_555 1_555
H16 C11 1_555 1_555
C12 C11 1_555 1_555
H17 C12 1_555 1_555
H18 C12 1_555 1_555
C13 C3 1_555 1_555
C14 C7 1_555 1_555
C15 C14 1_555 1_555
H19 C15 1_555 1_555
H20 C15 1_555 1_555
H21 C15 1_555 1_555
C16 O4 1_555 1_555
H22 C16 1_555 1_555
C17 C16 1_555 1_555
H23 C17 1_555 1_555
H24 C17 1_555 1_555
C18 C6 1_555 1_555
H25 C18 1_555 1_555
C19 C13 1_555 1_555
H26 C19 1_555 1_555
H27 C19 1_555 1_555
H28 C19 1_555 1_555
C20 C2 1_555 1_555
H29 C20 1_555 1_555
H30 C20 1_555 1_555
H31 C20 1_555 1_555
H32 O1 1_555 1_555
O5 C21 1_555 1_555
O6 C21 1_555 1_555
O7 H33 1_555 1_555
O8 H34 1_555 1_555
C21 C22 1_555 1_555
C22 C23 1_555 1_555
C23 H35 1_555 1_555
C24 C23 1_555 1_555
C25 C24 1_555 1_555
H36 C25 1_555 1_555
C26 C25 1_555 1_555
H37 C26 1_555 1_555
C27 C26 1_555 1_555
H38 C27 1_555 1_555
C28 C27 1_555 1_555
C29 C28 1_555 1_555
H39 C29 1_555 1_555
H40 C29 1_555 1_555
H41 C29 1_555 1_555
C30 C23 1_555 1_555
H42 C30 1_555 1_555
H43 C30 1_555 1_555
C31 C26 1_555 1_555
H44 C31 1_555 1_555
H45 C31 1_555 1_555
C32 C24 1_555 1_555
H46 C32 1_555 1_555
H47 C32 1_555 1_555
H48 C32 1_555 1_555
C33 C24 1_555 1_555
H49 C33 1_555 1_555
H50 C33 1_555 1_555
C34 C33 1_555 1_555
H51 C34 1_555 1_555
H52 C34 1_555 1_555
C35 C22 1_555 1_555
H53 C35 1_555 1_555
H54 C35 1_555 1_555
C36 C25 1_555 1_555
H55 C36 1_555 1_555
H56 C36 1_555 1_555
C37 O7 1_555 1_555
H57 C37 1_555 1_555
C38 C27 1_555 1_555
H58 C38 1_555 1_555
C39 O8 1_555 1_555
H59 C39 1_555 1_555
H60 C39 1_555 1_555
C40 C22 1_555 1_555
H61 C40 1_555 1_555
H62 C40 1_555 1_555
H63 C40 1_555 1_555
H64 O5 1_555 1_555
C8 C9 1_555 1_555
C8 C14 1_555 1_555
C12 C13 1_555 1_555
C13 C18 1_555 1_555
C14 C16 1_555 1_555
C17 C18 1_555 1_555
C28 C37 1_555 1_555
C28 C38 1_555 1_555
C30 C31 1_555 1_555
C34 C35 1_555 1_555
C36 C37 1_555 1_555
C38 C39 1_555 1_555

#END
