
#######################################################################
#
#                 Cambridge Crystallographic Data Centre
#                                CCDC 
#
#######################################################################
#
# If this CIF has been generated from an entry in the Cambridge 
# Structural Database, then it will include bibliographic, chemical, 
# crystal, experimental, refinement or atomic coordinate data resulting 
# from the CCDC's data processing and validation procedures.
#
#######################################################################

data_AMECIF
_chemical_name_common            
'1-Butyl-3-(methyl 2,3,4-tri-O-benzoyl-6-deoxy-alpha-D-glucopyrano-6-yl)-imidazolium bromide dichloromethane solvate'
_chemical_formula_moiety         'C35 H37 N2 O8 1+,Br1 1-,C1 H2 Cl2'
_chemical_name_systematic        
'1-Butyl-3-((3,4,5-tris(benzoyloxy)-6-methoxytetrahydro-2H-pyran-2-yl)methyl)-1H-imidazol-3-ium bromide dichloromethane solvate'
_symmetry_cell_setting           monoclinic
_symmetry_space_group_name_H-M   'P 21'
_symmetry_Int_Tables_number      4
_space_group_name_Hall           'P 2yb'
loop_
_symmetry_equiv_pos_site_id
_symmetry_equiv_pos_as_xyz
1 x,y,z
2 -x,1/2+y,-z
_cell_length_a                   14.7543(3)
_cell_length_b                   9.0670(2)
_cell_length_c                   14.9153(3)
_cell_angle_alpha                90
_cell_angle_beta                 112.6526(14)
_cell_angle_gamma                90
_cell_volume                     1841.4
_exptl_crystal_colour            colorless
_exptl_crystal_description       plate
_cell_formula_units_Z            2
loop_
_atom_site_label
_atom_site_type_symbol
_atom_site_fract_x
_atom_site_fract_y
_atom_site_fract_z
Br1 Br 0.40240(14) -0.1735(2) 0.34891(15)
N1 N 0.3826(4) 0.2517(6) 0.4362(4)
N2 N 0.3798(4) 0.3019(7) 0.2949(4)
O1 O 0.2070(3) 0.1227(5) 0.4360(3)
O2 O 0.0861(3) 0.2965(4) 0.4249(3)
O3 O -0.0056(3) 0.1056(5) 0.5057(3)
O4 O -0.0741(3) -0.0403(6) 0.3755(3)
O5 O 0.1561(3) 0.0032(5) 0.6723(2)
O6 O 0.1600(6) 0.1725(6) 0.7849(4)
O7 O 0.3242(3) 0.1940(5) 0.6963(3)
O8 O 0.4476(3) 0.0326(6) 0.7375(3)
C1 C 0.1083(4) 0.1476(7) 0.4238(4)
H1 H 0.0642 0.1043 0.3603
C2 C 0.0892(3) 0.0690(7) 0.5061(4)
H2 H 0.0933 -0.0401 0.4984
C3 C 0.1624(4) 0.1144(7) 0.6059(4)
H3 H 0.1455 0.2137 0.6242
C4 C 0.2683(4) 0.1127(7) 0.6107(4)
H4 H 0.2930 0.0091 0.6159
C5 C 0.2758(4) 0.1881(7) 0.5238(4)
H5 H 0.2610 0.2955 0.5251
C6 C 0.0937(4) 0.3766(8) 0.3447(4)
H6 H 0.1631 0.3917 0.3563
H7 H 0.0612 0.4725 0.3385
H8 H 0.0619 0.3202 0.2846
C7 C -0.0830(4) 0.0452(8) 0.4331(5)
C8 C -0.1787(4) 0.0991(8) 0.4347(5)
C9 C -0.2631(5) 0.0536(10) 0.3586(6)
H9 H -0.2619 -0.0111 0.3089
C10 C -0.3562(5) 0.1151(14) 0.3614(10)
H10 H -0.4174 0.0887 0.3120
C11 C -0.3545(8) 0.2072(13) 0.4327(12)
H11 H -0.4146 0.2467 0.4314
C12 C -0.2736(5) 0.2433(10) 0.5026(8)
H12 H -0.2760 0.3060 0.5527
C13 C -0.1816(5) 0.1921(9) 0.5069(7)
H13 H -0.1228 0.2212 0.5586
C14 C 0.1538(5) 0.0460(9) 0.7585(5)
C15 C 0.1511(6) -0.0847(9) 0.8172(5)
C16 C 0.1537(5) -0.2264(8) 0.7881(5)
H14 H 0.1604 -0.2437 0.7281
C17 C 0.1469(7) -0.3459(11) 0.8425(6)
H15 H 0.1633 -0.4422 0.8287
C18 C 0.1169(15) -0.323(2) 0.9144(13)
H16 H 0.1008 -0.4044 0.9456
C19 C 0.1090(12) -0.179(2) 0.9441(12)
H17 H 0.0976 -0.1634 1.0019
C20 C 0.1174(10) -0.0600(17) 0.8914(9)
H18 H 0.1009 0.0364 0.9050
C21 C 0.4124(5) 0.1407(9) 0.7565(4)
C22 C 0.4599(8) 0.2369(14) 0.8358(9)
C23 C 0.5647(9) 0.2264(15) 0.8799(9)
H19 H 0.6023 0.1680 0.8539
C24 C 0.6088(10) 0.3147(18) 0.9691(10)
H20 H 0.6780 0.3165 1.0037
C25 C 0.5487(13) 0.394(2) 1.0014(13)
H21 H 0.5784 0.4403 1.0630
C26 C 0.4549(15) 0.411(3) 0.9561(14)
H22 H 0.4203 0.4805 0.9790
C27 C 0.4044(11) 0.326(2) 0.8712(11)
H23 H 0.3349 0.3289 0.8399
C28 C 0.3766(4) 0.1686(7) 0.5188(4)
H24 H 0.4282 0.2039 0.5800
H25 H 0.3885 0.0626 0.5114
C29 C 0.3734(5) 0.1935(8) 0.3528(5)
H26 H 0.3638 0.0918 0.3364
C30 C 0.3930(5) 0.4006(8) 0.4317(6)
H27 H 0.4009 0.4693 0.4823
C31 C 0.3899(5) 0.4326(8) 0.3425(6)
H28 H 0.3940 0.5278 0.3177
C32 C 0.3760(6) 0.2794(11) 0.1938(5)
H29 H 0.4250 0.3446 0.1837
H30 H 0.3942 0.1762 0.1869
C33 C 0.2767(7) 0.3110(18) 0.1169(9)
H31 H 0.2634 0.4176 0.1196
H32 H 0.2801 0.2919 0.0530
C34 C 0.1909(9) 0.2280(18) 0.1206(10)
H33 H 0.2015 0.1212 0.1149
H34 H 0.1867 0.2450 0.1845
C35 C 0.0963(12) 0.272(3) 0.0422(12)
H35 H 0.0695 0.3582 0.0633
H36 H 0.0495 0.1901 0.0285
H37 H 0.1075 0.2966 -0.0166
C36 C 0.146(2) 0.789(4) 0.2318(19)
H38 H 0.1982 0.7821 0.2979
H39 H 0.1673 0.8618 0.1942
Cl1 Cl 0.1280(4) 0.6129(5) 0.1736(2)
Cl2 Cl 0.0457(5) 0.8376(9) 0.2373(4)
Br2? Br 0.39179(13) -0.1667(2) 0.29160(17)
C37? C 0.1743(17) -0.314(3) 0.9483(15)
C38? C 0.1879(18) -0.180(4) 0.9834(18)
C39? C 0.1883(18) -0.053(3) 0.9269(15)
C40? C 0.4408(11) 0.222(2) 0.8635(13)
C41? C 0.5423(11) 0.2245(19) 0.9176(11)
C42? C 0.5748(12) 0.307(2) 1.0103(11)
C43? C 0.5026(16) 0.374(3) 1.0287(16)
C44? C 0.4134(15) 0.397(2) 0.9670(13)
C45? C 0.3752(13) 0.312(2) 0.8813(12)
C46? C 0.3168(17) 0.146(2) 0.149(2)
C47? C 0.2075(18) 0.157(4) 0.104(3)
C48? C 0.172(2) 0.275(4) 0.027(2)
Cl3? Cl 0.0772(7) 0.9412(12) 0.1849(6)
H40? H 0.1257 -0.4405 0.8150
H41? H 0.1822 -0.3939 0.9917
H42? H 0.1980 -0.1659 1.0497
H43? H 0.2094 0.0416 0.9543
H44? H 0.5874 0.1762 0.8961
H45? H 0.6418 0.3120 1.0536
H46? H 0.5183 0.4071 1.0933
H47? H 0.3743 0.4712 0.9796
H48? H 0.3081 0.3172 0.8385
H49? H 0.3492 0.3687 0.1542
H50? H 0.4433 0.2628 0.1964
H51? H 0.3390 0.1099 0.0979
H52? H 0.3338 0.0681 0.1995
H53? H 0.1829 0.1790 0.1560
H54? H 0.1799 0.0607 0.0753
H55? H 0.2200 0.2885 -0.0024
H56? H 0.1632 0.3674 0.0567
H57? H 0.1088 0.2443 -0.0227
H58? H 0.2161 0.8152 0.2480
H59? H 0.1404 0.7696 0.2946
loop_
_geom_bond_atom_site_label_1
_geom_bond_atom_site_label_2
_geom_bond_site_symmetry_1
_geom_bond_site_symmetry_2
N1 C28 1_555 1_555
N2 C29 1_555 1_555
O1 C1 1_555 1_555
O2 C1 1_555 1_555
O3 C2 1_555 1_555
O4 C7 1_555 1_555
O5 C3 1_555 1_555
O6 C14 1_555 1_555
O7 C4 1_555 1_555
O8 C21 1_555 1_555
C1 H1 1_555 1_555
C2 C1 1_555 1_555
H2 C2 1_555 1_555
C3 C2 1_555 1_555
H3 C3 1_555 1_555
C4 C3 1_555 1_555
H4 C4 1_555 1_555
C5 O1 1_555 1_555
H5 C5 1_555 1_555
C6 O2 1_555 1_555
H6 C6 1_555 1_555
H7 C6 1_555 1_555
H8 C6 1_555 1_555
C7 O3 1_555 1_555
C8 C7 1_555 1_555
C9 C8 1_555 1_555
H9 C9 1_555 1_555
C10 C9 1_555 1_555
H10 C10 1_555 1_555
C11 C10 1_555 1_555
H11 C11 1_555 1_555
C12 C11 1_555 1_555
H12 C12 1_555 1_555
C13 C8 1_555 1_555
H13 C13 1_555 1_555
C14 O5 1_555 1_555
C15 C14 1_555 1_555
C16 C15 1_555 1_555
H14 C16 1_555 1_555
C17 C16 1_555 1_555
H15 C17 1_555 1_555
C18 C17 1_555 1_555
H16 C18 1_555 1_555
C19 C18 1_555 1_555
H17 C19 1_555 1_555
C20 C15 1_555 1_555
H18 C20 1_555 1_555
C21 O7 1_555 1_555
C22 C21 1_555 1_555
C23 C22 1_555 1_555
H19 C23 1_555 1_555
C24 C23 1_555 1_555
H20 C24 1_555 1_555
C25 C24 1_555 1_555
H21 C25 1_555 1_555
C26 C25 1_555 1_555
H22 C26 1_555 1_555
C27 C22 1_555 1_555
H23 C27 1_555 1_555
C28 C5 1_555 1_555
H24 C28 1_555 1_555
H25 C28 1_555 1_555
C29 N1 1_555 1_555
H26 C29 1_555 1_555
C30 N1 1_555 1_555
H27 C30 1_555 1_555
C31 N2 1_555 1_555
H28 C31 1_555 1_555
C32 N2 1_555 1_555
H29 C32 1_555 1_555
H30 C32 1_555 1_555
C33 C32 1_555 1_555
H31 C33 1_555 1_555
H32 C33 1_555 1_555
C34 C33 1_555 1_555
H33 C34 1_555 1_555
H34 C34 1_555 1_555
C35 C34 1_555 1_555
H35 C35 1_555 1_555
H36 C35 1_555 1_555
H37 C35 1_555 1_555
C36 H38 1_555 1_555
H39 C36 1_555 1_555
Cl1 C36 1_555 1_555
Cl2 C36 1_555 1_555
C4 C5 1_555 1_555
C12 C13 1_555 1_555
C19 C20 1_555 1_555
C26 C27 1_555 1_555
C30 C31 1_555 1_555

#END
