
#######################################################################
#
#                 Cambridge Crystallographic Data Centre
#                                CCDC 
#
#######################################################################
#
# If this CIF has been generated from an entry in the Cambridge 
# Structural Database, then it will include bibliographic, chemical, 
# crystal, experimental, refinement or atomic coordinate data resulting 
# from the CCDC's data processing and validation procedures.
#
#######################################################################

data_AMECAX
_chemical_name_common            
'1-Methyl-3-(methyl 2,3,4-tri-O-benzoyl-6-deoxy-alpha-D-glucopyrano-6-yl)-imidazolium iodide monohydrate'
_chemical_formula_moiety         'C32 H31 N2 O8 1+,H2 O1,I1 1-'
_chemical_name_systematic        
'1-Methyl-3-((3,4,5-tris(benzoyloxy)-6-methoxytetrahydro-2H-pyran-2-yl)methyl)-1H-imidazol-3-ium iodide monohydrate'
_symmetry_cell_setting           monoclinic
_symmetry_space_group_name_H-M   'P 21'
_symmetry_Int_Tables_number      4
_space_group_name_Hall           'P 2yb'
loop_
_symmetry_equiv_pos_site_id
_symmetry_equiv_pos_as_xyz
1 x,y,z
2 -x,1/2+y,-z
_cell_length_a                   8.6829(5)
_cell_length_b                   9.3208(5)
_cell_length_c                   21.0520(11)
_cell_angle_alpha                90
_cell_angle_beta                 100.6580(10)
_cell_angle_gamma                90
_cell_volume                     1674.38
_exptl_crystal_colour            colorless
_exptl_crystal_description       needle
_cell_formula_units_Z            2
loop_
_atom_site_label
_atom_site_type_symbol
_atom_site_fract_x
_atom_site_fract_y
_atom_site_fract_z
O1 O 1.1912(6) 0.4152(5) 0.3522(2)
O2 O 1.0669(6) 0.6499(5) 0.2135(2)
O3 O 1.0338(6) 0.8570(6) 0.2650(2)
O4 O 0.8049(5) 0.4599(5) 0.2077(2)
O5 O 0.8640(6) 0.4292(8) 0.1090(2)
O6 O 0.8830(6) 0.1966(5) 0.2551(2)
O7 O 0.8517(7) 0.0883(6) 0.3473(2)
O8 O 1.2107(6) 0.2359(6) 0.2751(3)
N1 N 1.2159(8) 0.6858(7) 0.4055(3)
N2 N 1.0740(9) 0.7731(9) 0.4691(3)
C1 C 1.2038(7) 0.5278(11) 0.3086(3)
H1 H 1.2745 0.4954 0.2789
C2 C 1.0438(7) 0.5649(7) 0.2674(3)
H2 H 0.9761 0.6161 0.2937
C3 C 0.9655(7) 0.4308(8) 0.2380(3)
H3 H 1.0240 0.3933 0.2048
C4 C 0.9603(8) 0.3165(8) 0.2886(3)
H4 H 0.8981 0.3522 0.3209
C5 C 1.1303(8) 0.2859(8) 0.3229(3)
H5 H 1.1307 0.2104 0.3567
C6 C 1.2835(9) 0.6530(8) 0.3492(3)
H6 H 1.3958 0.6299 0.3635
H7 H 1.2770 0.7396 0.3215
C7 C 1.0970(9) 0.7684(10) 0.4089(3)
H8 H 1.0360 0.8178 0.3735
C8 C 0.9443(15) 0.8532(17) 0.4915(5)
H9 H 0.9064 0.7974 0.5249
H10 H 0.8582 0.8685 0.4549
H11 H 0.9836 0.9462 0.5093
C9 C 1.187(2) 0.6909(11) 0.5044(5)
H12 H 1.1996 0.6755 0.5497
C10 C 1.2782(19) 0.6342(12) 0.4654(4)
H13 H 1.3660 0.5725 0.4771
C11 C 1.0522(7) 0.7958(7) 0.2167(3)
C12 C 1.0679(7) 0.8653(8) 0.1549(3)
C13 C 1.0659(8) 1.0132(10) 0.1521(3)
H14 H 1.0516 1.0674 0.1888
C14 C 1.0846(10) 1.0823(8) 0.0966(3)
H15 H 1.0864 1.1841 0.0953
C15 C 1.1008(8) 1.0034(8) 0.0422(3)
H16 H 1.1133 1.0520 0.0038
C16 C 1.0990(9) 0.8575(9) 0.0433(3)
H17 H 1.1099 0.8045 0.0059
C17 C 1.0811(9) 0.7861(9) 0.0996(3)
H18 H 1.0778 0.6843 0.1005
C18 C 0.7697(8) 0.4475(9) 0.1438(3)
C19 C 0.5964(8) 0.4468(9) 0.1212(3)
C20 C 0.5374(10) 0.4673(14) 0.0551(4)
H19 H 0.6070 0.4824 0.0258
C21 C 0.3808(11) 0.4652(14) 0.0334(4)
H20 H 0.3409 0.4816 -0.0112
C22 C 0.2782(9) 0.4400(10) 0.0747(4)
H21 H 0.1686 0.4367 0.0587
C23 C 0.3357(9) 0.4195(10) 0.1392(4)
H22 H 0.2654 0.4041 0.1682
C24 C 0.4935(8) 0.4212(8) 0.1621(3)
H23 H 0.5324 0.4044 0.2067
C25 C 0.8194(8) 0.0950(8) 0.2896(3)
C26 C 0.7103(8) 0.0007(7) 0.2467(3)
C27 C 0.6475(8) 0.0373(12) 0.1839(3)
H24 H 0.6793 0.1236 0.1660
C28 C 0.5378(10) -0.0514(11) 0.1466(5)
H25 H 0.4896 -0.0218 0.1044
C29 C 0.4985(10) -0.1798(11) 0.1697(5)
H26 H 0.4271 -0.2420 0.1432
C30 C 0.5646(10) -0.2192(10) 0.2330(5)
H27 H 0.5379 -0.3084 0.2499
C31 C 0.6690(8) -0.1281(9) 0.2710(4)
H28 H 0.7126 -0.1545 0.3142
C32 C 1.3554(10) 0.1679(11) 0.2989(6)
H29 H 1.4250 0.2349 0.3263
H30 H 1.4039 0.1381 0.2625
H31 H 1.3375 0.0834 0.3243
I1 I 0.71200(6) 0.53428(7) 0.38951(2)
O9 O 0.666(2) 0.565(3) 0.5496(8)
H32 H 0.6507 0.5843 0.5043
H33 H 0.7553 0.5489 0.5631
loop_
_geom_bond_atom_site_label_1
_geom_bond_atom_site_label_2
_geom_bond_site_symmetry_1
_geom_bond_site_symmetry_2
O1 C1 1_555 1_555
O2 C2 1_555 1_555
O3 C11 1_555 1_555
O4 C3 1_555 1_555
O5 C18 1_555 1_555
O6 C4 1_555 1_555
O7 C25 1_555 1_555
O8 C5 1_555 1_555
N1 C6 1_555 1_555
N2 C7 1_555 1_555
C1 H1 1_555 1_555
C2 C1 1_555 1_555
H2 C2 1_555 1_555
C3 C2 1_555 1_555
H3 C3 1_555 1_555
C4 C3 1_555 1_555
H4 C4 1_555 1_555
C5 O1 1_555 1_555
H5 C5 1_555 1_555
C6 C1 1_555 1_555
H6 C6 1_555 1_555
H7 C6 1_555 1_555
C7 N1 1_555 1_555
H8 C7 1_555 1_555
C8 N2 1_555 1_555
H9 C8 1_555 1_555
H10 C8 1_555 1_555
H11 C8 1_555 1_555
C9 N2 1_555 1_555
H12 C9 1_555 1_555
C10 N1 1_555 1_555
H13 C10 1_555 1_555
C11 O2 1_555 1_555
C12 C11 1_555 1_555
C13 C12 1_555 1_555
H14 C13 1_555 1_555
C14 C13 1_555 1_555
H15 C14 1_555 1_555
C15 C14 1_555 1_555
H16 C15 1_555 1_555
C16 C15 1_555 1_555
H17 C16 1_555 1_555
C17 C12 1_555 1_555
H18 C17 1_555 1_555
C18 O4 1_555 1_555
C19 C18 1_555 1_555
C20 C19 1_555 1_555
H19 C20 1_555 1_555
C21 C20 1_555 1_555
H20 C21 1_555 1_555
C22 C21 1_555 1_555
H21 C22 1_555 1_555
C23 C22 1_555 1_555
H22 C23 1_555 1_555
C24 C19 1_555 1_555
H23 C24 1_555 1_555
C25 O6 1_555 1_555
C26 C25 1_555 1_555
C27 C26 1_555 1_555
H24 C27 1_555 1_555
C28 C27 1_555 1_555
H25 C28 1_555 1_555
C29 C28 1_555 1_555
H26 C29 1_555 1_555
C30 C29 1_555 1_555
H27 C30 1_555 1_555
C31 C26 1_555 1_555
H28 C31 1_555 1_555
C32 O8 1_555 1_555
H29 C32 1_555 1_555
H30 C32 1_555 1_555
H31 C32 1_555 1_555
O9 H32 1_555 1_555
H33 O9 1_555 1_555
C4 C5 1_555 1_555
C9 C10 1_555 1_555
C16 C17 1_555 1_555
C23 C24 1_555 1_555
C30 C31 1_555 1_555

#END
