
#######################################################################
#
#                 Cambridge Crystallographic Data Centre
#                                CCDC 
#
#######################################################################
#
# If this CIF has been generated from an entry in the Cambridge 
# Structural Database, then it will include bibliographic, chemical, 
# crystal, experimental, refinement or atomic coordinate data resulting 
# from the CCDC's data processing and validation procedures.
#
#######################################################################

data_AMICOO
_chemical_formula_moiety         'C18 H15 Br3 O2'
_chemical_name_systematic        
1,12-Dimethoxy-5,6,7-tribromo-5,6-dihydrodibenzo(a,c)cyclo-octene
_symmetry_cell_setting           triclinic
_symmetry_space_group_name_H-M   'P -1'
_symmetry_Int_Tables_number      2
_space_group_name_Hall           '-P 1'
loop_
_symmetry_equiv_pos_site_id
_symmetry_equiv_pos_as_xyz
1 x,y,z
2 -x,-y,-z
_cell_length_a                   9.420(4)
_cell_length_b                   11.697(5)
_cell_length_c                   9.226(3)
_cell_angle_alpha                106.56(3)
_cell_angle_beta                 96.68(4)
_cell_angle_gamma                112.08(3)
_cell_volume                     873.902
_exptl_crystal_colour            colorless
_exptl_crystal_description       prismatic
_chemical_melting_point          '453-471 K sublimation'
_cell_formula_units_Z            2
loop_
_atom_site_label
_atom_site_type_symbol
_atom_site_fract_x
_atom_site_fract_y
_atom_site_fract_z
Br1 Br 0.6095(2) 1.0833(1) 0.3685(2)
Br2 Br 0.4697(2) 0.8215(1) 0.0021(2)
Br3 Br 0.3201(1) 0.5316(1) 0.0708(2)
O1 O 0.9075(8) 0.7597(8) 0.6513(9)
O2 O 0.8653(8) 0.5584(7) 0.3465(9)
C1 C 0.808(1) 0.956(1) 0.352(1)
C2 C 0.659(1) 0.935(1) 0.310(1)
C3 C 0.513(1) 0.810(1) 0.208(1)
C4 C 0.518(1) 0.6825(10) 0.203(1)
C5 C 0.555(1) 0.6775(9) 0.365(1)
C6 C 0.713(1) 0.7153(9) 0.436(1)
C7 C 0.840(1) 0.7505(10) 0.350(1)
C8 C 0.880(1) 0.863(1) 0.311(1)
C9 C 0.437(1) 0.647(1) 0.446(1)
C10 C 0.481(1) 0.651(1) 0.595(1)
C11 C 0.633(1) 0.687(1) 0.670(1)
C12 C 0.752(1) 0.720(1) 0.589(1)
C13 C 0.956(1) 0.782(1) 0.813(1)
C14 C 0.919(1) 0.672(1) 0.309(1)
C15 C 1.038(1) 0.703(1) 0.234(1)
C16 C 1.080(1) 0.816(1) 0.204(1)
C17 C 1.004(1) 0.896(1) 0.242(1)
C18 C 0.933(1) 0.469(1) 0.297(2)
H1 H 0.9015 1.0534 0.3921
H2 H 0.4271 0.8133 0.2510
H3 H 0.6005 0.6759 0.1563
H4 H 0.3286 0.6228 0.4007
H5 H 0.3998 0.6261 0.6503
H6 H 0.6593 0.6882 0.7763
H7 H 0.9112 0.8299 0.8748
H8 H 0.9219 0.6957 0.8266
H9 H 1.0683 0.8241 0.8481
H10 H 1.0889 0.6484 0.2045
H11 H 1.1655 0.8447 0.1567
H12 H 1.0342 0.9736 0.2163
H13 H 1.0431 0.5107 0.3292
H14 H 0.8910 0.3958 0.3287
H15 H 0.9034 0.4330 0.1806
loop_
_geom_bond_atom_site_label_1
_geom_bond_atom_site_label_2
_geom_bond_site_symmetry_1
_geom_bond_site_symmetry_2
Br1 C2 1_555 1_555
Br2 C3 1_555 1_555
Br3 C4 1_555 1_555
O1 C12 1_555 1_555
O2 C14 1_555 1_555
C1 C2 1_555 1_555
C2 C3 1_555 1_555
C3 C4 1_555 1_555
C4 C5 1_555 1_555
C5 C6 1_555 1_555
C6 C7 1_555 1_555
C7 C8 1_555 1_555
C8 C1 1_555 1_555
C9 C5 1_555 1_555
C10 C9 1_555 1_555
C11 C10 1_555 1_555
C12 C6 1_555 1_555
C13 O1 1_555 1_555
C14 C7 1_555 1_555
C15 C14 1_555 1_555
C16 C15 1_555 1_555
C17 C8 1_555 1_555
C18 O2 1_555 1_555
H1 C1 1_555 1_555
H2 C3 1_555 1_555
H3 C4 1_555 1_555
H4 C9 1_555 1_555
H5 C10 1_555 1_555
H6 C11 1_555 1_555
H7 C13 1_555 1_555
H8 C13 1_555 1_555
H9 C13 1_555 1_555
H10 C15 1_555 1_555
H11 C16 1_555 1_555
H12 C17 1_555 1_555
H13 C18 1_555 1_555
H14 C18 1_555 1_555
H15 C18 1_555 1_555
C11 C12 1_555 1_555
C16 C17 1_555 1_555

#END
