
#######################################################################
#
#                 Cambridge Crystallographic Data Centre
#                                CCDC 
#
#######################################################################
#
# If this CIF has been generated from an entry in the Cambridge 
# Structural Database, then it will include bibliographic, chemical, 
# crystal, experimental, refinement or atomic coordinate data resulting 
# from the CCDC's data processing and validation procedures.
#
#######################################################################

data_AMIDIJ
_chemical_formula_moiety         'C24 H16 O2,2(C10 H8 N2)'
_chemical_name_systematic        
"(S)-1,16-Dihydroxytetraphenylene bis(4,4'-bipyridine)"
_symmetry_cell_setting           tetragonal
_symmetry_space_group_name_H-M   'P 43 21 2'
_symmetry_Int_Tables_number      96
_space_group_name_Hall           'P 4nw 2abw'
loop_
_symmetry_equiv_pos_site_id
_symmetry_equiv_pos_as_xyz
1 x,y,z
2 -x,-y,1/2+z
3 1/2-y,1/2+x,3/4+z
4 1/2+y,1/2-x,1/4+z
5 1/2-x,1/2+y,3/4-z
6 1/2+x,1/2-y,1/4-z
7 y,x,-z
8 -y,-x,1/2-z
_cell_length_a                   10.8989(6)
_cell_length_b                   10.8989(6)
_cell_length_c                   29.337(2)
_cell_angle_alpha                90
_cell_angle_beta                 90
_cell_angle_gamma                90
_cell_volume                     3484.83
_cell_formula_units_Z            4
loop_
_atom_site_label
_atom_site_type_symbol
_atom_site_fract_x
_atom_site_fract_y
_atom_site_fract_z
O1 O 0.71624(10) 0.54726(11) 1.02158(4)
C1 C 0.94732(19) 1.10761(17) 0.96811(7)
C2 C 0.9096(2) 1.15473(19) 0.92732(7)
C3 C 0.8580(2) 1.0800(2) 0.89523(8)
C4 C 0.84552(17) 0.95640(18) 0.90395(6)
C5 C 0.93899(18) 0.69410(17) 0.92288(6)
C6 C 0.9267(2) 0.56933(18) 0.92646(7)
C7 C 0.85180(17) 0.51863(16) 0.95893(7)
C8 C 0.78776(14) 0.59306(13) 0.98811(5)
C19 C 0.93541(15) 0.98326(14) 0.97813(5)
C20 C 0.88361(14) 0.90626(15) 0.94514(5)
C21 C 0.87421(14) 0.77125(15) 0.95187(5)
C22 C 0.79740(13) 0.72097(13) 0.98485(5)
H1 H 0.9860(18) 1.153(2) 0.9899(7)
H2 H 0.9161(19) 1.241(2) 0.9217(7)
H3 H 0.835(2) 1.1063(19) 0.8679(8)
H4 H 0.8087(16) 0.9027(17) 0.8799(6)
H5 H 0.9923(17) 0.7332(17) 0.9003(6)
H6 H 0.9657(18) 0.5202(18) 0.9060(6)
H7 H 0.8455(16) 0.4299(18) 0.9611(5)
H16 H 0.687(2) 0.466(2) 1.0133(7)
C19F C 0.98326(14) 0.93541(15) 1.02187(5)
C1F C 1.10761(17) 0.94732(19) 1.03189(7)
C2F C 1.15473(19) 0.9096(2) 1.07268(7)
C3F C 1.0800(2) 0.8580(2) 1.10477(8)
C4F C 0.95640(18) 0.84552(17) 1.09605(6)
C20F C 0.90626(15) 0.88361(14) 1.05486(5)
C21F C 0.77125(15) 0.87421(14) 1.04813(5)
C5F C 0.69410(17) 0.93899(18) 1.07712(6)
C6F C 0.56933(18) 0.9267(2) 1.07354(7)
C7F C 0.51863(16) 0.85180(17) 1.04107(7)
C8F C 0.59306(13) 0.78776(14) 1.01189(5)
O1F O 0.54726(11) 0.71624(10) 0.97842(4)
H16F H 0.466(2) 0.687(2) 0.9867(7)
C22F C 0.72097(13) 0.79740(13) 1.01515(5)
H7F H 0.4299(18) 0.8455(16) 1.0389(5)
H6F H 0.5202(18) 0.9657(18) 1.0940(6)
H5F H 0.7332(17) 0.9923(17) 1.0997(6)
H4F H 0.9027(17) 0.8087(16) 1.1201(6)
H3F H 1.1063(19) 0.835(2) 1.1321(8)
H2F H 1.241(2) 0.9161(19) 1.0783(7)
H1F H 1.153(2) 0.9860(18) 1.0101(7)
N1 N 0.61893(16) 0.33546(14) 0.99248(6)
N2 N 0.24562(19) -0.11886(17) 0.89110(6)
C9 C 0.5668(2) 0.12665(18) 0.98084(8)
C10 C 0.6368(2) 0.2174(2) 1.00017(9)
C11 C 0.5307(2) 0.36438(18) 0.96357(7)
C12 C 0.45583(19) 0.28055(16) 0.94302(6)
C13 C 0.47164(16) 0.15692(15) 0.95203(6)
C14 C 0.39325(16) 0.06204(16) 0.93111(6)
C15 C 0.4328(2) -0.05753(16) 0.92565(6)
C16 C 0.3576(2) -0.14201(19) 0.90578(7)
C17 C 0.2075(2) -0.0040(2) 0.89679(10)
C18 C 0.2764(2) 0.0876(2) 0.91615(8)
H8 H 0.582(2) 0.039(2) 0.9892(8)
H9 H 0.699(2) 0.197(2) 1.0247(8)
H10 H 0.5195(18) 0.449(2) 0.9565(7)
H11 H 0.386(2) 0.3082(19) 0.9238(7)
H12 H 0.516(2) -0.0803(18) 0.9359(6)
H13 H 0.390(2) -0.229(2) 0.9014(7)
H14 H 0.126(3) 0.022(3) 0.8817(12)
H15 H 0.245(2) 0.170(3) 0.9174(8)
loop_
_geom_bond_atom_site_label_1
_geom_bond_atom_site_label_2
_geom_bond_site_symmetry_1
_geom_bond_site_symmetry_2
O1 C8 1_555 1_555
N1 C10 1_555 1_555
N2 C16 1_555 1_555
C1 C2 1_555 1_555
C2 C3 1_555 1_555
C3 C4 1_555 1_555
C4 C20 1_555 1_555
C5 C6 1_555 1_555
C6 C7 1_555 1_555
C7 C8 1_555 1_555
C8 C22 1_555 1_555
C9 C10 1_555 1_555
C10 H9 1_555 1_555
C11 N1 1_555 1_555
C12 C11 1_555 1_555
C13 C9 1_555 1_555
C14 C13 1_555 1_555
C15 C14 1_555 1_555
C16 C15 1_555 1_555
C17 N2 1_555 1_555
C18 C14 1_555 1_555
C19 C1 1_555 1_555
C20 C19 1_555 1_555
C21 C5 1_555 1_555
C22 C21 1_555 1_555
H1 C1 1_555 1_555
H2 C2 1_555 1_555
H3 C3 1_555 1_555
H4 C4 1_555 1_555
H5 C5 1_555 1_555
H6 C6 1_555 1_555
H7 C7 1_555 1_555
H8 C9 1_555 1_555
H10 C11 1_555 1_555
H11 C12 1_555 1_555
H12 C15 1_555 1_555
H13 C16 1_555 1_555
H14 C17 1_555 1_555
H15 C18 1_555 1_555
H16 O1 1_555 1_555
C19F C19 1_555 1_555
C1F C19F 1_555 1_555
C2F C1F 1_555 1_555
C3F C2F 1_555 1_555
C4F C3F 1_555 1_555
C20F C19F 1_555 1_555
C21F C20F 1_555 1_555
C5F C21F 1_555 1_555
C6F C5F 1_555 1_555
C7F C6F 1_555 1_555
C8F C7F 1_555 1_555
O1F C8F 1_555 1_555
H16F O1F 1_555 1_555
C22F C22 1_555 1_555
H7F C7F 1_555 1_555
H6F C6F 1_555 1_555
H5F C5F 1_555 1_555
H4F C4F 1_555 1_555
H3F C3F 1_555 1_555
H2F C2F 1_555 1_555
H1F C1F 1_555 1_555
C12 C13 1_555 1_555
C17 C18 1_555 1_555
C20 C21 1_555 1_555
C4F C20F 1_555 1_555
C21F C22F 1_555 1_555
C8F C22F 1_555 1_555

#END
