
#######################################################################
#
#                 Cambridge Crystallographic Data Centre
#                                CCDC 
#
#######################################################################
#
# If this CIF has been generated from an entry in the Cambridge 
# Structural Database, then it will include bibliographic, chemical, 
# crystal, experimental, refinement or atomic coordinate data resulting 
# from the CCDC's data processing and validation procedures.
#
#######################################################################

data_AMIPET
_chemical_formula_moiety         'C14 H10 N4 O2'
_chemical_name_systematic        
'4-(3-(Pyridin-3-yl)-1H-1,2,4-triazol-5-yl)benzoic acid'
_symmetry_cell_setting           monoclinic
_symmetry_space_group_name_H-M   'P 21/c'
_symmetry_Int_Tables_number      14
_space_group_name_Hall           '-P 2ybc'
loop_
_symmetry_equiv_pos_site_id
_symmetry_equiv_pos_as_xyz
1 x,y,z
2 -x,1/2+y,1/2-z
3 -x,-y,-z
4 x,1/2-y,1/2+z
_cell_length_a                   11.750(18)
_cell_length_b                   8.194(13)
_cell_length_c                   12.91(2)
_cell_angle_alpha                90
_cell_angle_beta                 102.306(19)
_cell_angle_gamma                90
_cell_volume                     1214.41
_exptl_crystal_colour            colorless
_exptl_crystal_description       block
_cell_formula_units_Z            4
loop_
_atom_site_label
_atom_site_type_symbol
_atom_site_fract_x
_atom_site_fract_y
_atom_site_fract_z
N1 N 0.8217(2) 0.5696(3) 0.02612(16)
N2 N 0.7896(2) 0.5682(3) -0.14655(17)
H1 H 0.7572 0.5459 -0.2112
N3 N 0.8851(2) 0.6638(3) -0.11647(17)
N4 N 1.1655(2) 0.9188(3) 0.07575(18)
O1 O 0.33439(18) 0.0896(3) 0.03789(14)
H2 H 0.2780 0.0296 0.0355
O2 O 0.28857(18) 0.0532(3) -0.13668(15)
C1 C 0.3506(3) 0.1131(3) -0.0577(2)
C2 C 0.6248(2) 0.3588(4) 0.0307(2)
H3 H 0.6739 0.3886 0.0943
C3 C 0.4541(2) 0.2174(3) -0.0608(2)
C4 C 0.5754(3) 0.3637(4) -0.1588(2)
H4 H 0.5908 0.3968 -0.2233
C5 C 0.5285(2) 0.2648(4) 0.0322(2)
H5 H 0.5130 0.2325 0.0969
C6 C 0.4785(3) 0.2686(4) -0.1569(2)
H6 H 0.4291 0.2386 -0.2204
C7 C 0.6501(2) 0.4101(3) -0.0643(2)
C8 C 0.7527(2) 0.5131(3) -0.0614(2)
C9 C 0.9009(2) 0.6609(3) -0.0117(2)
C10 C 1.0818(2) 0.8292(4) 0.0167(2)
H7 H 1.0818 0.8165 -0.0549
C11 C 0.9940(2) 0.7532(3) 0.0568(2)
C12 C 0.9956(3) 0.7745(4) 0.1641(2)
H8 H 0.9387 0.7264 0.1943
C13 C 1.0824(3) 0.8678(4) 0.2255(2)
H9 H 1.0848 0.8832 0.2973
C14 C 1.1649(3) 0.9374(4) 0.1789(2)
H10 H 1.2231 1.0002 0.2206
loop_
_geom_bond_atom_site_label_1
_geom_bond_atom_site_label_2
_geom_bond_site_symmetry_1
_geom_bond_site_symmetry_2
N1 C8 1_555 1_555
N2 H1 1_555 1_555
N3 N2 1_555 1_555
N4 C10 1_555 1_555
O1 H2 1_555 1_555
O2 C1 1_555 1_555
C1 O1 1_555 1_555
C2 H3 1_555 1_555
C3 C1 1_555 1_555
C4 H4 1_555 1_555
C5 C2 1_555 1_555
H5 C5 1_555 1_555
C6 C3 1_555 1_555
H6 C6 1_555 1_555
C7 C2 1_555 1_555
C8 N2 1_555 1_555
C9 N1 1_555 1_555
C10 H7 1_555 1_555
C11 C9 1_555 1_555
C12 C11 1_555 1_555
H8 C12 1_555 1_555
C13 C12 1_555 1_555
H9 C13 1_555 1_555
C14 N4 1_555 1_555
H10 C14 1_555 1_555
N3 C9 1_555 1_555
C3 C5 1_555 1_555
C4 C6 1_555 1_555
C4 C7 1_555 1_555
C7 C8 1_555 1_555
C10 C11 1_555 1_555
C13 C14 1_555 1_555

#END
