
#######################################################################
#
#                 Cambridge Crystallographic Data Centre
#                                CCDC 
#
#######################################################################
#
# If this CIF has been generated from an entry in the Cambridge 
# Structural Database, then it will include bibliographic, chemical, 
# crystal, experimental, refinement or atomic coordinate data resulting 
# from the CCDC's data processing and validation procedures.
#
#######################################################################

data_AMIVUP
_chemical_formula_moiety         'C32 H20 N6,0.5(H2 O1)'
_chemical_name_systematic        
"3,3'-bis(5H-Pyrido[2',3':4,5]pyrrolo[2,3-b]pyridin-5-yl)biphenyl hemihydrate"
_symmetry_cell_setting           tetragonal
_symmetry_space_group_name_H-M   'I -4'
_symmetry_Int_Tables_number      82
_space_group_name_Hall           'I -4'
loop_
_symmetry_equiv_pos_site_id
_symmetry_equiv_pos_as_xyz
1 x,y,z
2 -x,-y,z
3 y,-x,-z
4 -y,x,-z
5 1/2+x,1/2+y,1/2+z
6 1/2-x,1/2-y,1/2+z
7 1/2+y,1/2-x,1/2-z
8 1/2-y,1/2+x,1/2-z
_cell_length_a                   18.517(3)
_cell_length_b                   18.517(3)
_cell_length_c                   7.2125(14)
_cell_angle_alpha                90
_cell_angle_beta                 90
_cell_angle_gamma                90
_cell_volume                     2473.02
_exptl_crystal_colour            colorless
_exptl_crystal_description       block
_cell_formula_units_Z            4
loop_
_atom_site_label
_atom_site_type_symbol
_atom_site_fract_x
_atom_site_fract_y
_atom_site_fract_z
C1 C 0.37349(15) -0.04813(15) 0.1722(4)
H1 H 0.4128 -0.0788 0.1877
C2 C 0.31859(15) -0.05027(14) 0.2997(5)
H2 H 0.3221 -0.0821 0.3991
C3 C 0.25892(13) -0.00720(14) 0.2856(4)
H3 H 0.2220 -0.0086 0.3729
C4 C 0.25646(12) 0.03854(13) 0.1342(3)
C5 C 0.31299(12) 0.04171(13) 0.0061(4)
C6 C 0.29364(12) 0.09479(13) -0.1297(3)
C7 C 0.32474(14) 0.11882(14) -0.2937(4)
H4 H 0.3693 0.1013 -0.3324
C8 C 0.28835(17) 0.16867(17) -0.3967(4)
H5 H 0.3087 0.1858 -0.5061
C9 C 0.22119(17) 0.19421(15) -0.3403(4)
H6 H 0.1977 0.2283 -0.4135
C10 C 0.22569(12) 0.12188(12) -0.0780(3)
C11 C 0.13327(11) 0.09238(13) 0.1637(3)
C12 C 0.09265(12) 0.03009(12) 0.1817(3)
H7 H 0.1126 -0.0142 0.1485
C13 C 0.02228(11) 0.03297(11) 0.2490(3)
C14 C -0.00593(12) 0.10040(12) 0.2993(3)
H8 H -0.0527 0.1036 0.3456
C15 C 0.03505(13) 0.16162(13) 0.2806(3)
H9 H 0.0154 0.2059 0.3144
C16 C 0.10476(13) 0.15908(12) 0.2129(3)
H10 H 0.1320 0.2010 0.2006
N1 N 0.37243(12) -0.00265(13) 0.0234(4)
N2 N 0.20401(10) 0.08833(10) 0.0849(3)
N3 N 0.18822(13) 0.17090(12) -0.1801(4)
C1A C -0.37349(15) 0.04813(15) 0.1722(4)
H1A H -0.4128 0.0788 0.1877
C2A C -0.31859(15) 0.05027(14) 0.2997(5)
H2A H -0.3221 0.0821 0.3991
C3A C -0.25892(13) 0.00720(14) 0.2856(4)
H3A H -0.2220 0.0086 0.3729
C4A C -0.25646(12) -0.03854(13) 0.1342(3)
C5A C -0.31299(12) -0.04171(13) 0.0061(4)
C6A C -0.29364(12) -0.09479(13) -0.1297(3)
C7A C -0.32474(14) -0.11882(14) -0.2937(4)
H4A H -0.3693 -0.1013 -0.3324
C8A C -0.28835(17) -0.16867(17) -0.3967(4)
H5A H -0.3087 -0.1858 -0.5061
C9A C -0.22119(17) -0.19421(15) -0.3403(4)
H6A H -0.1977 -0.2283 -0.4135
C10A C -0.22569(12) -0.12188(12) -0.0780(3)
C11A C -0.13327(11) -0.09238(13) 0.1637(3)
C12A C -0.09265(12) -0.03009(12) 0.1817(3)
H7A H -0.1126 0.0142 0.1485
C13A C -0.02228(11) -0.03297(11) 0.2490(3)
C14A C 0.00593(12) -0.10040(12) 0.2993(3)
H8A H 0.0527 -0.1036 0.3456
C15A C -0.03505(13) -0.16162(13) 0.2806(3)
H9A H -0.0154 -0.2059 0.3144
C16A C -0.10476(13) -0.15908(12) 0.2129(3)
H10A H -0.1320 -0.2010 0.2006
N1A N -0.37243(12) 0.00265(13) 0.0234(4)
N2A N -0.20401(10) -0.08833(10) 0.0849(3)
N3A N -0.18822(13) -0.17090(12) -0.1801(4)
O1 O 0.5000 0.0000 -0.2500
loop_
_geom_bond_atom_site_label_1
_geom_bond_atom_site_label_2
_geom_bond_site_symmetry_1
_geom_bond_site_symmetry_2
C1 H1 1_555 1_555
C2 C1 1_555 1_555
H2 C2 1_555 1_555
C3 C2 1_555 1_555
H3 C3 1_555 1_555
C4 C3 1_555 1_555
C5 C4 1_555 1_555
C6 C5 1_555 1_555
C7 C6 1_555 1_555
H4 C7 1_555 1_555
C8 C7 1_555 1_555
H5 C8 1_555 1_555
C9 C8 1_555 1_555
H6 C9 1_555 1_555
C10 C6 1_555 1_555
C11 C12 1_555 1_555
C12 H7 1_555 1_555
C13 C12 1_555 1_555
C14 C13 1_555 1_555
H8 C14 1_555 1_555
C15 C14 1_555 1_555
H9 C15 1_555 1_555
C16 C11 1_555 1_555
H10 C16 1_555 1_555
N1 C1 1_555 1_555
N2 C4 1_555 1_555
N3 C9 1_555 1_555
C1A H1A 1_555 1_555
C2A C1A 1_555 1_555
H2A C2A 1_555 1_555
C3A C2A 1_555 1_555
H3A C3A 1_555 1_555
C4A C3A 1_555 1_555
C5A C4A 1_555 1_555
C6A C5A 1_555 1_555
C7A C6A 1_555 1_555
H4A C7A 1_555 1_555
C8A C7A 1_555 1_555
H5A C8A 1_555 1_555
C9A C8A 1_555 1_555
H6A C9A 1_555 1_555
C10A C6A 1_555 1_555
C11A C12A 1_555 1_555
C12A H7A 1_555 1_555
C13A C13 1_555 1_555
C14A C13A 1_555 1_555
H8A C14A 1_555 1_555
C15A C14A 1_555 1_555
H9A C15A 1_555 1_555
C16A C11A 1_555 1_555
H10A C16A 1_555 1_555
N1A C1A 1_555 1_555
N2A C4A 1_555 1_555
N3A C9A 1_555 1_555
C5 N1 1_555 1_555
C10 N2 1_555 1_555
C10 N3 1_555 1_555
C11 N2 1_555 1_555
C15 C16 1_555 1_555
C5A N1A 1_555 1_555
C10A N2A 1_555 1_555
C10A N3A 1_555 1_555
C11A N2A 1_555 1_555
C12A C13A 1_555 1_555
C15A C16A 1_555 1_555

#END
