
#######################################################################
#
#                 Cambridge Crystallographic Data Centre
#                                CCDC 
#
#######################################################################
#
# If this CIF has been generated from an entry in the Cambridge 
# Structural Database, then it will include bibliographic, chemical, 
# crystal, experimental, refinement or atomic coordinate data resulting 
# from the CCDC's data processing and validation procedures.
#
#######################################################################

data_AMIXIF
_chemical_formula_moiety         'C33 H43 B1 F2 N4 Na1 O5'
_chemical_name_systematic        
'(3,3-difluoro-4-mesityl-6-(4-methylphenyl)-2-phenyl-2,3-dihydro-1,2,4,5,3-tetrazaborinine radical anion)-(1,4,7,10,13-pentaoxacyclopentadecane)-sodium'
_symmetry_cell_setting           monoclinic
_symmetry_space_group_name_H-M   'P 21'
_symmetry_Int_Tables_number      4
_space_group_name_Hall           'P 2yb'
loop_
_symmetry_equiv_pos_site_id
_symmetry_equiv_pos_as_xyz
1 x,y,z
2 -x,1/2+y,-z
_cell_length_a                   11.0275(9)
_cell_length_b                   12.8604(9)
_cell_length_c                   23.3615(18)
_cell_angle_alpha                90
_cell_angle_beta                 93.306(2)
_cell_angle_gamma                90
_cell_volume                     3307.57
_exptl_crystal_colour            green
_exptl_crystal_description       block
_cell_formula_units_Z            4
loop_
_atom_site_label
_atom_site_type_symbol
_atom_site_fract_x
_atom_site_fract_y
_atom_site_fract_z
F1 F 0.08818(14) 0.08107(13) 0.33419(6)
F2 F 0.06708(14) 0.01405(13) 0.42131(6)
N1 N 0.1257(2) -0.1041(2) 0.34564(9)
N2 N 0.2198(2) -0.1469(2) 0.31743(10)
N3 N 0.3594(2) -0.0174(2) 0.35703(9)
N4 N 0.2695(2) 0.02147(19) 0.38901(9)
C1 C 0.0170(3) -0.1620(2) 0.33887(11)
C2 C -0.0944(3) -0.1150(3) 0.34695(12)
H1 H -0.0974 -0.0430 0.3559
C3 C -0.2007(3) -0.1722(3) 0.34213(12)
H2 H -0.2760 -0.1391 0.3480
C4 C -0.1987(3) -0.2771(3) 0.32879(12)
H3 H -0.2718 -0.3164 0.3257
C5 C -0.0884(3) -0.3235(3) 0.32013(13)
H4 H -0.0861 -0.3953 0.3107
C6 C 0.0190(3) -0.2676(3) 0.32485(12)
H5 H 0.0939 -0.3010 0.3186
C7 C 0.3262(2) -0.0970(2) 0.32281(11)
C8 C 0.4213(3) -0.1359(2) 0.28575(11)
C9 C 0.4187(3) -0.2370(3) 0.26466(12)
H6 H 0.3551 -0.2825 0.2742
C10 C 0.5079(3) -0.2721(3) 0.22984(13)
H7 H 0.5056 -0.3421 0.2168
C11 C 0.6002(3) -0.2072(3) 0.21365(12)
C12 C 0.6014(3) -0.1063(3) 0.23395(13)
H8 H 0.6637 -0.0601 0.2235
C13 C 0.5131(3) -0.0711(3) 0.26934(12)
H9 H 0.5157 -0.0012 0.2825
C14 C 0.6989(3) -0.2459(3) 0.17683(15)
H10 H 0.7780 -0.2215 0.1927
H11 H 0.6846 -0.2193 0.1377
H12 H 0.6982 -0.3221 0.1762
C15 C 0.3149(2) 0.0990(2) 0.42935(11)
C16 C 0.3149(2) 0.0788(2) 0.48835(11)
C17 C 0.3662(3) 0.1525(2) 0.52620(12)
H13 H 0.3653 0.1398 0.5662
C18 C 0.4184(2) 0.2436(2) 0.50766(12)
C19 C 0.4150(2) 0.2617(2) 0.44882(12)
H14 H 0.4495 0.3240 0.4352
C20 C 0.3627(2) 0.1915(2) 0.40940(12)
C21 C 0.2642(3) -0.0209(3) 0.51148(12)
H15 H 0.3151 -0.0439 0.5449
H16 H 0.2634 -0.0747 0.4817
H17 H 0.1812 -0.0089 0.5229
C22 C 0.4798(3) 0.3182(3) 0.55016(13)
H18 H 0.4857 0.3869 0.5325
H19 H 0.5615 0.2926 0.5614
H20 H 0.4321 0.3233 0.5842
C23 C 0.3596(3) 0.2164(3) 0.34603(11)
H21 H 0.3797 0.2899 0.3408
H22 H 0.2782 0.2024 0.3287
H23 H 0.4190 0.1729 0.3275
B1 B 0.1366(3) 0.0029(3) 0.37314(13)
Na1 Na -0.04280(10) 0.17105(9) 0.39494(4)
O1 O -0.03713(18) 0.28147(17) 0.47477(8)
O2 O -0.17346(18) 0.10029(16) 0.47208(8)
O3 O -0.24482(18) 0.11821(17) 0.35589(8)
O4 O -0.10214(18) 0.26860(18) 0.30996(9)
O5 O 0.08682(18) 0.32715(18) 0.38131(8)
C24 C -0.0758(3) 0.2345(3) 0.52568(13)
H24 H -0.0851 0.2881 0.5556
H25 H -0.0147 0.1832 0.5404
C25 C -0.1943(3) 0.1820(3) 0.51190(13)
H26 H -0.2268 0.1531 0.5472
H27 H -0.2539 0.2323 0.4948
C26 C -0.2822(3) 0.0535(3) 0.44826(13)
H28 H -0.3426 0.0508 0.4780
H29 H -0.2644 -0.0189 0.4369
C27 C -0.3361(3) 0.1116(3) 0.39667(14)
H30 H -0.4082 0.0742 0.3799
H31 H -0.3616 0.1822 0.4080
C28 C -0.2852(3) 0.1753(3) 0.30564(13)
H32 H -0.3272 0.2397 0.3165
H33 H -0.3424 0.1327 0.2813
C29 C -0.1746(3) 0.2014(3) 0.27362(13)
H34 H -0.1290 0.1374 0.2651
H35 H -0.1984 0.2366 0.2370
C30 C 0.0064(3) 0.3036(3) 0.28551(13)
H36 H -0.0129 0.3382 0.2482
H37 H 0.0615 0.2444 0.2794
C31 C 0.0640(3) 0.3786(3) 0.32760(14)
H38 H 0.1413 0.4047 0.3134
H39 H 0.0094 0.4387 0.3324
C32 C 0.0936(3) 0.3954(3) 0.42964(14)
H40 H 0.0292 0.4489 0.4254
H41 H 0.1734 0.4310 0.4325
C33 C 0.0777(3) 0.3326(3) 0.48219(13)
H42 H 0.1439 0.2808 0.4875
H43 H 0.0795 0.3782 0.5164
F3 F 0.92222(16) 0.34098(15) 0.06005(8)
F4 F 0.91672(16) 0.24495(15) 0.14073(10)
N5 N 0.8847(2) 0.42911(19) 0.14928(9)
N6 N 0.8011(2) 0.4563(2) 0.18784(10)
N7 N 0.6489(2) 0.3457(2) 0.14074(9)
N8 N 0.7284(2) 0.32132(19) 0.10021(9)
C34 C 0.9923(3) 0.4869(3) 0.15517(11)
C35 C 0.9956(3) 0.5833(3) 0.18247(13)
H44 H 0.9242 0.6098 0.1981
C36 C 1.1022(3) 0.6409(3) 0.18699(14)
H45 H 1.1031 0.7062 0.2061
C37 C 1.2069(3) 0.6046(3) 0.16406(13)
H46 H 1.2791 0.6451 0.1663
C38 C 1.2043(3) 0.5089(3) 0.13801(13)
H47 H 1.2761 0.4826 0.1227
C39 C 1.0995(3) 0.4501(3) 0.13371(13)
H48 H 1.1004 0.3837 0.1159
C40 C 0.6933(2) 0.4087(2) 0.18235(11)
C41 C 0.6101(3) 0.4354(2) 0.22809(11)
C42 C 0.4843(3) 0.4336(2) 0.21868(12)
H49 H 0.4495 0.4114 0.1826
C43 C 0.4092(3) 0.4639(2) 0.26126(12)
H50 H 0.3236 0.4630 0.2536
C44 C 0.4564(3) 0.4954(2) 0.31487(12)
C45 C 0.5819(3) 0.4929(3) 0.32478(12)
H51 H 0.6163 0.5116 0.3616
C46 C 0.6577(3) 0.4640(2) 0.28256(12)
H52 H 0.7431 0.4635 0.2906
C47 C 0.3750(3) 0.5328(3) 0.36056(13)
H53 H 0.4173 0.5864 0.3839
H54 H 0.3546 0.4742 0.3851
H55 H 0.3003 0.5620 0.3423
C48 C 0.6752(2) 0.2558(2) 0.05581(12)
C49 C 0.6603(3) 0.2932(2) -0.00053(12)
C50 C 0.6042(3) 0.2285(3) -0.04225(12)
H56 H 0.5931 0.2539 -0.0804
C51 C 0.5643(3) 0.1294(3) -0.03046(12)
C52 C 0.5837(3) 0.0937(2) 0.02555(13)
H57 H 0.5583 0.0253 0.0345
C53 C 0.6388(2) 0.1542(2) 0.06885(12)
C54 C 0.7016(3) 0.4000(3) -0.01694(14)
H58 H 0.6447 0.4286 -0.0466
H59 H 0.7828 0.3956 -0.0317
H60 H 0.7041 0.4453 0.0168
C55 C 0.4998(3) 0.0632(3) -0.07589(13)
H61 H 0.5213 -0.0100 -0.0694
H62 H 0.5244 0.0846 -0.1138
H63 H 0.4118 0.0718 -0.0741
C56 C 0.6584(3) 0.1104(3) 0.12848(13)
H64 H 0.6354 0.0368 0.1283
H65 H 0.6084 0.1487 0.1547
H66 H 0.7443 0.1172 0.1413
B2 B 0.8644(3) 0.3340(3) 0.11123(15)
O6 O 1.19896(19) 0.14516(18) 0.18740(8)
C57 C 1.1272(7) -0.0279(7) 0.2053(3)
H67 H 1.1514 -0.0980 0.2193
H68 H 1.0684 0.0016 0.2314
C58 C 1.2388(9) 0.0429(12) 0.2030(6)
H69 H 1.2837 0.0444 0.2410
H70 H 1.2939 0.0160 0.1745
C59 C 0.956(2) 0.126(2) -0.0174(7)
H71 H 0.9529 0.1310 -0.0597
H72 H 0.9113 0.1852 -0.0021
C60 C 1.3058(9) 0.2025(8) 0.1912(3)
H73 H 1.3693 0.1678 0.2161
H74 H 1.2922 0.2736 0.2057
C61 C 1.3442(8) 0.2038(8) 0.1184(3)
H75 H 1.4074 0.2572 0.1132
H76 H 1.3785 0.1354 0.1085
Na2 Na 1.0611(2) 0.1329(2) 0.10548(11)
C62 C 0.9596(6) -0.0818(5) 0.1450(3)
H77 H 0.9020 -0.0420 0.1675
H78 H 0.9656 -0.1532 0.1606
O7 O 0.9128(5) 0.0187(5) 0.0616(2)
C63 C 0.9013(6) 0.0249(5) 0.0006(3)
H79 H 0.8145 0.0221 -0.0128
H80 H 0.9438 -0.0343 -0.0164
O8 O 1.0750(5) -0.0336(5) 0.1488(3)
C64 C 0.9148(6) -0.0848(6) 0.0824(3)
H81 H 0.9697 -0.1280 0.0602
H82 H 0.8323 -0.1153 0.0785
O9 O 1.2408(4) 0.2256(4) 0.08035(19)
O10 O 1.0797(4) 0.1278(4) 0.0049(2)
C65 C 1.148(2) 0.217(2) -0.0122(7)
H83 H 1.1039 0.2819 -0.0045
H84 H 1.1618 0.2138 -0.0537
C66 C 1.2658(15) 0.2145(12) 0.0217(4)
H85 H 1.3080 0.1478 0.0156
H86 H 1.3187 0.2720 0.0099
Na3? Na 1.0742(3) 0.1879(2) 0.10108(12)
C67? C 0.9504(9) -0.0366(8) 0.1056(5)
H87? H 0.8853 -0.0052 0.1274
H88? H 0.9479 -0.1130 0.1108
O11? O 1.0645(7) 0.0024(5) 0.1257(3)
C68? C 0.9317(11) -0.0098(10) 0.0428(7)
H89? H 0.9970 -0.0407 0.0210
H90? H 0.8527 -0.0372 0.0272
O12? O 0.9340(4) 0.0999(4) 0.0384(3)
O13? O 1.2826(5) 0.2690(4) 0.0978(2)
O14? O 1.1414(14) 0.2023(11) 0.0041(5)
C69? C 1.0756(7) 0.1366(6) -0.0346(3)
H91? H 1.1082 0.0650 -0.0317
H92? H 1.0826 0.1615 -0.0744
C70? C 1.0898(11) -0.0067(8) 0.1866(5)
H93? H 1.0903 -0.0810 0.1978
H94? H 1.0256 0.0290 0.2071
C71? C 1.2687(16) 0.2005(13) 0.0019(5)
H95? H 1.2919 0.2139 -0.0377
H96? H 1.3005 0.1315 0.0140
C72? C 1.2065(13) 0.0395(14) 0.2022(7)
H97? H 1.2259 0.0317 0.2439
H98? H 1.2710 0.0050 0.1814
C73? C 1.3019(9) 0.2130(9) 0.1782(3)
H99? H 1.2717 0.2851 0.1814
H100? H 1.3608 0.2020 0.2112
C74? C 1.3613(9) 0.2106(8) 0.1346(3)
H101? H 1.3720 0.1388 0.1205
H102? H 1.4417 0.2443 0.1411
C75? C 1.3206(6) 0.2828(5) 0.0413(3)
H103? H 1.4104 0.2803 0.0419
H104? H 1.2941 0.3520 0.0269
C76? C 0.947(3) 0.138(3) -0.0198(10)
H105? H 0.9154 0.2098 -0.0231
H106? H 0.8986 0.0938 -0.0473
loop_
_geom_bond_atom_site_label_1
_geom_bond_atom_site_label_2
_geom_bond_site_symmetry_1
_geom_bond_site_symmetry_2
F1 B1 1_555 1_555
F2 B1 1_555 1_555
N1 N2 1_555 1_555
N2 C7 1_555 1_555
N3 N4 1_555 1_555
N4 C15 1_555 1_555
C1 N1 1_555 1_555
C2 C1 1_555 1_555
H1 C2 1_555 1_555
C3 C2 1_555 1_555
H2 C3 1_555 1_555
C4 C3 1_555 1_555
H3 C4 1_555 1_555
C5 C4 1_555 1_555
H4 C5 1_555 1_555
C6 C1 1_555 1_555
H5 C6 1_555 1_555
C7 N3 1_555 1_555
C8 C7 1_555 1_555
C9 C8 1_555 1_555
H6 C9 1_555 1_555
C10 C9 1_555 1_555
H7 C10 1_555 1_555
C11 C10 1_555 1_555
C12 C11 1_555 1_555
H8 C12 1_555 1_555
C13 C8 1_555 1_555
H9 C13 1_555 1_555
C14 C11 1_555 1_555
H10 C14 1_555 1_555
H11 C14 1_555 1_555
H12 C14 1_555 1_555
C15 C16 1_555 1_555
C16 C17 1_555 1_555
C17 H13 1_555 1_555
C18 C17 1_555 1_555
C19 C18 1_555 1_555
H14 C19 1_555 1_555
C20 C15 1_555 1_555
C21 C16 1_555 1_555
H15 C21 1_555 1_555
H16 C21 1_555 1_555
H17 C21 1_555 1_555
C22 C18 1_555 1_555
H18 C22 1_555 1_555
H19 C22 1_555 1_555
H20 C22 1_555 1_555
C23 C20 1_555 1_555
H21 C23 1_555 1_555
H22 C23 1_555 1_555
H23 C23 1_555 1_555
B1 N1 1_555 1_555
Na1 F1 1_555 1_555
O1 Na1 1_555 1_555
O2 Na1 1_555 1_555
O3 Na1 1_555 1_555
O4 Na1 1_555 1_555
O5 Na1 1_555 1_555
C24 O1 1_555 1_555
H24 C24 1_555 1_555
H25 C24 1_555 1_555
C25 O2 1_555 1_555
H26 C25 1_555 1_555
H27 C25 1_555 1_555
C26 O2 1_555 1_555
H28 C26 1_555 1_555
H29 C26 1_555 1_555
C27 O3 1_555 1_555
H30 C27 1_555 1_555
H31 C27 1_555 1_555
C28 O3 1_555 1_555
H32 C28 1_555 1_555
H33 C28 1_555 1_555
C29 O4 1_555 1_555
H34 C29 1_555 1_555
H35 C29 1_555 1_555
C30 O4 1_555 1_555
H36 C30 1_555 1_555
H37 C30 1_555 1_555
C31 O5 1_555 1_555
H38 C31 1_555 1_555
H39 C31 1_555 1_555
C32 O5 1_555 1_555
H40 C32 1_555 1_555
H41 C32 1_555 1_555
C33 O1 1_555 1_555
H42 C33 1_555 1_555
H43 C33 1_555 1_555
F3 B2 1_555 1_555
F4 B2 1_555 1_555
N5 N6 1_555 1_555
N6 C40 1_555 1_555
N7 N8 1_555 1_555
N8 C48 1_555 1_555
C34 N5 1_555 1_555
C35 C34 1_555 1_555
H44 C35 1_555 1_555
C36 C35 1_555 1_555
H45 C36 1_555 1_555
C37 C36 1_555 1_555
H46 C37 1_555 1_555
C38 C37 1_555 1_555
H47 C38 1_555 1_555
C39 C34 1_555 1_555
H48 C39 1_555 1_555
C40 N7 1_555 1_555
C41 C40 1_555 1_555
C42 C41 1_555 1_555
H49 C42 1_555 1_555
C43 C42 1_555 1_555
H50 C43 1_555 1_555
C44 C43 1_555 1_555
C45 C44 1_555 1_555
H51 C45 1_555 1_555
C46 C41 1_555 1_555
H52 C46 1_555 1_555
C47 C44 1_555 1_555
H53 C47 1_555 1_555
H54 C47 1_555 1_555
H55 C47 1_555 1_555
C48 C49 1_555 1_555
C49 C50 1_555 1_555
C50 H56 1_555 1_555
C51 C50 1_555 1_555
C52 C51 1_555 1_555
H57 C52 1_555 1_555
C53 C48 1_555 1_555
C54 C49 1_555 1_555
H58 C54 1_555 1_555
H59 C54 1_555 1_555
H60 C54 1_555 1_555
C55 C51 1_555 1_555
H61 C55 1_555 1_555
H62 C55 1_555 1_555
H63 C55 1_555 1_555
C56 C53 1_555 1_555
H64 C56 1_555 1_555
H65 C56 1_555 1_555
H66 C56 1_555 1_555
B2 N5 1_555 1_555
O6 C58 1_555 1_555
C57 H67 1_555 1_555
H68 C57 1_555 1_555
C58 C57 1_555 1_555
H69 C58 1_555 1_555
H70 C58 1_555 1_555
C59 H71 1_555 1_555
H72 C59 1_555 1_555
C60 O6 1_555 1_555
H73 C60 1_555 1_555
H74 C60 1_555 1_555
C61 C60 1_555 1_555
H75 C61 1_555 1_555
H76 C61 1_555 1_555
Na2 F3 1_555 1_555
C62 H77 1_555 1_555
H78 C62 1_555 1_555
O7 Na2 1_555 1_555
C63 C59 1_555 1_555
H79 C63 1_555 1_555
H80 C63 1_555 1_555
O8 C57 1_555 1_555
C64 C62 1_555 1_555
H81 C64 1_555 1_555
H82 C64 1_555 1_555
O9 C61 1_555 1_555
O10 C59 1_555 1_555
C65 O10 1_555 1_555
H83 C65 1_555 1_555
H84 C65 1_555 1_555
C66 O9 1_555 1_555
H85 C66 1_555 1_555
H86 C66 1_555 1_555
F2 Na1 1_555 1_555
N4 B1 1_555 1_555
C5 C6 1_555 1_555
C12 C13 1_555 1_555
C19 C20 1_555 1_555
C24 C25 1_555 1_555
C26 C27 1_555 1_555
C28 C29 1_555 1_555
C30 C31 1_555 1_555
C32 C33 1_555 1_555
F4 Na2 1_555 1_555
N8 B2 1_555 1_555
C38 C39 1_555 1_555
C45 C46 1_555 1_555
C52 C53 1_555 1_555
O6 Na2 1_555 1_555
Na2 O8 1_555 1_555
Na2 O9 1_555 1_555
Na2 O10 1_555 1_555
C62 O8 1_555 1_555
O7 C63 1_555 1_555
O7 C64 1_555 1_555
C65 C66 1_555 1_555

#END
