
#######################################################################
#
#                 Cambridge Crystallographic Data Centre
#                                CCDC 
#
#######################################################################
#
# If this CIF has been generated from an entry in the Cambridge 
# Structural Database, then it will include bibliographic, chemical, 
# crystal, experimental, refinement or atomic coordinate data resulting 
# from the CCDC's data processing and validation procedures.
#
#######################################################################

data_AMUSOS
_chemical_formula_moiety         'C38 H32 N2 O1'
_chemical_name_systematic        
(4-Methyl-1-(3-methyl-4-(4-methylphenyl)-6-phenylpyridin-2-yl)-2-phenyl-1H-pyrrol-3-yl)(4-methylphenyl)methanone
_symmetry_cell_setting           orthorhombic
_symmetry_space_group_name_H-M   'P 21 21 21'
_symmetry_Int_Tables_number      19
_space_group_name_Hall           'P 2ac 2ab'
loop_
_symmetry_equiv_pos_site_id
_symmetry_equiv_pos_as_xyz
1 x,y,z
2 1/2-x,-y,1/2+z
3 1/2+x,1/2-y,-z
4 -x,1/2+y,1/2-z
_cell_length_a                   10.3484(4)
_cell_length_b                   10.5999(4)
_cell_length_c                   27.2911(8)
_cell_angle_alpha                90
_cell_angle_beta                 90
_cell_angle_gamma                90
_cell_volume                     2993.62
_exptl_crystal_colour            white
_exptl_crystal_description       solid
_chemical_melting_point          '487 K'
_cell_formula_units_Z            4
_chemical_properties_physical    
'Air-sensitive, Moisture-sensitive, Oxygen-sensitive, Photo-sensitive'
_exptl_crystal_recrystallization_method 'petroleum ether/dichloromethane'
loop_
_atom_site_label
_atom_site_type_symbol
_atom_site_fract_x
_atom_site_fract_y
_atom_site_fract_z
O1 O 0.06774(18) -0.06365(18) 0.29381(6)
N1 N 0.35638(15) -0.02740(15) 0.41803(5)
N2 N 0.55256(15) -0.03557(15) 0.45852(5)
C1 C 0.31233(17) 0.04136(19) 0.37873(6)
C2 C 0.23464(18) -0.03870(19) 0.35095(6)
C3 C 0.23131(19) -0.15847(19) 0.37524(7)
C4 C 0.30764(19) -0.14817(18) 0.41532(7)
H1 H 0.3245 -0.2126 0.4376
C5 C 0.3461(2) 0.17396(19) 0.37111(6)
C6 C 0.4732(2) 0.2158(2) 0.37548(8)
H2 H 0.5372 0.1607 0.3863
C7 C 0.5045(3) 0.3391(3) 0.36380(11)
H3 H 0.5893 0.3668 0.3669
C8 C 0.4103(4) 0.4209(3) 0.34761(11)
H4 H 0.4319 0.5034 0.3394
C9 C 0.2840(3) 0.3807(2) 0.34358(9)
H5 H 0.2206 0.4360 0.3326
C10 C 0.2516(2) 0.2586(2) 0.35584(7)
H6 H 0.1659 0.2327 0.3539
C11 C 0.1694(2) -0.0127(2) 0.30366(7)
C12 C 0.2321(2) 0.0726(2) 0.26729(6)
C13 C 0.3653(2) 0.0823(2) 0.26245(7)
H7 H 0.4188 0.0344 0.2825
C14 C 0.4190(2) 0.1620(3) 0.22830(7)
H8 H 0.5085 0.1662 0.2256
C15 C 0.3443(2) 0.2357(3) 0.19800(7)
C16 C 0.2113(2) 0.2258(3) 0.20275(8)
H9 H 0.1583 0.2747 0.1828
C17 C 0.1560(2) 0.1449(3) 0.23646(8)
H10 H 0.0665 0.1390 0.2385
C18 C 0.4061(3) 0.3228(4) 0.16126(10)
H11 H 0.4709 0.3729 0.1772
H12 H 0.3415 0.3771 0.1474
H13 H 0.4454 0.2739 0.1357
C19 C 0.1636(3) -0.2766(2) 0.35883(8)
H14 H 0.0726 -0.2605 0.3560
H15 H 0.1779 -0.3423 0.3824
H16 H 0.1970 -0.3023 0.3276
C20 C 0.62839(17) -0.01261(18) 0.49772(7)
C21 C 0.58275(19) 0.05554(19) 0.53727(7)
H17 H 0.6354 0.0672 0.5645
C22 C 0.45954(19) 0.10671(18) 0.53689(7)
C23 C 0.38043(18) 0.08673(18) 0.49570(6)
C24 C 0.43460(18) 0.01245(18) 0.45881(6)
C25 C 0.76100(18) -0.06626(19) 0.49596(7)
C26 C 0.7920(2) -0.1579(3) 0.46162(8)
H18 H 0.7290 -0.1860 0.4399
C27 C 0.9150(3) -0.2078(3) 0.45924(10)
H19 H 0.9342 -0.2701 0.4364
C28 C 1.0094(2) -0.1654(3) 0.49075(11)
H20 H 1.0930 -0.1971 0.4886
C29 C 0.9797(2) -0.0763(3) 0.52538(11)
H21 H 1.0427 -0.0494 0.5473
C30 C 0.8566(2) -0.0262(2) 0.52779(9)
H22 H 0.8377 0.0351 0.5511
C31 C 0.41442(19) 0.1761(2) 0.58132(6)
C32 C 0.4073(3) 0.1149(2) 0.62573(8)
H23 H 0.4289 0.0299 0.6277
C33 C 0.3681(3) 0.1787(3) 0.66776(8)
H24 H 0.3629 0.1353 0.6973
C34 C 0.3370(2) 0.3042(3) 0.66639(8)
C35 C 0.3482(3) 0.3659(2) 0.62251(9)
H25 H 0.3303 0.4518 0.6210
C36 C 0.3855(3) 0.3030(2) 0.58033(8)
H26 H 0.3912 0.3470 0.5509
C37 C 0.2909(3) 0.3719(3) 0.71210(10)
H27 H 0.2883 0.3136 0.7390
H28 H 0.2059 0.4054 0.7065
H29 H 0.3491 0.4396 0.7197
C38 C 0.2451(2) 0.1367(2) 0.49207(8)
H30 H 0.2099 0.1470 0.5244
H31 H 0.1928 0.0784 0.4739
H32 H 0.2461 0.2168 0.4756
loop_
_geom_bond_atom_site_label_1
_geom_bond_atom_site_label_2
_geom_bond_site_symmetry_1
_geom_bond_site_symmetry_2
O1 C11 1_555 1_555
N1 C1 1_555 1_555
N2 C20 1_555 1_555
C1 C2 1_555 1_555
C2 C3 1_555 1_555
C3 C4 1_555 1_555
C4 N1 1_555 1_555
H1 C4 1_555 1_555
C5 C1 1_555 1_555
C6 C5 1_555 1_555
H2 C6 1_555 1_555
C7 C6 1_555 1_555
H3 C7 1_555 1_555
C8 C7 1_555 1_555
H4 C8 1_555 1_555
C9 C8 1_555 1_555
H5 C9 1_555 1_555
C10 C5 1_555 1_555
H6 C10 1_555 1_555
C11 C2 1_555 1_555
C12 C11 1_555 1_555
C13 C12 1_555 1_555
H7 C13 1_555 1_555
C14 C13 1_555 1_555
H8 C14 1_555 1_555
C15 C14 1_555 1_555
C16 C15 1_555 1_555
H9 C16 1_555 1_555
C17 C12 1_555 1_555
H10 C17 1_555 1_555
C18 C15 1_555 1_555
H11 C18 1_555 1_555
H12 C18 1_555 1_555
H13 C18 1_555 1_555
C19 C3 1_555 1_555
H14 C19 1_555 1_555
H15 C19 1_555 1_555
H16 C19 1_555 1_555
C20 C21 1_555 1_555
C21 H17 1_555 1_555
C22 C21 1_555 1_555
C23 C22 1_555 1_555
C24 N1 1_555 1_555
C25 C20 1_555 1_555
C26 C25 1_555 1_555
H18 C26 1_555 1_555
C27 C26 1_555 1_555
H19 C27 1_555 1_555
C28 C27 1_555 1_555
H20 C28 1_555 1_555
C29 C28 1_555 1_555
H21 C29 1_555 1_555
C30 C25 1_555 1_555
H22 C30 1_555 1_555
C31 C22 1_555 1_555
C32 C31 1_555 1_555
H23 C32 1_555 1_555
C33 C32 1_555 1_555
H24 C33 1_555 1_555
C34 C33 1_555 1_555
C35 C34 1_555 1_555
H25 C35 1_555 1_555
C36 C31 1_555 1_555
H26 C36 1_555 1_555
C37 C34 1_555 1_555
H27 C37 1_555 1_555
H28 C37 1_555 1_555
H29 C37 1_555 1_555
C38 C23 1_555 1_555
H30 C38 1_555 1_555
H31 C38 1_555 1_555
H32 C38 1_555 1_555
N2 C24 1_555 1_555
C9 C10 1_555 1_555
C16 C17 1_555 1_555
C23 C24 1_555 1_555
C29 C30 1_555 1_555
C35 C36 1_555 1_555

#END
