
#######################################################################
#
#                 Cambridge Crystallographic Data Centre
#                                CCDC 
#
#######################################################################
#
# If this CIF has been generated from an entry in the Cambridge 
# Structural Database, then it will include bibliographic, chemical, 
# crystal, experimental, refinement or atomic coordinate data resulting 
# from the CCDC's data processing and validation procedures.
#
#######################################################################

data_AMUVIP
_chemical_formula_moiety         'C13 H11 N1 O3'
_chemical_name_systematic        
1-acetyl-1,7,8,8a-tetrahydrobenzo[cd]indole-2,6-dione
_symmetry_cell_setting           monoclinic
_symmetry_space_group_name_H-M   'C 2/c'
_symmetry_Int_Tables_number      15
_space_group_name_Hall           '-C 2yn'
loop_
_symmetry_equiv_pos_site_id
_symmetry_equiv_pos_as_xyz
1 x,y,z
2 -x,y,1/2-z
3 1/2+x,1/2+y,z
4 1/2-x,1/2+y,1/2-z
5 -x,-y,-z
6 x,-y,1/2+z
7 1/2-x,1/2-y,-z
8 1/2+x,1/2-y,1/2+z
_cell_length_a                   21.7288(13)
_cell_length_b                   6.4185(4)
_cell_length_c                   15.5949(15)
_cell_angle_alpha                90
_cell_angle_beta                 95.584(9)
_cell_angle_gamma                90
_cell_volume                     2164.64
_exptl_crystal_description       block
_cell_formula_units_Z            8
loop_
_atom_site_label
_atom_site_type_symbol
_atom_site_fract_x
_atom_site_fract_y
_atom_site_fract_z
O1 O 0.41565(7) 0.1241(2) 0.74287(9)
O2 O 0.43248(7) 0.3238(2) 0.49035(9)
O3 O 0.28846(7) -0.5655(2) 0.42095(10)
N1 N 0.40662(8) 0.0995(2) 0.59173(11)
C1 C 0.31751(9) -0.4211(3) 0.45570(14)
C2 C 0.30174(10) -0.4584(3) 0.69702(14)
H1 H 0.2851 -0.5463 0.7362
C3 C 0.35464(10) -0.1467(3) 0.66632(13)
C4 C 0.34349(9) -0.1888(3) 0.57939(13)
C5 C 0.29452(9) -0.5079(3) 0.60967(14)
H2 H 0.2750 -0.6314 0.5916
C6 C 0.39538(9) 0.0395(3) 0.67681(13)
C7 C 0.33342(9) -0.2798(3) 0.72700(13)
H3 H 0.3401 -0.2510 0.7856
C8 C 0.37078(10) -0.0285(3) 0.52524(13)
H4 H 0.3376 0.0560 0.4957
C9 C 0.31628(9) -0.3738(3) 0.54912(13)
C10 C 0.43625(9) 0.2798(3) 0.56656(14)
C11 C 0.35768(10) -0.2804(3) 0.40566(13)
H5 H 0.3306 -0.1904 0.3690
H6 H 0.3799 -0.3674 0.3682
C12 C 0.40515(10) -0.1421(3) 0.45918(13)
H7 H 0.4379 -0.2272 0.4877
H8 H 0.4234 -0.0430 0.4222
C13 C 0.47140(10) 0.4086(3) 0.63467(14)
H9 H 0.4937 0.5160 0.6080
H10 H 0.5000 0.3215 0.6690
H11 H 0.4431 0.4709 0.6707
loop_
_geom_bond_atom_site_label_1
_geom_bond_atom_site_label_2
_geom_bond_site_symmetry_1
_geom_bond_site_symmetry_2
O1 C6 1_555 1_555
O2 C10 1_555 1_555
O3 C1 1_555 1_555
N1 C6 1_555 1_555
C1 C9 1_555 1_555
C2 H1 1_555 1_555
C3 C4 1_555 1_555
C4 C8 1_555 1_555
C5 C2 1_555 1_555
H2 C5 1_555 1_555
C6 C3 1_555 1_555
C7 C2 1_555 1_555
H3 C7 1_555 1_555
C8 N1 1_555 1_555
H4 C8 1_555 1_555
C9 C4 1_555 1_555
C10 N1 1_555 1_555
C11 C1 1_555 1_555
H5 C11 1_555 1_555
H6 C11 1_555 1_555
C12 C8 1_555 1_555
H7 C12 1_555 1_555
H8 C12 1_555 1_555
C13 C10 1_555 1_555
H9 C13 1_555 1_555
H10 C13 1_555 1_555
H11 C13 1_555 1_555
C3 C7 1_555 1_555
C5 C9 1_555 1_555
C11 C12 1_555 1_555

#END
