
#######################################################################
#
#                 Cambridge Crystallographic Data Centre
#                                CCDC 
#
#######################################################################
#
# If this CIF has been generated from an entry in the Cambridge 
# Structural Database, then it will include bibliographic, chemical, 
# crystal, experimental, refinement or atomic coordinate data resulting 
# from the CCDC's data processing and validation procedures.
#
#######################################################################

data_AMUVOV
_chemical_formula_moiety         'C9 H9 N1 O2 S1'
_chemical_name_systematic        
5-acetyl-2-methyl-5,6-dihydro-4H-thieno[2,3-c]pyrrol-4-one
_symmetry_cell_setting           monoclinic
_symmetry_space_group_name_H-M   'P 21/n'
_symmetry_Int_Tables_number      14
_space_group_name_Hall           '-P 2yn'
loop_
_symmetry_equiv_pos_site_id
_symmetry_equiv_pos_as_xyz
1 x,y,z
2 1/2-x,1/2+y,1/2-z
3 -x,-y,-z
4 1/2+x,1/2-y,1/2+z
_cell_length_a                   4.8792(9)
_cell_length_b                   12.1217(9)
_cell_length_c                   14.6172(15)
_cell_angle_alpha                90
_cell_angle_beta                 90.911(11)
_cell_angle_gamma                90
_cell_volume                     864.413
_exptl_crystal_description       block
_cell_formula_units_Z            4
loop_
_atom_site_label
_atom_site_type_symbol
_atom_site_fract_x
_atom_site_fract_y
_atom_site_fract_z
S1 S 0.1137(2) 0.47858(8) 0.13173(7)
O1 O -0.6968(7) 0.4465(2) 0.4028(2)
O2 O -0.3596(7) 0.7506(2) 0.3260(2)
C1 C -0.1035(10) 0.5189(3) 0.2156(3)
C2 C -0.2999(10) 0.6599(3) 0.2973(3)
C3 C -0.6192(10) 0.5404(3) 0.3897(3)
C4 C 0.2098(10) 0.6163(4) 0.1119(3)
C5 C -0.2919(10) 0.4619(3) 0.2799(3)
H1 H -0.4347 0.4190 0.2468
H2 H -0.1907 0.4128 0.3227
N1 N -0.4088(9) 0.5581(3) 0.3274(2)
C6 C 0.4141(10) 0.6434(4) 0.0401(3)
H3 H 0.5818 0.6006 0.0510
H4 H 0.4570 0.7223 0.0425
H5 H 0.3372 0.6250 -0.0204
C7 C 0.0761(10) 0.6870(4) 0.1675(3)
H6 H 0.1004 0.7647 0.1672
C8 C -0.1057(10) 0.6298(3) 0.2265(3)
C9 C -0.7331(10) 0.6376(4) 0.4393(3)
H7 H -0.8821 0.6133 0.4788
H8 H -0.8038 0.6915 0.3949
H9 H -0.5881 0.6717 0.4769
loop_
_geom_bond_atom_site_label_1
_geom_bond_atom_site_label_2
_geom_bond_site_symmetry_1
_geom_bond_site_symmetry_2
S1 C1 1_555 1_555
O1 C3 1_555 1_555
O2 C2 1_555 1_555
C1 C5 1_555 1_555
C2 N1 1_555 1_555
C3 N1 1_555 1_555
C4 S1 1_555 1_555
C5 H1 1_555 1_555
H2 C5 1_555 1_555
N1 C5 1_555 1_555
C6 C4 1_555 1_555
H3 C6 1_555 1_555
H4 C6 1_555 1_555
H5 C6 1_555 1_555
C7 C4 1_555 1_555
H6 C7 1_555 1_555
C8 C1 1_555 1_555
C9 C3 1_555 1_555
H7 C9 1_555 1_555
H8 C9 1_555 1_555
H9 C9 1_555 1_555
C2 C8 1_555 1_555
C7 C8 1_555 1_555

#END
