
#######################################################################
#
#                 Cambridge Crystallographic Data Centre
#                                CCDC 
#
#######################################################################
#
# If this CIF has been generated from an entry in the Cambridge 
# Structural Database, then it will include bibliographic, chemical, 
# crystal, experimental, refinement or atomic coordinate data resulting 
# from the CCDC's data processing and validation procedures.
#
#######################################################################

data_ANALPR
_chemical_name_common            Allosan
_chemical_formula_moiety         'C6 H10 O5'
_chemical_name_systematic        1,6-Anhydro-\b-D-allopyranose
_symmetry_cell_setting           monoclinic
_symmetry_space_group_name_H-M   'P 21'
_symmetry_Int_Tables_number      4
_space_group_name_Hall           'P 2yb'
loop_
_symmetry_equiv_pos_site_id
_symmetry_equiv_pos_as_xyz
1 x,y,z
2 -x,1/2+y,-z
_cell_length_a                   10.974(2)
_cell_length_b                   6.850(2)
_cell_length_c                   14.213(2)
_cell_angle_alpha                90
_cell_angle_beta                 109.30(2)
_cell_angle_gamma                90
_cell_volume                     1008.37
_cell_formula_units_Z            6
loop_
_atom_site_label
_atom_site_type_symbol
_atom_site_fract_x
_atom_site_fract_y
_atom_site_fract_z
C1 C 0.87100 0.55580 0.08280
C2 C 0.79570 0.73690 0.03190
C3 C 0.68700 0.67270 -0.06210
C4 C 0.61660 0.49730 -0.03900
C5 C 0.71560 0.34540 0.01640
C6 C 0.81900 0.30560 -0.02970
O1 O 0.91530 0.45220 0.01390
O2 O 0.73330 0.82830 0.09260
O3 O 0.60130 0.83060 -0.10440
O4 O 0.53830 0.55400 0.01900
O5 O 0.79000 0.42850 0.11130
H1 H 0.94500 0.58900 0.14200
H2 H 0.85800 0.81800 0.01400
H3 H 0.72500 0.63700 -0.11300
H4 H 0.55400 0.44200 -0.10500
H5 H 0.68200 0.24200 0.03300
H6 H 0.79100 0.32000 -0.10400
H7 H 0.86100 0.18700 -0.01400
H8 H 0.78000 0.87200 0.14700
H9 H 0.57700 0.86500 -0.06700
H10 H 0.58500 0.58200 0.07000
C7 C 0.69360 0.57950 0.31480
C8 C 0.65650 0.38410 0.34730
C9 C 0.55430 0.41730 0.39900
C10 C 0.45500 0.57300 0.34850
C11 C 0.52040 0.74420 0.31790
C12 C 0.63390 0.82530 0.40280
O6 O 0.73970 0.70130 0.40150
O7 O 0.61850 0.24920 0.26660
O8 O 0.49400 0.23900 0.41150
O9 O 0.35250 0.49880 0.26600
O10 O 0.58340 0.67360 0.24990
H11 H 0.76100 0.56800 0.28400
H12 H 0.73100 0.33400 0.39500
H13 H 0.59900 0.46200 0.46700
H14 H 0.41400 0.61300 0.40000
H15 H 0.45200 0.85700 0.28200
H16 H 0.62000 0.81700 0.47100
H17 H 0.65700 0.95500 0.39400
H18 H 0.56000 0.28700 0.21800
H19 H 0.43400 0.22300 0.36400
H20 H 0.37500 0.48500 0.21800
C13 C 0.14150 -0.14180 0.29080
C14 C 0.09870 -0.19040 0.37920
C15 C 0.03220 -0.01300 0.40700
C16 C -0.05400 0.09740 0.31590
C17 C 0.01250 0.11230 0.23820
C18 C 0.14860 0.19350 0.27860
O11 O 0.22710 0.02230 0.31360
O12 O 0.01690 -0.35680 0.35270
O13 O -0.03580 -0.06720 0.47250
O14 O -0.17370 0.00030 0.27460
O15 O 0.03540 -0.08210 0.20940
H21 H 0.18500 -0.25700 0.27400
H22 H 0.17700 -0.21100 0.43100
H23 H 0.10400 0.06900 0.44500
H24 H -0.06300 0.21800 0.34100
H25 H -0.04300 0.17700 0.18000
H26 H 0.16100 0.26900 0.33900
H27 H 0.17700 0.25000 0.22200
H28 H 0.02100 -0.40600 0.40700
H29 H -0.09500 -0.09800 0.44300
H30 H -0.23500 0.05700 0.26600
loop_
_geom_bond_atom_site_label_1
_geom_bond_atom_site_label_2
_geom_bond_site_symmetry_1
_geom_bond_site_symmetry_2
C1 C2 1_555 1_555
C2 C3 1_555 1_555
C3 C4 1_555 1_555
C4 C5 1_555 1_555
C5 C6 1_555 1_555
C6 O1 1_555 1_555
O1 C1 1_555 1_555
O2 C2 1_555 1_555
O3 C3 1_555 1_555
O4 C4 1_555 1_555
O5 C1 1_555 1_555
H1 C1 1_555 1_555
H2 C2 1_555 1_555
H3 C3 1_555 1_555
H4 C4 1_555 1_555
H5 C5 1_555 1_555
H6 C6 1_555 1_555
H7 C6 1_555 1_555
H8 O2 1_555 1_555
H9 O3 1_555 1_555
H10 O4 1_555 1_555
C7 C8 1_555 1_555
C8 C9 1_555 1_555
C9 C10 1_555 1_555
C10 C11 1_555 1_555
C11 C12 1_555 1_555
C12 O6 1_555 1_555
O6 C7 1_555 1_555
O7 C8 1_555 1_555
O8 C9 1_555 1_555
O9 C10 1_555 1_555
O10 C7 1_555 1_555
H11 C7 1_555 1_555
H12 C8 1_555 1_555
H13 C9 1_555 1_555
H14 C10 1_555 1_555
H15 C11 1_555 1_555
H16 C12 1_555 1_555
H17 C12 1_555 1_555
H18 O7 1_555 1_555
H19 O8 1_555 1_555
H20 O9 1_555 1_555
C13 C14 1_555 1_555
C14 C15 1_555 1_555
C15 C16 1_555 1_555
C16 C17 1_555 1_555
C17 C18 1_555 1_555
C18 O11 1_555 1_555
O11 C13 1_555 1_555
O12 C14 1_555 1_555
O13 C15 1_555 1_555
O14 C16 1_555 1_555
O15 C13 1_555 1_555
H21 C13 1_555 1_555
H22 C14 1_555 1_555
H23 C15 1_555 1_555
H24 C16 1_555 1_555
H25 C17 1_555 1_555
H26 C18 1_555 1_555
H27 C18 1_555 1_555
H28 O12 1_555 1_555
H29 O13 1_555 1_555
H30 O14 1_555 1_555
C5 O5 1_555 1_555
C11 O10 1_555 1_555
C17 O15 1_555 1_555

#END
