
#######################################################################
#
#                 Cambridge Crystallographic Data Centre
#                                CCDC 
#
#######################################################################
#
# If this CIF has been generated from an entry in the Cambridge 
# Structural Database, then it will include bibliographic, chemical, 
# crystal, experimental, refinement or atomic coordinate data resulting 
# from the CCDC's data processing and validation procedures.
#
#######################################################################

data_ANAMEI
_chemical_formula_moiety         'C40 H36 O2 Si2'
_chemical_name_systematic        
3-Allyl-1,1,1,5,5,5-hexaphenyl-2,4-dioxa-1,5-disilapentane
_symmetry_cell_setting           monoclinic
_symmetry_space_group_name_H-M   'P 21/c'
_symmetry_Int_Tables_number      14
_space_group_name_Hall           '-P 2ybc'
loop_
_symmetry_equiv_pos_site_id
_symmetry_equiv_pos_as_xyz
1 x,y,z
2 -x,1/2+y,1/2-z
3 -x,-y,-z
4 x,1/2-y,1/2+z
_cell_length_a                   9.306(4)
_cell_length_b                   18.733(8)
_cell_length_c                   19.586(8)
_cell_angle_alpha                90
_cell_angle_beta                 98.302(7)
_cell_angle_gamma                90
_cell_volume                     3378.63
_cell_formula_units_Z            4
loop_
_atom_site_label
_atom_site_type_symbol
_atom_site_fract_x
_atom_site_fract_y
_atom_site_fract_z
C1 C 0.43018(16) 0.31977(8) 0.00864(7)
C2 C 0.4297(2) 0.28140(10) -0.05295(9)
H1 H 0.3865 0.2354 -0.0571
C3 C 0.4910(2) 0.30903(12) -0.10816(9)
H2 H 0.4882 0.2821 -0.1494
C4 C 0.55592(19) 0.37555(10) -0.10300(9)
H3 H 0.5972 0.3946 -0.1407
C5 C 0.56021(18) 0.41399(9) -0.04271(9)
H4 H 0.6060 0.4594 -0.0386
C6 C 0.49782(17) 0.38658(8) 0.01231(8)
H5 H 0.5013 0.4140 0.0533
C7 C 0.40778(16) 0.20169(8) 0.11952(8)
C8 C 0.32906(18) 0.16505(9) 0.16435(9)
H6 H 0.2363 0.1824 0.1712
C9 C 0.3842(2) 0.10371(10) 0.19903(10)
H7 H 0.3295 0.0797 0.2294
C10 C 0.5192(2) 0.07792(9) 0.18895(10)
H8 H 0.5573 0.0362 0.2125
C11 C 0.59830(18) 0.11283(9) 0.14475(9)
H9 H 0.6903 0.0947 0.1376
C12 C 0.54395(17) 0.17436(8) 0.11068(8)
H10 H 0.6001 0.1983 0.0809
C13 C 0.13787(16) 0.26813(8) 0.03967(8)
C14 C 0.02979(17) 0.31993(9) 0.03862(8)
H11 H 0.0540 0.3659 0.0572
C15 C -0.11329(19) 0.30495(12) 0.01056(10)
H12 H -0.1863 0.3403 0.0113
C16 C -0.1492(2) 0.23919(13) -0.01816(13)
H13 H -0.2467 0.2291 -0.0373
C17 C -0.0432(3) 0.18793(12) -0.01908(13)
H14 H -0.0675 0.1428 -0.0398
C18 C 0.0987(2) 0.20203(9) 0.01008(10)
H15 H 0.1704 0.1660 0.0099
C19 C 0.17697(17) 0.44695(8) 0.34355(8)
C20 C 0.29596(19) 0.43186(9) 0.39378(8)
H16 H 0.3698 0.4006 0.3829
C21 C 0.3080(2) 0.46201(10) 0.45984(9)
H17 H 0.3891 0.4510 0.4935
C22 C 0.2020(2) 0.50765(11) 0.47574(9)
H18 H 0.2097 0.5279 0.5206
C23 C 0.0837(2) 0.52437(11) 0.42668(10)
H19 H 0.0116 0.5566 0.4377
C24 C 0.07096(19) 0.49371(9) 0.36105(9)
H20 H -0.0109 0.5048 0.3279
C25 C 0.05015(17) 0.45588(8) 0.18836(8)
C26 C -0.10167(19) 0.45968(10) 0.18285(9)
H21 H -0.1500 0.4348 0.2152
C27 C -0.1823(2) 0.49916(10) 0.13095(10)
H22 H -0.2850 0.5011 0.1281
C28 C -0.1141(2) 0.53579(9) 0.08334(9)
H23 H -0.1697 0.5626 0.0477
C29 C 0.0350(2) 0.53311(9) 0.08788(9)
H24 H 0.0822 0.5582 0.0553
C30 C 0.11655(19) 0.49395(8) 0.13984(8)
H25 H 0.2193 0.4929 0.1426
C31 C 0.08534(16) 0.31095(8) 0.26248(8)
C32 C -0.0002(2) 0.27818(10) 0.20717(9)
H26 H -0.0243 0.3038 0.1652
C33 C -0.0511(2) 0.20890(10) 0.21186(10)
H27 H -0.1082 0.1876 0.1731
C34 C -0.0196(2) 0.17107(10) 0.27210(10)
H28 H -0.0532 0.1235 0.2752
C35 C 0.0609(3) 0.20296(11) 0.32753(12)
H29 H 0.0815 0.1777 0.3699
C36 C 0.1131(3) 0.27188(10) 0.32280(11)
H30 H 0.1694 0.2928 0.3621
C37 C 0.39655(16) 0.34851(9) 0.20537(7)
H31 H 0.3844 0.3004 0.2260
C38 C 0.55744(17) 0.36648(11) 0.21012(8)
H32 H 0.6042 0.3322 0.1818
H33 H 0.5681 0.4149 0.1911
C39 C 0.6332(2) 0.36384(19) 0.28349(11)
C40 C 0.7234(4) 0.3271(3) 0.30972(19)
O1 O 0.32909(11) 0.34966(6) 0.13558(5)
O2 O 0.33118(11) 0.40102(6) 0.24193(5)
Si1 Si 0.32975(4) 0.28546(2) 0.07788(2)
Si2 Si 0.16096(4) 0.40267(2) 0.25719(2)
C41? C 0.6773(5) 0.3971(3) 0.3285(2)
loop_
_geom_bond_atom_site_label_1
_geom_bond_atom_site_label_2
_geom_bond_site_symmetry_1
_geom_bond_site_symmetry_2
C1 C2 1_555 1_555
C2 H1 1_555 1_555
C3 C2 1_555 1_555
H2 C3 1_555 1_555
C4 C3 1_555 1_555
H3 C4 1_555 1_555
C5 C4 1_555 1_555
H4 C5 1_555 1_555
C6 C1 1_555 1_555
H5 C6 1_555 1_555
C7 C8 1_555 1_555
C8 H6 1_555 1_555
C9 C8 1_555 1_555
H7 C9 1_555 1_555
C10 C9 1_555 1_555
H8 C10 1_555 1_555
C11 C10 1_555 1_555
H9 C11 1_555 1_555
C12 C7 1_555 1_555
H10 C12 1_555 1_555
C13 C14 1_555 1_555
C14 H11 1_555 1_555
C15 C14 1_555 1_555
H12 C15 1_555 1_555
C16 C15 1_555 1_555
H13 C16 1_555 1_555
C17 C16 1_555 1_555
H14 C17 1_555 1_555
C18 C13 1_555 1_555
H15 C18 1_555 1_555
C19 C20 1_555 1_555
C20 H16 1_555 1_555
C21 C20 1_555 1_555
H17 C21 1_555 1_555
C22 C21 1_555 1_555
H18 C22 1_555 1_555
C23 C22 1_555 1_555
H19 C23 1_555 1_555
C24 C19 1_555 1_555
H20 C24 1_555 1_555
C25 C26 1_555 1_555
C26 H21 1_555 1_555
C27 C26 1_555 1_555
H22 C27 1_555 1_555
C28 C27 1_555 1_555
H23 C28 1_555 1_555
C29 C28 1_555 1_555
H24 C29 1_555 1_555
C30 C25 1_555 1_555
H25 C30 1_555 1_555
C31 C32 1_555 1_555
C32 H26 1_555 1_555
C33 C32 1_555 1_555
H27 C33 1_555 1_555
C34 C33 1_555 1_555
H28 C34 1_555 1_555
C35 C34 1_555 1_555
H29 C35 1_555 1_555
C36 C31 1_555 1_555
H30 C36 1_555 1_555
C37 H31 1_555 1_555
C38 C37 1_555 1_555
H32 C38 1_555 1_555
H33 C38 1_555 1_555
C39 C38 1_555 1_555
C40 C39 1_555 1_555
O1 C37 1_555 1_555
O2 C37 1_555 1_555
Si1 C1 1_555 1_555
Si2 C19 1_555 1_555
C5 C6 1_555 1_555
C7 Si1 1_555 1_555
C11 C12 1_555 1_555
C13 Si1 1_555 1_555
C17 C18 1_555 1_555
C23 C24 1_555 1_555
C25 Si2 1_555 1_555
C29 C30 1_555 1_555
C31 Si2 1_555 1_555
C35 C36 1_555 1_555
O1 Si1 1_555 1_555
O2 Si2 1_555 1_555

#END
