
#######################################################################
#
#                 Cambridge Crystallographic Data Centre
#                                CCDC 
#
#######################################################################
#
# If this CIF has been generated from an entry in the Cambridge 
# Structural Database, then it will include bibliographic, chemical, 
# crystal, experimental, refinement or atomic coordinate data resulting 
# from the CCDC's data processing and validation procedures.
#
#######################################################################

data_ANDION12
_chemical_formula_moiety         'C19 H28 O2'
_chemical_name_systematic        Androstane-3,17-dione
_symmetry_cell_setting           monoclinic
_symmetry_space_group_name_H-M   'C 2'
_symmetry_Int_Tables_number      5
_space_group_name_Hall           'C 2y'
loop_
_symmetry_equiv_pos_site_id
_symmetry_equiv_pos_as_xyz
1 x,y,z
2 -x,y,-z
3 1/2+x,1/2+y,z
4 1/2-x,1/2+y,-z
_cell_length_a                   12.7179(11)
_cell_length_b                   6.1904(4)
_cell_length_c                   21.3650(14)
_cell_angle_alpha                90
_cell_angle_beta                 91.257(8)
_cell_angle_gamma                90
_cell_volume                     1681.64
_cell_formula_units_Z            4
loop_
_atom_site_label
_atom_site_type_symbol
_atom_site_fract_x
_atom_site_fract_y
_atom_site_fract_z
C1 C 0.7501(4) 0.2741(8) 0.97159(18)
C2 C 0.6480(4) 0.2685(10) 0.93801(19)
H1 H 0.5961 0.3369 0.9641
H2 H 0.6274 0.1187 0.9326
C3 C 0.6446(4) 0.3792(8) 0.87316(17)
H3 H 0.5797 0.3394 0.8514
H4 H 0.6440 0.5346 0.8790
C4 C 0.7381(3) 0.3187(6) 0.83191(17)
C5 C 0.8399(3) 0.3777(7) 0.87001(18)
H5 H 0.8360 0.5327 0.8789
C6 C 0.8483(4) 0.2619(9) 0.93378(19)
H6 H 0.8652 0.1112 0.9267
H7 H 0.9060 0.3250 0.9580
C7 C 0.7336(4) 0.0734(7) 0.8173(2)
H8 H 0.7386 -0.0069 0.8557
H9 H 0.7912 0.0353 0.7911
H10 H 0.6684 0.0400 0.7960
C8 C 0.9384(3) 0.3432(9) 0.8331(2)
H11 H 0.9463 0.1905 0.8242
H12 H 0.9991 0.3892 0.8581
C9 C 0.9346(3) 0.4692(9) 0.7719(2)
H13 H 0.9961 0.4333 0.7480
H14 H 0.9374 0.6225 0.7812
C10 C 0.8359(3) 0.4228(7) 0.73211(17)
H15 H 0.8377 0.2710 0.7191
C11 C 0.7368(3) 0.4581(7) 0.77098(18)
H16 H 0.7397 0.6089 0.7849
C12 C 0.6340(3) 0.4365(8) 0.73108(19)
H17 H 0.6241 0.2862 0.7195
H18 H 0.5750 0.4792 0.7563
C13 C 0.6343(4) 0.5733(9) 0.6719(2)
H19 H 0.5707 0.5462 0.6473
H20 H 0.6358 0.7252 0.6830
C14 C 0.7296(3) 0.5190(8) 0.63348(18)
C15 C 0.8290(3) 0.5612(7) 0.6741(2)
H21 H 0.8237 0.7107 0.6887
C16 C 0.7238(5) 0.2932(10) 0.6064(2)
H22 H 0.7349 0.1894 0.6393
H23 H 0.7769 0.2763 0.5756
H24 H 0.6557 0.2708 0.5872
C17 C 0.7519(5) 0.6691(10) 0.5782(2)
C18 C 0.8666(5) 0.6785(13) 0.5688(3)
H25 H 0.8903 0.8273 0.5671
H26 H 0.8846 0.6074 0.5300
C19 C 0.9191(4) 0.5578(11) 0.6268(2)
H27 H 0.9389 0.4112 0.6161
H28 H 0.9805 0.6347 0.6427
O1 O 0.7553(3) 0.2787(7) 1.02917(13)
O2 O 0.6883(4) 0.7692(9) 0.54837(17)
loop_
_geom_bond_atom_site_label_1
_geom_bond_atom_site_label_2
_geom_bond_site_symmetry_1
_geom_bond_site_symmetry_2
C1 C2 1_555 1_555
C2 H1 1_555 1_555
H2 C2 1_555 1_555
C3 C2 1_555 1_555
H3 C3 1_555 1_555
H4 C3 1_555 1_555
C4 C3 1_555 1_555
C5 C4 1_555 1_555
H5 C5 1_555 1_555
C6 C1 1_555 1_555
H6 C6 1_555 1_555
H7 C6 1_555 1_555
C7 C4 1_555 1_555
H8 C7 1_555 1_555
H9 C7 1_555 1_555
H10 C7 1_555 1_555
C8 C5 1_555 1_555
H11 C8 1_555 1_555
H12 C8 1_555 1_555
C9 C8 1_555 1_555
H13 C9 1_555 1_555
H14 C9 1_555 1_555
C10 C9 1_555 1_555
H15 C10 1_555 1_555
C11 C4 1_555 1_555
H16 C11 1_555 1_555
C12 C11 1_555 1_555
H17 C12 1_555 1_555
H18 C12 1_555 1_555
C13 C12 1_555 1_555
H19 C13 1_555 1_555
H20 C13 1_555 1_555
C14 C13 1_555 1_555
C15 C10 1_555 1_555
H21 C15 1_555 1_555
C16 C14 1_555 1_555
H22 C16 1_555 1_555
H23 C16 1_555 1_555
H24 C16 1_555 1_555
C17 C14 1_555 1_555
C18 C17 1_555 1_555
H25 C18 1_555 1_555
H26 C18 1_555 1_555
C19 C15 1_555 1_555
H27 C19 1_555 1_555
H28 C19 1_555 1_555
O1 C1 1_555 1_555
O2 C17 1_555 1_555
C5 C6 1_555 1_555
C10 C11 1_555 1_555
C14 C15 1_555 1_555
C18 C19 1_555 1_555

#END
