
#######################################################################
#
#                 Cambridge Crystallographic Data Centre
#                                CCDC 
#
#######################################################################
#
# If this CIF has been generated from an entry in the Cambridge 
# Structural Database, then it will include bibliographic, chemical, 
# crystal, experimental, refinement or atomic coordinate data resulting 
# from the CCDC's data processing and validation procedures.
#
#######################################################################

data_ANDRON10
_chemical_name_common            epiAndrosterone
_chemical_formula_moiety         'C19 H30 O2'
_chemical_name_systematic        5\a-Androstan-3\b-ol-17-one
_symmetry_cell_setting           monoclinic
_symmetry_space_group_name_H-M   'P 21'
_symmetry_Int_Tables_number      4
_space_group_name_Hall           'P 2yb'
loop_
_symmetry_equiv_pos_site_id
_symmetry_equiv_pos_as_xyz
1 x,y,z
2 -x,1/2+y,-z
_cell_length_a                   6.596(1)
_cell_length_b                   21.521(1)
_cell_length_c                   6.313(1)
_cell_angle_alpha                90
_cell_angle_beta                 109.39(1)
_cell_angle_gamma                90
_cell_volume                     845.317
_cell_formula_units_Z            2
loop_
_atom_site_label
_atom_site_type_symbol
_atom_site_fract_x
_atom_site_fract_y
_atom_site_fract_z
C1 C -0.48258 -0.22500 -0.52706
C2 C -0.24123 -0.23834 -0.46800
C3 C -0.32306 -0.35246 -0.60849
C4 C -0.28373 -0.42166 -0.54902
C5 C -0.04088 -0.43500 -0.47330
C6 C 0.07236 -0.39288 -0.27385
C7 C 0.29892 -0.42154 -0.17738
C8 C 0.25110 -0.49226 -0.20024
C9 C 0.02935 -0.49819 -0.36617
C10 C 0.04913 -0.43136 -0.66858
C11 C -0.16785 -0.21872 -0.66588
C12 C -0.53436 -0.15553 -0.54830
C13 C -0.41473 -0.12113 -0.33451
C14 C -0.17688 -0.13258 -0.26752
C15 C -0.12566 -0.20252 -0.24895
C16 C 0.11561 -0.21485 -0.16413
C17 C 0.16309 -0.28409 -0.12402
C18 C 0.04721 -0.32371 -0.32764
C19 C -0.19680 -0.30895 -0.41336
H1 H -0.54630 -0.24020 -0.38780
H2 H 0.18180 -0.19380 -0.00990
H3 H 0.32290 -0.28870 -0.08980
H4 H 0.10800 -0.29920 -0.00320
H5 H 0.09330 -0.31100 -0.45750
H6 H -0.25060 -0.31620 -0.27360
H7 H -0.49350 -0.34120 -0.64430
H8 H -0.27800 -0.33720 -0.73900
H9 H -0.33400 -0.43330 -0.41320
H10 H -0.34710 -0.44290 -0.69140
H11 H 0.00620 -0.40310 -0.15520
H12 H -0.56100 -0.24400 -0.67440
H13 H 0.38700 -0.39680 -0.28880
H14 H 0.36810 -0.40390 -0.02800
H15 H 0.33850 -0.51030 -0.28210
H16 H 0.26820 -0.51130 -0.04870
H17 H 0.05300 -0.38700 -0.74000
H18 H 0.22500 -0.43880 -0.60690
H19 H -0.05880 -0.45400 -0.78140
H20 H -0.18740 -0.16840 -0.70660
H21 H -0.02180 -0.23220 -0.63240
H22 H -0.24320 -0.23330 -0.80780
H23 H -0.49000 -0.13660 -0.67400
H24 H -0.61380 -0.04920 -0.42220
H25 H -0.69540 -0.15310 -0.56940
H26 H -0.47640 -0.13510 -0.19760
H27 H -0.11630 -0.11780 -0.38610
H28 H -0.11150 -0.11070 -0.10570
H29 H -0.18280 -0.22310 -0.13190
H30 H 0.19140 -0.19820 -0.29650
O1 O -0.07903 -0.54490 -0.40352
O2 O -0.45469 -0.05581 -0.36108
loop_
_geom_bond_atom_site_label_1
_geom_bond_atom_site_label_2
_geom_bond_site_symmetry_1
_geom_bond_site_symmetry_2
C1 C2 1_555 1_555
C2 C11 1_555 1_555
C3 C4 1_555 1_555
C4 C5 1_555 1_555
C5 C6 1_555 1_555
C6 C7 1_555 1_555
C7 C8 1_555 1_555
C8 C9 1_555 1_555
C9 C5 1_555 1_555
C10 C5 1_555 1_555
C11 H20 1_555 1_555
C12 C1 1_555 1_555
C13 C12 1_555 1_555
C14 C13 1_555 1_555
C15 C2 1_555 1_555
C16 C15 1_555 1_555
C17 C16 1_555 1_555
C18 C6 1_555 1_555
C19 C2 1_555 1_555
H1 C1 1_555 1_555
H2 C16 1_555 1_555
H3 C17 1_555 1_555
H4 C17 1_555 1_555
H5 C18 1_555 1_555
H6 C19 1_555 1_555
H7 C3 1_555 1_555
H8 C3 1_555 1_555
H9 C4 1_555 1_555
H10 C4 1_555 1_555
H11 C6 1_555 1_555
H12 C1 1_555 1_555
H13 C7 1_555 1_555
H14 C7 1_555 1_555
H15 C8 1_555 1_555
H16 C8 1_555 1_555
H17 C10 1_555 1_555
H18 C10 1_555 1_555
H19 C10 1_555 1_555
H21 C11 1_555 1_555
H22 C11 1_555 1_555
H23 C12 1_555 1_555
H24 O2 1_555 1_555
H25 C12 1_555 1_555
H26 C13 1_555 1_555
H27 C14 1_555 1_555
H28 C14 1_555 1_555
H29 C15 1_555 1_555
H30 C16 1_555 1_555
O1 C9 1_555 1_555
O2 C13 1_555 1_555
C3 C19 1_555 1_555
C14 C15 1_555 1_555
C17 C18 1_555 1_555
C18 C19 1_555 1_555

#END
