
#######################################################################
#
#                 Cambridge Crystallographic Data Centre
#                                CCDC 
#
#######################################################################
#
# If this CIF has been generated from an entry in the Cambridge 
# Structural Database, then it will include bibliographic, chemical, 
# crystal, experimental, refinement or atomic coordinate data resulting 
# from the CCDC's data processing and validation procedures.
#
#######################################################################

data_ANETIY
_chemical_name_common            (E,E)-5,16-dimesityl-[20]porphyrin(2.1.2.1)
_chemical_formula_moiety         'C40 H36 N4,2(C1 H1 Cl3)'
_chemical_name_systematic        
'(E,E)-2,13-dimesityl-23,24,25,26-tetraazapentacyclo[18.2.1.1^3,6^.1^9,12^.1^14,17^]hexacosa-1,3,5,7,9(25),10,12,14,16,18,20(23),21-dodecaene chloroform solvate'
_symmetry_cell_setting           monoclinic
_symmetry_space_group_name_H-M   'P 21/n'
_symmetry_Int_Tables_number      14
_space_group_name_Hall           '-P 2yn'
loop_
_symmetry_equiv_pos_site_id
_symmetry_equiv_pos_as_xyz
1 x,y,z
2 1/2-x,1/2+y,1/2-z
3 -x,-y,-z
4 1/2+x,1/2-y,1/2+z
_cell_length_a                   13.424(3)
_cell_length_b                   9.447(3)
_cell_length_c                   15.356(4)
_cell_angle_alpha                90
_cell_angle_beta                 92.076(9)
_cell_angle_gamma                90
_cell_volume                     1946.12
_exptl_crystal_colour            brown
_exptl_crystal_description       Prism
_cell_formula_units_Z            2
loop_
_atom_site_label
_atom_site_type_symbol
_atom_site_fract_x
_atom_site_fract_y
_atom_site_fract_z
C1 C 0.62852(12) 0.31873(17) 1.09367(10)
C2 C 0.57406(12) 0.44584(17) 1.11459(10)
H1 H 0.6018 0.5336 1.1335
C3 C 0.47556(12) 0.41557(17) 1.10200(11)
H2 H 0.4213 0.4782 1.1099
C4 C 0.46957(11) 0.26914(17) 1.07411(10)
C5 C 0.39029(12) 0.17175(18) 1.04795(11)
H3 H 0.4145 0.0781 1.0408
C6 C 0.29264(12) 0.18011(17) 1.03147(11)
H4 H 0.2579 0.2655 1.0426
C7 C 0.23918(11) 0.05753(17) 0.99621(10)
C8 C 0.13809(12) 0.02494(18) 0.98100(11)
H5 H 0.0833 0.0846 0.9928
C9 C 0.13251(12) -0.11138(18) 0.94531(11)
H6 H 0.0732 -0.1609 0.9288
C10 C 0.23023(11) -0.16172(17) 0.93841(10)
C11 C 0.26986(11) -0.29380(17) 0.90896(10)
C12 C 0.19714(11) -0.40753(17) 0.88424(10)
C13 C 0.15283(11) -0.48594(17) 0.95029(10)
C14 C 0.08567(12) -0.59297(17) 0.92673(11)
H7 H 0.0553 -0.6458 0.9712
C15 C 0.06183(11) -0.62480(17) 0.83997(11)
C16 C 0.10597(11) -0.54441(18) 0.77585(11)
H8 H 0.0899 -0.5643 0.7163
C17 C 0.17299(11) -0.43557(18) 0.79633(10)
C18 C 0.17866(13) -0.45749(19) 1.04513(11)
H9 H 0.1415 -0.5227 1.0814
H10 H 0.1610 -0.3597 1.0593
H11 H 0.2503 -0.4715 1.0562
C19 C -0.00844(13) -0.7439(2) 0.81552(12)
H12 H -0.0606 -0.7088 0.7748
H13 H -0.0389 -0.7803 0.8680
H14 H 0.0286 -0.8200 0.7878
C20 C 0.21850(14) -0.3516(2) 0.72433(11)
H15 H 0.2835 -0.3920 0.7112
H16 H 0.2272 -0.2530 0.7429
H17 H 0.1744 -0.3551 0.6721
N1 N 0.55984(10) 0.21360(15) 1.07061(9)
N2 N 0.29152(9) -0.05615(14) 0.96965(9)
H18 H 0.3570 -0.0615 0.9722
C1B C 0.37148(12) -0.31873(17) 0.90633(10)
C2B C 0.42594(12) -0.44584(17) 0.88541(10)
H1B H 0.3982 -0.5336 0.8665
C3B C 0.52444(12) -0.41557(17) 0.89800(11)
H2B H 0.5787 -0.4782 0.8901
C4B C 0.53043(11) -0.26914(17) 0.92589(10)
C5B C 0.60971(12) -0.17175(18) 0.95205(11)
H3B H 0.5855 -0.0781 0.9592
C6B C 0.70736(12) -0.18011(17) 0.96853(11)
H4B H 0.7421 -0.2655 0.9574
C7B C 0.76082(11) -0.05753(17) 1.00379(10)
C8B C 0.86191(12) -0.02494(18) 1.01900(11)
H5B H 0.9167 -0.0846 1.0072
C9B C 0.86749(12) 0.11138(18) 1.05469(11)
H6B H 0.9268 0.1609 1.0712
C10B C 0.76977(11) 0.16172(17) 1.06159(10)
C11B C 0.73014(11) 0.29380(17) 1.09104(10)
C12B C 0.80286(11) 0.40753(17) 1.11576(10)
C13B C 0.84717(11) 0.48594(17) 1.04971(10)
C14B C 0.91433(12) 0.59297(17) 1.07327(11)
H7B H 0.9447 0.6458 1.0288
C15B C 0.93817(11) 0.62480(17) 1.16003(11)
C16B C 0.89403(11) 0.54441(18) 1.22415(11)
H8B H 0.9101 0.5643 1.2837
C17B C 0.82701(11) 0.43557(18) 1.20367(10)
C18B C 0.82134(13) 0.45749(19) 0.95487(11)
H9B H 0.8585 0.5227 0.9186
H10B H 0.8390 0.3597 0.9407
H11B H 0.7497 0.4715 0.9438
C19B C 1.00844(13) 0.7439(2) 1.18448(12)
H12B H 1.0606 0.7088 1.2252
H13B H 1.0389 0.7803 1.1320
H14B H 0.9714 0.8200 1.2122
C20B C 0.78150(14) 0.3516(2) 1.27567(11)
H15B H 0.7165 0.3920 1.2888
H16B H 0.7728 0.2530 1.2571
H17B H 0.8256 0.3551 1.3279
N1B N 0.44016(10) -0.21360(15) 0.92939(9)
N2B N 0.70848(9) 0.05615(14) 1.03035(9)
H18B H 0.6430 0.0615 1.0278
C21 C -0.10465(14) -1.3320(2) 0.73801(12)
H19 H -0.0618 -1.4067 0.7663
Cl1 Cl -0.05797(4) -1.29459(5) 0.63502(3)
Cl2 Cl -0.10054(4) -1.18101(6) 0.80472(3)
Cl3 Cl -0.22680(4) -1.39702(8) 0.72700(4)
loop_
_geom_bond_atom_site_label_1
_geom_bond_atom_site_label_2
_geom_bond_site_symmetry_1
_geom_bond_site_symmetry_2
C1 C2 1_555 1_555
C2 H1 1_555 1_555
C3 C2 1_555 1_555
H2 C3 1_555 1_555
C4 C3 1_555 1_555
C5 C4 1_555 1_555
H3 C5 1_555 1_555
C6 C5 1_555 1_555
H4 C6 1_555 1_555
C7 C6 1_555 1_555
C8 C7 1_555 1_555
H5 C8 1_555 1_555
C9 C8 1_555 1_555
H6 C9 1_555 1_555
C10 C9 1_555 1_555
C11 C10 1_555 1_555
C12 C11 1_555 1_555
C13 C12 1_555 1_555
C14 C13 1_555 1_555
H7 C14 1_555 1_555
C15 C14 1_555 1_555
C16 C15 1_555 1_555
H8 C16 1_555 1_555
C17 C12 1_555 1_555
C18 C13 1_555 1_555
H9 C18 1_555 1_555
H10 C18 1_555 1_555
H11 C18 1_555 1_555
C19 C15 1_555 1_555
H12 C19 1_555 1_555
H13 C19 1_555 1_555
H14 C19 1_555 1_555
C20 C17 1_555 1_555
H15 C20 1_555 1_555
H16 C20 1_555 1_555
H17 C20 1_555 1_555
N1 C1 1_555 1_555
N2 C7 1_555 1_555
H18 N2 1_555 1_555
C21 H19 1_555 1_555
Cl1 C21 1_555 1_555
Cl2 C21 1_555 1_555
Cl3 C21 1_555 1_555
C1B C11 1_555 1_555
C2B C1B 1_555 1_555
H1B C2B 1_555 1_555
C3B C2B 1_555 1_555
H2B C3B 1_555 1_555
C4B C3B 1_555 1_555
C5B C4B 1_555 1_555
H3B C5B 1_555 1_555
C6B C5B 1_555 1_555
H4B C6B 1_555 1_555
C7B C6B 1_555 1_555
C8B C7B 1_555 1_555
H5B C8B 1_555 1_555
C9B C8B 1_555 1_555
H6B C9B 1_555 1_555
C10B C9B 1_555 1_555
C11B C1 1_555 1_555
C12B C11B 1_555 1_555
C13B C12B 1_555 1_555
C14B C13B 1_555 1_555
H7B C14B 1_555 1_555
C15B C14B 1_555 1_555
C16B C15B 1_555 1_555
H8B C16B 1_555 1_555
C17B C12B 1_555 1_555
C18B C13B 1_555 1_555
H9B C18B 1_555 1_555
H10B C18B 1_555 1_555
H11B C18B 1_555 1_555
C19B C15B 1_555 1_555
H12B C19B 1_555 1_555
H13B C19B 1_555 1_555
H14B C19B 1_555 1_555
C20B C17B 1_555 1_555
H15B C20B 1_555 1_555
H16B C20B 1_555 1_555
H17B C20B 1_555 1_555
N1B C1B 1_555 1_555
N2B C7B 1_555 1_555
H18B N2B 1_555 1_555
C4 N1 1_555 1_555
C10 N2 1_555 1_555
C16 C17 1_555 1_555
C4B N1B 1_555 1_555
C10B C11B 1_555 1_555
C10B N2B 1_555 1_555
C16B C17B 1_555 1_555

#END
