
#######################################################################
#
#                 Cambridge Crystallographic Data Centre
#                                CCDC 
#
#######################################################################
#
# If this CIF has been generated from an entry in the Cambridge 
# Structural Database, then it will include bibliographic, chemical, 
# crystal, experimental, refinement or atomic coordinate data resulting 
# from the CCDC's data processing and validation procedures.
#
#######################################################################

data_ANIJUE
_chemical_formula_moiety         'C13 H13 N1 O1'
_chemical_name_systematic        
(3,5-Dimethyl-1H-pyrrol-2-yl)(phenyl)methanone
_symmetry_cell_setting           monoclinic
_symmetry_space_group_name_H-M   'C 2/c'
_symmetry_Int_Tables_number      15
_space_group_name_Hall           '-C 2yn'
loop_
_symmetry_equiv_pos_site_id
_symmetry_equiv_pos_as_xyz
1 x,y,z
2 -x,y,1/2-z
3 1/2+x,1/2+y,z
4 1/2-x,1/2+y,1/2-z
5 -x,-y,-z
6 x,-y,1/2+z
7 1/2-x,1/2-y,-z
8 1/2+x,1/2-y,1/2+z
_cell_length_a                   25.755(7)
_cell_length_b                   6.5962(16)
_cell_length_c                   14.503(4)
_cell_angle_alpha                90
_cell_angle_beta                 116.935(5)
_cell_angle_gamma                90
_cell_volume                     2196.57
_exptl_crystal_colour            colorless
_exptl_crystal_description       block
_cell_formula_units_Z            8
loop_
_atom_site_label
_atom_site_type_symbol
_atom_site_fract_x
_atom_site_fract_y
_atom_site_fract_z
N1 N 0.19605(7) 0.2779(3) 0.08665(13)
H1 H 0.2241 0.2467 0.1458
O1 O 0.21736(6) 0.5700(2) 0.23331(12)
C1 C 0.16027(8) 0.4441(3) 0.06853(16)
C2 C 0.12220(9) 0.4446(3) -0.03716(17)
C3 C 0.13576(9) 0.2726(4) -0.07836(18)
H2 H 0.1170 0.2332 -0.1474
C4 C 0.18111(9) 0.1708(3) -0.00092(18)
C5 C 0.21193(10) -0.0191(3) -0.0016(2)
H3 H 0.2525 -0.0062 0.0457
H4 H 0.2075 -0.0432 -0.0701
H5 H 0.1957 -0.1306 0.0191
C6 C 0.07803(10) 0.6011(4) -0.10058(19)
H6 H 0.0411 0.5693 -0.1027
H7 H 0.0741 0.6016 -0.1696
H8 H 0.0906 0.7324 -0.0700
C7 C 0.17080(9) 0.5785(3) 0.15294(17)
C8 C 0.12592(9) 0.7268(3) 0.14765(16)
C9 C 0.14329(10) 0.9203(3) 0.18634(18)
H9 H 0.1822 0.9577 0.2120
C10 C 0.10339(12) 1.0572(4) 0.1870(2)
H10 H 0.1151 1.1880 0.2114
C11 C 0.04640(12) 1.0020(4) 0.1520(2)
H11 H 0.0196 1.0950 0.1533
C12 C 0.02863(11) 0.8103(5) 0.1150(2)
H12 H -0.0101 0.7730 0.0922
C13 C 0.06793(9) 0.6722(4) 0.11150(18)
H13 H 0.0556 0.5430 0.0850
loop_
_geom_bond_atom_site_label_1
_geom_bond_atom_site_label_2
_geom_bond_site_symmetry_1
_geom_bond_site_symmetry_2
N1 H1 1_555 1_555
O1 C7 1_555 1_555
C1 N1 1_555 1_555
C2 C1 1_555 1_555
C3 C2 1_555 1_555
H2 C3 1_555 1_555
C4 N1 1_555 1_555
C5 C4 1_555 1_555
H3 C5 1_555 1_555
H4 C5 1_555 1_555
H5 C5 1_555 1_555
C6 C2 1_555 1_555
H6 C6 1_555 1_555
H7 C6 1_555 1_555
H8 C6 1_555 1_555
C7 C1 1_555 1_555
C8 C7 1_555 1_555
C9 C8 1_555 1_555
H9 C9 1_555 1_555
C10 C9 1_555 1_555
H10 C10 1_555 1_555
C11 C10 1_555 1_555
H11 C11 1_555 1_555
C12 C11 1_555 1_555
H12 C12 1_555 1_555
C13 C8 1_555 1_555
H13 C13 1_555 1_555
C3 C4 1_555 1_555
C12 C13 1_555 1_555

#END
