
#######################################################################
#
#                 Cambridge Crystallographic Data Centre
#                                CCDC 
#
#######################################################################
#
# If this CIF has been generated from an entry in the Cambridge 
# Structural Database, then it will include bibliographic, chemical, 
# crystal, experimental, refinement or atomic coordinate data resulting 
# from the CCDC's data processing and validation procedures.
#
#######################################################################

data_ANISOH
_chemical_formula_moiety         'C14 H9 N3 O4'
_chemical_name_systematic        N-(7-nitroquinolin-8-yl)-2-furamide
_symmetry_cell_setting           monoclinic
_symmetry_space_group_name_H-M   'P 21/c'
_symmetry_Int_Tables_number      14
_space_group_name_Hall           '-P 2ybc'
loop_
_symmetry_equiv_pos_site_id
_symmetry_equiv_pos_as_xyz
1 x,y,z
2 -x,1/2+y,1/2-z
3 -x,-y,-z
4 x,1/2-y,1/2+z
_cell_length_a                   5.2240(4)
_cell_length_b                   8.1944(6)
_cell_length_c                   28.014(2)
_cell_angle_alpha                90
_cell_angle_beta                 92.3080(10)
_cell_angle_gamma                90
_cell_volume                     1198.24
_exptl_crystal_colour            yellow
_exptl_crystal_description       prism
_cell_formula_units_Z            4
loop_
_atom_site_label
_atom_site_type_symbol
_atom_site_fract_x
_atom_site_fract_y
_atom_site_fract_z
O1 O -0.30620(16) 0.48885(10) 0.39949(3)
N1 N 0.3631(2) 0.12586(12) 0.39328(4)
C1 C 0.1711(2) 0.13196(14) 0.35880(4)
O2 O -0.14154(16) 0.70603(10) 0.46731(3)
C2 C 0.0325(2) 0.28218(14) 0.35335(4)
N2 N 0.1018(2) 0.40972(12) 0.38477(4)
N3 N -0.2968(2) 0.44209(13) 0.30677(4)
O3 O -0.52796(17) 0.43302(12) 0.29685(3)
C3 C -0.1613(2) 0.28900(14) 0.31861(4)
O4 O -0.17258(18) 0.56887(11) 0.30532(3)
C4 C -0.2351(2) 0.15312(15) 0.29030(4)
H1 H -0.372(3) 0.165(2) 0.2676(6)
C5 C -0.1032(2) 0.00995(15) 0.29523(4)
H2 H -0.148(3) -0.084(2) 0.2761(6)
C6 C 0.1046(2) -0.00325(14) 0.32900(4)
C7 C 0.2510(2) -0.14830(15) 0.33546(5)
H3 H 0.209(3) -0.242(2) 0.3161(6)
C8 C 0.4459(3) -0.15214(15) 0.36907(5)
H4 H 0.543(3) -0.247(2) 0.3741(6)
C9 C 0.4939(2) -0.01160(15) 0.39732(5)
H5 H 0.626(3) -0.014(2) 0.4221(6)
C10 C -0.0749(2) 0.49877(13) 0.40841(4)
C11 C 0.0327(2) 0.60646(14) 0.44614(4)
C12 C -0.0070(3) 0.78662(15) 0.50291(4)
H6 H -0.106(3) 0.857(2) 0.5214(6)
C13 C 0.2420(2) 0.74246(15) 0.50448(5)
H7 H 0.370(3) 0.783(2) 0.5274(6)
C14 C 0.2683(2) 0.62470(15) 0.46737(4)
H8 H 0.425(3) 0.573(2) 0.4578(6)
H9 H 0.257(3) 0.4125(19) 0.3949(6)
loop_
_geom_bond_atom_site_label_1
_geom_bond_atom_site_label_2
_geom_bond_site_symmetry_1
_geom_bond_site_symmetry_2
O1 C10 1_555 1_555
N1 C1 1_555 1_555
C1 C2 1_555 1_555
O2 C11 1_555 1_555
C2 N2 1_555 1_555
N2 C10 1_555 1_555
N3 O3 1_555 1_555
C3 C2 1_555 1_555
O4 N3 1_555 1_555
C4 C3 1_555 1_555
H1 C4 1_555 1_555
C5 C4 1_555 1_555
H2 C5 1_555 1_555
C6 C1 1_555 1_555
C7 C6 1_555 1_555
H3 C7 1_555 1_555
C8 C7 1_555 1_555
H4 C8 1_555 1_555
C9 N1 1_555 1_555
H5 C9 1_555 1_555
C10 C11 1_555 1_555
C11 C14 1_555 1_555
C12 O2 1_555 1_555
H6 C12 1_555 1_555
C13 C12 1_555 1_555
H7 C13 1_555 1_555
C14 C13 1_555 1_555
H8 C14 1_555 1_555
H9 N2 1_555 1_555
N3 C3 1_555 1_555
C5 C6 1_555 1_555
C8 C9 1_555 1_555

#END
