
#######################################################################
#
#                 Cambridge Crystallographic Data Centre
#                                CCDC 
#
#######################################################################
#
# If this CIF has been generated from an entry in the Cambridge 
# Structural Database, then it will include bibliographic, chemical, 
# crystal, experimental, refinement or atomic coordinate data resulting 
# from the CCDC's data processing and validation procedures.
#
#######################################################################

data_ANIVID01
_chemical_formula_moiety         'C22 H25 N1 O2'
_chemical_name_systematic        
(3-benzyl-3-methyl-2,3-dihydro-1-benzofuran-6-yl)(piperidin-1-yl)methanone
_symmetry_cell_setting           monoclinic
_symmetry_space_group_name_H-M   'P 21'
_symmetry_Int_Tables_number      4
_space_group_name_Hall           'P 2yb'
loop_
_symmetry_equiv_pos_site_id
_symmetry_equiv_pos_as_xyz
1 x,y,z
2 -x,1/2+y,-z
_cell_length_a                   9.5195(3)
_cell_length_b                   6.2069(2)
_cell_length_c                   16.2994(4)
_cell_angle_alpha                90
_cell_angle_beta                 106.785(3)
_cell_angle_gamma                90
_cell_volume                     922.044
_exptl_crystal_colour            'light colorless'
_exptl_crystal_description       block
_cell_formula_units_Z            2
loop_
_atom_site_label
_atom_site_type_symbol
_atom_site_fract_x
_atom_site_fract_y
_atom_site_fract_z
O1 O 0.6498(3) 0.6441(6) 0.72006(16)
O2 O 0.1282(2) 0.8346(4) 0.47456(12)
N1 N 0.5051(3) 0.4330(6) 0.77161(15)
C1 C 0.3646(4) 0.3300(11) 0.7657(2)
H1 H 0.307982 0.319643 0.705911
H2 H 0.309969 0.419081 0.794677
C2 C 0.3824(6) 0.1141(11) 0.8038(3)
H3 H 0.421467 0.018443 0.768696
H4 H 0.286964 0.059421 0.803905
C3 C 0.4839(5) 0.1120(10) 0.8949(2)
H5 H 0.436684 0.184307 0.932577
H6 H 0.503482 -0.035659 0.914280
C4 C 0.6262(4) 0.2238(9) 0.8988(3)
H7 H 0.684002 0.237214 0.958299
H8 H 0.681319 0.135785 0.869785
C5 C 0.6042(4) 0.4408(8) 0.8591(2)
H9 H 0.563626 0.536214 0.893549
H10 H 0.698202 0.498836 0.857896
C6 C 0.5361(3) 0.5446(6) 0.70918(19)
C7 C 0.4277(3) 0.5312(5) 0.62073(17)
C8 C 0.3325(3) 0.7018(6) 0.59224(18)
H11 H 0.335128 0.823111 0.626162
C9 C 0.2326(3) 0.6857(5) 0.51105(16)
C10 C 0.0249(3) 0.7257(6) 0.40339(17)
H12 H -0.013637 0.825267 0.356410
H13 H -0.056409 0.667890 0.421161
C11 C 0.1097(3) 0.5428(5) 0.37546(16)
C12 C 0.2301(3) 0.5088(5) 0.45932(16)
C13 C 0.3276(3) 0.3434(6) 0.48696(18)
H14 H 0.328031 0.225709 0.451704
C14 C 0.4262(3) 0.3545(6) 0.56901(18)
H15 H 0.491527 0.241884 0.589019
C15 C 0.1822(3) 0.6185(6) 0.30625(16)
H16 H 0.233683 0.752602 0.325209
H17 H 0.254728 0.512327 0.302231
C16 C 0.0776(3) 0.6525(5) 0.21804(15)
C17 C 0.0155(4) 0.8517(6) 0.19202(18)
H18 H 0.040467 0.967855 0.229437
C18 C -0.0824(4) 0.8826(7) 0.1120(2)
H19 H -0.124945 1.017163 0.096963
C19 C -0.1172(4) 0.7154(8) 0.05459(19)
H20 H -0.182181 0.736535 0.000369
C20 C -0.0552(4) 0.5168(7) 0.07801(19)
H21 H -0.078611 0.402415 0.039611
C21 C 0.0427(3) 0.4860(5) 0.15908(18)
H22 H 0.085296 0.351328 0.173860
C22 C 0.0174(3) 0.3417(6) 0.34795(17)
H23 H 0.076343 0.230562 0.333634
H24 H -0.063821 0.373975 0.298788
H25 H -0.018857 0.293542 0.394009
loop_
_geom_bond_atom_site_label_1
_geom_bond_atom_site_label_2
_geom_bond_site_symmetry_1
_geom_bond_site_symmetry_2
O1 C6 1_555 1_555
O2 C9 1_555 1_555
N1 C1 1_555 1_555
C1 H1 1_555 1_555
H2 C1 1_555 1_555
C2 C1 1_555 1_555
H3 C2 1_555 1_555
H4 C2 1_555 1_555
C3 C2 1_555 1_555
H5 C3 1_555 1_555
H6 C3 1_555 1_555
C4 C3 1_555 1_555
H7 C4 1_555 1_555
H8 C4 1_555 1_555
C5 N1 1_555 1_555
H9 C5 1_555 1_555
H10 C5 1_555 1_555
C6 N1 1_555 1_555
C7 C6 1_555 1_555
C8 C7 1_555 1_555
H11 C8 1_555 1_555
C9 C8 1_555 1_555
C10 O2 1_555 1_555
H12 C10 1_555 1_555
H13 C10 1_555 1_555
C11 C10 1_555 1_555
C12 C9 1_555 1_555
C13 C12 1_555 1_555
H14 C13 1_555 1_555
C14 C7 1_555 1_555
H15 C14 1_555 1_555
C15 C11 1_555 1_555
H16 C15 1_555 1_555
H17 C15 1_555 1_555
C16 C15 1_555 1_555
C17 C16 1_555 1_555
H18 C17 1_555 1_555
C18 C17 1_555 1_555
H19 C18 1_555 1_555
C19 C18 1_555 1_555
H20 C19 1_555 1_555
C20 C19 1_555 1_555
H21 C20 1_555 1_555
C21 C16 1_555 1_555
H22 C21 1_555 1_555
C22 C11 1_555 1_555
H23 C22 1_555 1_555
H24 C22 1_555 1_555
H25 C22 1_555 1_555
C4 C5 1_555 1_555
C11 C12 1_555 1_555
C13 C14 1_555 1_555
C20 C21 1_555 1_555

#END
