
#######################################################################
#
#                 Cambridge Crystallographic Data Centre
#                                CCDC 
#
#######################################################################
#
# If this CIF has been generated from an entry in the Cambridge 
# Structural Database, then it will include bibliographic, chemical, 
# crystal, experimental, refinement or atomic coordinate data resulting 
# from the CCDC's data processing and validation procedures.
#
#######################################################################

data_ANIWAW
_chemical_name_common            
'Ethyl 2-(4-methoxybenzylidene)-7-methyl-3-oxo-5-(2-thienyl)-2,3-dihydro-5H-[1,3]thiazolo[3,2-a]pyrimidine-6-carboxylate'
_chemical_formula_moiety         'C22 H20 N2 O4 S2'
_chemical_name_systematic        
'(E)-ethyl 2-(4-methoxybenzylidene)-7-methyl-3-oxo-5-(thiophen-2-yl)-3,5-dihydro-2H-thiazolo[3,2-a]pyrimidine-6-carboxylate'
_symmetry_cell_setting           triclinic
_symmetry_space_group_name_H-M   'P -1'
_symmetry_Int_Tables_number      2
_space_group_name_Hall           '-P 1'
loop_
_symmetry_equiv_pos_site_id
_symmetry_equiv_pos_as_xyz
1 x,y,z
2 -x,-y,-z
_cell_length_a                   8.2219(2)
_cell_length_b                   9.4602(2)
_cell_length_c                   13.6744(3)
_cell_angle_alpha                80.1927(11)
_cell_angle_beta                 84.8725(11)
_cell_angle_gamma                84.6469(10)
_cell_volume                     1040.56
_exptl_crystal_colour            yellow
_exptl_crystal_description       plate
_cell_formula_units_Z            2
loop_
_atom_site_label
_atom_site_type_symbol
_atom_site_fract_x
_atom_site_fract_y
_atom_site_fract_z
S1 S 0.44664(6) 0.76185(5) 0.75180(3)
S2 S 0.78465(9) 0.17175(6) 0.80939(6)
O1 O 0.62001(19) 0.44353(17) 0.62228(11)
O2 O -0.29674(19) 0.92207(19) 0.54299(14)
O3 O 1.20369(19) 0.51180(19) 0.88934(14)
O4 O 1.13066(17) 0.36390(16) 0.79353(13)
N1 N 0.69086(19) 0.57083(15) 0.73767(11)
N2 N 0.72058(19) 0.73577(17) 0.84601(12)
C1 C 0.4386(2) 0.64188(19) 0.66794(13)
C2 C 0.5885(2) 0.5411(2) 0.67002(13)
C3 C 0.8269(2) 0.46876(18) 0.77353(13)
C4 C 0.9366(2) 0.54767(19) 0.82621(13)
C5 C 0.8806(2) 0.67031(19) 0.86020(14)
C6 C 0.6393(2) 0.68549(19) 0.78537(13)
C7 C 0.3201(2) 0.6303(2) 0.60921(14)
C8 C 0.1617(2) 0.7112(2) 0.59697(13)
C9 C 0.0590(3) 0.6703(2) 0.53245(16)
C10 C -0.0930(3) 0.7414(3) 0.51651(18)
C11 C -0.1469(2) 0.8578(2) 0.56418(15)
C12 C -0.0470(3) 0.9016(2) 0.62792(15)
C13 C 0.1055(3) 0.8287(2) 0.64369(15)
C14 C -0.3561(3) 1.0433(3) 0.5900(2)
C15 C 0.7599(2) 0.34047(18) 0.84082(13)
C16 C 0.6788(3) 0.0987(2) 0.9159(2)
C17 C 0.6249(3) 0.1982(3) 0.97233(17)
C18 C 0.6698(3) 0.3390(2) 0.93107(15)
C19 C 1.1031(2) 0.4777(2) 0.84085(15)
C20 C 0.9770(3) 0.7547(2) 0.9155(2)
C21 C 1.2859(3) 0.2782(3) 0.8086(3)
C22 C 1.2718(4) 0.1373(4) 0.7828(3)
H1 H 0.888(3) 0.439(3) 0.7193(18)
H2 H 0.344(3) 0.560(3) 0.5725(17)
H3 H 0.091(3) 0.596(3) 0.4994(19)
H4 H -0.163(4) 0.708(4) 0.475(2)
H5 H -0.077(3) 0.970(3) 0.6604(19)
H6 H 0.166(4) 0.867(3) 0.694(2)
H7 H -0.276(3) 1.120(3) 0.574(2)
H8 H -0.359(3) 1.013(3) 0.665(2)
H9 H -0.469(4) 1.074(3) 0.563(2)
H10 H 0.659(4) -0.004(3) 0.933(2)
H11 H 0.558(4) 0.184(4) 1.038(3)
H12 H 0.642(3) 0.417(3) 0.9586(19)
H13 H 0.976(4) 0.849(4) 0.888(2)
H14 H 0.935(5) 0.766(4) 0.973(3)
H15 H 1.095(5) 0.747(4) 0.903(3)
H16 H 1.3744 0.3255 0.7664
H17 H 1.3113 0.2683 0.8782
H18 H 1.1880 0.0890 0.8272
H19 H 1.3759 0.0805 0.7892
H20 H 1.2420 0.1483 0.7147
loop_
_geom_bond_atom_site_label_1
_geom_bond_atom_site_label_2
_geom_bond_site_symmetry_1
_geom_bond_site_symmetry_2
S1 C1 1_555 1_555
S2 C15 1_555 1_555
O1 C2 1_555 1_555
O2 C11 1_555 1_555
O3 C19 1_555 1_555
O4 C19 1_555 1_555
N1 C2 1_555 1_555
N2 C5 1_555 1_555
C1 C2 1_555 1_555
C3 N1 1_555 1_555
C4 C3 1_555 1_555
C5 C4 1_555 1_555
C6 S1 1_555 1_555
C7 C1 1_555 1_555
C8 C7 1_555 1_555
C9 C8 1_555 1_555
C10 C9 1_555 1_555
C11 C10 1_555 1_555
C12 C11 1_555 1_555
C13 C8 1_555 1_555
C14 O2 1_555 1_555
C15 C3 1_555 1_555
C16 S2 1_555 1_555
C17 C16 1_555 1_555
C18 C15 1_555 1_555
C19 C4 1_555 1_555
C20 C5 1_555 1_555
C21 O4 1_555 1_555
C22 C21 1_555 1_555
H1 C3 1_555 1_555
H2 C7 1_555 1_555
H3 C9 1_555 1_555
H4 C10 1_555 1_555
H5 C12 1_555 1_555
H6 C13 1_555 1_555
H7 C14 1_555 1_555
H8 C14 1_555 1_555
H9 C14 1_555 1_555
H10 C16 1_555 1_555
H11 C17 1_555 1_555
H12 C18 1_555 1_555
H13 C20 1_555 1_555
H14 C20 1_555 1_555
H15 C20 1_555 1_555
H16 C21 1_555 1_555
H17 C21 1_555 1_555
H18 C22 1_555 1_555
H19 C22 1_555 1_555
H20 C22 1_555 1_555
N1 C6 1_555 1_555
N2 C6 1_555 1_555
C12 C13 1_555 1_555
C17 C18 1_555 1_555

#END
