
#######################################################################
#
#                 Cambridge Crystallographic Data Centre
#                                CCDC 
#
#######################################################################
#
# If this CIF has been generated from an entry in the Cambridge 
# Structural Database, then it will include bibliographic, chemical, 
# crystal, experimental, refinement or atomic coordinate data resulting 
# from the CCDC's data processing and validation procedures.
#
#######################################################################

data_ANORUR
_chemical_formula_moiety         'C24 H25 N5 O3,C1 H1 Cl3'
_chemical_name_systematic        
'4-Amino-2-(3-(2-(4-methylpiperazin-1-yl)ethoxy)phenyl)-5H-chromeno[4,3-d]pyrimidin-5-one chloroform solvate'
_symmetry_cell_setting           triclinic
_symmetry_space_group_name_H-M   'P -1'
_symmetry_Int_Tables_number      2
_space_group_name_Hall           '-P 1'
loop_
_symmetry_equiv_pos_site_id
_symmetry_equiv_pos_as_xyz
1 x,y,z
2 -x,-y,-z
_cell_length_a                   9.2025(3)
_cell_length_b                   11.0726(3)
_cell_length_c                   14.1584(4)
_cell_angle_alpha                83.548(2)
_cell_angle_beta                 72.050(2)
_cell_angle_gamma                67.759(3)
_cell_volume                     1270.33
_cell_formula_units_Z            2
loop_
_atom_site_label
_atom_site_type_symbol
_atom_site_fract_x
_atom_site_fract_y
_atom_site_fract_z
Cl1 Cl 0.64034(6) 0.81084(4) 0.14396(3)
Cl2 Cl 0.69845(6) 0.87797(4) -0.06397(3)
Cl3 Cl 0.77285(8) 0.61026(4) -0.00451(4)
C1 C 0.6391(2) 0.77149(15) 0.02749(11)
H1 H 0.5278 0.7792 0.0313
O1 O 0.41473(11) 0.49549(9) 0.40510(7)
O2 O 0.16521(12) 0.52263(9) 0.49892(8)
N1 N 0.60540(13) 0.12545(10) 0.51817(8)
N2 N 0.34199(13) 0.15097(10) 0.63264(8)
O3 O 0.46767(13) -0.25866(10) 0.84209(7)
C2 C 0.37512(16) 0.32343(12) 0.51905(9)
C3 C 0.54001(15) 0.24485(12) 0.48307(9)
C4 C 0.64561(16) 0.29458(13) 0.40252(9)
C5 C 0.57405(16) -0.04547(12) 0.63369(9)
C6 C 0.50153(15) 0.08581(12) 0.59230(9)
N3 N 0.11341(14) 0.33078(11) 0.63170(9)
H2 H 0.0570 0.2947 0.6774
H3 H 0.0657 0.4065 0.6097
C7 C 0.73532(16) -0.12488(13) 0.58937(10)
H4 H 0.7989 -0.0960 0.5338
C8 C 0.27438(16) 0.26952(12) 0.59508(9)
C9 C 0.57804(16) 0.41879(13) 0.36652(10)
N4 N 0.24643(14) -0.24324(11) 1.05894(8)
N5 N 0.12873(14) -0.20715(11) 1.27130(8)
C10 C 0.66997(18) 0.47345(14) 0.29000(11)
H5 H 0.6225 0.5574 0.2679
C11 C 0.81156(16) 0.22311(13) 0.35884(10)
H6 H 0.8601 0.1400 0.3819
C12 C 0.83337(18) 0.40039(15) 0.24751(10)
H7 H 0.8966 0.4351 0.1958
C13 C 0.47895(17) -0.08898(13) 0.71754(9)
H8 H 0.3700 -0.0373 0.7463
C14 C 0.80141(17) -0.24777(13) 0.62825(10)
H9 H 0.9083 -0.3019 0.5975
C15 C 0.70891(18) -0.28980(13) 0.71246(10)
H10 H 0.7541 -0.3714 0.7389
C16 C 0.30778(16) 0.45059(13) 0.47700(10)
C17 C 0.54832(17) -0.20982(13) 0.75754(10)
C18 C 0.26805(17) -0.32211(13) 1.22405(10)
H11 H 0.2731 -0.3961 1.2684
H12 H 0.3690 -0.3062 1.2115
C19 C 0.25236(19) -0.35332(13) 1.12756(10)
H13 H 0.3451 -0.4302 1.0977
H14 H 0.1532 -0.3720 1.1402
C20 C 0.11821(19) -0.09662(13) 1.20349(10)
H15 H 0.2147 -0.0744 1.1915
H16 H 0.0227 -0.0215 1.2336
C21 C 0.90403(17) 0.27523(15) 0.28149(10)
H17 H 1.0139 0.2264 0.2521
C22 C 0.29481(19) -0.19209(14) 0.87937(10)
H18 H 0.2428 -0.1835 0.8276
H19 H 0.2708 -0.1055 0.9026
C23 C 0.10578(18) -0.12870(14) 1.10594(11)
H20 H 0.0055 -0.1453 1.1174
H21 H 0.1009 -0.0546 1.0618
C24 C 0.2321(2) -0.27251(16) 0.96429(10)
H22 H 0.1179 -0.2557 0.9712
H23 H 0.2936 -0.3644 0.9488
C25 C 0.1461(2) -0.17616(16) 1.36424(11)
H24 H 0.2443 -0.1575 1.3505
H25 H 0.1522 -0.2493 1.4083
H26 H 0.0530 -0.1014 1.3948
loop_
_geom_bond_atom_site_label_1
_geom_bond_atom_site_label_2
_geom_bond_site_symmetry_1
_geom_bond_site_symmetry_2
Cl1 C1 1_555 1_555
Cl2 C1 1_555 1_555
Cl3 C1 1_555 1_555
C1 H1 1_555 1_555
O1 C9 1_555 1_555
O2 C16 1_555 1_555
N1 C3 1_555 1_555
N2 C6 1_555 1_555
O3 C17 1_555 1_555
C2 C3 1_555 1_555
C3 C4 1_555 1_555
C4 C9 1_555 1_555
C5 C6 1_555 1_555
C6 N1 1_555 1_555
N3 H2 1_555 1_555
H3 N3 1_555 1_555
C7 C5 1_555 1_555
H4 C7 1_555 1_555
C8 N2 1_555 1_555
C9 C10 1_555 1_555
N4 C19 1_555 1_555
N5 C18 1_555 1_555
C10 H5 1_555 1_555
C11 C4 1_555 1_555
H6 C11 1_555 1_555
C12 C10 1_555 1_555
H7 C12 1_555 1_555
C13 C5 1_555 1_555
H8 C13 1_555 1_555
C14 C7 1_555 1_555
H9 C14 1_555 1_555
C15 C14 1_555 1_555
H10 C15 1_555 1_555
C16 O1 1_555 1_555
C17 C13 1_555 1_555
C18 H11 1_555 1_555
H12 C18 1_555 1_555
C19 C18 1_555 1_555
H13 C19 1_555 1_555
H14 C19 1_555 1_555
C20 N5 1_555 1_555
H15 C20 1_555 1_555
H16 C20 1_555 1_555
C21 C11 1_555 1_555
H17 C21 1_555 1_555
C22 O3 1_555 1_555
H18 C22 1_555 1_555
H19 C22 1_555 1_555
C23 N4 1_555 1_555
H20 C23 1_555 1_555
H21 C23 1_555 1_555
C24 N4 1_555 1_555
H22 C24 1_555 1_555
H23 C24 1_555 1_555
C25 N5 1_555 1_555
H24 C25 1_555 1_555
H25 C25 1_555 1_555
H26 C25 1_555 1_555
C2 C8 1_555 1_555
C2 C16 1_555 1_555
N3 C8 1_555 1_555
C12 C21 1_555 1_555
C15 C17 1_555 1_555
C20 C23 1_555 1_555
C22 C24 1_555 1_555

#END
