
#######################################################################
#
#                 Cambridge Crystallographic Data Centre
#                                CCDC 
#
#######################################################################
#
# If this CIF has been generated from an entry in the Cambridge 
# Structural Database, then it will include bibliographic, chemical, 
# crystal, experimental, refinement or atomic coordinate data resulting 
# from the CCDC's data processing and validation procedures.
#
#######################################################################

data_ANTHON10
_chemical_formula_moiety         'C22 H10 O2'
_chemical_name_systematic        Anthanthrone
_symmetry_cell_setting           monoclinic
_symmetry_space_group_name_H-M   'P 21/c'
_symmetry_Int_Tables_number      14
_space_group_name_Hall           '-P 2ybc'
loop_
_symmetry_equiv_pos_site_id
_symmetry_equiv_pos_as_xyz
1 x,y,z
2 -x,1/2+y,1/2-z
3 -x,-y,-z
4 x,1/2-y,1/2+z
_cell_length_a                   20.9(1)
_cell_length_b                   3.86(2)
_cell_length_c                   33.2(1)
_cell_angle_alpha                90
_cell_angle_beta                 92.0(5)
_cell_angle_gamma                90
_cell_volume                     2676.75
_cell_formula_units_Z            8
loop_
_atom_site_label
_atom_site_type_symbol
_atom_site_fract_x
_atom_site_fract_y
_atom_site_fract_z
C1 C 0.18710 -0.45460 -0.04960
C2 C 0.04210 0.05360 0.04950
C3 C 0.10520 -0.08310 0.03880
C12 C 0.17520 -0.34310 -0.00990
C23 C 0.11670 -0.21150 -0.00120
C34 C 0.14110 -0.43880 -0.07760
C40 C 0.07790 -0.30590 -0.06900
C41 C 0.06630 -0.18740 -0.02960
C42 C -0.00480 0.06030 0.01930
C43 C 0.02450 -0.28890 -0.09720
C44 C 0.03070 0.16770 0.08970
O1 O 0.14920 -0.09890 0.06640
C42B C 0.00480 -0.06030 -0.01930
C41B C -0.06630 0.18740 0.02960
C44B C -0.03070 -0.16770 -0.08970
C43B C -0.02450 0.28890 0.09720
C2B C -0.04210 -0.05360 -0.04950
C23B C -0.11670 0.21150 0.00120
C40B C -0.07790 0.30590 0.06900
C3B C -0.10520 0.08310 -0.03880
C12B C -0.17520 0.34310 0.00990
C34B C -0.14110 0.43880 0.07760
O1B O -0.14920 0.09890 -0.06640
C1B C -0.18710 0.45460 0.04960
C4 C -0.30470 -0.28100 -0.05700
C5 C -0.32180 -0.21080 -0.01700
C6 C -0.38340 -0.31000 -0.00450
C7 C -0.34550 -0.43790 -0.08400
C8 C -0.40900 -0.51740 -0.07200
C9 C -0.42660 -0.46340 -0.03210
C10 C -0.49170 -0.53250 -0.02070
C11 C -0.45410 -0.67740 -0.09870
C13 C -0.51360 -0.75840 -0.08810
C14 C -0.53290 -0.67510 -0.04760
C15 C -0.40150 -0.22540 0.03590
O2 O -0.36470 -0.09410 0.06090
C10B C -0.50830 -0.46750 0.02070
C15B C -0.59850 -0.77460 -0.03590
C14B C -0.46710 -0.32490 0.04760
C9B C -0.57340 -0.53660 0.03210
C6B C -0.61660 -0.69000 0.00450
O2B O -0.63530 -0.90590 -0.06090
C13B C -0.48640 -0.24160 0.08810
C8B C -0.59100 -0.48260 0.07200
C5B C -0.67820 -0.78920 0.01700
C11B C -0.54590 -0.32260 0.09870
C7B C -0.65450 -0.56210 0.08400
C4B C -0.69530 -0.71900 0.05700
C16 C 0.43560 0.73700 0.31310
C17 C 0.42870 0.61220 0.27530
C18 C 0.36980 0.46140 0.26210
C19 C 0.38440 0.74330 0.34030
C20 C 0.32340 0.59620 0.32710
C21 C 0.31600 0.45390 0.28870
C22 C 0.25540 0.32390 0.27570
C24 C 0.27140 0.60040 0.35350
C25 C 0.21490 0.46570 0.33890
C26 C 0.20530 0.31820 0.30120
C27 C 0.14440 0.18160 0.28910
C28 C 0.06730 -0.22920 0.19880
C29 C 0.07560 -0.09720 0.23760
C30 C 0.13330 0.03270 0.24940
C31 C 0.11910 -0.23830 0.17240
C32 C 0.17900 -0.09560 0.18440
C33 C 0.18580 0.04060 0.22280
C35 C 0.24640 0.17080 0.23560
C36 C 0.23120 -0.09490 0.15810
C37 C 0.28870 0.02700 0.17120
C38 C 0.29810 0.15940 0.20950
C39 C 0.36010 0.31640 0.22280
O3 O 0.10030 0.17680 0.31510
O4 O 0.40390 0.31750 0.19810
loop_
_geom_bond_atom_site_label_1
_geom_bond_atom_site_label_2
_geom_bond_site_symmetry_1
_geom_bond_site_symmetry_2
C1 C12 1_555 1_555
C2 C3 1_555 1_555
C3 C23 1_555 1_555
C4 C5 1_555 1_555
C5 C6 1_555 1_555
C6 C9 1_555 1_555
C7 C4 1_555 1_555
C8 C7 1_555 1_555
C9 C8 1_555 1_555
C10 C9 1_555 1_555
C11 C8 1_555 1_555
C12 C23 1_555 1_555
C13 C11 1_555 1_555
C14 C10 1_555 1_555
C15 C6 1_555 1_555
C16 C17 1_555 1_555
C17 C18 1_555 1_555
C18 C21 1_555 1_555
C19 C16 1_555 1_555
C20 C19 1_555 1_555
C21 C20 1_555 1_555
C22 C21 1_555 1_555
C23 C41 1_555 1_555
C24 C20 1_555 1_555
C25 C24 1_555 1_555
C26 C22 1_555 1_555
C27 C26 1_555 1_555
C28 C29 1_555 1_555
C29 C30 1_555 1_555
C30 C27 1_555 1_555
C31 C28 1_555 1_555
C32 C31 1_555 1_555
C33 C30 1_555 1_555
C34 C1 1_555 1_555
C35 C22 1_555 1_555
C36 C32 1_555 1_555
C37 C36 1_555 1_555
C38 C35 1_555 1_555
C39 C18 1_555 1_555
C40 C34 1_555 1_555
C41 C40 1_555 1_555
C42 C2 1_555 1_555
C43 C40 1_555 1_555
C44 C2 1_555 1_555
O1 C3 1_555 1_555
O2 C15 1_555 1_555
O3 C27 1_555 1_555
O4 C39 1_555 1_555
C42B C41 1_555 1_555
C41B C42 1_555 1_555
C44B C43 1_555 1_555
C43B C44 1_555 1_555
C2B C42B 1_555 1_555
C23B C41B 1_555 1_555
C40B C41B 1_555 1_555
C3B C2B 1_555 1_555
C12B C23B 1_555 1_555
C34B C40B 1_555 1_555
O1B C3B 1_555 1_555
C1B C12B 1_555 1_555
C10B C10 1_555 1_555
C15B C14 1_555 1_555
C14B C15 1_555 1_555
C9B C10B 1_555 1_555
C6B C15B 1_555 1_555
O2B C15B 1_555 1_555
C13B C14B 1_555 1_555
C8B C9B 1_555 1_555
C5B C6B 1_555 1_555
C11B C13B 1_555 1_555
C7B C8B 1_555 1_555
C4B C5B 1_555 1_555
C13 C14 1_555 1_555
C25 C26 1_555 1_555
C32 C33 1_555 1_555
C33 C35 1_555 1_555
C37 C38 1_555 1_555
C38 C39 1_555 1_555
C42 C42B 1_555 1_555
C44B C2B 1_555 1_555
C43B C40B 1_555 1_555
C23B C3B 1_555 1_555
C34B C1B 1_555 1_555
C10B C14B 1_555 1_555
C9B C6B 1_555 1_555
C8B C11B 1_555 1_555
C7B C4B 1_555 1_555

#END
