
#######################################################################
#
#                 Cambridge Crystallographic Data Centre
#                                CCDC 
#
#######################################################################
#
# If this CIF has been generated from an entry in the Cambridge 
# Structural Database, then it will include bibliographic, chemical, 
# crystal, experimental, refinement or atomic coordinate data resulting 
# from the CCDC's data processing and validation procedures.
#
#######################################################################

data_ANUQOR
_chemical_formula_moiety         'C28 H28 Br1 N1 O6'
_chemical_name_systematic        
'dimethyl 3-(4-bromophenyl)-7-(4-methoxyphenyl)-2-phenyl-1,2-oxazepane-4,4-dicarboxylate'
_symmetry_cell_setting           orthorhombic
_symmetry_space_group_name_H-M   'P 21 21 21'
_symmetry_Int_Tables_number      19
_space_group_name_Hall           'P 2ac 2ab'
loop_
_symmetry_equiv_pos_site_id
_symmetry_equiv_pos_as_xyz
1 x,y,z
2 1/2-x,-y,1/2+z
3 -x,1/2+y,1/2-z
4 1/2+x,1/2-y,-z
_cell_length_a                   10.4090(7)
_cell_length_b                   15.4718(11)
_cell_length_c                   16.5880(11)
_cell_angle_alpha                90
_cell_angle_beta                 90
_cell_angle_gamma                90
_cell_volume                     2671.43
_exptl_crystal_colour            colorless
_exptl_crystal_description       prismatic
_cell_formula_units_Z            4
_exptl_crystal_recrystallization_method hexane/isopropanol
loop_
_atom_site_label
_atom_site_type_symbol
_atom_site_fract_x
_atom_site_fract_y
_atom_site_fract_z
Br1 Br 0.18285(5) -0.37474(3) 0.98706(3)
N1 N 0.1816(2) 0.06503(15) 0.89592(12)
O1 O 0.26407(15) 0.05998(13) 0.96465(11)
O2 O 0.6659(2) 0.10238(18) 1.23882(14)
O3 O 0.2143(2) 0.10625(16) 0.71099(13)
O4 O 0.4236(2) 0.08738(18) 0.68561(13)
O5 O 0.4889(2) -0.1067(2) 0.77575(15)
O6 O 0.3039(2) -0.10273(14) 0.70900(12)
C1 C 0.2146(2) -0.00712(18) 0.84194(15)
H1 H 0.1483 -0.0075 0.8000
C2 C 0.3431(3) 0.01272(19) 0.79781(16)
C3 C 0.4512(3) 0.0531(2) 0.84916(18)
H2 H 0.4721 0.0135 0.8926
H3 H 0.5272 0.0591 0.8158
C4 C 0.4200(3) 0.1403(2) 0.88529(17)
H4 H 0.3695 0.1731 0.8469
H5 H 0.4994 0.1715 0.8945
C5 C 0.3455(3) 0.13453(19) 0.96508(17)
H6 H 0.2921 0.1863 0.9709
C6 C 0.4306(2) 0.12633(18) 1.03770(15)
C7 C 0.4952(3) 0.1974(2) 1.06623(19)
H7 H 0.4847 0.2501 1.0401
C8 C 0.5751(3) 0.1931(2) 1.1324(2)
H8 H 0.6178 0.2423 1.1503
C9 C 0.5911(3) 0.1156(2) 1.17161(17)
C10 C 0.5273(3) 0.0443(2) 1.14436(17)
H9 H 0.5377 -0.0082 1.1709
C11 C 0.4481(3) 0.0488(2) 1.07865(17)
H10 H 0.4055 -0.0006 1.0611
C12 C 0.7281(3) 0.1732(3) 1.2720(2)
H11 H 0.7879 0.1963 1.2336
H12 H 0.7735 0.1557 1.3197
H13 H 0.6661 0.2167 1.2857
C13 C 0.0505(3) 0.06779(17) 0.92236(18)
C14 C -0.0447(3) 0.0788(2) 0.8653(2)
H14 H -0.0238 0.0812 0.8108
C15 C -0.1715(3) 0.0864(3) 0.8897(3)
H15 H -0.2355 0.0925 0.8510
C16 C -0.2045(3) 0.0852(3) 0.9692(3)
H16 H -0.2900 0.0909 0.9846
C17 C -0.1113(3) 0.0756(2) 1.0254(3)
H17 H -0.1331 0.0753 1.0798
C18 C 0.0161(3) 0.0662(2) 1.0030(2)
H18 H 0.0789 0.0588 1.0422
C19 C 0.2086(2) -0.09579(18) 0.88135(16)
C20 C 0.1046(3) -0.1484(2) 0.86433(19)
H19 H 0.0397 -0.1277 0.8310
C21 C 0.0949(3) -0.2311(2) 0.8958(2)
H20 H 0.0240 -0.2656 0.8843
C22 C 0.1917(3) -0.26108(19) 0.94415(18)
C23 C 0.2958(3) -0.2108(2) 0.96193(19)
H21 H 0.3609 -0.2317 0.9950
C24 C 0.3030(3) -0.1290(2) 0.93051(16)
H22 H 0.3740 -0.0949 0.9428
C25 C 0.3150(3) 0.0741(2) 0.72685(17)
C26 C 0.4143(5) 0.1443(3) 0.6163(2)
H23 H 0.3407 0.1288 0.5847
H24 H 0.4905 0.1389 0.5841
H25 H 0.4057 0.2030 0.6344
C27 C 0.3900(3) -0.0711(2) 0.76008(19)
C28 C 0.3264(5) -0.1885(3) 0.6783(2)
H26 H 0.4030 -0.1886 0.6461
H27 H 0.2547 -0.2061 0.6458
H28 H 0.3364 -0.2279 0.7226
loop_
_geom_bond_atom_site_label_1
_geom_bond_atom_site_label_2
_geom_bond_site_symmetry_1
_geom_bond_site_symmetry_2
Br1 C22 1_555 1_555
N1 O1 1_555 1_555
O1 C5 1_555 1_555
O2 C9 1_555 1_555
O3 C25 1_555 1_555
O4 C25 1_555 1_555
O5 C27 1_555 1_555
O6 C27 1_555 1_555
C1 N1 1_555 1_555
H1 C1 1_555 1_555
C2 C1 1_555 1_555
C3 C2 1_555 1_555
H2 C3 1_555 1_555
H3 C3 1_555 1_555
C4 C3 1_555 1_555
H4 C4 1_555 1_555
H5 C4 1_555 1_555
C5 C4 1_555 1_555
H6 C5 1_555 1_555
C6 C5 1_555 1_555
C7 C6 1_555 1_555
H7 C7 1_555 1_555
C8 C7 1_555 1_555
H8 C8 1_555 1_555
C9 C8 1_555 1_555
C10 C9 1_555 1_555
H9 C10 1_555 1_555
C11 C6 1_555 1_555
H10 C11 1_555 1_555
C12 O2 1_555 1_555
H11 C12 1_555 1_555
H12 C12 1_555 1_555
H13 C12 1_555 1_555
C13 N1 1_555 1_555
C14 C13 1_555 1_555
H14 C14 1_555 1_555
C15 C14 1_555 1_555
H15 C15 1_555 1_555
C16 C15 1_555 1_555
H16 C16 1_555 1_555
C17 C16 1_555 1_555
H17 C17 1_555 1_555
C18 C13 1_555 1_555
H18 C18 1_555 1_555
C19 C1 1_555 1_555
C20 C19 1_555 1_555
H19 C20 1_555 1_555
C21 C20 1_555 1_555
H20 C21 1_555 1_555
C22 C21 1_555 1_555
C23 C22 1_555 1_555
H21 C23 1_555 1_555
C24 C19 1_555 1_555
H22 C24 1_555 1_555
C25 C2 1_555 1_555
C26 O4 1_555 1_555
H23 C26 1_555 1_555
H24 C26 1_555 1_555
H25 C26 1_555 1_555
C27 C2 1_555 1_555
C28 O6 1_555 1_555
H26 C28 1_555 1_555
H27 C28 1_555 1_555
H28 C28 1_555 1_555
C10 C11 1_555 1_555
C17 C18 1_555 1_555
C23 C24 1_555 1_555

#END
