
#######################################################################
#
#                 Cambridge Crystallographic Data Centre
#                                CCDC 
#
#######################################################################
#
# If this CIF has been generated from an entry in the Cambridge 
# Structural Database, then it will include bibliographic, chemical, 
# crystal, experimental, refinement or atomic coordinate data resulting 
# from the CCDC's data processing and validation procedures.
#
#######################################################################

data_ANUYAK
_chemical_formula_moiety         'C36 H37 Br1 O6'
_chemical_name_systematic        
'(+)-1-Benzoyl-4,4-dimethyl-5,7-bis(3-methylbut-2-en-1-yl)-6,8,9-trioxoadamantan-2-yl 4-bromobenzoate'
_symmetry_cell_setting           monoclinic
_symmetry_space_group_name_H-M   'P 21'
_symmetry_Int_Tables_number      4
_space_group_name_Hall           'P 2yb'
loop_
_symmetry_equiv_pos_site_id
_symmetry_equiv_pos_as_xyz
1 x,y,z
2 -x,1/2+y,-z
_cell_length_a                   10.4241(5)
_cell_length_b                   10.8197(4)
_cell_length_c                   14.1094(6)
_cell_angle_alpha                90
_cell_angle_beta                 101.722(2)
_cell_angle_gamma                90
_cell_volume                     1558.15
_exptl_crystal_colour            colorless
_exptl_crystal_description       block
_cell_formula_units_Z            2
loop_
_atom_site_label
_atom_site_type_symbol
_atom_site_fract_x
_atom_site_fract_y
_atom_site_fract_z
Br1 Br 0.380133(19) 0.67807(2) 0.538617(15)
O1 O 0.81820(13) 0.86429(12) 0.27737(9)
O2 O 0.75314(14) 0.69379(14) 0.19130(11)
O3 O 0.97289(13) 1.09340(13) 0.05731(9)
O4 O 1.25098(11) 1.16578(15) 0.33383(8)
O5 O 0.83411(11) 1.14815(11) 0.32821(9)
O6 O 0.68128(14) 0.98571(14) 0.11139(11)
C1 C 0.90802(19) 0.89528(17) 0.21618(13)
H1 H 0.8839(17) 0.8538(16) 0.1596(13)
C2 C 1.04670(19) 0.86539(18) 0.27073(14)
H2 H 1.0562(17) 0.7790(18) 0.2806(13)
C3 C 1.14966(19) 0.90299(17) 0.21172(14)
C4 C 1.13921(18) 1.05016(17) 0.19744(13)
C5 C 1.15596(17) 1.10582(17) 0.29907(13)
C6 C 1.05432(17) 1.06974(17) 0.35842(13)
C7 C 0.91831(17) 1.09420(16) 0.29832(13)
C8 C 0.89319(17) 1.03555(17) 0.19788(13)
C9 C 1.00047(18) 1.06794(16) 0.14199(13)
C10 C 1.06831(19) 0.92765(18) 0.36905(13)
H3 H 1.0066(18) 0.8982(18) 0.4077(13)
H4 H 1.150(2) 0.9117(19) 0.4041(15)
C11 C 1.1268(2) 0.83503(19) 0.11526(15)
H5 H 1.2000 0.8513 0.0830
H6 H 1.0450 0.8641 0.0742
H7 H 1.1207 0.7460 0.1265
C12 C 1.2882(2) 0.8690(2) 0.26715(17)
H8 H 1.2900 0.7820 0.2866
H9 H 1.3116 0.9212 0.3249
H10 H 1.3513 0.8823 0.2252
C13 C 1.2379(2) 1.1057(2) 0.14234(15)
H11 H 1.2319(17) 1.0643(18) 0.0828(14)
H12 H 1.319(2) 1.0876(19) 0.1750(15)
C14 C 1.2218(2) 1.2414(2) 0.12347(15)
H13 H 1.151(2) 1.263(2) 0.0798(16)
C15 C 1.3037(2) 1.3310(2) 0.15892(15)
C16 C 1.4300(2) 1.3132(2) 0.22961(16)
H14 H 1.4201 1.3409 0.2939
H15 H 1.4990 1.3616 0.2090
H16 H 1.4539 1.2255 0.2323
C17 C 1.2713(2) 1.4640(2) 0.13225(17)
H17 H 1.1856 1.4684 0.0883
H18 H 1.3384 1.4984 0.1002
H19 H 1.2689 1.5116 0.1910
C18 C 1.0802(2) 1.13750(18) 0.45585(13)
H20 H 1.0680(18) 1.2270(17) 0.4426(13)
H21 H 1.171(2) 1.128(2) 0.4866(16)
C19 C 0.99626(19) 1.10091(19) 0.52386(13)
H22 H 0.9172(18) 1.1381(17) 0.5139(13)
C20 C 1.0257(2) 1.02256(18) 0.59801(14)
C21 C 1.1517(2) 0.9533(2) 0.62319(15)
H23 H 1.1350 0.8648 0.6121
H24 H 1.1915 0.9672 0.6915
H25 H 1.2115 0.9823 0.5826
C22 C 0.9306(2) 0.9974(2) 0.66230(16)
H26 H 0.9709 1.0188 0.7292
H27 H 0.9071 0.9095 0.6586
H28 H 0.8516 1.0473 0.6411
C23 C 0.75811(18) 1.06834(19) 0.13638(14)
C24 C 0.72554(17) 1.19828(19) 0.10809(12)
C25 C 0.8075(2) 1.29750(19) 0.13697(15)
H29 H 0.8954(19) 1.2874(18) 0.1789(14)
C26 C 0.7688(2) 1.4173(2) 0.10872(15)
H30 H 0.832(2) 1.491(2) 0.1303(16)
C27 C 0.6491(3) 1.4360(3) 0.05115(17)
H31 H 0.618(2) 1.516(2) 0.0355(18)
C28 C 0.5670(2) 1.3391(3) 0.01984(19)
H32 H 0.491(2) 1.350(2) -0.0133(18)
C29 C 0.6049(2) 1.2205(2) 0.04760(17)
H33 H 0.550(2) 1.157(2) 0.0356(15)
C30 C 0.7447(2) 0.76201(18) 0.25638(15)
C31 C 0.65698(19) 0.74562(18) 0.32473(14)
C32 C 0.6556(2) 0.82677(19) 0.40023(15)
H34 H 0.7148(18) 0.8961(19) 0.4087(14)
C33 C 0.5739(2) 0.8062(2) 0.46403(15)
H35 H 0.558(2) 0.863(2) 0.5120(17)
C34 C 0.49447(18) 0.70311(19) 0.45277(14)
C35 C 0.4941(2) 0.6219(2) 0.37851(16)
H36 H 0.435(2) 0.561(3) 0.364(2)
C36 C 0.5755(2) 0.64320(18) 0.31400(15)
H37 H 0.583(2) 0.591(2) 0.2630(17)
loop_
_geom_bond_atom_site_label_1
_geom_bond_atom_site_label_2
_geom_bond_site_symmetry_1
_geom_bond_site_symmetry_2
Br1 C34 1_555 1_555
O1 C1 1_555 1_555
O2 C30 1_555 1_555
O3 C9 1_555 1_555
O4 C5 1_555 1_555
O5 C7 1_555 1_555
O6 C23 1_555 1_555
C1 H1 1_555 1_555
C2 C1 1_555 1_555
H2 C2 1_555 1_555
C3 C2 1_555 1_555
C4 C3 1_555 1_555
C5 C4 1_555 1_555
C6 C5 1_555 1_555
C7 C6 1_555 1_555
C8 C1 1_555 1_555
C9 C4 1_555 1_555
C10 C2 1_555 1_555
H3 C10 1_555 1_555
H4 C10 1_555 1_555
C11 C3 1_555 1_555
H5 C11 1_555 1_555
H6 C11 1_555 1_555
H7 C11 1_555 1_555
C12 C3 1_555 1_555
H8 C12 1_555 1_555
H9 C12 1_555 1_555
H10 C12 1_555 1_555
C13 C4 1_555 1_555
H11 C13 1_555 1_555
H12 C13 1_555 1_555
C14 C13 1_555 1_555
H13 C14 1_555 1_555
C15 C14 1_555 1_555
C16 C15 1_555 1_555
H14 C16 1_555 1_555
H15 C16 1_555 1_555
H16 C16 1_555 1_555
C17 C15 1_555 1_555
H17 C17 1_555 1_555
H18 C17 1_555 1_555
H19 C17 1_555 1_555
C18 C6 1_555 1_555
H20 C18 1_555 1_555
H21 C18 1_555 1_555
C19 C18 1_555 1_555
H22 C19 1_555 1_555
C20 C19 1_555 1_555
C21 C20 1_555 1_555
H23 C21 1_555 1_555
H24 C21 1_555 1_555
H25 C21 1_555 1_555
C22 C20 1_555 1_555
H26 C22 1_555 1_555
H27 C22 1_555 1_555
H28 C22 1_555 1_555
C23 C8 1_555 1_555
C24 C23 1_555 1_555
C25 C24 1_555 1_555
H29 C25 1_555 1_555
C26 C25 1_555 1_555
H30 C26 1_555 1_555
C27 C26 1_555 1_555
H31 C27 1_555 1_555
C28 C27 1_555 1_555
H32 C28 1_555 1_555
C29 C24 1_555 1_555
H33 C29 1_555 1_555
C30 O1 1_555 1_555
C31 C30 1_555 1_555
C32 C31 1_555 1_555
H34 C32 1_555 1_555
C33 C32 1_555 1_555
H35 C33 1_555 1_555
C34 C33 1_555 1_555
C35 C34 1_555 1_555
H36 C35 1_555 1_555
C36 C31 1_555 1_555
H37 C36 1_555 1_555
C6 C10 1_555 1_555
C7 C8 1_555 1_555
C8 C9 1_555 1_555
C28 C29 1_555 1_555
C35 C36 1_555 1_555

#END
