
#######################################################################
#
#                 Cambridge Crystallographic Data Centre
#                                CCDC 
#
#######################################################################
#
# If this CIF has been generated from an entry in the Cambridge 
# Structural Database, then it will include bibliographic, chemical, 
# crystal, experimental, refinement or atomic coordinate data resulting 
# from the CCDC's data processing and validation procedures.
#
#######################################################################

data_APAFUU
_chemical_formula_moiety         'C24 H19 N1 O3 S1'
_chemical_name_systematic        
'(8S,9S)-8-benzyl-9-phenyl-8,9-dihydro-7H-pyrido[1,2-b][1,2]benzothiazol-7-one 5,5-dioxide'
_symmetry_cell_setting           orthorhombic
_symmetry_space_group_name_H-M   'P 21 21 21'
_symmetry_Int_Tables_number      19
_space_group_name_Hall           'P 2ac 2ab'
loop_
_symmetry_equiv_pos_site_id
_symmetry_equiv_pos_as_xyz
1 x,y,z
2 1/2-x,-y,1/2+z
3 -x,1/2+y,1/2-z
4 1/2+x,1/2-y,-z
_cell_length_a                   11.908(2)
_cell_length_b                   12.416(3)
_cell_length_c                   13.154(3)
_cell_angle_alpha                90
_cell_angle_beta                 90
_cell_angle_gamma                90
_cell_volume                     1944.82
_exptl_crystal_colour            colorless
_exptl_crystal_description       block
_cell_formula_units_Z            4
_exptl_crystal_recrystallization_method 'dichloromethane/petroleum ether'
loop_
_atom_site_label
_atom_site_type_symbol
_atom_site_fract_x
_atom_site_fract_y
_atom_site_fract_z
S1 S -0.38530(3) -0.92940(3) -0.23003(3)
O1 O -0.33769(12) -0.97482(11) -0.31956(10)
O2 O -0.47384(11) -0.85258(11) -0.24157(11)
O3 O -0.21401(12) -0.76226(10) -0.27360(10)
N1 N -0.28389(12) -0.87776(11) -0.15516(11)
C1 C -0.42077(13) -1.02547(13) -0.13794(13)
C2 C -0.49139(14) -1.11288(13) -0.15179(14)
H1 H -0.5232 -1.1279 -0.2148
C3 C -0.51267(15) -1.17699(14) -0.06767(15)
H2 H -0.5598 -1.2363 -0.0740
C4 C -0.46422(15) -1.15355(14) 0.02623(14)
H3 H -0.4797 -1.1975 0.0817
C5 C -0.39315(14) -1.06570(13) 0.03845(13)
H4 H -0.3612 -1.0505 0.1014
C6 C -0.37088(13) -1.00093(12) -0.04558(13)
C7 C -0.29636(13) -0.90736(13) -0.05052(12)
C8 C -0.24983(14) -0.84868(13) 0.02291(13)
H5 H -0.2596 -0.8683 0.0906
C9 C -0.18145(14) -0.75067(13) -0.00329(13)
H6 H -0.1223 -0.7436 0.0480
C10 C -0.12359(14) -0.76805(13) -0.10805(13)
H7 H -0.0734 -0.8300 -0.1004
C11 C -0.20910(15) -0.79804(13) -0.18853(14)
C12 C -0.25198(14) -0.64812(13) -0.00047(13)
C13 C -0.35518(15) -0.64133(15) -0.05008(14)
H8 H -0.3830 -0.7012 -0.0843
C14 C -0.41703(18) -0.54680(16) -0.04918(16)
H9 H -0.4853 -0.5431 -0.0833
C15 C -0.37667(19) -0.45810(15) 0.0026(2)
H10 H -0.4175 -0.3943 0.0030
C16 C -0.27619(19) -0.46423(16) 0.0537(2)
H11 H -0.2499 -0.4048 0.0894
C17 C -0.21385(16) -0.55820(15) 0.05218(17)
H12 H -0.1458 -0.5613 0.0867
C18 C -0.05066(15) -0.67293(14) -0.13911(15)
H13 H -0.0996 -0.6154 -0.1621
H14 H -0.0115 -0.6471 -0.0792
C19 C 0.03560(14) -0.69431(14) -0.22157(14)
C20 C 0.10336(16) -0.78524(15) -0.22121(14)
H15 H 0.0930 -0.8375 -0.1715
C21 C 0.18656(16) -0.79926(18) -0.29413(16)
H16 H 0.2317 -0.8603 -0.2925
C22 C 0.20233(16) -0.72266(18) -0.36900(16)
H17 H 0.2582 -0.7318 -0.4176
C23 C 0.13497(16) -0.63294(16) -0.37114(16)
H18 H 0.1446 -0.5817 -0.4220
C24 C 0.05250(16) -0.61816(15) -0.29782(16)
H19 H 0.0080 -0.5566 -0.2996
loop_
_geom_bond_atom_site_label_1
_geom_bond_atom_site_label_2
_geom_bond_site_symmetry_1
_geom_bond_site_symmetry_2
S1 O1 1_555 1_555
O2 S1 1_555 1_555
O3 C11 1_555 1_555
N1 S1 1_555 1_555
C1 S1 1_555 1_555
C2 C1 1_555 1_555
H1 C2 1_555 1_555
C3 C2 1_555 1_555
H2 C3 1_555 1_555
C4 C3 1_555 1_555
H3 C4 1_555 1_555
C5 C4 1_555 1_555
H4 C5 1_555 1_555
C6 C1 1_555 1_555
C7 N1 1_555 1_555
C8 C7 1_555 1_555
H5 C8 1_555 1_555
C9 C8 1_555 1_555
H6 C9 1_555 1_555
C10 C9 1_555 1_555
H7 C10 1_555 1_555
C11 N1 1_555 1_555
C12 C9 1_555 1_555
C13 C12 1_555 1_555
H8 C13 1_555 1_555
C14 C13 1_555 1_555
H9 C14 1_555 1_555
C15 C14 1_555 1_555
H10 C15 1_555 1_555
C16 C15 1_555 1_555
H11 C16 1_555 1_555
C17 C12 1_555 1_555
H12 C17 1_555 1_555
C18 C10 1_555 1_555
H13 C18 1_555 1_555
H14 C18 1_555 1_555
C19 C18 1_555 1_555
C20 C19 1_555 1_555
H15 C20 1_555 1_555
C21 C20 1_555 1_555
H16 C21 1_555 1_555
C22 C21 1_555 1_555
H17 C22 1_555 1_555
C23 C22 1_555 1_555
H18 C23 1_555 1_555
C24 C19 1_555 1_555
H19 C24 1_555 1_555
C5 C6 1_555 1_555
C6 C7 1_555 1_555
C10 C11 1_555 1_555
C16 C17 1_555 1_555
C23 C24 1_555 1_555

#END
