
#######################################################################
#
#                 Cambridge Crystallographic Data Centre
#                                CCDC 
#
#######################################################################
#
# If this CIF has been generated from an entry in the Cambridge 
# Structural Database, then it will include bibliographic, chemical, 
# crystal, experimental, refinement or atomic coordinate data resulting 
# from the CCDC's data processing and validation procedures.
#
#######################################################################

data_APAJIL
_chemical_formula_moiety         'C11 H17 N3 S1'
_chemical_name_systematic        1-(2-Aminophenyl)-3-t-butylthiourea
_symmetry_cell_setting           monoclinic
_symmetry_space_group_name_H-M   'P 21/n'
_symmetry_Int_Tables_number      14
_space_group_name_Hall           '-P 2yn'
loop_
_symmetry_equiv_pos_site_id
_symmetry_equiv_pos_as_xyz
1 x,y,z
2 1/2-x,1/2+y,1/2-z
3 -x,-y,-z
4 1/2+x,1/2-y,1/2+z
_cell_length_a                   10.6285(4)
_cell_length_b                   9.7517(4)
_cell_length_c                   12.8232(5)
_cell_angle_alpha                90
_cell_angle_beta                 109.7120(10)
_cell_angle_gamma                90
_cell_volume                     1251.19
_exptl_crystal_colour            colorless
_exptl_crystal_description       block
_cell_formula_units_Z            4
_exptl_crystal_recrystallization_method ethanol
loop_
_atom_site_label
_atom_site_type_symbol
_atom_site_fract_x
_atom_site_fract_y
_atom_site_fract_z
S1 S 0.34849(3) 0.90144(3) 0.06016(3)
N1 N 0.60786(10) 0.85756(11) 0.11123(9)
H1 H 0.6063 0.9365 0.0776
N2 N 0.50344(11) 0.70530(11) 0.19046(10)
H2 H 0.5828 0.6663 0.2129
N3 N 0.77433(15) 0.84851(16) 0.33966(11)
C1 C 0.73142(12) 0.78342(12) 0.14731(10)
C2 C 0.77600(13) 0.72130(14) 0.06879(11)
H3 H 0.7249 0.7300 -0.0076
C3 C 0.89406(14) 0.64670(15) 0.10018(12)
H4 H 0.9256 0.6070 0.0460
C4 C 0.96544(13) 0.63110(14) 0.21242(12)
H5 H 1.0442 0.5766 0.2351
C5 C 0.92326(13) 0.69369(14) 0.29106(11)
H6 H 0.9734 0.6814 0.3673
C6 C 0.80767(13) 0.77538(13) 0.26091(11)
C7 C 0.49304(12) 0.81499(12) 0.12512(10)
C8 C 0.40322(13) 0.63870(13) 0.23120(11)
C9 C 0.29245(16) 0.57360(16) 0.13491(13)
H7 H 0.2436 0.6455 0.0838
H8 H 0.2308 0.5240 0.1635
H9 H 0.3319 0.5096 0.0957
C10 C 0.34572(16) 0.74034(15) 0.29325(12)
H10 H 0.4185 0.7806 0.3546
H11 H 0.2835 0.6927 0.3225
H12 H 0.2982 0.8131 0.2426
C11 C 0.48098(16) 0.52821(16) 0.31223(14)
H13 H 0.5518 0.5714 0.3734
H14 H 0.5209 0.4639 0.2736
H15 H 0.4201 0.4786 0.3416
H16 H 0.801(2) 0.814(2) 0.4081(19)
H17 H 0.704(2) 0.8971(19) 0.3193(15)
loop_
_geom_bond_atom_site_label_1
_geom_bond_atom_site_label_2
_geom_bond_site_symmetry_1
_geom_bond_site_symmetry_2
S1 C7 1_555 1_555
N1 H1 1_555 1_555
N2 H2 1_555 1_555
N3 C6 1_555 1_555
C1 N1 1_555 1_555
C2 C1 1_555 1_555
H3 C2 1_555 1_555
C3 C2 1_555 1_555
H4 C3 1_555 1_555
C4 C3 1_555 1_555
H5 C4 1_555 1_555
C5 C4 1_555 1_555
H6 C5 1_555 1_555
C6 C1 1_555 1_555
C7 N1 1_555 1_555
C8 N2 1_555 1_555
C9 C8 1_555 1_555
H7 C9 1_555 1_555
H8 C9 1_555 1_555
H9 C9 1_555 1_555
C10 C8 1_555 1_555
H10 C10 1_555 1_555
H11 C10 1_555 1_555
H12 C10 1_555 1_555
C11 C8 1_555 1_555
H13 C11 1_555 1_555
H14 C11 1_555 1_555
H15 C11 1_555 1_555
H16 N3 1_555 1_555
H17 N3 1_555 1_555
N2 C7 1_555 1_555
C5 C6 1_555 1_555

#END
