
#######################################################################
#
#                 Cambridge Crystallographic Data Centre
#                                CCDC 
#
#######################################################################
#
# If this CIF has been generated from an entry in the Cambridge 
# Structural Database, then it will include bibliographic, chemical, 
# crystal, experimental, refinement or atomic coordinate data resulting 
# from the CCDC's data processing and validation procedures.
#
#######################################################################

data_APAPEN
_chemical_formula_moiety         'C21 H22 O3'
_chemical_name_systematic        
'Methyl 6-t-butyl-4-phenyl-4H-chromene-2-carboxylate'
_symmetry_cell_setting           monoclinic
_symmetry_space_group_name_H-M   'C c'
_symmetry_Int_Tables_number      9
_space_group_name_Hall           'C -2yc'
loop_
_symmetry_equiv_pos_site_id
_symmetry_equiv_pos_as_xyz
1 x,y,z
2 x,-y,1/2+z
3 1/2+x,1/2+y,z
4 1/2+x,1/2-y,1/2+z
_cell_length_a                   17.683(4)
_cell_length_b                   10.819(2)
_cell_length_c                   10.206(2)
_cell_angle_alpha                90
_cell_angle_beta                 114.81(3)
_cell_angle_gamma                90
_cell_volume                     1772.32
_exptl_crystal_colour            colorless
_exptl_crystal_description       prism
_chemical_melting_point          '176-177 deg.C'
_cell_formula_units_Z            4
loop_
_atom_site_label
_atom_site_type_symbol
_atom_site_fract_x
_atom_site_fract_y
_atom_site_fract_z
O1 O 0.1799(2) 0.4764(4) 0.8023(5)
O2 O 0.2393(2) 0.3433(4) 0.9860(4)
O3 O 0.38337(18) 0.3658(3) 0.9846(3)
C1 C 0.1586(4) 0.3263(7) 0.9882(8)
H1 H 0.1628 0.2651 1.0590
H2 H 0.1191 0.2995 0.8948
H3 H 0.1403 0.4031 1.0123
C2 C 0.2401(3) 0.4274(5) 0.8902(6)
C3 C 0.3252(2) 0.4487(4) 0.8968(4)
C4 C 0.3406(3) 0.5375(4) 0.8295(5)
H4 H 0.2959 0.5832 0.7652
C5 C 0.4257(2) 0.5725(4) 0.8478(4)
H5 H 0.4247 0.5828 0.7517
C6 C 0.4487(2) 0.6982(3) 0.9269(5)
C7 C 0.4297(3) 0.8058(4) 0.8473(6)
H6 H 0.4055 0.8037 0.7469
C8 C 0.4477(4) 0.9184(4) 0.9216(8)
H7 H 0.4354 0.9919 0.8697
C9 C 0.4832(3) 0.9223(5) 1.0692(7)
H8 H 0.4958 0.9978 1.1172
C10 C 0.5002(3) 0.8120(5) 1.1469(7)
H9 H 0.5230 0.8132 1.2473
C11 C 0.4833(3) 0.7036(4) 1.0754(5)
H10 H 0.4952 0.6303 1.1278
C12 C 0.4855(2) 0.4716(3) 0.9235(4)
C13 C 0.4630(3) 0.3761(3) 0.9880(4)
C14 C 0.5178(3) 0.2826(4) 1.0614(5)
H11 H 0.5014 0.2197 1.1060
C15 C 0.5963(3) 0.2844(4) 1.0674(6)
H12 H 0.6330 0.2211 1.1155
C16 C 0.6236(2) 0.3797(4) 1.0026(4)
C17 C 0.5664(2) 0.4702(4) 0.9322(4)
H13 H 0.5825 0.5339 0.8880
C18 C 0.7111(3) 0.3784(5) 1.0063(5)
C19 C 0.7702(5) 0.3007(13) 1.1284(13)
H14 H 0.8243 0.3020 1.1275
H15 H 0.7501 0.2172 1.1172
H16 H 0.7741 0.3332 1.2185
C20 C 0.7072(5) 0.3278(11) 0.8667(12)
H17 H 0.7621 0.3272 0.8693
H18 H 0.6714 0.3788 0.7882
H19 H 0.6857 0.2451 0.8532
C21 C 0.7462(5) 0.5068(7) 1.0195(14)
H20 H 0.8009 0.5027 1.0215
H21 H 0.7494 0.5441 1.1071
H22 H 0.7106 0.5555 0.9384
loop_
_geom_bond_atom_site_label_1
_geom_bond_atom_site_label_2
_geom_bond_site_symmetry_1
_geom_bond_site_symmetry_2
O1 C2 1_555 1_555
O2 C1 1_555 1_555
O3 C3 1_555 1_555
C1 H1 1_555 1_555
H2 C1 1_555 1_555
H3 C1 1_555 1_555
C2 O2 1_555 1_555
C3 C2 1_555 1_555
C4 C3 1_555 1_555
H4 C4 1_555 1_555
C5 C4 1_555 1_555
H5 C5 1_555 1_555
C6 C5 1_555 1_555
C7 C6 1_555 1_555
H6 C7 1_555 1_555
C8 C7 1_555 1_555
H7 C8 1_555 1_555
C9 C8 1_555 1_555
H8 C9 1_555 1_555
C10 C9 1_555 1_555
H9 C10 1_555 1_555
C11 C6 1_555 1_555
H10 C11 1_555 1_555
C12 C5 1_555 1_555
C13 O3 1_555 1_555
C14 C13 1_555 1_555
H11 C14 1_555 1_555
C15 C14 1_555 1_555
H12 C15 1_555 1_555
C16 C15 1_555 1_555
C17 C12 1_555 1_555
H13 C17 1_555 1_555
C18 C16 1_555 1_555
C19 C18 1_555 1_555
H14 C19 1_555 1_555
H15 C19 1_555 1_555
H16 C19 1_555 1_555
C20 C18 1_555 1_555
H17 C20 1_555 1_555
H18 C20 1_555 1_555
H19 C20 1_555 1_555
C21 C18 1_555 1_555
H20 C21 1_555 1_555
H21 C21 1_555 1_555
H22 C21 1_555 1_555
C10 C11 1_555 1_555
C12 C13 1_555 1_555
C16 C17 1_555 1_555

#END
