
#######################################################################
#
#                 Cambridge Crystallographic Data Centre
#                                CCDC 
#
#######################################################################
#
# If this CIF has been generated from an entry in the Cambridge 
# Structural Database, then it will include bibliographic, chemical, 
# crystal, experimental, refinement or atomic coordinate data resulting 
# from the CCDC's data processing and validation procedures.
#
#######################################################################

data_APELIS
_chemical_formula_moiety         'C20 H28 O4'
_chemical_name_systematic        
2-(hydroxymethyl)-3,3-dimethyl-9'-methylene-3'-oxaspiro[cyclohexane-1,5'-tricyclo[6.2.2.0^1,6^]dodecane]-2',10'-dione
_symmetry_cell_setting           monoclinic
_symmetry_space_group_name_H-M   'P 21/n'
_symmetry_Int_Tables_number      14
_space_group_name_Hall           '-P 2yn'
loop_
_symmetry_equiv_pos_site_id
_symmetry_equiv_pos_as_xyz
1 x,y,z
2 1/2-x,1/2+y,1/2-z
3 -x,-y,-z
4 1/2+x,1/2-y,1/2+z
_cell_length_a                   7.0862(4)
_cell_length_b                   24.1874(17)
_cell_length_c                   20.3324(13)
_cell_angle_alpha                90
_cell_angle_beta                 94.376(6)
_cell_angle_gamma                90
_cell_volume                     3474.75
_exptl_crystal_colour            'light colorless'
_exptl_crystal_description       block
_cell_formula_units_Z            8
loop_
_atom_site_label
_atom_site_type_symbol
_atom_site_fract_x
_atom_site_fract_y
_atom_site_fract_z
O1 O 0.6784(4) 0.80148(12) 0.58261(14)
O2 O 0.7723(4) 0.69551(12) 0.64950(16)
O3 O 0.6847(3) 0.72059(12) 0.74534(14)
O4 O 0.1909(5) 0.89012(13) 0.78249(19)
H1 H 0.1914 0.8896 0.7422
C1 C 0.4763(4) 0.74305(13) 0.64596(16)
C2 C 0.5202(5) 0.78568(14) 0.59412(17)
C3 C 0.3427(5) 0.80811(16) 0.56020(16)
C4 C 0.1693(5) 0.77897(17) 0.58142(16)
H2 H 0.0551 0.7933 0.5570
C5 C 0.1565(4) 0.78673(15) 0.65581(15)
H3 H 0.0642 0.7613 0.6715
H4 H 0.1160 0.8241 0.6647
C6 C 0.3518(4) 0.77582(13) 0.69191(14)
H5 H 0.4115 0.8123 0.6967
C7 C 0.1920(5) 0.71732(17) 0.56784(19)
H6 H 0.2006 0.7114 0.5210
H7 H 0.0826 0.6973 0.5812
C8 C 0.3717(5) 0.69583(15) 0.60632(18)
H8 H 0.4554 0.6799 0.5758
H9 H 0.3382 0.6669 0.6364
C9 C 0.3467(7) 0.84780(19) 0.5158(2)
H10 H 0.4620 0.8623 0.5051
H11 H 0.2343 0.8612 0.4952
C10 C 0.6548(5) 0.71899(15) 0.6800(2)
C11 C 0.5646(4) 0.75129(15) 0.78767(17)
H12 H 0.6104 0.7890 0.7916
H13 H 0.5763 0.7350 0.8314
C12 C 0.3559(4) 0.75240(13) 0.76306(15)
C13 C 0.2401(4) 0.79229(13) 0.80572(14)
H14 H 0.1174 0.7959 0.7804
C14 C 0.1896(5) 0.77058(17) 0.87443(16)
C15 C 0.1081(6) 0.71203(18) 0.8663(2)
H15 H 0.0849 0.6975 0.9095
H16 H -0.0124 0.7138 0.8404
C16 C 0.2382(6) 0.67267(17) 0.8331(2)
H17 H 0.1811 0.6362 0.8301
H18 H 0.3577 0.6697 0.8595
C17 C 0.2736(5) 0.69324(14) 0.76414(17)
H19 H 0.1552 0.6924 0.7369
H20 H 0.3605 0.6681 0.7448
C18 C 0.3184(5) 0.85137(15) 0.80944(18)
C19 C 0.0342(6) 0.8079(2) 0.9000(2)
H21 H 0.0835 0.8445 0.9076
H22 H -0.0052 0.7931 0.9406
H23 H -0.0721 0.8093 0.8679
C20 C 0.3576(6) 0.7703(2) 0.92747(19)
H24 H 0.4443 0.7414 0.9180
H25 H 0.3116 0.7640 0.9700
H26 H 0.4215 0.8053 0.9274
H27 H 0.431(3) 0.8559(15) 0.7869(15)
H28 H 0.367(5) 0.8614(18) 0.8527(12)
O5 O 1.1717(3) 0.53379(13) 0.75918(13)
O6 O 1.2631(3) 0.56933(12) 0.66948(15)
O7 O 1.1752(3) 0.46089(11) 0.59983(12)
O8 O 0.7150(4) 0.37542(12) 0.75313(14)
H29 H 0.5995 0.3723 0.7490
C21 C 0.9669(4) 0.52139(13) 0.65733(16)
C22 C 1.0171(5) 0.47910(14) 0.60574(15)
C23 C 0.8409(5) 0.45943(15) 0.56725(15)
C24 C 0.6662(5) 0.48948(17) 0.58502(16)
H30 H 0.5544 0.4765 0.5580
C25 C 0.6406(4) 0.48142(15) 0.65874(15)
H31 H 0.5528 0.5088 0.6733
H32 H 0.5884 0.4450 0.6660
C26 C 0.8324(4) 0.48738(13) 0.69849(14)
H33 H 0.8860 0.4500 0.7007
C27 C 0.7001(5) 0.55144(18) 0.57358(19)
H34 H 0.7248 0.5577 0.5279
H35 H 0.5882 0.5723 0.5827
C28 C 0.8697(5) 0.57105(15) 0.61899(18)
H36 H 0.8273 0.5978 0.6502
H37 H 0.9607 0.5891 0.5929
C29 C 0.8478(7) 0.41831(19) 0.52463(19)
H38 H 0.9627 0.4013 0.5183
H39 H 0.7377 0.4064 0.5010
C30 C 0.8334(4) 0.50681(14) 0.77097(14)
C31 C 1.0423(4) 0.50332(17) 0.79691(17)
H40 H 1.0541 0.5169 0.8419
H41 H 1.0800 0.4648 0.7979
C32 C 1.1436(5) 0.54293(15) 0.69463(19)
C33 C 0.7051(4) 0.46714(14) 0.80992(14)
H42 H 0.5826 0.4671 0.7841
C34 C 0.6589(5) 0.48627(16) 0.88021(15)
C35 C 0.5958(5) 0.54718(17) 0.87733(18)
H43 H 0.4744 0.5497 0.8521
H44 H 0.5787 0.5598 0.9217
C36 C 0.7358(6) 0.58526(16) 0.84653(19)
H45 H 0.6887 0.6229 0.8463
H46 H 0.8562 0.5844 0.8726
C37 C 0.7634(5) 0.56713(14) 0.77621(17)
H47 H 0.8543 0.5916 0.7578
H48 H 0.6442 0.5710 0.7498
C38 C 0.8240(6) 0.4791(2) 0.93293(17)
H49 H 0.8736 0.4423 0.9307
H50 H 0.7800 0.4853 0.9758
H51 H 0.9218 0.5053 0.9253
C39 C 0.4905(5) 0.45237(19) 0.90193(18)
H52 H 0.3929 0.4510 0.8665
H53 H 0.4420 0.4695 0.9398
H54 H 0.5318 0.4155 0.9130
C40 C 0.7685(6) 0.40607(15) 0.81128(17)
H55 H 0.9053 0.4049 0.8189
H56 H 0.7159 0.3880 0.8483
loop_
_geom_bond_atom_site_label_1
_geom_bond_atom_site_label_2
_geom_bond_site_symmetry_1
_geom_bond_site_symmetry_2
O1 C2 1_555 1_555
O2 C10 1_555 1_555
O3 C10 1_555 1_555
O4 H1 1_555 1_555
C1 C2 1_555 1_555
C2 C3 1_555 1_555
C3 C4 1_555 1_555
C4 H2 1_555 1_555
C5 C4 1_555 1_555
H3 C5 1_555 1_555
H4 C5 1_555 1_555
C6 C1 1_555 1_555
H5 C6 1_555 1_555
C7 C4 1_555 1_555
H6 C7 1_555 1_555
H7 C7 1_555 1_555
C8 C1 1_555 1_555
H8 C8 1_555 1_555
H9 C8 1_555 1_555
C9 C3 1_555 1_555
H10 C9 1_555 1_555
H11 C9 1_555 1_555
C10 C1 1_555 1_555
C11 O3 1_555 1_555
H12 C11 1_555 1_555
H13 C11 1_555 1_555
C12 C6 1_555 1_555
C13 C12 1_555 1_555
H14 C13 1_555 1_555
C14 C13 1_555 1_555
C15 C14 1_555 1_555
H15 C15 1_555 1_555
H16 C15 1_555 1_555
C16 C15 1_555 1_555
H17 C16 1_555 1_555
H18 C16 1_555 1_555
C17 C12 1_555 1_555
H19 C17 1_555 1_555
H20 C17 1_555 1_555
C18 O4 1_555 1_555
C19 C14 1_555 1_555
H21 C19 1_555 1_555
H22 C19 1_555 1_555
H23 C19 1_555 1_555
C20 C14 1_555 1_555
H24 C20 1_555 1_555
H25 C20 1_555 1_555
H26 C20 1_555 1_555
H27 C18 1_555 1_555
H28 C18 1_555 1_555
O5 C31 1_555 1_555
O6 C32 1_555 1_555
O7 C22 1_555 1_555
O8 H29 1_555 1_555
C21 C22 1_555 1_555
C22 C23 1_555 1_555
C23 C24 1_555 1_555
C24 H30 1_555 1_555
C25 C24 1_555 1_555
H31 C25 1_555 1_555
H32 C25 1_555 1_555
C26 C21 1_555 1_555
H33 C26 1_555 1_555
C27 C24 1_555 1_555
H34 C27 1_555 1_555
H35 C27 1_555 1_555
C28 C21 1_555 1_555
H36 C28 1_555 1_555
H37 C28 1_555 1_555
C29 C23 1_555 1_555
H38 C29 1_555 1_555
H39 C29 1_555 1_555
C30 C26 1_555 1_555
C31 C30 1_555 1_555
H40 C31 1_555 1_555
H41 C31 1_555 1_555
C32 O5 1_555 1_555
C33 C30 1_555 1_555
H42 C33 1_555 1_555
C34 C33 1_555 1_555
C35 C34 1_555 1_555
H43 C35 1_555 1_555
H44 C35 1_555 1_555
C36 C35 1_555 1_555
H45 C36 1_555 1_555
H46 C36 1_555 1_555
C37 C30 1_555 1_555
H47 C37 1_555 1_555
H48 C37 1_555 1_555
C38 C34 1_555 1_555
H49 C38 1_555 1_555
H50 C38 1_555 1_555
H51 C38 1_555 1_555
C39 C34 1_555 1_555
H52 C39 1_555 1_555
H53 C39 1_555 1_555
H54 C39 1_555 1_555
C40 O8 1_555 1_555
H55 C40 1_555 1_555
H56 C40 1_555 1_555
C5 C6 1_555 1_555
C7 C8 1_555 1_555
C11 C12 1_555 1_555
C13 C18 1_555 1_555
C16 C17 1_555 1_555
C21 C32 1_555 1_555
C25 C26 1_555 1_555
C27 C28 1_555 1_555
C33 C40 1_555 1_555
C36 C37 1_555 1_555

#END
