
#######################################################################
#
#                 Cambridge Crystallographic Data Centre
#                                CCDC 
#
#######################################################################
#
# If this CIF has been generated from an entry in the Cambridge 
# Structural Database, then it will include bibliographic, chemical, 
# crystal, experimental, refinement or atomic coordinate data resulting 
# from the CCDC's data processing and validation procedures.
#
#######################################################################

data_APEQIW
_chemical_formula_moiety         'C29 H33 Cl1 N2 O1'
_chemical_name_systematic        
cis-(2S,5S)-2-(bis(4-(Dimethylamino)phenyl)methyl)-5-(4-chlorophenyl)cyclohexanone
_symmetry_cell_setting           monoclinic
_symmetry_space_group_name_H-M   'C 2'
_symmetry_Int_Tables_number      5
_space_group_name_Hall           'C 2y'
loop_
_symmetry_equiv_pos_site_id
_symmetry_equiv_pos_as_xyz
1 x,y,z
2 -x,y,-z
3 1/2+x,1/2+y,z
4 1/2-x,1/2+y,-z
_cell_length_a                   22.034(10)
_cell_length_b                   6.163(3)
_cell_length_c                   18.679(8)
_cell_angle_alpha                90
_cell_angle_beta                 96.730(7)
_cell_angle_gamma                90
_cell_volume                     2519.05
_exptl_crystal_colour            colorless
_exptl_crystal_description       needle
_cell_formula_units_Z            4
loop_
_atom_site_label
_atom_site_type_symbol
_atom_site_fract_x
_atom_site_fract_y
_atom_site_fract_z
Cl1 Cl 0.49609(9) 0.3645(4) 0.13577(9)
O1 O 0.3243(2) -0.5719(8) -0.1980(3)
N1 N -0.0224(3) 0.0617(9) -0.3159(3)
N2 N 0.3450(3) -0.2222(9) -0.5116(3)
C1 C 0.2430(3) -0.3210(10) -0.1956(3)
H1 H 0.2184 -0.4451 -0.2178
C2 C 0.3090(3) -0.3942(12) -0.1804(3)
C3 C 0.3522(3) -0.2422(10) -0.1366(3)
H2 H 0.3554 -0.1040 -0.1629
H3 H 0.3934 -0.3080 -0.1281
C4 C 0.3271(3) -0.1985(10) -0.0629(3)
H4 H 0.3249 -0.3425 -0.0386
C5 C 0.2621(3) -0.1126(12) -0.0762(3)
H5 H 0.2462 -0.0897 -0.0294
H6 H 0.2624 0.0296 -0.1009
C6 C 0.2197(3) -0.2658(12) -0.1218(3)
H7 H 0.1787 -0.1988 -0.1309
H8 H 0.2156 -0.4020 -0.0946
C7 C 0.3704(3) -0.0592(10) -0.0135(3)
C8 C 0.3843(3) 0.1507(11) -0.0332(3)
H9 H 0.3669 0.2062 -0.0785
C9 C 0.4225(3) 0.2777(11) 0.0115(4)
H10 H 0.4322 0.4199 -0.0032
C10 C 0.4475(3) 0.1998(13) 0.0788(3)
C11 C 0.4343(3) -0.0044(13) 0.1000(4)
H11 H 0.4515 -0.0590 0.1455
C12 C 0.3951(3) -0.1308(13) 0.0539(3)
H12 H 0.3848 -0.2719 0.0691
C13 C 0.2340(3) -0.1227(11) -0.2484(3)
H13 H 0.2531 0.0073 -0.2228
C14 C 0.1662(3) -0.0767(10) -0.2674(3)
C15 C 0.1427(3) 0.1276(10) -0.2555(3)
H14 H 0.1697 0.2373 -0.2350
C16 C 0.0811(3) 0.1773(10) -0.2724(3)
H15 H 0.0670 0.3199 -0.2642
C17 C 0.0397(3) 0.0199(10) -0.3013(3)
C18 C 0.0633(3) -0.1875(10) -0.3133(3)
H16 H 0.0363 -0.2984 -0.3329
C19 C 0.1246(3) -0.2331(10) -0.2970(3)
H17 H 0.1390 -0.3745 -0.3062
C20 C -0.0468(3) 0.2615(11) -0.2940(4)
H18 H -0.0308 0.3810 -0.3210
H19 H -0.0348 0.2831 -0.2423
H20 H -0.0914 0.2582 -0.3038
C21 C -0.0643(3) -0.1143(12) -0.3343(4)
H21 H -0.0571 -0.1748 -0.3811
H22 H -0.1064 -0.0603 -0.3371
H23 H -0.0581 -0.2275 -0.2974
C22 C 0.2650(2) -0.1578(9) -0.3171(3)
C23 C 0.2606(3) -0.3506(11) -0.3555(3)
H24 H 0.2396 -0.4697 -0.3376
C24 C 0.2864(3) -0.3743(10) -0.4199(3)
H25 H 0.2822 -0.5085 -0.4450
C25 C 0.3185(3) -0.2039(10) -0.4483(3)
C26 C 0.3220(3) -0.0077(10) -0.4091(3)
H26 H 0.3426 0.1129 -0.4268
C27 C 0.2958(3) 0.0131(10) -0.3447(3)
H27 H 0.2993 0.1471 -0.3194
C28 C 0.3530(3) -0.4413(11) -0.5386(3)
H28 H 0.3138 -0.5178 -0.5432
H29 H 0.3827 -0.5198 -0.5050
H30 H 0.3680 -0.4334 -0.5859
C29 C 0.3891(3) -0.0617(11) -0.5282(4)
H31 H 0.3689 0.0795 -0.5358
H32 H 0.4065 -0.1045 -0.5720
H33 H 0.4218 -0.0512 -0.4880
loop_
_geom_bond_atom_site_label_1
_geom_bond_atom_site_label_2
_geom_bond_site_symmetry_1
_geom_bond_site_symmetry_2
Cl1 C10 1_555 1_555
O1 C2 1_555 1_555
N1 C17 1_555 1_555
N2 C25 1_555 1_555
C1 H1 1_555 1_555
C2 C1 1_555 1_555
C3 C2 1_555 1_555
H2 C3 1_555 1_555
H3 C3 1_555 1_555
C4 C3 1_555 1_555
H4 C4 1_555 1_555
C5 C4 1_555 1_555
H5 C5 1_555 1_555
H6 C5 1_555 1_555
C6 C1 1_555 1_555
H7 C6 1_555 1_555
H8 C6 1_555 1_555
C7 C4 1_555 1_555
C8 C7 1_555 1_555
H9 C8 1_555 1_555
C9 C8 1_555 1_555
H10 C9 1_555 1_555
C10 C9 1_555 1_555
C11 C10 1_555 1_555
H11 C11 1_555 1_555
C12 C7 1_555 1_555
H12 C12 1_555 1_555
C13 C1 1_555 1_555
H13 C13 1_555 1_555
C14 C13 1_555 1_555
C15 C14 1_555 1_555
H14 C15 1_555 1_555
C16 C15 1_555 1_555
H15 C16 1_555 1_555
C17 C16 1_555 1_555
C18 C17 1_555 1_555
H16 C18 1_555 1_555
C19 C14 1_555 1_555
H17 C19 1_555 1_555
C20 N1 1_555 1_555
H18 C20 1_555 1_555
H19 C20 1_555 1_555
H20 C20 1_555 1_555
C21 N1 1_555 1_555
H21 C21 1_555 1_555
H22 C21 1_555 1_555
H23 C21 1_555 1_555
C22 C13 1_555 1_555
C23 C22 1_555 1_555
H24 C23 1_555 1_555
C24 C23 1_555 1_555
H25 C24 1_555 1_555
C25 C24 1_555 1_555
C26 C25 1_555 1_555
H26 C26 1_555 1_555
C27 C22 1_555 1_555
H27 C27 1_555 1_555
C28 N2 1_555 1_555
H28 C28 1_555 1_555
H29 C28 1_555 1_555
H30 C28 1_555 1_555
C29 N2 1_555 1_555
H31 C29 1_555 1_555
H32 C29 1_555 1_555
H33 C29 1_555 1_555
C5 C6 1_555 1_555
C11 C12 1_555 1_555
C18 C19 1_555 1_555
C26 C27 1_555 1_555

#END
