
#######################################################################
#
#                 Cambridge Crystallographic Data Centre
#                                CCDC 
#
#######################################################################
#
# If this CIF has been generated from an entry in the Cambridge 
# Structural Database, then it will include bibliographic, chemical, 
# crystal, experimental, refinement or atomic coordinate data resulting 
# from the CCDC's data processing and validation procedures.
#
#######################################################################

data_APILES
_chemical_formula_moiety         'C10 F8 N2 Te1,C5 H12 N2 S1'
_chemical_name_systematic        
'bis(tetrafluoropyridin-4-yl)telluride 1,1,3,3-tetramethylthiourea'
_symmetry_cell_setting           monoclinic
_symmetry_space_group_name_H-M   'P 21/c'
_symmetry_Int_Tables_number      14
_space_group_name_Hall           '-P 2ybc'
loop_
_symmetry_equiv_pos_site_id
_symmetry_equiv_pos_as_xyz
1 x,y,z
2 -x,1/2+y,1/2-z
3 -x,-y,-z
4 x,1/2-y,1/2+z
_cell_length_a                   10.6254(5)
_cell_length_b                   20.3190(13)
_cell_length_c                   9.0145(4)
_cell_angle_alpha                90
_cell_angle_beta                 90.586(4)
_cell_angle_gamma                90
_cell_volume                     1946.11
_exptl_crystal_colour            colorless
_cell_formula_units_Z            4
loop_
_atom_site_label
_atom_site_type_symbol
_atom_site_fract_x
_atom_site_fract_y
_atom_site_fract_z
Te1 Te -0.729707(11) -0.179315(5) -0.010453(12)
F1 F -0.66918(12) -0.06692(6) -0.26307(14)
F2 F -0.78666(15) -0.03518(7) -0.51711(15)
F3 F -1.07763(15) -0.19418(10) -0.45756(18)
F4 F -0.97021(14) -0.23622(8) -0.20473(15)
F5 F -1.01045(11) -0.13036(6) 0.09322(16)
F6 F -1.09154(13) -0.01621(7) 0.20435(18)
F7 F -0.70623(17) 0.07494(7) 0.1836(2)
F8 F -0.60497(12) -0.03490(7) 0.06925(16)
N1 N -0.93113(18) -0.11559(10) -0.48776(19)
N2 N -0.89874(19) 0.02881(8) 0.19370(19)
C1 C -0.81405(17) -0.15340(9) -0.22103(19)
C2 C -0.76982(18) -0.10236(9) -0.3068(2)
C3 C -0.8305(2) -0.08569(10) -0.4373(2)
C4 C -0.9729(2) -0.16396(13) -0.4082(2)
C5 C -0.9184(2) -0.18537(10) -0.2767(2)
C6 C -0.80291(17) -0.08842(8) 0.07570(18)
C7 C -0.92780(18) -0.08119(9) 0.1132(2)
C8 C -0.9696(2) -0.02249(10) 0.1709(2)
C9 C -0.7802(2) 0.02256(9) 0.1594(2)
C10 C -0.72785(19) -0.03396(9) 0.1008(2)
S1 S -0.64490(4) -0.30977(2) -0.17541(5)
N3 N -0.41614(15) -0.26091(8) -0.23317(19)
N4 N -0.42338(17) -0.37061(8) -0.1726(2)
C11 C -0.48517(19) -0.31367(9) -0.1957(2)
C12 C -0.4719(2) -0.20204(10) -0.2987(2)
H1 H -0.5460 -0.2123 -0.3512
H2 H -0.4891 -0.1680 -0.2240
H3 H -0.4080 -0.1829 -0.3673
C13 C -0.2876(2) -0.25100(13) -0.1769(3)
H4 H -0.2637 -0.2847 -0.1027
H5 H -0.2292 -0.2545 -0.2559
H6 H -0.2785 -0.2072 -0.1333
C14 C -0.3125(3) -0.38901(15) -0.2583(4)
H7 H -0.3048 -0.3557 -0.3461
H8 H -0.3261 -0.4264 -0.3083
H9 H -0.2366 -0.3933 -0.2041
C15 C -0.4791(2) -0.42504(10) -0.0919(3)
H10 H -0.5387 -0.4091 -0.0201
H11 H -0.5198 -0.4538 -0.1541
H12 H -0.4122 -0.4476 -0.0465
loop_
_geom_bond_atom_site_label_1
_geom_bond_atom_site_label_2
_geom_bond_site_symmetry_1
_geom_bond_site_symmetry_2
Te1 C1 1_555 1_555
F1 C2 1_555 1_555
F2 C3 1_555 1_555
F3 C4 1_555 1_555
F4 C5 1_555 1_555
F5 C7 1_555 1_555
F6 C8 1_555 1_555
F7 C9 1_555 1_555
F8 C10 1_555 1_555
N1 C3 1_555 1_555
N2 C8 1_555 1_555
C1 C2 1_555 1_555
C2 C3 1_555 1_555
C4 N1 1_555 1_555
C5 C1 1_555 1_555
C6 Te1 1_555 1_555
C7 C6 1_555 1_555
C8 C7 1_555 1_555
C9 N2 1_555 1_555
C10 C6 1_555 1_555
S1 C11 1_555 1_555
N3 C11 1_555 1_555
N4 C11 1_555 1_555
C12 N3 1_555 1_555
H1 C12 1_555 1_555
H2 C12 1_555 1_555
H3 C12 1_555 1_555
C13 N3 1_555 1_555
H4 C13 1_555 1_555
H5 C13 1_555 1_555
H6 C13 1_555 1_555
C14 N4 1_555 1_555
H7 C14 1_555 1_555
H8 C14 1_555 1_555
H9 C14 1_555 1_555
C15 N4 1_555 1_555
H10 C15 1_555 1_555
H11 C15 1_555 1_555
H12 C15 1_555 1_555
C4 C5 1_555 1_555
C9 C10 1_555 1_555

#END
