
#######################################################################
#
#                 Cambridge Crystallographic Data Centre
#                                CCDC 
#
#######################################################################
#
# If this CIF has been generated from an entry in the Cambridge 
# Structural Database, then it will include bibliographic, chemical, 
# crystal, experimental, refinement or atomic coordinate data resulting 
# from the CCDC's data processing and validation procedures.
#
#######################################################################

data_APOFES
_chemical_formula_moiety         'C35 H28 Cl1 N1 O5'
_chemical_name_systematic        
'(R)-t-butyl 4-chloro-2-oxo-3-((S)-2-oxo-1-(10-oxo-9,10-dihydroanthracen-9-yl) -2-phenylethyl)indoline-1-carboxylate'
_symmetry_cell_setting           monoclinic
_symmetry_space_group_name_H-M   'P 21/n'
_symmetry_Int_Tables_number      14
_space_group_name_Hall           '-P 2yn'
loop_
_symmetry_equiv_pos_site_id
_symmetry_equiv_pos_as_xyz
1 x,y,z
2 1/2-x,1/2+y,1/2-z
3 -x,-y,-z
4 1/2+x,1/2-y,1/2+z
_cell_length_a                   14.9648(6)
_cell_length_b                   9.7262(4)
_cell_length_c                   20.3605(8)
_cell_angle_alpha                90
_cell_angle_beta                 99.0019(12)
_cell_angle_gamma                90
_cell_volume                     2926.98
_exptl_crystal_colour            colorless
_exptl_crystal_description       prism
_cell_formula_units_Z            4
_exptl_crystal_recrystallization_method 'Ethyl acetate/n-hexane'
loop_
_atom_site_label
_atom_site_type_symbol
_atom_site_fract_x
_atom_site_fract_y
_atom_site_fract_z
Cl1 Cl 0.95099(8) 0.23091(14) 0.99644(6)
N1 N 0.7174(2) 0.3566(3) 0.80287(16)
O1 O 0.5834(2) 0.3863(3) 0.73974(16)
O2 O 0.6915(2) 0.5468(4) 0.73683(17)
O3 O 0.6192(2) 0.1760(3) 0.81827(14)
O4 O 0.7852(3) -0.1124(4) 1.13039(19)
O5 O 0.6272(2) 0.3992(4) 0.92678(16)
C1 C 0.7583(3) 0.2108(4) 0.89682(18)
H1 H 0.7832 0.1194 0.8904
C2 C 0.9155(3) 0.3322(4) 0.9279(2)
C3 C 0.8303(3) 0.3138(4) 0.89081(19)
C4 C 0.8050(3) 0.3948(4) 0.8341(2)
C5 C 0.6873(3) 0.2415(4) 0.8365(2)
C6 C 0.8632(3) 0.4910(5) 0.8137(2)
H2 H 0.8463 0.5437 0.7757
C7 C 0.9746(3) 0.4295(5) 0.9087(2)
H3 H 1.0314 0.4427 0.9337
C8 C 0.9479(3) 0.5057(5) 0.8523(3)
H4 H 0.9880 0.5697 0.8394
C9 C 0.7204(3) 0.2082(4) 0.96227(19)
H5 H 0.7713 0.1954 0.9983
C10 C 0.6516(3) 0.0866(4) 0.9662(2)
H6 H 0.6008 0.0967 0.9298
C11 C 0.6161(3) 0.0941(5) 1.0312(2)
C12 C 0.5418(3) 0.1778(5) 1.0379(3)
H7 H 0.5107 0.2226 1.0009
C13 C 0.6605(3) 0.0255(5) 1.0869(2)
C14 C 0.5144(4) 0.1944(7) 1.0995(4)
H8 H 0.4661 0.2520 1.1039
C15 C 0.6315(5) 0.0413(7) 1.1488(3)
H9 H 0.6610 -0.0044 1.1861
C16 C 0.5585(6) 0.1257(8) 1.1536(4)
H10 H 0.5390 0.1360 1.1945
C17 C 0.7435(3) -0.1165(4) 1.0135(2)
C18 C 0.6981(3) -0.0492(4) 0.9583(2)
C19 C 0.7000(3) -0.1053(5) 0.8958(2)
H11 H 0.6695 -0.0616 0.8583
C20 C 0.7352(3) -0.0698(5) 1.0813(2)
C21 C 0.7475(4) -0.2270(5) 0.8889(3)
H12 H 0.7480 -0.2646 0.8470
C22 C 0.7920(3) -0.2372(5) 1.0063(3)
H13 H 0.8232 -0.2808 1.0436
C23 C 0.7935(4) -0.2909(5) 0.9444(3)
H14 H 0.8258 -0.3711 0.9398
C24 C 0.6767(3) 0.3466(4) 0.9731(2)
C25 C 0.6354(4) 0.5233(5) 1.0499(3)
H15 H 0.5878 0.5471 1.0167
C26 C 0.6931(3) 0.4170(4) 1.0386(2)
C27 C 0.7628(4) 0.3831(6) 1.0882(2)
H16 H 0.8016 0.3113 1.0820
C28 C 0.6472(4) 0.5941(6) 1.1093(3)
H17 H 0.6074 0.6640 1.1164
C29 C 0.7178(4) 0.5606(7) 1.1577(3)
H18 H 0.7268 0.6090 1.1975
C30 C 0.7755(5) 0.4559(8) 1.1476(3)
H19 H 0.8234 0.4334 1.1808
C31 C 0.6635(3) 0.4403(5) 0.7562(2)
C32 C 0.5068(3) 0.4641(5) 0.7035(2)
C33 C 0.4296(4) 0.3620(6) 0.7018(3)
H20 H 0.4405 0.2840 0.6753
H21 H 0.3738 0.4051 0.6828
H22 H 0.4257 0.3323 0.7462
C34 C 0.4902(5) 0.5890(7) 0.7418(4)
H23 H 0.4928 0.5655 0.7878
H24 H 0.4315 0.6255 0.7249
H25 H 0.5355 0.6567 0.7374
C35 C 0.5239(4) 0.4928(7) 0.6345(3)
H26 H 0.5734 0.5562 0.6361
H27 H 0.4707 0.5321 0.6090
H28 H 0.5387 0.4086 0.6140
loop_
_geom_bond_atom_site_label_1
_geom_bond_atom_site_label_2
_geom_bond_site_symmetry_1
_geom_bond_site_symmetry_2
Cl1 C2 1_555 1_555
N1 C4 1_555 1_555
O1 C31 1_555 1_555
O2 C31 1_555 1_555
O3 C5 1_555 1_555
O4 C20 1_555 1_555
O5 C24 1_555 1_555
C1 H1 1_555 1_555
C2 C3 1_555 1_555
C3 C1 1_555 1_555
C4 C3 1_555 1_555
C5 N1 1_555 1_555
C6 C4 1_555 1_555
H2 C6 1_555 1_555
C7 C2 1_555 1_555
H3 C7 1_555 1_555
C8 C6 1_555 1_555
H4 C8 1_555 1_555
C9 C1 1_555 1_555
H5 C9 1_555 1_555
C10 C9 1_555 1_555
H6 C10 1_555 1_555
C11 C10 1_555 1_555
C12 C11 1_555 1_555
H7 C12 1_555 1_555
C13 C11 1_555 1_555
C14 C12 1_555 1_555
H8 C14 1_555 1_555
C15 C13 1_555 1_555
H9 C15 1_555 1_555
C16 C14 1_555 1_555
H10 C16 1_555 1_555
C17 C18 1_555 1_555
C18 C10 1_555 1_555
C19 C18 1_555 1_555
H11 C19 1_555 1_555
C20 C13 1_555 1_555
C21 C19 1_555 1_555
H12 C21 1_555 1_555
C22 C17 1_555 1_555
H13 C22 1_555 1_555
C23 C21 1_555 1_555
H14 C23 1_555 1_555
C24 C9 1_555 1_555
C25 H15 1_555 1_555
C26 C24 1_555 1_555
C27 C26 1_555 1_555
H16 C27 1_555 1_555
C28 C25 1_555 1_555
H17 C28 1_555 1_555
C29 C28 1_555 1_555
H18 C29 1_555 1_555
C30 C27 1_555 1_555
H19 C30 1_555 1_555
C31 N1 1_555 1_555
C32 O1 1_555 1_555
C33 C32 1_555 1_555
H20 C33 1_555 1_555
H21 C33 1_555 1_555
H22 C33 1_555 1_555
C34 C32 1_555 1_555
H23 C34 1_555 1_555
H24 C34 1_555 1_555
H25 C34 1_555 1_555
C35 C32 1_555 1_555
H26 C35 1_555 1_555
H27 C35 1_555 1_555
H28 C35 1_555 1_555
C1 C5 1_555 1_555
C7 C8 1_555 1_555
C15 C16 1_555 1_555
C17 C20 1_555 1_555
C22 C23 1_555 1_555
C25 C26 1_555 1_555
C29 C30 1_555 1_555

#END
