
#######################################################################
#
#                 Cambridge Crystallographic Data Centre
#                                CCDC 
#
#######################################################################
#
# If this CIF has been generated from an entry in the Cambridge 
# Structural Database, then it will include bibliographic, chemical, 
# crystal, experimental, refinement or atomic coordinate data resulting 
# from the CCDC's data processing and validation procedures.
#
#######################################################################

data_APOMUO
_chemical_formula_moiety         '2(C1 H6 N3 1+),C12 H8 O6 S2 2-,3(C8 H6 S2)'
_chemical_name_systematic        
"bis(Guanidinium) biphenyl-4,4'-disulfonate tris(2,2'-bithiophene) clathrate"
_symmetry_cell_setting           monoclinic
_symmetry_space_group_name_H-M   'P 21/n'
_symmetry_Int_Tables_number      14
_space_group_name_Hall           '-P 2yn'
loop_
_symmetry_equiv_pos_site_id
_symmetry_equiv_pos_as_xyz
1 x,y,z
2 1/2-x,1/2+y,1/2-z
3 -x,-y,-z
4 1/2+x,1/2-y,1/2+z
_cell_length_a                   7.5783(18)
_cell_length_b                   11.932(3)
_cell_length_c                   24.791(6)
_cell_angle_alpha                90
_cell_angle_beta                 90.963(4)
_cell_angle_gamma                90
_cell_volume                     2241.39
_exptl_crystal_colour            colorless
_exptl_crystal_description       block
_cell_formula_units_Z            2
_exptl_crystal_recrystallization_method methanol
loop_
_atom_site_label
_atom_site_type_symbol
_atom_site_fract_x
_atom_site_fract_y
_atom_site_fract_z
C1 C 0.5124(2) 0.06159(17) 0.24455(8)
N1 N 0.6633(2) 0.11539(15) 0.25133(8)
H1 H 0.7638 0.0803 0.2461
H2 H 0.6635 0.1863 0.2611
N2 N 0.5112(2) -0.04484(15) 0.22997(9)
H3 H 0.6113 -0.0802 0.2247
H4 H 0.4102 -0.0804 0.2255
N3 N 0.3615(2) 0.11505(15) 0.25173(8)
H5 H 0.3620 0.1862 0.2610
H6 H 0.2606 0.0794 0.2472
C2 C 0.0027(2) 0.94156(15) 0.13986(8)
C3 C 0.0894(3) 1.0340(2) 0.12037(10)
H7 H 0.1495 1.0829 0.1447
C4 C 0.0895(4) 1.0562(2) 0.06594(10)
H8 H 0.1512 1.1200 0.0531
C5 C 0.0012(2) 0.98720(15) 0.02928(8)
C6 C -0.0821(3) 0.89339(19) 0.04975(10)
H9 H -0.1403 0.8435 0.0255
C7 C -0.0831(3) 0.87025(19) 0.10416(10)
H10 H -0.1424 0.8057 0.1171
O1 O 0.16994(17) 0.84768(12) 0.21999(6)
O2 O -0.14949(17) 0.84782(12) 0.22093(6)
O3 O 0.01287(18) 1.02003(12) 0.23696(6)
S1 S 0.00898(6) 0.91208(4) 0.20952(2)
C2B C -0.0027(2) 1.05844(15) -0.13986(8)
C3B C -0.0894(3) 0.9660(2) -0.12037(10)
H7B H -0.1495 0.9171 -0.1447
C4B C -0.0895(4) 0.9438(2) -0.06594(10)
H8B H -0.1512 0.8800 -0.0531
C5B C -0.0012(2) 1.01280(15) -0.02928(8)
C6B C 0.0821(3) 1.10661(19) -0.04975(10)
H9B H 0.1403 1.1565 -0.0255
C7B C 0.0831(3) 1.12975(19) -0.10416(10)
H10B H 0.1424 1.1943 -0.1171
O1B O -0.16994(17) 1.15232(12) -0.21999(6)
O2B O 0.14949(17) 1.15218(12) -0.22093(6)
O3B O -0.01287(18) 0.97997(12) -0.23696(6)
S1B S -0.00898(6) 1.08792(4) -0.20952(2)
S2 S 0.0820(3) 0.2897(2) 0.40422(8)
C8 C 0.0157(12) 0.1979(6) 0.3586(5)
H11 H 0.0377 0.2042 0.3211
C9 C -0.0766(13) 0.1102(7) 0.3818(4)
H12 H -0.1227 0.0507 0.3604
C10 C -0.1011(6) 0.1121(4) 0.44120(17)
H13 H -0.1591 0.0587 0.4631
C11 C -0.0156(11) 0.2145(7) 0.4573(3)
S3 S -0.0723(4) 0.1888(3) 0.56417(14)
C12 C 0.0043(11) 0.2585(6) 0.5100(5)
C13 C 0.0766(15) 0.3551(7) 0.5338(6)
H14 H 0.1277 0.4105 0.5114
C14 C 0.0756(19) 0.3714(13) 0.5874(6)
H15 H 0.1246 0.4350 0.6052
C15 C -0.005(3) 0.2844(13) 0.6130(7)
H16 H -0.0215 0.2775 0.6507
S4? S -0.079(5) 0.362(3) 0.051(2)
C16? C 0.012(8) 0.484(4) 0.031(2)
C17? C 0.099(6) 0.543(4) 0.072(2)
H17? H 0.1590 0.6122 0.0678
C18? C 0.086(7) 0.482(4) 0.122(2)
H18? H 0.1347 0.5074 0.1555
C19? C -0.008(6) 0.383(5) 0.116(2)
H19? H -0.0288 0.3317 0.1447
S5? S 0.087(4) 0.640(3) -0.049(2)
C20? C -0.010(9) 0.521(4) -0.027(3)
C21? C -0.102(8) 0.457(6) -0.065(3)
H20? H -0.1671 0.3890 -0.0638
C22? C -0.059(9) 0.532(7) -0.108(2)
H21? H -0.1027 0.5046 -0.1419
C23? C 0.027(10) 0.635(6) -0.116(2)
H22? H 0.0453 0.6822 -0.1458
C24? C 0.092(2) 0.3007(13) 0.4216(4)
C25? C 0.003(2) 0.2358(14) 0.4609(8)
C26? C -0.006(2) 0.2618(14) 0.5228(8)
C27? C -0.0786(7) 0.1878(4) 0.5623(2)
C28? C -0.023(4) 0.2577(19) 0.6059(9)
C29? C 0.061(3) 0.3578(16) 0.5967(5)
C30? C -0.005(10) 0.477(7) 0.025(3)
C31? C -0.083(10) 0.375(7) 0.038(3)
C32? C -0.039(11) 0.366(8) 0.095(3)
C33? C 0.059(13) 0.434(4) 0.130(2)
C34? C 0.001(9) 0.522(8) -0.026(3)
C35? C 0.082(7) 0.626(8) -0.035(3)
C36? C 0.060(14) 0.640(8) -0.092(3)
C37? C -0.033(15) 0.561(6) -0.123(3)
C38? C -0.041(2) 0.1339(16) 0.3746(7)
C39? C 0.0534(17) 0.2337(14) 0.3763(6)
H23? H 0.1575 0.3683 0.4250
H24? H -0.1399 0.1185 0.5602
H25? H -0.0454 0.2350 0.6419
H26? H 0.0959 0.4076 0.6248
H27? H -0.1484 0.3246 0.0162
H28? H -0.0849 0.3009 0.1113
H29? H 0.0918 0.4285 0.1675
H30? H 0.1379 0.6746 -0.0095
H31? H 0.1089 0.7040 -0.1092
H32? H -0.0588 0.5647 -0.1608
H33? H -0.0666 0.0874 0.3444
H34? H 0.0969 0.2597 0.3428
S6? S -0.0980(9) 0.1156(7) 0.4397(3)
S7? S 0.0969(8) 0.3834(4) 0.5327(3)
S8? S 0.096(5) 0.530(3) 0.0809(16)
S9? S -0.090(4) 0.456(3) -0.0801(16)
loop_
_geom_bond_atom_site_label_1
_geom_bond_atom_site_label_2
_geom_bond_site_symmetry_1
_geom_bond_site_symmetry_2
C1 N1 1_555 1_555
N1 H1 1_555 1_555
H2 N1 1_555 1_555
N2 C1 1_555 1_555
H3 N2 1_555 1_555
H4 N2 1_555 1_555
N3 C1 1_555 1_555
H5 N3 1_555 1_555
H6 N3 1_555 1_555
C2 C3 1_555 1_555
C3 H7 1_555 1_555
C4 C3 1_555 1_555
H8 C4 1_555 1_555
C5 C4 1_555 1_555
C6 C5 1_555 1_555
H9 C6 1_555 1_555
C7 C2 1_555 1_555
H10 C7 1_555 1_555
O1 S1 1_555 1_555
O2 S1 1_555 1_555
O3 S1 1_555 1_555
S1 C2 1_555 1_555
S2 C8 1_555 1_555
C8 H11 1_555 1_555
C9 C8 1_555 1_555
H12 C9 1_555 1_555
C10 C9 1_555 1_555
H13 C10 1_555 1_555
C11 S2 1_555 1_555
S3 C12 1_555 1_555
C12 C11 1_555 1_555
C13 C12 1_555 1_555
H14 C13 1_555 1_555
C14 C13 1_555 1_555
H15 C14 1_555 1_555
C15 S3 1_555 1_555
H16 C15 1_555 1_555
C2B C3B 1_555 1_555
C3B H7B 1_555 1_555
C4B C3B 1_555 1_555
H8B C4B 1_555 1_555
C5B C5 1_555 1_555
C6B C5B 1_555 1_555
H9B C6B 1_555 1_555
C7B C2B 1_555 1_555
H10B C7B 1_555 1_555
O1B S1B 1_555 1_555
O2B S1B 1_555 1_555
O3B S1B 1_555 1_555
S1B C2B 1_555 1_555
C6 C7 1_555 1_555
C10 C11 1_555 1_555
C14 C15 1_555 1_555
C4B C5B 1_555 1_555
C6B C7B 1_555 1_555

#END
