
#######################################################################
#
#                 Cambridge Crystallographic Data Centre
#                                CCDC 
#
#######################################################################
#
# If this CIF has been generated from an entry in the Cambridge 
# Structural Database, then it will include bibliographic, chemical, 
# crystal, experimental, refinement or atomic coordinate data resulting 
# from the CCDC's data processing and validation procedures.
#
#######################################################################

data_APOQOM
_chemical_formula_moiety         '2(C1 H6 N3 1+),C10 H6 O6 S2 2-,0.5(C14 H12)'
_chemical_name_systematic        
'bis(Guanidinium) naphthalene-2,6-disulfonate hemikis(stilbene) clathrate'
_symmetry_cell_setting           triclinic
_symmetry_space_group_name_H-M   'P -1'
_symmetry_Int_Tables_number      2
_space_group_name_Hall           '-P 1'
loop_
_symmetry_equiv_pos_site_id
_symmetry_equiv_pos_as_xyz
1 x,y,z
2 -x,-y,-z
_cell_length_a                   7.1176(5)
_cell_length_b                   12.5978(8)
_cell_length_c                   12.6173(8)
_cell_angle_alpha                85.850(1)
_cell_angle_beta                 87.616(1)
_cell_angle_gamma                78.770(1)
_cell_volume                     1106.34
_exptl_crystal_colour            colorless
_exptl_crystal_description       plate
_cell_formula_units_Z            2
_exptl_crystal_recrystallization_method methanol
loop_
_atom_site_label
_atom_site_type_symbol
_atom_site_fract_x
_atom_site_fract_y
_atom_site_fract_z
S1 S 0.21040(5) 0.16209(3) 0.56607(3)
C1 C 0.1508(2) 0.44198(12) 0.38537(11)
H1 H 0.1955 0.4655 0.3174
C3 C 0.2004(2) 0.33569(12) 0.42011(11)
H3 H 0.2785 0.2854 0.3764
C4 C 0.02067(19) 0.37076(11) 0.58540(11)
H4 H -0.0229 0.3454 0.6530
C8 C 0.03336(19) 0.51802(11) 0.44934(10)
C12 C 0.13525(19) 0.30030(11) 0.52173(11)
O1 O 0.19462(14) 0.15708(8) 0.68207(8)
O4 O 0.08209(16) 0.10220(8) 0.52013(8)
O5 O 0.40752(15) 0.13169(9) 0.52715(8)
S1A S -0.21040(5) 0.83791(3) 0.43393(3)
C1A C -0.1508(2) 0.55802(12) 0.61463(11)
H1A H -0.1955 0.5345 0.6826
C3A C -0.2004(2) 0.66431(12) 0.57989(11)
H3A H -0.2785 0.7146 0.6236
C4A C -0.02067(19) 0.62924(11) 0.41460(11)
H4A H 0.0229 0.6546 0.3470
C8A C -0.03336(19) 0.48198(11) 0.55066(10)
C12A C -0.13525(19) 0.69970(11) 0.47827(11)
O1A O -0.19462(14) 0.84292(8) 0.31793(8)
O4A O -0.08209(16) 0.89780(8) 0.47987(8)
O5A O -0.40752(15) 0.86831(9) 0.47285(8)
S2 S 0.22345(5) 0.16410(3) 0.06633(3)
C2 C 0.0680(2) 0.37714(11) 0.09283(11)
H2 H 0.0693 0.3577 0.1670
C5 C 0.0661(2) 0.43101(12) -0.12628(11)
H5 H 0.0653 0.4488 -0.2008
C6 C 0.1306(2) 0.32654(12) -0.08903(11)
H6 H 0.1744 0.2718 -0.1372
C7 C -0.00013(19) 0.48634(11) 0.05534(10)
C11 C 0.13179(19) 0.30020(11) 0.02190(11)
O2 O 0.21308(15) 0.15921(8) 0.18249(8)
O3 O 0.42054(14) 0.14036(9) 0.02528(8)
O6 O 0.10271(16) 0.09860(8) 0.02180(9)
S2A S -0.22345(5) 0.83590(3) -0.06633(3)
C2A C -0.0680(2) 0.62286(11) -0.09283(11)
H2A H -0.0693 0.6423 -0.1670
C5A C -0.0661(2) 0.56899(12) 0.12628(11)
H5A H -0.0653 0.5512 0.2008
C6A C -0.1306(2) 0.67346(12) 0.08903(11)
H6A H -0.1744 0.7282 0.1372
C7A C 0.00013(19) 0.51366(11) -0.05534(10)
C11A C -0.13179(19) 0.69980(11) -0.02190(11)
O2A O -0.21308(15) 0.84079(8) -0.18249(8)
O3A O -0.42054(14) 0.85964(9) -0.02528(8)
O6A O -0.10271(16) 0.90140(8) -0.02180(9)
C9 C 0.7178(2) 0.10480(11) 0.76182(12)
N1 N 0.54886(18) 0.10233(11) 0.80922(10)
H7 H 0.4487 0.1012 0.7710
H8 H 0.5368 0.1018 0.8789
N3 N 0.73461(19) 0.10557(12) 0.65723(10)
H11 H 0.6340 0.1044 0.6194
H12 H 0.8464 0.1072 0.6253
N4 N 0.87042(19) 0.10788(11) 0.81803(10)
H13 H 0.9814 0.1104 0.7854
H14 H 0.8605 0.1074 0.8878
C10 C 0.7326(2) 0.11111(11) 0.26094(12)
N2 N 0.74556(19) 0.11390(12) 0.15604(10)
H9 H 0.6432 0.1142 0.1191
H10 H 0.8565 0.1154 0.1231
N5 N 0.88771(18) 0.11210(11) 0.31553(10)
H15 H 0.9977 0.1146 0.2818
H16 H 0.8805 0.1103 0.3854
N6 N 0.56458(18) 0.10881(11) 0.30973(10)
H17 H 0.4629 0.1091 0.2723
H18 H 0.5548 0.1069 0.3796
C13 C 0.581(5) 0.5276(16) 0.3632(14)
H19 H 0.6067 0.5438 0.4329
C14 C 0.644(2) 0.4256(11) 0.3286(10)
H20 H 0.7066 0.3689 0.3758
C15 C 0.615(2) 0.4060(11) 0.2260(10)
H21 H 0.6581 0.3349 0.2034
C16 C 0.524(3) 0.4864(10) 0.1530(8)
C17 C 0.451(3) 0.5896(11) 0.1882(11)
H22 H 0.3843 0.6456 0.1415
C18 C 0.478(3) 0.6081(12) 0.2922(12)
H23 H 0.4252 0.6772 0.3173
C19 C 0.5152(6) 0.4629(5) 0.0409(4)
H24 H 0.5323 0.3889 0.0255
C13A C 0.419(5) 0.4724(16) -0.3632(14)
H19A H 0.3933 0.4562 -0.4329
C14A C 0.356(2) 0.5744(11) -0.3286(10)
H20A H 0.2934 0.6311 -0.3758
C15A C 0.385(2) 0.5940(11) -0.2260(10)
H21A H 0.3419 0.6651 -0.2034
C16A C 0.476(3) 0.5136(10) -0.1530(8)
C17A C 0.549(3) 0.4104(11) -0.1882(11)
H22A H 0.6157 0.3544 -0.1415
C18A C 0.522(3) 0.3919(12) -0.2922(12)
H23A H 0.5748 0.3228 -0.3173
C19A C 0.4848(6) 0.5371(5) -0.0409(4)
H24A H 0.4677 0.6111 -0.0255
C20? C 0.593(5) 0.5050(16) 0.3640(14)
C21? C 0.501(2) 0.6004(13) 0.3170(13)
C22? C 0.451(2) 0.6049(12) 0.2146(11)
C23? C 0.497(3) 0.5178(11) 0.1508(8)
C24? C 0.590(2) 0.4174(12) 0.1984(10)
C25? C 0.637(2) 0.4126(12) 0.3035(11)
C26? C 0.4599(6) 0.5325(5) 0.0368(4)
H25? H 0.6284 0.5005 0.4363
H26? H 0.4710 0.6635 0.3561
H27? H 0.3797 0.6712 0.1845
H28? H 0.6186 0.3546 0.1589
H29? H 0.7010 0.3457 0.3361
H30? H 0.3692 0.5947 0.0137
loop_
_geom_bond_atom_site_label_1
_geom_bond_atom_site_label_2
_geom_bond_site_symmetry_1
_geom_bond_site_symmetry_2
S1 C12 1_555 1_555
S2 C11 1_555 1_555
C1 H1 1_555 1_555
C2 H2 1_555 1_555
C3 C1 1_555 1_555
H3 C3 1_555 1_555
C4 H4 1_555 1_555
C5 H5 1_555 1_555
C6 C5 1_555 1_555
H6 C6 1_555 1_555
C7 C2 1_555 1_555
C8 C1 1_555 1_555
C9 N1 1_555 1_555
C10 N2 1_555 1_555
C11 C2 1_555 1_555
C12 C3 1_555 1_555
N1 H7 1_555 1_555
H8 N1 1_555 1_555
N2 H9 1_555 1_555
H10 N2 1_555 1_555
N3 C9 1_555 1_555
H11 N3 1_555 1_555
H12 N3 1_555 1_555
N4 C9 1_555 1_555
H13 N4 1_555 1_555
H14 N4 1_555 1_555
N5 C10 1_555 1_555
H15 N5 1_555 1_555
H16 N5 1_555 1_555
N6 C10 1_555 1_555
H17 N6 1_555 1_555
H18 N6 1_555 1_555
O1 S1 1_555 1_555
O2 S2 1_555 1_555
O3 S2 1_555 1_555
O4 S1 1_555 1_555
O5 S1 1_555 1_555
O6 S2 1_555 1_555
C13 H19 1_555 1_555
C14 C13 1_555 1_555
H20 C14 1_555 1_555
C15 C14 1_555 1_555
H21 C15 1_555 1_555
C16 C15 1_555 1_555
C17 C16 1_555 1_555
H22 C17 1_555 1_555
C18 C13 1_555 1_555
H23 C18 1_555 1_555
C19 C16 1_555 1_555
H24 C19 1_555 1_555
S1A C12A 1_555 1_555
S2A C11A 1_555 1_555
C1A H1A 1_555 1_555
C2A H2A 1_555 1_555
C3A C1A 1_555 1_555
H3A C3A 1_555 1_555
C4A C8 1_555 1_555
H4A C4A 1_555 1_555
C5A C7 1_555 1_555
H5A C5A 1_555 1_555
C6A C5A 1_555 1_555
H6A C6A 1_555 1_555
C7A C5 1_555 1_555
C8A C4 1_555 1_555
C11A C2A 1_555 1_555
C12A C3A 1_555 1_555
O1A S1A 1_555 1_555
O2A S2A 1_555 1_555
O3A S2A 1_555 1_555
O4A S1A 1_555 1_555
O5A S1A 1_555 1_555
O6A S2A 1_555 1_555
C13A H19A 1_555 1_555
C14A C13A 1_555 1_555
H20A C14A 1_555 1_555
C15A C14A 1_555 1_555
H21A C15A 1_555 1_555
C16A C15A 1_555 1_555
C17A C16A 1_555 1_555
H22A C17A 1_555 1_555
C18A C13A 1_555 1_555
H23A C18A 1_555 1_555
C19A C19 1_555 1_555
H24A C19A 1_555 1_555
C4 C12 1_555 1_555
C6 C11 1_555 1_555
C7 C7A 1_555 1_555
C8 C8A 1_555 1_555
C17 C18 1_555 1_555
C1A C8A 1_555 1_555
C2A C7A 1_555 1_555
C4A C12A 1_555 1_555
C6A C11A 1_555 1_555
C16A C19A 1_555 1_555
C17A C18A 1_555 1_555

#END
