
#######################################################################
#
#                 Cambridge Crystallographic Data Centre
#                                CCDC 
#
#######################################################################
#
# If this CIF has been generated from an entry in the Cambridge 
# Structural Database, then it will include bibliographic, chemical, 
# crystal, experimental, refinement or atomic coordinate data resulting 
# from the CCDC's data processing and validation procedures.
#
#######################################################################

data_APUDEV
_chemical_formula_moiety         'C48 H8 F16'
_chemical_name_systematic        
1,2,3,4,5,7,10,12,13,14,15,16,17,19,22,24-Hexadecafluorotrinaphtho[1,2,3,4-fgh:1',2',3',4'-pqr:1'',2'',3'',4''-za1b1]trinaphthylene
_symmetry_cell_setting           monoclinic
_symmetry_space_group_name_H-M   'P 21/c'
_symmetry_Int_Tables_number      14
_space_group_name_Hall           '-P 2ybc'
loop_
_symmetry_equiv_pos_site_id
_symmetry_equiv_pos_as_xyz
1 x,y,z
2 -x,1/2+y,1/2-z
3 -x,-y,-z
4 x,1/2-y,1/2+z
_cell_length_a                   12.966(5)
_cell_length_b                   8.566(3)
_cell_length_c                   14.310(5)
_cell_angle_alpha                90
_cell_angle_beta                 90.270(6)
_cell_angle_gamma                90
_cell_volume                     1589.35
_exptl_crystal_colour            yellow
_exptl_crystal_description       plate
_cell_formula_units_Z            2
loop_
_atom_site_label
_atom_site_type_symbol
_atom_site_fract_x
_atom_site_fract_y
_atom_site_fract_z
F1 F 1.30090(15) 0.4298(2) 0.07546(13)
F2 F 0.94538(14) 0.4005(2) 0.12322(12)
F3 F 0.90788(14) 0.6918(2) 0.13527(12)
F4 F 0.71423(16) 0.7649(2) 0.09135(13)
F5 F 0.56055(15) 0.7163(2) 0.21377(14)
F6 F 0.59799(14) 0.5869(2) 0.38026(13)
F7 F 0.62476(14) 0.2953(2) 0.35584(12)
F8 F 0.53302(14) 0.0962(2) 0.64551(13)
C1 C 1.2185(2) 0.4604(4) 0.1304(2)
C2 C 1.1211(2) 0.4248(4) 0.0948(2)
H1 H 1.1120 0.3846 0.0335
C3 C 1.0395(2) 0.4508(3) 0.1527(2)
C4 C 1.0476(2) 0.5140(3) 0.24370(19)
C5 C 0.9606(2) 0.5304(3) 0.30594(19)
C6 C 0.8556(2) 0.5632(3) 0.2767(2)
C7 C 0.8317(2) 0.6423(3) 0.1931(2)
C8 C 0.7338(3) 0.6862(3) 0.1705(2)
C9 C 0.6544(2) 0.6617(4) 0.2336(2)
C10 C 0.6747(2) 0.5903(4) 0.3174(2)
C11 C 0.7732(2) 0.5334(3) 0.3401(2)
C12 C 0.7965(2) 0.4638(3) 0.43035(19)
C13 C 0.7234(2) 0.3791(3) 0.4869(2)
C14 C 0.6384(2) 0.2968(4) 0.4494(2)
C15 C 0.5728(2) 0.2071(4) 0.5005(2)
H2 H 0.5149 0.1573 0.4726
C16 C 0.5940(2) 0.1917(3) 0.5949(2)
C17 C 0.6780(2) 0.2598(3) 0.6374(2)
H3 H 0.6920 0.2421 0.7017
C18 C 0.7432(2) 0.3565(3) 0.5838(2)
C19 C 0.8371(2) 0.4232(3) 0.62333(19)
C20 C 0.9167(2) 0.4620(3) 0.5627(2)
C21 C 0.8969(2) 0.4815(3) 0.46483(19)
C22 C 0.9799(2) 0.5176(3) 0.40139(19)
C23 C 0.8503(2) 0.4571(3) 0.7224(2)
C24 C 0.7652(2) 0.4839(3) 0.7815(2)
H4 H 0.6971 0.4633 0.7601
F1B F 0.69910(15) 0.5702(2) 0.92454(13)
F2B F 1.05462(14) 0.5995(2) 0.87678(12)
F3B F 1.09212(14) 0.3082(2) 0.86473(12)
F4B F 1.28577(16) 0.2351(2) 0.90865(13)
F5B F 1.43945(15) 0.2837(2) 0.78623(14)
F6B F 1.40201(14) 0.4131(2) 0.61974(13)
F7B F 1.37524(14) 0.7047(2) 0.64416(12)
F8B F 1.46698(14) 0.9038(2) 0.35449(13)
C1B C 0.7815(2) 0.5396(4) 0.8696(2)
C2B C 0.8789(2) 0.5752(4) 0.9052(2)
H1B H 0.8880 0.6154 0.9665
C3B C 0.9605(2) 0.5492(3) 0.8473(2)
C4B C 0.9524(2) 0.4860(3) 0.75630(19)
C5B C 1.0394(2) 0.4696(3) 0.69406(19)
C6B C 1.1444(2) 0.4368(3) 0.7233(2)
C7B C 1.1683(2) 0.3577(3) 0.8069(2)
C8B C 1.2662(3) 0.3138(3) 0.8295(2)
C9B C 1.3456(2) 0.3383(4) 0.7664(2)
C10B C 1.3253(2) 0.4097(4) 0.6826(2)
C11B C 1.2268(2) 0.4666(3) 0.6599(2)
C12B C 1.2035(2) 0.5362(3) 0.56965(19)
C13B C 1.2766(2) 0.6209(3) 0.5131(2)
C14B C 1.3616(2) 0.7032(4) 0.5506(2)
C15B C 1.4272(2) 0.7929(4) 0.4995(2)
H2B H 1.4851 0.8427 0.5274
C16B C 1.4060(2) 0.8083(3) 0.4051(2)
C17B C 1.3220(2) 0.7402(3) 0.3626(2)
H3B H 1.3080 0.7579 0.2983
C18B C 1.2568(2) 0.6435(3) 0.4162(2)
C19B C 1.1629(2) 0.5768(3) 0.37667(19)
C20B C 1.0833(2) 0.5380(3) 0.4373(2)
C21B C 1.1031(2) 0.5185(3) 0.53517(19)
C22B C 1.0201(2) 0.4824(3) 0.59861(19)
C23B C 1.1497(2) 0.5429(3) 0.2776(2)
C24B C 1.2348(2) 0.5161(3) 0.2185(2)
H4B H 1.3029 0.5367 0.2399
loop_
_geom_bond_atom_site_label_1
_geom_bond_atom_site_label_2
_geom_bond_site_symmetry_1
_geom_bond_site_symmetry_2
F1 C1 1_555 1_555
F2 C3 1_555 1_555
F3 C7 1_555 1_555
F4 C8 1_555 1_555
F5 C9 1_555 1_555
F6 C10 1_555 1_555
F7 C14 1_555 1_555
F8 C16 1_555 1_555
C1 C2 1_555 1_555
C2 H1 1_555 1_555
C3 C2 1_555 1_555
C4 C3 1_555 1_555
C5 C4 1_555 1_555
C6 C5 1_555 1_555
C7 C6 1_555 1_555
C8 C7 1_555 1_555
C9 C8 1_555 1_555
C10 C9 1_555 1_555
C11 C6 1_555 1_555
C12 C11 1_555 1_555
C13 C12 1_555 1_555
C14 C13 1_555 1_555
C15 C14 1_555 1_555
H2 C15 1_555 1_555
C16 C15 1_555 1_555
C17 C16 1_555 1_555
H3 C17 1_555 1_555
C18 C13 1_555 1_555
C19 C18 1_555 1_555
C20 C19 1_555 1_555
C21 C12 1_555 1_555
C22 C5 1_555 1_555
C23 C19 1_555 1_555
C24 C23 1_555 1_555
H4 C24 1_555 1_555
F1B C1B 1_555 1_555
F2B C3B 1_555 1_555
F3B C7B 1_555 1_555
F4B C8B 1_555 1_555
F5B C9B 1_555 1_555
F6B C10B 1_555 1_555
F7B C14B 1_555 1_555
F8B C16B 1_555 1_555
C1B C24 1_555 1_555
C2B C1B 1_555 1_555
H1B C2B 1_555 1_555
C3B C2B 1_555 1_555
C4B C23 1_555 1_555
C5B C4B 1_555 1_555
C6B C5B 1_555 1_555
C7B C6B 1_555 1_555
C8B C7B 1_555 1_555
C9B C8B 1_555 1_555
C10B C9B 1_555 1_555
C11B C6B 1_555 1_555
C12B C11B 1_555 1_555
C13B C12B 1_555 1_555
C14B C13B 1_555 1_555
C15B C14B 1_555 1_555
H2B C15B 1_555 1_555
C16B C15B 1_555 1_555
C17B C16B 1_555 1_555
H3B C17B 1_555 1_555
C18B C13B 1_555 1_555
C19B C18B 1_555 1_555
C20B C22 1_555 1_555
C21B C12B 1_555 1_555
C22B C20 1_555 1_555
C23B C4 1_555 1_555
C24B C1 1_555 1_555
H4B C24B 1_555 1_555
C10 C11 1_555 1_555
C17 C18 1_555 1_555
C20 C21 1_555 1_555
C21 C22 1_555 1_555
C3B C4B 1_555 1_555
C5B C22B 1_555 1_555
C10B C11B 1_555 1_555
C17B C18B 1_555 1_555
C19B C20B 1_555 1_555
C19B C23B 1_555 1_555
C20B C21B 1_555 1_555
C21B C22B 1_555 1_555
C23B C24B 1_555 1_555

#END
