
#######################################################################
#
#                 Cambridge Crystallographic Data Centre
#                                CCDC 
#
#######################################################################
#
# If this CIF has been generated from an entry in the Cambridge 
# Structural Database, then it will include bibliographic, chemical, 
# crystal, experimental, refinement or atomic coordinate data resulting 
# from the CCDC's data processing and validation procedures.
#
#######################################################################

data_APULII
_chemical_compound_source        'dried roots of Cynanchum stauntonii'
_chemical_name_common            'Hirundigoside E methanol solvate'
_chemical_formula_moiety         'C28 H42 O9,C1 H4 O1'
_chemical_name_systematic        
'2-((5a-hydroxy-2a,11a-dimethyl-2a,4,4a,5b,6,8,9,10,11,11a,11b,12,13,13b-tetradecahydro-5aH-2,3,5-trioxacyclopenta[3,4]pentaleno[1,6a-a]phenanthren-9-yl)oxy)-4-methoxy-6-methyltetrahydro-2H-pyran-3,5-diol methanol solvate'
_symmetry_cell_setting           monoclinic
_symmetry_space_group_name_H-M   'P 21'
_symmetry_Int_Tables_number      4
_space_group_name_Hall           'P 2yb'
loop_
_symmetry_equiv_pos_site_id
_symmetry_equiv_pos_as_xyz
1 x,y,z
2 -x,1/2+y,-z
_cell_length_a                   8.6095(14)
_cell_length_b                   7.8910(8)
_cell_length_c                   21.093(3)
_cell_angle_alpha                90
_cell_angle_beta                 99.705(13)
_cell_angle_gamma                90
_cell_volume                     1412.5
_exptl_crystal_colour            colorless
_exptl_crystal_description       plates
_cell_formula_units_Z            2
loop_
_atom_site_label
_atom_site_type_symbol
_atom_site_fract_x
_atom_site_fract_y
_atom_site_fract_z
O1 O 0.2947(4) 1.0881(4) 0.13715(14)
O2 O 0.9360(5) 0.4434(5) 0.3980(2)
H1 H 1.0163 0.3904 0.4121
O3 O 1.0371(4) 0.5377(5) 0.30893(17)
O4 O 1.2547(6) 0.3337(6) 0.4110(3)
O5 O 1.2278(6) 0.5268(9) 0.4883(2)
C1 C 0.6931(6) 1.0839(6) 0.2460(2)
H2 H 0.7548 1.1724 0.2703
H3 H 0.7544 1.0403 0.2149
C2 C 0.5438(6) 1.1621(6) 0.2097(2)
H4 H 0.5703 1.2452 0.1794
H5 H 0.4879 1.2197 0.2397
C3 C 0.4388(5) 1.0262(6) 0.1739(2)
H6 H 0.4982 0.9686 0.1445
C4 C 0.3978(6) 0.8968(7) 0.2215(2)
H7 H 0.3321 0.8090 0.1986
H8 H 0.3386 0.9512 0.2510
C5 C 0.5465(6) 0.8171(6) 0.2592(2)
C6 C 0.5654(7) 0.6524(7) 0.2606(2)
H9 H 0.4842 0.5878 0.2378
C7 C 0.7055(7) 0.5579(7) 0.2953(3)
H10 H 0.7645 0.5103 0.2643
H11 H 0.6698 0.4651 0.3194
C8 C 0.8132(6) 0.6739(6) 0.3414(2)
H12 H 0.7640 0.6896 0.3797
C9 C 0.8302(6) 0.8487(6) 0.3125(3)
H13 H 0.8746 0.8322 0.2731
C10 C 0.6684(6) 0.9382(6) 0.2930(2)
C11 C 0.9476(9) 0.9532(8) 0.3580(4)
H14 H 0.9211 1.0598 0.3718
C12 C 1.0958(11) 0.8848(8) 0.3785(5)
H15 H 1.1490 0.9545 0.4134
H16 H 1.1550 0.8940 0.3434
C13 C 1.1050(8) 0.6977(7) 0.4018(3)
C14 C 0.9760(7) 0.5883(6) 0.3637(2)
C15 C 1.2590(10) 0.3445(10) 0.3443(4)
H17 H 1.1892 0.2612 0.3207
H18 H 1.3650 0.3255 0.3360
C16 C 1.2046(8) 0.5220(10) 0.3251(3)
H19 H 1.2563 0.5644 0.2903
C17 C 1.2571(8) 0.6216(8) 0.3868(3)
H20 H 1.3369 0.7074 0.3825
C18 C 1.1246(9) 0.6709(12) 0.4740(3)
H21 H 1.1706 0.7705 0.4967
H22 H 1.0234 0.6487 0.4867
C19 C 0.6096(8) 1.0122(8) 0.3520(3)
H23 H 0.5035 1.0522 0.3397
H24 H 0.6763 1.1048 0.3690
H25 H 0.6122 0.9260 0.3843
C20 C 1.3112(8) 0.4965(9) 0.4397(3)
C21 C 1.4859(9) 0.4878(12) 0.4659(4)
H26 H 1.5190 0.5916 0.4877
H27 H 1.5431 0.4714 0.4310
H28 H 1.5062 0.3947 0.4954
O6 O 0.3318(4) 1.3556(4) 0.10105(15)
O7 O 0.1599(5) 0.9899(4) 0.00978(16)
H29 H 0.1325 0.9304 0.0378
O8 O 0.0414(4) 1.2721(5) -0.06827(15)
O9 O 0.3031(5) 1.5234(5) -0.06132(17)
H30 H 0.2663 1.6188 -0.0681
C22 C 0.3168(6) 1.1821(6) 0.0835(2)
H31 H 0.4119 1.1435 0.0680
C23 C 0.1733(6) 1.1603(6) 0.0310(2)
H32 H 0.0779 1.1930 0.0477
C24 C 0.1913(6) 1.2712(7) -0.0260(2)
H33 H 0.2688 1.2182 -0.0488
C25 C 0.2452(6) 1.4502(7) -0.0084(2)
H34 H 0.1552 1.5167 0.0005
C26 C 0.3756(6) 1.4565(6) 0.0502(2)
H35 H 0.4728 1.4110 0.0385
C27 C 0.4060(8) 1.6343(7) 0.0762(3)
H36 H 0.3137 1.6759 0.0911
H37 H 0.4305 1.7070 0.0428
H38 H 0.4930 1.6330 0.1113
C28 C 0.0443(9) 1.2850(11) -0.1353(3)
H39 H 0.0480 1.4022 -0.1471
H40 H -0.0489 1.2337 -0.1590
H41 H 0.1357 1.2277 -0.1452
O10 O 0.1816(8) 0.8232(7) 0.8979(2)
H42 H 0.1580 0.8701 0.9296
C29 C 0.0280(19) 0.8298(15) 0.8375(7)
H43 H -0.0640 0.8671 0.8536
H44 H 0.0097 0.7188 0.8191
H45 H 0.0504 0.9074 0.8051
loop_
_geom_bond_atom_site_label_1
_geom_bond_atom_site_label_2
_geom_bond_site_symmetry_1
_geom_bond_site_symmetry_2
O1 C3 1_555 1_555
O2 H1 1_555 1_555
O3 C14 1_555 1_555
O4 C15 1_555 1_555
O5 C18 1_555 1_555
C1 H2 1_555 1_555
H3 C1 1_555 1_555
C2 C1 1_555 1_555
H4 C2 1_555 1_555
H5 C2 1_555 1_555
C3 C2 1_555 1_555
H6 C3 1_555 1_555
C4 C3 1_555 1_555
H7 C4 1_555 1_555
H8 C4 1_555 1_555
C5 C4 1_555 1_555
C6 C5 1_555 1_555
H9 C6 1_555 1_555
C7 C6 1_555 1_555
H10 C7 1_555 1_555
H11 C7 1_555 1_555
C8 C7 1_555 1_555
H12 C8 1_555 1_555
C9 C8 1_555 1_555
H13 C9 1_555 1_555
C10 C1 1_555 1_555
C11 C9 1_555 1_555
H14 C11 1_555 1_555
C12 C11 1_555 1_555
H15 C12 1_555 1_555
H16 C12 1_555 1_555
C13 C12 1_555 1_555
C14 O2 1_555 1_555
C15 H17 1_555 1_555
H18 C15 1_555 1_555
C16 O3 1_555 1_555
H19 C16 1_555 1_555
C17 C13 1_555 1_555
H20 C17 1_555 1_555
C18 C13 1_555 1_555
H21 C18 1_555 1_555
H22 C18 1_555 1_555
C19 C10 1_555 1_555
H23 C19 1_555 1_555
H24 C19 1_555 1_555
H25 C19 1_555 1_555
C20 O4 1_555 1_555
C21 C20 1_555 1_555
H26 C21 1_555 1_555
H27 C21 1_555 1_555
H28 C21 1_555 1_555
O6 C22 1_555 1_555
O7 H29 1_555 1_555
O8 C24 1_555 1_555
O9 H30 1_555 1_555
C22 O1 1_555 1_555
H31 C22 1_555 1_555
C23 O7 1_555 1_555
H32 C23 1_555 1_555
C24 C23 1_555 1_555
H33 C24 1_555 1_555
C25 O9 1_555 1_555
H34 C25 1_555 1_555
C26 O6 1_555 1_555
H35 C26 1_555 1_555
C27 C26 1_555 1_555
H36 C27 1_555 1_555
H37 C27 1_555 1_555
H38 C27 1_555 1_555
C28 O8 1_555 1_555
H39 C28 1_555 1_555
H40 C28 1_555 1_555
H41 C28 1_555 1_555
O10 H42 1_555 1_555
C29 O10 1_555 1_555
H43 C29 1_555 1_555
H44 C29 1_555 1_555
H45 C29 1_555 1_555
O5 C20 1_555 1_555
C5 C10 1_555 1_555
C8 C14 1_555 1_555
C9 C10 1_555 1_555
C13 C14 1_555 1_555
C15 C16 1_555 1_555
C16 C17 1_555 1_555
C17 C20 1_555 1_555
C22 C23 1_555 1_555
C24 C25 1_555 1_555
C25 C26 1_555 1_555

#END
