
#######################################################################
#
#                 Cambridge Crystallographic Data Centre
#                                CCDC 
#
#######################################################################
#
# If this CIF has been generated from an entry in the Cambridge 
# Structural Database, then it will include bibliographic, chemical, 
# crystal, experimental, refinement or atomic coordinate data resulting 
# from the CCDC's data processing and validation procedures.
#
#######################################################################

data_APUTAG
_chemical_formula_moiety         'C28 H32 N4 P4'
_chemical_name_systematic        
2,cis-4,cis-6,cis-8-Tetramethyl-2,4,6,8-tetraphenylcyclotetraphosphazene
_symmetry_cell_setting           orthorhombic
_symmetry_space_group_name_H-M   'P b c n'
_symmetry_Int_Tables_number      60
_space_group_name_Hall           '-P 2n 2ab'
loop_
_symmetry_equiv_pos_site_id
_symmetry_equiv_pos_as_xyz
1 x,y,z
2 1/2+x,1/2+y,1/2-z
3 x,-y,1/2+z
4 1/2-x,1/2+y,z
5 -x,-y,-z
6 1/2-x,1/2-y,1/2+z
7 -x,y,1/2-z
8 1/2+x,1/2-y,-z
_cell_length_a                   20.7790(10)
_cell_length_b                   8.2761(5)
_cell_length_c                   16.4341(9)
_cell_angle_alpha                90
_cell_angle_beta                 90
_cell_angle_gamma                90
_cell_volume                     2826.16
_exptl_crystal_colour            colorless
_exptl_crystal_description       plates
_chemical_melting_point          '204.1 deg.C'
_cell_formula_units_Z            4
_exptl_crystal_recrystallization_method 'ethyl acetate'
loop_
_atom_site_label
_atom_site_type_symbol
_atom_site_fract_x
_atom_site_fract_y
_atom_site_fract_z
P1 P 0.08255(2) 0.13316(6) 0.31187(3)
P2 P -0.05142(2) 0.06825(6) 0.35575(3)
N1 N 0.01649(8) 0.1565(2) 0.35918(10)
N2 N 0.08381(8) 0.0272(2) 0.23039(10)
C1 C 0.14010(12) 0.0403(3) 0.37920(14)
H1 H 0.1813 0.0351 0.3528
H2 H 0.1260 -0.0669 0.3926
H3 H 0.1437 0.1033 0.4281
C2 C -0.04998(12) -0.1212(3) 0.40945(15)
H4 H -0.0921 -0.1687 0.4085
H5 H -0.0372 -0.1031 0.4648
H6 H -0.0199 -0.1929 0.3837
C3 C 0.11301(10) 0.3346(2) 0.29211(12)
C4 C 0.17555(11) 0.3559(3) 0.26287(16)
H7 H 0.2029 0.2672 0.2587
C5 C 0.19724(13) 0.5061(3) 0.24022(18)
H8 H 0.2391 0.5183 0.2211
C6 C 0.15774(14) 0.6377(3) 0.24554(18)
H9 H 0.1725 0.7389 0.2296
C7 C 0.09590(13) 0.6200(3) 0.27459(17)
H10 H 0.0690 0.7094 0.2785
C8 C 0.07401(11) 0.4698(3) 0.29783(14)
H11 H 0.0323 0.4591 0.3177
C9 C -0.10411(10) 0.1966(3) 0.41557(12)
C10 C -0.08189(13) 0.3357(3) 0.45286(15)
H12 H -0.0389 0.3650 0.4473
C11 C -0.12297(17) 0.4320(4) 0.49845(18)
H13 H -0.1073 0.5251 0.5233
C12 C -0.18646(18) 0.3908(5) 0.5071(2)
H14 H -0.2138 0.4553 0.5380
C13 C -0.20972(14) 0.2544(5) 0.46991(19)
H15 H -0.2529 0.2272 0.4753
C14 C -0.16912(11) 0.1566(3) 0.42433(16)
H16 H -0.1852 0.0641 0.3995
N2F N -0.08381(8) 0.0272(2) 0.26961(10)
P1F P -0.08255(2) 0.13316(6) 0.18813(3)
N1F N -0.01649(8) 0.1565(2) 0.14082(10)
P2F P 0.05142(2) 0.06825(6) 0.14425(3)
C2F C 0.04998(12) -0.1212(3) 0.09055(15)
H4F H 0.0921 -0.1687 0.0915
H5F H 0.0372 -0.1031 0.0352
H6F H 0.0199 -0.1929 0.1163
C9F C 0.10411(10) 0.1966(3) 0.08443(12)
C10F C 0.08189(13) 0.3357(3) 0.04714(15)
H12F H 0.0389 0.3650 0.0527
C11F C 0.12297(17) 0.4320(4) 0.00155(18)
H13F H 0.1073 0.5251 -0.0233
C12F C 0.18646(18) 0.3908(5) -0.0071(2)
H14F H 0.2138 0.4553 -0.0380
C13F C 0.20972(14) 0.2544(5) 0.03009(19)
H15F H 0.2529 0.2272 0.0247
C14F C 0.16912(11) 0.1566(3) 0.07567(16)
H16F H 0.1852 0.0641 0.1005
C1F C -0.14010(12) 0.0403(3) 0.12080(14)
H1F H -0.1813 0.0351 0.1472
H2F H -0.1260 -0.0669 0.1074
H3F H -0.1437 0.1033 0.0719
C3F C -0.11301(10) 0.3346(2) 0.20789(12)
C4F C -0.17555(11) 0.3559(3) 0.23713(16)
H7F H -0.2029 0.2672 0.2413
C5F C -0.19724(13) 0.5061(3) 0.25978(18)
H8F H -0.2391 0.5183 0.2789
C6F C -0.15774(14) 0.6377(3) 0.25446(18)
H9F H -0.1725 0.7389 0.2704
C7F C -0.09590(13) 0.6200(3) 0.22541(17)
H10F H -0.0690 0.7094 0.2215
C8F C -0.07401(11) 0.4698(3) 0.20217(14)
H11F H -0.0323 0.4591 0.1823
loop_
_geom_bond_atom_site_label_1
_geom_bond_atom_site_label_2
_geom_bond_site_symmetry_1
_geom_bond_site_symmetry_2
P1 N1 1_555 1_555
P2 N1 1_555 1_555
N2 P1 1_555 1_555
C1 P1 1_555 1_555
H1 C1 1_555 1_555
H2 C1 1_555 1_555
H3 C1 1_555 1_555
C2 P2 1_555 1_555
H4 C2 1_555 1_555
H5 C2 1_555 1_555
H6 C2 1_555 1_555
C3 P1 1_555 1_555
C4 C3 1_555 1_555
H7 C4 1_555 1_555
C5 C4 1_555 1_555
H8 C5 1_555 1_555
C6 C5 1_555 1_555
H9 C6 1_555 1_555
C7 C6 1_555 1_555
H10 C7 1_555 1_555
C8 C3 1_555 1_555
H11 C8 1_555 1_555
C9 P2 1_555 1_555
C10 C9 1_555 1_555
H12 C10 1_555 1_555
C11 C10 1_555 1_555
H13 C11 1_555 1_555
C12 C11 1_555 1_555
H14 C12 1_555 1_555
C13 C12 1_555 1_555
H15 C13 1_555 1_555
C14 C9 1_555 1_555
H16 C14 1_555 1_555
N2F P2 1_555 1_555
P1F N2F 1_555 1_555
N1F P1F 1_555 1_555
P2F N2 1_555 1_555
C2F P2F 1_555 1_555
H4F C2F 1_555 1_555
H5F C2F 1_555 1_555
H6F C2F 1_555 1_555
C9F P2F 1_555 1_555
C10F C9F 1_555 1_555
H12F C10F 1_555 1_555
C11F C10F 1_555 1_555
H13F C11F 1_555 1_555
C12F C11F 1_555 1_555
H14F C12F 1_555 1_555
C13F C12F 1_555 1_555
H15F C13F 1_555 1_555
C14F C9F 1_555 1_555
H16F C14F 1_555 1_555
C1F P1F 1_555 1_555
H1F C1F 1_555 1_555
H2F C1F 1_555 1_555
H3F C1F 1_555 1_555
C3F P1F 1_555 1_555
C4F C3F 1_555 1_555
H7F C4F 1_555 1_555
C5F C4F 1_555 1_555
H8F C5F 1_555 1_555
C6F C5F 1_555 1_555
H9F C6F 1_555 1_555
C7F C6F 1_555 1_555
H10F C7F 1_555 1_555
C8F C3F 1_555 1_555
H11F C8F 1_555 1_555
C7 C8 1_555 1_555
C13 C14 1_555 1_555
N1F P2F 1_555 1_555
C13F C14F 1_555 1_555
C7F C8F 1_555 1_555

#END
