
#######################################################################
#
#                 Cambridge Crystallographic Data Centre
#                                CCDC 
#
#######################################################################
#
# If this CIF has been generated from an entry in the Cambridge 
# Structural Database, then it will include bibliographic, chemical, 
# crystal, experimental, refinement or atomic coordinate data resulting 
# from the CCDC's data processing and validation procedures.
#
#######################################################################

data_AQEBEF
_chemical_formula_moiety         'C24 H23 F3 O3'
_chemical_name_systematic        
'methyl 5-(4-t-butylbenzyl)-4-phenyl-2-(trifluoromethyl)-3-furoate'
_symmetry_cell_setting           triclinic
_symmetry_space_group_name_H-M   'P -1'
_symmetry_Int_Tables_number      2
_space_group_name_Hall           '-P 1'
loop_
_symmetry_equiv_pos_site_id
_symmetry_equiv_pos_as_xyz
1 x,y,z
2 -x,-y,-z
_cell_length_a                   8.6054(15)
_cell_length_b                   10.8438(19)
_cell_length_c                   12.533(2)
_cell_angle_alpha                109.706(3)
_cell_angle_beta                 96.255(4)
_cell_angle_gamma                91.632(4)
_cell_volume                     1091.81
_exptl_crystal_colour            colorless
_exptl_crystal_description       prismatic
_chemical_melting_point          '303 K'
_cell_formula_units_Z            2
loop_
_atom_site_label
_atom_site_type_symbol
_atom_site_fract_x
_atom_site_fract_y
_atom_site_fract_z
O1 O 0.4856(2) 0.51218(18) 0.18240(16)
C1 C 0.3649(3) 0.5863(3) 0.2198(2)
C2 C 0.3982(3) 0.6607(2) 0.3309(2)
C3 C 0.5524(3) 0.6308(2) 0.3678(2)
C4 C 0.5991(3) 0.5401(2) 0.2741(2)
C5 C 0.7463(3) 0.4737(3) 0.2508(3)
H1 H 0.8225 0.5089 0.3184
H2 H 0.7874 0.4954 0.1897
C6 C 0.7310(3) 0.3248(3) 0.2174(2)
C7 C 0.8112(3) 0.2477(3) 0.1347(2)
H3 H 0.8727 0.2869 0.0968
C8 C 0.8036(4) 0.1125(3) 0.1056(3)
H4 H 0.8595 0.0631 0.0483
C9 C 0.7144(3) 0.0490(3) 0.1598(2)
C10 C 0.6323(4) 0.1273(3) 0.2417(3)
H5 H 0.5705 0.0885 0.2797
C11 C 0.6385(4) 0.2626(3) 0.2697(3)
H6 H 0.5792 0.3121 0.3246
C12 C 0.6422(3) 0.6856(3) 0.4829(2)
C13 C 0.6672(4) 0.8208(3) 0.5376(3)
H7 H 0.6257 0.8774 0.5020
C14 C 0.7527(4) 0.8713(4) 0.6442(3)
H8 H 0.7683 0.9617 0.6806
C15 C 0.8150(5) 0.7882(5) 0.6965(3)
H9 H 0.8732 0.8227 0.7683
C16 C 0.7922(5) 0.6536(4) 0.6437(3)
H10 H 0.8349 0.5977 0.6795
C17 C 0.7060(4) 0.6033(3) 0.5378(3)
H11 H 0.6900 0.5128 0.5023
C18 C 0.2291(4) 0.5738(4) 0.1342(3)
C19 C 0.2961(4) 0.7547(3) 0.4019(3)
C20 C 0.7075(4) -0.1002(3) 0.1294(3)
O2 O 0.3373(10) 0.8668(10) 0.4658(8)
O3 O 0.185(2) 0.6986(18) 0.4330(12)
C21 C 0.051(5) 0.769(4) 0.476(5)
H12 H 0.0865 0.8505 0.5359
H13 H -0.0121 0.7167 0.5057
H14 H -0.0114 0.7872 0.4152
C22 C 0.5846(19) -0.1457(12) 0.1859(15)
H15 H 0.6010 -0.2339 0.1831
H16 H 0.4830 -0.1433 0.1468
H17 H 0.5909 -0.0890 0.2641
C23 C 0.6637(16) -0.1625(8) -0.0018(9)
H18 H 0.7530 -0.1539 -0.0391
H19 H 0.5791 -0.1183 -0.0261
H20 H 0.6318 -0.2538 -0.0214
C24 C 0.8653(14) -0.1387(10) 0.1554(15)
H21 H 0.8579 -0.2223 0.1658
H22 H 0.9169 -0.0740 0.2241
H23 H 0.9244 -0.1449 0.0933
F1 F 0.1113(12) 0.4924(13) 0.1373(10)
F2 F 0.2688(19) 0.5268(9) 0.0267(11)
F3 F 0.1713(8) 0.6897(6) 0.1488(6)
O4? O 0.3139(16) 0.8684(14) 0.4193(10)
O5? O 0.1591(15) 0.7020(14) 0.3956(11)
C25? C 0.073(6) 0.801(4) 0.480(5)
H24? H -0.0293 0.7640 0.4802
H25? H 0.0639 0.8782 0.4593
H26? H 0.1305 0.8245 0.5553
C26? C 0.5411(12) -0.1588(10) 0.1015(12)
H27? H 0.4929 -0.1451 0.0340
H28? H 0.4837 -0.1174 0.1642
H29? H 0.5405 -0.2512 0.0886
C27? C 0.8138(18) -0.1697(9) 0.0429(12)
H30? H 0.8181 -0.2594 0.0391
H31? H 0.9172 -0.1267 0.0653
H32? H 0.7737 -0.1671 -0.0308
C28? C 0.7789(16) -0.1296(9) 0.2382(9)
H33? H 0.7843 -0.2227 0.2197
H34? H 0.7137 -0.0972 0.2978
H35? H 0.8822 -0.0871 0.2636
F4? F 0.1204(19) 0.6517(18) 0.1706(15)
F5? F 0.149(3) 0.460(3) 0.112(2)
F6? F 0.258(4) 0.5756(19) 0.041(2)
loop_
_geom_bond_atom_site_label_1
_geom_bond_atom_site_label_2
_geom_bond_site_symmetry_1
_geom_bond_site_symmetry_2
O1 C1 1_555 1_555
C1 C2 1_555 1_555
C2 C3 1_555 1_555
C3 C4 1_555 1_555
C4 O1 1_555 1_555
C5 C4 1_555 1_555
H1 C5 1_555 1_555
H2 C5 1_555 1_555
C6 C5 1_555 1_555
C7 C6 1_555 1_555
H3 C7 1_555 1_555
C8 C7 1_555 1_555
H4 C8 1_555 1_555
C9 C8 1_555 1_555
C10 C9 1_555 1_555
H5 C10 1_555 1_555
C11 C6 1_555 1_555
H6 C11 1_555 1_555
C12 C3 1_555 1_555
C13 C12 1_555 1_555
H7 C13 1_555 1_555
C14 C13 1_555 1_555
H8 C14 1_555 1_555
C15 C14 1_555 1_555
H9 C15 1_555 1_555
C16 C15 1_555 1_555
H10 C16 1_555 1_555
C17 C12 1_555 1_555
H11 C17 1_555 1_555
C18 C1 1_555 1_555
C19 C2 1_555 1_555
C20 C9 1_555 1_555
O2 C19 1_555 1_555
O3 C19 1_555 1_555
C21 O3 1_555 1_555
H12 C21 1_555 1_555
H13 C21 1_555 1_555
H14 C21 1_555 1_555
C22 C20 1_555 1_555
H15 C22 1_555 1_555
H16 C22 1_555 1_555
H17 C22 1_555 1_555
C23 C20 1_555 1_555
H18 C23 1_555 1_555
H19 C23 1_555 1_555
H20 C23 1_555 1_555
C24 C20 1_555 1_555
H21 C24 1_555 1_555
H22 C24 1_555 1_555
H23 C24 1_555 1_555
F1 C18 1_555 1_555
F2 C18 1_555 1_555
F3 C18 1_555 1_555
C10 C11 1_555 1_555
C16 C17 1_555 1_555

#END
