
#######################################################################
#
#                 Cambridge Crystallographic Data Centre
#                                CCDC 
#
#######################################################################
#
# If this CIF has been generated from an entry in the Cambridge 
# Structural Database, then it will include bibliographic, chemical, 
# crystal, experimental, refinement or atomic coordinate data resulting 
# from the CCDC's data processing and validation procedures.
#
#######################################################################

data_AQEJAJ
_chemical_formula_moiety         'C14 H19 B1 Br2 O2'
_chemical_name_systematic        
2-(2,6-bis(bromomethyl)phenyl)-4,4,5,5-tetramethyl-1,3,2-dioxaborolane
_symmetry_cell_setting           monoclinic
_symmetry_space_group_name_H-M   'C 2/c'
_symmetry_Int_Tables_number      15
_space_group_name_Hall           '-C 2yn'
loop_
_symmetry_equiv_pos_site_id
_symmetry_equiv_pos_as_xyz
1 x,y,z
2 -x,y,1/2-z
3 1/2+x,1/2+y,z
4 1/2-x,1/2+y,1/2-z
5 -x,-y,-z
6 x,-y,1/2+z
7 1/2-x,1/2-y,-z
8 1/2+x,1/2-y,1/2+z
_cell_length_a                   10.9950(5)
_cell_length_b                   15.2779(7)
_cell_length_c                   9.2804(4)
_cell_angle_alpha                90
_cell_angle_beta                 94.845(4)
_cell_angle_gamma                90
_cell_volume                     1553.36
_exptl_crystal_colour            colorless
_exptl_crystal_description       block
_cell_formula_units_Z            4
loop_
_atom_site_label
_atom_site_type_symbol
_atom_site_fract_x
_atom_site_fract_y
_atom_site_fract_z
Br1 Br 0.816997(16) 0.072748(13) 0.21963(2)
O1 O 0.49649(12) 0.19469(8) 0.12679(14)
C1 C 0.5000 0.04276(18) 0.2500
C2 C 0.58116(16) -0.00499(13) 0.17032(19)
C3 C 0.57973(18) -0.09627(13) 0.1702(2)
H1 H 0.6341 -0.1275 0.1146
C4 C 0.5000 -0.14168(19) 0.2500
H2 H 0.5000 -0.2039 0.2500
C5 C 0.67354(17) 0.04019(14) 0.0869(2)
H3 H 0.6371 0.0934 0.0401
H4 H 0.6992 0.0008 0.0103
C6 C 0.51762(17) 0.28595(12) 0.1701(2)
C7 C 0.65237(17) 0.30437(13) 0.1565(2)
H5 H 0.7021 0.2664 0.2230
H6 H 0.6701 0.3658 0.1806
H7 H 0.6716 0.2928 0.0570
C8 C 0.43918(19) 0.34358(14) 0.0665(2)
H8 H 0.4673 0.3388 -0.0306
H9 H 0.4457 0.4046 0.0991
H10 H 0.3539 0.3246 0.0642
B1 B 0.5000 0.1459(2) 0.2500
Br1A Br 0.183003(16) 0.072748(13) 0.28037(2)
O1A O 0.50351(12) 0.19469(8) 0.37321(14)
C2A C 0.41884(16) -0.00499(13) 0.32968(19)
C3A C 0.42027(18) -0.09627(13) 0.3298(2)
H1A H 0.3659 -0.1275 0.3854
C5A C 0.32646(17) 0.04019(14) 0.4131(2)
H3A H 0.3629 0.0934 0.4599
H4A H 0.3008 0.0008 0.4897
C6A C 0.48238(17) 0.28595(12) 0.3299(2)
C7A C 0.34763(17) 0.30437(13) 0.3435(2)
H5A H 0.2979 0.2664 0.2770
H6A H 0.3299 0.3658 0.3194
H7A H 0.3284 0.2928 0.4430
C8A C 0.56082(19) 0.34358(14) 0.4335(2)
H8A H 0.5327 0.3388 0.5306
H9A H 0.5543 0.4046 0.4009
H10A H 0.6461 0.3246 0.4358
loop_
_geom_bond_atom_site_label_1
_geom_bond_atom_site_label_2
_geom_bond_site_symmetry_1
_geom_bond_site_symmetry_2
Br1 C5 1_555 1_555
O1 C6 1_555 1_555
C1 C2 1_555 1_555
C2 C3 1_555 1_555
C3 H1 1_555 1_555
C4 C3 1_555 1_555
H2 C4 1_555 1_555
C5 C2 1_555 1_555
H3 C5 1_555 1_555
H4 C5 1_555 1_555
C6 C7 1_555 1_555
C7 H5 1_555 1_555
H6 C7 1_555 1_555
H7 C7 1_555 1_555
C8 C6 1_555 1_555
H8 C8 1_555 1_555
H9 C8 1_555 1_555
H10 C8 1_555 1_555
B1 O1 1_555 1_555
Br1A C5A 1_555 1_555
O1A B1 1_555 1_555
C2A C1 1_555 1_555
C3A C4 1_555 1_555
H1A C3A 1_555 1_555
C5A C2A 1_555 1_555
H3A C5A 1_555 1_555
H4A C5A 1_555 1_555
C6A C6 1_555 1_555
C7A C6A 1_555 1_555
H5A C7A 1_555 1_555
H6A C7A 1_555 1_555
H7A C7A 1_555 1_555
C8A C6A 1_555 1_555
H8A C8A 1_555 1_555
H9A C8A 1_555 1_555
H10A C8A 1_555 1_555
C1 B1 1_555 1_555
O1A C6A 1_555 1_555
C2A C3A 1_555 1_555

#END
