
#######################################################################
#
#                 Cambridge Crystallographic Data Centre
#                                CCDC 
#
#######################################################################
#
# If this CIF has been generated from an entry in the Cambridge 
# Structural Database, then it will include bibliographic, chemical, 
# crystal, experimental, refinement or atomic coordinate data resulting 
# from the CCDC's data processing and validation procedures.
#
#######################################################################

data_AQEKIS
_chemical_formula_moiety         'C15 H10 Cl3 N5 O2'
_chemical_name_systematic        
3-((2-chloro-4-((2,6-dichloro-4-nitrophenyl)diazenyl)phenyl)amino)propanenitrile
_symmetry_cell_setting           triclinic
_symmetry_space_group_name_H-M   'P -1'
_symmetry_Int_Tables_number      2
_space_group_name_Hall           '-P 1'
loop_
_symmetry_equiv_pos_site_id
_symmetry_equiv_pos_as_xyz
1 x,y,z
2 -x,-y,-z
_cell_length_a                   9.118(5)
_cell_length_b                   9.282(5)
_cell_length_c                   11.745(6)
_cell_angle_alpha                69.228(6)
_cell_angle_beta                 76.456(7)
_cell_angle_gamma                66.095(7)
_cell_volume                     844.907
_exptl_crystal_colour            orange
_exptl_crystal_description       block
_cell_formula_units_Z            2
loop_
_atom_site_label
_atom_site_type_symbol
_atom_site_fract_x
_atom_site_fract_y
_atom_site_fract_z
C1 C 0.2816(5) 1.2270(5) 0.4457(3)
C2 C 0.2234(5) 1.1044(5) 0.4716(3)
H1 H 0.1306 1.1036 0.5253
C3 C 0.3060(5) 0.9797(5) 0.4157(4)
C4 C 0.4472(4) 0.9805(5) 0.3354(3)
C5 C 0.4981(5) 1.1115(5) 0.3117(3)
C6 C 0.4184(5) 1.2352(5) 0.3678(3)
H2 H 0.4558 1.3202 0.3535
C7 C 0.6269(5) 0.7190(5) 0.1445(4)
C8 C 0.7320(5) 0.5702(5) 0.2144(3)
H3 H 0.7396 0.5552 0.2957
C9 C 0.8249(5) 0.4454(5) 0.1590(3)
C10 C 0.8146(5) 0.4638(5) 0.0368(3)
C11 C 0.7042(5) 0.6128(5) -0.0270(4)
H4 H 0.6907 0.6277 -0.1070
C12 C 0.6156(5) 0.7375(5) 0.0264(4)
H5 H 0.5467 0.8361 -0.0193
C13 C 0.9127(5) 0.3521(6) -0.1407(3)
H6 H 1.0172 0.2800 -0.1666
H7 H 0.8998 0.4638 -0.1916
C14 C 0.7818(6) 0.3041(5) -0.1609(4)
H8 H 0.6776 0.3689 -0.1284
H9 H 0.7798 0.3282 -0.2480
C15 C 0.8098(5) 0.1311(6) -0.1019(4)
Cl1 Cl 0.24056(17) 0.81942(17) 0.44629(12)
Cl2 Cl 0.67245(15) 1.11409(16) 0.21601(11)
Cl3 Cl 0.96389(13) 0.26739(13) 0.24072(9)
N1 N 0.1983(5) 1.3580(5) 0.5094(3)
N2 N 0.5440(5) 0.8355(5) 0.2964(3)
N3 N 0.5323(4) 0.8558(5) 0.1897(3)
N4 N 0.9099(4) 0.3428(4) -0.0148(3)
H10 H 0.8859 0.2528 0.0311
N5 N 0.8399(5) -0.0081(5) -0.0546(4)
O1 O 0.0924(4) 1.3356(4) 0.5910(3)
O2 O 0.2423(5) 1.4743(4) 0.4770(3)
loop_
_geom_bond_atom_site_label_1
_geom_bond_atom_site_label_2
_geom_bond_site_symmetry_1
_geom_bond_site_symmetry_2
C1 C2 1_555 1_555
C2 H1 1_555 1_555
C3 C2 1_555 1_555
C4 C3 1_555 1_555
C5 C4 1_555 1_555
C6 C1 1_555 1_555
H2 C6 1_555 1_555
C7 C8 1_555 1_555
C8 H3 1_555 1_555
C9 C8 1_555 1_555
C10 C9 1_555 1_555
C11 C10 1_555 1_555
H4 C11 1_555 1_555
C12 C7 1_555 1_555
H5 C12 1_555 1_555
C13 H6 1_555 1_555
H7 C13 1_555 1_555
C14 C13 1_555 1_555
H8 C14 1_555 1_555
H9 C14 1_555 1_555
C15 C14 1_555 1_555
Cl1 C3 1_555 1_555
Cl2 C5 1_555 1_555
Cl3 C9 1_555 1_555
N1 C1 1_555 1_555
N2 C4 1_555 1_555
N3 C7 1_555 1_555
N4 C10 1_555 1_555
H10 N4 1_555 1_555
N5 C15 1_555 1_555
O1 N1 1_555 1_555
O2 N1 1_555 1_555
C5 C6 1_555 1_555
C11 C12 1_555 1_555
C13 N4 1_555 1_555
N2 N3 1_555 1_555

#END
