
#######################################################################
#
#                 Cambridge Crystallographic Data Centre
#                                CCDC 
#
#######################################################################
#
# If this CIF has been generated from an entry in the Cambridge 
# Structural Database, then it will include bibliographic, chemical, 
# crystal, experimental, refinement or atomic coordinate data resulting 
# from the CCDC's data processing and validation procedures.
#
#######################################################################

data_AQEQOE
_chemical_formula_moiety         'C20 H20 N2 O2'
_chemical_name_systematic        
7-(diethylamino)-3-((phenylimino)methyl)-2H-chromen-2-one
_symmetry_cell_setting           monoclinic
_symmetry_space_group_name_H-M   'P 21/n'
_symmetry_Int_Tables_number      14
_space_group_name_Hall           '-P 2yn'
loop_
_symmetry_equiv_pos_site_id
_symmetry_equiv_pos_as_xyz
1 x,y,z
2 1/2-x,1/2+y,1/2-z
3 -x,-y,-z
4 1/2+x,1/2-y,1/2+z
_cell_length_a                   9.7970(2)
_cell_length_b                   9.3477(2)
_cell_length_c                   19.3037(5)
_cell_angle_alpha                90
_cell_angle_beta                 103.3850(10)
_cell_angle_gamma                90
_cell_volume                     1719.8
_exptl_crystal_colour            red
_exptl_crystal_description       block
_cell_formula_units_Z            4
loop_
_atom_site_label
_atom_site_type_symbol
_atom_site_fract_x
_atom_site_fract_y
_atom_site_fract_z
C1 C -0.1943(3) -0.3950(3) 0.22659(12)
H1 H -0.2259 -0.4771 0.2453
C2 C -0.0530(3) -0.3697(2) 0.23747(11)
H2 H 0.0113 -0.4351 0.2627
C3 C -0.0063(2) -0.2449(2) 0.21039(10)
H3 H 0.0893 -0.2260 0.2179
C4 C -0.10317(18) -0.14993(18) 0.17233(8)
C5 C -0.2443(2) -0.1826(2) 0.16072(11)
H4 H -0.3107 -0.1222 0.1331
C6 C -0.2864(3) -0.3032(2) 0.18960(13)
H5 H -0.3818 -0.3216 0.1832
N1 N -0.06298(15) -0.02370(16) 0.14157(7)
C7 C 0.01468(17) 0.06499(18) 0.18226(9)
H6 H 0.0380 0.0475 0.2310
C8 C 0.06856(16) 0.19342(17) 0.15514(8)
C9 C 0.06852(17) 0.21187(17) 0.08520(8)
H7 H 0.0292 0.1411 0.0528
C10 C 0.12561(16) 0.33382(17) 0.06011(8)
C11 C 0.18237(15) 0.44107(16) 0.10918(7)
O1 O 0.18206(11) 0.42367(11) 0.18022(5)
C12 C 0.12742(16) 0.30386(17) 0.20586(8)
O2 O 0.13355(14) 0.30219(13) 0.26900(6)
C13 C 0.13107(18) 0.35813(19) -0.01085(8)
H8 H 0.0937 0.2900 -0.0451
C14 C 0.18944(18) 0.4785(2) -0.03098(8)
H9 H 0.1926 0.4902 -0.0784
C15 C 0.24577(16) 0.58689(18) 0.01913(8)
C16 C 0.23961(16) 0.56463(17) 0.09064(8)
H10 H 0.2743 0.6336 0.1249
N2 N 0.30399(17) 0.70750(16) -0.00175(8)
C17 C 0.3185(2) 0.7279(2) -0.07473(10)
H11 H 0.3239 0.8295 -0.0839
H12 H 0.2356 0.6907 -0.1074
C18 C 0.4473(2) 0.6547(3) -0.08912(13)
H13 H 0.5299 0.6922 -0.0575
H14 H 0.4522 0.6718 -0.1375
H15 H 0.4414 0.5536 -0.0814
C19 C 0.3734(2) 0.8161(2) 0.04945(11)
H16 H 0.4524 0.8556 0.0335
H17 H 0.4093 0.7712 0.0953
C20 C 0.2771(3) 0.9333(3) 0.05771(14)
H18 H 0.2422 0.9790 0.0125
H19 H 0.3265 1.0020 0.0913
H20 H 0.1999 0.8951 0.0747
loop_
_geom_bond_atom_site_label_1
_geom_bond_atom_site_label_2
_geom_bond_site_symmetry_1
_geom_bond_site_symmetry_2
C1 H1 1_555 1_555
C2 C1 1_555 1_555
H2 C2 1_555 1_555
C3 C2 1_555 1_555
H3 C3 1_555 1_555
C4 C3 1_555 1_555
C5 C4 1_555 1_555
H4 C5 1_555 1_555
C6 C1 1_555 1_555
H5 C6 1_555 1_555
N1 C4 1_555 1_555
C7 N1 1_555 1_555
H6 C7 1_555 1_555
C8 C7 1_555 1_555
C9 C8 1_555 1_555
H7 C9 1_555 1_555
C10 C9 1_555 1_555
C11 C10 1_555 1_555
O1 C11 1_555 1_555
C12 C8 1_555 1_555
O2 C12 1_555 1_555
C13 C10 1_555 1_555
H8 C13 1_555 1_555
C14 C13 1_555 1_555
H9 C14 1_555 1_555
C15 C14 1_555 1_555
C16 C11 1_555 1_555
H10 C16 1_555 1_555
N2 C15 1_555 1_555
C17 N2 1_555 1_555
H11 C17 1_555 1_555
H12 C17 1_555 1_555
C18 C17 1_555 1_555
H13 C18 1_555 1_555
H14 C18 1_555 1_555
H15 C18 1_555 1_555
C19 N2 1_555 1_555
H16 C19 1_555 1_555
H17 C19 1_555 1_555
C20 C19 1_555 1_555
H18 C20 1_555 1_555
H19 C20 1_555 1_555
H20 C20 1_555 1_555
C5 C6 1_555 1_555
O1 C12 1_555 1_555
C15 C16 1_555 1_555

#END
