
#######################################################################
#
#                 Cambridge Crystallographic Data Centre
#                                CCDC 
#
#######################################################################
#
# If this CIF has been generated from an entry in the Cambridge 
# Structural Database, then it will include bibliographic, chemical, 
# crystal, experimental, refinement or atomic coordinate data resulting 
# from the CCDC's data processing and validation procedures.
#
#######################################################################

data_AQEWEY
_chemical_formula_moiety         'C23 H24 N2 O1'
_chemical_name_systematic        
(S)-2-(diphenyl(hydroxy)methyl)-1-(2-pyridylmethyl)pyrrolidine
_symmetry_cell_setting           monoclinic
_symmetry_space_group_name_H-M   'P 21'
_symmetry_Int_Tables_number      4
_space_group_name_Hall           'P 2yb'
loop_
_symmetry_equiv_pos_site_id
_symmetry_equiv_pos_as_xyz
1 x,y,z
2 -x,1/2+y,-z
_cell_length_a                   10.855(2)
_cell_length_b                   7.9683(16)
_cell_length_c                   22.637(5)
_cell_angle_alpha                90
_cell_angle_beta                 102.78(3)
_cell_angle_gamma                90
_cell_volume                     1909.5
_exptl_crystal_colour            colorless
_exptl_crystal_description       block
_chemical_melting_point          '111-113 deg.C'
_cell_formula_units_Z            4
_exptl_crystal_recrystallization_method 'ethyl acetate/petroleum ether'
loop_
_atom_site_label
_atom_site_type_symbol
_atom_site_fract_x
_atom_site_fract_y
_atom_site_fract_z
O1 O 1.2847(3) 0.2933(5) 0.31794(11)
N1 N 1.1727(2) 0.5844(5) 0.34197(13)
N2 N 0.9061(3) 0.7746(5) 0.31751(15)
C1 C 1.3187(3) 0.3510(5) 0.37941(14)
C2 C 1.4550(3) 0.2993(6) 0.40342(15)
C3 C 1.5052(4) 0.1638(7) 0.37896(19)
H1 H 1.463(3) 0.113(3) 0.3525(16)
C4 C 1.6301(5) 0.1162(9) 0.4013(2)
H2 H 1.660(2) 0.036(6) 0.3863(11)
C5 C 1.7039(5) 0.2047(10) 0.4487(3)
H3 H 1.786(5) 0.175(2) 0.4628(9)
C6 C 1.6545(4) 0.3351(8) 0.4743(2)
H4 H 1.719(3) 0.407(3) 0.5171(18)
C7 C 1.5323(3) 0.3854(7) 0.45225(17)
H5 H 1.4911(15) 0.503(4) 0.4745(8)
C8 C 1.2334(3) 0.2674(5) 0.41635(14)
C9 C 1.2528(4) 0.2978(6) 0.47919(16)
H6 H 1.329(3) 0.373(3) 0.5008(9)
C10 C 1.1735(4) 0.2300(7) 0.5119(2)
H7 H 1.1869(7) 0.2514(12) 0.5507(17)
C11 C 1.0747(4) 0.1305(7) 0.4863(2)
H8 H 1.016(3) 0.082(2) 0.5115(13)
C12 C 1.0563(3) 0.0969(6) 0.4249(2)
H9 H 0.996(3) 0.035(3) 0.4084(9)
C13 C 1.1341(3) 0.1638(6) 0.3903(2)
H10 H 1.1172(7) 0.1349(12) 0.3424(17)
C14 C 1.3014(3) 0.5449(5) 0.37743(17)
H11 H 1.3122(5) 0.5905(17) 0.4207(15)
C15 C 1.3922(4) 0.6357(7) 0.34532(19)
H12 H 1.4498(19) 0.704(2) 0.3732(9)
H13 H 1.4395(16) 0.557(2) 0.3275(6)
C16 C 1.3134(5) 0.7369(11) 0.2995(3)
H14 H 1.3302(12) 0.830(7) 0.3058(5)
H15 H 1.3269(10) 0.715(2) 0.268(2)
C17 C 1.1859(4) 0.7134(9) 0.2975(2)
H16 H 1.1484(18) 0.6827(17) 0.2625(16)
H17 H 1.1534(16) 0.804(4) 0.3056(4)
C18 C 1.0877(3) 0.6374(6) 0.38044(17)
H18 H 1.1097(7) 0.747(3) 0.3947(5)
H19 H 1.0988(4) 0.566(2) 0.4144(11)
C19 C 0.9498(3) 0.6352(6) 0.34764(15)
C20 C 0.8751(4) 0.4965(7) 0.35008(18)
H20 H 0.9153(19) 0.385(5) 0.3740(11)
C21 C 0.7491(4) 0.5009(8) 0.3219(2)
H21 H 0.694(3) 0.407(5) 0.3244(3)
C22 C 0.7043(4) 0.6415(9) 0.29039(19)
H22 H 0.624(4) 0.6466(9) 0.2701(11)
C23 C 0.7829(4) 0.7748(8) 0.2899(2)
H23 H 0.7521(19) 0.863(6) 0.2711(12)
H47 H 1.219(4) 0.339(6) 0.3056(18)
O2 O 0.4455(2) 0.5656(4) 0.17972(11)
N3 N 0.3192(2) 0.2737(4) 0.15530(12)
N4 N 0.0679(3) 0.0888(5) 0.17691(16)
C24 C 0.4278(3) 0.5122(5) 0.11847(15)
C25 C 0.5419(3) 0.5678(6) 0.09593(17)
C26 C 0.6133(4) 0.7007(7) 0.1216(2)
H24 H 0.5885(13) 0.763(3) 0.1543(16)
C27 C 0.7204(5) 0.7498(10) 0.1022(3)
H25 H 0.761(4) 0.826(7) 0.1180(15)
C28 C 0.7549(6) 0.6659(11) 0.0560(4)
H26 H 0.826(5) 0.699(3) 0.0431(10)
C29 C 0.6853(5) 0.5344(10) 0.0288(3)
H27 H 0.7077(17) 0.482(4) -0.001(2)
C30 C 0.5788(4) 0.4833(7) 0.0480(2)
H28 H 0.528(2) 0.387(5) 0.0280(10)
C31 C 0.3081(3) 0.5971(5) 0.07994(15)
C32 C 0.2335(3) 0.7006(5) 0.10588(19)
H29 H 0.2573(10) 0.7251(11) 0.1481(16)
C33 C 0.1246(4) 0.7691(6) 0.0714(2)
H30 H 0.077(2) 0.834(3) 0.0886(9)
C34 C 0.0889(4) 0.7368(7) 0.0098(2)
H31 H 0.013(4) 0.783(3) -0.0138(13)
C35 C 0.1633(4) 0.6384(7) -0.0162(2)
H32 H 0.1389(11) 0.6159(12) -0.0607(19)
C36 C 0.2729(3) 0.5684(7) 0.01795(16)
H33 H 0.322(2) 0.503(3) -0.0002(9)
C37 C 0.4126(3) 0.3183(5) 0.11911(17)
H34 H 0.3891(10) 0.2822(17) 0.0838(15)
C38 C 0.5337(4) 0.2286(7) 0.15146(19)
H35 H 0.5534(8) 0.144(3) 0.1277(8)
H36 H 0.600(2) 0.303(3) 0.1599(3)
C39 C 0.5067(4) 0.1582(8) 0.2096(2)
H37 H 0.5574(16) 0.040(4) 0.2222(5)
H38 H 0.5332(9) 0.248(3) 0.2470(12)
C40 C 0.3683(4) 0.1309(6) 0.19380(19)
H39 H 0.3472(7) 0.023(3) 0.1716(6)
H40 H 0.3331(11) 0.1290(7) 0.2308(11)
C41 C 0.1916(3) 0.2448(6) 0.11800(16)
H41 H 0.1908(3) 0.139(3) 0.0961(6)
H42 H 0.1706(6) 0.335(2) 0.0881(8)
C42 C 0.0929(3) 0.2384(6) 0.15559(16)
C43 C 0.0299(4) 0.3808(7) 0.1653(2)
H43 H 0.0485(11) 0.484(6) 0.1488(9)
C44 C -0.0609(5) 0.3730(9) 0.1992(3)
H44 H -0.103(3) 0.468(7) 0.2067(6)
C45 C -0.0865(4) 0.2191(9) 0.2213(2)
H45 H -0.151(3) 0.2074(11) 0.2449(11)
C46 C -0.0201(4) 0.0856(8) 0.2098(2)
H46 H -0.0363(10) -0.015(6) 0.2257(9)
H48 H 0.391(4) 0.534(7) 0.188(2)
loop_
_geom_bond_atom_site_label_1
_geom_bond_atom_site_label_2
_geom_bond_site_symmetry_1
_geom_bond_site_symmetry_2
O1 C1 1_555 1_555
O2 C24 1_555 1_555
N1 C14 1_555 1_555
N2 C19 1_555 1_555
N3 C37 1_555 1_555
N4 C42 1_555 1_555
C1 C2 1_555 1_555
C2 C3 1_555 1_555
C3 H1 1_555 1_555
C4 C3 1_555 1_555
H2 C4 1_555 1_555
C5 C4 1_555 1_555
H3 C5 1_555 1_555
C6 C5 1_555 1_555
H4 C6 1_555 1_555
C7 C2 1_555 1_555
H5 C7 1_555 1_555
C8 C1 1_555 1_555
C9 C8 1_555 1_555
H6 C9 1_555 1_555
C10 C9 1_555 1_555
H7 C10 1_555 1_555
C11 C10 1_555 1_555
H8 C11 1_555 1_555
C12 C11 1_555 1_555
H9 C12 1_555 1_555
C13 C8 1_555 1_555
H10 C13 1_555 1_555
C14 C1 1_555 1_555
H11 C14 1_555 1_555
C15 C14 1_555 1_555
H12 C15 1_555 1_555
H13 C15 1_555 1_555
C16 C15 1_555 1_555
H14 C16 1_555 1_555
H15 C16 1_555 1_555
C17 N1 1_555 1_555
H16 C17 1_555 1_555
H17 C17 1_555 1_555
C18 N1 1_555 1_555
H18 C18 1_555 1_555
H19 C18 1_555 1_555
C19 C18 1_555 1_555
C20 C19 1_555 1_555
H20 C20 1_555 1_555
C21 C20 1_555 1_555
H21 C21 1_555 1_555
C22 C21 1_555 1_555
H22 C22 1_555 1_555
C23 N2 1_555 1_555
H23 C23 1_555 1_555
C24 C25 1_555 1_555
C25 C26 1_555 1_555
C26 H24 1_555 1_555
C27 C26 1_555 1_555
H25 C27 1_555 1_555
C28 C27 1_555 1_555
H26 C28 1_555 1_555
C29 C28 1_555 1_555
H27 C29 1_555 1_555
C30 C25 1_555 1_555
H28 C30 1_555 1_555
C31 C24 1_555 1_555
C32 C31 1_555 1_555
H29 C32 1_555 1_555
C33 C32 1_555 1_555
H30 C33 1_555 1_555
C34 C33 1_555 1_555
H31 C34 1_555 1_555
C35 C34 1_555 1_555
H32 C35 1_555 1_555
C36 C31 1_555 1_555
H33 C36 1_555 1_555
C37 C24 1_555 1_555
H34 C37 1_555 1_555
C38 C37 1_555 1_555
H35 C38 1_555 1_555
H36 C38 1_555 1_555
C39 C38 1_555 1_555
H37 C39 1_555 1_555
H38 C39 1_555 1_555
C40 N3 1_555 1_555
H39 C40 1_555 1_555
H40 C40 1_555 1_555
C41 N3 1_555 1_555
H41 C41 1_555 1_555
H42 C41 1_555 1_555
C42 C41 1_555 1_555
C43 C42 1_555 1_555
H43 C43 1_555 1_555
C44 C43 1_555 1_555
H44 C44 1_555 1_555
C45 C44 1_555 1_555
H45 C45 1_555 1_555
C46 N4 1_555 1_555
H46 C46 1_555 1_555
H47 O1 1_555 1_555
H48 O2 1_555 1_555
C6 C7 1_555 1_555
C12 C13 1_555 1_555
C16 C17 1_555 1_555
C22 C23 1_555 1_555
C29 C30 1_555 1_555
C35 C36 1_555 1_555
C39 C40 1_555 1_555
C45 C46 1_555 1_555

#END
