
#######################################################################
#
#                 Cambridge Crystallographic Data Centre
#                                CCDC 
#
#######################################################################
#
# If this CIF has been generated from an entry in the Cambridge 
# Structural Database, then it will include bibliographic, chemical, 
# crystal, experimental, refinement or atomic coordinate data resulting 
# from the CCDC's data processing and validation procedures.
#
#######################################################################

data_AQONAX
_chemical_formula_moiety         'C39 H33 N1 O6'
_chemical_name_systematic        
"dimethyl 1'-(4-methylphenyl)-2'-(2-(3-methylphenyl)vinyl)-1,3-dioxo-4'-phenyl-1,1',3,4'-tetrahydro-2'H-spiro[indene-2,3'-pyridine]-5',6'-dicarboxylate"
_symmetry_cell_setting           monoclinic
_symmetry_space_group_name_H-M   'P 21/c'
_symmetry_Int_Tables_number      14
_space_group_name_Hall           '-P 2ybc'
loop_
_symmetry_equiv_pos_site_id
_symmetry_equiv_pos_as_xyz
1 x,y,z
2 -x,1/2+y,1/2-z
3 -x,-y,-z
4 x,1/2-y,1/2+z
_cell_length_a                   14.061(3)
_cell_length_b                   11.552(2)
_cell_length_c                   20.405(4)
_cell_angle_alpha                90
_cell_angle_beta                 98.834(6)
_cell_angle_gamma                90
_cell_volume                     3275.12
_exptl_crystal_colour            colorless
_exptl_crystal_description       block
_cell_formula_units_Z            4
loop_
_atom_site_label
_atom_site_type_symbol
_atom_site_fract_x
_atom_site_fract_y
_atom_site_fract_z
C1 C 0.23126(19) 0.2764(2) -0.02906(12)
C2 C 0.1711(2) 0.1930(2) -0.07184(13)
C3 C 0.1896(3) 0.1436(3) -0.13019(15)
H1 H 0.2445 0.1616 -0.1485
C4 C 0.1207(4) 0.0645(3) -0.16017(19)
H2 H 0.1292 0.0296 -0.1999
C5 C 0.0405(4) 0.0374(4) -0.1318(3)
H3 H -0.0028 -0.0171 -0.1525
C6 C 0.0229(2) 0.0873(3) -0.07536(19)
H4 H -0.0323 0.0693 -0.0574
C7 C 0.0896(2) 0.1664(2) -0.04460(14)
C8 C 0.09020(19) 0.2285(2) 0.01733(14)
C9 C 0.18098(15) 0.30503(19) 0.03015(11)
C10 C 0.24005(16) 0.27370(19) 0.09830(11)
H5 H 0.1942 0.2664 0.1297
C11 C 0.28589(18) 0.1549(2) 0.09359(11)
C12 C 0.2355(2) 0.0554(2) 0.10435(14)
H6 H 0.1756 0.0617 0.1181
C13 C 0.2725(3) -0.0534(3) 0.09500(18)
H7 H 0.2375 -0.1190 0.1025
C14 C 0.3595(3) -0.0646(3) 0.07495(19)
H8 H 0.3835 -0.1377 0.0676
C15 C 0.4121(3) 0.0319(3) 0.06552(16)
H9 H 0.4725 0.0244 0.0527
C16 C 0.3751(2) 0.1420(3) 0.07511(14)
H10 H 0.4114 0.2073 0.0689
C17 C 0.30986(15) 0.3682(2) 0.12430(11)
C18 C 0.36319(18) 0.3466(2) 0.19045(13)
C19 C 0.4840(3) 0.4143(3) 0.27583(15)
H11 H 0.4425 0.3973 0.3078
H12 H 0.5182 0.4850 0.2878
H13 H 0.5293 0.3523 0.2750
C20 C 0.31406(15) 0.47078(19) 0.09261(11)
C21 C 0.38130(17) 0.5685(2) 0.11826(11)
C22 C 0.54059(19) 0.6354(3) 0.13623(16)
H14 H 0.5250 0.7093 0.1159
H15 H 0.6035 0.6122 0.1286
H16 H 0.5397 0.6409 0.1831
C23 C 0.26628(16) 0.58733(19) -0.00761(11)
C24 C 0.35209(17) 0.5853(2) -0.03219(12)
H17 H 0.3977 0.5287 -0.0181
C25 C 0.3705(2) 0.6675(2) -0.07794(14)
H18 H 0.4292 0.6662 -0.0937
C26 C 0.3037(2) 0.7514(3) -0.10064(15)
C27 C 0.3246(3) 0.8398(3) -0.1521(2)
H19 H 0.2696 0.8466 -0.1862
H20 H 0.3793 0.8149 -0.1714
H21 H 0.3381 0.9137 -0.1311
C28 C 0.2174(2) 0.7513(2) -0.07613(15)
H22 H 0.1710 0.8064 -0.0913
C29 C 0.19861(18) 0.6712(2) -0.02970(13)
H23 H 0.1405 0.6735 -0.0132
C30 C 0.15642(15) 0.43730(19) 0.02857(11)
H24 H 0.1240 0.4557 -0.0162
C31 C 0.08989(16) 0.4716(2) 0.07639(12)
H25 H 0.0336 0.4289 0.0750
C32 C 0.10369(18) 0.5562(2) 0.11999(13)
H26 H 0.1609 0.5973 0.1217
C33 C 0.0394(2) 0.5931(2) 0.16612(13)
C34 C -0.0495(2) 0.5411(3) 0.16811(13)
H27 H -0.0683 0.4791 0.1400
C35 C -0.1111(2) 0.5794(3) 0.21111(15)
C36 C -0.2056(2) 0.5215(4) 0.21213(18)
H28 H -0.1961 0.4525 0.2385
H29 H -0.2338 0.5017 0.1677
H30 H -0.2477 0.5731 0.2309
C37 C -0.0801(3) 0.6706(3) 0.25257(17)
H31 H -0.1199 0.6978 0.2816
C38 C 0.0072(4) 0.7220(3) 0.25216(18)
H32 H 0.0264 0.7828 0.2811
C39 C 0.0674(3) 0.6841(3) 0.20900(16)
H33 H 0.1267 0.7197 0.2088
N1 N 0.24640(12) 0.50244(16) 0.03964(9)
O1 O 0.30729(15) 0.31657(16) -0.03878(9)
O2 O 0.03097(13) 0.21861(16) 0.05434(11)
O3 O 0.34976(15) 0.26568(19) 0.22452(10)
O4 O 0.42762(17) 0.42675(19) 0.21157(10)
O5 O 0.35409(12) 0.65341(16) 0.14326(10)
O6 O 0.47015(11) 0.55008(14) 0.10754(8)
loop_
_geom_bond_atom_site_label_1
_geom_bond_atom_site_label_2
_geom_bond_site_symmetry_1
_geom_bond_site_symmetry_2
C1 C2 1_555 1_555
C2 C3 1_555 1_555
C3 H1 1_555 1_555
C4 C3 1_555 1_555
H2 C4 1_555 1_555
C5 C4 1_555 1_555
H3 C5 1_555 1_555
C6 C5 1_555 1_555
H4 C6 1_555 1_555
C7 C2 1_555 1_555
C8 C7 1_555 1_555
C9 C1 1_555 1_555
C10 C9 1_555 1_555
H5 C10 1_555 1_555
C11 C10 1_555 1_555
C12 C11 1_555 1_555
H6 C12 1_555 1_555
C13 C12 1_555 1_555
H7 C13 1_555 1_555
C14 C13 1_555 1_555
H8 C14 1_555 1_555
C15 C14 1_555 1_555
H9 C15 1_555 1_555
C16 C11 1_555 1_555
H10 C16 1_555 1_555
C17 C10 1_555 1_555
C18 C17 1_555 1_555
C19 H11 1_555 1_555
H12 C19 1_555 1_555
H13 C19 1_555 1_555
C20 C17 1_555 1_555
C21 C20 1_555 1_555
C22 H14 1_555 1_555
H15 C22 1_555 1_555
H16 C22 1_555 1_555
C23 C24 1_555 1_555
C24 H17 1_555 1_555
C25 C24 1_555 1_555
H18 C25 1_555 1_555
C26 C25 1_555 1_555
C27 C26 1_555 1_555
H19 C27 1_555 1_555
H20 C27 1_555 1_555
H21 C27 1_555 1_555
C28 C26 1_555 1_555
H22 C28 1_555 1_555
C29 C23 1_555 1_555
H23 C29 1_555 1_555
C30 C9 1_555 1_555
H24 C30 1_555 1_555
C31 C30 1_555 1_555
H25 C31 1_555 1_555
C32 C31 1_555 1_555
H26 C32 1_555 1_555
C33 C32 1_555 1_555
C34 C33 1_555 1_555
H27 C34 1_555 1_555
C35 C34 1_555 1_555
C36 C35 1_555 1_555
H28 C36 1_555 1_555
H29 C36 1_555 1_555
H30 C36 1_555 1_555
C37 C35 1_555 1_555
H31 C37 1_555 1_555
C38 C37 1_555 1_555
H32 C38 1_555 1_555
C39 C33 1_555 1_555
H33 C39 1_555 1_555
N1 C20 1_555 1_555
O1 C1 1_555 1_555
O2 C8 1_555 1_555
O3 C18 1_555 1_555
O4 C18 1_555 1_555
O5 C21 1_555 1_555
O6 C21 1_555 1_555
C6 C7 1_555 1_555
C8 C9 1_555 1_555
C15 C16 1_555 1_555
C19 O4 1_555 1_555
C22 O6 1_555 1_555
C23 N1 1_555 1_555
C28 C29 1_555 1_555
C30 N1 1_555 1_555
C38 C39 1_555 1_555

#END
