
#######################################################################
#
#                 Cambridge Crystallographic Data Centre
#                                CCDC 
#
#######################################################################
#
# If this CIF has been generated from an entry in the Cambridge 
# Structural Database, then it will include bibliographic, chemical, 
# crystal, experimental, refinement or atomic coordinate data resulting 
# from the CCDC's data processing and validation procedures.
#
#######################################################################

data_AQOQUT
_chemical_formula_moiety         'C39 H30 N2 S1'
_chemical_name_systematic        
1-(4-t-Butylphenyl)-2-(5-(2-naphthyl)-2-thienyl)-1H-phenanthro[9,10-d]imidazole
_symmetry_cell_setting           monoclinic
_symmetry_space_group_name_H-M   'P 21/c'
_symmetry_Int_Tables_number      14
_space_group_name_Hall           '-P 2ybc'
loop_
_symmetry_equiv_pos_site_id
_symmetry_equiv_pos_as_xyz
1 x,y,z
2 -x,1/2+y,1/2-z
3 -x,-y,-z
4 x,1/2-y,1/2+z
_cell_length_a                   16.2930(18)
_cell_length_b                   13.6939(15)
_cell_length_c                   13.5127(15)
_cell_angle_alpha                90
_cell_angle_beta                 97.737(2)
_cell_angle_gamma                90
_cell_volume                     2987.44
_exptl_crystal_colour            yellow
_exptl_crystal_description       block
_chemical_melting_point          '242 deg.C'
_cell_formula_units_Z            4
_exptl_crystal_recrystallization_method dichloromethane/n-hexane
loop_
_atom_site_label
_atom_site_type_symbol
_atom_site_fract_x
_atom_site_fract_y
_atom_site_fract_z
S1 S 1.11064(3) 0.34288(5) 0.91984(4)
N1 N 0.99337(11) 0.37263(13) 1.06725(14)
N2 N 0.87466(11) 0.39097(14) 0.96420(14)
C1 C 0.92921(14) 0.38588(16) 1.12221(18)
C2 C 1.12502(14) 0.33517(16) 0.79580(16)
C3 C 0.93432(16) 0.39236(16) 1.22839(18)
C4 C 1.05203(15) 0.35007(18) 0.73607(18)
H1 H 1.0470 0.3491 0.6667
C5 C 1.20702(14) 0.31411(16) 0.76776(17)
C6 C 0.95910(13) 0.37666(16) 0.97292(17)
C7 C 0.73288(14) 0.35196(18) 0.72931(18)
H2 H 0.7081 0.2999 0.6925
C8 C 0.82096(13) 0.40928(17) 0.87253(17)
C9 C 1.27821(15) 0.32316(17) 0.83363(17)
H3 H 1.2742 0.3443 0.8982
C10 C 0.85512(14) 0.39710(16) 1.06110(17)
C11 C 0.78280(14) 0.33337(18) 0.81809(18)
H4 H 0.7906 0.2696 0.8410
C12 C 1.00600(13) 0.36566(16) 0.88986(17)
C13 C 0.78148(16) 0.41817(18) 1.2034(2)
C14 C 0.71873(13) 0.44608(17) 0.69365(17)
C15 C 0.77760(14) 0.41210(17) 1.0976(2)
C16 C 0.98500(15) 0.36699(18) 0.78889(18)
H5 H 0.9313 0.3781 0.7579
C17 C 1.00972(17) 0.38517(18) 1.29180(19)
H6 H 1.0585 0.3751 1.2645
C18 C 1.35706(15) 0.30193(18) 0.80802(19)
C19 C 0.80888(14) 0.50356(18) 0.83895(18)
H7 H 0.8351 0.5551 0.8752
C20 C 0.86024(17) 0.40911(17) 1.26876(19)
C21 C 0.66001(16) 0.4692(2) 0.59875(19)
C22 C 0.75782(14) 0.52095(18) 0.75146(18)
H8 H 0.7490 0.5851 0.7301
C23 C 1.36304(16) 0.26959(19) 0.7103(2)
C24 C 1.21396(17) 0.28125(19) 0.67009(18)
H9 H 1.1665 0.2740 0.6240
C25 C 1.28904(19) 0.2603(2) 0.6430(2)
H10 H 1.2921 0.2391 0.5782
C26 C 0.70659(19) 0.4339(2) 1.2414(2)
H11 H 0.7075 0.4388 1.3101
C27 C 1.0126(2) 0.3926(2) 1.3920(2)
H12 H 1.0631 0.3875 1.4331
C28 C 0.62904(17) 0.4355(2) 1.0790(3)
H13 H 0.5784 0.4414 1.0385
C29 C 0.70029(15) 0.4202(2) 1.0372(2)
H14 H 0.6975 0.4150 0.9682
C30 C 1.43048(16) 0.3115(2) 0.8758(2)
H15 H 1.4273 0.3331 0.9404
C31 C 0.8656(2) 0.4158(2) 1.3737(2)
H16 H 0.8178 0.4258 1.4028
C32 C 0.63282(19) 0.4422(2) 1.1820(3)
H17 H 0.5846 0.4525 1.2104
C33 C 1.4426(2) 0.2477(3) 0.6857(3)
H18 H 1.4477 0.2263 0.6215
C34 C 0.6403(2) 0.3800(2) 0.5323(2)
H19 H 0.6910 0.3510 0.5177
H20 H 0.6074 0.3994 0.4712
H21 H 0.6101 0.3333 0.5663
C35 C 1.50542(17) 0.2899(2) 0.8489(3)
H22 H 1.5529 0.2970 0.8949
C36 C 0.9405(2) 0.4078(2) 1.4334(2)
H23 H 0.9427 0.4126 1.5024
C37 C 0.6972(2) 0.5477(2) 0.5374(2)
H24 H 0.7009 0.6083 0.5736
H25 H 0.6624 0.5563 0.4748
H26 H 0.7515 0.5279 0.5254
C38 C 0.57931(18) 0.5088(3) 0.6303(2)
H27 H 0.5547 0.4598 0.6677
H28 H 0.5416 0.5256 0.5720
H29 H 0.5911 0.5659 0.6711
C39 C 1.5117(2) 0.2571(3) 0.7529(3)
H30 H 1.5633 0.2416 0.7349
loop_
_geom_bond_atom_site_label_1
_geom_bond_atom_site_label_2
_geom_bond_site_symmetry_1
_geom_bond_site_symmetry_2
S1 C2 1_555 1_555
N1 C1 1_555 1_555
N2 C6 1_555 1_555
C1 C3 1_555 1_555
C2 C4 1_555 1_555
C3 C17 1_555 1_555
C4 H1 1_555 1_555
C5 C2 1_555 1_555
C6 N1 1_555 1_555
C7 H2 1_555 1_555
C8 N2 1_555 1_555
C9 C5 1_555 1_555
H3 C9 1_555 1_555
C10 N2 1_555 1_555
C11 C7 1_555 1_555
H4 C11 1_555 1_555
C12 S1 1_555 1_555
C13 C15 1_555 1_555
C14 C7 1_555 1_555
C15 C10 1_555 1_555
C16 C4 1_555 1_555
H5 C16 1_555 1_555
C17 H6 1_555 1_555
C18 C9 1_555 1_555
C19 C8 1_555 1_555
H7 C19 1_555 1_555
C20 C3 1_555 1_555
C21 C14 1_555 1_555
C22 C14 1_555 1_555
H8 C22 1_555 1_555
C23 C18 1_555 1_555
C24 C5 1_555 1_555
H9 C24 1_555 1_555
C25 C23 1_555 1_555
H10 C25 1_555 1_555
C26 C13 1_555 1_555
H11 C26 1_555 1_555
C27 C17 1_555 1_555
H12 C27 1_555 1_555
C28 H13 1_555 1_555
C29 C15 1_555 1_555
H14 C29 1_555 1_555
C30 C18 1_555 1_555
H15 C30 1_555 1_555
C31 C20 1_555 1_555
H16 C31 1_555 1_555
C32 C26 1_555 1_555
H17 C32 1_555 1_555
C33 C23 1_555 1_555
H18 C33 1_555 1_555
C34 C21 1_555 1_555
H19 C34 1_555 1_555
H20 C34 1_555 1_555
H21 C34 1_555 1_555
C35 C30 1_555 1_555
H22 C35 1_555 1_555
C36 C27 1_555 1_555
H23 C36 1_555 1_555
C37 C21 1_555 1_555
H24 C37 1_555 1_555
H25 C37 1_555 1_555
H26 C37 1_555 1_555
C38 C21 1_555 1_555
H27 C38 1_555 1_555
H28 C38 1_555 1_555
H29 C38 1_555 1_555
C39 C33 1_555 1_555
H30 C39 1_555 1_555
C1 C10 1_555 1_555
C6 C12 1_555 1_555
C8 C11 1_555 1_555
C12 C16 1_555 1_555
C13 C20 1_555 1_555
C19 C22 1_555 1_555
C24 C25 1_555 1_555
C28 C29 1_555 1_555
C28 C32 1_555 1_555
C31 C36 1_555 1_555
C35 C39 1_555 1_555

#END
