
#######################################################################
#
#                 Cambridge Crystallographic Data Centre
#                                CCDC 
#
#######################################################################
#
# If this CIF has been generated from an entry in the Cambridge 
# Structural Database, then it will include bibliographic, chemical, 
# crystal, experimental, refinement or atomic coordinate data resulting 
# from the CCDC's data processing and validation procedures.
#
#######################################################################

data_AQORUU
_chemical_formula_moiety         'C2 H7 N6 1+,C3 H2 N5 O4 1-'
_chemical_name_systematic        
'1-Amino-4-methyl-1,4-dihydro-5H-tetrazol-5-iminium 4-amino-3,5-dinitropyrazol-1-ide'
_symmetry_cell_setting           triclinic
_symmetry_space_group_name_H-M   'P -1'
_symmetry_Int_Tables_number      2
_space_group_name_Hall           '-P 1'
loop_
_symmetry_equiv_pos_site_id
_symmetry_equiv_pos_as_xyz
1 x,y,z
2 -x,-y,-z
_cell_length_a                   6.7105(9)
_cell_length_b                   11.6875(15)
_cell_length_c                   15.534(2)
_cell_angle_alpha                79.793(2)
_cell_angle_beta                 85.714(2)
_cell_angle_gamma                74.038(2)
_cell_volume                     1152.37
_exptl_crystal_colour            orange
_exptl_crystal_description       prism
_chemical_melting_point          '173 deg.C (dec.)'
_cell_formula_units_Z            4
_exptl_crystal_recrystallization_method water
_exptl_crystal_preparation       explosive
loop_
_atom_site_label
_atom_site_type_symbol
_atom_site_fract_x
_atom_site_fract_y
_atom_site_fract_z
N1 N 0.29312(18) 0.07177(10) 0.82452(7)
N2 N 0.19544(18) 0.11858(11) 0.74664(8)
N3 N 0.07841(19) 0.05298(11) 0.73701(8)
N4 N 0.09893(18) -0.03754(11) 0.80814(8)
C1 C 0.2356(2) -0.02741(12) 0.86245(9)
N5 N 0.4564(2) 0.10686(12) 0.85248(9)
H1 H 0.552(3) 0.1023(16) 0.8067(12)
H2 H 0.408(3) 0.1777(18) 0.8659(11)
C2 C -0.0144(2) -0.12895(14) 0.81521(11)
H3 H 0.0180 -0.1848 0.8704
H4 H 0.0262 -0.1737 0.7661
H5 H -0.1637 -0.0899 0.8138
N6 N 0.2995(2) -0.09586(11) 0.93705(8)
H6 H 0.2504 -0.1583 0.9571
H7 H 0.3914 -0.0793 0.9670
N7 N 0.26457(17) 0.58556(10) -0.06459(7)
N8 N 0.23376(17) 0.66804(10) -0.01317(7)
C3 C 0.2096(2) 0.61377(12) 0.07106(8)
C4 C 0.22782(19) 0.49008(12) 0.07655(9)
C5 C 0.26095(19) 0.47871(12) -0.01256(9)
N9 N 0.17501(17) 0.67966(11) 0.14003(7)
O1 O 0.18029(17) 0.78672(9) 0.12575(7)
O2 O 0.14066(16) 0.62584(9) 0.21452(6)
N10 N 0.21532(19) 0.40629(11) 0.14618(8)
H8 H 0.1922 0.4263 0.1988
H9 H 0.2302 0.3312 0.1394
N11 N 0.28968(17) 0.37301(10) -0.04740(7)
O3 O 0.28742(16) 0.27842(9) 0.00451(7)
O4 O 0.31627(16) 0.37489(9) -0.12779(6)
N12 N 0.27357(18) 0.55269(10) 0.70330(7)
N13 N 0.06822(18) 0.60458(11) 0.68724(8)
N14 N 0.00932(19) 0.54058(11) 0.64089(8)
N15 N 0.17714(19) 0.44717(11) 0.62609(8)
C6 C 0.3435(2) 0.45424(12) 0.66500(8)
N16 N 0.4004(2) 0.59678(12) 0.74718(8)
H10 H 0.354(3) 0.5991(16) 0.8019(12)
H11 H 0.407(3) 0.6654(17) 0.7198(12)
C7 C 0.1598(3) 0.35732(14) 0.57497(10)
H12 H 0.2130 0.2764 0.6085
H13 H 0.2408 0.3653 0.5201
H14 H 0.0140 0.3698 0.5619
N17 N 0.53321(19) 0.38425(11) 0.66626(8)
H15 H 0.5651 0.3219 0.6385
H16 H 0.6288 0.3996 0.6948
N18 N 0.35403(17) 0.84797(10) 0.38420(7)
N19 N 0.38255(17) 0.94180(10) 0.32837(7)
C8 C 0.3365(2) 1.03792(12) 0.37209(9)
C9 C 0.27316(19) 1.00762(12) 0.45954(9)
C10 C 0.2895(2) 0.88473(12) 0.46278(9)
N20 N 0.37322(17) 1.14785(11) 0.33334(8)
O5 O 0.44068(16) 1.16109(9) 0.25632(7)
O6 O 0.33952(16) 1.22943(9) 0.37897(7)
N21 N 0.21587(18) 1.07671(11) 0.52233(8)
H17 H 0.1814 1.0450 0.5751
H18 H 0.2128 1.1536 0.5107
N22 N 0.25707(17) 0.80220(11) 0.53575(7)
O7 O 0.20072(15) 0.84133(10) 0.60601(6)
O8 O 0.28688(17) 0.69484(9) 0.52842(7)
loop_
_geom_bond_atom_site_label_1
_geom_bond_atom_site_label_2
_geom_bond_site_symmetry_1
_geom_bond_site_symmetry_2
N1 N2 1_555 1_555
N2 N3 1_555 1_555
N3 N4 1_555 1_555
N4 C1 1_555 1_555
C1 N1 1_555 1_555
N5 N1 1_555 1_555
H1 N5 1_555 1_555
H2 N5 1_555 1_555
C2 N4 1_555 1_555
H3 C2 1_555 1_555
H4 C2 1_555 1_555
H5 C2 1_555 1_555
N6 C1 1_555 1_555
H6 N6 1_555 1_555
H7 N6 1_555 1_555
N7 N8 1_555 1_555
N8 C3 1_555 1_555
C3 C4 1_555 1_555
C4 C5 1_555 1_555
C5 N7 1_555 1_555
N9 C3 1_555 1_555
O1 N9 1_555 1_555
O2 N9 1_555 1_555
N10 C4 1_555 1_555
H8 N10 1_555 1_555
H9 N10 1_555 1_555
N11 C5 1_555 1_555
O3 N11 1_555 1_555
O4 N11 1_555 1_555
N12 N13 1_555 1_555
N13 N14 1_555 1_555
N14 N15 1_555 1_555
N15 C6 1_555 1_555
C6 N12 1_555 1_555
N16 N12 1_555 1_555
H10 N16 1_555 1_555
H11 N16 1_555 1_555
C7 N15 1_555 1_555
H12 C7 1_555 1_555
H13 C7 1_555 1_555
H14 C7 1_555 1_555
N17 C6 1_555 1_555
H15 N17 1_555 1_555
H16 N17 1_555 1_555
N18 N19 1_555 1_555
N19 C8 1_555 1_555
C8 C9 1_555 1_555
C9 C10 1_555 1_555
C10 N18 1_555 1_555
N20 C8 1_555 1_555
O5 N20 1_555 1_555
O6 N20 1_555 1_555
N21 C9 1_555 1_555
H17 N21 1_555 1_555
H18 N21 1_555 1_555
N22 C10 1_555 1_555
O7 N22 1_555 1_555
O8 N22 1_555 1_555

#END
