
#######################################################################
#
#                 Cambridge Crystallographic Data Centre
#                                CCDC 
#
#######################################################################
#
# If this CIF has been generated from an entry in the Cambridge 
# Structural Database, then it will include bibliographic, chemical, 
# crystal, experimental, refinement or atomic coordinate data resulting 
# from the CCDC's data processing and validation procedures.
#
#######################################################################

data_AQOYUC
_chemical_formula_moiety         'C7 H15 N3 O2,0.5(H2 O1)'
_chemical_name_systematic        
'((bis(dimethylamino)methylene)azaniumyl)acetate hemihydrate'
_symmetry_cell_setting           orthorhombic
_symmetry_space_group_name_H-M   'P b c n'
_symmetry_Int_Tables_number      60
_space_group_name_Hall           '-P 2n 2ab'
loop_
_symmetry_equiv_pos_site_id
_symmetry_equiv_pos_as_xyz
1 x,y,z
2 1/2-x,1/2-y,1/2+z
3 -x,y,1/2-z
4 1/2+x,1/2-y,-z
5 -x,-y,-z
6 1/2+x,1/2+y,1/2-z
7 x,-y,1/2+z
8 1/2-x,1/2+y,z
_cell_length_a                   8.8452(2)
_cell_length_b                   16.0629(11)
_cell_length_c                   13.7551(2)
_cell_angle_alpha                90
_cell_angle_beta                 90
_cell_angle_gamma                90
_cell_volume                     1954.32
_exptl_crystal_colour            colorless
_exptl_crystal_description       Block
_cell_formula_units_Z            8
loop_
_atom_site_label
_atom_site_type_symbol
_atom_site_fract_x
_atom_site_fract_y
_atom_site_fract_z
O1 O 0.23981(9) 0.20872(5) 0.49154(6)
O2 O 0.29626(10) 0.11637(5) 0.37427(7)
N1 N 0.45906(10) 0.31837(6) 0.43092(6)
H1 H 0.5428(18) 0.3210(9) 0.4647(10)
N2 N 0.23549(10) 0.38909(6) 0.39549(6)
N3 N 0.34813(11) 0.40324(6) 0.54661(7)
C1 C 0.31203(12) 0.18397(7) 0.41904(8)
C2 C 0.43428(12) 0.24196(6) 0.37663(8)
H2 H 0.5309 0.2109 0.3734
H3 H 0.4054 0.2567 0.3093
C3 C 0.34659(11) 0.36920(6) 0.45775(8)
C4 C 0.25554(15) 0.38831(9) 0.29028(8)
H4 H 0.3635 0.3923 0.2748
H5 H 0.2019 0.4357 0.2616
H6 H 0.2147 0.3364 0.2637
C5 C 0.08158(12) 0.40610(8) 0.42859(9)
H7 H 0.0756 0.3979 0.4991
H8 H 0.0112 0.3681 0.3961
H9 H 0.0547 0.4637 0.4128
C6 C 0.29930(14) 0.48895(7) 0.56457(9)
H10 H 0.3813 0.5199 0.5961
H11 H 0.2103 0.4887 0.6070
H12 H 0.2737 0.5157 0.5027
C7 C 0.41703(14) 0.36036(8) 0.62926(8)
H13 H 0.4207 0.3004 0.6161
H14 H 0.3567 0.3706 0.6878
H15 H 0.5199 0.3814 0.6392
O3 O 0.5000 0.04392(8) 0.2500
H16 H 0.439(2) 0.0757(12) 0.2859(13)
H16B H 0.561(2) 0.0757(12) 0.2141(13)
loop_
_geom_bond_atom_site_label_1
_geom_bond_atom_site_label_2
_geom_bond_site_symmetry_1
_geom_bond_site_symmetry_2
O1 C1 1_555 1_555
O2 C1 1_555 1_555
N1 H1 1_555 1_555
N2 C3 1_555 1_555
N3 C3 1_555 1_555
C1 C2 1_555 1_555
C2 N1 1_555 1_555
H2 C2 1_555 1_555
H3 C2 1_555 1_555
C3 N1 1_555 1_555
C4 N2 1_555 1_555
H4 C4 1_555 1_555
H5 C4 1_555 1_555
H6 C4 1_555 1_555
C5 N2 1_555 1_555
H7 C5 1_555 1_555
H8 C5 1_555 1_555
H9 C5 1_555 1_555
C6 N3 1_555 1_555
H10 C6 1_555 1_555
H11 C6 1_555 1_555
H12 C6 1_555 1_555
C7 N3 1_555 1_555
H13 C7 1_555 1_555
H14 C7 1_555 1_555
H15 C7 1_555 1_555
O3 H16 1_555 1_555
H16B O3 1_555 1_555

#END
