
#######################################################################
#
#                 Cambridge Crystallographic Data Centre
#                                CCDC 
#
#######################################################################
#
# If this CIF has been generated from an entry in the Cambridge 
# Structural Database, then it will include bibliographic, chemical, 
# crystal, experimental, refinement or atomic coordinate data resulting 
# from the CCDC's data processing and validation procedures.
#
#######################################################################

data_AQOYOW
_chemical_formula_moiety         'C21 H18 Br2 F6 N2 O2'
_chemical_name_systematic        
N,N'-((2,2-dimethylpropane-1,1-diyl)bis(2-bromo-4,1-phenylene))bis(2,2,2-trifluoroacetamide)
_symmetry_cell_setting           monoclinic
_symmetry_space_group_name_H-M   'P 21/c'
_symmetry_Int_Tables_number      14
_space_group_name_Hall           '-P 2ybc'
loop_
_symmetry_equiv_pos_site_id
_symmetry_equiv_pos_as_xyz
1 x,y,z
2 -x,1/2+y,1/2-z
3 -x,-y,-z
4 x,1/2-y,1/2+z
_cell_length_a                   12.3264(17)
_cell_length_b                   13.9962(19)
_cell_length_c                   13.3450(18)
_cell_angle_alpha                90
_cell_angle_beta                 100.340(7)
_cell_angle_gamma                90
_cell_volume                     2264.93
_exptl_crystal_colour            colorless
_exptl_crystal_description       Prism
_cell_formula_units_Z            4
loop_
_atom_site_label
_atom_site_type_symbol
_atom_site_fract_x
_atom_site_fract_y
_atom_site_fract_z
Br1 Br 0.17371(4) 1.05246(3) 0.40530(4)
Br2 Br 0.41321(4) 0.38178(3) 0.41295(4)
F1 F 0.4748(2) 1.17198(17) 0.3263(2)
F2 F 0.6336(2) 1.1168(2) 0.3183(3)
F3 F 0.5002(3) 1.09275(19) 0.1976(2)
F4 F 0.2249(4) 0.1477(2) 0.1590(3)
F5 F 0.3172(3) 0.2500(2) 0.1011(3)
F6 F 0.1589(3) 0.2196(3) 0.0256(3)
O1 O 0.5655(3) 0.9406(2) 0.3471(3)
O2 O 0.0742(3) 0.2981(3) 0.1825(4)
N1 N 0.4081(3) 1.0039(2) 0.3797(3)
H1 H 0.370(3) 1.050(3) 0.373(3)
N2 N 0.2384(3) 0.3690(2) 0.2198(3)
H2 H 0.297(3) 0.368(3) 0.210(3)
C1 C 0.1605(3) 0.6804(2) 0.4742(3)
H3 H 0.0838 0.6997 0.4461
C2 C 0.2308(3) 0.7646(2) 0.4529(3)
C3 C 0.3401(3) 0.7571(3) 0.4443(3)
H4 H 0.3743 0.6970 0.4530
C4 C 0.4009(3) 0.8346(3) 0.4235(3)
H5 H 0.4755 0.8268 0.4186
C5 C 0.3530(3) 0.9238(2) 0.4097(3)
C6 C 0.2441(3) 0.9322(2) 0.4208(3)
C7 C 0.1840(3) 0.8545(3) 0.4411(3)
H6 H 0.1097 0.8625 0.4470
C8 C 0.5024(3) 1.0047(3) 0.3453(3)
C9 C 0.5280(3) 1.0983(3) 0.2969(3)
C10 C 0.1817(3) 0.5940(2) 0.4118(3)
C11 C 0.2724(3) 0.5351(2) 0.4368(3)
H7 H 0.3235 0.5462 0.4970
C12 C 0.2885(3) 0.4607(2) 0.3744(3)
C13 C 0.2162(3) 0.4426(3) 0.2850(3)
C14 C 0.1251(3) 0.5005(3) 0.2606(3)
H8 H 0.0740 0.4896 0.2004
C15 C 0.1087(3) 0.5740(3) 0.3238(3)
H9 H 0.0453 0.6121 0.3065
C16 C 0.1693(4) 0.3038(3) 0.1766(4)
C17 C 0.2176(4) 0.2300(3) 0.1155(4)
C18 C 0.1619(3) 0.6635(3) 0.5899(3)
C19 C 0.2766(4) 0.6455(3) 0.6515(3)
H10 H 0.3017 0.5825 0.6355
H11 H 0.2738 0.6489 0.7236
H12 H 0.3272 0.6934 0.6347
C20 C 0.1150(4) 0.7506(3) 0.6341(3)
H13 H 0.1635 0.8047 0.6314
H14 H 0.1088 0.7381 0.7044
H15 H 0.0426 0.7648 0.5950
C21 C 0.0877(4) 0.5788(3) 0.6012(3)
H16 H 0.0138 0.5915 0.5646
H17 H 0.0856 0.5688 0.6728
H18 H 0.1165 0.5220 0.5735
loop_
_geom_bond_atom_site_label_1
_geom_bond_atom_site_label_2
_geom_bond_site_symmetry_1
_geom_bond_site_symmetry_2
Br1 C6 1_555 1_555
Br2 C12 1_555 1_555
F1 C9 1_555 1_555
F2 C9 1_555 1_555
F3 C9 1_555 1_555
F4 C17 1_555 1_555
F5 C17 1_555 1_555
F6 C17 1_555 1_555
O1 C8 1_555 1_555
O2 C16 1_555 1_555
N1 H1 1_555 1_555
N2 H2 1_555 1_555
C1 H3 1_555 1_555
C2 C1 1_555 1_555
C3 C2 1_555 1_555
H4 C3 1_555 1_555
C4 C3 1_555 1_555
H5 C4 1_555 1_555
C5 N1 1_555 1_555
C6 C5 1_555 1_555
C7 C2 1_555 1_555
H6 C7 1_555 1_555
C8 N1 1_555 1_555
C9 C8 1_555 1_555
C10 C1 1_555 1_555
C11 C10 1_555 1_555
H7 C11 1_555 1_555
C12 C11 1_555 1_555
C13 N2 1_555 1_555
C14 C13 1_555 1_555
H8 C14 1_555 1_555
C15 C10 1_555 1_555
H9 C15 1_555 1_555
C16 N2 1_555 1_555
C17 C16 1_555 1_555
C18 C1 1_555 1_555
C19 C18 1_555 1_555
H10 C19 1_555 1_555
H11 C19 1_555 1_555
H12 C19 1_555 1_555
C20 C18 1_555 1_555
H13 C20 1_555 1_555
H14 C20 1_555 1_555
H15 C20 1_555 1_555
C21 C18 1_555 1_555
H16 C21 1_555 1_555
H17 C21 1_555 1_555
H18 C21 1_555 1_555
C4 C5 1_555 1_555
C6 C7 1_555 1_555
C12 C13 1_555 1_555
C14 C15 1_555 1_555

#END
