
#######################################################################
#
#                 Cambridge Crystallographic Data Centre
#                                CCDC 
#
#######################################################################
#
# If this CIF has been generated from an entry in the Cambridge 
# Structural Database, then it will include bibliographic, chemical, 
# crystal, experimental, refinement or atomic coordinate data resulting 
# from the CCDC's data processing and validation procedures.
#
#######################################################################

data_AQUFUP
_chemical_formula_moiety         'C31 H26 N2 O4 S1,0.67(C2 H6 O1)'
_chemical_name_systematic        
"9-methyl-1-((4-methylphenyl)sulfonyl)-1'-phenyl-1,5-dihydrospiro[1-benzazepine-4,3'-indole]-2,2'(1'H,3H)-dione ethanol solvate"
_symmetry_cell_setting           trigonal
_symmetry_space_group_name_H-M   'P 32'
_symmetry_Int_Tables_number      145
_space_group_name_Hall           'P 32'
loop_
_symmetry_equiv_pos_site_id
_symmetry_equiv_pos_as_xyz
1 x,y,z
2 -y,x-y,2/3+z
3 -x+y,-x,1/3+z
_cell_length_a                   24.9678(4)
_cell_length_b                   24.9678(4)
_cell_length_c                   11.84603(15)
_cell_angle_alpha                90
_cell_angle_beta                 90
_cell_angle_gamma                120
_cell_volume                     6395.35
_exptl_crystal_colour            colorless
_exptl_crystal_description       needle
_cell_formula_units_Z            9
loop_
_atom_site_label
_atom_site_type_symbol
_atom_site_fract_x
_atom_site_fract_y
_atom_site_fract_z
S1 S 0.47200(12) 0.39389(12) 0.3892(2)
O1 O 0.5391(4) 0.6273(3) 0.0759(6)
O2 O 0.3982(3) 0.3882(3) 0.1971(7)
O3 O 0.5216(4) 0.4219(4) 0.4689(6)
O4 O 0.4105(4) 0.3527(4) 0.4288(7)
N1 N 0.5461(4) 0.5784(4) -0.0841(7)
N2 N 0.4737(4) 0.4536(4) 0.3209(7)
C1 C 0.5646(4) 0.6275(4) -0.1638(7)
C2 C 0.6229(5) 0.6531(5) -0.2128(9)
H1 H 0.6497 0.6389 -0.1937
C3 C 0.6400(6) 0.7004(5) -0.2911(9)
H2 H 0.6788 0.7185 -0.3246
C4 C 0.5994(7) 0.7208(5) -0.3195(9)
H3 H 0.6109 0.7519 -0.3729
C5 C 0.5418(6) 0.6952(5) -0.2689(9)
H4 H 0.5150 0.7095 -0.2879
C6 C 0.5240(5) 0.6483(5) -0.1902(10)
H5 H 0.4855 0.6310 -0.1557
C7 C 0.5329(4) 0.5183(4) -0.1140(8)
C8 C 0.5363(5) 0.4968(5) -0.2186(9)
H6 H 0.5515 0.5231 -0.2807
C9 C 0.5157(5) 0.4333(5) -0.2279(9)
H7 H 0.5157 0.4168 -0.2982
C10 C 0.4953(5) 0.3947(5) -0.1343(9)
H8 H 0.4827 0.3530 -0.1423
C11 C 0.4936(4) 0.4181(4) -0.0280(9)
H9 H 0.4801 0.3923 0.0348
C12 C 0.5121(4) 0.4802(4) -0.0174(8)
C13 C 0.5157(4) 0.5191(4) 0.0833(8)
C14 C 0.5345(5) 0.5817(4) 0.0289(8)
C15 C 0.5683(4) 0.5263(5) 0.1625(8)
H10 H 0.5650 0.4862 0.1723
H11 H 0.6077 0.5534 0.1268
C16 C 0.5671(5) 0.5520(5) 0.2766(8)
C17 C 0.6115(5) 0.6117(5) 0.3095(10)
H12 H 0.6438 0.6367 0.2612
C18 C 0.6069(5) 0.6333(5) 0.4150(10)
H13 H 0.6379 0.6721 0.4384
C19 C 0.5585(5) 0.5992(5) 0.4854(9)
H14 H 0.5563 0.6157 0.5545
C20 C 0.5116(5) 0.5394(5) 0.4550(9)
C21 C 0.5193(5) 0.5168(5) 0.3525(8)
C22 C 0.4563(6) 0.5034(6) 0.5274(9)
H15 H 0.4197 0.4863 0.4816
H16 H 0.4543 0.5301 0.5835
H17 H 0.4591 0.4705 0.5638
C23 C 0.4381(4) 0.4420(5) 0.2200(8)
C24 C 0.4538(4) 0.4963(4) 0.1461(8)
H18 H 0.4564 0.5298 0.1919
H19 H 0.4210 0.4850 0.0913
C25 C 0.4914(5) 0.3560(4) 0.2868(9)
C26 C 0.4464(5) 0.3032(5) 0.2334(10)
H20 H 0.4049 0.2870 0.2509
C27 C 0.4645(6) 0.2747(5) 0.1533(11)
H21 H 0.4346 0.2393 0.1170
C28 C 0.5259(6) 0.2979(5) 0.1265(11)
C29 C 0.5710(5) 0.3521(5) 0.1793(9)
H22 H 0.6124 0.3684 0.1602
C30 C 0.5543(5) 0.3814(5) 0.2596(9)
H23 H 0.5842 0.4173 0.2949
C31 C 0.5442(7) 0.2664(8) 0.0398(16)
H24 H 0.5084 0.2287 0.0163
H25 H 0.5740 0.2571 0.0718
H26 H 0.5621 0.2931 -0.0242
S2 S 0.06640(11) 0.24731(12) 0.57685(19)
O5 O 0.2797(3) 0.4333(3) 0.2463(6)
O6 O 0.0416(3) 0.2875(3) 0.3655(6)
O7 O 0.0129(4) 0.2521(4) 0.6007(7)
O8 O 0.1032(4) 0.2455(4) 0.6682(6)
N3 N 0.2409(4) 0.3706(4) 0.0893(7)
N4 N 0.1162(4) 0.3089(4) 0.4968(7)
C32 C 0.2893(4) 0.4074(5) 0.0118(8)
C33 C 0.3171(5) 0.3807(6) -0.0498(9)
H27 H 0.3054 0.3393 -0.0398
C34 C 0.3636(5) 0.4176(6) -0.1279(9)
H28 H 0.3824 0.4002 -0.1702
C35 C 0.3819(5) 0.4795(6) -0.1429(10)
H29 H 0.4128 0.5033 -0.1945
C36 C 0.3539(5) 0.5055(6) -0.0805(10)
H30 H 0.3660 0.5470 -0.0903
C37 C 0.3073(5) 0.4697(5) -0.0024(10)
H31 H 0.2885 0.4872 0.0395
C38 C 0.1861(5) 0.3149(5) 0.0628(9)
C39 C 0.1674(5) 0.2862(5) -0.0416(8)
H32 H 0.1926 0.3018 -0.1049
C40 C 0.1089(5) 0.2329(5) -0.0478(9)
H33 H 0.0949 0.2124 -0.1165
C41 C 0.0713(5) 0.2100(5) 0.0481(10)
H34 H 0.0325 0.1747 0.0426
C42 C 0.0915(5) 0.2395(5) 0.1507(9)
H35 H 0.0666 0.2240 0.2145
C43 C 0.1489(5) 0.2923(4) 0.1582(8)
C44 C 0.1814(4) 0.3342(4) 0.2570(7)
C45 C 0.2403(5) 0.3864(5) 0.2003(8)
C46 C 0.2013(5) 0.3011(5) 0.3440(8)
H36 H 0.1667 0.2600 0.3578
H37 H 0.2345 0.2965 0.3118
C47 C 0.2228(5) 0.3346(5) 0.4554(8)
C48 C 0.2849(5) 0.3631(6) 0.4885(10)
H38 H 0.3137 0.3604 0.4429
C49 C 0.3031(5) 0.3953(6) 0.5888(11)
H39 H 0.3440 0.4125 0.6120
C50 C 0.2625(6) 0.4027(6) 0.6550(10)
H40 H 0.2764 0.4253 0.7215
C51 C 0.2009(5) 0.3770(5) 0.6246(9)
C52 C 0.1813(5) 0.3399(5) 0.5263(8)
C53 C 0.0959(4) 0.3176(5) 0.3916(8)
C54 C 0.1456(5) 0.3633(5) 0.3135(8)
H41 H 0.1743 0.3997 0.3559
H42 H 0.1269 0.3760 0.2555
C55 C 0.1569(6) 0.3874(7) 0.6940(10)
H43 H 0.1301 0.3941 0.6450
H44 H 0.1797 0.4231 0.7411
H45 H 0.1325 0.3518 0.7404
C56 C 0.0474(5) 0.1838(5) 0.4906(8)
C57 C -0.0093(5) 0.1535(5) 0.4345(9)
H46 H -0.0383 0.1660 0.4451
C58 C -0.0222(5) 0.1047(5) 0.3629(10)
H47 H -0.0600 0.0845 0.3257
C59 C 0.0210(5) 0.0854(5) 0.3459(10)
C60 C 0.0769(5) 0.1149(5) 0.4038(10)
H48 H 0.1056 0.1019 0.3937
C61 C 0.0904(5) 0.1640(5) 0.4772(9)
H49 H 0.1276 0.1832 0.5166
C62 C 0.0074(7) 0.0329(6) 0.2670(13)
H50 H 0.0447 0.0316 0.2536
H51 H -0.0079 0.0391 0.1968
H52 H -0.0231 -0.0054 0.3003
S3 S 0.42683(12) 0.19220(11) 0.7965(2)
O9 O 0.2052(4) 0.1050(4) 0.4517(6)
O10 O 0.3881(3) 0.0869(3) 0.6510(6)
O11 O 0.4334(4) 0.1493(3) 0.8671(6)
O12 O 0.4250(4) 0.2436(3) 0.8474(7)
N5 N 0.2605(4) 0.1031(4) 0.2964(7)
N6 N 0.3601(4) 0.1538(4) 0.7238(7)
C63 C 0.2176(5) 0.0986(5) 0.2122(8)
C64 C 0.1850(5) 0.0455(5) 0.1489(8)
H53 H 0.1913 0.0121 0.1596
C65 C 0.1424(6) 0.0420(6) 0.0688(10)
H54 H 0.1206 0.0065 0.0254
C66 C 0.1326(6) 0.0915(6) 0.0539(9)
H55 H 0.1042 0.0893 0.0006
C67 C 0.1653(6) 0.1444(6) 0.1185(10)
H56 H 0.1586 0.1776 0.1085
C68 C 0.2078(6) 0.1482(5) 0.1982(10)
H57 H 0.2296 0.1836 0.2418
C69 C 0.3192(4) 0.1094(4) 0.2763(8)
C70 C 0.3428(5) 0.1032(5) 0.1757(9)
H58 H 0.3199 0.0929 0.1093
C71 C 0.4034(5) 0.1133(5) 0.1782(10)
H59 H 0.4213 0.1101 0.1115
C72 C 0.4373(5) 0.1279(5) 0.2776(10)
H60 H 0.4771 0.1337 0.2768
C73 C 0.4121(5) 0.1338(5) 0.3788(10)
H61 H 0.4347 0.1441 0.4455
C74 C 0.3517(5) 0.1238(4) 0.3771(8)
C75 C 0.3133(4) 0.1280(4) 0.4713(8)
C76 C 0.3423(5) 0.1969(4) 0.5122(8)
H62 H 0.3860 0.2134 0.5279
H63 H 0.3388 0.2215 0.4526
C77 C 0.3111(5) 0.2017(5) 0.6156(9)
C78 C 0.2718(6) 0.2273(6) 0.6137(9)
H64 H 0.2663 0.2432 0.5466
C79 C 0.2419(6) 0.2288(6) 0.7085(11)
H65 H 0.2167 0.2463 0.7054
C80 C 0.2484(6) 0.2050(6) 0.8087(10)
H66 H 0.2274 0.2066 0.8722
C81 C 0.2865(5) 0.1782(5) 0.8172(9)
C82 C 0.2926(6) 0.1521(6) 0.9269(9)
H67 H 0.2986 0.1176 0.9126
H68 H 0.2557 0.1386 0.9707
H69 H 0.3274 0.1833 0.9679
C83 C 0.3188(5) 0.1797(4) 0.7201(9)
C84 C 0.3516(4) 0.1058(4) 0.6499(8)
C85 C 0.2983(4) 0.0826(4) 0.5698(8)
H70 H 0.2621 0.0774 0.6096
H71 H 0.2891 0.0425 0.5406
C86 C 0.2531(5) 0.1111(4) 0.4088(8)
C87 C 0.4844(5) 0.2211(5) 0.6920(9)
C88 C 0.5157(5) 0.1894(5) 0.6681(11)
H72 H 0.5079 0.1545 0.7092
C89 C 0.5592(5) 0.2113(5) 0.5806(12)
H73 H 0.5814 0.1914 0.5654
C90 C 0.5697(5) 0.2616(5) 0.5164(11)
C91 C 0.6127(6) 0.2799(7) 0.4157(13)
H74 H 0.6449 0.2705 0.4307
H75 H 0.6306 0.3234 0.4020
H76 H 0.5897 0.2573 0.3504
C92 C 0.5386(5) 0.2937(5) 0.5435(11)
H77 H 0.5466 0.3287 0.5026
C93 C 0.4959(5) 0.2733(5) 0.6315(10)
H78 H 0.4752 0.2945 0.6495
O13 O 0.2811(7) 0.6022(7) 0.0089(13)
H79 H 0.3150 0.6314 -0.0171
C94 C 0.2361(18) 0.614(2) -0.054(3)
H80 H 0.1993 0.6001 -0.0077
H81 H 0.2542 0.6585 -0.0637
C95 C 0.2175(16) 0.5838(17) -0.166(3)
H82 H 0.2532 0.5875 -0.2039
H83 H 0.2000 0.6035 -0.2102
H84 H 0.1874 0.5409 -0.1563
O14 O 0.2692(8) 0.6084(7) 0.2355(14)
H85 H 0.2755 0.6033 0.1690
C96 C 0.2784(16) 0.5610(15) 0.284(3)
H86 H 0.3224 0.5752 0.2879
H87 H 0.2590 0.5243 0.2373
C97 C 0.2509(16) 0.5450(14) 0.403(3)
H88 H 0.2066 0.5252 0.3988
H89 H 0.2664 0.5822 0.4472
H90 H 0.2623 0.5176 0.4389
loop_
_geom_bond_atom_site_label_1
_geom_bond_atom_site_label_2
_geom_bond_site_symmetry_1
_geom_bond_site_symmetry_2
S1 O3 1_555 1_555
O1 C14 1_555 1_555
O2 C23 1_555 1_555
O4 S1 1_555 1_555
N1 C1 1_555 1_555
N2 S1 1_555 1_555
C1 C2 1_555 1_555
C2 H1 1_555 1_555
C3 C2 1_555 1_555
H2 C3 1_555 1_555
C4 C3 1_555 1_555
H3 C4 1_555 1_555
C5 C4 1_555 1_555
H4 C5 1_555 1_555
C6 C1 1_555 1_555
H5 C6 1_555 1_555
C7 N1 1_555 1_555
C8 C7 1_555 1_555
H6 C8 1_555 1_555
C9 C8 1_555 1_555
H7 C9 1_555 1_555
C10 C9 1_555 1_555
H8 C10 1_555 1_555
C11 C10 1_555 1_555
H9 C11 1_555 1_555
C12 C7 1_555 1_555
C13 C12 1_555 1_555
C14 N1 1_555 1_555
C15 C13 1_555 1_555
H10 C15 1_555 1_555
H11 C15 1_555 1_555
C16 C15 1_555 1_555
C17 C16 1_555 1_555
H12 C17 1_555 1_555
C18 C17 1_555 1_555
H13 C18 1_555 1_555
C19 C18 1_555 1_555
H14 C19 1_555 1_555
C20 C19 1_555 1_555
C21 N2 1_555 1_555
C22 C20 1_555 1_555
H15 C22 1_555 1_555
H16 C22 1_555 1_555
H17 C22 1_555 1_555
C23 N2 1_555 1_555
C24 C13 1_555 1_555
H18 C24 1_555 1_555
H19 C24 1_555 1_555
C25 S1 1_555 1_555
C26 C25 1_555 1_555
H20 C26 1_555 1_555
C27 C26 1_555 1_555
H21 C27 1_555 1_555
C28 C27 1_555 1_555
C29 C28 1_555 1_555
H22 C29 1_555 1_555
C30 C25 1_555 1_555
H23 C30 1_555 1_555
C31 C28 1_555 1_555
H24 C31 1_555 1_555
H25 C31 1_555 1_555
H26 C31 1_555 1_555
S2 O7 1_555 1_555
O5 C45 1_555 1_555
O6 C53 1_555 1_555
O8 S2 1_555 1_555
N3 C32 1_555 1_555
N4 S2 1_555 1_555
C32 C33 1_555 1_555
C33 H27 1_555 1_555
C34 C33 1_555 1_555
H28 C34 1_555 1_555
C35 C34 1_555 1_555
H29 C35 1_555 1_555
C36 C35 1_555 1_555
H30 C36 1_555 1_555
C37 C32 1_555 1_555
H31 C37 1_555 1_555
C38 N3 1_555 1_555
C39 C38 1_555 1_555
H32 C39 1_555 1_555
C40 C39 1_555 1_555
H33 C40 1_555 1_555
C41 C40 1_555 1_555
H34 C41 1_555 1_555
C42 C41 1_555 1_555
H35 C42 1_555 1_555
C43 C38 1_555 1_555
C44 C43 1_555 1_555
C45 N3 1_555 1_555
C46 C44 1_555 1_555
H36 C46 1_555 1_555
H37 C46 1_555 1_555
C47 C46 1_555 1_555
C48 C47 1_555 1_555
H38 C48 1_555 1_555
C49 C48 1_555 1_555
H39 C49 1_555 1_555
C50 C49 1_555 1_555
H40 C50 1_555 1_555
C51 C50 1_555 1_555
C52 N4 1_555 1_555
C53 N4 1_555 1_555
C54 C44 1_555 1_555
H41 C54 1_555 1_555
H42 C54 1_555 1_555
C55 C51 1_555 1_555
H43 C55 1_555 1_555
H44 C55 1_555 1_555
H45 C55 1_555 1_555
C56 S2 1_555 1_555
C57 C56 1_555 1_555
H46 C57 1_555 1_555
C58 C57 1_555 1_555
H47 C58 1_555 1_555
C59 C58 1_555 1_555
C60 C59 1_555 1_555
H48 C60 1_555 1_555
C61 C56 1_555 1_555
H49 C61 1_555 1_555
C62 C59 1_555 1_555
H50 C62 1_555 1_555
H51 C62 1_555 1_555
H52 C62 1_555 1_555
S3 O11 1_555 1_555
O9 C86 1_555 1_555
O10 C84 1_555 1_555
O12 S3 1_555 1_555
N5 C63 1_555 1_555
N6 S3 1_555 1_555
C63 C64 1_555 1_555
C64 H53 1_555 1_555
C65 C64 1_555 1_555
H54 C65 1_555 1_555
C66 C65 1_555 1_555
H55 C66 1_555 1_555
C67 C66 1_555 1_555
H56 C67 1_555 1_555
C68 C63 1_555 1_555
H57 C68 1_555 1_555
C69 N5 1_555 1_555
C70 C69 1_555 1_555
H58 C70 1_555 1_555
C71 C70 1_555 1_555
H59 C71 1_555 1_555
C72 C71 1_555 1_555
H60 C72 1_555 1_555
C73 C72 1_555 1_555
H61 C73 1_555 1_555
C74 C69 1_555 1_555
C75 C74 1_555 1_555
C76 C75 1_555 1_555
H62 C76 1_555 1_555
H63 C76 1_555 1_555
C77 C76 1_555 1_555
C78 C77 1_555 1_555
H64 C78 1_555 1_555
C79 C78 1_555 1_555
H65 C79 1_555 1_555
C80 C79 1_555 1_555
H66 C80 1_555 1_555
C81 C80 1_555 1_555
C82 C81 1_555 1_555
H67 C82 1_555 1_555
H68 C82 1_555 1_555
H69 C82 1_555 1_555
C83 N6 1_555 1_555
C84 N6 1_555 1_555
C85 C75 1_555 1_555
H70 C85 1_555 1_555
H71 C85 1_555 1_555
C86 N5 1_555 1_555
C87 S3 1_555 1_555
C88 C87 1_555 1_555
H72 C88 1_555 1_555
C89 C88 1_555 1_555
H73 C89 1_555 1_555
C90 C89 1_555 1_555
C91 C90 1_555 1_555
H74 C91 1_555 1_555
H75 C91 1_555 1_555
H76 C91 1_555 1_555
C92 C90 1_555 1_555
H77 C92 1_555 1_555
C93 C87 1_555 1_555
H78 C93 1_555 1_555
O13 H79 1_555 1_555
C94 O13 1_555 1_555
H80 C94 1_555 1_555
H81 C94 1_555 1_555
C95 C94 1_555 1_555
H82 C95 1_555 1_555
H83 C95 1_555 1_555
H84 C95 1_555 1_555
O14 H85 1_555 1_555
C96 O14 1_555 1_555
H86 C96 1_555 1_555
H87 C96 1_555 1_555
C97 C96 1_555 1_555
H88 C97 1_555 1_555
H89 C97 1_555 1_555
H90 C97 1_555 1_555
C5 C6 1_555 1_555
C11 C12 1_555 1_555
C13 C14 1_555 1_555
C16 C21 1_555 1_555
C20 C21 1_555 1_555
C23 C24 1_555 1_555
C29 C30 1_555 1_555
C36 C37 1_555 1_555
C42 C43 1_555 1_555
C44 C45 1_555 1_555
C47 C52 1_555 1_555
C51 C52 1_555 1_555
C53 C54 1_555 1_555
C60 C61 1_555 1_555
C67 C68 1_555 1_555
C73 C74 1_555 1_555
C75 C86 1_555 1_555
C77 C83 1_555 1_555
C81 C83 1_555 1_555
C84 C85 1_555 1_555
C92 C93 1_555 1_555

#END
