
#######################################################################
#
#                 Cambridge Crystallographic Data Centre
#                                CCDC 
#
#######################################################################
#
# If this CIF has been generated from an entry in the Cambridge 
# Structural Database, then it will include bibliographic, chemical, 
# crystal, experimental, refinement or atomic coordinate data resulting 
# from the CCDC's data processing and validation procedures.
#
#######################################################################

data_AQUFEY
_chemical_name_common            
'((4,8,11-Triaza-1-azoniacyclotetradecan-8-yl)acetyl)amino tosylate tosylamine solvate'
_chemical_formula_moiety         'C19 H33 N5 O3 S1,C7 H9 N1 O2 S1'
_chemical_name_systematic        
'((4-Methylphenyl)sulfonyl)(4,8,11-triaza-1-azoniacyclotetradecan-11-ylacetyl)azanide 4-methylbenzenesulfonamide solvate'
_symmetry_cell_setting           monoclinic
_symmetry_space_group_name_H-M   'P 21/c'
_symmetry_Int_Tables_number      14
_space_group_name_Hall           '-P 2ybc'
loop_
_symmetry_equiv_pos_site_id
_symmetry_equiv_pos_as_xyz
1 x,y,z
2 -x,1/2+y,1/2-z
3 -x,-y,-z
4 x,1/2-y,1/2+z
_cell_length_a                   15.3876(4)
_cell_length_b                   9.3581(4)
_cell_length_c                   20.5995(7)
_cell_angle_alpha                90
_cell_angle_beta                 96.683(2)
_cell_angle_gamma                90
_cell_volume                     2946.15
_exptl_crystal_colour            colorless
_exptl_crystal_description       prism
_cell_formula_units_Z            4
loop_
_atom_site_label
_atom_site_type_symbol
_atom_site_fract_x
_atom_site_fract_y
_atom_site_fract_z
C1 C 0.1863(2) 0.5183(4) 0.34787(16)
H1 H 0.1633 0.4669 0.3842
H2 H 0.1644 0.6177 0.3473
C2 C 0.2863(2) 0.5185(3) 0.35841(16)
H3 H 0.3059 0.5665 0.4004
H4 H 0.3073 0.4185 0.3617
C3 C 0.4204(2) 0.5538(4) 0.30971(17)
H5 H 0.4444 0.5447 0.3562
H6 H 0.4519 0.6327 0.2906
C4 C 0.4375(2) 0.4150(4) 0.27426(17)
H7 H 0.4017 0.3378 0.2904
H8 H 0.4998 0.3883 0.2848
C5 C 0.4164(2) 0.4265(4) 0.19993(18)
H9 H 0.4477 0.5090 0.1836
H10 H 0.4359 0.3389 0.1789
C6 C 0.2904(2) 0.4811(4) 0.11372(16)
H11 H 0.3151 0.4123 0.0843
H12 H 0.3106 0.5781 0.1035
C7 C 0.1915(2) 0.4751(4) 0.10313(17)
H13 H 0.1706 0.5076 0.0583
H14 H 0.1718 0.3753 0.1078
C8 C 0.0589(2) 0.5449(4) 0.15126(18)
H15 H 0.0321 0.5238 0.1063
H16 H 0.0329 0.6348 0.1653
C9 C 0.0366(2) 0.4240(4) 0.19643(18)
H17 H -0.0270 0.4048 0.1885
H18 H 0.0675 0.3363 0.1851
C10 C 0.0609(2) 0.4553(4) 0.26863(17)
H19 H 0.0395 0.5516 0.2788
H20 H 0.0321 0.3848 0.2949
C11 C 0.3131(2) 0.7461(3) 0.30748(16)
H21 H 0.3587 0.7889 0.3395
H22 H 0.2555 0.7662 0.3224
C12 C 0.3169(2) 0.8158(3) 0.24140(16)
C13 C 0.2131(2) 0.9575(3) 0.11499(15)
C14 C 0.1242(2) 0.9623(4) 0.12055(16)
H23 H 0.1035 1.0115 0.1560
C15 C 0.0660(2) 0.8950(4) 0.07417(17)
H24 H 0.0051 0.8988 0.0781
C16 C 0.0948(2) 0.8219(4) 0.02175(16)
C17 C 0.1846(2) 0.8187(4) 0.01705(16)
H25 H 0.2055 0.7703 -0.0186
C18 C 0.2437(2) 0.8847(4) 0.06323(16)
H26 H 0.3047 0.8805 0.0597
C19 C 0.0308(2) 0.7471(4) -0.02758(18)
H27 H -0.0227 0.7255 -0.0079
H28 H 0.0568 0.6580 -0.0413
H29 H 0.0166 0.8091 -0.0657
N1 N 0.32629(17) 0.5908(3) 0.30581(13)
N2 N 0.15599(17) 0.4485(3) 0.28607(14)
H30 H 0.180(2) 0.492(4) 0.2545(18)
N3 N 0.15394(19) 0.5660(3) 0.15063(14)
H31 H 0.165(2) 0.648(5) 0.1432(19)
N4 N 0.32047(18) 0.4452(3) 0.18291(14)
H32 H 0.304(2) 0.517(4) 0.2100(18)
H33 H 0.294(2) 0.370(4) 0.1918(18)
N5 N 0.29048(17) 0.9544(3) 0.24128(13)
O1 O 0.37100(15) 1.0550(3) 0.14955(12)
O2 O 0.24619(15) 1.1784(2) 0.18861(12)
O3 O 0.34133(15) 0.7484(2) 0.19506(11)
S1 S 0.28776(5) 1.04299(8) 0.17484(4)
C20 C 0.2910(2) 0.3384(4) -0.07426(16)
C21 C 0.3016(2) 0.2452(4) -0.02190(16)
H34 H 0.2521 0.2073 -0.0043
C22 C 0.3856(2) 0.2075(4) 0.00468(17)
H35 H 0.3935 0.1442 0.0409
C23 C 0.4579(3) 0.2612(5) -0.02115(19)
C24 C 0.4460(3) 0.3510(6) -0.0744(2)
H36 H 0.4956 0.3863 -0.0927
C25 C 0.3623(2) 0.3909(4) -0.10189(19)
H37 H 0.3545 0.4527 -0.1387
C26 C 0.5498(3) 0.2224(7) 0.0087(3)
H38 H 0.5629 0.1239 -0.0031
H39 H 0.5539 0.2309 0.0563
H40 H 0.5920 0.2873 -0.0080
N6 N 0.17263(19) 0.3596(3) -0.18397(15)
H41 H 0.202(3) 0.409(5) -0.2090(19)
H42 H 0.170(2) 0.261(5) -0.1944(18)
O4 O 0.18250(17) 0.5458(3) -0.10038(13)
O5 O 0.12409(16) 0.3069(3) -0.07676(12)
S2 S 0.18432(5) 0.39351(10) -0.10744(4)
loop_
_geom_bond_atom_site_label_1
_geom_bond_atom_site_label_2
_geom_bond_site_symmetry_1
_geom_bond_site_symmetry_2
C1 H1 1_555 1_555
H2 C1 1_555 1_555
C2 C1 1_555 1_555
H3 C2 1_555 1_555
H4 C2 1_555 1_555
C3 H5 1_555 1_555
H6 C3 1_555 1_555
C4 C3 1_555 1_555
H7 C4 1_555 1_555
H8 C4 1_555 1_555
C5 C4 1_555 1_555
H9 C5 1_555 1_555
H10 C5 1_555 1_555
C6 H11 1_555 1_555
H12 C6 1_555 1_555
C7 C6 1_555 1_555
H13 C7 1_555 1_555
H14 C7 1_555 1_555
C8 H15 1_555 1_555
H16 C8 1_555 1_555
C9 C8 1_555 1_555
H17 C9 1_555 1_555
H18 C9 1_555 1_555
C10 C9 1_555 1_555
H19 C10 1_555 1_555
H20 C10 1_555 1_555
C11 H21 1_555 1_555
H22 C11 1_555 1_555
C12 C11 1_555 1_555
C13 C14 1_555 1_555
C14 H23 1_555 1_555
C15 C14 1_555 1_555
H24 C15 1_555 1_555
C16 C15 1_555 1_555
C17 C16 1_555 1_555
H25 C17 1_555 1_555
C18 C13 1_555 1_555
H26 C18 1_555 1_555
C19 C16 1_555 1_555
H27 C19 1_555 1_555
H28 C19 1_555 1_555
H29 C19 1_555 1_555
N1 C2 1_555 1_555
N2 C1 1_555 1_555
H30 N2 1_555 1_555
N3 C7 1_555 1_555
H31 N3 1_555 1_555
N4 C5 1_555 1_555
H32 N4 1_555 1_555
H33 N4 1_555 1_555
N5 C12 1_555 1_555
O1 S1 1_555 1_555
O2 S1 1_555 1_555
O3 C12 1_555 1_555
S1 C13 1_555 1_555
C20 C21 1_555 1_555
C21 H34 1_555 1_555
C22 C21 1_555 1_555
H35 C22 1_555 1_555
C23 C22 1_555 1_555
C24 C23 1_555 1_555
H36 C24 1_555 1_555
C25 C20 1_555 1_555
H37 C25 1_555 1_555
C26 C23 1_555 1_555
H38 C26 1_555 1_555
H39 C26 1_555 1_555
H40 C26 1_555 1_555
N6 H41 1_555 1_555
H42 N6 1_555 1_555
O4 S2 1_555 1_555
O5 S2 1_555 1_555
S2 C20 1_555 1_555
C3 N1 1_555 1_555
C6 N4 1_555 1_555
C8 N3 1_555 1_555
C10 N2 1_555 1_555
C11 N1 1_555 1_555
C17 C18 1_555 1_555
N5 S1 1_555 1_555
C24 C25 1_555 1_555
N6 S2 1_555 1_555

#END
