
#######################################################################
#
#                 Cambridge Crystallographic Data Centre
#                                CCDC 
#
#######################################################################
#
# If this CIF has been generated from an entry in the Cambridge 
# Structural Database, then it will include bibliographic, chemical, 
# crystal, experimental, refinement or atomic coordinate data resulting 
# from the CCDC's data processing and validation procedures.
#
#######################################################################

data_AQUFAV
_chemical_formula_moiety         'C15 H14 O4'
_chemical_name_systematic        
'ethyl 3-formyl-4-hydroxy-2-methyl-1-naphthoate'
_symmetry_cell_setting           triclinic
_symmetry_space_group_name_H-M   'P -1'
_symmetry_Int_Tables_number      2
_space_group_name_Hall           '-P 1'
loop_
_symmetry_equiv_pos_site_id
_symmetry_equiv_pos_as_xyz
1 x,y,z
2 -x,-y,-z
_cell_length_a                   7.1150(14)
_cell_length_b                   9.0240(18)
_cell_length_c                   21.250(4)
_cell_angle_alpha                100.60(3)
_cell_angle_beta                 96.60(3)
_cell_angle_gamma                100.32(3)
_cell_volume                     1303.87
_exptl_crystal_colour            colorless
_exptl_crystal_description       block
_cell_formula_units_Z            4
loop_
_atom_site_label
_atom_site_type_symbol
_atom_site_fract_x
_atom_site_fract_y
_atom_site_fract_z
O1 O 0.6117(3) 0.9733(2) 0.31582(10)
H1 H 0.6045 0.9496 0.3510
O2 O 0.5889(3) 0.7980(3) 0.39605(9)
O3 O 0.5253(3) 0.3900(2) 0.08644(9)
O4 O 0.2227(3) 0.4031(2) 0.09568(9)
C1 C 0.5608(3) 0.8460(3) 0.26868(14)
C2 C 0.5239(3) 0.7011(3) 0.28283(11)
C3 C 0.4715(3) 0.5678(2) 0.23130(11)
C4 C 0.4583(3) 0.5857(2) 0.16849(10)
C5 C 0.4948(3) 0.7350(3) 0.15338(12)
C6 C 0.4820(4) 0.7555(3) 0.08877(14)
H2 H 0.4500 0.6702 0.0546
C7 C 0.5167(5) 0.9002(4) 0.0766(2)
H3 H 0.5072 0.9126 0.0339
C8 C 0.5657(5) 1.0290(4) 0.1264(3)
H4 H 0.5886 1.1266 0.1169
C9 C 0.5807(4) 1.0144(3) 0.1894(2)
H5 H 0.6137 1.1016 0.2226
C10 C 0.5460(3) 0.8665(3) 0.20408(14)
C11 C 0.5395(4) 0.6884(4) 0.34962(13)
H6 H 0.5101 0.5902 0.3583
C12 C 0.4319(4) 0.4094(3) 0.24670(12)
H7 H 0.3990 0.3330 0.2071
H8 H 0.3264 0.4008 0.2711
H9 H 0.5451 0.3938 0.2717
C13 C 0.4110(4) 0.4498(3) 0.11300(11)
C14 C 0.1566(5) 0.2706(5) 0.04142(17)
H10 H 0.1826 0.3008 0.0013
H11 H 0.2256 0.1896 0.0475
C15 C -0.0414(7) 0.2164(6) 0.0381(2)
H12 H -0.0850 0.1293 0.0027
H13 H -0.1092 0.2965 0.0315
H14 H -0.0662 0.1862 0.0779
O5 O 0.0838(3) 0.9969(3) 0.22680(12)
H15 H 0.0675 0.9658 0.1874
O6 O -0.0115(4) 0.8013(4) 0.12075(12)
O7 O 0.1453(3) 0.4496(2) 0.37361(12)
O8 O -0.1589(3) 0.4703(2) 0.37327(10)
C16 C 0.0639(4) 0.8759(4) 0.25606(15)
C17 C 0.0087(3) 0.7253(4) 0.22145(12)
C18 C -0.0104(3) 0.6011(3) 0.25485(11)
C19 C 0.0272(3) 0.6341(2) 0.32076(11)
C20 C 0.0856(3) 0.7888(3) 0.35759(12)
C21 C 0.1266(4) 0.8243(3) 0.42502(12)
H16 H 0.1149 0.7449 0.4476
C22 C 0.1833(4) 0.9724(4) 0.45830(16)
H17 H 0.2131 0.9927 0.5032
C23 C 0.1974(5) 1.0934(4) 0.4265(2)
H18 H 0.2334 1.1944 0.4499
C24 C 0.1588(4) 1.0644(3) 0.3610(2)
H19 H 0.1691 1.1461 0.3397
C25 C 0.1031(4) 0.9121(3) 0.32468(14)
C26 C -0.0283(4) 0.6973(5) 0.15120(15)
H20 H -0.0665 0.5960 0.1281
C27 C -0.0698(4) 0.4372(3) 0.21738(13)
H21 H -0.0755 0.3686 0.2470
H22 H 0.0230 0.4159 0.1893
H23 H -0.1947 0.4226 0.1919
C28 C 0.0144(4) 0.5085(3) 0.35773(12)
C29 C -0.1896(6) 0.3509(4) 0.41159(18)
H24 H -0.2105 0.2497 0.3836
H25 H -0.0765 0.3628 0.4437
C30 C -0.3531(6) 0.3656(6) 0.4425(2)
H26 H -0.3749 0.2879 0.4678
H27 H -0.4644 0.3531 0.4104
H28 H -0.3308 0.4657 0.4704
loop_
_geom_bond_atom_site_label_1
_geom_bond_atom_site_label_2
_geom_bond_site_symmetry_1
_geom_bond_site_symmetry_2
O1 H1 1_555 1_555
O2 C11 1_555 1_555
O3 C13 1_555 1_555
O4 C13 1_555 1_555
C1 O1 1_555 1_555
C2 C1 1_555 1_555
C3 C2 1_555 1_555
C4 C3 1_555 1_555
C5 C4 1_555 1_555
C6 C5 1_555 1_555
H2 C6 1_555 1_555
C7 C6 1_555 1_555
H3 C7 1_555 1_555
C8 C7 1_555 1_555
H4 C8 1_555 1_555
C9 C8 1_555 1_555
H5 C9 1_555 1_555
C10 C1 1_555 1_555
C11 C2 1_555 1_555
H6 C11 1_555 1_555
C12 C3 1_555 1_555
H7 C12 1_555 1_555
H8 C12 1_555 1_555
H9 C12 1_555 1_555
C13 C4 1_555 1_555
C14 O4 1_555 1_555
H10 C14 1_555 1_555
H11 C14 1_555 1_555
C15 C14 1_555 1_555
H12 C15 1_555 1_555
H13 C15 1_555 1_555
H14 C15 1_555 1_555
O5 H15 1_555 1_555
O6 C26 1_555 1_555
O7 C28 1_555 1_555
O8 C28 1_555 1_555
C16 O5 1_555 1_555
C17 C16 1_555 1_555
C18 C17 1_555 1_555
C19 C18 1_555 1_555
C20 C19 1_555 1_555
C21 C20 1_555 1_555
H16 C21 1_555 1_555
C22 C21 1_555 1_555
H17 C22 1_555 1_555
C23 C22 1_555 1_555
H18 C23 1_555 1_555
C24 C23 1_555 1_555
H19 C24 1_555 1_555
C25 C16 1_555 1_555
C26 C17 1_555 1_555
H20 C26 1_555 1_555
C27 C18 1_555 1_555
H21 C27 1_555 1_555
H22 C27 1_555 1_555
H23 C27 1_555 1_555
C28 C19 1_555 1_555
C29 O8 1_555 1_555
H24 C29 1_555 1_555
H25 C29 1_555 1_555
C30 C29 1_555 1_555
H26 C30 1_555 1_555
H27 C30 1_555 1_555
H28 C30 1_555 1_555
C5 C10 1_555 1_555
C9 C10 1_555 1_555
C20 C25 1_555 1_555
C24 C25 1_555 1_555

#END
