
#######################################################################
#
#                 Cambridge Crystallographic Data Centre
#                                CCDC 
#
#######################################################################
#
# If this CIF has been generated from an entry in the Cambridge 
# Structural Database, then it will include bibliographic, chemical, 
# crystal, experimental, refinement or atomic coordinate data resulting 
# from the CCDC's data processing and validation procedures.
#
#######################################################################

data_ARAFAB
_chemical_name_common            
"2,2'-(3,6,9,12,15-Pentaoxahexacyclo[15.15.7.1$23,27!.1$34,38!.0$2,29!.0$ 16,21!]hentetraconta-1,16,18,20,23(41),24,26,29,31,34(40),35,37-dodecaene-40,41-diylbis(oxy))bis(N-(pyren-1-ylmethyl)acetamide) 2-methyl-1,3,5-trinitrobenzene solvate hydrate"
_chemical_formula_moiety         'C74 H64 N2 O9,C7 H5 N3 O6,5.33(H2 O1)'
_chemical_name_systematic        
'25,27-bis((2-oxo-2-[(pyren-1-ylmethyl)amino]ethyl)oxidanyl)calix(4)arene crown-5 2-methyl-1,3,5-trinitrobenzene solvate hydrate'
_symmetry_cell_setting           triclinic
_symmetry_space_group_name_H-M   'P -1'
_symmetry_Int_Tables_number      2
_space_group_name_Hall           '-P 1'
loop_
_symmetry_equiv_pos_site_id
_symmetry_equiv_pos_as_xyz
1 x,y,z
2 -x,-y,-z
_cell_length_a                   9.847(2)
_cell_length_b                   15.106(3)
_cell_length_c                   23.046(5)
_cell_angle_alpha                95.648(14)
_cell_angle_beta                 94.267(14)
_cell_angle_gamma                92.695(14)
_cell_volume                     3396.86
_cell_formula_units_Z            2
loop_
_atom_site_label
_atom_site_type_symbol
_atom_site_fract_x
_atom_site_fract_y
_atom_site_fract_z
N1 N 0.8343(5) 0.7749(4) 0.1667(2)
H1 H 0.9124 0.7614 0.1816
N2 N 0.3446(6) 0.8143(4) 0.1889(3)
H2 H 0.4255 0.8038 0.2023
O1 O 0.6768(6) 0.5462(3) 0.3737(2)
O2 O 0.7519(5) 0.8964(4) 0.4198(2)
O3 O 0.1218(5) 0.8114(6) 0.2049(3)
O4 O 0.6048(5) 0.7658(3) 0.1730(2)
O5 O 0.8852(5) 0.7297(4) 0.2715(2)
O6 O 0.4093(5) 0.7547(3) 0.2937(2)
O7 O 0.7704(7) 0.7279(6) 0.5771(4)
O8 O 0.9115(12) 0.9035(8) 0.5358(4)
O9 O 0.730(2) 0.5078(6) 0.4989(4)
C1 C 0.4415(9) 0.6579(5) 0.4335(3)
H3 H 0.4387 0.6026 0.4479
C2 C 0.4702(10) 1.0934(5) 0.1688(3)
C3 C 1.0369(9) 0.6743(9) -0.0260(4)
C4 C 0.4605(8) 0.7337(6) 0.4720(3)
H4 H 0.4655 0.7295 0.5120
C5 C 0.3256(8) 0.8511(6) 0.1324(3)
H5 H 0.2295 0.8601 0.1242
H6 H 0.3525 0.8079 0.1020
C6 C 1.0118(8) 0.8000(7) 0.0445(3)
H7 H 1.0420 0.8567 0.0613
C7 C 0.6586(11) 1.1757(6) 0.1302(4)
H8 H 0.7264 1.1782 0.1043
C8 C 0.9316(8) 0.7166(8) 0.3286(4)
C9 C 1.0834(9) 0.7601(9) 0.0018(4)
H9 H 1.1619 0.7885 -0.0092
C10 C 0.7268(8) 0.6293(5) 0.0563(3)
H10 H 0.6801 0.6554 0.0866
C11 C 0.9178(9) 0.6350(7) -0.0088(3)
C12 C 0.8654(13) 0.5517(9) -0.0379(4)
C13 C 0.6421(14) 0.5469(5) 0.3142(4)
C14 C 0.2646(8) 0.7572(7) 0.2769(4)
H11 H 0.2218 0.7923 0.3073
H12 H 0.2231 0.6972 0.2733
C15 C 0.8314(9) 0.9480(5) 0.2739(3)
H13 H 0.9065 0.9554 0.2524
C16 C 0.7148(10) 0.4541(5) 0.4515(4)
H14 H 0.6423 0.4119 0.4590
H15 H 0.7970 0.4212 0.4527
C17 C 0.6817(10) 0.5495(7) 0.0290(4)
H16 H 0.6071 0.5203 0.0428
C18 C 0.2729(10) 1.0151(7) 0.2079(4)
H17 H 0.2116 0.9660 0.2062
C19 C 0.5109(12) 0.5585(5) 0.2924(4)
C20 C 0.9822(8) 0.7902(9) 0.3669(4)
C21 C 0.4015(10) 0.5775(5) 0.3339(4)
H18 H 0.3932 0.5282 0.3577
H19 H 0.3152 0.5799 0.3111
C22 C 0.9835(9) 0.8863(9) 0.3516(4)
H20 H 1.0185 0.9250 0.3861
H21 H 1.0468 0.8926 0.3218
C23 C 0.9455(10) 0.6306(10) 0.3421(5)
C24 C 0.4522(13) 1.1677(6) 0.2095(4)
C25 C 0.7666(10) 0.9738(8) 0.4615(4)
H22 H 0.6948 1.0139 0.4539
H23 H 0.8541 1.0053 0.4596
C26 C 0.3501(16) 1.1643(7) 0.2486(5)
C27 C 0.7494(11) 0.5944(7) 0.5069(5)
H24 H 0.6700 0.6197 0.4888
H25 H 0.8265 0.6107 0.4856
C28 C 0.713(2) 0.5349(6) 0.2166(5)
H26 H 0.7800 0.5273 0.1903
C29 C 0.2603(14) 1.0876(8) 0.2471(5)
H27 H 0.1925 1.0867 0.2731
C30 C 0.4875(13) 0.5535(5) 0.2335(4)
H28 H 0.3987 0.5602 0.2184
C31 C 1.1070(14) 0.6336(13) -0.0731(6)
H29 H 1.1860 0.6619 -0.0837
C32 C 0.7535(13) 0.5412(5) 0.2777(4)
C33 C 0.9001(16) 0.5478(10) 0.2990(6)
H30 H 0.9203 0.4949 0.3181
H31 H 0.9542 0.5480 0.2655
C34 C 0.337(2) 1.2408(8) 0.2898(6)
H32 H 0.2744 1.2384 0.3179
C35 C 0.7433(13) 0.5070(7) -0.0203(4)
C36 C 0.6425(16) 1.2454(6) 0.1687(4)
H33 H 0.6997 1.2964 0.1695
C37 C 0.9382(19) 0.5112(12) -0.0869(5)
C38 C 0.5826(19) 0.5395(7) 0.1950(5)
H34 H 0.5591 0.5333 0.1549
C39 C 0.6937(16) 0.4276(8) -0.0502(5)
H35 H 0.6156 0.4000 -0.0383
C40 C 0.7557(19) 0.9354(10) 0.5284(5)
H36 H 0.7378 0.9821 0.5584
H37 H 0.6883 0.8862 0.5274
C41 C 0.531(3) 1.3169(7) 0.2504(6)
H38 H 0.5952 1.3649 0.2543
C42 C 0.5384(16) 1.2435(6) 0.2092(5)
C43 C 1.0454(10) 0.7756(13) 0.4212(5)
H39 H 1.0764 0.8228 0.4486
C44 C 0.412(2) 1.3126(8) 0.2882(6)
H40 H 0.3923 1.3639 0.3111
C45 C 1.0644(17) 0.5616(13) -0.1001(7)
H41 H 1.1137 0.5376 -0.1302
C46 C 0.917(2) 0.8596(11) 0.5883(7)
H42 H 1.0079 0.8662 0.6081
H43 H 0.8527 0.8835 0.6148
C47 C 1.0166(15) 0.6203(14) 0.3955(8)
H44 H 1.0325 0.5626 0.4042
C48 C 0.690(3) 0.4645(8) 0.3941(5)
H45 H 0.6067 0.4292 0.3807
H46 H 0.7628 0.4367 0.3741
C49 C 0.754(3) 0.3870(11) -0.0969(6)
H47 H 0.7194 0.3328 -0.1162
C50 C 1.0610(16) 0.684(2) 0.4330(8)
H48 H 1.1040 0.6723 0.4685
C51 C 0.879(3) 0.7621(13) 0.5670(9)
H49 H 0.8826 0.7556 0.5249
H50 H 0.9495 0.7271 0.5831
C52 C 0.875(3) 0.4324(15) -0.1147(8)
H51 H 0.9138 0.4067 -0.1475
C53 C 0.8249(7) 0.8115(5) 0.1108(3)
H52 H 0.8638 0.8722 0.1162
H53 H 0.7294 0.8135 0.0975
C54 C 0.7231(7) 0.7618(4) 0.1955(3)
C55 C 0.6047(8) 0.9315(4) 0.3385(3)
C56 C 0.7333(8) 0.9180(5) 0.3628(3)
C57 C 0.4589(7) 0.8243(5) 0.3915(3)
C58 C 0.5927(9) 0.9560(5) 0.2824(3)
H54 H 0.5069 0.9660 0.2654
C59 C 0.7436(7) 0.7412(5) 0.2572(3)
H55 H 0.7130 0.7896 0.2831
H56 H 0.6905 0.6873 0.2624
C60 C 0.4323(6) 0.7460(5) 0.3536(3)
C61 C 0.4722(7) 0.8168(5) 0.4510(3)
H57 H 0.4890 0.8677 0.4771
C62 C 0.5708(9) 1.0966(5) 0.1287(3)
C63 C 0.2396(8) 0.7967(6) 0.2198(4)
C64 C 0.5856(8) 1.0224(5) 0.0890(3)
H58 H 0.6487 1.0249 0.0611
C65 C 0.7047(10) 0.9660(5) 0.2511(4)
H59 H 0.6943 0.9852 0.2140
C66 C 0.3837(9) 1.0147(6) 0.1681(3)
C67 C 0.8953(7) 0.7601(5) 0.0645(3)
C68 C 0.4753(8) 0.9156(5) 0.3705(3)
H60 H 0.4763 0.9600 0.4039
H61 H 0.3964 0.9244 0.3443
C69 C 0.4265(7) 0.6625(5) 0.3739(3)
C70 C 0.8489(8) 0.9183(6) 0.3301(3)
C71 C 0.5053(8) 0.9445(5) 0.0914(3)
H62 H 0.5200 0.8949 0.0658
C72 C 0.4046(8) 0.9370(6) 0.1299(3)
C73 C 0.8507(8) 0.6762(6) 0.0385(3)
C74 C 0.773(3) 0.6356(8) 0.5642(5)
H63 H 0.7063 0.6089 0.5871
H64 H 0.8616 0.6187 0.5791
N3 N 0.970(2) 0.9402(15) -0.1048(6)
N4 N 0.6243(10) 0.7313(9) -0.0646(12)
N5 N 0.8688(18) 0.6357(9) -0.2073(4)
O10 O 0.5177(13) 0.6590(9) -0.0714(4)
O11 O 0.8158(7) 0.5645(5) -0.2160(3)
O12 O 0.8913(17) 0.6886(13) -0.2450(8)
O13 O 1.0492(10) 0.9476(8) -0.1494(6)
O14 O 1.0448(12) 0.9501(8) -0.0608(6)
O15 O 0.527(3) 0.7588(10) -0.0165(4)
C75 C 0.8052(9) 0.8348(6) -0.0848(4)
C76 C 0.9007(15) 0.8267(9) -0.1210(6)
C77 C 0.842(2) 0.7030(9) -0.1632(5)
C78 C 0.9561(15) 0.7871(10) -0.1586(5)
H65 H 1.0336 0.7989 -0.1779
C79 C 0.7226(14) 0.7529(10) -0.0854(5)
C80 C 0.7435(19) 0.6796(7) -0.1335(5)
H66 H 0.6925 0.6256 -0.1404
C81 C 0.8107(17) 0.9300(9) -0.0420(7)
H67 H 0.8641 0.9242 -0.0061
H68 H 0.7198 0.9443 -0.0336
H69 H 0.8513 0.9767 -0.0615
O16 O 0.6761(11) 1.2073(7) 0.3990(4)
O17 O 0.9048(8) 1.2260(6) 0.3217(4)
O18? O 1.0000(13) 0.6401(7) -0.2342(5)
O19? O 0.7336(19) 1.1670(9) 0.3335(5)
O20? O 0.8247(6) 1.2421(5) 0.2994(3)
O21? O 0.7345(11) 1.1873(7) 0.4138(4)
loop_
_geom_bond_atom_site_label_1
_geom_bond_atom_site_label_2
_geom_bond_site_symmetry_1
_geom_bond_site_symmetry_2
N1 H1 1_555 1_555
N2 H2 1_555 1_555
O1 C13 1_555 1_555
O2 C25 1_555 1_555
O3 C63 1_555 1_555
O4 C54 1_555 1_555
O5 C8 1_555 1_555
O6 C14 1_555 1_555
O7 C51 1_555 1_555
O8 C40 1_555 1_555
O9 C16 1_555 1_555
C1 H3 1_555 1_555
C2 C24 1_555 1_555
C3 C9 1_555 1_555
C4 C1 1_555 1_555
H4 C4 1_555 1_555
C5 N2 1_555 1_555
H5 C5 1_555 1_555
H6 C5 1_555 1_555
C6 H7 1_555 1_555
C7 H8 1_555 1_555
C8 C20 1_555 1_555
C9 C6 1_555 1_555
H9 C9 1_555 1_555
C10 H10 1_555 1_555
C11 C3 1_555 1_555
C12 C11 1_555 1_555
C13 C19 1_555 1_555
C14 H11 1_555 1_555
H12 C14 1_555 1_555
C15 H13 1_555 1_555
C16 H14 1_555 1_555
H15 C16 1_555 1_555
C17 C10 1_555 1_555
H16 C17 1_555 1_555
C18 H17 1_555 1_555
C19 C21 1_555 1_555
C20 C22 1_555 1_555
C21 H18 1_555 1_555
H19 C21 1_555 1_555
C22 H20 1_555 1_555
H21 C22 1_555 1_555
C23 C8 1_555 1_555
C24 C26 1_555 1_555
C25 H22 1_555 1_555
H23 C25 1_555 1_555
C26 C29 1_555 1_555
C27 O9 1_555 1_555
H24 C27 1_555 1_555
H25 C27 1_555 1_555
C28 H26 1_555 1_555
C29 C18 1_555 1_555
H27 C29 1_555 1_555
C30 C19 1_555 1_555
H28 C30 1_555 1_555
C31 C3 1_555 1_555
H29 C31 1_555 1_555
C32 C13 1_555 1_555
C33 C23 1_555 1_555
H30 C33 1_555 1_555
H31 C33 1_555 1_555
C34 C26 1_555 1_555
H32 C34 1_555 1_555
C35 C12 1_555 1_555
C36 C7 1_555 1_555
H33 C36 1_555 1_555
C37 C12 1_555 1_555
C38 C28 1_555 1_555
H34 C38 1_555 1_555
C39 C35 1_555 1_555
H35 C39 1_555 1_555
C40 C25 1_555 1_555
H36 C40 1_555 1_555
H37 C40 1_555 1_555
C41 H38 1_555 1_555
C42 C24 1_555 1_555
C43 C20 1_555 1_555
H39 C43 1_555 1_555
C44 C34 1_555 1_555
H40 C44 1_555 1_555
C45 C31 1_555 1_555
H41 C45 1_555 1_555
C46 O8 1_555 1_555
H42 C46 1_555 1_555
H43 C46 1_555 1_555
C47 C23 1_555 1_555
H44 C47 1_555 1_555
C48 O1 1_555 1_555
H45 C48 1_555 1_555
H46 C48 1_555 1_555
C49 C39 1_555 1_555
H47 C49 1_555 1_555
C50 C43 1_555 1_555
H48 C50 1_555 1_555
C51 C46 1_555 1_555
H49 C51 1_555 1_555
H50 C51 1_555 1_555
C52 C37 1_555 1_555
H51 C52 1_555 1_555
C53 N1 1_555 1_555
H52 C53 1_555 1_555
H53 C53 1_555 1_555
C54 N1 1_555 1_555
C55 C56 1_555 1_555
C56 O2 1_555 1_555
C57 C60 1_555 1_555
C58 C55 1_555 1_555
H54 C58 1_555 1_555
C59 O5 1_555 1_555
H55 C59 1_555 1_555
H56 C59 1_555 1_555
C60 O6 1_555 1_555
C61 C4 1_555 1_555
H57 C61 1_555 1_555
C62 C2 1_555 1_555
C63 N2 1_555 1_555
C64 C62 1_555 1_555
H58 C64 1_555 1_555
C65 C15 1_555 1_555
H59 C65 1_555 1_555
C66 C2 1_555 1_555
C67 C6 1_555 1_555
C68 C55 1_555 1_555
H60 C68 1_555 1_555
H61 C68 1_555 1_555
C69 C1 1_555 1_555
C70 C15 1_555 1_555
C71 C64 1_555 1_555
H62 C71 1_555 1_555
C72 C5 1_555 1_555
C73 C10 1_555 1_555
C74 O7 1_555 1_555
H63 C74 1_555 1_555
H64 C74 1_555 1_555
N3 O13 1_555 1_555
N4 O10 1_555 1_555
N5 O11 1_555 1_555
O12 N5 1_555 1_555
O14 N3 1_555 1_555
O15 N4 1_555 1_555
C75 C76 1_555 1_555
C76 N3 1_555 1_555
C77 N5 1_555 1_555
C78 C76 1_555 1_555
H65 C78 1_555 1_555
C79 N4 1_555 1_555
C80 C77 1_555 1_555
H66 C80 1_555 1_555
C81 C75 1_555 1_555
H67 C81 1_555 1_555
H68 C81 1_555 1_555
H69 C81 1_555 1_555
C7 C62 1_555 1_555
C11 C73 1_555 1_555
C14 C63 1_555 1_555
C16 C48 1_555 1_555
C17 C35 1_555 1_555
C18 C66 1_555 1_555
C21 C69 1_555 1_555
C22 C70 1_555 1_555
C27 C74 1_555 1_555
C28 C32 1_555 1_555
C30 C38 1_555 1_555
C32 C33 1_555 1_555
C36 C42 1_555 1_555
C37 C45 1_555 1_555
C41 C42 1_555 1_555
C41 C44 1_555 1_555
C47 C50 1_555 1_555
C49 C52 1_555 1_555
C53 C67 1_555 1_555
C54 C59 1_555 1_555
C56 C70 1_555 1_555
C57 C61 1_555 1_555
C57 C68 1_555 1_555
C58 C65 1_555 1_555
C60 C69 1_555 1_555
C66 C72 1_555 1_555
C67 C73 1_555 1_555
C71 C72 1_555 1_555
C75 C79 1_555 1_555
C77 C78 1_555 1_555
C79 C80 1_555 1_555

#END
