
#######################################################################
#
#                 Cambridge Crystallographic Data Centre
#                                CCDC 
#
#######################################################################
#
# If this CIF has been generated from an entry in the Cambridge 
# Structural Database, then it will include bibliographic, chemical, 
# crystal, experimental, refinement or atomic coordinate data resulting 
# from the CCDC's data processing and validation procedures.
#
#######################################################################

data_ARASUJ
_chemical_name_common            
((1E,3E)-1,4-bis(4-(dimethoxymethyl)phenyl)buta-1,3-diene-1,2,3,4-tetrayl)tetrabenzene
_chemical_formula_moiety         'C46 H42 O4'
_chemical_name_systematic        
1-(dimethoxymethyl)-4-(4-(4-(dimethoxymethyl)phenyl)-1,2,3,4-tetraphenylbuta-1,3-dien-1-yl)benzene
_symmetry_cell_setting           monoclinic
_symmetry_space_group_name_H-M   'P 21/c'
_symmetry_Int_Tables_number      14
_space_group_name_Hall           '-P 2ybc'
loop_
_symmetry_equiv_pos_site_id
_symmetry_equiv_pos_as_xyz
1 x,y,z
2 -x,1/2+y,1/2-z
3 -x,-y,-z
4 x,1/2-y,1/2+z
_cell_length_a                   16.109(3)
_cell_length_b                   24.970(5)
_cell_length_c                   9.4385(19)
_cell_angle_alpha                90
_cell_angle_beta                 100.24(3)
_cell_angle_gamma                90
_cell_volume                     3736.09
_exptl_crystal_colour            cyan
_exptl_crystal_description       acicular
_cell_formula_units_Z            4
_chemical_properties_physical    ', Heat-sensitive'
_exptl_crystal_recrystallization_method Methanol/hexene
_exptl_crystal_preparation       ', Luminescent'
loop_
_atom_site_label
_atom_site_type_symbol
_atom_site_fract_x
_atom_site_fract_y
_atom_site_fract_z
O1 O 0.0109(3) 0.72734(18) 0.2269(5)
O2 O 0.6484(3) 0.2559(2) 0.1282(5)
C1 C 0.1603(4) 0.5510(2) 0.2565(6)
C2 C 0.0854(4) 0.5467(2) 0.1545(6)
H1 H 0.0766 0.5165 0.0924
C3 C 0.3358(3) 0.4154(2) 0.1566(6)
O3 O -0.0916(3) 0.66851(19) 0.1055(5)
C4 C 0.2198(3) 0.4578(2) 0.2723(5)
C5 C 0.0351(4) 0.6310(2) 0.2347(6)
C6 C 0.2891(4) 0.4179(2) 0.2653(6)
C7 C 0.3131(4) 0.5376(2) 0.2507(6)
C8 C 0.3124(4) 0.4464(2) 0.0184(6)
C9 C 0.0246(4) 0.5864(2) 0.1446(6)
H2 H -0.0255 0.5832 0.0747
C10 C 0.5013(4) 0.3137(2) 0.0919(6)
H3 H 0.5086 0.2873 0.0226
C11 C 0.3751(4) 0.4721(2) -0.0404(6)
H4 H 0.4323 0.4689 0.0055
C12 C 0.4296(4) 0.3457(2) 0.0695(6)
H5 H 0.3898 0.3422 -0.0173
C13 C 0.3061(3) 0.3807(2) 0.3934(6)
C14 C 0.2283(4) 0.4499(2) -0.0552(6)
H6 H 0.1849 0.4313 -0.0196
C15 C 0.1391(3) 0.4338(2) 0.3026(6)
C16 C 0.5625(4) 0.3199(2) 0.2151(7)
C17 C 0.2306(3) 0.5113(2) 0.2634(6)
O4 O 0.7158(3) 0.3129(2) 0.3085(6)
C18 C 0.3034(3) 0.3996(2) 0.5316(6)
H7 H 0.2923 0.4365 0.5444
C19 C 0.0991(3) 0.4536(2) 0.4086(6)
H8 H 0.1226 0.4837 0.4629
C20 C 0.1706(4) 0.5952(2) 0.3475(6)
H9 H 0.2202 0.5983 0.4184
C21 C 0.0322(4) 0.3651(3) 0.2550(7)
H10 H 0.0090 0.3348 0.2014
C22 C 0.4151(3) 0.3831(2) 0.1740(6)
C23 C 0.3182(4) 0.3259(2) 0.3760(6)
H11 H 0.3171 0.3116 0.2823
C24 C 0.3159(4) 0.5761(2) 0.1470(7)
H12 H 0.2654 0.5851 0.0830
C25 C 0.3319(4) 0.2921(2) 0.4950(7)
H13 H 0.3421 0.2551 0.4824
C26 C 0.4617(4) 0.5512(3) 0.3302(7)
H14 H 0.5125 0.5419 0.3931
C27 C 0.0255(4) 0.4309(2) 0.4390(7)
H15 H -0.0015 0.4455 0.5119
C28 C 0.3550(4) 0.5024(2) -0.1655(7)
H16 H 0.3983 0.5200 -0.2042
C29 C 0.3879(4) 0.5258(2) 0.3449(6)
H17 H 0.3878 0.5001 0.4192
C30 C 0.2092(4) 0.4802(3) -0.1790(6)
H18 H 0.1523 0.4827 -0.2272
C31 C 0.3162(4) 0.3664(3) 0.6499(6)
H19 H 0.3150 0.3805 0.7431
C32 C 0.1059(4) 0.3882(2) 0.2279(6)
H20 H 0.1342 0.3728 0.1577
C33 C 0.1100(4) 0.6346(2) 0.3365(6)
H21 H 0.1190 0.6647 0.3988
C34 C 0.4639(4) 0.5900(3) 0.2264(8)
H22 H 0.5151 0.6079 0.2192
C35 C 0.4780(4) 0.3890(3) 0.2953(6)
H23 H 0.4702 0.4145 0.3662
C36 C 0.5512(4) 0.3590(3) 0.3161(7)
H24 H 0.5936 0.3648 0.3985
C37 C 0.3901(4) 0.6021(3) 0.1334(8)
H25 H 0.3901 0.6282 0.0602
C38 C 0.6418(4) 0.2840(3) 0.2502(8)
H26 H 0.6314 0.2575 0.3246
C39 C 0.2716(5) 0.5068(3) -0.2337(7)
H27 H 0.2575 0.5281 -0.3179
C40 C -0.0078(4) 0.3865(3) 0.3609(7)
H28 H -0.0583 0.3707 0.3798
C41 C 0.3309(4) 0.3120(3) 0.6324(7)
H29 H 0.3402 0.2888 0.7133
C42 C -0.0282(4) 0.6763(3) 0.2268(7)
H30 H -0.0551 0.6741 0.3142
C43 C 0.0510(6) 0.7365(3) 0.1037(9)
H31 H 0.0085 0.7473 0.0212
H32 H 0.0786 0.7035 0.0804
H33 H 0.0932 0.7649 0.1261
C44 C 0.7424(5) 0.3499(4) 0.2074(11)
H34 H 0.7511 0.3305 0.1211
H35 H 0.7953 0.3671 0.2520
H36 H 0.6988 0.3773 0.1807
C45 C 0.7117(6) 0.2137(3) 0.1588(10)
H37 H 0.7254 0.2002 0.0682
H38 H 0.6894 0.1843 0.2100
H39 H 0.7627 0.2281 0.2188
C46 C -0.1621(5) 0.7048(4) 0.0987(10)
H40 H -0.2067 0.6945 0.0186
H41 H -0.1435 0.7414 0.0838
H42 H -0.1839 0.7030 0.1891
loop_
_geom_bond_atom_site_label_1
_geom_bond_atom_site_label_2
_geom_bond_site_symmetry_1
_geom_bond_site_symmetry_2
O1 C42 1_555 1_555
O2 C38 1_555 1_555
C1 C2 1_555 1_555
C2 H1 1_555 1_555
C3 C6 1_555 1_555
O3 C42 1_555 1_555
C4 C6 1_555 1_555
C5 C9 1_555 1_555
C6 C13 1_555 1_555
C7 C17 1_555 1_555
C8 C3 1_555 1_555
C9 C2 1_555 1_555
H2 C9 1_555 1_555
C10 H3 1_555 1_555
C11 C8 1_555 1_555
H4 C11 1_555 1_555
C12 C10 1_555 1_555
H5 C12 1_555 1_555
C13 C18 1_555 1_555
C14 C8 1_555 1_555
H6 C14 1_555 1_555
C15 C4 1_555 1_555
C16 C10 1_555 1_555
C17 C1 1_555 1_555
O4 C38 1_555 1_555
C18 H7 1_555 1_555
C19 C15 1_555 1_555
H8 C19 1_555 1_555
C20 C1 1_555 1_555
H9 C20 1_555 1_555
C21 H10 1_555 1_555
C22 C3 1_555 1_555
C23 C13 1_555 1_555
H11 C23 1_555 1_555
C24 C7 1_555 1_555
H12 C24 1_555 1_555
C25 C23 1_555 1_555
H13 C25 1_555 1_555
C26 H14 1_555 1_555
C27 C19 1_555 1_555
H15 C27 1_555 1_555
C28 C11 1_555 1_555
H16 C28 1_555 1_555
C29 C7 1_555 1_555
H17 C29 1_555 1_555
C30 C14 1_555 1_555
H18 C30 1_555 1_555
C31 C18 1_555 1_555
H19 C31 1_555 1_555
C32 C15 1_555 1_555
H20 C32 1_555 1_555
C33 C5 1_555 1_555
H21 C33 1_555 1_555
C34 C26 1_555 1_555
H22 C34 1_555 1_555
C35 C22 1_555 1_555
H23 C35 1_555 1_555
C36 C16 1_555 1_555
H24 C36 1_555 1_555
C37 C24 1_555 1_555
H25 C37 1_555 1_555
C38 C16 1_555 1_555
H26 C38 1_555 1_555
C39 C28 1_555 1_555
H27 C39 1_555 1_555
C40 C21 1_555 1_555
H28 C40 1_555 1_555
C41 C25 1_555 1_555
H29 C41 1_555 1_555
C42 C5 1_555 1_555
H30 C42 1_555 1_555
C43 O1 1_555 1_555
H31 C43 1_555 1_555
H32 C43 1_555 1_555
H33 C43 1_555 1_555
C44 O4 1_555 1_555
H34 C44 1_555 1_555
H35 C44 1_555 1_555
H36 C44 1_555 1_555
C45 O2 1_555 1_555
H37 C45 1_555 1_555
H38 C45 1_555 1_555
H39 C45 1_555 1_555
C46 O3 1_555 1_555
H40 C46 1_555 1_555
H41 C46 1_555 1_555
H42 C46 1_555 1_555
C4 C17 1_555 1_555
C12 C22 1_555 1_555
C20 C33 1_555 1_555
C21 C32 1_555 1_555
C26 C29 1_555 1_555
C27 C40 1_555 1_555
C30 C39 1_555 1_555
C31 C41 1_555 1_555
C34 C37 1_555 1_555
C35 C36 1_555 1_555

#END
