
#######################################################################
#
#                 Cambridge Crystallographic Data Centre
#                                CCDC 
#
#######################################################################
#
# If this CIF has been generated from an entry in the Cambridge 
# Structural Database, then it will include bibliographic, chemical, 
# crystal, experimental, refinement or atomic coordinate data resulting 
# from the CCDC's data processing and validation procedures.
#
#######################################################################

data_AREZII
_chemical_formula_moiety         'C28 H25 B2 Br1 N4,0.5(C7 H8)'
_chemical_name_systematic        
'13-(4-bromophenyl)-5,11-dimethyl-1,7-diphenyl-2,5,8,11-tetraaza-1,7-diboratetracyclo[5.5.2.0^2,6^.0^8,12^]tetradeca-2(6),3,8(12),9,13-pentaene toluene solvate'
_symmetry_cell_setting           monoclinic
_symmetry_space_group_name_H-M   'P 21/n'
_symmetry_Int_Tables_number      14
_space_group_name_Hall           '-P 2yn'
loop_
_symmetry_equiv_pos_site_id
_symmetry_equiv_pos_as_xyz
1 x,y,z
2 1/2-x,1/2+y,1/2-z
3 -x,-y,-z
4 1/2+x,1/2-y,1/2+z
_cell_length_a                   7.4966(7)
_cell_length_b                   14.1674(14)
_cell_length_c                   26.033(2)
_cell_angle_alpha                90
_cell_angle_beta                 95.734(3)
_cell_angle_gamma                90
_cell_volume                     2751.06
_exptl_crystal_colour            colorless
_exptl_crystal_description       block
_cell_formula_units_Z            4
loop_
_atom_site_label
_atom_site_type_symbol
_atom_site_fract_x
_atom_site_fract_y
_atom_site_fract_z
B1 B 0.2385(5) 0.8985(3) 0.23542(12)
B2 B 0.3999(5) 0.8644(2) 0.33437(13)
Br1 Br 0.60384(5) 0.59351(3) 0.05062(2)
C1 C -0.0744(4) 0.8700(2) 0.27838(12)
H1 H -0.1588 0.8763 0.2488
C2 C -0.1126(4) 0.8501(2) 0.32680(12)
H2 H -0.2282 0.8401 0.3377
C3 C 0.1835(4) 0.8648(2) 0.32769(11)
C4 C 0.0638(5) 0.8335(3) 0.41327(12)
H3 H 0.1746 0.7991 0.4242
H4 H -0.0393 0.7971 0.4227
H5 H 0.0662 0.8951 0.4304
C5 C 0.3702(4) 0.9805(2) 0.26129(11)
C6 C 0.5738(4) 1.0933(2) 0.28265(12)
H6 H 0.6468 1.1478 0.2809
C7 C 0.5708(4) 1.0341(2) 0.32303(12)
H7 H 0.643 1.0392 0.3551
C8 C 0.4126(5) 1.1033(2) 0.19343(12)
H8 H 0.386 1.0542 0.1672
H9 H 0.5176 1.1395 0.1853
H10 H 0.3094 1.1456 0.1937
C9 C 0.1135(4) 0.9238(2) 0.18331(11)
C10 C 0.0002(5) 1.0030(2) 0.18326(12)
H11 H 0.008 1.0424 0.2129
C11 C -0.1223(5) 1.0259(2) 0.14178(13)
H12 H -0.1972 1.0797 0.1434
C12 C -0.1351(5) 0.9702(3) 0.09790(13)
H13 H -0.2173 0.9861 0.069
C13 C -0.0275(5) 0.8911(3) 0.09631(12)
H14 H -0.036 0.8524 0.0664
C14 C 0.0930(5) 0.8682(2) 0.13858(12)
H15 H 0.1641 0.8129 0.1371
C15 C 0.4897(4) 0.8443(2) 0.39214(11)
C16 C 0.5292(4) 0.9136(2) 0.43004(11)
H16 H 0.5053 0.9779 0.4216
C17 C 0.6025(5) 0.8908(2) 0.47974(12)
H17 H 0.6287 0.9395 0.5045
C18 C 0.6372(5) 0.7980(2) 0.49330(12)
H18 H 0.689 0.7825 0.527
C19 C 0.5955(5) 0.7277(2) 0.45705(12)
H19 H 0.6151 0.6634 0.4662
C20 C 0.5257(4) 0.7510(2) 0.40761(11)
H20 H 0.5012 0.7019 0.3831
C21 C 0.3776(4) 0.8076(2) 0.24075(11)
C22 C 0.4482(4) 0.7901(2) 0.28933(11)
H21 H 0.5232 0.737 0.2973
C23 C 0.4357(4) 0.7543(2) 0.19558(11)
C24 C 0.5399(5) 0.7980(2) 0.16107(12)
H22 H 0.5763 0.8617 0.1668
C25 C 0.5915(5) 0.7503(2) 0.11849(12)
H23 H 0.6643 0.7804 0.0955
C26 C 0.5356(4) 0.6585(2) 0.11001(11)
C27 C 0.4349(5) 0.6123(2) 0.14339(12)
H24 H 0.3999 0.5485 0.1374
C28 C 0.3854(5) 0.6610(2) 0.18608(12)
H25 H 0.3153 0.6297 0.2094
N1 N 0.1078(3) 0.87967(17) 0.27946(9)
N2 N 0.0488(4) 0.84704(18) 0.35735(9)
N3 N 0.4449(3) 0.96488(17) 0.30995(9)
N4 N 0.4498(4) 1.05918(18) 0.24421(9)
C29 C 0.4198(7) 0.0285(4) 0.02473(19)
C30 C 0.4298(7) -0.0694(4) 0.02646(18)
H26 H 0.3601 -0.1038 0.0486
C31 C 0.5416(9) -0.1171(3) -0.0042(2)
H27 H 0.5484 -0.184 -0.0031
C32 C 0.6435(7) -0.0669(5) -0.0367(2)
H28 H 0.72 -0.0995 -0.0576
C33 C 0.6336(7) 0.0311(5) -0.03839(19)
H29 H 0.7033 0.0654 -0.0606
C34 C 0.5217(8) 0.0788(3) -0.0077(2)
H30 H 0.5149 0.1457 -0.0089
C35 C 0.3001(14) 0.0828(7) 0.0567(3)
H31 H 0.2085 0.116 0.034
H32 H 0.3714 0.1287 0.0781
H33 H 0.2418 0.0391 0.079
C29B C 0.5802(7) -0.0285(4) -0.02473(19)
C30B C 0.5702(7) 0.0694(4) -0.02646(18)
H26B H 0.6399 0.1038 -0.0486
C31B C 0.4584(9) 0.1171(3) 0.0042(2)
H27B H 0.4516 0.184 0.0031
C32B C 0.3565(7) 0.0669(5) 0.0367(2)
H28B H 0.28 0.0995 0.0576
C33B C 0.3664(7) -0.0311(5) 0.03839(19)
H29B H 0.2967 -0.0654 0.0606
C34B C 0.4783(8) -0.0788(3) 0.0077(2)
H30B H 0.4851 -0.1457 0.0089
C35B C 0.6999(14) -0.0828(7) -0.0567(3)
H31B H 0.7915 -0.116 -0.034
H32B H 0.6286 -0.1287 -0.0781
H33B H 0.7582 -0.0391 -0.079
loop_
_geom_bond_atom_site_label_1
_geom_bond_atom_site_label_2
_geom_bond_site_symmetry_1
_geom_bond_site_symmetry_2
B1 C5 1_555 1_555
B2 C3 1_555 1_555
Br1 C26 1_555 1_555
C1 H1 1_555 1_555
C2 C1 1_555 1_555
H2 C2 1_555 1_555
C3 N1 1_555 1_555
C4 H3 1_555 1_555
H4 C4 1_555 1_555
H5 C4 1_555 1_555
C5 N3 1_555 1_555
C6 H6 1_555 1_555
C7 C6 1_555 1_555
H7 C7 1_555 1_555
C8 H8 1_555 1_555
H9 C8 1_555 1_555
H10 C8 1_555 1_555
C9 B1 1_555 1_555
C10 C9 1_555 1_555
H11 C10 1_555 1_555
C11 C10 1_555 1_555
H12 C11 1_555 1_555
C12 C11 1_555 1_555
H13 C12 1_555 1_555
C13 C12 1_555 1_555
H14 C13 1_555 1_555
C14 C9 1_555 1_555
H15 C14 1_555 1_555
C15 B2 1_555 1_555
C16 C15 1_555 1_555
H16 C16 1_555 1_555
C17 C16 1_555 1_555
H17 C17 1_555 1_555
C18 C17 1_555 1_555
H18 C18 1_555 1_555
C19 C18 1_555 1_555
H19 C19 1_555 1_555
C20 C15 1_555 1_555
H20 C20 1_555 1_555
C21 B1 1_555 1_555
C22 B2 1_555 1_555
H21 C22 1_555 1_555
C23 C21 1_555 1_555
C24 C23 1_555 1_555
H22 C24 1_555 1_555
C25 C24 1_555 1_555
H23 C25 1_555 1_555
C26 C25 1_555 1_555
C27 C26 1_555 1_555
H24 C27 1_555 1_555
C28 C23 1_555 1_555
H25 C28 1_555 1_555
N1 B1 1_555 1_555
N2 C2 1_555 1_555
N3 B2 1_555 1_555
N4 C5 1_555 1_555
C29 C30 1_555 1_555
C30 H26 1_555 1_555
C31 C30 1_555 1_555
H27 C31 1_555 1_555
C32 C31 1_555 1_555
H28 C32 1_555 1_555
C33 C32 1_555 1_555
H29 C33 1_555 1_555
C34 C29 1_555 1_555
H30 C34 1_555 1_555
C35 C29 1_555 1_555
H31 C35 1_555 1_555
H32 C35 1_555 1_555
H33 C35 1_555 1_555
C29B C30B 1_555 1_555
C30B H26B 1_555 1_555
C31B C30B 1_555 1_555
H27B C31B 1_555 1_555
C32B C31B 1_555 1_555
H28B C32B 1_555 1_555
C33B C32B 1_555 1_555
H29B C33B 1_555 1_555
C34B C29B 1_555 1_555
H30B C34B 1_555 1_555
C35B C29B 1_555 1_555
H31B C35B 1_555 1_555
H32B C35B 1_555 1_555
H33B C35B 1_555 1_555
C1 N1 1_555 1_555
C3 N2 1_555 1_555
C4 N2 1_555 1_555
C6 N4 1_555 1_555
C7 N3 1_555 1_555
C8 N4 1_555 1_555
C13 C14 1_555 1_555
C19 C20 1_555 1_555
C21 C22 1_555 1_555
C27 C28 1_555 1_555
C33 C34 1_555 1_555
C33B C34B 1_555 1_555

#END
