
#######################################################################
#
#                 Cambridge Crystallographic Data Centre
#                                CCDC 
#
#######################################################################
#
# If this CIF has been generated from an entry in the Cambridge 
# Structural Database, then it will include bibliographic, chemical, 
# crystal, experimental, refinement or atomic coordinate data resulting 
# from the CCDC's data processing and validation procedures.
#
#######################################################################

data_ARIQIC
_chemical_compound_source        
'mangrove Bruguiera gymnorrhiza (L.) Savigny (Rhizophoraceae)'
_chemical_name_common            
trans-3,3'-Dihydroxy-1,5,1',5'-tetrathiacyclodecane
_chemical_formula_moiety         'C6 H12 O2 S4'
_chemical_name_systematic        trans-1,2,6,7-Tetrathiecane-4,9-diol
_chemical_properties_biological  
'Tested in-vitro and found to be inactive for PTP1B inhibitory activity (for the treatment of type-II diabetes and obesity).'
_symmetry_cell_setting           monoclinic
_symmetry_space_group_name_H-M   'P 21/c'
_symmetry_Int_Tables_number      14
_space_group_name_Hall           '-P 2ybc'
loop_
_symmetry_equiv_pos_site_id
_symmetry_equiv_pos_as_xyz
1 x,y,z
2 -x,1/2+y,1/2-z
3 -x,-y,-z
4 x,1/2-y,1/2+z
_cell_length_a                   9.337(4)
_cell_length_b                   13.466(5)
_cell_length_c                   8.324(3)
_cell_angle_alpha                90
_cell_angle_beta                 92.268(5)
_cell_angle_gamma                90
_cell_volume                     1045.77
_exptl_crystal_colour            colorless
_chemical_melting_point          '490-491 K'
_cell_formula_units_Z            4
_exptl_crystal_recrystallization_method acetone
loop_
_atom_site_label
_atom_site_type_symbol
_atom_site_fract_x
_atom_site_fract_y
_atom_site_fract_z
S1 S 0.45897(10) -0.00599(7) 0.78646(9)
S2 S 0.62261(9) 0.13351(7) 0.30916(11)
O1 O 0.3032(2) 0.19636(17) 0.4638(2)
H1 H 0.2643 0.1802 0.3776
C1 C 0.3579(3) 0.0955(2) 0.6946(4)
H2 H 0.2565 0.0800 0.6973
H3 H 0.3747 0.1549 0.7584
C2 C 0.3946(3) 0.1175(2) 0.5212(3)
H4 H 0.3756 0.0582 0.4556
C3 C 0.5499(3) 0.1472(2) 0.5074(3)
H5 H 0.6075 0.1076 0.5828
H6 H 0.5601 0.2160 0.5400
S1B S 0.54103(10) 0.00599(7) 0.21354(9)
S2B S 0.37739(9) -0.13351(7) 0.69084(11)
O1B O 0.6968(2) -0.19636(17) 0.5362(2)
H1B H 0.7357 -0.1802 0.6224
C1B C 0.6421(3) -0.0955(2) 0.3054(4)
H2B H 0.7435 -0.0800 0.3027
H3B H 0.6253 -0.1549 0.2416
C2B C 0.6054(3) -0.1175(2) 0.4788(3)
H4B H 0.6244 -0.0582 0.5444
C3B C 0.4501(3) -0.1472(2) 0.4926(3)
H5B H 0.3925 -0.1076 0.4172
H6B H 0.4399 -0.2160 0.4600
S3 S 1.18117(8) 0.88479(6) 1.10867(10)
O2 O 0.8280(2) 0.81721(17) 0.8275(2)
H7 H 0.7855 0.7852 0.8945
C4 C 1.0380(3) 0.8158(2) 1.0049(4)
H8 H 1.0804 0.7681 0.9335
H9 H 0.9860 0.7787 1.0838
C5 C 0.9311(3) 0.8797(2) 0.9067(3)
H10 H 0.8823 0.9247 0.9792
C6 C 1.0029(3) 0.9399(2) 0.7799(3)
H11 H 1.0215 0.8962 0.6905
H12 H 1.0951 0.9620 0.8245
S4 S 0.90727(9) 1.04800(6) 0.70093(9)
S3B S 0.81883(8) 1.11521(6) 0.89133(10)
O2B O 1.1720(2) 1.18279(17) 1.1725(2)
H7B H 1.2145 1.2148 1.1055
C4B C 0.9620(3) 1.1842(2) 0.9951(4)
H8B H 0.9196 1.2319 1.0665
H9B H 1.0140 1.2213 0.9162
C5B C 1.0689(3) 1.1203(2) 1.0933(3)
H10B H 1.1177 1.0753 1.0208
C6B C 0.9971(3) 1.0601(2) 1.2201(3)
H11B H 0.9785 1.1038 1.3095
H12B H 0.9049 1.0380 1.1755
S4B S 1.09273(9) 0.95200(6) 1.29907(9)
loop_
_geom_bond_atom_site_label_1
_geom_bond_atom_site_label_2
_geom_bond_site_symmetry_1
_geom_bond_site_symmetry_2
S1 C1 1_555 1_555
S2 C3 1_555 1_555
O1 H1 1_555 1_555
C1 H2 1_555 1_555
H3 C1 1_555 1_555
C2 O1 1_555 1_555
H4 C2 1_555 1_555
C3 C2 1_555 1_555
H5 C3 1_555 1_555
H6 C3 1_555 1_555
S3 C4 1_555 1_555
O2 H7 1_555 1_555
C4 H8 1_555 1_555
H9 C4 1_555 1_555
C5 O2 1_555 1_555
H10 C5 1_555 1_555
C6 C5 1_555 1_555
H11 C6 1_555 1_555
H12 C6 1_555 1_555
S4 C6 1_555 1_555
S1B S2 1_555 1_555
S2B S1 1_555 1_555
O1B H1B 1_555 1_555
C1B S1B 1_555 1_555
H2B C1B 1_555 1_555
H3B C1B 1_555 1_555
C2B O1B 1_555 1_555
H4B C2B 1_555 1_555
C3B S2B 1_555 1_555
H5B C3B 1_555 1_555
H6B C3B 1_555 1_555
S3B S4 1_555 1_555
O2B H7B 1_555 1_555
C4B S3B 1_555 1_555
H8B C4B 1_555 1_555
H9B C4B 1_555 1_555
C5B O2B 1_555 1_555
H10B C5B 1_555 1_555
C6B C5B 1_555 1_555
H11B C6B 1_555 1_555
H12B C6B 1_555 1_555
S4B S3 1_555 1_555
C1 C2 1_555 1_555
C4 C5 1_555 1_555
C1B C2B 1_555 1_555
C2B C3B 1_555 1_555
C4B C5B 1_555 1_555
C6B S4B 1_555 1_555

#END
