
#######################################################################
#
#                 Cambridge Crystallographic Data Centre
#                                CCDC 
#
#######################################################################
#
# If this CIF has been generated from an entry in the Cambridge 
# Structural Database, then it will include bibliographic, chemical, 
# crystal, experimental, refinement or atomic coordinate data resulting 
# from the CCDC's data processing and validation procedures.
#
#######################################################################

data_ARONUR
_chemical_formula_moiety         'C15 H15 N7 O2 S1,C2 H6 O1 S1'
_chemical_name_systematic        
'2-(2-(7,8-Dimethyl-2,4-dioxo-3,4-dihydrobenzo[g]pteridin-10(2H)-yl)ethylidene)hydrazinecarbothioamide dimethylsulfoxide solvate'
_symmetry_cell_setting           triclinic
_symmetry_space_group_name_H-M   'P -1'
_symmetry_Int_Tables_number      2
_space_group_name_Hall           '-P 1'
loop_
_symmetry_equiv_pos_site_id
_symmetry_equiv_pos_as_xyz
1 x,y,z
2 -x,-y,-z
_cell_length_a                   6.809(5)
_cell_length_b                   12.003(9)
_cell_length_c                   12.379(10)
_cell_angle_alpha                97.378(8)
_cell_angle_beta                 103.656(17)
_cell_angle_gamma                94.000(11)
_cell_volume                     969.705
_exptl_crystal_colour            orange
_exptl_crystal_description       platelet
_cell_formula_units_Z            2
loop_
_atom_site_label
_atom_site_type_symbol
_atom_site_fract_x
_atom_site_fract_y
_atom_site_fract_z
S1 S -0.30129(19) 1.03609(12) 0.16504(11)
O1 O 0.5603(5) 0.6103(3) 0.4507(2)
O2 O 0.3137(5) 0.2847(3) 0.2154(2)
N1 N 0.4542(5) 0.6296(3) 0.2666(3)
N2 N 0.4285(5) 0.4510(3) 0.3321(3)
N3 N 0.2386(5) 0.4030(3) 0.0315(3)
N4 N 0.3453(5) 0.6372(3) 0.0769(3)
N5 N 0.1126(5) 0.8464(3) 0.0988(3)
N6 N -0.0021(5) 0.9114(3) 0.1535(3)
N7 N -0.2401(6) 0.9045(3) -0.0133(3)
C1 C 0.4831(6) 0.5662(4) 0.3534(3)
C2 C 0.3504(6) 0.3856(4) 0.2274(3)
C3 C 0.3173(6) 0.4553(4) 0.1339(3)
C4 C 0.2047(6) 0.4689(4) -0.0527(3)
C5 C 0.1168(6) 0.4127(4) -0.1633(3)
C6 C 0.0790(6) 0.4714(4) -0.2539(3)
C7 C -0.0078(7) 0.4108(4) -0.3708(4)
C8 C 0.0942(7) 0.6594(4) -0.3281(4)
C9 C 0.1290(6) 0.5920(4) -0.2315(3)
C10 C 0.2140(6) 0.6479(4) -0.1242(3)
C11 C 0.2547(6) 0.5860(4) -0.0330(3)
C12 C 0.3736(6) 0.5755(3) 0.1630(3)
C13 C 0.4197(7) 0.7589(3) 0.1049(4)
C14 C 0.2836(7) 0.8269(4) 0.1593(4)
C15 C -0.1773(7) 0.9455(4) 0.0954(4)
H1 H 0.4449 0.4153 0.3909
H2 H 0.0832 0.3332 -0.1754
H3 H 0.1029 0.3898 -0.4049
H4 H -0.0899 0.4605 -0.4158
H5 H -0.0935 0.3426 -0.3684
H6 H 0.2165 0.6646 -0.3567
H7 H 0.0643 0.7354 -0.3020
H8 H -0.0207 0.6218 -0.3883
H9 H 0.2450 0.7276 -0.1117
H10 H 0.4308 0.7884 0.0352
H11 H 0.5573 0.7680 0.1563
H12 H 0.3232 0.8552 0.2373
H13 H 0.0379 0.9313 0.2269
H14 H -0.1689 0.8574 -0.0446
H15 H -0.3528 0.9244 -0.0540
S2 S 0.7563(2) 0.88502(13) 0.57984(12)
O3 O 0.7954(5) 1.0097(3) 0.6244(3)
C16 C 0.7575(10) 0.8751(5) 0.4335(5)
C17 C 0.4894(8) 0.8498(5) 0.5644(5)
H16 H 0.6195 0.8791 0.3886
H17 H 0.8051 0.8031 0.4091
H18 H 0.8484 0.9376 0.4232
H19 H 0.4674 0.8271 0.6342
H20 H 0.4383 0.7873 0.5025
H21 H 0.4168 0.9157 0.5479
loop_
_geom_bond_atom_site_label_1
_geom_bond_atom_site_label_2
_geom_bond_site_symmetry_1
_geom_bond_site_symmetry_2
S1 C15 1_555 1_555
S2 O3 1_555 1_555
O1 C1 1_555 1_555
O2 C2 1_555 1_555
N1 C1 1_555 1_555
N2 C1 1_555 1_555
N3 C3 1_555 1_555
N4 C11 1_555 1_555
N5 N6 1_555 1_555
N6 C15 1_555 1_555
N7 C15 1_555 1_555
C2 N2 1_555 1_555
C3 C2 1_555 1_555
C4 N3 1_555 1_555
C5 C4 1_555 1_555
C6 C5 1_555 1_555
C7 C6 1_555 1_555
C8 C9 1_555 1_555
C9 C6 1_555 1_555
C10 C9 1_555 1_555
C11 C4 1_555 1_555
C12 N1 1_555 1_555
C13 N4 1_555 1_555
C14 N5 1_555 1_555
C16 S2 1_555 1_555
C17 S2 1_555 1_555
H1 N2 1_555 1_555
H2 C5 1_555 1_555
H3 C7 1_555 1_555
H4 C7 1_555 1_555
H5 C7 1_555 1_555
H6 C8 1_555 1_555
H7 C8 1_555 1_555
H8 C8 1_555 1_555
H9 C10 1_555 1_555
H10 C13 1_555 1_555
H11 C13 1_555 1_555
H12 C14 1_555 1_555
H13 N6 1_555 1_555
H14 N7 1_555 1_555
H15 N7 1_555 1_555
H16 C16 1_555 1_555
H17 C16 1_555 1_555
H18 C16 1_555 1_555
H19 C17 1_555 1_555
H20 C17 1_555 1_555
H21 C17 1_555 1_555
N4 C12 1_555 1_555
C3 C12 1_555 1_555
C10 C11 1_555 1_555
C13 C14 1_555 1_555

#END
