
#######################################################################
#
#                 Cambridge Crystallographic Data Centre
#                                CCDC 
#
#######################################################################
#
# If this CIF has been generated from an entry in the Cambridge 
# Structural Database, then it will include bibliographic, chemical, 
# crystal, experimental, refinement or atomic coordinate data resulting 
# from the CCDC's data processing and validation procedures.
#
#######################################################################

data_AROPOO
_chemical_formula_moiety         'C48 H69 N1 O6 Si2'
_chemical_name_systematic        
'5-methyl-2-(2-(4-nitrophenyl)propan-2-yl)cyclohexyl 2-(benzyloxy)-3-(bis(triethylsilyl)methyl)-4-phenyl-3,4-dihydro-2H-pyran-6-carboxylate'
_symmetry_cell_setting           orthorhombic
_symmetry_space_group_name_H-M   'P 21 21 21'
_symmetry_Int_Tables_number      19
_space_group_name_Hall           'P 2ac 2ab'
loop_
_symmetry_equiv_pos_site_id
_symmetry_equiv_pos_as_xyz
1 x,y,z
2 1/2-x,-y,1/2+z
3 -x,1/2+y,1/2-z
4 1/2+x,1/2-y,-z
_cell_length_a                   10.50766(19)
_cell_length_b                   14.7380(2)
_cell_length_c                   35.4339(6)
_cell_angle_alpha                90
_cell_angle_beta                 90
_cell_angle_gamma                90
_cell_volume                     5487.36
_exptl_crystal_colour            'light colorless'
_chemical_melting_point          '82-84 deg.C'
_cell_formula_units_Z            4
_exptl_crystal_recrystallization_method 'Vapour deposition'
loop_
_atom_site_label
_atom_site_type_symbol
_atom_site_fract_x
_atom_site_fract_y
_atom_site_fract_z
Si1 Si 0.55282(9) 0.43078(6) 0.53033(3)
Si2 Si 0.25777(8) 0.44987(6) 0.56012(3)
O1 O 0.4842(2) 0.73500(14) 0.55177(6)
O2 O 0.2891(2) 0.66296(14) 0.55810(6)
O3 O 0.5570(3) 0.88926(15) 0.62496(6)
O4 O 0.5361(5) 0.9071(2) 0.56252(8)
C1 C 0.4162(3) 0.65136(19) 0.54841(8)
H1 H 0.4210 0.6306 0.5222
C2 C 0.4748(3) 0.57891(19) 0.57390(7)
H2 H 0.5667 0.5810 0.5691
C3 C 0.4568(3) 0.6098(2) 0.61548(8)
H3 H 0.3664 0.6036 0.6218
C4 C 0.5026(3) 0.7621(2) 0.58864(8)
C5 C 0.0923(4) 0.7377(2) 0.55138(10)
N1 N 0.2844(6) 0.6323(4) 0.71501(14)
C6 C 0.2192(4) 0.7233(2) 0.53366(11)
H4 H 0.2096 0.6965 0.5088
H5 H 0.2638 0.7806 0.5311
C7 C 0.4910(3) 0.7085(2) 0.61839(8)
H6 H 0.5046 0.7331 0.6422
C8 C 0.5326(4) 0.8599(2) 0.58970(9)
C9 C 0.4334(3) 0.48091(19) 0.56527(8)
H7 H 0.4563 0.4495 0.5887
C10 C 0.5324(4) 0.5516(2) 0.64282(8)
O5 O 0.3464(7) 0.5958(3) 0.73994(13)
C11 C 0.5916(5) 0.9847(2) 0.62886(10)
H8 H 0.5514 1.0196 0.6086
C12 C 0.5439(5) 1.0192(2) 0.66663(11)
H9 H 0.5920 0.9871 0.6862
C13 C 0.6613(4) 0.5635(3) 0.64737(11)
H10 H 0.7029 0.6091 0.6341
O6 O 0.2004(6) 0.5925(4) 0.69739(19)
C14 C 0.4147(6) 0.7697(4) 0.72145(12)
H11 H 0.4639 0.7403 0.7395
C15 C 0.4406(5) 0.8571(3) 0.71132(11)
H12 H 0.5068 0.8873 0.7234
C16 C 0.3149(5) 0.7262(4) 0.70452(12)
C17 C 0.7304(5) 0.5079(5) 0.67177(14)
H13 H 0.8173 0.5173 0.6750
C18 C 0.7067(4) 0.4139(3) 0.55838(14)
H14 H 0.7747 0.3993 0.5409
H15 H 0.7286 0.4708 0.5705
C19 C 0.1568(4) 0.4997(4) 0.59915(14)
H16 H 0.1954 0.4839 0.6231
H17 H 0.1592 0.5652 0.5969
C20 C 0.4745(5) 0.4830(3) 0.66292(10)
H18 H 0.3874 0.4737 0.6604
C21 C 0.6702(7) 0.4391(5) 0.69106(14)
H19 H 0.7165 0.4010 0.7068
C22 C 0.5893(5) 0.5117(3) 0.49027(13)
H20 H 0.5124 0.5213 0.4757
H21 H 0.6147 0.5697 0.5007
C23 C 0.3724(4) 0.9027(3) 0.68372(12)
C24 C 0.2433(5) 0.3228(3) 0.56564(18)
H22 H 0.1544 0.3062 0.5628
H23 H 0.2901 0.2940 0.5453
C25 C 0.1928(5) 0.4827(3) 0.51217(14)
H24 H 0.1682 0.5461 0.5131
H25 H 0.2612 0.4775 0.4939
C26 C 0.7338(6) 0.9928(3) 0.62557(14)
H26 H 0.7605 0.9688 0.6013
H27 H 0.7734 0.9564 0.6451
C27 C 0.7264(7) 1.1320(4) 0.66502(16)
H28 H 0.7464 1.1962 0.6658
H29 H 0.7672 1.1034 0.6865
C28 C 0.2440(5) 0.7671(4) 0.67720(16)
H30 H 0.1780 0.7361 0.6653
C29 C 0.7003(5) 0.3408(4) 0.58799(16)
H31 H 0.6949 0.2825 0.5760
H32 H 0.6266 0.3501 0.6035
H33 H 0.7754 0.3431 0.6034
C30 C -0.0179(5) 0.6984(4) 0.53802(14)
H34 H -0.0160 0.6629 0.5163
C31 C 0.3982(5) 1.0025(3) 0.67492(14)
C32 C 0.2720(5) 0.8550(4) 0.66758(15)
H35 H 0.2220 0.8838 0.6496
C33 C 0.7804(7) 1.0918(4) 0.62920(16)
H36 H 0.7478 1.1266 0.6077
C34 C 0.0828(5) 0.7899(4) 0.58271(18)
H37 H 0.1556 0.8186 0.5917
C35 C 0.5840(7) 1.1202(3) 0.66847(15)
H38 H 0.5424 1.1532 0.6482
H39 H 0.5557 1.1459 0.6922
C36 C -0.1335(6) 0.7658(5) 0.5894(2)
H40 H -0.2094 0.7759 0.6022
C37 C 0.5183(5) 0.3152(3) 0.50966(17)
H41 H 0.5990 0.2875 0.5030
H42 H 0.4807 0.2781 0.5293
C38 C 0.3561(8) 1.0550(4) 0.7107(2)
H43 H 0.4107 1.0392 0.7314
H44 H 0.2699 1.0394 0.7168
H45 H 0.3618 1.1191 0.7060
C39 C 0.0805(8) 0.4287(4) 0.4977(2)
H46 H 0.0342 0.4643 0.4796
H47 H 0.0256 0.4135 0.5184
H48 H 0.1104 0.3741 0.4859
C40 C 0.9245(9) 1.0958(7) 0.6286(3)
H49 H 0.9575 1.0702 0.6515
H50 H 0.9516 1.1578 0.6265
H51 H 0.9559 1.0619 0.6074
C41 C -0.1334(4) 0.7121(4) 0.5574(2)
H52 H -0.2082 0.6854 0.5488
C42 C -0.0294(6) 0.8023(6) 0.6018(2)
H53 H -0.0307 0.8370 0.6237
C43 C 0.5442(6) 0.4274(4) 0.68694(13)
H54 H 0.5032 0.3816 0.7003
C44 C 0.3201(7) 1.0343(4) 0.6411(2)
H55 H 0.3362 1.0975 0.6366
H56 H 0.2312 1.0255 0.6462
H57 H 0.3437 0.9998 0.6192
C45 C 0.2910(9) 0.2847(4) 0.6029(3)
H58 H 0.3718 0.2557 0.5990
H59 H 0.2309 0.2411 0.6123
H60 H 0.3003 0.3331 0.6208
C46 C 0.0194(6) 0.4702(7) 0.6000(3)
H61 H -0.0211 0.4869 0.5767
H62 H -0.0233 0.4993 0.6207
H63 H 0.0151 0.4055 0.6031
C47 C 0.6951(8) 0.4772(6) 0.46378(18)
H64 H 0.7088 0.5206 0.4440
H65 H 0.6701 0.4202 0.4530
H66 H 0.7724 0.4694 0.4779
C48 C 0.4314(7) 0.3105(5) 0.4751(2)
H67 H 0.4699 0.3428 0.4545
H68 H 0.3507 0.3375 0.4810
H69 H 0.4189 0.2482 0.4680
loop_
_geom_bond_atom_site_label_1
_geom_bond_atom_site_label_2
_geom_bond_site_symmetry_1
_geom_bond_site_symmetry_2
Si1 C9 1_555 1_555
Si2 C9 1_555 1_555
O1 C1 1_555 1_555
O2 C1 1_555 1_555
O3 C8 1_555 1_555
O4 C8 1_555 1_555
C1 H1 1_555 1_555
C2 C1 1_555 1_555
H2 C2 1_555 1_555
C3 C2 1_555 1_555
H3 C3 1_555 1_555
C4 O1 1_555 1_555
C5 C6 1_555 1_555
N1 O5 1_555 1_555
C6 O2 1_555 1_555
H4 C6 1_555 1_555
H5 C6 1_555 1_555
C7 C3 1_555 1_555
H6 C7 1_555 1_555
C8 C4 1_555 1_555
C9 C2 1_555 1_555
H7 C9 1_555 1_555
C10 C3 1_555 1_555
C11 O3 1_555 1_555
H8 C11 1_555 1_555
C12 C11 1_555 1_555
H9 C12 1_555 1_555
C13 C10 1_555 1_555
H10 C13 1_555 1_555
O6 N1 1_555 1_555
C14 H11 1_555 1_555
C15 C14 1_555 1_555
H12 C15 1_555 1_555
C16 N1 1_555 1_555
C17 C13 1_555 1_555
H13 C17 1_555 1_555
C18 Si1 1_555 1_555
H14 C18 1_555 1_555
H15 C18 1_555 1_555
C19 Si2 1_555 1_555
H16 C19 1_555 1_555
H17 C19 1_555 1_555
C20 C10 1_555 1_555
H18 C20 1_555 1_555
C21 C17 1_555 1_555
H19 C21 1_555 1_555
C22 Si1 1_555 1_555
H20 C22 1_555 1_555
H21 C22 1_555 1_555
C23 C15 1_555 1_555
C24 Si2 1_555 1_555
H22 C24 1_555 1_555
H23 C24 1_555 1_555
C25 Si2 1_555 1_555
H24 C25 1_555 1_555
H25 C25 1_555 1_555
C26 C11 1_555 1_555
H26 C26 1_555 1_555
H27 C26 1_555 1_555
C27 H28 1_555 1_555
H29 C27 1_555 1_555
C28 C16 1_555 1_555
H30 C28 1_555 1_555
C29 C18 1_555 1_555
H31 C29 1_555 1_555
H32 C29 1_555 1_555
H33 C29 1_555 1_555
C30 C5 1_555 1_555
H34 C30 1_555 1_555
C31 C12 1_555 1_555
C32 C23 1_555 1_555
H35 C32 1_555 1_555
C33 C26 1_555 1_555
H36 C33 1_555 1_555
C34 C5 1_555 1_555
H37 C34 1_555 1_555
C35 C12 1_555 1_555
H38 C35 1_555 1_555
H39 C35 1_555 1_555
C36 H40 1_555 1_555
C37 Si1 1_555 1_555
H41 C37 1_555 1_555
H42 C37 1_555 1_555
C38 C31 1_555 1_555
H43 C38 1_555 1_555
H44 C38 1_555 1_555
H45 C38 1_555 1_555
C39 C25 1_555 1_555
H46 C39 1_555 1_555
H47 C39 1_555 1_555
H48 C39 1_555 1_555
C40 C33 1_555 1_555
H49 C40 1_555 1_555
H50 C40 1_555 1_555
H51 C40 1_555 1_555
C41 C30 1_555 1_555
H52 C41 1_555 1_555
C42 C34 1_555 1_555
H53 C42 1_555 1_555
C43 C20 1_555 1_555
H54 C43 1_555 1_555
C44 C31 1_555 1_555
H55 C44 1_555 1_555
H56 C44 1_555 1_555
H57 C44 1_555 1_555
C45 C24 1_555 1_555
H58 C45 1_555 1_555
H59 C45 1_555 1_555
H60 C45 1_555 1_555
C46 C19 1_555 1_555
H61 C46 1_555 1_555
H62 C46 1_555 1_555
H63 C46 1_555 1_555
C47 C22 1_555 1_555
H64 C47 1_555 1_555
H65 C47 1_555 1_555
H66 C47 1_555 1_555
C48 C37 1_555 1_555
H67 C48 1_555 1_555
H68 C48 1_555 1_555
H69 C48 1_555 1_555
C4 C7 1_555 1_555
C14 C16 1_555 1_555
C21 C43 1_555 1_555
C23 C31 1_555 1_555
C27 C33 1_555 1_555
C27 C35 1_555 1_555
C28 C32 1_555 1_555
C36 C41 1_555 1_555
C36 C42 1_555 1_555

#END
