
#######################################################################
#
#                 Cambridge Crystallographic Data Centre
#                                CCDC 
#
#######################################################################
#
# If this CIF has been generated from an entry in the Cambridge 
# Structural Database, then it will include bibliographic, chemical, 
# crystal, experimental, refinement or atomic coordinate data resulting 
# from the CCDC's data processing and validation procedures.
#
#######################################################################

data_AROQEE
_chemical_formula_moiety         'C26 H20 N4 O2'
_chemical_name_systematic        
1,5-bis((pyridin-3-ylmethyl)amino)-9,10-anthraquinone
_symmetry_cell_setting           monoclinic
_symmetry_space_group_name_H-M   'P 21/n'
_symmetry_Int_Tables_number      14
_space_group_name_Hall           '-P 2yn'
loop_
_symmetry_equiv_pos_site_id
_symmetry_equiv_pos_as_xyz
1 x,y,z
2 1/2-x,1/2+y,1/2-z
3 -x,-y,-z
4 1/2+x,1/2-y,1/2+z
_cell_length_a                   5.0343(7)
_cell_length_b                   10.0324(9)
_cell_length_c                   19.408(2)
_cell_angle_alpha                90
_cell_angle_beta                 89.978(5)
_cell_angle_gamma                90
_cell_volume                     980.223
_exptl_crystal_colour            red
_exptl_crystal_description       needle
_cell_formula_units_Z            2
loop_
_atom_site_label
_atom_site_type_symbol
_atom_site_fract_x
_atom_site_fract_y
_atom_site_fract_z
C1 C 0.4136(7) 0.3630(4) 0.48937(17)
C2 C 0.6182(7) 0.4186(3) 0.44511(16)
C3 C 0.7065(6) 0.5507(3) 0.45581(17)
C4 C 0.9055(7) 0.6053(3) 0.41619(17)
H1 H 0.9595 0.6950 0.4233
C5 C 1.0270(7) 0.5281(4) 0.36561(18)
H2 H 1.1670 0.5653 0.3390
C6 C 0.9485(7) 0.3998(4) 0.35350(18)
H3 H 1.0382 0.3488 0.3194
C7 C 0.7364(7) 0.3414(3) 0.39061(18)
C8 C 0.7325(8) 0.1359(4) 0.31784(19)
H4 H 0.7966 0.1946 0.2804
H5 H 0.5785 0.0852 0.2999
C9 C 0.9531(7) 0.0375(4) 0.33637(19)
C10 C 1.0426(7) -0.0510(4) 0.28600(19)
H6 H 0.9657 -0.0462 0.2414
C11 C 1.3425(8) -0.1466(4) 0.3599(2)
H7 H 1.4817 -0.2083 0.3685
C12 C 1.2600(8) -0.0626(4) 0.4134(2)
H8 H 1.3395 -0.0693 0.4577
C13 C 1.0661(8) 0.0281(4) 0.40167(19)
H9 H 1.0075 0.0850 0.4377
N1 N 0.6436(6) 0.2188(3) 0.37500(15)
H10 H 0.5183 0.1860 0.4017
N2 N 1.2340(7) -0.1434(3) 0.29755(18)
O1 O 0.3379(5) 0.2462(2) 0.48450(12)
C1B C 0.5864(7) 0.6370(4) 0.51063(17)
C2B C 0.3818(7) 0.5814(3) 0.55489(16)
C3B C 0.2935(6) 0.4493(3) 0.54419(17)
C4B C 0.0945(7) 0.3947(3) 0.58381(17)
H1B H 0.0405 0.3050 0.5767
C5B C -0.0270(7) 0.4719(4) 0.63439(18)
H2B H -0.1670 0.4347 0.6610
C6B C 0.0515(7) 0.6002(4) 0.64650(18)
H3B H -0.0382 0.6512 0.6806
C7B C 0.2636(7) 0.6586(3) 0.60939(18)
C8B C 0.2675(8) 0.8641(4) 0.68216(19)
H4B H 0.2034 0.8054 0.7196
H5B H 0.4215 0.9148 0.7001
C9B C 0.0469(7) 0.9625(4) 0.66363(19)
C10B C -0.0426(7) 1.0510(4) 0.71400(19)
H6B H 0.0343 1.0462 0.7586
C11B C -0.3425(8) 1.1466(4) 0.6401(2)
H7B H -0.4817 1.2083 0.6315
C12B C -0.2600(8) 1.0626(4) 0.5866(2)
H8B H -0.3395 1.0693 0.5423
C13B C -0.0661(8) 0.9719(4) 0.59833(19)
H9B H -0.0075 0.9150 0.5623
N1B N 0.3564(6) 0.7812(3) 0.62500(15)
H10B H 0.4817 0.8140 0.5983
N2B N -0.2340(7) 1.1434(3) 0.70245(18)
O1B O 0.6621(5) 0.7538(2) 0.51550(12)
loop_
_geom_bond_atom_site_label_1
_geom_bond_atom_site_label_2
_geom_bond_site_symmetry_1
_geom_bond_site_symmetry_2
C1 C2 1_555 1_555
C2 C3 1_555 1_555
C3 C4 1_555 1_555
C4 H1 1_555 1_555
C5 C4 1_555 1_555
H2 C5 1_555 1_555
C6 C5 1_555 1_555
H3 C6 1_555 1_555
C7 C2 1_555 1_555
C8 H4 1_555 1_555
H5 C8 1_555 1_555
C9 C8 1_555 1_555
C10 C9 1_555 1_555
H6 C10 1_555 1_555
C11 H7 1_555 1_555
C12 C11 1_555 1_555
H8 C12 1_555 1_555
C13 C9 1_555 1_555
H9 C13 1_555 1_555
N1 C7 1_555 1_555
H10 N1 1_555 1_555
N2 C10 1_555 1_555
O1 C1 1_555 1_555
C1B C3 1_555 1_555
C2B C1B 1_555 1_555
C3B C1 1_555 1_555
C4B C3B 1_555 1_555
H1B C4B 1_555 1_555
C5B C4B 1_555 1_555
H2B C5B 1_555 1_555
C6B C5B 1_555 1_555
H3B C6B 1_555 1_555
C7B C2B 1_555 1_555
C8B H4B 1_555 1_555
H5B C8B 1_555 1_555
C9B C8B 1_555 1_555
C10B C9B 1_555 1_555
H6B C10B 1_555 1_555
C11B H7B 1_555 1_555
C12B C11B 1_555 1_555
H8B C12B 1_555 1_555
C13B C9B 1_555 1_555
H9B C13B 1_555 1_555
N1B C7B 1_555 1_555
H10B N1B 1_555 1_555
N2B C10B 1_555 1_555
O1B C1B 1_555 1_555
C6 C7 1_555 1_555
C8 N1 1_555 1_555
C11 N2 1_555 1_555
C12 C13 1_555 1_555
C2B C3B 1_555 1_555
C6B C7B 1_555 1_555
C8B N1B 1_555 1_555
C11B N2B 1_555 1_555
C12B C13B 1_555 1_555

#END
