
#######################################################################
#
#                 Cambridge Crystallographic Data Centre
#                                CCDC 
#
#######################################################################
#
# If this CIF has been generated from an entry in the Cambridge 
# Structural Database, then it will include bibliographic, chemical, 
# crystal, experimental, refinement or atomic coordinate data resulting 
# from the CCDC's data processing and validation procedures.
#
#######################################################################

data_AROSAB
_chemical_name_common            
6,7-(1,2-Dicarba-closo-dodecaborane-1,2-diyl)-1,1,4,4,5,5-hexamethyl-2-phenyl-1,4,5-trisilacyclohept-2-ene
_chemical_formula_moiety         'C16 H34 B10 Si3'
_chemical_name_systematic        
6,7-(o-Carboranylene)-1,1,4,4,5,5-hexamethyl-2-phenyl-1,4,5-trisilacyclohept-2-ene
_symmetry_cell_setting           monoclinic
_symmetry_space_group_name_H-M   'P 21/c'
_symmetry_Int_Tables_number      14
_space_group_name_Hall           '-P 2ybc'
loop_
_symmetry_equiv_pos_site_id
_symmetry_equiv_pos_as_xyz
1 x,y,z
2 x,1/2-y,1/2+z
3 -x,-y,-z
4 -x,1/2+y,1/2-z
_cell_length_a                   10.5643(6)
_cell_length_b                   12.8852(7)
_cell_length_c                   19.5098(10)
_cell_angle_alpha                90
_cell_angle_beta                 105.0560(10)
_cell_angle_gamma                90
_cell_volume                     2564.57
_exptl_crystal_colour            colorless
_exptl_crystal_description       block
_cell_formula_units_Z            4
_exptl_crystal_recrystallization_method toluene
loop_
_atom_site_label
_atom_site_type_symbol
_atom_site_fract_x
_atom_site_fract_y
_atom_site_fract_z
Si1 Si 0.75948(7) 0.65739(7) 0.09889(4)
Si2 Si 0.98993(7) 0.66985(6) 0.13897(4)
Si3 Si 0.86823(6) 0.72920(5) 0.29492(3)
C1 C 0.6740(2) 0.60679(19) 0.16869(13)
C2 C 0.7223(2) 0.63851(18) 0.25535(12)
C3 C 0.6801(3) 0.7816(3) 0.06093(19)
H1 H 0.7099 0.8002 0.0201
H2 H 0.7029 0.8355 0.0960
H3 H 0.5866 0.7728 0.0472
C4 C 0.7232(4) 0.5601(3) 0.02513(17)
H4 H 0.6300 0.5538 0.0065
H5 H 0.7593 0.4940 0.0429
H6 H 0.7617 0.5826 -0.0118
C5 C 1.0585(3) 0.5649(3) 0.09284(17)
H7 H 1.1516 0.5606 0.1125
H8 H 1.0402 0.5804 0.0431
H9 H 1.0189 0.4997 0.0992
C6 C 1.0466(3) 0.7961(3) 0.11054(18)
H10 H 1.0168 0.8519 0.1350
H11 H 1.0115 0.8046 0.0603
H12 H 1.1406 0.7968 0.1217
C7 C 0.8627(3) 0.7589(2) 0.38733(14)
H13 H 0.9436 0.7909 0.4123
H14 H 0.8505 0.6958 0.4110
H15 H 0.7913 0.8053 0.3864
C8 C 0.8512(3) 0.8536(2) 0.24568(15)
H16 H 0.7730 0.8884 0.2495
H17 H 0.8460 0.8402 0.1966
H18 H 0.9259 0.8967 0.2655
C9 C 1.0288(2) 0.66551(19) 0.29489(12)
C10 C 1.0670(2) 0.6496(2) 0.23527(13)
H19 H 1.1511 0.6222 0.2441
C11 C 1.1227(3) 0.6414(2) 0.36426(14)
C12 C 1.0927(3) 0.5747(2) 0.41297(15)
H20 H 1.0098 0.5448 0.4029
C13 C 1.1821(4) 0.5511(3) 0.47619(17)
H21 H 1.1584 0.5061 0.5080
C14 C 1.3019(5) 0.5922(5) 0.4922(2)
H22 H 1.3614 0.5775 0.5353
C15 C 1.3357(5) 0.6560(6) 0.4442(3)
H23 H 1.4199 0.6836 0.4547
C16 C 1.2483(4) 0.6808(4) 0.3803(2)
H24 H 1.2741 0.7240 0.3482
B1 B 0.5804(3) 0.6915(3) 0.20321(17)
H25 H 0.5693 0.7743 0.1894
B2 B 0.5068(3) 0.5919(3) 0.14262(19)
H26 H 0.4466 0.6101 0.0890
B3 B 0.6111(3) 0.4830(3) 0.15971(18)
H27 H 0.6183 0.4296 0.1169
B4 B 0.7506(3) 0.5148(2) 0.22902(16)
H28 H 0.8489 0.4841 0.2316
B5 B 0.5885(3) 0.6457(3) 0.28983(18)
H29 H 0.5813 0.6988 0.3327
B6 B 0.4516(3) 0.6149(3) 0.2192(2)
H30 H 0.3543 0.6483 0.2157
B7 B 0.4709(3) 0.4857(3) 0.1921(2)
H31 H 0.3863 0.4346 0.1712
B8 B 0.6226(3) 0.4377(3) 0.24569(19)
H32 H 0.6375 0.3551 0.2597
B9 B 0.6942(3) 0.5369(2) 0.30575(17)
H33 H 0.7561 0.5194 0.3592
B10 B 0.5215(3) 0.5186(3) 0.2829(2)
H34 H 0.4699 0.4887 0.3210
loop_
_geom_bond_atom_site_label_1
_geom_bond_atom_site_label_2
_geom_bond_site_symmetry_1
_geom_bond_site_symmetry_2
Si1 Si2 1_555 1_555
Si2 C5 1_555 1_555
Si3 C2 1_555 1_555
C1 Si1 1_555 1_555
C2 C1 1_555 1_555
C3 Si1 1_555 1_555
H1 C3 1_555 1_555
H2 C3 1_555 1_555
H3 C3 1_555 1_555
C4 Si1 1_555 1_555
H4 C4 1_555 1_555
H5 C4 1_555 1_555
H6 C4 1_555 1_555
C5 H7 1_555 1_555
H8 C5 1_555 1_555
H9 C5 1_555 1_555
C6 Si2 1_555 1_555
H10 C6 1_555 1_555
H11 C6 1_555 1_555
H12 C6 1_555 1_555
C7 Si3 1_555 1_555
H13 C7 1_555 1_555
H14 C7 1_555 1_555
H15 C7 1_555 1_555
C8 Si3 1_555 1_555
H16 C8 1_555 1_555
H17 C8 1_555 1_555
H18 C8 1_555 1_555
C9 Si3 1_555 1_555
C10 Si2 1_555 1_555
H19 C10 1_555 1_555
C11 C9 1_555 1_555
C12 C11 1_555 1_555
H20 C12 1_555 1_555
C13 C12 1_555 1_555
H21 C13 1_555 1_555
C14 C13 1_555 1_555
H22 C14 1_555 1_555
C15 C14 1_555 1_555
H23 C15 1_555 1_555
C16 C11 1_555 1_555
H24 C16 1_555 1_555
B1 C1 1_555 1_555
H25 B1 1_555 1_555
B2 C1 1_555 1_555
H26 B2 1_555 1_555
B3 C1 1_555 1_555
H27 B3 1_555 1_555
B4 C1 1_555 1_555
H28 B4 1_555 1_555
B5 C2 1_555 1_555
H29 B5 1_555 1_555
B6 B1 1_555 1_555
H30 B6 1_555 1_555
B7 B2 1_555 1_555
H31 B7 1_555 1_555
B8 B3 1_555 1_555
H32 B8 1_555 1_555
B9 C2 1_555 1_555
H33 B9 1_555 1_555
B10 B5 1_555 1_555
H34 B10 1_555 1_555
C2 B4 1_555 1_555
C2 B1 1_555 1_555
C9 C10 1_555 1_555
C15 C16 1_555 1_555
B1 B5 1_555 1_555
B1 B2 1_555 1_555
B2 B6 1_555 1_555
B2 B3 1_555 1_555
B3 B4 1_555 1_555
B3 B7 1_555 1_555
B4 B9 1_555 1_555
B4 B8 1_555 1_555
B5 B6 1_555 1_555
B5 B9 1_555 1_555
B6 B10 1_555 1_555
B6 B7 1_555 1_555
B7 B10 1_555 1_555
B7 B8 1_555 1_555
B8 B9 1_555 1_555
B8 B10 1_555 1_555
B9 B10 1_555 1_555

#END
