
#######################################################################
#
#                 Cambridge Crystallographic Data Centre
#                                CCDC 
#
#######################################################################
#
# If this CIF has been generated from an entry in the Cambridge 
# Structural Database, then it will include bibliographic, chemical, 
# crystal, experimental, refinement or atomic coordinate data resulting 
# from the CCDC's data processing and validation procedures.
#
#######################################################################

data_ARUFAW
_chemical_formula_moiety         'C94 H28 O4,C6 H12'
_chemical_name_systematic        
'cis-bis(5-methoxy-5-oxo-1-phenylpentane-1,1-diyl)-C70-fullerene cyclohexane solvate'
_symmetry_cell_setting           triclinic
_symmetry_space_group_name_H-M   'P -1'
_symmetry_Int_Tables_number      2
_space_group_name_Hall           '-P 1'
loop_
_symmetry_equiv_pos_site_id
_symmetry_equiv_pos_as_xyz
1 x,y,z
2 -x,-y,-z
_cell_length_a                   10.0411(4)
_cell_length_b                   16.0700(8)
_cell_length_c                   17.8536(8)
_cell_angle_alpha                96.956(4)
_cell_angle_beta                 94.014(3)
_cell_angle_gamma                92.562(4)
_cell_volume                     2848.53
_exptl_crystal_colour            'dark red'
_exptl_crystal_description       block
_cell_formula_units_Z            2
loop_
_atom_site_label
_atom_site_type_symbol
_atom_site_fract_x
_atom_site_fract_y
_atom_site_fract_z
O1 O 0.640(2) 0.9004(12) 0.1052(10)
C1 C 1.1002(19) 1.2676(14) 0.6227(12)
C2 C 1.029(2) 1.2433(14) 0.4842(12)
C3 C 0.755(2) 1.0495(13) 0.5596(15)
C4 C 1.092(2) 1.2327(15) 0.6911(12)
C5 C 0.707(2) 1.4383(14) 0.4890(14)
C6 C 0.921(2) 1.1115(14) 0.4866(13)
C7 C 0.840(2) 1.0610(13) 0.6268(14)
C8 C 1.002(2) 1.1327(14) 0.5560(13)
C9 C 0.890(2) 1.3544(14) 0.4418(13)
C10 C 0.799(2) 1.2966(14) 0.4003(13)
C11 C 0.953(2) 1.4643(14) 0.6926(14)
C12 C 1.028(2) 1.3838(14) 0.5549(13)
C13 C 1.067(2) 1.2132(14) 0.5549(13)
C14 C 0.653(2) 1.4685(14) 0.5596(15)
C15 C 0.639(3) 1.0802(15) 0.6981(15)
C16 C 0.877(2) 1.3600(16) 0.8516(13)
C17 C 0.615(2) 1.0615(14) 0.5618(15)
C18 C 1.077(2) 1.2835(15) 0.7620(13)
C19 C 1.006(2) 1.3272(14) 0.4850(13)
C20 C 0.690(2) 1.1643(15) 0.4023(13)
C21 C 0.677(2) 1.4879(15) 0.6956(15)
C22 C 0.970(2) 1.1516(15) 0.7641(13)
C23 C 0.525(2) 1.4264(15) 0.5619(15)
C24 C 0.880(2) 1.4800(13) 0.6250(14)
C25 C 0.969(2) 1.1052(14) 0.6248(13)
C26 C 0.891(2) 1.4654(14) 0.7635(14)
C27 C 0.592(2) 1.2263(15) 0.4058(14)
C28 C 0.395(2) 1.2676(17) 0.5639(15)
C29 C 0.471(2) 1.1504(16) 0.4934(16)
C30 C 0.736(2) 1.3702(16) 0.8503(14)
C31 C 0.676(2) 1.4291(16) 0.8097(14)
C32 C 0.410(2) 1.3240(17) 0.6316(16)
C33 C 1.054(2) 1.3666(15) 0.7620(13)
C34 C 0.613(2) 1.3779(15) 0.4466(14)
C35 C 1.081(2) 1.3565(14) 0.6229(13)
C36 C 0.500(2) 1.3697(15) 0.4918(14)
C37 C 0.903(2) 1.2727(17) 0.8648(13)
C38 C 0.953(2) 1.4060(15) 0.8072(13)
C39 C 0.950(2) 1.1748(14) 0.4353(13)
C40 C 0.658(2) 1.3074(15) 0.4048(13)
C41 C 1.052(2) 1.4035(14) 0.6917(13)
C42 C 0.440(2) 1.1997(17) 0.7003(16)
C43 C 0.669(2) 1.2897(17) 0.8517(14)
C44 C 0.820(2) 1.2055(14) 0.3876(13)
C45 C 0.737(2) 1.4922(13) 0.6269(14)
C46 C 0.756(2) 1.4773(15) 0.7649(14)
C47 C 0.557(2) 1.0849(15) 0.6310(16)
C48 C 0.519(2) 1.1896(17) 0.7689(16)
C49 C 0.478(2) 1.4070(16) 0.6302(15)
C50 C 0.842(2) 1.4265(14) 0.4876(14)
C51 C 1.027(2) 1.1527(14) 0.6921(13)
C52 C 1.017(2) 1.2295(16) 0.8132(13)
C53 C 0.770(2) 1.2281(17) 0.8537(14)
C54 C 0.548(2) 1.4089(16) 0.7676(15)
C55 C 0.416(2) 1.1803(17) 0.5642(16)
C56 C 0.798(2) 1.0721(13) 0.4885(13)
C57 C 0.928(2) 1.4443(14) 0.5562(14)
C58 C 0.846(3) 1.1118(15) 0.7651(14)
C59 C 1.029(2) 1.2152(16) 0.3116(13)
C60 C 1.165(3) 1.209(2) 0.3250(16)
H1 H 1.1987 1.1745 0.3607
C61 C 1.254(3) 1.254(2) 0.2864(17)
H2 H 1.3476 1.2507 0.2969
C62 C 1.208(3) 1.303(2) 0.2334(17)
H3 H 1.2688 1.3326 0.2066
C63 C 1.073(3) 1.3092(18) 0.2191(16)
H4 H 1.0410 1.3432 0.1824
C64 C 0.983(3) 1.2657(16) 0.2582(15)
H5 H 0.8893 1.2705 0.2483
C65 C 0.549(2) 1.4460(15) 0.6976(15)
C66 C 0.660(3) 0.9791(17) 0.1387(15)
C67 C 0.778(3) 1.0687(14) 0.6967(15)
C68 C 0.796(3) 1.0728(16) 0.2427(15)
H6 H 0.71(3) 1.10(2) 0.251(18)
H7 H 0.82(3) 1.11(2) 0.209(19)
C69 C 0.933(2) 1.1633(15) 0.3496(13)
C70 C 0.436(2) 1.2915(16) 0.4932(15)
C71 C 0.570(2) 1.0928(14) 0.4924(15)
C72 C 0.453(2) 1.1471(17) 0.6317(16)
C73 C 0.899(3) 1.0741(16) 0.3099(14)
H8 H 0.99(3) 1.048(19) 0.296(17)
H9 H 0.87(3) 1.035(19) 0.345(18)
C74 C 1.133(3) 1.3101(19) 0.9363(14)
C75 C 1.267(3) 1.307(2) 0.9222(15)
H10 H 1.2941 1.2640 0.8857
C76 C 1.361(3) 1.365(2) 0.9609(17)
H11 H 1.4526 1.3618 0.9505
C77 C 1.323(3) 1.427(2) 1.0147(17)
H12 H 1.3882 1.4664 1.0415
C78 C 1.189(3) 1.431(2) 1.0292(16)
H13 H 1.1629 1.4733 1.0663
C79 C 1.095(3) 1.374(2) 0.9903(15)
H14 H 1.0031 1.3782 0.9999
C80 C 0.485(2) 1.3313(17) 0.7689(15)
C81 C 0.482(2) 1.2185(16) 0.4492(14)
C82 C 0.680(2) 1.0987(14) 0.4457(14)
C83 C 0.618(3) 1.1307(17) 0.7681(16)
C84 C 0.419(2) 1.2870(17) 0.7000(16)
C85 C 1.031(3) 1.2431(18) 0.8992(14)
C86 C 0.546(2) 1.2704(18) 0.8118(15)
C87 C 0.763(3) 0.9840(16) 0.2038(15)
H15 H 0.85(3) 0.96(2) 0.188(18)
H16 H 0.73(3) 0.95(2) 0.245(19)
C88 C 0.744(2) 1.1505(16) 0.8116(15)
C89 C 1.022(3) 1.166(2) 0.9398(16)
C90 C 0.537(3) 0.886(2) 0.0431(17)
H17 H 0.5304 0.8269 0.0227
H18 H 0.5605 0.9202 0.0033
H19 H 0.4510 0.9029 0.0613
C91 C 0.968(4) 1.185(3) 1.017(2)
H20 H 1.0329 1.2253 1.0491
H21 H 0.8835 1.2140 1.0109
O2 O 1.170(4) 1.115(3) 1.089(2)
C92 C 1.048(6) 1.084(3) 1.092(3)
C93 C 0.944(6) 1.114(5) 1.057(3)
H22 H 0.8788 1.1291 1.0945
H23 H 0.9005 1.0680 1.0197
O3 O 1.043(6) 1.030(3) 1.138(4)
H24 H 0.96(3) 1.119(18) 0.911(16)
H25 H 1.12(4) 1.14(2) 0.94(2)
O4 O 0.600(3) 1.0360(15) 0.1190(16)
C94 C 1.279(7) 1.085(4) 1.136(4)
H26 H 1.2964 1.0273 1.1160
H27 H 1.2524 1.0858 1.1882
H28 H 1.3595 1.1212 1.1361
C95 C 0.580(7) 1.377(4) 0.218(3)
H29 H 0.5025 1.4008 0.1924
H30 H 0.5632 1.3782 0.2722
C96 C 0.738(7) 1.342(6) 0.092(4)
H31 H 0.8220 1.3183 0.1102
H32 H 0.7424 1.3457 0.0372
C97 C 0.589(5) 1.287(3) 0.184(4)
H33 H 0.5032 1.2554 0.1870
H34 H 0.6596 1.2604 0.2134
C98 C 0.622(7) 1.283(5) 0.103(4)
H35 H 0.6440 1.2250 0.0840
H36 H 0.5428 1.2971 0.0716
C99 C 0.732(11) 1.427(6) 0.131(6)
H37 H 0.6638 1.4568 0.1035
H38 H 0.8195 1.4577 0.1295
C100 C 0.699(4) 1.430(3) 0.212(3)
H39 H 0.7755 1.4107 0.2425
H40 H 0.6845 1.4887 0.2327
C101? C 0.730(14) 1.394(11) 0.071(10)
H41? H 0.6888 1.4216 0.0285
H42? H 0.8216 1.3803 0.0582
C102? C 0.62(2) 1.356(9) 0.214(10)
H43? H 0.5335 1.3720 0.2295
H44? H 0.6640 1.3265 0.2540
C103? C 0.60(3) 1.296(12) 0.147(9)
H45? H 0.5019 1.2841 0.1369
H46? H 0.6386 1.2427 0.1583
C104? C 0.65(2) 1.318(12) 0.078(11)
H47? H 0.7081 1.2717 0.0596
H48? H 0.5749 1.3164 0.0402
C105? C 0.737(18) 1.452(12) 0.140(7)
H49? H 0.6822 1.4992 0.1285
H50? H 0.8306 1.4747 0.1482
loop_
_geom_bond_atom_site_label_1
_geom_bond_atom_site_label_2
_geom_bond_site_symmetry_1
_geom_bond_site_symmetry_2
O1 C66 1_555 1_555
C1 C4 1_555 1_555
C2 C13 1_555 1_555
C3 C7 1_555 1_555
C4 C18 1_555 1_555
C5 C14 1_555 1_555
C6 C8 1_555 1_555
C7 C25 1_555 1_555
C8 C13 1_555 1_555
C9 C10 1_555 1_555
C10 C40 1_555 1_555
C11 C24 1_555 1_555
C12 C19 1_555 1_555
C13 C1 1_555 1_555
C14 C23 1_555 1_555
C15 C47 1_555 1_555
C16 C30 1_555 1_555
C17 C3 1_555 1_555
C18 C33 1_555 1_555
C19 C2 1_555 1_555
C20 C27 1_555 1_555
C21 C45 1_555 1_555
C22 C51 1_555 1_555
C23 C36 1_555 1_555
C24 C45 1_555 1_555
C25 C8 1_555 1_555
C26 C11 1_555 1_555
C27 C40 1_555 1_555
C28 C32 1_555 1_555
C29 C55 1_555 1_555
C30 C31 1_555 1_555
C31 C46 1_555 1_555
C32 C49 1_555 1_555
C33 C38 1_555 1_555
C34 C5 1_555 1_555
C35 C1 1_555 1_555
C36 C34 1_555 1_555
C37 C16 1_555 1_555
C38 C16 1_555 1_555
C39 C2 1_555 1_555
C40 C34 1_555 1_555
C41 C11 1_555 1_555
C42 C48 1_555 1_555
C43 C30 1_555 1_555
C44 C10 1_555 1_555
C45 C14 1_555 1_555
C46 C21 1_555 1_555
C47 C17 1_555 1_555
C48 C83 1_555 1_555
C49 C23 1_555 1_555
C50 C5 1_555 1_555
C51 C4 1_555 1_555
C52 C18 1_555 1_555
C53 C37 1_555 1_555
C54 C31 1_555 1_555
C55 C28 1_555 1_555
C56 C3 1_555 1_555
C57 C12 1_555 1_555
C58 C22 1_555 1_555
C59 C60 1_555 1_555
C60 H1 1_555 1_555
C61 C60 1_555 1_555
H2 C61 1_555 1_555
C62 C61 1_555 1_555
H3 C62 1_555 1_555
C63 C62 1_555 1_555
H4 C63 1_555 1_555
C64 C59 1_555 1_555
H5 C64 1_555 1_555
C65 C21 1_555 1_555
C66 C87 1_555 1_555
C67 C7 1_555 1_555
C68 H6 1_555 1_555
H7 C68 1_555 1_555
C69 C39 1_555 1_555
C70 C28 1_555 1_555
C71 C17 1_555 1_555
C72 C42 1_555 1_555
C73 C68 1_555 1_555
H8 C73 1_555 1_555
H9 C73 1_555 1_555
C74 C75 1_555 1_555
C75 H10 1_555 1_555
C76 C75 1_555 1_555
H11 C76 1_555 1_555
C77 C76 1_555 1_555
H12 C77 1_555 1_555
C78 C77 1_555 1_555
H13 C78 1_555 1_555
C79 C74 1_555 1_555
H14 C79 1_555 1_555
C80 C54 1_555 1_555
C81 C27 1_555 1_555
C82 C20 1_555 1_555
C83 C15 1_555 1_555
C84 C32 1_555 1_555
C85 C37 1_555 1_555
C86 C43 1_555 1_555
C87 C68 1_555 1_555
H15 C87 1_555 1_555
H16 C87 1_555 1_555
C88 C53 1_555 1_555
C89 C85 1_555 1_555
C90 O1 1_555 1_555
H17 C90 1_555 1_555
H18 C90 1_555 1_555
H19 C90 1_555 1_555
C91 C89 1_555 1_555
H20 C91 1_555 1_555
H21 C91 1_555 1_555
O2 C92 1_555 1_555
C92 C93 1_555 1_555
C93 C91 1_555 1_555
H22 C93 1_555 1_555
H23 C93 1_555 1_555
O3 C92 1_555 1_555
H24 C89 1_555 1_555
H25 C89 1_555 1_555
O4 C66 1_555 1_555
C94 O2 1_555 1_555
H26 C94 1_555 1_555
H27 C94 1_555 1_555
H28 C94 1_555 1_555
C95 H29 1_555 1_555
H30 C95 1_555 1_555
C96 H31 1_555 1_555
H32 C96 1_555 1_555
C97 C95 1_555 1_555
H33 C97 1_555 1_555
H34 C97 1_555 1_555
C98 C96 1_555 1_555
H35 C98 1_555 1_555
H36 C98 1_555 1_555
C99 C96 1_555 1_555
H37 C99 1_555 1_555
H38 C99 1_555 1_555
C100 C95 1_555 1_555
H39 C100 1_555 1_555
H40 C100 1_555 1_555
C6 C39 1_555 1_555
C6 C56 1_555 1_555
C9 C19 1_555 1_555
C9 C50 1_555 1_555
C12 C35 1_555 1_555
C15 C67 1_555 1_555
C20 C44 1_555 1_555
C22 C52 1_555 1_555
C24 C57 1_555 1_555
C25 C51 1_555 1_555
C26 C38 1_555 1_555
C26 C46 1_555 1_555
C29 C71 1_555 1_555
C29 C81 1_555 1_555
C33 C41 1_555 1_555
C35 C41 1_555 1_555
C36 C70 1_555 1_555
C37 C52 1_555 1_555
C39 C44 1_555 1_555
C42 C84 1_555 1_555
C43 C53 1_555 1_555
C44 C69 1_555 1_555
C47 C72 1_555 1_555
C48 C86 1_555 1_555
C49 C65 1_555 1_555
C50 C57 1_555 1_555
C52 C85 1_555 1_555
C54 C65 1_555 1_555
C55 C72 1_555 1_555
C56 C82 1_555 1_555
C58 C67 1_555 1_555
C58 C88 1_555 1_555
C59 C69 1_555 1_555
C63 C64 1_555 1_555
C69 C73 1_555 1_555
C70 C81 1_555 1_555
C71 C82 1_555 1_555
C74 C85 1_555 1_555
C78 C79 1_555 1_555
C80 C84 1_555 1_555
C80 C86 1_555 1_555
C83 C88 1_555 1_555
C97 C98 1_555 1_555
C99 C100 1_555 1_555

#END
