
#######################################################################
#
#                 Cambridge Crystallographic Data Centre
#                                CCDC 
#
#######################################################################
#
# If this CIF has been generated from an entry in the Cambridge 
# Structural Database, then it will include bibliographic, chemical, 
# crystal, experimental, refinement or atomic coordinate data resulting 
# from the CCDC's data processing and validation procedures.
#
#######################################################################

data_ARULEG
_chemical_formula_moiety         'C15 H14 O6'
_chemical_name_systematic        
'3,5-bis(1-hydroxy-3-oxobut-1-en-1-yl)benzoic acid'
_symmetry_cell_setting           monoclinic
_symmetry_space_group_name_H-M   'P 21/n'
_symmetry_Int_Tables_number      14
_space_group_name_Hall           '-P 2yn'
loop_
_symmetry_equiv_pos_site_id
_symmetry_equiv_pos_as_xyz
1 x,y,z
2 1/2-x,1/2+y,1/2-z
3 -x,-y,-z
4 1/2+x,1/2-y,1/2+z
_cell_length_a                   3.8397(19)
_cell_length_b                   16.676(8)
_cell_length_c                   20.455(10)
_cell_angle_alpha                90
_cell_angle_beta                 93.894(10)
_cell_angle_gamma                90
_cell_volume                     1306.73
_exptl_crystal_colour            colorless
_exptl_crystal_description       block
_cell_formula_units_Z            4
loop_
_atom_site_label
_atom_site_type_symbol
_atom_site_fract_x
_atom_site_fract_y
_atom_site_fract_z
O1 O 0.4923(8) 0.78412(15) 0.75960(13)
H1 H 0.5001 0.7695 0.7215
O2 O 0.7961(7) 0.50155(15) 1.11464(13)
C1 C 0.5460(9) 0.7395(2) 0.86800(18)
O3 O 0.0916(8) 0.90923(15) 1.02897(13)
O4 O 0.6998(8) 0.70960(16) 0.66632(13)
O5 O 0.8047(8) 0.56770(15) 1.00374(13)
H2 H 0.8275 0.5322 1.0315
O6 O 0.1621(9) 0.95555(16) 0.92938(15)
C2 C 0.7781(9) 0.6626(2) 0.77338(18)
H3 H 0.8670 0.6229 0.8018
C3 C 0.3388(9) 0.8236(2) 0.95250(18)
C4 C 0.6201(9) 0.6808(2) 0.91437(18)
H4 H 0.7152 0.6324 0.9016
C5 C 0.4104(9) 0.7644(2) 0.99852(18)
H5 H 0.3616 0.7728 1.0419
C6 C 0.4060(9) 0.8116(2) 0.88782(19)
H6 H 0.3573 0.8521 0.8573
C7 C 0.6316(10) 0.5639(2) 1.13323(18)
C8 C 0.5558(9) 0.6922(2) 0.97993(18)
C9 C 0.5572(9) 0.6284(2) 1.09196(19)
H7 H 0.4472 0.6733 1.1079
C10 C 0.6440(9) 0.6271(2) 1.02705(18)
C11 C 0.6064(9) 0.7284(2) 0.79780(18)
C12 C 0.1894(9) 0.9010(2) 0.97297(18)
C13 C 0.5254(11) 0.5633(2) 1.20185(19)
H8 H 0.7280 0.5699 1.2315
H9 H 0.4148 0.5131 1.2105
H10 H 0.3648 0.6064 1.2078
C14 C 0.8169(9) 0.6561(2) 0.70679(18)
C15 C 0.9859(11) 0.5854(2) 0.67760(19)
H11 H 1.1125 0.6025 0.6412
H12 H 0.8101 0.5474 0.6628
H13 H 1.1439 0.5608 0.7100
H14 H 0.094(17) 0.998(2) 0.944(3)
loop_
_geom_bond_atom_site_label_1
_geom_bond_atom_site_label_2
_geom_bond_site_symmetry_1
_geom_bond_site_symmetry_2
O1 H1 1_555 1_555
O2 C7 1_555 1_555
C1 C4 1_555 1_555
O3 C12 1_555 1_555
O4 C14 1_555 1_555
O5 H2 1_555 1_555
O6 C12 1_555 1_555
C2 H3 1_555 1_555
C3 C5 1_555 1_555
C4 H4 1_555 1_555
C5 H5 1_555 1_555
C6 C1 1_555 1_555
H6 C6 1_555 1_555
C7 C9 1_555 1_555
C8 C4 1_555 1_555
C9 H7 1_555 1_555
C10 O5 1_555 1_555
C11 O1 1_555 1_555
C12 C3 1_555 1_555
C13 C7 1_555 1_555
H8 C13 1_555 1_555
H9 C13 1_555 1_555
H10 C13 1_555 1_555
C14 C2 1_555 1_555
C15 C14 1_555 1_555
H11 C15 1_555 1_555
H12 C15 1_555 1_555
H13 C15 1_555 1_555
H14 O6 1_555 1_555
C1 C11 1_555 1_555
C2 C11 1_555 1_555
C3 C6 1_555 1_555
C5 C8 1_555 1_555
C8 C10 1_555 1_555
C9 C10 1_555 1_555

#END
