
#######################################################################
#
#                 Cambridge Crystallographic Data Centre
#                                CCDC 
#
#######################################################################
#
# If this CIF has been generated from an entry in the Cambridge 
# Structural Database, then it will include bibliographic, chemical, 
# crystal, experimental, refinement or atomic coordinate data resulting 
# from the CCDC's data processing and validation procedures.
#
#######################################################################

data_ARUVAL
_chemical_formula_moiety         'C36 H37 Br1 O6'
_chemical_name_systematic        
'3,5-Diallyl-1-benzoyl-7-(1-hydroxy-3-methylbut-2-en-1-yl)-8,8-dimethyl-4,9-dioxobicyclo[3.3.1]non-2-en-2-yl 4-bromobenzoate'
_symmetry_cell_setting           monoclinic
_symmetry_space_group_name_H-M   'P 21/c'
_symmetry_Int_Tables_number      14
_space_group_name_Hall           '-P 2ybc'
loop_
_symmetry_equiv_pos_site_id
_symmetry_equiv_pos_as_xyz
1 x,y,z
2 -x,1/2+y,1/2-z
3 -x,-y,-z
4 x,1/2-y,1/2+z
_cell_length_a                   16.1664(6)
_cell_length_b                   22.2456(9)
_cell_length_c                   8.7124(4)
_cell_angle_alpha                90
_cell_angle_beta                 91.709(2)
_cell_angle_gamma                90
_cell_volume                     3131.86
_exptl_crystal_colour            colorless
_exptl_crystal_description       block
_cell_formula_units_Z            4
loop_
_atom_site_label
_atom_site_type_symbol
_atom_site_fract_x
_atom_site_fract_y
_atom_site_fract_z
Br1 Br 0.388217(19) 0.260146(18) 0.28656(4)
O1 O 0.69354(9) 0.40446(7) -0.06447(17)
O2 O 0.77446(10) 0.37101(8) 0.13400(19)
O3 O 0.66364(11) 0.32636(9) -0.3852(2)
O4 O 0.74008(10) 0.45851(9) -0.54519(19)
O5 O 1.00044(13) 0.44911(9) -0.1154(3)
H1 H 1.022(2) 0.4484(15) -0.028(4)
O6 O 0.88815(10) 0.55637(8) -0.1641(2)
C1 C 0.75387(12) 0.43286(11) -0.1489(3)
C2 C 0.75792(13) 0.40540(11) -0.3078(3)
C3 C 0.83274(14) 0.35848(11) -0.3214(3)
C4 C 0.91840(13) 0.39098(12) -0.2972(3)
H2 H 0.9539(14) 0.3647(10) -0.349(3)
C5 C 0.92319(15) 0.44983(13) -0.3885(3)
H3 H 0.9257(15) 0.4406(11) -0.494(3)
H4 H 0.9721(17) 0.4720(12) -0.359(3)
C6 C 0.84892(14) 0.49349(12) -0.3743(3)
C7 C 0.84644(13) 0.51386(11) -0.2070(3)
C8 C 0.79219(13) 0.48248(11) -0.0995(3)
C9 C 0.77620(14) 0.45537(12) -0.4217(3)
C10 C 0.70774(14) 0.37560(11) 0.0731(3)
C11 C 0.62883(13) 0.35037(11) 0.1263(2)
C12 C 0.63148(16) 0.31260(13) 0.2515(3)
H5 H 0.6810(19) 0.3066(13) 0.303(3)
C13 C 0.55985(17) 0.28633(14) 0.3019(3)
H6 H 0.5626(18) 0.2601(13) 0.386(3)
C14 C 0.48648(15) 0.29814(12) 0.2244(3)
C15 C 0.48234(16) 0.33646(13) 0.1018(3)
H7 H 0.4311(19) 0.3458(13) 0.051(3)
C16 C 0.55359(15) 0.36284(13) 0.0522(3)
H8 H 0.5512(15) 0.3885(12) -0.034(3)
C17 C 0.67099(14) 0.37840(13) -0.3502(3)
C18 C 0.59523(14) 0.41726(12) -0.3410(3)
C19 C 0.59492(15) 0.47843(14) -0.3136(3)
H9 H 0.6427(17) 0.5010(12) -0.311(3)
C20 C 0.52130(17) 0.50915(17) -0.2981(3)
H10 H 0.5230(17) 0.5502(14) -0.282(3)
C21 C 0.44698(17) 0.47878(19) -0.3098(3)
H11 H 0.400(2) 0.5003(14) -0.302(3)
C22 C 0.44612(17) 0.41830(19) -0.3378(3)
H12 H 0.395(2) 0.3954(15) -0.349(4)
C23 C 0.51947(16) 0.38738(16) -0.3545(3)
H13 H 0.5218(17) 0.3448(14) -0.377(3)
C24 C 0.82380(15) 0.30719(12) -0.2066(3)
H14 H 0.7704 0.2872 -0.2248
H15 H 0.8267 0.3233 -0.1019
H16 H 0.8686 0.2781 -0.2194
C25 C 0.83229(16) 0.33114(14) -0.4837(3)
H17 H 0.8817 0.3062 -0.4949
H18 H 0.8322 0.3635 -0.5601
H19 H 0.7827 0.3063 -0.4996
C26 C 0.95409(14) 0.39454(12) -0.1297(3)
H20 H 0.9119(14) 0.3948(10) -0.056(3)
C27 C 1.01038(15) 0.34296(12) -0.0933(3)
H21 H 1.0441(15) 0.3328(11) -0.170(3)
C28 C 1.02341(16) 0.31592(12) 0.0407(3)
C29 C 1.0879(2) 0.26712(15) 0.0579(4)
H22 H 1.1167 0.2626 -0.0388
H23 H 1.0610 0.2291 0.0837
H24 H 1.1279 0.2780 0.1400
C30 C 0.97921(18) 0.33094(15) 0.1831(3)
H25 H 0.9359 0.3606 0.1594
H26 H 1.0186 0.3476 0.2595
H27 H 0.9541 0.2945 0.2242
C31 C 0.85973(18) 0.54752(15) -0.4812(4)
H28 H 0.9091(18) 0.5667(12) -0.446(3)
H29 H 0.869(2) 0.5340(15) -0.583(4)
C32 C 0.7850(5) 0.5851(5) -0.4998(10)
H30 H 0.7380 0.5704 -0.5560
C33 C 0.7835(5) 0.6374(4) -0.4405(16)
H31 H 0.8305 0.6522 -0.3843
H32 H 0.7354 0.6617 -0.4524
C34 C 0.78060(18) 0.51232(13) 0.0534(3)
H33 H 0.835(2) 0.5248(14) 0.095(3)
H34 H 0.7592(18) 0.4850(13) 0.124(3)
C35 C 0.72424(18) 0.56553(16) 0.0364(4)
H35 H 0.667(2) 0.5559(15) 0.009(4)
C36 C 0.7474(3) 0.6203(2) 0.0539(6)
H36 H 0.803(2) 0.6288(15) 0.088(4)
H37 H 0.711(3) 0.651(2) 0.049(5)
C37? C 0.7994(9) 0.6034(7) -0.441(2)
C38? C 0.7646(7) 0.6340(5) -0.550(2)
H38? H 0.7898 0.6135 -0.3366
H39? H 0.7743 0.6238 -0.6538
H40? H 0.7293 0.6667 -0.5269
loop_
_geom_bond_atom_site_label_1
_geom_bond_atom_site_label_2
_geom_bond_site_symmetry_1
_geom_bond_site_symmetry_2
Br1 C14 1_555 1_555
O1 C1 1_555 1_555
O2 C10 1_555 1_555
O3 C17 1_555 1_555
O4 C9 1_555 1_555
O5 H1 1_555 1_555
O6 C7 1_555 1_555
C1 C2 1_555 1_555
C2 C3 1_555 1_555
C3 C4 1_555 1_555
C4 H2 1_555 1_555
C5 C4 1_555 1_555
H3 C5 1_555 1_555
H4 C5 1_555 1_555
C6 C5 1_555 1_555
C7 C6 1_555 1_555
C8 C1 1_555 1_555
C9 C2 1_555 1_555
C10 O1 1_555 1_555
C11 C10 1_555 1_555
C12 C11 1_555 1_555
H5 C12 1_555 1_555
C13 C12 1_555 1_555
H6 C13 1_555 1_555
C14 C13 1_555 1_555
C15 C14 1_555 1_555
H7 C15 1_555 1_555
C16 C11 1_555 1_555
H8 C16 1_555 1_555
C17 C2 1_555 1_555
C18 C17 1_555 1_555
C19 C18 1_555 1_555
H9 C19 1_555 1_555
C20 C19 1_555 1_555
H10 C20 1_555 1_555
C21 C20 1_555 1_555
H11 C21 1_555 1_555
C22 C21 1_555 1_555
H12 C22 1_555 1_555
C23 C18 1_555 1_555
H13 C23 1_555 1_555
C24 C3 1_555 1_555
H14 C24 1_555 1_555
H15 C24 1_555 1_555
H16 C24 1_555 1_555
C25 C3 1_555 1_555
H17 C25 1_555 1_555
H18 C25 1_555 1_555
H19 C25 1_555 1_555
C26 O5 1_555 1_555
H20 C26 1_555 1_555
C27 C26 1_555 1_555
H21 C27 1_555 1_555
C28 C27 1_555 1_555
C29 C28 1_555 1_555
H22 C29 1_555 1_555
H23 C29 1_555 1_555
H24 C29 1_555 1_555
C30 C28 1_555 1_555
H25 C30 1_555 1_555
H26 C30 1_555 1_555
H27 C30 1_555 1_555
C31 C6 1_555 1_555
H28 C31 1_555 1_555
H29 C31 1_555 1_555
C32 C31 1_555 1_555
H30 C32 1_555 1_555
C33 C32 1_555 1_555
H31 C33 1_555 1_555
H32 C33 1_555 1_555
C34 C8 1_555 1_555
H33 C34 1_555 1_555
H34 C34 1_555 1_555
C35 C34 1_555 1_555
H35 C35 1_555 1_555
C36 C35 1_555 1_555
H36 C36 1_555 1_555
H37 C36 1_555 1_555
C4 C26 1_555 1_555
C6 C9 1_555 1_555
C7 C8 1_555 1_555
C15 C16 1_555 1_555
C22 C23 1_555 1_555

#END
