
#######################################################################
#
#                 Cambridge Crystallographic Data Centre
#                                CCDC 
#
#######################################################################
#
# If this CIF has been generated from an entry in the Cambridge 
# Structural Database, then it will include bibliographic, chemical, 
# crystal, experimental, refinement or atomic coordinate data resulting 
# from the CCDC's data processing and validation procedures.
#
#######################################################################

data_ASAFUV
_chemical_formula_moiety         'C12 H11 N1 O1'
_chemical_name_systematic        7-(2-Methylvinyl)-8-hydroxyquinoline
_symmetry_cell_setting           orthorhombic
_symmetry_space_group_name_H-M   'P b c a'
_symmetry_Int_Tables_number      61
_space_group_name_Hall           '-P 2ac 2ab'
loop_
_symmetry_equiv_pos_site_id
_symmetry_equiv_pos_as_xyz
1 x,y,z
2 1/2+x,y,1/2-z
3 x,1/2-y,1/2+z
4 1/2-x,1/2+y,z
5 -x,-y,-z
6 1/2-x,-y,1/2+z
7 -x,1/2+y,1/2-z
8 1/2+x,1/2-y,-z
_cell_length_a                   7.4750(2)
_cell_length_b                   15.8320(3)
_cell_length_c                   16.6010(4)
_cell_angle_alpha                90
_cell_angle_beta                 90
_cell_angle_gamma                90
_cell_volume                     1964.63
_chemical_melting_point          85-86deg.C
_cell_formula_units_Z            8
_exptl_crystal_recrystallization_method hexane
loop_
_atom_site_label
_atom_site_type_symbol
_atom_site_fract_x
_atom_site_fract_y
_atom_site_fract_z
O1 O 0.7583(2) -0.01445(10) 0.55637(10)
N1 N 0.5030(3) 0.10749(11) 0.54291(10)
C1 C 0.3807(4) 0.1671(2) 0.53847(14)
H1 H 0.2758(4) 0.1549(2) 0.51065(14)
C2 C 0.3972(5) 0.2472(2) 0.5725(2)
H2 H 0.3069(5) 0.2871(2) 0.5664(2)
C3 C 0.5471(5) 0.2656(2) 0.61452(15)
H3 H 0.5600(5) 0.3185(2) 0.63818(15)
C4 C 0.6837(4) 0.2050(2) 0.62259(12)
C5 C 0.8446(4) 0.2180(2) 0.6644(2)
H4 H 0.8650(4) 0.2691(2) 0.6905(2)
C6 C 0.9714(4) 0.1560(2) 0.6669(2)
H5 H 1.0781(4) 0.1666(2) 0.6938(2)
C7 C 0.9470(3) 0.07610(15) 0.63016(12)
C8 C 0.7880(3) 0.06240(13) 0.59035(11)
C9 C 0.6548(3) 0.12600(13) 0.58506(11)
C10 C 1.0836(3) 0.0090(2) 0.63330(13)
H6 H 1.0686(3) -0.0354(2) 0.59727(13)
C11 C 1.2225(4) 0.0043(2) 0.6803(2)
H7 H 1.2385(4) 0.0480(2) 0.7170(2)
C12 C 1.3565(4) -0.0638(2) 0.6808(2)
H8 H 1.4451(4) -0.0521(2) 0.7212(2)
H9 H 1.4128(4) -0.0670(2) 0.6290(2)
H10 H 1.2989(4) -0.1165(2) 0.6927(2)
H11 H 0.6542(36) -0.0136(17) 0.5283(16)
loop_
_geom_bond_atom_site_label_1
_geom_bond_atom_site_label_2
_geom_bond_site_symmetry_1
_geom_bond_site_symmetry_2
O1 C8 1_555 1_555
N1 C1 1_555 1_555
C1 H1 1_555 1_555
C2 C1 1_555 1_555
H2 C2 1_555 1_555
C3 C2 1_555 1_555
H3 C3 1_555 1_555
C4 C3 1_555 1_555
C5 C4 1_555 1_555
H4 C5 1_555 1_555
C6 C5 1_555 1_555
H5 C6 1_555 1_555
C7 C6 1_555 1_555
C8 C7 1_555 1_555
C9 N1 1_555 1_555
C10 C7 1_555 1_555
H6 C10 1_555 1_555
C11 C10 1_555 1_555
H7 C11 1_555 1_555
C12 C11 1_555 1_555
H8 C12 1_555 1_555
H9 C12 1_555 1_555
H10 C12 1_555 1_555
H11 O1 1_555 1_555
C4 C9 1_555 1_555
C8 C9 1_555 1_555

#END
