
#######################################################################
#
#                 Cambridge Crystallographic Data Centre
#                                CCDC 
#
#######################################################################
#
# If this CIF has been generated from an entry in the Cambridge 
# Structural Database, then it will include bibliographic, chemical, 
# crystal, experimental, refinement or atomic coordinate data resulting 
# from the CCDC's data processing and validation procedures.
#
#######################################################################

data_ASEGOW
_chemical_formula_moiety         'C16 H15 Cl1 N4 O1'
_chemical_name_systematic        
3-(azidomethyl)-3-chloro-1-(1-naphthylmethyl)pyrrolidin-2-one
_symmetry_cell_setting           orthorhombic
_symmetry_space_group_name_H-M   'P 21 21 21'
_symmetry_Int_Tables_number      19
_space_group_name_Hall           'P 2ac 2ab'
loop_
_symmetry_equiv_pos_site_id
_symmetry_equiv_pos_as_xyz
1 x,y,z
2 1/2-x,-y,1/2+z
3 -x,1/2+y,1/2-z
4 1/2+x,1/2-y,-z
_cell_length_a                   8.0275(14)
_cell_length_b                   11.093(2)
_cell_length_c                   17.321(3)
_cell_angle_alpha                90
_cell_angle_beta                 90
_cell_angle_gamma                90
_cell_volume                     1542.42
_exptl_crystal_colour            colorless
_exptl_crystal_description       block
_cell_formula_units_Z            4
loop_
_atom_site_label
_atom_site_type_symbol
_atom_site_fract_x
_atom_site_fract_y
_atom_site_fract_z
C1 C 0.9520(3) -0.09732(19) 0.12173(12)
C2 C 0.7659(3) -0.12578(18) 0.12637(13)
C3 C 0.8063(3) 0.0560(2) 0.19219(15)
H1 H 0.8268 0.0442 0.2469
H2 H 0.7640 0.1369 0.1840
C4 C 0.9626(3) 0.0340(2) 0.14538(16)
H3 H 1.0614 0.0486 0.1762
H4 H 0.9656 0.0860 0.1004
C5 C 1.0240(3) -0.1302(2) 0.04489(15)
H5 H 1.1436 -0.1176 0.0446
H6 H 1.0014 -0.2140 0.0329
C6 C 0.5128(3) -0.0307(2) 0.17894(14)
H7 H 0.4961 -0.0282 0.2344
H8 H 0.4616 -0.1039 0.1596
C7 C 0.4286(3) 0.07690(18) 0.14257(13)
C8 C 0.3795(3) 0.1712(2) 0.18835(16)
H9 H 0.4028 0.1690 0.2409
C9 C 0.2951(3) 0.2707(2) 0.15777(19)
H10 H 0.2637 0.3337 0.1900
C10 C 0.2590(3) 0.2757(2) 0.08185(19)
H11 H 0.2021 0.3421 0.0623
C11 C 0.3061(3) 0.1820(2) 0.03177(14)
C12 C 0.2647(3) 0.1828(3) -0.04707(17)
H12 H 0.2037 0.2471 -0.0668
C13 C 0.3110(4) 0.0929(3) -0.09492(17)
H13 H 0.2829 0.0960 -0.1470
C14 C 0.4011(3) -0.0051(2) -0.06605(16)
H14 H 0.4334 -0.0668 -0.0992
C15 C 0.4422(3) -0.0111(2) 0.01006(14)
H15 H 0.5025 -0.0768 0.0282
C16 C 0.3945(2) 0.08122(18) 0.06197(14)
Cl1 Cl 1.05324(9) -0.19237(7) 0.19230(4)
N1 N 0.6915(2) -0.03382(15) 0.16248(11)
N2 N 0.9425(5) -0.0505(3) -0.01152(16)
N3 N 0.9144(3) -0.0873(2) -0.07216(16)
N4 N 0.8906(7) -0.1063(4) -0.1332(2)
O1 O 0.7005(2) -0.21472(15) 0.09948(12)
loop_
_geom_bond_atom_site_label_1
_geom_bond_atom_site_label_2
_geom_bond_site_symmetry_1
_geom_bond_site_symmetry_2
C1 C2 1_555 1_555
C2 N1 1_555 1_555
C3 H1 1_555 1_555
H2 C3 1_555 1_555
C4 C1 1_555 1_555
H3 C4 1_555 1_555
H4 C4 1_555 1_555
C5 C1 1_555 1_555
H5 C5 1_555 1_555
H6 C5 1_555 1_555
C6 H7 1_555 1_555
H8 C6 1_555 1_555
C7 C6 1_555 1_555
C8 C7 1_555 1_555
H9 C8 1_555 1_555
C9 C8 1_555 1_555
H10 C9 1_555 1_555
C10 C9 1_555 1_555
H11 C10 1_555 1_555
C11 C10 1_555 1_555
C12 C11 1_555 1_555
H12 C12 1_555 1_555
C13 C12 1_555 1_555
H13 C13 1_555 1_555
C14 C13 1_555 1_555
H14 C14 1_555 1_555
C15 C14 1_555 1_555
H15 C15 1_555 1_555
C16 C7 1_555 1_555
Cl1 C1 1_555 1_555
N1 C3 1_555 1_555
N2 C5 1_555 1_555
N3 N2 1_555 1_555
N4 N3 1_555 1_555
O1 C2 1_555 1_555
C3 C4 1_555 1_555
C6 N1 1_555 1_555
C11 C16 1_555 1_555
C15 C16 1_555 1_555

#END
