
#######################################################################
#
#                 Cambridge Crystallographic Data Centre
#                                CCDC 
#
#######################################################################
#
# If this CIF has been generated from an entry in the Cambridge 
# Structural Database, then it will include bibliographic, chemical, 
# crystal, experimental, refinement or atomic coordinate data resulting 
# from the CCDC's data processing and validation procedures.
#
#######################################################################

data_ASILIZ
_chemical_formula_moiety         'C20 H17 B3 O6,7(H2 O1)'
_chemical_name_systematic        
'pentacyclo[6.6.6.0^2,7^.0^9,14^.0^15,20^]icosa-2,4,6,9,11,13,15,17,19-nonaene-4,12,17-triyltriboronic acid heptahydrate'
_symmetry_cell_setting           monoclinic
_symmetry_space_group_name_H-M   'C 2/c'
_symmetry_Int_Tables_number      15
_space_group_name_Hall           '-C 2yn'
loop_
_symmetry_equiv_pos_site_id
_symmetry_equiv_pos_as_xyz
1 x,y,z
2 -x,y,1/2-z
3 1/2+x,1/2+y,z
4 1/2-x,1/2+y,1/2-z
5 -x,-y,-z
6 x,-y,1/2+z
7 1/2-x,1/2-y,-z
8 1/2+x,1/2-y,1/2+z
_cell_length_a                   23.412(2)
_cell_length_b                   11.2486(12)
_cell_length_c                   22.232(3)
_cell_angle_alpha                90
_cell_angle_beta                 120.767(3)
_cell_angle_gamma                90
_cell_volume                     5030.8
_exptl_crystal_colour            colorless
_exptl_crystal_description       plate
_cell_formula_units_Z            8
loop_
_atom_site_label
_atom_site_type_symbol
_atom_site_fract_x
_atom_site_fract_y
_atom_site_fract_z
B1 B 0.4331(2) 0.3795(4) 0.9539(3)
O1 O 0.42390(15) 0.3351(3) 1.00522(15)
H1 H 0.449(2) 0.266(3) 1.029(2)
O2 O 0.48230(15) 0.3368(3) 0.94367(16)
H2 H 0.512(2) 0.277(4) 0.973(2)
B2 B 0.1362(3) 0.9430(5) 0.9215(3)
O3 O 0.1193(2) 0.8677(3) 0.9571(2)
H3 H 0.107(3) 0.887(6) 0.991(3)
O4 O 0.1282(2) 1.0612(3) 0.9237(2)
H4 H 0.111(3) 1.092(6) 0.951(3)
B3 B 0.0469(2) 0.3995(4) 0.5779(2)
O5 O -0.00257(15) 0.3540(3) 0.58614(16)
H5 H -0.015(2) 0.382(4) 0.618(2)
O6 O 0.04969(15) 0.3532(3) 0.52245(16)
H6 H 0.0882(18) 0.366(5) 0.519(3)
C1 C 0.20559(18) 0.5952(3) 0.8188(2)
H7 H 0.1886 0.5386 0.8407
C2 C 0.24985(19) 0.7422(3) 0.76187(19)
H8 H 0.2669 0.7990 0.7401
C3 C 0.27938(18) 0.5775(3) 0.84426(19)
C4 C 0.30285(18) 0.6566(3) 0.81310(19)
C5 C 0.36749(19) 0.6487(4) 0.8270(2)
H9 H 0.3837 0.7027 0.8063
C6 C 0.4083(2) 0.5593(4) 0.8723(2)
H10 H 0.4524 0.5521 0.8813
C7 C 0.3865(2) 0.4804(4) 0.9047(2)
C8 C 0.32051(19) 0.4920(3) 0.88960(19)
H11 H 0.3044 0.4398 0.9112
C9 C 0.17015(18) 0.5832(3) 0.7390(2)
C10 C 0.19800(19) 0.7250(3) 0.8330(2)
C11 C 0.22166(19) 0.8042(4) 0.8021(2)
C12 C 0.2176(2) 0.9257(4) 0.8091(2)
H12 H 0.2335 0.9795 0.7881
C13 C 0.1902(2) 0.9674(4) 0.8471(2)
H13 H 0.1870 1.0509 0.8514
C14 C 0.1670(2) 0.8914(4) 0.8793(2)
C15 C 0.1709(2) 0.7679(4) 0.8714(2)
H14 H 0.1549 0.7141 0.8924
C16 C 0.19415(19) 0.6630(3) 0.7085(2)
C17 C 0.17058(19) 0.6600(3) 0.6379(2)
H15 H 0.1867 0.7145 0.6174
C18 C 0.1228(2) 0.5759(4) 0.5969(2)
H16 H 0.1068 0.5732 0.5481
C19 C 0.09771(19) 0.4956(4) 0.6253(2)
C20 C 0.12182(18) 0.5021(3) 0.6978(2)
H17 H 0.1045 0.4501 0.7183
O7 O 0.45410(18) 0.3194(4) 0.80334(19)
H18 H 0.4103(16) 0.347(5) 0.787(3)
H19 H 0.464(3) 0.327(6) 0.8507(16)
O8 O -0.1812(3) 0.4504(6) 0.5512(4)
O9 O -0.225(2) 0.2494(18) 0.552(2)
O10 O -0.0726(10) 0.2168(11) 0.7027(11)
O11 O 0.5000 0.5057(8) 0.7500
H20 H 0.481(5) 0.463(8) 0.773(5)
H20A H 0.519(5) 0.463(8) 0.727(5)
O12 O 0.0000 0.6361(5) 0.7500
H21 H -0.015(3) 0.691(4) 0.771(3)
H21A H 0.015(3) 0.691(4) 0.729(3)
O13 O -0.0540(3) 0.4414(6) 0.6611(3)
H22 H -0.083(5) 0.492(9) 0.622(4)
H23 H -0.037(5) 0.507(6) 0.693(4)
O14 O 0.1627(2) 0.3574(4) 0.5164(2)
H24 H 0.141(3) 0.422(4) 0.485(3)
H25 H 0.156(3) 0.276(3) 0.502(3)
loop_
_geom_bond_atom_site_label_1
_geom_bond_atom_site_label_2
_geom_bond_site_symmetry_1
_geom_bond_site_symmetry_2
B1 O1 1_555 1_555
O1 H1 1_555 1_555
O2 B1 1_555 1_555
H2 O2 1_555 1_555
B2 O3 1_555 1_555
O3 H3 1_555 1_555
O4 B2 1_555 1_555
H4 O4 1_555 1_555
B3 O5 1_555 1_555
O5 H5 1_555 1_555
O6 B3 1_555 1_555
H6 O6 1_555 1_555
C1 H7 1_555 1_555
C2 H8 1_555 1_555
C3 C1 1_555 1_555
C4 C2 1_555 1_555
C5 C4 1_555 1_555
H9 C5 1_555 1_555
C6 C5 1_555 1_555
H10 C6 1_555 1_555
C7 B1 1_555 1_555
C8 C3 1_555 1_555
H11 C8 1_555 1_555
C9 C1 1_555 1_555
C10 C1 1_555 1_555
C11 C2 1_555 1_555
C12 C11 1_555 1_555
H12 C12 1_555 1_555
C13 C12 1_555 1_555
H13 C13 1_555 1_555
C14 B2 1_555 1_555
C15 C10 1_555 1_555
H14 C15 1_555 1_555
C16 C2 1_555 1_555
C17 C16 1_555 1_555
H15 C17 1_555 1_555
C18 C17 1_555 1_555
H16 C18 1_555 1_555
C19 B3 1_555 1_555
C20 C9 1_555 1_555
H17 C20 1_555 1_555
O7 H18 1_555 1_555
H19 O7 1_555 1_555
O11 H20 1_555 1_555
O12 H21 1_555 1_555
O13 H22 1_555 1_555
H23 O13 1_555 1_555
O14 H24 1_555 1_555
H25 O14 1_555 1_555
H20A O11 1_555 1_555
H21A O12 1_555 1_555
C3 C4 1_555 1_555
C6 C7 1_555 1_555
C7 C8 1_555 1_555
C9 C16 1_555 1_555
C10 C11 1_555 1_555
C13 C14 1_555 1_555
C14 C15 1_555 1_555
C18 C19 1_555 1_555
C19 C20 1_555 1_555

#END
