
#######################################################################
#
#                 Cambridge Crystallographic Data Centre
#                                CCDC 
#
#######################################################################
#
# If this CIF has been generated from an entry in the Cambridge 
# Structural Database, then it will include bibliographic, chemical, 
# crystal, experimental, refinement or atomic coordinate data resulting 
# from the CCDC's data processing and validation procedures.
#
#######################################################################

data_ASIVIJ
_chemical_formula_moiety         'C29 H44 O3'
_chemical_name_systematic        
4'-isopropyl-6,6',6',8',8',10,10-heptamethyl-4',8'-dihydrospiro[bicyclo[7.2.0]undec-5-ene-2,2'-chromene]-5',7'(3'H,6'H)-dione
_symmetry_cell_setting           monoclinic
_symmetry_space_group_name_H-M   'P 21'
_symmetry_Int_Tables_number      4
_space_group_name_Hall           'P 2yb'
loop_
_symmetry_equiv_pos_site_id
_symmetry_equiv_pos_as_xyz
1 x,y,z
2 -x,1/2+y,-z
_cell_length_a                   12.1091(5)
_cell_length_b                   8.3218(4)
_cell_length_c                   12.7681(6)
_cell_angle_alpha                90
_cell_angle_beta                 93.387(4)
_cell_angle_gamma                90
_cell_volume                     1284.39
_exptl_crystal_colour            colorless
_exptl_crystal_description       block
_cell_formula_units_Z            2
loop_
_atom_site_label
_atom_site_type_symbol
_atom_site_fract_x
_atom_site_fract_y
_atom_site_fract_z
O1 O 0.50785(14) 0.8876(2) 0.71914(13)
O2 O 0.74775(15) 0.6247(3) 0.93869(16)
O3 O 0.42003(12) 0.3678(2) 0.81940(12)
C1 C 0.22549(17) 0.4159(3) 0.83155(18)
H1 H 0.2085 0.3287 0.8796
C2 C 0.31302(18) 0.3527(3) 0.75725(18)
C3 C 0.3103(2) 0.1697(3) 0.7385(2)
H2 H 0.3832 0.1365 0.7195
H3 H 0.2964 0.1177 0.8044
C4 C 0.2259(2) 0.1064(3) 0.6550(2)
H4 H 0.2443 0.1437 0.5862
H5 H 0.2266 -0.0101 0.6548
C5 C 0.1140(2) 0.1664(3) 0.6795(2)
H6 H 0.0873 0.1291 0.7419
C6 C 0.0474(2) 0.2659(3) 0.6241(2)
C7 C -0.0396(2) 0.3584(4) 0.6787(2)
H7 H -0.1043 0.2910 0.6842
H8 H -0.0614 0.4515 0.6367
C8 C 0.00113(18) 0.4143(4) 0.78884(19)
H9 H 0.0066 0.3211 0.8345
H10 H -0.0542 0.4853 0.8155
C9 C 0.11314(18) 0.5019(3) 0.79594(18)
H11 H 0.1225 0.5593 0.7300
C10 C 0.13286(18) 0.6209(3) 0.88926(18)
C11 C 0.25527(18) 0.5668(3) 0.89822(17)
H12 H 0.2824 0.5423 0.9694
H13 H 0.3049 0.6400 0.8651
C12 C 0.31966(17) 0.4436(3) 0.65473(17)
H14 H 0.2463 0.4466 0.6199
H15 H 0.3670 0.3838 0.6100
C13 C 0.0585(2) 0.3060(5) 0.5104(2)
H16 H 0.0013 0.3801 0.4874
H17 H 0.1295 0.3540 0.5019
H18 H 0.0517 0.2096 0.4692
C14 C 0.1119(2) 0.7962(4) 0.8629(2)
H19 H 0.1499 0.8242 0.8016
H20 H 0.0340 0.8135 0.8497
H21 H 0.1387 0.8619 0.9208
C15 C 0.0732(2) 0.5729(4) 0.98676(19)
H22 H 0.0873 0.4617 1.0023
H23 H 0.0998 0.6377 1.0452
H24 H -0.0049 0.5893 0.9740
C16 C 0.46785(16) 0.6139(3) 0.73628(16)
C17 C 0.54029(18) 0.7539(3) 0.74402(17)
C18 C 0.66208(18) 0.7289(3) 0.78087(19)
C19 C 0.67250(18) 0.6112(3) 0.87177(18)
C20 C 0.59087(18) 0.4724(3) 0.87871(18)
C21 C 0.48837(17) 0.4917(3) 0.80473(17)
C22 C 0.36327(17) 0.6157(3) 0.66438(16)
H25 H 0.3079 0.6799 0.6985
C23 C 0.37972(19) 0.6912(3) 0.55583(17)
H26 H 0.4041 0.8022 0.5682
C24 C 0.4672(2) 0.6098(4) 0.4944(2)
H27 H 0.5355 0.6054 0.5365
H28 H 0.4436 0.5027 0.4762
H29 H 0.4779 0.6698 0.4316
C25 C 0.2706(2) 0.6989(4) 0.4896(2)
H30 H 0.2156 0.7506 0.5289
H31 H 0.2810 0.7590 0.4267
H32 H 0.2468 0.5920 0.4714
C26 C 0.7204(2) 0.6533(4) 0.6881(2)
H33 H 0.7151 0.7252 0.6293
H34 H 0.7968 0.6345 0.7087
H35 H 0.6853 0.5532 0.6689
C27 C 0.7173(2) 0.8883(4) 0.8094(2)
H36 H 0.7094 0.9601 0.7506
H37 H 0.6829 0.9347 0.8682
H38 H 0.7944 0.8709 0.8275
C28 C 0.5572(2) 0.4584(4) 0.99291(19)
H39 H 0.6223 0.4463 1.0389
H40 H 0.5182 0.5537 1.0115
H41 H 0.5101 0.3665 0.9994
C29 C 0.6513(2) 0.3164(3) 0.8491(2)
H42 H 0.7162 0.3025 0.8952
H43 H 0.6029 0.2261 0.8559
H44 H 0.6724 0.3237 0.7780
loop_
_geom_bond_atom_site_label_1
_geom_bond_atom_site_label_2
_geom_bond_site_symmetry_1
_geom_bond_site_symmetry_2
O1 C17 1_555 1_555
O2 C19 1_555 1_555
O3 C2 1_555 1_555
C1 H1 1_555 1_555
C2 C1 1_555 1_555
C3 C2 1_555 1_555
H2 C3 1_555 1_555
H3 C3 1_555 1_555
C4 C3 1_555 1_555
H4 C4 1_555 1_555
H5 C4 1_555 1_555
C5 C4 1_555 1_555
H6 C5 1_555 1_555
C6 C5 1_555 1_555
C7 C6 1_555 1_555
H7 C7 1_555 1_555
H8 C7 1_555 1_555
C8 C7 1_555 1_555
H9 C8 1_555 1_555
H10 C8 1_555 1_555
C9 C1 1_555 1_555
H11 C9 1_555 1_555
C10 C9 1_555 1_555
C11 C1 1_555 1_555
H12 C11 1_555 1_555
H13 C11 1_555 1_555
C12 C2 1_555 1_555
H14 C12 1_555 1_555
H15 C12 1_555 1_555
C13 C6 1_555 1_555
H16 C13 1_555 1_555
H17 C13 1_555 1_555
H18 C13 1_555 1_555
C14 C10 1_555 1_555
H19 C14 1_555 1_555
H20 C14 1_555 1_555
H21 C14 1_555 1_555
C15 C10 1_555 1_555
H22 C15 1_555 1_555
H23 C15 1_555 1_555
H24 C15 1_555 1_555
C16 C17 1_555 1_555
C17 C18 1_555 1_555
C18 C19 1_555 1_555
C19 C20 1_555 1_555
C20 C21 1_555 1_555
C21 O3 1_555 1_555
C22 C12 1_555 1_555
H25 C22 1_555 1_555
C23 C22 1_555 1_555
H26 C23 1_555 1_555
C24 C23 1_555 1_555
H27 C24 1_555 1_555
H28 C24 1_555 1_555
H29 C24 1_555 1_555
C25 C23 1_555 1_555
H30 C25 1_555 1_555
H31 C25 1_555 1_555
H32 C25 1_555 1_555
C26 C18 1_555 1_555
H33 C26 1_555 1_555
H34 C26 1_555 1_555
H35 C26 1_555 1_555
C27 C18 1_555 1_555
H36 C27 1_555 1_555
H37 C27 1_555 1_555
H38 C27 1_555 1_555
C28 C20 1_555 1_555
H39 C28 1_555 1_555
H40 C28 1_555 1_555
H41 C28 1_555 1_555
C29 C20 1_555 1_555
H42 C29 1_555 1_555
H43 C29 1_555 1_555
H44 C29 1_555 1_555
C8 C9 1_555 1_555
C10 C11 1_555 1_555
C16 C21 1_555 1_555
C16 C22 1_555 1_555

#END
