
#######################################################################
#
#                 Cambridge Crystallographic Data Centre
#                                CCDC 
#
#######################################################################
#
# If this CIF has been generated from an entry in the Cambridge 
# Structural Database, then it will include bibliographic, chemical, 
# crystal, experimental, refinement or atomic coordinate data resulting 
# from the CCDC's data processing and validation procedures.
#
#######################################################################

data_ASOKOJ
_chemical_formula_moiety         'C20 H14 Cl2 N2 O1'
_chemical_name_systematic        
2,6-bis(3-Chlorophenyl)-4-oxocyclohexane-1,1-dicarbonitrile
_symmetry_cell_setting           orthorhombic
_symmetry_space_group_name_H-M   'P 21 21 21'
_symmetry_Int_Tables_number      19
_space_group_name_Hall           'P 2ac 2ab'
loop_
_symmetry_equiv_pos_site_id
_symmetry_equiv_pos_as_xyz
1 x,y,z
2 1/2-x,-y,1/2+z
3 -x,1/2+y,1/2-z
4 1/2+x,1/2-y,-z
_cell_length_a                   7.06800(10)
_cell_length_b                   12.59520(10)
_cell_length_c                   19.6471(2)
_cell_angle_alpha                90
_cell_angle_beta                 90
_cell_angle_gamma                90
_cell_volume                     1749.04
_cell_formula_units_Z            4
loop_
_atom_site_label
_atom_site_type_symbol
_atom_site_fract_x
_atom_site_fract_y
_atom_site_fract_z
O1 O 0.3137(4) 0.4084(2) 0.26002(11)
C1 C 0.6726(4) 0.7554(2) 0.40121(13)
H1 H 0.6712 0.7893 0.3580
C2 C 0.6806(4) 0.8158(2) 0.46047(14)
C3 C 0.6884(4) 0.7684(3) 0.52391(14)
H2 H 0.6956 0.8106 0.5639
C4 C 0.6856(5) 0.6599(3) 0.52829(14)
H3 H 0.6915 0.6267 0.5717
C5 C 0.6741(4) 0.5974(3) 0.46958(13)
H4 H 0.6713 0.5222 0.4731
C6 C 0.6667(4) 0.6462(2) 0.40552(12)
C7 C 0.6477(4) 0.5812(2) 0.34044(13)
H5 H 0.6087 0.6316 0.3037
C8 C 0.4903(4) 0.4976(2) 0.34631(14)
H6 H 0.5180 0.4510 0.3856
H7 H 0.3690 0.5341 0.3556
C9 C 0.4676(4) 0.4292(2) 0.28318(14)
C10 C 0.6490(4) 0.3866(2) 0.25311(13)
H8 H 0.6210 0.3583 0.2072
H9 H 0.6923 0.3263 0.2815
C11 C 0.8115(4) 0.4664(2) 0.24705(13)
H10 H 0.9299 0.4246 0.2393
C12 C 0.8373(4) 0.5285(2) 0.31674(13)
C13 C 0.7906(4) 0.5420(2) 0.18734(12)
C14 C 0.6201(4) 0.5902(2) 0.17054(13)
H11 H 0.5098 0.5770 0.1969
C15 C 0.6126(5) 0.6580(2) 0.11484(13)
C16 C 0.7669(5) 0.6770(3) 0.07458(15)
H12 H 0.7579 0.7233 0.0365
C17 C 0.9363(5) 0.6275(3) 0.09030(16)
H13 H 1.0443 0.6391 0.0625
C18 C 0.9489(4) 0.5608(3) 0.14657(14)
H14 H 1.0661 0.5279 0.1573
C19 C 0.9060(4) 0.4522(3) 0.36886(13)
C20 C 0.9831(4) 0.6108(3) 0.30831(13)
N1 N 0.9525(4) 0.3917(2) 0.40883(13)
N2 N 1.0951(4) 0.6757(3) 0.30153(13)
Cl1 Cl 0.39855(11) 0.71931(6) 0.09547(3)
Cl2 Cl 0.67553(12) 0.95350(6) 0.45522(4)
loop_
_geom_bond_atom_site_label_1
_geom_bond_atom_site_label_2
_geom_bond_site_symmetry_1
_geom_bond_site_symmetry_2
O1 C9 1_555 1_555
C1 H1 1_555 1_555
C2 C1 1_555 1_555
C3 C2 1_555 1_555
H2 C3 1_555 1_555
C4 C3 1_555 1_555
H3 C4 1_555 1_555
C5 C4 1_555 1_555
H4 C5 1_555 1_555
C6 C1 1_555 1_555
C7 C6 1_555 1_555
H5 C7 1_555 1_555
C8 C7 1_555 1_555
H6 C8 1_555 1_555
H7 C8 1_555 1_555
C9 C8 1_555 1_555
C10 C9 1_555 1_555
H8 C10 1_555 1_555
H9 C10 1_555 1_555
C11 C10 1_555 1_555
H10 C11 1_555 1_555
C12 C7 1_555 1_555
C13 C11 1_555 1_555
C14 C13 1_555 1_555
H11 C14 1_555 1_555
C15 C14 1_555 1_555
C16 C15 1_555 1_555
H12 C16 1_555 1_555
C17 C16 1_555 1_555
H13 C17 1_555 1_555
C18 C13 1_555 1_555
H14 C18 1_555 1_555
C19 C12 1_555 1_555
C20 C12 1_555 1_555
N1 C19 1_555 1_555
N2 C20 1_555 1_555
Cl1 C15 1_555 1_555
Cl2 C2 1_555 1_555
C5 C6 1_555 1_555
C11 C12 1_555 1_555
C17 C18 1_555 1_555

#END
