
#######################################################################
#
#                 Cambridge Crystallographic Data Centre
#                                CCDC 
#
#######################################################################
#
# If this CIF has been generated from an entry in the Cambridge 
# Structural Database, then it will include bibliographic, chemical, 
# crystal, experimental, refinement or atomic coordinate data resulting 
# from the CCDC's data processing and validation procedures.
#
#######################################################################

data_ASOPEF
_chemical_formula_moiety         'C14 H12 S6'
_chemical_name_systematic        
2-(4,6-dimethylthieno[3,4-d][1,3]dithiol-2-ylidene)-4,6-dimethylthieno[3,4-d][1,3]dithiole
_symmetry_cell_setting           monoclinic
_symmetry_space_group_name_H-M   'I 2/a'
_symmetry_Int_Tables_number      15
_space_group_name_Hall           '-I 2ya'
loop_
_symmetry_equiv_pos_site_id
_symmetry_equiv_pos_as_xyz
1 x,y,z
2 1/2-x,y,-z
3 1/2+x,1/2+y,1/2+z
4 -x,1/2+y,1/2-z
5 -x,-y,-z
6 1/2+x,-y,z
7 1/2-x,1/2-y,1/2-z
8 x,1/2-y,1/2+z
_cell_length_a                   17.1106(5)
_cell_length_b                   7.1272(2)
_cell_length_c                   13.5589(4)
_cell_angle_alpha                90
_cell_angle_beta                 104.115(3)
_cell_angle_gamma                90
_cell_volume                     1603.59
_exptl_crystal_colour            yellow
_exptl_crystal_description       needle
_chemical_melting_point          '571 K'
_cell_formula_units_Z            4
loop_
_atom_site_label
_atom_site_type_symbol
_atom_site_fract_x
_atom_site_fract_y
_atom_site_fract_z
S1 S 0.52375(5) -0.02285(12) 0.12753(5)
S2 S 0.75145(5) 0.01353(10) 0.33877(6)
S3 S 0.61813(4) 0.01205(10) 0.44703(6)
C1 C 0.72200(18) 0.0090(3) 0.4555(2)
C2 C 0.62823(18) -0.0128(3) 0.1601(2)
C3 C 0.51504(18) -0.0144(3) 0.2518(2)
C4 C 0.59012(17) -0.0042(2) 0.3149(2)
C5 C 0.65355(16) -0.0033(2) 0.2640(2)
C6 C 0.6768(2) -0.0142(3) 0.0822(3)
H1 H 0.6642 -0.1247 0.0409
H2 H 0.7331 -0.0140 0.1157
H3 H 0.6642 0.0952 0.0400
C7 C 0.43453(18) -0.0169(3) 0.2765(3)
H4 H 0.4059 0.0962 0.2519
H5 H 0.4417 -0.0252 0.3488
H6 H 0.4043 -0.1233 0.2445
S1A S 0.97625(5) -0.02285(12) 0.87247(5)
S2A S 0.74855(5) 0.01353(10) 0.66123(6)
S3A S 0.88187(4) 0.01205(10) 0.55297(6)
C1A C 0.77800(18) 0.0090(3) 0.5445(2)
C2A C 0.87177(18) -0.0128(3) 0.8399(2)
C3A C 0.98496(18) -0.0144(3) 0.7482(2)
C4A C 0.90988(17) -0.0042(2) 0.6851(2)
C5A C 0.84645(16) -0.0033(2) 0.7360(2)
C6A C 0.8232(2) -0.0142(3) 0.9178(3)
H1A H 0.8358 -0.1247 0.9591
H2A H 0.7669 -0.0140 0.8843
H3A H 0.8358 0.0952 0.9600
C7A C 1.06547(18) -0.0169(3) 0.7235(3)
H4A H 1.0941 0.0962 0.7481
H5A H 1.0583 -0.0252 0.6512
H6A H 1.0957 -0.1233 0.7555
loop_
_geom_bond_atom_site_label_1
_geom_bond_atom_site_label_2
_geom_bond_site_symmetry_1
_geom_bond_site_symmetry_2
S1 C2 1_555 1_555
S2 C1 1_555 1_555
S3 C1 1_555 1_555
C1 C1A 1_555 1_555
C2 C5 1_555 1_555
C3 S1 1_555 1_555
C4 S3 1_555 1_555
C5 S2 1_555 1_555
C6 C2 1_555 1_555
H1 C6 1_555 1_555
H2 C6 1_555 1_555
H3 C6 1_555 1_555
C7 C3 1_555 1_555
H4 C7 1_555 1_555
H5 C7 1_555 1_555
H6 C7 1_555 1_555
S1A C2A 1_555 1_555
S2A C1A 1_555 1_555
S3A C1A 1_555 1_555
C2A C5A 1_555 1_555
C3A S1A 1_555 1_555
C4A S3A 1_555 1_555
C5A S2A 1_555 1_555
C6A C2A 1_555 1_555
H1A C6A 1_555 1_555
H2A C6A 1_555 1_555
H3A C6A 1_555 1_555
C7A C3A 1_555 1_555
H4A C7A 1_555 1_555
H5A C7A 1_555 1_555
H6A C7A 1_555 1_555
C3 C4 1_555 1_555
C4 C5 1_555 1_555
C3A C4A 1_555 1_555
C4A C5A 1_555 1_555

#END
