
#######################################################################
#
#                 Cambridge Crystallographic Data Centre
#                                CCDC 
#
#######################################################################
#
# If this CIF has been generated from an entry in the Cambridge 
# Structural Database, then it will include bibliographic, chemical, 
# crystal, experimental, refinement or atomic coordinate data resulting 
# from the CCDC's data processing and validation procedures.
#
#######################################################################

data_ASOPOO
_chemical_formula_moiety         'C16 H17 Cl1 N2 O3'
_chemical_name_systematic        
2-Butyl-7-chloro-1-(nitromethyl)-1,2-dihydro-3H-pyrrolo[1,2-a]indol-3-one
_symmetry_cell_setting           monoclinic
_symmetry_space_group_name_H-M   'P 21'
_symmetry_Int_Tables_number      4
_space_group_name_Hall           'P 2yb'
loop_
_symmetry_equiv_pos_site_id
_symmetry_equiv_pos_as_xyz
1 x,y,z
2 -x,1/2+y,-z
_cell_length_a                   12.6055(6)
_cell_length_b                   4.9155(3)
_cell_length_c                   14.0198(7)
_cell_angle_alpha                90
_cell_angle_beta                 115.970(3)
_cell_angle_gamma                90
_cell_volume                     780.981
_exptl_crystal_colour            yellow
_exptl_crystal_description       needle
_cell_formula_units_Z            2
loop_
_atom_site_label
_atom_site_type_symbol
_atom_site_fract_x
_atom_site_fract_y
_atom_site_fract_z
Cl1 Cl 0.78610(7) 0.51675 0.63426(6)
N1 N 0.45543(18) 0.2031(6) 0.20586(17)
O1 O 0.00798(18) 0.1709(6) 0.10651(17)
C1 C 0.1696(2) 0.1717(7) 0.0692(2)
C2 C 0.5801(3) 0.5311(9) 0.4562(2)
C3 C 0.5438(2) 0.2374(7) 0.3089(2)
C4 C 0.6506(3) 0.1057(7) 0.3611(2)
C5 C 0.1987(3) 0.1834(8) -0.1728(2)
C6 C 0.2709(2) 0.3489(6) 0.0759(2)
C7 C 0.5061(2) 0.4456(7) 0.3538(2)
C8 C 0.3645(2) 0.3856(6) 0.1877(2)
C9 C 0.3911(2) 0.5333(7) 0.2759(2)
C10 C 0.3422(2) 0.2069(7) 0.0229(2)
C11 C 0.6883(3) 0.4042(8) 0.5071(2)
C12 C 0.4454(2) 0.0755(7) 0.1148(2)
C13 C 0.2804(2) 0.0304(7) -0.0744(2)
C14 C 0.7237(3) 0.1913(9) 0.4628(3)
N2 N 0.0908(2) 0.3049(7) 0.11034(19)
O2 O 0.10968(16) 0.5388(6) 0.14124(16)
C15 C 0.1445(3) 0.0024(10) -0.2697(3)
O3 O 0.51028(17) -0.1033(6) 0.11135(15)
C16 C 0.0728(3) 0.1466(10) -0.3702(3)
H1 H 0.23440 0.52539 0.04801
H2 H 0.36893 0.35742 0.00949
H3 H 0.35634 0.65587 0.28963
H4 H 0.19002 0.02885 0.11085
H5 H 0.12530 0.10430 0.00762
H6 H 0.56175 0.67875 0.49059
H7 H 0.67344 -0.03800 0.32860
H8 H 0.24157 0.32716 -0.18532
H9 H 0.13768 0.25687 -0.15851
H10 H 0.79905 0.12249 0.50404
H11 H 0.23908 -0.09761 -0.05894
H12 H 0.34141 -0.04425 -0.08972
H13 H 0.12127 0.23479 -0.39757
H14 H 0.02770 0.29580 -0.35651
H15 H 0.01732 0.03475 -0.42222
H16 H 0.20592 -0.09063 -0.27781
H17 H 0.09499 -0.12827 -0.25800
loop_
_geom_bond_atom_site_label_1
_geom_bond_atom_site_label_2
_geom_bond_site_symmetry_1
_geom_bond_site_symmetry_2
Cl1 C11 1_555 1_555
N1 C3 1_555 1_555
O1 N2 1_555 1_555
C1 C6 1_555 1_555
C2 C7 1_555 1_555
C3 C4 1_555 1_555
C4 C14 1_555 1_555
C5 C13 1_555 1_555
C6 C8 1_555 1_555
C7 C3 1_555 1_555
C8 N1 1_555 1_555
C9 C7 1_555 1_555
C10 C6 1_555 1_555
C11 C2 1_555 1_555
C12 N1 1_555 1_555
C13 C10 1_555 1_555
C14 C11 1_555 1_555
N2 C1 1_555 1_555
O2 N2 1_555 1_555
C15 C5 1_555 1_555
O3 C12 1_555 1_555
C16 C15 1_555 1_555
H1 C6 1_555 1_555
H2 C10 1_555 1_555
H3 C9 1_555 1_555
H4 C1 1_555 1_555
H5 C1 1_555 1_555
H6 C2 1_555 1_555
H7 C4 1_555 1_555
H8 C5 1_555 1_555
H9 C5 1_555 1_555
H10 C14 1_555 1_555
H11 C13 1_555 1_555
H12 C13 1_555 1_555
H13 C16 1_555 1_555
H14 C16 1_555 1_555
H15 C16 1_555 1_555
H16 C15 1_555 1_555
H17 C15 1_555 1_555
C8 C9 1_555 1_555
C10 C12 1_555 1_555

#END
