
#######################################################################
#
#                 Cambridge Crystallographic Data Centre
#                                CCDC 
#
#######################################################################
#
# If this CIF has been generated from an entry in the Cambridge 
# Structural Database, then it will include bibliographic, chemical, 
# crystal, experimental, refinement or atomic coordinate data resulting 
# from the CCDC's data processing and validation procedures.
#
#######################################################################

data_ASOTAE
_chemical_formula_moiety         'C27 H21 N1 O4'
_chemical_name_systematic        
'Benzyl 4-oxo-2,9-diphenyl-3-oxa-1-azaspiro[4.4]nona-1,6-diene-6-carboxylate'
_symmetry_cell_setting           triclinic
_symmetry_space_group_name_H-M   'P -1'
_symmetry_Int_Tables_number      2
_space_group_name_Hall           '-P 1'
loop_
_symmetry_equiv_pos_site_id
_symmetry_equiv_pos_as_xyz
1 x,y,z
2 -x,-y,-z
_cell_length_a                   9.1096(12)
_cell_length_b                   11.7881(15)
_cell_length_c                   12.2608(16)
_cell_angle_alpha                63.097(2)
_cell_angle_beta                 80.495(2)
_cell_angle_gamma                72.787(2)
_cell_volume                     1120.79
_exptl_crystal_colour            colorless
_exptl_crystal_description       block
_cell_formula_units_Z            2
loop_
_atom_site_label
_atom_site_type_symbol
_atom_site_fract_x
_atom_site_fract_y
_atom_site_fract_z
C1 C 0.06573(19) 0.62366(16) 0.08643(14)
C2 C 0.1072(2) 0.6891(2) -0.03527(16)
H1 H 0.2039 0.7061 -0.0572
C3 C 0.0034(3) 0.7291(2) -0.12454(18)
H2 H 0.0299 0.7746 -0.2065
C4 C -0.1374(3) 0.7022(2) -0.0928(2)
H3 H -0.2058 0.7285 -0.1533
C5 C -0.1782(2) 0.6367(2) 0.0275(2)
H4 H -0.2740 0.6180 0.0486
C6 C -0.0775(2) 0.59840(19) 0.11777(17)
H5 H -0.1064 0.5556 0.1997
C7 C 0.17315(17) 0.58117(15) 0.18237(14)
C8 C 0.29274(16) 0.51995(15) 0.34902(13)
C9 C 0.40911(19) 0.52583(17) 0.24365(14)
C10 C 0.29719(17) 0.60615(16) 0.40947(14)
C11 C 0.28349(18) 0.54411(17) 0.53016(14)
H6 H 0.2816 0.5819 0.5826
C12 C 0.2714(2) 0.40766(17) 0.57239(14)
H7 H 0.1662 0.4012 0.5965
H8 H 0.3369 0.3468 0.6408
C13 C 0.32645(17) 0.38032(16) 0.45891(14)
H9 H 0.4386 0.3475 0.4623
C14 C 0.26713(17) 0.27949(15) 0.44837(13)
C15 C 0.11329(19) 0.27910(17) 0.46817(17)
H10 H 0.0437 0.3432 0.4881
C16 C 0.0612(2) 0.18520(19) 0.45890(18)
H11 H -0.0427 0.1867 0.4721
C17 C 0.1632(2) 0.08915(18) 0.43008(17)
H12 H 0.1285 0.0255 0.4242
C18 C 0.3158(2) 0.08816(18) 0.41019(17)
H13 H 0.3850 0.0235 0.3908
C19 C 0.36745(19) 0.18246(17) 0.41874(15)
H14 H 0.4713 0.1810 0.4044
C20 C 0.3059(2) 0.74358(17) 0.34247(16)
C21 C 0.3111(4) 0.9195(2) 0.1463(2)
H15 H 0.4082 0.9299 0.1581
H16 H 0.2282 0.9804 0.1679
C22 C 0.3005(3) 0.94616(19) 0.01575(18)
C23 C 0.1863(3) 1.0465(2) -0.0556(2)
H17 H 0.1139 1.0978 -0.0223
C24 C 0.1776(4) 1.0722(3) -0.1761(3)
H18 H 0.1003 1.1409 -0.2240
C25 C 0.2823(4) 0.9968(3) -0.2244(2)
H19 H 0.2770 1.0133 -0.3055
C26 C 0.3946(4) 0.8974(3) -0.1541(2)
H20 H 0.4662 0.8456 -0.1873
C27 C 0.4038(3) 0.8724(2) -0.0354(2)
H21 H 0.4820 0.8038 0.0115
N1 N 0.14385(14) 0.55949(12) 0.29323(11)
O1 O 0.32804(13) 0.56271(12) 0.14327(10)
O2 O 0.54514(14) 0.50277(15) 0.24015(12)
O3 O 0.29965(17) 0.78532(12) 0.22201(11)
O4 O 0.31731(18) 0.81064(14) 0.38930(13)
loop_
_geom_bond_atom_site_label_1
_geom_bond_atom_site_label_2
_geom_bond_site_symmetry_1
_geom_bond_site_symmetry_2
C1 C2 1_555 1_555
C2 H1 1_555 1_555
C3 C2 1_555 1_555
H2 C3 1_555 1_555
C4 C3 1_555 1_555
H3 C4 1_555 1_555
C5 C4 1_555 1_555
H4 C5 1_555 1_555
C6 C1 1_555 1_555
H5 C6 1_555 1_555
C7 C1 1_555 1_555
C8 C9 1_555 1_555
C9 O1 1_555 1_555
C10 C8 1_555 1_555
C11 C10 1_555 1_555
H6 C11 1_555 1_555
C12 C11 1_555 1_555
H7 C12 1_555 1_555
H8 C12 1_555 1_555
C13 C8 1_555 1_555
H9 C13 1_555 1_555
C14 C13 1_555 1_555
C15 C14 1_555 1_555
H10 C15 1_555 1_555
C16 C15 1_555 1_555
H11 C16 1_555 1_555
C17 C16 1_555 1_555
H12 C17 1_555 1_555
C18 C17 1_555 1_555
H13 C18 1_555 1_555
C19 C14 1_555 1_555
H14 C19 1_555 1_555
C20 C10 1_555 1_555
C21 H15 1_555 1_555
H16 C21 1_555 1_555
C22 C21 1_555 1_555
C23 C22 1_555 1_555
H17 C23 1_555 1_555
C24 C23 1_555 1_555
H18 C24 1_555 1_555
C25 C24 1_555 1_555
H19 C25 1_555 1_555
C26 C25 1_555 1_555
H20 C26 1_555 1_555
C27 C22 1_555 1_555
H21 C27 1_555 1_555
N1 C7 1_555 1_555
O1 C7 1_555 1_555
O2 C9 1_555 1_555
O3 C20 1_555 1_555
O4 C20 1_555 1_555
C5 C6 1_555 1_555
C8 N1 1_555 1_555
C12 C13 1_555 1_555
C18 C19 1_555 1_555
C21 O3 1_555 1_555
C26 C27 1_555 1_555

#END
