
#######################################################################
#
#                 Cambridge Crystallographic Data Centre
#                                CCDC 
#
#######################################################################
#
# If this CIF has been generated from an entry in the Cambridge 
# Structural Database, then it will include bibliographic, chemical, 
# crystal, experimental, refinement or atomic coordinate data resulting 
# from the CCDC's data processing and validation procedures.
#
#######################################################################

data_ASOXOX
_chemical_name_common            
'tetra-n-butylammonium cis-2,12-bis(3,5-dinitrophenyl)-2,7,7,12,17,17-hexamethylcalix[4]pyrrole acetate'
_chemical_formula_moiety         'C38 H36 N8 O8,C16 H36 N1 1+,C2 H3 O2 1-'
_chemical_name_systematic        
'tetra-n-butylammonium 5,15-bis(3,5-dinitrophenyl)-5,10,10,15,20,20-hexamethyl-5,10,15,20,22,24-hexahydroporphyrin acetate'
_symmetry_cell_setting           monoclinic
_symmetry_space_group_name_H-M   'P 21/n'
_symmetry_Int_Tables_number      14
_space_group_name_Hall           '-P 2yn'
loop_
_symmetry_equiv_pos_site_id
_symmetry_equiv_pos_as_xyz
1 x,y,z
2 1/2-x,1/2+y,1/2-z
3 -x,-y,-z
4 1/2+x,1/2-y,1/2+z
_cell_length_a                   12.773(4)
_cell_length_b                   19.067(6)
_cell_length_c                   23.221(7)
_cell_angle_alpha                90
_cell_angle_beta                 91.690(4)
_cell_angle_gamma                90
_cell_volume                     5652.85
_exptl_crystal_colour            orange
_exptl_crystal_description       Prism
_cell_formula_units_Z            4
loop_
_atom_site_label
_atom_site_type_symbol
_atom_site_fract_x
_atom_site_fract_y
_atom_site_fract_z
C1 C 0.7371(2) 0.33084(15) 0.21467(12)
C2 C 0.7916(2) 0.39062(17) 0.22956(14)
H1 H 0.8604 0.3922 0.2450
C3 C 0.7267(2) 0.44939(16) 0.21766(13)
H2 H 0.7450 0.4967 0.2234
C4 C 0.6322(2) 0.42512(14) 0.19618(11)
C5 C 0.5363(2) 0.46362(13) 0.17271(11)
C6 C 0.5104(2) 0.44134(13) 0.11007(11)
C7 C 0.5865(2) 0.41246(14) 0.07508(12)
H3 H 0.6547 0.4045 0.0899
C8 C 0.5603(2) 0.39571(14) 0.01832(12)
C9 C 0.4620(2) 0.40608(15) -0.00635(12)
H4 H 0.4460 0.3943 -0.0449
C10 C 0.3884(2) 0.43481(14) 0.02917(12)
C11 C 0.4104(2) 0.45229(14) 0.08606(12)
H5 H 0.3577 0.4716 0.1086
C12 C 0.5617(3) 0.54326(14) 0.17087(13)
H6 H 0.5794 0.5597 0.2095
H7 H 0.5011 0.5687 0.1558
H8 H 0.6205 0.5511 0.1462
C13 C 0.4408(2) 0.45301(13) 0.20905(11)
C14 C 0.3874(2) 0.49865(15) 0.24279(13)
H9 H 0.4039 0.5461 0.2493
C15 C 0.3026(2) 0.46144(15) 0.26608(14)
H10 H 0.2532 0.4800 0.2912
C16 C 0.3046(2) 0.39389(14) 0.24597(11)
C17 C 0.2274(2) 0.33456(15) 0.25342(12)
C18 C 0.1364(2) 0.36130(18) 0.28982(14)
H11 H 0.1632 0.3750 0.3277
H12 H 0.0850 0.3243 0.2937
H13 H 0.1037 0.4014 0.2709
C19 C 0.1819(2) 0.31220(17) 0.19366(13)
H14 H 0.1464 0.3518 0.1755
H15 H 0.1325 0.2741 0.1984
H16 H 0.2383 0.2967 0.1696
C20 C 0.2759(2) 0.27090(14) 0.28351(12)
C21 C 0.2473(2) 0.23500(17) 0.33161(13)
H17 H 0.1954 0.2488 0.3571
C22 C 0.3091(2) 0.17354(17) 0.33647(13)
H18 H 0.3053 0.1395 0.3656
C23 C 0.3752(2) 0.17230(14) 0.29141(11)
C24 C 0.4540(2) 0.11747(13) 0.27319(11)
C25 C 0.4290(2) 0.09149(13) 0.21140(11)
C26 C 0.3329(2) 0.10390(14) 0.18303(12)
H19 H 0.2813 0.1305 0.2010
C27 C 0.3139(2) 0.07674(15) 0.12815(12)
C28 C 0.3861(3) 0.03707(15) 0.09950(13)
H20 H 0.3722 0.0192 0.0623
C29 C 0.4800(3) 0.02522(15) 0.12874(13)
C30 C 0.5034(2) 0.05128(14) 0.18303(12)
H21 H 0.5689 0.0421 0.2009
C31 C 0.4450(3) 0.05283(15) 0.31337(13)
H22 H 0.4590 0.0670 0.3530
H23 H 0.4955 0.0175 0.3025
H24 H 0.3748 0.0335 0.3097
C32 C 0.5657(2) 0.14469(13) 0.27726(11)
C33 C 0.6475(2) 0.12854(14) 0.31425(12)
H25 H 0.6457 0.0969 0.3452
C34 C 0.7355(2) 0.16806(15) 0.29745(13)
H26 H 0.8022 0.1674 0.3156
C35 C 0.7064(2) 0.20752(14) 0.25005(12)
C36 C 0.7711(2) 0.25461(15) 0.21229(13)
C37 C 0.8871(2) 0.24958(19) 0.23227(16)
H27 H 0.9291 0.2793 0.2082
H28 H 0.9106 0.2014 0.2292
H29 H 0.8945 0.2649 0.2720
C38 C 0.7615(3) 0.22860(18) 0.14933(14)
H30 H 0.6892 0.2323 0.1357
H31 H 0.7839 0.1801 0.1475
H32 H 0.8054 0.2571 0.1253
N1 N 0.63936(17) 0.35275(11) 0.19497(9)
H33 H 0.5892 0.3248 0.1834
N2 N 0.38972(16) 0.38922(11) 0.21124(9)
H34 H 0.4087 0.3515 0.1932
N3 N 0.35565(16) 0.23259(11) 0.25964(9)
H35 H 0.3889 0.2447 0.2290
N4 N 0.60213(16) 0.19302(11) 0.23820(9)
H36 H 0.5647 0.2116 0.2102
N5 N 0.6411(2) 0.36410(15) -0.01751(13)
N6 N 0.2818(2) 0.44696(15) 0.00493(12)
N7 N 0.2114(2) 0.09030(15) 0.09924(13)
N8 N 0.5607(3) -0.01671(16) 0.09939(14)
O1 O 0.7164(2) 0.33607(16) 0.00694(12)
O2 O 0.6277(2) 0.36664(16) -0.06974(11)
O3 O 0.2604(2) 0.42655(15) -0.04385(11)
O4 O 0.2196(2) 0.47763(18) 0.03466(12)
O5 O 0.6445(3) -0.0249(2) 0.12391(16)
O6 O 0.5392(3) -0.04109(16) 0.05236(12)
O7 O 0.1930(2) 0.06215(14) 0.05246(11)
O8 O 0.1496(2) 0.12898(16) 0.12284(12)
C39 C 0.5019(3) 0.20284(17) 0.06935(13)
H37 H 0.4601 0.1782 0.0403
H38 H 0.5388 0.1691 0.0938
H39 H 0.5522 0.2327 0.0507
C40 C 0.4309(2) 0.24743(15) 0.10575(12)
O9 O 0.46778(13) 0.26413(9) 0.15630(7)
O10 O 0.3458(2) 0.26593(18) 0.08655(10)
N9 N 0.0679(2) 0.21397(15) 0.94486(12)
C41 C 0.0008(3) 0.16683(18) 0.98093(15)
H40 H 0.0126 0.1792 1.0216
H41 H 0.0242 0.1183 0.9760
C42 C -0.1156(3) 0.17019(19) 0.96707(16)
H42 H -0.1415 0.2175 0.9750
H43 H -0.1284 0.1603 0.9261
C43 C -0.1743(3) 0.1171(2) 1.00305(18)
H44 H -0.1610 0.1270 1.0440
H45 H -0.1480 0.0699 0.9951
C44 C -0.2899(4) 0.1193(3) 0.9902(2)
H46 H -0.3160 0.1662 0.9972
H47 H -0.3250 0.0863 1.0149
H48 H -0.3036 0.1068 0.9502
C45 C 0.0617(3) 0.1925(2) 0.88159(17)
H49 H 0.1011 0.2269 0.8595
H50 H -0.0117 0.1954 0.8682
C46 C 0.1042(4) 0.1167(3) 0.8668(2)
H51 H 0.1339 0.1183 0.8284
H52 H 0.1615 0.1055 0.8943
C47 C 0.0311(4) 0.0622(4) 0.8677(2)
H53 H -0.0256 0.0717 0.8395
H54 H 0.0008 0.0596 0.9059
C48 C 0.0852(4) -0.0104(2) 0.85310(19)
H55 H 0.1109 -0.0089 0.8142
H56 H 0.0345 -0.0480 0.8560
H57 H 0.1433 -0.0188 0.8801
C49 C 0.0301(3) 0.28987(17) 0.94820(15)
H58 H 0.0781 0.3194 0.9267
H59 H -0.0389 0.2929 0.9288
C50 C 0.0218(3) 0.31987(19) 1.00835(16)
H60 H 0.0917 0.3219 1.0268
H61 H -0.0216 0.2889 1.0314
C51 C -0.0259(3) 0.39294(19) 1.00705(17)
H62 H 0.0209 0.4247 0.9868
H63 H -0.0928 0.3914 0.9854
C52 C -0.0440(4) 0.4218(2) 1.06699(19)
H64 H -0.0872 0.3894 1.0880
H65 H -0.0791 0.4668 1.0638
H66 H 0.0228 0.4277 1.0874
C53 C 0.1794(3) 0.2079(2) 0.97054(19)
H67 H 0.1794 0.2265 1.0099
H68 H 0.1971 0.1579 0.9734
C54 C 0.2660(3) 0.2445(3) 0.9385(3)
H69 H 0.2341 0.2651 0.9035
H70 H 0.2912 0.2834 0.9627
C55 C 0.3484(4) 0.2086(3) 0.9231(3)
H71 H 0.3226 0.1764 0.8929
H72 H 0.3675 0.1792 0.9563
C56 C 0.4478(3) 0.2362(2) 0.90231(16)
H73 H 0.4350 0.2799 0.8819
H74 H 0.4784 0.2025 0.8765
H75 H 0.4956 0.2445 0.9348
loop_
_geom_bond_atom_site_label_1
_geom_bond_atom_site_label_2
_geom_bond_site_symmetry_1
_geom_bond_site_symmetry_2
C1 C2 1_555 1_555
C2 H1 1_555 1_555
C3 C2 1_555 1_555
H2 C3 1_555 1_555
C4 C3 1_555 1_555
C5 C4 1_555 1_555
C6 C5 1_555 1_555
C7 C6 1_555 1_555
H3 C7 1_555 1_555
C8 C7 1_555 1_555
C9 C8 1_555 1_555
H4 C9 1_555 1_555
C10 C9 1_555 1_555
C11 C6 1_555 1_555
H5 C11 1_555 1_555
C12 C5 1_555 1_555
H6 C12 1_555 1_555
H7 C12 1_555 1_555
H8 C12 1_555 1_555
C13 C5 1_555 1_555
C14 C13 1_555 1_555
H9 C14 1_555 1_555
C15 C14 1_555 1_555
H10 C15 1_555 1_555
C16 C15 1_555 1_555
C17 C16 1_555 1_555
C18 C17 1_555 1_555
H11 C18 1_555 1_555
H12 C18 1_555 1_555
H13 C18 1_555 1_555
C19 C17 1_555 1_555
H14 C19 1_555 1_555
H15 C19 1_555 1_555
H16 C19 1_555 1_555
C20 C17 1_555 1_555
C21 C20 1_555 1_555
H17 C21 1_555 1_555
C22 C21 1_555 1_555
H18 C22 1_555 1_555
C23 C22 1_555 1_555
C24 C23 1_555 1_555
C25 C24 1_555 1_555
C26 C25 1_555 1_555
H19 C26 1_555 1_555
C27 C26 1_555 1_555
C28 C27 1_555 1_555
H20 C28 1_555 1_555
C29 C28 1_555 1_555
C30 C25 1_555 1_555
H21 C30 1_555 1_555
C31 C24 1_555 1_555
H22 C31 1_555 1_555
H23 C31 1_555 1_555
H24 C31 1_555 1_555
C32 C24 1_555 1_555
C33 C32 1_555 1_555
H25 C33 1_555 1_555
C34 C33 1_555 1_555
H26 C34 1_555 1_555
C35 C34 1_555 1_555
C36 C1 1_555 1_555
C37 C36 1_555 1_555
H27 C37 1_555 1_555
H28 C37 1_555 1_555
H29 C37 1_555 1_555
C38 C36 1_555 1_555
H30 C38 1_555 1_555
H31 C38 1_555 1_555
H32 C38 1_555 1_555
N1 C1 1_555 1_555
H33 N1 1_555 1_555
N2 C13 1_555 1_555
H34 N2 1_555 1_555
N3 C20 1_555 1_555
H35 N3 1_555 1_555
N4 C32 1_555 1_555
H36 N4 1_555 1_555
N5 C8 1_555 1_555
N6 C10 1_555 1_555
N7 C27 1_555 1_555
N8 C29 1_555 1_555
O1 N5 1_555 1_555
O2 N5 1_555 1_555
O3 N6 1_555 1_555
O4 N6 1_555 1_555
O5 N8 1_555 1_555
O6 N8 1_555 1_555
O7 N7 1_555 1_555
O8 N7 1_555 1_555
C39 H37 1_555 1_555
H38 C39 1_555 1_555
H39 C39 1_555 1_555
C40 C39 1_555 1_555
O9 C40 1_555 1_555
O10 C40 1_555 1_555
N9 C41 1_555 1_555
C41 H40 1_555 1_555
H41 C41 1_555 1_555
C42 C41 1_555 1_555
H42 C42 1_555 1_555
H43 C42 1_555 1_555
C43 C42 1_555 1_555
H44 C43 1_555 1_555
H45 C43 1_555 1_555
C44 C43 1_555 1_555
H46 C44 1_555 1_555
H47 C44 1_555 1_555
H48 C44 1_555 1_555
C45 N9 1_555 1_555
H49 C45 1_555 1_555
H50 C45 1_555 1_555
C46 C45 1_555 1_555
H51 C46 1_555 1_555
H52 C46 1_555 1_555
C47 C46 1_555 1_555
H53 C47 1_555 1_555
H54 C47 1_555 1_555
C48 C47 1_555 1_555
H55 C48 1_555 1_555
H56 C48 1_555 1_555
H57 C48 1_555 1_555
C49 N9 1_555 1_555
H58 C49 1_555 1_555
H59 C49 1_555 1_555
C50 C49 1_555 1_555
H60 C50 1_555 1_555
H61 C50 1_555 1_555
C51 C50 1_555 1_555
H62 C51 1_555 1_555
H63 C51 1_555 1_555
C52 C51 1_555 1_555
H64 C52 1_555 1_555
H65 C52 1_555 1_555
H66 C52 1_555 1_555
C53 N9 1_555 1_555
H67 C53 1_555 1_555
H68 C53 1_555 1_555
C54 C53 1_555 1_555
H69 C54 1_555 1_555
H70 C54 1_555 1_555
C55 C54 1_555 1_555
H71 C55 1_555 1_555
H72 C55 1_555 1_555
C56 C55 1_555 1_555
H73 C56 1_555 1_555
H74 C56 1_555 1_555
H75 C56 1_555 1_555
C4 N1 1_555 1_555
C10 C11 1_555 1_555
C16 N2 1_555 1_555
C23 N3 1_555 1_555
C29 C30 1_555 1_555
C35 C36 1_555 1_555
C35 N4 1_555 1_555

#END
