
#######################################################################
#
#                 Cambridge Crystallographic Data Centre
#                                CCDC 
#
#######################################################################
#
# If this CIF has been generated from an entry in the Cambridge 
# Structural Database, then it will include bibliographic, chemical, 
# crystal, experimental, refinement or atomic coordinate data resulting 
# from the CCDC's data processing and validation procedures.
#
#######################################################################

data_ASOZUE
_chemical_name_common            2,2'-Pyrene-2,7-diylbis(1,3-thiazole)
_chemical_formula_moiety         'C22 H12 N2 S2'
_chemical_name_systematic        2,7-bis(Thiazol-2-yl)pyrene
_symmetry_cell_setting           monoclinic
_symmetry_space_group_name_H-M   'P 21/n'
_symmetry_Int_Tables_number      14
_space_group_name_Hall           '-P 2yn'
loop_
_symmetry_equiv_pos_site_id
_symmetry_equiv_pos_as_xyz
1 x,y,z
2 1/2-x,1/2+y,1/2-z
3 -x,-y,-z
4 1/2+x,1/2-y,1/2+z
_cell_length_a                   3.8727(8)
_cell_length_b                   20.191(4)
_cell_length_c                   10.540(2)
_cell_angle_alpha                90
_cell_angle_beta                 99.48(3)
_cell_angle_gamma                90
_cell_volume                     812.906
_exptl_crystal_colour            yellow
_exptl_crystal_description       platelet
_chemical_melting_point          '303 deg.C'
_cell_formula_units_Z            2
_exptl_crystal_recrystallization_method dichloromethane/toluene
loop_
_atom_site_label
_atom_site_type_symbol
_atom_site_fract_x
_atom_site_fract_y
_atom_site_fract_z
S1 S 0.4893(8) 0.12622(12) 0.02244(17)
N1 N 0.219(3) 0.2061(4) -0.1505(9)
C1 C 0.1994(11) 0.2357(2) -0.0333(5)
H1 H 0.1017 0.2785 -0.0267
C2 C 0.3288(16) 0.1996(3) 0.0699(5)
H2 H 0.3313 0.2126 0.1566
C3 C 0.1619(7) 0.10080(13) -0.5980(3)
H3 H 0.0449 0.1421 -0.6135
C4 C 0.3104(6) 0.08321(11) -0.4691(3)
C5 C 0.2845(7) 0.12357(12) -0.3634(3)
H4 H 0.1693 0.1651 -0.3770
C6 C 0.4236(7) 0.10432(13) -0.2385(3)
C7 C 0.6010(7) 0.04413(12) -0.2180(3)
H5 H 0.6996 0.0314 -0.1330
C8 C 0.6356(6) 0.00244(11) -0.3204(2)
C9 C 0.4865(6) 0.02120(11) -0.4470(2)
C10 C 0.8163(7) -0.06023(13) -0.3020(3)
H6 H 0.9219 -0.0732 -0.2179
C11 C 0.3768(7) 0.14669(13) -0.1292(3)
S1B S 0.5107(8) -0.12622(12) -1.02244(17)
N1B N 0.781(3) -0.2061(4) -0.8495(9)
C1B C 0.8006(11) -0.2357(2) -0.9667(5)
H1B H 0.8983 -0.2785 -0.9733
C2B C 0.6712(16) -0.1996(3) -1.0699(5)
H2B H 0.6687 -0.2126 -1.1566
C3B C 0.8381(7) -0.10080(13) -0.4020(3)
H3B H 0.9551 -0.1421 -0.3865
C4B C 0.6896(6) -0.08321(11) -0.5309(3)
C5B C 0.7155(7) -0.12357(12) -0.6366(3)
H4B H 0.8307 -0.1651 -0.6230
C6B C 0.5764(7) -0.10432(13) -0.7615(3)
C7B C 0.3990(7) -0.04413(12) -0.7820(3)
H5B H 0.3004 -0.0314 -0.8670
C8B C 0.3644(6) -0.00244(11) -0.6796(2)
C9B C 0.5135(6) -0.02120(11) -0.5530(2)
C10B C 0.1837(7) 0.06023(13) -0.6980(3)
H6B H 0.0781 0.0732 -0.7821
C11B C 0.6232(7) -0.14669(13) -0.8708(3)
C12? C 0.455(3) 0.1713(5) 0.0881(8)
C13? C 0.279(3) 0.2248(5) 0.0384(8)
H7? H 0.5401 0.1654 0.1772
H8? H 0.2110 0.2608 0.0868
N2? N 0.500(6) 0.1250(8) -0.0071(9)
S2? S 0.1941(19) 0.2183(3) -0.1259(6)
loop_
_geom_bond_atom_site_label_1
_geom_bond_atom_site_label_2
_geom_bond_site_symmetry_1
_geom_bond_site_symmetry_2
S1 C2 1_555 1_555
N1 C1 1_555 1_555
C1 H1 1_555 1_555
C2 C1 1_555 1_555
H2 C2 1_555 1_555
C3 H3 1_555 1_555
C4 C3 1_555 1_555
C5 C4 1_555 1_555
H4 C5 1_555 1_555
C6 C5 1_555 1_555
C7 C6 1_555 1_555
H5 C7 1_555 1_555
C8 C7 1_555 1_555
C9 C4 1_555 1_555
C10 C8 1_555 1_555
H6 C10 1_555 1_555
C11 S1 1_555 1_555
S1B C2B 1_555 1_555
N1B C1B 1_555 1_555
C1B H1B 1_555 1_555
C2B C1B 1_555 1_555
H2B C2B 1_555 1_555
C3B C10 1_555 1_555
H3B C3B 1_555 1_555
C4B C3B 1_555 1_555
C5B C4B 1_555 1_555
H4B C5B 1_555 1_555
C6B C5B 1_555 1_555
C7B C6B 1_555 1_555
H5B C7B 1_555 1_555
C8B C7B 1_555 1_555
C9B C9 1_555 1_555
C10B C3 1_555 1_555
H6B C10B 1_555 1_555
C11B S1B 1_555 1_555
N1 C11 1_555 1_555
C6 C11 1_555 1_555
C8 C9 1_555 1_555
N1B C11B 1_555 1_555
C4B C9B 1_555 1_555
C6B C11B 1_555 1_555
C8B C9B 1_555 1_555
C8B C10B 1_555 1_555

#END
