
#######################################################################
#
#                 Cambridge Crystallographic Data Centre
#                                CCDC 
#
#######################################################################
#
# If this CIF has been generated from an entry in the Cambridge 
# Structural Database, then it will include bibliographic, chemical, 
# crystal, experimental, refinement or atomic coordinate data resulting 
# from the CCDC's data processing and validation procedures.
#
#######################################################################

data_ASUBEW
_chemical_name_common            2,2'-Pyrene-2,7-diylbis(5-hexylthiophene)
_chemical_formula_moiety         'C36 H38 S2'
_chemical_name_systematic        2,7-bis(5-Hexylthiophen-2-yl)pyrene
_symmetry_cell_setting           triclinic
_symmetry_space_group_name_H-M   'P -1'
_symmetry_Int_Tables_number      2
_space_group_name_Hall           '-P 1'
loop_
_symmetry_equiv_pos_site_id
_symmetry_equiv_pos_as_xyz
1 x,y,z
2 -x,-y,-z
_cell_length_a                   5.727(2)
_cell_length_b                   7.821(4)
_cell_length_c                   16.117(7)
_cell_angle_alpha                93.601(6)
_cell_angle_beta                 91.506(9)
_cell_angle_gamma                103.674(7)
_cell_volume                     699.419
_exptl_crystal_colour            yellow
_exptl_crystal_description       plate
_chemical_melting_point          '228 deg.C'
_cell_formula_units_Z            1
_exptl_crystal_recrystallization_method dichloromethane
loop_
_atom_site_label
_atom_site_type_symbol
_atom_site_fract_x
_atom_site_fract_y
_atom_site_fract_z
S1 S 0.46217(7) 0.25837(6) 0.16769(2)
C1 C 0.9658(3) 0.4796(2) 0.45707(9)
C2 C 0.7366(3) 0.3719(2) 0.43276(10)
C3 C 0.6711(3) 0.3376(2) 0.34814(10)
H1 H 0.5162 0.2661 0.3320
C4 C 0.8269(3) 0.4055(2) 0.28669(10)
C5 C 1.0540(3) 0.5093(2) 0.31113(10)
H2 H 1.1625 0.5545 0.2698
C6 C 1.1258(3) 0.5486(2) 0.39491(10)
C7 C 1.3558(4) 0.6591(3) 0.42149(11)
H3 H 1.4653 0.7063 0.3808
C8 C 0.5790(4) 0.3019(3) 0.49711(11)
H4 H 0.4258 0.2267 0.4819
C9 C 0.7538(3) 0.3688(2) 0.19794(10)
C10 C 0.8846(3) 0.4091(2) 0.12916(10)
H5 H 1.0491 0.4708 0.1320
C11 C 0.7516(3) 0.3502(2) 0.05301(10)
H6 H 0.8187 0.3685 0.0001
C12 C 0.5192(3) 0.2652(2) 0.06291(9)
C13 C 0.3221(3) 0.1794(2) -0.00006(10)
H7 H 0.1810 0.2291 0.0104
H8 H 0.2739 0.0518 0.0084
C14 C 0.3866(3) 0.2012(2) -0.09074(10)
H9 H 0.4324 0.3283 -0.1005
H10 H 0.5262 0.1506 -0.1025
C15 C 0.1744(3) 0.1090(2) -0.14917(10)
H11 H 0.1280 -0.0173 -0.1379
H12 H 0.0359 0.1604 -0.1367
C16 C 0.2242(3) 0.1229(2) -0.24120(10)
H13 H 0.2713 0.2489 -0.2528
H14 H 0.3610 0.0700 -0.2542
C17 C 0.0074(3) 0.0307(3) -0.29738(11)
H15 H -0.1288 0.0844 -0.2846
H16 H -0.0406 -0.0951 -0.2852
C18 C 0.0560(4) 0.0421(3) -0.38969(12)
H17 H -0.0892 -0.0188 -0.4228
H18 H 0.1878 -0.0137 -0.4032
H19 H 0.1006 0.1662 -0.4025
S1A S 1.53783(7) 0.74163(6) 0.83231(2)
C1A C 1.0342(3) 0.5204(2) 0.54293(9)
C2A C 1.2634(3) 0.6281(2) 0.56724(10)
C3A C 1.3289(3) 0.6624(2) 0.65186(10)
H1A H 1.4838 0.7339 0.6680
C4A C 1.1731(3) 0.5945(2) 0.71331(10)
C5A C 0.9460(3) 0.4907(2) 0.68887(10)
H2A H 0.8375 0.4455 0.7302
C6A C 0.8742(3) 0.4514(2) 0.60509(10)
C7A C 0.6442(4) 0.3409(3) 0.57851(11)
H3A H 0.5347 0.2937 0.6192
C8A C 1.4210(4) 0.6981(3) 0.50289(11)
H4A H 1.5742 0.7733 0.5181
C9A C 1.2462(3) 0.6312(2) 0.80206(10)
C10A C 1.1154(3) 0.5909(2) 0.87084(10)
H5A H 0.9509 0.5292 0.8680
C11A C 1.2484(3) 0.6498(2) 0.94699(10)
H6A H 1.1813 0.6315 0.9999
C12A C 1.4808(3) 0.7348(2) 0.93709(9)
C13A C 1.6779(3) 0.8206(2) 1.00006(10)
H7A H 1.8190 0.7709 0.9896
H8A H 1.7261 0.9482 0.9916
C14A C 1.6134(3) 0.7988(2) 1.09074(10)
H9A H 1.5676 0.6717 1.1005
H10A H 1.4738 0.8494 1.1025
C15A C 1.8256(3) 0.8910(2) 1.14917(10)
H11A H 1.8720 1.0173 1.1379
H12A H 1.9641 0.8396 1.1367
C16A C 1.7758(3) 0.8771(2) 1.24120(10)
H13A H 1.7287 0.7511 1.2528
H14A H 1.6390 0.9300 1.2542
C17A C 1.9926(3) 0.9693(3) 1.29738(11)
H15A H 2.1288 0.9156 1.2846
H16A H 2.0406 1.0951 1.2852
C18A C 1.9440(4) 0.9579(3) 1.38969(12)
H17A H 2.0892 1.0188 1.4228
H18A H 1.8122 1.0137 1.4032
H19A H 1.8994 0.8338 1.4025
loop_
_geom_bond_atom_site_label_1
_geom_bond_atom_site_label_2
_geom_bond_site_symmetry_1
_geom_bond_site_symmetry_2
S1 C9 1_555 1_555
C1 C2 1_555 1_555
C2 C3 1_555 1_555
C3 H1 1_555 1_555
C4 C3 1_555 1_555
C5 C4 1_555 1_555
H2 C5 1_555 1_555
C6 C1 1_555 1_555
C7 C6 1_555 1_555
H3 C7 1_555 1_555
C8 C2 1_555 1_555
H4 C8 1_555 1_555
C9 C4 1_555 1_555
C10 C9 1_555 1_555
H5 C10 1_555 1_555
C11 C10 1_555 1_555
H6 C11 1_555 1_555
C12 S1 1_555 1_555
C13 C12 1_555 1_555
H7 C13 1_555 1_555
H8 C13 1_555 1_555
C14 C13 1_555 1_555
H9 C14 1_555 1_555
H10 C14 1_555 1_555
C15 C14 1_555 1_555
H11 C15 1_555 1_555
H12 C15 1_555 1_555
C16 C15 1_555 1_555
H13 C16 1_555 1_555
H14 C16 1_555 1_555
C17 C16 1_555 1_555
H15 C17 1_555 1_555
H16 C17 1_555 1_555
C18 C17 1_555 1_555
H17 C18 1_555 1_555
H18 C18 1_555 1_555
H19 C18 1_555 1_555
S1A C9A 1_555 1_555
C1A C1 1_555 1_555
C2A C1A 1_555 1_555
C3A C2A 1_555 1_555
H1A C3A 1_555 1_555
C4A C3A 1_555 1_555
C5A C4A 1_555 1_555
H2A C5A 1_555 1_555
C6A C1A 1_555 1_555
C7A C8 1_555 1_555
H3A C7A 1_555 1_555
C8A C7 1_555 1_555
H4A C8A 1_555 1_555
C9A C4A 1_555 1_555
C10A C9A 1_555 1_555
H5A C10A 1_555 1_555
C11A C10A 1_555 1_555
H6A C11A 1_555 1_555
C12A S1A 1_555 1_555
C13A C12A 1_555 1_555
H7A C13A 1_555 1_555
H8A C13A 1_555 1_555
C14A C13A 1_555 1_555
H9A C14A 1_555 1_555
H10A C14A 1_555 1_555
C15A C14A 1_555 1_555
H11A C15A 1_555 1_555
H12A C15A 1_555 1_555
C16A C15A 1_555 1_555
H13A C16A 1_555 1_555
H14A C16A 1_555 1_555
C17A C16A 1_555 1_555
H15A C17A 1_555 1_555
H16A C17A 1_555 1_555
C18A C17A 1_555 1_555
H17A C18A 1_555 1_555
H18A C18A 1_555 1_555
H19A C18A 1_555 1_555
C5 C6 1_555 1_555
C11 C12 1_555 1_555
C2A C8A 1_555 1_555
C5A C6A 1_555 1_555
C6A C7A 1_555 1_555
C11A C12A 1_555 1_555

#END
