
#######################################################################
#
#                 Cambridge Crystallographic Data Centre
#                                CCDC 
#
#######################################################################
#
# If this CIF has been generated from an entry in the Cambridge 
# Structural Database, then it will include bibliographic, chemical, 
# crystal, experimental, refinement or atomic coordinate data resulting 
# from the CCDC's data processing and validation procedures.
#
#######################################################################

data_ASURAI
_chemical_formula_moiety         'C15 H11 N4 O2 1+,Cl1 O4 1-,2(H2 O1)'
_chemical_name_systematic        
"3-Formyl-2,3'-biimidazo[1,2-a]pyridin-1-ium-2'-olate radical cation perchlorate dihydrate"
_symmetry_cell_setting           monoclinic
_symmetry_space_group_name_H-M   'P 21'
_symmetry_Int_Tables_number      4
_space_group_name_Hall           'P 2yb'
loop_
_symmetry_equiv_pos_site_id
_symmetry_equiv_pos_as_xyz
1 x,y,z
2 -x,1/2+y,-z
_cell_length_a                   7.0793(14)
_cell_length_b                   17.218(3)
_cell_length_c                   14.875(3)
_cell_angle_alpha                90
_cell_angle_beta                 97.83(3)
_cell_angle_gamma                90
_cell_volume                     1796.23
_exptl_crystal_colour            yellow
_exptl_crystal_description       block
_cell_formula_units_Z            4
loop_
_atom_site_label
_atom_site_type_symbol
_atom_site_fract_x
_atom_site_fract_y
_atom_site_fract_z
Cl1 Cl 0.79095(3) 0.062057(17) 0.723785(11)
O1 O 0.73173(16) 0.13553(4) 0.74961(6)
O2 O 0.66410(12) 0.00466(4) 0.75325(7)
O3 O 0.78526(17) 0.05729(9) 0.62861(3)
O11 O 0.97156(9) 0.03472(8) 0.76649(6)
Cl2 Cl 0.22266(5) 0.06262(2) 0.248182(15)
O4 O 0.10158(13) 0.11787(5) 0.28248(6)
O5 O 0.15336(15) 0.05499(9) 0.15283(4)
O6 O 0.22783(12) -0.00911(3) 0.29170(5)
O15 O 0.41466(10) 0.09361(7) 0.25517(13)
N1 N 0.86073(9) 0.36666(4) 0.90177(4)
N2 N 1.06001(8) 0.35910(4) 0.79842(4)
H1 H 1.1585 0.3632 0.7707
O7 O 0.54289(7) 0.33629(4) 0.61933(3)
N6 N 0.73594(9) 0.26150(5) 0.53299(4)
H4 H 0.6562 0.2595 0.4840
N7 N 0.99037(9) 0.24764(4) 0.62756(4)
C2 C 0.89586(10) 0.32380(5) 0.76432(5)
C5 C 1.04805(12) 0.38717(5) 0.88220(5)
O10 O 0.48822(9) 0.29135(5) 0.87976(4)
C6 C 0.69873(11) 0.29990(5) 0.61631(5)
C8 C 1.10630(12) 0.45249(6) 1.02545(5)
H6 H 1.1868 0.4802 1.0686
C10 C 0.90643(11) 0.23050(5) 0.54246(5)
C11 C 0.77077(11) 0.32493(5) 0.82796(5)
C14 C 0.59170(14) 0.28779(6) 0.82844(6)
H8 H 0.5540 0.2557 0.7790
C16 C 1.00584(12) 0.19146(5) 0.48422(5)
H10 H 0.9534 0.1825 0.4243
C19 C 1.16831(11) 0.22364(5) 0.66021(5)
H13 H 1.2204 0.2349 0.7196
C20 C 0.85378(12) 0.29195(5) 0.67208(5)
C21 C 1.27457(13) 0.18101(5) 0.60247(5)
H14 H 1.3983 0.1646 0.6226
C25 C 0.79971(14) 0.38868(5) 0.98109(5)
H17 H 0.6787 0.3745 0.9929
C26 C 0.91482(17) 0.43123(6) 1.04281(5)
H18 H 0.8717 0.4469 1.0963
C28 C 1.16930(12) 0.43041(5) 0.94171(5)
H20 H 1.2888 0.4450 0.9282
C30 C 1.19102(11) 0.16504(4) 0.51788(5)
H22 H 1.2574 0.1356 0.4802
N3 N 1.13417(9) 0.25515(4) 0.10086(4)
O8 O 1.45982(7) 0.28564(4) 0.38575(3)
N4 N 0.93645(9) 0.26384(4) 0.20048(4)
H2 H 0.8350 0.2590 0.2259
N5 N 1.27249(9) 0.35801(4) 0.46948(4)
H3 H 1.3518 0.3619 0.5185
C1 C 1.10522(10) 0.30141(4) 0.23671(4)
N8 N 1.01007(8) 0.37181(4) 0.36933(3)
C3 C 0.83566(15) 0.19365(6) 0.05251(6)
H5 H 0.7128 0.1809 0.0629
O9 O 1.51717(8) 0.32846(6) 0.11567(4)
C4 C 1.09172(11) 0.38795(4) 0.45669(4)
C7 C 1.30724(11) 0.32097(5) 0.39215(4)
C9 C 0.96391(10) 0.23635(4) 0.11692(5)
C12 C 1.07989(13) 0.19381(6) -0.03809(5)
H7 H 1.1212 0.1782 -0.0920
C13 C 1.22842(10) 0.29633(5) 0.17420(4)
C15 C 1.40946(10) 0.33660(5) 0.17972(4)
H9 H 1.4492 0.3684 0.2292
C17 C 0.99849(11) 0.43269(5) 0.51601(5)
H11 H 1.0575 0.4436 0.5744
C18 C 0.73956(12) 0.44426(5) 0.39077(6)
H12 H 0.6202 0.4646 0.3693
C22 C 0.83677(11) 0.40237(5) 0.33917(5)
H15 H 0.7842 0.3933 0.2793
C23 C 1.19332(12) 0.23385(5) 0.01887(5)
H16 H 1.3129 0.2483 0.0055
C24 C 1.13390(9) 0.33096(5) 0.32714(4)
C27 C 0.83559(17) 0.45762(7) 0.48925(7)
H19 H 0.7702 0.4849 0.5293
C29 C 0.90292(16) 0.17363(5) -0.02242(5)
H21 H 0.8263 0.1447 -0.0659
O12 O 0.66951(6) 0.20128(3) 0.28826(3)
O13 O 0.47894(13) 0.06073(10) 0.02543(7)
O14 O 1.3256(2) 0.07457(15) -0.15659(7)
O16 O 0.2881(5) 0.4486(2) 0.56178(16)
loop_
_geom_bond_atom_site_label_1
_geom_bond_atom_site_label_2
_geom_bond_site_symmetry_1
_geom_bond_site_symmetry_2
Cl1 O1 1_555 1_555
O2 Cl1 1_555 1_555
O3 Cl1 1_555 1_555
Cl2 O4 1_555 1_555
O5 Cl2 1_555 1_555
O6 Cl2 1_555 1_555
N1 C5 1_555 1_555
N2 H1 1_555 1_555
O7 C6 1_555 1_555
N3 C9 1_555 1_555
O8 C7 1_555 1_555
N4 H2 1_555 1_555
N5 H3 1_555 1_555
N6 H4 1_555 1_555
N7 C10 1_555 1_555
C1 N4 1_555 1_555
N8 C4 1_555 1_555
C2 N2 1_555 1_555
C3 H5 1_555 1_555
O9 C15 1_555 1_555
C4 N5 1_555 1_555
C5 N2 1_555 1_555
O10 C14 1_555 1_555
C6 N6 1_555 1_555
C7 N5 1_555 1_555
C8 H6 1_555 1_555
C9 N4 1_555 1_555
C10 N6 1_555 1_555
C11 N1 1_555 1_555
C12 H7 1_555 1_555
C13 N3 1_555 1_555
C14 C11 1_555 1_555
H8 C14 1_555 1_555
C15 C13 1_555 1_555
H9 C15 1_555 1_555
C16 C10 1_555 1_555
H10 C16 1_555 1_555
C17 C4 1_555 1_555
H11 C17 1_555 1_555
C18 H12 1_555 1_555
C19 N7 1_555 1_555
H13 C19 1_555 1_555
C20 N7 1_555 1_555
C21 C19 1_555 1_555
H14 C21 1_555 1_555
C22 N8 1_555 1_555
H15 C22 1_555 1_555
C23 N3 1_555 1_555
H16 C23 1_555 1_555
C24 C1 1_555 1_555
C25 N1 1_555 1_555
H17 C25 1_555 1_555
C26 C8 1_555 1_555
H18 C26 1_555 1_555
C27 C17 1_555 1_555
H19 C27 1_555 1_555
C28 C5 1_555 1_555
H20 C28 1_555 1_555
C29 C3 1_555 1_555
H21 C29 1_555 1_555
C30 C16 1_555 1_555
H22 C30 1_555 1_555
O11 Cl1 1_555 1_555
O15 Cl2 1_555 1_555
C1 C13 1_555 1_555
N8 C24 1_555 1_555
C2 C11 1_555 1_555
C2 C20 1_555 1_555
C3 C9 1_555 1_555
C6 C20 1_555 1_555
C7 C24 1_555 1_555
C8 C28 1_555 1_555
C12 C23 1_555 1_555
C12 C29 1_555 1_555
C18 C22 1_555 1_555
C18 C27 1_555 1_555
C21 C30 1_555 1_555
C25 C26 1_555 1_555

#END
