
#######################################################################
#
#                 Cambridge Crystallographic Data Centre
#                                CCDC 
#
#######################################################################
#
# If this CIF has been generated from an entry in the Cambridge 
# Structural Database, then it will include bibliographic, chemical, 
# crystal, experimental, refinement or atomic coordinate data resulting 
# from the CCDC's data processing and validation procedures.
#
#######################################################################

data_ASUZIX
_chemical_formula_moiety         'C16 H37 Cl1 Si4'
_chemical_name_systematic        
1-Chloro-1-tris(trimethylsilyl)methyl-3,4-dimethyl-1-silacyclopent-3-ene
_symmetry_cell_setting           monoclinic
_symmetry_space_group_name_H-M   'C 2/c'
_symmetry_Int_Tables_number      15
_space_group_name_Hall           '-C 2yn'
loop_
_symmetry_equiv_pos_site_id
_symmetry_equiv_pos_as_xyz
1 x,y,z
2 1/2+x,1/2+y,z
3 x,-y,1/2+z
4 1/2+x,1/2-y,1/2+z
5 -x,-y,-z
6 1/2-x,1/2-y,-z
7 -x,y,1/2-z
8 1/2-x,1/2+y,1/2-z
_cell_length_a                   30.589(9)
_cell_length_b                   13.173(3)
_cell_length_c                   11.838(4)
_cell_angle_alpha                90
_cell_angle_beta                 105.26(2)
_cell_angle_gamma                90
_cell_volume                     4601.92
_exptl_crystal_colour            colorless
_exptl_crystal_description       plate
_chemical_melting_point          'above 300deg.C'
_cell_formula_units_Z            8
loop_
_atom_site_label
_atom_site_type_symbol
_atom_site_fract_x
_atom_site_fract_y
_atom_site_fract_z
Si1 Si 0.15219(5) 0.24058(13) 0.20951(13)
Si2 Si 0.05140(11) 0.2842(3) 0.0778(3)
Si3 Si 0.13167(12) 0.3535(3) -0.0231(3)
Si4 Si 0.10996(12) 0.1209(3) -0.0148(3)
C1 C 0.0222(3) 0.1517(8) 0.1065(8)
H1 H 0.0215 0.1056 0.0432
H2 H -0.0082 0.1646 0.1112
H3 H 0.0395 0.1222 0.1787
C2 C 0.0170(2) 0.3483(6) -0.0644(6)
H4 H 0.0131 0.3014 -0.1284
H5 H 0.0330 0.4072 -0.0799
H6 H -0.0121 0.3681 -0.0557
C3 C 0.0557(2) 0.3841(6) 0.1928(6)
H7 H 0.0728 0.3582 0.2671
H8 H 0.0258 0.4024 0.1975
H9 H 0.0706 0.4428 0.1727
C4 C 0.1092(3) 0.4866(5) 0.0189(6)
H10 H 0.1195 0.5399 -0.0230
H11 H 0.1207 0.4978 0.1016
H12 H 0.0767 0.4861 -0.0015
C5 C 0.1091(3) 0.3255(7) -0.1935(6)
H13 H 0.1192 0.3780 -0.2368
H14 H 0.0766 0.3237 -0.2151
H15 H 0.1206 0.2612 -0.2110
C6 C 0.1967(2) 0.3468(5) -0.0002(6)
H16 H 0.2061 0.4005 -0.0433
H17 H 0.2046 0.2825 -0.0275
H18 H 0.2116 0.3541 0.0816
C7 C 0.1637(3) 0.1154(6) -0.0863(6)
H19 H 0.1638 0.0513 -0.1249
H20 H 0.1914 0.1229 -0.0257
H21 H 0.1612 0.1694 -0.1422
C8 C 0.1097(2) 0.0094(5) 0.0886(6)
H22 H 0.1092 -0.0533 0.0469
H23 H 0.0833 0.0135 0.1178
H24 H 0.1364 0.0120 0.1529
C9 C 0.0546(2) 0.1022(6) -0.1361(6)
H25 H 0.0551 0.0372 -0.1725
H26 H 0.0519 0.1547 -0.1938
H27 H 0.0293 0.1053 -0.1027
Cl1 Cl 0.12145(7) 0.18138(16) 0.33369(14)
C19 C 0.1815(2) 0.3585(5) 0.2801(5)
H55 H 0.1798 0.4122 0.2230
H56 H 0.1684 0.3826 0.3414
C20 C 0.2302(2) 0.3241(5) 0.3305(5)
C21 C 0.2622(2) 0.4013(6) 0.4026(6)
H57 H 0.2918 0.3720 0.4301
H58 H 0.2513 0.4215 0.4683
H59 H 0.2637 0.4597 0.3552
C22 C 0.24139(19) 0.2315(5) 0.3074(5)
C23 C 0.2882(2) 0.1842(6) 0.3514(6)
H60 H 0.2877 0.1160 0.3224
H61 H 0.2967 0.1833 0.4355
H62 H 0.3099 0.2235 0.3242
C24 C 0.20573(19) 0.1647(5) 0.2301(5)
H63 H 0.2035 0.1003 0.2679
H64 H 0.2124 0.1520 0.1557
C25 C 0.11121(16) 0.2482(4) 0.0606(4)
Si5? Si 0.07419(11) 0.3651(3) 0.0503(3)
Si6? Si 0.14548(11) 0.2555(3) -0.0569(3)
Si7? Si 0.07525(12) 0.1248(3) 0.0321(3)
C10? C 0.0222(3) 0.1517(8) 0.1065(8)
H28? H 0.0060 0.2113 0.0721
H29? H 0.0339 0.1617 0.1893
H30? H 0.0020 0.0945 0.0926
C11? C 0.0170(2) 0.3483(6) -0.0644(6)
H31? H -0.0010 0.4082 -0.0666
H32? H 0.0014 0.2909 -0.0439
H33? H 0.0222 0.3373 -0.1401
C12? C 0.0557(2) 0.3841(6) 0.1928(6)
H34? H 0.0375 0.4443 0.1863
H35? H 0.0820 0.3909 0.2576
H36? H 0.0383 0.3265 0.2052
C13? C 0.1092(3) 0.4866(5) 0.0189(6)
H37? H 0.0907 0.5463 0.0127
H38? H 0.1176 0.4766 -0.0529
H39? H 0.1361 0.4948 0.0821
C14? C 0.1091(3) 0.3255(7) -0.1935(6)
H40? H 0.1253 0.3279 -0.2529
H41? H 0.1030 0.3934 -0.1723
H42? H 0.0810 0.2899 -0.2230
C15? C 0.1967(2) 0.3468(5) -0.0002(6)
H43? H 0.2170 0.3185 0.0686
H44? H 0.1859 0.4115 0.0185
H45? H 0.2124 0.3555 -0.0598
C16? C 0.1637(3) 0.1154(6) -0.0863(6)
H46? H 0.1815 0.0865 -0.0145
H47? H 0.1813 0.1172 -0.1426
H48? H 0.1371 0.0747 -0.1162
C17? C 0.1097(2) 0.0094(5) 0.0886(6)
H49? H 0.0906 -0.0496 0.0733
H50? H 0.1226 0.0160 0.1714
H51? H 0.1335 0.0025 0.0501
C18? C 0.0546(2) 0.1022(6) -0.1361(6)
H52? H 0.0368 0.1590 -0.1726
H53? H 0.0366 0.0416 -0.1513
H54? H 0.0804 0.0948 -0.1675
loop_
_geom_bond_atom_site_label_1
_geom_bond_atom_site_label_2
_geom_bond_site_symmetry_1
_geom_bond_site_symmetry_2
Si1 Cl1 1_555 1_555
Si2 C1 1_555 1_555
Si3 C4 1_555 1_555
Si4 C7 1_555 1_555
C1 H1 1_555 1_555
H2 C1 1_555 1_555
H3 C1 1_555 1_555
C2 Si2 1_555 1_555
H4 C2 1_555 1_555
H5 C2 1_555 1_555
H6 C2 1_555 1_555
C3 Si2 1_555 1_555
H7 C3 1_555 1_555
H8 C3 1_555 1_555
H9 C3 1_555 1_555
C4 H10 1_555 1_555
H11 C4 1_555 1_555
H12 C4 1_555 1_555
C5 Si3 1_555 1_555
H13 C5 1_555 1_555
H14 C5 1_555 1_555
H15 C5 1_555 1_555
C6 Si3 1_555 1_555
H16 C6 1_555 1_555
H17 C6 1_555 1_555
H18 C6 1_555 1_555
C7 H19 1_555 1_555
H20 C7 1_555 1_555
H21 C7 1_555 1_555
C8 Si4 1_555 1_555
H22 C8 1_555 1_555
H23 C8 1_555 1_555
H24 C8 1_555 1_555
C9 Si4 1_555 1_555
H25 C9 1_555 1_555
H26 C9 1_555 1_555
H27 C9 1_555 1_555
C19 Si1 1_555 1_555
H55 C19 1_555 1_555
H56 C19 1_555 1_555
C20 C19 1_555 1_555
C21 C20 1_555 1_555
H57 C21 1_555 1_555
H58 C21 1_555 1_555
H59 C21 1_555 1_555
C22 C20 1_555 1_555
C23 C22 1_555 1_555
H60 C23 1_555 1_555
H61 C23 1_555 1_555
H62 C23 1_555 1_555
C24 Si1 1_555 1_555
H63 C24 1_555 1_555
H64 C24 1_555 1_555
C25 Si1 1_555 1_555
Si2 C25 1_555 1_555
Si3 C25 1_555 1_555
Si4 C25 1_555 1_555
C22 C24 1_555 1_555

#END
