
#######################################################################
#
#                 Cambridge Crystallographic Data Centre
#                                CCDC 
#
#######################################################################
#
# If this CIF has been generated from an entry in the Cambridge 
# Structural Database, then it will include bibliographic, chemical, 
# crystal, experimental, refinement or atomic coordinate data resulting 
# from the CCDC's data processing and validation procedures.
#
#######################################################################

data_ATATOG
_chemical_formula_moiety         'C23 H34 O5,H2 O1'
_chemical_name_systematic        
'1,3,14-trihydroxycard-20(22)-enolide monohydrate'
_symmetry_cell_setting           monoclinic
_symmetry_space_group_name_H-M   'P 21'
_symmetry_Int_Tables_number      4
_space_group_name_Hall           'P 2yb'
loop_
_symmetry_equiv_pos_site_id
_symmetry_equiv_pos_as_xyz
1 x,y,z
2 -x,1/2+y,-z
_cell_length_a                   7.6624(15)
_cell_length_b                   13.460(3)
_cell_length_c                   10.370(2)
_cell_angle_alpha                90
_cell_angle_beta                 92.40(3)
_cell_angle_gamma                90
_cell_volume                     1068.58
_exptl_crystal_colour            colorless
_exptl_crystal_description       block
_cell_formula_units_Z            2
loop_
_atom_site_label
_atom_site_type_symbol
_atom_site_fract_x
_atom_site_fract_y
_atom_site_fract_z
O1 O 0.0906(8) 0.4717(3) 1.1606(6)
O2 O 0.0467(5) 0.6350(3) 1.1649(4)
O3 O 0.5185(3) 0.59393(15) 0.8268(2)
H1 H 0.6119 0.5657 0.8419
O4 O 0.6483(3) 0.93519(16) 0.2756(2)
H2 H 0.6188 0.9905 0.2497
O5 O 0.9933(3) 0.92135(18) 0.2914(2)
H3 H 0.8965 0.9229 0.2546
C1 C 0.6473(4) 0.9329(2) 0.4153(3)
H4 H 0.5503 0.9738 0.4436
C2 C 0.8187(4) 0.9770(2) 0.4693(3)
H5 H 0.8303 1.0446 0.4384
H6 H 0.8174 0.9790 0.5628
C3 C 0.9741(4) 0.9159(2) 0.4287(4)
H7 H 1.0800 0.9428 0.4719
C4 C 0.9521(4) 0.8079(2) 0.4720(3)
H8 H 0.9567 0.8054 0.5656
H9 H 1.0488 0.7688 0.4421
C5 C 0.7793(3) 0.7612(2) 0.4208(3)
H10 H 0.7822 0.7597 0.3264
C6 C 0.7648(4) 0.6540(2) 0.4667(3)
H11 H 0.8695 0.6181 0.4453
H12 H 0.6662 0.6225 0.4215
C7 C 0.7413(4) 0.6470(2) 0.6119(3)
H13 H 0.8451 0.6722 0.6576
H14 H 0.7271 0.5779 0.6359
C8 C 0.5804(4) 0.7069(2) 0.6521(3)
H15 H 0.4785 0.6772 0.6068
C9 C 0.5907(4) 0.8163(2) 0.6056(3)
H16 H 0.6935 0.8464 0.6493
C10 C 0.6164(4) 0.8235(2) 0.4563(3)
C11 C 0.4292(4) 0.8737(2) 0.6485(3)
H17 H 0.4412 0.9432 0.6260
H18 H 0.3258 0.8481 0.6027
C12 C 0.4067(4) 0.8646(2) 0.7936(3)
H19 H 0.3030 0.9011 0.8158
H20 H 0.5060 0.8955 0.8386
C13 C 0.3903(4) 0.7570(2) 0.8418(3)
C14 C 0.5504(4) 0.69766(19) 0.7967(3)
C15 C 0.6987(4) 0.7327(2) 0.8888(3)
H21 H 0.7424 0.7970 0.8628
H22 H 0.7943 0.6854 0.8917
C16 C 0.6131(4) 0.7394(3) 1.0217(3)
H23 H 0.6315 0.6782 1.0696
H24 H 0.6637 0.7937 1.0720
C17 C 0.4157(4) 0.7574(2) 0.9939(3)
H25 H 0.3891 0.8245 1.0238
C18 C 0.2170(4) 0.7129(2) 0.7910(3)
H26 H 0.1222 0.7519 0.8214
H27 H 0.2068 0.6458 0.8214
H28 H 0.2130 0.7132 0.6984
C19 C 0.4545(4) 0.7857(3) 0.3786(3)
H29 H 0.3606 0.8323 0.3859
H30 H 0.4200 0.7224 0.4118
H31 H 0.4817 0.7788 0.2895
C20 C 0.2990(5) 0.6868(3) 1.0614(3)
C21 C 0.1333(5) 0.7208(3) 1.1164(4)
H32 H 0.1576 0.7680 1.1855
H33 H 0.0601 0.7530 1.0503
C22 C 0.3092(7) 0.5893(3) 1.0818(4)
H34 H 0.4028 0.5493 1.0610
C23 C 0.1514(10) 0.5548(4) 1.1418(6)
O6 O 0.7970(4) 0.4791(2) 0.8982(4)
O7? O 0.8985(16) 0.4904(8) 0.9728(10)
loop_
_geom_bond_atom_site_label_1
_geom_bond_atom_site_label_2
_geom_bond_site_symmetry_1
_geom_bond_site_symmetry_2
O1 C23 1_555 1_555
O2 C21 1_555 1_555
O3 H1 1_555 1_555
O4 H2 1_555 1_555
O5 H3 1_555 1_555
C1 O4 1_555 1_555
H4 C1 1_555 1_555
C2 C1 1_555 1_555
H5 C2 1_555 1_555
H6 C2 1_555 1_555
C3 O5 1_555 1_555
H7 C3 1_555 1_555
C4 C3 1_555 1_555
H8 C4 1_555 1_555
H9 C4 1_555 1_555
C5 C4 1_555 1_555
H10 C5 1_555 1_555
C6 C5 1_555 1_555
H11 C6 1_555 1_555
H12 C6 1_555 1_555
C7 C6 1_555 1_555
H13 C7 1_555 1_555
H14 C7 1_555 1_555
C8 C7 1_555 1_555
H15 C8 1_555 1_555
C9 C8 1_555 1_555
H16 C9 1_555 1_555
C10 C1 1_555 1_555
C11 C9 1_555 1_555
H17 C11 1_555 1_555
H18 C11 1_555 1_555
C12 C11 1_555 1_555
H19 C12 1_555 1_555
H20 C12 1_555 1_555
C13 C12 1_555 1_555
C14 O3 1_555 1_555
C15 C14 1_555 1_555
H21 C15 1_555 1_555
H22 C15 1_555 1_555
C16 C15 1_555 1_555
H23 C16 1_555 1_555
H24 C16 1_555 1_555
C17 C13 1_555 1_555
H25 C17 1_555 1_555
C18 C13 1_555 1_555
H26 C18 1_555 1_555
H27 C18 1_555 1_555
H28 C18 1_555 1_555
C19 C10 1_555 1_555
H29 C19 1_555 1_555
H30 C19 1_555 1_555
H31 C19 1_555 1_555
C20 C17 1_555 1_555
C21 C20 1_555 1_555
H32 C21 1_555 1_555
H33 C21 1_555 1_555
C22 C20 1_555 1_555
H34 C22 1_555 1_555
C23 O2 1_555 1_555
C2 C3 1_555 1_555
C5 C10 1_555 1_555
C8 C14 1_555 1_555
C9 C10 1_555 1_555
C13 C14 1_555 1_555
C16 C17 1_555 1_555
C22 C23 1_555 1_555

#END
