
#######################################################################
#
#                 Cambridge Crystallographic Data Centre
#                                CCDC 
#
#######################################################################
#
# If this CIF has been generated from an entry in the Cambridge 
# Structural Database, then it will include bibliographic, chemical, 
# crystal, experimental, refinement or atomic coordinate data resulting 
# from the CCDC's data processing and validation procedures.
#
#######################################################################

data_ATELOB
_chemical_formula_moiety         'C33 H24 O4'
_chemical_name_systematic        
(2-(1-Naphthyl)-5-phenyl-1,3-dioxolane-4,4-diyl)bis(phenylmethanone)
_symmetry_cell_setting           rhombohedral
_symmetry_space_group_name_H-M   'R 3 c'
_symmetry_Int_Tables_number      161
_space_group_name_Hall           'R 3 -2"c'
loop_
_symmetry_equiv_pos_site_id
_symmetry_equiv_pos_as_xyz
1 x,y,z
2 -y,x-y,z
3 -x+y,-x,z
4 -y,-x,1/2+z
5 -x+y,y,1/2+z
6 x,x-y,1/2+z
7 2/3+x,1/3+y,1/3+z
8 2/3-y,1/3+x-y,1/3+z
9 2/3-x+y,1/3-x,1/3+z
10 2/3-y,1/3-x,5/6+z
11 2/3-x+y,1/3+y,5/6+z
12 2/3+x,1/3+x-y,5/6+z
13 1/3+x,2/3+y,2/3+z
14 1/3-y,2/3+x-y,2/3+z
15 1/3-x+y,2/3-x,2/3+z
16 1/3-y,2/3-x,1/6+z
17 1/3-x+y,2/3+y,1/6+z
18 1/3+x,2/3+x-y,1/6+z
_cell_length_a                   34.4501(4)
_cell_length_b                   34.4501(4)
_cell_length_c                   11.2367(3)
_cell_angle_alpha                90
_cell_angle_beta                 90
_cell_angle_gamma                120
_cell_volume                     11549.2
_exptl_crystal_colour            colorless
_exptl_crystal_description       block
_cell_formula_units_Z            18
loop_
_atom_site_label
_atom_site_type_symbol
_atom_site_fract_x
_atom_site_fract_y
_atom_site_fract_z
O1 O 0.04836(4) 0.88495(4) 0.15385(10)
O2 O 0.03029(4) 0.81300(4) 0.13701(9)
O3 O -0.01890(4) 0.78645(5) -0.13902(10)
O4 O 0.08378(5) 0.84576(5) -0.13789(12)
C1 C 0.10339(8) 0.77846(9) -0.0899(2)
H1 H 0.1246 0.8034 -0.1317
C2 C 0.10903(14) 0.74234(14) -0.0757(3)
H2 H 0.1344 0.7429 -0.1066
C3 C 0.07784(16) 0.70537(14) -0.0165(3)
H3 H 0.0820 0.6808 -0.0076
C4 C 0.04034(12) 0.70393(9) 0.0302(3)
H4 H 0.0189 0.6784 0.0695
C5 C 0.03479(9) 0.74081(7) 0.0182(2)
H5 H 0.0098 0.7404 0.0512
C6 C 0.06622(7) 0.77821(6) -0.04252(15)
C7 C -0.09894(6) 0.75491(7) -0.01827(18)
H6 H -0.0991 0.7406 -0.0886
C8 C -0.13881(7) 0.74370(8) 0.0368(2)
H7 H -0.1657 0.7213 0.0049
C9 C -0.13901(7) 0.76555(8) 0.1392(2)
H8 H -0.1660 0.7585 0.1754
C10 C -0.09938(7) 0.79770(7) 0.18760(19)
H9 H -0.0995 0.8123 0.2570
C11 C -0.05930(6) 0.80843(5) 0.13398(15)
H10 H -0.0325 0.8300 0.1681
C12 C -0.05847(5) 0.78736(5) 0.02978(14)
C13 C 0.02230(7) 0.89795(6) -0.15686(16)
H11 H 0.0386 0.8876 -0.1990
C14 C -0.00124(8) 0.91433(7) -0.21755(18)
H12 H -0.0008 0.9149 -0.3003
C15 C -0.02520(7) 0.92978(7) -0.1567(2)
H13 H -0.0414 0.9405 -0.1978
C16 C -0.02521(7) 0.92934(7) -0.0352(2)
H14 H -0.0412 0.9401 0.0064
C17 C -0.00173(7) 0.91301(6) 0.02626(18)
H15 H -0.0018 0.9130 0.1090
C18 C 0.02186(5) 0.89670(5) -0.03423(14)
C19 C 0.03020(5) 0.82653(5) 0.01748(13)
C20 C 0.04791(5) 0.87844(5) 0.02849(14)
H16 H 0.0789 0.8947 -0.0003
C21 C 0.05792(6) 0.85329(5) 0.20332(14)
H17 H 0.0897 0.8628 0.1922
C22 C 0.04566(6) 0.84468(6) 0.33249(15)
C23 C 0.02136(7) 0.86133(6) 0.38556(16)
H18 H 0.0129 0.8787 0.3414
C24 C 0.00899(8) 0.85255(7) 0.50563(19)
H19 H -0.0077 0.8640 0.5402
C25 C 0.02093(9) 0.82800(9) 0.57036(18)
H20 H 0.0127 0.8229 0.6502
C26 C 0.04553(7) 0.80968(8) 0.52140(17)
C27 C 0.05829(6) 0.81769(7) 0.39910(16)
C28 C 0.08167(8) 0.79785(9) 0.3497(2)
H21 H 0.0906 0.8032 0.2704
C29 C 0.09135(10) 0.77094(13) 0.4168(3)
H22 H 0.1067 0.7578 0.3834
C30 C 0.07809(12) 0.76298(13) 0.5378(3)
H23 H 0.0845 0.7443 0.5831
C31 C 0.05668(10) 0.78187(12) 0.5875(3)
H24 H 0.0489 0.7766 0.6675
C32 C -0.01694(6) 0.79883(5) -0.03737(14)
C33 C 0.06230(6) 0.81848(6) -0.06197(14)
loop_
_geom_bond_atom_site_label_1
_geom_bond_atom_site_label_2
_geom_bond_site_symmetry_1
_geom_bond_site_symmetry_2
O1 C20 1_555 1_555
O2 C19 1_555 1_555
O3 C32 1_555 1_555
O4 C33 1_555 1_555
C1 H1 1_555 1_555
C2 C1 1_555 1_555
H2 C2 1_555 1_555
C3 C2 1_555 1_555
H3 C3 1_555 1_555
C4 C3 1_555 1_555
H4 C4 1_555 1_555
C5 C4 1_555 1_555
H5 C5 1_555 1_555
C6 C1 1_555 1_555
C7 H6 1_555 1_555
C8 C7 1_555 1_555
H7 C8 1_555 1_555
C9 C8 1_555 1_555
H8 C9 1_555 1_555
C10 C9 1_555 1_555
H9 C10 1_555 1_555
C11 C10 1_555 1_555
H10 C11 1_555 1_555
C12 C7 1_555 1_555
C13 H11 1_555 1_555
C14 C13 1_555 1_555
H12 C14 1_555 1_555
C15 C14 1_555 1_555
H13 C15 1_555 1_555
C16 C15 1_555 1_555
H14 C16 1_555 1_555
C17 C16 1_555 1_555
H15 C17 1_555 1_555
C18 C13 1_555 1_555
C19 C20 1_555 1_555
C20 C18 1_555 1_555
H16 C20 1_555 1_555
C21 O1 1_555 1_555
H17 C21 1_555 1_555
C22 C21 1_555 1_555
C23 C22 1_555 1_555
H18 C23 1_555 1_555
C24 C23 1_555 1_555
H19 C24 1_555 1_555
C25 C24 1_555 1_555
H20 C25 1_555 1_555
C26 C25 1_555 1_555
C27 C22 1_555 1_555
C28 C27 1_555 1_555
H21 C28 1_555 1_555
C29 C28 1_555 1_555
H22 C29 1_555 1_555
C30 C29 1_555 1_555
H23 C30 1_555 1_555
C31 C26 1_555 1_555
H24 C31 1_555 1_555
C32 C12 1_555 1_555
C33 C6 1_555 1_555
O2 C21 1_555 1_555
C5 C6 1_555 1_555
C11 C12 1_555 1_555
C17 C18 1_555 1_555
C19 C32 1_555 1_555
C19 C33 1_555 1_555
C26 C27 1_555 1_555
C30 C31 1_555 1_555

#END
