
#######################################################################
#
#                 Cambridge Crystallographic Data Centre
#                                CCDC 
#
#######################################################################
#
# If this CIF has been generated from an entry in the Cambridge 
# Structural Database, then it will include bibliographic, chemical, 
# crystal, experimental, refinement or atomic coordinate data resulting 
# from the CCDC's data processing and validation procedures.
#
#######################################################################

data_ATEMES
_chemical_formula_moiety         'C16 H15 N1 O1 S1'
_chemical_name_systematic        
1,3-Dimethyl-3-(phenylsulfanyl)-1,3-dihydro-2H-indol-2-one
_symmetry_cell_setting           monoclinic
_symmetry_space_group_name_H-M   'P 21/c'
_symmetry_Int_Tables_number      14
_space_group_name_Hall           '-P 2ybc'
loop_
_symmetry_equiv_pos_site_id
_symmetry_equiv_pos_as_xyz
1 x,y,z
2 -x,1/2+y,1/2-z
3 -x,-y,-z
4 x,1/2-y,1/2+z
_cell_length_a                   15.266(3)
_cell_length_b                   14.002(3)
_cell_length_c                   13.444(3)
_cell_angle_alpha                90
_cell_angle_beta                 93.68(3)
_cell_angle_gamma                90
_cell_volume                     2867.79
_cell_formula_units_Z            8
loop_
_atom_site_label
_atom_site_type_symbol
_atom_site_fract_x
_atom_site_fract_y
_atom_site_fract_z
C1 C 0.63193(16) 0.18487(18) 0.55901(19)
C2 C 0.69278(17) 0.26366(19) 0.52465(18)
C3 C 0.55189(15) 0.30932(18) 0.48014(17)
C4 C 0.47967(19) 0.3610(2) 0.4430(2)
H1 H 0.4856 0.4226 0.4184
C5 C 0.39768(19) 0.3171(3) 0.4440(2)
H2 H 0.3482 0.3501 0.4191
C6 C 0.38805(19) 0.2275(3) 0.4802(2)
H3 H 0.3326 0.1998 0.4788
C7 C 0.46091(17) 0.1770(2) 0.51942(19)
H4 H 0.4544 0.1159 0.5449
C8 C 0.54285(15) 0.21887(18) 0.52004(17)
C9 C 0.6614(2) 0.08613(19) 0.5257(2)
H5 H 0.6238 0.0382 0.5513
H6 H 0.7208 0.0750 0.5507
H7 H 0.6579 0.0832 0.4543
C10 C 0.6761(2) 0.4260(2) 0.4519(2)
H8 H 0.7390 0.4248 0.4598
H9 H 0.6542 0.4768 0.4914
H10 H 0.6580 0.4364 0.3830
C11 C 0.59588(17) 0.29884(19) 0.72375(17)
C12 C 0.50750(19) 0.3082(2) 0.7406(2)
H11 H 0.4716 0.2545 0.7385
C13 C 0.4724(2) 0.3965(3) 0.7603(2)
H12 H 0.4131 0.4025 0.7709
C14 C 0.5255(3) 0.4750(3) 0.7642(2)
H13 H 0.5019 0.5346 0.7775
C15 C 0.6140(2) 0.4673(2) 0.7486(2)
H14 H 0.6495 0.5213 0.7515
C16 C 0.64945(18) 0.3790(2) 0.72864(18)
H15 H 0.7089 0.3734 0.7185
N1 N 0.64113(13) 0.33514(15) 0.48447(15)
O1 O 0.77239(11) 0.26440(15) 0.53340(14)
S1 S 0.64052(5) 0.18546(5) 0.69712(5)
C17 C 0.10927(15) 0.03896(17) 0.2499(2)
C18 C 0.09154(17) 0.06296(18) 0.1390(2)
C19 C -0.02056(14) 0.12562(16) 0.22129(18)
C20 C -0.09604(16) 0.17358(17) 0.2409(2)
H16 H -0.1305 0.2035 0.1906
C21 C -0.11860(17) 0.17540(19) 0.3390(2)
H17 H -0.1692 0.2075 0.3547
C22 C -0.0685(2) 0.1313(2) 0.4135(2)
H18 H -0.0859 0.1327 0.4786
C23 C 0.00799(18) 0.08453(19) 0.3922(2)
H19 H 0.0428 0.0552 0.4427
C24 C 0.03166(15) 0.08222(16) 0.29547(19)
C25 C 0.11915(18) -0.06904(18) 0.2652(2)
H20 H 0.1330 -0.0822 0.3345
H21 H 0.1655 -0.0924 0.2268
H22 H 0.0652 -0.1002 0.2439
C26 C -0.01990(19) 0.1518(2) 0.0346(2)
H23 H -0.0121 0.2198 0.0344
H24 H -0.0813 0.1371 0.0258
H25 H 0.0103 0.1240 -0.0188
C27 C 0.19263(16) 0.21727(19) 0.2682(2)
C28 C 0.16236(17) 0.2786(2) 0.3383(2)
H26 H 0.1512 0.2558 0.4013
C29 C 0.14850(19) 0.3736(2) 0.3156(3)
H27 H 0.1292 0.4148 0.3639
C30 C 0.16273(19) 0.4076(2) 0.2235(3)
H28 H 0.1526 0.4717 0.2087
C31 C 0.1919(2) 0.3479(2) 0.1529(3)
H29 H 0.2010 0.3711 0.0895
C32 C 0.2079(2) 0.2527(2) 0.1753(2)
H30 H 0.2290 0.2125 0.1274
N2 N 0.01546(12) 0.11308(14) 0.12909(15)
O2 O 0.13630(13) 0.04126(15) 0.07087(16)
S2 S 0.21335(4) 0.09492(5) 0.29672(6)
loop_
_geom_bond_atom_site_label_1
_geom_bond_atom_site_label_2
_geom_bond_site_symmetry_1
_geom_bond_site_symmetry_2
C1 C2 1_555 1_555
C2 N1 1_555 1_555
C3 C4 1_555 1_555
C4 H1 1_555 1_555
C5 C4 1_555 1_555
H2 C5 1_555 1_555
C6 C5 1_555 1_555
H3 C6 1_555 1_555
C7 C6 1_555 1_555
H4 C7 1_555 1_555
C8 C1 1_555 1_555
C9 C1 1_555 1_555
H5 C9 1_555 1_555
H6 C9 1_555 1_555
H7 C9 1_555 1_555
C10 H8 1_555 1_555
H9 C10 1_555 1_555
H10 C10 1_555 1_555
C11 C12 1_555 1_555
C12 H11 1_555 1_555
C13 C12 1_555 1_555
H12 C13 1_555 1_555
C14 C13 1_555 1_555
H13 C14 1_555 1_555
C15 C14 1_555 1_555
H14 C15 1_555 1_555
C16 C11 1_555 1_555
H15 C16 1_555 1_555
C17 C18 1_555 1_555
C18 N2 1_555 1_555
C19 C20 1_555 1_555
C20 H16 1_555 1_555
C21 C20 1_555 1_555
H17 C21 1_555 1_555
C22 C21 1_555 1_555
H18 C22 1_555 1_555
C23 C22 1_555 1_555
H19 C23 1_555 1_555
C24 C17 1_555 1_555
C25 C17 1_555 1_555
H20 C25 1_555 1_555
H21 C25 1_555 1_555
H22 C25 1_555 1_555
C26 H23 1_555 1_555
H24 C26 1_555 1_555
H25 C26 1_555 1_555
C27 C28 1_555 1_555
C28 H26 1_555 1_555
C29 C28 1_555 1_555
H27 C29 1_555 1_555
C30 C29 1_555 1_555
H28 C30 1_555 1_555
C31 C30 1_555 1_555
H29 C31 1_555 1_555
C32 C27 1_555 1_555
H30 C32 1_555 1_555
N1 C3 1_555 1_555
N2 C19 1_555 1_555
O1 C2 1_555 1_555
O2 C18 1_555 1_555
S1 C1 1_555 1_555
S2 C17 1_555 1_555
C3 C8 1_555 1_555
C7 C8 1_555 1_555
C10 N1 1_555 1_555
C11 S1 1_555 1_555
C15 C16 1_555 1_555
C19 C24 1_555 1_555
C23 C24 1_555 1_555
C26 N2 1_555 1_555
C27 S2 1_555 1_555
C31 C32 1_555 1_555

#END
