
#######################################################################
#
#                 Cambridge Crystallographic Data Centre
#                                CCDC 
#
#######################################################################
#
# If this CIF has been generated from an entry in the Cambridge 
# Structural Database, then it will include bibliographic, chemical, 
# crystal, experimental, refinement or atomic coordinate data resulting 
# from the CCDC's data processing and validation procedures.
#
#######################################################################

data_ATEYII
_chemical_compound_source        'Penicillium paneum SD-44'
_chemical_name_common            'Penipanoid A'
_chemical_formula_moiety         'C16 H13 N3 O3'
_chemical_name_systematic        
'2-(5-(4-Hydroxybenzyl)-1H-1,2,4-triazol-1-yl)benzoic acid'
_symmetry_cell_setting           monoclinic
_symmetry_space_group_name_H-M   'P 21/n'
_symmetry_Int_Tables_number      14
_space_group_name_Hall           '-P 2yn'
loop_
_symmetry_equiv_pos_site_id
_symmetry_equiv_pos_as_xyz
1 x,y,z
2 1/2-x,1/2+y,1/2-z
3 -x,-y,-z
4 1/2+x,1/2-y,1/2+z
_cell_length_a                   15.595(3)
_cell_length_b                   11.656(2)
_cell_length_c                   17.393(4)
_cell_angle_alpha                90
_cell_angle_beta                 114.91(3)
_cell_angle_gamma                90
_cell_volume                     2867.49
_exptl_crystal_colour            colorless
_exptl_crystal_description       cube
_chemical_melting_point          '212-214 deg.C'
_cell_formula_units_Z            8
loop_
_atom_site_label
_atom_site_type_symbol
_atom_site_fract_x
_atom_site_fract_y
_atom_site_fract_z
N1 N 0.77993(7) 0.63610(9) 0.16266(6)
N2 N 0.87231(8) 0.66065(10) 0.18078(7)
N3 N 0.81196(8) 0.53659(9) 0.07241(7)
O1 O 0.59597(9) 0.92017(11) 0.08517(8)
O2 O 0.42531(10) 0.59634(13) -0.28607(8)
H1 H 0.406(2) 0.671(3) -0.299(2)
O3 O 0.71927(8) 0.83630(9) 0.07645(7)
H2 H 0.7067(19) 0.894(2) 0.0325(17)
C1 C 0.64825(10) 0.51051(14) 0.06432(9)
H3 H 0.6152 0.5405 0.0964
H4 H 0.6538 0.4281 0.0728
C2 C 0.58962(9) 0.53486(12) -0.02925(9)
C3 C 0.74502(9) 0.56143(10) 0.09817(8)
C4 C 0.57137(11) 0.44973(13) -0.08944(10)
H5 H 0.5969 0.3770 -0.0727
C5 C 0.51537(12) 0.47122(14) -0.17469(10)
H6 H 0.5027 0.4125 -0.2142
C6 C 0.68111(9) 0.78358(11) 0.19013(8)
C7 C 0.66046(9) 0.85287(11) 0.11141(8)
C8 C 0.47838(11) 0.57968(14) -0.20106(9)
C9 C 0.64338(10) 0.82350(12) 0.24521(9)
H7 H 0.6043 0.8877 0.2300
C10 C 0.49487(11) 0.66531(13) -0.14158(10)
H8 H 0.4693 0.7380 -0.1584
C11 C 0.66256(12) 0.77014(14) 0.32148(9)
H9 H 0.6369 0.7986 0.3572
C12 C 0.55001(11) 0.64195(13) -0.05642(10)
H10 H 0.5606 0.6998 -0.0166
C13 C 0.71977(14) 0.67459(15) 0.34474(10)
H11 H 0.7337 0.6392 0.3965
C14 C 0.88716(9) 0.59838(11) 0.12478(8)
H12 H 0.9451 0.5969 0.1214
C15 C 0.75658(13) 0.63138(14) 0.29077(10)
H13 H 0.7943 0.5660 0.3060
C16 C 0.73753(10) 0.68496(11) 0.21442(8)
N4 N 0.37682(8) 0.90673(10) 0.16631(8)
N5 N 0.30639(8) 1.01631(10) 0.04957(7)
N6 N 0.28044(7) 0.90984(8) 0.14031(7)
O4 O 0.22443(10) 0.73652(10) 0.02269(7)
O5 O 0.03160(8) 1.39876(9) 0.14844(8)
H14 H 0.0492(17) 1.390(2) 0.2050(16)
O6 O 0.18389(9) 0.57282(9) 0.06263(8)
H15 H 0.1895(15) 0.5424(18) 0.0135(14)
C17 C 0.13583(9) 0.99580(11) 0.02406(9)
H16 H 0.1019 0.9295 0.0305
H17 H 0.1199 1.0050 -0.0359
C18 C 0.10396(9) 1.10152(11) 0.05585(8)
C19 C 0.23965(9) 0.97464(10) 0.07034(8)
C20 C 0.09039(11) 1.09904(12) 0.12980(10)
H18 H 0.0978 1.0301 0.1589
C21 C 0.06613(11) 1.19690(13) 0.16110(10)
H19 H 0.0584 1.1935 0.2112
C22 C 0.19636(8) 0.73313(10) 0.14776(7)
C23 C 0.20279(9) 0.68305(11) 0.07068(8)
C24 C 0.05336(9) 1.29924(11) 0.11818(9)
C25 C 0.15166(9) 0.67184(11) 0.18952(9)
H20 H 0.1240 0.6014 0.1680
C26 C 0.06322(13) 1.30321(13) 0.04320(10)
H21 H 0.0527 1.3715 0.0129
C27 C 0.14775(10) 0.71399(12) 0.26219(9)
H22 H 0.1168 0.6724 0.2885
C28 C 0.08897(12) 1.20495(13) 0.01285(10)
H23 H 0.0963 1.2087 -0.0375
C29 C 0.18958(10) 0.81757(13) 0.29593(9)
H24 H 0.1886 0.8446 0.3459
C30 C 0.38768(10) 0.97164(12) 0.10901(9)
H25 H 0.4465 0.9858 0.1093
C31 C 0.23300(9) 0.88103(12) 0.25497(8)
H26 H 0.2605 0.9514 0.2770
C32 C 0.23558(8) 0.83994(10) 0.18112(8)
loop_
_geom_bond_atom_site_label_1
_geom_bond_atom_site_label_2
_geom_bond_site_symmetry_1
_geom_bond_site_symmetry_2
N1 N2 1_555 1_555
N2 C14 1_555 1_555
N3 C3 1_555 1_555
O1 C7 1_555 1_555
O2 H1 1_555 1_555
O3 H2 1_555 1_555
C1 H3 1_555 1_555
H4 C1 1_555 1_555
C2 C1 1_555 1_555
C3 N1 1_555 1_555
C4 C2 1_555 1_555
H5 C4 1_555 1_555
C5 C4 1_555 1_555
H6 C5 1_555 1_555
C6 C7 1_555 1_555
C7 O3 1_555 1_555
C8 O2 1_555 1_555
C9 C6 1_555 1_555
H7 C9 1_555 1_555
C10 C8 1_555 1_555
H8 C10 1_555 1_555
C11 C9 1_555 1_555
H9 C11 1_555 1_555
C12 C2 1_555 1_555
H10 C12 1_555 1_555
C13 C11 1_555 1_555
H11 C13 1_555 1_555
C14 N3 1_555 1_555
H12 C14 1_555 1_555
C15 C13 1_555 1_555
H13 C15 1_555 1_555
C16 N1 1_555 1_555
N4 N6 1_555 1_555
N5 C19 1_555 1_555
N6 C19 1_555 1_555
O4 C23 1_555 1_555
O5 H14 1_555 1_555
O6 H15 1_555 1_555
C17 H16 1_555 1_555
H17 C17 1_555 1_555
C18 C17 1_555 1_555
C19 C17 1_555 1_555
C20 C18 1_555 1_555
H18 C20 1_555 1_555
C21 C20 1_555 1_555
H19 C21 1_555 1_555
C22 C23 1_555 1_555
C23 O6 1_555 1_555
C24 O5 1_555 1_555
C25 C22 1_555 1_555
H20 C25 1_555 1_555
C26 C24 1_555 1_555
H21 C26 1_555 1_555
C27 C25 1_555 1_555
H22 C27 1_555 1_555
C28 C18 1_555 1_555
H23 C28 1_555 1_555
C29 C27 1_555 1_555
H24 C29 1_555 1_555
C30 N4 1_555 1_555
H25 C30 1_555 1_555
C31 C29 1_555 1_555
H26 C31 1_555 1_555
C32 N6 1_555 1_555
C1 C3 1_555 1_555
C5 C8 1_555 1_555
C6 C16 1_555 1_555
C10 C12 1_555 1_555
C15 C16 1_555 1_555
N5 C30 1_555 1_555
C21 C24 1_555 1_555
C22 C32 1_555 1_555
C26 C28 1_555 1_555
C31 C32 1_555 1_555

#END
