
#######################################################################
#
#                 Cambridge Crystallographic Data Centre
#                                CCDC 
#
#######################################################################
#
# If this CIF has been generated from an entry in the Cambridge 
# Structural Database, then it will include bibliographic, chemical, 
# crystal, experimental, refinement or atomic coordinate data resulting 
# from the CCDC's data processing and validation procedures.
#
#######################################################################

data_ATEZIJ
_chemical_formula_moiety         'C32 H31 B1'
_chemical_name_systematic        Dimesityl(2-(phenylethynyl)phenyl)borane
_symmetry_cell_setting           triclinic
_symmetry_space_group_name_H-M   'P -1'
_symmetry_Int_Tables_number      2
_space_group_name_Hall           '-P 1'
loop_
_symmetry_equiv_pos_site_id
_symmetry_equiv_pos_as_xyz
1 x,y,z
2 -x,-y,-z
_cell_length_a                   9.3686(14)
_cell_length_b                   12.1651(18)
_cell_length_c                   12.2768(18)
_cell_angle_alpha                65.465(2)
_cell_angle_beta                 81.937(2)
_cell_angle_gamma                81.928(2)
_cell_volume                     1255.01
_cell_formula_units_Z            2
loop_
_atom_site_label
_atom_site_type_symbol
_atom_site_fract_x
_atom_site_fract_y
_atom_site_fract_z
C1 C 0.7363(2) 0.06257(19) -0.14203(18)
H1 H 0.8046 0.0965 -0.2132
H2 H 0.6377 0.0787 -0.1665
H3 H 0.7604 -0.0252 -0.1020
C2 C 0.74602(18) 0.12069(14) -0.05655(14)
C3 C 0.63172(17) 0.12361(13) 0.02743(13)
H4 H 0.5453 0.0903 0.0290
C4 C 0.63933(15) 0.17377(12) 0.10973(12)
C5 C 0.76647(15) 0.22396(12) 0.10991(12)
C6 C 0.92576(15) 0.24833(12) 0.26750(12)
C7 C 1.00210(15) 0.13242(13) 0.31605(12)
C8 C 0.94566(16) 0.02705(13) 0.31956(13)
C9 C 0.90302(17) -0.06308(13) 0.32412(14)
C10 C 0.85494(16) -0.16943(13) 0.32325(13)
C11 C 0.73035(18) -0.16182(14) 0.26924(15)
H5 H 0.6747 -0.0860 0.2354
C12 C 0.68720(18) -0.26350(14) 0.26449(15)
H6 H 0.6023 -0.2571 0.2272
C13 C 0.76633(17) -0.37435(14) 0.31340(14)
H7 H 0.7362 -0.4442 0.3101
C14 C 0.31603(18) 0.59042(15) 0.34070(17)
H8 H 0.2561 0.5405 0.4115
H9 H 0.2558 0.6344 0.2737
H10 H 0.3594 0.6486 0.3594
C15 C 0.43433(15) 0.50999(13) 0.30607(14)
C16 C 0.49872(16) 0.54633(13) 0.18899(14)
H11 H 0.4665 0.6227 0.1300
C17 C 0.60932(15) 0.47385(12) 0.15551(12)
C18 C 0.67845(18) 0.52130(14) 0.02756(13)
H12 H 0.6329 0.6025 -0.0181
H13 H 0.6651 0.4666 -0.0097
H14 H 0.7821 0.5255 0.0276
C19 C 0.65863(15) 0.36018(12) 0.24145(12)
C20 C 0.98679(17) 0.34538(14) 0.27068(15)
H15 H 0.9354 0.4236 0.2421
C21 C 1.11977(18) 0.33083(16) 0.31425(16)
H16 H 1.1610 0.3992 0.3113
C22 C 1.19217(17) 0.21681(17) 0.36193(15)
H17 H 1.2826 0.2064 0.3933
C23 C 1.13380(17) 0.11789(15) 0.36422(14)
H18 H 1.1833 0.0393 0.3987
C24 C 0.93398(17) -0.28221(13) 0.37313(13)
H19 H 1.0185 -0.2896 0.4112
C25 C 0.88963(17) -0.38302(13) 0.36724(14)
H20 H 0.9446 -0.4592 0.4006
C26 C 0.86894(18) 0.17257(15) -0.05857(14)
H21 H 0.9478 0.1729 -0.1165
C27 C 0.88148(16) 0.22438(13) 0.02122(13)
C28 C 1.01886(18) 0.28377(18) 0.00540(16)
H22 H 1.0707 0.2946 -0.0729
H23 H 1.0805 0.2322 0.0694
H24 H 0.9943 0.3630 0.0095
C29 C 0.51056(16) 0.16509(15) 0.20109(15)
H25 H 0.4343 0.1279 0.1849
H26 H 0.4739 0.2466 0.1956
H27 H 0.5400 0.1152 0.2820
C30 C 0.59506(15) 0.32434(13) 0.36121(13)
C31 C 0.48419(15) 0.39860(13) 0.39085(13)
H28 H 0.4414 0.3724 0.4714
C32 C 0.64303(19) 0.20424(14) 0.45890(14)
H29 H 0.5689 0.1832 0.5273
H30 H 0.7344 0.2107 0.4852
H31 H 0.6569 0.1410 0.4276
B1 B 0.78147(17) 0.27562(14) 0.20553(14)
loop_
_geom_bond_atom_site_label_1
_geom_bond_atom_site_label_2
_geom_bond_site_symmetry_1
_geom_bond_site_symmetry_2
C1 H1 1_555 1_555
H2 C1 1_555 1_555
H3 C1 1_555 1_555
C2 C1 1_555 1_555
C3 C2 1_555 1_555
H4 C3 1_555 1_555
C4 C3 1_555 1_555
C5 C4 1_555 1_555
C6 C7 1_555 1_555
C7 C8 1_555 1_555
C8 C9 1_555 1_555
C9 C10 1_555 1_555
C10 C11 1_555 1_555
C11 H5 1_555 1_555
C12 C11 1_555 1_555
H6 C12 1_555 1_555
C13 C12 1_555 1_555
H7 C13 1_555 1_555
C14 H8 1_555 1_555
H9 C14 1_555 1_555
H10 C14 1_555 1_555
C15 C14 1_555 1_555
C16 C15 1_555 1_555
H11 C16 1_555 1_555
C17 C16 1_555 1_555
C18 C17 1_555 1_555
H12 C18 1_555 1_555
H13 C18 1_555 1_555
H14 C18 1_555 1_555
C19 C17 1_555 1_555
C20 C6 1_555 1_555
H15 C20 1_555 1_555
C21 C20 1_555 1_555
H16 C21 1_555 1_555
C22 C21 1_555 1_555
H17 C22 1_555 1_555
C23 C7 1_555 1_555
H18 C23 1_555 1_555
C24 C10 1_555 1_555
H19 C24 1_555 1_555
C25 C13 1_555 1_555
H20 C25 1_555 1_555
C26 C2 1_555 1_555
H21 C26 1_555 1_555
C27 C5 1_555 1_555
C28 C27 1_555 1_555
H22 C28 1_555 1_555
H23 C28 1_555 1_555
H24 C28 1_555 1_555
C29 C4 1_555 1_555
H25 C29 1_555 1_555
H26 C29 1_555 1_555
H27 C29 1_555 1_555
C30 C19 1_555 1_555
C31 C15 1_555 1_555
H28 C31 1_555 1_555
C32 C30 1_555 1_555
H29 C32 1_555 1_555
H30 C32 1_555 1_555
H31 C32 1_555 1_555
B1 C5 1_555 1_555
C6 B1 1_555 1_555
C19 B1 1_555 1_555
C22 C23 1_555 1_555
C24 C25 1_555 1_555
C26 C27 1_555 1_555
C30 C31 1_555 1_555

#END
