
#######################################################################
#
#                 Cambridge Crystallographic Data Centre
#                                CCDC 
#
#######################################################################
#
# If this CIF has been generated from an entry in the Cambridge 
# Structural Database, then it will include bibliographic, chemical, 
# crystal, experimental, refinement or atomic coordinate data resulting 
# from the CCDC's data processing and validation procedures.
#
#######################################################################

data_ATIQEB
_chemical_formula_moiety         'C22 H27 N1 O5'
_chemical_name_systematic        
'ethyl 1,3-dioxo-7-(pentan-3-yloxy)-2-phenyl-2,3,3a,4,7,7a-hexahydro-1H-isoindole-5-carboxylate'
_symmetry_cell_setting           triclinic
_symmetry_space_group_name_H-M   'P -1'
_symmetry_Int_Tables_number      2
_space_group_name_Hall           '-P 1'
loop_
_symmetry_equiv_pos_site_id
_symmetry_equiv_pos_as_xyz
1 x,y,z
2 -x,-y,-z
_cell_length_a                   8.0349(9)
_cell_length_b                   11.825(2)
_cell_length_c                   23.068(4)
_cell_angle_alpha                75.507(15)
_cell_angle_beta                 86.589(11)
_cell_angle_gamma                83.401(12)
_cell_volume                     2106.87
_exptl_crystal_description       plate
_cell_formula_units_Z            4
loop_
_atom_site_label
_atom_site_type_symbol
_atom_site_fract_x
_atom_site_fract_y
_atom_site_fract_z
O1 O 0.6544(5) 0.8756(5) 0.4997(2)
O2 O 1.0616(5) 0.9493(5) 0.3549(2)
O3 O 0.6293(5) 0.8202(4) 0.36547(18)
O4 O 0.6210(7) 1.1821(5) 0.1754(2)
O5 O 0.3600(5) 1.1398(5) 0.2042(2)
N1 N 0.8867(6) 0.8990(5) 0.4364(2)
C1 C 0.7156(7) 0.9170(6) 0.4514(3)
C2 C 0.6283(7) 0.9953(6) 0.3961(3)
H1 H 0.5581 1.0609 0.4068
C3 C 0.5236(7) 0.9249(5) 0.3698(3)
H2 H 0.4265 0.9039 0.3965
C4 C 0.4654(7) 0.9976(6) 0.3099(3)
H3 H 0.3547 0.9999 0.2996
C5 C 0.5710(7) 1.0579(6) 0.2717(3)
C6 C 0.7539(7) 1.0501(7) 0.2871(3)
H4 H 0.8026 1.1191 0.2635
H5 H 0.8144 0.9817 0.2767
C7 C 0.7738(7) 1.0413(6) 0.3537(3)
H6 H 0.7883 1.1199 0.3581
C8 C 0.9262(7) 0.9602(6) 0.3784(3)
C9 C 1.0035(7) 0.8180(6) 0.4753(3)
C10 C 1.1477(7) 0.8563(6) 0.4893(3)
H7 H 1.1682 0.9342 0.4742
C11 C 1.2624(8) 0.7780(8) 0.5259(3)
H8 H 1.3597 0.8034 0.5360
C12 C 1.2321(10) 0.6653(8) 0.5468(4)
H9 H 1.3099 0.6127 0.5709
C13 C 1.0862(10) 0.6265(7) 0.5330(4)
H10 H 1.0630 0.5496 0.5498
C14 C 0.9767(9) 0.7020(7) 0.4947(3)
H11 H 0.8848 0.6748 0.4818
C15 C 0.5545(9) 0.7348(6) 0.3451(3)
H12 H 0.5164 0.7734 0.3057
C16 C 0.395(2) 0.7025(14) 0.3793(9)
H13 H 0.3030 0.7551 0.3592
H14 H 0.4006 0.7164 0.4188
C17 C 0.356(3) 0.5784(15) 0.3867(11)
H15 H 0.2571 0.5651 0.4121
H16 H 0.4483 0.5249 0.4046
H17 H 0.3364 0.5659 0.3483
C18 C 0.7011(14) 0.6466(9) 0.3345(5)
H18 H 0.7366 0.6013 0.3738
H19 H 0.6555 0.5927 0.3157
C19 C 0.8497(17) 0.6808(13) 0.3008(8)
H20 H 0.9272 0.6125 0.3013
H21 H 0.9000 0.7338 0.3182
H22 H 0.8217 0.7191 0.2602
C20 C 0.5244(8) 1.1331(6) 0.2122(3)
C21 C 0.2970(9) 1.2140(7) 0.1483(3)
H23 H 0.3200 1.1734 0.1166
H24 H 0.3523 1.2854 0.1376
C22 C 0.1165(10) 1.2427(9) 0.1555(4)
H25 H 0.0737 1.2919 0.1186
H26 H 0.0947 1.2834 0.1867
H27 H 0.0625 1.1717 0.1658
O6 O 0.6082(6) 0.6287(5) -0.00146(19)
O7 O 0.9929(5) 0.5477(5) 0.1438(2)
O8 O 0.5018(5) 0.6781(4) 0.1307(2)
O9 O 0.5703(6) 0.3181(5) 0.3223(2)
O10 O 0.3066(6) 0.3573(5) 0.2943(2)
N2 N 0.8272(5) 0.6026(5) 0.0621(2)
C23 C 0.6677(7) 0.5839(6) 0.0463(3)
C24 C 0.5900(7) 0.5039(6) 0.1012(3)
H28 H 0.5503 0.4375 0.0897
C25 C 0.4447(7) 0.5712(5) 0.1270(3)
H29 H 0.3499 0.5875 0.1002
C26 C 0.3945(7) 0.4979(6) 0.1871(3)
H30 H 0.2813 0.4922 0.1969
C27 C 0.5067(7) 0.4416(6) 0.2262(3)
C28 C 0.6914(7) 0.4530(7) 0.2107(3)
H31 H 0.7576 0.3862 0.2352
H32 H 0.7212 0.5234 0.2202
C29 C 0.7344(6) 0.4592(5) 0.1444(3)
H33 H 0.7780 0.3802 0.1409
C30 C 0.8664(7) 0.5394(6) 0.1206(3)
C31 C 0.9309(6) 0.6849(6) 0.0254(2)
C32 C 1.0945(8) 0.6449(7) 0.0103(3)
H34 H 1.1345 0.5661 0.0235
C33 C 1.1956(8) 0.7245(8) -0.0246(3)
H35 H 1.3060 0.7003 -0.0339
C34 C 1.1319(11) 0.8394(8) -0.0454(4)
H36 H 1.1989 0.8928 -0.0695
C35 C 0.9719(11) 0.8756(7) -0.0309(4)
H37 H 0.9307 0.9539 -0.0451
C36 C 0.8695(9) 0.7983(7) 0.0043(3)
H38 H 0.7596 0.8238 0.0136
C37 C 0.3946(17) 0.7687(9) 0.1457(6)
C38 C 0.224(2) 0.7873(19) 0.1413(12)
H39 H 0.1799 0.7117 0.1548
H40 H 0.1993 0.8166 0.0992
C39 C 0.129(5) 0.868(3) 0.1740(15)
H41 H 0.0130 0.8778 0.1643
H42 H 0.1730 0.9430 0.1626
H43 H 0.1398 0.8362 0.2163
C40 C 0.484(3) 0.8691(19) 0.1549(10)
H44 H 0.4288 0.9196 0.1790
H45 H 0.6029 0.8511 0.1630
C41 C 0.487(4) 0.9260(19) 0.0907(11)
H46 H 0.5407 0.9966 0.0836
H47 H 0.3736 0.9449 0.0772
H48 H 0.5467 0.8737 0.0690
C42 C 0.4689(8) 0.3672(6) 0.2852(3)
C43 C 0.2525(11) 0.2860(9) 0.3508(4)
H49 H 0.2470 0.3300 0.3813
H50 H 0.3316 0.2167 0.3630
C44 C 0.0898(12) 0.2521(10) 0.3444(5)
H51 H 0.0516 0.2053 0.3820
H52 H 0.0966 0.2073 0.3147
H53 H 0.0124 0.3212 0.3321
C45? C 0.453(2) 0.6588(16) 0.3964(8)
H54? H 0.4001 0.7043 0.4233
H55? H 0.5229 0.5918 0.4190
C46? C 0.317(3) 0.619(2) 0.3591(10)
H56? H 0.2440 0.5702 0.3863
H57? H 0.3733 0.5757 0.3323
H58? H 0.2519 0.6872 0.3364
C47? C 0.276(3) 0.7628(19) 0.1955(11)
H59? H 0.3394 0.7587 0.2306
H60? H 0.2286 0.6886 0.2021
C48? C 0.133(6) 0.855(3) 0.1946(18)
H61? H 0.0737 0.8393 0.2327
H62? H 0.0589 0.8545 0.1636
H63? H 0.1748 0.9303 0.1870
C49? C 0.474(4) 0.880(2) 0.1157(14)
H64? H 0.5023 0.8958 0.0731
H65? H 0.4250 0.9509 0.1262
C50? C 0.643(4) 0.872(2) 0.1411(13)
H66? H 0.6960 0.9410 0.1220
H67? H 0.7105 0.8037 0.1343
H68? H 0.6307 0.8661 0.1834
H69? H 0.3127 0.7733 0.1163
loop_
_geom_bond_atom_site_label_1
_geom_bond_atom_site_label_2
_geom_bond_site_symmetry_1
_geom_bond_site_symmetry_2
O1 C1 1_555 1_555
O2 C8 1_555 1_555
O3 C3 1_555 1_555
O4 C20 1_555 1_555
O5 C20 1_555 1_555
N1 C1 1_555 1_555
C1 C2 1_555 1_555
C2 H1 1_555 1_555
C3 C2 1_555 1_555
H2 C3 1_555 1_555
C4 C3 1_555 1_555
H3 C4 1_555 1_555
C5 C4 1_555 1_555
C6 C5 1_555 1_555
H4 C6 1_555 1_555
H5 C6 1_555 1_555
C7 C2 1_555 1_555
H6 C7 1_555 1_555
C8 N1 1_555 1_555
C9 N1 1_555 1_555
C10 C9 1_555 1_555
H7 C10 1_555 1_555
C11 C10 1_555 1_555
H8 C11 1_555 1_555
C12 C11 1_555 1_555
H9 C12 1_555 1_555
C13 C12 1_555 1_555
H10 C13 1_555 1_555
C14 C9 1_555 1_555
H11 C14 1_555 1_555
C15 O3 1_555 1_555
H12 C15 1_555 1_555
C16 C15 1_555 1_555
H13 C16 1_555 1_555
H14 C16 1_555 1_555
C17 C16 1_555 1_555
H15 C17 1_555 1_555
H16 C17 1_555 1_555
H17 C17 1_555 1_555
C18 C15 1_555 1_555
H18 C18 1_555 1_555
H19 C18 1_555 1_555
C19 C18 1_555 1_555
H20 C19 1_555 1_555
H21 C19 1_555 1_555
H22 C19 1_555 1_555
C20 C5 1_555 1_555
C21 O5 1_555 1_555
H23 C21 1_555 1_555
H24 C21 1_555 1_555
C22 C21 1_555 1_555
H25 C22 1_555 1_555
H26 C22 1_555 1_555
H27 C22 1_555 1_555
O6 C23 1_555 1_555
O7 C30 1_555 1_555
O8 C25 1_555 1_555
O9 C42 1_555 1_555
O10 C42 1_555 1_555
N2 C23 1_555 1_555
C23 C24 1_555 1_555
C24 H28 1_555 1_555
C25 C24 1_555 1_555
H29 C25 1_555 1_555
C26 C25 1_555 1_555
H30 C26 1_555 1_555
C27 C26 1_555 1_555
C28 C27 1_555 1_555
H31 C28 1_555 1_555
H32 C28 1_555 1_555
C29 C24 1_555 1_555
H33 C29 1_555 1_555
C30 N2 1_555 1_555
C31 N2 1_555 1_555
C32 C31 1_555 1_555
H34 C32 1_555 1_555
C33 C32 1_555 1_555
H35 C33 1_555 1_555
C34 C33 1_555 1_555
H36 C34 1_555 1_555
C35 C34 1_555 1_555
H37 C35 1_555 1_555
C36 C31 1_555 1_555
H38 C36 1_555 1_555
C37 O8 1_555 1_555
C38 C37 1_555 1_555
H39 C38 1_555 1_555
H40 C38 1_555 1_555
C39 C38 1_555 1_555
H41 C39 1_555 1_555
H42 C39 1_555 1_555
H43 C39 1_555 1_555
C40 C37 1_555 1_555
H44 C40 1_555 1_555
H45 C40 1_555 1_555
C41 C40 1_555 1_555
H46 C41 1_555 1_555
H47 C41 1_555 1_555
H48 C41 1_555 1_555
C42 C27 1_555 1_555
C43 O10 1_555 1_555
H49 C43 1_555 1_555
H50 C43 1_555 1_555
C44 C43 1_555 1_555
H51 C44 1_555 1_555
H52 C44 1_555 1_555
H53 C44 1_555 1_555
C6 C7 1_555 1_555
C7 C8 1_555 1_555
C13 C14 1_555 1_555
C28 C29 1_555 1_555
C29 C30 1_555 1_555
C35 C36 1_555 1_555

#END
