
#######################################################################
#
#                 Cambridge Crystallographic Data Centre
#                                CCDC 
#
#######################################################################
#
# If this CIF has been generated from an entry in the Cambridge 
# Structural Database, then it will include bibliographic, chemical, 
# crystal, experimental, refinement or atomic coordinate data resulting 
# from the CCDC's data processing and validation procedures.
#
#######################################################################

data_ATOGOH
_chemical_compound_source        'isolated from Palhinhaea cernua'
_chemical_name_common            'Lycoposerramine M'
_chemical_formula_moiety         'C16 H25 N1 O2'
_chemical_name_systematic        11-hydroxy-15-methyllycopodan-5-one
_symmetry_cell_setting           orthorhombic
_symmetry_space_group_name_H-M   'P 21 21 21'
_symmetry_Int_Tables_number      19
_space_group_name_Hall           'P 2ac 2ab'
loop_
_symmetry_equiv_pos_site_id
_symmetry_equiv_pos_as_xyz
1 x,y,z
2 1/2+x,1/2-y,-z
3 -x,1/2+y,1/2-z
4 1/2-x,-y,1/2+z
_cell_length_a                   7.71600(10)
_cell_length_b                   11.1749(2)
_cell_length_c                   15.9841(3)
_cell_angle_alpha                90
_cell_angle_beta                 90
_cell_angle_gamma                90
_cell_volume                     1378.24
_exptl_crystal_colour            colorless
_exptl_crystal_description       block
_cell_formula_units_Z            4
loop_
_atom_site_label
_atom_site_type_symbol
_atom_site_fract_x
_atom_site_fract_y
_atom_site_fract_z
N1 N 0.80735(18) 0.62985(12) 0.24856(9)
O1 O 0.93739(17) 0.31497(11) 0.23627(8)
H1 H 1.0006 0.2541 0.2409
O2 O 0.55387(19) 0.34806(15) 0.44325(9)
C1 C 1.0402(2) 0.42053(16) 0.24799(12)
H2 H 1.1645 0.3957 0.2514
C2 C 1.0202(2) 0.50359(18) 0.17310(11)
H3 H 1.1097 0.5670 0.1758
H4 H 1.0386 0.4576 0.1209
C3 C 0.8421(2) 0.56087(17) 0.17101(11)
H5 H 0.8341 0.6149 0.1221
H6 H 0.7530 0.4978 0.1645
C4 C 0.8200(2) 0.55585(15) 0.32644(10)
C5 C 0.6667(2) 0.46571(15) 0.33140(10)
H7 H 0.6744 0.4156 0.2797
C6 C 0.6810(3) 0.37951(17) 0.40421(11)
C7 C 0.8580(3) 0.32858(17) 0.42153(12)
H8 H 0.8767 0.2592 0.3841
H9 H 0.8604 0.2987 0.4798
C8 C 1.0094(2) 0.41695(17) 0.40972(11)
H10 H 1.1199 0.3703 0.4084
C9 C 0.9956(2) 0.48961(16) 0.32778(11)
H11 H 1.0855 0.5537 0.3324
C10 C 0.8230(2) 0.64332(16) 0.40129(10)
H12 H 0.9130 0.7046 0.3907
H13 H 0.7099 0.6850 0.4039
C11 C 0.8585(3) 0.58618(17) 0.48676(11)
H14 H 0.7559 0.5363 0.5024
C12 C 1.0178(3) 0.50502(19) 0.48331(11)
H15 H 1.0267 0.4595 0.5363
H16 H 1.1232 0.5550 0.4779
C13 C 0.8790(3) 0.6855(2) 0.55212(12)
H17 H 0.7684 0.7276 0.5589
H18 H 0.9679 0.7422 0.5335
H19 H 0.9137 0.6503 0.6057
C14 C 0.6367(2) 0.68999(16) 0.24172(11)
H20 H 0.6308 0.7315 0.1871
H21 H 0.6287 0.7517 0.2860
C15 C 0.4798(2) 0.60665(17) 0.24925(12)
H22 H 0.3725 0.6551 0.2516
H23 H 0.4734 0.5549 0.1991
C16 C 0.4912(2) 0.52833(17) 0.32749(12)
H24 H 0.4754 0.5785 0.3780
H25 H 0.3975 0.4678 0.3265
loop_
_geom_bond_atom_site_label_1
_geom_bond_atom_site_label_2
_geom_bond_site_symmetry_1
_geom_bond_site_symmetry_2
N1 C3 1_555 1_555
O1 H1 1_555 1_555
O2 C6 1_555 1_555
C1 O1 1_555 1_555
H2 C1 1_555 1_555
C2 C1 1_555 1_555
H3 C2 1_555 1_555
H4 C2 1_555 1_555
C3 C2 1_555 1_555
H5 C3 1_555 1_555
H6 C3 1_555 1_555
C4 N1 1_555 1_555
C5 C4 1_555 1_555
H7 C5 1_555 1_555
C6 C5 1_555 1_555
C7 C6 1_555 1_555
H8 C7 1_555 1_555
H9 C7 1_555 1_555
C8 C7 1_555 1_555
H10 C8 1_555 1_555
C9 C1 1_555 1_555
H11 C9 1_555 1_555
C10 C4 1_555 1_555
H12 C10 1_555 1_555
H13 C10 1_555 1_555
C11 C10 1_555 1_555
H14 C11 1_555 1_555
C12 C8 1_555 1_555
H15 C12 1_555 1_555
H16 C12 1_555 1_555
C13 C11 1_555 1_555
H17 C13 1_555 1_555
H18 C13 1_555 1_555
H19 C13 1_555 1_555
C14 N1 1_555 1_555
H20 C14 1_555 1_555
H21 C14 1_555 1_555
C15 C14 1_555 1_555
H22 C15 1_555 1_555
H23 C15 1_555 1_555
C16 C5 1_555 1_555
H24 C16 1_555 1_555
H25 C16 1_555 1_555
C4 C9 1_555 1_555
C8 C9 1_555 1_555
C11 C12 1_555 1_555
C15 C16 1_555 1_555

#END
