
#######################################################################
#
#                 Cambridge Crystallographic Data Centre
#                                CCDC 
#
#######################################################################
#
# If this CIF has been generated from an entry in the Cambridge 
# Structural Database, then it will include bibliographic, chemical, 
# crystal, experimental, refinement or atomic coordinate data resulting 
# from the CCDC's data processing and validation procedures.
#
#######################################################################

data_ATOLUS
_chemical_formula_moiety         'C21 H18 B1 F2 N3 O1 S2'
_chemical_name_systematic        
1,2-bis(2,5-dimethyl-3-thienyl)-5,5-difluoro-pyrido[1,2-c]pyrrolo[2,1-f][1,3,5,2]triazaborinin-3(5H)-one
_symmetry_cell_setting           triclinic
_symmetry_space_group_name_H-M   'P -1'
_symmetry_Int_Tables_number      2
_space_group_name_Hall           '-P 1'
loop_
_symmetry_equiv_pos_site_id
_symmetry_equiv_pos_as_xyz
1 x,y,z
2 -x,-y,-z
_cell_length_a                   9.484(7)
_cell_length_b                   9.725(7)
_cell_length_c                   13.500(12)
_cell_angle_alpha                86.64(4)
_cell_angle_beta                 75.90(3)
_cell_angle_gamma                62.57(2)
_cell_volume                     1069.77
_exptl_crystal_colour            colorless
_exptl_crystal_description       Prism
_cell_formula_units_Z            2
loop_
_atom_site_label
_atom_site_type_symbol
_atom_site_fract_x
_atom_site_fract_y
_atom_site_fract_z
C1 C 1.1618(5) 0.6629(6) 0.5680(3)
H1 H 1.0512 0.6914 0.6054
H2 H 1.1839 0.7495 0.5702
H3 H 1.2362 0.5768 0.5982
C2 C 0.3397(4) 1.1214(4) 0.4064(2)
H4 H 0.2838 1.0595 0.4111
H5 H 0.2948 1.2069 0.3649
H6 H 0.3259 1.1603 0.4737
C3 C 1.4005(4) 0.4796(4) 0.1667(2)
H7 H 1.3412 0.4660 0.1229
H8 H 1.4969 0.3837 0.1670
H9 H 1.4317 0.5586 0.1418
C4 C 0.5196(3) 1.0234(3) 0.35855(19)
C5 C 1.3970(3) -0.1130(3) 0.0602(2)
H10 H 1.4865 -0.2091 0.0605
C6 C 0.8252(3) 0.5844(3) 0.17010(19)
C7 C 0.9872(3) 0.9176(3) 0.2526(2)
H11 H 1.0660 0.8138 0.2261
H12 H 1.0164 0.9450 0.3089
H13 H 0.9860 0.9884 0.1997
C8 C 1.2962(3) -0.0933(3) -0.0039(2)
H14 H 1.3199 -0.1739 -0.0491
C9 C 1.1617(3) 0.0465(3) 0.0004(2)
H15 H 1.0935 0.0599 -0.0424
C10 C 1.1838(4) 0.6174(3) 0.4584(2)
C11 C 0.7724(3) 0.8140(3) 0.28426(18)
C12 C 1.0719(3) 0.6116(3) 0.41465(18)
H16 H 0.9645 0.6394 0.4503
C13 C 0.8784(3) 0.6557(3) 0.24020(17)
C14 C 0.8210(3) 0.9263(3) 0.28825(19)
C15 C 0.5989(3) 0.8721(3) 0.3242(2)
H17 H 0.5459 0.8115 0.3264
C16 C 1.0728(2) 0.4066(2) 0.18663(16)
C17 C 1.0301(2) 0.5490(2) 0.24774(16)
C18 C 1.2270(3) 0.1527(2) 0.12396(16)
C19 C 1.3650(3) 0.0091(3) 0.1233(2)
H18 H 1.4342 -0.0032 0.1652
C20 C 1.2946(3) 0.5268(3) 0.2725(2)
C21 C 1.1337(3) 0.5592(2) 0.30929(17)
N1 N 1.2025(2) 0.2762(2) 0.18422(14)
B1 B 0.9466(3) 0.3103(3) 0.0790(2)
N2 N 1.1237(2) 0.1669(2) 0.06519(14)
N3 N 0.9496(2) 0.4335(2) 0.14096(15)
O1 O 0.6989(2) 0.6435(2) 0.14221(18)
F1 F 0.9185(2) 0.35307(18) -0.01571(11)
F2 F 0.83617(17) 0.26039(18) 0.13182(13)
S1 S 0.65471(9) 1.09964(7) 0.33956(6)
S2 S 1.36819(8) 0.55976(9) 0.36905(6)
loop_
_geom_bond_atom_site_label_1
_geom_bond_atom_site_label_2
_geom_bond_site_symmetry_1
_geom_bond_site_symmetry_2
C1 H1 1_555 1_555
H2 C1 1_555 1_555
H3 C1 1_555 1_555
C2 H4 1_555 1_555
H5 C2 1_555 1_555
H6 C2 1_555 1_555
C3 H7 1_555 1_555
H8 C3 1_555 1_555
H9 C3 1_555 1_555
C4 C2 1_555 1_555
C5 H10 1_555 1_555
C6 C13 1_555 1_555
C7 H11 1_555 1_555
H12 C7 1_555 1_555
H13 C7 1_555 1_555
C8 C5 1_555 1_555
H14 C8 1_555 1_555
C9 C8 1_555 1_555
H15 C9 1_555 1_555
C10 C1 1_555 1_555
C11 C13 1_555 1_555
C12 C10 1_555 1_555
H16 C12 1_555 1_555
C13 C17 1_555 1_555
C14 C7 1_555 1_555
C15 C4 1_555 1_555
H17 C15 1_555 1_555
C16 C17 1_555 1_555
C17 C21 1_555 1_555
C18 C19 1_555 1_555
C19 C5 1_555 1_555
H18 C19 1_555 1_555
C20 C3 1_555 1_555
C21 C12 1_555 1_555
N1 C16 1_555 1_555
B1 N2 1_555 1_555
N2 C9 1_555 1_555
N3 C6 1_555 1_555
O1 C6 1_555 1_555
F1 B1 1_555 1_555
F2 B1 1_555 1_555
S1 C4 1_555 1_555
S2 C10 1_555 1_555
C11 C14 1_555 1_555
C11 C15 1_555 1_555
C14 S1 1_555 1_555
C16 N3 1_555 1_555
C18 N1 1_555 1_555
C18 N2 1_555 1_555
C20 C21 1_555 1_555
C20 S2 1_555 1_555
B1 N3 1_555 1_555

#END
