
#######################################################################
#
#                 Cambridge Crystallographic Data Centre
#                                CCDC 
#
#######################################################################
#
# If this CIF has been generated from an entry in the Cambridge 
# Structural Database, then it will include bibliographic, chemical, 
# crystal, experimental, refinement or atomic coordinate data resulting 
# from the CCDC's data processing and validation procedures.
#
#######################################################################

data_ATOQAC
_chemical_formula_moiety         'C19 H19 N1 O3'
_chemical_name_systematic        
7-(N,N-Diethylamino)-3-(4-hydroxyphenyl)-2H-chromen-2-one
_symmetry_cell_setting           triclinic
_symmetry_space_group_name_H-M   'P -1'
_symmetry_Int_Tables_number      2
_space_group_name_Hall           '-P 1'
loop_
_symmetry_equiv_pos_site_id
_symmetry_equiv_pos_as_xyz
1 x,y,z
2 -x,-y,-z
_cell_length_a                   10.071(2)
_cell_length_b                   11.670(3)
_cell_length_c                   13.869(3)
_cell_angle_alpha                92.707(4)
_cell_angle_beta                 101.863(3)
_cell_angle_gamma                97.796(4)
_cell_volume                     1575.7
_cell_formula_units_Z            4
loop_
_atom_site_label
_atom_site_type_symbol
_atom_site_fract_x
_atom_site_fract_y
_atom_site_fract_z
C1 C 1.0918(2) 0.65304(18) 0.72648(15)
C2 C 0.9858(3) 0.5815(2) 0.75319(16)
H1 H 0.9913 0.5663 0.8190
C3 C 0.8723(2) 0.5330(2) 0.68264(16)
H2 H 0.8027 0.4842 0.7014
C4 C 0.8599(2) 0.55568(18) 0.58409(15)
C5 C 0.9697(2) 0.62540(19) 0.55922(16)
H3 H 0.9656 0.6398 0.4934
C6 C 1.0838(2) 0.67351(19) 0.62878(16)
H4 H 1.1554 0.7197 0.6099
C7 C 0.6793(2) 0.38856(19) 0.49906(16)
C8 C 0.7385(2) 0.51042(18) 0.50524(15)
C9 C 0.6856(2) 0.57737(19) 0.43426(17)
H5 H 0.7196 0.6562 0.4404
C10 C 0.5806(2) 0.53279(18) 0.35090(16)
C11 C 0.5257(2) 0.5961(2) 0.27264(17)
H6 H 0.5561 0.6753 0.2754
C12 C 0.4295(2) 0.5458(2) 0.19288(18)
H7 H 0.3963 0.5912 0.1427
C13 C 0.3791(2) 0.4258(2) 0.18480(17)
C14 C 0.4356(2) 0.3608(2) 0.26223(17)
H8 H 0.4080 0.2811 0.2590
C15 C 0.5309(2) 0.41473(19) 0.34216(15)
C16 C 0.2297(3) 0.2518(3) 0.0971(2)
H9 H 0.1388 0.2370 0.0545
H10 H 0.2219 0.2263 0.1615
C17 C 0.3204(4) 0.1821(4) 0.0559(3)
H11 H 0.3161 0.1967 -0.0121
H12 H 0.2909 0.1011 0.0605
H13 H 0.4131 0.2031 0.0927
C18 C 0.2157(3) 0.4440(3) 0.0279(2)
H14 H 0.2066 0.5192 0.0567
H15 H 0.1241 0.4047 -0.0018
C19 C 0.2950(4) 0.4624(4) -0.0518(2)
H16 H 0.3796 0.5128 -0.0257
H17 H 0.2419 0.4970 -0.1053
H18 H 0.3142 0.3891 -0.0756
N1 N 0.2777(2) 0.37634(19) 0.10715(15)
O1 O 1.20311(18) 0.70112(15) 0.79899(12)
H37 H 1.2522 0.7493 0.7757
O2 O 0.57853(15) 0.34624(12) 0.41642(11)
O3 O 0.70965(17) 0.31895(14) 0.55821(12)
C20 C 0.7671(2) 0.2184(2) 0.94375(17)
C21 C 0.7905(2) 0.2287(2) 0.84979(17)
H19 H 0.8697 0.2741 0.8409
C22 C 0.6974(2) 0.1724(2) 0.76886(16)
H20 H 0.7160 0.1793 0.7062
C23 C 0.5767(2) 0.10556(18) 0.77879(15)
C24 C 0.5541(2) 0.0972(2) 0.87482(16)
H21 H 0.4741 0.0533 0.8841
C25 C 0.6479(2) 0.1526(2) 0.95590(16)
H22 H 0.6307 0.1457 1.0189
C26 C 0.3835(2) -0.05236(18) 0.69390(16)
C27 C 0.4722(2) 0.05488(18) 0.69013(15)
C28 C 0.4532(2) 0.10874(19) 0.60408(15)
H23 H 0.5141 0.1745 0.5990
C29 C 0.3447(2) 0.06842(19) 0.52243(15)
C30 C 0.3115(3) 0.1250(2) 0.43499(17)
H24 H 0.3696 0.1905 0.4253
C31 C 0.1969(3) 0.0863(2) 0.36465(18)
H25 H 0.1786 0.1259 0.3079
C32 C 0.1040(3) -0.0131(2) 0.37536(17)
C33 C 0.1390(2) -0.0722(2) 0.46043(16)
H26 H 0.0840 -0.1399 0.4693
C34 C 0.2544(2) -0.02999(18) 0.53043(15)
C35 C -0.1093(3) -0.1515(2) 0.3183(2)
H27 H -0.1997 -0.1447 0.2802
H28 H -0.1150 -0.1521 0.3872
C36 C -0.0711(3) -0.2653(3) 0.2865(2)
H29 H -0.0727 -0.2685 0.2170
H30 H -0.1355 -0.3278 0.2999
H31 H 0.0194 -0.2723 0.3224
C37 C -0.0642(4) 0.0248(3) 0.2214(3)
H32 H -0.1637 0.0128 0.2041
H33 H -0.0327 0.1064 0.2414
C38 C -0.0108(5) -0.0089(4) 0.1393(3)
H34 H 0.0876 0.0058 0.1564
H35 H -0.0433 0.0348 0.0846
H36 H -0.0406 -0.0902 0.1211
N2 N -0.0139(3) -0.0494(2) 0.30654(16)
O4 O 0.86497(18) 0.27515(18) 1.02054(12)
H38 H 0.8357 0.2726 1.0715
O5 O 0.27914(16) -0.08950(13) 0.61437(11)
O6 O 0.39055(17) -0.11612(13) 0.76200(12)
loop_
_geom_bond_atom_site_label_1
_geom_bond_atom_site_label_2
_geom_bond_site_symmetry_1
_geom_bond_site_symmetry_2
C1 C2 1_555 1_555
C2 H1 1_555 1_555
C3 C2 1_555 1_555
H2 C3 1_555 1_555
C4 C3 1_555 1_555
C5 C4 1_555 1_555
H3 C5 1_555 1_555
C6 C1 1_555 1_555
H4 C6 1_555 1_555
C7 C8 1_555 1_555
C8 C4 1_555 1_555
C9 C8 1_555 1_555
H5 C9 1_555 1_555
C10 C9 1_555 1_555
C11 C10 1_555 1_555
H6 C11 1_555 1_555
C12 C11 1_555 1_555
H7 C12 1_555 1_555
C13 C12 1_555 1_555
C14 C13 1_555 1_555
H8 C14 1_555 1_555
C15 C10 1_555 1_555
C16 H9 1_555 1_555
H10 C16 1_555 1_555
C17 C16 1_555 1_555
H11 C17 1_555 1_555
H12 C17 1_555 1_555
H13 C17 1_555 1_555
C18 H14 1_555 1_555
H15 C18 1_555 1_555
C19 C18 1_555 1_555
H16 C19 1_555 1_555
H17 C19 1_555 1_555
H18 C19 1_555 1_555
C20 C21 1_555 1_555
C21 H19 1_555 1_555
C22 C21 1_555 1_555
H20 C22 1_555 1_555
C23 C22 1_555 1_555
C24 C23 1_555 1_555
H21 C24 1_555 1_555
C25 C20 1_555 1_555
H22 C25 1_555 1_555
C26 C27 1_555 1_555
C27 C23 1_555 1_555
C28 C27 1_555 1_555
H23 C28 1_555 1_555
C29 C28 1_555 1_555
C30 C29 1_555 1_555
H24 C30 1_555 1_555
C31 C30 1_555 1_555
H25 C31 1_555 1_555
C32 C31 1_555 1_555
C33 C32 1_555 1_555
H26 C33 1_555 1_555
C34 C29 1_555 1_555
C35 H27 1_555 1_555
H28 C35 1_555 1_555
C36 C35 1_555 1_555
H29 C36 1_555 1_555
H30 C36 1_555 1_555
H31 C36 1_555 1_555
C37 H32 1_555 1_555
H33 C37 1_555 1_555
C38 C37 1_555 1_555
H34 C38 1_555 1_555
H35 C38 1_555 1_555
H36 C38 1_555 1_555
N1 C13 1_555 1_555
N2 C32 1_555 1_555
O1 C1 1_555 1_555
H37 O1 1_555 1_555
O2 C7 1_555 1_555
O3 C7 1_555 1_555
O4 C20 1_555 1_555
H38 O4 1_555 1_555
O5 C26 1_555 1_555
O6 C26 1_555 1_555
C5 C6 1_555 1_555
C14 C15 1_555 1_555
C15 O2 1_555 1_555
C16 N1 1_555 1_555
C18 N1 1_555 1_555
C24 C25 1_555 1_555
C33 C34 1_555 1_555
C34 O5 1_555 1_555
C35 N2 1_555 1_555
C37 N2 1_555 1_555

#END
