
#######################################################################
#
#                 Cambridge Crystallographic Data Centre
#                                CCDC 
#
#######################################################################
#
# If this CIF has been generated from an entry in the Cambridge 
# Structural Database, then it will include bibliographic, chemical, 
# crystal, experimental, refinement or atomic coordinate data resulting 
# from the CCDC's data processing and validation procedures.
#
#######################################################################

data_ATOXUC
_chemical_formula_moiety         'C15 H11 Cl1 F1 N1 O5'
_chemical_name_systematic        
rac-1-(4-Fluorobenzoyl)-2-(4-chlorophenyl)-2-nitratoethanol
_symmetry_cell_setting           orthorhombic
_symmetry_space_group_name_H-M   'P c a 21'
_symmetry_Int_Tables_number      29
_space_group_name_Hall           'P 2c -2ac'
loop_
_symmetry_equiv_pos_site_id
_symmetry_equiv_pos_as_xyz
1 x,y,z
2 -x,-y,1/2+z
3 1/2+x,-y,z
4 1/2-x,y,1/2+z
_cell_length_a                   16.956(3)
_cell_length_b                   10.200(2)
_cell_length_c                   8.538(2)
_cell_angle_alpha                90
_cell_angle_beta                 90
_cell_angle_gamma                90
_cell_volume                     1476.66
_exptl_crystal_colour            colorless
_chemical_melting_point          107.6deg.C
_cell_formula_units_Z            4
_exptl_crystal_recrystallization_method 'ethyl acetate'
loop_
_atom_site_label
_atom_site_type_symbol
_atom_site_fract_x
_atom_site_fract_y
_atom_site_fract_z
F1 F 0.81497(19) 0.8182(4) -0.1128(5)
Cl1 Cl 0.12753(8) 0.88787(18) 0.2462(3)
O1 O 0.4293(2) 0.5044(3) 0.2197(6)
H1 H 0.4440 0.4300 0.1857
O2 O 0.5778(2) 0.4535(4) 0.2422(6)
O3 O 0.5429(2) 0.7875(4) 0.6283(5)
O4 O 0.5038(2) 0.9183(4) 0.4445(5)
O5 O 0.50002(19) 0.7019(3) 0.4121(4)
N1 N 0.5164(2) 0.8122(4) 0.5022(5)
C1 C 0.6168(3) 0.7327(5) -0.0045(6)
H2 H 0.5638 0.7626 -0.0216
C2 C 0.6792(3) 0.7982(6) -0.0751(6)
H3 H 0.6703 0.8714 -0.1435
C3 C 0.7537(3) 0.7540(5) -0.0471(7)
C4 C 0.7700(3) 0.6475(6) 0.0487(7)
H4 H 0.8230 0.6189 0.0685
C5 C 0.7071(3) 0.5843(5) 0.1167(7)
H5 H 0.7163 0.5089 0.1816
C6 C 0.6300(2) 0.6268(4) 0.0932(5)
C7 C 0.5657(3) 0.5528(5) 0.1707(6)
C8 C 0.4803(3) 0.6026(5) 0.1626(6)
H6 H 0.4677 0.6196 0.0549
C9 C 0.4683(2) 0.7297(4) 0.2569(5)
H7 H 0.4989 0.7987 0.2103
C10 C 0.3828(2) 0.7720(4) 0.2637(6)
C11 C 0.3275(3) 0.7044(4) 0.3511(7)
H8 H 0.3440 0.6317 0.4146
C12 C 0.2494(3) 0.7404(4) 0.3469(8)
H9 H 0.2112 0.6930 0.4075
C13 C 0.2271(3) 0.8433(5) 0.2554(6)
C14 C 0.2803(4) 0.9143(5) 0.1700(7)
H10 H 0.2631 0.9865 0.1066
C15 C 0.3591(3) 0.8779(5) 0.1742(6)
H11 H 0.3975 0.9273 0.1165
loop_
_geom_bond_atom_site_label_1
_geom_bond_atom_site_label_2
_geom_bond_site_symmetry_1
_geom_bond_site_symmetry_2
F1 C3 1_555 1_555
Cl1 C13 1_555 1_555
O1 H1 1_555 1_555
O2 C7 1_555 1_555
O3 N1 1_555 1_555
O4 N1 1_555 1_555
O5 N1 1_555 1_555
C1 H2 1_555 1_555
C2 C1 1_555 1_555
H3 C2 1_555 1_555
C3 C2 1_555 1_555
C4 C3 1_555 1_555
H4 C4 1_555 1_555
C5 C4 1_555 1_555
H5 C5 1_555 1_555
C6 C1 1_555 1_555
C7 C6 1_555 1_555
C8 O1 1_555 1_555
H6 C8 1_555 1_555
C9 O5 1_555 1_555
H7 C9 1_555 1_555
C10 C9 1_555 1_555
C11 C10 1_555 1_555
H8 C11 1_555 1_555
C12 C11 1_555 1_555
H9 C12 1_555 1_555
C13 C12 1_555 1_555
C14 C13 1_555 1_555
H10 C14 1_555 1_555
C15 C10 1_555 1_555
H11 C15 1_555 1_555
C5 C6 1_555 1_555
C7 C8 1_555 1_555
C8 C9 1_555 1_555
C14 C15 1_555 1_555

#END
