
#######################################################################
#
#                 Cambridge Crystallographic Data Centre
#                                CCDC 
#
#######################################################################
#
# If this CIF has been generated from an entry in the Cambridge 
# Structural Database, then it will include bibliographic, chemical, 
# crystal, experimental, refinement or atomic coordinate data resulting 
# from the CCDC's data processing and validation procedures.
#
#######################################################################

data_AVAGEL
_chemical_formula_moiety         'C24 H32 O3 S1'
_chemical_name_systematic        2-phenyl-12-(phenylsulfonyl)cyclododecanol
_symmetry_cell_setting           monoclinic
_symmetry_space_group_name_H-M   'P 21/n'
_symmetry_Int_Tables_number      14
_space_group_name_Hall           '-P 2yn'
loop_
_symmetry_equiv_pos_site_id
_symmetry_equiv_pos_as_xyz
1 x,y,z
2 1/2-x,1/2+y,1/2-z
3 -x,-y,-z
4 1/2+x,1/2-y,1/2+z
_cell_length_a                   5.6360(5)
_cell_length_b                   31.8166(18)
_cell_length_c                   11.5827(9)
_cell_angle_alpha                90
_cell_angle_beta                 92.557(9)
_cell_angle_gamma                90
_cell_volume                     2074.92
_cell_formula_units_Z            4
loop_
_atom_site_label
_atom_site_type_symbol
_atom_site_fract_x
_atom_site_fract_y
_atom_site_fract_z
S1 S 0.24777(7) 0.228497(13) 0.12663(3)
O1 O 0.5020(2) 0.23144(4) 0.14968(10)
O2 O 0.0973(2) 0.22634(4) 0.22378(10)
O3 O 0.5096(2) 0.14377(4) 0.14970(10)
H1 H 0.5559 0.1678 0.1706
C1 C 0.1603(3) 0.27287(5) 0.04335(14)
C2 C 0.1917(3) 0.18162(5) 0.04008(13)
H2 H 0.2991 0.1815 -0.0263
C3 C 0.2019(3) 0.07209(5) 0.18856(14)
C4 C 0.0144(3) 0.07472(5) 0.26308(15)
H3 H -0.1197 0.0916 0.2422
C5 C 0.2598(3) 0.14472(5) 0.12348(13)
H4 H 0.1789 0.1496 0.1974
C6 C 0.3081(3) 0.28744(5) -0.04105(14)
H5 H 0.4484 0.2725 -0.0582
C7 C -0.0684(3) 0.18297(5) -0.00616(14)
H6 H -0.1376 0.1545 0.0004
H7 H -0.1584 0.2021 0.0433
C8 C 0.3930(3) 0.04656(6) 0.22040(14)
H8 H 0.5224 0.0443 0.1709
C9 C 0.1951(3) 0.10000(5) 0.08126(14)
H9 H 0.0275 0.1007 0.0491
C10 C 0.0207(3) 0.05310(6) 0.36704(15)
H10 H -0.1072 0.0557 0.4173
C11 C 0.0922(3) 0.06940(6) -0.26466(15)
H11 H 0.2225 0.0900 -0.2521
H12 H 0.1414 0.0491 -0.3239
C12 C 0.3534(3) 0.08522(5) -0.01564(14)
H13 H 0.3521 0.1071 -0.0764
H14 H 0.5186 0.0827 0.0165
C13 C 0.2812(3) 0.04327(6) -0.07204(15)
H15 H 0.4139 0.0331 -0.1178
H16 H 0.2561 0.0224 -0.0104
C14 C -0.0466(3) 0.29377(5) 0.06864(15)
H17 H -0.1473 0.2831 0.1254
C15 C -0.1294(3) 0.09257(6) -0.31080(15)
H18 H -0.2616 0.0722 -0.3201
H19 H -0.0988 0.1040 -0.3882
C16 C -0.1012(3) 0.19768(5) -0.13220(14)
H20 H -0.2699 0.2054 -0.1477
H21 H -0.0047 0.2233 -0.1424
C17 C -0.1043(3) 0.33058(6) 0.00973(15)
H22 H -0.2448 0.3454 0.0266
C18 C -0.2068(3) 0.12859(6) -0.23325(15)
H23 H -0.3606 0.1396 -0.2647
H24 H -0.2333 0.1171 -0.1554
C19 C 0.2125(3) 0.02777(6) 0.39786(15)
H25 H 0.2172 0.0129 0.4691
C20 C 0.0574(3) 0.04548(6) -0.15059(15)
H26 H -0.0696 0.0595 -0.1084
H27 H 0.0037 0.0165 -0.1690
C21 C 0.3980(3) 0.02426(6) 0.32381(15)
H28 H 0.5291 0.0065 0.3438
C22 C 0.2466(3) 0.32411(6) -0.09954(15)
H29 H 0.3448 0.3344 -0.1577
C23 C 0.0423(3) 0.34580(6) -0.07354(15)
H30 H 0.0028 0.3712 -0.1130
C24 C -0.0314(3) 0.16501(6) -0.22096(14)
H31 H -0.0198 0.1789 -0.2970
H32 H 0.1275 0.1537 -0.1981
loop_
_geom_bond_atom_site_label_1
_geom_bond_atom_site_label_2
_geom_bond_site_symmetry_1
_geom_bond_site_symmetry_2
S1 O1 1_555 1_555
O2 S1 1_555 1_555
O3 H1 1_555 1_555
C1 S1 1_555 1_555
C2 S1 1_555 1_555
H2 C2 1_555 1_555
C3 C4 1_555 1_555
C4 H3 1_555 1_555
C5 O3 1_555 1_555
H4 C5 1_555 1_555
C6 C1 1_555 1_555
H5 C6 1_555 1_555
C7 C2 1_555 1_555
H6 C7 1_555 1_555
H7 C7 1_555 1_555
C8 C3 1_555 1_555
H8 C8 1_555 1_555
C9 C3 1_555 1_555
H9 C9 1_555 1_555
C10 C4 1_555 1_555
H10 C10 1_555 1_555
C11 H11 1_555 1_555
H12 C11 1_555 1_555
C12 C9 1_555 1_555
H13 C12 1_555 1_555
H14 C12 1_555 1_555
C13 C12 1_555 1_555
H15 C13 1_555 1_555
H16 C13 1_555 1_555
C14 C1 1_555 1_555
H17 C14 1_555 1_555
C15 C11 1_555 1_555
H18 C15 1_555 1_555
H19 C15 1_555 1_555
C16 C7 1_555 1_555
H20 C16 1_555 1_555
H21 C16 1_555 1_555
C17 C14 1_555 1_555
H22 C17 1_555 1_555
C18 C15 1_555 1_555
H23 C18 1_555 1_555
H24 C18 1_555 1_555
C19 C10 1_555 1_555
H25 C19 1_555 1_555
C20 C11 1_555 1_555
H26 C20 1_555 1_555
H27 C20 1_555 1_555
C21 C8 1_555 1_555
H28 C21 1_555 1_555
C22 C6 1_555 1_555
H29 C22 1_555 1_555
C23 C17 1_555 1_555
H30 C23 1_555 1_555
C24 C16 1_555 1_555
H31 C24 1_555 1_555
H32 C24 1_555 1_555
C2 C5 1_555 1_555
C5 C9 1_555 1_555
C13 C20 1_555 1_555
C18 C24 1_555 1_555
C19 C21 1_555 1_555
C22 C23 1_555 1_555

#END
