
#######################################################################
#
#                 Cambridge Crystallographic Data Centre
#                                CCDC 
#
#######################################################################
#
# If this CIF has been generated from an entry in the Cambridge 
# Structural Database, then it will include bibliographic, chemical, 
# crystal, experimental, refinement or atomic coordinate data resulting 
# from the CCDC's data processing and validation procedures.
#
#######################################################################

data_AVAWEB
_chemical_formula_moiety         'C20 H22 N4 O3'
_chemical_name_systematic        
1,3,7-triethyl-5-methyl-5,7-dihydro-1H-pyrimido[4',5':5,6]pyrido[3,4-b]indole-2,4,6(3H)-trione
_symmetry_cell_setting           triclinic
_symmetry_space_group_name_H-M   'P -1'
_symmetry_Int_Tables_number      2
_space_group_name_Hall           '-P 1'
loop_
_symmetry_equiv_pos_site_id
_symmetry_equiv_pos_as_xyz
1 x,y,z
2 -x,-y,-z
_cell_length_a                   8.4541(9)
_cell_length_b                   9.3669(17)
_cell_length_c                   11.955(2)
_cell_angle_alpha                95.575(14)
_cell_angle_beta                 105.524(13)
_cell_angle_gamma                92.072(12)
_cell_volume                     905.94
_exptl_crystal_colour            colorless
_exptl_crystal_description       needle
_cell_formula_units_Z            2
loop_
_atom_site_label
_atom_site_type_symbol
_atom_site_fract_x
_atom_site_fract_y
_atom_site_fract_z
N1 N -0.3126(3) 0.3564(2) 0.5214(2)
N2 N -0.0142(3) 0.3779(2) 0.80990(19)
N3 N 0.2578(4) 0.7120(3) 0.8935(2)
N4 N 0.0296(3) 0.7505(2) 0.73950(18)
O1 O -0.1994(3) 0.1910(2) 0.7204(2)
O2 O 0.2683(3) 0.5164(2) 0.9893(2)
O3 O 0.2161(4) 0.9340(2) 0.8316(2)
C1 C -0.4121(4) 0.2199(3) 0.4881(3)
H1 H -0.5154 0.2348 0.4324
H2 H -0.4369 0.1881 0.5567
C2 C -0.3269(6) 0.1047(4) 0.4350(4)
H3 H -0.2932 0.1390 0.3713
H4 H -0.4010 0.0210 0.4067
H5 H -0.2321 0.0805 0.4930
C3 C -0.3170(3) 0.4638(3) 0.4496(2)
C4 C -0.4113(4) 0.4657(3) 0.3346(3)
H6 H -0.4861 0.3897 0.2966
C5 C -0.3896(4) 0.5837(4) 0.2795(3)
H7 H -0.4534 0.5890 0.2036
C6 C -0.2741(4) 0.6959(3) 0.3350(2)
H8 H -0.2596 0.7730 0.2944
C7 C -0.1813(3) 0.6949(3) 0.4482(2)
H9 H -0.1036 0.7698 0.4839
C8 C -0.2054(3) 0.5790(2) 0.5095(2)
C9 C -0.1353(3) 0.5396(2) 0.6252(2)
C10 C -0.2007(3) 0.4014(2) 0.6260(2)
C11 C -0.1436(3) 0.3148(3) 0.7203(2)
C12 C 0.0527(5) 0.2842(3) 0.9017(3)
H10 H 0.1580 0.2547 0.8956
H11 H -0.0213 0.2009 0.8919
H12 H 0.0649 0.3360 0.9771
C13 C 0.0485(3) 0.5202(2) 0.8154(2)
C14 C -0.0178(3) 0.6034(2) 0.7280(2)
C15 C -0.1031(4) 0.8525(3) 0.7128(2)
H13 H -0.1840 0.8160 0.6405
H14 H -0.0565 0.9446 0.7020
C16 C -0.1859(5) 0.8728(3) 0.8090(3)
H15 H -0.2722 0.9372 0.7886
H16 H -0.1069 0.9124 0.8800
H17 H -0.2317 0.7816 0.8201
C17 C 0.1702(4) 0.8070(3) 0.8215(3)
C18 C 0.1939(4) 0.5773(3) 0.9076(3)
C19 C 0.4454(6) 0.7639(4) 0.9666(3)
H18 H 0.5122 0.6833 0.9869
H19 H 0.4977 0.8266 0.9252
C20 C 0.4121(7) 0.8367(5) 1.0628(5)
H20 H 0.3409 0.9120 1.0384
H21 H 0.5131 0.8775 1.1164
H22 H 0.3591 0.7713 1.1005
loop_
_geom_bond_atom_site_label_1
_geom_bond_atom_site_label_2
_geom_bond_site_symmetry_1
_geom_bond_site_symmetry_2
N1 C1 1_555 1_555
N2 C11 1_555 1_555
N3 C17 1_555 1_555
N4 C14 1_555 1_555
O1 C11 1_555 1_555
O2 C18 1_555 1_555
O3 C17 1_555 1_555
C1 H1 1_555 1_555
H2 C1 1_555 1_555
C2 C1 1_555 1_555
H3 C2 1_555 1_555
H4 C2 1_555 1_555
H5 C2 1_555 1_555
C3 N1 1_555 1_555
C4 C3 1_555 1_555
H6 C4 1_555 1_555
C5 C4 1_555 1_555
H7 C5 1_555 1_555
C6 C5 1_555 1_555
H8 C6 1_555 1_555
C7 C6 1_555 1_555
H9 C7 1_555 1_555
C8 C3 1_555 1_555
C9 C8 1_555 1_555
C10 N1 1_555 1_555
C11 C10 1_555 1_555
C12 N2 1_555 1_555
H10 C12 1_555 1_555
H11 C12 1_555 1_555
H12 C12 1_555 1_555
C13 N2 1_555 1_555
C14 C9 1_555 1_555
C15 N4 1_555 1_555
H13 C15 1_555 1_555
H14 C15 1_555 1_555
C16 C15 1_555 1_555
H15 C16 1_555 1_555
H16 C16 1_555 1_555
H17 C16 1_555 1_555
C17 N4 1_555 1_555
C18 N3 1_555 1_555
C19 N3 1_555 1_555
H18 C19 1_555 1_555
H19 C19 1_555 1_555
C20 C19 1_555 1_555
H20 C20 1_555 1_555
H21 C20 1_555 1_555
H22 C20 1_555 1_555
C7 C8 1_555 1_555
C9 C10 1_555 1_555
C13 C14 1_555 1_555
C13 C18 1_555 1_555

#END
