
#######################################################################
#
#                 Cambridge Crystallographic Data Centre
#                                CCDC 
#
#######################################################################
#
# If this CIF has been generated from an entry in the Cambridge 
# Structural Database, then it will include bibliographic, chemical, 
# crystal, experimental, refinement or atomic coordinate data resulting 
# from the CCDC's data processing and validation procedures.
#
#######################################################################

data_AVIBIS
_chemical_formula_moiety         'C54 H30 S9,4(C1 S2),C70'
_chemical_name_systematic        
"2,3,5,6,8,9-hexakis(phenylsulfanyl)bisthieno[2',3',4',5':4,5;2'',3'',4'',5'':8,9]triphenyleno[1,12-bcd]thiophene C70-fullerene carbon disulfide solvate"
_symmetry_cell_setting           monoclinic
_symmetry_space_group_name_H-M   'P 21/n'
_symmetry_Int_Tables_number      14
_space_group_name_Hall           '-P 2yn'
loop_
_symmetry_equiv_pos_site_id
_symmetry_equiv_pos_as_xyz
1 x,y,z
2 1/2-x,1/2+y,1/2-z
3 -x,-y,-z
4 1/2+x,1/2-y,1/2+z
_cell_length_a                   15.0509(5)
_cell_length_b                   25.8496(9)
_cell_length_c                   22.1103(8)
_cell_angle_alpha                90
_cell_angle_beta                 92.410(3)
_cell_angle_gamma                90
_cell_volume                     8594.62
_cell_formula_units_Z            4
loop_
_atom_site_label
_atom_site_type_symbol
_atom_site_fract_x
_atom_site_fract_y
_atom_site_fract_z
S1 S 0.29349(10) 0.26612(7) 0.37344(8)
S2 S 0.31942(11) 0.40417(7) 0.35082(8)
S3 S 0.49139(12) 0.43617(7) 0.29135(8)
S4 S 0.63561(10) 0.34063(7) 0.25339(8)
S5 S 0.2835(11) 0.1517(5) 0.4643(6)
S6 S 0.61109(14) 0.11631(8) 0.34652(12)
S7 S 0.44955(19) 0.07422(9) 0.43998(11)
C1 C 0.3643(4) 0.3009(2) 0.3250(3)
C2 C 0.4876(4) 0.1817(3) 0.3133(3)
C3 C 0.3814(4) 0.3546(2) 0.3182(3)
C4 C 0.5216(4) 0.3342(2) 0.2693(3)
C5 C 0.4988(4) 0.2828(2) 0.2715(3)
C6 C 0.4224(4) 0.2667(2) 0.2996(3)
C7 C 0.4165(4) 0.2150(2) 0.3210(3)
C8 C 0.4594(4) 0.3703(2) 0.2900(3)
C9 C 0.3553(4) 0.2081(2) 0.3636(3)
C10 C 0.1646(3) 0.3544(2) 0.3092(2)
H1 H 0.1888 0.3565 0.2703
C11 C 0.2144(4) 0.3706(3) 0.3601(3)
C12 C 0.1789(6) 0.3673(4) 0.4170(3)
H2 H 0.2129 0.3784 0.4517
C13 C 0.0936(6) 0.3479(4) 0.4230(2)
H3 H 0.0693 0.3457 0.4619
C14 C 0.0438(4) 0.3317(4) 0.3721(3)
H4 H -0.0145 0.3185 0.3762
C15 C 0.0793(3) 0.3349(3) 0.3152(2)
H5 H 0.0452 0.3239 0.2804
C16 C 0.5710(4) 0.2482(3) 0.2651(3)
C17 C 0.6533(4) 0.2724(3) 0.2583(3)
C18 C 0.5652(4) 0.1977(3) 0.2852(3)
C19 C 0.3612(5) 0.1615(3) 0.3984(4)
C20 C 0.4354(5) 0.1282(3) 0.3904(4)
C21 C 0.0606(12) 0.1894(6) 0.3593(6)
H6 H 0.0317 0.1792 0.3222
C22 C 0.0238(8) 0.2280(5) 0.3942(6)
H7 H -0.0303 0.2441 0.3810
C23 C 0.0661(8) 0.2430(5) 0.4485(6)
H8 H 0.0409 0.2693 0.4724
C24 C 0.1452(9) 0.2194(5) 0.4679(6)
H9 H 0.1741 0.2296 0.5051
C25 C 0.1821(9) 0.1808(6) 0.4331(9)
C26 C 0.1398(12) 0.1658(6) 0.3788(8)
H10 H 0.1649 0.1395 0.3549
C27 C 0.5012(5) 0.1396(3) 0.3503(4)
C28 C 0.6397(5) 0.1692(3) 0.3008(4)
C29 C 0.4303(4) 0.02369(18) 0.3904(3)
C30 C 0.4745(4) -0.0225(2) 0.4033(3)
H11 H 0.5128 -0.0252 0.4385
C31 C 0.4626(5) -0.06469(18) 0.3649(4)
H12 H 0.4928 -0.0962 0.3738
C32 C 0.4066(6) -0.0608(2) 0.3135(3)
H13 H 0.3985 -0.0896 0.2873
C33 C 0.3624(5) -0.0146(3) 0.3006(3)
H14 H 0.3241 -0.0119 0.2654
C34 C 0.3743(5) 0.0276(2) 0.3390(3)
H15 H 0.3441 0.0592 0.3301
C35 C 0.7303(4) 0.2418(4) 0.2684(4)
C36 C 0.7230(5) 0.1905(4) 0.2891(4)
C37 C 0.8457(12) 0.3722(7) 0.2494(5)
H16 H 0.8640 0.3690 0.2909
C38 C 0.8384(10) 0.4208(6) 0.2229(8)
H17 H 0.8519 0.4509 0.2463
C39 C 0.8116(10) 0.4255(6) 0.1622(8)
H18 H 0.8066 0.4587 0.1441
C40 C 0.7919(11) 0.3815(7) 0.1281(6)
H19 H 0.7735 0.3847 0.0866
C41 C 0.7991(11) 0.3328(6) 0.1546(6)
H20 H 0.7857 0.3028 0.1313
C42 C 0.8260(13) 0.3282(6) 0.2153(6)
S8 S 0.8395(7) 0.2716(6) 0.2543(5)
C43 C 0.7969(9) 0.0009(4) 0.2873(7)
H21 H 0.7957 -0.0300 0.3104
C44 C 0.8003(9) 0.0486(5) 0.3164(5)
H22 H 0.8015 0.0502 0.3593
C45 C 0.8021(10) 0.0939(4) 0.2826(5)
C46 C 0.8004(11) 0.0916(4) 0.2198(5)
H23 H 0.8016 0.1225 0.1967
C47 C 0.7969(11) 0.0439(5) 0.1907(5)
H24 H 0.7958 0.0423 0.1477
C48 C 0.7952(10) -0.0014(4) 0.2245(7)
H25 H 0.7928 -0.0340 0.2046
S9 S 0.8159(8) 0.1527(5) 0.3231(4)
C49 C 0.4681(4) 0.50988(18) 0.2083(2)
H26 H 0.5115 0.5279 0.2326
C50 C 0.4308(5) 0.53306(17) 0.1565(3)
H27 H 0.4487 0.5669 0.1454
C51 C 0.3673(5) 0.5067(3) 0.1209(3)
H28 H 0.3418 0.5226 0.0855
C52 C 0.3411(5) 0.4573(3) 0.1371(3)
H29 H 0.2977 0.4393 0.1128
C53 C 0.3784(4) 0.43409(18) 0.1889(3)
H30 H 0.3605 0.4003 0.2000
C54 C 0.4419(3) 0.46039(18) 0.2245(2)
S10 S 0.5534(2) 0.04809(16) 0.21762(19)
S11 S 0.5819(4) 0.0240(3) 0.0694(3)
C55 C 0.5626(13) 0.0286(10) 0.1403(11)
S12 S 0.5385(3) 0.3472(2) 0.10473(16)
S13 S 0.4598(5) 0.3929(3) -0.0177(3)
C56 C 0.5000(12) 0.3744(9) 0.0444(9)
S14 S 0.8858(7) 0.0851(4) 0.4722(4)
C57 C 0.7956(16) 0.0587(11) 0.4762(14)
S15 S 0.7030(3) 0.03649(15) 0.4819(2)
C58 C -0.0715(10) 0.1741(8) 0.0410(10)
C59 C 0.4015(12) 0.2245(6) 0.0709(7)
C60 C 0.3757(16) 0.2389(9) 0.1296(6)
C61 C 0.3230(13) 0.2843(9) 0.1239(11)
C62 C 0.3163(14) 0.2980(7) 0.0616(13)
C63 C 0.3648(11) 0.2610(8) 0.0289(7)
C64 C -0.0619(17) 0.2256(11) 0.0656(13)
C65 C 0.4124(18) 0.1733(10) 0.0533(10)
C66 C -0.0076(11) 0.0774(8) 0.0231(9)
C67 C -0.0064(13) 0.1124(8) -0.0264(10)
C68 C 0.0689(13) 0.1006(7) -0.0605(7)
C69 C 0.1141(12) 0.0583(8) -0.0322(10)
C70 C 0.0668(14) 0.0440(7) 0.0195(10)
C71 C -0.0051(14) 0.2545(9) -0.0354(11)
C72 C 0.2606(19) 0.2745(12) -0.0560(12)
C73 C 0.0195(17) 0.3056(10) 0.0524(13)
C74 C 0.2564(19) 0.1176(10) 0.2164(9)
C75 C 0.104(3) 0.3002(10) 0.1490(15)
C76 C 0.239(2) 0.1734(11) 0.2249(10)
C77 C 0.2531(14) 0.0351(7) 0.0214(9)
C78 C 0.1203(12) 0.2369(8) -0.0922(6)
C79 C 0.0803(17) 0.2767(10) -0.0615(11)
C80 C 0.3777(13) 0.1586(8) -0.0081(10)
C81 C 0.1155(7) 0.0240(5) 0.0759(4)
C82 C 0.2094(7) 0.0187(5) 0.0752(4)
C83 C 0.2457(4) 0.0342(3) 0.1327(4)
C84 C 0.1742(5) 0.0490(3) 0.1689(2)
C85 C -0.026(3) 0.2461(17) 0.1219(19)
C86 C 0.0817(17) 0.2164(10) 0.2029(10)
C87 C 0.223(2) 0.3075(13) -0.0276(15)
C88 C 0.1194(18) 0.1373(10) -0.0871(8)
C89 C 0.2575(18) 0.0979(10) -0.0572(10)
C90 C 0.272(2) 0.2140(16) 0.2080(14)
C91 C 0.127(3) 0.2631(18) 0.1919(19)
C92 C 0.215(2) 0.1414(15) -0.0867(13)
C93 C 0.1200(19) 0.3119(10) -0.0275(14)
C94 C 0.3548(15) 0.1971(10) 0.1676(10)
C95 C 0.259(2) 0.2954(12) 0.1493(16)
C96 C 0.100(3) 0.3274(10) 0.0304(15)
C97 C 0.2432(17) 0.3240(9) 0.0285(14)
C98 C -0.010(2) 0.2018(11) -0.0567(12)
C99 C 0.1266(19) 0.1710(11) 0.2241(11)
C100 C 0.2580(17) 0.1856(10) -0.0855(9)
C101 C 0.0787(8) 0.1888(5) -0.0890(4)
C102 C 0.228(3) 0.2593(15) 0.1944(13)
C103 C 0.175(3) 0.3325(16) 0.068(2)
C104 C -0.001(2) 0.2095(11) 0.1660(12)
C105 C 0.176(2) 0.3207(13) 0.127(2)
C106 C 0.3409(17) 0.1082(9) -0.0196(13)
C107 C -0.0625(16) 0.1378(11) 0.0928(12)
C108 C 0.0223(17) 0.1158(11) 0.1763(12)
C109 C -0.0281(15) 0.1541(9) 0.1484(11)
C110 C 0.024(2) 0.2922(14) 0.1104(19)
C111 C 0.109(2) 0.1281(11) 0.2121(10)
C112 C 0.175(2) 0.0895(11) 0.2095(15)
C113 C 0.2109(17) 0.0554(8) -0.0320(9)
C114 C 0.334(2) 0.0640(15) 0.0298(14)
C115 C -0.0443(18) 0.1665(11) -0.0180(11)
C116 C 0.4083(9) 0.1355(5) 0.1047(6)
C117 C 0.3752(11) 0.1496(5) 0.1616(7)
C118 C 0.3224(12) 0.1081(8) 0.1820(6)
C119 C 0.3228(16) 0.0683(6) 0.1377(9)
C120 C 0.3759(14) 0.0852(6) 0.0899(7)
C121 C 0.3353(18) 0.2457(14) -0.0273(13)
C122 C 0.212(3) 0.2330(15) -0.0881(16)
C123 C 0.340(2) 0.1981(14) -0.0458(12)
C124 C -0.0216(6) 0.0895(4) 0.0842(5)
C125 C 0.0938(4) 0.0427(3) 0.1338(4)
C126 C 0.0303(7) 0.0797(5) 0.1439(5)
C127 C -0.0297(19) 0.2672(12) 0.0199(14)
S16? S 0.8261(8) 0.1606(6) 0.3016(4)
S17? S 0.8398(8) 0.2612(5) 0.2746(4)
H31? H 0.1945 0.3466 0.2733
H32? H 0.0545 0.3075 0.2914
C128? C 0.1659(10) 0.4022(7) 0.4038(8)
H33? H 0.1976 0.4194 0.4360
C129? C 0.0330(14) 0.3612(10) 0.3616(10)
H34? H -0.0296 0.3565 0.3627
C130? C 0.0756(12) 0.3940(9) 0.4066(8)
H35? H 0.0425 0.4096 0.4374
C131? C 0.5675(17) 0.3962(10) 0.0845(12)
C132? C 0.802(2) 0.0092(11) 0.4503(16)
S18? S 0.6047(9) 0.4400(5) 0.0596(6)
S19? S 0.8834(9) -0.0160(4) 0.4344(6)
S20? S 0.8312(11) -0.0389(6) 0.4588(6)
C133? C 0.761(3) -0.0025(15) 0.4779(18)
C134? C 0.8615(13) 0.3609(6) 0.2421(5)
H36? H 0.8827 0.3654 0.2829
C135? C 0.8631(9) 0.4021(5) 0.2018(7)
H37? H 0.8854 0.4348 0.2149
C136? C 0.8322(9) 0.3955(4) 0.1422(7)
H38? H 0.8333 0.4236 0.1146
C137? C 0.7996(8) 0.3476(5) 0.1229(5)
H39? H 0.7784 0.3431 0.0822
C138? C 0.7980(9) 0.3065(4) 0.1633(6)
H40? H 0.7757 0.2738 0.1501
C139? C 0.8290(13) 0.3131(5) 0.2229(5)
C140? C 0.8031(11) 0.0112(6) 0.1918(7)
H41? H 0.7992 -0.0197 0.1686
C141? C 0.8184(12) 0.0087(5) 0.2542(7)
H42? H 0.8248 -0.0240 0.2736
C142? C 0.8243(12) 0.0539(7) 0.2881(6)
H43? H 0.8347 0.0522 0.3307
C143? C 0.8148(12) 0.1017(5) 0.2597(8)
C144? C 0.7996(13) 0.1042(6) 0.1973(8)
H44? H 0.7931 0.1368 0.1779
C145? C 0.7937(12) 0.0590(8) 0.1634(6)
H45? H 0.7833 0.0607 0.1208
C146? C 0.0629(14) 0.1730(6) 0.3658(6)
H46? H 0.0332 0.1645 0.3283
C147? C 0.1502(14) 0.1572(8) 0.3774(10)
H47? H 0.1803 0.1380 0.3479
C148? C 0.1935(10) 0.1696(8) 0.4323(11)
C149? C 0.1495(10) 0.1976(6) 0.4755(8)
H48? H 0.1791 0.2061 0.5130
C150? C 0.0622(10) 0.2134(5) 0.4638(6)
H49? H 0.0321 0.2326 0.4934
C151? C 0.0188(9) 0.2010(5) 0.4090(7)
H50? H -0.0409 0.2118 0.4010
S21? S 0.2943(10) 0.1436(5) 0.4507(6)
C152? C 0.2097(12) 0.3855(9) 0.3545(8)
S22? S 0.5027(3) -0.04049(16) 0.1422(2)
C153? C 0.5310(8) 0.0065(5) 0.1876(7)
C154? C 0.4072(13) 0.1365(5) 0.1066(8)
C155? C 0.2681(19) 0.2481(11) 0.1986(14)
C156? C 0.1721(19) 0.2658(9) 0.1956(9)
C157? C 0.3196(11) 0.2607(6) 0.1582(7)
C158? C 0.2911(14) 0.3011(7) 0.1098(9)
C159? C 0.338(2) 0.2877(14) 0.0546(12)
C160? C 0.0003(10) 0.1740(5) 0.1695(6)
C161? C -0.0483(8) 0.1804(6) 0.1135(6)
C162? C -0.0439(12) 0.2334(6) 0.0971(7)
C163? C 0.0075(13) 0.2597(4) 0.1428(8)
C164? C 0.0348(11) 0.2230(6) 0.1875(6)
C165? C 0.2119(18) 0.3207(10) 0.1105(11)
C166? C -0.0390(19) 0.2457(12) 0.0368(15)
C167? C 0.1733(7) 0.1819(5) 0.2235(7)
C168? C 0.1447(6) 0.1308(6) 0.2191(8)
C169? C 0.2039(9) 0.0921(4) 0.2040(8)
C170? C 0.2918(8) 0.1044(4) 0.1933(6)
C171? C 0.3204(6) 0.1554(4) 0.1978(5)
C172? C 0.2612(8) 0.1942(4) 0.2128(6)
C173? C 0.0505(13) 0.1279(8) 0.1849(11)
C174? C 0.0626(14) 0.1348(8) -0.0795(8)
C175? C 0.0009(18) 0.1196(12) -0.0402(15)
C176? C -0.0381(19) 0.1500(11) 0.0010(9)
C177? C -0.0290(11) 0.2082(9) -0.0143(11)
C178? C 0.0331(13) 0.2213(10) -0.0592(9)
C179? C -0.0485(11) 0.1388(7) 0.0662(8)
C180? C 0.055(2) 0.2986(12) 0.1276(12)
C181? C 0.3990(11) 0.1044(6) 0.0098(7)
C182? C 0.1230(14) 0.2278(8) 0.2140(9)
C183? C 0.4167(11) 0.1509(5) 0.0467(6)
C184? C 0.3877(9) 0.1736(7) 0.1496(5)
C185? C 0.3777(11) 0.2251(6) 0.1325(6)
C186? C 0.3872(12) 0.2395(4) 0.0726(7)
C187? C 0.3288(9) 0.1622(4) -0.0654(6)
C188? C 0.3548(8) 0.1120(5) -0.0453(6)
C189? C 0.2859(11) 0.0769(4) -0.0630(7)
C190? C 0.2173(9) 0.1054(7) -0.0940(7)
C191? C 0.2438(10) 0.1581(6) -0.0955(7)
C192? C 0.1816(12) 0.1992(8) -0.0958(7)
C193? C 0.209(2) 0.2509(10) -0.0734(12)
C194? C 0.296(2) 0.2521(10) -0.0443(11)
C195? C 0.357(2) 0.2089(15) -0.0288(15)
C196? C 0.1350(12) 0.0928(7) -0.0851(6)
C197? C 0.3114(16) 0.0304(7) 0.0375(10)
C198? C 0.3783(12) 0.0669(7) 0.0488(9)
C199? C 0.3862(16) 0.0824(8) 0.1136(12)
C200? C 0.3275(18) 0.0660(9) 0.1556(13)
C201? C 0.2554(16) 0.0173(9) 0.0776(12)
C202? C 0.1056(9) 0.0514(6) -0.0455(4)
C203? C 0.0303(7) 0.0670(5) -0.0161(5)
C204? C 0.0212(7) 0.0547(5) 0.0445(5)
C205? C 0.0874(10) 0.0268(5) 0.0758(4)
C206? C 0.1627(8) 0.0112(4) 0.0464(6)
C207? C 0.1537(18) 0.3029(9) 0.1581(9)
C208? C 0.0663(9) 0.2745(6) -0.0360(5)
C209? C 0.1554(9) 0.2861(5) -0.0433(5)
C210? C 0.2036(8) 0.3124(6) 0.0020(7)
C211? C 0.1627(10) 0.3272(6) 0.0545(6)
C212? C 0.0736(10) 0.3156(6) 0.0617(6)
C213? C 0.0254(7) 0.2893(6) 0.0165(7)
C214? C 0.1718(7) 0.0235(5) -0.0143(6)
C215? C 0.2666(13) 0.0372(7) -0.0240(10)
C216? C 0.2923(11) 0.2909(6) 0.0041(7)
C217? C 0.4067(8) 0.2024(6) 0.0296(5)
S23? S 0.6323(3) 0.19224(15) 0.12502(16)
S24? S 0.6399(3) 0.08277(19) 0.0660(2)
C218? C 0.6439(10) 0.1365(7) 0.0945(7)
S25? S 0.7341(5) 0.1565(4) 0.0284(3)
C219? C 0.6725(9) 0.1765(8) 0.0805(7)
loop_
_geom_bond_atom_site_label_1
_geom_bond_atom_site_label_2
_geom_bond_site_symmetry_1
_geom_bond_site_symmetry_2
S1 C1 1_555 1_555
S2 C3 1_555 1_555
S3 C8 1_555 1_555
S4 C4 1_555 1_555
S5 C19 1_555 1_555
S6 C27 1_555 1_555
S7 C20 1_555 1_555
C1 C3 1_555 1_555
C2 C7 1_555 1_555
C3 C8 1_555 1_555
C4 C5 1_555 1_555
C5 C6 1_555 1_555
C6 C1 1_555 1_555
C7 C6 1_555 1_555
C8 C4 1_555 1_555
C9 S1 1_555 1_555
C10 H1 1_555 1_555
C11 S2 1_555 1_555
C12 C11 1_555 1_555
H2 C12 1_555 1_555
C13 C12 1_555 1_555
H3 C13 1_555 1_555
C14 C13 1_555 1_555
H4 C14 1_555 1_555
C15 C10 1_555 1_555
H5 C15 1_555 1_555
C16 C5 1_555 1_555
C17 S4 1_555 1_555
C18 C2 1_555 1_555
C19 C9 1_555 1_555
C20 C19 1_555 1_555
C21 H6 1_555 1_555
C22 C21 1_555 1_555
H7 C22 1_555 1_555
C23 C22 1_555 1_555
H8 C23 1_555 1_555
C24 C23 1_555 1_555
H9 C24 1_555 1_555
C25 S5 1_555 1_555
C26 C21 1_555 1_555
H10 C26 1_555 1_555
C27 C2 1_555 1_555
C28 S6 1_555 1_555
C29 S7 1_555 1_555
C30 C29 1_555 1_555
H11 C30 1_555 1_555
C31 C30 1_555 1_555
H12 C31 1_555 1_555
C32 C31 1_555 1_555
H13 C32 1_555 1_555
C33 C32 1_555 1_555
H14 C33 1_555 1_555
C34 C29 1_555 1_555
H15 C34 1_555 1_555
C35 C17 1_555 1_555
C36 C28 1_555 1_555
C37 H16 1_555 1_555
C38 C37 1_555 1_555
H17 C38 1_555 1_555
C39 C38 1_555 1_555
H18 C39 1_555 1_555
C40 C39 1_555 1_555
H19 C40 1_555 1_555
C41 C40 1_555 1_555
H20 C41 1_555 1_555
C42 C37 1_555 1_555
S8 C35 1_555 1_555
C43 H21 1_555 1_555
C44 C43 1_555 1_555
H22 C44 1_555 1_555
C45 C44 1_555 1_555
C46 C45 1_555 1_555
H23 C46 1_555 1_555
C47 C46 1_555 1_555
H24 C47 1_555 1_555
C48 C43 1_555 1_555
H25 C48 1_555 1_555
S9 C36 1_555 1_555
C49 H26 1_555 1_555
C50 C49 1_555 1_555
H27 C50 1_555 1_555
C51 C50 1_555 1_555
H28 C51 1_555 1_555
C52 C51 1_555 1_555
H29 C52 1_555 1_555
C53 C52 1_555 1_555
H30 C53 1_555 1_555
C54 S3 1_555 1_555
S10 C55 1_555 1_555
S11 C55 1_555 1_555
S12 C56 1_555 1_555
S13 C56 1_555 1_555
S14 C57 1_555 1_555
C57 S15 1_555 1_555
C58 C64 1_555 1_555
C59 C60 1_555 1_555
C60 C61 1_555 1_555
C61 C62 1_555 1_555
C62 C63 1_555 1_555
C63 C59 1_555 1_555
C64 C85 1_555 1_555
C65 C59 1_555 1_555
C66 C67 1_555 1_555
C67 C68 1_555 1_555
C68 C69 1_555 1_555
C69 C70 1_555 1_555
C70 C66 1_555 1_555
C71 C79 1_555 1_555
C72 C87 1_555 1_555
C73 C96 1_555 1_555
C74 C76 1_555 1_555
C75 C91 1_555 1_555
C76 C90 1_555 1_555
C77 C82 1_555 1_555
C78 C79 1_555 1_555
C79 C93 1_555 1_555
C80 C65 1_555 1_555
C81 C70 1_555 1_555
C82 C81 1_555 1_555
C83 C82 1_555 1_555
C84 C83 1_555 1_555
C85 C104 1_555 1_555
C86 C91 1_555 1_555
C87 C93 1_555 1_555
C88 C68 1_555 1_555
C89 C92 1_555 1_555
C90 C94 1_555 1_555
C91 C102 1_555 1_555
C92 C88 1_555 1_555
C93 C96 1_555 1_555
C94 C60 1_555 1_555
C95 C61 1_555 1_555
C96 C103 1_555 1_555
C97 C62 1_555 1_555
C98 C71 1_555 1_555
C99 C76 1_555 1_555
C100 C92 1_555 1_555
C101 C78 1_555 1_555
C102 C90 1_555 1_555
C103 C97 1_555 1_555
C104 C86 1_555 1_555
C105 C75 1_555 1_555
C106 C80 1_555 1_555
C107 C58 1_555 1_555
C108 C109 1_555 1_555
C109 C104 1_555 1_555
C110 C73 1_555 1_555
C111 C99 1_555 1_555
C112 C74 1_555 1_555
C113 C69 1_555 1_555
C114 C77 1_555 1_555
C115 C58 1_555 1_555
C116 C65 1_555 1_555
C117 C94 1_555 1_555
C118 C74 1_555 1_555
C119 C83 1_555 1_555
C120 C114 1_555 1_555
C121 C63 1_555 1_555
C122 C72 1_555 1_555
C123 C80 1_555 1_555
C124 C66 1_555 1_555
C125 C81 1_555 1_555
C126 C108 1_555 1_555
C127 C64 1_555 1_555
C7 C9 1_555 1_555
C10 C11 1_555 1_555
C14 C15 1_555 1_555
C16 C17 1_555 1_555
C16 C18 1_555 1_555
C18 C28 1_555 1_555
C20 C27 1_555 1_555
C24 C25 1_555 1_555
C25 C26 1_555 1_555
C33 C34 1_555 1_555
C35 C36 1_555 1_555
C41 C42 1_555 1_555
C42 S8 1_555 1_555
C45 S9 1_555 1_555
C47 C48 1_555 1_555
C49 C54 1_555 1_555
C53 C54 1_555 1_555
C67 C115 1_555 1_555
C71 C127 1_555 1_555
C72 C121 1_555 1_555
C73 C127 1_555 1_555
C75 C110 1_555 1_555
C77 C113 1_555 1_555
C78 C122 1_555 1_555
C84 C112 1_555 1_555
C84 C125 1_555 1_555
C85 C110 1_555 1_555
C86 C99 1_555 1_555
C87 C97 1_555 1_555
C88 C101 1_555 1_555
C89 C106 1_555 1_555
C89 C113 1_555 1_555
C95 C102 1_555 1_555
C95 C105 1_555 1_555
C98 C101 1_555 1_555
C98 C115 1_555 1_555
C100 C122 1_555 1_555
C100 C123 1_555 1_555
C103 C105 1_555 1_555
C106 C114 1_555 1_555
C107 C109 1_555 1_555
C107 C124 1_555 1_555
C108 C111 1_555 1_555
C111 C112 1_555 1_555
C116 C117 1_555 1_555
C116 C120 1_555 1_555
C117 C118 1_555 1_555
C118 C119 1_555 1_555
C119 C120 1_555 1_555
C121 C123 1_555 1_555
C124 C126 1_555 1_555
C125 C126 1_555 1_555

#END
