
#######################################################################
#
#                 Cambridge Crystallographic Data Centre
#                                CCDC 
#
#######################################################################
#
# If this CIF has been generated from an entry in the Cambridge 
# Structural Database, then it will include bibliographic, chemical, 
# crystal, experimental, refinement or atomic coordinate data resulting 
# from the CCDC's data processing and validation procedures.
#
#######################################################################

data_AVICAK
_chemical_name_common            
18-(Diphenylmethoxy)-6,11,16-triphenyl-19-oxa-28,29,30,31-tetraazaheptacyclo[15.9.2.1$2,5!.1$7,10!.1$12,15!.0$20,27!.0$21,26!]hentriaconta-1(27),2,4,6,8,10(30),11,13,15,17(28),21,23,25-tridecaene
_chemical_formula_moiety         'C57 H40 N4 O2'
_chemical_name_systematic        
meso-tetraphenyl-2-(diphenylmethoxy)morpholinochlorin
_symmetry_cell_setting           triclinic
_symmetry_space_group_name_H-M   'P -1'
_symmetry_Int_Tables_number      2
_space_group_name_Hall           '-P 1'
loop_
_symmetry_equiv_pos_site_id
_symmetry_equiv_pos_as_xyz
1 x,y,z
2 -x,-y,-z
_cell_length_a                   9.6674(10)
_cell_length_b                   11.3608(11)
_cell_length_c                   19.2435(19)
_cell_angle_alpha                77.098(2)
_cell_angle_beta                 81.460(2)
_cell_angle_gamma                81.878(2)
_cell_volume                     2024.44
_exptl_crystal_colour            purple
_exptl_crystal_description       block
_cell_formula_units_Z            2
loop_
_atom_site_label
_atom_site_type_symbol
_atom_site_fract_x
_atom_site_fract_y
_atom_site_fract_z
O1 O 0.3421(3) 0.8543(3) 0.29906(15)
O2 O 0.0965(3) 0.8868(3) 0.31689(15)
N1 N 0.2815(4) 0.9536(3) 0.15527(19)
N2 N 0.4019(4) 0.8852(3) 0.01227(18)
H1 H 0.3308 0.9351 0.0268
N3 N 0.1850(4) 1.0591(3) -0.05715(19)
N4 N 0.0902(4) 1.1500(3) 0.07189(19)
H2 H 0.1338 1.0808 0.0625
C1 C -0.0013(4) 1.2278(4) -0.0448(2)
C2 C 0.5550(5) 0.7013(4) 0.1810(2)
C3 C 0.3549(5) 0.9154(4) -0.1138(2)
C4 C 0.2229(4) 0.9402(4) 0.2897(2)
H3 H 0.2284 1.0046 0.3168
C5 C 0.2100(4) 1.0018(4) 0.2110(2)
C6 C 0.4706(4) 0.7926(4) 0.1309(2)
C7 C 0.0809(4) 1.1746(4) 0.2639(2)
C8 C 0.0201(4) 1.2372(4) 0.0244(2)
C9 C 0.4853(5) 0.6922(4) 0.2517(2)
C10 C 0.0715(5) 0.8611(4) 0.3944(2)
H4 H 0.1022 0.9291 0.4115
C11 C -0.0069(5) 1.2996(4) 0.3750(2)
H5 H -0.0369 1.3422 0.4128
C12 C 0.1530(4) 0.7441(4) 0.4286(2)
C13 C 0.4933(4) 0.8131(4) 0.0561(2)
C14 C 0.0436(5) 1.1190(4) -0.1488(2)
H6 H -0.0317 1.1594 -0.1748
C15 C 0.3526(5) 0.7762(4) 0.2501(2)
H7 H 0.2697 0.7286 0.2609
C16 C 0.1732(5) 1.2346(4) 0.2875(2)
H8 H 0.2681 1.2332 0.2656
C17 C 0.1297(5) 1.1135(4) 0.2011(2)
C18 C 0.1437(4) 1.0352(4) -0.1682(2)
H9 H 0.1541 1.0048 -0.2110
C19 C 0.0834(4) 1.1846(4) 0.1361(2)
C20 C 0.3606(5) 0.8485(4) 0.1739(2)
C21 C 0.1189(5) 0.6317(4) 0.4244(2)
H10 H 0.0456 0.6278 0.3974
C22 C -0.0846(5) 0.8601(4) 0.4167(2)
C23 C -0.1053(4) 1.3206(4) -0.0821(2)
C24 C 0.5606(5) 0.7865(4) -0.0573(2)
H11 H 0.6111 0.7584 -0.0978
C25 C 0.4354(5) 0.8697(4) -0.0575(2)
C26 C 0.0718(4) 1.1366(4) -0.0804(2)
C27 C 0.2340(4) 0.9994(4) -0.1112(2)
C28 C 0.3988(4) 0.8698(4) -0.1822(2)
C29 C 0.5386(5) 0.6167(4) 0.3097(2)
H12 H 0.4883 0.6115 0.3564
C30 C -0.0260(5) 1.3345(4) 0.0599(2)
H13 H -0.0751 1.4100 0.0397
C31 C 0.1299(5) 1.2968(4) 0.3427(2)
H14 H 0.1951 1.3377 0.3583
C32 C -0.0570(5) 1.1781(5) 0.2968(3)
H15 H -0.1225 1.1374 0.2813
C33 C 0.3328(5) 0.6404(4) 0.5028(2)
H16 H 0.4067 0.6442 0.5295
C34 C -0.2366(5) 1.3545(4) -0.0468(3)
H17 H -0.2615 1.3171 0.0019
C35 C 0.4341(5) 0.9497(5) -0.2462(3)
H18 H 0.4347 1.0333 -0.2464
C36 C 0.2609(5) 0.7467(4) 0.4683(2)
H19 H 0.2861 0.8228 0.4718
C37 C -0.0727(5) 1.3771(4) -0.1535(3)
H20 H 0.0169 1.3565 -0.1783
C38 C 0.7370(5) 0.5547(4) 0.2301(3)
H21 H 0.8244 0.5062 0.2232
C39 C 0.3981(5) 0.7478(4) -0.1829(3)
H22 H 0.3744 0.6920 -0.1394
C40 C 0.5952(5) 0.7545(4) 0.0106(2)
H23 H 0.6753 0.7012 0.0254
C41 C 0.6674(5) 0.5479(4) 0.2993(3)
H24 H 0.7077 0.4965 0.3390
C42 C -0.1736(5) 0.8267(4) 0.3755(3)
H25 H -0.1377 0.8082 0.3300
C43 C 0.6831(5) 0.6295(4) 0.1711(3)
H26 H 0.7325 0.6322 0.1244
C44 C 0.4662(5) 0.7879(5) -0.3098(3)
H27 H 0.4883 0.7605 -0.3538
C45 C 0.0107(5) 1.3031(4) 0.1266(2)
H28 H -0.0088 1.3523 0.1617
C46 C -0.1001(5) 1.2399(5) 0.3518(3)
H29 H -0.1948 1.2413 0.3739
C47 C 0.1893(5) 0.5249(5) 0.4588(3)
H30 H 0.1643 0.4487 0.4555
C48 C -0.3692(5) 0.8502(5) 0.4668(3)
H31 H -0.4661 0.8463 0.4839
C49 C -0.1407(5) 0.8889(4) 0.4824(3)
H32 H -0.0810 0.9115 0.5110
C50 C 0.2971(5) 0.5296(5) 0.4985(2)
H33 H 0.3457 0.4566 0.5224
C51 C -0.2817(5) 0.8851(5) 0.5066(3)
H34 H -0.3187 0.9068 0.5511
C52 C -0.3146(5) 0.8207(5) 0.4012(3)
H35 H -0.3747 0.7960 0.3736
C53 C 0.4322(5) 0.7071(5) -0.2472(3)
H36 H 0.4318 0.6236 -0.2476
C54 C 0.4684(5) 0.9088(5) -0.3094(3)
H37 H 0.4938 0.9641 -0.3529
C55 C -0.1683(6) 1.4623(5) -0.1889(3)
H38 H -0.1452 1.4980 -0.2381
C56 C -0.2975(6) 1.4962(5) -0.1532(3)
H39 H -0.3629 1.5561 -0.1774
C57 C -0.3303(5) 1.4419(5) -0.0821(3)
H40 H -0.4188 1.4651 -0.0572
loop_
_geom_bond_atom_site_label_1
_geom_bond_atom_site_label_2
_geom_bond_site_symmetry_1
_geom_bond_site_symmetry_2
O1 C4 1_555 1_555
O2 C4 1_555 1_555
N1 C5 1_555 1_555
N2 H1 1_555 1_555
N3 C26 1_555 1_555
N4 H2 1_555 1_555
C1 C8 1_555 1_555
C2 C6 1_555 1_555
C3 C25 1_555 1_555
C4 H3 1_555 1_555
C5 C4 1_555 1_555
C6 C13 1_555 1_555
C7 C16 1_555 1_555
C8 N4 1_555 1_555
C9 C2 1_555 1_555
C10 O2 1_555 1_555
H4 C10 1_555 1_555
C11 H5 1_555 1_555
C12 C10 1_555 1_555
C13 N2 1_555 1_555
C14 H6 1_555 1_555
C15 O1 1_555 1_555
H7 C15 1_555 1_555
C16 H8 1_555 1_555
C17 C5 1_555 1_555
C18 C14 1_555 1_555
H9 C18 1_555 1_555
C19 N4 1_555 1_555
C20 N1 1_555 1_555
C21 C12 1_555 1_555
H10 C21 1_555 1_555
C22 C10 1_555 1_555
C23 C1 1_555 1_555
C24 H11 1_555 1_555
C25 N2 1_555 1_555
C26 C1 1_555 1_555
C27 N3 1_555 1_555
C28 C3 1_555 1_555
C29 C9 1_555 1_555
H12 C29 1_555 1_555
C30 C8 1_555 1_555
H13 C30 1_555 1_555
C31 C11 1_555 1_555
H14 C31 1_555 1_555
C32 C7 1_555 1_555
H15 C32 1_555 1_555
C33 H16 1_555 1_555
C34 C23 1_555 1_555
H17 C34 1_555 1_555
C35 C28 1_555 1_555
H18 C35 1_555 1_555
C36 C12 1_555 1_555
H19 C36 1_555 1_555
C37 C23 1_555 1_555
H20 C37 1_555 1_555
C38 H21 1_555 1_555
C39 C28 1_555 1_555
H22 C39 1_555 1_555
C40 C13 1_555 1_555
H23 C40 1_555 1_555
C41 C29 1_555 1_555
H24 C41 1_555 1_555
C42 C22 1_555 1_555
H25 C42 1_555 1_555
C43 C2 1_555 1_555
H26 C43 1_555 1_555
C44 H27 1_555 1_555
C45 C19 1_555 1_555
H28 C45 1_555 1_555
C46 C11 1_555 1_555
H29 C46 1_555 1_555
C47 C21 1_555 1_555
H30 C47 1_555 1_555
C48 H31 1_555 1_555
C49 C22 1_555 1_555
H32 C49 1_555 1_555
C50 C33 1_555 1_555
H33 C50 1_555 1_555
C51 C48 1_555 1_555
H34 C51 1_555 1_555
C52 C42 1_555 1_555
H35 C52 1_555 1_555
C53 C39 1_555 1_555
H36 C53 1_555 1_555
C54 C35 1_555 1_555
H37 C54 1_555 1_555
C55 C37 1_555 1_555
H38 C55 1_555 1_555
C56 C55 1_555 1_555
H39 C56 1_555 1_555
C57 C34 1_555 1_555
H40 C57 1_555 1_555
C3 C27 1_555 1_555
C6 C20 1_555 1_555
C7 C17 1_555 1_555
C9 C15 1_555 1_555
C14 C26 1_555 1_555
C15 C20 1_555 1_555
C16 C31 1_555 1_555
C17 C19 1_555 1_555
C18 C27 1_555 1_555
C24 C25 1_555 1_555
C24 C40 1_555 1_555
C30 C45 1_555 1_555
C32 C46 1_555 1_555
C33 C36 1_555 1_555
C38 C41 1_555 1_555
C38 C43 1_555 1_555
C44 C53 1_555 1_555
C44 C54 1_555 1_555
C47 C50 1_555 1_555
C48 C52 1_555 1_555
C49 C51 1_555 1_555
C56 C57 1_555 1_555

#END
