
#######################################################################
#
#                 Cambridge Crystallographic Data Centre
#                                CCDC 
#
#######################################################################
#
# If this CIF has been generated from an entry in the Cambridge 
# Structural Database, then it will include bibliographic, chemical, 
# crystal, experimental, refinement or atomic coordinate data resulting 
# from the CCDC's data processing and validation procedures.
#
#######################################################################

data_AVIWOR01
_chemical_formula_moiety         'C18 H10 Cl2 O2,2(C4 H11 N1)'
_chemical_name_systematic        
'trans-1,5-Dichloro-9,10-diethynyl-9,10-dihydroanthracene-9,10-diol diethylamine solvate'
_symmetry_cell_setting           triclinic
_symmetry_space_group_name_H-M   'P -1'
_symmetry_Int_Tables_number      2
_space_group_name_Hall           '-P 1'
loop_
_symmetry_equiv_pos_site_id
_symmetry_equiv_pos_as_xyz
1 x,y,z
2 -x,-y,-z
_cell_length_a                   8.8625(4)
_cell_length_b                   8.8881(5)
_cell_length_c                   9.5190(5)
_cell_angle_alpha                109.609(2)
_cell_angle_beta                 116.003(2)
_cell_angle_gamma                90.739(2)
_cell_volume                     623.388
_exptl_crystal_colour            colorless
_exptl_crystal_description       needle
_cell_formula_units_Z            1
loop_
_atom_site_label
_atom_site_type_symbol
_atom_site_fract_x
_atom_site_fract_y
_atom_site_fract_z
Cl1 Cl 0.66888(4) 0.06198(4) 0.74716(4)
O1 O 0.72333(12) 0.40358(13) 1.01145(14)
H1 H 0.686(3) 0.479(3) 0.973(3)
C1 C 0.89171(18) 0.3927(2) 1.0325(2)
C2 C 0.79309(16) 0.19874(17) 0.72731(17)
C3 C 0.7880(3) 0.1538(2) 0.5701(3)
H2 H 0.719(2) 0.051(2) 0.478(2)
C4 C 0.88232(19) 0.2579(2) 0.54492(18)
H3 H 0.872(3) 0.217(3) 0.426(3)
C5 C 0.98017(18) 0.40215(18) 0.67423(18)
H4 H 1.049(2) 0.480(2) 0.660(2)
C6 C 0.89266(15) 0.34574(16) 0.86235(18)
C7 C 0.98769(18) 0.44735(19) 0.83371(17)
C8 C 0.94769(19) 0.2643(2) 1.1015(2)
C9 C 1.0007(2) 0.1680(3) 1.1639(3)
H5 H 1.040(3) 0.091(3) 1.206(2)
Cl1A Cl 1.33112(4) 0.93802(4) 1.25284(4)
O1A O 1.27667(12) 0.59642(13) 0.98855(14)
H1A H 1.314(3) 0.521(3) 1.027(3)
C1A C 1.10829(18) 0.6073(2) 0.9675(2)
C2A C 1.20691(16) 0.80126(17) 1.27269(17)
C3A C 1.2120(3) 0.8462(2) 1.4299(3)
H2A H 1.281(2) 0.949(2) 1.522(2)
C4A C 1.11768(19) 0.7421(2) 1.45508(18)
H3A H 1.128(3) 0.783(3) 1.574(3)
C5A C 1.01983(18) 0.59785(18) 1.32577(18)
H4A H 0.951(2) 0.520(2) 1.340(2)
C6A C 1.10734(15) 0.65426(16) 1.13765(18)
C7A C 1.01231(18) 0.55265(19) 1.16629(17)
C8A C 1.05231(19) 0.7357(2) 0.8985(2)
C9A C 0.9993(2) 0.8320(3) 0.8361(3)
H5A H 0.960(3) 0.909(3) 0.794(2)
N1 N 0.55428(14) 0.60955(14) 0.87111(14)
H6 H 0.458(2) 0.605(2) 0.889(2)
C10 C 0.6871(2) 0.8614(2) 1.1256(2)
H7 H 0.587(3) 0.848(3) 1.141(3)
H8 H 0.780(3) 0.813(3) 1.193(3)
H9 H 0.730(3) 0.982(3) 1.166(3)
C11 C 0.6321(2) 0.78199(18) 0.9391(2)
H10 H 0.550(3) 0.842(2) 0.879(2)
H11 H 0.730(3) 0.783(2) 0.915(2)
C12 C 0.49744(19) 0.53278(19) 0.68867(18)
H12 H 0.600(2) 0.528(2) 0.671(2)
H13 H 0.437(2) 0.602(2) 0.630(2)
C13 C 0.3906(2) 0.3648(2) 0.6133(2)
H14 H 0.359(3) 0.318(3) 0.495(3)
H15 H 0.289(3) 0.371(3) 0.628(3)
H16 H 0.455(3) 0.299(3) 0.672(2)
Cl2? Cl 0.9534(7) 0.3440(7) 0.5242(7)
O2? O 0.7635(18) 0.4719(19) 1.0935(19)
C14? C 1.024(3) 0.232(3) 1.224(3)
C15? C 0.979(3) 0.310(3) 1.164(3)
C16? C 0.937(2) 0.458(3) 1.095(2)
C17? C 0.8936(12) 0.2980(11) 0.6562(11)
C18? C 0.9465(11) 0.3967(9) 0.8240(11)
C19? C 0.8845(13) 0.3496(13) 0.9172(10)
C20? C 0.7697(16) 0.2039(15) 0.8425(14)
C21? C 0.7168(18) 0.1052(13) 0.6748(15)
C22? C 0.7787(17) 0.1523(12) 0.5816(11)
loop_
_geom_bond_atom_site_label_1
_geom_bond_atom_site_label_2
_geom_bond_site_symmetry_1
_geom_bond_site_symmetry_2
Cl1 C2 1_555 1_555
O1 H1 1_555 1_555
C1 O1 1_555 1_555
C2 C3 1_555 1_555
C3 H2 1_555 1_555
C4 C3 1_555 1_555
H3 C4 1_555 1_555
C5 C4 1_555 1_555
H4 C5 1_555 1_555
C6 C1 1_555 1_555
C7 C5 1_555 1_555
C8 C1 1_555 1_555
C9 C8 1_555 1_555
H5 C9 1_555 1_555
N1 H6 1_555 1_555
C10 H7 1_555 1_555
H8 C10 1_555 1_555
H9 C10 1_555 1_555
C11 N1 1_555 1_555
H10 C11 1_555 1_555
H11 C11 1_555 1_555
C12 N1 1_555 1_555
H12 C12 1_555 1_555
H13 C12 1_555 1_555
C13 C12 1_555 1_555
H14 C13 1_555 1_555
H15 C13 1_555 1_555
H16 C13 1_555 1_555
Cl1A C2A 1_555 1_555
O1A H1A 1_555 1_555
C1A C7 1_555 1_555
C2A C3A 1_555 1_555
C3A H2A 1_555 1_555
C4A C3A 1_555 1_555
H3A C4A 1_555 1_555
C5A C4A 1_555 1_555
H4A C5A 1_555 1_555
C6A C1A 1_555 1_555
C7A C1 1_555 1_555
C8A C1A 1_555 1_555
C9A C8A 1_555 1_555
H5A C9A 1_555 1_555
C2 C6 1_555 1_555
C6 C7 1_555 1_555
C10 C11 1_555 1_555
O1A C1A 1_555 1_555
C2A C6A 1_555 1_555
C5A C7A 1_555 1_555
C6A C7A 1_555 1_555

#END
