
#######################################################################
#
#                 Cambridge Crystallographic Data Centre
#                                CCDC 
#
#######################################################################
#
# If this CIF has been generated from an entry in the Cambridge 
# Structural Database, then it will include bibliographic, chemical, 
# crystal, experimental, refinement or atomic coordinate data resulting 
# from the CCDC's data processing and validation procedures.
#
#######################################################################

data_AVOVIQ
_chemical_formula_moiety         'C28 H24 N2 O5 S2'
_chemical_name_systematic        
'2-(3-(4-(5-(4-t-Butylphenyl)-1,3,4-oxadiazol-2-yl)phenyl)prop-2-ynylidene)-1,3-dithiole-4,5-dicarboxylic acid dimethyl ester'
_symmetry_cell_setting           triclinic
_symmetry_space_group_name_H-M   'P -1'
_symmetry_Int_Tables_number      2
_space_group_name_Hall           '-P 1'
loop_
_symmetry_equiv_pos_site_id
_symmetry_equiv_pos_as_xyz
1 x,y,z
2 -x,-y,-z
_cell_length_a                   10.878(1)
_cell_length_b                   11.000(1)
_cell_length_c                   12.705(1)
_cell_angle_alpha                114.866(10)
_cell_angle_beta                 105.881(10)
_cell_angle_gamma                97.048(10)
_cell_volume                     1276.48
_exptl_crystal_colour            amber
_exptl_crystal_description       prism
_chemical_melting_point          '474-476 K'
_cell_formula_units_Z            2
loop_
_atom_site_label
_atom_site_type_symbol
_atom_site_fract_x
_atom_site_fract_y
_atom_site_fract_z
S1 S 0.69356(3) 1.14390(3) 0.69850(3)
S2 S 0.49023(3) 0.88848(3) 0.61947(3)
O1 O 0.21597(9) -0.03108(9) 0.04501(8)
O2 O 0.69395(9) 1.39392(9) 0.90262(8)
O3 O 0.28678(9) 1.07015(10) 0.75848(8)
O4 O 0.53026(10) 1.30539(10) 0.94903(9)
O5 O 0.40000(10) 0.97584(11) 0.86659(10)
N1 N 0.04179(12) -0.10524(12) 0.08179(11)
N2 N 0.09825(12) 0.03748(12) 0.16576(11)
C1 C 0.11385(12) -0.14038(13) 0.01335(12)
C2 C 0.19932(13) 0.07620(13) 0.14043(11)
C3 C 0.00733(13) -0.67561(13) -0.41691(12)
C4 C 0.08207(14) -0.67124(14) -0.50221(13)
H1 H 0.1767(18) -0.6461(17) -0.4595(16)
H2 H 0.0608(19) -0.603(2) -0.5283(17)
H3 H 0.0550(18) -0.7646(19) -0.5787(17)
C5 C -0.14266(14) -0.72248(17) -0.49275(14)
H4 H -0.1679(17) -0.6556(18) -0.5220(16)
H5 H -0.160(2) -0.812(2) -0.564(2)
H6 H -0.1981(19) -0.735(2) -0.4476(17)
C6 C 0.04328(18) -0.78239(16) -0.37408(17)
H7 H 0.138(2) -0.7562(19) -0.3301(17)
H8 H 0.0194(19) -0.874(2) -0.4467(19)
H9 H -0.003(2) -0.791(2) -0.3219(19)
C7 C 0.53612(13) 0.62494(13) 0.36925(11)
C8 C 0.59836(13) 0.74567(13) 0.42498(11)
C9 C 0.66323(12) 0.88990(13) 0.50118(11)
H10 H 0.7360(17) 0.9339(17) 0.4898(15)
C10 C 0.62281(12) 0.96627(12) 0.59443(11)
C11 C 0.09525(12) -0.27541(13) -0.09060(12)
C12 C 0.17423(12) -0.29432(13) -0.16281(12)
H11 H 0.2470(17) -0.2206(18) -0.1408(15)
C13 C 0.14691(12) -0.42263(13) -0.26700(12)
H12 H 0.2010(16) -0.4338(17) -0.3164(15)
C14 C 0.04154(12) -0.53457(12) -0.30161(11)
C15 C -0.03296(14) -0.51491(15) -0.22430(14)
H13 H -0.1032(18) -0.5899(19) -0.2420(17)
C16 C -0.00720(15) -0.38805(15) -0.12106(14)
H14 H -0.059(2) -0.372(2) -0.0714(19)
C17 C 0.58383(12) 1.15759(12) 0.77865(10)
C18 C 0.49117(12) 1.04075(12) 0.74136(10)
C19 C 0.59727(12) 1.29202(12) 0.88540(11)
C20 C 0.38946(12) 1.02690(12) 0.79884(11)
C21 C 0.28930(12) 0.21484(13) 0.19819(11)
C22 C 0.39173(13) 0.24135(13) 0.15722(11)
H15 H 0.4072(17) 0.1704(18) 0.0939(16)
C23 C 0.47328(13) 0.37525(13) 0.21236(11)
H16 H 0.5423(17) 0.3917(18) 0.1844(16)
C24 C 0.45557(12) 0.48449(13) 0.31067(11)
C25 C 0.35515(14) 0.45589(14) 0.35323(13)
H17 H 0.3418(19) 0.525(2) 0.4164(17)
C26 C 0.27253(15) 0.32302(15) 0.29728(13)
H18 H 0.207(2) 0.304(2) 0.3246(18)
C27 C 0.71642(17) 1.52829(14) 1.00892(14)
H19 H 0.633(2) 1.5571(19) 1.0008(17)
H20 H 0.746(2) 1.520(2) 1.084(2)
H21 H 0.778(2) 1.590(3) 1.006(2)
C28 C 0.18346(15) 1.06002(18) 0.80955(15)
H22 H 0.1547(19) 0.970(2) 0.7972(17)
H23 H 0.215(2) 1.119(2) 0.897(2)
H24 H 0.117(2) 1.084(2) 0.770(2)
loop_
_geom_bond_atom_site_label_1
_geom_bond_atom_site_label_2
_geom_bond_site_symmetry_1
_geom_bond_site_symmetry_2
S1 C10 1_555 1_555
S2 C10 1_555 1_555
O1 C1 1_555 1_555
O2 C19 1_555 1_555
O3 C20 1_555 1_555
O4 C19 1_555 1_555
O5 C20 1_555 1_555
N1 N2 1_555 1_555
N2 C2 1_555 1_555
C1 N1 1_555 1_555
C2 O1 1_555 1_555
C3 C4 1_555 1_555
C4 H1 1_555 1_555
H2 C4 1_555 1_555
H3 C4 1_555 1_555
C5 C3 1_555 1_555
H4 C5 1_555 1_555
H5 C5 1_555 1_555
H6 C5 1_555 1_555
C6 C3 1_555 1_555
H7 C6 1_555 1_555
H8 C6 1_555 1_555
H9 C6 1_555 1_555
C7 C8 1_555 1_555
C8 C9 1_555 1_555
C9 H10 1_555 1_555
C10 C9 1_555 1_555
C11 C1 1_555 1_555
C12 C11 1_555 1_555
H11 C12 1_555 1_555
C13 C12 1_555 1_555
H12 C13 1_555 1_555
C14 C3 1_555 1_555
C15 C14 1_555 1_555
H13 C15 1_555 1_555
C16 C11 1_555 1_555
H14 C16 1_555 1_555
C17 S1 1_555 1_555
C18 S2 1_555 1_555
C19 C17 1_555 1_555
C20 C18 1_555 1_555
C21 C2 1_555 1_555
C22 C21 1_555 1_555
H15 C22 1_555 1_555
C23 C22 1_555 1_555
H16 C23 1_555 1_555
C24 C7 1_555 1_555
C25 C24 1_555 1_555
H17 C25 1_555 1_555
C26 C21 1_555 1_555
H18 C26 1_555 1_555
C27 O2 1_555 1_555
H19 C27 1_555 1_555
H20 C27 1_555 1_555
H21 C27 1_555 1_555
C28 O3 1_555 1_555
H22 C28 1_555 1_555
H23 C28 1_555 1_555
H24 C28 1_555 1_555
C13 C14 1_555 1_555
C15 C16 1_555 1_555
C17 C18 1_555 1_555
C23 C24 1_555 1_555
C25 C26 1_555 1_555

#END
