
#######################################################################
#
#                 Cambridge Crystallographic Data Centre
#                                CCDC 
#
#######################################################################
#
# If this CIF has been generated from an entry in the Cambridge 
# Structural Database, then it will include bibliographic, chemical, 
# crystal, experimental, refinement or atomic coordinate data resulting 
# from the CCDC's data processing and validation procedures.
#
#######################################################################

data_AVUMOT
_chemical_formula_moiety         'C16 H18 N2 O4,H2 O1'
_chemical_name_systematic        
'3-(2-(N,N-Diethylamino)glyoxyloyl)-1H-indol-4-yl acetate monohydrate'
_symmetry_cell_setting           monoclinic
_symmetry_space_group_name_H-M   'P 21/a'
_symmetry_Int_Tables_number      14
_space_group_name_Hall           '-P 2yab'
loop_
_symmetry_equiv_pos_site_id
_symmetry_equiv_pos_as_xyz
1 x,y,z
2 1/2+x,1/2-y,z
3 -x,-y,-z
4 1/2-x,1/2+y,-z
_cell_length_a                   12.646(2)
_cell_length_b                   10.5180(10)
_cell_length_c                   12.904(2)
_cell_angle_alpha                90
_cell_angle_beta                 98.703(2)
_cell_angle_gamma                90
_cell_volume                     1696.61
_exptl_crystal_colour            colorless
_exptl_crystal_description       block
_cell_formula_units_Z            4
_exptl_crystal_recrystallization_method 'diethyl ether'
loop_
_atom_site_label
_atom_site_type_symbol
_atom_site_fract_x
_atom_site_fract_y
_atom_site_fract_z
O1 O 0.26650(10) 0.44090(10) 0.13670(10)
O2 O 0.43820(10) 0.4820(2) 0.12480(10)
O3 O 0.28480(10) 0.71450(10) 0.14120(10)
O4 O 0.30460(10) 0.94700(10) 0.29260(10)
N1 N 0.37760(10) 0.57930(10) 0.48250(10)
N2 N 0.45930(10) 0.90520(10) 0.23130(10)
C1 C 0.3058(2) 0.5067(2) -0.02730(10)
C2 C 0.34640(10) 0.4771(2) 0.08430(10)
C3 C 0.29430(10) 0.41440(10) 0.24390(10)
C4 C 0.28610(10) 0.2909(2) 0.27580(10)
C5 C 0.30880(10) 0.2578(2) 0.38140(10)
C6 C 0.34030(10) 0.3477(2) 0.45660(10)
C7 C 0.34760(10) 0.47270(10) 0.42300(10)
C8 C 0.32410(10) 0.51080(10) 0.31720(10)
C9 C 0.34080(10) 0.64700(10) 0.31640(10)
C10 C 0.37370(10) 0.68120(10) 0.41980(10)
C11 C 0.32740(10) 0.73650(10) 0.23110(10)
C12 C 0.36480(10) 0.87270(10) 0.25560(10)
C13 C 0.52900(10) 0.8154(2) 0.1867(2)
C14 C 0.5200(2) 0.8246(2) 0.0695(2)
C15 C 0.4968(2) 1.0366(2) 0.2478(2)
C16 C 0.5466(2) 1.0606(3) 0.3574(2)
H3 H 0.395(2) 0.578(2) 0.5500(10)
H4 H 0.3633 0.5382 -0.0607
H5 H 0.2507 0.5700 -0.0308
H6 H 0.2770 0.4309 -0.0623
H7 H 0.2649 0.2282 0.2262
H8 H 0.3025 0.1734 0.4011
H9 H 0.3562 0.3260 0.5271
H10 H 0.3908 0.7636 0.4425
H11 H 0.5110 0.7295 0.2053
H12 H 0.6026 0.8312 0.2176
H13 H 0.5668 0.7635 0.0448
H14 H 0.5398 0.9086 0.0505
H15 H 0.4476 0.8077 0.0382
H16 H 0.4368 1.0940 0.2297
H17 H 0.5486 1.0546 0.2014
H18 H 0.5703 1.1473 0.3644
H19 H 0.6067 1.0048 0.3753
H20 H 0.4951 1.0451 0.4035
O5 O 0.40430(10) 0.5287(2) 0.69340(10)
H1 H 0.4540(10) 0.528(2) 0.7460(10)
H2 H 0.3470(10) 0.497(2) 0.708(2)
loop_
_geom_bond_atom_site_label_1
_geom_bond_atom_site_label_2
_geom_bond_site_symmetry_1
_geom_bond_site_symmetry_2
O1 C2 1_555 1_555
O2 C2 1_555 1_555
O3 C11 1_555 1_555
O4 C12 1_555 1_555
O5 H1 1_555 1_555
N1 C7 1_555 1_555
N2 C12 1_555 1_555
C1 C2 1_555 1_555
C3 O1 1_555 1_555
C4 C3 1_555 1_555
C5 C4 1_555 1_555
C6 C5 1_555 1_555
C7 C6 1_555 1_555
C8 C3 1_555 1_555
C9 C8 1_555 1_555
C10 N1 1_555 1_555
C11 C9 1_555 1_555
C12 C11 1_555 1_555
C13 N2 1_555 1_555
C14 C13 1_555 1_555
C15 N2 1_555 1_555
C16 C15 1_555 1_555
H2 O5 1_555 1_555
H3 N1 1_555 1_555
H4 C1 1_555 1_555
H5 C1 1_555 1_555
H6 C1 1_555 1_555
H7 C4 1_555 1_555
H8 C5 1_555 1_555
H9 C6 1_555 1_555
H10 C10 1_555 1_555
H11 C13 1_555 1_555
H12 C13 1_555 1_555
H13 C14 1_555 1_555
H14 C14 1_555 1_555
H15 C14 1_555 1_555
H16 C15 1_555 1_555
H17 C15 1_555 1_555
H18 C16 1_555 1_555
H19 C16 1_555 1_555
H20 C16 1_555 1_555
C7 C8 1_555 1_555
C9 C10 1_555 1_555

#END
