
#######################################################################
#
#                 Cambridge Crystallographic Data Centre
#                                CCDC 
#
#######################################################################
#
# If this CIF has been generated from an entry in the Cambridge 
# Structural Database, then it will include bibliographic, chemical, 
# crystal, experimental, refinement or atomic coordinate data resulting 
# from the CCDC's data processing and validation procedures.
#
#######################################################################

data_AVUQIS
_chemical_formula_moiety         'C33 H27 N3 P2'
_chemical_name_systematic        
'N-((8-Aminoquinolin-7-yl)(diphenyl)phosphoranylidene)-P,P-diphenylphosphinous amide'
_symmetry_cell_setting           triclinic
_symmetry_space_group_name_H-M   'P -1'
_symmetry_Int_Tables_number      2
_space_group_name_Hall           '-P 1'
loop_
_symmetry_equiv_pos_site_id
_symmetry_equiv_pos_as_xyz
1 x,y,z
2 -x,-y,-z
_cell_length_a                   10.0674(5)
_cell_length_b                   11.7831(6)
_cell_length_c                   12.5396(6)
_cell_angle_alpha                96.9470(10)
_cell_angle_beta                 112.7310(10)
_cell_angle_gamma                98.9730(10)
_cell_volume                     1328.11
_exptl_crystal_colour            yellow
_exptl_crystal_description       prism
_cell_formula_units_Z            2
loop_
_atom_site_label
_atom_site_type_symbol
_atom_site_fract_x
_atom_site_fract_y
_atom_site_fract_z
P1 P -0.30848(6) 0.27747(5) 0.32448(5)
P2 P -0.10981(6) 0.14362(5) 0.26544(5)
N1 N -0.1988(2) 0.69322(17) 0.24663(17)
N2 N -0.1147(2) 0.51392(19) 0.34838(19)
H1 H -0.055(3) 0.582(3) 0.356(2)
H2 H -0.079(3) 0.449(2) 0.366(2)
N3 N -0.16201(19) 0.25716(16) 0.31791(16)
C1 C -0.3070(2) 0.59711(19) 0.22470(19)
C2 C -0.2600(2) 0.49928(18) 0.27747(18)
C3 C -0.3665(2) 0.39758(18) 0.25643(18)
C4 C -0.5175(2) 0.39244(19) 0.18490(18)
H3 H -0.5890 0.3229 0.1706
C5 C -0.5624(2) 0.4849(2) 0.13625(19)
H4 H -0.6640 0.4791 0.0888
C6 C -0.4580(2) 0.5895(2) 0.15638(18)
C7 C -0.4960(3) 0.6917(2) 0.1143(2)
H5 H -0.5963 0.6920 0.0683
C8 C -0.3881(3) 0.7892(2) 0.1400(2)
H6 H -0.4125 0.8589 0.1144
C9 C -0.2401(3) 0.7856(2) 0.2050(2)
H7 H -0.1658 0.8534 0.2198
C10 C -0.2780(2) 0.31837(18) 0.47738(18)
C11 C -0.1932(2) 0.2596(2) 0.55884(19)
H8 H -0.1505 0.2010 0.5339
C12 C -0.1708(3) 0.2858(2) 0.6760(2)
H9 H -0.1158 0.2434 0.7307
C13 C -0.2281(3) 0.3734(2) 0.7133(2)
H10 H -0.2126 0.3912 0.7937
C14 C -0.3079(3) 0.4353(2) 0.6345(2)
H11 H -0.3445 0.4975 0.6610
C15 C -0.3346(3) 0.4068(2) 0.5162(2)
H12 H -0.3919 0.4481 0.4616
C16 C -0.4634(2) 0.15337(18) 0.25936(18)
C17 C -0.5306(2) 0.0989(2) 0.32407(19)
H13 H -0.4994 0.1307 0.4054
C18 C -0.6426(2) -0.0013(2) 0.2709(2)
H14 H -0.6871 -0.0382 0.3158
C19 C -0.6895(2) -0.0476(2) 0.1519(2)
H15 H -0.7656 -0.1166 0.1155
C20 C -0.6253(2) 0.0070(2) 0.0861(2)
H16 H -0.6594 -0.0235 0.0041
C21 C -0.5122(2) 0.1052(2) 0.13926(19)
H17 H -0.4668 0.1407 0.0941
C22 C -0.0461(2) 0.20420(19) 0.16015(18)
C23 C -0.0872(3) 0.3039(2) 0.11860(19)
H18 H -0.1478 0.3421 0.1458
C24 C -0.0403(3) 0.3476(2) 0.0380(2)
H19 H -0.0693 0.4153 0.0105
C25 C 0.0482(3) 0.2931(2) -0.0025(2)
H20 H 0.0807 0.3236 -0.0572
C26 C 0.0890(3) 0.1944(3) 0.0372(2)
H21 H 0.1496 0.1565 0.0096
C27 C 0.0415(3) 0.1503(2) 0.1171(2)
H22 H 0.0696 0.0817 0.1431
C28 C 0.0742(2) 0.15614(19) 0.38449(18)
C29 C 0.1775(3) 0.2620(2) 0.4315(2)
H23 H 0.1536 0.3298 0.4014
C30 C 0.3144(3) 0.2705(2) 0.5213(2)
H24 H 0.3836 0.3437 0.5524
C31 C 0.3506(3) 0.1726(2) 0.5658(2)
H25 H 0.4457 0.1778 0.6261
C32 C 0.2491(3) 0.0681(2) 0.5227(2)
H26 H 0.2727 0.0013 0.5551
C33 C 0.1112(3) 0.0590(2) 0.4315(2)
H27 H 0.0421 -0.0143 0.4013
loop_
_geom_bond_atom_site_label_1
_geom_bond_atom_site_label_2
_geom_bond_site_symmetry_1
_geom_bond_site_symmetry_2
P1 N3 1_555 1_555
P2 N3 1_555 1_555
N1 C1 1_555 1_555
N2 H1 1_555 1_555
H2 N2 1_555 1_555
C1 C2 1_555 1_555
C2 N2 1_555 1_555
C3 P1 1_555 1_555
C4 C3 1_555 1_555
H3 C4 1_555 1_555
C5 C4 1_555 1_555
H4 C5 1_555 1_555
C6 C1 1_555 1_555
C7 C6 1_555 1_555
H5 C7 1_555 1_555
C8 C7 1_555 1_555
H6 C8 1_555 1_555
C9 N1 1_555 1_555
H7 C9 1_555 1_555
C10 P1 1_555 1_555
C11 C10 1_555 1_555
H8 C11 1_555 1_555
C12 C11 1_555 1_555
H9 C12 1_555 1_555
C13 C12 1_555 1_555
H10 C13 1_555 1_555
C14 C13 1_555 1_555
H11 C14 1_555 1_555
C15 C10 1_555 1_555
H12 C15 1_555 1_555
C16 P1 1_555 1_555
C17 C16 1_555 1_555
H13 C17 1_555 1_555
C18 C17 1_555 1_555
H14 C18 1_555 1_555
C19 C18 1_555 1_555
H15 C19 1_555 1_555
C20 C19 1_555 1_555
H16 C20 1_555 1_555
C21 C16 1_555 1_555
H17 C21 1_555 1_555
C22 P2 1_555 1_555
C23 C22 1_555 1_555
H18 C23 1_555 1_555
C24 C23 1_555 1_555
H19 C24 1_555 1_555
C25 C24 1_555 1_555
H20 C25 1_555 1_555
C26 C25 1_555 1_555
H21 C26 1_555 1_555
C27 C22 1_555 1_555
H22 C27 1_555 1_555
C28 P2 1_555 1_555
C29 C28 1_555 1_555
H23 C29 1_555 1_555
C30 C29 1_555 1_555
H24 C30 1_555 1_555
C31 C30 1_555 1_555
H25 C31 1_555 1_555
C32 C31 1_555 1_555
H26 C32 1_555 1_555
C33 C28 1_555 1_555
H27 C33 1_555 1_555
C2 C3 1_555 1_555
C5 C6 1_555 1_555
C8 C9 1_555 1_555
C14 C15 1_555 1_555
C20 C21 1_555 1_555
C26 C27 1_555 1_555
C32 C33 1_555 1_555

#END
