
#######################################################################
#
#                 Cambridge Crystallographic Data Centre
#                                CCDC 
#
#######################################################################
#
# If this CIF has been generated from an entry in the Cambridge 
# Structural Database, then it will include bibliographic, chemical, 
# crystal, experimental, refinement or atomic coordinate data resulting 
# from the CCDC's data processing and validation procedures.
#
#######################################################################

data_AWEVOP
_chemical_formula_moiety         'C17 H12 B1 Br1 F2 N2 O1'
_chemical_name_systematic        
3-(4-bromophenyl)-1,1-difluoro-5-methyl-1H-[1,3,2]oxazaborinino[3,4-a]quinoxaline
_symmetry_cell_setting           triclinic
_symmetry_space_group_name_H-M   'P -1'
_symmetry_Int_Tables_number      2
_space_group_name_Hall           '-P 1'
loop_
_symmetry_equiv_pos_site_id
_symmetry_equiv_pos_as_xyz
1 x,y,z
2 -x,-y,-z
_cell_length_a                   7.112(4)
_cell_length_b                   9.986(6)
_cell_length_c                   11.850(7)
_cell_angle_alpha                106.636(12)
_cell_angle_beta                 102.897(12)
_cell_angle_gamma                90.639(12)
_cell_volume                     783.481
_exptl_crystal_colour            yellow
_exptl_crystal_description       Needle
_cell_formula_units_Z            2
loop_
_atom_site_label
_atom_site_type_symbol
_atom_site_fract_x
_atom_site_fract_y
_atom_site_fract_z
Br2 Br 0.6050(4) 0.85833(12) 0.04981(8)
C1 C 0.6459(9) 0.7517(7) 0.1616(6)
C2 C 0.6706(10) 0.6114(7) 0.1217(6)
H1 H 0.6738 0.5697 0.0413
C3 C 0.6909(9) 0.5318(6) 0.2022(5)
H2 H 0.7017 0.4358 0.1746
C4 C 0.6951(8) 0.5958(6) 0.3244(5)
C5 C 0.6768(9) 0.7395(6) 0.3615(5)
H3 H 0.6812 0.7839 0.4427
C6 C 0.6523(10) 0.8182(7) 0.2811(5)
H4 H 0.6405 0.9142 0.3075
C7 C 0.7222(8) 0.5128(6) 0.4112(5)
C8 C 0.7595(8) 0.5712(6) 0.5338(5)
H5 H 0.7665 0.6682 0.5656
C9 C 0.7878(8) 0.4887(6) 0.6135(5)
B1 B 0.7332(10) 0.2735(7) 0.4284(6)
C10 C 0.8054(8) 0.2691(6) 0.6526(5)
C11 C 0.8028(10) 0.1224(6) 0.6160(6)
H6 H 0.7857 0.0737 0.5343
C12 C 0.8253(11) 0.0511(7) 0.6999(7)
H7 H 0.8231 -0.0462 0.6745
C13 C 0.8517(10) 0.1217(7) 0.8236(7)
H8 H 0.8657 0.0714 0.8795
C14 C 0.8570(10) 0.2640(7) 0.8616(6)
H9 H 0.8761 0.3108 0.9439
C15 C 0.8337(8) 0.3407(6) 0.7779(5)
C16 C 0.8235(8) 0.5569(6) 0.7440(5)
C17 C 0.8470(11) 0.7137(6) 0.7921(5)
H10 H 0.8699 0.7415 0.8788
H11 H 0.7314 0.7516 0.7590
H12 H 0.9548 0.7484 0.7692
N1 N 0.7780(7) 0.3484(5) 0.5716(4)
N2 N 0.8445(7) 0.4853(5) 0.8218(4)
O1 O 0.7108(7) 0.3751(4) 0.3621(3)
F1 F 0.5619(5) 0.1892(4) 0.3963(3)
F2 F 0.8825(5) 0.1922(4) 0.4021(3)
Br1? Br 0.519(17) 0.840(5) 0.0443(10)
loop_
_geom_bond_atom_site_label_1
_geom_bond_atom_site_label_2
_geom_bond_site_symmetry_1
_geom_bond_site_symmetry_2
Br2 C1 1_555 1_555
C1 C2 1_555 1_555
C2 H1 1_555 1_555
C3 C2 1_555 1_555
H2 C3 1_555 1_555
C4 C3 1_555 1_555
C5 C4 1_555 1_555
H3 C5 1_555 1_555
C6 C1 1_555 1_555
H4 C6 1_555 1_555
C7 C4 1_555 1_555
C8 C7 1_555 1_555
H5 C8 1_555 1_555
C9 C8 1_555 1_555
B1 N1 1_555 1_555
C10 C11 1_555 1_555
C11 H6 1_555 1_555
C12 C11 1_555 1_555
H7 C12 1_555 1_555
C13 C12 1_555 1_555
H8 C13 1_555 1_555
C14 C13 1_555 1_555
H9 C14 1_555 1_555
C15 C10 1_555 1_555
C16 C9 1_555 1_555
C17 C16 1_555 1_555
H10 C17 1_555 1_555
H11 C17 1_555 1_555
H12 C17 1_555 1_555
N1 C9 1_555 1_555
N2 C15 1_555 1_555
O1 C7 1_555 1_555
F1 B1 1_555 1_555
F2 B1 1_555 1_555
C5 C6 1_555 1_555
B1 O1 1_555 1_555
C10 N1 1_555 1_555
C14 C15 1_555 1_555
C16 N2 1_555 1_555

#END
