
#######################################################################
#
#                 Cambridge Crystallographic Data Centre
#                                CCDC 
#
#######################################################################
#
# If this CIF has been generated from an entry in the Cambridge 
# Structural Database, then it will include bibliographic, chemical, 
# crystal, experimental, refinement or atomic coordinate data resulting 
# from the CCDC's data processing and validation procedures.
#
#######################################################################

data_AWIVEI
_chemical_formula_moiety         'C19 H23 N7 O2,2(H2 O1)'
_chemical_name_systematic        
'1-cyclopropyl-3-(3-(6-(morpholin-4-ylmethyl)-1H-benzimidazol-2-yl)-1H-pyrazol-4-yl)urea dihydrate'
_symmetry_cell_setting           monoclinic
_symmetry_space_group_name_H-M   'P 21/n'
_symmetry_Int_Tables_number      14
_space_group_name_Hall           '-P 2yn'
loop_
_symmetry_equiv_pos_site_id
_symmetry_equiv_pos_as_xyz
1 x,y,z
2 1/2-x,1/2+y,1/2-z
3 -x,-y,-z
4 1/2+x,1/2-y,1/2+z
_cell_length_a                   7.662(10)
_cell_length_b                   15.184(10)
_cell_length_c                   17.711(10)
_cell_angle_alpha                90
_cell_angle_beta                 98.53(2)
_cell_angle_gamma                90
_cell_volume                     2037.7
_cell_formula_units_Z            4
loop_
_atom_site_label
_atom_site_type_symbol
_atom_site_fract_x
_atom_site_fract_y
_atom_site_fract_z
N1 N 0.4468(4) 0.0332(2) 0.71441(19)
H1 H 0.5453 0.0189 0.6973
N2 N 0.3749(4) -0.01642(19) 0.76559(19)
C1 C 0.2277(5) 0.0286(2) 0.7751(2)
C2 C 0.2074(6) 0.1060(2) 0.7308(2)
C3 C 0.3539(5) 0.1058(3) 0.6923(2)
H2 H 0.3822 0.1490 0.6572
C4 C 0.1101(5) -0.0035(2) 0.8265(2)
N3 N 0.1457(5) -0.0752(2) 0.87205(19)
H3 H 0.2403 -0.1087 0.8758
C5 C 0.0015(6) -0.0852(2) 0.9119(2)
C6 C -0.0262(6) -0.1443(2) 0.9695(2)
H4 H 0.0553 -0.1898 0.9865
C7 C -0.1833(5) -0.1319(2) 1.0008(2)
C8 C -0.3006(6) -0.0649(3) 0.9758(2)
H5 H -0.4052 -0.0590 0.9982
C9 C -0.2704(6) -0.0064(3) 0.9194(2)
H6 H -0.3527 0.0387 0.9023
C10 C -0.1115(6) -0.0163(2) 0.8878(2)
N4 N -0.0434(4) 0.03474(19) 0.83324(19)
C11 C -0.2143(5) -0.1900(2) 1.0676(2)
H7 H -0.1009 -0.1979 1.1018
H8 H -0.2963 -0.1593 1.0970
N5 N -0.2871(5) -0.2772(2) 1.04532(18)
C12 C -0.4708(6) -0.2702(3) 1.0075(2)
H9 H -0.4749 -0.2350 0.9602
H10 H -0.5421 -0.2395 1.0416
C13 C -0.5484(6) -0.3603(3) 0.9879(2)
H11 H -0.6723 -0.3540 0.9631
H12 H -0.4814 -0.3896 0.9513
O1 O -0.5428(4) -0.41359(18) 1.05435(16)
C14 C -0.3636(6) -0.4216(3) 1.0925(3)
H13 H -0.2914 -0.4518 1.0584
H14 H -0.3617 -0.4580 1.1390
C15 C -0.2855(6) -0.3338(3) 1.1140(2)
H15 H -0.3537 -0.3048 1.1503
H16 H -0.1626 -0.3413 1.1397
N6 N 0.0659(4) 0.16310(19) 0.72860(18)
H17 H -0.0267 0.1453 0.7484
C16 C 0.0617(5) 0.2451(2) 0.6976(2)
O2 O 0.1870(4) 0.27405(17) 0.66702(16)
N7 N -0.0851(4) 0.2937(2) 0.70242(19)
H18 H -0.0807 0.3509 0.6948
C17 C -0.2479(6) 0.2563(3) 0.7194(3)
H19 H -0.3061 0.2121 0.6820
C18 C -0.3687(6) 0.3144(3) 0.7561(2)
H20 H -0.4974 0.3069 0.7404
H21 H -0.3304 0.3757 0.7681
C19 C -0.2705(6) 0.2417(3) 0.8022(3)
H22 H -0.3387 0.1896 0.8144
H23 H -0.1716 0.2585 0.8421
O3 O -0.0371(4) -0.37444(18) 0.97522(18)
H24 H 0.0243 -0.4072 1.0168
H25 H -0.1218 -0.3425 0.9983
O4 O 0.1516(4) -0.4721(2) 1.1013(2)
H26 H 0.113(7) -0.509(4) 1.067(3)
H27 H 0.2534 -0.4527 1.0856
loop_
_geom_bond_atom_site_label_1
_geom_bond_atom_site_label_2
_geom_bond_site_symmetry_1
_geom_bond_site_symmetry_2
N1 H1 1_555 1_555
N2 N1 1_555 1_555
C1 N2 1_555 1_555
C2 C1 1_555 1_555
C3 N1 1_555 1_555
H2 C3 1_555 1_555
C4 C1 1_555 1_555
N3 C4 1_555 1_555
H3 N3 1_555 1_555
C5 N3 1_555 1_555
C6 C5 1_555 1_555
H4 C6 1_555 1_555
C7 C6 1_555 1_555
C8 C7 1_555 1_555
H5 C8 1_555 1_555
C9 C8 1_555 1_555
H6 C9 1_555 1_555
C10 C5 1_555 1_555
N4 C4 1_555 1_555
C11 C7 1_555 1_555
H7 C11 1_555 1_555
H8 C11 1_555 1_555
N5 C11 1_555 1_555
C12 N5 1_555 1_555
H9 C12 1_555 1_555
H10 C12 1_555 1_555
C13 C12 1_555 1_555
H11 C13 1_555 1_555
H12 C13 1_555 1_555
O1 C13 1_555 1_555
C14 O1 1_555 1_555
H13 C14 1_555 1_555
H14 C14 1_555 1_555
C15 N5 1_555 1_555
H15 C15 1_555 1_555
H16 C15 1_555 1_555
N6 C2 1_555 1_555
H17 N6 1_555 1_555
C16 N6 1_555 1_555
O2 C16 1_555 1_555
N7 C16 1_555 1_555
H18 N7 1_555 1_555
C17 N7 1_555 1_555
H19 C17 1_555 1_555
C18 C17 1_555 1_555
H20 C18 1_555 1_555
H21 C18 1_555 1_555
C19 C17 1_555 1_555
H22 C19 1_555 1_555
H23 C19 1_555 1_555
O3 H24 1_555 1_555
H25 O3 1_555 1_555
O4 H26 1_555 1_555
H27 O4 1_555 1_555
C2 C3 1_555 1_555
C9 C10 1_555 1_555
C10 N4 1_555 1_555
C14 C15 1_555 1_555
C18 C19 1_555 1_555

#END
