
#######################################################################
#
#                 Cambridge Crystallographic Data Centre
#                                CCDC 
#
#######################################################################
#
# If this CIF has been generated from an entry in the Cambridge 
# Structural Database, then it will include bibliographic, chemical, 
# crystal, experimental, refinement or atomic coordinate data resulting 
# from the CCDC's data processing and validation procedures.
#
#######################################################################

data_AWUKUA
_chemical_formula_moiety         'C24 H10 B1 F10 N1'
_chemical_name_systematic        
6,7,8,9,10-pentafluoro-6-(pentafluorophenyl)-6,11-dihydro-5,6-dibenzo[c,f]pyrido[2,1-h][1,2]azaborocine
_symmetry_cell_setting           monoclinic
_symmetry_space_group_name_H-M   'P 21/n'
_symmetry_Int_Tables_number      14
_space_group_name_Hall           '-P 2yn'
loop_
_symmetry_equiv_pos_site_id
_symmetry_equiv_pos_as_xyz
1 x,y,z
2 1/2-x,1/2+y,1/2-z
3 -x,-y,-z
4 1/2+x,1/2-y,1/2+z
_cell_length_a                   9.7376(3)
_cell_length_b                   16.5554(5)
_cell_length_c                   12.6822(4)
_cell_angle_alpha                90
_cell_angle_beta                 101.085(2)
_cell_angle_gamma                90
_cell_volume                     2006.35
_exptl_crystal_colour            colorless
_exptl_crystal_description       block
_cell_formula_units_Z            4
loop_
_atom_site_label
_atom_site_type_symbol
_atom_site_fract_x
_atom_site_fract_y
_atom_site_fract_z
B1 B 0.37206(17) 0.29030(10) 0.02155(13)
N1 N 0.44939(12) 0.34652(7) 0.12416(10)
F1 F 0.38405(9) 0.33834(5) -0.06788(7)
F2 F 0.70882(10) 0.05796(6) 0.14358(8)
F3 F 0.67412(11) 0.00385(6) -0.05853(9)
F4 F 0.47989(12) 0.07374(6) -0.21460(8)
F5 F 0.33673(11) 0.20125(6) -0.17043(7)
F6 F 0.18549(9) 0.14337(5) 0.02980(8)
F7 F -0.07667(10) 0.14813(6) 0.05852(8)
F8 F -0.20510(9) 0.29160(7) 0.07772(8)
F9 F -0.06550(10) 0.43175(6) 0.06154(8)
F10 F 0.20005(9) 0.42902(5) 0.03536(8)
C1 C 0.57011(15) 0.18944(10) 0.21077(12)
H1 H 0.6336 0.1515 0.2535
H2 H 0.6130 0.2425 0.2193
C2 C 0.43363(15) 0.19120(9) 0.25063(11)
C3 C 0.37854(17) 0.12008(10) 0.28402(12)
H3 H 0.4267 0.0717 0.2823
C4 C 0.25314(18) 0.12055(11) 0.31973(13)
H4 H 0.2168 0.0725 0.3406
C5 C 0.18135(17) 0.19205(12) 0.32464(13)
H5 H 0.0968 0.1921 0.3484
C6 C 0.23556(16) 0.26323(11) 0.29413(12)
H6 H 0.1889 0.3116 0.2996
C7 C 0.35997(15) 0.26315(9) 0.25511(11)
C8 C 0.42052(15) 0.33957(9) 0.22422(12)
C9 C 0.45483(17) 0.40150(10) 0.29811(13)
H7 H 0.4288 0.3982 0.3648
C10 C 0.52737(18) 0.46792(11) 0.27309(15)
H8 H 0.5487 0.5102 0.3218
C11 C 0.56786(18) 0.47090(11) 0.17496(16)
H9 H 0.6230 0.5132 0.1584
C12 C 0.52537(16) 0.41028(10) 0.10180(14)
H10 H 0.5498 0.4133 0.0346
C13 C 0.45270(14) 0.20517(9) 0.01252(11)
C14 C 0.54689(14) 0.16488(9) 0.09367(11)
C15 C 0.61769(15) 0.09769(9) 0.06708(12)
C16 C 0.59957(16) 0.06755(9) -0.03546(13)
C17 C 0.50250(17) 0.10308(10) -0.11380(12)
C18 C 0.43178(15) 0.17027(9) -0.08869(12)
C19 C 0.20724(14) 0.28616(9) 0.03184(11)
C20 C 0.13447(15) 0.35741(9) 0.03947(11)
C21 C -0.00200(16) 0.36080(10) 0.05460(12)
C22 C -0.07291(15) 0.29005(11) 0.06185(12)
C23 C -0.00756(16) 0.21787(10) 0.05219(12)
C24 C 0.12930(15) 0.21684(9) 0.03662(11)
loop_
_geom_bond_atom_site_label_1
_geom_bond_atom_site_label_2
_geom_bond_site_symmetry_1
_geom_bond_site_symmetry_2
B1 N1 1_555 1_555
N1 C8 1_555 1_555
F1 B1 1_555 1_555
F2 C15 1_555 1_555
F3 C16 1_555 1_555
F4 C17 1_555 1_555
F5 C18 1_555 1_555
F6 C24 1_555 1_555
F7 C23 1_555 1_555
F8 C22 1_555 1_555
F9 C21 1_555 1_555
F10 C20 1_555 1_555
C1 H1 1_555 1_555
H2 C1 1_555 1_555
C2 C1 1_555 1_555
C3 C2 1_555 1_555
H3 C3 1_555 1_555
C4 C3 1_555 1_555
H4 C4 1_555 1_555
C5 C4 1_555 1_555
H5 C5 1_555 1_555
C6 C5 1_555 1_555
H6 C6 1_555 1_555
C7 C2 1_555 1_555
C8 C7 1_555 1_555
C9 C8 1_555 1_555
H7 C9 1_555 1_555
C10 C9 1_555 1_555
H8 C10 1_555 1_555
C11 C10 1_555 1_555
H9 C11 1_555 1_555
C12 N1 1_555 1_555
H10 C12 1_555 1_555
C13 B1 1_555 1_555
C14 C1 1_555 1_555
C15 C14 1_555 1_555
C16 C15 1_555 1_555
C17 C16 1_555 1_555
C18 C13 1_555 1_555
C19 B1 1_555 1_555
C20 C19 1_555 1_555
C21 C20 1_555 1_555
C22 C21 1_555 1_555
C23 C22 1_555 1_555
C24 C19 1_555 1_555
C6 C7 1_555 1_555
C11 C12 1_555 1_555
C13 C14 1_555 1_555
C17 C18 1_555 1_555
C23 C24 1_555 1_555

#END
