
#######################################################################
#
#                 Cambridge Crystallographic Data Centre
#                                CCDC 
#
#######################################################################
#
# If this CIF has been generated from an entry in the Cambridge 
# Structural Database, then it will include bibliographic, chemical, 
# crystal, experimental, refinement or atomic coordinate data resulting 
# from the CCDC's data processing and validation procedures.
#
#######################################################################

data_AWUNUC
_chemical_formula_moiety         'C17 H13 N3 O2'
_chemical_name_systematic        
3-Hydroxy-N'-[(E)-3-pyridylmethylidene]-2-naphthohydrazide
_symmetry_cell_setting           orthorhombic
_symmetry_space_group_name_H-M   'P b c a'
_symmetry_Int_Tables_number      61
_space_group_name_Hall           '-P 2ac 2ab'
loop_
_symmetry_equiv_pos_site_id
_symmetry_equiv_pos_as_xyz
1 x,y,z
2 1/2-x,-y,1/2+z
3 -x,1/2+y,1/2-z
4 1/2+x,1/2-y,-z
5 -x,-y,-z
6 1/2+x,y,1/2-z
7 x,1/2-y,1/2+z
8 1/2-x,1/2+y,z
_cell_length_a                   11.0976(11)
_cell_length_b                   10.4422(9)
_cell_length_c                   23.9903(17)
_cell_angle_alpha                90
_cell_angle_beta                 90
_cell_angle_gamma                90
_cell_volume                     2780.08
_exptl_crystal_colour            brown
_exptl_crystal_description       block
_cell_formula_units_Z            8
_exptl_crystal_recrystallization_method methanol
loop_
_atom_site_label
_atom_site_type_symbol
_atom_site_fract_x
_atom_site_fract_y
_atom_site_fract_z
N1 N 0.72696(12) 0.13202(13) 0.68223(5)
H1 H 0.6567 0.1573 0.6719
N2 N 0.73782(12) 0.03490(13) 0.72100(5)
N3 N 0.51884(13) -0.26353(14) 0.83141(6)
O1 O 0.92858(10) 0.16623(12) 0.67932(5)
O2 O 0.99947(10) 0.37468(13) 0.62980(5)
H2 H 1.0011 0.3162 0.6526
C1 C 0.89726(14) 0.36595(16) 0.59886(7)
C2 C 0.88220(15) 0.44499(16) 0.55447(7)
H3 H 0.9415 0.5053 0.5466
C3 C 0.77958(15) 0.43855(15) 0.51990(6)
C4 C 0.76205(18) 0.51752(17) 0.47290(7)
H4 H 0.8195 0.5790 0.4640
C5 C 0.66274(19) 0.50506(18) 0.44061(7)
H5 H 0.6528 0.5587 0.4100
C6 C 0.57495(18) 0.41305(17) 0.45245(7)
H6 H 0.5079 0.4048 0.4295
C7 C 0.58781(16) 0.33592(16) 0.49747(7)
H7 H 0.5288 0.2754 0.5054
C8 C 0.68986(15) 0.34632(15) 0.53254(6)
C9 C 0.70638(15) 0.26731(15) 0.57943(6)
H8 H 0.6471 0.2076 0.5881
C10 C 0.80619(14) 0.27488(15) 0.61284(6)
C11 C 0.82639(15) 0.18724(16) 0.66058(6)
C12 C 0.64006(16) -0.00150(16) 0.74330(6)
H9 H 0.5686 0.0406 0.7347
C13 C 0.63850(14) -0.10870(15) 0.78229(6)
C14 C 0.74226(16) -0.16753(17) 0.80160(7)
H10 H 0.8176 -0.1357 0.7918
C15 C 0.62105(17) -0.31857(17) 0.84855(7)
H11 H 0.6158 -0.3916 0.8706
C16 C 0.53001(16) -0.15897(18) 0.79985(7)
H12 H 0.4599 -0.1172 0.7890
C17 C 0.73317(16) -0.27280(17) 0.83522(7)
H13 H 0.8020 -0.3128 0.8489
loop_
_geom_bond_atom_site_label_1
_geom_bond_atom_site_label_2
_geom_bond_site_symmetry_1
_geom_bond_site_symmetry_2
N1 H1 1_555 1_555
N2 N1 1_555 1_555
N3 C15 1_555 1_555
O1 C11 1_555 1_555
O2 H2 1_555 1_555
C1 O2 1_555 1_555
C2 C1 1_555 1_555
H3 C2 1_555 1_555
C3 C2 1_555 1_555
C4 C3 1_555 1_555
H4 C4 1_555 1_555
C5 C4 1_555 1_555
H5 C5 1_555 1_555
C6 C5 1_555 1_555
H6 C6 1_555 1_555
C7 C6 1_555 1_555
H7 C7 1_555 1_555
C8 C3 1_555 1_555
C9 C8 1_555 1_555
H8 C9 1_555 1_555
C10 C1 1_555 1_555
C11 N1 1_555 1_555
C12 N2 1_555 1_555
H9 C12 1_555 1_555
C13 C12 1_555 1_555
C14 C13 1_555 1_555
H10 C14 1_555 1_555
C15 H11 1_555 1_555
C16 N3 1_555 1_555
H12 C16 1_555 1_555
C17 C14 1_555 1_555
H13 C17 1_555 1_555
C7 C8 1_555 1_555
C9 C10 1_555 1_555
C10 C11 1_555 1_555
C13 C16 1_555 1_555
C15 C17 1_555 1_555

#END
