
#######################################################################
#
#                 Cambridge Crystallographic Data Centre
#                                CCDC 
#
#######################################################################
#
# If this CIF has been generated from an entry in the Cambridge 
# Structural Database, then it will include bibliographic, chemical, 
# crystal, experimental, refinement or atomic coordinate data resulting 
# from the CCDC's data processing and validation procedures.
#
#######################################################################

data_AWUPIT
_chemical_formula_moiety         'C23 H19 Cl1 F3 N1 O2 S1'
_chemical_name_systematic        
2-(4-chlorophenyl)-4-phenyl-1-((4-(trifluoromethyl)phenyl)sulfonyl)pyrrolidine
_symmetry_cell_setting           monoclinic
_symmetry_space_group_name_H-M   'P 21/c'
_symmetry_Int_Tables_number      14
_space_group_name_Hall           '-P 2ybc'
loop_
_symmetry_equiv_pos_site_id
_symmetry_equiv_pos_as_xyz
1 x,y,z
2 -x,1/2+y,1/2-z
3 -x,-y,-z
4 x,1/2-y,1/2+z
_cell_length_a                   15.6602(17)
_cell_length_b                   18.7951(19)
_cell_length_c                   7.4123(8)
_cell_angle_alpha                90
_cell_angle_beta                 99.029(3)
_cell_angle_gamma                90
_cell_volume                     2154.67
_exptl_crystal_colour            colorless
_exptl_crystal_description       block
_cell_formula_units_Z            4
loop_
_atom_site_label
_atom_site_type_symbol
_atom_site_fract_x
_atom_site_fract_y
_atom_site_fract_z
S1 S 0.64886(3) 0.61416(2) 0.01683(6)
Cl1 Cl 0.87398(5) 0.32056(3) -0.35554(10)
O1 O 0.66299(9) 0.68460(6) -0.0469(2)
F1 F 0.33420(10) 0.59698(8) 0.5268(2)
O2 O 0.61949(10) 0.55854(7) -0.1086(2)
F2 F 0.43801(10) 0.63551(11) 0.7210(2)
F3 F 0.36146(11) 0.70721(8) 0.5425(3)
N1 N 0.73962(10) 0.58820(7) 0.1323(2)
C1 C 0.84414(13) 0.48733(9) -0.0413(3)
H1 H 0.8676 0.5326 -0.0212
C2 C 0.77958(12) 0.46521(8) 0.0545(3)
C3 C 0.56774(12) 0.68665(9) 0.2600(3)
H2 H 0.6018 0.7251 0.2372
C4 C 0.57431(12) 0.62208(9) 0.1715(3)
C5 C 0.87401(14) 0.44283(11) -0.1661(3)
H3 H 0.9177 0.4577 -0.2291
C6 C 0.52347(13) 0.56422(9) 0.2058(3)
H4 H 0.5284 0.5211 0.1466
C7 C 0.74504(13) 0.39778(9) 0.0225(3)
H5 H 0.7016 0.3825 0.0858
C8 C 0.74775(13) 0.51235(9) 0.1936(3)
H6 H 0.6930 0.4947 0.2245
C9 C 0.45914(12) 0.63564(10) 0.4158(3)
C10 C 0.95795(16) 0.61331(12) 0.6168(3)
H7 H 0.9847 0.5879 0.5336
C11 C 1.00739(14) 0.64411(12) 0.7659(3)
H8 H 1.0672 0.6393 0.7838
C12 C 0.39849(14) 0.64348(11) 0.5499(3)
C13 C 0.83808(14) 0.37597(10) -0.1961(3)
C14 C 0.46583(13) 0.57113(10) 0.3277(3)
H9 H 0.4316 0.5328 0.3508
C15 C 0.51028(13) 0.69304(9) 0.3818(3)
H10 H 0.5056 0.7360 0.4417
C16 C 0.96824(16) 0.68187(10) 0.8882(3)
H11 H 1.0014 0.7027 0.9895
C17 C 0.86866(17) 0.61961(10) 0.5889(4)
C18 C 0.83093(14) 0.65806(12) 0.7144(4)
H12 H 0.7711 0.6629 0.6988
C19 C 0.77430(14) 0.35259(10) -0.1027(3)
H13 H 0.7511 0.3072 -0.1229
C20 C 0.88062(17) 0.68886(12) 0.8608(4)
H14 H 0.8543 0.7151 0.9433
C21 C 0.79852(19) 0.58946(14) 0.4478(4)
H15 H 0.7439 0.5870 0.4965
C22 C 0.7879(8) 0.6390(8) 0.2724(13)
H16 H 0.7542 0.6812 0.2879
H17 H 0.8434 0.6528 0.2409
C23 C 0.8194(4) 0.5167(4) 0.3697(10)
H18 H 0.8134 0.4784 0.4545
H19 H 0.8772 0.5158 0.3381
C24? C 0.8440(3) 0.5871(2) 0.3797(7)
H20? H 0.8951 0.5802 0.3204
C25? C 0.7804(12) 0.6318(11) 0.275(2)
H21? H 0.7390 0.6487 0.3500
H22? H 0.8075 0.6725 0.2270
C26? C 0.7921(6) 0.5194(6) 0.3852(17)
H23? H 0.8294 0.4790 0.4208
H24? H 0.7506 0.5238 0.4691
loop_
_geom_bond_atom_site_label_1
_geom_bond_atom_site_label_2
_geom_bond_site_symmetry_1
_geom_bond_site_symmetry_2
S1 O1 1_555 1_555
Cl1 C13 1_555 1_555
F1 C12 1_555 1_555
O2 S1 1_555 1_555
F2 C12 1_555 1_555
F3 C12 1_555 1_555
N1 S1 1_555 1_555
C1 H1 1_555 1_555
C2 C1 1_555 1_555
C3 H2 1_555 1_555
C4 S1 1_555 1_555
C5 C1 1_555 1_555
H3 C5 1_555 1_555
C6 C4 1_555 1_555
H4 C6 1_555 1_555
C7 C2 1_555 1_555
H5 C7 1_555 1_555
C8 N1 1_555 1_555
H6 C8 1_555 1_555
C9 C12 1_555 1_555
C10 H7 1_555 1_555
C11 C10 1_555 1_555
H8 C11 1_555 1_555
C13 C5 1_555 1_555
C14 C6 1_555 1_555
H9 C14 1_555 1_555
C15 C3 1_555 1_555
H10 C15 1_555 1_555
C16 C11 1_555 1_555
H11 C16 1_555 1_555
C17 C10 1_555 1_555
C18 C17 1_555 1_555
H12 C18 1_555 1_555
C19 C7 1_555 1_555
H13 C19 1_555 1_555
C20 C16 1_555 1_555
H14 C20 1_555 1_555
C21 C17 1_555 1_555
H15 C21 1_555 1_555
C22 N1 1_555 1_555
H16 C22 1_555 1_555
H17 C22 1_555 1_555
C23 C8 1_555 1_555
H18 C23 1_555 1_555
H19 C23 1_555 1_555
C2 C8 1_555 1_555
C3 C4 1_555 1_555
C9 C14 1_555 1_555
C9 C15 1_555 1_555
C13 C19 1_555 1_555
C18 C20 1_555 1_555
C21 C22 1_555 1_555
C21 C23 1_555 1_555

#END
