
#######################################################################
#
#                 Cambridge Crystallographic Data Centre
#                                CCDC 
#
#######################################################################
#
# If this CIF has been generated from an entry in the Cambridge 
# Structural Database, then it will include bibliographic, chemical, 
# crystal, experimental, refinement or atomic coordinate data resulting 
# from the CCDC's data processing and validation procedures.
#
#######################################################################

data_AWUROB
_chemical_formula_moiety         'C28 H48 O4 Si1'
_chemical_name_systematic        
8'-((t-butyl(dimethyl)silyl)oxy)-10a',12a'-dimethyloctadecahydro-5H-spiro[furan-2,2'-naphtho[2,1-f]chromen]-5-one
_symmetry_cell_setting           monoclinic
_symmetry_space_group_name_H-M   'P 21'
_symmetry_Int_Tables_number      4
_space_group_name_Hall           'P 2yb'
loop_
_symmetry_equiv_pos_site_id
_symmetry_equiv_pos_as_xyz
1 x,y,z
2 -x,1/2+y,-z
_cell_length_a                   8.682(2)
_cell_length_b                   10.303(3)
_cell_length_c                   15.433(4)
_cell_angle_alpha                90
_cell_angle_beta                 101.054(4)
_cell_angle_gamma                90
_cell_volume                     1354.88
_exptl_crystal_colour            colorless
_exptl_crystal_description       plate
_cell_formula_units_Z            2
loop_
_atom_site_label
_atom_site_type_symbol
_atom_site_fract_x
_atom_site_fract_y
_atom_site_fract_z
Si1 Si -0.17910(17) 0.45292(14) 0.19419(9)
O1 O 0.8947(5) 0.5526(4) 0.8954(2)
O2 O 1.0992(6) 0.6601(4) 0.9739(3)
O3 O 0.8623(4) 0.4939(3) 0.7467(2)
O4 O -0.1109(4) 0.5443(4) 0.2806(2)
C1 C 1.0510(7) 0.5719(6) 0.9256(4)
C2 C 1.1445(7) 0.4698(6) 0.8886(4)
H1 H 1.2285 0.4342 0.9350
H2 H 1.1920 0.5053 0.8402
C3 C 1.0219(6) 0.3670(5) 0.8545(4)
H3 H 1.0156 0.3014 0.9006
H4 H 1.0465 0.3228 0.8019
C4 C 0.8694(6) 0.4435(5) 0.8311(3)
C5 C 0.7280(6) 0.3708(5) 0.8447(4)
H5 H 0.7303 0.3635 0.9089
H6 H 0.7328 0.2819 0.8211
C6 C 0.5724(6) 0.4327(5) 0.8009(3)
H7 H 0.4848 0.3720 0.8030
H8 H 0.5541 0.5130 0.8327
C7 C 0.5796(6) 0.4643(5) 0.7055(3)
H9 H 0.6063 0.3812 0.6784
C8 C 0.7156(6) 0.5564(5) 0.7024(3)
C9 C 0.7376(6) 0.5709(5) 0.6072(3)
H10 H 0.8235 0.6333 0.6051
H11 H 0.7683 0.4861 0.5856
C10 C 0.5884(6) 0.6183(5) 0.5470(4)
H12 H 0.6053 0.6199 0.4854
H13 H 0.5663 0.7082 0.5637
C11 C 0.4456(6) 0.5326(5) 0.5519(3)
H14 H 0.4693 0.4452 0.5293
C12 C 0.4251(6) 0.5117(5) 0.6481(3)
H15 H 0.3975 0.5970 0.6719
C13 C 0.2910(6) 0.4170(5) 0.6513(3)
H16 H 0.3210 0.3297 0.6334
H17 H 0.2736 0.4110 0.7127
C14 C 0.1396(6) 0.4584(6) 0.5913(3)
H18 H 0.0586 0.3911 0.5923
H19 H 0.1022 0.5402 0.6139
C15 C 0.1605(6) 0.4787(5) 0.4971(3)
H20 H 0.1985 0.3939 0.4776
C16 C 0.2917(6) 0.5792(5) 0.4910(3)
C17 C 0.3123(7) 0.5816(6) 0.3941(3)
H21 H 0.3905 0.6490 0.3874
H22 H 0.3548 0.4968 0.3797
C18 C 0.1611(7) 0.6087(6) 0.3281(4)
H23 H 0.1252 0.6981 0.3370
H24 H 0.1817 0.6025 0.2674
C19 C 0.0336(6) 0.5131(5) 0.3391(3)
H25 H 0.0672 0.4248 0.3233
C20 C 0.0083(6) 0.5086(5) 0.4329(3)
H26 H -0.0706 0.4412 0.4381
H27 H -0.0331 0.5933 0.4483
C21 C 0.7002(7) 0.6889(5) 0.7442(4)
H28 H 0.7919 0.7422 0.7398
H29 H 0.6938 0.6775 0.8064
H30 H 0.6049 0.7321 0.7131
C22 C 0.2456(7) 0.7145(5) 0.5175(4)
H31 H 0.1437 0.7384 0.4819
H32 H 0.3251 0.7774 0.5076
H33 H 0.2386 0.7145 0.5801
C23 C -0.0367(7) 0.4525(6) 0.1182(3)
H34 H -0.0781 0.3995 0.0662
H35 H 0.0634 0.4160 0.1487
H36 H -0.0202 0.5416 0.0997
C24 C -0.2108(8) 0.2831(6) 0.2305(4)
H37 H -0.2554 0.2303 0.1789
H38 H -0.2834 0.2843 0.2719
H39 H -0.1103 0.2459 0.2596
C25 C -0.3737(7) 0.5252(5) 0.1419(4)
C26 C -0.3524(8) 0.6547(6) 0.0992(5)
H40 H -0.2872 0.6431 0.0545
H41 H -0.3011 0.7158 0.1443
H42 H -0.4552 0.6891 0.0712
C27 C -0.4722(8) 0.5443(7) 0.2124(5)
H43 H -0.4189 0.6051 0.2572
H44 H -0.4860 0.4607 0.2403
H45 H -0.5750 0.5794 0.1853
C28 C -0.4610(8) 0.4307(7) 0.0719(5)
H46 H -0.5636 0.4671 0.0457
H47 H -0.4755 0.3473 0.0998
H48 H -0.3992 0.4175 0.0257
loop_
_geom_bond_atom_site_label_1
_geom_bond_atom_site_label_2
_geom_bond_site_symmetry_1
_geom_bond_site_symmetry_2
Si1 O4 1_555 1_555
O1 C1 1_555 1_555
O2 C1 1_555 1_555
O3 C4 1_555 1_555
O4 C19 1_555 1_555
C1 C2 1_555 1_555
C2 H1 1_555 1_555
H2 C2 1_555 1_555
C3 C2 1_555 1_555
H3 C3 1_555 1_555
H4 C3 1_555 1_555
C4 O1 1_555 1_555
C5 C4 1_555 1_555
H5 C5 1_555 1_555
H6 C5 1_555 1_555
C6 C5 1_555 1_555
H7 C6 1_555 1_555
H8 C6 1_555 1_555
C7 C6 1_555 1_555
H9 C7 1_555 1_555
C8 O3 1_555 1_555
C9 C8 1_555 1_555
H10 C9 1_555 1_555
H11 C9 1_555 1_555
C10 C9 1_555 1_555
H12 C10 1_555 1_555
H13 C10 1_555 1_555
C11 C10 1_555 1_555
H14 C11 1_555 1_555
C12 C7 1_555 1_555
H15 C12 1_555 1_555
C13 C12 1_555 1_555
H16 C13 1_555 1_555
H17 C13 1_555 1_555
C14 C13 1_555 1_555
H18 C14 1_555 1_555
H19 C14 1_555 1_555
C15 C14 1_555 1_555
H20 C15 1_555 1_555
C16 C11 1_555 1_555
C17 C16 1_555 1_555
H21 C17 1_555 1_555
H22 C17 1_555 1_555
C18 C17 1_555 1_555
H23 C18 1_555 1_555
H24 C18 1_555 1_555
C19 C18 1_555 1_555
H25 C19 1_555 1_555
C20 C15 1_555 1_555
H26 C20 1_555 1_555
H27 C20 1_555 1_555
C21 C8 1_555 1_555
H28 C21 1_555 1_555
H29 C21 1_555 1_555
H30 C21 1_555 1_555
C22 C16 1_555 1_555
H31 C22 1_555 1_555
H32 C22 1_555 1_555
H33 C22 1_555 1_555
C23 Si1 1_555 1_555
H34 C23 1_555 1_555
H35 C23 1_555 1_555
H36 C23 1_555 1_555
C24 Si1 1_555 1_555
H37 C24 1_555 1_555
H38 C24 1_555 1_555
H39 C24 1_555 1_555
C25 Si1 1_555 1_555
C26 C25 1_555 1_555
H40 C26 1_555 1_555
H41 C26 1_555 1_555
H42 C26 1_555 1_555
C27 C25 1_555 1_555
H43 C27 1_555 1_555
H44 C27 1_555 1_555
H45 C27 1_555 1_555
C28 C25 1_555 1_555
H46 C28 1_555 1_555
H47 C28 1_555 1_555
H48 C28 1_555 1_555
C3 C4 1_555 1_555
C7 C8 1_555 1_555
C11 C12 1_555 1_555
C15 C16 1_555 1_555
C19 C20 1_555 1_555

#END
