
#######################################################################
#
#                 Cambridge Crystallographic Data Centre
#                                CCDC 
#
#######################################################################
#
# If this CIF has been generated from an entry in the Cambridge 
# Structural Database, then it will include bibliographic, chemical, 
# crystal, experimental, refinement or atomic coordinate data resulting 
# from the CCDC's data processing and validation procedures.
#
#######################################################################

data_AWUSES
_chemical_formula_moiety         'C16 H20 O3'
_chemical_name_systematic        
9,9-dimethyl-7-phenyl-1,6-dioxaspiro[4.5]decan-2-one
_symmetry_cell_setting           orthorhombic
_symmetry_space_group_name_H-M   'P n a 21'
_symmetry_Int_Tables_number      33
_space_group_name_Hall           'P 2c -2n'
loop_
_symmetry_equiv_pos_site_id
_symmetry_equiv_pos_as_xyz
1 x,y,z
2 -x,-y,1/2+z
3 1/2+x,1/2-y,z
4 1/2-x,1/2+y,1/2+z
_cell_length_a                   17.152(8)
_cell_length_b                   5.834(3)
_cell_length_c                   13.480(6)
_cell_angle_alpha                90
_cell_angle_beta                 90
_cell_angle_gamma                90
_cell_volume                     1348.87
_exptl_crystal_colour            colorless
_exptl_crystal_description       plate
_cell_formula_units_Z            4
loop_
_atom_site_label
_atom_site_type_symbol
_atom_site_fract_x
_atom_site_fract_y
_atom_site_fract_z
O1 O 0.7475(2) 0.7506(5) 0.4694(2)
O2 O 0.6501(2) 0.6311(5) 0.5769(2)
O3 O 0.5347(2) 0.4796(6) 0.5434(3)
C1 C 0.8073(3) 0.5929(7) 0.5015(3)
H1 H 0.7823 0.4489 0.5263
C2 C 0.5808(3) 0.6284(9) 0.5282(3)
C3 C 0.8566(3) 0.5389(8) 0.4135(3)
C4 C 0.8729(3) 0.7036(8) 0.3428(3)
H2 H 0.8487 0.8498 0.3473
C5 C 0.6972(3) 0.8244(8) 0.5442(3)
C6 C 0.9235(3) 0.6588(9) 0.2660(3)
H3 H 0.9350 0.7742 0.2184
C7 C 0.7404(3) 0.9216(8) 0.6321(3)
H4 H 0.7024 0.9459 0.6864
H5 H 0.7612 1.0737 0.6133
C8 C 0.8071(3) 0.7788(7) 0.6722(3)
C9 C 0.8916(3) 0.3273(8) 0.4060(4)
H6 H 0.8809 0.2122 0.4540
C10 C 0.6394(3) 0.9862(8) 0.4968(4)
H7 H 0.6634 1.0696 0.4406
H8 H 0.6196 1.0989 0.5456
C11 C 0.8551(3) 0.6995(8) 0.5842(3)
H9 H 0.8841 0.8323 0.5571
H10 H 0.8940 0.5859 0.6074
C12 C 0.9579(3) 0.4433(9) 0.2584(4)
H11 H 0.9917 0.4092 0.2046
C13 C 0.9427(3) 0.2817(8) 0.3286(4)
H12 H 0.9673 0.1361 0.3245
C14 C 0.5747(3) 0.8301(8) 0.4613(4)
H13 H 0.5232 0.9052 0.4679
H14 H 0.5827 0.7851 0.3912
C15 C 0.7775(3) 0.5736(8) 0.7317(3)
H15 H 0.8220 0.4823 0.7547
H16 H 0.7439 0.4788 0.6896
H17 H 0.7477 0.6282 0.7891
C16 C 0.8557(3) 0.9286(9) 0.7403(4)
H18 H 0.8965 0.8356 0.7715
H19 H 0.8222 0.9951 0.7917
H20 H 0.8799 1.0519 0.7016
loop_
_geom_bond_atom_site_label_1
_geom_bond_atom_site_label_2
_geom_bond_site_symmetry_1
_geom_bond_site_symmetry_2
O1 C1 1_555 1_555
O2 C2 1_555 1_555
O3 C2 1_555 1_555
C1 H1 1_555 1_555
C2 C14 1_555 1_555
C3 C1 1_555 1_555
C4 C3 1_555 1_555
H2 C4 1_555 1_555
C5 O1 1_555 1_555
C6 C4 1_555 1_555
H3 C6 1_555 1_555
C7 C5 1_555 1_555
H4 C7 1_555 1_555
H5 C7 1_555 1_555
C8 C7 1_555 1_555
C9 C3 1_555 1_555
H6 C9 1_555 1_555
C10 C5 1_555 1_555
H7 C10 1_555 1_555
H8 C10 1_555 1_555
C11 C1 1_555 1_555
H9 C11 1_555 1_555
H10 C11 1_555 1_555
C12 C6 1_555 1_555
H11 C12 1_555 1_555
C13 C9 1_555 1_555
H12 C13 1_555 1_555
C14 C10 1_555 1_555
H13 C14 1_555 1_555
H14 C14 1_555 1_555
C15 C8 1_555 1_555
H15 C15 1_555 1_555
H16 C15 1_555 1_555
H17 C15 1_555 1_555
C16 C8 1_555 1_555
H18 C16 1_555 1_555
H19 C16 1_555 1_555
H20 C16 1_555 1_555
O2 C5 1_555 1_555
C8 C11 1_555 1_555
C12 C13 1_555 1_555

#END
