
#######################################################################
#
#                 Cambridge Crystallographic Data Centre
#                                CCDC 
#
#######################################################################
#
# If this CIF has been generated from an entry in the Cambridge 
# Structural Database, then it will include bibliographic, chemical, 
# crystal, experimental, refinement or atomic coordinate data resulting 
# from the CCDC's data processing and validation procedures.
#
#######################################################################

data_AWUSAO
_chemical_formula_moiety         'C10 H14 O4'
_chemical_name_systematic        
octahydro-5H-spiro[furan-2,2'-furo[3,2-b]pyran]-5-one
_symmetry_cell_setting           monoclinic
_symmetry_space_group_name_H-M   'P 21/c'
_symmetry_Int_Tables_number      14
_space_group_name_Hall           '-P 2ybc'
loop_
_symmetry_equiv_pos_site_id
_symmetry_equiv_pos_as_xyz
1 x,y,z
2 -x,1/2+y,1/2-z
3 -x,-y,-z
4 x,1/2-y,1/2+z
_cell_length_a                   5.9569(3)
_cell_length_b                   10.5931(5)
_cell_length_c                   15.0785(7)
_cell_angle_alpha                90
_cell_angle_beta                 91.0247(6)
_cell_angle_gamma                90
_cell_volume                     951.332
_exptl_crystal_colour            colorless
_exptl_crystal_description       block
_cell_formula_units_Z            4
loop_
_atom_site_label
_atom_site_type_symbol
_atom_site_fract_x
_atom_site_fract_y
_atom_site_fract_z
O1 O 0.56370(11) 0.15494(6) 0.37541(4)
O2 O 0.64850(13) -0.04365(7) 0.41265(5)
O3 O 0.80765(11) 0.31952(6) 0.34202(4)
O4 O 0.62732(11) 0.56857(6) 0.38512(4)
C1 C 0.67586(16) 0.06765(9) 0.42505(6)
C2 C 0.82644(17) 0.13292(9) 0.49220(6)
H1 H 0.9849 0.1315 0.4735
H2 H 0.8157 0.0929 0.5513
C3 C 0.73480(16) 0.26721(9) 0.49332(6)
H3 H 0.6177 0.2769 0.5386
H4 H 0.8560 0.3292 0.5052
C4 C 0.63651(14) 0.28292(8) 0.39999(6)
C5 C 0.43770(15) 0.37284(8) 0.38488(6)
H5 H 0.3110 0.3293 0.3545
H6 H 0.3853 0.4080 0.4417
C6 C 0.53421(14) 0.47583(8) 0.32648(6)
H7 H 0.4177 0.5127 0.2855
C7 C 0.71436(15) 0.40460(9) 0.27602(6)
H8 H 0.6427 0.3549 0.2268
C8 C 0.89920(16) 0.48729(9) 0.23937(6)
H9 H 0.8441 0.5290 0.1844
H10 H 1.0291 0.4338 0.2240
C9 C 0.97501(15) 0.58785(9) 0.30605(6)
H11 H 1.0588 0.5478 0.3558
H12 H 1.0759 0.6489 0.2770
C10 C 0.77053(16) 0.65602(9) 0.34082(6)
H13 H 0.8188 0.7232 0.3826
H14 H 0.6871 0.6961 0.2909
loop_
_geom_bond_atom_site_label_1
_geom_bond_atom_site_label_2
_geom_bond_site_symmetry_1
_geom_bond_site_symmetry_2
O1 C1 1_555 1_555
O2 C1 1_555 1_555
O3 C4 1_555 1_555
O4 C6 1_555 1_555
C1 C2 1_555 1_555
C2 H1 1_555 1_555
H2 C2 1_555 1_555
C3 C2 1_555 1_555
H3 C3 1_555 1_555
H4 C3 1_555 1_555
C4 O1 1_555 1_555
C5 C4 1_555 1_555
H5 C5 1_555 1_555
H6 C5 1_555 1_555
C6 C5 1_555 1_555
H7 C6 1_555 1_555
C7 O3 1_555 1_555
H8 C7 1_555 1_555
C8 C7 1_555 1_555
H9 C8 1_555 1_555
H10 C8 1_555 1_555
C9 C8 1_555 1_555
H11 C9 1_555 1_555
H12 C9 1_555 1_555
C10 O4 1_555 1_555
H13 C10 1_555 1_555
H14 C10 1_555 1_555
C3 C4 1_555 1_555
C6 C7 1_555 1_555
C9 C10 1_555 1_555

#END
