
#######################################################################
#
#                 Cambridge Crystallographic Data Centre
#                                CCDC 
#
#######################################################################
#
# If this CIF has been generated from an entry in the Cambridge 
# Structural Database, then it will include bibliographic, chemical, 
# crystal, experimental, refinement or atomic coordinate data resulting 
# from the CCDC's data processing and validation procedures.
#
#######################################################################

data_AWUVAP
_chemical_formula_moiety         'C22 H22 N2 O6 2+,2(Br1 1-)'
_chemical_name_systematic        
"1,4-bis(2-Picolyloxyl)benzene-N,N'-diacetic acid dibromide"
_symmetry_cell_setting           monoclinic
_symmetry_space_group_name_H-M   'P 21/n'
_symmetry_Int_Tables_number      14
_space_group_name_Hall           '-P 2yn'
loop_
_symmetry_equiv_pos_site_id
_symmetry_equiv_pos_as_xyz
1 x,y,z
2 1/2+x,1/2-y,1/2+z
3 -x,-y,-z
4 1/2-x,1/2+y,1/2-z
_cell_length_a                   11.7772(14)
_cell_length_b                   8.4635(14)
_cell_length_c                   12.2882(19)
_cell_angle_alpha                90
_cell_angle_beta                 114.725(12)
_cell_angle_gamma                90
_cell_volume                     1112.56
_exptl_crystal_colour            'pale yellow'
_exptl_crystal_description       block
_chemical_melting_point          249.4-250.2deg.C
_cell_formula_units_Z            2
_exptl_crystal_recrystallization_method water
loop_
_atom_site_label
_atom_site_type_symbol
_atom_site_fract_x
_atom_site_fract_y
_atom_site_fract_z
O1 O 0.8499(3) -0.0572(5) -0.2071(3)
H1 H 0.9125 -0.1047 -0.1616
O2 O 0.7571(4) -0.1870(6) -0.1110(4)
O3 O 0.4601(3) 0.1938(4) -0.0866(3)
N1 N 0.5242(4) -0.0962(5) -0.2686(4)
C1 C 0.7537(5) -0.1039(6) -0.1893(5)
C2 C 0.6341(4) -0.0352(6) -0.2852(5)
H2 H 0.6364 0.0792 -0.2797
H3 H 0.6274 -0.0644 -0.3640
C3 C 0.4774(5) -0.2362(6) -0.3199(5)
H4 H 0.5103 -0.2854 -0.3680
C4 C 0.3819(5) -0.3068(6) -0.3021(5)
H5 H 0.3501 -0.4033 -0.3382
C5 C 0.3337(5) -0.2353(6) -0.2315(5)
H6 H 0.2699 -0.2833 -0.2177
C6 C 0.3807(4) -0.0907(6) -0.1804(4)
H7 H 0.3475 -0.0401 -0.1330
C7 C 0.4770(4) -0.0207(6) -0.1994(4)
C8 C 0.5319(5) 0.1354(6) -0.1459(4)
H8 H 0.6185 0.1226 -0.0895
H9 H 0.5284 0.2083 -0.2081
C9 C 0.4842(4) 0.3488(5) -0.0445(4)
C10 C 0.4049(4) 0.4075(6) 0.0014(4)
H10 H 0.3404 0.3448 0.0023
C11 C 0.5795(4) 0.4401(6) -0.0465(4)
H11 H 0.6331 0.4001 -0.0779
C11B C 0.4205(4) 0.5599(6) 0.0465(4)
C9B C 0.5158(4) 0.6512(5) 0.0445(4)
O3B O 0.5399(3) 0.8062(4) 0.0866(3)
C8B C 0.4681(5) 0.8646(6) 0.1459(4)
C7B C 0.5230(4) 1.0207(6) 0.1994(4)
N1B N 0.4758(4) 1.0962(5) 0.2686(4)
C2B C 0.3659(4) 1.0352(6) 0.2852(5)
C1B C 0.2463(5) 1.1039(6) 0.1893(5)
O1B O 0.1501(3) 1.0572(5) 0.2071(3)
H1B H 0.0875 1.1047 0.1616
O2B O 0.2429(4) 1.1870(6) 0.1110(4)
H2B H 0.3636 0.9208 0.2797
H3B H 0.3726 1.0644 0.3640
C3B C 0.5226(5) 1.2362(6) 0.3199(5)
H4B H 0.4897 1.2854 0.3680
C4B C 0.6181(5) 1.3068(6) 0.3021(5)
H5B H 0.6499 1.4033 0.3382
C5B C 0.6663(5) 1.2353(6) 0.2315(5)
H6B H 0.7301 1.2833 0.2177
C6B C 0.6193(4) 1.0907(6) 0.1804(4)
H7B H 0.6525 1.0401 0.1330
H8B H 0.3815 0.8774 0.0895
H9B H 0.4716 0.7917 0.2081
C10B C 0.5951(4) 0.5925(6) -0.0014(4)
H10B H 0.6596 0.6552 -0.0023
H11B H 0.3669 0.5999 0.0779
Br1 Br 1.11463(5) -0.20975(8) -0.04726(5)
loop_
_geom_bond_atom_site_label_1
_geom_bond_atom_site_label_2
_geom_bond_site_symmetry_1
_geom_bond_site_symmetry_2
O1 H1 1_555 1_555
O2 C1 1_555 1_555
O3 C8 1_555 1_555
N1 C2 1_555 1_555
C1 O1 1_555 1_555
C2 C1 1_555 1_555
H2 C2 1_555 1_555
H3 C2 1_555 1_555
C3 N1 1_555 1_555
H4 C3 1_555 1_555
C4 C3 1_555 1_555
H5 C4 1_555 1_555
C5 C4 1_555 1_555
H6 C5 1_555 1_555
C6 C5 1_555 1_555
H7 C6 1_555 1_555
C7 N1 1_555 1_555
C8 C7 1_555 1_555
H8 C8 1_555 1_555
H9 C8 1_555 1_555
C9 O3 1_555 1_555
C10 C9 1_555 1_555
H10 C10 1_555 1_555
C11 C9 1_555 1_555
H11 C11 1_555 1_555
C11B C10 1_555 1_555
C9B C11B 1_555 1_555
O3B C9B 1_555 1_555
C8B O3B 1_555 1_555
C7B C8B 1_555 1_555
N1B C7B 1_555 1_555
C2B N1B 1_555 1_555
C1B C2B 1_555 1_555
O1B C1B 1_555 1_555
H1B O1B 1_555 1_555
O2B C1B 1_555 1_555
H2B C2B 1_555 1_555
H3B C2B 1_555 1_555
C3B N1B 1_555 1_555
H4B C3B 1_555 1_555
C4B C3B 1_555 1_555
H5B C4B 1_555 1_555
C5B C4B 1_555 1_555
H6B C5B 1_555 1_555
C6B C7B 1_555 1_555
H7B C6B 1_555 1_555
H8B C8B 1_555 1_555
H9B C8B 1_555 1_555
C10B C11 1_555 1_555
H10B C10B 1_555 1_555
H11B C11B 1_555 1_555
C6 C7 1_555 1_555
C9B C10B 1_555 1_555
C5B C6B 1_555 1_555

#END
