
#######################################################################
#
#                 Cambridge Crystallographic Data Centre
#                                CCDC 
#
#######################################################################
#
# If this CIF has been generated from an entry in the Cambridge 
# Structural Database, then it will include bibliographic, chemical, 
# crystal, experimental, refinement or atomic coordinate data resulting 
# from the CCDC's data processing and validation procedures.
#
#######################################################################

data_AWUYIA
_chemical_formula_moiety         'C8 H14 N2 2+,2(C14 H20 O5),2(Cl1 O4 1-)'
_chemical_name_systematic        
'bis(Benzo-15-crown-5) 1,4-bis(ammmoniomethyl)benzene clathrate diperchlorate'
_symmetry_cell_setting           triclinic
_symmetry_space_group_name_H-M   'P -1'
_symmetry_Int_Tables_number      2
_space_group_name_Hall           '-P 1'
loop_
_symmetry_equiv_pos_site_id
_symmetry_equiv_pos_as_xyz
1 x,y,z
2 -x,-y,-z
_cell_length_a                   9.4725(13)
_cell_length_b                   9.8632(13)
_cell_length_c                   11.7661(16)
_cell_angle_alpha                90.826(3)
_cell_angle_beta                 102.664(3)
_cell_angle_gamma                108.299(3)
_cell_volume                     1014.2
_exptl_crystal_colour            colorless
_exptl_crystal_description       block
_cell_formula_units_Z            1
loop_
_atom_site_label
_atom_site_type_symbol
_atom_site_fract_x
_atom_site_fract_y
_atom_site_fract_z
Cl1 Cl 0.56267(6) 0.82427(6) 0.73421(4)
O1 O 0.4216(6) 0.8442(7) 0.6848(6)
O2 O 0.6549(4) 0.9450(4) 0.8134(3)
O3 O 0.5430(4) 0.6986(4) 0.7870(4)
O4 O 0.6415(8) 0.8247(6) 0.6431(5)
O9 O 0.58361(16) 0.29941(17) 0.68795(11)
C1 C 0.5340(2) 0.3298(3) 0.78884(17)
H1 H 0.4225 0.3131 0.7677
H2 H 0.5866 0.4315 0.8192
C2 C 0.5940(3) 0.4105(3) 0.60930(19)
H3 H 0.5078 0.4478 0.6063
H4 H 0.5843 0.3690 0.5297
C3 C 0.5703(2) 0.2343(3) 0.88116(18)
H5 H 0.5327 0.2509 0.9505
H6 H 0.5214 0.1322 0.8507
C4 C 0.9495(2) 0.2149(3) 1.00663(17)
O10 O 0.73296(15) 0.27025(17) 0.91127(11)
C5 C 0.7960(2) 0.2002(2) 0.99868(16)
O11 O 1.01318(15) 0.29465(18) 0.92468(12)
O12 O 1.13572(16) 0.41037(17) 0.74599(11)
O13 O 0.86412(17) 0.48089(17) 0.63625(12)
C6 C 0.7208(2) 0.1233(3) 1.07707(17)
H7 H 0.6161 0.1122 1.0714
C7 C 0.7992(3) 0.0621(3) 1.16453(18)
H8 H 0.7482 0.0107 1.2196
C8 C 1.0096(3) 0.5870(3) 0.6809(2)
H9 H 1.0198 0.6181 0.7635
H10 H 1.0190 0.6717 0.6354
C9 C 0.7416(3) 0.5320(3) 0.6451(2)
H11 H 0.7397 0.6102 0.5935
H12 H 0.7561 0.5704 0.7265
C10 C 1.2134(2) 0.4602(3) 0.86480(18)
H13 H 1.1808 0.5389 0.8912
H14 H 1.3253 0.4973 0.8720
C11 C 1.1751(2) 0.3373(3) 0.93870(18)
H15 H 1.2054 0.2572 0.9119
H16 H 1.2285 0.3677 1.0217
C15 C 1.1339(3) 0.5251(3) 0.67232(19)
H20 H 1.1187 0.4889 0.5901
H21 H 1.2342 0.6020 0.6948
C16 C 1.0262(2) 0.1514(3) 1.09191(17)
H22 H 1.1299 0.1596 1.0961
C17 C 0.9499(3) 0.0755(3) 1.17163(19)
H23 H 1.0023 0.0327 1.2312
N1 N 0.8250(2) 0.1832(2) 0.68748(15)
C12 C 0.9049(2) 0.0722(2) 0.53010(16)
C13 C 1.0637(2) 0.1337(3) 0.56151(18)
H17 H 1.1083 0.2258 0.6035
C14 C 0.8013(3) 0.1500(3) 0.55923(17)
H18 H 0.8196 0.2407 0.5210
H19 H 0.6935 0.0903 0.5268
C18 C 0.8426(2) -0.0620(3) 0.46776(17)
H24 H 0.7346 -0.1052 0.4449
H25 H 0.750(3) 0.228(3) 0.700(2)
H26 H 0.799(3) 0.102(3) 0.722(2)
H27 H 0.927(4) 0.242(3) 0.718(2)
C18A C 1.1574(2) 0.0620(3) 0.53224(17)
C12A C 1.0951(2) -0.0722(2) 0.46990(16)
C13A C 0.9363(2) -0.1337(3) 0.43849(18)
H17A H 0.8917 -0.2258 0.3965
C14A C 1.1987(3) -0.1500(3) 0.44077(17)
N1A N 1.1750(2) -0.1832(2) 0.31252(15)
H25A H 1.250(3) -0.228(3) 0.300(2)
H26A H 1.201(3) -0.102(3) 0.278(2)
H27A H 1.073(4) -0.242(3) 0.282(2)
H18A H 1.1804 -0.2407 0.4790
H19A H 1.3065 -0.0903 0.4732
H24A H 1.2654 0.1052 0.5551
Cl2? Cl 0.56267(6) 0.82427(6) 0.73421(4)
O5? O 0.4547(13) 0.8915(16) 0.6989(12)
O6? O 0.5922(9) 0.8265(14) 0.8607(4)
O7? O 0.4979(10) 0.6742(8) 0.6946(13)
O8? O 0.7004(7) 0.8797(8) 0.7043(8)
loop_
_geom_bond_atom_site_label_1
_geom_bond_atom_site_label_2
_geom_bond_site_symmetry_1
_geom_bond_site_symmetry_2
Cl1 O1 1_555 1_555
O2 Cl1 1_555 1_555
O3 Cl1 1_555 1_555
O4 Cl1 1_555 1_555
O9 C1 1_555 1_555
C1 H1 1_555 1_555
H2 C1 1_555 1_555
C2 O9 1_555 1_555
H3 C2 1_555 1_555
H4 C2 1_555 1_555
C3 C1 1_555 1_555
H5 C3 1_555 1_555
H6 C3 1_555 1_555
C4 C5 1_555 1_555
O10 C3 1_555 1_555
C5 O10 1_555 1_555
O11 C4 1_555 1_555
O12 C10 1_555 1_555
O13 C8 1_555 1_555
C6 C5 1_555 1_555
H7 C6 1_555 1_555
N1 C14 1_555 1_555
C7 C6 1_555 1_555
H8 C7 1_555 1_555
C8 H9 1_555 1_555
H10 C8 1_555 1_555
C9 C2 1_555 1_555
H11 C9 1_555 1_555
H12 C9 1_555 1_555
C10 H13 1_555 1_555
H14 C10 1_555 1_555
C11 O11 1_555 1_555
H15 C11 1_555 1_555
H16 C11 1_555 1_555
C12 C13 1_555 1_555
C13 H17 1_555 1_555
C14 C12 1_555 1_555
H18 C14 1_555 1_555
H19 C14 1_555 1_555
C15 O12 1_555 1_555
H20 C15 1_555 1_555
H21 C15 1_555 1_555
C16 C4 1_555 1_555
H22 C16 1_555 1_555
C17 C7 1_555 1_555
H23 C17 1_555 1_555
C18 C12 1_555 1_555
H24 C18 1_555 1_555
H25 N1 1_555 1_555
H26 N1 1_555 1_555
H27 N1 1_555 1_555
C18A C13 1_555 1_555
C12A C18A 1_555 1_555
C13A C18 1_555 1_555
H17A C13A 1_555 1_555
C14A C12A 1_555 1_555
N1A C14A 1_555 1_555
H25A N1A 1_555 1_555
H26A N1A 1_555 1_555
H27A N1A 1_555 1_555
H18A C14A 1_555 1_555
H19A C14A 1_555 1_555
H24A C18A 1_555 1_555
O13 C9 1_555 1_555
C8 C15 1_555 1_555
C10 C11 1_555 1_555
C16 C17 1_555 1_555
C12A C13A 1_555 1_555

#END
