
#######################################################################
#
#                 Cambridge Crystallographic Data Centre
#                                CCDC 
#
#######################################################################
#
# If this CIF has been generated from an entry in the Cambridge 
# Structural Database, then it will include bibliographic, chemical, 
# crystal, experimental, refinement or atomic coordinate data resulting 
# from the CCDC's data processing and validation procedures.
#
#######################################################################

data_AXAJUF
_chemical_formula_moiety         'C24 H30 Cl1 N3 O2'
_chemical_name_systematic        
'(Z)-2-(4-t-Butylphenyl)-1-(4-chloro-1-ethyl-3-methyl-1H-pyrazol-5-yl)-2-cyanovinyl pivalate'
_symmetry_cell_setting           monoclinic
_symmetry_space_group_name_H-M   'P 21'
_symmetry_Int_Tables_number      4
_space_group_name_Hall           'P 2yb'
loop_
_symmetry_equiv_pos_site_id
_symmetry_equiv_pos_as_xyz
1 x,y,z
2 -x,1/2+y,-z
_cell_length_a                   10.1796(7)
_cell_length_b                   10.5648(7)
_cell_length_c                   12.3632(8)
_cell_angle_alpha                90
_cell_angle_beta                 110.6130(10)
_cell_angle_gamma                90
_cell_volume                     1244.48
_exptl_crystal_colour            colorless
_exptl_crystal_description       block
_cell_formula_units_Z            2
loop_
_atom_site_label
_atom_site_type_symbol
_atom_site_fract_x
_atom_site_fract_y
_atom_site_fract_z
Cl1 Cl 0.91735(8) 0.12628(7) 0.43386(5)
O1 O 0.88635(15) 0.00475(13) 0.67430(13)
O2 O 0.6841(2) 0.0528(2) 0.6923(2)
N1 N 0.83545(19) 0.33952(17) 0.65433(15)
N2 N 0.7959(2) 0.41956(19) 0.56420(17)
N3 N 1.0994(3) -0.0527(2) 0.9522(2)
C1 C 0.8112(4) -0.2484(3) 0.6992(3)
H1 H 0.9057 -0.2303 0.7043
H2 H 0.7866 -0.3327 0.6700
H3 H 0.8045 -0.2418 0.7745
C2 C 0.5602(4) -0.1789(4) 0.6095(4)
H4 H 0.5559 -0.1802 0.6859
H5 H 0.5301 -0.2592 0.5729
H6 H 0.4999 -0.1133 0.5650
C3 C 0.7257(4) -0.1646(4) 0.4991(3)
H7 H 0.6715 -0.0995 0.4489
H8 H 0.6926 -0.2461 0.4664
H9 H 0.8227 -0.1554 0.5077
C4 C 0.7104(3) -0.1533(3) 0.6172(2)
C5 C 0.7515(2) -0.0214(2) 0.6629(2)
C6 C 0.9388(2) 0.1258(2) 0.70985(16)
C7 C 0.8815(2) 0.2278(2) 0.62748(17)
C8 C 0.8687(2) 0.2379(2) 0.51326(17)
C9 C 0.8173(2) 0.3588(2) 0.47794(19)
C10 C 0.8154(2) 0.3768(2) 0.76083(17)
H10 H 0.8685 0.4533 0.7904
H11 H 0.8513 0.3107 0.8182
C11 C 0.6638(2) 0.3997(2) 0.74279(17)
H12 H 0.6289 0.4674 0.6884
H13 H 0.6547 0.4223 0.8150
H14 H 0.6109 0.3242 0.7134
C12 C 0.7861(3) 0.4190(3) 0.3620(2)
H15 H 0.7061 0.3785 0.3067
H16 H 0.8658 0.4099 0.3382
H17 H 0.7663 0.5073 0.3667
C13 C 1.0443(2) 0.1363(2) 0.81182(16)
C14 C 1.0747(2) 0.0294(2) 0.8883(2)
C15 C 1.1321(2) 0.2504(2) 0.85119(16)
C16 C 1.1890(2) 0.3123(2) 0.78031(18)
H18 H 1.1715 0.2823 0.7058
C17 C 1.2721(2) 0.4187(2) 0.81808(19)
H19 H 1.3087 0.4590 0.7681
C18 C 1.3018(2) 0.4663(2) 0.9282(2)
C19 C 1.2453(3) 0.4019(3) 0.9993(2)
H20 H 1.2629 0.4315 1.0739
C20 C 1.1640(3) 0.2955(2) 0.96248(19)
H21 H 1.1299 0.2533 1.0132
C21 C 1.3905(3) 0.5854(2) 0.9708(2)
C22 C 1.4498(5) 0.6366(4) 0.8833(4)
H22 H 1.5104 0.5744 0.8688
H23 H 1.5023 0.7123 0.9130
H24 H 1.3743 0.6556 0.8126
C23 C 1.5085(5) 0.5570(5) 1.0820(4)
H25 H 1.5733 0.4995 1.0673
H26 H 1.4714 0.5193 1.1358
H27 H 1.5563 0.6342 1.1140
C24 C 1.2955(5) 0.6859(4) 0.9907(6)
H28 H 1.3499 0.7595 1.0241
H29 H 1.2515 0.6538 1.0422
H30 H 1.2247 0.7081 0.9183
loop_
_geom_bond_atom_site_label_1
_geom_bond_atom_site_label_2
_geom_bond_site_symmetry_1
_geom_bond_site_symmetry_2
Cl1 C8 1_555 1_555
O1 C5 1_555 1_555
O2 C5 1_555 1_555
N1 N2 1_555 1_555
N2 C9 1_555 1_555
N3 C14 1_555 1_555
C1 H1 1_555 1_555
H2 C1 1_555 1_555
H3 C1 1_555 1_555
C2 H4 1_555 1_555
H5 C2 1_555 1_555
H6 C2 1_555 1_555
C3 H7 1_555 1_555
H8 C3 1_555 1_555
H9 C3 1_555 1_555
C4 C1 1_555 1_555
C5 C4 1_555 1_555
C6 O1 1_555 1_555
C7 N1 1_555 1_555
C8 C7 1_555 1_555
C9 C8 1_555 1_555
C10 N1 1_555 1_555
H10 C10 1_555 1_555
H11 C10 1_555 1_555
C11 C10 1_555 1_555
H12 C11 1_555 1_555
H13 C11 1_555 1_555
H14 C11 1_555 1_555
C12 C9 1_555 1_555
H15 C12 1_555 1_555
H16 C12 1_555 1_555
H17 C12 1_555 1_555
C13 C6 1_555 1_555
C14 C13 1_555 1_555
C15 C13 1_555 1_555
C16 C15 1_555 1_555
H18 C16 1_555 1_555
C17 C16 1_555 1_555
H19 C17 1_555 1_555
C18 C17 1_555 1_555
C19 C18 1_555 1_555
H20 C19 1_555 1_555
C20 C15 1_555 1_555
H21 C20 1_555 1_555
C21 C18 1_555 1_555
C22 C21 1_555 1_555
H22 C22 1_555 1_555
H23 C22 1_555 1_555
H24 C22 1_555 1_555
C23 C21 1_555 1_555
H25 C23 1_555 1_555
H26 C23 1_555 1_555
H27 C23 1_555 1_555
C24 C21 1_555 1_555
H28 C24 1_555 1_555
H29 C24 1_555 1_555
H30 C24 1_555 1_555
C2 C4 1_555 1_555
C3 C4 1_555 1_555
C6 C7 1_555 1_555
C19 C20 1_555 1_555

#END
