
#######################################################################
#
#                 Cambridge Crystallographic Data Centre
#                                CCDC 
#
#######################################################################
#
# If this CIF has been generated from an entry in the Cambridge 
# Structural Database, then it will include bibliographic, chemical, 
# crystal, experimental, refinement or atomic coordinate data resulting 
# from the CCDC's data processing and validation procedures.
#
#######################################################################

data_AXAKAN
_chemical_formula_moiety         'C12 H14 N1 O1 1+,I1 1-'
_chemical_name_systematic        '1-ethyl-6-methoxyquinolinium iodide'
_symmetry_cell_setting           orthorhombic
_symmetry_space_group_name_H-M   'F d d d'
_symmetry_Int_Tables_number      70
_space_group_name_Hall           '-F 2uv 2vw'
loop_
_symmetry_equiv_pos_site_id
_symmetry_equiv_pos_as_xyz
1 x,y,z
2 1/4-x,1/4-y,z
3 x,1/4-y,1/4-z
4 1/4-x,y,1/4-z
5 x,1/2+y,1/2+z
6 1/4-x,3/4-y,1/2+z
7 x,3/4-y,3/4-z
8 1/4-x,1/2+y,3/4-z
9 1/2+x,y,1/2+z
10 3/4-x,1/4-y,1/2+z
11 1/2+x,1/4-y,3/4-z
12 3/4-x,y,3/4-z
13 1/2+x,1/2+y,z
14 3/4-x,3/4-y,z
15 1/2+x,3/4-y,1/4-z
16 3/4-x,1/2+y,1/4-z
17 -x,-y,-z
18 3/4+x,3/4+y,-z
19 -x,3/4+y,3/4+z
20 3/4+x,-y,3/4+z
21 -x,1/2-y,1/2-z
22 3/4+x,1/4+y,1/2-z
23 -x,1/4+y,1/4+z
24 3/4+x,1/2-y,1/4+z
25 1/2-x,-y,1/2-z
26 1/4+x,3/4+y,1/2-z
27 1/2-x,3/4+y,1/4+z
28 1/4+x,-y,1/4+z
29 1/2-x,1/2-y,-z
30 1/4+x,1/4+y,-z
31 1/2-x,1/4+y,3/4+z
32 1/4+x,1/2-y,3/4+z
_cell_length_a                   17.0726(5)
_cell_length_b                   21.6048(8)
_cell_length_c                   26.7270(7)
_cell_angle_alpha                90
_cell_angle_beta                 90
_cell_angle_gamma                90
_cell_volume                     9858.26
_exptl_crystal_description       block
_cell_formula_units_Z            32
loop_
_atom_site_label
_atom_site_type_symbol
_atom_site_fract_x
_atom_site_fract_y
_atom_site_fract_z
I1 I 0.6250 0.1250 0.25498(2)
I2 I 0.52167(4) -0.1250 0.3750
O1 O 0.3955(2) 0.1485(2) 0.44367(14)
N1 N 0.6645(3) 0.0081(2) 0.42540(17)
C1 C 0.5019(3) 0.0945(2) 0.48461(17)
H1 H 0.4839 0.1051 0.5163
C2 C 0.5714(3) 0.0586(2) 0.47924(17)
C3 C 0.5970(3) 0.0423(2) 0.43045(18)
C4 C 0.4621(3) 0.1130(2) 0.44340(18)
C5 C 0.4886(3) 0.0969(3) 0.3955(2)
H2 H 0.4607 0.1100 0.3676
C6 C 0.6147(3) 0.0393(3) 0.5209(2)
H3 H 0.5992 0.0503 0.5531
C7 C 0.7031(3) -0.0105(2) 0.4658(2)
H4 H 0.7479 -0.0345 0.4616
C8 C 0.6801(3) 0.0040(3) 0.5134(2)
H5 H 0.7089 -0.0102 0.5406
C9 C 0.5540(3) 0.0624(3) 0.3892(2)
H6 H 0.5704 0.0520 0.3571
C10 C 0.6918(4) -0.0060(4) 0.3737(2)
H7 H 0.6573 -0.0370 0.3595
H8 H 0.6865 0.0312 0.3536
C11 C 0.3663(3) 0.1691(3) 0.4912(3)
H9 H 0.3177 0.1905 0.4865
H10 H 0.4037 0.1965 0.5064
H11 H 0.3581 0.1339 0.5126
C12 C 0.7739(6) -0.0286(5) 0.3691(3)
H12 H 0.7909 -0.0248 0.3350
H13 H 0.7764 -0.0712 0.3792
H14 H 0.8074 -0.0043 0.3903
loop_
_geom_bond_atom_site_label_1
_geom_bond_atom_site_label_2
_geom_bond_site_symmetry_1
_geom_bond_site_symmetry_2
O1 C4 1_555 1_555
N1 C3 1_555 1_555
C1 H1 1_555 1_555
C2 C1 1_555 1_555
C3 C2 1_555 1_555
C4 C1 1_555 1_555
C5 C4 1_555 1_555
H2 C5 1_555 1_555
C6 C2 1_555 1_555
H3 C6 1_555 1_555
C7 N1 1_555 1_555
H4 C7 1_555 1_555
C8 C6 1_555 1_555
H5 C8 1_555 1_555
C9 C3 1_555 1_555
H6 C9 1_555 1_555
C10 N1 1_555 1_555
H7 C10 1_555 1_555
H8 C10 1_555 1_555
C11 O1 1_555 1_555
H9 C11 1_555 1_555
H10 C11 1_555 1_555
H11 C11 1_555 1_555
C12 C10 1_555 1_555
H12 C12 1_555 1_555
H13 C12 1_555 1_555
H14 C12 1_555 1_555
C5 C9 1_555 1_555
C7 C8 1_555 1_555

#END
