
#######################################################################
#
#                 Cambridge Crystallographic Data Centre
#                                CCDC 
#
#######################################################################
#
# If this CIF has been generated from an entry in the Cambridge 
# Structural Database, then it will include bibliographic, chemical, 
# crystal, experimental, refinement or atomic coordinate data resulting 
# from the CCDC's data processing and validation procedures.
#
#######################################################################

data_AXAMIX
_chemical_formula_moiety         '2(C15 H21 O3 1-),C2 H10 N2 2+'
_chemical_name_systematic        
'ethane-1,2-diaminium bis(5-(2,5-dimethylphenoxy)-2,2-dimethylpentanoate)'
_symmetry_cell_setting           monoclinic
_symmetry_space_group_name_H-M   'P 21/c'
_symmetry_Int_Tables_number      14
_space_group_name_Hall           '-P 2ybc'
loop_
_symmetry_equiv_pos_site_id
_symmetry_equiv_pos_as_xyz
1 x,y,z
2 -x,1/2+y,1/2-z
3 -x,-y,-z
4 x,1/2-y,1/2+z
_cell_length_a                   23.5885(18)
_cell_length_b                   6.5543(5)
_cell_length_c                   21.6835(16)
_cell_angle_alpha                90
_cell_angle_beta                 98.249(3)
_cell_angle_gamma                90
_cell_volume                     3317.72
_exptl_crystal_colour            colorless
_exptl_crystal_description       block
_cell_formula_units_Z            4
loop_
_atom_site_label
_atom_site_type_symbol
_atom_site_fract_x
_atom_site_fract_y
_atom_site_fract_z
O1 O 0.43970(6) 0.6491(2) 0.53936(8)
O2 O 0.40411(6) 0.9533(2) 0.51841(9)
O3 O 0.20838(7) 0.9470(3) 0.38562(7)
C1 C 0.40024(8) 0.7775(3) 0.53860(9)
C2 C 0.34594(8) 0.7173(3) 0.56605(9)
C3 C 0.29543(8) 0.8551(3) 0.54086(9)
H1 H 0.2642 0.8275 0.5643
H2 H 0.3070 0.9958 0.5488
C4 C 0.27295(9) 0.8334(3) 0.47194(10)
H3 H 0.3046 0.8481 0.4482
H4 H 0.2571 0.6977 0.4642
C5 C 0.22756(9) 0.9890(3) 0.44955(10)
H5 H 0.1959 0.9789 0.4735
H6 H 0.2433 1.1257 0.4543
C6 C 0.16744(9) 1.0693(3) 0.35278(10)
C7 C 0.14521(9) 1.2433(4) 0.37663(11)
H7 H 0.1579 1.2827 0.4175
C8 C 0.10395(10) 1.3596(4) 0.33974(13)
C9 C 0.08572(11) 1.2956(5) 0.28003(14)
H8 H 0.0580 1.3705 0.2548
C10 C 0.10780(11) 1.1227(5) 0.25689(12)
H9 H 0.0943 1.0829 0.2163
C11 C 0.14916(10) 1.0059(4) 0.29157(11)
C12 C 0.17442(12) 0.8209(4) 0.26550(13)
H10 H 0.2153 0.8355 0.2696
H11 H 0.1590 0.8065 0.2223
H12 H 0.1651 0.7021 0.2879
C13 C 0.08069(13) 1.5506(5) 0.36586(15)
H13 H 0.0537 1.5141 0.3932
H14 H 0.0619 1.6326 0.3323
H15 H 0.1116 1.6267 0.3886
C14 C 0.33181(9) 0.4912(3) 0.55393(10)
H16 H 0.3261 0.4659 0.5099
H17 H 0.2975 0.4572 0.5708
H18 H 0.3629 0.4089 0.5736
C15 C 0.36010(10) 0.7512(4) 0.63685(10)
H19 H 0.3934 0.6732 0.6529
H20 H 0.3283 0.7080 0.6567
H21 H 0.3674 0.8934 0.6451
O4 O 0.44361(6) 0.1887(2) 0.28971(8)
O5 O 0.40625(7) 0.4909(2) 0.27317(8)
O6 O 0.20490(6) 0.2538(3) 0.12820(7)
C16 C 0.40347(8) 0.3119(3) 0.29096(8)
C17 C 0.34975(8) 0.2445(3) 0.31775(9)
C18 C 0.29629(8) 0.3400(3) 0.28040(9)
H22 H 0.2642 0.3171 0.3029
H23 H 0.3021 0.4863 0.2786
C19 C 0.28018(8) 0.2617(3) 0.21437(9)
H24 H 0.3112 0.2884 0.1906
H25 H 0.2742 0.1154 0.2152
C20 C 0.22637(8) 0.3646(4) 0.18342(10)
H26 H 0.1979 0.3670 0.2116
H27 H 0.2347 0.5042 0.1729
C21 C 0.14810(8) 0.2807(3) 0.10447(9)
C22 C 0.11554(9) 0.4415(4) 0.12040(10)
H28 H 0.1326 0.5417 0.1473
C23 C 0.05755(9) 0.4568(4) 0.09699(10)
C24 C 0.03432(9) 0.3107(4) 0.05628(12)
H29 H -0.0042 0.3187 0.0394
C25 C 0.06708(9) 0.1516(4) 0.03981(12)
H30 H 0.0501 0.0543 0.0118
C26 C 0.12445(9) 0.1318(4) 0.06351(10)
C27 C 0.15973(11) -0.0459(5) 0.04748(14)
H31 H 0.1864 -0.0007 0.0209
H32 H 0.1350 -0.1480 0.0263
H33 H 0.1803 -0.1026 0.0850
C28 C 0.02232(13) 0.6286(6) 0.11711(14)
H34 H 0.0243 0.6266 0.1616
H35 H -0.0168 0.6128 0.0982
H36 H 0.0369 0.7562 0.1044
C29 C 0.34455(9) 0.0119(3) 0.31960(11)
H37 H 0.3476 -0.0431 0.2792
H38 H 0.3081 -0.0246 0.3312
H39 H 0.3747 -0.0425 0.3496
C30 C 0.35639(10) 0.3287(5) 0.38447(10)
H40 H 0.3911 0.2773 0.4078
H41 H 0.3243 0.2865 0.4041
H42 H 0.3579 0.4750 0.3833
N1 N 0.51738(6) 0.2947(2) 0.20919(7)
H43 H 0.5349 0.4150 0.2095
H44 H 0.5435 0.1958 0.2151
H45 H 0.4957 0.2912 0.2396
N2 N 0.47990(6) 0.2419(2) 0.03568(7)
H46 H 0.5022 0.2321 0.0060
H47 H 0.4555 0.3450 0.0270
H48 H 0.4604 0.1263 0.0375
C31 C 0.48090(8) 0.2651(4) 0.14848(10)
H49 H 0.4511 0.3683 0.1431
H50 H 0.4626 0.1325 0.1478
C32 C 0.51558(9) 0.2787(4) 0.09617(10)
H51 H 0.5328 0.4131 0.0960
H52 H 0.5462 0.1789 0.1024
loop_
_geom_bond_atom_site_label_1
_geom_bond_atom_site_label_2
_geom_bond_site_symmetry_1
_geom_bond_site_symmetry_2
O1 C1 1_555 1_555
O2 C1 1_555 1_555
O3 C5 1_555 1_555
C1 C2 1_555 1_555
C2 C3 1_555 1_555
C3 H1 1_555 1_555
H2 C3 1_555 1_555
C4 C3 1_555 1_555
H3 C4 1_555 1_555
H4 C4 1_555 1_555
C5 C4 1_555 1_555
H5 C5 1_555 1_555
H6 C5 1_555 1_555
C6 O3 1_555 1_555
C7 C6 1_555 1_555
H7 C7 1_555 1_555
C8 C7 1_555 1_555
C9 C8 1_555 1_555
H8 C9 1_555 1_555
C10 C9 1_555 1_555
H9 C10 1_555 1_555
C11 C6 1_555 1_555
C12 C11 1_555 1_555
H10 C12 1_555 1_555
H11 C12 1_555 1_555
H12 C12 1_555 1_555
C13 C8 1_555 1_555
H13 C13 1_555 1_555
H14 C13 1_555 1_555
H15 C13 1_555 1_555
C14 C2 1_555 1_555
H16 C14 1_555 1_555
H17 C14 1_555 1_555
H18 C14 1_555 1_555
C15 C2 1_555 1_555
H19 C15 1_555 1_555
H20 C15 1_555 1_555
H21 C15 1_555 1_555
O4 C16 1_555 1_555
O5 C16 1_555 1_555
O6 C20 1_555 1_555
C16 C17 1_555 1_555
C17 C18 1_555 1_555
C18 H22 1_555 1_555
H23 C18 1_555 1_555
C19 C18 1_555 1_555
H24 C19 1_555 1_555
H25 C19 1_555 1_555
C20 C19 1_555 1_555
H26 C20 1_555 1_555
H27 C20 1_555 1_555
C21 O6 1_555 1_555
C22 C21 1_555 1_555
H28 C22 1_555 1_555
C23 C22 1_555 1_555
C24 C23 1_555 1_555
H29 C24 1_555 1_555
C25 C24 1_555 1_555
H30 C25 1_555 1_555
C26 C21 1_555 1_555
C27 C26 1_555 1_555
H31 C27 1_555 1_555
H32 C27 1_555 1_555
H33 C27 1_555 1_555
C28 C23 1_555 1_555
H34 C28 1_555 1_555
H35 C28 1_555 1_555
H36 C28 1_555 1_555
C29 C17 1_555 1_555
H37 C29 1_555 1_555
H38 C29 1_555 1_555
H39 C29 1_555 1_555
C30 C17 1_555 1_555
H40 C30 1_555 1_555
H41 C30 1_555 1_555
H42 C30 1_555 1_555
N1 H43 1_555 1_555
H44 N1 1_555 1_555
H45 N1 1_555 1_555
N2 H46 1_555 1_555
H47 N2 1_555 1_555
H48 N2 1_555 1_555
C31 N1 1_555 1_555
H49 C31 1_555 1_555
H50 C31 1_555 1_555
C32 N2 1_555 1_555
H51 C32 1_555 1_555
H52 C32 1_555 1_555
C10 C11 1_555 1_555
C25 C26 1_555 1_555
C31 C32 1_555 1_555

#END
