
#######################################################################
#
#                 Cambridge Crystallographic Data Centre
#                                CCDC 
#
#######################################################################
#
# If this CIF has been generated from an entry in the Cambridge 
# Structural Database, then it will include bibliographic, chemical, 
# crystal, experimental, refinement or atomic coordinate data resulting 
# from the CCDC's data processing and validation procedures.
#
#######################################################################

data_AXASAU
_chemical_name_common            
4-Methyl-1-[4-(methylsulfanyl)benzylidene]thiosemicarbazide
_chemical_formula_moiety         'C10 H13 N3 S2'
_chemical_name_systematic        
N-Methyl-2-(4-(methylsulfanyl)benzylidene)hydrazinecarbothioamide
_symmetry_cell_setting           monoclinic
_symmetry_space_group_name_H-M   'C 2/c'
_symmetry_Int_Tables_number      15
_space_group_name_Hall           '-C 2yn'
loop_
_symmetry_equiv_pos_site_id
_symmetry_equiv_pos_as_xyz
1 x,y,z
2 -x,y,1/2-z
3 1/2+x,1/2+y,z
4 1/2-x,1/2+y,1/2-z
5 -x,-y,-z
6 x,-y,1/2+z
7 1/2-x,1/2-y,-z
8 1/2+x,1/2-y,1/2+z
_cell_length_a                   14.123(3)
_cell_length_b                   7.7789(16)
_cell_length_c                   21.384(4)
_cell_angle_alpha                90
_cell_angle_beta                 96.31(3)
_cell_angle_gamma                90
_cell_volume                     2335.04
_exptl_crystal_colour            colorless
_exptl_crystal_description       bar
_cell_formula_units_Z            8
_exptl_crystal_recrystallization_method ethanol
loop_
_atom_site_label
_atom_site_type_symbol
_atom_site_fract_x
_atom_site_fract_y
_atom_site_fract_z
S1 S 0.62610(3) 0.59132(7) 0.31409(2)
S2 S 0.65713(4) -0.10944(9) -0.11046(3)
N1 N 0.59872(11) 0.4593(3) 0.19951(7)
H1 H 0.5447 0.5113 0.1957
N2 N 0.62552(12) 0.3592(2) 0.15110(7)
N3 N 0.74248(12) 0.3948(3) 0.25443(8)
H2 H 0.7538 0.3359 0.2221
C1 C 0.65908(13) 0.4741(3) 0.25306(9)
C2 C 0.62751(14) 0.0364(3) -0.05305(9)
C3 C 0.59070(13) 0.2501(3) 0.04735(8)
C4 C 0.69010(14) 0.0413(3) 0.00246(9)
H3 H 0.7441 -0.0280 0.0063
C5 C 0.54653(14) 0.1405(3) -0.05812(9)
H4 H 0.5048 0.1399 -0.0949
C6 C 0.67274(13) 0.1475(3) 0.05149(9)
H5 H 0.7158 0.1510 0.0876
C7 C 0.56888(13) 0.3578(3) 0.09981(9)
H6 H 0.5142 0.4253 0.0961
C8 C 0.81565(14) 0.4023(3) 0.30768(9)
H7 H 0.8697 0.3356 0.2986
H8 H 0.7909 0.3565 0.3443
H9 H 0.8347 0.5195 0.3153
C9 C 0.52844(13) 0.2450(3) -0.00809(9)
H10 H 0.4739 0.3127 -0.0116
C10 C 0.56946(16) -0.0720(3) -0.17628(10)
H11 H 0.5809 -0.1476 -0.2101
H12 H 0.5735 0.0452 -0.1899
H13 H 0.5071 -0.0934 -0.1641
loop_
_geom_bond_atom_site_label_1
_geom_bond_atom_site_label_2
_geom_bond_site_symmetry_1
_geom_bond_site_symmetry_2
S1 C1 1_555 1_555
S2 C2 1_555 1_555
N1 H1 1_555 1_555
N2 N1 1_555 1_555
N3 H2 1_555 1_555
C1 N1 1_555 1_555
C2 C4 1_555 1_555
C3 C6 1_555 1_555
C4 H3 1_555 1_555
C5 C2 1_555 1_555
H4 C5 1_555 1_555
C6 C4 1_555 1_555
H5 C6 1_555 1_555
C7 N2 1_555 1_555
H6 C7 1_555 1_555
C8 N3 1_555 1_555
H7 C8 1_555 1_555
H8 C8 1_555 1_555
H9 C8 1_555 1_555
C9 C3 1_555 1_555
H10 C9 1_555 1_555
C10 S2 1_555 1_555
H11 C10 1_555 1_555
H12 C10 1_555 1_555
H13 C10 1_555 1_555
N3 C1 1_555 1_555
C3 C7 1_555 1_555
C5 C9 1_555 1_555

#END
