
#######################################################################
#
#                 Cambridge Crystallographic Data Centre
#                                CCDC 
#
#######################################################################
#
# If this CIF has been generated from an entry in the Cambridge 
# Structural Database, then it will include bibliographic, chemical, 
# crystal, experimental, refinement or atomic coordinate data resulting 
# from the CCDC's data processing and validation procedures.
#
#######################################################################

data_AXAVIF
_chemical_formula_moiety         'C27 H27 N1 O8'
_chemical_name_systematic        
9-[(Furan-2-ylmethyl)amino]-5-(3,4,5-trimethoxyphenyl)-5,5a,8a,9-tetrahydrofuro[3',4':6,7]naphtho[2,3-d][1,3]dioxol-6(8H)-one
_chemical_properties_biological  'potential anti-cancer activity'
_symmetry_cell_setting           monoclinic
_symmetry_space_group_name_H-M   'P 21'
_symmetry_Int_Tables_number      4
_space_group_name_Hall           'P 2yb'
loop_
_symmetry_equiv_pos_site_id
_symmetry_equiv_pos_as_xyz
1 x,y,z
2 -x,1/2+y,-z
_cell_length_a                   11.7374(15)
_cell_length_b                   8.4087(8)
_cell_length_c                   11.8848(16)
_cell_angle_alpha                90
_cell_angle_beta                 102.693(5)
_cell_angle_gamma                90
_cell_volume                     1144.32
_exptl_crystal_colour            colorless
_exptl_crystal_description       prism
_cell_formula_units_Z            2
loop_
_atom_site_label
_atom_site_type_symbol
_atom_site_fract_x
_atom_site_fract_y
_atom_site_fract_z
O1 O 1.3701(3) 0.9258(3) 0.7345(3)
C1 C 1.4119(3) 0.9416(4) 0.6362(3)
H1 H 1.4695 1.0165 0.6263
C2 C 1.3609(4) 0.8374(6) 0.5562(4)
H2 H 1.3750 0.8249 0.4810
C3 C 1.2805(3) 0.7482(5) 0.6062(3)
H3 H 1.2312 0.6647 0.5703
C4 C 1.2879(4) 0.8046(6) 0.7136(4)
O2 O 0.86595(12) 0.7908(2) 0.34547(11)
O3 O 0.67662(11) 0.79787(18) 0.36877(11)
O4 O 1.00549(13) 0.9413(2) 1.06166(11)
O5 O 0.81900(13) 0.8872(2) 1.05584(13)
O6 O 0.52676(11) 1.28410(17) 0.92051(12)
O7 O 0.62669(11) 1.52498(15) 0.83580(11)
O8 O 0.79077(11) 1.47895(16) 0.71823(11)
N1 N 1.10768(16) 0.7428(2) 0.77354(18)
C5 C 1.23354(16) 0.7632(3) 0.81295(17)
H4 H 1.2492 0.8466 0.8694
H5 H 1.2673 0.6666 0.8485
C6 C 1.04161(16) 0.8907(2) 0.75745(16)
H6 H 1.0923 0.9741 0.7336
C7 C 0.93416(15) 0.8704(2) 0.65914(16)
C8 C 0.95707(17) 0.8448(3) 0.54918(16)
H7 H 1.0349 0.8434 0.5385
C9 C 0.86540(16) 0.8223(2) 0.45889(16)
C10 C 0.74725(18) 0.8030(3) 0.28551(17)
H8 H 0.7269 0.7138 0.2304
H9 H 0.7343 0.9040 0.2419
C11 C 0.75225(16) 0.8251(2) 0.47291(16)
C12 C 0.72683(16) 0.8476(2) 0.57774(16)
H10 H 0.6483 0.8477 0.5863
C13 C 0.81992(16) 0.8708(2) 0.67332(16)
C14 C 0.78895(16) 0.8993(2) 0.78943(16)
H11 H 0.7264 0.8221 0.7974
C15 C 0.89755(16) 0.8617(2) 0.88232(16)
H12 H 0.9140 0.7457 0.8766
C16 C 0.89706(19) 0.8959(3) 1.00600(18)
C17 C 1.08442(18) 0.9333(3) 0.98287(17)
H13 H 1.1261 0.8302 0.9899
H14 H 1.1424 1.0205 0.9980
C18 C 1.00434(16) 0.9508(3) 0.86503(16)
H15 H 0.9831 1.0657 0.8531
C19 C 0.74248(16) 1.0657(2) 0.79825(15)
C20 C 0.78823(15) 1.1934(2) 0.74867(16)
H16 H 0.8466 1.1755 0.7060
C21 C 0.74977(15) 1.3459(2) 0.76073(15)
C22 C 0.66214(15) 1.3726(2) 0.81994(16)
C23 C 0.61405(15) 1.2451(2) 0.86715(16)
C24 C 0.65474(16) 1.0917(2) 0.85763(16)
H17 H 0.6227 1.0050 0.8916
C25 C 0.88269(16) 1.4550(2) 0.65900(16)
H18 H 0.9504 1.4086 0.7120
H19 H 0.9048 1.5573 0.6304
H20 H 0.8561 1.3827 0.5938
C26 C 0.54369(17) 1.5820(3) 0.73793(18)
H21 H 0.5794 1.5843 0.6708
H22 H 0.5190 1.6896 0.7536
H23 H 0.4757 1.5113 0.7222
C27 C 0.47759(17) 1.1602(3) 0.97667(17)
H24 H 0.4453 1.0777 0.9204
H25 H 0.4153 1.2039 1.0104
H26 H 0.5384 1.1139 1.0378
H27 H 1.086(2) 0.676(4) 0.803(2)
C28? C 1.3229(8) 0.7386(14) 0.5538(7)
C29? C 1.3680(11) 0.8821(13) 0.5781(10)
C30? C 1.3437(11) 0.9230(11) 0.6900(10)
C31? C 1.2882(10) 0.8003(14) 0.7168(9)
H28? H 1.3261 0.6824 0.4852
H29? H 1.4078 0.9450 0.5325
H30? H 1.3639 1.0178 0.7332
H31? H 1.2489 0.8474 0.8688
H32? H 1.2669 0.6670 0.8495
O9? O 1.2713(6) 0.6797(10) 0.6369(6)
loop_
_geom_bond_atom_site_label_1
_geom_bond_atom_site_label_2
_geom_bond_site_symmetry_1
_geom_bond_site_symmetry_2
O1 C1 1_555 1_555
C1 H1 1_555 1_555
C2 C1 1_555 1_555
H2 C2 1_555 1_555
C3 C2 1_555 1_555
H3 C3 1_555 1_555
C4 O1 1_555 1_555
O2 C9 1_555 1_555
O3 C10 1_555 1_555
O4 C16 1_555 1_555
O5 C16 1_555 1_555
O6 C23 1_555 1_555
O7 C22 1_555 1_555
O8 C21 1_555 1_555
N1 C5 1_555 1_555
C5 C4 1_555 1_555
H4 C5 1_555 1_555
H5 C5 1_555 1_555
C6 N1 1_555 1_555
H6 C6 1_555 1_555
C7 C6 1_555 1_555
C8 C7 1_555 1_555
H7 C8 1_555 1_555
C9 C8 1_555 1_555
C10 O2 1_555 1_555
H8 C10 1_555 1_555
H9 C10 1_555 1_555
C11 O3 1_555 1_555
C12 C11 1_555 1_555
H10 C12 1_555 1_555
C13 C7 1_555 1_555
C14 C13 1_555 1_555
H11 C14 1_555 1_555
C15 C14 1_555 1_555
H12 C15 1_555 1_555
C16 C15 1_555 1_555
C17 O4 1_555 1_555
H13 C17 1_555 1_555
H14 C17 1_555 1_555
C18 C6 1_555 1_555
H15 C18 1_555 1_555
C19 C14 1_555 1_555
C20 C19 1_555 1_555
H16 C20 1_555 1_555
C21 C20 1_555 1_555
C22 C21 1_555 1_555
C23 C22 1_555 1_555
C24 C19 1_555 1_555
H17 C24 1_555 1_555
C25 O8 1_555 1_555
H18 C25 1_555 1_555
H19 C25 1_555 1_555
H20 C25 1_555 1_555
C26 O7 1_555 1_555
H21 C26 1_555 1_555
H22 C26 1_555 1_555
H23 C26 1_555 1_555
C27 O6 1_555 1_555
H24 C27 1_555 1_555
H25 C27 1_555 1_555
H26 C27 1_555 1_555
H27 N1 1_555 1_555
C3 C4 1_555 1_555
C9 C11 1_555 1_555
C12 C13 1_555 1_555
C15 C18 1_555 1_555
C17 C18 1_555 1_555
C23 C24 1_555 1_555

#END
