
#######################################################################
#
#                 Cambridge Crystallographic Data Centre
#                                CCDC 
#
#######################################################################
#
# If this CIF has been generated from an entry in the Cambridge 
# Structural Database, then it will include bibliographic, chemical, 
# crystal, experimental, refinement or atomic coordinate data resulting 
# from the CCDC's data processing and validation procedures.
#
#######################################################################

data_AXAXED
_chemical_formula_moiety         'C21 H15 N1 O1'
_chemical_name_systematic        3-(Diphenylmethylidene)indolin-2-one
_symmetry_cell_setting           orthorhombic
_symmetry_space_group_name_H-M   'P n a 21'
_symmetry_Int_Tables_number      33
_space_group_name_Hall           'P 2c -2n'
loop_
_symmetry_equiv_pos_site_id
_symmetry_equiv_pos_as_xyz
1 x,y,z
2 -x,-y,1/2+z
3 1/2+x,1/2-y,z
4 1/2-x,1/2+y,1/2+z
_cell_length_a                   11.0679(11)
_cell_length_b                   17.6465(16)
_cell_length_c                   7.8835(6)
_cell_angle_alpha                90
_cell_angle_beta                 90
_cell_angle_gamma                90
_cell_volume                     1539.72
_exptl_crystal_colour            yellow
_exptl_crystal_description       block
_cell_formula_units_Z            4
loop_
_atom_site_label
_atom_site_type_symbol
_atom_site_fract_x
_atom_site_fract_y
_atom_site_fract_z
N1 N 0.4749(2) 0.42487(13) 0.0945(4)
H1 H 0.4439 0.4611 0.0361
O1 O 0.5893(2) 0.49677(11) 0.2730(3)
C1 C 0.5549(3) 0.43506(16) 0.2223(4)
C2 C 0.5846(3) 0.35719(15) 0.2880(4)
C3 C 0.5159(2) 0.30486(15) 0.1807(4)
C4 C 0.4489(3) 0.34850(16) 0.0692(4)
C5 C 0.3681(3) 0.3183(2) -0.0444(5)
H2 H 0.3233 0.3490 -0.1167
C6 C 0.3564(3) 0.2406(2) -0.0468(5)
H3 H 0.3012 0.2184 -0.1206
C7 C 0.4244(3) 0.19516(18) 0.0577(5)
H4 H 0.4163 0.1428 0.0513
C8 C 0.5051(3) 0.22649(16) 0.1725(5)
H5 H 0.5511 0.1956 0.2428
C9 C 0.6510(2) 0.34259(15) 0.4264(4)
C10 C 0.6611(2) 0.26418(15) 0.4946(4)
C11 C 0.7606(3) 0.22020(16) 0.4565(4)
H6 H 0.8228 0.2403 0.3912
C12 C 0.7683(3) 0.14681(17) 0.5144(5)
H7 H 0.8355 0.1176 0.4873
C13 C 0.6788(3) 0.11674(17) 0.6108(5)
H8 H 0.6844 0.0671 0.6496
C14 C 0.5802(3) 0.15989(18) 0.6504(5)
H9 H 0.5187 0.1393 0.7162
C15 C 0.5712(3) 0.23353(16) 0.5939(4)
H10 H 0.5042 0.2626 0.6230
C16 C 0.7198(3) 0.40090(16) 0.5234(4)
C17 C 0.6978(3) 0.41196(17) 0.6938(4)
H11 H 0.6395 0.3828 0.7480
C18 C 0.7609(4) 0.46540(19) 0.7850(5)
H12 H 0.7447 0.4725 0.8997
C19 C 0.8472(3) 0.50795(19) 0.7065(6)
H13 H 0.8891 0.5445 0.7677
C20 C 0.8726(3) 0.49722(19) 0.5391(6)
H14 H 0.9326 0.5258 0.4868
C21 C 0.8093(3) 0.44404(17) 0.4473(5)
H15 H 0.8267 0.4370 0.3330
loop_
_geom_bond_atom_site_label_1
_geom_bond_atom_site_label_2
_geom_bond_site_symmetry_1
_geom_bond_site_symmetry_2
N1 H1 1_555 1_555
O1 C1 1_555 1_555
C1 N1 1_555 1_555
C2 C1 1_555 1_555
C3 C2 1_555 1_555
C4 N1 1_555 1_555
C5 C4 1_555 1_555
H2 C5 1_555 1_555
C6 C5 1_555 1_555
H3 C6 1_555 1_555
C7 C6 1_555 1_555
H4 C7 1_555 1_555
C8 C3 1_555 1_555
H5 C8 1_555 1_555
C9 C2 1_555 1_555
C10 C9 1_555 1_555
C11 C10 1_555 1_555
H6 C11 1_555 1_555
C12 C11 1_555 1_555
H7 C12 1_555 1_555
C13 C12 1_555 1_555
H8 C13 1_555 1_555
C14 C13 1_555 1_555
H9 C14 1_555 1_555
C15 C10 1_555 1_555
H10 C15 1_555 1_555
C16 C9 1_555 1_555
C17 C16 1_555 1_555
H11 C17 1_555 1_555
C18 C17 1_555 1_555
H12 C18 1_555 1_555
C19 C18 1_555 1_555
H13 C19 1_555 1_555
C20 C19 1_555 1_555
H14 C20 1_555 1_555
C21 C16 1_555 1_555
H15 C21 1_555 1_555
C3 C4 1_555 1_555
C7 C8 1_555 1_555
C14 C15 1_555 1_555
C20 C21 1_555 1_555

#END
