
#######################################################################
#
#                 Cambridge Crystallographic Data Centre
#                                CCDC 
#
#######################################################################
#
# If this CIF has been generated from an entry in the Cambridge 
# Structural Database, then it will include bibliographic, chemical, 
# crystal, experimental, refinement or atomic coordinate data resulting 
# from the CCDC's data processing and validation procedures.
#
#######################################################################

data_AXECEL
_chemical_compound_source        'mangrove fungus Aigialus parvus BCC 5311'
_chemical_name_common            Aigialone
_chemical_formula_moiety         'C16 H26 O5'
_chemical_name_systematic        
(2S*,4S*,5R*,6S*)-6-Heptyl-4,5-dihydroxy-2,5-dimethyl-5,6-dihydro-4H-furo(2,3-b)pyran-3(2H)-one
_chemical_properties_biological  
'no antimalarial, antitubercular, antiviral or antifungal activity'
_symmetry_cell_setting           monoclinic
_symmetry_space_group_name_H-M   'P 21'
_symmetry_Int_Tables_number      4
_space_group_name_Hall           'P 2yb'
loop_
_symmetry_equiv_pos_site_id
_symmetry_equiv_pos_as_xyz
1 x,y,z
2 -x,1/2+y,-z
_cell_length_a                   5.4952(2)
_cell_length_b                   8.6872(4)
_cell_length_c                   17.1402(8)
_cell_angle_alpha                90
_cell_angle_beta                 93.979(2)
_cell_angle_gamma                90
_cell_volume                     816.265
_exptl_crystal_colour            colorless
_exptl_crystal_description       plate
_chemical_melting_point          '133 deg.C'
_cell_formula_units_Z            2
loop_
_atom_site_label
_atom_site_type_symbol
_atom_site_fract_x
_atom_site_fract_y
_atom_site_fract_z
O1 O -0.1282(2) 0.5728(2) 0.94199(9)
O2 O -0.1277(3) 0.51790(19) 0.78174(9)
O3 O 0.4428(2) 0.38160(19) 0.89322(9)
O4 O 0.0580(3) 0.0399(2) 0.89775(10)
C1 C -0.0116(3) 0.1473(3) 0.85472(12)
O5 O -0.2385(3) 0.2790(2) 0.75293(9)
C2 C 0.1053(3) 0.5693(3) 0.90843(12)
C3 C -0.1028(4) 0.3726(3) 0.79955(12)
C4 C 0.1973(3) 0.4013(2) 0.91441(11)
C5 C 0.0392(3) 0.3069(3) 0.85914(11)
C6 C 0.0514(4) 0.6215(3) 0.82364(13)
C7 C -0.1888(4) 0.1232(3) 0.78321(14)
C8 C 0.2698(4) 0.6342(3) 0.77424(13)
C9 C 0.2793(4) 0.6812(3) 0.95191(14)
C10 C -0.4210(5) 0.0467(4) 0.80180(19)
C11 C 0.2091(5) 0.6959(4) 0.69227(15)
C12 C 0.4328(5) 0.7027(4) 0.64512(15)
C13 C 0.3804(6) 0.7341(6) 0.55919(18)
C14 C 0.6105(6) 0.7354(6) 0.51371(18)
C15 C 0.5638(8) 0.7486(7) 0.4266(2)
C16 C 0.7913(8) 0.7513(8) 0.3837(2)
H1 H -0.1076 0.5716 0.9898
H2 H 0.5333 0.4395 0.9195
H3 H 0.1838 0.3672 0.9672
H4 H -0.0185 0.7228 0.8228
H5 H -0.1155 0.0634 0.7440
H6 H 0.3891 0.7016 0.7996
H7 H 0.3397 0.5339 0.7686
H8 H 0.4343 0.6791 0.9293
H9 H 0.3003 0.6521 1.0060
H10 H 0.2125 0.7832 0.9478
H11 H -0.5248 0.0350 0.7548
H12 H -0.5019 0.1089 0.8384
H13 H -0.3858 -0.0527 0.8243
H14 H 0.0906 0.6305 0.6651
H15 H 0.1438 0.7980 0.6959
H16 H 0.5381 0.7836 0.6653
H17 H 0.5176 0.6061 0.6498
H18 H 0.2739 0.6550 0.5376
H19 H 0.3013 0.8323 0.5528
H20 H 0.7098 0.8210 0.5315
H21 H 0.6978 0.6412 0.5244
H22 H 0.4659 0.6627 0.4083
H23 H 0.4763 0.8425 0.4154
H24 H 0.7536 0.7603 0.3284
H25 H 0.8793 0.6574 0.3947
H26 H 0.8896 0.8372 0.4018
loop_
_geom_bond_atom_site_label_1
_geom_bond_atom_site_label_2
_geom_bond_site_symmetry_1
_geom_bond_site_symmetry_2
O1 C2 1_555 1_555
O2 C3 1_555 1_555
O3 C4 1_555 1_555
O4 C1 1_555 1_555
C1 C5 1_555 1_555
O5 C3 1_555 1_555
C2 C4 1_555 1_555
C3 C5 1_555 1_555
C4 C5 1_555 1_555
C6 O2 1_555 1_555
C7 C1 1_555 1_555
C8 C6 1_555 1_555
C9 C2 1_555 1_555
C10 C7 1_555 1_555
C11 C8 1_555 1_555
C12 C11 1_555 1_555
C13 C12 1_555 1_555
C14 C13 1_555 1_555
C15 C14 1_555 1_555
C16 C15 1_555 1_555
H1 O1 1_555 1_555
H2 O3 1_555 1_555
H3 C4 1_555 1_555
H4 C6 1_555 1_555
H5 C7 1_555 1_555
H6 C8 1_555 1_555
H7 C8 1_555 1_555
H8 C9 1_555 1_555
H9 C9 1_555 1_555
H10 C9 1_555 1_555
H11 C10 1_555 1_555
H12 C10 1_555 1_555
H13 C10 1_555 1_555
H14 C11 1_555 1_555
H15 C11 1_555 1_555
H16 C12 1_555 1_555
H17 C12 1_555 1_555
H18 C13 1_555 1_555
H19 C13 1_555 1_555
H20 C14 1_555 1_555
H21 C14 1_555 1_555
H22 C15 1_555 1_555
H23 C15 1_555 1_555
H24 C16 1_555 1_555
H25 C16 1_555 1_555
H26 C16 1_555 1_555
O5 C7 1_555 1_555
C2 C6 1_555 1_555

#END
