
#######################################################################
#
#                 Cambridge Crystallographic Data Centre
#                                CCDC 
#
#######################################################################
#
# If this CIF has been generated from an entry in the Cambridge 
# Structural Database, then it will include bibliographic, chemical, 
# crystal, experimental, refinement or atomic coordinate data resulting 
# from the CCDC's data processing and validation procedures.
#
#######################################################################

data_AXEDOX
_chemical_formula_moiety         'C23 H22 Cl2 O4'
_chemical_name_systematic        
2-(1-(3,4-Dichlorophenyl)-3-oxo-3-phenylpropyl)-2-hydroxy-5,5-dimethylcyclohexane-1,3-dione
_symmetry_cell_setting           triclinic
_symmetry_space_group_name_H-M   'P -1'
_symmetry_Int_Tables_number      2
_space_group_name_Hall           '-P 1'
loop_
_symmetry_equiv_pos_site_id
_symmetry_equiv_pos_as_xyz
1 x,y,z
2 -x,-y,-z
_cell_length_a                   10.9377(5)
_cell_length_b                   10.9571(5)
_cell_length_c                   11.0854(6)
_cell_angle_alpha                67.781(5)
_cell_angle_beta                 61.343(5)
_cell_angle_gamma                86.701(6)
_cell_volume                     1066.63
_exptl_crystal_colour            colorless
_exptl_crystal_description       block
_cell_formula_units_Z            2
loop_
_atom_site_label
_atom_site_type_symbol
_atom_site_fract_x
_atom_site_fract_y
_atom_site_fract_z
Cl1 Cl 0.56088(5) -0.18966(4) 0.54364(5)
Cl2 Cl 0.73147(4) -0.00268(5) 0.19470(5)
O1 O 0.11564(11) 0.15890(10) 0.35936(11)
H1 H 0.1534 0.1996 0.3845
O2 O 0.34432(12) 0.32922(11) 0.21926(13)
O3 O 0.00037(12) 0.23801(12) 0.18396(14)
O4 O 0.29905(11) -0.18783(11) 0.15498(13)
C1 C 0.25595(14) 0.04734(13) 0.19559(16)
H2 H 0.3238 0.0676 0.0899
C2 C 0.06345(15) -0.29158(13) 0.28443(15)
C3 C 0.17503(15) -0.17859(14) 0.22248(16)
C4 C 0.25834(16) -0.08822(14) 0.43875(17)
H3 H 0.1603 -0.1038 0.4897
C5 C 0.47495(16) -0.11978(14) 0.44260(17)
C6 C 0.54901(15) -0.03990(15) 0.29026(17)
C7 C 0.42286(15) 0.34324(15) -0.02853(17)
H4 H 0.4726 0.2738 -0.0565
H5 H 0.4925 0.4158 -0.0598
C8 C 0.13153(14) -0.05115(14) 0.24318(17)
H6 H 0.0634 -0.0731 0.3479
H7 H 0.0859 -0.0087 0.1848
C9 C 0.33140(14) -0.01013(13) 0.28511(15)
C10 C 0.12526(15) 0.23484(13) 0.11963(17)
C11 C 0.32976(16) -0.14266(14) 0.51609(17)
H8 H 0.2796 -0.1951 0.6185
C12 C 0.33805(17) 0.39418(15) -0.11093(17)
C13 C 0.20475(14) 0.18142(13) 0.20791(15)
C14 C -0.07887(16) -0.28107(15) 0.35083(18)
H9 H -0.1073 -0.2010 0.3570
C15 C 0.0027(2) -0.51938(17) 0.3353(2)
H10 H 0.0303 -0.6000 0.3302
C16 C 0.47778(14) 0.01329(14) 0.21236(17)
H11 H 0.5283 0.0654 0.1099
C17 C 0.4370(2) 0.4278(2) -0.2777(2)
H12 H 0.5140 0.4947 -0.3159
H13 H 0.3862 0.4607 -0.3312
H14 H 0.4729 0.3489 -0.2907
C18 C 0.10300(18) -0.41231(15) 0.27735(19)
H15 H 0.1980 -0.4210 0.2331
C19 C 0.21539(17) 0.28438(16) -0.04741(18)
H16 H 0.1575 0.3194 -0.0933
H17 H 0.2535 0.2103 -0.0736
C20 C 0.33049(15) 0.28921(14) 0.13817(17)
C21 C -0.17882(18) -0.38901(16) 0.4079(2)
H18 H -0.2741 -0.3811 0.4515
C22 C -0.1375(2) -0.50796(17) 0.4004(2)
H19 H -0.2048 -0.5807 0.4394
C23 C 0.2788(2) 0.51860(16) -0.0885(2)
H20 H 0.2191 0.4972 0.0167
H21 H 0.2251 0.5494 -0.1390
H22 H 0.3551 0.5873 -0.1292
loop_
_geom_bond_atom_site_label_1
_geom_bond_atom_site_label_2
_geom_bond_site_symmetry_1
_geom_bond_site_symmetry_2
Cl1 C5 1_555 1_555
Cl2 C6 1_555 1_555
O1 H1 1_555 1_555
O2 C20 1_555 1_555
O3 C10 1_555 1_555
O4 C3 1_555 1_555
C1 H2 1_555 1_555
C2 C3 1_555 1_555
C3 C8 1_555 1_555
C4 H3 1_555 1_555
C5 C6 1_555 1_555
C6 C16 1_555 1_555
C7 H4 1_555 1_555
H5 C7 1_555 1_555
C8 C1 1_555 1_555
H6 C8 1_555 1_555
H7 C8 1_555 1_555
C9 C1 1_555 1_555
C10 C13 1_555 1_555
C11 C4 1_555 1_555
H8 C11 1_555 1_555
C12 C7 1_555 1_555
C13 O1 1_555 1_555
C14 C2 1_555 1_555
H9 C14 1_555 1_555
C15 H10 1_555 1_555
C16 C9 1_555 1_555
H11 C16 1_555 1_555
C17 C12 1_555 1_555
H12 C17 1_555 1_555
H13 C17 1_555 1_555
H14 C17 1_555 1_555
C18 C2 1_555 1_555
H15 C18 1_555 1_555
C19 C10 1_555 1_555
H16 C19 1_555 1_555
H17 C19 1_555 1_555
C20 C7 1_555 1_555
C21 C14 1_555 1_555
H18 C21 1_555 1_555
C22 C15 1_555 1_555
H19 C22 1_555 1_555
C23 C12 1_555 1_555
H20 C23 1_555 1_555
H21 C23 1_555 1_555
H22 C23 1_555 1_555
C1 C13 1_555 1_555
C4 C9 1_555 1_555
C5 C11 1_555 1_555
C12 C19 1_555 1_555
C13 C20 1_555 1_555
C15 C18 1_555 1_555
C21 C22 1_555 1_555

#END
