
#######################################################################
#
#                 Cambridge Crystallographic Data Centre
#                                CCDC 
#
#######################################################################
#
# If this CIF has been generated from an entry in the Cambridge 
# Structural Database, then it will include bibliographic, chemical, 
# crystal, experimental, refinement or atomic coordinate data resulting 
# from the CCDC's data processing and validation procedures.
#
#######################################################################

data_AXEJET
_chemical_formula_moiety         'C26 H28 N2 O4'
_chemical_name_systematic        
't-Butyl (4-(9-oxo-1-phenyl-2,9-dihydrochromeno[2,3-c]pyrrol-3-yl)butyl)carbamate'
_symmetry_cell_setting           monoclinic
_symmetry_space_group_name_H-M   'P 21/n'
_symmetry_Int_Tables_number      14
_space_group_name_Hall           '-P 2yn'
loop_
_symmetry_equiv_pos_site_id
_symmetry_equiv_pos_as_xyz
1 x,y,z
2 1/2-x,1/2+y,1/2-z
3 -x,-y,-z
4 1/2+x,1/2-y,1/2+z
_cell_length_a                   8.8006(2)
_cell_length_b                   16.7649(4)
_cell_length_c                   15.7990(3)
_cell_angle_alpha                90
_cell_angle_beta                 99.384(2)
_cell_angle_gamma                90
_cell_volume                     2299.81
_exptl_crystal_colour            green
_exptl_crystal_description       prism
_cell_formula_units_Z            4
loop_
_atom_site_label
_atom_site_type_symbol
_atom_site_fract_x
_atom_site_fract_y
_atom_site_fract_z
O1 O 0.77649(15) -0.16246(7) 0.06594(8)
O2 O 0.61756(13) 0.06414(6) 0.11073(7)
O3 O 0.85320(13) 0.17688(7) 0.56626(7)
O4 O 0.67095(13) 0.09558(7) 0.60675(7)
N1 N 0.48742(15) -0.07418(8) 0.24861(8)
H1 H 0.441(2) -0.0861(12) 0.2914(14)
N2 N 0.61216(16) 0.19297(8) 0.50676(8)
H2 H 0.6482 0.2334 0.4831
C1 C 0.71703(17) -0.09769(9) 0.07758(9)
C2 C 0.74258(17) -0.02763(9) 0.02524(9)
C3 C 0.8189(2) -0.03645(11) -0.04536(10)
H3 H 0.855(3) -0.0904(15) -0.0568(14)
C4 C 0.8468(2) 0.02780(12) -0.09445(10)
H4 H 0.899(2) 0.0221(13) -0.1432(13)
C5 C 0.7988(2) 0.10342(11) -0.07408(10)
H5 H 0.819(3) 0.1528(15) -0.1073(15)
C6 C 0.7223(2) 0.11399(10) -0.00546(10)
H6 H 0.691(3) 0.1674(18) 0.0115(18)
C7 C 0.69418(17) 0.04860(9) 0.04365(9)
C8 C 0.58174(17) -0.00047(9) 0.15647(9)
C9 C 0.62204(16) -0.08066(9) 0.14169(9)
C10 C 0.55708(16) -0.12666(9) 0.20109(9)
C11 C 0.54874(17) -0.21250(9) 0.21473(10)
C12 C 0.5168(2) -0.24327(11) 0.29172(11)
H7 H 0.498(2) -0.2043(12) 0.3398(13)
C13 C 0.5140(3) -0.32456(13) 0.30588(13)
H8 H 0.494(3) -0.3422(16) 0.3627(16)
C14 C 0.5402(2) -0.37703(12) 0.24338(14)
H9 H 0.534(3) -0.4363(19) 0.2543(16)
C15 C 0.5665(2) -0.34790(12) 0.16454(14)
H10 H 0.586(3) -0.3887(17) 0.1194(16)
C16 C 0.5701(2) -0.26728(11) 0.14970(12)
H11 H 0.587(3) -0.2491(15) 0.0923(17)
C17 C 0.50005(18) 0.00336(9) 0.22283(9)
C18 C 0.4264(2) 0.07181(11) 0.26025(10)
H12 H 0.314(3) 0.0634(14) 0.2531(14)
H13 H 0.435(3) 0.1198(15) 0.2246(15)
C19 C 0.48490(18) 0.08802(10) 0.35497(9)
H14 H 0.467(3) 0.0403(14) 0.3865(15)
H15 H 0.596(3) 0.0976(12) 0.3608(13)
C20 C 0.40478(19) 0.15967(10) 0.38693(10)
H16 H 0.294(3) 0.1523(13) 0.3746(13)
H17 H 0.428(2) 0.2085(14) 0.3530(14)
C21 C 0.44974(19) 0.17449(10) 0.48292(10)
H18 H 0.433(2) 0.1273(12) 0.5155(12)
H19 H 0.389(2) 0.2179(12) 0.4987(11)
C22 C 0.70845(18) 0.15059(9) 0.56344(9)
C23 C 0.9801(2) 0.14641(12) 0.62939(10)
C24 C 1.0102(3) 0.06148(17) 0.6113(2)
H20 H 0.9319 0.0287 0.6292
H21 H 1.1091 0.0462 0.6422
H22 H 1.0093 0.0546 0.5509
C25 C 0.9484(3) 0.16083(19) 0.71913(12)
H23 H 0.9115 0.2143 0.7235
H24 H 1.0415 0.1536 0.7594
H25 H 0.8719 0.1238 0.7316
C26 C 1.1126(3) 0.1982(2) 0.61203(18)
H26 H 1.1211 0.1951 0.5523
H27 H 1.2065 0.1798 0.6460
H28 H 1.0942 0.2524 0.6268
loop_
_geom_bond_atom_site_label_1
_geom_bond_atom_site_label_2
_geom_bond_site_symmetry_1
_geom_bond_site_symmetry_2
O1 C1 1_555 1_555
O2 C7 1_555 1_555
O3 C22 1_555 1_555
O4 C22 1_555 1_555
N1 H1 1_555 1_555
N2 H2 1_555 1_555
C1 C2 1_555 1_555
C2 C3 1_555 1_555
C3 H3 1_555 1_555
C4 C3 1_555 1_555
H4 C4 1_555 1_555
C5 C4 1_555 1_555
H5 C5 1_555 1_555
C6 C5 1_555 1_555
H6 C6 1_555 1_555
C7 C2 1_555 1_555
C8 O2 1_555 1_555
C9 C1 1_555 1_555
C10 N1 1_555 1_555
C11 C10 1_555 1_555
C12 C11 1_555 1_555
H7 C12 1_555 1_555
C13 C12 1_555 1_555
H8 C13 1_555 1_555
C14 C13 1_555 1_555
H9 C14 1_555 1_555
C15 C14 1_555 1_555
H10 C15 1_555 1_555
C16 C11 1_555 1_555
H11 C16 1_555 1_555
C17 N1 1_555 1_555
C18 C17 1_555 1_555
H12 C18 1_555 1_555
H13 C18 1_555 1_555
C19 C18 1_555 1_555
H14 C19 1_555 1_555
H15 C19 1_555 1_555
C20 C19 1_555 1_555
H16 C20 1_555 1_555
H17 C20 1_555 1_555
C21 N2 1_555 1_555
H18 C21 1_555 1_555
H19 C21 1_555 1_555
C22 N2 1_555 1_555
C23 O3 1_555 1_555
C24 C23 1_555 1_555
H20 C24 1_555 1_555
H21 C24 1_555 1_555
H22 C24 1_555 1_555
C25 C23 1_555 1_555
H23 C25 1_555 1_555
H24 C25 1_555 1_555
H25 C25 1_555 1_555
C26 C23 1_555 1_555
H26 C26 1_555 1_555
H27 C26 1_555 1_555
H28 C26 1_555 1_555
C6 C7 1_555 1_555
C8 C9 1_555 1_555
C8 C17 1_555 1_555
C9 C10 1_555 1_555
C15 C16 1_555 1_555
C20 C21 1_555 1_555

#END
