
#######################################################################
#
#                 Cambridge Crystallographic Data Centre
#                                CCDC 
#
#######################################################################
#
# If this CIF has been generated from an entry in the Cambridge 
# Structural Database, then it will include bibliographic, chemical, 
# crystal, experimental, refinement or atomic coordinate data resulting 
# from the CCDC's data processing and validation procedures.
#
#######################################################################

data_AXEKAP
_chemical_formula_moiety         'C8 H11 Br1 N4 O5'
_chemical_name_systematic        
5-Bromo-1-\b-D-ribofuranosyl-1,2,4-triazole-3-carboxamide
_symmetry_cell_setting           triclinic
_symmetry_space_group_name_H-M   'P 1'
_symmetry_Int_Tables_number      1
_space_group_name_Hall           'P 1'
loop_
_symmetry_equiv_pos_site_id
_symmetry_equiv_pos_as_xyz
1 x,y,z
_cell_length_a                   7.7710(1)
_cell_length_b                   8.2170(8)
_cell_length_c                   9.2610(8)
_cell_angle_alpha                91.260(5)
_cell_angle_beta                 100.967(5)
_cell_angle_gamma                96.129(6)
_cell_volume                     576.694
_exptl_crystal_colour            colorless
_exptl_crystal_description       prism
_cell_formula_units_Z            2
_exptl_crystal_recrystallization_method methanol
loop_
_atom_site_label
_atom_site_type_symbol
_atom_site_fract_x
_atom_site_fract_y
_atom_site_fract_z
Br1 Br -0.54873(5) -1.35261(4) -0.54729(4)
O1 O -0.2602(4) -0.6882(3) -0.5088(3)
O2 O -0.4840(3) -1.3482(3) -0.1620(3)
O3 O -0.7893(4) -1.3563(5) -0.0388(3)
H1 H -0.8023 -1.3640 -0.1460
O4 O -0.2401(4) -1.1757(3) 0.1879(3)
O5 O -0.1193(3) -1.3906(3) 0.0040(3)
N1 N -0.3909(4) -1.0255(4) -0.5033(4)
N2 N -0.2510(4) -1.0156(4) -0.2657(3)
N3 N -0.3349(4) -1.1695(3) -0.3054(3)
N4 N -0.0998(5) -0.7000(5) -0.2793(4)
H3 H -0.0745 -0.7641 -0.2056
H4 H -0.0575 -0.5944 -0.2718
C1 C -0.4169(5) -1.1699(4) -0.4459(4)
C2 C -0.2884(5) -0.9375(4) -0.3876(4)
C3 C -0.2144(5) -0.7635(4) -0.3954(4)
C4 C -0.3197(4) -1.3036(4) -0.2016(4)
H7 H -0.2865 -1.3956 -0.2389
C5 C -0.4735(4) -1.3074(4) -0.0079(3)
H8 H -0.4567 -1.4072 0.0547
C6 C -0.3085(4) -1.1853(4) 0.0340(4)
H9 H -0.3550 -1.0811 0.0012
C7 C -0.1873(4) -1.2514(4) -0.0601(4)
H10 H -0.0880 -1.1728 -0.0712
C8 C -0.6411(5) -1.2425(6) 0.0119(4)
H11 H -0.6494 -1.1365 -0.0424
H12 H -0.6454 -1.2115 0.1095
Br2 Br 0.38153(4) -0.71409(3) -0.25898(3)
O6 O 0.0456(4) -1.3652(3) -0.3186(3)
O7 O 0.0943(4) -0.6873(3) -0.6558(3)
O8 O -0.2588(3) -0.8379(3) -0.7744(3)
H2 H -0.2581 -0.8025 -0.6872
O9 O 0.1062(4) -0.8571(5) -1.0150(3)
O10 O 0.3953(4) -0.7441(5) -0.8230(4)
N5 N 0.2038(4) -1.0354(4) -0.3132(4)
N6 N 0.1098(4) -1.0446(4) -0.5619(3)
N7 N 0.2057(4) -0.8989(3) -0.5148(3)
N8 N -0.0761(5) -1.3536(5) -0.5580(4)
H5 H -0.0989 -1.2997 -0.6155
H6 H -0.1217 -1.4654 -0.5374
C9 C 0.2575(5) -0.8971(5) -0.3667(4)
C10 C 0.1131(4) -1.1207(4) -0.4377(4)
C11 C 0.0239(5) -1.2912(4) -0.4346(4)
C12 C 0.2424(5) -0.7750(4) -0.6195(4)
H13 H 0.3631 -0.6872 -0.5765
C13 C 0.0277(5) -0.7032(4) -0.8113(4)
H14 H 0.0704 -0.6186 -0.8757
C14 C 0.0966(5) -0.8571(5) -0.8637(4)
H15 H 0.0188 -0.9600 -0.8425
C15 C 0.2768(4) -0.8516(4) -0.7628(4)
H16 H 0.3202 -0.9573 -0.7388
C16 C -0.1706(5) -0.7063(4) -0.8405(4)
H17 H -0.2045 -0.7279 -0.9455
H18 H -0.2117 -0.6011 -0.8033
loop_
_geom_bond_atom_site_label_1
_geom_bond_atom_site_label_2
_geom_bond_site_symmetry_1
_geom_bond_site_symmetry_2
Br1 C1 1_555 1_555
Br2 C9 1_555 1_555
O1 C3 1_555 1_555
O2 C4 1_555 1_555
O3 H1 1_555 1_555
O4 C6 1_555 1_555
O5 C7 1_555 1_555
O6 C11 1_555 1_555
O7 C12 1_555 1_555
O8 H2 1_555 1_555
O9 C14 1_555 1_555
O10 C15 1_555 1_555
N1 C1 1_555 1_555
N2 N3 1_555 1_555
N3 C1 1_555 1_555
N4 H3 1_555 1_555
H4 N4 1_555 1_555
N5 C9 1_555 1_555
N6 N7 1_555 1_555
N7 C9 1_555 1_555
N8 H5 1_555 1_555
H6 N8 1_555 1_555
C2 N1 1_555 1_555
C3 N4 1_555 1_555
C4 N3 1_555 1_555
H7 C4 1_555 1_555
C5 O2 1_555 1_555
H8 C5 1_555 1_555
C6 C5 1_555 1_555
H9 C6 1_555 1_555
C7 C4 1_555 1_555
H10 C7 1_555 1_555
C8 O3 1_555 1_555
H11 C8 1_555 1_555
H12 C8 1_555 1_555
C10 N5 1_555 1_555
C11 N8 1_555 1_555
C12 N7 1_555 1_555
H13 C12 1_555 1_555
C13 O7 1_555 1_555
H14 C13 1_555 1_555
C14 C13 1_555 1_555
H15 C14 1_555 1_555
C15 C12 1_555 1_555
H16 C15 1_555 1_555
C16 O8 1_555 1_555
H17 C16 1_555 1_555
H18 C16 1_555 1_555
N2 C2 1_555 1_555
N6 C10 1_555 1_555
C2 C3 1_555 1_555
C5 C8 1_555 1_555
C6 C7 1_555 1_555
C10 C11 1_555 1_555
C13 C16 1_555 1_555
C14 C15 1_555 1_555

#END
