
#######################################################################
#
#                 Cambridge Crystallographic Data Centre
#                                CCDC 
#
#######################################################################
#
# If this CIF has been generated from an entry in the Cambridge 
# Structural Database, then it will include bibliographic, chemical, 
# crystal, experimental, refinement or atomic coordinate data resulting 
# from the CCDC's data processing and validation procedures.
#
#######################################################################

data_AXENUN
_chemical_formula_moiety         'C31 H33 N3 O6 S1'
_chemical_name_systematic        
'2-((4-Methylphenyl)sulfonyl)-4-phenyloctahydrocyclopenta[c]pyrrol-5-yl 1-(2-nitrophenyl)prolinate'
_symmetry_cell_setting           monoclinic
_symmetry_space_group_name_H-M   'P 21'
_symmetry_Int_Tables_number      4
_space_group_name_Hall           'P 2yb'
loop_
_symmetry_equiv_pos_site_id
_symmetry_equiv_pos_as_xyz
1 x,y,z
2 -x,1/2+y,-z
_cell_length_a                   12.5536(2)
_cell_length_b                   7.8702(2)
_cell_length_c                   14.5111(3)
_cell_angle_alpha                90
_cell_angle_beta                 101.8050(10)
_cell_angle_gamma                90
_cell_volume                     1403.36
_exptl_crystal_colour            yellow
_exptl_crystal_description       block
_cell_formula_units_Z            2
loop_
_atom_site_label
_atom_site_type_symbol
_atom_site_fract_x
_atom_site_fract_y
_atom_site_fract_z
O1 O 0.31451(14) 0.7375(3) 0.11943(14)
O2 O 0.41994(14) 0.5493(3) 0.20095(12)
N1 N 0.39758(16) 0.6500(3) 0.13467(15)
C1 C 0.47066(19) 0.6587(3) 0.06868(17)
C2 C 0.4202(2) 0.6734(3) -0.02584(18)
H1 H 0.3443 0.6956 -0.0426
C3 C 0.4795(2) 0.6561(3) -0.09452(18)
H2 H 0.4458 0.6695 -0.1590
C4 C 0.5901(2) 0.6184(3) -0.06841(18)
H3 H 0.6309 0.5991 -0.1158
C5 C 0.64126(19) 0.6085(3) 0.02531(16)
H4 H 0.7164 0.5801 0.0411
C6 C 0.58425(18) 0.6398(3) 0.09817(16)
N2 N 0.63840(15) 0.6573(3) 0.18980(13)
C7 C 0.59833(19) 0.7635(3) 0.25853(17)
H5 H 0.5660 0.6930 0.3023
H6 H 0.5431 0.8456 0.2267
C8 C 0.7000(2) 0.8550(3) 0.31055(19)
H7 H 0.6927 0.8896 0.3745
H8 H 0.7161 0.9564 0.2754
C9 C 0.7873(2) 0.7186(3) 0.31423(17)
H9 H 0.7839 0.6338 0.3639
H10 H 0.8610 0.7692 0.3255
C10 C 0.75709(17) 0.6389(3) 0.21596(16)
H11 H 0.7924 0.7033 0.1709
C11 C 0.79272(18) 0.4547(3) 0.22006(15)
O3 O 0.73763(12) 0.3352(2) 0.23332(11)
O4 O 0.89693(12) 0.4446(2) 0.21212(10)
C12 C 0.94661(18) 0.2765(3) 0.23316(15)
H12 H 0.8958 0.1843 0.2043
C13 C 0.97983(18) 0.2540(3) 0.33973(14)
H13 H 0.9719 0.1337 0.3570
H14 H 0.9331 0.3245 0.3718
C14 C 1.10004(16) 0.3103(3) 0.36958(14)
H15 H 1.1449 0.2168 0.4045
C15 C 1.13895(17) 0.3514(3) 0.27668(14)
H16 H 1.2121 0.2999 0.2783
C16 C 1.05326(17) 0.2685(3) 0.19853(14)
H17 H 1.0729 0.1452 0.2007
C17 C 1.11711(18) 0.4740(3) 0.42628(15)
H18 H 1.0636 0.4848 0.4675
H19 H 1.1915 0.4798 0.4654
C18 C 1.14576(18) 0.5455(3) 0.27197(15)
H20 H 1.2221 0.5832 0.2781
H21 H 1.1024 0.5887 0.2118
C19 C 1.05262(17) 0.3229(3) 0.09836(14)
C20 C 1.14932(19) 0.3654(3) 0.07157(16)
H22 H 1.2147 0.3719 0.1179
C21 C 1.15199(19) 0.3984(3) -0.02189(16)
H23 H 1.2187 0.4282 -0.0389
C22 C 1.0574(2) 0.3881(3) -0.09042(16)
H24 H 1.0593 0.4073 -0.1547
C23 C 0.96054(18) 0.3498(3) -0.06440(15)
H25 H 0.8952 0.3455 -0.1109
C24 C 0.95768(17) 0.3175(3) 0.02877(15)
H26 H 0.8903 0.2913 0.0456
N3 N 1.10021(14) 0.6060(2) 0.35274(12)
S1 S 1.11572(4) 0.80332(7) 0.38240(4)
O5 O 1.05028(12) 0.8347(2) 0.45093(10)
O6 O 1.09700(13) 0.8990(2) 0.29664(10)
C25 C 1.25263(17) 0.8355(3) 0.43890(15)
C26 C 1.28388(17) 0.8109(3) 0.53539(14)
H27 H 1.2319 0.7774 0.5711
C27 C 1.39211(18) 0.8358(3) 0.57925(16)
H28 H 1.4138 0.8201 0.6453
C28 C 1.4690(2) 0.8834(3) 0.52726(17)
C29 C 1.4357(2) 0.9071(3) 0.43096(17)
H29 H 1.4877 0.9397 0.3950
C30 C 1.3278(2) 0.8838(3) 0.38611(16)
H30 H 1.3059 0.9009 0.3201
C31 C 1.5869(2) 0.9069(4) 0.5749(2)
H31 H 1.6288 0.8071 0.5631
H32 H 1.5923 0.9203 0.6429
H33 H 1.6159 1.0084 0.5497
loop_
_geom_bond_atom_site_label_1
_geom_bond_atom_site_label_2
_geom_bond_site_symmetry_1
_geom_bond_site_symmetry_2
O1 N1 1_555 1_555
O2 N1 1_555 1_555
N1 C1 1_555 1_555
C1 C2 1_555 1_555
C2 H1 1_555 1_555
C3 C2 1_555 1_555
H2 C3 1_555 1_555
C4 C3 1_555 1_555
H3 C4 1_555 1_555
C5 C4 1_555 1_555
H4 C5 1_555 1_555
C6 C1 1_555 1_555
N2 C6 1_555 1_555
C7 N2 1_555 1_555
H5 C7 1_555 1_555
H6 C7 1_555 1_555
C8 C7 1_555 1_555
H7 C8 1_555 1_555
H8 C8 1_555 1_555
C9 C8 1_555 1_555
H9 C9 1_555 1_555
H10 C9 1_555 1_555
C10 N2 1_555 1_555
H11 C10 1_555 1_555
C11 C10 1_555 1_555
O3 C11 1_555 1_555
O4 C11 1_555 1_555
C12 O4 1_555 1_555
H12 C12 1_555 1_555
C13 C12 1_555 1_555
H13 C13 1_555 1_555
H14 C13 1_555 1_555
C14 C13 1_555 1_555
H15 C14 1_555 1_555
C15 C14 1_555 1_555
H16 C15 1_555 1_555
C16 C12 1_555 1_555
H17 C16 1_555 1_555
C17 C14 1_555 1_555
H18 C17 1_555 1_555
H19 C17 1_555 1_555
C18 C15 1_555 1_555
H20 C18 1_555 1_555
H21 C18 1_555 1_555
C19 C16 1_555 1_555
C20 C19 1_555 1_555
H22 C20 1_555 1_555
C21 C20 1_555 1_555
H23 C21 1_555 1_555
C22 C21 1_555 1_555
H24 C22 1_555 1_555
C23 C22 1_555 1_555
H25 C23 1_555 1_555
C24 C19 1_555 1_555
H26 C24 1_555 1_555
N3 C17 1_555 1_555
S1 N3 1_555 1_555
O5 S1 1_555 1_555
O6 S1 1_555 1_555
C25 S1 1_555 1_555
C26 C25 1_555 1_555
H27 C26 1_555 1_555
C27 C26 1_555 1_555
H28 C27 1_555 1_555
C28 C27 1_555 1_555
C29 C28 1_555 1_555
H29 C29 1_555 1_555
C30 C25 1_555 1_555
H30 C30 1_555 1_555
C31 C28 1_555 1_555
H31 C31 1_555 1_555
H32 C31 1_555 1_555
H33 C31 1_555 1_555
C5 C6 1_555 1_555
C9 C10 1_555 1_555
C15 C16 1_555 1_555
C18 N3 1_555 1_555
C23 C24 1_555 1_555
C29 C30 1_555 1_555

#END
