
#######################################################################
#
#                 Cambridge Crystallographic Data Centre
#                                CCDC 
#
#######################################################################
#
# If this CIF has been generated from an entry in the Cambridge 
# Structural Database, then it will include bibliographic, chemical, 
# crystal, experimental, refinement or atomic coordinate data resulting 
# from the CCDC's data processing and validation procedures.
#
#######################################################################

data_AXESEB
_chemical_formula_moiety         'C9 H9 Cl1 N4 O1 S1'
_chemical_name_systematic        
3-((6-Chloropyridin-3-yl)methyl)-2-(nitrosoimino)thiazolidine
_symmetry_cell_setting           monoclinic
_symmetry_space_group_name_H-M   'P 21/c'
_symmetry_Int_Tables_number      14
_space_group_name_Hall           '-P 2ybc'
loop_
_symmetry_equiv_pos_site_id
_symmetry_equiv_pos_as_xyz
1 x,y,z
2 x,1/2-y,1/2+z
3 -x,-y,-z
4 -x,1/2+y,1/2-z
_cell_length_a                   18.216(8)
_cell_length_b                   13.889(5)
_cell_length_c                   8.615(3)
_cell_angle_alpha                90
_cell_angle_beta                 100.06(3)
_cell_angle_gamma                90
_cell_volume                     2146.1
_exptl_crystal_colour            orange
_exptl_crystal_description       block
_cell_formula_units_Z            8
loop_
_atom_site_label
_atom_site_type_symbol
_atom_site_fract_x
_atom_site_fract_y
_atom_site_fract_z
Cl1 Cl 0.52589(4) 0.92462(6) 0.15388(9)
S1 S 0.91418(4) 0.63219(6) 0.56674(8)
O1 O 0.84168(12) 0.61830(16) 0.9798(2)
N1 N 0.79922(12) 0.61034(18) 0.7309(3)
N2 N 0.85837(13) 0.62249(18) 0.8479(3)
N3 N 0.77560(12) 0.59790(18) 0.4589(3)
N4 N 0.54765(13) 0.74115(19) 0.2083(3)
C1 C 0.82273(15) 0.6117(2) 0.5922(3)
C2 C 0.88955(16) 0.6152(2) 0.3549(3)
H1 H 0.9071 0.6706 0.2990
H2 H 0.9133 0.5561 0.3230
C3 C 0.80580(17) 0.6068(3) 0.3134(3)
H3 H 0.7849 0.6646 0.2544
H4 H 0.7921 0.5496 0.2461
C4 C 0.69498(15) 0.5844(2) 0.4495(3)
H5 H 0.6840 0.5716 0.5561
H6 H 0.6784 0.5280 0.3822
C5 C 0.65263(14) 0.6731(2) 0.3814(3)
C6 C 0.67819(15) 0.7646(2) 0.4218(3)
H7 H 0.7229 0.7731 0.4959
C7 C 0.63948(16) 0.8436(2) 0.3556(4)
H8 H 0.6563 0.9073 0.3818
C8 C 0.57513(15) 0.8260(2) 0.2495(3)
C9 C 0.58648(16) 0.6654(2) 0.2753(4)
H9 H 0.5674 0.6028 0.2484
Cl2 Cl 0.58275(4) 0.06204(6) 0.53038(9)
S2 S 0.97256(4) 0.37267(6) 0.88562(8)
O2 O 0.89627(12) 0.38540(16) 0.4233(2)
N5 N 0.85344(12) 0.38163(17) 0.6425(3)
N6 N 0.91320(13) 0.37977(18) 0.5680(3)
N7 N 0.83219(12) 0.37618(17) 0.8989(3)
N8 N 0.68959(13) 0.13943(18) 0.7343(3)
C10 C 0.87912(14) 0.37708(19) 0.7981(3)
C11 C 0.94881(16) 0.3615(2) 1.0810(4)
H10 H 0.9615 0.2963 1.1237
H11 H 0.9771 0.4092 1.1533
C12 C 0.86596(16) 0.3793(2) 1.0664(3)
H12 H 0.8433 0.3294 1.1252
H13 H 0.8571 0.4430 1.1112
C13 C 0.75216(15) 0.3937(2) 0.8516(3)
H14 H 0.7452 0.4498 0.7796
H15 H 0.7312 0.4110 0.9465
C14 C 0.70839(14) 0.3098(2) 0.7708(3)
C15 C 0.64473(16) 0.3271(2) 0.6597(4)
H16 H 0.6292 0.3913 0.6342
C16 C 0.60417(16) 0.2509(2) 0.5863(4)
H17 H 0.5603 0.2607 0.5105
C17 C 0.63032(15) 0.1605(2) 0.6282(3)
C18 C 0.72767(15) 0.2158(2) 0.8050(3)
H18 H 0.7703 0.2035 0.8831
loop_
_geom_bond_atom_site_label_1
_geom_bond_atom_site_label_2
_geom_bond_site_symmetry_1
_geom_bond_site_symmetry_2
Cl1 C8 1_555 1_555
S1 C1 1_555 1_555
O1 N2 1_555 1_555
N1 N2 1_555 1_555
N3 C1 1_555 1_555
N4 C8 1_555 1_555
C1 N1 1_555 1_555
C2 S1 1_555 1_555
H1 C2 1_555 1_555
H2 C2 1_555 1_555
C3 N3 1_555 1_555
H3 C3 1_555 1_555
H4 C3 1_555 1_555
C4 N3 1_555 1_555
H5 C4 1_555 1_555
H6 C4 1_555 1_555
C5 C4 1_555 1_555
C6 C5 1_555 1_555
H7 C6 1_555 1_555
C7 C6 1_555 1_555
H8 C7 1_555 1_555
C8 C7 1_555 1_555
C9 N4 1_555 1_555
H9 C9 1_555 1_555
Cl2 C17 1_555 1_555
S2 C10 1_555 1_555
O2 N6 1_555 1_555
N5 N6 1_555 1_555
N7 C10 1_555 1_555
N8 C17 1_555 1_555
C10 N5 1_555 1_555
C11 S2 1_555 1_555
H10 C11 1_555 1_555
H11 C11 1_555 1_555
C12 N7 1_555 1_555
H12 C12 1_555 1_555
H13 C12 1_555 1_555
C13 N7 1_555 1_555
H14 C13 1_555 1_555
H15 C13 1_555 1_555
C14 C13 1_555 1_555
C15 C14 1_555 1_555
H16 C15 1_555 1_555
C16 C15 1_555 1_555
H17 C16 1_555 1_555
C17 C16 1_555 1_555
C18 N8 1_555 1_555
H18 C18 1_555 1_555
C2 C3 1_555 1_555
C5 C9 1_555 1_555
C11 C12 1_555 1_555
C14 C18 1_555 1_555

#END
