
#######################################################################
#
#                 Cambridge Crystallographic Data Centre
#                                CCDC 
#
#######################################################################
#
# If this CIF has been generated from an entry in the Cambridge 
# Structural Database, then it will include bibliographic, chemical, 
# crystal, experimental, refinement or atomic coordinate data resulting 
# from the CCDC's data processing and validation procedures.
#
#######################################################################

data_AXILID01
_chemical_formula_moiety         'C9 H7 Br1 N2 O4'
_chemical_name_systematic        
5-Bromo-3-hydroxy-3-(nitromethyl)-1,3-dihydro-2H-indol-2-one
_symmetry_cell_setting           monoclinic
_symmetry_space_group_name_H-M   'P 21'
_symmetry_Int_Tables_number      4
_space_group_name_Hall           'P 2yb'
loop_
_symmetry_equiv_pos_site_id
_symmetry_equiv_pos_as_xyz
1 x,y,z
2 -x,1/2+y,-z
_cell_length_a                   7.4142(15)
_cell_length_b                   6.4403(14)
_cell_length_c                   10.811(3)
_cell_angle_alpha                90
_cell_angle_beta                 90.038(9)
_cell_angle_gamma                90
_cell_volume                     516.222
_exptl_crystal_colour            yellow
_exptl_crystal_description       prism
_cell_formula_units_Z            2
loop_
_atom_site_label
_atom_site_type_symbol
_atom_site_fract_x
_atom_site_fract_y
_atom_site_fract_z
Br1 Br 0.86632(9) 0.69394(11) -0.17902(5)
O1 O 0.5551(7) 0.8405(8) 0.4903(4)
O2 O 0.5541(7) 0.5107(8) 0.2982(4)
H1 H 0.5123 0.4853 0.3678
O3 O 0.9630(8) 0.9247(10) 0.3907(5)
O4 O 1.1518(7) 0.6802(18) 0.3614(6)
N1 N 0.5745(8) 1.0154(10) 0.3031(5)
H2 H 0.5241 1.1325 0.3233
N2 N 1.0010(9) 0.7400(14) 0.3741(6)
C1 C 0.5967(10) 0.8562(12) 0.3828(7)
C2 C 0.6830(8) 0.6708(14) 0.3074(5)
C3 C 0.7101(9) 0.7699(10) 0.1820(6)
C4 C 0.6403(9) 0.9732(10) 0.1852(6)
C5 C 0.6425(10) 1.0962(12) 0.0808(6)
H3 H 0.5963 1.2322 0.0827
C6 C 0.7148(9) 1.0140(13) -0.0277(7)
H4 H 0.7187 1.0947 -0.1001
C7 C 0.7810(9) 0.8125(11) -0.0284(6)
C8 C 0.7811(7) 0.6900(18) 0.0747(4)
H5 H 0.8286 0.5547 0.0724
C9 C 0.8521(10) 0.5890(12) 0.3705(7)
H6 H 0.8219 0.5486 0.4554
H7 H 0.8930 0.4642 0.3269
loop_
_geom_bond_atom_site_label_1
_geom_bond_atom_site_label_2
_geom_bond_site_symmetry_1
_geom_bond_site_symmetry_2
Br1 C7 1_555 1_555
O1 C1 1_555 1_555
O2 H1 1_555 1_555
O3 N2 1_555 1_555
O4 N2 1_555 1_555
N1 H2 1_555 1_555
N2 C9 1_555 1_555
C1 N1 1_555 1_555
C2 O2 1_555 1_555
C3 C2 1_555 1_555
C4 N1 1_555 1_555
C5 C4 1_555 1_555
H3 C5 1_555 1_555
C6 C5 1_555 1_555
H4 C6 1_555 1_555
C7 C6 1_555 1_555
C8 C3 1_555 1_555
H5 C8 1_555 1_555
C9 C2 1_555 1_555
H6 C9 1_555 1_555
H7 C9 1_555 1_555
C1 C2 1_555 1_555
C3 C4 1_555 1_555
C7 C8 1_555 1_555

#END
