
#######################################################################
#
#                 Cambridge Crystallographic Data Centre
#                                CCDC 
#
#######################################################################
#
# If this CIF has been generated from an entry in the Cambridge 
# Structural Database, then it will include bibliographic, chemical, 
# crystal, experimental, refinement or atomic coordinate data resulting 
# from the CCDC's data processing and validation procedures.
#
#######################################################################

data_AXIMAX
_chemical_formula_moiety         'C18 H16 N2 O1,C8 H6 O4'
_chemical_name_systematic        
'2,6-bis(pyridin-4-ylmethylene)cyclohexanone isophthalic acid'
_symmetry_cell_setting           monoclinic
_symmetry_space_group_name_H-M   'P 21/c'
_symmetry_Int_Tables_number      14
_space_group_name_Hall           '-P 2ybc'
loop_
_symmetry_equiv_pos_site_id
_symmetry_equiv_pos_as_xyz
1 x,y,z
2 -x,1/2+y,1/2-z
3 -x,-y,-z
4 x,1/2-y,1/2+z
_cell_length_a                   22.752(2)
_cell_length_b                   14.2803(15)
_cell_length_c                   6.6982(7)
_cell_angle_alpha                90
_cell_angle_beta                 92.557(2)
_cell_angle_gamma                90
_cell_volume                     2174.11
_exptl_crystal_colour            yellow
_exptl_crystal_description       block
_cell_formula_units_Z            4
loop_
_atom_site_label
_atom_site_type_symbol
_atom_site_fract_x
_atom_site_fract_y
_atom_site_fract_z
C1 C 0.99084(7) 0.16390(14) -0.0823(3)
H1 H 1.0163 0.1974 -0.1604
C2 C 0.93291(7) 0.15501(14) -0.1490(3)
H2 H 0.9201 0.1818 -0.2698
C3 C 0.89364(6) 0.10589(12) -0.0350(2)
C4 C 0.91646(7) 0.06566(13) 0.1394(3)
H3 H 0.8924 0.0304 0.2191
C5 C 0.97488(7) 0.07797(13) 0.1947(3)
H4 H 0.9892 0.0506 0.3131
C6 C 0.83137(6) 0.09689(12) -0.1021(2)
H5 H 0.8238 0.0889 -0.2386
C7 C 0.78456(6) 0.09898(10) 0.0118(2)
C8 C 0.72540(6) 0.08862(10) -0.0941(2)
C9 C 0.67078(6) 0.10382(10) 0.0211(2)
C10 C 0.67735(7) 0.12375(12) 0.2412(2)
H6 H 0.6761 0.0653 0.3145
H7 H 0.6446 0.1621 0.2805
C11 C 0.73455(7) 0.17380(12) 0.2955(2)
H8 H 0.7376 0.1844 0.4386
H9 H 0.7349 0.2342 0.2295
C12 C 0.78673(7) 0.11634(12) 0.2332(2)
H10 H 0.8228 0.1491 0.2714
H11 H 0.7870 0.0568 0.3030
C13 C 0.61975(6) 0.10261(11) -0.0855(2)
H12 H 0.6220 0.0933 -0.2224
C14 C 0.56033(6) 0.11443(11) -0.0104(2)
C15 C 0.51723(7) 0.16194(12) -0.1241(3)
H13 H 0.5262 0.1879 -0.2464
C16 C 0.46134(7) 0.17048(12) -0.0552(3)
H14 H 0.4333 0.2026 -0.1337
C17 C 0.54370(6) 0.07673(12) 0.1698(2)
H15 H 0.5707 0.0438 0.2509
C18 C 0.48682(7) 0.08856(12) 0.2271(3)
H16 H 0.4765 0.0629 0.3483
N1 N 1.01213(6) 0.12699(11) 0.0879(2)
N2 N 0.44552(5) 0.13497(9) 0.1182(2)
O1 O 0.72157(4) 0.06856(8) -0.27097(16)
C19 C 0.34064(6) 0.11667(12) 0.4561(2)
C20 C 0.28390(6) 0.12472(10) 0.5578(2)
C21 C 0.23005(6) 0.12377(11) 0.4517(2)
H17 H 0.2287 0.1176 0.3134
C22 C 0.17818(6) 0.13209(11) 0.5523(2)
C23 C 0.18061(7) 0.14302(11) 0.7574(2)
H18 H 0.1460 0.1495 0.8248
C24 C 0.23398(8) 0.14442(12) 0.8628(2)
H19 H 0.2354 0.1524 1.0007
C25 C 0.28556(7) 0.13394(11) 0.7631(2)
H20 H 0.3215 0.1331 0.8348
C26 C 0.11946(7) 0.12946(12) 0.4440(2)
O2 O 0.33762(4) 0.13969(9) 0.26637(16)
H21 H 0.3705 0.1365 0.2214
O3 O 0.38575(5) 0.09225(11) 0.54354(19)
O4 O 0.12128(5) 0.13166(10) 0.24895(17)
H22 H 0.0877 0.1330 0.1995
O5 O 0.07439(5) 0.12558(13) 0.5307(2)
loop_
_geom_bond_atom_site_label_1
_geom_bond_atom_site_label_2
_geom_bond_site_symmetry_1
_geom_bond_site_symmetry_2
C1 H1 1_555 1_555
C2 C1 1_555 1_555
H2 C2 1_555 1_555
C3 C2 1_555 1_555
C4 C3 1_555 1_555
H3 C4 1_555 1_555
C5 C4 1_555 1_555
H4 C5 1_555 1_555
C6 C3 1_555 1_555
H5 C6 1_555 1_555
C7 C6 1_555 1_555
C8 C7 1_555 1_555
C9 C8 1_555 1_555
C10 C9 1_555 1_555
H6 C10 1_555 1_555
H7 C10 1_555 1_555
C11 C10 1_555 1_555
H8 C11 1_555 1_555
H9 C11 1_555 1_555
C12 C7 1_555 1_555
H10 C12 1_555 1_555
H11 C12 1_555 1_555
C13 C9 1_555 1_555
H12 C13 1_555 1_555
C14 C13 1_555 1_555
C15 C14 1_555 1_555
H13 C15 1_555 1_555
C16 C15 1_555 1_555
H14 C16 1_555 1_555
C17 C14 1_555 1_555
H15 C17 1_555 1_555
C18 C17 1_555 1_555
H16 C18 1_555 1_555
N1 C1 1_555 1_555
N2 C16 1_555 1_555
O1 C8 1_555 1_555
C19 C20 1_555 1_555
C20 C21 1_555 1_555
C21 H17 1_555 1_555
C22 C21 1_555 1_555
C23 C22 1_555 1_555
H18 C23 1_555 1_555
C24 C23 1_555 1_555
H19 C24 1_555 1_555
C25 C20 1_555 1_555
H20 C25 1_555 1_555
C26 C22 1_555 1_555
O2 C19 1_555 1_555
H21 O2 1_555 1_555
O3 C19 1_555 1_555
O4 C26 1_555 1_555
H22 O4 1_555 1_555
O5 C26 1_555 1_555
C5 N1 1_555 1_555
C11 C12 1_555 1_555
C18 N2 1_555 1_555
C24 C25 1_555 1_555

#END
