
#######################################################################
#
#                 Cambridge Crystallographic Data Centre
#                                CCDC 
#
#######################################################################
#
# If this CIF has been generated from an entry in the Cambridge 
# Structural Database, then it will include bibliographic, chemical, 
# crystal, experimental, refinement or atomic coordinate data resulting 
# from the CCDC's data processing and validation procedures.
#
#######################################################################

data_AXOKEE
_chemical_formula_moiety         'C53 H58 N6 O10,2(C1 H4 O1)'
_chemical_name_systematic        
'Methyl 4-isobutoxy-8-(((4-isobutoxy-8-(((4-isobutoxy-8-(((4,7,7-trimethyl-3-oxo-2-oxabicyclo[2.2.1]hept-1-yl)carbonyl)amino)quinolin-2-yl)carbonyl)amino)quinolin-2-yl)carbonyl)amino)quinoline-2-carboxylate methanol solvate'
_symmetry_cell_setting           monoclinic
_symmetry_space_group_name_H-M   'P 21'
_symmetry_Int_Tables_number      4
_space_group_name_Hall           'P 2yb'
loop_
_symmetry_equiv_pos_site_id
_symmetry_equiv_pos_as_xyz
1 x,y,z
2 -x,1/2+y,-z
_cell_length_a                   8.7378(9)
_cell_length_b                   30.430(3)
_cell_length_c                   10.3160(11)
_cell_angle_alpha                90
_cell_angle_beta                 103.209(7)
_cell_angle_gamma                90
_cell_volume                     2670.36
_cell_formula_units_Z            2
loop_
_atom_site_label
_atom_site_type_symbol
_atom_site_fract_x
_atom_site_fract_y
_atom_site_fract_z
N1 N 0.0447(3) 0.10106(8) 0.2376(2)
O1 O -0.3344(3) 0.08317(8) 0.0514(3)
N2 N 0.0264(3) -0.03297(8) 0.2524(3)
N3 N 0.3519(3) 0.00839(8) 0.1479(3)
O2 O -0.0056(3) 0.07809(8) -0.0907(2)
C1 C -0.1919(4) -0.00465(10) 0.0909(3)
O3 O 0.2645(3) -0.01790(8) 0.4605(3)
O4 O -0.1144(3) 0.22339(7) 0.3251(2)
C2 C -0.0927(4) -0.04091(10) 0.1438(3)
C3 C -0.1041(4) 0.11110(10) 0.2014(3)
C4 C 0.1448(4) 0.13229(9) 0.3013(3)
C5 C 0.4320(4) -0.06830(10) 0.1420(4)
C6 C 0.0921(4) 0.17394(10) 0.3345(3)
C7 C 0.3367(4) -0.03248(10) 0.0886(3)
N4 N -0.1468(3) 0.03531(8) 0.1544(3)
H1 H -0.0660 0.0340 0.2200
O5 O 0.6405(3) -0.09565(8) 0.3068(3)
C8 C -0.0698(4) 0.18289(10) 0.2919(3)
C9 C -0.3169(4) -0.01092(11) -0.0141(4)
H2 H -0.3849 0.0122 -0.0458
C10 C 0.5749(4) -0.01908(11) 0.3110(4)
H3 H 0.6566 -0.0130 0.3840
C11 C -0.1215(5) -0.08256(11) 0.0825(4)
C12 C 0.1150(5) -0.06660(11) 0.3036(4)
C13 C 0.2153(4) -0.03760(11) -0.0284(3)
N5 N 0.3438(3) 0.08039(9) 0.2931(3)
H4 H 0.2669 0.0669 0.2414
N6 N 0.1290(4) -0.00002(9) -0.0734(3)
H5 H 0.1432 0.0219 -0.0194
C14 C -0.2100(4) 0.07546(10) 0.1287(3)
O6 O -0.0525(4) -0.15637(9) 0.0806(3)
O7 O 0.6042(3) 0.07210(9) 0.3879(3)
C15 C -0.1700(4) 0.15122(10) 0.2253(3)
H6 H -0.2774 0.1564 0.1972
O8 O 0.3214(5) -0.08943(10) 0.4848(4)
C16 C 0.4063(5) -0.10968(12) 0.0780(4)
H7 H 0.4681 -0.1337 0.1123
C17 C -0.0186(5) -0.11713(10) 0.1414(4)
C18 C 0.2436(5) -0.05967(12) 0.4233(4)
C19 C 0.5537(4) -0.06034(11) 0.2569(4)
C20 C 0.2915(5) -0.11374(13) -0.0330(4)
H8 H 0.2749 -0.1410 -0.0747
C21 C 0.4122(5) 0.15104(12) 0.4082(4)
H9 H 0.5183 0.1439 0.4330
C22 C 0.2041(4) 0.20374(11) 0.4057(4)
H10 H 0.1724 0.2314 0.4277
C23 C 0.3058(4) 0.12188(10) 0.3379(3)
C24 C -0.2467(5) -0.08764(12) -0.0271(4)
H11 H -0.2654 -0.1149 -0.0684
C25 C -0.3423(5) -0.05314(13) -0.0747(4)
H12 H -0.4256 -0.0572 -0.1480
C26 C 0.1959(5) -0.07837(13) -0.0880(4)
H13 H 0.1185 -0.0825 -0.1656
O9 O 0.0026(5) 0.15045(10) -0.0484(3)
C27 C 0.4678(4) 0.01398(10) 0.2517(3)
C28 C 0.0986(5) -0.10941(12) 0.2499(4)
H14 H 0.1666 -0.1318 0.2881
C29 C 0.4811(4) 0.05853(11) 0.3185(3)
C30 C -0.2741(4) 0.23571(11) 0.2751(4)
H15 H -0.3421 0.2170 0.3132
H16 H -0.3021 0.2321 0.1791
C31 C 0.7501(5) -0.09246(14) 0.4335(4)
H17 H 0.7000 -0.0789 0.4983
H18 H 0.8393 -0.0745 0.4257
C32 C -0.0150(5) 0.12138(12) -0.1272(4)
O10 O -0.0160(5) -0.02090(10) -0.2763(3)
C33 C -0.0376(5) 0.05265(12) -0.2149(3)
C34 C -0.2142(5) 0.05769(15) -0.2724(4)
H19 H -0.2740 0.0515 -0.2060
H20 H -0.2500 0.0386 -0.3487
C35 C 0.3835(6) -0.01030(17) 0.5788(4)
H21 H 0.3896 0.0206 0.5985
H22 H 0.4830 -0.0204 0.5658
H23 H 0.3577 -0.0260 0.6517
C36 C 0.8041(6) -0.13796(15) 0.4776(5)
H24 H 0.8594 -0.1503 0.4133
C37 C 0.0255(5) 0.00654(12) -0.1912(3)
C38 C 0.3586(5) 0.19213(13) 0.4423(4)
H25 H 0.4305 0.2119 0.4911
C39 C -0.2961(5) 0.28337(13) 0.3109(5)
H26 H -0.2207 0.3013 0.2767
C40 C -0.2263(6) 0.10654(18) -0.3132(4)
H27 H -0.2899 0.1228 -0.2639
H28 H -0.2714 0.1098 -0.4078
C41 C 0.0421(7) -0.19397(14) 0.1355(6)
H29 H 0.0560 -0.1948 0.2315
H30 H 0.1449 -0.1923 0.1149
C42 C 0.0363(5) 0.08189(13) -0.3061(3)
C43 C -0.0533(6) 0.12247(14) -0.2772(4)
C44 C 0.2149(6) 0.08652(18) -0.2560(5)
H31 H 0.2386 0.0958 -0.1646
H32 H 0.2535 0.1079 -0.3089
H33 H 0.2642 0.0587 -0.2630
C46 C 0.0028(6) 0.06694(15) -0.4505(4)
H34 H 0.0631 0.0410 -0.4575
H35 H 0.0312 0.0899 -0.5045
H36 H -0.1071 0.0605 -0.4806
C47 C -0.2595(6) 0.28861(17) 0.4626(5)
H37 H -0.1544 0.2787 0.4999
H38 H -0.3325 0.2714 0.4983
H39 H -0.2689 0.3190 0.4847
C48 C -0.4596(6) 0.29864(17) 0.2446(6)
H40 H -0.4707 0.3292 0.2643
H41 H -0.5354 0.2817 0.2775
H42 H -0.4766 0.2948 0.1501
C49 C -0.0238(10) 0.16683(16) -0.3356(5)
H43 H -0.0491 0.1650 -0.4310
H44 H 0.0849 0.1747 -0.3048
H45 H -0.0885 0.1888 -0.3079
C50 C -0.0452(9) -0.23460(16) 0.0726(6)
H46 H 0.0198 -0.2601 0.1070
C51 C 0.6711(8) -0.1665(2) 0.4827(9)
H47 H 0.7089 -0.1954 0.5108
H48 H 0.6020 -0.1681 0.3959
H49 H 0.6150 -0.1547 0.5447
C52 C 0.9193(9) -0.1350(2) 0.6126(7)
H50 H 1.0063 -0.1166 0.6054
H51 H 0.9570 -0.1638 0.6410
H52 H 0.8672 -0.1226 0.6766
C53 C -0.0665(14) -0.2345(2) -0.0711(8)
H53 H -0.1182 -0.2612 -0.1071
H54 H 0.0341 -0.2327 -0.0933
H55 H -0.1296 -0.2098 -0.1079
C54 C -0.2003(12) -0.2395(3) 0.1152(12)
H56 H -0.1805 -0.2400 0.2107
H57 H -0.2506 -0.2663 0.0799
H58 H -0.2676 -0.2151 0.0819
C45 C 0.5140(7) 0.15902(18) -0.0432(6)
O11 O 0.4129(7) 0.1621(2) 0.0342(8)
O12 O 0.6271(10) 0.2379(5) -0.0944(10)
C55 C 0.5617(17) 0.2296(9) -0.2292(11)
loop_
_geom_bond_atom_site_label_1
_geom_bond_atom_site_label_2
_geom_bond_site_symmetry_1
_geom_bond_site_symmetry_2
N1 C3 1_555 1_555
O1 C14 1_555 1_555
N2 C2 1_555 1_555
N3 C7 1_555 1_555
O2 C32 1_555 1_555
C1 C2 1_555 1_555
O3 C18 1_555 1_555
O4 C8 1_555 1_555
C2 C11 1_555 1_555
C3 C14 1_555 1_555
C4 N1 1_555 1_555
C5 C7 1_555 1_555
C6 C4 1_555 1_555
C7 C13 1_555 1_555
N4 C1 1_555 1_555
H1 N4 1_555 1_555
O5 C19 1_555 1_555
C8 C6 1_555 1_555
C9 C1 1_555 1_555
H2 C9 1_555 1_555
C10 H3 1_555 1_555
C11 C17 1_555 1_555
C12 N2 1_555 1_555
C13 N6 1_555 1_555
N5 H4 1_555 1_555
N6 H5 1_555 1_555
C14 N4 1_555 1_555
O6 C17 1_555 1_555
O7 C29 1_555 1_555
C15 C3 1_555 1_555
H6 C15 1_555 1_555
O8 C18 1_555 1_555
C16 C5 1_555 1_555
H7 C16 1_555 1_555
C17 C28 1_555 1_555
C18 C12 1_555 1_555
C19 C5 1_555 1_555
C20 C16 1_555 1_555
H8 C20 1_555 1_555
C21 H9 1_555 1_555
C22 C6 1_555 1_555
H10 C22 1_555 1_555
C23 C4 1_555 1_555
C24 C11 1_555 1_555
H11 C24 1_555 1_555
C25 C9 1_555 1_555
H12 C25 1_555 1_555
C26 C13 1_555 1_555
H13 C26 1_555 1_555
O9 C32 1_555 1_555
C27 N3 1_555 1_555
C28 C12 1_555 1_555
H14 C28 1_555 1_555
C29 N5 1_555 1_555
C30 O4 1_555 1_555
H15 C30 1_555 1_555
H16 C30 1_555 1_555
C31 O5 1_555 1_555
H17 C31 1_555 1_555
H18 C31 1_555 1_555
C32 C43 1_555 1_555
O10 C37 1_555 1_555
C33 O2 1_555 1_555
C34 C33 1_555 1_555
H19 C34 1_555 1_555
H20 C34 1_555 1_555
C35 O3 1_555 1_555
H21 C35 1_555 1_555
H22 C35 1_555 1_555
H23 C35 1_555 1_555
C36 C31 1_555 1_555
H24 C36 1_555 1_555
C37 N6 1_555 1_555
C38 C21 1_555 1_555
H25 C38 1_555 1_555
C39 C30 1_555 1_555
H26 C39 1_555 1_555
C40 C34 1_555 1_555
H27 C40 1_555 1_555
H28 C40 1_555 1_555
C41 O6 1_555 1_555
H29 C41 1_555 1_555
H30 C41 1_555 1_555
C42 C33 1_555 1_555
C43 C40 1_555 1_555
C44 C42 1_555 1_555
H31 C44 1_555 1_555
H32 C44 1_555 1_555
H33 C44 1_555 1_555
C45 O11 1_555 1_555
C46 C42 1_555 1_555
H34 C46 1_555 1_555
H35 C46 1_555 1_555
H36 C46 1_555 1_555
C47 C39 1_555 1_555
H37 C47 1_555 1_555
H38 C47 1_555 1_555
H39 C47 1_555 1_555
C48 C39 1_555 1_555
H40 C48 1_555 1_555
H41 C48 1_555 1_555
H42 C48 1_555 1_555
C49 C43 1_555 1_555
H43 C49 1_555 1_555
H44 C49 1_555 1_555
H45 C49 1_555 1_555
C50 C41 1_555 1_555
H46 C50 1_555 1_555
C51 C36 1_555 1_555
H47 C51 1_555 1_555
H48 C51 1_555 1_555
H49 C51 1_555 1_555
C52 C36 1_555 1_555
H50 C52 1_555 1_555
H51 C52 1_555 1_555
H52 C52 1_555 1_555
C53 C50 1_555 1_555
H53 C53 1_555 1_555
H54 C53 1_555 1_555
H55 C53 1_555 1_555
C54 C50 1_555 1_555
H56 C54 1_555 1_555
H57 C54 1_555 1_555
H58 C54 1_555 1_555
O12 C55 1_555 1_555
C8 C15 1_555 1_555
C10 C19 1_555 1_555
C10 C27 1_555 1_555
N5 C23 1_555 1_555
C20 C26 1_555 1_555
C21 C23 1_555 1_555
C22 C38 1_555 1_555
C24 C25 1_555 1_555
C27 C29 1_555 1_555
C33 C37 1_555 1_555
C42 C43 1_555 1_555

#END
