
#######################################################################
#
#                 Cambridge Crystallographic Data Centre
#                                CCDC 
#
#######################################################################
#
# If this CIF has been generated from an entry in the Cambridge 
# Structural Database, then it will include bibliographic, chemical, 
# crystal, experimental, refinement or atomic coordinate data resulting 
# from the CCDC's data processing and validation procedures.
#
#######################################################################

data_AXOVUF
_chemical_compound_source        'A. oligospora'
_chemical_name_common            'Arthrobotrisin A monohydrate'
_chemical_formula_moiety         'C22 H34 O6,H2 O1'
_chemical_name_systematic        
'1-[1,5-dihydroxy-3,7,11-trimethyldodeca-2,6,10-trien-1-yl]-4-(hydroxymethyl)-7-oxabicyclo[4.1.0]hept-3-ene-2,5-diol monohydrate'
_symmetry_cell_setting           monoclinic
_symmetry_space_group_name_H-M   'P 21'
_symmetry_Int_Tables_number      4
_space_group_name_Hall           'P 2yb'
loop_
_symmetry_equiv_pos_site_id
_symmetry_equiv_pos_as_xyz
1 x,y,z
2 -x,1/2+y,-z
_cell_length_a                   7.726(13)
_cell_length_b                   6.353(10)
_cell_length_c                   23.42(4)
_cell_angle_alpha                90
_cell_angle_beta                 93.20(2)
_cell_angle_gamma                90
_cell_volume                     1147.74
_exptl_crystal_colour            colorless
_exptl_crystal_description       block
_cell_formula_units_Z            2
loop_
_atom_site_label
_atom_site_type_symbol
_atom_site_fract_x
_atom_site_fract_y
_atom_site_fract_z
C1 C -0.2517(5) 0.5564(7) 0.83277(19)
H1 H -0.2156 0.5787 0.7938
O1 O -0.1152(3) 0.4916(5) 0.87370(12)
C2 C -0.4206(5) 0.4431(8) 0.83691(17)
O2 O -0.5384(4) 0.5034(5) 0.79057(14)
H2 H -0.5434 0.6322 0.7887
C3 C -0.5011(5) 0.4756(7) 0.89300(18)
O3 O -0.6477(4) 0.1316(5) 0.88987(14)
H3 H -0.5593 0.0855 0.9064
C4 C -0.6644(6) 0.3541(7) 0.9025(2)
H4 H -0.6936 0.3705 0.9420
H5 H -0.7588 0.4125 0.8784
O4 O -0.3381(4) 0.9616(5) 0.93037(13)
H6 H -0.2714 1.0315 0.9512
C5 C -0.4359(5) 0.6062(7) 0.93327(19)
H7 H -0.4928 0.6108 0.9672
O5 O 0.0723(4) 0.8796(6) 0.90977(14)
H8 H 0.1534 0.9567 0.9026
C6 C -0.2796(5) 0.7474(7) 0.92969(18)
O6 O 0.4558(4) 0.9381(6) 0.78526(14)
H9 H 0.3958 0.9794 0.8108
C7 C -0.1804(5) 0.7078(7) 0.87555(17)
C8 C -0.0499(5) 0.8710(7) 0.86081(18)
H10 H -0.1079 1.0076 0.8563
C9 C 0.0483(5) 0.8261(7) 0.80837(18)
H11 H 0.0942 0.6914 0.8054
C10 C 0.0766(5) 0.9591(8) 0.76556(18)
C11 C 0.0012(8) 1.1761(9) 0.7605(3)
H12 H -0.0605 1.2071 0.7940
H13 H -0.0770 1.1835 0.7272
H14 H 0.0928 1.2766 0.7571
C12 C 0.1988(6) 0.8988(8) 0.72053(19)
H15 H 0.1695 0.8085 0.6903
C13 C 0.3779(5) 1.0032(8) 0.73019(19)
H16 H 0.3654 1.1567 0.7292
C14 C 0.4977(6) 0.9345(9) 0.68585(19)
H17 H 0.5113 0.7900 0.6817
C15 C 0.5868(6) 1.0538(8) 0.6518(2)
C16 C 0.5819(8) 1.2922(9) 0.6519(3)
H18 H 0.5307 1.3405 0.6860
H19 H 0.5141 1.3410 0.6189
H20 H 0.6978 1.3461 0.6509
C17 C 0.6983(7) 0.9578(10) 0.6078(2)
H21 H 0.6982 0.8060 0.6124
H22 H 0.8166 1.0064 0.6149
C18 C 0.6381(7) 1.0117(13) 0.5465(2)
H23 H 0.5160 0.9776 0.5407
H24 H 0.6508 1.1619 0.5407
C19 C 0.7385(7) 0.8950(11) 0.5023(3)
H25 H 0.7509 0.7506 0.5076
C20 C 0.8096(7) 0.9747(13) 0.4576(3)
C21 C 0.8104(10) 1.2044(15) 0.4434(3)
H26 H 0.7735 1.2837 0.4754
H27 H 0.7327 1.2302 0.4107
H28 H 0.9255 1.2466 0.4350
C22 C 0.9040(11) 0.8436(14) 0.4160(3)
H29 H 0.8416 0.8458 0.3794
H30 H 0.9126 0.7013 0.4297
H31 H 1.0182 0.8999 0.4124
O7 O 0.8932(5) 0.2298(7) 0.9797(2)
H32 H 0.848(15) 0.293(13) 0.950(2)
H33 H 0.896(9) 0.291(9) 1.0119(13)
loop_
_geom_bond_atom_site_label_1
_geom_bond_atom_site_label_2
_geom_bond_site_symmetry_1
_geom_bond_site_symmetry_2
C1 H1 1_555 1_555
O1 C1 1_555 1_555
C2 C1 1_555 1_555
O2 C2 1_555 1_555
H2 O2 1_555 1_555
C3 C2 1_555 1_555
O3 H3 1_555 1_555
C4 C3 1_555 1_555
H4 C4 1_555 1_555
H5 C4 1_555 1_555
O4 H6 1_555 1_555
C5 C3 1_555 1_555
H7 C5 1_555 1_555
O5 H8 1_555 1_555
C6 O4 1_555 1_555
O6 H9 1_555 1_555
C7 C1 1_555 1_555
C8 O5 1_555 1_555
H10 C8 1_555 1_555
C9 C8 1_555 1_555
H11 C9 1_555 1_555
C10 C9 1_555 1_555
C11 C10 1_555 1_555
H12 C11 1_555 1_555
H13 C11 1_555 1_555
H14 C11 1_555 1_555
C12 C10 1_555 1_555
H15 C12 1_555 1_555
C13 O6 1_555 1_555
H16 C13 1_555 1_555
C14 C13 1_555 1_555
H17 C14 1_555 1_555
C15 C14 1_555 1_555
C16 C15 1_555 1_555
H18 C16 1_555 1_555
H19 C16 1_555 1_555
H20 C16 1_555 1_555
C17 C15 1_555 1_555
H21 C17 1_555 1_555
H22 C17 1_555 1_555
C18 C17 1_555 1_555
H23 C18 1_555 1_555
H24 C18 1_555 1_555
C19 C18 1_555 1_555
H25 C19 1_555 1_555
C20 C19 1_555 1_555
C21 C20 1_555 1_555
H26 C21 1_555 1_555
H27 C21 1_555 1_555
H28 C21 1_555 1_555
C22 C20 1_555 1_555
H29 C22 1_555 1_555
H30 C22 1_555 1_555
H31 C22 1_555 1_555
O7 H32 1_555 1_555
H33 O7 1_555 1_555
O1 C7 1_555 1_555
O3 C4 1_555 1_555
C5 C6 1_555 1_555
C6 C7 1_555 1_555
C7 C8 1_555 1_555
C12 C13 1_555 1_555

#END
