
#######################################################################
#
#                 Cambridge Crystallographic Data Centre
#                                CCDC 
#
#######################################################################
#
# If this CIF has been generated from an entry in the Cambridge 
# Structural Database, then it will include bibliographic, chemical, 
# crystal, experimental, refinement or atomic coordinate data resulting 
# from the CCDC's data processing and validation procedures.
#
#######################################################################

data_AXOWIU
_chemical_formula_moiety         'C69 H54'
_chemical_name_systematic        
5,5,10,10,15,15-hexakis(4-methylphenyl)-10,15-dihydro-5H-diindeno[1,2-a:1',2'-c]fluorene
_symmetry_cell_setting           triclinic
_symmetry_space_group_name_H-M   'P -1'
_symmetry_Int_Tables_number      2
_space_group_name_Hall           '-P 1'
loop_
_symmetry_equiv_pos_site_id
_symmetry_equiv_pos_as_xyz
1 x,y,z
2 -x,-y,-z
_cell_length_a                   12.4562(7)
_cell_length_b                   14.7749(9)
_cell_length_c                   15.5340(10)
_cell_angle_alpha                96.833(5)
_cell_angle_beta                 108.722(5)
_cell_angle_gamma                109.903(5)
_cell_volume                     2460.83
_cell_formula_units_Z            2
loop_
_atom_site_label
_atom_site_type_symbol
_atom_site_fract_x
_atom_site_fract_y
_atom_site_fract_z
C1 C 0.1714(5) 0.7310(4) 0.2791(4)
C2 C 0.1830(5) 0.7900(4) 0.2173(4)
C3 C 0.2736(6) 0.8024(4) 0.1812(4)
C4 C 0.3500(6) 0.7550(5) 0.2049(5)
C5 C 0.3441(6) 0.6960(5) 0.2661(5)
C6 C 0.2520(6) 0.6817(4) 0.3037(4)
C7 C 0.2337(6) 0.6258(4) 0.3758(4)
C8 C 0.3026(5) 0.5753(5) 0.4144(5)
H1 H 0.3668 0.5707 0.3951
C9 C 0.2714(8) 0.5283(5) 0.4884(6)
H2 H 0.3128 0.4904 0.5202
C10 C 0.1735(7) 0.5459(6) 0.5068(5)
H3 H 0.1471 0.5189 0.5527
C11 C 0.1212(8) 0.5971(6) 0.4629(7)
H4 H 0.0599 0.6091 0.4804
C12 C 0.1449(6) 0.6329(5) 0.3979(6)
C13 C 0.1070(5) 0.8476(4) 0.1878(4)
C14 C 0.0039(7) 0.8486(4) 0.2108(4)
H5 H -0.0275 0.8094 0.2484
C15 C -0.0492(5) 0.9197(5) 0.1681(5)
H6 H -0.1183 0.9272 0.1764
C16 C 0.0069(7) 0.9703(5) 0.1187(5)
H7 H -0.0231 1.0170 0.0946
C17 C 0.0962(8) 0.9633(6) 0.1002(5)
H8 H 0.1289 1.0028 0.0633
C18 C 0.1415(6) 0.9032(5) 0.1312(4)
C19 C 0.4505(5) 0.7594(5) 0.1697(5)
C20 C 0.4813(7) 0.8093(5) 0.1059(6)
H9 H 0.4372 0.8465 0.0777
C21 C 0.5815(8) 0.8032(6) 0.0838(5)
H10 H 0.6096 0.8390 0.0429
C22 C 0.6342(7) 0.7459(7) 0.1221(6)
H11 H 0.6975 0.7380 0.1044
C23 C 0.6044(7) 0.6998(5) 0.1824(6)
H12 H 0.6486 0.6627 0.2103
C24 C 0.5117(6) 0.7048(5) 0.2051(4)
C25 C 0.0898(7) 0.6996(5) 0.3364(5)
C26 C 0.1154(12) 0.7936(9) 0.4098(9)
C27 C 0.0284(16) 0.8275(14) 0.4302(15)
H13 H -0.0539 0.8000 0.3843
C28 C 0.054(2) 0.899(2) 0.5128(15)
H14 H -0.0075 0.9061 0.5325
C29 C 0.1767(7) 0.9541(5) 0.5597(5)
C30 C 0.265(2) 0.937(2) 0.5439(14)
H15 H 0.3492 0.9774 0.5834
C31 C 0.2364(15) 0.8561(12) 0.4663(11)
H16 H 0.3019 0.8459 0.4540
C32 C 0.2107(18) 1.0420(11) 0.6397(11)
H17 H 0.1350 1.0442 0.6444
H18 H 0.2570 1.1039 0.6273
H19 H 0.2619 1.0345 0.6989
C33 C -0.0469(10) 0.6327(7) 0.2725(7)
C34 C -0.1316(14) 0.5939(11) 0.3087(11)
H20 H -0.1089 0.6120 0.3748
C35 C -0.2496(5) 0.5289(4) 0.2522(4)
H21 H -0.3066 0.5040 0.2809
C36 C -0.2908(6) 0.4971(4) 0.1554(5)
C37 C -0.202(2) 0.5372(19) 0.1114(15)
H22 H -0.2219 0.5192 0.0456
C38 C -0.0795(11) 0.6071(11) 0.1789(9)
H23 H -0.0184 0.6367 0.1549
C39 C -0.423(2) 0.419(2) 0.0929(19)
H24 H -0.4712 0.4009 0.1322
H25 H -0.4188 0.3598 0.0617
H26 H -0.4643 0.4478 0.0454
C40 C 0.2521(7) 0.8769(5) 0.1169(5)
C41 C 0.3670(9) 0.9758(6) 0.1552(7)
C42 C 0.4061(11) 1.0271(9) 0.2483(10)
H27 H 0.3648 1.0000 0.2870
C43 C 0.502(2) 1.1141(18) 0.2818(13)
H28 H 0.5240 1.1474 0.3451
C44 C 0.5710(6) 1.1610(5) 0.2373(5)
C45 C 0.5399(6) 1.1111(5) 0.1456(5)
H29 H 0.5889 1.1379 0.1115
C46 C 0.4321(18) 1.018(2) 0.102(2)
H30 H 0.4063 0.9851 0.0383
C47 C 0.6882(14) 1.2576(11) 0.2843(13)
H31 H 0.6973 1.2838 0.3484
H32 H 0.6816 1.3068 0.2480
H33 H 0.7605 1.2440 0.2864
C48 C 0.2020(8) 0.8255(7) 0.0109(6)
C49 C 0.1851(11) 0.8756(10) -0.0575(9)
H34 H 0.2180 0.9463 -0.0388
C50 C 0.127(2) 0.8321(13) -0.1453(16)
H35 H 0.1156 0.8703 -0.1899
C51 C 0.0767(7) 0.7197(6) -0.1783(6)
C52 C 0.0944(17) 0.6781(11) -0.1159(15)
H36 H 0.0630 0.6075 -0.1346
C53 C 0.1560(10) 0.7223(8) -0.0192(8)
H37 H 0.1661 0.6831 0.0245
C54 C 0.0154(19) 0.6684(17) -0.2869(14)
H38 H -0.0125 0.5960 -0.2968
H39 H 0.0762 0.6926 -0.3151
H40 H -0.0557 0.6846 -0.3163
C55 C 0.4522(7) 0.6626(5) 0.2775(6)
C56 C 0.3995(8) 0.5486(6) 0.2426(7)
C57 C 0.3024(11) 0.5030(8) 0.1563(8)
H41 H 0.2715 0.5421 0.1191
C58 C 0.2482(6) 0.3961(5) 0.1226(5)
H42 H 0.1768 0.3663 0.0657
C59 C 0.2936(6) 0.3350(5) 0.1678(5)
C60 C 0.3846(6) 0.3764(5) 0.2587(5)
H43 H 0.4117 0.3366 0.2970
C61 C 0.4371(13) 0.4876(9) 0.2920(9)
H44 H 0.5019 0.5179 0.3525
C62 C 0.234(2) 0.2270(16) 0.1280(16)
H45 H 0.1726 0.2115 0.0642
H46 H 0.1930 0.1953 0.1674
H47 H 0.2968 0.2018 0.1259
C63 C 0.5513(7) 0.7104(6) 0.3766(6)
C64 C 0.6542(11) 0.6897(9) 0.4087(8)
H48 H 0.6636 0.6424 0.3679
C65 C 0.7438(6) 0.7343(5) 0.4971(5)
H49 H 0.8097 0.7131 0.5164
C66 C 0.7437(6) 0.8078(5) 0.5592(4)
C67 C 0.6411(19) 0.8376(11) 0.5271(11)
H50 H 0.6379 0.8916 0.5646
C68 C 0.5462(10) 0.7836(8) 0.4382(7)
H51 H 0.4747 0.7980 0.4193
C69 C 0.852(2) 0.8552(15) 0.6543(18)
H52 H 0.9101 0.8234 0.6587
H53 H 0.8209 0.8462 0.7046
H54 H 0.8940 0.9265 0.6606
C70? C 0.0580(13) 0.7628(12) 0.2889(11)
C71? C 0.096(2) 0.8180(16) 0.3881(17)
C72? C 0.004(3) 0.809(2) 0.4177(19)
C73? C 0.054(3) 0.895(3) 0.490(3)
C74? C 0.1767(7) 0.9541(5) 0.5597(5)
C75? C 0.265(5) 0.935(4) 0.519(3)
C76? C 0.222(3) 0.872(2) 0.4409(18)
C77? C 0.227(5) 1.017(3) 0.668(3)
C78? C -0.056(2) 0.6654(15) 0.2509(16)
C79? C -0.139(4) 0.619(3) 0.296(3)
C80? C -0.2496(5) 0.5289(4) 0.2522(4)
C81? C -0.2908(6) 0.4971(4) 0.1554(5)
C82? C -0.222(4) 0.534(3) 0.125(3)
C83? C -0.114(2) 0.610(2) 0.1489(16)
C84? C -0.416(3) 0.426(3) 0.100(3)
C85? C 0.3498(14) 0.8518(12) 0.1127(11)
C86? C 0.4183(16) 0.9592(14) 0.1591(12)
C87? C 0.444(2) 1.0065(17) 0.2503(19)
C88? C 0.524(4) 1.112(4) 0.304(3)
C89? C 0.5710(6) 1.1610(5) 0.2373(5)
C90? C 0.5399(6) 1.1111(5) 0.1456(5)
C91? C 0.468(3) 1.018(4) 0.111(4)
C92? C 0.642(4) 1.277(3) 0.290(3)
C93? C 0.2559(17) 0.8038(12) 0.0174(12)
C94? C 0.224(3) 0.864(2) -0.040(2)
C95? C 0.126(3) 0.805(2) -0.153(2)
C96? C 0.0767(7) 0.7197(6) -0.1783(6)
C97? C 0.110(3) 0.6545(19) -0.110(2)
C98? C 0.197(2) 0.7009(17) -0.0205(17)
C99? C -0.027(3) 0.665(3) -0.270(2)
C100? C 0.3802(14) 0.6158(11) 0.3381(11)
C101? C 0.3614(15) 0.5219(11) 0.2736(11)
C102? C 0.277(2) 0.4832(17) 0.1825(16)
C103? C 0.2482(6) 0.3961(5) 0.1226(5)
C104? C 0.2936(6) 0.3350(5) 0.1678(5)
C105? C 0.3846(6) 0.3764(5) 0.2587(5)
C106? C 0.421(2) 0.4584(14) 0.3164(16)
C107? C 0.261(4) 0.223(3) 0.105(3)
C108? C 0.5134(14) 0.6844(11) 0.4121(11)
C109? C 0.617(2) 0.662(2) 0.423(2)
C110? C 0.7438(6) 0.7343(5) 0.4971(5)
C111? C 0.7437(6) 0.8078(5) 0.5592(4)
C112? C 0.641(3) 0.816(2) 0.547(2)
C113? C 0.534(2) 0.7650(16) 0.4783(16)
C114? C 0.843(3) 0.884(3) 0.647(4)
H55? H -0.0761 0.7572 0.3944
H56? H -0.0058 0.9189 0.4955
H57? H 0.3522 0.9703 0.5521
H58? H 0.2785 0.8608 0.4169
H59? H 0.3179 1.0475 0.6947
H60? H 0.1983 0.9721 0.7055
H61? H 0.1955 1.0692 0.6705
H62? H -0.1187 0.6505 0.3590
H63? H -0.2913 0.4937 0.2873
H64? H -0.2499 0.4990 0.0607
H65? H -0.0768 0.6276 0.1055
H66? H -0.4300 0.4144 0.0334
H67? H -0.4744 0.4520 0.1113
H68? H -0.4290 0.3630 0.1185
H69? H 0.4053 0.9655 0.2835
H70? H 0.5411 1.1421 0.3674
H71? H 0.5734 1.1471 0.1070
H72? H 0.4491 0.9898 0.0466
H73? H 0.6799 1.3128 0.2511
H74? H 0.7075 1.2856 0.3504
H75? H 0.5839 1.3023 0.3013
H76? H 0.2557 0.9337 -0.0166
H77? H 0.1119 0.8440 -0.1961
H78? H 0.0702 0.5839 -0.1298
H79? H 0.2199 0.6600 0.0185
H80? H -0.0378 0.7112 -0.3090
H81? H -0.1033 0.6318 -0.2605
H82? H -0.0084 0.6143 -0.3027
H83? H 0.2332 0.5222 0.1583
H84? H 0.2019 0.3794 0.0568
H85? H 0.4269 0.3358 0.2808
H86? H 0.4783 0.4768 0.3795
H87? H 0.1951 0.2082 0.0437
H88? H 0.2330 0.1731 0.1384
H89? H 0.3350 0.2218 0.0970
H90? H 0.6090 0.6029 0.3844
H91? H 0.8183 0.7283 0.4998
H92? H 0.6437 0.8654 0.5943
H93? H 0.4677 0.7846 0.4738
H94? H 0.8078 0.9239 0.6747
H95? H 0.9096 0.9274 0.6318
H96? H 0.8765 0.8499 0.6926
loop_
_geom_bond_atom_site_label_1
_geom_bond_atom_site_label_2
_geom_bond_site_symmetry_1
_geom_bond_site_symmetry_2
C1 C2 1_555 1_555
C2 C3 1_555 1_555
C3 C4 1_555 1_555
C4 C5 1_555 1_555
C5 C6 1_555 1_555
C6 C1 1_555 1_555
C7 C6 1_555 1_555
C8 C7 1_555 1_555
H1 C8 1_555 1_555
C9 C8 1_555 1_555
H2 C9 1_555 1_555
C10 C9 1_555 1_555
H3 C10 1_555 1_555
C11 C10 1_555 1_555
H4 C11 1_555 1_555
C12 C7 1_555 1_555
C13 C2 1_555 1_555
C14 C13 1_555 1_555
H5 C14 1_555 1_555
C15 C14 1_555 1_555
H6 C15 1_555 1_555
C16 C15 1_555 1_555
H7 C16 1_555 1_555
C17 C16 1_555 1_555
H8 C17 1_555 1_555
C18 C13 1_555 1_555
C19 C4 1_555 1_555
C20 C19 1_555 1_555
H9 C20 1_555 1_555
C21 C20 1_555 1_555
H10 C21 1_555 1_555
C22 C21 1_555 1_555
H11 C22 1_555 1_555
C23 C22 1_555 1_555
H12 C23 1_555 1_555
C24 C19 1_555 1_555
C25 C1 1_555 1_555
C26 C25 1_555 1_555
C27 C26 1_555 1_555
H13 C27 1_555 1_555
C28 C27 1_555 1_555
H14 C28 1_555 1_555
C29 C28 1_555 1_555
C30 C29 1_555 1_555
H15 C30 1_555 1_555
C31 C26 1_555 1_555
H16 C31 1_555 1_555
C32 C29 1_555 1_555
H17 C32 1_555 1_555
H18 C32 1_555 1_555
H19 C32 1_555 1_555
C33 C25 1_555 1_555
C34 C33 1_555 1_555
H20 C34 1_555 1_555
C35 C34 1_555 1_555
H21 C35 1_555 1_555
C36 C35 1_555 1_555
C37 C36 1_555 1_555
H22 C37 1_555 1_555
C38 C33 1_555 1_555
H23 C38 1_555 1_555
C39 C36 1_555 1_555
H24 C39 1_555 1_555
H25 C39 1_555 1_555
H26 C39 1_555 1_555
C40 C3 1_555 1_555
C41 C40 1_555 1_555
C42 C41 1_555 1_555
H27 C42 1_555 1_555
C43 C42 1_555 1_555
H28 C43 1_555 1_555
C44 C43 1_555 1_555
C45 C44 1_555 1_555
H29 C45 1_555 1_555
C46 C41 1_555 1_555
H30 C46 1_555 1_555
C47 C44 1_555 1_555
H31 C47 1_555 1_555
H32 C47 1_555 1_555
H33 C47 1_555 1_555
C48 C40 1_555 1_555
C49 C48 1_555 1_555
H34 C49 1_555 1_555
C50 C49 1_555 1_555
H35 C50 1_555 1_555
C51 C50 1_555 1_555
C52 C51 1_555 1_555
H36 C52 1_555 1_555
C53 C48 1_555 1_555
H37 C53 1_555 1_555
C54 C51 1_555 1_555
H38 C54 1_555 1_555
H39 C54 1_555 1_555
H40 C54 1_555 1_555
C55 C5 1_555 1_555
C56 C55 1_555 1_555
C57 C56 1_555 1_555
H41 C57 1_555 1_555
C58 C57 1_555 1_555
H42 C58 1_555 1_555
C59 C58 1_555 1_555
C60 C59 1_555 1_555
H43 C60 1_555 1_555
C61 C56 1_555 1_555
H44 C61 1_555 1_555
C62 C59 1_555 1_555
H45 C62 1_555 1_555
H46 C62 1_555 1_555
H47 C62 1_555 1_555
C63 C55 1_555 1_555
C64 C63 1_555 1_555
H48 C64 1_555 1_555
C65 C64 1_555 1_555
H49 C65 1_555 1_555
C66 C65 1_555 1_555
C67 C66 1_555 1_555
H50 C67 1_555 1_555
C68 C63 1_555 1_555
H51 C68 1_555 1_555
C69 C66 1_555 1_555
H52 C69 1_555 1_555
H53 C69 1_555 1_555
H54 C69 1_555 1_555
C11 C12 1_555 1_555
C12 C25 1_555 1_555
C17 C18 1_555 1_555
C18 C40 1_555 1_555
C23 C24 1_555 1_555
C24 C55 1_555 1_555
C30 C31 1_555 1_555
C37 C38 1_555 1_555
C45 C46 1_555 1_555
C52 C53 1_555 1_555
C60 C61 1_555 1_555
C67 C68 1_555 1_555

#END
