
#######################################################################
#
#                 Cambridge Crystallographic Data Centre
#                                CCDC 
#
#######################################################################
#
# If this CIF has been generated from an entry in the Cambridge 
# Structural Database, then it will include bibliographic, chemical, 
# crystal, experimental, refinement or atomic coordinate data resulting 
# from the CCDC's data processing and validation procedures.
#
#######################################################################

data_AXOXER
_chemical_formula_moiety         'C15 H17 N3 O6 S1'
_chemical_name_systematic        
4-Nitro-N-(1-(2-oxo-1,3-oxazolidin-3-yl)hex-2-en-1-ylidene)benzenesulfonamide
_symmetry_cell_setting           monoclinic
_symmetry_space_group_name_H-M   'P 21/n'
_symmetry_Int_Tables_number      14
_space_group_name_Hall           '-P 2yn'
loop_
_symmetry_equiv_pos_site_id
_symmetry_equiv_pos_as_xyz
1 x,y,z
2 1/2-x,1/2+y,1/2-z
3 -x,-y,-z
4 1/2+x,1/2-y,1/2+z
_cell_length_a                   15.4246(3)
_cell_length_b                   5.53670(10)
_cell_length_c                   20.8373(4)
_cell_angle_alpha                90
_cell_angle_beta                 102.2060(10)
_cell_angle_gamma                90
_cell_volume                     1739.31
_exptl_crystal_colour            colorless
_exptl_crystal_description       needle
_cell_formula_units_Z            4
loop_
_atom_site_label
_atom_site_type_symbol
_atom_site_fract_x
_atom_site_fract_y
_atom_site_fract_z
C1 C 0.8368(3) 0.9149(8) 0.1285(2)
C2 C 0.7739(3) 1.2399(10) 0.1867(3)
C3 C 0.8883(4) 1.2777(12) 0.2760(3)
H1 H 0.8861 1.2323 0.3206
H2 H 0.9331 1.4017 0.2776
C4 C 0.9093(3) 1.0622(9) 0.2385(2)
H3 H 0.9661 1.0804 0.2261
H4 H 0.9097 0.9148 0.2637
C5 C 0.7631(3) 0.9358(10) 0.0717(2)
H5 H 0.7496 1.0880 0.0534
C6 C 0.7163(4) 0.7576(14) 0.0458(3)
H6 H 0.7315 0.6015 0.0605
C7 C 0.6357(7) 0.7998(19) -0.0088(5)
H7 H 0.5898 0.8727 0.0103
H8 H 0.6516 0.9162 -0.0391
C8 C 0.6016(9) 0.609(2) -0.0427(6)
H9 H 0.5836 0.4917 -0.0135
H10 H 0.6463 0.5341 -0.0627
C9 C 0.5209(5) 0.679(3) -0.0966(4)
H11 H 0.4745 0.5624 -0.0980
H12 H 0.5379 0.6828 -0.1384
H13 H 0.5001 0.8357 -0.0872
C10 C 1.0488(3) 0.6352(8) 0.1065(2)
C11 C 1.0947(4) 0.4643(11) 0.1486(3)
H14 H 1.0650 0.3337 0.1620
C12 C 1.1846(5) 0.4886(15) 0.1706(3)
H15 H 1.2159 0.3749 0.1993
C13 C 1.2272(4) 0.6752(13) 0.1508(3)
C14 C 1.1834(4) 0.8397(13) 0.1073(3)
H16 H 1.2142 0.9658 0.0928
C15 C 1.0934(4) 0.8185(10) 0.0849(3)
H17 H 1.0631 0.9297 0.0549
N1 N 0.9032(2) 0.7668(7) 0.13636(16)
N2 N 0.8365(2) 1.0631(7) 0.18099(16)
N3 N 1.3231(4) 0.6999(19) 0.1767(4)
O1 O 0.9087(3) 0.3659(6) 0.08476(19)
O2 O 0.9105(2) 0.7201(7) 0.01520(14)
O3 O 0.7053(3) 1.2797(8) 0.1504(2)
O4 O 0.8032(3) 1.3645(7) 0.2418(2)
O5 O 1.3586(4) 0.5557(16) 0.2172(3)
O6 O 1.3613(5) 0.863(2) 0.1579(4)
S1 S 0.93271(8) 0.6114(2) 0.07841(5)
loop_
_geom_bond_atom_site_label_1
_geom_bond_atom_site_label_2
_geom_bond_site_symmetry_1
_geom_bond_site_symmetry_2
C1 C5 1_555 1_555
C2 N2 1_555 1_555
C3 H1 1_555 1_555
H2 C3 1_555 1_555
C4 C3 1_555 1_555
H3 C4 1_555 1_555
H4 C4 1_555 1_555
C5 H5 1_555 1_555
C6 C5 1_555 1_555
H6 C6 1_555 1_555
C7 C6 1_555 1_555
H7 C7 1_555 1_555
H8 C7 1_555 1_555
C8 C7 1_555 1_555
H9 C8 1_555 1_555
H10 C8 1_555 1_555
C9 C8 1_555 1_555
H11 C9 1_555 1_555
H12 C9 1_555 1_555
H13 C9 1_555 1_555
C10 C11 1_555 1_555
C11 H14 1_555 1_555
C12 C11 1_555 1_555
H15 C12 1_555 1_555
C13 C12 1_555 1_555
C14 C13 1_555 1_555
H16 C14 1_555 1_555
C15 C10 1_555 1_555
H17 C15 1_555 1_555
N1 C1 1_555 1_555
N2 C1 1_555 1_555
N3 C13 1_555 1_555
O1 S1 1_555 1_555
O2 S1 1_555 1_555
O3 C2 1_555 1_555
O4 C2 1_555 1_555
O5 N3 1_555 1_555
O6 N3 1_555 1_555
S1 C10 1_555 1_555
C3 O4 1_555 1_555
C4 N2 1_555 1_555
C14 C15 1_555 1_555
N1 S1 1_555 1_555

#END
