
#######################################################################
#
#                 Cambridge Crystallographic Data Centre
#                                CCDC 
#
#######################################################################
#
# If this CIF has been generated from an entry in the Cambridge 
# Structural Database, then it will include bibliographic, chemical, 
# crystal, experimental, refinement or atomic coordinate data resulting 
# from the CCDC's data processing and validation procedures.
#
#######################################################################

data_AYEFOZ01
_chemical_formula_moiety         'C22 H21 N5'
_chemical_name_systematic        
4-(4-t-Butylphenyl)-3,5-bis(2-pyridyl)-4H-1,2,4-triazole
_symmetry_cell_setting           monoclinic
_symmetry_space_group_name_H-M   'P 21/n'
_symmetry_Int_Tables_number      14
_space_group_name_Hall           '-P 2yn'
loop_
_symmetry_equiv_pos_site_id
_symmetry_equiv_pos_as_xyz
1 x,y,z
2 1/2-x,1/2+y,1/2-z
3 -x,-y,-z
4 1/2+x,1/2-y,1/2+z
_cell_length_a                   15.348(9)
_cell_length_b                   5.980(3)
_cell_length_c                   20.909(12)
_cell_angle_alpha                90
_cell_angle_beta                 102.488(9)
_cell_angle_gamma                90
_cell_volume                     1873.65
_exptl_crystal_colour            colorless
_exptl_crystal_description       prism
_cell_formula_units_Z            4
loop_
_atom_site_label
_atom_site_type_symbol
_atom_site_fract_x
_atom_site_fract_y
_atom_site_fract_z
N1 N 0.24499(10) 0.6545(3) 0.05313(8)
N2 N 0.11147(12) 0.7466(4) -0.00247(9)
N3 N 0.14446(12) 0.5800(3) -0.03682(9)
N4 N 0.20382(11) 0.9413(3) 0.16017(9)
N5 N 0.36847(13) 0.4222(3) -0.01649(9)
C1 C 0.17166(13) 0.7876(4) 0.05063(10)
C2 C 0.22373(14) 0.5285(4) -0.00291(10)
C3 C 0.15836(13) 0.9604(4) 0.09791(11)
C4 C 0.10004(14) 1.1332(4) 0.07596(12)
H1 H 0.0702 1.1401 0.0323
C5 C 0.08667(15) 1.2949(4) 0.11949(13)
H2 H 0.0472 1.4123 0.1061
C6 C 0.13314(15) 1.2787(5) 0.18319(13)
H3 H 0.1263 1.3866 0.2138
C7 C 0.18986(15) 1.1012(4) 0.20128(12)
H4 H 0.2204 1.0920 0.2448
C8 C 0.28312(15) 0.3634(4) -0.02354(10)
C9 C 0.24943(16) 0.1629(4) -0.04922(10)
H5 H 0.1891 0.1303 -0.0540
C10 C 0.30628(19) 0.0107(4) -0.06778(11)
H6 H 0.2852 -0.1271 -0.0852
C11 C 0.39395(19) 0.0653(5) -0.06020(12)
H7 H 0.4342 -0.0350 -0.0718
C12 C 0.42164(17) 0.2701(5) -0.03522(13)
H8 H 0.4815 0.3065 -0.0309
C13 C 0.32387(12) 0.6259(4) 0.10363(9)
C14 C 0.33885(13) 0.4224(4) 0.13370(10)
H9 H 0.2963 0.3099 0.1235
C15 C 0.41720(14) 0.3834(4) 0.17923(11)
H10 H 0.4268 0.2430 0.1986
C16 C 0.48140(14) 0.5462(4) 0.19671(10)
C17 C 0.46307(13) 0.7509(4) 0.16628(10)
H11 H 0.5042 0.8662 0.1775
C18 C 0.38603(13) 0.7908(4) 0.11982(10)
H12 H 0.3765 0.9299 0.0996
C19 C 0.56879(15) 0.4965(4) 0.24502(12)
C20 C 0.62991(19) 0.3780(7) 0.20806(17)
H13 H 0.6006 0.2470 0.1872
H14 H 0.6839 0.3353 0.2381
H15 H 0.6439 0.4766 0.1755
C21 C 0.5528(2) 0.3412(6) 0.29997(15)
H16 H 0.5252 0.2054 0.2812
H17 H 0.5145 0.4143 0.3242
H18 H 0.6088 0.3069 0.3289
C22 C 0.61234(18) 0.7030(5) 0.27837(16)
H19 H 0.5722 0.7755 0.3012
H20 H 0.6266 0.8031 0.2462
H21 H 0.6661 0.6623 0.3090
loop_
_geom_bond_atom_site_label_1
_geom_bond_atom_site_label_2
_geom_bond_site_symmetry_1
_geom_bond_site_symmetry_2
N1 C1 1_555 1_555
N2 N3 1_555 1_555
N3 C2 1_555 1_555
N4 C3 1_555 1_555
N5 C8 1_555 1_555
C1 N2 1_555 1_555
C2 N1 1_555 1_555
C3 C1 1_555 1_555
C4 C3 1_555 1_555
H1 C4 1_555 1_555
C5 C4 1_555 1_555
H2 C5 1_555 1_555
C6 C5 1_555 1_555
H3 C6 1_555 1_555
C7 N4 1_555 1_555
H4 C7 1_555 1_555
C8 C2 1_555 1_555
C9 C8 1_555 1_555
H5 C9 1_555 1_555
C10 C9 1_555 1_555
H6 C10 1_555 1_555
C11 C10 1_555 1_555
H7 C11 1_555 1_555
C12 N5 1_555 1_555
H8 C12 1_555 1_555
C13 N1 1_555 1_555
C14 C13 1_555 1_555
H9 C14 1_555 1_555
C15 C14 1_555 1_555
H10 C15 1_555 1_555
C16 C15 1_555 1_555
C17 C16 1_555 1_555
H11 C17 1_555 1_555
C18 C13 1_555 1_555
H12 C18 1_555 1_555
C19 C16 1_555 1_555
C20 C19 1_555 1_555
H13 C20 1_555 1_555
H14 C20 1_555 1_555
H15 C20 1_555 1_555
C21 C19 1_555 1_555
H16 C21 1_555 1_555
H17 C21 1_555 1_555
H18 C21 1_555 1_555
C22 C19 1_555 1_555
H19 C22 1_555 1_555
H20 C22 1_555 1_555
H21 C22 1_555 1_555
C6 C7 1_555 1_555
C11 C12 1_555 1_555
C17 C18 1_555 1_555

#END
