
#######################################################################
#
#                 Cambridge Crystallographic Data Centre
#                                CCDC 
#
#######################################################################
#
# If this CIF has been generated from an entry in the Cambridge 
# Structural Database, then it will include bibliographic, chemical, 
# crystal, experimental, refinement or atomic coordinate data resulting 
# from the CCDC's data processing and validation procedures.
#
#######################################################################

data_AYEMEY
_chemical_formula_moiety         'C24 H19 N2 O2 1+,C1 F3 O3 S1 1-'
_chemical_name_systematic        
'2-(16,18-dioxo-17-azapentacyclo[6.6.5.0^2,7^.0^9,14^.0^15,19^]nonadeca-2,4,6,9,11,13-hexaen-17-yl)-1-methylpyridinium trifluoromethanesulfonate'
_symmetry_cell_setting           orthorhombic
_symmetry_space_group_name_H-M   'P n a 21'
_symmetry_Int_Tables_number      33
_space_group_name_Hall           'P 2c -2n'
loop_
_symmetry_equiv_pos_site_id
_symmetry_equiv_pos_as_xyz
1 x,y,z
2 -x,-y,1/2+z
3 1/2+x,1/2-y,z
4 1/2-x,1/2+y,1/2+z
_cell_length_a                   27.601(10)
_cell_length_b                   10.773(4)
_cell_length_c                   7.699(3)
_cell_angle_alpha                90
_cell_angle_beta                 90
_cell_angle_gamma                90
_cell_volume                     2289.26
_exptl_crystal_colour            colorless
_exptl_crystal_description       plate
_cell_formula_units_Z            4
loop_
_atom_site_label
_atom_site_type_symbol
_atom_site_fract_x
_atom_site_fract_y
_atom_site_fract_z
N1 N 0.6452(5) 0.152(2) 0.390(3)
O1 O 0.6970(6) 0.2045(16) 0.615(2)
C1 C 0.6584(5) 0.212(2) 0.545(2)
C2 C 0.6135(4) 0.2813(12) 0.6083(14)
H1 H 0.6208 0.3720 0.6183
C3 C 0.5950(5) 0.2307(12) 0.7876(19)
H2 H 0.6196 0.2407 0.8821
C4 C 0.5483(4) 0.3003(12) 0.8258(18)
C5 C 0.5388(4) 0.3791(15) 0.965(2)
H3 H 0.5629 0.3931 1.0514
C6 C 0.4937(3) 0.4377(9) 0.9785(14)
H4 H 0.4875 0.4927 1.0723
C7 C 0.4577(3) 0.4160(7) 0.8550(10)
H5 H 0.4270 0.4549 0.8669
C8 C 0.4664(2) 0.3384(7) 0.7154(8)
H6 H 0.4418 0.3237 0.6315
C9 C 0.5120(3) 0.2817(7) 0.6994(12)
C10 C 0.5283(3) 0.1984(7) 0.5517(10)
H7 H 0.5020 0.1851 0.4644
C11 C 0.5739(3) 0.2604(7) 0.4691(11)
H8 H 0.5646 0.3419 0.4164
C12 C 0.5975(3) 0.1800(7) 0.3330(12)
O2 O 0.5807(2) 0.1397(6) 0.1985(7)
C13 C 0.5453(3) 0.0779(7) 0.6310(11)
C14 C 0.5304(3) -0.0412(7) 0.5866(10)
H9 H 0.5065 -0.0531 0.4993
C15 C 0.5506(3) -0.1425(8) 0.6708(11)
H10 H 0.5401 -0.2238 0.6416
C16 C 0.5861(3) -0.1272(6) 0.7972(10)
H11 H 0.5999 -0.1974 0.8534
C17 C 0.6012(3) -0.0076(9) 0.8406(16)
H12 H 0.6254 0.0040 0.9271
C18 C 0.5812(6) 0.0946(11) 0.758(2)
C19 C 0.67726(8) 0.0850(2) 0.2819(3)
C20 C 0.70058(10) 0.1463(2) 0.1518(4)
H13 H 0.6965 0.2333 0.1383
C21 C 0.73045(11) 0.0803(3) 0.0387(5)
H14 H 0.7463 0.1214 -0.0547
C22 C 0.73668(10) -0.0451(3) 0.0641(4)
H15 H 0.7567 -0.0915 -0.0125
C23 C 0.71403(9) -0.1027(2) 0.1998(4)
H16 H 0.7191 -0.1889 0.2190
C24 C 0.66144(13) -0.1033(3) 0.4544(5)
H17 H 0.6685 -0.1923 0.4470
H18 H 0.6263 -0.0904 0.4501
H19 H 0.6742 -0.0702 0.5637
N2 N 0.68450(8) -0.03839(19) 0.3069(3)
C43 C 0.83036(10) 0.0460(3) 0.4481(4)
O5 O 0.77010(7) -0.04969(17) 0.6638(3)
O6 O 0.85573(7) -0.08838(17) 0.7104(3)
O7 O 0.82253(8) 0.11747(18) 0.7653(3)
F1 F 0.82299(7) -0.05074(16) 0.3419(2)
F2 F 0.87589(6) 0.08247(17) 0.4262(3)
F3 F 0.80143(7) 0.13776(16) 0.3971(2)
S1 S 0.81821(2) 0.00148(6) 0.67304(11)
N3? N 0.6408(6) 0.139(2) 0.389(3)
O3? O 0.6911(5) 0.2273(16) 0.589(2)
C25? C 0.6509(5) 0.214(2) 0.534(3)
C26? C 0.6035(4) 0.2699(12) 0.5951(17)
H20? H 0.6054 0.3625 0.5909
C27? C 0.5907(5) 0.2257(14) 0.785(2)
H21? H 0.6152 0.2539 0.8722
C28? C 0.5412(4) 0.2796(12) 0.8184(19)
C29? C 0.5308(5) 0.3635(16) 0.949(2)
H22? H 0.5553 0.3912 1.0269
C30? C 0.4831(3) 0.4063(9) 0.9632(15)
H23? H 0.4749 0.4640 1.0518
C31? C 0.4479(3) 0.3654(7) 0.8497(10)
H24? H 0.4156 0.3952 0.8607
C32? C 0.4592(2) 0.2813(7) 0.7199(8)
H25? H 0.4347 0.2529 0.6429
C33? C 0.5062(3) 0.2388(7) 0.7027(11)
C34? C 0.5250(3) 0.1494(7) 0.5683(10)
H26? H 0.4987 0.1185 0.4903
C35? C 0.5647(3) 0.2229(8) 0.4664(11)
H27? H 0.5497 0.2946 0.4037
C36? C 0.5914(3) 0.1407(8) 0.3397(12)
O4? O 0.5761(2) 0.0807(8) 0.2230(8)
C37? C 0.5508(3) 0.0443(7) 0.6616(12)
C38? C 0.5419(2) -0.0819(8) 0.6391(10)
H28? H 0.5175 -0.1096 0.5613
C39? C 0.5693(3) -0.1653(7) 0.7318(12)
H29? H 0.5630 -0.2516 0.7199
C40? C 0.6060(3) -0.1259(6) 0.8430(9)
H30? H 0.6252 -0.1849 0.9038
C41? C 0.6146(4) 0.0003(9) 0.8642(15)
H31? H 0.6395 0.0278 0.9402
C42? C 0.5870(6) 0.0850(10) 0.775(2)
loop_
_geom_bond_atom_site_label_1
_geom_bond_atom_site_label_2
_geom_bond_site_symmetry_1
_geom_bond_site_symmetry_2
N1 C1 1_555 1_555
O1 C1 1_555 1_555
C1 C2 1_555 1_555
C2 H1 1_555 1_555
C3 C2 1_555 1_555
H2 C3 1_555 1_555
C4 C3 1_555 1_555
C5 C4 1_555 1_555
H3 C5 1_555 1_555
C6 C5 1_555 1_555
H4 C6 1_555 1_555
C7 C6 1_555 1_555
H5 C7 1_555 1_555
C8 C7 1_555 1_555
H6 C8 1_555 1_555
C9 C4 1_555 1_555
C10 C9 1_555 1_555
H7 C10 1_555 1_555
C11 C2 1_555 1_555
H8 C11 1_555 1_555
C12 N1 1_555 1_555
O2 C12 1_555 1_555
C13 C10 1_555 1_555
C14 C13 1_555 1_555
H9 C14 1_555 1_555
C15 C14 1_555 1_555
H10 C15 1_555 1_555
C16 C15 1_555 1_555
H11 C16 1_555 1_555
C17 C16 1_555 1_555
H12 C17 1_555 1_555
C18 C3 1_555 1_555
C19 N1 1_555 1_555
C20 C19 1_555 1_555
H13 C20 1_555 1_555
C21 C20 1_555 1_555
H14 C21 1_555 1_555
C22 C21 1_555 1_555
H15 C22 1_555 1_555
C23 C22 1_555 1_555
H16 C23 1_555 1_555
C24 H17 1_555 1_555
H18 C24 1_555 1_555
H19 C24 1_555 1_555
N2 C19 1_555 1_555
C43 F1 1_555 1_555
O5 S1 1_555 1_555
O6 S1 1_555 1_555
O7 S1 1_555 1_555
F2 C43 1_555 1_555
F3 C43 1_555 1_555
S1 C43 1_555 1_555
C8 C9 1_555 1_555
C10 C11 1_555 1_555
C11 C12 1_555 1_555
C13 C18 1_555 1_555
C17 C18 1_555 1_555
C23 N2 1_555 1_555
C24 N2 1_555 1_555

#END
