
#######################################################################
#
#                 Cambridge Crystallographic Data Centre
#                                CCDC 
#
#######################################################################
#
# If this CIF has been generated from an entry in the Cambridge 
# Structural Database, then it will include bibliographic, chemical, 
# crystal, experimental, refinement or atomic coordinate data resulting 
# from the CCDC's data processing and validation procedures.
#
#######################################################################

data_AYEPIF
_chemical_formula_moiety         'C17 H17 F6 N2 O1 1+,C8 H7 O3 1-,0.5(H2 O1)'
_chemical_name_systematic        
'2-((2,8-bis(trifluoromethyl)quinolin-4-yl)(hydroxy)methyl)piperidinium hydroxy(phenyl)acetate hemihydrate'
_symmetry_cell_setting           triclinic
_symmetry_space_group_name_H-M   'P -1'
_symmetry_Int_Tables_number      2
_space_group_name_Hall           '-P 1'
loop_
_symmetry_equiv_pos_site_id
_symmetry_equiv_pos_as_xyz
1 x,y,z
2 -x,-y,-z
_cell_length_a                   9.5317(2)
_cell_length_b                   15.8217(5)
_cell_length_c                   16.2980(5)
_cell_angle_alpha                85.926(2)
_cell_angle_beta                 77.418(2)
_cell_angle_gamma                83.003(2)
_cell_volume                     2378.46
_exptl_crystal_colour            colorless
_exptl_crystal_description       slab
_cell_formula_units_Z            4
loop_
_atom_site_label
_atom_site_type_symbol
_atom_site_fract_x
_atom_site_fract_y
_atom_site_fract_z
F1 F 0.5340(2) 0.43419(13) 0.20495(13)
F2 F 0.6128(2) 0.42025(13) 0.07246(14)
F3 F 0.7404(2) 0.36447(13) 0.15967(17)
F4 F 1.1534(2) 0.43806(13) 0.05811(12)
F5 F 1.1147(2) 0.44735(13) 0.19238(12)
F6 F 1.3016(2) 0.49571(14) 0.11350(15)
O1 O 0.4545(2) 0.74208(14) 0.14151(15)
H1 H 0.411(4) 0.7905(12) 0.153(3)
N1 N 0.8612(3) 0.50764(16) 0.13007(16)
N2 N 0.5620(3) 0.86797(17) 0.00056(17)
H2 H 0.613(3) 0.897(2) 0.026(2)
H3 H 0.4691(14) 0.877(2) 0.024(2)
C1 C 0.7209(3) 0.5153(2) 0.1360(2)
C2 C 0.6315(3) 0.5923(2) 0.1303(2)
H4 H 0.5300 0.5924 0.1366
C3 C 0.6935(3) 0.66691(19) 0.11559(19)
C4 C 0.8463(3) 0.6635(2) 0.10880(19)
C5 C 0.9235(3) 0.7364(2) 0.0943(2)
H5 H 0.8731 0.7914 0.0882
C6 C 1.0696(3) 0.7282(2) 0.0889(2)
H6 H 1.1195 0.7775 0.0791
C7 C 1.1470(3) 0.6478(2) 0.0976(2)
H7 H 1.2484 0.6434 0.0939
C8 C 1.0773(3) 0.5755(2) 0.1114(2)
C9 C 0.9251(3) 0.5821(2) 0.11715(19)
C10 C 0.6531(3) 0.4329(2) 0.1444(2)
C11 C 1.1601(3) 0.4896(2) 0.1193(2)
C12 C 0.6026(3) 0.75057(19) 0.10484(19)
H8 H 0.6359 0.7956 0.1338
C13 C 0.6213(3) 0.7760(2) 0.0100(2)
H9 H 0.7272 0.7708 -0.0156
C14 C 0.5876(4) 0.9001(2) -0.0895(2)
H10 H 0.6929 0.8978 -0.1129
H11 H 0.5453 0.9602 -0.0930
C15 C 0.5196(4) 0.8464(2) -0.1410(2)
H12 H 0.5437 0.8657 -0.2010
H13 H 0.4131 0.8543 -0.1219
C16 C 0.5736(4) 0.7526(2) -0.1317(2)
H14 H 0.6780 0.7435 -0.1576
H15 H 0.5218 0.7186 -0.1618
C17 C 0.5493(4) 0.7224(2) -0.0388(2)
H16 H 0.4443 0.7264 -0.0143
H17 H 0.5894 0.6619 -0.0341
C18 C -0.1849(4) 0.6033(2) 0.6130(2)
F7 F -0.3173(3) 0.60957(19) 0.6595(3)
F8 F -0.1845(6) 0.6196(3) 0.5363(2)
F9 F -0.1283(4) 0.66770(18) 0.6386(3)
F10 F 0.3229(2) 0.55590(14) 0.53309(14)
F11 F 0.4729(2) 0.51710(15) 0.61302(17)
F12 F 0.2720(2) 0.59052(14) 0.66265(15)
O2 O -0.3279(2) 0.30526(14) 0.69410(15)
H18 H -0.367(4) 0.298(3) 0.7449(9)
N3 N 0.0360(3) 0.52001(16) 0.62328(17)
N4 N -0.1684(3) 0.14436(18) 0.63121(19)
H19 H -0.2635(12) 0.149(2) 0.643(2)
H20 H -0.145(4) 0.125(2) 0.6788(14)
C19 C -0.1027(3) 0.5187(2) 0.6291(2)
C20 C -0.1772(3) 0.4453(2) 0.6498(2)
H21 H -0.2781 0.4488 0.6521
C21 C -0.1013(3) 0.3697(2) 0.66638(19)
C22 C 0.0496(3) 0.3677(2) 0.66514(19)
C23 C 0.1391(3) 0.2939(2) 0.6849(2)
H22 H 0.0981 0.2421 0.7024
C24 C 0.2832(4) 0.2969(2) 0.6789(2)
H23 H 0.3417 0.2468 0.6916
C25 C 0.3472(4) 0.3729(2) 0.6542(2)
H24 H 0.4482 0.3733 0.6496
C26 C 0.2650(3) 0.4457(2) 0.6367(2)
C27 C 0.1131(3) 0.4453(2) 0.64167(19)
C28 C 0.3315(4) 0.5276(2) 0.6113(2)
C29 C -0.1749(3) 0.2881(2) 0.6832(2)
H25 H -0.1506 0.2569 0.7348
C30 C -0.1209(4) 0.2313(2) 0.6072(2)
H26 H -0.0128 0.2254 0.5944
C31 C -0.1103(4) 0.0833(2) 0.5618(2)
H27 H -0.1445 0.0269 0.5795
H28 H -0.0033 0.0762 0.5505
C32 C -0.1608(4) 0.1170(2) 0.4828(2)
H29 H -0.2675 0.1202 0.4931
H30 H -0.1198 0.0776 0.4370
C33 C -0.1134(4) 0.2050(2) 0.4565(2)
H31 H -0.1507 0.2273 0.4061
H32 H -0.0065 0.2010 0.4417
C34 C -0.1709(4) 0.2659(2) 0.5282(2)
H33 H -0.1360 0.3223 0.5112
H34 H -0.2779 0.2736 0.5396
O3 O 0.2669(2) -0.08127(14) 0.05126(15)
O4 O 0.2997(2) -0.11430(15) 0.18177(15)
O5 O 0.0214(2) -0.09990(15) 0.24340(17)
H35 H -0.0664(17) -0.086(3) 0.266(3)
C35 C 0.2226(3) -0.08536(19) 0.1300(2)
C36 C 0.0645(3) -0.0537(2) 0.1657(2)
H36 H 0.0043 -0.0663 0.1259
C37 C 0.0458(3) 0.0421(2) 0.1772(2)
C38 C -0.0215(4) 0.0980(2) 0.1242(2)
H37 H -0.0560 0.0764 0.0803
C39 C -0.0386(4) 0.1858(2) 0.1353(3)
H38 H -0.0853 0.2236 0.0992
C40 C 0.0119(4) 0.2175(2) 0.1985(3)
H39 H -0.0003 0.2771 0.2062
C41 C 0.0805(4) 0.1622(2) 0.2506(2)
H40 H 0.1165 0.1841 0.2938
C42 C 0.0972(4) 0.0748(2) 0.2405(2)
H41 H 0.1439 0.0374 0.2769
O6 O 0.7671(3) -0.0687(2) 0.3359(2)
O7 O 0.6636(4) -0.0738(2) 0.2270(2)
O8 O 0.3996(4) -0.0457(2) 0.3191(2)
H42 H 0.457(6) -0.079(3) 0.284(3)
C43 C 0.6642(5) -0.0604(3) 0.3013(3)
C44 C 0.5166(4) -0.0306(3) 0.3535(3)
H43 H 0.5071 -0.0645 0.4082
C45 C 0.5065(4) 0.0622(3) 0.3748(3)
C46 C 0.6000(5) 0.1182(3) 0.3294(3)
H44 H 0.6741 0.0987 0.2835
C47 C 0.5851(7) 0.2031(3) 0.3511(4)
H45 H 0.6472 0.2416 0.3190
C48 C 0.4812(8) 0.2309(4) 0.4184(5)
H46 H 0.4731 0.2883 0.4341
C49 C 0.3880(6) 0.1760(4) 0.4637(4)
H47 H 0.3150 0.1959 0.5099
C50 C 0.4008(5) 0.0919(3) 0.4419(3)
H48 H 0.3363 0.0543 0.4734
O9 O 0.7552(3) -0.05535(16) 0.06281(17)
H49 H 0.724(5) -0.046(3) 0.1140(10)
H50 H 0.765(5) -0.0084(15) 0.036(3)
F13? F -0.2815(11) 0.5956(7) 0.5611(10)
F14? F -0.237(3) 0.6462(11) 0.6684(8)
F15? F -0.1069(12) 0.6560(7) 0.5570(12)
loop_
_geom_bond_atom_site_label_1
_geom_bond_atom_site_label_2
_geom_bond_site_symmetry_1
_geom_bond_site_symmetry_2
F1 C10 1_555 1_555
F2 C10 1_555 1_555
F3 C10 1_555 1_555
F4 C11 1_555 1_555
F5 C11 1_555 1_555
F6 C11 1_555 1_555
O1 H1 1_555 1_555
N1 C1 1_555 1_555
N2 H2 1_555 1_555
H3 N2 1_555 1_555
C1 C2 1_555 1_555
C2 H4 1_555 1_555
C3 C2 1_555 1_555
C4 C3 1_555 1_555
C5 C4 1_555 1_555
H5 C5 1_555 1_555
C6 C5 1_555 1_555
H6 C6 1_555 1_555
C7 C6 1_555 1_555
H7 C7 1_555 1_555
C8 C7 1_555 1_555
C9 N1 1_555 1_555
C10 C1 1_555 1_555
C11 C8 1_555 1_555
C12 O1 1_555 1_555
H8 C12 1_555 1_555
C13 N2 1_555 1_555
H9 C13 1_555 1_555
C14 N2 1_555 1_555
H10 C14 1_555 1_555
H11 C14 1_555 1_555
C15 C14 1_555 1_555
H12 C15 1_555 1_555
H13 C15 1_555 1_555
C16 C15 1_555 1_555
H14 C16 1_555 1_555
H15 C16 1_555 1_555
C17 C13 1_555 1_555
H16 C17 1_555 1_555
H17 C17 1_555 1_555
C18 F7 1_555 1_555
F8 C18 1_555 1_555
F9 C18 1_555 1_555
F10 C28 1_555 1_555
F11 C28 1_555 1_555
F12 C28 1_555 1_555
O2 H18 1_555 1_555
N3 C19 1_555 1_555
N4 H19 1_555 1_555
H20 N4 1_555 1_555
C19 C18 1_555 1_555
C20 C19 1_555 1_555
H21 C20 1_555 1_555
C21 C20 1_555 1_555
C22 C21 1_555 1_555
C23 C22 1_555 1_555
H22 C23 1_555 1_555
C24 C23 1_555 1_555
H23 C24 1_555 1_555
C25 C24 1_555 1_555
H24 C25 1_555 1_555
C26 C25 1_555 1_555
C27 N3 1_555 1_555
C28 C26 1_555 1_555
C29 O2 1_555 1_555
H25 C29 1_555 1_555
C30 N4 1_555 1_555
H26 C30 1_555 1_555
C31 N4 1_555 1_555
H27 C31 1_555 1_555
H28 C31 1_555 1_555
C32 C31 1_555 1_555
H29 C32 1_555 1_555
H30 C32 1_555 1_555
C33 C32 1_555 1_555
H31 C33 1_555 1_555
H32 C33 1_555 1_555
C34 C30 1_555 1_555
H33 C34 1_555 1_555
H34 C34 1_555 1_555
O3 C35 1_555 1_555
O4 C35 1_555 1_555
O5 H35 1_555 1_555
C35 C36 1_555 1_555
C36 O5 1_555 1_555
H36 C36 1_555 1_555
C37 C36 1_555 1_555
C38 C37 1_555 1_555
H37 C38 1_555 1_555
C39 C38 1_555 1_555
H38 C39 1_555 1_555
C40 C39 1_555 1_555
H39 C40 1_555 1_555
C41 C40 1_555 1_555
H40 C41 1_555 1_555
C42 C37 1_555 1_555
H41 C42 1_555 1_555
O6 C43 1_555 1_555
O7 C43 1_555 1_555
O8 H42 1_555 1_555
C43 C44 1_555 1_555
C44 O8 1_555 1_555
H43 C44 1_555 1_555
C45 C44 1_555 1_555
C46 C45 1_555 1_555
H44 C46 1_555 1_555
C47 C46 1_555 1_555
H45 C47 1_555 1_555
C48 C47 1_555 1_555
H46 C48 1_555 1_555
C49 C48 1_555 1_555
H47 C49 1_555 1_555
C50 C45 1_555 1_555
H48 C50 1_555 1_555
O9 H49 1_555 1_555
H50 O9 1_555 1_555
C3 C12 1_555 1_555
C4 C9 1_555 1_555
C8 C9 1_555 1_555
C12 C13 1_555 1_555
C16 C17 1_555 1_555
C21 C29 1_555 1_555
C22 C27 1_555 1_555
C26 C27 1_555 1_555
C29 C30 1_555 1_555
C33 C34 1_555 1_555
C41 C42 1_555 1_555
C49 C50 1_555 1_555

#END
