
#######################################################################
#
#                 Cambridge Crystallographic Data Centre
#                                CCDC 
#
#######################################################################
#
# If this CIF has been generated from an entry in the Cambridge 
# Structural Database, then it will include bibliographic, chemical, 
# crystal, experimental, refinement or atomic coordinate data resulting 
# from the CCDC's data processing and validation procedures.
#
#######################################################################

data_AYEQIG
_chemical_formula_moiety         'C12 H10 B1 Br2 F2 N3 O1'
_chemical_name_systematic        
9-(dibromomethyl)-1,1-difluoro-3,7-dimethyl-1H-11\l^5^,1\l^5^-[1,3,5,2]oxadiazaborinino[3,4-a][1,8]naphthyridine
_symmetry_cell_setting           orthorhombic
_symmetry_space_group_name_H-M   'P n m a'
_symmetry_Int_Tables_number      62
_space_group_name_Hall           '-P 2ac 2n'
loop_
_symmetry_equiv_pos_site_id
_symmetry_equiv_pos_as_xyz
1 x,y,z
2 1/2-x,-y,1/2+z
3 -x,1/2+y,-z
4 1/2+x,1/2-y,1/2-z
5 -x,-y,-z
6 1/2+x,y,1/2-z
7 x,1/2-y,z
8 1/2-x,1/2+y,1/2+z
_cell_length_a                   17.161(3)
_cell_length_b                   7.2169(14)
_cell_length_c                   11.678(2)
_cell_angle_alpha                90
_cell_angle_beta                 90
_cell_angle_gamma                90
_cell_volume                     1446.31
_exptl_crystal_colour            yellow
_exptl_crystal_description       block
_cell_formula_units_Z            4
loop_
_atom_site_label
_atom_site_type_symbol
_atom_site_fract_x
_atom_site_fract_y
_atom_site_fract_z
Br1 Br 0.11449(3) 0.02946(8) 0.57510(5)
B1 B 0.1752(5) 0.2500 0.9765(7)
F1 F 0.19639(16) 0.0919(4) 0.9205(3)
N1 N 0.1041(4) 0.2500 1.2022(6)
N2 N 0.0835(3) 0.2500 1.0005(5)
N3 N 0.0640(3) 0.2500 0.8049(5)
O1 O 0.2143(3) 0.2500 1.0882(5)
C1 C 0.2326(5) 0.2500 1.2869(8)
H1 H 0.2025 0.2500 1.3562
H2 H 0.2649 0.1414 1.2847
C2 C 0.1794(5) 0.2500 1.1872(7)
C3 C 0.0572(4) 0.2500 1.1095(7)
C4 C -0.0249(5) 0.2500 1.1303(8)
H3 H -0.0433 0.2500 1.2079
C5 C -0.0760(4) 0.2500 1.0421(8)
H4 H -0.1309 0.2500 1.0579
C6 C -0.0513(4) 0.2500 0.9274(8)
C7 C -0.1003(4) 0.2500 0.8304(7)
C8 C -0.1880(4) 0.2500 0.8438(8)
H5 H -0.2125 0.2500 0.7698
H6 H -0.2036 0.1414 0.8854
C9 C -0.0662(4) 0.2500 0.7256(7)
H7 H -0.0981 0.2500 0.6580
C10 C 0.0160(4) 0.2500 0.7152(7)
C11 C 0.0314(4) 0.2500 0.9079(6)
C12 C 0.0518(4) 0.2500 0.5979(7)
H8 H 0.0104 0.2500 0.5425
Br1F Br 0.11449(3) 0.47054(8) 0.57510(5)
F1F F 0.19639(16) 0.4081(4) 0.9205(3)
H2F H 0.2649 0.3586 1.2847
H6F H -0.2036 0.3586 0.8854
loop_
_geom_bond_atom_site_label_1
_geom_bond_atom_site_label_2
_geom_bond_site_symmetry_1
_geom_bond_site_symmetry_2
Br1 C12 1_555 1_555
B1 F1 1_555 1_555
N1 C2 1_555 1_555
N2 B1 1_555 1_555
N3 C10 1_555 1_555
O1 B1 1_555 1_555
C1 H1 1_555 1_555
H2 C1 1_555 1_555
C2 O1 1_555 1_555
C3 N1 1_555 1_555
C4 C3 1_555 1_555
H3 C4 1_555 1_555
C5 C4 1_555 1_555
H4 C5 1_555 1_555
C6 C5 1_555 1_555
C7 C6 1_555 1_555
C8 C7 1_555 1_555
H5 C8 1_555 1_555
H6 C8 1_555 1_555
C9 C7 1_555 1_555
H7 C9 1_555 1_555
C10 C9 1_555 1_555
C11 N2 1_555 1_555
C12 C10 1_555 1_555
H8 C12 1_555 1_555
Br1F C12 1_555 1_555
F1F B1 1_555 1_555
H2F C1 1_555 1_555
H6F C8 1_555 1_555
N2 C3 1_555 1_555
N3 C11 1_555 1_555
C1 C2 1_555 1_555
C6 C11 1_555 1_555

#END
