
#######################################################################
#
#                 Cambridge Crystallographic Data Centre
#                                CCDC 
#
#######################################################################
#
# If this CIF has been generated from an entry in the Cambridge 
# Structural Database, then it will include bibliographic, chemical, 
# crystal, experimental, refinement or atomic coordinate data resulting 
# from the CCDC's data processing and validation procedures.
#
#######################################################################

data_AYOLIJ
_chemical_formula_moiety         '2(Cs1 1+),H24 B8 Na2 O26 2-'
_chemical_name_systematic        
'Dicesium bis(\m~2~-aqua)-bis(tetraborate)-hexaaqua-di-sodium'
_symmetry_cell_setting           monoclinic
_symmetry_space_group_name_H-M   'P 21/c'
_symmetry_Int_Tables_number      14
_space_group_name_Hall           '-P 2ybc'
loop_
_symmetry_equiv_pos_site_id
_symmetry_equiv_pos_as_xyz
1 x,y,z
2 -x,1/2+y,1/2-z
3 -x,-y,-z
4 x,1/2-y,1/2+z
_cell_length_a                   8.240(1)
_cell_length_b                   11.493(1)
_cell_length_c                   12.900(2)
_cell_angle_alpha                90
_cell_angle_beta                 92.11(1)
_cell_angle_gamma                90
_cell_volume                     1220.83
_exptl_crystal_colour            colorless
_exptl_crystal_description       prism
_cell_formula_units_Z            2
loop_
_atom_site_label
_atom_site_type_symbol
_atom_site_fract_x
_atom_site_fract_y
_atom_site_fract_z
Cs1 Cs 0.95886(2) 0.60651(2) 0.363844(17)
Na1 Na 0.84747(15) 0.91133(11) 0.53636(10)
O1 O 0.2755(2) 0.66015(18) 0.66108(16)
O2 O 0.4412(2) 0.81797(16) 0.72960(16)
O3 O 0.6943(2) 0.72361(16) 0.70051(15)
O4 O 0.5273(2) 0.58124(17) 0.60820(15)
O5 O 0.4874(2) 0.62134(16) 0.78945(14)
O6 O 0.2849(3) 0.5624(2) 0.50357(19)
O7 O 0.2420(3) 0.7215(2) 0.83415(18)
O8 O 0.6785(3) 0.92436(17) 0.68788(17)
O9 O 0.7337(2) 0.52412(17) 0.73602(16)
O10 O 0.6691(3) 0.7701(3) 0.4541(2)
O11 O 0.9764(3) 0.7364(3) 0.5916(2)
O12 O 0.9866(3) 0.9382(2) 0.37805(18)
O13 O 0.6640(4) 1.0688(3) 0.4822(2)
B1 B 0.3655(4) 0.6014(3) 0.5922(3)
B2 B 0.3618(4) 0.7043(3) 0.7560(2)
B3 B 0.6009(4) 0.8211(3) 0.7067(2)
B4 B 0.6126(4) 0.6111(3) 0.7117(2)
H1 H 0.338(3) 0.522(2) 0.465(2)
H2 H 0.293(6) 0.747(5) 0.884(3)
H3 H 0.617(3) 0.9800(19) 0.687(2)
H4 H 0.691(4) 0.4606(16) 0.740(3)
H5 H 0.596(5) 0.805(5) 0.422(4)
H6 H 0.619(6) 0.720(4) 0.485(4)
H7 H 0.903(4) 0.716(4) 0.629(3)
H8 H 1.062(3) 0.718(5) 0.621(4)
H9 H 0.914(3) 0.950(4) 0.334(2)
H10 H 1.053(4) 0.893(3) 0.355(3)
H11 H 0.658(7) 1.103(4) 0.427(2)
H12 H 0.581(3) 1.030(5) 0.483(3)
Na1B Na 1.15253(15) 1.08867(11) 0.46364(10)
O8B O 1.3215(3) 1.07564(17) 0.31212(17)
B3B B 1.3991(4) 1.1789(3) 0.2933(2)
O2B O 1.5588(2) 1.18203(16) 0.27040(16)
B2B B 1.6382(4) 1.2957(3) 0.2440(2)
O1B O 1.7245(2) 1.33985(18) 0.33892(16)
B1B B 1.6345(4) 1.3986(3) 0.4078(3)
O4B O 1.4727(2) 1.41876(17) 0.39180(15)
B4B B 1.3874(4) 1.3889(3) 0.2883(2)
O3B O 1.3057(2) 1.27639(16) 0.29949(15)
O5B O 1.5126(2) 1.37866(16) 0.21055(14)
O7B O 1.7580(3) 1.2785(2) 0.16585(18)
H2B H 1.707(6) 1.253(5) 0.116(3)
O9B O 1.2663(2) 1.47588(17) 0.26398(16)
H4B H 1.309(4) 1.5394(16) 0.260(3)
O6B O 1.7151(3) 1.4376(2) 0.49643(19)
H1B H 1.662(3) 1.478(2) 0.535(2)
H3B H 1.383(3) 1.0200(19) 0.313(2)
O10B O 1.3309(3) 1.2299(3) 0.5459(2)
H5B H 1.404(5) 1.195(5) 0.578(4)
H6B H 1.381(6) 1.280(4) 0.515(4)
O11B O 1.0236(3) 1.2636(3) 0.4084(2)
H7B H 1.097(4) 1.284(4) 0.371(3)
H8B H 0.938(3) 1.282(5) 0.379(4)
O12B O 1.0134(3) 1.0618(2) 0.62195(18)
H9B H 1.086(3) 1.050(4) 0.666(2)
H10B H 0.947(4) 1.107(3) 0.645(3)
O13B O 1.3360(4) 0.9312(3) 0.5178(2)
H11B H 1.342(7) 0.897(4) 0.573(2)
H12B H 1.419(3) 0.970(5) 0.517(3)
loop_
_geom_bond_atom_site_label_1
_geom_bond_atom_site_label_2
_geom_bond_site_symmetry_1
_geom_bond_site_symmetry_2
Na1 O8 1_555 1_555
O1 B1 1_555 1_555
O2 B2 1_555 1_555
O3 B3 1_555 1_555
O4 B1 1_555 1_555
O5 B2 1_555 1_555
O6 B1 1_555 1_555
O7 B2 1_555 1_555
O8 B3 1_555 1_555
O9 B4 1_555 1_555
O10 Na1 1_555 1_555
O11 Na1 1_555 1_555
O12 Na1 1_555 1_555
O13 Na1 1_555 1_555
B2 O1 1_555 1_555
B3 O2 1_555 1_555
B4 O3 1_555 1_555
H1 O6 1_555 1_555
H2 O7 1_555 1_555
H3 O8 1_555 1_555
H4 O9 1_555 1_555
H5 O10 1_555 1_555
H6 O10 1_555 1_555
H7 O11 1_555 1_555
H8 O11 1_555 1_555
H9 O12 1_555 1_555
H10 O12 1_555 1_555
H11 O13 1_555 1_555
H12 O13 1_555 1_555
Na1B O12 1_555 1_555
O8B Na1B 1_555 1_555
B3B O8B 1_555 1_555
O2B B3B 1_555 1_555
B2B O2B 1_555 1_555
O1B B2B 1_555 1_555
B1B O1B 1_555 1_555
O4B B1B 1_555 1_555
B4B O4B 1_555 1_555
O3B B3B 1_555 1_555
O5B B2B 1_555 1_555
O7B B2B 1_555 1_555
H2B O7B 1_555 1_555
O9B B4B 1_555 1_555
H4B O9B 1_555 1_555
O6B B1B 1_555 1_555
H1B O6B 1_555 1_555
H3B O8B 1_555 1_555
O10B Na1B 1_555 1_555
H5B O10B 1_555 1_555
H6B O10B 1_555 1_555
O11B Na1B 1_555 1_555
H7B O11B 1_555 1_555
H8B O11B 1_555 1_555
O12B Na1 1_555 1_555
H9B O12B 1_555 1_555
H10B O12B 1_555 1_555
O13B Na1B 1_555 1_555
H11B O13B 1_555 1_555
H12B O13B 1_555 1_555
O4 B4 1_555 1_555
O5 B4 1_555 1_555
Na1B O12B 1_555 1_555
B4B O3B 1_555 1_555
B4B O5B 1_555 1_555

#END
