
#######################################################################
#
#                 Cambridge Crystallographic Data Centre
#                                CCDC 
#
#######################################################################
#
# If this CIF has been generated from an entry in the Cambridge 
# Structural Database, then it will include bibliographic, chemical, 
# crystal, experimental, refinement or atomic coordinate data resulting 
# from the CCDC's data processing and validation procedures.
#
#######################################################################

data_AYORAI
_chemical_formula_moiety         'C19 H20 N4 O1 S1'
_chemical_name_systematic        
2-((3-Propylsulfanyl-5-p-tolyl-4H-1,2,4-triazol-4-yl)iminomethyl)phenol
_symmetry_cell_setting           monoclinic
_symmetry_space_group_name_H-M   'C 2/c'
_symmetry_Int_Tables_number      15
_space_group_name_Hall           '-C 2yn'
loop_
_symmetry_equiv_pos_site_id
_symmetry_equiv_pos_as_xyz
1 x,y,z
2 -x,y,1/2-z
3 1/2+x,1/2+y,z
4 1/2-x,1/2+y,1/2-z
5 -x,-y,-z
6 x,-y,1/2+z
7 1/2-x,1/2-y,-z
8 1/2+x,1/2-y,1/2+z
_cell_length_a                   22.682(2)
_cell_length_b                   18.1736(15)
_cell_length_c                   9.1557(8)
_cell_angle_alpha                90
_cell_angle_beta                 109.678(7)
_cell_angle_gamma                90
_cell_volume                     3553.7
_exptl_crystal_colour            colorless
_exptl_crystal_description       prism
_cell_formula_units_Z            8
loop_
_atom_site_label
_atom_site_type_symbol
_atom_site_fract_x
_atom_site_fract_y
_atom_site_fract_z
S1 S 0.28535(3) 0.18666(3) 0.66027(7)
O1 O 0.22719(7) 0.34890(9) 0.84176(19)
H1 H 0.2327(15) 0.3982(19) 0.816(4)
N1 N 0.28721(9) 0.03831(11) 0.6965(2)
N2 N 0.25373(9) -0.01562(11) 0.7421(2)
N3 N 0.21532(9) 0.09105(10) 0.7742(2)
N4 N 0.17143(9) 0.14097(10) 0.7951(2)
C1 C 0.43083(12) 0.09850(16) 0.5327(3)
H2 H 0.4081 0.0552 0.4785
H3 H 0.4737 0.0844 0.5946
H4 H 0.4320 0.1359 0.4566
C2 C 0.39763(11) 0.12982(14) 0.6392(3)
H5 H 0.3961 0.0919 0.7156
H6 H 0.4215 0.1725 0.6969
C3 C 0.33133(11) 0.15388(13) 0.5455(3)
H7 H 0.3092 0.1118 0.4819
H8 H 0.3337 0.1935 0.4735
C4 C 0.26334(10) 0.10185(12) 0.7148(3)
C5 C 0.21029(11) 0.01597(12) 0.7866(3)
C6 C 0.16446(11) -0.02466(13) 0.8370(3)
C7 C 0.12894(12) 0.00694(14) 0.9178(3)
H9 H 0.1336 0.0578 0.9433
C8 C 0.08665(12) -0.03538(15) 0.9615(3)
H10 H 0.0623 -0.0126 1.0152
C9 C 0.07908(11) -0.11011(14) 0.9288(3)
C10 C 0.11503(12) -0.14132(14) 0.8479(3)
H11 H 0.1106 -0.1923 0.8234
C11 C 0.15695(11) -0.09988(13) 0.8024(3)
H12 H 0.1808 -0.1226 0.7473
C12 C 0.03444(13) -0.15614(17) 0.9807(3)
H13 H 0.0174 -0.1957 0.9055
H14 H 0.0001 -0.1251 0.9875
H15 H 0.0568 -0.1775 1.0827
C13 C 0.19299(11) 0.20586(13) 0.8382(3)
H16 H 0.2355 0.2165 0.8521
C14 C 0.15332(11) 0.26319(13) 0.8662(3)
C15 C 0.09753(11) 0.24755(14) 0.8943(3)
H17 H 0.0839 0.1980 0.8929
C16 C 0.06239(12) 0.30375(14) 0.9239(3)
H18 H 0.0247 0.2930 0.9434
C17 C 0.08210(12) 0.37635(14) 0.9251(3)
H19 H 0.0574 0.4149 0.9448
C18 C 0.13694(11) 0.39332(13) 0.8982(3)
H20 H 0.1501 0.4430 0.8997
C19 C 0.17279(11) 0.33639(13) 0.8688(3)
loop_
_geom_bond_atom_site_label_1
_geom_bond_atom_site_label_2
_geom_bond_site_symmetry_1
_geom_bond_site_symmetry_2
S1 C3 1_555 1_555
O1 H1 1_555 1_555
N1 N2 1_555 1_555
N2 C5 1_555 1_555
N3 N4 1_555 1_555
N4 C13 1_555 1_555
C1 H2 1_555 1_555
H3 C1 1_555 1_555
H4 C1 1_555 1_555
C2 C1 1_555 1_555
H5 C2 1_555 1_555
H6 C2 1_555 1_555
C3 C2 1_555 1_555
H7 C3 1_555 1_555
H8 C3 1_555 1_555
C4 S1 1_555 1_555
C5 N3 1_555 1_555
C6 C5 1_555 1_555
C7 C6 1_555 1_555
H9 C7 1_555 1_555
C8 C7 1_555 1_555
H10 C8 1_555 1_555
C9 C8 1_555 1_555
C10 C9 1_555 1_555
H11 C10 1_555 1_555
C11 C6 1_555 1_555
H12 C11 1_555 1_555
C12 C9 1_555 1_555
H13 C12 1_555 1_555
H14 C12 1_555 1_555
H15 C12 1_555 1_555
C13 H16 1_555 1_555
C14 C13 1_555 1_555
C15 C14 1_555 1_555
H17 C15 1_555 1_555
C16 C15 1_555 1_555
H18 C16 1_555 1_555
C17 C16 1_555 1_555
H19 C17 1_555 1_555
C18 C17 1_555 1_555
H20 C18 1_555 1_555
C19 O1 1_555 1_555
N1 C4 1_555 1_555
N3 C4 1_555 1_555
C10 C11 1_555 1_555
C14 C19 1_555 1_555
C18 C19 1_555 1_555

#END
