
#######################################################################
#
#                 Cambridge Crystallographic Data Centre
#                                CCDC 
#
#######################################################################
#
# If this CIF has been generated from an entry in the Cambridge 
# Structural Database, then it will include bibliographic, chemical, 
# crystal, experimental, refinement or atomic coordinate data resulting 
# from the CCDC's data processing and validation procedures.
#
#######################################################################

data_AYOZOE
_chemical_name_common            1,4-bis(1H-benzimidazol-1-yl)benzene
_chemical_formula_moiety         'C20 H14 N4'
_chemical_name_systematic        1,1'-(1,4-Phenylene)bis(1H-benzimidazole)
_symmetry_cell_setting           orthorhombic
_symmetry_space_group_name_H-M   'P n a 21'
_symmetry_Int_Tables_number      33
_space_group_name_Hall           'P 2c -2n'
loop_
_symmetry_equiv_pos_site_id
_symmetry_equiv_pos_as_xyz
1 x,y,z
2 -x,-y,1/2+z
3 1/2-x,1/2+y,1/2+z
4 1/2+x,1/2-y,z
_cell_length_a                   9.5458(19)
_cell_length_b                   20.499(4)
_cell_length_c                   7.9283(16)
_cell_angle_alpha                90
_cell_angle_beta                 90
_cell_angle_gamma                90
_cell_volume                     1551.4
_exptl_crystal_colour            colorless
_exptl_crystal_description       block
_chemical_melting_point          '564 K'
_cell_formula_units_Z            4
_exptl_crystal_recrystallization_method methanol/water
loop_
_atom_site_label
_atom_site_type_symbol
_atom_site_fract_x
_atom_site_fract_y
_atom_site_fract_z
N1 N 0.2140(3) 0.55131(15) 0.6320(4)
N2 N 0.4461(3) 0.53457(14) 0.6010(4)
N3 N 0.9643(3) 0.40659(14) 0.6681(4)
N4 N 1.1632(3) 0.37523(15) 0.7980(4)
C1 C 0.3178(4) 0.51125(18) 0.6527(5)
H1 H 0.3065 0.4699 0.6993
C2 C 0.2750(3) 0.60700(16) 0.5602(4)
C3 C 0.2141(4) 0.66544(17) 0.5108(5)
H2 H 0.1189 0.6729 0.5263
C4 C 0.2986(4) 0.71179(17) 0.4385(5)
H3 H 0.2598 0.7513 0.4047
C5 C 0.4412(4) 0.70086(17) 0.4146(5)
H4 H 0.4948 0.7331 0.3629
C6 C 0.5059(4) 0.64388(17) 0.4649(5)
H5 H 0.6014 0.6371 0.4499
C7 C 0.4197(3) 0.59693(16) 0.5399(5)
C8 C 0.5788(3) 0.50222(17) 0.6151(4)
C9 C 0.5905(4) 0.43768(17) 0.5667(5)
H6 H 0.5134 0.4158 0.5226
C10 C 0.7177(3) 0.40549(17) 0.5842(5)
H7 H 0.7256 0.3618 0.5539
C11 C 0.8327(3) 0.43899(17) 0.6469(5)
C12 C 0.8204(4) 0.50358(17) 0.6927(5)
H8 H 0.8982 0.5260 0.7330
C13 C 0.6930(4) 0.53532(18) 0.6794(5)
H9 H 0.6843 0.5786 0.7130
C14 C 1.0470(4) 0.40901(19) 0.8087(5)
H10 H 1.0229 0.4329 0.9042
C15 C 1.0353(3) 0.36720(16) 0.5527(5)
C16 C 1.0063(4) 0.3484(2) 0.3891(6)
H11 H 0.9241 0.3610 0.3355
C17 C 1.1043(4) 0.3103(2) 0.3088(6)
H12 H 1.0880 0.2971 0.1983
C18 C 1.2279(5) 0.2907(2) 0.3899(6)
H13 H 1.2914 0.2644 0.3325
C19 C 1.2571(4) 0.30983(19) 0.5533(6)
H14 H 1.3397 0.2973 0.6065
C20 C 1.1584(4) 0.34847(17) 0.6357(5)
loop_
_geom_bond_atom_site_label_1
_geom_bond_atom_site_label_2
_geom_bond_site_symmetry_1
_geom_bond_site_symmetry_2
N1 C1 1_555 1_555
N2 C1 1_555 1_555
N3 C11 1_555 1_555
N4 C14 1_555 1_555
C1 H1 1_555 1_555
C2 N1 1_555 1_555
C3 C2 1_555 1_555
H2 C3 1_555 1_555
C4 C3 1_555 1_555
H3 C4 1_555 1_555
C5 C4 1_555 1_555
H4 C5 1_555 1_555
C6 C5 1_555 1_555
H5 C6 1_555 1_555
C7 N2 1_555 1_555
C8 N2 1_555 1_555
C9 C8 1_555 1_555
H6 C9 1_555 1_555
C10 C9 1_555 1_555
H7 C10 1_555 1_555
C11 C10 1_555 1_555
C12 C11 1_555 1_555
H8 C12 1_555 1_555
C13 C8 1_555 1_555
H9 C13 1_555 1_555
C14 N3 1_555 1_555
H10 C14 1_555 1_555
C15 N3 1_555 1_555
C16 C15 1_555 1_555
H11 C16 1_555 1_555
C17 C16 1_555 1_555
H12 C17 1_555 1_555
C18 C17 1_555 1_555
H13 C18 1_555 1_555
C19 C18 1_555 1_555
H14 C19 1_555 1_555
C20 N4 1_555 1_555
C2 C7 1_555 1_555
C6 C7 1_555 1_555
C12 C13 1_555 1_555
C15 C20 1_555 1_555
C19 C20 1_555 1_555

#END
