
#######################################################################
#
#                 Cambridge Crystallographic Data Centre
#                                CCDC 
#
#######################################################################
#
# If this CIF has been generated from an entry in the Cambridge 
# Structural Database, then it will include bibliographic, chemical, 
# crystal, experimental, refinement or atomic coordinate data resulting 
# from the CCDC's data processing and validation procedures.
#
#######################################################################

data_AYUBED
_chemical_formula_moiety         'C27 H36 N4 S3'
_chemical_name_systematic        
tris(2-(2-(methylsulfanyl)phenylamino)ethyl)amine
_symmetry_cell_setting           trigonal
_symmetry_space_group_name_H-M   'P 3 1 c'
_symmetry_Int_Tables_number      159
_space_group_name_Hall           "P 3 -2'c"
loop_
_symmetry_equiv_pos_site_id
_symmetry_equiv_pos_as_xyz
1 x,y,z
2 -y,x-y,z
3 -x+y,-x,z
4 y,x,1/2+z
5 x-y,-y,1/2+z
6 -x,-x+y,1/2+z
_cell_length_a                   12.6005(8)
_cell_length_b                   12.6005(8)
_cell_length_c                   9.6577(6)
_cell_angle_alpha                90
_cell_angle_beta                 90
_cell_angle_gamma                120
_cell_volume                     1327.94
_exptl_crystal_colour            colorless
_exptl_crystal_description       block
_cell_formula_units_Z            2
loop_
_atom_site_label
_atom_site_type_symbol
_atom_site_fract_x
_atom_site_fract_y
_atom_site_fract_z
S1 S 0.43846(6) 0.89236(6) 0.49366(7)
N1 N 0.3333 0.6667 0.9194(4)
N2 N 0.27741(19) 0.81392(19) 0.7308(2)
H1 H 0.325(2) 0.786(2) 0.708(3)
C1 C 0.2957(2) 0.7548(2) 0.9633(2)
H2 H 0.3695 0.8366 0.9749
H3 H 0.2540 0.7293 1.0542
C2 C 0.2101(2) 0.7636(2) 0.8591(3)
H4 H 0.1384 0.6814 0.8421
H5 H 0.1802 0.8174 0.8954
C3 C 0.2251(2) 0.8403(2) 0.6183(3)
C4 C 0.1102(2) 0.8307(2) 0.6252(3)
H6 H 0.0631 0.8016 0.7076
C5 C 0.0638(2) 0.8631(2) 0.5129(3)
H7 H -0.0148 0.8561 0.5191
C6 C 0.1309(2) 0.9056(2) 0.3922(3)
H8 H 0.0991 0.9286 0.3160
C7 C 0.2453(2) 0.9145(2) 0.3828(3)
H9 H 0.2912 0.9430 0.2995
C8 C 0.2929(2) 0.8822(2) 0.4942(2)
C9 C 0.4663(3) 0.8852(3) 0.3124(3)
H10 H 0.5422 0.8827 0.3006
H11 H 0.4741 0.9578 0.2657
H12 H 0.3978 0.8113 0.2721
S1A S 0.10764(6) 0.54610(8) 0.49366(7)
N2A N 0.18608(19) 0.46349(27) 0.7308(2)
H1A H 0.214(2) 0.539(3) 0.708(3)
C1A C 0.2452(2) 0.5409(3) 0.9633(2)
H2A H 0.1634 0.5329 0.9749
H3A H 0.2707 0.5247 1.0542
C2A C 0.2364(2) 0.4465(3) 0.8591(3)
H4A H 0.3186 0.4570 0.8421
H5A H 0.1826 0.3628 0.8954
C3A C 0.1597(2) 0.3848(3) 0.6183(3)
C4A C 0.1693(2) 0.2795(3) 0.6252(3)
H6A H 0.1984 0.2615 0.7076
C5A C 0.1369(2) 0.2007(3) 0.5129(3)
H7A H 0.1439 0.1291 0.5191
C6A C 0.0944(2) 0.2253(3) 0.3922(3)
H8A H 0.0714 0.1705 0.3160
C7A C 0.0855(2) 0.3308(3) 0.3828(3)
H9A H 0.0570 0.3482 0.2995
C8A C 0.1178(2) 0.4107(3) 0.4942(2)
C9A C 0.1148(3) 0.5811(4) 0.3124(3)
H10A H 0.1173 0.6595 0.3006
H11A H 0.0422 0.5163 0.2657
H12A H 0.1887 0.5865 0.2721
S1B S 0.45390(8) 0.56154(6) 0.49366(7)
N2B N 0.53651(27) 0.72259(19) 0.7308(2)
H1B H 0.461(3) 0.675(2) 0.708(3)
C1B C 0.4591(3) 0.7043(2) 0.9633(2)
H2B H 0.4671 0.6305 0.9749
H3B H 0.4753 0.7460 1.0542
C2B C 0.5535(3) 0.7899(2) 0.8591(3)
H4B H 0.5430 0.8616 0.8421
H5B H 0.6372 0.8198 0.8954
C3B C 0.6152(3) 0.7749(2) 0.6183(3)
C4B C 0.7205(3) 0.8898(2) 0.6252(3)
H6B H 0.7385 0.9369 0.7076
C5B C 0.7993(3) 0.9362(2) 0.5129(3)
H7B H 0.8709 1.0148 0.5191
C6B C 0.7747(3) 0.8691(2) 0.3922(3)
H8B H 0.8295 0.9009 0.3160
C7B C 0.6692(3) 0.7547(2) 0.3828(3)
H9B H 0.6518 0.7088 0.2995
C8B C 0.5893(3) 0.7071(2) 0.4942(2)
C9B C 0.4189(4) 0.5337(3) 0.3124(3)
H10B H 0.3405 0.4578 0.3006
H11B H 0.4837 0.5259 0.2657
H12B H 0.4135 0.6022 0.2721
loop_
_geom_bond_atom_site_label_1
_geom_bond_atom_site_label_2
_geom_bond_site_symmetry_1
_geom_bond_site_symmetry_2
S1 C8 1_555 1_555
N1 C1 1_555 1_555
N2 H1 1_555 1_555
C1 H2 1_555 1_555
H3 C1 1_555 1_555
C2 N2 1_555 1_555
H4 C2 1_555 1_555
H5 C2 1_555 1_555
C3 N2 1_555 1_555
C4 C3 1_555 1_555
H6 C4 1_555 1_555
C5 C4 1_555 1_555
H7 C5 1_555 1_555
C6 C5 1_555 1_555
H8 C6 1_555 1_555
C7 C6 1_555 1_555
H9 C7 1_555 1_555
C8 C3 1_555 1_555
C9 S1 1_555 1_555
H10 C9 1_555 1_555
H11 C9 1_555 1_555
H12 C9 1_555 1_555
S1A C8A 1_555 1_555
N2A H1A 1_555 1_555
C1A N1 1_555 1_555
H2A C1A 1_555 1_555
H3A C1A 1_555 1_555
C2A N2A 1_555 1_555
H4A C2A 1_555 1_555
H5A C2A 1_555 1_555
C3A N2A 1_555 1_555
C4A C3A 1_555 1_555
H6A C4A 1_555 1_555
C5A C4A 1_555 1_555
H7A C5A 1_555 1_555
C6A C5A 1_555 1_555
H8A C6A 1_555 1_555
C7A C6A 1_555 1_555
H9A C7A 1_555 1_555
C8A C3A 1_555 1_555
C9A S1A 1_555 1_555
H10A C9A 1_555 1_555
H11A C9A 1_555 1_555
H12A C9A 1_555 1_555
S1B C8B 1_555 1_555
N2B H1B 1_555 1_555
C1B N1 1_555 1_555
H2B C1B 1_555 1_555
H3B C1B 1_555 1_555
C2B N2B 1_555 1_555
H4B C2B 1_555 1_555
H5B C2B 1_555 1_555
C3B N2B 1_555 1_555
C4B C3B 1_555 1_555
H6B C4B 1_555 1_555
C5B C4B 1_555 1_555
H7B C5B 1_555 1_555
C6B C5B 1_555 1_555
H8B C6B 1_555 1_555
C7B C6B 1_555 1_555
H9B C7B 1_555 1_555
C8B C3B 1_555 1_555
C9B S1B 1_555 1_555
H10B C9B 1_555 1_555
H11B C9B 1_555 1_555
H12B C9B 1_555 1_555
C1 C2 1_555 1_555
C7 C8 1_555 1_555
C1A C2A 1_555 1_555
C7A C8A 1_555 1_555
C1B C2B 1_555 1_555
C7B C8B 1_555 1_555

#END
