
#######################################################################
#
#                 Cambridge Crystallographic Data Centre
#                                CCDC 
#
#######################################################################
#
# If this CIF has been generated from an entry in the Cambridge 
# Structural Database, then it will include bibliographic, chemical, 
# crystal, experimental, refinement or atomic coordinate data resulting 
# from the CCDC's data processing and validation procedures.
#
#######################################################################

data_AYUJOU
_chemical_name_common            
3-(4-Bromophenyl)-4-(4-hydroxyanilino)furan-2(5H)-one
_chemical_formula_moiety         'C16 H12 Br1 N1 O3'
_chemical_name_systematic        
3-(4-Bromophenyl)-4-((4-hydroxyphenyl)amino)furan-2(5H)-one
_symmetry_cell_setting           monoclinic
_symmetry_space_group_name_H-M   'P 21/c'
_symmetry_Int_Tables_number      14
_space_group_name_Hall           '-P 2ybc'
loop_
_symmetry_equiv_pos_site_id
_symmetry_equiv_pos_as_xyz
1 x,y,z
2 -x,1/2+y,1/2-z
3 -x,-y,-z
4 x,1/2-y,1/2+z
_cell_length_a                   11.2418(10)
_cell_length_b                   8.0545(7)
_cell_length_c                   16.1138(13)
_cell_angle_alpha                90
_cell_angle_beta                 100.244(4)
_cell_angle_gamma                90
_cell_volume                     1435.8
_exptl_crystal_colour            colorless
_exptl_crystal_description       block
_cell_formula_units_Z            4
loop_
_atom_site_label
_atom_site_type_symbol
_atom_site_fract_x
_atom_site_fract_y
_atom_site_fract_z
Br1 Br -0.33348(4) 0.01420(6) -0.05871(2)
C1 C -0.0793(3) 0.0631(4) 0.2028(2)
C2 C -0.1939(3) -0.0066(4) 0.1953(2)
H1 H -0.2201 -0.0450 0.2435
C3 C -0.2695(3) -0.0201(4) 0.1185(2)
H2 H -0.3466 -0.0647 0.1148
C4 C -0.2294(3) 0.0333(4) 0.0473(2)
C5 C -0.1167(3) 0.1009(4) 0.0516(2)
H3 H -0.0908 0.1361 0.0028
C6 C -0.0417(3) 0.1162(4) 0.1293(2)
H4 H 0.0347 0.1625 0.1324
C7 C -0.0029(3) 0.0832(4) 0.28604(19)
C8 C -0.0498(3) 0.1479(4) 0.3561(2)
C9 C 0.1485(3) 0.0909(4) 0.4049(2)
H5 H 0.1731 -0.0102 0.4360
H6 H 0.2132 0.1718 0.4172
C10 C 0.1178(3) 0.0571(4) 0.31223(19)
C11 C 0.3288(3) 0.0027(4) 0.3037(2)
C12 C 0.3717(3) -0.1054(4) 0.3681(2)
H7 H 0.3191 -0.1784 0.3879
C13 C 0.4933(3) -0.1054(5) 0.4032(2)
H8 H 0.5224 -0.1783 0.4469
C14 C 0.5709(3) 0.0011(5) 0.3740(2)
C15 C 0.5287(3) 0.1075(5) 0.3088(2)
H9 H 0.5817 0.1787 0.2881
C16 C 0.4072(3) 0.1084(4) 0.27397(19)
H10 H 0.3784 0.1810 0.2301
N1 N 0.2020(3) 0.0087(4) 0.2687(2)
O1 O -0.1497(2) 0.2035(4) 0.36051(14)
O2 O 0.03891(19) 0.1547(3) 0.42643(13)
O3 O 0.6898(2) -0.0049(4) 0.4118(2)
H11 H 0.7279 0.0661 0.3911
H12 H 0.187(3) -0.027(4) 0.224(2)
loop_
_geom_bond_atom_site_label_1
_geom_bond_atom_site_label_2
_geom_bond_site_symmetry_1
_geom_bond_site_symmetry_2
Br1 C4 1_555 1_555
C1 C2 1_555 1_555
C2 H1 1_555 1_555
C3 C2 1_555 1_555
H2 C3 1_555 1_555
C4 C3 1_555 1_555
C5 C4 1_555 1_555
H3 C5 1_555 1_555
C6 C1 1_555 1_555
H4 C6 1_555 1_555
C7 C1 1_555 1_555
C8 C7 1_555 1_555
C9 H5 1_555 1_555
H6 C9 1_555 1_555
C10 C7 1_555 1_555
C11 C12 1_555 1_555
C12 H7 1_555 1_555
C13 C12 1_555 1_555
H8 C13 1_555 1_555
C14 C13 1_555 1_555
C15 C14 1_555 1_555
H9 C15 1_555 1_555
C16 C11 1_555 1_555
H10 C16 1_555 1_555
N1 C10 1_555 1_555
O1 C8 1_555 1_555
O2 C8 1_555 1_555
O3 C14 1_555 1_555
H11 O3 1_555 1_555
H12 N1 1_555 1_555
C5 C6 1_555 1_555
C9 C10 1_555 1_555
C9 O2 1_555 1_555
C11 N1 1_555 1_555
C15 C16 1_555 1_555

#END
