
#######################################################################
#
#                 Cambridge Crystallographic Data Centre
#                                CCDC 
#
#######################################################################
#
# If this CIF has been generated from an entry in the Cambridge 
# Structural Database, then it will include bibliographic, chemical, 
# crystal, experimental, refinement or atomic coordinate data resulting 
# from the CCDC's data processing and validation procedures.
#
#######################################################################

data_AYUQER
_chemical_name_common            
1-Benzyl-2,5-diphenyl-3-tosylimidazolidin-4-one
_chemical_formula_moiety         'C29 H26 N2 O3 S1'
_chemical_name_systematic        
1-Benzyl-3-((4-methylphenyl)sulfonyl)-2,5-diphenylimidazolidin-4-one
_symmetry_cell_setting           monoclinic
_symmetry_space_group_name_H-M   'P 21/c'
_symmetry_Int_Tables_number      14
_space_group_name_Hall           '-P 2ybc'
loop_
_symmetry_equiv_pos_site_id
_symmetry_equiv_pos_as_xyz
1 x,y,z
2 -x,1/2+y,1/2-z
3 -x,-y,-z
4 x,1/2-y,1/2+z
_cell_length_a                   18.6024(7)
_cell_length_b                   8.0489(3)
_cell_length_c                   17.0860(6)
_cell_angle_alpha                90
_cell_angle_beta                 106.426(2)
_cell_angle_gamma                90
_cell_volume                     2453.85
_exptl_crystal_colour            white
_exptl_crystal_description       block
_cell_formula_units_Z            4
_exptl_crystal_recrystallization_method acetone
loop_
_atom_site_label
_atom_site_type_symbol
_atom_site_fract_x
_atom_site_fract_y
_atom_site_fract_z
C1 C 0.59892(15) 1.1019(4) 0.3124(2)
H1 H 0.6361 1.1075 0.3644
H2 H 0.5989 1.2039 0.2833
H3 H 0.6103 1.0111 0.2814
C2 C 0.52227(12) 1.0751(3) 0.32515(14)
C3 C 0.45945(13) 1.1508(3) 0.27587(14)
H4 H 0.4644 1.2209 0.2344
C4 C 0.38964(11) 1.1257(3) 0.28613(12)
H5 H 0.3478 1.1777 0.2519
C5 C 0.38237(9) 1.0228(2) 0.34764(10)
C6 C 0.44422(10) 0.9453(2) 0.39808(12)
H6 H 0.4393 0.8750 0.4395
C7 C 0.51360(11) 0.9735(3) 0.38628(14)
H7 H 0.5556 0.9223 0.4207
C8 C 0.23093(9) 0.6933(2) 0.36626(10)
H8 H 0.1928 0.7370 0.3904
C9 C 0.29247(9) 0.6072(2) 0.43025(10)
C10 C 0.34796(11) 0.5227(3) 0.40738(12)
H9 H 0.3475 0.5206 0.3528
C11 C 0.40383(12) 0.4417(3) 0.46466(15)
H10 H 0.4412 0.3853 0.4491
C12 C 0.40401(15) 0.4446(3) 0.54519(15)
H11 H 0.4423 0.3919 0.5843
C13 C 0.34830(16) 0.5244(3) 0.56805(14)
H12 H 0.3480 0.5234 0.6224
C14 C 0.29260(12) 0.6062(3) 0.51072(11)
H13 H 0.2549 0.6611 0.5265
C15 C 0.14866(9) 0.4518(2) 0.31824(11)
H14 H 0.1747 0.4021 0.3702
H15 H 0.1417 0.3655 0.2771
C16 C 0.07241(9) 0.50676(19) 0.32246(10)
C17 C 0.05947(11) 0.5553(2) 0.39499(12)
H16 H 0.0989 0.5565 0.4427
C18 C -0.01143(12) 0.6018(3) 0.39741(14)
H17 H -0.0192 0.6350 0.4465
C19 C -0.07037(11) 0.5994(2) 0.32768(14)
H18 H -0.1181 0.6298 0.3295
C20 C -0.05838(10) 0.5521(2) 0.25558(13)
H19 H -0.0981 0.5513 0.2081
C21 C 0.01189(10) 0.5057(2) 0.25284(12)
H20 H 0.0191 0.4730 0.2034
C22 C 0.16901(9) 0.6743(2) 0.22488(10)
H21 H 0.1195 0.7190 0.2229
C23 C 0.22466(9) 0.8161(2) 0.23794(11)
C24 C 0.16290(10) 0.5747(2) 0.14846(10)
C25 C 0.11035(13) 0.6192(3) 0.07717(12)
H22 H 0.0789 0.7093 0.0766
C26 C 0.10414(17) 0.5299(4) 0.00611(14)
H23 H 0.0685 0.5605 -0.0419
C27 C 0.14972(16) 0.3984(3) 0.00633(15)
H24 H 0.1455 0.3393 -0.0415
C28 C 0.20162(15) 0.3530(3) 0.07650(16)
H25 H 0.2328 0.2627 0.0766
C29 C 0.20811(12) 0.4407(3) 0.14747(13)
H26 H 0.2436 0.4086 0.1953
N1 N 0.25830(8) 0.82623(17) 0.32174(8)
N2 N 0.19719(7) 0.58031(16) 0.29956(8)
O1 O 0.24894(7) 1.13491(17) 0.32774(10)
O2 O 0.30718(8) 0.97342(18) 0.45167(8)
O3 O 0.23762(7) 0.90679(16) 0.18789(8)
S1 S 0.29541(2) 1.00278(5) 0.36717(3)
loop_
_geom_bond_atom_site_label_1
_geom_bond_atom_site_label_2
_geom_bond_site_symmetry_1
_geom_bond_site_symmetry_2
C1 H1 1_555 1_555
H2 C1 1_555 1_555
H3 C1 1_555 1_555
C2 C1 1_555 1_555
C3 C2 1_555 1_555
H4 C3 1_555 1_555
C4 C3 1_555 1_555
H5 C4 1_555 1_555
C5 C4 1_555 1_555
C6 C5 1_555 1_555
H6 C6 1_555 1_555
C7 C2 1_555 1_555
H7 C7 1_555 1_555
C8 H8 1_555 1_555
C9 C8 1_555 1_555
C10 C9 1_555 1_555
H9 C10 1_555 1_555
C11 C10 1_555 1_555
H10 C11 1_555 1_555
C12 C11 1_555 1_555
H11 C12 1_555 1_555
C13 C12 1_555 1_555
H12 C13 1_555 1_555
C14 C9 1_555 1_555
H13 C14 1_555 1_555
C15 H14 1_555 1_555
H15 C15 1_555 1_555
C16 C15 1_555 1_555
C17 C16 1_555 1_555
H16 C17 1_555 1_555
C18 C17 1_555 1_555
H17 C18 1_555 1_555
C19 C18 1_555 1_555
H18 C19 1_555 1_555
C20 C19 1_555 1_555
H19 C20 1_555 1_555
C21 C16 1_555 1_555
H20 C21 1_555 1_555
C22 H21 1_555 1_555
C23 C22 1_555 1_555
C24 C22 1_555 1_555
C25 C24 1_555 1_555
H22 C25 1_555 1_555
C26 C25 1_555 1_555
H23 C26 1_555 1_555
C27 C26 1_555 1_555
H24 C27 1_555 1_555
C28 C27 1_555 1_555
H25 C28 1_555 1_555
C29 C24 1_555 1_555
H26 C29 1_555 1_555
N1 C8 1_555 1_555
N2 C8 1_555 1_555
O1 S1 1_555 1_555
O2 S1 1_555 1_555
O3 C23 1_555 1_555
S1 C5 1_555 1_555
C6 C7 1_555 1_555
C13 C14 1_555 1_555
C15 N2 1_555 1_555
C20 C21 1_555 1_555
C22 N2 1_555 1_555
C23 N1 1_555 1_555
C28 C29 1_555 1_555
N1 S1 1_555 1_555

#END
