
#######################################################################
#
#                 Cambridge Crystallographic Data Centre
#                                CCDC 
#
#######################################################################
#
# If this CIF has been generated from an entry in the Cambridge 
# Structural Database, then it will include bibliographic, chemical, 
# crystal, experimental, refinement or atomic coordinate data resulting 
# from the CCDC's data processing and validation procedures.
#
#######################################################################

data_AZALUJ
_chemical_formula_moiety         'C21 H22 F2 N6 O4,0.62(C1 H2 Cl2)'
_chemical_name_systematic        
'N-Cyclopropyl-N-[2-(2,4-difluorophenyl)-2-hydroxy-3-(1H-1,2,4-triazol-1-yl)propyl]-2-(5-methyl-2,4-dioxo-1,2,3,4-tetrahydropyrimidin-1-yl)acetamide dichloromethane solvate'
_symmetry_cell_setting           triclinic
_symmetry_space_group_name_H-M   'P -1'
_symmetry_Int_Tables_number      2
_space_group_name_Hall           '-P 1'
loop_
_symmetry_equiv_pos_site_id
_symmetry_equiv_pos_as_xyz
1 x,y,z
2 -x,-y,-z
_cell_length_a                   8.474(2)
_cell_length_b                   12.464(3)
_cell_length_c                   13.410(4)
_cell_angle_alpha                62.942(4)
_cell_angle_beta                 73.187(4)
_cell_angle_gamma                83.746(4)
_cell_volume                     1206.99
_exptl_crystal_colour            colorless
_exptl_crystal_description       block
_cell_formula_units_Z            2
loop_
_atom_site_label
_atom_site_type_symbol
_atom_site_fract_x
_atom_site_fract_y
_atom_site_fract_z
C1 C 0.4568(7) 0.7140(5) 1.3061(5)
H1 H 0.3778 0.7522 1.3425
C2 C 0.5856(6) 0.5787(4) 1.2724(4)
H2 H 0.6213 0.5044 1.2752
C3 C 0.7947(5) 0.7116(4) 1.0885(3)
H3 H 0.8887 0.6649 1.1106
H4 H 0.8256 0.7963 1.0532
C4 C 0.7508(5) 0.6834(4) 0.9990(4)
C5 C 0.5887(5) 0.7388(4) 0.9760(3)
C6 C 0.5620(5) 0.8613(4) 0.9364(4)
C7 C 0.4170(6) 0.9142(4) 0.9172(4)
H5 H 0.4040 0.9968 0.8914
C8 C 0.2910(6) 0.8396(5) 0.9378(5)
C9 C 0.3077(6) 0.7182(4) 0.9764(4)
H6 H 0.2210 0.6695 0.9894
C10 C 0.4563(5) 0.6694(4) 0.9955(4)
H7 H 0.4680 0.5866 1.0227
C11 C 0.8951(5) 0.7280(4) 0.8885(4)
H8 H 0.9135 0.8136 0.8603
H9 H 0.9940 0.6873 0.9079
C12 C 0.7806(6) 0.7963(4) 0.7168(4)
H10 H 0.6619 0.7806 0.7371
C13 C 0.8329(10) 0.9254(5) 0.6618(5)
H11 H 0.7476 0.9850 0.6514
H12 H 0.9264 0.9450 0.6791
C14 C 0.8650(8) 0.8592(5) 0.5897(4)
H13 H 0.9779 0.8385 0.5633
H14 H 0.7991 0.8785 0.5357
C15 C 0.9161(5) 0.6029(4) 0.7912(4)
C16 C 0.8534(5) 0.5732(4) 0.7112(4)
H15 H 0.7435 0.5370 0.7513
H16 H 0.8459 0.6471 0.6432
C17 C 0.9241(6) 0.3704(4) 0.7248(4)
H17 H 0.8292 0.3407 0.7861
C18 C 1.0177(6) 0.2925(4) 0.6907(4)
C19 C 0.9756(9) 0.1617(5) 0.7452(6)
H18 H 0.8814 0.1425 0.8114
H19 H 1.0675 0.1158 0.7697
H20 H 0.9508 0.1422 0.6898
C20 C 1.1630(6) 0.3403(4) 0.5940(4)
C21 C 1.1004(5) 0.5404(4) 0.5851(4)
F1 F 0.6869(3) 0.9347(2) 0.9153(3)
F2 F 0.1460(4) 0.8888(3) 0.9206(4)
N1 N 0.5731(5) 0.7741(4) 1.2121(4)
N2 N 0.4584(5) 0.5937(4) 1.3470(3)
N3 N 0.6572(4) 0.6839(3) 1.1920(3)
N4 N 0.8680(4) 0.7077(3) 0.7957(3)
N5 N 0.9609(4) 0.4908(3) 0.6742(3)
N6 N 1.1926(4) 0.4609(3) 0.5494(3)
H21 H 1.2754 0.4935 0.5005
O1 O 0.7269(3) 0.5572(2) 1.0449(3)
H22 H 0.8101 0.5229 1.0622
O2 O 0.9993(4) 0.5299(3) 0.8517(3)
O3 O 1.1376(4) 0.6464(3) 0.5414(3)
O4 O 1.2549(5) 0.2801(3) 0.5518(3)
C22 C 0.332(3) 0.799(2) 0.626(4)
H23 H 0.2307 0.7586 0.6801
H24 H 0.3205 0.8252 0.5492
Cl1 Cl 0.4739(16) 0.7045(11) 0.6375(13)
Cl2 Cl 0.350(3) 0.920(2) 0.633(2)
C23? C 0.401(4) 0.803(2) 0.5671(15)
H25? H 0.3007 0.7941 0.5521
H26? H 0.4728 0.7448 0.5497
Cl3? Cl 0.3513(16) 0.7336(13) 0.7053(12)
Cl4? Cl 0.477(3) 0.9237(19) 0.453(2)
loop_
_geom_bond_atom_site_label_1
_geom_bond_atom_site_label_2
_geom_bond_site_symmetry_1
_geom_bond_site_symmetry_2
C1 H1 1_555 1_555
C2 H2 1_555 1_555
C3 H3 1_555 1_555
H4 C3 1_555 1_555
C4 C3 1_555 1_555
C5 C4 1_555 1_555
C6 C5 1_555 1_555
C7 C6 1_555 1_555
H5 C7 1_555 1_555
C8 C7 1_555 1_555
C9 C8 1_555 1_555
H6 C9 1_555 1_555
C10 C5 1_555 1_555
H7 C10 1_555 1_555
C11 C4 1_555 1_555
H8 C11 1_555 1_555
H9 C11 1_555 1_555
C12 H10 1_555 1_555
C13 C12 1_555 1_555
H11 C13 1_555 1_555
H12 C13 1_555 1_555
C14 C12 1_555 1_555
H13 C14 1_555 1_555
H14 C14 1_555 1_555
C15 C16 1_555 1_555
C16 H15 1_555 1_555
H16 C16 1_555 1_555
C17 H17 1_555 1_555
C18 C17 1_555 1_555
C19 C18 1_555 1_555
H18 C19 1_555 1_555
H19 C19 1_555 1_555
H20 C19 1_555 1_555
C20 C18 1_555 1_555
C21 N5 1_555 1_555
F1 C6 1_555 1_555
F2 C8 1_555 1_555
N1 C1 1_555 1_555
N2 C1 1_555 1_555
N3 C2 1_555 1_555
N4 C11 1_555 1_555
N5 C16 1_555 1_555
N6 C20 1_555 1_555
H21 N6 1_555 1_555
O1 C4 1_555 1_555
H22 O1 1_555 1_555
O2 C15 1_555 1_555
O3 C21 1_555 1_555
O4 C20 1_555 1_555
C22 H23 1_555 1_555
H24 C22 1_555 1_555
Cl1 C22 1_555 1_555
Cl2 C22 1_555 1_555
C2 N2 1_555 1_555
C3 N3 1_555 1_555
C9 C10 1_555 1_555
C12 N4 1_555 1_555
C13 C14 1_555 1_555
C15 N4 1_555 1_555
C17 N5 1_555 1_555
C21 N6 1_555 1_555
N1 N3 1_555 1_555

#END
