
#######################################################################
#
#                 Cambridge Crystallographic Data Centre
#                                CCDC 
#
#######################################################################
#
# If this CIF has been generated from an entry in the Cambridge 
# Structural Database, then it will include bibliographic, chemical, 
# crystal, experimental, refinement or atomic coordinate data resulting 
# from the CCDC's data processing and validation procedures.
#
#######################################################################

data_AZIVOW
_chemical_formula_moiety         'C108 H98,5(C1 H1 Cl3)'
_chemical_name_systematic        
'4,11,15,22-tetrakis(4-t-butylphenyl)-2,13-di-t-butyl-7,8:18,19:23,24:25,26-tetrabenzo-6,9,17,20-tetrahydro-6,9:17,20-diethenodibenzo[jk,a^1^b^1^]octacene chloroform solvate'
_symmetry_cell_setting           monoclinic
_symmetry_space_group_name_H-M   'P 21/n'
_symmetry_Int_Tables_number      14
_space_group_name_Hall           '-P 2yn'
loop_
_symmetry_equiv_pos_site_id
_symmetry_equiv_pos_as_xyz
1 x,y,z
2 1/2-x,1/2+y,1/2-z
3 -x,-y,-z
4 1/2+x,1/2-y,1/2+z
_cell_length_a                   7.9862(5)
_cell_length_b                   32.269(2)
_cell_length_c                   38.167(2)
_cell_angle_alpha                90
_cell_angle_beta                 92.217(5)
_cell_angle_gamma                90
_cell_volume                     9828.53
_exptl_crystal_colour            colorless
_exptl_crystal_description       needle
_cell_formula_units_Z            4
loop_
_atom_site_label
_atom_site_type_symbol
_atom_site_fract_x
_atom_site_fract_y
_atom_site_fract_z
C1 C 0.6813(12) 0.4352(3) 0.73065(18)
C2 C 0.8029(11) 0.4016(3) 0.73288(18)
C3 C 0.7959(10) 0.3667(3) 0.6387(2)
C4 C 0.6832(11) 0.3695(3) 0.6087(2)
C5 C 0.6924(11) 0.3417(3) 0.5797(2)
H1 H 0.7790 0.3215 0.5796
C6 C 0.5793(11) 0.3436(3) 0.5521(2)
C7 C 0.5652(11) 0.3152(3) 0.5199(2)
H2 H 0.6551 0.2936 0.5200
C8 C 0.5685(11) 0.3431(3) 0.4882(2)
C9 C 0.6782(12) 0.3412(3) 0.4606(2)
H3 H 0.7652 0.3211 0.4608
C10 C 0.6588(13) 0.3691(3) 0.4329(2)
H4 H 0.7319 0.3675 0.4138
C11 C 0.5342(13) 0.3990(3) 0.4327(2)
H5 H 0.5230 0.4180 0.4137
C12 C 0.4252(13) 0.4013(3) 0.4603(2)
H6 H 0.3401 0.4219 0.4603
C13 C 0.4414(11) 0.3734(3) 0.4879(2)
C14 C 0.3904(10) 0.2965(3) 0.5195(2)
C15 C 0.3481(11) 0.2549(3) 0.5188(2)
H7 H 0.4332 0.2343 0.5180
C16 C 0.1807(11) 0.2433(3) 0.5193(2)
H8 H 0.1516 0.2148 0.5188
C17 C 0.0560(12) 0.2729(3) 0.5205(3)
H9 H -0.0579 0.2645 0.5208
C18 C 0.0949(11) 0.3152(3) 0.5212(2)
H10 H 0.0092 0.3355 0.5227
C19 C 0.2619(10) 0.3268(3) 0.5198(2)
C20 C 0.3306(11) 0.3705(3) 0.5194(2)
H11 H 0.2403 0.3920 0.5190
C21 C 0.4489(11) 0.3738(3) 0.5518(2)
C22 C 0.4340(12) 0.4005(3) 0.5790(2)
H12 H 0.3452 0.4201 0.5785
C23 C 0.5495(11) 0.3994(3) 0.6082(2)
C24 C 0.5328(11) 0.4262(3) 0.6371(2)
C25 C 0.6458(11) 0.4234(3) 0.6667(2)
C26 C 0.6275(11) 0.4504(3) 0.6972(2)
C27 C 0.5655(13) 0.4905(3) 0.6951(2)
H13 H 0.5367 0.5017 0.6727
C28 C 0.5435(15) 0.5153(3) 0.7247(2)
C29 C 0.5778(13) 0.4970(3) 0.7577(2)
H14 H 0.5575 0.5126 0.7782
C30 C 0.6401(12) 0.4571(3) 0.7614(2)
C31 C 0.6666(11) 0.4356(3) 0.7955(2)
C32 C 0.5663(11) 0.4445(3) 0.8240(2)
C33 C 0.5810(11) 0.4201(3) 0.8552(2)
C34 C 0.4714(12) 0.4265(3) 0.8833(2)
H15 H 0.3899 0.4480 0.8817
C35 C 0.4829(11) 0.4021(3) 0.9124(2)
C36 C 0.3758(11) 0.4056(3) 0.9448(2)
H16 H 0.2920 0.4286 0.9430
C37 C 0.4984(11) 0.4100(3) 0.9762(2)
C38 C 0.5002(12) 0.4417(3) 1.0006(2)
H17 H 0.4228 0.4640 0.9983
C39 C 0.6174(13) 0.4406(3) 1.0288(3)
H18 H 0.6175 0.4617 1.0461
C40 C 0.7327(13) 0.4089(3) 1.0313(3)
H19 H 0.8131 0.4087 1.0503
C41 C 0.7338(12) 0.3771(3) 1.0066(2)
H20 H 0.8139 0.3554 1.0087
C42 C 0.6161(11) 0.3776(3) 0.9789(2)
C43 C 0.2952(10) 0.3629(3) 0.9486(2)
C44 C 0.1252(11) 0.3543(3) 0.9496(2)
H21 H 0.0449 0.3759 0.9475
C45 C 0.0742(12) 0.3133(3) 0.9538(3)
H22 H -0.0417 0.3071 0.9551
C46 C 0.1907(11) 0.2816(3) 0.9560(2)
H23 H 0.1537 0.2538 0.9585
C47 C 0.3618(11) 0.2898(3) 0.9547(2)
H24 H 0.4411 0.2679 0.9561
C48 C 0.4144(10) 0.3305(3) 0.9513(2)
C49 C 0.5939(11) 0.3456(3) 0.9499(2)
H25 H 0.6774 0.3226 0.9521
C50 C 0.6045(11) 0.3694(3) 0.9152(2)
C51 C 0.7095(11) 0.3622(3) 0.8886(2)
H26 H 0.7887 0.3403 0.8905
C52 C 0.7010(12) 0.3875(3) 0.8577(2)
C53 C 0.8039(11) 0.3790(3) 0.8290(2)
C54 C 0.7848(11) 0.4022(3) 0.79783(19)
C55 C 0.8782(11) 0.3917(3) 0.7662(2)
C56 C 1.0349(11) 0.3730(3) 0.7670(2)
H27 H 1.0898 0.3679 0.7891
C57 C 1.1154(11) 0.3615(3) 0.73653(19)
C58 C 1.0287(10) 0.3676(3) 0.7043(2)
H28 H 1.0787 0.3584 0.6835
C59 C 0.8711(10) 0.3867(3) 0.70156(19)
C60 C 0.7747(11) 0.3923(3) 0.6680(2)
C61 C 0.468(2) 0.5582(4) 0.7215(3)
C62 C 0.557(3) 0.5878(5) 0.7459(5)
H29 H 0.5649 0.5759 0.7696
H30 H 0.6704 0.5930 0.7378
H31 H 0.4952 0.6140 0.7464
C63 C 0.4552(17) 0.5759(4) 0.6850(2)
H32 H 0.3967 0.5561 0.6694
H33 H 0.3927 0.6020 0.6853
H34 H 0.5679 0.5810 0.6767
C64 C 0.287(2) 0.5559(7) 0.7344(5)
H35 H 0.2208 0.5368 0.7195
H36 H 0.2891 0.5458 0.7587
H37 H 0.2360 0.5835 0.7333
C65 C 1.2839(11) 0.3387(3) 0.7388(2)
C66 C 1.3923(12) 0.3520(3) 0.7709(2)
H38 H 1.3303 0.3475 0.7922
H39 H 1.4957 0.3356 0.7721
H40 H 1.4202 0.3815 0.7689
C67 C 1.2450(13) 0.2923(3) 0.7415(3)
H41 H 1.1790 0.2872 0.7622
H42 H 1.1811 0.2833 0.7205
H43 H 1.3501 0.2766 0.7437
C68 C 1.3869(12) 0.3465(3) 0.7065(2)
H44 H 1.4933 0.3314 0.7090
H45 H 1.3242 0.3368 0.6855
H46 H 1.4092 0.3762 0.7044
C69 C 0.9267(10) 0.3336(3) 0.6361(2)
C70 C 1.0732(10) 0.3408(3) 0.6186(2)
H47 H 1.0900 0.3669 0.6078
C71 C 1.1950(12) 0.3104(3) 0.6167(2)
H48 H 1.2937 0.3163 0.6045
C72 C 1.1778(10) 0.2716(3) 0.6320(2)
C73 C 1.0275(11) 0.2638(3) 0.6484(3)
H49 H 1.0090 0.2373 0.6584
C74 C 0.9045(11) 0.2942(3) 0.6503(3)
H50 H 0.8032 0.2880 0.6614
C75 C 1.3152(11) 0.2379(3) 0.6314(2)
C76 C 1.3620(15) 0.2244(4) 0.6689(2)
H51 H 1.2618 0.2141 0.6802
H52 H 1.4460 0.2023 0.6685
H53 H 1.4081 0.2480 0.6822
C77 C 1.2496(15) 0.2002(3) 0.6108(3)
H54 H 1.1483 0.1897 0.6215
H55 H 1.2230 0.2082 0.5864
H56 H 1.3355 0.1785 0.6113
C78 C 1.4730(13) 0.2538(4) 0.6143(3)
H57 H 1.4448 0.2626 0.5902
H58 H 1.5187 0.2774 0.6278
H59 H 1.5566 0.2316 0.6140
C79 C 0.3863(10) 0.4551(3) 0.6358(2)
C80 C 0.2537(12) 0.4501(3) 0.6580(3)
H60 H 0.2564 0.4284 0.6748
C81 C 0.1168(15) 0.4769(4) 0.6556(4)
H61 H 0.0255 0.4723 0.6704
C82 C 0.1091(15) 0.5101(4) 0.6326(4)
C83 C 0.2400(12) 0.5140(3) 0.6101(4)
H62 H 0.2366 0.5356 0.5931
C84 C 0.3756(12) 0.4873(3) 0.6116(3)
H63 H 0.4632 0.4910 0.5958
C85 C -0.0348(16) 0.5420(4) 0.6341(5)
C86 C -0.061(2) 0.5551(7) 0.6719(5)
H64 H -0.0861 0.5306 0.6860
H65 H 0.0408 0.5685 0.6815
H66 H -0.1550 0.5746 0.6725
C87 C -0.1960(15) 0.5208(5) 0.6206(5)
H67 H -0.2171 0.4963 0.6349
H68 H -0.2901 0.5401 0.6220
H69 H -0.1839 0.5124 0.5961
C88 C 0.003(3) 0.5800(6) 0.6129(8)
H70 H 0.0206 0.5719 0.5885
H71 H -0.0906 0.5994 0.6136
H72 H 0.1052 0.5933 0.6227
C89 C 0.4305(10) 0.4766(3) 0.8238(2)
C90 C 0.4548(11) 0.5135(3) 0.8419(2)
H73 H 0.5605 0.5189 0.8533
C91 C 0.3282(11) 0.5425(3) 0.8438(3)
H74 H 0.3496 0.5676 0.8562
C92 C 0.1697(11) 0.5360(3) 0.8280(3)
C93 C 0.1458(13) 0.4988(3) 0.8102(3)
H75 H 0.0395 0.4931 0.7993
C94 C 0.2732(11) 0.4696(3) 0.8080(3)
H76 H 0.2524 0.4445 0.7956
C95 C 0.0360(12) 0.5698(3) 0.8313(3)
C96 C 0.0334(17) 0.5859(4) 0.8691(3)
H77 H 0.0062 0.5631 0.8848
H78 H 0.1438 0.5972 0.8760
H79 H -0.0513 0.6077 0.8706
C97 C -0.1370(14) 0.5520(4) 0.8223(5)
H80 H -0.1600 0.5291 0.8382
H81 H -0.2217 0.5737 0.8248
H82 H -0.1408 0.5419 0.7980
C98 C 0.0786(18) 0.6056(4) 0.8074(4)
H83 H 0.1905 0.6162 0.8139
H84 H 0.0767 0.5960 0.7830
H85 H -0.0041 0.6278 0.8097
C99 C 0.9176(10) 0.3424(3) 0.8327(2)
C100 C 0.8767(12) 0.3045(3) 0.8173(2)
H86 H 0.7719 0.3015 0.8049
C101 C 0.9863(11) 0.2710(3) 0.8196(2)
H87 H 0.9561 0.2458 0.8080
C102 C 1.1393(11) 0.2735(3) 0.8383(2)
C103 C 1.1761(12) 0.3107(3) 0.8556(2)
H88 H 1.2771 0.3131 0.8694
C104 C 1.0676(11) 0.3442(3) 0.8529(2)
H89 H 1.0958 0.3691 0.8650
C105 C 1.2653(11) 0.2372(3) 0.8397(2)
C106 C 1.2651(16) 0.2181(4) 0.8763(3)
H90 H 1.1522 0.2082 0.8810
H91 H 1.3439 0.1948 0.8776
H92 H 1.2992 0.2390 0.8938
C107 C 1.2175(15) 0.2033(3) 0.8132(3)
H93 H 1.1056 0.1928 0.8180
H94 H 1.2174 0.2148 0.7894
H95 H 1.2990 0.1807 0.8153
C108 C 1.4399(12) 0.2530(4) 0.8316(3)
H96 H 1.4730 0.2748 0.8483
H97 H 1.5202 0.2301 0.8336
H98 H 1.4386 0.2642 0.8077
C109 C 1.3369(12) 0.3611(3) 1.0580(2)
H99 H 1.4268 0.3656 1.0409
Cl1 Cl 1.3092(5) 0.30764(12) 1.06244(11)
Cl2 Cl 1.4042(4) 0.38368(11) 1.09797(8)
Cl3 Cl 1.1547(4) 0.38495(12) 1.04111(8)
C110 C -0.1390(12) 0.4661(3) 0.9267(2)
H100 H -0.2111 0.4407 0.9250
Cl4 Cl -0.0279(4) 0.46473(11) 0.96690(7)
Cl5 Cl -0.2711(4) 0.50945(10) 0.92444(8)
Cl6 Cl -0.0035(4) 0.46489(10) 0.89175(7)
C111 C 0.781(4) 0.7081(4) 0.7702(5)
H101 H 0.8916 0.7092 0.7834
Cl7 Cl 0.6714(7) 0.67787(16) 0.79728(14)
Cl8 Cl 0.8370(14) 0.6837(2) 0.7334(2)
Cl9 Cl 0.7391(5) 0.75969(15) 0.76560(10)
C112 C -0.189(2) 0.4399(6) 0.5258(4)
H102 H -0.2616 0.4152 0.5295
Cl10 Cl -0.3183(6) 0.48272(14) 0.5215(2)
Cl11 Cl -0.0481(7) 0.4432(2) 0.5607(2)
Cl12 Cl -0.0784(10) 0.4315(2) 0.4881(2)
C113 C 0.2861(13) 0.3086(3) 0.4094(2)
H103 H 0.3882 0.3174 0.4235
Cl13 Cl 0.1111(4) 0.32610(11) 0.43101(8)
Cl14 Cl 0.2894(4) 0.25471(10) 0.40635(9)
Cl15 Cl 0.2963(4) 0.33093(10) 0.36761(7)
loop_
_geom_bond_atom_site_label_1
_geom_bond_atom_site_label_2
_geom_bond_site_symmetry_1
_geom_bond_site_symmetry_2
C1 C2 1_555 1_555
C2 C55 1_555 1_555
C3 C4 1_555 1_555
C4 C5 1_555 1_555
C5 H1 1_555 1_555
C6 C5 1_555 1_555
C7 C6 1_555 1_555
H2 C7 1_555 1_555
C8 C7 1_555 1_555
C9 C8 1_555 1_555
H3 C9 1_555 1_555
C10 C9 1_555 1_555
H4 C10 1_555 1_555
C11 C10 1_555 1_555
H5 C11 1_555 1_555
C12 C11 1_555 1_555
H6 C12 1_555 1_555
C13 C8 1_555 1_555
C14 C7 1_555 1_555
C15 C14 1_555 1_555
H7 C15 1_555 1_555
C16 C15 1_555 1_555
H8 C16 1_555 1_555
C17 C16 1_555 1_555
H9 C17 1_555 1_555
C18 C17 1_555 1_555
H10 C18 1_555 1_555
C19 C14 1_555 1_555
C20 C13 1_555 1_555
H11 C20 1_555 1_555
C21 C6 1_555 1_555
C22 C21 1_555 1_555
H12 C22 1_555 1_555
C23 C4 1_555 1_555
C24 C23 1_555 1_555
C25 C24 1_555 1_555
C26 C1 1_555 1_555
C27 C26 1_555 1_555
H13 C27 1_555 1_555
C28 C27 1_555 1_555
C29 C28 1_555 1_555
H14 C29 1_555 1_555
C30 C1 1_555 1_555
C31 C30 1_555 1_555
C32 C31 1_555 1_555
C33 C32 1_555 1_555
C34 C33 1_555 1_555
H15 C34 1_555 1_555
C35 C34 1_555 1_555
C36 C35 1_555 1_555
H16 C36 1_555 1_555
C37 C36 1_555 1_555
C38 C37 1_555 1_555
H17 C38 1_555 1_555
C39 C38 1_555 1_555
H18 C39 1_555 1_555
C40 C39 1_555 1_555
H19 C40 1_555 1_555
C41 C40 1_555 1_555
H20 C41 1_555 1_555
C42 C37 1_555 1_555
C43 C36 1_555 1_555
C44 C43 1_555 1_555
H21 C44 1_555 1_555
C45 C44 1_555 1_555
H22 C45 1_555 1_555
C46 C45 1_555 1_555
H23 C46 1_555 1_555
C47 C46 1_555 1_555
H24 C47 1_555 1_555
C48 C43 1_555 1_555
C49 C42 1_555 1_555
H25 C49 1_555 1_555
C50 C35 1_555 1_555
C51 C50 1_555 1_555
H26 C51 1_555 1_555
C52 C33 1_555 1_555
C53 C52 1_555 1_555
C54 C31 1_555 1_555
C55 C54 1_555 1_555
C56 C55 1_555 1_555
H27 C56 1_555 1_555
C57 C56 1_555 1_555
C58 C57 1_555 1_555
H28 C58 1_555 1_555
C59 C2 1_555 1_555
C60 C3 1_555 1_555
C61 C28 1_555 1_555
C62 C61 1_555 1_555
H29 C62 1_555 1_555
H30 C62 1_555 1_555
H31 C62 1_555 1_555
C63 C61 1_555 1_555
H32 C63 1_555 1_555
H33 C63 1_555 1_555
H34 C63 1_555 1_555
C64 C61 1_555 1_555
H35 C64 1_555 1_555
H36 C64 1_555 1_555
H37 C64 1_555 1_555
C65 C57 1_555 1_555
C66 C65 1_555 1_555
H38 C66 1_555 1_555
H39 C66 1_555 1_555
H40 C66 1_555 1_555
C67 C65 1_555 1_555
H41 C67 1_555 1_555
H42 C67 1_555 1_555
H43 C67 1_555 1_555
C68 C65 1_555 1_555
H44 C68 1_555 1_555
H45 C68 1_555 1_555
H46 C68 1_555 1_555
C69 C3 1_555 1_555
C70 C69 1_555 1_555
H47 C70 1_555 1_555
C71 C70 1_555 1_555
H48 C71 1_555 1_555
C72 C71 1_555 1_555
C73 C72 1_555 1_555
H49 C73 1_555 1_555
C74 C69 1_555 1_555
H50 C74 1_555 1_555
C75 C72 1_555 1_555
C76 C75 1_555 1_555
H51 C76 1_555 1_555
H52 C76 1_555 1_555
H53 C76 1_555 1_555
C77 C75 1_555 1_555
H54 C77 1_555 1_555
H55 C77 1_555 1_555
H56 C77 1_555 1_555
C78 C75 1_555 1_555
H57 C78 1_555 1_555
H58 C78 1_555 1_555
H59 C78 1_555 1_555
C79 C24 1_555 1_555
C80 C79 1_555 1_555
H60 C80 1_555 1_555
C81 C80 1_555 1_555
H61 C81 1_555 1_555
C82 C81 1_555 1_555
C83 C82 1_555 1_555
H62 C83 1_555 1_555
C84 C79 1_555 1_555
H63 C84 1_555 1_555
C85 C82 1_555 1_555
C86 C85 1_555 1_555
H64 C86 1_555 1_555
H65 C86 1_555 1_555
H66 C86 1_555 1_555
C87 C85 1_555 1_555
H67 C87 1_555 1_555
H68 C87 1_555 1_555
H69 C87 1_555 1_555
C88 C85 1_555 1_555
H70 C88 1_555 1_555
H71 C88 1_555 1_555
H72 C88 1_555 1_555
C89 C32 1_555 1_555
C90 C89 1_555 1_555
H73 C90 1_555 1_555
C91 C90 1_555 1_555
H74 C91 1_555 1_555
C92 C91 1_555 1_555
C93 C92 1_555 1_555
H75 C93 1_555 1_555
C94 C89 1_555 1_555
H76 C94 1_555 1_555
C95 C92 1_555 1_555
C96 C95 1_555 1_555
H77 C96 1_555 1_555
H78 C96 1_555 1_555
H79 C96 1_555 1_555
C97 C95 1_555 1_555
H80 C97 1_555 1_555
H81 C97 1_555 1_555
H82 C97 1_555 1_555
C98 C95 1_555 1_555
H83 C98 1_555 1_555
H84 C98 1_555 1_555
H85 C98 1_555 1_555
C99 C53 1_555 1_555
C100 C99 1_555 1_555
H86 C100 1_555 1_555
C101 C100 1_555 1_555
H87 C101 1_555 1_555
C102 C101 1_555 1_555
C103 C102 1_555 1_555
H88 C103 1_555 1_555
C104 C99 1_555 1_555
H89 C104 1_555 1_555
C105 C102 1_555 1_555
C106 C105 1_555 1_555
H90 C106 1_555 1_555
H91 C106 1_555 1_555
H92 C106 1_555 1_555
C107 C105 1_555 1_555
H93 C107 1_555 1_555
H94 C107 1_555 1_555
H95 C107 1_555 1_555
C108 C105 1_555 1_555
H96 C108 1_555 1_555
H97 C108 1_555 1_555
H98 C108 1_555 1_555
C109 H99 1_555 1_555
Cl1 C109 1_555 1_555
Cl2 C109 1_555 1_555
Cl3 C109 1_555 1_555
C110 H100 1_555 1_555
Cl4 C110 1_555 1_555
Cl5 C110 1_555 1_555
Cl6 C110 1_555 1_555
C111 H101 1_555 1_555
Cl7 C111 1_555 1_555
Cl8 C111 1_555 1_555
Cl9 C111 1_555 1_555
C112 H102 1_555 1_555
Cl10 C112 1_555 1_555
Cl11 C112 1_555 1_555
Cl12 C112 1_555 1_555
C113 H103 1_555 1_555
Cl13 C113 1_555 1_555
Cl14 C113 1_555 1_555
Cl15 C113 1_555 1_555
C12 C13 1_555 1_555
C18 C19 1_555 1_555
C19 C20 1_555 1_555
C20 C21 1_555 1_555
C22 C23 1_555 1_555
C25 C26 1_555 1_555
C25 C60 1_555 1_555
C29 C30 1_555 1_555
C41 C42 1_555 1_555
C47 C48 1_555 1_555
C48 C49 1_555 1_555
C49 C50 1_555 1_555
C51 C52 1_555 1_555
C53 C54 1_555 1_555
C58 C59 1_555 1_555
C59 C60 1_555 1_555
C73 C74 1_555 1_555
C83 C84 1_555 1_555
C93 C94 1_555 1_555
C103 C104 1_555 1_555

#END
