
#######################################################################
#
#                 Cambridge Crystallographic Data Centre
#                                CCDC 
#
#######################################################################
#
# If this CIF has been generated from an entry in the Cambridge 
# Structural Database, then it will include bibliographic, chemical, 
# crystal, experimental, refinement or atomic coordinate data resulting 
# from the CCDC's data processing and validation procedures.
#
#######################################################################

data_AZOMOR
_chemical_formula_moiety         'C24 H18 Br2 F4 O6 S2'
_chemical_name_systematic        
trans-Thianthrenium-5,10-bis((bromo-difluoroacetyl)-(ethoxycarbonyl)methylide)
_symmetry_cell_setting           triclinic
_symmetry_space_group_name_H-M   'P -1'
_symmetry_Int_Tables_number      2
_space_group_name_Hall           '-P 1'
loop_
_symmetry_equiv_pos_site_id
_symmetry_equiv_pos_as_xyz
1 x,y,z
2 -x,-y,-z
_cell_length_a                   6.7549(10)
_cell_length_b                   7.8671(11)
_cell_length_c                   12.9371(18)
_cell_angle_alpha                91.464(3)
_cell_angle_beta                 92.651(3)
_cell_angle_gamma                108.662(2)
_cell_volume                     650.061
_exptl_crystal_colour            colorless
_chemical_melting_point          '198-200 deg.C'
_cell_formula_units_Z            1
loop_
_atom_site_label
_atom_site_type_symbol
_atom_site_fract_x
_atom_site_fract_y
_atom_site_fract_z
Br1 Br 0.37411(10) -0.05302(8) 0.17673(5)
S1 S 0.36929(19) 0.53079(16) 0.38586(8)
O1 O 0.5736(6) 0.2592(5) 0.3850(2)
O2 O 0.1684(7) 0.5303(5) 0.1889(3)
O3 O 0.2299(7) 0.2948(7) 0.1168(3)
F1 F 0.6136(5) 0.2741(5) 0.1235(2)
F2 F 0.7528(5) 0.1558(5) 0.2395(3)
C1 C 0.6373(8) 0.6383(6) 0.4240(3)
C2 C 0.7435(10) 0.7559(8) 0.3532(4)
C3 C 0.9575(11) 0.8450(9) 0.3704(5)
C4 C 1.0598(9) 0.8148(8) 0.4584(5)
C5 C 0.9553(8) 0.7012(7) 0.5301(4)
C6 C 0.2576(8) 0.3867(6) 0.4866(3)
C7 C 0.3761(8) 0.3905(6) 0.2803(3)
C8 C 0.5019(8) 0.2794(6) 0.2997(3)
C9 C 0.5713(9) 0.1806(7) 0.2097(4)
C10 C 0.2496(8) 0.4158(7) 0.1923(4)
C11 C 0.1193(14) 0.3131(14) 0.0210(4)
H1 H -0.0254 0.2369 0.0213
H2 H 0.1207 0.4364 0.0165
C12 C 0.2090(13) 0.2666(16) -0.0645(6)
H3 H 0.3565 0.2928 -0.0494
H4 H 0.1870 0.3341 -0.1222
H5 H 0.1459 0.1406 -0.0813
H6 H 0.689(10) 0.760(10) 0.286(3)
H7 H 1.037(8) 0.926(6) 0.326(4)
H8 H 1.192(4) 0.884(6) 0.478(4)
H9 H 1.020(7) 0.680(7) 0.593(2)
C6A C 0.7424(8) 0.6133(6) 0.5134(3)
S1A S 0.63071(19) 0.46921(16) 0.61414(8)
C1A C 0.3627(8) 0.3617(6) 0.5760(3)
C2A C 0.2565(10) 0.2441(8) 0.6468(4)
C3A C 0.0425(11) 0.1550(9) 0.6296(5)
C4A C -0.0598(9) 0.1852(8) 0.5416(5)
C5A C 0.0447(8) 0.2988(7) 0.4699(4)
H9A H -0.020(7) 0.320(7) 0.407(2)
H8A H -0.192(4) 0.116(6) 0.522(4)
H7A H -0.037(8) 0.074(6) 0.674(4)
H6A H 0.311(10) 0.240(10) 0.714(3)
C7A C 0.6239(8) 0.6095(6) 0.7197(3)
C8A C 0.4981(8) 0.7206(6) 0.7003(3)
O1A O 0.4264(6) 0.7408(5) 0.6150(2)
C9A C 0.4287(9) 0.8194(7) 0.7903(4)
Br1A Br 0.62589(10) 1.05302(8) 0.82327(5)
F1A F 0.3864(5) 0.7259(5) 0.8765(2)
F2A F 0.2472(5) 0.8442(5) 0.7605(3)
C10A C 0.7504(8) 0.5842(7) 0.8077(4)
O2A O 0.8316(7) 0.4697(5) 0.8111(3)
O3A O 0.7701(7) 0.7052(7) 0.8832(3)
C11A C 0.8807(14) 0.6869(14) 0.9790(4)
H1A H 1.0254 0.7631 0.9787
H2A H 0.8793 0.5636 0.9835
C12A C 0.7910(13) 0.7334(16) 1.0645(6)
H3A H 0.6435 0.7072 1.0494
H4A H 0.8130 0.6659 1.1222
H5A H 0.8541 0.8594 1.0813
loop_
_geom_bond_atom_site_label_1
_geom_bond_atom_site_label_2
_geom_bond_site_symmetry_1
_geom_bond_site_symmetry_2
Br1 C9 1_555 1_555
S1 C1 1_555 1_555
O1 C8 1_555 1_555
O2 C10 1_555 1_555
O3 C10 1_555 1_555
F1 C9 1_555 1_555
F2 C9 1_555 1_555
C1 C2 1_555 1_555
C2 C3 1_555 1_555
C3 C4 1_555 1_555
C4 C5 1_555 1_555
C5 H9 1_555 1_555
C6 S1 1_555 1_555
C7 S1 1_555 1_555
C8 C7 1_555 1_555
C9 C8 1_555 1_555
C10 C7 1_555 1_555
C11 O3 1_555 1_555
H1 C11 1_555 1_555
H2 C11 1_555 1_555
C12 C11 1_555 1_555
H3 C12 1_555 1_555
H4 C12 1_555 1_555
H5 C12 1_555 1_555
H6 C2 1_555 1_555
H7 C3 1_555 1_555
H8 C4 1_555 1_555
C6A C1 1_555 1_555
S1A C6A 1_555 1_555
C1A C6 1_555 1_555
C2A C1A 1_555 1_555
C3A C2A 1_555 1_555
C4A C3A 1_555 1_555
C5A C6 1_555 1_555
H9A C5A 1_555 1_555
H8A C4A 1_555 1_555
H7A C3A 1_555 1_555
H6A C2A 1_555 1_555
C7A S1A 1_555 1_555
C8A C7A 1_555 1_555
O1A C8A 1_555 1_555
C9A C8A 1_555 1_555
Br1A C9A 1_555 1_555
F1A C9A 1_555 1_555
F2A C9A 1_555 1_555
C10A C7A 1_555 1_555
O2A C10A 1_555 1_555
O3A C10A 1_555 1_555
C11A O3A 1_555 1_555
H1A C11A 1_555 1_555
H2A C11A 1_555 1_555
C12A C11A 1_555 1_555
H3A C12A 1_555 1_555
H4A C12A 1_555 1_555
H5A C12A 1_555 1_555
C5 C6A 1_555 1_555
S1A C1A 1_555 1_555
C4A C5A 1_555 1_555

#END
