
#######################################################################
#
#                 Cambridge Crystallographic Data Centre
#                                CCDC 
#
#######################################################################
#
# If this CIF has been generated from an entry in the Cambridge 
# Structural Database, then it will include bibliographic, chemical, 
# crystal, experimental, refinement or atomic coordinate data resulting 
# from the CCDC's data processing and validation procedures.
#
#######################################################################

data_AZUMAK
_chemical_formula_moiety         'C35 H30 N4 P2'
_chemical_name_systematic        
N-Diphenylphosphanyl-N-([diphenyl(2-pyridylimino)-\l^5^-phosphanyl]methyl)pyridin-2-amine
_symmetry_cell_setting           monoclinic
_symmetry_space_group_name_H-M   'C 2/c'
_symmetry_Int_Tables_number      15
_space_group_name_Hall           '-C 2yn'
loop_
_symmetry_equiv_pos_site_id
_symmetry_equiv_pos_as_xyz
1 x,y,z
2 -x,y,1/2-z
3 1/2+x,1/2+y,z
4 1/2-x,1/2+y,1/2-z
5 -x,-y,-z
6 x,-y,1/2+z
7 1/2-x,1/2-y,-z
8 1/2+x,1/2-y,1/2+z
_cell_length_a                   22.505(7)
_cell_length_b                   9.142(3)
_cell_length_c                   29.606(9)
_cell_angle_alpha                90
_cell_angle_beta                 102.877(5)
_cell_angle_gamma                90
_cell_volume                     5937.97
_exptl_crystal_colour            orange
_exptl_crystal_description       block
_cell_formula_units_Z            8
loop_
_atom_site_label
_atom_site_type_symbol
_atom_site_fract_x
_atom_site_fract_y
_atom_site_fract_z
P1 P -0.01563(3) 0.63607(8) 0.14930(2)
P2 P 0.16356(3) 0.73616(7) 0.14753(2)
N1 N 0.05842(8) 0.5832(2) 0.15430(7)
N2 N 0.11485(10) 0.3691(3) 0.17411(7)
N3 N 0.15628(10) 0.9082(2) 0.13974(7)
N4 N 0.14031(12) 0.8766(3) 0.05916(7)
C1 C 0.08083(10) 0.4717(3) 0.18710(8)
C2 C 0.06822(12) 0.4749(3) 0.23102(9)
H1 H 0.0448 0.5498 0.2393
C3 C 0.09084(13) 0.3661(4) 0.26186(10)
H2 H 0.0828 0.3661 0.2914
C4 C 0.12536(14) 0.2572(4) 0.24880(10)
H3 H 0.1410 0.1817 0.2690
C5 C 0.13608(14) 0.2634(4) 0.20499(10)
H4 H 0.1595 0.1896 0.1961
C6 C 0.09627(10) 0.6230(3) 0.12172(8)
H5 H 0.0713 0.6761 0.0960
H6 H 0.1101 0.5341 0.1094
C7 C -0.01288(12) 0.8317(3) 0.13863(11)
C8 C -0.01064(15) 0.9233(4) 0.17666(13)
H7 H -0.0121 0.8834 0.2053
C9 C -0.0062(2) 1.0736(5) 0.1719(2)
H8 H -0.0043 1.1339 0.1975
C10 C -0.00475(19) 1.1337(5) 0.1302(2)
H9 H -0.0017 1.2345 0.1273
C11 C -0.00772(16) 1.0462(5) 0.09285(19)
H10 H -0.0070 1.0877 0.0643
C12 C -0.01182(13) 0.8961(4) 0.09660(13)
H11 H -0.0139 0.8377 0.0706
C13 C -0.05681(12) 0.5681(3) 0.09276(9)
C14 C -0.03331(15) 0.4781(4) 0.06367(11)
H12 H 0.0080 0.4557 0.0708
C15 C -0.07070(19) 0.4202(4) 0.02363(12)
H13 H -0.0541 0.3603 0.0042
C16 C -0.1314(2) 0.4510(5) 0.01285(13)
H14 H -0.1563 0.4120 -0.0138
C17 C -0.15543(17) 0.5391(5) 0.04118(15)
H15 H -0.1969 0.5602 0.0338
C18 C -0.11885(14) 0.5978(4) 0.08082(12)
H16 H -0.1360 0.6581 0.0998
C19 C 0.17852(10) 0.7135(3) 0.20950(8)
C20 C 0.21447(11) 0.6004(3) 0.23177(8)
H17 H 0.2324 0.5353 0.2147
C21 C 0.22379(12) 0.5835(4) 0.27910(9)
H18 H 0.2477 0.5070 0.2939
C22 C 0.19752(14) 0.6807(4) 0.30441(9)
H19 H 0.2040 0.6698 0.3364
C23 C 0.16185(14) 0.7935(4) 0.28284(10)
H20 H 0.1442 0.8584 0.3002
C24 C 0.15210(12) 0.8109(3) 0.23526(9)
H21 H 0.1280 0.8874 0.2207
C25 C 0.22768(11) 0.6569(3) 0.12830(8)
C26 C 0.23091(12) 0.5109(3) 0.11729(9)
H22 H 0.1993 0.4478 0.1195
C27 C 0.28149(14) 0.4588(4) 0.10292(10)
H23 H 0.2831 0.3611 0.0945
C28 C 0.32934(14) 0.5506(4) 0.10102(11)
H24 H 0.3637 0.5143 0.0923
C29 C 0.32629(14) 0.6950(5) 0.11197(12)
H25 H 0.3586 0.7570 0.1105
C30 C 0.27536(12) 0.7498(4) 0.12529(10)
H26 H 0.2732 0.8487 0.1322
C31 C 0.14809(12) 0.9659(3) 0.09597(8)
C32 C 0.14870(16) 1.1179(3) 0.09068(10)
H27 H 0.1532 1.1783 0.1165
C33 C 0.14268(19) 1.1772(4) 0.04781(11)
H28 H 0.1427 1.2782 0.0440
C34 C 0.1366(2) 1.0861(4) 0.01011(11)
H29 H 0.1333 1.1235 -0.0196
C35 C 0.1355(2) 0.9390(4) 0.01768(10)
H30 H 0.1310 0.8776 -0.0079
loop_
_geom_bond_atom_site_label_1
_geom_bond_atom_site_label_2
_geom_bond_site_symmetry_1
_geom_bond_site_symmetry_2
P1 N1 1_555 1_555
P2 N3 1_555 1_555
N1 C1 1_555 1_555
N2 C1 1_555 1_555
N3 C31 1_555 1_555
N4 C31 1_555 1_555
C1 C2 1_555 1_555
C2 H1 1_555 1_555
C3 C2 1_555 1_555
H2 C3 1_555 1_555
C4 C3 1_555 1_555
H3 C4 1_555 1_555
C5 N2 1_555 1_555
H4 C5 1_555 1_555
C6 P2 1_555 1_555
H5 C6 1_555 1_555
H6 C6 1_555 1_555
C7 P1 1_555 1_555
C8 C7 1_555 1_555
H7 C8 1_555 1_555
C9 C8 1_555 1_555
H8 C9 1_555 1_555
C10 C9 1_555 1_555
H9 C10 1_555 1_555
C11 C10 1_555 1_555
H10 C11 1_555 1_555
C12 C7 1_555 1_555
H11 C12 1_555 1_555
C13 P1 1_555 1_555
C14 C13 1_555 1_555
H12 C14 1_555 1_555
C15 C14 1_555 1_555
H13 C15 1_555 1_555
C16 C15 1_555 1_555
H14 C16 1_555 1_555
C17 C16 1_555 1_555
H15 C17 1_555 1_555
C18 C13 1_555 1_555
H16 C18 1_555 1_555
C19 P2 1_555 1_555
C20 C19 1_555 1_555
H17 C20 1_555 1_555
C21 C20 1_555 1_555
H18 C21 1_555 1_555
C22 C21 1_555 1_555
H19 C22 1_555 1_555
C23 C22 1_555 1_555
H20 C23 1_555 1_555
C24 C19 1_555 1_555
H21 C24 1_555 1_555
C25 P2 1_555 1_555
C26 C25 1_555 1_555
H22 C26 1_555 1_555
C27 C26 1_555 1_555
H23 C27 1_555 1_555
C28 C27 1_555 1_555
H24 C28 1_555 1_555
C29 C28 1_555 1_555
H25 C29 1_555 1_555
C30 C25 1_555 1_555
H26 C30 1_555 1_555
C31 C32 1_555 1_555
C32 H27 1_555 1_555
C33 C32 1_555 1_555
H28 C33 1_555 1_555
C34 C33 1_555 1_555
H29 C34 1_555 1_555
C35 N4 1_555 1_555
H30 C35 1_555 1_555
N1 C6 1_555 1_555
C4 C5 1_555 1_555
C11 C12 1_555 1_555
C17 C18 1_555 1_555
C23 C24 1_555 1_555
C29 C30 1_555 1_555
C34 C35 1_555 1_555

#END
