
#######################################################################
#
#                 Cambridge Crystallographic Data Centre
#                                CCDC 
#
#######################################################################
#
# If this CIF has been generated from an entry in the Cambridge 
# Structural Database, then it will include bibliographic, chemical, 
# crystal, experimental, refinement or atomic coordinate data resulting 
# from the CCDC's data processing and validation procedures.
#
#######################################################################

data_BABCOZ
_chemical_formula_moiety         'C20 H14 O2'
_chemical_name_systematic        
2-Benzoyl-5-phenylcyclohepta-2,4,6-trien-1-one
_symmetry_cell_setting           orthorhombic
_symmetry_space_group_name_H-M   'P 21 21 21'
_symmetry_Int_Tables_number      19
_space_group_name_Hall           'P 2ac 2ab'
loop_
_symmetry_equiv_pos_site_id
_symmetry_equiv_pos_as_xyz
1 x,y,z
2 1/2+x,1/2-y,-z
3 -x,1/2+y,1/2-z
4 1/2-x,-y,1/2+z
_cell_length_a                   7.3238(8)
_cell_length_b                   9.8140(11)
_cell_length_c                   19.747(2)
_cell_angle_alpha                90
_cell_angle_beta                 90
_cell_angle_gamma                90
_cell_volume                     1419.33
_exptl_crystal_description       block
_cell_formula_units_Z            4
loop_
_atom_site_label
_atom_site_type_symbol
_atom_site_fract_x
_atom_site_fract_y
_atom_site_fract_z
O1 O -0.8456(2) -0.39479(17) -0.21330(8)
O2 O -1.0855(2) -0.16949(18) -0.10277(9)
C1 C -0.8257(3) -0.4394(2) -0.15526(11)
C2 C -0.7481(3) -0.5742(2) -0.14570(11)
H1 H -0.6902 -0.6108 -0.1847
C3 C -0.7442(3) -0.6564(2) -0.09096(11)
H2 H -0.6884 -0.7425 -0.0986
C4 C -0.8096(3) -0.6362(2) -0.02333(11)
C5 C -0.8768(3) -0.5169(2) 0.00120(11)
H3 H -0.9115 -0.5181 0.0475
C6 C -0.9026(3) -0.3904(2) -0.03268(11)
H4 H -0.9434 -0.3187 -0.0041
C7 C -0.8795(3) -0.3536(2) -0.09806(11)
C8 C -0.9340(3) -0.2112(2) -0.11733(11)
C9 C -0.7991(3) -0.1215(2) -0.15182(11)
C10 C -0.6123(3) -0.1487(2) -0.14999(11)
H5 H -0.5688 -0.2284 -0.1280
C11 C -0.4903(3) -0.0602(3) -0.18009(11)
H6 H -0.3630 -0.0782 -0.1782
C12 C -0.5541(4) 0.0552(3) -0.21307(12)
H7 H -0.4703 0.1164 -0.2337
C13 C -0.7399(4) 0.0815(2) -0.21607(11)
H8 H -0.7834 0.1597 -0.2393
C14 C -0.8614(3) -0.0058(2) -0.18533(10)
H9 H -0.9885 0.0130 -0.1870
C15 C -0.7998(3) -0.7550(2) 0.02300(10)
C16 C -0.7510(3) -0.7388(2) 0.09103(11)
H10 H -0.7217 -0.6507 0.1078
C17 C -0.7450(3) -0.8497(3) 0.13423(11)
H11 H -0.7117 -0.8375 0.1803
C18 C -0.7873(3) -0.9781(3) 0.11040(12)
H12 H -0.7829 -1.0543 0.1400
C19 C -0.8360(3) -0.9957(3) 0.04341(13)
H13 H -0.8653 -1.0841 0.0271
C20 C -0.8426(3) -0.8854(2) -0.00013(12)
H14 H -0.8764 -0.8986 -0.0461
loop_
_geom_bond_atom_site_label_1
_geom_bond_atom_site_label_2
_geom_bond_site_symmetry_1
_geom_bond_site_symmetry_2
O1 C1 1_555 1_555
O2 C8 1_555 1_555
C1 C2 1_555 1_555
C2 H1 1_555 1_555
C3 C2 1_555 1_555
H2 C3 1_555 1_555
C4 C3 1_555 1_555
C5 C4 1_555 1_555
H3 C5 1_555 1_555
C6 C5 1_555 1_555
H4 C6 1_555 1_555
C7 C1 1_555 1_555
C8 C7 1_555 1_555
C9 C8 1_555 1_555
C10 C9 1_555 1_555
H5 C10 1_555 1_555
C11 C10 1_555 1_555
H6 C11 1_555 1_555
C12 C11 1_555 1_555
H7 C12 1_555 1_555
C13 C12 1_555 1_555
H8 C13 1_555 1_555
C14 C9 1_555 1_555
H9 C14 1_555 1_555
C15 C4 1_555 1_555
C16 C15 1_555 1_555
H10 C16 1_555 1_555
C17 C16 1_555 1_555
H11 C17 1_555 1_555
C18 C17 1_555 1_555
H12 C18 1_555 1_555
C19 C18 1_555 1_555
H13 C19 1_555 1_555
C20 C15 1_555 1_555
H14 C20 1_555 1_555
C6 C7 1_555 1_555
C13 C14 1_555 1_555
C19 C20 1_555 1_555

#END
