
#######################################################################
#
#                 Cambridge Crystallographic Data Centre
#                                CCDC 
#
#######################################################################
#
# If this CIF has been generated from an entry in the Cambridge 
# Structural Database, then it will include bibliographic, chemical, 
# crystal, experimental, refinement or atomic coordinate data resulting 
# from the CCDC's data processing and validation procedures.
#
#######################################################################

data_BABKAQ
_chemical_formula_moiety         'C30 H22 O2,2(C3 H6 O1)'
_chemical_name_systematic        
'1,1,6,6-Tetraphenylhexa-2,4-diyne-1,6-diol bis(acetone) clathrate'
_symmetry_cell_setting           orthorhombic
_symmetry_space_group_name_H-M   'P b c a'
_symmetry_Int_Tables_number      61
_space_group_name_Hall           '-P 2ac 2ab'
loop_
_symmetry_equiv_pos_site_id
_symmetry_equiv_pos_as_xyz
1 x,y,z
2 1/2-x,-y,1/2+z
3 1/2+x,1/2-y,-z
4 -x,1/2+y,1/2-z
5 -x,-y,-z
6 1/2+x,y,1/2-z
7 1/2-x,1/2+y,z
8 x,1/2-y,1/2+z
_cell_length_a                   16.099(6)
_cell_length_b                   16.200(6)
_cell_length_c                   11.516(4)
_cell_angle_alpha                90
_cell_angle_beta                 90
_cell_angle_gamma                90
_cell_volume                     3003.42
_cell_formula_units_Z            4
loop_
_atom_site_label
_atom_site_type_symbol
_atom_site_fract_x
_atom_site_fract_y
_atom_site_fract_z
O1 O 0.52810 0.08740 0.17440
C1 C 0.46080 0.10190 0.25160
C2 C 0.47760 0.05800 0.36280
C3 C 0.49230 0.02080 0.44820
C4 C 0.38230 0.06260 0.19580
C5 C 0.30640 0.07230 0.24960
C6 C 0.23490 0.04010 0.19940
C7 C 0.23990 -0.00270 0.09560
C8 C 0.31510 -0.01230 0.04260
C9 C 0.38730 0.01930 0.09360
C10 C 0.45070 0.19480 0.27220
C11 C 0.41820 0.24250 0.18770
C12 C 0.41390 0.32790 0.19700
C13 C 0.44220 0.36500 0.29600
C14 C 0.47500 0.31900 0.38110
C15 C 0.47970 0.23240 0.37070
H1 H 0.30400 0.10700 0.32000
H2 H 0.18400 0.04700 0.23500
H3 H 0.19000 -0.03000 0.04800
H4 H 0.32400 -0.04100 -0.01600
H5 H 0.44200 0.01800 0.05400
H6 H 0.40300 0.22000 0.12400
H7 H 0.38000 0.37000 0.14800
H8 H 0.44200 0.42100 0.30800
H9 H 0.49600 0.34100 0.44400
H10 H 0.51000 0.19500 0.42800
H11 H 0.55700 0.12100 0.17800
C3D C 0.50770 -0.02080 0.55180
C2D C 0.52240 -0.05800 0.63720
C1D C 0.53920 -0.10190 0.74840
O1D O 0.47190 -0.08740 0.82560
C4D C 0.61770 -0.06260 0.80420
C10D C 0.54930 -0.19480 0.72780
H11D H 0.44300 -0.12100 0.82200
C5D C 0.69360 -0.07230 0.75040
C9D C 0.61270 -0.01930 0.90640
C11D C 0.58180 -0.24250 0.81230
C15D C 0.52030 -0.23240 0.62930
C6D C 0.76510 -0.04010 0.80060
H1D H 0.69600 -0.10700 0.68000
C8D C 0.68490 0.01230 0.95740
H5D H 0.55800 -0.01800 0.94600
C12D C 0.58610 -0.32790 0.80300
H6D H 0.59700 -0.22000 0.87600
C14D C 0.52500 -0.31900 0.61890
H10D H 0.49000 -0.19500 0.57200
C7D C 0.76010 0.00270 0.90440
H2D H 0.81600 -0.04700 0.76500
H4D H 0.67600 0.04100 1.01600
C13D C 0.55780 -0.36500 0.70400
H7D H 0.62000 -0.37000 0.85200
H9D H 0.50400 -0.34100 0.55600
H3D H 0.81000 0.03000 0.95200
H8D H 0.55800 -0.42100 0.69200
O2 O 0.64830 0.20260 0.13280
C16 C 0.67620 0.26870 0.11100
C17 C 0.73990 0.27280 0.02100
C18 C 0.66320 0.33900 0.17400
H12 H 0.71590 0.28280 -0.06160
H13 H 0.77330 0.21890 0.01310
H14 H 0.78430 0.31840 0.03050
H15 H 0.70250 0.34900 0.24330
H16 H 0.60390 0.34000 0.21250
H17 H 0.66440 0.39470 0.12870
loop_
_geom_bond_atom_site_label_1
_geom_bond_atom_site_label_2
_geom_bond_site_symmetry_1
_geom_bond_site_symmetry_2
O1 C1 1_555 1_555
C1 C2 1_555 1_555
C2 C3 1_555 1_555
C3 C3D 1_555 1_555
C4 C1 1_555 1_555
C5 C4 1_555 1_555
C6 C5 1_555 1_555
C7 C6 1_555 1_555
C8 C7 1_555 1_555
C9 C4 1_555 1_555
C10 C1 1_555 1_555
C11 C10 1_555 1_555
C12 C11 1_555 1_555
C13 C12 1_555 1_555
C14 C13 1_555 1_555
C15 C10 1_555 1_555
H1 C5 1_555 1_555
H2 C6 1_555 1_555
H3 C7 1_555 1_555
H4 C8 1_555 1_555
H5 C9 1_555 1_555
H6 C11 1_555 1_555
H7 C12 1_555 1_555
H8 C13 1_555 1_555
H9 C14 1_555 1_555
H10 C15 1_555 1_555
H11 O1 1_555 1_555
O2 C16 1_555 1_555
C16 C17 1_555 1_555
C17 H12 1_555 1_555
C18 C16 1_555 1_555
H13 C17 1_555 1_555
H14 C17 1_555 1_555
H15 C18 1_555 1_555
H16 C18 1_555 1_555
H17 C18 1_555 1_555
C3D C2D 1_555 1_555
C2D C1D 1_555 1_555
C1D O1D 1_555 1_555
O1D H11D 1_555 1_555
C4D C1D 1_555 1_555
C10D C1D 1_555 1_555
C5D C4D 1_555 1_555
C9D C4D 1_555 1_555
C11D C10D 1_555 1_555
C15D C10D 1_555 1_555
C6D C5D 1_555 1_555
H1D C5D 1_555 1_555
C8D C9D 1_555 1_555
H5D C9D 1_555 1_555
C12D C11D 1_555 1_555
H6D C11D 1_555 1_555
C14D C15D 1_555 1_555
H10D C15D 1_555 1_555
C7D C6D 1_555 1_555
H2D C6D 1_555 1_555
H4D C8D 1_555 1_555
C13D C12D 1_555 1_555
H7D C12D 1_555 1_555
H9D C14D 1_555 1_555
H3D C7D 1_555 1_555
H8D C13D 1_555 1_555
C8 C9 1_555 1_555
C14 C15 1_555 1_555
C8D C7D 1_555 1_555
C14D C13D 1_555 1_555

#END
