
#######################################################################
#
#                 Cambridge Crystallographic Data Centre
#                                CCDC 
#
#######################################################################
#
# If this CIF has been generated from an entry in the Cambridge 
# Structural Database, then it will include bibliographic, chemical, 
# crystal, experimental, refinement or atomic coordinate data resulting 
# from the CCDC's data processing and validation procedures.
#
#######################################################################

data_BACPOM
_chemical_formula_moiety         'C20 H17 Br1 Cl1 N1 O3'
_chemical_name_systematic        
3-(2-Bromophenyl)-2-(1-(4-chlorophenyl)-2,5-dioxopyrrolidin-3-yl)-2-methylpropanal
_symmetry_cell_setting           monoclinic
_symmetry_space_group_name_H-M   'P 21'
_symmetry_Int_Tables_number      4
_space_group_name_Hall           'P 2yb'
loop_
_symmetry_equiv_pos_site_id
_symmetry_equiv_pos_as_xyz
1 x,y,z
2 -x,1/2+y,-z
_cell_length_a                   10.7418(14)
_cell_length_b                   6.3580(8)
_cell_length_c                   13.5460(18)
_cell_angle_alpha                90
_cell_angle_beta                 101.016(2)
_cell_angle_gamma                90
_cell_volume                     908.096
_exptl_crystal_colour            colorless
_exptl_crystal_description       prismatic
_cell_formula_units_Z            2
loop_
_atom_site_label
_atom_site_type_symbol
_atom_site_fract_x
_atom_site_fract_y
_atom_site_fract_z
Br1 Br 0.25160(5) 1.40974(11) 0.37583(4)
Cl1 Cl 0.02889(13) 0.2041(2) -0.42431(9)
N1 N 0.1692(3) 0.6471(5) -0.0366(2)
O1 O 0.3070(3) 0.8950(6) -0.0744(2)
O2 O 0.0444(3) 0.4441(6) 0.0437(2)
O3 O 0.3697(5) 1.3020(6) 0.0769(3)
C1 C 0.2479(3) 0.8212(6) -0.0169(3)
C2 C 0.1175(4) 0.5866(7) 0.0448(3)
C3 C 0.1703(4) 0.7255(8) 0.1318(3)
H1 H 0.2267 0.6471 0.1833
H2 H 0.1026 0.7854 0.1611
C4 C 0.2426(3) 0.8978(8) 0.0880(3)
H3 H 0.1897 1.0246 0.0810
C5 C 0.3737(4) 0.9585(6) 0.1496(3)
C6 C 0.3517(5) 1.0429(12) 0.2515(4)
H4 H 0.2721 1.1195 0.2395
H5 H 0.3410 0.9229 0.2934
C7 C 0.4527(4) 1.1854(10) 0.3120(4)
C8 C 0.5809(6) 1.1611(14) 0.3142(6)
H6 H 0.6062 1.0582 0.2734
C9 C 0.6716(6) 1.2774(14) 0.3721(6)
H7 H 0.7568 1.2450 0.3757
C10 C 0.6379(5) 1.4410(13) 0.4246(4)
H8 H 0.6995 1.5281 0.4613
C11 C 0.5134(5) 1.4771(8) 0.4234(4)
H9 H 0.4888 1.5884 0.4599
C12 C 0.4234(4) 1.3483(7) 0.3679(3)
C13 C 0.1387(4) 0.5441(6) -0.1319(3)
C14 C 0.0572(4) 0.6393(7) -0.2102(3)
H10 H 0.0246 0.7722 -0.2020
C15 C 0.0245(4) 0.5344(8) -0.3011(3)
H11 H -0.0295 0.5964 -0.3551
C16 C 0.0732(4) 0.3387(8) -0.3101(3)
C17 C 0.1551(4) 0.2446(7) -0.2344(3)
H12 H 0.1886 0.1126 -0.2432
C18 C 0.1875(4) 0.3503(6) -0.1435(3)
H13 H 0.2429 0.2884 -0.0903
C19 C 0.4633(5) 0.7756(8) 0.1585(4)
H14 H 0.4437 0.6908 0.0989
H15 H 0.4547 0.6924 0.2160
H16 H 0.5488 0.8264 0.1664
C20 C 0.4229(5) 1.1409(9) 0.0960(4)
H17 H 0.5010 1.1244 0.0768
loop_
_geom_bond_atom_site_label_1
_geom_bond_atom_site_label_2
_geom_bond_site_symmetry_1
_geom_bond_site_symmetry_2
Br1 C12 1_555 1_555
Cl1 C16 1_555 1_555
N1 C1 1_555 1_555
O1 C1 1_555 1_555
O2 C2 1_555 1_555
O3 C20 1_555 1_555
C1 C4 1_555 1_555
C2 N1 1_555 1_555
C3 C2 1_555 1_555
H1 C3 1_555 1_555
H2 C3 1_555 1_555
C4 C3 1_555 1_555
H3 C4 1_555 1_555
C5 C4 1_555 1_555
C6 C5 1_555 1_555
H4 C6 1_555 1_555
H5 C6 1_555 1_555
C7 C6 1_555 1_555
C8 C7 1_555 1_555
H6 C8 1_555 1_555
C9 C8 1_555 1_555
H7 C9 1_555 1_555
C10 C9 1_555 1_555
H8 C10 1_555 1_555
C11 C10 1_555 1_555
H9 C11 1_555 1_555
C12 C7 1_555 1_555
C13 N1 1_555 1_555
C14 C13 1_555 1_555
H10 C14 1_555 1_555
C15 C14 1_555 1_555
H11 C15 1_555 1_555
C16 C15 1_555 1_555
C17 C16 1_555 1_555
H12 C17 1_555 1_555
C18 C13 1_555 1_555
H13 C18 1_555 1_555
C19 C5 1_555 1_555
H14 C19 1_555 1_555
H15 C19 1_555 1_555
H16 C19 1_555 1_555
C20 C5 1_555 1_555
H17 C20 1_555 1_555
C11 C12 1_555 1_555
C17 C18 1_555 1_555

#END
