
#######################################################################
#
#                 Cambridge Crystallographic Data Centre
#                                CCDC 
#
#######################################################################
#
# If this CIF has been generated from an entry in the Cambridge 
# Structural Database, then it will include bibliographic, chemical, 
# crystal, experimental, refinement or atomic coordinate data resulting 
# from the CCDC's data processing and validation procedures.
#
#######################################################################

data_BACRAA
_chemical_formula_moiety         'C4 H8 N7 O2 1+,N1 O3 1-'
_chemical_name_systematic        
'2-Iminium-5-nitroiminooctahydroimidazo[4,5-d]imidazole nitrate'
_symmetry_cell_setting           monoclinic
_symmetry_space_group_name_H-M   'P 21/n'
_symmetry_Int_Tables_number      14
_space_group_name_Hall           '-P 2yn'
loop_
_symmetry_equiv_pos_site_id
_symmetry_equiv_pos_as_xyz
1 x,y,z
2 1/2-x,1/2+y,1/2-z
3 -x,-y,-z
4 1/2+x,1/2-y,1/2+z
_cell_length_a                   11.098(6)
_cell_length_b                   8.328(4)
_cell_length_c                   11.103(6)
_cell_angle_alpha                90
_cell_angle_beta                 117.303(7)
_cell_angle_gamma                90
_cell_volume                     911.861
_exptl_crystal_colour            colorless
_exptl_crystal_description       prism
_cell_formula_units_Z            4
loop_
_atom_site_label
_atom_site_type_symbol
_atom_site_fract_x
_atom_site_fract_y
_atom_site_fract_z
O1 O 0.28300(10) 0.06535(13) 0.29990(14)
O2 O 0.36752(10) 0.29916(11) 0.37119(11)
N1 N 0.69057(14) -0.59153(15) 0.46709(13)
N2 N 0.72570(12) -0.35172(14) 0.37890(12)
N3 N 0.64646(12) -0.07573(14) 0.35249(13)
N4 N 0.43276(12) -0.14638(13) 0.26030(12)
N5 N 0.51596(11) -0.41916(14) 0.32751(12)
N6 N 0.50668(11) 0.11427(13) 0.37078(12)
N7 N 0.37999(11) 0.15745(12) 0.34456(11)
C1 C 0.64617(13) -0.46129(15) 0.39444(13)
C2 C 0.64644(13) -0.22690(16) 0.28734(14)
C3 C 0.52158(12) -0.03243(15) 0.32845(13)
C4 C 0.49847(13) -0.28486(15) 0.23741(14)
H1 H 0.6757(16) -0.2118(18) 0.2175(17)
H2 H 0.3472(19) -0.140(2) 0.2346(18)
H3 H 0.4524(15) -0.3204(18) 0.1449(15)
H4 H 0.811(2) -0.365(2) 0.408(2)
H5 H 0.782(2) -0.614(2) 0.502(2)
H6 H 0.6370(19) -0.669(2) 0.4619(17)
H7 H 0.4553(19) -0.490(2) 0.3165(18)
H8 H 0.7154(18) -0.016(2) 0.3964(17)
O3 O 0.87008(11) 0.13207(14) 0.56958(13)
O4 O 0.98516(11) 0.33145(12) 0.55075(12)
O5 O 1.08296(11) 0.10298(14) 0.62795(12)
N8 N 0.97977(11) 0.18706(14) 0.58320(11)
loop_
_geom_bond_atom_site_label_1
_geom_bond_atom_site_label_2
_geom_bond_site_symmetry_1
_geom_bond_site_symmetry_2
O1 N7 1_555 1_555
O2 N7 1_555 1_555
N1 C1 1_555 1_555
N2 C1 1_555 1_555
N3 C2 1_555 1_555
N4 C3 1_555 1_555
N5 C1 1_555 1_555
N6 N7 1_555 1_555
C2 N2 1_555 1_555
C3 N3 1_555 1_555
C4 N4 1_555 1_555
H1 C2 1_555 1_555
H2 N4 1_555 1_555
H3 C4 1_555 1_555
H4 N2 1_555 1_555
H5 N1 1_555 1_555
H6 N1 1_555 1_555
H7 N5 1_555 1_555
H8 N3 1_555 1_555
O3 N8 1_555 1_555
O4 N8 1_555 1_555
O5 N8 1_555 1_555
N5 C4 1_555 1_555
N6 C3 1_555 1_555
C2 C4 1_555 1_555

#END
