
#######################################################################
#
#                 Cambridge Crystallographic Data Centre
#                                CCDC 
#
#######################################################################
#
# If this CIF has been generated from an entry in the Cambridge 
# Structural Database, then it will include bibliographic, chemical, 
# crystal, experimental, refinement or atomic coordinate data resulting 
# from the CCDC's data processing and validation procedures.
#
#######################################################################

data_BADDAL12
_chemical_formula_moiety         'C13 H10 Cl1 N1 O1'
_chemical_name_systematic        2-(((4-Chlorophenyl)imino)methyl)phenol
_symmetry_cell_setting           monoclinic
_symmetry_space_group_name_H-M   'P 21/c'
_symmetry_Int_Tables_number      14
_space_group_name_Hall           '-P 2ybc'
loop_
_symmetry_equiv_pos_site_id
_symmetry_equiv_pos_as_xyz
1 x,y,z
2 -x,1/2+y,1/2-z
3 -x,-y,-z
4 x,1/2-y,1/2+z
_cell_length_a                   13.495(3)
_cell_length_b                   5.8131(11)
_cell_length_c                   14.790(4)
_cell_angle_alpha                90
_cell_angle_beta                 106.094(15)
_cell_angle_gamma                90
_cell_volume                     1114.77
_exptl_crystal_colour            yellow
_exptl_crystal_description       block
_cell_formula_units_Z            4
loop_
_atom_site_label
_atom_site_type_symbol
_atom_site_fract_x
_atom_site_fract_y
_atom_site_fract_z
Cl1 Cl 0.96190(8) 0.5594(3) 0.83968(9)
O1 O 0.3914(2) 0.1385(5) 0.5105(2)
H1 H 0.4482 0.1804 0.5429
N1 N 0.5251(2) 0.4088(6) 0.6254(2)
C1 C 0.6285(3) 0.4563(7) 0.6792(3)
C2 C 0.7012(3) 0.2891(7) 0.6776(3)
H2 H 0.6809 0.1549 0.6432
C3 C 0.8048(3) 0.3202(8) 0.7272(3)
H3 H 0.8536 0.2081 0.7260
C4 C 0.8330(3) 0.5193(8) 0.7776(3)
C5 C 0.7629(3) 0.6855(8) 0.7818(3)
H4 H 0.7837 0.8181 0.8171
C6 C 0.6597(3) 0.6538(8) 0.7323(3)
H5 H 0.6114 0.7658 0.7349
C7 C 0.4527(3) 0.5575(7) 0.6163(2)
H6 H 0.4682 0.7011 0.6444
C8 C 0.3465(3) 0.5063(7) 0.5628(2)
C9 C 0.3197(3) 0.3010(7) 0.5133(3)
C10 C 0.2172(3) 0.2559(8) 0.4646(3)
H7 H 0.1993 0.1190 0.4315
C11 C 0.1429(3) 0.4176(8) 0.4662(3)
H8 H 0.0746 0.3880 0.4338
C12 C 0.1673(3) 0.6234(8) 0.5150(3)
H9 H 0.1162 0.7301 0.5157
C13 C 0.2693(3) 0.6661(7) 0.5624(3)
H10 H 0.2867 0.8041 0.5947
loop_
_geom_bond_atom_site_label_1
_geom_bond_atom_site_label_2
_geom_bond_site_symmetry_1
_geom_bond_site_symmetry_2
Cl1 C4 1_555 1_555
O1 H1 1_555 1_555
N1 C1 1_555 1_555
C1 C2 1_555 1_555
C2 H2 1_555 1_555
C3 C2 1_555 1_555
H3 C3 1_555 1_555
C4 C3 1_555 1_555
C5 C4 1_555 1_555
H4 C5 1_555 1_555
C6 C1 1_555 1_555
H5 C6 1_555 1_555
C7 N1 1_555 1_555
H6 C7 1_555 1_555
C8 C7 1_555 1_555
C9 O1 1_555 1_555
C10 C9 1_555 1_555
H7 C10 1_555 1_555
C11 C10 1_555 1_555
H8 C11 1_555 1_555
C12 C11 1_555 1_555
H9 C12 1_555 1_555
C13 C8 1_555 1_555
H10 C13 1_555 1_555
C5 C6 1_555 1_555
C8 C9 1_555 1_555
C12 C13 1_555 1_555

#END
