
#######################################################################
#
#                 Cambridge Crystallographic Data Centre
#                                CCDC 
#
#######################################################################
#
# If this CIF has been generated from an entry in the Cambridge 
# Structural Database, then it will include bibliographic, chemical, 
# crystal, experimental, refinement or atomic coordinate data resulting 
# from the CCDC's data processing and validation procedures.
#
#######################################################################

data_BADLAW
_chemical_formula_moiety         'C16 H29 N3 O1'
_chemical_name_systematic        
(E)-3-Butyl-2-(3,3-di-isopropyltriaz-1-en-1-yl)-4,4-dimethylcyclobut-2-en-1-one
_symmetry_cell_setting           orthorhombic
_symmetry_space_group_name_H-M   'P 21 21 21'
_symmetry_Int_Tables_number      19
_space_group_name_Hall           'P 2ac 2ab'
loop_
_symmetry_equiv_pos_site_id
_symmetry_equiv_pos_as_xyz
1 x,y,z
2 1/2-x,-y,1/2+z
3 -x,1/2+y,1/2-z
4 1/2+x,1/2-y,-z
_cell_length_a                   5.8875(6)
_cell_length_b                   16.3030(11)
_cell_length_c                   18.039(2)
_cell_angle_alpha                90
_cell_angle_beta                 90
_cell_angle_gamma                90
_cell_volume                     1731.45
_exptl_crystal_colour            yellow
_exptl_crystal_description       prism
_cell_formula_units_Z            4
loop_
_atom_site_label
_atom_site_type_symbol
_atom_site_fract_x
_atom_site_fract_y
_atom_site_fract_z
O1 O 0.8256(2) 0.91669(7) 0.56382(6)
N1 N 1.0512(2) 1.08299(8) 0.75819(7)
N2 N 1.1737(2) 1.04190(8) 0.80623(7)
N3 N 1.2419(2) 1.08334(8) 0.86406(7)
C1 C 0.9890(3) 1.03123(10) 0.70093(9)
C2 C 1.0474(3) 0.94118(10) 0.68357(9)
C3 C 0.8901(3) 0.95935(10) 0.61542(9)
C4 C 0.8558(3) 1.04442(10) 0.63932(9)
C5 C 1.2963(3) 0.92497(12) 0.66219(11)
H1 H 1.3074 0.8723 0.6363
H2 H 1.3900 0.9234 0.7071
H3 H 1.3502 0.9689 0.6296
C6 C 0.9574(3) 0.87606(10) 0.73752(10)
H4 H 1.0448 0.8782 0.7837
H5 H 0.9731 0.8216 0.7151
H6 H 0.7969 0.8868 0.7482
C7 C 0.7249(3) 1.11550(10) 0.60771(10)
H7 H 0.5951 1.0941 0.5787
H8 H 0.8245 1.1463 0.5733
C8 C 0.6349(3) 1.17442(11) 0.66706(10)
H9 H 0.7629 1.1911 0.6993
H10 H 0.5237 1.1448 0.6983
C9 C 0.5210(4) 1.25192(11) 0.63603(11)
H11 H 0.4892 1.2898 0.6776
H12 H 0.6288 1.2797 0.6022
C10 C 0.3016(4) 1.23604(14) 0.59448(14)
H13 H 0.1957 1.2064 0.6267
H14 H 0.3334 1.2030 0.5503
H15 H 0.2339 1.2884 0.5796
C11 C 1.1911(3) 1.17170(10) 0.87680(9)
H16 H 1.0827 1.1900 0.8375
C12 C 1.0770(3) 1.18471(11) 0.95196(11)
H17 H 1.1817 1.1686 0.9916
H18 H 0.9390 1.1512 0.9548
H19 H 1.0369 1.2427 0.9577
C13 C 1.4081(3) 1.22221(11) 0.86899(10)
H20 H 1.4694 1.2155 0.8189
H21 H 1.5203 1.2034 0.9053
H22 H 1.3738 1.2802 0.8778
C14 C 1.3821(3) 1.03632(10) 0.91792(9)
H23 H 1.4400 1.0758 0.9559
C15 C 1.2341(4) 0.97285(11) 0.95814(10)
H24 H 1.1799 0.9319 0.9225
H25 H 1.1039 1.0004 0.9810
H26 H 1.3242 0.9456 0.9966
C16 C 1.5868(3) 0.99746(13) 0.88015(11)
H27 H 1.6730 1.0398 0.8538
H28 H 1.5351 0.9558 0.8448
H29 H 1.6842 0.9717 0.9176
loop_
_geom_bond_atom_site_label_1
_geom_bond_atom_site_label_2
_geom_bond_site_symmetry_1
_geom_bond_site_symmetry_2
O1 C3 1_555 1_555
N1 N2 1_555 1_555
N2 N3 1_555 1_555
N3 C11 1_555 1_555
C1 N1 1_555 1_555
C2 C1 1_555 1_555
C3 C2 1_555 1_555
C4 C1 1_555 1_555
C5 C2 1_555 1_555
H1 C5 1_555 1_555
H2 C5 1_555 1_555
H3 C5 1_555 1_555
C6 C2 1_555 1_555
H4 C6 1_555 1_555
H5 C6 1_555 1_555
H6 C6 1_555 1_555
C7 C4 1_555 1_555
H7 C7 1_555 1_555
H8 C7 1_555 1_555
C8 C7 1_555 1_555
H9 C8 1_555 1_555
H10 C8 1_555 1_555
C9 C8 1_555 1_555
H11 C9 1_555 1_555
H12 C9 1_555 1_555
C10 C9 1_555 1_555
H13 C10 1_555 1_555
H14 C10 1_555 1_555
H15 C10 1_555 1_555
C11 H16 1_555 1_555
C12 C11 1_555 1_555
H17 C12 1_555 1_555
H18 C12 1_555 1_555
H19 C12 1_555 1_555
C13 C11 1_555 1_555
H20 C13 1_555 1_555
H21 C13 1_555 1_555
H22 C13 1_555 1_555
C14 N3 1_555 1_555
H23 C14 1_555 1_555
C15 C14 1_555 1_555
H24 C15 1_555 1_555
H25 C15 1_555 1_555
H26 C15 1_555 1_555
C16 C14 1_555 1_555
H27 C16 1_555 1_555
H28 C16 1_555 1_555
H29 C16 1_555 1_555
C3 C4 1_555 1_555

#END
