
#######################################################################
#
#                 Cambridge Crystallographic Data Centre
#                                CCDC 
#
#######################################################################
#
# If this CIF has been generated from an entry in the Cambridge 
# Structural Database, then it will include bibliographic, chemical, 
# crystal, experimental, refinement or atomic coordinate data resulting 
# from the CCDC's data processing and validation procedures.
#
#######################################################################

data_BAFLIG
_chemical_formula_moiety         'C4 H6 F5 N2 P1'
_chemical_name_systematic        Pentafluoro(3-methylimidazolium)phosphate
_symmetry_cell_setting           orthorhombic
_symmetry_space_group_name_H-M   'P n m a'
_symmetry_Int_Tables_number      62
_space_group_name_Hall           '-P 2ac 2n'
loop_
_symmetry_equiv_pos_site_id
_symmetry_equiv_pos_as_xyz
1 x,y,z
2 1/2-x,-y,1/2+z
3 1/2+x,1/2-y,1/2-z
4 -x,1/2+y,-z
5 -x,-y,-z
6 1/2+x,y,1/2-z
7 1/2-x,1/2+y,1/2+z
8 x,1/2-y,z
_cell_length_a                   12.6773(12)
_cell_length_b                   6.5152(6)
_cell_length_c                   8.9561(9)
_cell_angle_alpha                90
_cell_angle_beta                 90
_cell_angle_gamma                90
_cell_volume                     739.73
_exptl_crystal_colour            colorless
_exptl_crystal_description       plate
_cell_formula_units_Z            4
_exptl_crystal_recrystallization_method methanol
loop_
_atom_site_label
_atom_site_type_symbol
_atom_site_fract_x
_atom_site_fract_y
_atom_site_fract_z
P1 P 0.18185(5) 0.2500 0.77846(7)
N1 N 0.06506(16) 0.2500 0.3699(2)
N2 N 0.10528(16) 0.2500 0.6064(2)
C1 C 0.1441(2) 0.2500 0.4676(3)
H1 H 0.2169 0.2500 0.4426
F1 F 0.24935(12) 0.2500 0.92836(18)
C2 C 0.0757(2) 0.2500 0.2063(3)
F2 F 0.07546(14) 0.2500 0.8688(2)
F3 F 0.18085(13) 0.0065(2) 0.77622(18)
C3 C -0.02871(19) 0.2500 0.4473(3)
H2 H -0.0975 0.2500 0.4053
F4 F 0.28586(14) 0.2500 0.6807(2)
C4 C -0.00430(19) 0.2500 0.5944(3)
H3 H -0.0531 0.2500 0.6749
F3G F 0.18085(13) 0.4935(2) 0.77622(18)
H4? H 0.0230 0.1577 0.1628
H5? H 0.0647 0.3894 0.1683
H6? H 0.1465 0.2029 0.1790
loop_
_geom_bond_atom_site_label_1
_geom_bond_atom_site_label_2
_geom_bond_site_symmetry_1
_geom_bond_site_symmetry_2
P1 N2 1_555 1_555
N1 C1 1_555 1_555
N2 C1 1_555 1_555
C1 H1 1_555 1_555
F1 P1 1_555 1_555
C2 N1 1_555 1_555
F2 P1 1_555 1_555
F3 P1 1_555 1_555
C3 N1 1_555 1_555
H2 C3 1_555 1_555
F4 P1 1_555 1_555
C4 N2 1_555 1_555
H3 C4 1_555 1_555
F3G P1 1_555 1_555
C3 C4 1_555 1_555

#END
