
#######################################################################
#
#                 Cambridge Crystallographic Data Centre
#                                CCDC 
#
#######################################################################
#
# If this CIF has been generated from an entry in the Cambridge 
# Structural Database, then it will include bibliographic, chemical, 
# crystal, experimental, refinement or atomic coordinate data resulting 
# from the CCDC's data processing and validation procedures.
#
#######################################################################

data_BAFZEN
_chemical_formula_moiety         'C16 H22 O14 2-,C2 H10 N2 2+,3(H2 O1)'
_chemical_name_systematic        
'Ethylenediammonium tetra-tartrato-18-crown-6 trihydrate'
_symmetry_cell_setting           triclinic
_symmetry_space_group_name_H-M   'P 1'
_symmetry_Int_Tables_number      1
_space_group_name_Hall           'P 1'
loop_
_symmetry_equiv_pos_site_id
_symmetry_equiv_pos_as_xyz
1 x,y,z
_cell_length_a                   9.372(3)
_cell_length_b                   7.604(3)
_cell_length_c                   10.847(3)
_cell_angle_alpha                87.06(3)
_cell_angle_beta                 112.47(3)
_cell_angle_gamma                68.96(3)
_cell_volume                     650.578
_cell_formula_units_Z            1
loop_
_atom_site_label
_atom_site_type_symbol
_atom_site_fract_x
_atom_site_fract_y
_atom_site_fract_z
C1 C 0.21750 0.10830 0.03160
H1 H 0.15990 0.19550 -0.07040
C2 C 0.17540 0.23220 0.13000
H2 H 0.04140 0.29820 0.10300
O1 O 0.25520 0.11120 0.26220
C3 C 0.20260 0.20570 0.35800
H3 H 0.21740 0.34020 0.35730
H4 H 0.07120 0.23450 0.32900
C4 C 0.30760 0.08040 0.49920
H5 H 0.29740 -0.05660 0.49930
H6 H 0.26250 0.15070 0.56930
O2 O 0.48070 0.04920 0.54120
C5 C 0.58260 -0.05090 0.68140
H7 H 0.54070 0.03800 0.74580
H8 H 0.56950 -0.18480 0.69610
C6 C 0.76500 -0.09340 0.71940
H9 H 0.84050 -0.16710 0.82550
H10 H 0.77890 0.03970 0.70350
O3 O 0.81940 -0.21400 0.63490
C7 C 0.99670 -0.29790 0.67450
H11 H 1.05800 -0.27240 0.77430
C8 C 1.03880 -0.20540 0.57100
H12 H 1.17300 -0.25900 0.59940
O4 O 0.95940 -0.25070 0.44450
C9 C 1.01310 -0.21350 0.34320
H13 H 0.99510 -0.06420 0.37690
H14 H 1.14540 -0.30590 0.37690
C10 C 0.90990 -0.25340 0.21290
H15 H 0.91200 -0.39520 0.23300
H16 H 0.96210 -0.24760 0.14040
O5 O 0.73980 -0.11230 0.15810
C11 C 0.63140 -0.15770 0.03990
H17 H 0.68350 -0.17730 -0.03420
H18 H 0.62120 -0.28830 0.07060
C12 C 0.45860 0.00840 -0.02180
H19 H 0.37500 -0.02030 -0.11120
H20 H 0.46890 0.14010 -0.05010
O6 O 0.39520 0.02610 0.07840
C13 C 0.14550 -0.04360 0.02070
O7 O 0.00000 0.00000 0.00000
O8 O 0.25220 -0.21680 0.03240
C14 C 0.23450 0.39540 0.12360
O9 O 0.14460 0.52580 0.01660
O10 O 0.36330 0.38670 0.21720
C15 C 0.97390 0.01310 0.56400
O11 O 0.85000 0.12520 0.46410
O12 O 1.05750 0.05840 0.67150
C16 C 1.06130 -0.51670 0.68180
O13 O 1.20950 -0.60960 0.70570
O14 O 0.95300 -0.58850 0.66490
N1 N 0.60560 -0.13700 0.35200
H21 H 0.65000 -0.10020 0.28020
H22 H 0.68550 -0.13170 0.45320
H23 H 0.47700 -0.03520 0.32280
C17 C 0.61150 -0.33410 0.35150
H24 H 0.53160 -0.33930 0.25020
H25 H 0.74010 -0.43590 0.38060
C18 C 0.54950 -0.38560 0.45180
H26 H 0.41770 -0.29050 0.41720
H27 H 0.62260 -0.36680 0.55080
N2 N 0.56700 -0.58730 0.46400
H28 H 0.52150 -0.61870 0.53640
H29 H 0.69860 -0.68350 0.49910
H30 H 0.49370 -0.60720 0.36550
O15 O 0.47000 -0.54720 0.67580
O16 O 0.65340 -0.66240 0.15860
O17 O 0.72670 -0.64210 -0.06630
loop_
_geom_bond_atom_site_label_1
_geom_bond_atom_site_label_2
_geom_bond_site_symmetry_1
_geom_bond_site_symmetry_2
C1 H1 1_555 1_555
C2 C1 1_555 1_555
H2 C2 1_555 1_555
O1 C2 1_555 1_555
C3 O1 1_555 1_555
H3 C3 1_555 1_555
H4 C3 1_555 1_555
C4 C3 1_555 1_555
H5 C4 1_555 1_555
H6 C4 1_555 1_555
O2 C4 1_555 1_555
C5 O2 1_555 1_555
H7 C5 1_555 1_555
H8 C5 1_555 1_555
C6 C5 1_555 1_555
H9 C6 1_555 1_555
H10 C6 1_555 1_555
O3 C6 1_555 1_555
C7 O3 1_555 1_555
H11 C7 1_555 1_555
C8 C7 1_555 1_555
H12 C8 1_555 1_555
O4 C8 1_555 1_555
C9 O4 1_555 1_555
H13 C9 1_555 1_555
H14 C9 1_555 1_555
C10 C9 1_555 1_555
H15 C10 1_555 1_555
H16 C10 1_555 1_555
O5 C10 1_555 1_555
C11 O5 1_555 1_555
H17 C11 1_555 1_555
H18 C11 1_555 1_555
C12 C11 1_555 1_555
H19 C12 1_555 1_555
H20 C12 1_555 1_555
O6 C1 1_555 1_555
C13 C1 1_555 1_555
O7 C13 1_555 1_555
O8 C13 1_555 1_555
C14 C2 1_555 1_555
O9 C14 1_555 1_555
O10 C14 1_555 1_555
C15 C8 1_555 1_555
O11 C15 1_555 1_555
O12 C15 1_555 1_555
C16 C7 1_555 1_555
O13 C16 1_555 1_555
O14 C16 1_555 1_555
N1 H21 1_555 1_555
H22 N1 1_555 1_555
H23 N1 1_555 1_555
C17 N1 1_555 1_555
H24 C17 1_555 1_555
H25 C17 1_555 1_555
C18 C17 1_555 1_555
H26 C18 1_555 1_555
H27 C18 1_555 1_555
N2 C18 1_555 1_555
H28 N2 1_555 1_555
H29 N2 1_555 1_555
H30 N2 1_555 1_555
C12 O6 1_555 1_555

#END
