
#######################################################################
#
#                 Cambridge Crystallographic Data Centre
#                                CCDC 
#
#######################################################################
#
# If this CIF has been generated from an entry in the Cambridge 
# Structural Database, then it will include bibliographic, chemical, 
# crystal, experimental, refinement or atomic coordinate data resulting 
# from the CCDC's data processing and validation procedures.
#
#######################################################################

data_BAFZIU
_chemical_formula_moiety         'C22 H23 N1 O2 S1'
_chemical_name_systematic        
(1S*,6R*,8R*)-4-((4-methylphenyl)sulfonyl)-2-phenyl-4-azatricyclo[4.2.2.0^3,8^]dec-2-ene
_symmetry_cell_setting           triclinic
_symmetry_space_group_name_H-M   'P -1'
_symmetry_Int_Tables_number      2
_space_group_name_Hall           '-P 1'
loop_
_symmetry_equiv_pos_site_id
_symmetry_equiv_pos_as_xyz
1 x,y,z
2 -x,-y,-z
_cell_length_a                   7.9999(6)
_cell_length_b                   10.3733(8)
_cell_length_c                   11.7494(9)
_cell_angle_alpha                86.701(2)
_cell_angle_beta                 72.034(2)
_cell_angle_gamma                86.782(2)
_cell_volume                     925.192
_exptl_crystal_colour            colorless
_exptl_crystal_description       prism
_cell_formula_units_Z            2
loop_
_atom_site_label
_atom_site_type_symbol
_atom_site_fract_x
_atom_site_fract_y
_atom_site_fract_z
C1 C 0.3733(3) 0.2951(2) 0.60576(18)
C2 C 0.4171(3) 0.2439(2) 0.4929(2)
H1 H 0.4727 0.1604 0.4792
C3 C 0.3786(3) 0.3159(2) 0.40138(19)
H2 H 0.4092 0.2812 0.3242
C4 C 0.2965(3) 0.4377(2) 0.41887(19)
C5 C 0.2542(4) 0.5136(3) 0.3172(2)
H3 H 0.2922 0.4629 0.2451
H4 H 0.3158 0.5948 0.3016
H5 H 0.1271 0.5323 0.3388
C6 C 0.2583(3) 0.4877(2) 0.5311(2)
H6 H 0.2050 0.5720 0.5442
C7 C 0.2958(3) 0.4178(2) 0.6243(2)
H7 H 0.2686 0.4538 0.7008
C8 C 0.0506(3) 0.1773(2) 0.83064(17)
H8 H 0.0606 0.2712 0.8110
H9 H 0.0157 0.1648 0.9189
C9 C -0.0940(3) 0.12738(19) 0.78562(16)
H10 H -0.1955 0.1917 0.8069
C10 C -0.0293(3) 0.12223(19) 0.64888(16)
H11 H -0.1273 0.1038 0.6182
H12 H 0.0198 0.2057 0.6123
C11 C 0.1117(3) 0.01476(19) 0.61949(16)
H13 H 0.1890 0.0179 0.5344
C12 C 0.2098(2) 0.00522(19) 0.70982(16)
C13 C 0.1853(3) -0.11954(19) 0.74109(16)
C14 C 0.0544(3) -0.12509(19) 0.67072(18)
H14 H 0.0796 -0.1937 0.6106
C15 C -0.1341(3) -0.1143(2) 0.7539(2)
H15 H -0.1638 -0.1976 0.7994
H16 H -0.2147 -0.0983 0.7049
C16 C -0.1641(3) -0.0059(2) 0.84265(18)
H17 H -0.1065 -0.0330 0.9041
H18 H -0.2919 0.0049 0.8839
C17 C 0.2337(3) -0.2088(2) 0.82699(17)
C18 C 0.3574(3) -0.1735(3) 0.88012(19)
H19 H 0.4077 -0.0911 0.8615
C19 C 0.4067(4) -0.2593(4) 0.9602(2)
H20 H 0.4901 -0.2352 0.9970
C20 C 0.3353(6) -0.3788(4) 0.9866(2)
H21 H 0.3688 -0.4367 1.0421
C21 C 0.2145(6) -0.4155(3) 0.9328(3)
H22 H 0.1675 -0.4990 0.9501
C22 C 0.1627(4) -0.3302(2) 0.8539(2)
H23 H 0.0784 -0.3547 0.8181
N1 N 0.2273(2) 0.11068(16) 0.77737(14)
O1 O 0.3942(3) 0.2828(2) 0.82115(17)
O2 O 0.5454(2) 0.1101(2) 0.6839(2)
S1 S 0.39968(8) 0.19874(6) 0.72754(5)
loop_
_geom_bond_atom_site_label_1
_geom_bond_atom_site_label_2
_geom_bond_site_symmetry_1
_geom_bond_site_symmetry_2
C1 C2 1_555 1_555
C2 H1 1_555 1_555
C3 C2 1_555 1_555
H2 C3 1_555 1_555
C4 C3 1_555 1_555
C5 C4 1_555 1_555
H3 C5 1_555 1_555
H4 C5 1_555 1_555
H5 C5 1_555 1_555
C6 C4 1_555 1_555
H6 C6 1_555 1_555
C7 C1 1_555 1_555
H7 C7 1_555 1_555
C8 H8 1_555 1_555
H9 C8 1_555 1_555
C9 C8 1_555 1_555
H10 C9 1_555 1_555
C10 C9 1_555 1_555
H11 C10 1_555 1_555
H12 C10 1_555 1_555
C11 C10 1_555 1_555
H13 C11 1_555 1_555
C12 C11 1_555 1_555
C13 C12 1_555 1_555
C14 C11 1_555 1_555
H14 C14 1_555 1_555
C15 C14 1_555 1_555
H15 C15 1_555 1_555
H16 C15 1_555 1_555
C16 C9 1_555 1_555
H17 C16 1_555 1_555
H18 C16 1_555 1_555
C17 C13 1_555 1_555
C18 C17 1_555 1_555
H19 C18 1_555 1_555
C19 C18 1_555 1_555
H20 C19 1_555 1_555
C20 C19 1_555 1_555
H21 C20 1_555 1_555
C21 C20 1_555 1_555
H22 C21 1_555 1_555
C22 C17 1_555 1_555
H23 C22 1_555 1_555
N1 C8 1_555 1_555
O1 S1 1_555 1_555
O2 S1 1_555 1_555
S1 C1 1_555 1_555
C6 C7 1_555 1_555
C12 N1 1_555 1_555
C13 C14 1_555 1_555
C15 C16 1_555 1_555
C21 C22 1_555 1_555
N1 S1 1_555 1_555

#END
