
#######################################################################
#
#                 Cambridge Crystallographic Data Centre
#                                CCDC 
#
#######################################################################
#
# If this CIF has been generated from an entry in the Cambridge 
# Structural Database, then it will include bibliographic, chemical, 
# crystal, experimental, refinement or atomic coordinate data resulting 
# from the CCDC's data processing and validation procedures.
#
#######################################################################

data_BAGNIG
_chemical_formula_moiety         'C26 H26 O4'
_chemical_name_systematic        
(S)-3,3'-bis(2-Methoxyethyl)-1,1'-bi-2-naphthol
_symmetry_cell_setting           orthorhombic
_symmetry_space_group_name_H-M   'P 21 21 2'
_symmetry_Int_Tables_number      18
_space_group_name_Hall           'P 2 2ab'
loop_
_symmetry_equiv_pos_site_id
_symmetry_equiv_pos_as_xyz
1 x,y,z
2 -x,-y,z
3 1/2+x,1/2-y,-z
4 1/2-x,1/2+y,-z
_cell_length_a                   11.394(4)
_cell_length_b                   24.978(6)
_cell_length_c                   11.244(4)
_cell_angle_alpha                90
_cell_angle_beta                 90
_cell_angle_gamma                90
_cell_volume                     3200.03
_exptl_crystal_colour            colorless
_exptl_crystal_description       prismatic
_chemical_melting_point          133.5-135.5deg.C
_cell_formula_units_Z            6
_exptl_crystal_recrystallization_method 'diethyl ether'
loop_
_atom_site_label
_atom_site_type_symbol
_atom_site_fract_x
_atom_site_fract_y
_atom_site_fract_z
O1 O 0.3204(2) 0.2526(1) 0.0854(2)
O2 O 0.5980(2) 0.2641(1) -0.1619(2)
O3 O 0.2890(2) 0.2752(1) 0.4479(2)
O4 O 0.2112(3) 0.3329(1) 0.6503(3)
C1 C 0.4153(3) 0.2707(1) 0.1478(3)
C2 C 0.4069(3) 0.3052(1) 0.2415(3)
C3 C 0.5108(3) 0.3201(1) 0.3044(3)
C4 C 0.5084(3) 0.3527(1) 0.4075(3)
C5 C 0.6090(3) 0.3654(2) 0.4666(3)
C6 C 0.7173(3) 0.3465(2) 0.4274(4)
C7 C 0.7235(3) 0.3152(2) 0.3285(4)
C8 C 0.6213(3) 0.3009(1) 0.2638(3)
C9 C 0.6256(3) 0.2674(1) 0.1629(3)
C10 C 0.5257(3) 0.2512(1) 0.1053(3)
C11 C 0.5271(3) 0.2132(1) 0.0014(4)
C12 C 0.4977(3) 0.2385(2) -0.1168(3)
C13 C 0.5781(4) 0.2947(2) -0.2661(4)
C14 C 0.2333(3) 0.3116(1) 0.3772(3)
C15 C 0.2899(3) 0.3278(1) 0.2745(3)
C16 C 0.2346(3) 0.3666(1) 0.2004(3)
C17 C 0.2899(3) 0.3878(1) 0.0976(3)
C18 C 0.2348(3) 0.4255(2) 0.0287(4)
C19 C 0.1229(3) 0.4439(2) 0.0573(4)
C20 C 0.0677(3) 0.4250(2) 0.1564(4)
C21 C 0.1219(3) 0.3866(1) 0.2315(3)
C22 C 0.0675(3) 0.3672(1) 0.3352(3)
C23 C 0.1186(3) 0.3304(1) 0.4083(3)
C24 C 0.0578(3) 0.3098(2) 0.5182(4)
C25 C 0.0889(4) 0.3403(2) 0.6275(4)
C26 C 0.2543(6) 0.3649(2) 0.7456(5)
H1 H 0.2568 0.2518 0.1231
H2 H 0.2665 0.2798 0.5129
H3 H 0.4270 0.3645 0.4386
H4 H 0.6029 0.3849 0.5419
H5 H 0.7933 0.3528 0.4752
H6 H 0.7982 0.3040 0.2977
H7 H 0.7011 0.2528 0.1343
H8 H 0.6090 0.1973 -0.0032
H9 H 0.4708 0.1855 0.0259
H10 H 0.4295 0.2658 -0.1051
H11 H 0.4773 0.2127 -0.1771
H12 H 0.5323 0.3295 -0.2416
H13 H 0.5133 0.2804 -0.3082
H14 H 0.6633 0.3038 -0.3008
H15 H 0.3719 0.3737 0.0713
H16 H 0.2758 0.4401 -0.0398
H17 H 0.0821 0.4697 0.0057
H18 H -0.0067 0.4361 0.1785
H19 H -0.0050 0.3802 0.3538
H20 H -0.0324 0.3142 0.5060
H21 H 0.0737 0.2690 0.5237
H22 H 0.0712 0.3844 0.6202
H23 H 0.0549 0.3353 0.6974
H24 H 0.1798 0.3608 0.8233
H25 H 0.3156 0.3476 0.8016
H26 H 0.2370 0.4015 0.7265
O5 O -0.0070(2) 0.0602(1) 0.0952(3)
O6 O 0.1280(4) 0.0715(2) -0.0971(3)
C27 C 0.0799(3) 0.0502(1) 0.1768(4)
C28 C 0.0574(3) 0.0148(1) 0.2676(3)
C29 C 0.1459(3) 0.0052(1) 0.3553(3)
C30 C 0.1303(3) -0.0298(1) 0.4528(3)
C31 C 0.2162(4) -0.0375(2) 0.5360(4)
C32 C 0.3230(4) -0.0096(2) 0.5267(4)
C33 C 0.3422(3) 0.0240(2) 0.4331(4)
C34 C 0.2554(3) 0.0323(1) 0.3452(4)
C35 C 0.2736(3) 0.0679(2) 0.2506(4)
C36 C 0.1892(3) 0.0777(2) 0.1663(4)
C37 C 0.2122(4) 0.1170(2) 0.0669(4)
C38 C 0.2352(5) 0.0924(2) -0.0517(5)
C39 C 0.1405(8) 0.0439(2) -0.2083(5)
H27 H 0.0350 0.0700 0.0231
H28 H 0.0575 -0.0511 0.4512
H29 H 0.2016 -0.0601 0.6129
H30 H 0.3849 -0.0142 0.5973
H31 H 0.4214 0.0418 0.4072
H32 H 0.3502 0.0892 0.2598
H33 H 0.1332 0.1388 0.0524
H34 H 0.2753 0.1411 0.0965
H35 H 0.2722 0.1187 -0.1080
H36 H 0.2904 0.0583 -0.0312
H37 H 0.1655 0.0695 -0.2792
H38 H 0.1748 0.0153 -0.2019
H39 H 0.0507 0.0308 -0.2607
C28A C -0.0574(3) -0.0148(1) 0.2676(3)
C27A C -0.0799(3) -0.0502(1) 0.1768(4)
O5A O 0.0070(2) -0.0602(1) 0.0952(3)
H27A H -0.0350 -0.0700 0.0231
C36A C -0.1892(3) -0.0777(2) 0.1663(4)
C35A C -0.2736(3) -0.0679(2) 0.2506(4)
C34A C -0.2554(3) -0.0323(1) 0.3452(4)
C29A C -0.1459(3) -0.0052(1) 0.3553(3)
C30A C -0.1303(3) 0.0298(1) 0.4528(3)
C31A C -0.2162(4) 0.0375(2) 0.5360(4)
C32A C -0.3230(4) 0.0096(2) 0.5267(4)
C33A C -0.3422(3) -0.0240(2) 0.4331(4)
H31A H -0.4214 -0.0418 0.4072
H30A H -0.3849 0.0142 0.5973
H29A H -0.2016 0.0601 0.6129
H28A H -0.0575 0.0511 0.4512
H32A H -0.3502 -0.0892 0.2598
C37A C -0.2122(4) -0.1170(2) 0.0669(4)
C38A C -0.2352(5) -0.0924(2) -0.0517(5)
O6A O -0.1280(4) -0.0715(2) -0.0971(3)
C39A C -0.1405(8) -0.0439(2) -0.2083(5)
H37A H -0.1655 -0.0695 -0.2792
H38A H -0.1748 -0.0153 -0.2019
H39A H -0.0507 -0.0308 -0.2607
H35A H -0.2722 -0.1187 -0.1080
H36A H -0.2904 -0.0583 -0.0312
H33A H -0.1332 -0.1388 0.0524
H34A H -0.2753 -0.1411 0.0965
loop_
_geom_bond_atom_site_label_1
_geom_bond_atom_site_label_2
_geom_bond_site_symmetry_1
_geom_bond_site_symmetry_2
O1 C1 1_555 1_555
O2 C12 1_555 1_555
O3 C14 1_555 1_555
O4 C25 1_555 1_555
O5 C27 1_555 1_555
O6 C38 1_555 1_555
C1 C2 1_555 1_555
C2 C3 1_555 1_555
C3 C4 1_555 1_555
C4 C5 1_555 1_555
C5 C6 1_555 1_555
C6 C7 1_555 1_555
C7 C8 1_555 1_555
C8 C3 1_555 1_555
C9 C8 1_555 1_555
C10 C1 1_555 1_555
C11 C10 1_555 1_555
C12 C11 1_555 1_555
C13 O2 1_555 1_555
C14 C15 1_555 1_555
C15 C2 1_555 1_555
C16 C15 1_555 1_555
C17 C16 1_555 1_555
C18 C17 1_555 1_555
C19 C18 1_555 1_555
C20 C19 1_555 1_555
C21 C16 1_555 1_555
C22 C21 1_555 1_555
C23 C14 1_555 1_555
C24 C23 1_555 1_555
C25 C24 1_555 1_555
C26 O4 1_555 1_555
C27 C28 1_555 1_555
C28 C29 1_555 1_555
C29 C30 1_555 1_555
C30 C31 1_555 1_555
C31 C32 1_555 1_555
C32 C33 1_555 1_555
C33 C34 1_555 1_555
C34 C29 1_555 1_555
C35 C34 1_555 1_555
C36 C27 1_555 1_555
C37 C36 1_555 1_555
C38 C37 1_555 1_555
C39 O6 1_555 1_555
H1 O1 1_555 1_555
H2 O3 1_555 1_555
H3 C4 1_555 1_555
H4 C5 1_555 1_555
H5 C6 1_555 1_555
H6 C7 1_555 1_555
H7 C9 1_555 1_555
H8 C11 1_555 1_555
H9 C11 1_555 1_555
H10 C12 1_555 1_555
H11 C12 1_555 1_555
H12 C13 1_555 1_555
H13 C13 1_555 1_555
H14 C13 1_555 1_555
H15 C17 1_555 1_555
H16 C18 1_555 1_555
H17 C19 1_555 1_555
H18 C20 1_555 1_555
H19 C22 1_555 1_555
H20 C24 1_555 1_555
H21 C24 1_555 1_555
H22 C25 1_555 1_555
H23 C25 1_555 1_555
H24 C26 1_555 1_555
H25 C26 1_555 1_555
H26 C26 1_555 1_555
H27 O5 1_555 1_555
H28 C30 1_555 1_555
H29 C31 1_555 1_555
H30 C32 1_555 1_555
H31 C33 1_555 1_555
H32 C35 1_555 1_555
H33 C37 1_555 1_555
H34 C37 1_555 1_555
H35 C38 1_555 1_555
H36 C38 1_555 1_555
H37 C39 1_555 1_555
H38 C39 1_555 1_555
H39 C39 1_555 1_555
C28A C28 1_555 1_555
C27A C28A 1_555 1_555
O5A C27A 1_555 1_555
H27A O5A 1_555 1_555
C36A C27A 1_555 1_555
C35A C36A 1_555 1_555
C34A C35A 1_555 1_555
C29A C28A 1_555 1_555
C30A C29A 1_555 1_555
C31A C30A 1_555 1_555
C32A C31A 1_555 1_555
C33A C34A 1_555 1_555
H31A C33A 1_555 1_555
H30A C32A 1_555 1_555
H29A C31A 1_555 1_555
H28A C30A 1_555 1_555
H32A C35A 1_555 1_555
C37A C36A 1_555 1_555
C38A C37A 1_555 1_555
O6A C38A 1_555 1_555
C39A O6A 1_555 1_555
H37A C39A 1_555 1_555
H38A C39A 1_555 1_555
H39A C39A 1_555 1_555
H35A C38A 1_555 1_555
H36A C38A 1_555 1_555
H33A C37A 1_555 1_555
H34A C37A 1_555 1_555
C9 C10 1_555 1_555
C20 C21 1_555 1_555
C22 C23 1_555 1_555
C35 C36 1_555 1_555
C34A C29A 1_555 1_555
C32A C33A 1_555 1_555

#END
