
#######################################################################
#
#                 Cambridge Crystallographic Data Centre
#                                CCDC 
#
#######################################################################
#
# If this CIF has been generated from an entry in the Cambridge 
# Structural Database, then it will include bibliographic, chemical, 
# crystal, experimental, refinement or atomic coordinate data resulting 
# from the CCDC's data processing and validation procedures.
#
#######################################################################

data_BAGTAG
_chemical_formula_moiety         'C96 H52 N4 Si1'
_chemical_name_systematic        
tetrakis(4-(dimethylamino)phenyl)-((trimethylsilyl)methyl)-hydro-C60fullerene
_symmetry_cell_setting           orthorhombic
_symmetry_space_group_name_H-M   'C m c a'
_symmetry_Int_Tables_number      64
_space_group_name_Hall           '-C 2bc 2'
loop_
_symmetry_equiv_pos_site_id
_symmetry_equiv_pos_as_xyz
1 x,y,z
2 1/2-x,-y,1/2+z
3 x,-y,-z
4 1/2-x,y,1/2-z
5 1/2+x,1/2+y,z
6 -x,1/2-y,1/2+z
7 1/2+x,1/2-y,-z
8 -x,1/2+y,1/2-z
9 -x,-y,-z
10 1/2+x,y,1/2-z
11 -x,y,z
12 1/2+x,-y,1/2+z
13 1/2-x,1/2-y,-z
14 x,1/2+y,1/2-z
15 1/2-x,1/2+y,z
16 x,1/2-y,1/2+z
_cell_length_a                   26.8687(5)
_cell_length_b                   29.5746(5)
_cell_length_c                   17.6483(3)
_cell_angle_alpha                90
_cell_angle_beta                 90
_cell_angle_gamma                90
_cell_volume                     14023.9
_exptl_crystal_colour            yellow
_exptl_crystal_description       prism
_cell_formula_units_Z            8
loop_
_atom_site_label
_atom_site_type_symbol
_atom_site_fract_x
_atom_site_fract_y
_atom_site_fract_z
C1 C 0.5000 0.1920(6) 0.9437(12)
H1 H 0.500 0.2074 0.9929
C2 C 0.4553(5) 0.2138(5) 0.9091(8)
C3 C 0.4749(7) 0.2482(6) 0.8566(9)
C4 C 0.5000 0.1442(6) 0.9704(10)
C5 C 0.4085(6) 0.1927(5) 0.9037(8)
C6 C 0.4442(9) 0.2687(4) 0.7922(8)
C7 C 0.4540(6) 0.1213(6) 0.9312(11)
C8 C 0.4143(5) 0.1404(5) 0.9046(9)
C9 C 0.3860(6) 0.1942(6) 0.8190(10)
C10 C 0.4009(7) 0.2336(7) 0.7687(11)
C11 C 0.4700(6) 0.2676(6) 0.7231(10)
C12 C 0.4775(5) 0.0780(5) 0.8988(9)
C13 C 0.3918(6) 0.1182(6) 0.8364(10)
C14 C 0.3743(6) 0.1556(6) 0.7898(10)
C15 C 0.4079(8) 0.2255(7) 0.6911(12)
C16 C 0.4486(7) 0.2468(5) 0.6609(9)
C17 C 0.4416(7) 0.0599(7) 0.8346(12)
C18 C 0.4026(6) 0.0775(6) 0.8047(10)
C19 C 0.3708(6) 0.1467(6) 0.7106(11)
C20 C 0.3867(5) 0.1818(5) 0.6596(8)
C21 C 0.4703(7) 0.2285(6) 0.6002(10)
C22 C 0.4770(5) 0.0355(5) 0.7793(8)
C23 C 0.4068(6) 0.0691(6) 0.7237(10)
C24 C 0.3886(6) 0.1054(6) 0.6807(11)
C25 C 0.4162(6) 0.1622(6) 0.5995(10)
C26 C 0.4547(5) 0.1852(5) 0.5695(8)
C27 C 0.4490(6) 0.0428(6) 0.7097(10)
C28 C 0.4151(6) 0.1152(6) 0.6115(9)
C29 C 0.5000 0.1583(9) 0.5502(14)
C30 C 0.4766(6) 0.0538(6) 0.6412(11)
C31 C 0.4565(6) 0.0891(6) 0.5932(11)
C32 C 0.5000 0.1092(8) 0.5621(13)
C33 C 0.5000 0.1436(7) 1.0571(12)
H2 H 0.471 0.1602 1.0742
C34 C 0.5000 0.096(4) 1.214(7)
H3 H 0.5303 0.1112 1.2275
H4 H 0.4976 0.068 1.2408
H5 H 0.4721 0.115 1.2264
C35 C 0.4386(8) 0.0542(7) 1.0899(12)
H6 H 0.436 0.047 1.037
H7 H 0.4115 0.0734 1.1043
H8 H 0.4375 0.0268 1.1192
C36 C 0.4297(11) 0.3104(9) 0.8078(15)
C37 C 0.3942(9) 0.3332(7) 0.7609(11)
H9 H 0.3824 0.3174 0.7191
C38 C 0.3767(14) 0.3743(11) 0.7711(18)
H10 H 0.3543 0.3866 0.7368
C39 C 0.3932(8) 0.4005(7) 0.8374(11)
C40 C 0.4210(10) 0.3839(8) 0.8855(14)
H11 H 0.4282 0.3997 0.9297
C41 C 0.4423(9) 0.3397(6) 0.8725(11)
H12 H 0.4656 0.3291 0.9073
C42 C 0.3494(10) 0.4658(9) 0.7843(14)
H13 H 0.3423 0.4433 0.7466
H14 H 0.3719 0.4878 0.7637
H15 H 0.3191 0.4805 0.7993
C43 C 0.3864(11) 0.4670(9) 0.9144(15)
H16 H 0.3693 0.4956 0.9152
H17 H 0.4217 0.4722 0.9134
H18 H 0.3779 0.4501 0.9589
C44 C 0.3695(6) 0.2043(5) 0.9642(9)
C45 C 0.3430(6) 0.1751(7) 1.0111(10)
H19 H 0.35 0.1444 1.0055
C46 C 0.3073(8) 0.1861(9) 1.0652(13)
H20 H 0.2904 0.1637 1.092
C47 C 0.2979(9) 0.2313(7) 1.0776(14)
C48 C 0.3245(6) 0.2596(6) 1.0299(9)
H21 H 0.3171 0.2901 1.0357
C49 C 0.3601(6) 0.2505(6) 0.9750(10)
H22 H 0.3763 0.273 0.9478
C50 C 0.2516(12) 0.3021(11) 1.129(3)
H23 H 0.2759 0.3178 1.099
H24 H 0.2528 0.313 1.1802
H25 H 0.2191 0.3074 1.1083
C51 C 0.2352(12) 0.2154(11) 1.166(2)
H26 H 0.2511 0.1871 1.1548
H27 H 0.2014 0.2147 1.1486
H28 H 0.2355 0.2202 1.22
Si1 Si 0.5000 0.0846(2) 1.1083(3)
N1 N 0.2625(9) 0.2529(9) 1.1279(16)
N2 N 0.3728(10) 0.4436(7) 0.8520(13)
C2J C 0.5447(5) 0.2138(5) 0.9091(8)
C3J C 0.5251(7) 0.2482(6) 0.8566(9)
C5J C 0.5915(6) 0.1927(5) 0.9037(8)
C6J C 0.5558(9) 0.2687(4) 0.7922(8)
C7J C 0.5460(6) 0.1213(6) 0.9312(11)
C8J C 0.5857(5) 0.1404(5) 0.9046(9)
C9J C 0.6140(6) 0.1942(6) 0.8190(10)
C10J C 0.5991(7) 0.2336(7) 0.7687(11)
C11J C 0.5300(6) 0.2676(6) 0.7231(10)
C12J C 0.5225(5) 0.0780(5) 0.8988(9)
C13J C 0.6082(6) 0.1182(6) 0.8364(10)
C14J C 0.6257(6) 0.1556(6) 0.7898(10)
C15J C 0.5921(8) 0.2255(7) 0.6911(12)
C16J C 0.5514(7) 0.2468(5) 0.6609(9)
C17J C 0.5584(7) 0.0599(7) 0.8346(12)
C18J C 0.5974(6) 0.0775(6) 0.8047(10)
C19J C 0.6292(6) 0.1467(6) 0.7106(11)
C20J C 0.6133(5) 0.1818(5) 0.6596(8)
C21J C 0.5297(7) 0.2285(6) 0.6002(10)
C22J C 0.5230(5) 0.0355(5) 0.7793(8)
C23J C 0.5932(6) 0.0691(6) 0.7237(10)
C24J C 0.6114(6) 0.1054(6) 0.6807(11)
C25J C 0.5838(6) 0.1622(6) 0.5995(10)
C26J C 0.5453(5) 0.1852(5) 0.5695(8)
C27J C 0.5510(6) 0.0428(6) 0.7097(10)
C28J C 0.5849(6) 0.1152(6) 0.6115(9)
C30J C 0.5234(6) 0.0538(6) 0.6412(11)
C31J C 0.5435(6) 0.0891(6) 0.5932(11)
H2J H 0.529 0.1602 1.0742
C35J C 0.5614(8) 0.0542(7) 1.0899(12)
H6J H 0.564 0.047 1.037
H7J H 0.5885 0.0734 1.1043
H8J H 0.5625 0.0268 1.1192
C36J C 0.5703(11) 0.3104(9) 0.8078(15)
C37J C 0.6058(9) 0.3332(7) 0.7609(11)
H9J H 0.6176 0.3174 0.7191
C38J C 0.6233(14) 0.3743(11) 0.7711(18)
H10J H 0.6457 0.3866 0.7368
C39J C 0.6068(8) 0.4005(7) 0.8374(11)
C40J C 0.5790(10) 0.3839(8) 0.8855(14)
H11J H 0.5718 0.3997 0.9297
C41J C 0.5577(9) 0.3397(6) 0.8725(11)
H12J H 0.5344 0.3291 0.9073
C42J C 0.6506(10) 0.4658(9) 0.7843(14)
H13J H 0.6577 0.4433 0.7466
H14J H 0.6281 0.4878 0.7637
H15J H 0.6809 0.4805 0.7993
C43J C 0.6136(11) 0.4670(9) 0.9144(15)
H16J H 0.6307 0.4956 0.9152
H17J H 0.5783 0.4722 0.9134
H18J H 0.6221 0.4501 0.9589
C44J C 0.6305(6) 0.2043(5) 0.9642(9)
C45J C 0.6570(6) 0.1751(7) 1.0111(10)
H19J H 0.65 0.1444 1.0055
C46J C 0.6927(8) 0.1861(9) 1.0652(13)
H20J H 0.7096 0.1637 1.092
C47J C 0.7021(9) 0.2313(7) 1.0776(14)
C48J C 0.6755(6) 0.2596(6) 1.0299(9)
H21J H 0.6829 0.2901 1.0357
C49J C 0.6399(6) 0.2505(6) 0.9750(10)
H22J H 0.6237 0.273 0.9478
C50J C 0.7484(12) 0.3021(11) 1.129(3)
H23J H 0.7241 0.3178 1.099
H24J H 0.7472 0.313 1.1802
H25J H 0.7809 0.3074 1.1083
C51J C 0.7648(12) 0.2154(11) 1.166(2)
H26J H 0.7489 0.1871 1.1548
H27J H 0.7986 0.2147 1.1486
H28J H 0.7645 0.2202 1.22
N1J N 0.7375(9) 0.2529(9) 1.1279(16)
N2J N 0.6272(10) 0.4436(7) 0.8520(13)
loop_
_geom_bond_atom_site_label_1
_geom_bond_atom_site_label_2
_geom_bond_site_symmetry_1
_geom_bond_site_symmetry_2
C1 H1 1_555 1_555
C2 C1 1_555 1_555
C3 C2 1_555 1_555
C4 C1 1_555 1_555
C5 C2 1_555 1_555
C6 C3 1_555 1_555
C7 C4 1_555 1_555
C8 C5 1_555 1_555
C9 C5 1_555 1_555
C10 C6 1_555 1_555
C11 C6 1_555 1_555
C12 C7 1_555 1_555
C13 C8 1_555 1_555
C14 C9 1_555 1_555
C15 C10 1_555 1_555
C16 C11 1_555 1_555
C17 C12 1_555 1_555
C18 C13 1_555 1_555
C19 C14 1_555 1_555
C20 C15 1_555 1_555
C21 C16 1_555 1_555
C22 C17 1_555 1_555
C23 C18 1_555 1_555
C24 C19 1_555 1_555
C25 C20 1_555 1_555
C26 C21 1_555 1_555
C27 C22 1_555 1_555
C28 C24 1_555 1_555
C29 C26 1_555 1_555
C30 C27 1_555 1_555
C31 C28 1_555 1_555
C32 C29 1_555 1_555
C33 C4 1_555 1_555
H2 C33 1_555 1_555
C34 H3 1_555 1_555
H4 C34 1_555 1_555
H5 C34 1_555 1_555
C35 H6 1_555 1_555
H7 C35 1_555 1_555
H8 C35 1_555 1_555
C36 C6 1_555 1_555
C37 C36 1_555 1_555
H9 C37 1_555 1_555
C38 C37 1_555 1_555
H10 C38 1_555 1_555
C39 C38 1_555 1_555
C40 C39 1_555 1_555
H11 C40 1_555 1_555
C41 C36 1_555 1_555
H12 C41 1_555 1_555
C42 H13 1_555 1_555
H14 C42 1_555 1_555
H15 C42 1_555 1_555
C43 H16 1_555 1_555
H17 C43 1_555 1_555
H18 C43 1_555 1_555
C44 C5 1_555 1_555
C45 C44 1_555 1_555
H19 C45 1_555 1_555
C46 C45 1_555 1_555
H20 C46 1_555 1_555
C47 C46 1_555 1_555
C48 C47 1_555 1_555
H21 C48 1_555 1_555
C49 C44 1_555 1_555
H22 C49 1_555 1_555
C50 H23 1_555 1_555
H24 C50 1_555 1_555
H25 C50 1_555 1_555
C51 H26 1_555 1_555
H27 C51 1_555 1_555
H28 C51 1_555 1_555
Si1 C33 1_555 1_555
N1 C47 1_555 1_555
N2 C39 1_555 1_555
C2J C1 1_555 1_555
C3J C3 1_555 1_555
C5J C2J 1_555 1_555
C6J C3J 1_555 1_555
C7J C4 1_555 1_555
C8J C5J 1_555 1_555
C9J C5J 1_555 1_555
C10J C6J 1_555 1_555
C11J C11 1_555 1_555
C12J C12 1_555 1_555
C13J C8J 1_555 1_555
C14J C9J 1_555 1_555
C15J C10J 1_555 1_555
C16J C11J 1_555 1_555
C17J C12J 1_555 1_555
C18J C13J 1_555 1_555
C19J C14J 1_555 1_555
C20J C15J 1_555 1_555
C21J C21 1_555 1_555
C22J C22 1_555 1_555
C23J C18J 1_555 1_555
C24J C19J 1_555 1_555
C25J C20J 1_555 1_555
C26J C29 1_555 1_555
C27J C22J 1_555 1_555
C28J C24J 1_555 1_555
C30J C30 1_555 1_555
C31J C32 1_555 1_555
H2J C33 1_555 1_555
C35J Si1 1_555 1_555
H6J C35J 1_555 1_555
H7J C35J 1_555 1_555
H8J C35J 1_555 1_555
C36J C6J 1_555 1_555
C37J C36J 1_555 1_555
H9J C37J 1_555 1_555
C38J C37J 1_555 1_555
H10J C38J 1_555 1_555
C39J C38J 1_555 1_555
C40J C39J 1_555 1_555
H11J C40J 1_555 1_555
C41J C36J 1_555 1_555
H12J C41J 1_555 1_555
C42J H13J 1_555 1_555
H14J C42J 1_555 1_555
H15J C42J 1_555 1_555
C43J H16J 1_555 1_555
H17J C43J 1_555 1_555
H18J C43J 1_555 1_555
C44J C5J 1_555 1_555
C45J C44J 1_555 1_555
H19J C45J 1_555 1_555
C46J C45J 1_555 1_555
H20J C46J 1_555 1_555
C47J C46J 1_555 1_555
C48J C47J 1_555 1_555
H21J C48J 1_555 1_555
C49J C44J 1_555 1_555
H22J C49J 1_555 1_555
C50J H23J 1_555 1_555
H24J C50J 1_555 1_555
H25J C50J 1_555 1_555
C51J H26J 1_555 1_555
H27J C51J 1_555 1_555
H28J C51J 1_555 1_555
N1J C47J 1_555 1_555
N2J C39J 1_555 1_555
C7 C8 1_555 1_555
C9 C10 1_555 1_555
C13 C14 1_555 1_555
C15 C16 1_555 1_555
C17 C18 1_555 1_555
C19 C20 1_555 1_555
C23 C24 1_555 1_555
C23 C27 1_555 1_555
C25 C26 1_555 1_555
C25 C28 1_555 1_555
C30 C31 1_555 1_555
C31 C32 1_555 1_555
C34 Si1 1_555 1_555
C35 Si1 1_555 1_555
C40 C41 1_555 1_555
C42 N2 1_555 1_555
C43 N2 1_555 1_555
C48 C49 1_555 1_555
C50 N1 1_555 1_555
C51 N1 1_555 1_555
C2J C3J 1_555 1_555
C6J C11J 1_555 1_555
C7J C8J 1_555 1_555
C7J C12J 1_555 1_555
C9J C10J 1_555 1_555
C13J C14J 1_555 1_555
C15J C16J 1_555 1_555
C16J C21J 1_555 1_555
C17J C18J 1_555 1_555
C17J C22J 1_555 1_555
C19J C20J 1_555 1_555
C21J C26J 1_555 1_555
C23J C24J 1_555 1_555
C23J C27J 1_555 1_555
C25J C26J 1_555 1_555
C25J C28J 1_555 1_555
C27J C30J 1_555 1_555
C28J C31J 1_555 1_555
C30J C31J 1_555 1_555
C40J C41J 1_555 1_555
C42J N2J 1_555 1_555
C43J N2J 1_555 1_555
C48J C49J 1_555 1_555
C50J N1J 1_555 1_555
C51J N1J 1_555 1_555

#END
