
#######################################################################
#
#                 Cambridge Crystallographic Data Centre
#                                CCDC 
#
#######################################################################
#
# If this CIF has been generated from an entry in the Cambridge 
# Structural Database, then it will include bibliographic, chemical, 
# crystal, experimental, refinement or atomic coordinate data resulting 
# from the CCDC's data processing and validation procedures.
#
#######################################################################

data_BAGXIT
_chemical_formula_moiety         'C23 H22 N4'
_chemical_name_systematic        
2-(1-methyl-1H-indol-3-yl)-3-(2-(pyrrolidin-1-yl)vinyl)quinoxaline
_symmetry_cell_setting           triclinic
_symmetry_space_group_name_H-M   'P -1'
_symmetry_Int_Tables_number      2
_space_group_name_Hall           '-P 1'
loop_
_symmetry_equiv_pos_site_id
_symmetry_equiv_pos_as_xyz
1 x,y,z
2 -x,-y,-z
_cell_length_a                   7.7553(6)
_cell_length_b                   9.9664(7)
_cell_length_c                   12.7439(10)
_cell_angle_alpha                96.960(9)
_cell_angle_beta                 91.765(10)
_cell_angle_gamma                107.208(9)
_cell_volume                     931.671
_exptl_crystal_colour            yellow
_exptl_crystal_description       isometric
_cell_formula_units_Z            2
_exptl_crystal_preparation       Luminescent
loop_
_atom_site_label
_atom_site_type_symbol
_atom_site_fract_x
_atom_site_fract_y
_atom_site_fract_z
N1 N 0.12180(16) 0.30806(14) 0.37511(10)
N2 N 0.11903(17) 0.49746(16) 0.23124(10)
N3 N 0.27095(17) 0.91873(15) 0.43992(11)
N4 N 0.29100(16) 0.42934(14) 0.68745(10)
C1 C 0.18305(17) 0.44627(16) 0.40594(11)
C2 C 0.05745(19) 0.26010(18) 0.27312(12)
C3 C 0.0580(2) 0.35582(19) 0.20025(12)
C4 C -0.0093(2) 0.1146(2) 0.23814(15)
H1 H -0.0104 0.0503 0.2855
C5 C -0.0725(3) 0.0660(2) 0.13580(16)
H2 H -0.1163 -0.0311 0.1136
C6 C -0.0722(3) 0.1604(3) 0.06427(15)
H3 H -0.1168 0.1260 -0.0055
C7 C -0.0077(3) 0.3018(2) 0.09487(14)
H4 H -0.0068 0.3638 0.0458
C8 C 0.17720(17) 0.54441(16) 0.33084(11)
C9 C 0.23391(18) 0.69863(17) 0.35803(12)
C10 C 0.30655(18) 0.79824(17) 0.28557(12)
C11 C 0.32994(19) 0.93309(18) 0.33980(13)
C12 C 0.3585(2) 0.7869(2) 0.18160(13)
H5 H 0.3415 0.6985 0.1422
C13 C 0.4351(3) 0.9086(3) 0.13901(16)
H6 H 0.4727 0.9017 0.0705
C14 C 0.4582(3) 1.0408(3) 0.19431(18)
H7 H 0.5107 1.1209 0.1624
C15 C 0.4053(2) 1.0569(2) 0.29554(17)
H8 H 0.4191 1.1460 0.3329
C16 C 0.21611(19) 0.77778(17) 0.44963(13)
H9 H 0.1725 0.7408 0.5105
C17 C 0.2654(2) 1.0326(2) 0.51949(15)
H10 H 0.2342 0.9963 0.5850
H11 H 0.1763 1.0746 0.4970
H12 H 0.3820 1.1031 0.5295
C18 C 0.25468(18) 0.49441(17) 0.51367(11)
H13 H 0.3167 0.5898 0.5343
C19 C 0.23286(18) 0.40236(17) 0.58547(12)
H14 H 0.1693 0.3085 0.5605
C20 C 0.3863(2) 0.56880(19) 0.74018(13)
H15 H 0.3126 0.6321 0.7384
H16 H 0.4985 0.6086 0.7079
C21 C 0.4226(3) 0.5439(3) 0.85282(15)
H17 H 0.5416 0.5322 0.8624
H18 H 0.4150 0.6226 0.9033
C22 C 0.2790(3) 0.4119(3) 0.86633(16)
H19 H 0.3201 0.3624 0.9182
H20 H 0.1710 0.4333 0.8897
C23 C 0.2415(3) 0.3246(2) 0.76059(14)
H21 H 0.3144 0.2605 0.7532
H22 H 0.1147 0.2700 0.7487
loop_
_geom_bond_atom_site_label_1
_geom_bond_atom_site_label_2
_geom_bond_site_symmetry_1
_geom_bond_site_symmetry_2
N1 C1 1_555 1_555
N2 C3 1_555 1_555
N3 C11 1_555 1_555
N4 C19 1_555 1_555
C1 C8 1_555 1_555
C2 N1 1_555 1_555
C3 C2 1_555 1_555
C4 C2 1_555 1_555
H1 C4 1_555 1_555
C5 C4 1_555 1_555
H2 C5 1_555 1_555
C6 C5 1_555 1_555
H3 C6 1_555 1_555
C7 C3 1_555 1_555
H4 C7 1_555 1_555
C8 N2 1_555 1_555
C9 C8 1_555 1_555
C10 C9 1_555 1_555
C11 C10 1_555 1_555
C12 C10 1_555 1_555
H5 C12 1_555 1_555
C13 C12 1_555 1_555
H6 C13 1_555 1_555
C14 C13 1_555 1_555
H7 C14 1_555 1_555
C15 C11 1_555 1_555
H8 C15 1_555 1_555
C16 N3 1_555 1_555
H9 C16 1_555 1_555
C17 N3 1_555 1_555
H10 C17 1_555 1_555
H11 C17 1_555 1_555
H12 C17 1_555 1_555
C18 C1 1_555 1_555
H13 C18 1_555 1_555
C19 C18 1_555 1_555
H14 C19 1_555 1_555
C20 N4 1_555 1_555
H15 C20 1_555 1_555
H16 C20 1_555 1_555
C21 C20 1_555 1_555
H17 C21 1_555 1_555
H18 C21 1_555 1_555
C22 C21 1_555 1_555
H19 C22 1_555 1_555
H20 C22 1_555 1_555
C23 N4 1_555 1_555
H21 C23 1_555 1_555
H22 C23 1_555 1_555
C6 C7 1_555 1_555
C9 C16 1_555 1_555
C14 C15 1_555 1_555
C22 C23 1_555 1_555

#END
