
#######################################################################
#
#                 Cambridge Crystallographic Data Centre
#                                CCDC 
#
#######################################################################
#
# If this CIF has been generated from an entry in the Cambridge 
# Structural Database, then it will include bibliographic, chemical, 
# crystal, experimental, refinement or atomic coordinate data resulting 
# from the CCDC's data processing and validation procedures.
#
#######################################################################

data_BAHFUN
_chemical_formula_moiety         'C33 H32 N2 O7 S1'
_chemical_name_systematic        
'trans-Dimethyl 5-(4-methoxyphenyl)-3-((4-methylphenyl)sulfonyl)-1,2-diphenylimidazolidine-4,4-dicarboxylate'
_symmetry_cell_setting           monoclinic
_symmetry_space_group_name_H-M   'P 21/c'
_symmetry_Int_Tables_number      14
_space_group_name_Hall           '-P 2ybc'
loop_
_symmetry_equiv_pos_site_id
_symmetry_equiv_pos_as_xyz
1 x,y,z
2 -x,1/2+y,1/2-z
3 -x,-y,-z
4 x,1/2-y,1/2+z
_cell_length_a                   11.4869(5)
_cell_length_b                   16.4287(6)
_cell_length_c                   16.2659(7)
_cell_angle_alpha                90
_cell_angle_beta                 90.246(4)
_cell_angle_gamma                90
_cell_volume                     3069.59
_exptl_crystal_colour            colorless
_exptl_crystal_description       block
_cell_formula_units_Z            4
loop_
_atom_site_label
_atom_site_type_symbol
_atom_site_fract_x
_atom_site_fract_y
_atom_site_fract_z
S1 S 0.30137(4) 0.02716(3) 0.64402(3)
O1 O 0.80090(14) -0.17634(11) 1.00367(12)
O2 O 0.47994(12) 0.04138(8) 0.80029(9)
O3 O 0.62247(12) -0.03382(10) 0.74632(11)
O4 O 0.40841(17) -0.20493(12) 0.66163(12)
O5 O 0.5283(2) -0.11406(11) 0.61599(12)
O6 O 0.21370(13) 0.08297(8) 0.66946(9)
O7 O 0.41568(12) 0.05504(9) 0.62481(9)
N1 N 0.30009(12) -0.08198(9) 0.85198(9)
N2 N 0.31291(12) -0.04082(9) 0.71818(9)
C1 C 0.17335(17) -0.04868(14) 0.96477(13)
H1 H 0.1583 0.0014 0.9402
C2 C 0.1247(2) -0.06649(17) 1.03979(14)
H2 H 0.0773 -0.0284 1.0656
C3 C 0.1456(2) -0.13999(18) 1.07670(15)
H3 H 0.1136 -0.1514 1.1278
C4 C 0.2143(2) -0.19699(16) 1.03804(14)
H4 H 0.2276 -0.2472 1.0628
C5 C 0.26360(17) -0.17971(12) 0.96226(13)
H5 H 0.3094 -0.2185 0.9362
C6 C 0.24483(15) -0.10466(11) 0.92521(11)
C7 C 0.39068(15) -0.13172(11) 0.81529(11)
H6 H 0.3572 -0.1839 0.7981
C8 C 0.49554(15) -0.14733(10) 0.86989(11)
C9 C 0.52446(16) -0.09741(11) 0.93542(12)
H7 H 0.4747 -0.0552 0.9501
C10 C 0.62579(17) -0.10940(12) 0.97914(13)
H8 H 0.6431 -0.0762 1.0239
C11 C 0.70164(17) -0.17032(12) 0.95694(14)
C12 C 0.67346(17) -0.22164(12) 0.89333(14)
H9 H 0.7235 -0.2637 0.8789
C13 C 0.57005(17) -0.21043(11) 0.85073(12)
H10 H 0.5504 -0.2461 0.8084
C14 C 0.8871(2) -0.2321(2) 0.9758(3)
H11 H 0.9121 -0.2167 0.9217
H12 H 0.8549 -0.2860 0.9741
H13 H 0.9525 -0.2311 1.0128
C15 C 0.42328(15) -0.08112(11) 0.73742(11)
C16 C 0.52227(17) -0.02186(12) 0.75957(12)
C17 C 0.5671(3) 0.09857(17) 0.82980(19)
H14 H 0.6085 0.1209 0.7839
H15 H 0.6208 0.0709 0.8655
H16 H 0.5297 0.1417 0.8595
C18 C 0.45437(18) -0.14085(12) 0.66756(13)
C19 C 0.5640(4) -0.17038(19) 0.5514(2)
H17 H 0.6152 -0.1429 0.5140
H18 H 0.4966 -0.1893 0.5221
H19 H 0.6039 -0.2159 0.5756
C20 C 0.24850(17) -0.02572(12) 0.55744(12)
C21 C 0.3213(2) -0.04106(15) 0.49203(14)
H20 H 0.3988 -0.0249 0.4940
C22 C 0.2778(2) -0.08071(17) 0.42350(15)
H21 H 0.3268 -0.0909 0.3793
C23 C 0.1632(2) -0.10543(14) 0.41924(15)
C24 C 0.0925(2) -0.08914(14) 0.48557(16)
H22 H 0.0150 -0.1055 0.4837
C25 C 0.13308(18) -0.04954(13) 0.55410(14)
H23 H 0.0836 -0.0388 0.5979
C26 C 0.1171(3) -0.14987(18) 0.34489(17)
H24 H 0.1661 -0.1388 0.2986
H25 H 0.0393 -0.1318 0.3331
H26 H 0.1165 -0.2073 0.3556
C27 C 0.23390(15) -0.03722(11) 0.78966(11)
H27 H 0.2250 0.0195 0.8072
C28 C 0.11523(16) -0.07236(12) 0.76890(12)
C29 C 0.01744(17) -0.02463(16) 0.77820(14)
H28 H 0.0251 0.0284 0.7974
C30 C -0.0917(2) -0.0546(2) 0.75942(18)
H29 H -0.1570 -0.0218 0.7660
C31 C -0.1041(2) -0.1323(2) 0.73124(19)
H30 H -0.1777 -0.1525 0.7187
C32 C -0.0069(2) -0.18095(17) 0.72133(18)
H31 H -0.0151 -0.2340 0.7022
C33 C 0.10245(18) -0.15072(14) 0.73993(15)
H32 H 0.1677 -0.1834 0.7329
loop_
_geom_bond_atom_site_label_1
_geom_bond_atom_site_label_2
_geom_bond_site_symmetry_1
_geom_bond_site_symmetry_2
S1 O6 1_555 1_555
O1 C11 1_555 1_555
O2 C16 1_555 1_555
O3 C16 1_555 1_555
O4 C18 1_555 1_555
O5 C18 1_555 1_555
O7 S1 1_555 1_555
N1 C6 1_555 1_555
N2 S1 1_555 1_555
C1 H1 1_555 1_555
C2 C1 1_555 1_555
H2 C2 1_555 1_555
C3 C2 1_555 1_555
H3 C3 1_555 1_555
C4 C3 1_555 1_555
H4 C4 1_555 1_555
C5 C4 1_555 1_555
H5 C5 1_555 1_555
C6 C1 1_555 1_555
C7 N1 1_555 1_555
H6 C7 1_555 1_555
C8 C7 1_555 1_555
C9 C8 1_555 1_555
H7 C9 1_555 1_555
C10 C9 1_555 1_555
H8 C10 1_555 1_555
C11 C10 1_555 1_555
C12 C11 1_555 1_555
H9 C12 1_555 1_555
C13 C8 1_555 1_555
H10 C13 1_555 1_555
C14 O1 1_555 1_555
H11 C14 1_555 1_555
H12 C14 1_555 1_555
H13 C14 1_555 1_555
C15 N2 1_555 1_555
C16 C15 1_555 1_555
C17 O2 1_555 1_555
H14 C17 1_555 1_555
H15 C17 1_555 1_555
H16 C17 1_555 1_555
C18 C15 1_555 1_555
C19 O5 1_555 1_555
H17 C19 1_555 1_555
H18 C19 1_555 1_555
H19 C19 1_555 1_555
C20 S1 1_555 1_555
C21 C20 1_555 1_555
H20 C21 1_555 1_555
C22 C21 1_555 1_555
H21 C22 1_555 1_555
C23 C22 1_555 1_555
C24 C23 1_555 1_555
H22 C24 1_555 1_555
C25 C20 1_555 1_555
H23 C25 1_555 1_555
C26 C23 1_555 1_555
H24 C26 1_555 1_555
H25 C26 1_555 1_555
H26 C26 1_555 1_555
C27 N1 1_555 1_555
H27 C27 1_555 1_555
C28 C27 1_555 1_555
C29 C28 1_555 1_555
H28 C29 1_555 1_555
C30 C29 1_555 1_555
H29 C30 1_555 1_555
C31 C30 1_555 1_555
H30 C31 1_555 1_555
C32 C31 1_555 1_555
H31 C32 1_555 1_555
C33 C28 1_555 1_555
H32 C33 1_555 1_555
N2 C27 1_555 1_555
C5 C6 1_555 1_555
C7 C15 1_555 1_555
C12 C13 1_555 1_555
C24 C25 1_555 1_555
C32 C33 1_555 1_555

#END
