
#######################################################################
#
#                 Cambridge Crystallographic Data Centre
#                                CCDC 
#
#######################################################################
#
# If this CIF has been generated from an entry in the Cambridge 
# Structural Database, then it will include bibliographic, chemical, 
# crystal, experimental, refinement or atomic coordinate data resulting 
# from the CCDC's data processing and validation procedures.
#
#######################################################################

data_BAHRAG
_chemical_formula_moiety         'C146 H170 N8 S4 Si2'
_chemical_name_systematic        
2,7,19,24-tetra-t-butyl-13,30-bis((tri-isopropylsilyl)ethynyl)-10,16,27,33-tetrakis(5-(2-ethylhexyl)thien-2-yl)-9,11,15,17,26,28,32,34-octaazadipyreno[4,5-i:4',5'-i']pyreno[4,5-b:9,10-b']dianthracene
_symmetry_cell_setting           monoclinic
_symmetry_space_group_name_H-M   'P 21/n'
_symmetry_Int_Tables_number      14
_space_group_name_Hall           '-P 2yn'
loop_
_symmetry_equiv_pos_site_id
_symmetry_equiv_pos_as_xyz
1 x,y,z
2 1/2-x,1/2+y,1/2-z
3 -x,-y,-z
4 1/2+x,1/2-y,1/2+z
_cell_length_a                   16.281(3)
_cell_length_b                   18.231(4)
_cell_length_c                   20.595(4)
_cell_angle_alpha                90
_cell_angle_beta                 92.011(3)
_cell_angle_gamma                90
_cell_volume                     6109.22
_exptl_crystal_colour            black
_exptl_crystal_description       prism
_cell_formula_units_Z            2
loop_
_atom_site_label
_atom_site_type_symbol
_atom_site_fract_x
_atom_site_fract_y
_atom_site_fract_z
S1 S 0.29422(10) 0.63408(11) 0.66356(9)
C1 C 0.8750(3) 0.4500(4) 0.6312(3)
H1 H 0.9261 0.4702 0.6459
Si1 Si -0.01435(11) 0.11671(10) 0.30844(10)
C2 C 0.7962(3) 0.3496(3) 0.5807(3)
S2 S 0.42934(11) 0.24789(10) 0.48867(11)
C3 C 0.8741(3) 0.3834(4) 0.6059(3)
H2 H 0.9241 0.3568 0.6038
N1 N 0.2215(2) 0.5439(2) 0.5617(2)
C4 C 0.7943(3) 0.2814(3) 0.5528(3)
H3 H 0.8443 0.2550 0.5503
N2 N 0.2122(2) 0.4037(2) 0.5063(2)
C5 C 0.7214(3) 0.2486(3) 0.5278(3)
N3 N 0.5090(2) 0.5154(2) 0.5992(2)
C6 C 0.6489(3) 0.2917(3) 0.5332(3)
H4 H 0.5979 0.2718 0.5177
N4 N 0.5025(2) 0.3751(2) 0.5462(2)
C7 C 0.6497(3) 0.3614(3) 0.5602(3)
C8 C 0.5775(3) 0.4760(3) 0.5936(3)
C9 C 0.5730(3) 0.4024(3) 0.5656(3)
C10 C 0.6541(3) 0.5056(3) 0.6184(3)
C11 C 0.8009(3) 0.4936(3) 0.6376(3)
C12 C 0.8024(3) 0.5640(3) 0.6667(3)
H5 H 0.8535 0.5842 0.6815
C13 C 0.7317(3) 0.6039(3) 0.6740(3)
C14 C 0.6575(3) 0.5736(3) 0.6487(3)
H6 H 0.6081 0.6008 0.6525
C15 C 0.4357(3) 0.4871(3) 0.5771(3)
C16 C 0.4311(3) 0.4144(3) 0.5504(3)
C17 C 0.7240(3) 0.3927(3) 0.5847(3)
C18 C 0.7267(3) 0.4640(3) 0.6123(3)
C19 C 0.3648(3) 0.5299(3) 0.5837(3)
C20 C 0.31332(5) 0.76573(4) 0.73199(5)
H7 H 0.2768 0.7993 0.7066
H8 H 0.2790 0.7383 0.7624
C21 C 0.35257(12) 0.71107(9) 0.68524(9)
C22 C 0.4222(2) 0.71853(5) 0.65834(9)
H9 H 0.4580 0.7597 0.6604
C23 C 0.43327(5) 0.65235(5) 0.62539(10)
H10 H 0.4855 0.6413 0.6087
C24 C 0.37023(7) 0.60311(8) 0.6167(3)
C25 C 0.7646(5) 0.1177(4) 0.5418(4)
H11 H 0.7507 0.0686 0.5255
H12 H 0.7461 0.1228 0.5863
H13 H 0.8243 0.1247 0.5414
C26 C 0.7672(5) 0.1786(4) 0.4340(3)
H14 H 0.7792 0.1287 0.4193
H15 H 0.8187 0.2059 0.4404
H16 H 0.7320 0.2034 0.4013
C27 C 0.6324(4) 0.1464(4) 0.4797(5)
H17 H 0.6360 0.0992 0.4572
H18 H 0.6046 0.1822 0.4511
H19 H 0.6012 0.1403 0.5192
C28 C 0.7225(4) 0.1749(3) 0.4988(3)
C29 C 0.6490(4) 0.7078(4) 0.7238(4)
H20 H 0.6554 0.7531 0.7491
H21 H 0.6183 0.6718 0.7486
H22 H 0.6190 0.7184 0.6827
C30 C 0.7782(4) 0.6664(4) 0.7775(3)
H23 H 0.7716 0.7111 0.8032
H24 H 0.8368 0.6569 0.7722
H25 H 0.7535 0.6249 0.7999
C31 C 0.7821(4) 0.7335(4) 0.6706(3)
H26 H 0.7793 0.7813 0.6922
H27 H 0.7575 0.7373 0.6266
H28 H 0.8397 0.7183 0.6682
C32 C 0.7348(3) 0.6765(3) 0.7093(3)
C33 C 0.0632(3) 0.3510(3) 0.4488(3)
H29 H 0.1108 0.3212 0.4465
C34 C -0.0110(3) 0.3263(3) 0.4222(3)
C35 C -0.0819(3) 0.3693(3) 0.4279(3)
H30 H -0.1331 0.3518 0.4107
C36 C -0.0779(3) 0.4377(3) 0.4585(3)
C37 C -0.0013(3) 0.4638(3) 0.4851(3)
C38 C 0.0687(3) 0.4208(3) 0.4796(3)
C39 C 0.1530(3) 0.5168(3) 0.5375(3)
C40 C 0.1474(3) 0.4463(3) 0.5083(3)
C41 C 0.3564(3) 0.3816(3) 0.5302(3)
C42 C 0.2857(3) 0.4281(3) 0.5313(3)
C43 C 0.2908(3) 0.5007(3) 0.5590(3)
C44 C 0.2929(4) 0.1852(4) 0.4997(4)
H31 H 0.2513 0.1487 0.5008
C45 C 0.2795(4) 0.2595(3) 0.5157(3)
H32 H 0.2274 0.2785 0.5264
C46 C 0.3485(3) 0.3008(3) 0.5144(3)
C47 C 0.39344(6) 0.94015(3) 0.81493(10)
H33 H 0.4386 0.9337 0.7852
H34 H 0.4159 0.9452 0.8595
H35 H 0.3623 0.9843 0.8028
C48 C 0.33625(4) 0.87290(3) 0.81067(6)
H36 H 0.2832 0.8869 0.7893
H37 H 0.3253 0.8550 0.8549
C49 C 0.49341(4) 0.66528(7) 0.93061(6)
H38 H 0.4850 0.6178 0.9517
H39 H 0.5346 0.6935 0.9558
H40 H 0.5126 0.6574 0.8866
C50 C 0.41172(5) 0.70790(6) 0.92706(2)
H41 H 0.4204 0.7582 0.9442
H42 H 0.3710 0.6831 0.9541
C51 C 0.37879(5) 0.71166(4) 0.85612(3)
H43 H 0.3212 0.7291 0.8549
H44 H 0.3799 0.6621 0.8364
C52 C 0.43209(4) 0.76441(3) 0.81713(3)
H45 H 0.4642 0.7965 0.8473
H46 H 0.4711 0.7360 0.7913
C53 C 0.37680(5) 0.81157(3) 0.77154(3)
H47 H 0.4132 0.8358 0.7398
C54 C -0.0213(4) 0.1505(4) 0.2203(3)
H48 H -0.0176 0.1063 0.1918
C55 C -0.1027(4) 0.1849(5) 0.2059(4)
H49 H -0.1037 0.2055 0.1619
H50 H -0.1121 0.2240 0.2374
H51 H -0.1459 0.1477 0.2088
C56 C 0.0491(4) 0.1999(4) 0.2045(4)
H52 H 0.0386 0.2221 0.1617
H53 H 0.1000 0.1713 0.2042
H54 H 0.0545 0.2387 0.2374
C57 C 0.0876(4) 0.0724(4) 0.3279(4)
H55 H 0.1304 0.1037 0.3080
C58 C 0.0966(5) -0.0056(4) 0.2991(4)
H56 H 0.1533 -0.0226 0.3065
H57 H 0.0835 -0.0043 0.2523
H58 H 0.0589 -0.0392 0.3203
C59 C 0.1093(5) 0.0685(5) 0.4014(5)
H59 H 0.1519 0.0313 0.4094
H60 H 0.0601 0.0553 0.4249
H61 H 0.1296 0.1163 0.4165
C60 C -0.1033(5) 0.0249(5) 0.3934(4)
H62 H -0.1512 -0.0069 0.3988
H63 H -0.1027 0.0635 0.4265
H64 H -0.0529 -0.0044 0.3982
C61 C -0.1296(5) 0.0001(4) 0.2736(4)
H65 H -0.1789 -0.0263 0.2862
H66 H -0.0836 -0.0344 0.2711
H67 H -0.1397 0.0231 0.2311
C62 C -0.1080(4) 0.0602(4) 0.3250(4)
H68 H -0.1556 0.0950 0.3246
C63 C -0.0166(3) 0.2012(3) 0.3592(3)
C64 C -0.0147(3) 0.2577(3) 0.3880(3)
C65 C 0.55695(4) -0.08592(13) 0.35551(5)
H69 H 0.5860 -0.0954 0.3977
H70 H 0.5094 -0.1197 0.3521
C66 C 0.61552(9) -0.1039(3) 0.30059(8)
H71 H 0.5850 -0.1026 0.2587
H72 H 0.6390 -0.1529 0.3076
H73 H 0.6599 -0.0675 0.3005
C67 C 0.52443(5) -0.0060(5) 0.35526(10)
H74 H 0.5633 0.0256 0.3805
H75 H 0.5209 0.0126 0.3101
C68 C 0.43906(6) -0.00210(4) 0.38494(12)
H76 H 0.4416 -0.0261 0.4281
H77 H 0.3993 -0.0297 0.3569
C69 C 0.31405(5) 0.06384(8) 0.3146(3)
H78 H 0.2658 0.0938 0.3029
H79 H 0.3037 0.0360 0.3542
H80 H 0.3249 0.0298 0.2791
C70 C 0.38909(8) 0.11408(6) 0.32654(4)
H81 H 0.4327 0.1069 0.2949
H82 H 0.3747 0.1667 0.3301
C71 C 0.40796(13) 0.07711(5) 0.39261(3)
H83 H 0.4657 0.0957 0.3923
C72 C 0.4039(4) 0.09530(19) 0.46543(4)
H84 H 0.3695 0.0577 0.4860
H85 H 0.4600 0.0910 0.4851
C73 C 0.3699(4) 0.1713(4) 0.4827(4)
S1B S -0.29422(10) 0.36592(11) 0.33644(9)
C1B C -0.8750(3) 0.5500(4) 0.3688(3)
H1B H -0.9261 0.5298 0.3541
Si1B Si 0.01435(11) 0.88329(10) 0.69156(10)
C2B C -0.7962(3) 0.6504(3) 0.4193(3)
S2B S -0.42934(11) 0.75211(10) 0.51133(11)
C3B C -0.8741(3) 0.6166(4) 0.3941(3)
H2B H -0.9241 0.6432 0.3962
N1B N -0.2215(2) 0.4561(2) 0.4383(2)
C4B C -0.7943(3) 0.7186(3) 0.4472(3)
H3B H -0.8443 0.7450 0.4497
N2B N -0.2122(2) 0.5963(2) 0.4937(2)
C5B C -0.7214(3) 0.7514(3) 0.4722(3)
N3B N -0.5090(2) 0.4846(2) 0.4008(2)
C6B C -0.6489(3) 0.7083(3) 0.4668(3)
H4B H -0.5979 0.7282 0.4823
N4B N -0.5025(2) 0.6249(2) 0.4538(2)
C7B C -0.6497(3) 0.6386(3) 0.4398(3)
C8B C -0.5775(3) 0.5240(3) 0.4064(3)
C9B C -0.5730(3) 0.5976(3) 0.4344(3)
C10B C -0.6541(3) 0.4944(3) 0.3816(3)
C11B C -0.8009(3) 0.5064(3) 0.3624(3)
C12B C -0.8024(3) 0.4360(3) 0.3333(3)
H5B H -0.8535 0.4158 0.3185
C13B C -0.7317(3) 0.3961(3) 0.3260(3)
C14B C -0.6575(3) 0.4264(3) 0.3513(3)
H6B H -0.6081 0.3992 0.3475
C15B C -0.4357(3) 0.5129(3) 0.4229(3)
C16B C -0.4311(3) 0.5856(3) 0.4496(3)
C17B C -0.7240(3) 0.6073(3) 0.4153(3)
C18B C -0.7267(3) 0.5360(3) 0.3877(3)
C19B C -0.3648(3) 0.4701(3) 0.4163(3)
C20B C -0.31332(5) 0.23427(4) 0.26801(5)
H7B H -0.2768 0.2007 0.2934
H8B H -0.2790 0.2617 0.2376
C21B C -0.35257(12) 0.28893(9) 0.31476(9)
C22B C -0.4222(2) 0.28147(5) 0.34166(9)
H9B H -0.4580 0.2403 0.3396
C23B C -0.43327(5) 0.34765(5) 0.37461(10)
H10B H -0.4855 0.3587 0.3913
C24B C -0.37023(7) 0.39689(8) 0.3833(3)
C25B C -0.7646(5) 0.8823(4) 0.4582(4)
H11B H -0.7507 0.9314 0.4745
H12B H -0.7461 0.8772 0.4137
H13B H -0.8243 0.8753 0.4586
C26B C -0.7672(5) 0.8214(4) 0.5660(3)
H14B H -0.7792 0.8713 0.5807
H15B H -0.8187 0.7941 0.5596
H16B H -0.7320 0.7966 0.5987
C27B C -0.6324(4) 0.8536(4) 0.5203(5)
H17B H -0.6360 0.9008 0.5428
H18B H -0.6046 0.8178 0.5489
H19B H -0.6012 0.8597 0.4808
C28B C -0.7225(4) 0.8251(3) 0.5012(3)
C29B C -0.6490(4) 0.2922(4) 0.2762(4)
H20B H -0.6554 0.2469 0.2509
H21B H -0.6183 0.3282 0.2514
H22B H -0.6190 0.2816 0.3173
C30B C -0.7782(4) 0.3336(4) 0.2225(3)
H23B H -0.7716 0.2889 0.1968
H24B H -0.8368 0.3431 0.2278
H25B H -0.7535 0.3751 0.2001
C31B C -0.7821(4) 0.2665(4) 0.3294(3)
H26B H -0.7793 0.2187 0.3078
H27B H -0.7575 0.2627 0.3734
H28B H -0.8397 0.2817 0.3318
C32B C -0.7348(3) 0.3235(3) 0.2907(3)
C33B C -0.0632(3) 0.6490(3) 0.5512(3)
H29B H -0.1108 0.6788 0.5535
C34B C 0.0110(3) 0.6737(3) 0.5778(3)
C35B C 0.0819(3) 0.6307(3) 0.5721(3)
H30B H 0.1331 0.6482 0.5893
C36B C 0.0779(3) 0.5623(3) 0.5415(3)
C37B C 0.0013(3) 0.5362(3) 0.5149(3)
C38B C -0.0687(3) 0.5792(3) 0.5204(3)
C39B C -0.1530(3) 0.4832(3) 0.4625(3)
C40B C -0.1474(3) 0.5537(3) 0.4917(3)
C41B C -0.3564(3) 0.6184(3) 0.4698(3)
C42B C -0.2857(3) 0.5719(3) 0.4687(3)
C43B C -0.2908(3) 0.4993(3) 0.4410(3)
C44B C -0.2929(4) 0.8148(4) 0.5003(4)
H31B H -0.2513 0.8513 0.4992
C45B C -0.2795(4) 0.7405(3) 0.4843(3)
H32B H -0.2274 0.7215 0.4736
C46B C -0.3485(3) 0.6992(3) 0.4856(3)
C47B C -0.39344(6) 0.05985(3) 0.18507(10)
H33B H -0.4386 0.0663 0.2148
H34B H -0.4159 0.0548 0.1405
H35B H -0.3623 0.0157 0.1972
C48B C -0.33625(4) 0.12710(3) 0.18933(6)
H36B H -0.2832 0.1131 0.2107
H37B H -0.3253 0.1450 0.1451
C49B C -0.49341(4) 0.33472(7) 0.06939(6)
H38B H -0.4850 0.3822 0.0483
H39B H -0.5346 0.3065 0.0442
H40B H -0.5126 0.3426 0.1134
C50B C -0.41172(5) 0.29210(6) 0.07294(2)
H41B H -0.4204 0.2418 0.0558
H42B H -0.3710 0.3169 0.0459
C51B C -0.37879(5) 0.28834(4) 0.14388(3)
H43B H -0.3212 0.2709 0.1451
H44B H -0.3799 0.3379 0.1636
C52B C -0.43209(4) 0.23559(3) 0.18287(3)
H45B H -0.4642 0.2035 0.1527
H46B H -0.4711 0.2640 0.2087
C53B C -0.37680(5) 0.18843(3) 0.22846(3)
H47B H -0.4132 0.1642 0.2602
C54B C 0.0213(4) 0.8495(4) 0.7797(3)
H48B H 0.0176 0.8937 0.8082
C55B C 0.1027(4) 0.8151(5) 0.7941(4)
H49B H 0.1037 0.7945 0.8381
H50B H 0.1121 0.7760 0.7626
H51B H 0.1459 0.8523 0.7912
C56B C -0.0491(4) 0.8001(4) 0.7955(4)
H52B H -0.0386 0.7779 0.8383
H53B H -0.1000 0.8287 0.7958
H54B H -0.0545 0.7613 0.7626
C57B C -0.0876(4) 0.9276(4) 0.6721(4)
H55B H -0.1304 0.8963 0.6920
C58B C -0.0966(5) 1.0056(4) 0.7009(4)
H56B H -0.1533 1.0226 0.6935
H57B H -0.0835 1.0043 0.7477
H58B H -0.0589 1.0392 0.6797
C59B C -0.1093(5) 0.9315(5) 0.5986(5)
H59B H -0.1519 0.9687 0.5906
H60B H -0.0601 0.9447 0.5751
H61B H -0.1296 0.8837 0.5835
C60B C 0.1033(5) 0.9751(5) 0.6066(4)
H62B H 0.1512 1.0069 0.6012
H63B H 0.1027 0.9365 0.5735
H64B H 0.0529 1.0044 0.6018
C61B C 0.1296(5) 0.9999(4) 0.7264(4)
H65B H 0.1789 1.0263 0.7138
H66B H 0.0836 1.0344 0.7289
H67B H 0.1397 0.9769 0.7689
C62B C 0.1080(4) 0.9398(4) 0.6750(4)
H68B H 0.1556 0.9050 0.6754
C63B C 0.0166(3) 0.7988(3) 0.6408(3)
C64B C 0.0147(3) 0.7423(3) 0.6120(3)
C65B C -0.55695(4) 1.08592(13) 0.64449(5)
H69B H -0.5860 1.0954 0.6023
H70B H -0.5094 1.1197 0.6479
C66B C -0.61552(9) 1.1039(3) 0.69941(8)
H71B H -0.5850 1.1026 0.7413
H72B H -0.6390 1.1529 0.6924
H73B H -0.6599 1.0675 0.6995
C67B C -0.52443(5) 1.0060(5) 0.64474(10)
H74B H -0.5633 0.9744 0.6195
H75B H -0.5209 0.9874 0.6899
C68B C -0.43906(6) 1.00210(4) 0.61506(12)
H76B H -0.4416 1.0261 0.5719
H77B H -0.3993 1.0297 0.6431
C69B C -0.31405(5) 0.93616(8) 0.6854(3)
H78B H -0.2658 0.9062 0.6971
H79B H -0.3037 0.9640 0.6458
H80B H -0.3249 0.9702 0.7209
C70B C -0.38909(8) 0.88592(6) 0.67346(4)
H81B H -0.4327 0.8931 0.7051
H82B H -0.3747 0.8333 0.6699
C71B C -0.40796(13) 0.92289(5) 0.60739(3)
H83B H -0.4657 0.9043 0.6077
C72B C -0.4039(4) 0.90470(19) 0.53457(4)
H84B H -0.3695 0.9423 0.5140
H85B H -0.4600 0.9090 0.5149
C73B C -0.3699(4) 0.8287(4) 0.5173(4)
H86? H 0.5382 -0.1139 0.3934
H87? H 0.5408 -0.1123 0.3150
C74? C 0.65001(5) -0.0707(3) 0.3602(11)
H88? H 0.6668 -0.0612 0.4056
H89? H 0.6626 -0.0278 0.3337
H90? H 0.6798 -0.1135 0.3444
loop_
_geom_bond_atom_site_label_1
_geom_bond_atom_site_label_2
_geom_bond_site_symmetry_1
_geom_bond_site_symmetry_2
S1 C21 1_555 1_555
C1 H1 1_555 1_555
Si1 C54 1_555 1_555
C2 C3 1_555 1_555
S2 C46 1_555 1_555
C3 C1 1_555 1_555
H2 C3 1_555 1_555
N1 C39 1_555 1_555
C4 C2 1_555 1_555
H3 C4 1_555 1_555
N2 C40 1_555 1_555
C5 C4 1_555 1_555
N3 C8 1_555 1_555
C6 C5 1_555 1_555
H4 C6 1_555 1_555
N4 C9 1_555 1_555
C7 C6 1_555 1_555
C8 C9 1_555 1_555
C9 C7 1_555 1_555
C10 C8 1_555 1_555
C11 C1 1_555 1_555
C12 C11 1_555 1_555
H5 C12 1_555 1_555
C13 C12 1_555 1_555
C14 C10 1_555 1_555
H6 C14 1_555 1_555
C15 N3 1_555 1_555
C16 N4 1_555 1_555
C17 C2 1_555 1_555
C18 C10 1_555 1_555
C19 C15 1_555 1_555
C20 H7 1_555 1_555
H8 C20 1_555 1_555
C21 C20 1_555 1_555
C22 C21 1_555 1_555
H9 C22 1_555 1_555
C23 C22 1_555 1_555
H10 C23 1_555 1_555
C24 S1 1_555 1_555
C25 H11 1_555 1_555
H12 C25 1_555 1_555
H13 C25 1_555 1_555
C26 H14 1_555 1_555
H15 C26 1_555 1_555
H16 C26 1_555 1_555
C27 H17 1_555 1_555
H18 C27 1_555 1_555
H19 C27 1_555 1_555
C28 C5 1_555 1_555
C29 H20 1_555 1_555
H21 C29 1_555 1_555
H22 C29 1_555 1_555
C30 H23 1_555 1_555
H24 C30 1_555 1_555
H25 C30 1_555 1_555
C31 H26 1_555 1_555
H27 C31 1_555 1_555
H28 C31 1_555 1_555
C32 C13 1_555 1_555
C33 H29 1_555 1_555
C34 C33 1_555 1_555
C35 C34 1_555 1_555
H30 C35 1_555 1_555
C36 C35 1_555 1_555
C37 C36 1_555 1_555
C38 C33 1_555 1_555
C39 C40 1_555 1_555
C40 C38 1_555 1_555
C41 C16 1_555 1_555
C42 N2 1_555 1_555
C43 N1 1_555 1_555
C44 H31 1_555 1_555
C45 C44 1_555 1_555
H32 C45 1_555 1_555
C46 C41 1_555 1_555
C47 H33 1_555 1_555
H34 C47 1_555 1_555
H35 C47 1_555 1_555
C48 C47 1_555 1_555
H36 C48 1_555 1_555
H37 C48 1_555 1_555
C49 H38 1_555 1_555
H39 C49 1_555 1_555
H40 C49 1_555 1_555
C50 C49 1_555 1_555
H41 C50 1_555 1_555
H42 C50 1_555 1_555
C51 C50 1_555 1_555
H43 C51 1_555 1_555
H44 C51 1_555 1_555
C52 C51 1_555 1_555
H45 C52 1_555 1_555
H46 C52 1_555 1_555
C53 C20 1_555 1_555
H47 C53 1_555 1_555
C54 H48 1_555 1_555
C55 C54 1_555 1_555
H49 C55 1_555 1_555
H50 C55 1_555 1_555
H51 C55 1_555 1_555
C56 C54 1_555 1_555
H52 C56 1_555 1_555
H53 C56 1_555 1_555
H54 C56 1_555 1_555
C57 Si1 1_555 1_555
H55 C57 1_555 1_555
C58 C57 1_555 1_555
H56 C58 1_555 1_555
H57 C58 1_555 1_555
H58 C58 1_555 1_555
C59 C57 1_555 1_555
H59 C59 1_555 1_555
H60 C59 1_555 1_555
H61 C59 1_555 1_555
C60 H62 1_555 1_555
H63 C60 1_555 1_555
H64 C60 1_555 1_555
C61 H65 1_555 1_555
H66 C61 1_555 1_555
H67 C61 1_555 1_555
C62 Si1 1_555 1_555
H68 C62 1_555 1_555
C63 Si1 1_555 1_555
C64 C34 1_555 1_555
C65 H69 1_555 1_555
H70 C65 1_555 1_555
C66 C65 1_555 1_555
H71 C66 1_555 1_555
H72 C66 1_555 1_555
H73 C66 1_555 1_555
C67 C65 1_555 1_555
H74 C67 1_555 1_555
H75 C67 1_555 1_555
C68 C67 1_555 1_555
H76 C68 1_555 1_555
H77 C68 1_555 1_555
C69 H78 1_555 1_555
H79 C69 1_555 1_555
H80 C69 1_555 1_555
C70 C69 1_555 1_555
H81 C70 1_555 1_555
H82 C70 1_555 1_555
C71 C68 1_555 1_555
H83 C71 1_555 1_555
C72 C71 1_555 1_555
H84 C72 1_555 1_555
H85 C72 1_555 1_555
C73 S2 1_555 1_555
S1B C21B 1_555 1_555
C1B H1B 1_555 1_555
Si1B C54B 1_555 1_555
C2B C3B 1_555 1_555
S2B C46B 1_555 1_555
C3B C1B 1_555 1_555
H2B C3B 1_555 1_555
N1B C39B 1_555 1_555
C4B C2B 1_555 1_555
H3B C4B 1_555 1_555
N2B C40B 1_555 1_555
C5B C4B 1_555 1_555
N3B C8B 1_555 1_555
C6B C5B 1_555 1_555
H4B C6B 1_555 1_555
N4B C9B 1_555 1_555
C7B C6B 1_555 1_555
C8B C9B 1_555 1_555
C9B C7B 1_555 1_555
C10B C8B 1_555 1_555
C11B C1B 1_555 1_555
C12B C11B 1_555 1_555
H5B C12B 1_555 1_555
C13B C12B 1_555 1_555
C14B C10B 1_555 1_555
H6B C14B 1_555 1_555
C15B N3B 1_555 1_555
C16B N4B 1_555 1_555
C17B C2B 1_555 1_555
C18B C10B 1_555 1_555
C19B C15B 1_555 1_555
C20B H7B 1_555 1_555
H8B C20B 1_555 1_555
C21B C20B 1_555 1_555
C22B C21B 1_555 1_555
H9B C22B 1_555 1_555
C23B C22B 1_555 1_555
H10B C23B 1_555 1_555
C24B S1B 1_555 1_555
C25B H11B 1_555 1_555
H12B C25B 1_555 1_555
H13B C25B 1_555 1_555
C26B H14B 1_555 1_555
H15B C26B 1_555 1_555
H16B C26B 1_555 1_555
C27B H17B 1_555 1_555
H18B C27B 1_555 1_555
H19B C27B 1_555 1_555
C28B C5B 1_555 1_555
C29B H20B 1_555 1_555
H21B C29B 1_555 1_555
H22B C29B 1_555 1_555
C30B H23B 1_555 1_555
H24B C30B 1_555 1_555
H25B C30B 1_555 1_555
C31B H26B 1_555 1_555
H27B C31B 1_555 1_555
H28B C31B 1_555 1_555
C32B C13B 1_555 1_555
C33B H29B 1_555 1_555
C34B C33B 1_555 1_555
C35B C34B 1_555 1_555
H30B C35B 1_555 1_555
C36B C39 1_555 1_555
C37B C37 1_555 1_555
C38B C33B 1_555 1_555
C39B C36 1_555 1_555
C40B C38B 1_555 1_555
C41B C16B 1_555 1_555
C42B N2B 1_555 1_555
C43B N1B 1_555 1_555
C44B H31B 1_555 1_555
C45B C44B 1_555 1_555
H32B C45B 1_555 1_555
C46B C41B 1_555 1_555
C47B H33B 1_555 1_555
H34B C47B 1_555 1_555
H35B C47B 1_555 1_555
C48B C47B 1_555 1_555
H36B C48B 1_555 1_555
H37B C48B 1_555 1_555
C49B H38B 1_555 1_555
H39B C49B 1_555 1_555
H40B C49B 1_555 1_555
C50B C49B 1_555 1_555
H41B C50B 1_555 1_555
H42B C50B 1_555 1_555
C51B C50B 1_555 1_555
H43B C51B 1_555 1_555
H44B C51B 1_555 1_555
C52B C51B 1_555 1_555
H45B C52B 1_555 1_555
H46B C52B 1_555 1_555
C53B C20B 1_555 1_555
H47B C53B 1_555 1_555
C54B H48B 1_555 1_555
C55B C54B 1_555 1_555
H49B C55B 1_555 1_555
H50B C55B 1_555 1_555
H51B C55B 1_555 1_555
C56B C54B 1_555 1_555
H52B C56B 1_555 1_555
H53B C56B 1_555 1_555
H54B C56B 1_555 1_555
C57B Si1B 1_555 1_555
H55B C57B 1_555 1_555
C58B C57B 1_555 1_555
H56B C58B 1_555 1_555
H57B C58B 1_555 1_555
H58B C58B 1_555 1_555
C59B C57B 1_555 1_555
H59B C59B 1_555 1_555
H60B C59B 1_555 1_555
H61B C59B 1_555 1_555
C60B H62B 1_555 1_555
H63B C60B 1_555 1_555
H64B C60B 1_555 1_555
C61B H65B 1_555 1_555
H66B C61B 1_555 1_555
H67B C61B 1_555 1_555
C62B Si1B 1_555 1_555
H68B C62B 1_555 1_555
C63B Si1B 1_555 1_555
C64B C34B 1_555 1_555
C65B H69B 1_555 1_555
H70B C65B 1_555 1_555
C66B C65B 1_555 1_555
H71B C66B 1_555 1_555
H72B C66B 1_555 1_555
H73B C66B 1_555 1_555
C67B C65B 1_555 1_555
H74B C67B 1_555 1_555
H75B C67B 1_555 1_555
C68B C67B 1_555 1_555
H76B C68B 1_555 1_555
H77B C68B 1_555 1_555
C69B H78B 1_555 1_555
H79B C69B 1_555 1_555
H80B C69B 1_555 1_555
C70B C69B 1_555 1_555
H81B C70B 1_555 1_555
H82B C70B 1_555 1_555
C71B C68B 1_555 1_555
H83B C71B 1_555 1_555
C72B C71B 1_555 1_555
H84B C72B 1_555 1_555
H85B C72B 1_555 1_555
C73B S2B 1_555 1_555
C7 C17 1_555 1_555
C11 C18 1_555 1_555
C13 C14 1_555 1_555
C15 C16 1_555 1_555
C17 C18 1_555 1_555
C19 C24 1_555 1_555
C19 C43 1_555 1_555
C23 C24 1_555 1_555
C25 C28 1_555 1_555
C26 C28 1_555 1_555
C27 C28 1_555 1_555
C29 C32 1_555 1_555
C30 C32 1_555 1_555
C31 C32 1_555 1_555
C37 C38 1_555 1_555
C41 C42 1_555 1_555
C42 C43 1_555 1_555
C44 C73 1_555 1_555
C45 C46 1_555 1_555
C48 C53 1_555 1_555
C52 C53 1_555 1_555
C60 C62 1_555 1_555
C61 C62 1_555 1_555
C63 C64 1_555 1_555
C70 C71 1_555 1_555
C72 C73 1_555 1_555
C7B C17B 1_555 1_555
C11B C18B 1_555 1_555
C13B C14B 1_555 1_555
C15B C16B 1_555 1_555
C17B C18B 1_555 1_555
C19B C24B 1_555 1_555
C19B C43B 1_555 1_555
C23B C24B 1_555 1_555
C25B C28B 1_555 1_555
C26B C28B 1_555 1_555
C27B C28B 1_555 1_555
C29B C32B 1_555 1_555
C30B C32B 1_555 1_555
C31B C32B 1_555 1_555
C35B C36B 1_555 1_555
C36B C37B 1_555 1_555
C37B C38B 1_555 1_555
C39B C40B 1_555 1_555
C41B C42B 1_555 1_555
C42B C43B 1_555 1_555
C44B C73B 1_555 1_555
C45B C46B 1_555 1_555
C48B C53B 1_555 1_555
C52B C53B 1_555 1_555
C60B C62B 1_555 1_555
C61B C62B 1_555 1_555
C63B C64B 1_555 1_555
C70B C71B 1_555 1_555
C72B C73B 1_555 1_555

#END
