
#######################################################################
#
#                 Cambridge Crystallographic Data Centre
#                                CCDC 
#
#######################################################################
#
# If this CIF has been generated from an entry in the Cambridge 
# Structural Database, then it will include bibliographic, chemical, 
# crystal, experimental, refinement or atomic coordinate data resulting 
# from the CCDC's data processing and validation procedures.
#
#######################################################################

data_BAKKEG
_chemical_formula_moiety         'C18 H21 N1 O5 S1'
_chemical_name_systematic        
6'-(ethylsulfanyl)-4'-hydroxy-1-methoxy-9'H-spiro[indole-3,2'-[7]oxabicyclo[3.2.2]nonane]-2,9'(1H)-dione
_symmetry_cell_setting           monoclinic
_symmetry_space_group_name_H-M   'P 21/n'
_symmetry_Int_Tables_number      14
_space_group_name_Hall           '-P 2yn'
loop_
_symmetry_equiv_pos_site_id
_symmetry_equiv_pos_as_xyz
1 x,y,z
2 1/2-x,1/2+y,1/2-z
3 -x,-y,-z
4 1/2+x,1/2-y,1/2+z
_cell_length_a                   12.8080(4)
_cell_length_b                   8.8047(3)
_cell_length_c                   15.3003(4)
_cell_angle_alpha                90
_cell_angle_beta                 95.5720(10)
_cell_angle_gamma                90
_cell_volume                     1717.27
_exptl_crystal_description       block
_cell_formula_units_Z            4
loop_
_atom_site_label
_atom_site_type_symbol
_atom_site_fract_x
_atom_site_fract_y
_atom_site_fract_z
C1 C 0.87006(12) 0.10432(18) -0.04596(10)
C2 C 0.82176(11) 0.16711(18) 0.02351(10)
C3 C 0.82387(12) 0.32283(19) 0.03448(10)
H1 H 0.7919 0.3688 0.0814
C4 C 0.87385(13) 0.4115(2) -0.02470(12)
H2 H 0.8771 0.5185 -0.0171
C5 C 0.91879(14) 0.3456(2) -0.09438(12)
H3 H 0.9508 0.4085 -0.1346
C6 C 0.91779(13) 0.1890(2) -0.10635(11)
H4 H 0.9485 0.1429 -0.1538
C7 C 0.77363(11) 0.04062(17) 0.07351(9)
C8 C 0.81581(11) -0.10311(17) 0.03051(10)
C9 C 0.84962(16) -0.2169(2) -0.16145(12)
H5 H 0.7995 -0.2850 -0.1368
H6 H 0.8918 -0.2748 -0.2000
H7 H 0.8114 -0.1365 -0.1953
C10 C 0.80568(11) 0.03321(17) 0.17288(9)
H8 H 0.7976 -0.0731 0.1921
H9 H 0.8812 0.0588 0.1831
C11 C 0.74624(11) 0.13521(18) 0.23174(9)
H10 H 0.7691 0.2428 0.2248
C12 C 0.62473(11) 0.12716(17) 0.21688(9)
H11 H 0.5957 0.1597 0.2723
C13 C 0.58748(11) -0.03243(18) 0.19571(10)
C14 C 0.59466(12) -0.07809(18) 0.10120(10)
H12 H 0.5230 -0.0924 0.0719
H13 H 0.6319 -0.1765 0.0998
C15 C 0.65207(11) 0.03973(17) 0.05030(9)
H14 H 0.6392 0.0122 -0.0133
C16 C 0.58043(11) 0.23225(17) 0.14282(10)
H15 H 0.6068 0.3373 0.1565
C17 C 0.40621(13) 0.39701(19) 0.07124(11)
H16 H 0.4526 0.3962 0.0231
H17 H 0.3330 0.3872 0.0444
C18 C 0.41807(17) 0.5473(2) 0.11846(13)
H18 H 0.3720 0.5495 0.1660
H19 H 0.3988 0.6298 0.0770
H20 H 0.4911 0.5601 0.1431
N1 N 0.86113(11) -0.05522(15) -0.04088(9)
O1 O 0.91780(9) -0.14978(15) -0.09094(8)
O2 O 0.80787(9) -0.23533(12) 0.05391(7)
O3 O 0.78021(8) 0.08496(13) 0.31840(7)
H21 H 0.7531 0.1399 0.3550
O4 O 0.61140(8) 0.18992(12) 0.05927(7)
O5 O 0.55423(9) -0.11668(13) 0.24908(8)
S1 S 0.43751(3) 0.23394(5) 0.14198(3)
loop_
_geom_bond_atom_site_label_1
_geom_bond_atom_site_label_2
_geom_bond_site_symmetry_1
_geom_bond_site_symmetry_2
C1 C2 1_555 1_555
C2 C3 1_555 1_555
C3 H1 1_555 1_555
C4 C3 1_555 1_555
H2 C4 1_555 1_555
C5 C4 1_555 1_555
H3 C5 1_555 1_555
C6 C1 1_555 1_555
H4 C6 1_555 1_555
C7 C2 1_555 1_555
C8 C7 1_555 1_555
C9 H5 1_555 1_555
H6 C9 1_555 1_555
H7 C9 1_555 1_555
C10 C7 1_555 1_555
H8 C10 1_555 1_555
H9 C10 1_555 1_555
C11 C10 1_555 1_555
H10 C11 1_555 1_555
C12 C11 1_555 1_555
H11 C12 1_555 1_555
C13 C12 1_555 1_555
C14 C13 1_555 1_555
H12 C14 1_555 1_555
H13 C14 1_555 1_555
C15 C7 1_555 1_555
H14 C15 1_555 1_555
C16 C12 1_555 1_555
H15 C16 1_555 1_555
C17 H16 1_555 1_555
H17 C17 1_555 1_555
C18 C17 1_555 1_555
H18 C18 1_555 1_555
H19 C18 1_555 1_555
H20 C18 1_555 1_555
N1 C1 1_555 1_555
O1 C9 1_555 1_555
O2 C8 1_555 1_555
O3 C11 1_555 1_555
H21 O3 1_555 1_555
O4 C15 1_555 1_555
O5 C13 1_555 1_555
S1 C16 1_555 1_555
C5 C6 1_555 1_555
C8 N1 1_555 1_555
C14 C15 1_555 1_555
C16 O4 1_555 1_555
C17 S1 1_555 1_555
N1 O1 1_555 1_555

#END
