
#######################################################################
#
#                 Cambridge Crystallographic Data Centre
#                                CCDC 
#
#######################################################################
#
# If this CIF has been generated from an entry in the Cambridge 
# Structural Database, then it will include bibliographic, chemical, 
# crystal, experimental, refinement or atomic coordinate data resulting 
# from the CCDC's data processing and validation procedures.
#
#######################################################################

data_BAKRAG
_chemical_formula_moiety         'C10 H7 N3 O2 S1'
_chemical_name_systematic        2-(2'-Pyridylthio)-3-nitropyridine
_symmetry_cell_setting           monoclinic
_symmetry_space_group_name_H-M   'P 21/c'
_symmetry_Int_Tables_number      14
_space_group_name_Hall           '-P 2ybc'
loop_
_symmetry_equiv_pos_site_id
_symmetry_equiv_pos_as_xyz
1 x,y,z
2 -x,1/2+y,1/2-z
3 -x,-y,-z
4 x,1/2-y,1/2+z
_cell_length_a                   10.400(1)
_cell_length_b                   13.296(1)
_cell_length_c                   7.396(1)
_cell_angle_alpha                90
_cell_angle_beta                 92.633(7)
_cell_angle_gamma                90
_cell_volume                     1021.63
_cell_formula_units_Z            4
loop_
_atom_site_label
_atom_site_type_symbol
_atom_site_fract_x
_atom_site_fract_y
_atom_site_fract_z
S1 S 0.20480 0.58520 0.29140
O1 O 0.52110 0.74170 0.56370
O2 O 0.33770 0.74540 0.41510
N1 N 0.41860 0.70320 0.51430
N2 N 0.26640 0.45130 0.54910
N3 N 0.20860 0.40410 0.13570
C1 C 0.29290 0.54360 0.48750
C2 C 0.39030 0.60160 0.57470
C3 C 0.46430 0.56290 0.71840
C4 C 0.43630 0.46750 0.77830
C5 C 0.33600 0.41620 0.69140
C6 C 0.13330 0.46880 0.21820
C7 C 0.00270 0.45550 0.23760
C8 C -0.05440 0.36950 0.16780
C9 C 0.02100 0.30040 0.08310
C10 C 0.15140 0.32020 0.07010
H1 H 0.53700 0.60200 0.76900
H2 H 0.48500 0.44000 0.88100
H3 H 0.30900 0.35000 0.73200
H4 H -0.04100 0.50800 0.30300
H5 H -0.15100 0.35800 0.17000
H6 H -0.01900 0.24300 0.03100
H7 H 0.20800 0.27200 0.00600
loop_
_geom_bond_atom_site_label_1
_geom_bond_atom_site_label_2
_geom_bond_site_symmetry_1
_geom_bond_site_symmetry_2
S1 C1 1_555 1_555
O1 N1 1_555 1_555
O2 N1 1_555 1_555
N1 C2 1_555 1_555
N2 C1 1_555 1_555
N3 C6 1_555 1_555
C1 C2 1_555 1_555
C2 C3 1_555 1_555
C3 C4 1_555 1_555
C4 C5 1_555 1_555
C5 N2 1_555 1_555
C6 S1 1_555 1_555
C7 C6 1_555 1_555
C8 C7 1_555 1_555
C9 C8 1_555 1_555
C10 N3 1_555 1_555
H1 C3 1_555 1_555
H2 C4 1_555 1_555
H3 C5 1_555 1_555
H4 C7 1_555 1_555
H5 C8 1_555 1_555
H6 C9 1_555 1_555
H7 C10 1_555 1_555
C9 C10 1_555 1_555

#END
