
#######################################################################
#
#                 Cambridge Crystallographic Data Centre
#                                CCDC 
#
#######################################################################
#
# If this CIF has been generated from an entry in the Cambridge 
# Structural Database, then it will include bibliographic, chemical, 
# crystal, experimental, refinement or atomic coordinate data resulting 
# from the CCDC's data processing and validation procedures.
#
#######################################################################

data_BAKXUJ
_chemical_formula_moiety         'C15 H13 Br1 O3'
_chemical_name_systematic        
4-(4-bromophenyl)-3,4,6,7-tetrahydro-2H-chromene-2,8(5H)-dione
_symmetry_cell_setting           orthorhombic
_symmetry_space_group_name_H-M   'P 21 21 21'
_symmetry_Int_Tables_number      19
_space_group_name_Hall           'P 2ac 2ab'
loop_
_symmetry_equiv_pos_site_id
_symmetry_equiv_pos_as_xyz
1 x,y,z
2 1/2-x,-y,1/2+z
3 -x,1/2+y,1/2-z
4 1/2+x,1/2-y,-z
_cell_length_a                   5.2767(2)
_cell_length_b                   8.2192(3)
_cell_length_c                   29.2713(11)
_cell_angle_alpha                90
_cell_angle_beta                 90
_cell_angle_gamma                90
_cell_volume                     1269.5
_exptl_crystal_colour            colorless
_exptl_crystal_description       Needle
_cell_formula_units_Z            4
loop_
_atom_site_label
_atom_site_type_symbol
_atom_site_fract_x
_atom_site_fract_y
_atom_site_fract_z
Br1 Br 0.46993(4) 0.81215(3) 0.182964(7)
O1 O 0.3403(2) 0.6969(2) 0.43602(5)
O2 O 0.4300(3) 0.4487(2) 0.41288(5)
O3 O 0.4054(3) 0.9317(2) 0.49835(5)
C1 C 0.2782(4) 0.5573(3) 0.41342(7)
C2 C 0.0197(4) 0.5516(2) 0.39199(6)
H1 H -0.1064 0.5213 0.4156
H2 H 0.0176 0.4662 0.3681
C3 C -0.0571(4) 0.7149(2) 0.37051(6)
H3 H -0.2438 0.7109 0.3647
C4 C -0.0102(4) 0.8472(2) 0.40477(6)
C5 C 0.1733(4) 0.8280(3) 0.43608(7)
C6 C 0.2245(4) 0.9474(3) 0.47309(7)
C7 C 0.0365(5) 1.0842(3) 0.47598(7)
H4 H 0.1152 1.1774 0.4921
H5 H -0.1118 1.0483 0.4941
C8 C -0.0524(5) 1.1393(3) 0.42890(7)
H6 H -0.1786 1.2276 0.4322
H7 H 0.0933 1.1822 0.4113
C9 C -0.1705(4) 0.9969(3) 0.40335(7)
H8 H -0.3380 0.9723 0.4169
H9 H -0.1979 1.0286 0.3711
C10 C 0.0735(4) 0.7446(3) 0.32459(6)
C11 C 0.2874(4) 0.8422(3) 0.32041(7)
H10 H 0.3521 0.8965 0.3466
C12 C 0.4084(4) 0.8618(3) 0.27850(7)
H11 H 0.5542 0.9289 0.2759
C13 C 0.3132(4) 0.7822(3) 0.24090(7)
C14 C 0.0981(4) 0.6855(3) 0.24367(7)
H12 H 0.0324 0.6331 0.2173
C15 C -0.0190(4) 0.6668(3) 0.28577(6)
H13 H -0.1650 0.5997 0.2882
loop_
_geom_bond_atom_site_label_1
_geom_bond_atom_site_label_2
_geom_bond_site_symmetry_1
_geom_bond_site_symmetry_2
Br1 C13 1_555 1_555
O1 C1 1_555 1_555
O2 C1 1_555 1_555
O3 C6 1_555 1_555
C1 C2 1_555 1_555
C2 H1 1_555 1_555
H2 C2 1_555 1_555
C3 C2 1_555 1_555
H3 C3 1_555 1_555
C4 C3 1_555 1_555
C5 O1 1_555 1_555
C6 C5 1_555 1_555
C7 C6 1_555 1_555
H4 C7 1_555 1_555
H5 C7 1_555 1_555
C8 C7 1_555 1_555
H6 C8 1_555 1_555
H7 C8 1_555 1_555
C9 C4 1_555 1_555
H8 C9 1_555 1_555
H9 C9 1_555 1_555
C10 C3 1_555 1_555
C11 C10 1_555 1_555
H10 C11 1_555 1_555
C12 C11 1_555 1_555
H11 C12 1_555 1_555
C13 C12 1_555 1_555
C14 C13 1_555 1_555
H12 C14 1_555 1_555
C15 C10 1_555 1_555
H13 C15 1_555 1_555
C4 C5 1_555 1_555
C8 C9 1_555 1_555
C14 C15 1_555 1_555

#END
