
#######################################################################
#
#                 Cambridge Crystallographic Data Centre
#                                CCDC 
#
#######################################################################
#
# If this CIF has been generated from an entry in the Cambridge 
# Structural Database, then it will include bibliographic, chemical, 
# crystal, experimental, refinement or atomic coordinate data resulting 
# from the CCDC's data processing and validation procedures.
#
#######################################################################

data_BALBIA
_chemical_formula_moiety         'C10 H17 I1 O2'
_chemical_name_systematic        
cis-4-Iodomethyl-3-t-butyltetrahydro-2H-pyran-2-one
_symmetry_cell_setting           orthorhombic
_symmetry_space_group_name_H-M   'P 21 21 21'
_symmetry_Int_Tables_number      19
_space_group_name_Hall           'P 2ac 2ab'
loop_
_symmetry_equiv_pos_site_id
_symmetry_equiv_pos_as_xyz
1 x,y,z
2 1/2-x,-y,1/2+z
3 1/2+x,1/2-y,-z
4 -x,1/2+y,1/2-z
_cell_length_a                   11.720(5)
_cell_length_b                   14.660(4)
_cell_length_c                   6.647(4)
_cell_angle_alpha                90
_cell_angle_beta                 90
_cell_angle_gamma                90
_cell_volume                     1142.06
_exptl_crystal_colour            colorless
_exptl_crystal_description       prismatic
_chemical_melting_point          96-98deg.C
_cell_formula_units_Z            4
loop_
_atom_site_label
_atom_site_type_symbol
_atom_site_fract_x
_atom_site_fract_y
_atom_site_fract_z
I1 I 0.14089(5) 0.96305(5) 0.0048(1)
O1 O -0.3007(5) 0.9286(5) -0.463(1)
O2 O -0.1975(5) 1.0498(4) -0.481(2)
C1 C -0.2068(6) 0.9592(6) -0.481(1)
C2 C -0.0970(6) 0.9060(5) -0.522(1)
C3 C 0.0012(7) 0.9449(6) -0.387(1)
C4 C 0.001(1) 1.0515(8) -0.404(2)
C5 C -0.0890(10) 1.0882(7) -0.523(3)
C6 C -0.0051(8) 0.9179(7) -0.167(2)
C7 C -0.1136(6) 0.8006(6) -0.514(2)
C8 C -0.185(1) 0.7782(9) -0.713(2)
C9 C -0.1736(9) 0.7582(6) -0.339(2)
C10 C 0.0036(7) 0.7541(7) -0.547(2)
H1 H -0.0958 0.9220 -0.6196
H2 H 0.0711 0.9225 -0.4384
H3 H 0.0724 1.0684 -0.4623
H4 H -0.0038 1.0753 -0.2721
H5 H -0.0938 1.1525 -0.4994
H6 H -0.0728 1.0787 -0.6625
H7 H -0.0723 0.9447 -0.1127
H8 H -0.0104 0.8537 -0.1607
H9 H -0.1812 0.7115 -0.7301
H10 H -0.2612 0.7939 -0.6913
H11 H -0.1521 0.8063 -0.8206
H12 H -0.2457 0.7872 -0.3286
H13 H -0.1299 0.7696 -0.2225
H14 H -0.1812 0.6962 -0.3642
H15 H -0.0074 0.6902 -0.5568
H16 H 0.0526 0.7677 -0.4381
H17 H 0.0350 0.7767 -0.6686
loop_
_geom_bond_atom_site_label_1
_geom_bond_atom_site_label_2
_geom_bond_site_symmetry_1
_geom_bond_site_symmetry_2
I1 C6 1_555 1_555
O1 C1 1_555 1_555
O2 C1 1_555 1_555
C1 C2 1_555 1_555
C2 C3 1_555 1_555
C3 C4 1_555 1_555
C4 C5 1_555 1_555
C5 O2 1_555 1_555
C6 C3 1_555 1_555
C7 C2 1_555 1_555
C8 C7 1_555 1_555
C9 C7 1_555 1_555
C10 C7 1_555 1_555
H1 C2 1_555 1_555
H2 C3 1_555 1_555
H3 C4 1_555 1_555
H4 C4 1_555 1_555
H5 C5 1_555 1_555
H6 C5 1_555 1_555
H7 C6 1_555 1_555
H8 C6 1_555 1_555
H9 C8 1_555 1_555
H10 C8 1_555 1_555
H11 C8 1_555 1_555
H12 C9 1_555 1_555
H13 C9 1_555 1_555
H14 C9 1_555 1_555
H15 C10 1_555 1_555
H16 C10 1_555 1_555
H17 C10 1_555 1_555

#END
