
#######################################################################
#
#                 Cambridge Crystallographic Data Centre
#                                CCDC 
#
#######################################################################
#
# If this CIF has been generated from an entry in the Cambridge 
# Structural Database, then it will include bibliographic, chemical, 
# crystal, experimental, refinement or atomic coordinate data resulting 
# from the CCDC's data processing and validation procedures.
#
#######################################################################

data_BALPIQ
_chemical_formula_moiety         'C23 H22 N2 O2 S1,H2 O1'
_chemical_name_systematic        
"(E)-N'-(1,3-diphenylbut-2-en-1-ylidene)-4-methylbenzene-1-sulfonohydrazide monohydrate"
_symmetry_cell_setting           triclinic
_symmetry_space_group_name_H-M   'P -1'
_symmetry_Int_Tables_number      2
_space_group_name_Hall           '-P 1'
loop_
_symmetry_equiv_pos_site_id
_symmetry_equiv_pos_as_xyz
1 x,y,z
2 -x,-y,-z
_cell_length_a                   8.0703(7)
_cell_length_b                   12.3631(12)
_cell_length_c                   12.8884(15)
_cell_angle_alpha                114.398(10)
_cell_angle_beta                 98.554(8)
_cell_angle_gamma                98.857(8)
_cell_volume                     1124.45
_exptl_crystal_colour            white
_exptl_crystal_description       block
_chemical_melting_point          '98-100 deg.C'
_cell_formula_units_Z            2
loop_
_atom_site_label
_atom_site_type_symbol
_atom_site_fract_x
_atom_site_fract_y
_atom_site_fract_z
S1 S 0.15325(10) 1.17649(7) 0.51161(7)
N1 N 0.1738(4) 1.0526(3) 0.4017(3)
N2 N 0.2038(3) 1.0708(2) 0.3062(2)
O1 O 0.1103(3) 1.1338(2) 0.5943(2)
O2 O 0.3046(3) 1.2703(2) 0.5446(2)
C1 C -0.0232(4) 1.2234(3) 0.4589(3)
C2 C -0.1893(5) 1.1658(4) 0.4487(4)
H1 H -0.2096 1.0993 0.4655
C3 C -0.3248(5) 1.2078(4) 0.4134(4)
H2 H -0.4369 1.1691 0.4067
C4 C -0.2982(5) 1.3060(3) 0.3876(3)
C5 C -0.1320(6) 1.3592(4) 0.3948(4)
H3 H -0.1119 1.4243 0.3760
C6 C 0.0070(5) 1.3183(4) 0.4296(4)
H4 H 0.1188 1.3546 0.4329
C7 C -0.4486(6) 1.3532(5) 0.3528(5)
H5 H -0.4108 1.4392 0.3765
H6 H -0.5380 1.3396 0.3907
H7 H -0.4925 1.3108 0.2694
C8 C 0.1885(4) 0.9741(3) 0.2117(3)
C9 C 0.2169(4) 0.9925(3) 0.1080(3)
C10 C 0.2044(5) 1.1009(4) 0.1025(4)
H8 H 0.1772 1.1628 0.1641
C11 C 0.2319(6) 1.1177(5) 0.0064(4)
H9 H 0.2248 1.1911 0.0042
C12 C 0.2700(7) 1.0259(6) -0.0864(4)
H10 H 0.2866 1.0368 -0.1517
C13 C 0.2831(7) 0.9199(6) -0.0820(4)
H11 H 0.3111 0.8588 -0.1439
C14 C 0.2552(6) 0.9009(4) 0.0144(4)
H12 H 0.2623 0.8271 0.0157
C15 C 0.1400(5) 0.8472(3) 0.1982(3)
H13 H 0.0297 0.8010 0.1543
C16 C 0.2401(5) 0.7936(3) 0.2430(3)
C17 C 0.4221(6) 0.8617(4) 0.3132(5)
H14 H 0.4444 0.9427 0.3186
H15 H 0.5021 0.8190 0.2750
H16 H 0.4357 0.8668 0.3904
C18 C 0.1793(5) 0.6663(3) 0.2232(3)
C19 C 0.0655(9) 0.4237(4) 0.1857(5)
H17 H 0.0119 0.3504 0.1836
C20 C 0.0015(11) 0.6188(8) 0.2050(9)
H18 H -0.0743 0.6685 0.2060
C21 C -0.0647(17) 0.4975(9) 0.1852(11)
H19 H -0.1820 0.4655 0.1728
C22 C 0.2337(17) 0.4798(12) 0.2197(17)
H20 H 0.3138 0.4373 0.2325
C23 C 0.2928(19) 0.5981(11) 0.2365(16)
H21 H 0.4109 0.6321 0.2570
O3 O 0.450(2) 0.3663(10) -0.050(2)
H22 H 0.4971 0.4000 -0.0869
H23 H 0.4248 0.4209 0.0080
C24? C 0.0591(14) 0.5796(7) 0.1199(8)
H24? H 0.0152 0.6034 0.0639
C25? C 0.0048(17) 0.4584(8) 0.0998(9)
H25? H -0.0713 0.4013 0.0298
C26? C 0.2069(16) 0.5012(10) 0.2734(11)
H26? H 0.2653 0.4732 0.3213
C27? C 0.2636(14) 0.6203(10) 0.2917(10)
H27? H 0.3605 0.6708 0.3512
O4? O 0.517(3) 0.3885(12) 0.032(4)
H28? H 0.2618 1.0264 0.4276
H29? H 0.0770 0.9933 0.3782
loop_
_geom_bond_atom_site_label_1
_geom_bond_atom_site_label_2
_geom_bond_site_symmetry_1
_geom_bond_site_symmetry_2
S1 N1 1_555 1_555
N1 N2 1_555 1_555
N2 C8 1_555 1_555
O1 S1 1_555 1_555
O2 S1 1_555 1_555
C1 S1 1_555 1_555
C2 C1 1_555 1_555
H1 C2 1_555 1_555
C3 C2 1_555 1_555
H2 C3 1_555 1_555
C4 C3 1_555 1_555
C5 C4 1_555 1_555
H3 C5 1_555 1_555
C6 C1 1_555 1_555
H4 C6 1_555 1_555
C7 C4 1_555 1_555
H5 C7 1_555 1_555
H6 C7 1_555 1_555
H7 C7 1_555 1_555
C8 C9 1_555 1_555
C9 C10 1_555 1_555
C10 H8 1_555 1_555
C11 C10 1_555 1_555
H9 C11 1_555 1_555
C12 C11 1_555 1_555
H10 C12 1_555 1_555
C13 C12 1_555 1_555
H11 C13 1_555 1_555
C14 C9 1_555 1_555
H12 C14 1_555 1_555
C15 C8 1_555 1_555
H13 C15 1_555 1_555
C16 C15 1_555 1_555
C17 C16 1_555 1_555
H14 C17 1_555 1_555
H15 C17 1_555 1_555
H16 C17 1_555 1_555
C18 C16 1_555 1_555
C19 H17 1_555 1_555
C20 C18 1_555 1_555
H18 C20 1_555 1_555
C21 C19 1_555 1_555
H19 C21 1_555 1_555
C22 C19 1_555 1_555
H20 C22 1_555 1_555
C23 C18 1_555 1_555
H21 C23 1_555 1_555
O3 H22 1_555 1_555
H23 O3 1_555 1_555
C5 C6 1_555 1_555
C13 C14 1_555 1_555
C20 C21 1_555 1_555
C22 C23 1_555 1_555

#END
