
#######################################################################
#
#                 Cambridge Crystallographic Data Centre
#                                CCDC 
#
#######################################################################
#
# If this CIF has been generated from an entry in the Cambridge 
# Structural Database, then it will include bibliographic, chemical, 
# crystal, experimental, refinement or atomic coordinate data resulting 
# from the CCDC's data processing and validation procedures.
#
#######################################################################

data_BAMVAP
_chemical_formula_moiety         'C15 H15 N3 O4,0.51(H2 O1)'
_chemical_name_systematic        
'10-(3-hydroxypropyl)-9-methoxypyrimido[4,5-b]quinoline-2,4(3H,10H)-dione hydrate'
_symmetry_cell_setting           monoclinic
_symmetry_space_group_name_H-M   'P 21/n'
_symmetry_Int_Tables_number      14
_space_group_name_Hall           '-P 2yn'
loop_
_symmetry_equiv_pos_site_id
_symmetry_equiv_pos_as_xyz
1 x,y,z
2 1/2-x,1/2+y,1/2-z
3 -x,-y,-z
4 1/2+x,1/2-y,1/2+z
_cell_length_a                   10.524(2)
_cell_length_b                   7.0115(14)
_cell_length_c                   19.304(4)
_cell_angle_alpha                90
_cell_angle_beta                 90.28(3)
_cell_angle_gamma                90
_cell_volume                     1424.41
_exptl_crystal_colour            yellow
_exptl_crystal_description       prism
_cell_formula_units_Z            4
loop_
_atom_site_label
_atom_site_type_symbol
_atom_site_fract_x
_atom_site_fract_y
_atom_site_fract_z
N1 N 0.7363(2) 0.8399(4) 0.58636(12)
C1 C 0.8407(3) 0.8899(5) 0.55028(15)
N2 N 0.8387(3) 0.8940(4) 0.47850(13)
H1 H 0.909(3) 0.931(4) 0.4626(15)
C2 C 0.7354(3) 0.8513(5) 0.43846(15)
C3 C 0.6213(3) 0.8015(4) 0.47815(13)
C4 C 0.5109(3) 0.7568(5) 0.44688(17)
H2 H 0.506(2) 0.760(3) 0.4050(14)
C5 C 0.4018(3) 0.7110(4) 0.48461(15)
C6 C 0.2860(3) 0.6683(5) 0.45016(17)
H3 H 0.283(3) 0.678(4) 0.4032(16)
C7 C 0.1809(4) 0.6258(6) 0.48786(18)
H4 H 0.104(4) 0.592(6) 0.4629(18)
C8 C 0.1868(3) 0.6267(5) 0.55928(19)
H5 H 0.119(3) 0.602(5) 0.5857(17)
C9 C 0.2961(3) 0.6682(5) 0.59528(16)
C10 C 0.4086(3) 0.7088(5) 0.55752(15)
C11 C 0.6313(3) 0.8000(5) 0.55146(14)
O1 O 0.94006(20) 0.9356(4) 0.58027(11)
O2 O 0.7387(2) 0.8579(4) 0.37578(10)
O3 O 0.2965(6) 0.6972(15) 0.6649(5)
C12 C 0.1812(9) 0.701(2) 0.7022(7)
H6 H 0.127562 0.598463 0.686969
H7 H 0.198823 0.687044 0.750802
H8 H 0.138899 0.820501 0.694269
N3 N 0.5347(5) 0.7437(12) 0.58895(17)
C13 C 0.5574(7) 0.6799(19) 0.6627(3)
H9 H 0.493767 0.588485 0.675537
H10 H 0.639688 0.621752 0.666395
C14 C 0.5509(7) 0.8475(19) 0.7103(3)
H11 H 0.472652 0.914847 0.702526
H12 H 0.622466 0.92926 0.702318
C15 C 0.5552(10) 0.770(2) 0.7887(4)
H13 H 0.484504 0.68631 0.796403
H14 H 0.556033 0.876102 0.820143
O4 O 0.6637(9) 0.672(2) 0.7953(3)
H15 H 0.661(4) 0.609(11) 0.830(3)
O7 O 0.8935(7) 0.7611(14) 0.7327(5)
H26 H 0.820(7) 0.762(15) 0.757(6)
H27 H 0.914(11) 0.881(6) 0.721(7)
O5? O 0.3141(11) 0.633(3) 0.6638(8)
C16? C 0.2040(14) 0.597(3) 0.7036(9)
H16? H 0.164123 0.481523 0.687668
H17? H 0.145874 0.701326 0.698679
H18? H 0.227437 0.582812 0.751476
N4? N 0.5073(11) 0.7593(18) 0.5906(3)
C17? C 0.5306(12) 0.825(2) 0.6642(4)
H19? H 0.453252 0.874689 0.683062
H20? H 0.5942 0.922661 0.664538
C18? C 0.5748(12) 0.660(2) 0.7073(4)
H21? H 0.516165 0.556317 0.702389
H22? H 0.658404 0.623192 0.693
C19? C 0.5790(14) 0.728(3) 0.7869(5)
H23? H 0.495669 0.767768 0.800902
H24? H 0.611846 0.626843 0.815199
O6? O 0.6582(14) 0.877(2) 0.7896(4)
H25? H 0.649(5) 0.932(11) 0.826(3)
loop_
_geom_bond_atom_site_label_1
_geom_bond_atom_site_label_2
_geom_bond_site_symmetry_1
_geom_bond_site_symmetry_2
N1 C1 1_555 1_555
C1 N2 1_555 1_555
N2 H1 1_555 1_555
C2 N2 1_555 1_555
C3 C2 1_555 1_555
C4 C3 1_555 1_555
H2 C4 1_555 1_555
C5 C4 1_555 1_555
C6 C5 1_555 1_555
H3 C6 1_555 1_555
C7 C6 1_555 1_555
H4 C7 1_555 1_555
C8 C7 1_555 1_555
H5 C8 1_555 1_555
C9 C8 1_555 1_555
C10 C5 1_555 1_555
C11 N1 1_555 1_555
O1 C1 1_555 1_555
O2 C2 1_555 1_555
O3 C9 1_555 1_555
C12 O3 1_555 1_555
H6 C12 1_555 1_555
H7 C12 1_555 1_555
H8 C12 1_555 1_555
N3 C10 1_555 1_555
C13 N3 1_555 1_555
H9 C13 1_555 1_555
H10 C13 1_555 1_555
C14 C13 1_555 1_555
H11 C14 1_555 1_555
H12 C14 1_555 1_555
C15 C14 1_555 1_555
H13 C15 1_555 1_555
H14 C15 1_555 1_555
O4 C15 1_555 1_555
H15 O4 1_555 1_555
O7 H26 1_555 1_555
H27 O7 1_555 1_555
C3 C11 1_555 1_555
C9 C10 1_555 1_555
C11 N3 1_555 1_555

#END
