
#######################################################################
#
#                 Cambridge Crystallographic Data Centre
#                                CCDC 
#
#######################################################################
#
# If this CIF has been generated from an entry in the Cambridge 
# Structural Database, then it will include bibliographic, chemical, 
# crystal, experimental, refinement or atomic coordinate data resulting 
# from the CCDC's data processing and validation procedures.
#
#######################################################################

data_BAMYOF
_chemical_formula_moiety         'C22 H36 Br1 N1 O2 S1'
_chemical_name_systematic        
2-(1-Bromopropyl)-1-((2,4,6-triisopropylphenyl)sulfonyl)pyrrolidine
_symmetry_cell_setting           monoclinic
_symmetry_space_group_name_H-M   'P 21'
_symmetry_Int_Tables_number      4
_space_group_name_Hall           'P 2yb'
loop_
_symmetry_equiv_pos_site_id
_symmetry_equiv_pos_as_xyz
1 x,y,z
2 -x,1/2+y,-z
_cell_length_a                   8.8276(18)
_cell_length_b                   11.186(2)
_cell_length_c                   12.244(2)
_cell_angle_alpha                90
_cell_angle_beta                 107.07(3)
_cell_angle_gamma                90
_cell_volume                     1155.78
_exptl_crystal_colour            colorless
_exptl_crystal_description       block
_cell_formula_units_Z            2
loop_
_atom_site_label
_atom_site_type_symbol
_atom_site_fract_x
_atom_site_fract_y
_atom_site_fract_z
Br1 Br 0.55328(4) 0.73750(3) 0.22865(2)
S1 S 0.59541(7) 0.64999(5) 0.63445(5)
O1 O 0.7177(2) 0.72211(16) 0.61251(14)
O2 O 0.4663(2) 0.71491(15) 0.65445(14)
N1 N 0.5324(2) 0.55931(17) 0.52400(16)
C1 C 0.6828(3) 0.54896(19) 0.7487(2)
C2 C 0.6254(3) 0.53789(19) 0.8450(2)
C3 C 0.7087(3) 0.4630(2) 0.9327(2)
H1 H 0.6728 0.4556 0.9984
C4 C 0.8414(3) 0.3985(2) 0.9294(2)
C5 C 0.8921(3) 0.4105(2) 0.8331(2)
H2 H 0.9822 0.3662 0.8291
C6 C 0.8177(3) 0.4842(2) 0.7425(2)
C7 C 0.4818(3) 0.6037(2) 0.8623(2)
H3 H 0.4028 0.6146 0.7855
C8 C 0.5317(3) 0.7286(3) 0.9126(2)
H4 H 0.6155 0.7208 0.9853
H5 H 0.4401 0.7692 0.9256
H6 H 0.5712 0.7755 0.8590
C9 C 0.4002(3) 0.5358(2) 0.9374(2)
H7 H 0.3786 0.4537 0.9094
H8 H 0.3003 0.5756 0.9348
H9 H 0.4694 0.5346 1.0163
C10 C 0.9264(3) 0.3194(2) 1.0286(2)
H10 H 0.8523 0.3053 1.0754
C11 C 1.0729(3) 0.3813(3) 1.1053(2)
H11 H 1.1485 0.3962 1.0620
H12 H 1.1224 0.3300 1.1710
H13 H 1.0422 0.4575 1.1322
C12 C 0.9686(4) 0.1973(2) 0.9897(3)
H14 H 0.8734 0.1606 0.9383
H15 H 1.0108 0.1458 1.0565
H16 H 1.0487 0.2072 0.9494
C13 C 0.8906(3) 0.4890(2) 0.6439(2)
H17 H 0.8164 0.5342 0.5798
C14 C 1.0473(4) 0.5573(4) 0.6810(3)
H18 H 1.1250 0.5114 0.7397
H19 H 1.0305 0.6352 0.7122
H20 H 1.0870 0.5691 0.6149
C15 C 0.9132(4) 0.3647(3) 0.5998(3)
H21 H 0.9909 0.3203 0.6597
H22 H 0.9512 0.3721 0.5326
H23 H 0.8118 0.3219 0.5789
C16 C 0.4018(3) 0.4767(2) 0.5314(2)
H24 H 0.3840 0.4822 0.6074
H25 H 0.4274 0.3929 0.5177
C17 C 0.2580(3) 0.5192(2) 0.4390(2)
H26 H 0.2046 0.5856 0.4664
H27 H 0.1814 0.4533 0.4115
C18 C 0.3277(3) 0.5608(3) 0.3465(2)
H28 H 0.2545 0.6160 0.2930
H29 H 0.3508 0.4921 0.3030
C19 C 0.4803(3) 0.6249(2) 0.4119(2)
H30 H 0.4546 0.7094 0.4262
C20 C 0.6148(3) 0.6244(2) 0.3578(2)
H31 H 0.7114 0.6568 0.4151
C21 C 0.6573(3) 0.5036(2) 0.3177(2)
H32 H 0.6668 0.4442 0.3793
H33 H 0.5701 0.4775 0.2507
C22 C 0.8102(4) 0.5050(4) 0.2854(3)
H34 H 0.7984 0.5579 0.2196
H35 H 0.8347 0.4239 0.2655
H36 H 0.8965 0.5342 0.3501
loop_
_geom_bond_atom_site_label_1
_geom_bond_atom_site_label_2
_geom_bond_site_symmetry_1
_geom_bond_site_symmetry_2
Br1 C20 1_555 1_555
S1 O1 1_555 1_555
O2 S1 1_555 1_555
N1 S1 1_555 1_555
C1 S1 1_555 1_555
C2 C1 1_555 1_555
C3 C2 1_555 1_555
H1 C3 1_555 1_555
C4 C3 1_555 1_555
C5 C4 1_555 1_555
H2 C5 1_555 1_555
C6 C1 1_555 1_555
C7 C2 1_555 1_555
H3 C7 1_555 1_555
C8 C7 1_555 1_555
H4 C8 1_555 1_555
H5 C8 1_555 1_555
H6 C8 1_555 1_555
C9 C7 1_555 1_555
H7 C9 1_555 1_555
H8 C9 1_555 1_555
H9 C9 1_555 1_555
C10 C4 1_555 1_555
H10 C10 1_555 1_555
C11 C10 1_555 1_555
H11 C11 1_555 1_555
H12 C11 1_555 1_555
H13 C11 1_555 1_555
C12 C10 1_555 1_555
H14 C12 1_555 1_555
H15 C12 1_555 1_555
H16 C12 1_555 1_555
C13 C6 1_555 1_555
H17 C13 1_555 1_555
C14 C13 1_555 1_555
H18 C14 1_555 1_555
H19 C14 1_555 1_555
H20 C14 1_555 1_555
C15 C13 1_555 1_555
H21 C15 1_555 1_555
H22 C15 1_555 1_555
H23 C15 1_555 1_555
C16 N1 1_555 1_555
H24 C16 1_555 1_555
H25 C16 1_555 1_555
C17 C16 1_555 1_555
H26 C17 1_555 1_555
H27 C17 1_555 1_555
C18 C17 1_555 1_555
H28 C18 1_555 1_555
H29 C18 1_555 1_555
C19 N1 1_555 1_555
H30 C19 1_555 1_555
C20 C19 1_555 1_555
H31 C20 1_555 1_555
C21 C20 1_555 1_555
H32 C21 1_555 1_555
H33 C21 1_555 1_555
C22 C21 1_555 1_555
H34 C22 1_555 1_555
H35 C22 1_555 1_555
H36 C22 1_555 1_555
C5 C6 1_555 1_555
C18 C19 1_555 1_555

#END
