
#######################################################################
#
#                 Cambridge Crystallographic Data Centre
#                                CCDC 
#
#######################################################################
#
# If this CIF has been generated from an entry in the Cambridge 
# Structural Database, then it will include bibliographic, chemical, 
# crystal, experimental, refinement or atomic coordinate data resulting 
# from the CCDC's data processing and validation procedures.
#
#######################################################################

data_BAMYIX
_chemical_formula_moiety         'C32 H36 N2 P2'
_chemical_name_systematic        
6,13-Dimethyl-cis-2,17-diphenyl-2,17-diphospha-6,13-diazatricyclo(16.4.0.0^7,12^)docosa-7(12),8,10,1(18),19,21-hexaene
_symmetry_cell_setting           monoclinic
_symmetry_space_group_name_H-M   'C 2/c'
_symmetry_Int_Tables_number      15
_space_group_name_Hall           '-C 2yn'
loop_
_symmetry_equiv_pos_site_id
_symmetry_equiv_pos_as_xyz
1 x,y,z
2 1/2+x,1/2+y,z
3 -x,y,1/2-z
4 1/2-x,1/2+y,1/2-z
5 -x,-y,-z
6 1/2-x,1/2-y,-z
7 x,-y,1/2+z
8 1/2+x,1/2-y,1/2+z
_cell_length_a                   37.396(16)
_cell_length_b                   7.728(3)
_cell_length_c                   19.594(7)
_cell_angle_alpha                90
_cell_angle_beta                 101.51(4)
_cell_angle_gamma                90
_cell_volume                     5548.72
_exptl_crystal_colour            white
_chemical_melting_point          116-8deg.C
_cell_formula_units_Z            8
loop_
_atom_site_label
_atom_site_type_symbol
_atom_site_fract_x
_atom_site_fract_y
_atom_site_fract_z
P1 P 0.12665 0.84039 0.47801
P2 P 0.08525 0.59216 0.55667
N1 N 0.16109 0.16500 0.64800
N2 N 0.20182 0.39410 0.57850
C1 C 0.16092 0.67230 0.47600
C2 C 0.19508 0.69610 0.53460
C3 C 0.21770 0.53350 0.54400
C4 C 0.12936 0.23040 0.59920
C5 C 0.09715 0.28460 0.63080
C6 C 0.06870 0.37370 0.57560
C7 C 0.06712 0.61970 0.46280
C8 C 0.08675 0.72840 0.42590
C9 C 0.07567 0.74450 0.35430
C10 C 0.04604 0.65400 0.31880
C11 C 0.02677 0.54770 0.35410
C12 C 0.03725 0.53140 0.42550
C13 C 0.20370 0.40790 0.65230
C14 C 0.18410 0.28940 0.68640
C15 C 0.18980 0.29310 0.75900
C16 C 0.21300 0.41180 0.79790
C17 C 0.23010 0.53180 0.76450
C18 C 0.22550 0.52940 0.69260
C19 C 0.15360 0.00680 0.68350
C20 C 0.21400 0.22580 0.55670
C21 C 0.13564 1.00930 0.41770
C22 C 0.16781 1.01940 0.39240
C23 C 0.17399 1.16020 0.35200
C24 C 0.14800 1.29100 0.33700
C25 C 0.11583 1.28080 0.36220
C26 C 0.10965 1.14000 0.40270
C27 C 0.05592 0.73350 0.59740
C28 C 0.06630 0.75420 0.66920
C29 C 0.04626 0.86210 0.70440
C30 C 0.01585 0.94940 0.66780
C31 C 0.00550 0.92870 0.59590
C32 C 0.02551 0.82080 0.56080
loop_
_geom_bond_atom_site_label_1
_geom_bond_atom_site_label_2
_geom_bond_site_symmetry_1
_geom_bond_site_symmetry_2
P1 C1 1_555 1_555
P2 C6 1_555 1_555
N1 C4 1_555 1_555
N2 C3 1_555 1_555
C1 C2 1_555 1_555
C2 C3 1_555 1_555
C4 C5 1_555 1_555
C5 C6 1_555 1_555
C7 P2 1_555 1_555
C8 P1 1_555 1_555
C9 C8 1_555 1_555
C10 C9 1_555 1_555
C11 C10 1_555 1_555
C12 C7 1_555 1_555
C13 N2 1_555 1_555
C14 N1 1_555 1_555
C15 C14 1_555 1_555
C16 C15 1_555 1_555
C17 C16 1_555 1_555
C18 C13 1_555 1_555
C19 N1 1_555 1_555
C20 N2 1_555 1_555
C21 P1 1_555 1_555
C22 C21 1_555 1_555
C23 C22 1_555 1_555
C24 C23 1_555 1_555
C25 C24 1_555 1_555
C26 C21 1_555 1_555
C27 P2 1_555 1_555
C28 C27 1_555 1_555
C29 C28 1_555 1_555
C30 C29 1_555 1_555
C31 C30 1_555 1_555
C32 C27 1_555 1_555
C7 C8 1_555 1_555
C11 C12 1_555 1_555
C13 C14 1_555 1_555
C17 C18 1_555 1_555
C25 C26 1_555 1_555
C31 C32 1_555 1_555

#END
