
#######################################################################
#
#                 Cambridge Crystallographic Data Centre
#                                CCDC 
#
#######################################################################
#
# If this CIF has been generated from an entry in the Cambridge 
# Structural Database, then it will include bibliographic, chemical, 
# crystal, experimental, refinement or atomic coordinate data resulting 
# from the CCDC's data processing and validation procedures.
#
#######################################################################

data_BANNIP
_chemical_formula_moiety         'C30 H48 O4'
_chemical_name_systematic        '3,12-Dihydroxylanosta-8,24-dien-26-oic acid'
_symmetry_cell_setting           orthorhombic
_symmetry_space_group_name_H-M   'P 21 21 21'
_symmetry_Int_Tables_number      19
_space_group_name_Hall           'P 2ac 2ab'
loop_
_symmetry_equiv_pos_site_id
_symmetry_equiv_pos_as_xyz
1 x,y,z
2 1/2-x,-y,1/2+z
3 -x,1/2+y,1/2-z
4 1/2+x,1/2-y,-z
_cell_length_a                   6.9193(5)
_cell_length_b                   16.2698(11)
_cell_length_c                   24.4537(16)
_cell_angle_alpha                90
_cell_angle_beta                 90
_cell_angle_gamma                90
_cell_volume                     2752.89
_exptl_crystal_colour            colorless
_exptl_crystal_description       block
_cell_formula_units_Z            4
loop_
_atom_site_label
_atom_site_type_symbol
_atom_site_fract_x
_atom_site_fract_y
_atom_site_fract_z
C1 C 0.5197(3) 0.84069(14) 0.86569(9)
C2 C 0.2683(5) 0.57007(15) 0.82351(11)
H1 H 0.1647 0.5877 0.7995
H2 H 0.3891 0.5766 0.8039
C3 C 0.2404(5) 0.47991(17) 0.83703(13)
H3 H 0.1142 0.4724 0.8536
H4 H 0.2435 0.4482 0.8035
C4 C 0.3934(5) 0.44758(16) 0.87554(12)
H5 H 0.3613 0.3907 0.8852
C5 C 0.4106(5) 0.49818(16) 0.92845(11)
C6 C 0.4257(4) 0.59062(15) 0.91335(9)
H6 H 0.5461 0.5944 0.8924
C7 C 0.4569(5) 0.64912(16) 0.96140(10)
H7 H 0.3348 0.6593 0.9797
H8 H 0.5447 0.6243 0.9876
C8 C 0.5403(5) 0.72927(16) 0.94106(10)
H9 H 0.5196 0.7712 0.9686
H10 H 0.6786 0.7228 0.9364
C9 C 0.4543(4) 0.75836(14) 0.88781(9)
C10 C 0.3310(4) 0.71353(14) 0.85880(9)
C11 C 0.2711(4) 0.62558(14) 0.87425(10)
C12 C 0.2403(4) 0.74781(15) 0.80714(10)
H11 H 0.1047 0.7326 0.8075
H12 H 0.2990 0.7197 0.7764
C13 C 0.2513(4) 0.84111(15) 0.79541(9)
H13 H 0.1192 0.8616 0.7905
C14 C 0.3450(4) 0.88972(14) 0.84244(9)
C15 C 0.6776(4) 0.82241(16) 0.82280(11)
H14 H 0.7816 0.7928 0.8398
H15 H 0.7257 0.8732 0.8081
H16 H 0.6238 0.7898 0.7938
C16 C 0.6036(4) 0.90266(16) 0.90640(11)
H17 H 0.7386 0.8910 0.9137
H18 H 0.5327 0.9015 0.9406
C17 C 0.5808(4) 0.98606(16) 0.87808(12)
H19 H 0.7045 1.0046 0.8641
H20 H 0.5332 1.0266 0.9038
C18 C 0.4344(4) 0.97520(14) 0.83026(10)
H21 H 0.5090 0.9705 0.7963
C19 C 0.1862(4) 0.89833(16) 0.88644(10)
H22 H 0.0766 0.9262 0.8711
H23 H 0.2356 0.9294 0.9168
H24 H 0.1479 0.8447 0.8988
C20 C 0.0644(5) 0.63067(19) 0.89815(15)
H25 H -0.0158 0.6626 0.8742
H26 H 0.0690 0.6562 0.9335
H27 H 0.0119 0.5763 0.9016
C21 C 0.2994(4) 1.04988(15) 0.82442(12)
H28 H 0.2286 1.0556 0.8589
C22 C 0.1507(5) 1.0412(2) 0.77910(14)
H29 H 0.0697 1.0890 0.7784
H30 H 0.0729 0.9933 0.7857
H31 H 0.2156 1.0356 0.7446
C23 C 0.4162(5) 1.12906(15) 0.81601(13)
H32 H 0.4651 1.1299 0.7788
H33 H 0.5266 1.1282 0.8404
C24 C 0.3009(5) 1.20843(16) 0.82613(12)
H34 H 0.3829 1.2555 0.8189
H35 H 0.1925 1.2106 0.8010
C25 C 0.2281(5) 1.21316(15) 0.88296(11)
H36 H 0.3121 1.1912 0.9088
C26 C 0.0663(4) 1.24275(15) 0.90387(10)
C27 C -0.0853(5) 1.28332(18) 0.87059(12)
C28 C 0.0241(5) 1.2415(2) 0.96412(11)
H37 H 0.1317 1.2178 0.9833
H38 H -0.0897 1.2093 0.9708
H39 H 0.0034 1.2966 0.9768
C29 C 0.5939(6) 0.47257(19) 0.95887(12)
H40 H 0.6017 0.4137 0.9600
H41 H 0.5902 0.4938 0.9955
H42 H 0.7050 0.4941 0.9402
C30 C 0.2384(6) 0.47673(19) 0.96575(14)
H43 H 0.2540 0.4220 0.9797
H44 H 0.1206 0.4800 0.9451
H45 H 0.2333 0.5148 0.9957
O1 O 0.5741(4) 0.44794(13) 0.84646(9)
H46 H 0.6344 0.4059 0.8537
O2 O 0.3511(3) 0.84938(13) 0.74422(7)
H47 H 0.468663 0.883487 0.749458
O3 O -0.1667(11) 1.3407(4) 0.8936(3)
O4 O -0.1150(11) 1.2582(3) 0.8222(2)
H48 H -0.2018 1.2854 0.8082
H49? H -0.1465 1.3214 0.8069
O5? O -0.2442(12) 1.3022(6) 0.8910(4)
O6? O -0.0516(12) 1.2992(5) 0.8205(3)
loop_
_geom_bond_atom_site_label_1
_geom_bond_atom_site_label_2
_geom_bond_site_symmetry_1
_geom_bond_site_symmetry_2
C1 C9 1_555 1_555
C2 H1 1_555 1_555
H2 C2 1_555 1_555
C3 C2 1_555 1_555
H3 C3 1_555 1_555
H4 C3 1_555 1_555
C4 C3 1_555 1_555
H5 C4 1_555 1_555
C5 C4 1_555 1_555
C6 C5 1_555 1_555
H6 C6 1_555 1_555
C7 C6 1_555 1_555
H7 C7 1_555 1_555
H8 C7 1_555 1_555
C8 C7 1_555 1_555
H9 C8 1_555 1_555
H10 C8 1_555 1_555
C9 C8 1_555 1_555
C10 C9 1_555 1_555
C11 C2 1_555 1_555
C12 C10 1_555 1_555
H11 C12 1_555 1_555
H12 C12 1_555 1_555
C13 C12 1_555 1_555
H13 C13 1_555 1_555
C14 C1 1_555 1_555
C15 C1 1_555 1_555
H14 C15 1_555 1_555
H15 C15 1_555 1_555
H16 C15 1_555 1_555
C16 C1 1_555 1_555
H17 C16 1_555 1_555
H18 C16 1_555 1_555
C17 C16 1_555 1_555
H19 C17 1_555 1_555
H20 C17 1_555 1_555
C18 C14 1_555 1_555
H21 C18 1_555 1_555
C19 C14 1_555 1_555
H22 C19 1_555 1_555
H23 C19 1_555 1_555
H24 C19 1_555 1_555
C20 C11 1_555 1_555
H25 C20 1_555 1_555
H26 C20 1_555 1_555
H27 C20 1_555 1_555
C21 C18 1_555 1_555
H28 C21 1_555 1_555
C22 C21 1_555 1_555
H29 C22 1_555 1_555
H30 C22 1_555 1_555
H31 C22 1_555 1_555
C23 C21 1_555 1_555
H32 C23 1_555 1_555
H33 C23 1_555 1_555
C24 C23 1_555 1_555
H34 C24 1_555 1_555
H35 C24 1_555 1_555
C25 C24 1_555 1_555
H36 C25 1_555 1_555
C26 C25 1_555 1_555
C27 C26 1_555 1_555
C28 C26 1_555 1_555
H37 C28 1_555 1_555
H38 C28 1_555 1_555
H39 C28 1_555 1_555
C29 C5 1_555 1_555
H40 C29 1_555 1_555
H41 C29 1_555 1_555
H42 C29 1_555 1_555
C30 C5 1_555 1_555
H43 C30 1_555 1_555
H44 C30 1_555 1_555
H45 C30 1_555 1_555
O1 C4 1_555 1_555
H46 O1 1_555 1_555
O2 C13 1_555 1_555
H47 O2 1_555 1_555
O3 C27 1_555 1_555
O4 C27 1_555 1_555
H48 O4 1_555 1_555
C6 C11 1_555 1_555
C10 C11 1_555 1_555
C13 C14 1_555 1_555
C17 C18 1_555 1_555

#END
