
#######################################################################
#
#                 Cambridge Crystallographic Data Centre
#                                CCDC 
#
#######################################################################
#
# If this CIF has been generated from an entry in the Cambridge 
# Structural Database, then it will include bibliographic, chemical, 
# crystal, experimental, refinement or atomic coordinate data resulting 
# from the CCDC's data processing and validation procedures.
#
#######################################################################

data_BAPPEP
_chemical_compound_source        'aerial parts of Physalis longifolia'
_chemical_name_common            'Withalongolide A'
_chemical_formula_moiety         'C28 H38 O7'
_chemical_name_systematic        
4,19,27-Trihydroxy-5,6:22,26-diepoxyergosta-2,24-diene-1,26-dione
_symmetry_cell_setting           monoclinic
_symmetry_space_group_name_H-M   'P 21'
_symmetry_Int_Tables_number      4
_space_group_name_Hall           'P 2yb'
loop_
_symmetry_equiv_pos_site_id
_symmetry_equiv_pos_as_xyz
1 x,y,z
2 -x,1/2+y,-z
_cell_length_a                   8.370(2)
_cell_length_b                   10.523(3)
_cell_length_c                   14.280(3)
_cell_angle_alpha                90
_cell_angle_beta                 104.552(4)
_cell_angle_gamma                90
_cell_volume                     1217.4
_exptl_crystal_colour            colorless
_exptl_crystal_description       'triangular plate'
_cell_formula_units_Z            2
loop_
_atom_site_label
_atom_site_type_symbol
_atom_site_fract_x
_atom_site_fract_y
_atom_site_fract_z
O1 O 0.22457(16) 0.31764(13) -0.38634(9)
O2 O 0.11263(16) 0.43847(12) 0.29537(9)
O3 O 0.77761(16) 0.42670(13) -0.20374(9)
O4 O 0.50205(18) 0.36362(15) -0.49042(10)
H1 H 0.478(4) 0.422(3) -0.465(2)
O5 O 0.44761(18) 0.54909(14) -0.37585(9)
H2 H 0.386(3) 0.613(3) -0.3869(19)
O6 O 0.00707(17) 0.50155(13) 0.41252(9)
O7 O -0.27983(16) 0.27289(14) 0.40073(9)
H3 H -0.326(3) 0.310(3) 0.430(2)
C1 C 0.6795(2) 0.35392(17) -0.25500(12)
C2 C 0.7375(2) 0.24605(19) -0.30335(13)
H4 H 0.846(2) 0.216(2) -0.2747(14)
C3 C 0.6476(2) 0.20028(19) -0.38617(13)
H5 H 0.688(3) 0.134(2) -0.4188(16)
C4 C 0.4815(2) 0.25676(19) -0.43200(13)
H6 H 0.410(2) 0.1975(19) -0.4748(13)
C5 C 0.3974(2) 0.28732(18) -0.35195(12)
C6 C 0.2713(2) 0.19538(19) -0.34102(13)
H7 H 0.245(3) 0.130(2) -0.3790(16)
C7 C 0.2302(2) 0.17466(18) -0.24605(13)
H8 H 0.288(2) 0.098(2) -0.2148(14)
H9 H 0.114(3) 0.154(2) -0.2576(15)
C8 C 0.2805(2) 0.28527(18) -0.17673(12)
H10 H 0.217(2) 0.361(2) -0.2023(13)
C9 C 0.4639(2) 0.31846(18) -0.16724(12)
H11 H 0.520(2) 0.241(2) -0.1531(13)
C10 C 0.4933(2) 0.36821(18) -0.26617(12)
C11 C 0.5360(3) 0.4090(2) -0.08170(13)
H12 H 0.499(3) 0.497(3) -0.0970(16)
H13 H 0.646(3) 0.410(2) -0.0733(16)
C12 C 0.4938(2) 0.3723(2) 0.01347(13)
H14 H 0.548(2) 0.294(2) 0.0387(14)
H15 H 0.544(2) 0.437(2) 0.0633(15)
C13 C 0.3073(2) 0.35770(17) -0.00165(12)
C14 C 0.2540(2) 0.25225(17) -0.07766(12)
H16 H 0.323(2) 0.1829(19) -0.0534(13)
C15 C 0.0781(2) 0.2176(2) -0.07407(14)
H17 H 0.058(2) 0.135(2) -0.0893(14)
H18 H 0.003(3) 0.267(2) -0.1170(15)
C16 C 0.0724(2) 0.2455(2) 0.03124(13)
H19 H 0.051(3) 0.170(2) 0.0636(16)
H20 H -0.014(3) 0.309(2) 0.0317(15)
C17 C 0.2436(2) 0.30058(17) 0.08308(12)
H21 H 0.316(2) 0.229(2) 0.1107(13)
C18 C 0.2178(3) 0.48371(19) -0.03379(14)
H22 H 0.258(3) 0.547(2) 0.0141(17)
H23 H 0.240(3) 0.512(2) -0.0912(16)
H24 H 0.096(3) 0.476(2) -0.0415(16)
C19 C 0.4417(2) 0.50798(19) -0.28154(13)
H25 H 0.517(2) 0.559(2) -0.2373(15)
H26 H 0.334(3) 0.517(2) -0.2714(14)
C20 C 0.2391(2) 0.38957(17) 0.16809(12)
H27 H 0.182(2) 0.469(2) 0.1397(14)
H28 H 0.464(3) 0.478(2) 0.1985(16)
H29 H 0.477(3) 0.347(3) 0.2420(19)
H30 H 0.409(3) 0.459(2) 0.2907(17)
C21 C 0.4110(2) 0.4227(2) 0.22911(14)
C22 C 0.1308(2) 0.33565(17) 0.23048(12)
H31 H 0.025(2) 0.3203(19) 0.1895(13)
C23 C 0.1927(2) 0.21841(18) 0.28860(13)
H32 H 0.298(3) 0.228(2) 0.3326(16)
H33 H 0.194(3) 0.152(2) 0.2456(17)
C24 C 0.0799(2) 0.18483(17) 0.35209(12)
C25 C 0.0017(2) 0.27911(17) 0.38590(12)
C26 C 0.0378(2) 0.41298(17) 0.36642(12)
C27 C -0.1084(2) 0.26181(19) 0.45334(13)
H34 H -0.092(3) 0.184(2) 0.4816(16)
H35 H -0.079(2) 0.3245(19) 0.5023(13)
C28 C 0.0674(3) 0.04686(19) 0.37360(15)
H36 H 0.028(3) 0.006(2) 0.3188(17)
H37 H -0.009(3) 0.030(2) 0.4115(17)
H38 H 0.174(3) 0.012(2) 0.4048(15)
loop_
_geom_bond_atom_site_label_1
_geom_bond_atom_site_label_2
_geom_bond_site_symmetry_1
_geom_bond_site_symmetry_2
O1 C5 1_555 1_555
O2 C22 1_555 1_555
O3 C1 1_555 1_555
O4 H1 1_555 1_555
O5 H2 1_555 1_555
O6 C26 1_555 1_555
O7 H3 1_555 1_555
C1 C2 1_555 1_555
C2 H4 1_555 1_555
C3 C2 1_555 1_555
H5 C3 1_555 1_555
C4 O4 1_555 1_555
H6 C4 1_555 1_555
C5 C4 1_555 1_555
C6 O1 1_555 1_555
H7 C6 1_555 1_555
C7 C6 1_555 1_555
H8 C7 1_555 1_555
H9 C7 1_555 1_555
C8 C7 1_555 1_555
H10 C8 1_555 1_555
C9 C8 1_555 1_555
H11 C9 1_555 1_555
C10 C1 1_555 1_555
C11 C9 1_555 1_555
H12 C11 1_555 1_555
H13 C11 1_555 1_555
C12 C11 1_555 1_555
H14 C12 1_555 1_555
H15 C12 1_555 1_555
C13 C12 1_555 1_555
C14 C8 1_555 1_555
H16 C14 1_555 1_555
C15 C14 1_555 1_555
H17 C15 1_555 1_555
H18 C15 1_555 1_555
C16 C15 1_555 1_555
H19 C16 1_555 1_555
H20 C16 1_555 1_555
C17 C13 1_555 1_555
H21 C17 1_555 1_555
C18 C13 1_555 1_555
H22 C18 1_555 1_555
H23 C18 1_555 1_555
H24 C18 1_555 1_555
C19 O5 1_555 1_555
H25 C19 1_555 1_555
H26 C19 1_555 1_555
C20 C17 1_555 1_555
H27 C20 1_555 1_555
H28 C21 1_555 1_555
H29 C21 1_555 1_555
H30 C21 1_555 1_555
C21 C20 1_555 1_555
C22 C20 1_555 1_555
H31 C22 1_555 1_555
C23 C22 1_555 1_555
H32 C23 1_555 1_555
H33 C23 1_555 1_555
C24 C23 1_555 1_555
C25 C24 1_555 1_555
C26 O2 1_555 1_555
C27 O7 1_555 1_555
H34 C27 1_555 1_555
H35 C27 1_555 1_555
C28 C24 1_555 1_555
H36 C28 1_555 1_555
H37 C28 1_555 1_555
H38 C28 1_555 1_555
C3 C4 1_555 1_555
C5 C6 1_555 1_555
C5 C10 1_555 1_555
C9 C10 1_555 1_555
C10 C19 1_555 1_555
C13 C14 1_555 1_555
C16 C17 1_555 1_555
C25 C26 1_555 1_555
C25 C27 1_555 1_555

#END
