
#######################################################################
#
#                 Cambridge Crystallographic Data Centre
#                                CCDC 
#
#######################################################################
#
# If this CIF has been generated from an entry in the Cambridge 
# Structural Database, then it will include bibliographic, chemical, 
# crystal, experimental, refinement or atomic coordinate data resulting 
# from the CCDC's data processing and validation procedures.
#
#######################################################################

data_BAPRIV
_chemical_name_common            'Nocazine A'
_chemical_formula_moiety         'C22 H22 N2 O4'
_chemical_name_systematic        
5-Methoxy-3,6-bis(4-methoxybenzylidene)-1-methyl-3,6-dihydropyrazin-2(1H)-one
_symmetry_cell_setting           monoclinic
_symmetry_space_group_name_H-M   'P 21/c'
_symmetry_Int_Tables_number      14
_space_group_name_Hall           '-P 2ybc'
loop_
_symmetry_equiv_pos_site_id
_symmetry_equiv_pos_as_xyz
1 x,y,z
2 -x,1/2+y,1/2-z
3 -x,-y,-z
4 x,1/2-y,1/2+z
_cell_length_a                   7.1550(8)
_cell_length_b                   25.307(2)
_cell_length_c                   12.83410(11)
_cell_angle_alpha                90
_cell_angle_beta                 123.880(2)
_cell_angle_gamma                90
_cell_volume                     1929.31
_cell_formula_units_Z            4
loop_
_atom_site_label
_atom_site_type_symbol
_atom_site_fract_x
_atom_site_fract_y
_atom_site_fract_z
N1 N 0.4334(5) 0.91187(9) 0.3223(2)
N2 N 0.7664(5) 0.83327(9) 0.4101(2)
O1 O 0.7015(4) 0.97467(8) 0.4227(2)
O2 O 0.4919(4) 0.77051(8) 0.3277(2)
O3 O -0.6992(4) 0.93703(9) -0.1029(3)
O4 O 1.8512(5) 0.78778(8) 0.6926(2)
C1 C 0.3652(6) 0.85858(12) 0.2834(3)
C2 C 0.5587(6) 0.82152(12) 0.3475(3)
C3 C 0.8294(6) 0.88670(12) 0.4299(3)
C4 C 0.6549(6) 0.92832(13) 0.3923(3)
C5 C 0.2667(5) 0.95187(11) 0.3009(3)
H1 H 0.3355 0.9770 0.3684
H2 H 0.1431 0.9350 0.2974
H3 H 0.2125 0.9697 0.2231
C6 C 0.1565(6) 0.84142(12) 0.2032(3)
H4 H 0.1452 0.8048 0.1971
C7 C -0.0611(6) 0.86874(12) 0.1219(3)
C8 C -0.1060(6) 0.90369(13) 0.0280(3)
H5 H 0.0078 0.9116 0.0161
C9 C -0.3151(7) 0.92740(12) -0.0492(3)
H6 H -0.3395 0.9508 -0.1115
C10 C -0.4861(6) 0.91623(14) -0.0336(4)
C11 C -0.4464(6) 0.88053(14) 0.0591(4)
H7 H -0.5606 0.8725 0.0706
C12 C -0.2377(6) 0.85703(12) 0.1341(3)
H8 H -0.2148 0.8327 0.1944
C13 C -0.7521(7) 0.97150(13) -0.2048(4)
H9 H -0.6539 1.0016 -0.1727
H10 H -0.9055 0.9831 -0.2467
H11 H -0.7322 0.9529 -0.2631
C14 C 1.0440(6) 0.90185(11) 0.4858(3)
H12 H 1.0661 0.9382 0.4941
C15 C 1.2494(6) 0.87080(12) 0.5359(3)
C16 C 1.2581(6) 0.81578(12) 0.5271(3)
H13 H 1.1251 0.7964 0.4855
C17 C 1.4600(6) 0.79016(12) 0.5791(3)
H14 H 1.4627 0.7536 0.5733
C18 C 1.6585(6) 0.81801(14) 0.6399(3)
C19 C 1.6589(6) 0.87194(12) 0.6506(3)
H15 H 1.7933 0.8908 0.6926
C20 C 1.4553(6) 0.89750(12) 0.5974(3)
H16 H 1.4548 0.9341 0.6027
C21 C 2.0676(6) 0.81437(15) 0.7646(4)
H17 H 2.0836 0.8372 0.7103
H18 H 2.1860 0.7886 0.8010
H19 H 2.0763 0.8349 0.8301
C22 C 0.6720(6) 0.73207(10) 0.3935(3)
H20 H 0.7751 0.7361 0.3684
H21 H 0.6098 0.6971 0.3731
H22 H 0.7503 0.7376 0.4823
loop_
_geom_bond_atom_site_label_1
_geom_bond_atom_site_label_2
_geom_bond_site_symmetry_1
_geom_bond_site_symmetry_2
N1 C1 1_555 1_555
N2 C2 1_555 1_555
O1 C4 1_555 1_555
O2 C2 1_555 1_555
O3 C10 1_555 1_555
O4 C18 1_555 1_555
C1 C2 1_555 1_555
C3 N2 1_555 1_555
C4 N1 1_555 1_555
C5 N1 1_555 1_555
H1 C5 1_555 1_555
H2 C5 1_555 1_555
H3 C5 1_555 1_555
C6 C1 1_555 1_555
H4 C6 1_555 1_555
C7 C6 1_555 1_555
C8 C7 1_555 1_555
H5 C8 1_555 1_555
C9 C8 1_555 1_555
H6 C9 1_555 1_555
C10 C9 1_555 1_555
C11 C10 1_555 1_555
H7 C11 1_555 1_555
C12 C7 1_555 1_555
H8 C12 1_555 1_555
C13 O3 1_555 1_555
H9 C13 1_555 1_555
H10 C13 1_555 1_555
H11 C13 1_555 1_555
C14 C3 1_555 1_555
H12 C14 1_555 1_555
C15 C14 1_555 1_555
C16 C15 1_555 1_555
H13 C16 1_555 1_555
C17 C16 1_555 1_555
H14 C17 1_555 1_555
C18 C17 1_555 1_555
C19 C18 1_555 1_555
H15 C19 1_555 1_555
C20 C15 1_555 1_555
H16 C20 1_555 1_555
C21 O4 1_555 1_555
H17 C21 1_555 1_555
H18 C21 1_555 1_555
H19 C21 1_555 1_555
C22 O2 1_555 1_555
H20 C22 1_555 1_555
H21 C22 1_555 1_555
H22 C22 1_555 1_555
C3 C4 1_555 1_555
C11 C12 1_555 1_555
C19 C20 1_555 1_555

#END
