
#######################################################################
#
#                 Cambridge Crystallographic Data Centre
#                                CCDC 
#
#######################################################################
#
# If this CIF has been generated from an entry in the Cambridge 
# Structural Database, then it will include bibliographic, chemical, 
# crystal, experimental, refinement or atomic coordinate data resulting 
# from the CCDC's data processing and validation procedures.
#
#######################################################################

data_BAPSIW
_chemical_compound_source        'leaves of Dysoxylum lenticellatum'
_chemical_name_common            'Dysolenticin F'
_chemical_formula_moiety         'C32 H52 O4'
_chemical_name_systematic        23-Ethoxy-21,23:24,25-diepoxylanost-7-en-3-ol
_symmetry_cell_setting           orthorhombic
_symmetry_space_group_name_H-M   'P 21 21 21'
_symmetry_Int_Tables_number      19
_space_group_name_Hall           'P 2ac 2ab'
loop_
_symmetry_equiv_pos_site_id
_symmetry_equiv_pos_as_xyz
1 x,y,z
2 1/2+x,1/2-y,-z
3 -x,1/2+y,1/2-z
4 1/2-x,-y,1/2+z
_cell_length_a                   7.541(8)
_cell_length_b                   10.852(11)
_cell_length_c                   36.43(4)
_cell_angle_alpha                90
_cell_angle_beta                 90
_cell_angle_gamma                90
_cell_volume                     2981.25
_exptl_crystal_colour            colorless
_exptl_crystal_description       block
_cell_formula_units_Z            4
loop_
_atom_site_label
_atom_site_type_symbol
_atom_site_fract_x
_atom_site_fract_y
_atom_site_fract_z
C1 C 0.4079(7) 0.5235(7) 0.34511(15)
H1 H 0.4260 0.6073 0.3366
H2 H 0.5153 0.4774 0.3400
C2 C 0.3772(9) 0.5258(7) 0.38679(16)
H3 H 0.3687 0.4421 0.3959
H4 H 0.4773 0.5652 0.3987
C3 C 0.2079(8) 0.5956(6) 0.39608(15)
H5 H 0.1916 0.5944 0.4228
C4 C 0.0474(7) 0.5376(5) 0.37835(15)
C5 C 0.0780(6) 0.5252(4) 0.33635(13)
H6 H 0.0858 0.6106 0.3277
C6 C -0.0816(6) 0.4721(5) 0.31558(14)
H7 H -0.1160 0.3948 0.3269
H8 H -0.1806 0.5286 0.3178
C7 C -0.0459(6) 0.4502(5) 0.27620(15)
H9 H -0.1415 0.4285 0.2614
C8 C 0.1123(6) 0.4592(4) 0.26019(13)
C9 C 0.2759(6) 0.4980(4) 0.28252(12)
H10 H 0.2782 0.5882 0.2814
C10 C 0.2542(6) 0.4660(4) 0.32356(13)
C11 C 0.4497(6) 0.4558(6) 0.26493(14)
H11 H 0.4654 0.3690 0.2704
H12 H 0.5461 0.4999 0.2767
C12 C 0.4688(6) 0.4729(5) 0.22286(14)
H13 H 0.5512 0.5398 0.2182
H14 H 0.5196 0.3985 0.2125
C13 C 0.2949(6) 0.5007(4) 0.20302(12)
C14 C 0.1436(6) 0.4241(4) 0.22087(14)
C15 C -0.0119(7) 0.4478(6) 0.19392(14)
H15 H -0.0927 0.3783 0.1937
H16 H -0.0772 0.5211 0.2009
C16 C 0.0754(7) 0.4652(6) 0.15577(15)
H17 H 0.0409 0.3992 0.1393
H18 H 0.0402 0.5432 0.1450
C17 C 0.2794(6) 0.4625(5) 0.16279(13)
H19 H 0.3159 0.3759 0.1615
C18 C 0.2529(7) 0.6392(4) 0.20623(14)
H20 H 0.3543 0.6863 0.1987
H21 H 0.2244 0.6587 0.2313
H22 H 0.1537 0.6589 0.1908
C19 C 0.2558(9) 0.3236(5) 0.32832(17)
H23 H 0.1409 0.2910 0.3224
H24 H 0.2844 0.3034 0.3533
H25 H 0.3430 0.2883 0.3122
C20 C 0.3838(7) 0.5306(5) 0.13345(13)
H26 H 0.3531 0.6183 0.1342
C21 C 0.5833(6) 0.5166(5) 0.13554(13)
H27 H 0.6331 0.5797 0.1513
H28 H 0.6137 0.4365 0.1456
C22 C 0.3516(7) 0.4807(7) 0.09462(14)
H29 H 0.3421 0.3916 0.0947
H30 H 0.2445 0.5154 0.0841
C23 C 0.5160(7) 0.5227(5) 0.07338(14)
C24 C 0.5604(8) 0.4407(5) 0.04166(14)
H31 H 0.4699 0.4425 0.0224
C25 C 0.7318(9) 0.3993(5) 0.02827(14)
C26 C 0.9076(8) 0.4311(6) 0.04585(17)
H32 H 0.9559 0.5032 0.0343
H33 H 0.9884 0.3635 0.0429
H34 H 0.8902 0.4469 0.0715
C27 C 0.7456(11) 0.3618(7) -0.01187(17)
H35 H 0.6294 0.3444 -0.0213
H36 H 0.8185 0.2896 -0.0139
H37 H 0.7977 0.4278 -0.0257
C28 C -0.1147(9) 0.6235(6) 0.38499(16)
H38 H -0.1196 0.6461 0.4104
H39 H -0.2217 0.5810 0.3784
H40 H -0.1029 0.6964 0.3703
C29 C 0.0024(10) 0.4164(6) 0.39844(17)
H41 H 0.0964 0.3581 0.3947
H42 H -0.1063 0.3835 0.3889
H43 H -0.0107 0.4324 0.4242
C30 C 0.1816(9) 0.2821(4) 0.22047(16)
H44 H 0.2959 0.2665 0.2311
H45 H 0.1798 0.2526 0.1956
H46 H 0.0922 0.2401 0.2345
C31 C 0.6266(12) 0.7042(6) 0.0430(2)
H47 H 0.6830 0.6509 0.0251
H48 H 0.7129 0.7242 0.0618
C32 C 0.5634(17) 0.8188(9) 0.0249(3)
H49 H 0.5187 0.7995 0.0009
H50 H 0.6600 0.8760 0.0228
H51 H 0.4705 0.8550 0.0394
O1 O 0.2208(7) 0.7204(4) 0.38430(12)
H52 H 0.3110 0.7514 0.3928
O2 O 0.6523(5) 0.5282(4) 0.09962(9)
O3 O 0.4762(6) 0.6419(4) 0.05927(11)
O4 O 0.6200(6) 0.3178(3) 0.04988(11)
loop_
_geom_bond_atom_site_label_1
_geom_bond_atom_site_label_2
_geom_bond_site_symmetry_1
_geom_bond_site_symmetry_2
C1 H1 1_555 1_555
H2 C1 1_555 1_555
C2 C1 1_555 1_555
H3 C2 1_555 1_555
H4 C2 1_555 1_555
C3 C2 1_555 1_555
H5 C3 1_555 1_555
C4 C3 1_555 1_555
C5 C4 1_555 1_555
H6 C5 1_555 1_555
C6 C5 1_555 1_555
H7 C6 1_555 1_555
H8 C6 1_555 1_555
C7 C6 1_555 1_555
H9 C7 1_555 1_555
C8 C7 1_555 1_555
C9 C8 1_555 1_555
H10 C9 1_555 1_555
C10 C1 1_555 1_555
C11 C9 1_555 1_555
H11 C11 1_555 1_555
H12 C11 1_555 1_555
C12 C11 1_555 1_555
H13 C12 1_555 1_555
H14 C12 1_555 1_555
C13 C12 1_555 1_555
C14 C8 1_555 1_555
C15 C14 1_555 1_555
H15 C15 1_555 1_555
H16 C15 1_555 1_555
C16 C15 1_555 1_555
H17 C16 1_555 1_555
H18 C16 1_555 1_555
C17 C13 1_555 1_555
H19 C17 1_555 1_555
C18 C13 1_555 1_555
H20 C18 1_555 1_555
H21 C18 1_555 1_555
H22 C18 1_555 1_555
C19 C10 1_555 1_555
H23 C19 1_555 1_555
H24 C19 1_555 1_555
H25 C19 1_555 1_555
C20 C17 1_555 1_555
H26 C20 1_555 1_555
C21 C20 1_555 1_555
H27 C21 1_555 1_555
H28 C21 1_555 1_555
C22 C20 1_555 1_555
H29 C22 1_555 1_555
H30 C22 1_555 1_555
C23 C22 1_555 1_555
C24 C23 1_555 1_555
H31 C24 1_555 1_555
C25 C24 1_555 1_555
C26 C25 1_555 1_555
H32 C26 1_555 1_555
H33 C26 1_555 1_555
H34 C26 1_555 1_555
C27 C25 1_555 1_555
H35 C27 1_555 1_555
H36 C27 1_555 1_555
H37 C27 1_555 1_555
C28 C4 1_555 1_555
H38 C28 1_555 1_555
H39 C28 1_555 1_555
H40 C28 1_555 1_555
C29 C4 1_555 1_555
H41 C29 1_555 1_555
H42 C29 1_555 1_555
H43 C29 1_555 1_555
C30 C14 1_555 1_555
H44 C30 1_555 1_555
H45 C30 1_555 1_555
H46 C30 1_555 1_555
C31 H47 1_555 1_555
H48 C31 1_555 1_555
C32 C31 1_555 1_555
H49 C32 1_555 1_555
H50 C32 1_555 1_555
H51 C32 1_555 1_555
O1 C3 1_555 1_555
H52 O1 1_555 1_555
O2 C21 1_555 1_555
O3 C23 1_555 1_555
O4 C24 1_555 1_555
C5 C10 1_555 1_555
C9 C10 1_555 1_555
C13 C14 1_555 1_555
C16 C17 1_555 1_555
C23 O2 1_555 1_555
C25 O4 1_555 1_555
C31 O3 1_555 1_555

#END
