
#######################################################################
#
#                 Cambridge Crystallographic Data Centre
#                                CCDC 
#
#######################################################################
#
# If this CIF has been generated from an entry in the Cambridge 
# Structural Database, then it will include bibliographic, chemical, 
# crystal, experimental, refinement or atomic coordinate data resulting 
# from the CCDC's data processing and validation procedures.
#
#######################################################################

data_BAQBIG
_chemical_formula_moiety         'C16 H18 O2'
_chemical_name_systematic        
4-Methylene-7-phenyl-2-oxaspiro[4.5]decan-1-one
_symmetry_cell_setting           triclinic
_symmetry_space_group_name_H-M   'P -1'
_symmetry_Int_Tables_number      2
_space_group_name_Hall           '-P 1'
loop_
_symmetry_equiv_pos_site_id
_symmetry_equiv_pos_as_xyz
1 x,y,z
2 -x,-y,-z
_cell_length_a                   6.4526(8)
_cell_length_b                   9.7414(13)
_cell_length_c                   11.0000(14)
_cell_angle_alpha                97.794(2)
_cell_angle_beta                 91.863(2)
_cell_angle_gamma                103.503(2)
_cell_volume                     664.628
_exptl_crystal_colour            colorless
_exptl_crystal_description       prismatic
_cell_formula_units_Z            2
loop_
_atom_site_label
_atom_site_type_symbol
_atom_site_fract_x
_atom_site_fract_y
_atom_site_fract_z
O1 O 0.66299(17) 0.26885(14) 0.61900(13)
O2 O 0.54821(17) 0.04560(13) 0.64938(11)
C1 C 0.5190(2) 0.17706(18) 0.64296(14)
C2 C 0.3557(3) -0.04865(18) 0.67856(17)
H1 H 0.3842 -0.0981 0.7457
H2 H 0.2944 -0.1189 0.6077
C3 C 0.2082(2) 0.04471(15) 0.71472(13)
C4 C 0.29192(19) 0.18411(14) 0.66816(12)
C5 C 0.2844(2) 0.31548(14) 0.76021(12)
H3 H 0.1408 0.3037 0.7877
H4 H 0.3797 0.3199 0.8314
C6 C 0.3463(2) 0.45706(14) 0.70976(13)
H5 H 0.4942 0.4695 0.6865
C7 C 0.2070(2) 0.45087(15) 0.59355(14)
H6 H 0.0592 0.4390 0.6136
H7 H 0.2505 0.5399 0.5606
C8 C 0.2261(2) 0.32783(16) 0.49730(14)
H8 H 0.1330 0.3243 0.4253
H9 H 0.3717 0.3439 0.4725
C9 C 0.1670(2) 0.18640(15) 0.54564(13)
H10 H 0.1932 0.1123 0.4840
H11 H 0.0153 0.1640 0.5580
C10 C 0.3406(2) 0.57914(15) 0.80842(13)
C11 C 0.5262(2) 0.67797(16) 0.85429(14)
H12 H 0.6549 0.6703 0.8217
C12 C 0.5248(3) 0.78782(18) 0.94752(16)
H13 H 0.6518 0.8532 0.9767
C13 C 0.3390(4) 0.80092(19) 0.99680(16)
H14 H 0.3387 0.8746 1.0601
C14 C 0.1504(3) 0.7043(2) 0.95238(18)
H15 H 0.0225 0.7130 0.9855
C15 C 0.1515(3) 0.59472(18) 0.85881(16)
H16 H 0.0238 0.5304 0.8291
C16 C 0.0381(3) 0.00742(17) 0.77476(16)
H17 H 0.0018 -0.0830 0.7980
H18 H -0.0470 0.0712 0.7944
loop_
_geom_bond_atom_site_label_1
_geom_bond_atom_site_label_2
_geom_bond_site_symmetry_1
_geom_bond_site_symmetry_2
O1 C1 1_555 1_555
O2 C1 1_555 1_555
C1 C4 1_555 1_555
C2 O2 1_555 1_555
H1 C2 1_555 1_555
H2 C2 1_555 1_555
C3 C2 1_555 1_555
C4 C3 1_555 1_555
C5 C4 1_555 1_555
H3 C5 1_555 1_555
H4 C5 1_555 1_555
C6 C5 1_555 1_555
H5 C6 1_555 1_555
C7 C6 1_555 1_555
H6 C7 1_555 1_555
H7 C7 1_555 1_555
C8 C7 1_555 1_555
H8 C8 1_555 1_555
H9 C8 1_555 1_555
C9 C4 1_555 1_555
H10 C9 1_555 1_555
H11 C9 1_555 1_555
C10 C6 1_555 1_555
C11 C10 1_555 1_555
H12 C11 1_555 1_555
C12 C11 1_555 1_555
H13 C12 1_555 1_555
C13 C12 1_555 1_555
H14 C13 1_555 1_555
C14 C13 1_555 1_555
H15 C14 1_555 1_555
C15 C10 1_555 1_555
H16 C15 1_555 1_555
C16 C3 1_555 1_555
H17 C16 1_555 1_555
H18 C16 1_555 1_555
C8 C9 1_555 1_555
C14 C15 1_555 1_555

#END
