
#######################################################################
#
#                 Cambridge Crystallographic Data Centre
#                                CCDC 
#
#######################################################################
#
# If this CIF has been generated from an entry in the Cambridge 
# Structural Database, then it will include bibliographic, chemical, 
# crystal, experimental, refinement or atomic coordinate data resulting 
# from the CCDC's data processing and validation procedures.
#
#######################################################################

data_BAQCIH
_chemical_formula_moiety         'C37 H34 N2 O3'
_chemical_name_systematic        
'Ethyl 1-benzoyl-4-benzyl-3-(4-t-butylphenyl)-4H-pyrrolo[1,2-a]benzimidazole-2-carboxylate'
_symmetry_cell_setting           triclinic
_symmetry_space_group_name_H-M   'P -1'
_symmetry_Int_Tables_number      2
_space_group_name_Hall           '-P 1'
loop_
_symmetry_equiv_pos_site_id
_symmetry_equiv_pos_as_xyz
1 x,y,z
2 -x,-y,-z
_cell_length_a                   11.197(2)
_cell_length_b                   11.209(2)
_cell_length_c                   12.863(3)
_cell_angle_alpha                84.286(3)
_cell_angle_beta                 72.944(3)
_cell_angle_gamma                79.663(3)
_cell_volume                     1516.45
_cell_formula_units_Z            2
loop_
_atom_site_label
_atom_site_type_symbol
_atom_site_fract_x
_atom_site_fract_y
_atom_site_fract_z
C1 C 0.3293(2) 0.9873(2) -0.0006(2)
C2 C 0.3411(3) 0.9361(3) -0.0971(2)
H1 H 0.3264 0.8572 -0.0980
C3 C 0.3755(3) 1.0064(3) -0.1922(2)
H2 H 0.3847 0.9739 -0.2584
C4 C 0.3964(3) 1.1241(3) -0.1910(2)
H3 H 0.4181 1.1694 -0.2565
C5 C 0.3860(3) 1.1763(3) -0.0950(2)
H4 H 0.4005 1.2553 -0.0944
C6 C 0.3531(2) 1.1056(2) -0.0002(2)
C7 C 0.3027(2) 1.0244(2) 0.1722(2)
C8 C 0.2899(2) 1.0391(2) 0.2815(2)
C9 C 0.3220(2) 1.1556(2) 0.2818(2)
C10 C 0.3506(2) 1.2107(2) 0.1773(2)
C11 C 0.3933(3) 1.3234(3) 0.1361(2)
C12 C 0.3847(3) 1.4175(2) 0.2129(2)
C13 C 0.4901(3) 1.4716(3) 0.2019(3)
H5 H 0.5643 1.4486 0.1474
C14 C 0.4851(4) 1.5592(3) 0.2715(3)
H6 H 0.5569 1.5932 0.2653
C15 C 0.3749(5) 1.5967(3) 0.3498(3)
H7 H 0.3720 1.6557 0.3968
C16 C 0.2698(4) 1.5471(3) 0.3584(3)
H8 H 0.1943 1.5743 0.4098
C17 C 0.2746(3) 1.4568(3) 0.2914(3)
H9 H 0.2028 1.4221 0.2993
C18 C 0.3374(3) 1.2011(2) 0.3813(2)
C19 C 0.2341(5) 1.2611(5) 0.5624(3)
H10 H 0.2752 1.1940 0.5996
H11 H 0.2831 1.3270 0.5492
C20 C 0.1100(7) 1.3000(8) 0.6277(4)
H12 H 0.0622 1.3498 0.5840
H13 H 0.1135 1.3461 0.6855
H14 H 0.0701 1.2305 0.6581
C21 C 0.2546(2) 0.9552(2) 0.3776(2)
C22 C 0.3298(3) 0.9244(2) 0.4484(2)
H15 H 0.4076 0.9511 0.4311
C23 C 0.2922(3) 0.8555(3) 0.5430(2)
H16 H 0.3448 0.8377 0.5884
C24 C 0.1774(3) 0.8117(2) 0.5729(2)
C25 C 0.1030(3) 0.8408(2) 0.5013(2)
H17 H 0.0262 0.8124 0.5175
C26 C 0.1415(3) 0.9112(2) 0.4063(2)
H18 H 0.0893 0.9293 0.3605
C27 C 0.1347(3) 0.7401(3) 0.6807(2)
C28 C 0.2824(3) 0.8119(2) 0.1354(2)
H19 H 0.2704 0.7980 0.2132
H20 H 0.3599 0.7607 0.0987
C29 C 0.1731(3) 0.7747(2) 0.1070(2)
C30 C 0.1810(3) 0.6561(3) 0.0826(3)
H21 H 0.2545 0.6011 0.0802
C31 C 0.0788(4) 0.6187(3) 0.0614(3)
H22 H 0.0839 0.5382 0.0464
C32 C -0.0290(4) 0.6988(4) 0.0624(3)
H23 H -0.0971 0.6732 0.0486
C33 C -0.0350(3) 0.8147(4) 0.0836(3)
H24 H -0.1075 0.8699 0.0827
C34 C 0.0640(3) 0.8542(3) 0.1067(3)
H25 H 0.0569 0.9349 0.1222
N1 N 0.3375(2) 1.12492(19) 0.11017(18)
N2 N 0.2965(2) 0.93869(19) 0.10547(17)
O1 O 0.4425(3) 1.3435(2) 0.0380(2)
O2 O 0.4365(2) 1.2141(2) 0.39281(19)
O3 O 0.2278(2) 1.2225(2) 0.45804(16)
C35 C 0.0243(8) 0.6801(9) 0.6872(6)
H26 H 0.0501 0.6158 0.6375
H27 H -0.0408 0.7386 0.6683
H28 H -0.0075 0.6473 0.7600
C36 C 0.2423(7) 0.6460(11) 0.6975(10)
H29 H 0.2132 0.5980 0.7632
H30 H 0.3093 0.6856 0.7031
H31 H 0.2731 0.5945 0.6368
C37 C 0.0891(13) 0.8339(8) 0.7688(5)
H32 H 0.0109 0.8820 0.7633
H33 H 0.1516 0.8857 0.7589
H34 H 0.0762 0.7927 0.8394
C38? C 0.141(3) 0.6081(15) 0.6581(13)
C39? C 0.208(2) 0.756(3) 0.7605(12)
C40? C -0.0037(12) 0.7850(19) 0.7442(12)
H35? H 0.0883 0.5692 0.7199
H36? H 0.2272 0.5675 0.6451
H37? H 0.1130 0.6044 0.5952
H38? H 0.1730 0.7154 0.8291
H39? H 0.2013 0.8409 0.7706
H40? H 0.2952 0.7218 0.7318
H41? H -0.0595 0.7607 0.7090
H42? H -0.0174 0.8719 0.7457
H43? H -0.0202 0.7502 0.8173
loop_
_geom_bond_atom_site_label_1
_geom_bond_atom_site_label_2
_geom_bond_site_symmetry_1
_geom_bond_site_symmetry_2
C1 C2 1_555 1_555
C2 H1 1_555 1_555
C3 C2 1_555 1_555
H2 C3 1_555 1_555
C4 C3 1_555 1_555
H3 C4 1_555 1_555
C5 C4 1_555 1_555
H4 C5 1_555 1_555
C6 C1 1_555 1_555
C7 C8 1_555 1_555
C8 C9 1_555 1_555
C9 C10 1_555 1_555
C10 C11 1_555 1_555
C11 C12 1_555 1_555
C12 C13 1_555 1_555
C13 H5 1_555 1_555
C14 C13 1_555 1_555
H6 C14 1_555 1_555
C15 C14 1_555 1_555
H7 C15 1_555 1_555
C16 C15 1_555 1_555
H8 C16 1_555 1_555
C17 C12 1_555 1_555
H9 C17 1_555 1_555
C18 C9 1_555 1_555
C19 H10 1_555 1_555
H11 C19 1_555 1_555
C20 C19 1_555 1_555
H12 C20 1_555 1_555
H13 C20 1_555 1_555
H14 C20 1_555 1_555
C21 C8 1_555 1_555
C22 C21 1_555 1_555
H15 C22 1_555 1_555
C23 C22 1_555 1_555
H16 C23 1_555 1_555
C24 C23 1_555 1_555
C25 C24 1_555 1_555
H17 C25 1_555 1_555
C26 C21 1_555 1_555
H18 C26 1_555 1_555
C27 C24 1_555 1_555
C28 H19 1_555 1_555
H20 C28 1_555 1_555
C29 C28 1_555 1_555
C30 C29 1_555 1_555
H21 C30 1_555 1_555
C31 C30 1_555 1_555
H22 C31 1_555 1_555
C32 C31 1_555 1_555
H23 C32 1_555 1_555
C33 C32 1_555 1_555
H24 C33 1_555 1_555
C34 C29 1_555 1_555
H25 C34 1_555 1_555
N1 C6 1_555 1_555
N2 C1 1_555 1_555
O1 C11 1_555 1_555
O2 C18 1_555 1_555
O3 C18 1_555 1_555
C35 C27 1_555 1_555
H26 C35 1_555 1_555
H27 C35 1_555 1_555
H28 C35 1_555 1_555
C36 C27 1_555 1_555
H29 C36 1_555 1_555
H30 C36 1_555 1_555
H31 C36 1_555 1_555
C37 C27 1_555 1_555
H32 C37 1_555 1_555
H33 C37 1_555 1_555
H34 C37 1_555 1_555
C5 C6 1_555 1_555
C7 N1 1_555 1_555
C7 N2 1_555 1_555
C10 N1 1_555 1_555
C16 C17 1_555 1_555
C19 O3 1_555 1_555
C25 C26 1_555 1_555
C28 N2 1_555 1_555
C33 C34 1_555 1_555

#END
