
#######################################################################
#
#                 Cambridge Crystallographic Data Centre
#                                CCDC 
#
#######################################################################
#
# If this CIF has been generated from an entry in the Cambridge 
# Structural Database, then it will include bibliographic, chemical, 
# crystal, experimental, refinement or atomic coordinate data resulting 
# from the CCDC's data processing and validation procedures.
#
#######################################################################

data_BAQCAZ
_chemical_formula_moiety         'C34 H27 N3 O1'
_chemical_name_systematic        
1-Benzoyl-4-benzyl-3-(4-isopropylphenyl)-4H-pyrrolo[1,2-a]benzimidazole-2-carbonitrile
_symmetry_cell_setting           monoclinic
_symmetry_space_group_name_H-M   'P 21/c'
_symmetry_Int_Tables_number      14
_space_group_name_Hall           '-P 2ybc'
loop_
_symmetry_equiv_pos_site_id
_symmetry_equiv_pos_as_xyz
1 x,y,z
2 -x,1/2+y,1/2-z
3 -x,-y,-z
4 x,1/2-y,1/2+z
_cell_length_a                   5.7239(9)
_cell_length_b                   18.811(3)
_cell_length_c                   25.153(4)
_cell_angle_alpha                90
_cell_angle_beta                 101.379(3)
_cell_angle_gamma                90
_cell_volume                     2655.05
_cell_formula_units_Z            4
loop_
_atom_site_label
_atom_site_type_symbol
_atom_site_fract_x
_atom_site_fract_y
_atom_site_fract_z
C1 C 1.0321(3) 0.78225(9) 0.79185(7)
C2 C 1.1555(4) 0.83611(10) 0.82314(8)
H1 H 1.1308 0.8459 0.8578
C3 C 1.3161(4) 0.87440(11) 0.80041(9)
H2 H 1.4011 0.9111 0.8202
C4 C 1.3542(4) 0.85979(10) 0.74918(9)
H3 H 1.4654 0.8866 0.7355
C5 C 1.2321(3) 0.80628(10) 0.71739(7)
H4 H 1.2593 0.7965 0.6829
C6 C 1.0678(3) 0.76818(9) 0.73944(6)
C7 C 0.7903(3) 0.69209(9) 0.76029(6)
C8 C 0.6320(3) 0.63658(9) 0.74282(6)
C9 C 0.6503(3) 0.62688(8) 0.68777(6)
C10 C 0.8206(3) 0.67274(8) 0.67300(6)
C11 C 0.9217(3) 0.67573(9) 0.62495(6)
C12 C 0.7844(3) 0.64574(9) 0.57313(6)
C13 C 0.8977(4) 0.60085(10) 0.54258(7)
H5 H 1.0552 0.5875 0.5555
C14 C 0.7782(4) 0.57590(11) 0.49324(8)
H6 H 0.8539 0.5448 0.4734
C15 C 0.5476(4) 0.59671(11) 0.47310(8)
H7 H 0.4677 0.5796 0.4397
C16 C 0.4350(3) 0.64268(11) 0.50220(7)
H8 H 0.2806 0.6578 0.4881
C17 C 0.5515(3) 0.66654(10) 0.55262(7)
H9 H 0.4733 0.6966 0.5728
C18 C 0.5272(3) 0.57163(10) 0.65441(7)
C19 C 0.5041(3) 0.59107(8) 0.77543(6)
C20 C 0.2749(3) 0.56526(9) 0.75569(7)
H10 H 0.1931 0.5799 0.7218
C21 C 0.1674(3) 0.51841(9) 0.78565(7)
H11 H 0.0152 0.5017 0.7712
C22 C 0.2805(3) 0.49551(9) 0.83683(7)
C23 C 0.5083(3) 0.52174(9) 0.85653(7)
H12 H 0.5888 0.5077 0.8907
C24 C 0.6182(3) 0.56804(9) 0.82677(6)
H13 H 0.7711 0.5842 0.8412
C25 C 0.1665(3) 0.44147(10) 0.86859(7)
H14 H 0.0003 0.4357 0.8499
C26 C 0.2884(4) 0.36929(11) 0.86817(8)
H15 H 0.2710 0.3528 0.8315
H16 H 0.2161 0.3358 0.8888
H17 H 0.4546 0.3739 0.8840
C27 C 0.1641(4) 0.46567(12) 0.92639(8)
H18 H 0.3248 0.4689 0.9465
H19 H 0.0772 0.4319 0.9435
H20 H 0.0889 0.5114 0.9255
C28 C 0.7672(3) 0.73847(10) 0.85383(6)
H21 H 0.6245 0.7094 0.8492
H22 H 0.7216 0.7871 0.8596
C29 C 0.9405(3) 0.71341(9) 0.90342(6)
C30 C 0.8927(4) 0.72842(10) 0.95418(7)
H23 H 0.7562 0.7537 0.9572
C31 C 1.0492(5) 0.70567(13) 1.00048(8)
H24 H 1.0167 0.7155 1.0345
C32 C 1.2504(5) 0.66896(13) 0.99627(9)
H25 H 1.3549 0.6541 1.0274
C33 C 1.2978(4) 0.65418(11) 0.94676(9)
H26 H 1.4354 0.6293 0.9441
C34 C 1.1444(3) 0.67568(10) 0.90034(7)
H27 H 1.1783 0.6647 0.8666
N1 N 0.8624(3) 0.73533(8) 0.80423(5)
N2 N 0.9086(2) 0.71190(7) 0.72013(5)
N3 N 0.4246(3) 0.52607(9) 0.62994(6)
O1 O 1.1200(2) 0.70257(8) 0.62620(5)
loop_
_geom_bond_atom_site_label_1
_geom_bond_atom_site_label_2
_geom_bond_site_symmetry_1
_geom_bond_site_symmetry_2
C1 C2 1_555 1_555
C2 H1 1_555 1_555
C3 C2 1_555 1_555
H2 C3 1_555 1_555
C4 C3 1_555 1_555
H3 C4 1_555 1_555
C5 C4 1_555 1_555
H4 C5 1_555 1_555
C6 C1 1_555 1_555
C7 C8 1_555 1_555
C8 C9 1_555 1_555
C9 C10 1_555 1_555
C10 C11 1_555 1_555
C11 C12 1_555 1_555
C12 C13 1_555 1_555
C13 H5 1_555 1_555
C14 C13 1_555 1_555
H6 C14 1_555 1_555
C15 C14 1_555 1_555
H7 C15 1_555 1_555
C16 C15 1_555 1_555
H8 C16 1_555 1_555
C17 C12 1_555 1_555
H9 C17 1_555 1_555
C18 C9 1_555 1_555
C19 C8 1_555 1_555
C20 C19 1_555 1_555
H10 C20 1_555 1_555
C21 C20 1_555 1_555
H11 C21 1_555 1_555
C22 C21 1_555 1_555
C23 C22 1_555 1_555
H12 C23 1_555 1_555
C24 C19 1_555 1_555
H13 C24 1_555 1_555
C25 C22 1_555 1_555
H14 C25 1_555 1_555
C26 C25 1_555 1_555
H15 C26 1_555 1_555
H16 C26 1_555 1_555
H17 C26 1_555 1_555
C27 C25 1_555 1_555
H18 C27 1_555 1_555
H19 C27 1_555 1_555
H20 C27 1_555 1_555
C28 H21 1_555 1_555
H22 C28 1_555 1_555
C29 C28 1_555 1_555
C30 C29 1_555 1_555
H23 C30 1_555 1_555
C31 C30 1_555 1_555
H24 C31 1_555 1_555
C32 C31 1_555 1_555
H25 C32 1_555 1_555
C33 C32 1_555 1_555
H26 C33 1_555 1_555
C34 C29 1_555 1_555
H27 C34 1_555 1_555
N1 C1 1_555 1_555
N2 C6 1_555 1_555
N3 C18 1_555 1_555
O1 C11 1_555 1_555
C5 C6 1_555 1_555
C7 N1 1_555 1_555
C7 N2 1_555 1_555
C10 N2 1_555 1_555
C16 C17 1_555 1_555
C23 C24 1_555 1_555
C28 N1 1_555 1_555
C33 C34 1_555 1_555

#END
