
#######################################################################
#
#                 Cambridge Crystallographic Data Centre
#                                CCDC 
#
#######################################################################
#
# If this CIF has been generated from an entry in the Cambridge 
# Structural Database, then it will include bibliographic, chemical, 
# crystal, experimental, refinement or atomic coordinate data resulting 
# from the CCDC's data processing and validation procedures.
#
#######################################################################

data_BARJOT10
_chemical_name_common            'DrugBank: DB03619'
_chemical_formula_moiety         'C24 H40 O4,0.4(C8 H8 O1)'
_chemical_name_systematic        'Deoxycholic acid acetophenone clathrate'
_symmetry_cell_setting           orthorhombic
_symmetry_space_group_name_H-M   'P 21 21 21'
_symmetry_Int_Tables_number      19
_space_group_name_Hall           'P 2ac 2ab'
loop_
_symmetry_equiv_pos_site_id
_symmetry_equiv_pos_as_xyz
1 x,y,z
2 1/2+x,1/2-y,-z
3 -x,1/2+y,1/2-z
4 1/2-x,-y,1/2+z
_cell_length_a                   25.243(7)
_cell_length_b                   13.606(2)
_cell_length_c                   7.198(2)
_cell_angle_alpha                90
_cell_angle_beta                 90
_cell_angle_gamma                90
_cell_volume                     2472.2
_chemical_melting_point          177-178deg.C
_cell_formula_units_Z            4
loop_
_atom_site_label
_atom_site_type_symbol
_atom_site_fract_x
_atom_site_fract_y
_atom_site_fract_z
C1 C 0.1260(1) 0.2124(2) 0.3537(3)
C2 C 0.0702(1) 0.1826(2) 0.2977(3)
C3 C 0.0725(1) 0.1116(2) 0.1358(3)
C4 C 0.1021(1) 0.1561(2) -0.0271(3)
C5 C 0.1584(1) 0.1893(1) 0.0274(3)
C6 C 0.1874(1) 0.2337(2) -0.1400(3)
C7 C 0.1660(1) 0.3344(2) -0.1942(3)
C8 C 0.1646(1) 0.4060(1) -0.0311(3)
C9 C 0.1338(1) 0.3602(1) 0.1333(3)
C10 C 0.1580(1) 0.2609(1) 0.1958(3)
C11 C 0.1258(1) 0.4348(1) 0.2901(3)
C12 C 0.0999(1) 0.5312(1) 0.2268(3)
C13 C 0.1325(1) 0.5786(1) 0.0703(3)
C14 C 0.1379(1) 0.5019(1) -0.0868(3)
C15 C 0.1616(1) 0.5597(1) -0.2477(3)
C16 C 0.1357(1) 0.6620(2) -0.2305(3)
C17 C 0.1063(1) 0.6641(1) -0.0407(3)
C18 C 0.1864(1) 0.6114(2) 0.1479(3)
C19 C 0.2148(1) 0.2741(2) 0.2702(4)
C20 C 0.1062(1) 0.7678(1) 0.0431(3)
C21 C 0.0780(1) 0.7742(2) 0.2312(3)
C22 C 0.0836(1) 0.8441(2) -0.0939(3)
C23 C 0.0257(1) 0.8294(2) -0.1493(4)
C24 C 0.0083(1) 0.9088(2) -0.2807(3)
O1 O 0.0190(1) 0.0874(1) 0.0860(3)
O2 O 0.0469(1) 0.5106(1) 0.1652(2)
O3 O 0.0091(1) 0.9956(1) -0.2444(3)
O4 O -0.0084(1) 0.8758(1) -0.4420(2)
H1 H 0.1246(9) 0.2546(17) 0.4714(35)
H2 H 0.1417(9) 0.1515(17) 0.3925(33)
H3 H 0.0483(10) 0.2391(17) 0.2621(34)
H4 H 0.0501(10) 0.1511(19) 0.3984(38)
H5 H 0.0928(9) 0.0470(17) 0.1710(34)
H6 H 0.1051(9) 0.1066(17) -0.1150(36)
H7 H 0.0815(8) 0.2100(15) -0.0783(29)
H8 H 0.1776(10) 0.1280(20) 0.0691(40)
H9 H 0.1823(9) 0.1906(16) -0.2438(34)
H10 H 0.2267(11) 0.2431(18) -0.1088(36)
H11 H 0.1869(10) 0.3637(19) -0.2986(39)
H12 H 0.1292(10) 0.3309(17) -0.2436(36)
H13 H 0.2013(10) 0.4188(18) 0.0170(37)
H14 H 0.0969(9) 0.3456(16) 0.0800(32)
H15 H 0.1034(9) 0.4108(16) 0.3816(34)
H16 H 0.1602(10) 0.4506(16) 0.3430(34)
H17 H 0.0971(9) 0.5721(16) 0.3272(33)
H18 H 0.1023(9) 0.4879(15) -0.1258(31)
H19 H 0.2029(10) 0.5635(18) -0.2372(36)
H20 H 0.1537(9) 0.5240(16) -0.3655(34)
H21 H 0.1623(10) 0.7103(19) -0.2251(37)
H22 H 0.1082(11) 0.6708(19) -0.3387(40)
H23 H 0.0687(8) 0.6448(14) -0.0578(28)
H24 H 0.2067(9) 0.6480(18) 0.0674(36)
H25 H 0.2083(9) 0.5543(17) 0.1883(33)
H26 H 0.1816(9) 0.6494(18) 0.2567(37)
H27 H 0.2398(11) 0.3074(19) 0.1788(38)
H28 H 0.2307(10) 0.2101(19) 0.2998(36)
H29 H 0.2173(9) 0.3141(17) 0.3891(37)
H30 H 0.1445(8) 0.7830(15) 0.0577(30)
H31 H 0.0973(10) 0.7455(18) 0.3265(38)
H32 H 0.0428(11) 0.7408(19) 0.2348(39)
H33 H 0.0715(10) 0.8402(20) 0.2696(36)
H34 H 0.1046(10) 0.8435(18) -0.2044(39)
H35 H 0.0892(9) 0.9107(17) -0.0414(34)
H36 H 0.0040(12) 0.8357(21) -0.0456(44)
H37 H 0.0203(11) 0.7675(21) -0.2032(40)
H38 H 0.0209(10) 0.0610(20) -0.0192(42)
H39 H 0.0252(10) 0.5311(18) 0.2416(38)
H40 H -0.0175(13) 0.9249(24) -0.5066(49)
loop_
_geom_bond_atom_site_label_1
_geom_bond_atom_site_label_2
_geom_bond_site_symmetry_1
_geom_bond_site_symmetry_2
C1 C2 1_555 1_555
C2 C3 1_555 1_555
C3 C4 1_555 1_555
C4 C5 1_555 1_555
C5 C6 1_555 1_555
C6 C7 1_555 1_555
C7 C8 1_555 1_555
C8 C9 1_555 1_555
C9 C10 1_555 1_555
C10 C1 1_555 1_555
C11 C9 1_555 1_555
C12 C11 1_555 1_555
C13 C12 1_555 1_555
C14 C8 1_555 1_555
C15 C14 1_555 1_555
C16 C15 1_555 1_555
C17 C13 1_555 1_555
C18 C13 1_555 1_555
C19 C10 1_555 1_555
C20 C17 1_555 1_555
C21 C20 1_555 1_555
C22 C20 1_555 1_555
C23 C22 1_555 1_555
C24 C23 1_555 1_555
O1 C3 1_555 1_555
O2 C12 1_555 1_555
O3 C24 1_555 1_555
O4 C24 1_555 1_555
H1 C1 1_555 1_555
H2 C1 1_555 1_555
H3 C2 1_555 1_555
H4 C2 1_555 1_555
H5 C3 1_555 1_555
H6 C4 1_555 1_555
H7 C4 1_555 1_555
H8 C5 1_555 1_555
H9 C6 1_555 1_555
H10 C6 1_555 1_555
H11 C7 1_555 1_555
H12 C7 1_555 1_555
H13 C8 1_555 1_555
H14 C9 1_555 1_555
H15 C11 1_555 1_555
H16 C11 1_555 1_555
H17 C12 1_555 1_555
H18 C14 1_555 1_555
H19 C15 1_555 1_555
H20 C15 1_555 1_555
H21 C16 1_555 1_555
H22 C16 1_555 1_555
H23 C17 1_555 1_555
H24 C18 1_555 1_555
H25 C18 1_555 1_555
H26 C18 1_555 1_555
H27 C19 1_555 1_555
H28 C19 1_555 1_555
H29 C19 1_555 1_555
H30 C20 1_555 1_555
H31 C21 1_555 1_555
H32 C21 1_555 1_555
H33 C21 1_555 1_555
H34 C22 1_555 1_555
H35 C22 1_555 1_555
H36 C23 1_555 1_555
H37 C23 1_555 1_555
H38 O1 1_555 1_555
H39 O2 1_555 1_555
H40 O4 1_555 1_555
C5 C10 1_555 1_555
C13 C14 1_555 1_555
C16 C17 1_555 1_555

#END
