
#######################################################################
#
#                 Cambridge Crystallographic Data Centre
#                                CCDC 
#
#######################################################################
#
# If this CIF has been generated from an entry in the Cambridge 
# Structural Database, then it will include bibliographic, chemical, 
# crystal, experimental, refinement or atomic coordinate data resulting 
# from the CCDC's data processing and validation procedures.
#
#######################################################################

data_BARLIS
_chemical_formula_moiety         'C41 H56 O12 P4,4(H2 O1)'
_chemical_name_systematic        
'octaethyl (methanetetrayltetra-4,1-phenylene)tetrakis(phosphonate) tetrahydrate'
_symmetry_cell_setting           tetragonal
_symmetry_space_group_name_H-M   'I 41/a'
_symmetry_Int_Tables_number      88
_space_group_name_Hall           '-I 4ad'
loop_
_symmetry_equiv_pos_site_id
_symmetry_equiv_pos_as_xyz
1 x,y,z
2 1/2-x,-y,1/2+z
3 3/4-y,1/4+x,1/4+z
4 3/4+y,3/4-x,3/4+z
5 1/2+x,1/2+y,1/2+z
6 -x,1/2-y,z
7 1/4-y,3/4+x,3/4+z
8 1/4+y,1/4-x,1/4+z
9 -x,-y,-z
10 1/2+x,y,1/2-z
11 1/4+y,3/4-x,3/4-z
12 1/4-y,1/4+x,1/4-z
13 1/2-x,1/2-y,1/2-z
14 x,1/2+y,-z
15 3/4+y,1/4-x,1/4-z
16 3/4-y,3/4+x,3/4-z
_cell_length_a                   24.905(3)
_cell_length_b                   24.905(3)
_cell_length_c                   7.5896(10)
_cell_angle_alpha                90
_cell_angle_beta                 90
_cell_angle_gamma                90
_cell_volume                     4707.52
_exptl_crystal_colour            colorless
_exptl_crystal_description       block
_cell_formula_units_Z            4
loop_
_atom_site_label
_atom_site_type_symbol
_atom_site_fract_x
_atom_site_fract_y
_atom_site_fract_z
P2 P 0.89391(8) 0.59943(9) 0.9118(3)
O4 O 0.83845(17) 0.6161(2) 0.9492(6)
O5 O 0.89984(15) 0.53982(16) 0.8454(6)
O6 O 0.93389(15) 0.6000(2) 1.0725(5)
C11 C 0.9263(3) 0.6417(3) 0.7545(9)
C12 C 0.9023(3) 0.6912(3) 0.7136(12)
C13 C 0.9249(4) 0.7239(5) 0.5868(18)
C14 C 0.9739(11) 0.7095(12) 0.502(5)
C15 C 0.9986(4) 0.6609(6) 0.5494(18)
C16 C 0.9746(3) 0.6282(3) 0.6777(11)
C17 C 0.8599(3) 0.5160(3) 0.7302(10)
C18 C 0.8739(3) 0.4571(4) 0.7140(14)
C19 C 0.9218(2) 0.5678(3) 1.2297(7)
C20 C 0.9656(6) 0.5246(6) 1.2476(18)
C21 C 1.0000 0.7500 0.3750
P2E P 1.10609(8) 0.90057(9) 0.9118(3)
O4E O 1.16155(17) 0.8839(2) 0.9492(6)
O5E O 1.10016(15) 0.96018(16) 0.8454(6)
O6E O 1.06611(15) 0.9000(2) 1.0725(5)
C11E C 1.0737(3) 0.8583(3) 0.7545(9)
C12E C 1.0977(3) 0.8088(3) 0.7136(12)
C13E C 1.0751(4) 0.7761(5) 0.5868(18)
C14E C 1.0261(11) 0.7905(12) 0.502(5)
C15E C 1.0014(4) 0.8391(6) 0.5494(18)
C16E C 1.0254(3) 0.8718(3) 0.6777(11)
C17E C 1.1401(3) 0.9840(3) 0.7302(10)
C18E C 1.1261(3) 1.0429(4) 0.7140(14)
C19E C 1.0782(2) 0.9322(3) 1.2297(7)
C20E C 1.0344(6) 0.9754(6) 1.2476(18)
P2J P 0.84943(9) 0.85609(8) -0.1618(3)
O4J O 0.8661(2) 0.91155(17) -0.1992(6)
O5J O 0.78982(16) 0.85016(15) -0.0954(6)
O6J O 0.8500(2) 0.81611(15) -0.3225(5)
C11J C 0.8917(3) 0.8237(3) -0.0045(9)
C12J C 0.9412(3) 0.8477(3) 0.0364(12)
C13J C 0.9739(5) 0.8251(4) 0.1632(18)
C14J C 0.9595(12) 0.7761(11) 0.248(5)
C15J C 0.9109(6) 0.7514(4) 0.2006(18)
C16J C 0.8782(3) 0.7754(3) 0.0723(11)
C17J C 0.7660(3) 0.8901(3) 0.0198(10)
C18J C 0.7071(4) 0.8761(3) 0.0360(14)
C19J C 0.8178(3) 0.8282(2) -0.4797(7)
C20J C 0.7746(6) 0.7844(6) -0.4976(18)
P2O P 1.15057(9) 0.64391(8) -0.1618(3)
O4O O 1.1339(2) 0.58845(17) -0.1992(6)
O5O O 1.21018(16) 0.64984(15) -0.0954(6)
O6O O 1.1500(2) 0.68389(15) -0.3225(5)
C11O C 1.1083(3) 0.6763(3) -0.0045(9)
C12O C 1.0588(3) 0.6523(3) 0.0364(12)
C13O C 1.0261(5) 0.6749(4) 0.1632(18)
C14O C 1.0405(12) 0.7239(11) 0.248(5)
C15O C 1.0891(6) 0.7486(4) 0.2006(18)
C16O C 1.1218(3) 0.7246(3) 0.0723(11)
C17O C 1.2340(3) 0.6099(3) 0.0198(10)
C18O C 1.2929(4) 0.6239(3) 0.0360(14)
C19O C 1.1822(3) 0.6718(2) -0.4797(7)
C20O C 1.2254(6) 0.7156(6) -0.4976(18)
O7 O 0.24100(8) 0.44585(8) 0.9273(3)
P1? P 0.91148(13) 0.57629(13) 0.8675(3)
O1? O 0.8570(3) 0.5916(3) 0.9291(9)
O2? O 0.9131(2) 0.5229(2) 0.7587(8)
O3? O 0.9546(3) 0.5663(3) 1.0132(8)
C1? C 0.9424(4) 0.6269(4) 0.7345(11)
C2? C 0.9150(4) 0.6757(4) 0.7162(14)
C3? C 0.9360(6) 0.7159(7) 0.603(3)
C4? C 0.9803(14) 0.7052(15) 0.502(7)
C5? C 1.0104(6) 0.6571(7) 0.525(2)
C6? C 0.9895(4) 0.6183(4) 0.6427(13)
C7? C 0.8676(4) 0.4967(5) 0.6909(18)
C8? C 0.8823(4) 0.4417(4) 0.6329(16)
C9? C 0.9504(6) 0.5173(4) 1.1303(15)
C10? C 0.9517(5) 0.5362(5) 1.3076(16)
loop_
_geom_bond_atom_site_label_1
_geom_bond_atom_site_label_2
_geom_bond_site_symmetry_1
_geom_bond_site_symmetry_2
P2 O4 1_555 1_555
O5 P2 1_555 1_555
O6 P2 1_555 1_555
C11 P2 1_555 1_555
C12 C11 1_555 1_555
C13 C12 1_555 1_555
C14 C13 1_555 1_555
C15 C14 1_555 1_555
C16 C11 1_555 1_555
C17 O5 1_555 1_555
C18 C17 1_555 1_555
C19 O6 1_555 1_555
C20 C19 1_555 1_555
C21 C14 1_555 1_555
P2E O4E 1_555 1_555
O5E P2E 1_555 1_555
O6E P2E 1_555 1_555
C11E P2E 1_555 1_555
C12E C11E 1_555 1_555
C13E C12E 1_555 1_555
C14E C21 1_555 1_555
C15E C14E 1_555 1_555
C16E C11E 1_555 1_555
C17E O5E 1_555 1_555
C18E C17E 1_555 1_555
C19E O6E 1_555 1_555
C20E C19E 1_555 1_555
P2J O4J 1_555 1_555
O5J P2J 1_555 1_555
O6J P2J 1_555 1_555
C11J P2J 1_555 1_555
C12J C11J 1_555 1_555
C13J C12J 1_555 1_555
C14J C21 1_555 1_555
C15J C14J 1_555 1_555
C16J C11J 1_555 1_555
C17J O5J 1_555 1_555
C18J C17J 1_555 1_555
C19J O6J 1_555 1_555
C20J C19J 1_555 1_555
P2O O4O 1_555 1_555
O5O P2O 1_555 1_555
O6O P2O 1_555 1_555
C11O P2O 1_555 1_555
C12O C11O 1_555 1_555
C13O C12O 1_555 1_555
C14O C21 1_555 1_555
C15O C14O 1_555 1_555
C16O C11O 1_555 1_555
C17O O5O 1_555 1_555
C18O C17O 1_555 1_555
C19O O6O 1_555 1_555
C20O C19O 1_555 1_555
C15 C16 1_555 1_555
C13E C14E 1_555 1_555
C15E C16E 1_555 1_555
C13J C14J 1_555 1_555
C15J C16J 1_555 1_555
C13O C14O 1_555 1_555
C15O C16O 1_555 1_555

#END
