
#######################################################################
#
#                 Cambridge Crystallographic Data Centre
#                                CCDC 
#
#######################################################################
#
# If this CIF has been generated from an entry in the Cambridge 
# Structural Database, then it will include bibliographic, chemical, 
# crystal, experimental, refinement or atomic coordinate data resulting 
# from the CCDC's data processing and validation procedures.
#
#######################################################################

data_BARTIY
_chemical_compound_source        'Isodon eriocalyx var. laxiflora'
_chemical_name_common            
'3alpha,20-epoxy-6beta-hydroxy-1,7-dioxo-ent-abiet-15(17)-en-16-oic acid'
_chemical_formula_moiety         'C20 H26 O6'
_chemical_name_systematic        'Laxiflorin N'
_chemical_properties_biological  
'antitumour, antibacterial and antiinflammatory activity'
_symmetry_cell_setting           monoclinic
_symmetry_space_group_name_H-M   'P 21'
_symmetry_Int_Tables_number      4
_space_group_name_Hall           'P 2yb'
loop_
_symmetry_equiv_pos_site_id
_symmetry_equiv_pos_as_xyz
1 x,y,z
2 -x,1/2+y,-z
_cell_length_a                   7.2600(3)
_cell_length_b                   14.2030(5)
_cell_length_c                   9.2070(5)
_cell_angle_alpha                90
_cell_angle_beta                 108.915(2)
_cell_angle_gamma                90
_cell_volume                     898.103
_exptl_crystal_colour            colorless
_chemical_melting_point          '244.0-245.5 deg.C'
_cell_formula_units_Z            2
loop_
_atom_site_label
_atom_site_type_symbol
_atom_site_fract_x
_atom_site_fract_y
_atom_site_fract_z
O1 O 0.4682(4) 0.8027(3) 0.1319(4)
O2 O 0.6600(5) 0.8573(2) -0.2111(3)
O3 O 1.1247(4) 0.6194(1) 0.0694(4)
O4 O 1.2492(4) 0.6947(2) 0.3574(3)
O5 O 1.4774(4) 1.0719(2) 0.8284(3)
O6 O 1.4638(5) 1.0630(3) 0.5835(3)
C1 C 0.5463(6) 0.7941(3) 0.0356(5)
C2 C 0.4408(6) 0.7613(4) -0.1274(5)
C3 C 0.5869(6) 0.7627(3) -0.2157(5)
C4 C 0.7558(6) 0.6938(3) -0.1495(4)
C5 C 0.8438(5) 0.7169(3) 0.0282(4)
C6 C 1.0684(5) 0.7133(3) 0.0888(5)
C7 C 1.1464(6) 0.7445(3) 0.2546(5)
C8 C 1.0871(5) 0.8433(3) 0.2830(4)
C9 C 0.8600(5) 0.8472(3) 0.2307(4)
C10 C 0.7631(5) 0.8133(3) 0.0639(4)
C11 C 0.7979(6) 0.9476(3) 0.2587(5)
C12 C 0.8815(6) 0.9737(4) 0.4296(5)
C13 C 1.1069(6) 0.9716(3) 0.4808(5)
C14 C 1.1763(6) 0.8730(3) 0.4524(5)
C15 C 1.3926(6) 1.0475(3) 0.6978(5)
C16 C 1.1982(6) 0.9989(3) 0.6489(5)
C17 C 1.1201(7) 0.9814(4) 0.7572(5)
C18 C 0.6802(7) 0.5909(3) -0.1707(5)
C19 C 0.8984(6) 0.7069(4) -0.2412(5)
C20 C 0.7720(7) 0.8870(3) -0.0574(5)
H1 H 1.257 0.616 0.112
H2 H 1.584 1.096 0.620
H3 H 0.321 0.810 -0.182
H4 H 0.381 0.692 -0.128
H5 H 0.512 0.742 -0.334
H6 H 0.792 0.662 0.089
H7 H 1.122 0.761 0.018
H8 H 1.135 0.893 0.212
H9 H 0.813 0.800 0.306
H10 H 0.856 0.996 0.192
H11 H 0.642 0.952 0.218
H12 H 0.832 0.922 0.498
H13 H 0.831 1.043 0.451
H14 H 1.154 1.022 0.411
H15 H 1.332 0.873 0.485
H16 H 1.130 0.824 0.524
H17 H 0.980 0.945 0.724
H18 H 1.191 1.001 0.876
H19 H 0.802 0.543 -0.124
H20 H 0.613 0.576 -0.291
H21 H 0.578 0.586 -0.107
H22 H 0.824 0.695 -0.362
H23 H 1.017 0.656 -0.202
H24 H 0.953 0.778 -0.219
H25 H 0.923 0.897 -0.052
H26 H 0.715 0.954 -0.034
loop_
_geom_bond_atom_site_label_1
_geom_bond_atom_site_label_2
_geom_bond_site_symmetry_1
_geom_bond_site_symmetry_2
O1 C1 1_555 1_555
O2 C3 1_555 1_555
O3 C6 1_555 1_555
O4 C7 1_555 1_555
O5 C15 1_555 1_555
O6 C15 1_555 1_555
C1 C2 1_555 1_555
C2 C3 1_555 1_555
C3 C4 1_555 1_555
C4 C5 1_555 1_555
C5 C6 1_555 1_555
C6 C7 1_555 1_555
C7 C8 1_555 1_555
C8 C9 1_555 1_555
C9 C10 1_555 1_555
C10 C1 1_555 1_555
C11 C9 1_555 1_555
C12 C11 1_555 1_555
C13 C12 1_555 1_555
C14 C8 1_555 1_555
C15 C16 1_555 1_555
C16 C13 1_555 1_555
C17 C16 1_555 1_555
C18 C4 1_555 1_555
C19 C4 1_555 1_555
C20 O2 1_555 1_555
H1 O3 1_555 1_555
H2 O6 1_555 1_555
H3 C2 1_555 1_555
H4 C2 1_555 1_555
H5 C3 1_555 1_555
H6 C5 1_555 1_555
H7 C6 1_555 1_555
H8 C8 1_555 1_555
H9 C9 1_555 1_555
H10 C11 1_555 1_555
H11 C11 1_555 1_555
H12 C12 1_555 1_555
H13 C12 1_555 1_555
H14 C13 1_555 1_555
H15 C14 1_555 1_555
H16 C14 1_555 1_555
H17 C17 1_555 1_555
H18 C17 1_555 1_555
H19 C18 1_555 1_555
H20 C18 1_555 1_555
H21 C18 1_555 1_555
H22 C19 1_555 1_555
H23 C19 1_555 1_555
H24 C19 1_555 1_555
H25 C20 1_555 1_555
H26 C20 1_555 1_555
C5 C10 1_555 1_555
C10 C20 1_555 1_555
C13 C14 1_555 1_555

#END
