
#######################################################################
#
#                 Cambridge Crystallographic Data Centre
#                                CCDC 
#
#######################################################################
#
# If this CIF has been generated from an entry in the Cambridge 
# Structural Database, then it will include bibliographic, chemical, 
# crystal, experimental, refinement or atomic coordinate data resulting 
# from the CCDC's data processing and validation procedures.
#
#######################################################################

data_BARTOG
_chemical_formula_moiety         'C27 H23 Cl1 N2 O7'
_chemical_name_systematic        
'diethyl 7-chloro-1-(1,1-dicyano-2-phenylethyl)-9-oxo-9,9a-dihydro-1H-furo[3,4-b][1]benzopyran-3,3(3aH)-dicarboxylate'
_symmetry_cell_setting           monoclinic
_symmetry_space_group_name_H-M   'P 21/c'
_symmetry_Int_Tables_number      14
_space_group_name_Hall           '-P 2ybc'
loop_
_symmetry_equiv_pos_site_id
_symmetry_equiv_pos_as_xyz
1 x,y,z
2 -x,1/2+y,1/2-z
3 -x,-y,-z
4 x,1/2-y,1/2+z
_cell_length_a                   13.668(3)
_cell_length_b                   14.731(3)
_cell_length_c                   13.261(3)
_cell_angle_alpha                90
_cell_angle_beta                 111.59(3)
_cell_angle_gamma                90
_cell_volume                     2482.69
_exptl_crystal_colour            colorless
_exptl_crystal_description       block
_chemical_melting_point          '130-132 deg.C'
_cell_formula_units_Z            4
loop_
_atom_site_label
_atom_site_type_symbol
_atom_site_fract_x
_atom_site_fract_y
_atom_site_fract_z
Cl1 Cl 0.12164(4) 0.17017(4) 0.40257(5)
O1 O 0.46049(11) 0.37660(10) 0.46193(10)
O2 O 0.53239(11) 0.23572(9) 0.74789(10)
O3 O 0.68187(10) 0.43844(9) 0.75836(10)
O4 O 0.69391(12) 0.29049(10) 0.96850(11)
O5 O 0.76840(12) 0.42565(10) 0.96577(11)
O6 O 0.45967(11) 0.43389(10) 0.70271(11)
O7 O 0.50434(11) 0.42395(10) 0.88330(10)
N1 N 0.87977(15) 0.30989(13) 0.69945(16)
N2 N 0.82724(14) 0.59422(13) 0.68985(15)
C1 C 0.24470(16) 0.18934(14) 0.50287(16)
C2 C 0.31443(15) 0.24582(13) 0.48107(15)
H1 H 0.296267 0.272454 0.413027
C3 C 0.41336(15) 0.26325(13) 0.56198(15)
C4 C 0.43931(15) 0.22233(13) 0.66307(15)
C5 C 0.36823(17) 0.16454(14) 0.68404(17)
H2 H 0.386070 0.137254 0.751690
C6 C 0.27158(17) 0.14803(15) 0.60428(17)
H3 H 0.224139 0.109320 0.617933
C7 C 0.48585(15) 0.32740(12) 0.54113(14)
C8 C 0.59846(14) 0.32667(12) 0.62213(14)
H4 H 0.640930 0.289640 0.592275
C9 C 0.61376(14) 0.29027(12) 0.73599(14)
H5 H 0.679206 0.255109 0.762288
C10 C 0.64563(14) 0.42303(12) 0.64314(14)
H6 H 0.590802 0.467380 0.605803
C11 C 0.63074(14) 0.37758(12) 0.80583(14)
C12 C 0.52161(15) 0.41577(13) 0.79185(14)
C13 C 0.39711(16) 0.45403(15) 0.86998(17)
H7 H 0.384489 0.440972 0.935862
H8 H 0.346102 0.420229 0.811246
C14 C 0.38214(18) 0.55368(15) 0.84592(18)
H9 H 0.395429 0.566938 0.781240
H10 H 0.430198 0.587435 0.905542
H11 H 0.311215 0.570424 0.835593
C15 C 0.70127(14) 0.35982(13) 0.92378(14)
C16 C 0.85079(17) 0.40945(17) 1.07308(16)
H12 H 0.826279 0.365253 1.112652
H13 H 0.866258 0.465488 1.114380
C17 C 0.9482(2) 0.3750(2) 1.0594(2)
H14 H 0.970628 0.417879 1.017766
H15 H 0.933606 0.317750 1.022295
H16 H 1.002883 0.367383 1.129363
C18 C 0.79054(15) 0.52617(13) 0.65449(15)
C19 C 0.82134(15) 0.36612(14) 0.65908(15)
C20 C 0.74164(14) 0.43794(13) 0.60954(14)
C21 C 0.70392(14) 0.43855(14) 0.48312(14)
H17 H 0.674207 0.379539 0.456249
H18 H 0.648108 0.483040 0.455102
C22 C 0.78827(15) 0.45962(14) 0.43853(14)
C23 C 0.80591(17) 0.54888(15) 0.41485(16)
H19 H 0.767620 0.595832 0.429505
C24 C 0.88028(18) 0.56806(17) 0.36951(17)
H20 H 0.891578 0.627774 0.353758
C25 C 0.93760(17) 0.49873(19) 0.34773(17)
H21 H 0.987119 0.511786 0.316957
C26 C 0.92153(17) 0.41030(18) 0.37148(17)
H22 H 0.960687 0.363774 0.357364
C27 C 0.84684(16) 0.39043(15) 0.41658(16)
H23 H 0.835989 0.330564 0.432138
loop_
_geom_bond_atom_site_label_1
_geom_bond_atom_site_label_2
_geom_bond_site_symmetry_1
_geom_bond_site_symmetry_2
Cl1 C1 1_555 1_555
O1 C7 1_555 1_555
O2 C4 1_555 1_555
O3 C10 1_555 1_555
O4 C15 1_555 1_555
O5 C15 1_555 1_555
O6 C12 1_555 1_555
O7 C12 1_555 1_555
N1 C19 1_555 1_555
N2 C18 1_555 1_555
C1 C2 1_555 1_555
C2 H1 1_555 1_555
C3 C2 1_555 1_555
C4 C3 1_555 1_555
C5 C4 1_555 1_555
H2 C5 1_555 1_555
C6 C1 1_555 1_555
H3 C6 1_555 1_555
C7 C3 1_555 1_555
C8 C7 1_555 1_555
H4 C8 1_555 1_555
C9 O2 1_555 1_555
H5 C9 1_555 1_555
C10 C8 1_555 1_555
H6 C10 1_555 1_555
C11 O3 1_555 1_555
C12 C11 1_555 1_555
C13 O7 1_555 1_555
H7 C13 1_555 1_555
H8 C13 1_555 1_555
C14 C13 1_555 1_555
H9 C14 1_555 1_555
H10 C14 1_555 1_555
H11 C14 1_555 1_555
C15 C11 1_555 1_555
C16 O5 1_555 1_555
H12 C16 1_555 1_555
H13 C16 1_555 1_555
C17 C16 1_555 1_555
H14 C17 1_555 1_555
H15 C17 1_555 1_555
H16 C17 1_555 1_555
C18 C20 1_555 1_555
C19 C20 1_555 1_555
C20 C10 1_555 1_555
C21 C20 1_555 1_555
H17 C21 1_555 1_555
H18 C21 1_555 1_555
C22 C21 1_555 1_555
C23 C22 1_555 1_555
H19 C23 1_555 1_555
C24 C23 1_555 1_555
H20 C24 1_555 1_555
C25 C24 1_555 1_555
H21 C25 1_555 1_555
C26 C25 1_555 1_555
H22 C26 1_555 1_555
C27 C22 1_555 1_555
H23 C27 1_555 1_555
C5 C6 1_555 1_555
C8 C9 1_555 1_555
C9 C11 1_555 1_555
C26 C27 1_555 1_555

#END
