
#######################################################################
#
#                 Cambridge Crystallographic Data Centre
#                                CCDC 
#
#######################################################################
#
# If this CIF has been generated from an entry in the Cambridge 
# Structural Database, then it will include bibliographic, chemical, 
# crystal, experimental, refinement or atomic coordinate data resulting 
# from the CCDC's data processing and validation procedures.
#
#######################################################################

data_BARTIA
_chemical_formula_moiety         'C21 H18 O7'
_chemical_name_systematic        
'diethyl 7-oxo-7H-furo[3,4-b]naphtho[2,1-e]pyran-10,10(10aH)-dicarboxylate'
_symmetry_cell_setting           triclinic
_symmetry_space_group_name_H-M   'P -1'
_symmetry_Int_Tables_number      2
_space_group_name_Hall           '-P 1'
loop_
_symmetry_equiv_pos_site_id
_symmetry_equiv_pos_as_xyz
1 x,y,z
2 -x,-y,-z
_cell_length_a                   7.6133(15)
_cell_length_b                   10.8331(17)
_cell_length_c                   11.794(2)
_cell_angle_alpha                103.557(8)
_cell_angle_beta                 95.557(9)
_cell_angle_gamma                108.701(7)
_cell_volume                     879.927
_exptl_crystal_colour            colorless
_exptl_crystal_description       block
_chemical_melting_point          '152-154 deg.C'
_cell_formula_units_Z            2
loop_
_atom_site_label
_atom_site_type_symbol
_atom_site_fract_x
_atom_site_fract_y
_atom_site_fract_z
O1 O 0.31161(15) 0.64255(10) 0.36930(9)
O2 O 0.11635(19) 0.23536(11) 0.18247(11)
O3 O 0.30983(16) 0.60292(11) 0.06355(9)
O4 O 0.08601(16) 0.72803(12) 0.16069(11)
O5 O 0.33390(15) 0.88871(11) 0.29217(10)
O6 O 0.71761(16) 0.80850(13) 0.25664(11)
O7 O 0.58506(14) 0.85052(11) 0.09865(10)
C1 C 0.2623(2) 0.54252(14) 0.42635(13)
C2 C 0.2713(2) 0.58966(15) 0.55089(13)
C3 C 0.3385(2) 0.72940(16) 0.61231(13)
H1 H 0.3759 0.7937 0.5708
C4 C 0.3489(2) 0.77068(17) 0.73239(14)
H2 H 0.3945 0.8629 0.7722
C5 C 0.2912(3) 0.67457(18) 0.79604(15)
H3 H 0.2985 0.7035 0.8777
C6 C 0.2245(2) 0.53920(18) 0.73870(14)
H4 H 0.1859 0.4767 0.7818
C7 C 0.2131(2) 0.49199(16) 0.61454(14)
C8 C 0.1493(2) 0.35181(16) 0.55336(15)
H5 H 0.1100 0.2877 0.5948
C9 C 0.1448(2) 0.31026(16) 0.43473(15)
H6 H 0.1028 0.2178 0.3962
C10 C 0.2031(2) 0.40519(15) 0.36830(13)
C11 C 0.1877(2) 0.35556(15) 0.23827(14)
C12 C 0.2608(2) 0.46624(15) 0.18523(13)
C13 C 0.2293(2) 0.47512(16) 0.07506(14)
H7 H 0.1585 0.4007 0.0112
C14 C 0.3838(2) 0.69500(15) 0.18227(12)
C15 C 0.3843(2) 0.60285(15) 0.26453(13)
H8 H 0.5123 0.6038 0.2863
C16 C 0.2478(2) 0.77217(15) 0.20910(13)
C17 C 0.2187(2) 0.97001(17) 0.33398(15)
H9 H 0.0867 0.9196 0.2987
H10 H 0.2576 1.0535 0.3108
C18 C 0.2445(2) 1.00174(18) 0.46615(15)
H11 H 0.2017 0.9187 0.4883
H12 H 0.1726 1.0569 0.4948
H13 H 0.3757 1.0500 0.5003
C19 C 0.5832(2) 0.79084(15) 0.18456(13)
C20 C 0.7724(2) 0.93985(17) 0.09130(16)
H14 H 0.8560 0.8887 0.0783
H15 H 0.8267 1.0123 0.1647
C21 C 0.7484(2) 0.99779(18) -0.01042(15)
H16 H 0.7035 0.9258 -0.0833
H17 H 0.8677 1.0617 -0.0138
H18 H 0.6589 1.0429 0.0007
loop_
_geom_bond_atom_site_label_1
_geom_bond_atom_site_label_2
_geom_bond_site_symmetry_1
_geom_bond_site_symmetry_2
O1 C1 1_555 1_555
O2 C11 1_555 1_555
O3 C13 1_555 1_555
O4 C16 1_555 1_555
O5 C16 1_555 1_555
O6 C19 1_555 1_555
O7 C19 1_555 1_555
C1 C2 1_555 1_555
C2 C3 1_555 1_555
C3 H1 1_555 1_555
C4 C3 1_555 1_555
H2 C4 1_555 1_555
C5 C4 1_555 1_555
H3 C5 1_555 1_555
C6 C5 1_555 1_555
H4 C6 1_555 1_555
C7 C2 1_555 1_555
C8 C7 1_555 1_555
H5 C8 1_555 1_555
C9 C8 1_555 1_555
H6 C9 1_555 1_555
C10 C1 1_555 1_555
C11 C10 1_555 1_555
C12 C11 1_555 1_555
C13 C12 1_555 1_555
H7 C13 1_555 1_555
C14 O3 1_555 1_555
C15 O1 1_555 1_555
H8 C15 1_555 1_555
C16 C14 1_555 1_555
C17 O5 1_555 1_555
H9 C17 1_555 1_555
H10 C17 1_555 1_555
C18 C17 1_555 1_555
H11 C18 1_555 1_555
H12 C18 1_555 1_555
H13 C18 1_555 1_555
C19 C14 1_555 1_555
C20 O7 1_555 1_555
H14 C20 1_555 1_555
H15 C20 1_555 1_555
C21 C20 1_555 1_555
H16 C21 1_555 1_555
H17 C21 1_555 1_555
H18 C21 1_555 1_555
C6 C7 1_555 1_555
C9 C10 1_555 1_555
C12 C15 1_555 1_555
C14 C15 1_555 1_555

#END
