
#######################################################################
#
#                 Cambridge Crystallographic Data Centre
#                                CCDC 
#
#######################################################################
#
# If this CIF has been generated from an entry in the Cambridge 
# Structural Database, then it will include bibliographic, chemical, 
# crystal, experimental, refinement or atomic coordinate data resulting 
# from the CCDC's data processing and validation procedures.
#
#######################################################################

data_BARVIA02
_chemical_name_common            'bis (vinyl quinolinyl)bBenzene'
_chemical_formula_moiety         'C28 H20 N2'
_chemical_name_systematic        
2,2'-(1,4-phenylenediethene-2,1-diyl)diquinoline
_symmetry_cell_setting           triclinic
_symmetry_space_group_name_H-M   'P -1'
_symmetry_Int_Tables_number      2
_space_group_name_Hall           '-P 1'
loop_
_symmetry_equiv_pos_site_id
_symmetry_equiv_pos_as_xyz
1 x,y,z
2 -x,-y,-z
_cell_length_a                   3.9847(4)
_cell_length_b                   11.5962(8)
_cell_length_c                   21.0935(13)
_cell_angle_alpha                102.184(6)
_cell_angle_beta                 90.398(7)
_cell_angle_gamma                91.768(7)
_cell_volume                     952.177
_exptl_crystal_colour            yellow
_exptl_crystal_description       plate
_cell_formula_units_Z            2
loop_
_atom_site_label
_atom_site_type_symbol
_atom_site_fract_x
_atom_site_fract_y
_atom_site_fract_z
N1 N 0.2484(6) 0.89095(19) 0.24814(11)
C1 C 0.0560(7) 0.9646(2) 0.05948(13)
C2 C -0.1386(7) 0.8941(2) 0.00967(13)
H1 H -0.2319 0.8227 0.0156
C3 C 0.1975(7) 0.7594(2) 0.32446(13)
C4 C 0.1941(7) 1.0712(2) 0.04793(13)
H2 H 0.3261 1.1195 0.0800
C5 C 0.3157(7) 0.8654(2) 0.30691(13)
C6 C 0.1236(7) 0.9325(2) 0.12141(13)
H3 H 0.2762 0.9811 0.1492
C7 C 0.0070(7) 0.6780(2) 0.27773(14)
H4 H -0.0735 0.6072 0.2869
C8 C -0.0571(7) 0.7044(2) 0.21917(14)
H5 H -0.1821 0.6515 0.1879
C9 C 0.0667(7) 0.8130(2) 0.20543(13)
C10 C 0.5120(7) 0.9481(2) 0.35229(14)
H6 H 0.5955 1.0164 0.3408
C11 C 0.4583(8) 0.8240(3) 0.43026(14)
H7 H 0.5055 0.8111 0.4714
C12 C 0.2728(7) 0.7423(2) 0.38744(14)
H8 H 0.1941 0.6740 0.3997
C13 C 0.5806(8) 0.9291(3) 0.41255(15)
H9 H 0.7073 0.9848 0.4420
C14 C -0.0111(7) 0.8402(2) 0.14265(13)
H10 H -0.1639 0.7904 0.1156
N1A N -0.2484(6) 1.10905(19) -0.24814(11)
C1A C -0.0560(7) 1.0354(2) -0.05948(13)
C2A C 0.1386(7) 1.1059(2) -0.00967(13)
H1A H 0.2319 1.1773 -0.0156
C3A C -0.1975(7) 1.2406(2) -0.32446(13)
C4A C -0.1941(7) 0.9288(2) -0.04793(13)
H2A H -0.3261 0.8805 -0.0800
C5A C -0.3157(7) 1.1346(2) -0.30691(13)
C6A C -0.1236(7) 1.0675(2) -0.12141(13)
H3A H -0.2762 1.0189 -0.1492
C7A C -0.0070(7) 1.3220(2) -0.27773(14)
H4A H 0.0735 1.3928 -0.2869
C8A C 0.0571(7) 1.2956(2) -0.21917(14)
H5A H 0.1821 1.3485 -0.1879
C9A C -0.0667(7) 1.1870(2) -0.20543(13)
C10A C -0.5120(7) 1.0519(2) -0.35229(14)
H6A H -0.5955 0.9836 -0.3408
C11A C -0.4583(8) 1.1760(3) -0.43026(14)
H7A H -0.5055 1.1889 -0.4714
C12A C -0.2728(7) 1.2577(2) -0.38744(14)
H8A H -0.1941 1.3260 -0.3997
C13A C -0.5806(8) 1.0709(3) -0.41255(15)
H9A H -0.7073 1.0152 -0.4420
C14A C 0.0111(7) 1.1598(2) -0.14265(13)
H10A H 0.1639 1.2096 -0.1156
N2 N 1.3898(6) 0.59082(19) 0.72426(11)
C15 C 1.3279(7) 0.5700(2) 0.60983(14)
H11 H 1.4309 0.4976 0.6040
C16 C 1.1890(7) 0.7645(2) 0.79596(14)
H12 H 1.1639 0.8063 0.8383
C17 C 1.4369(7) 0.5597(2) 0.94892(13)
C18 C 1.3352(7) 0.6046(2) 1.01248(13)
H13 H 1.2235 0.6754 1.0215
C19 C 1.4456(7) 0.5944(2) 0.83597(13)
H14 H 1.5901 0.5321 0.8247
C20 C 1.0831(7) 0.8106(2) 0.74542(14)
H15 H 0.9864 0.8842 0.7530
C21 C 1.2807(7) 0.6360(2) 0.67298(13)
C22 C 1.0110(7) 0.7846(2) 0.62600(14)
H16 H 0.9027 0.8558 0.6310
C23 C 1.1212(7) 0.7459(2) 0.68129(13)
C24 C 1.3389(7) 0.6518(2) 0.78374(13)
C25 C 1.2245(7) 0.6108(3) 0.55709(14)
H17 H 1.2618 0.5671 0.5156
C26 C 1.0606(7) 0.7194(3) 0.56526(15)
H18 H 0.9868 0.7463 0.5292
C27 C 1.3558(7) 0.6229(2) 0.89793(14)
H19 H 1.2286 0.6898 0.9100
C28 C 1.3955(7) 0.5473(2) 1.06226(13)
H20 H 1.3241 0.5800 1.1039
N2A N 1.6102(6) 0.40918(19) 1.27574(11)
C15A C 1.6721(7) 0.4300(2) 1.39017(14)
H11A H 1.5691 0.5024 1.3960
C16A C 1.8110(7) 0.2355(2) 1.20404(14)
H12A H 1.8361 0.1937 1.1617
C17A C 1.5631(7) 0.4403(2) 1.05108(13)
C18A C 1.6648(7) 0.3954(2) 0.98752(13)
H13A H 1.7765 0.3246 0.9785
C19A C 1.5544(7) 0.4056(2) 1.16403(13)
H14A H 1.4099 0.4679 1.1753
C20A C 1.9169(7) 0.1894(2) 1.25458(14)
H15A H 2.0136 0.1158 1.2470
C21A C 1.7193(7) 0.3640(2) 1.32702(13)
C22A C 1.9890(7) 0.2154(2) 1.37400(14)
H16A H 2.0973 0.1442 1.3690
C23A C 1.8788(7) 0.2541(2) 1.31871(13)
C24A C 1.6611(7) 0.3482(2) 1.21626(13)
C25A C 1.7755(7) 0.3892(3) 1.44291(14)
H17A H 1.7382 0.4329 1.4844
C26A C 1.9394(7) 0.2806(3) 1.43474(15)
H18A H 2.0132 0.2537 1.4708
C27A C 1.6442(7) 0.3771(2) 1.10207(14)
H19A H 1.7714 0.3102 1.0900
C28A C 1.6045(7) 0.4527(2) 0.93774(13)
H20A H 1.6759 0.4200 0.8961
loop_
_geom_bond_atom_site_label_1
_geom_bond_atom_site_label_2
_geom_bond_site_symmetry_1
_geom_bond_site_symmetry_2
N1 C5 1_555 1_555
C1 C2 1_555 1_555
C2 H1 1_555 1_555
C3 C5 1_555 1_555
C4 C1 1_555 1_555
H2 C4 1_555 1_555
C5 C10 1_555 1_555
C6 C1 1_555 1_555
H3 C6 1_555 1_555
C7 C3 1_555 1_555
H4 C7 1_555 1_555
C8 C7 1_555 1_555
H5 C8 1_555 1_555
C9 N1 1_555 1_555
C10 H6 1_555 1_555
C11 H7 1_555 1_555
C12 C3 1_555 1_555
H8 C12 1_555 1_555
C13 C10 1_555 1_555
H9 C13 1_555 1_555
C14 C6 1_555 1_555
H10 C14 1_555 1_555
N2 C21 1_555 1_555
C15 H11 1_555 1_555
C16 H12 1_555 1_555
C17 C18 1_555 1_555
C18 H13 1_555 1_555
C19 H14 1_555 1_555
C20 C16 1_555 1_555
H15 C20 1_555 1_555
C21 C15 1_555 1_555
C22 H16 1_555 1_555
C23 C20 1_555 1_555
C24 N2 1_555 1_555
C25 C15 1_555 1_555
H17 C25 1_555 1_555
C26 C22 1_555 1_555
H18 C26 1_555 1_555
C27 C17 1_555 1_555
H19 C27 1_555 1_555
C28 C18 1_555 1_555
H20 C28 1_555 1_555
N1A C5A 1_555 1_555
C1A C2A 1_555 1_555
C2A C4 1_555 1_555
H1A C2A 1_555 1_555
C3A C5A 1_555 1_555
C4A C2 1_555 1_555
H2A C4A 1_555 1_555
C5A C10A 1_555 1_555
C6A C1A 1_555 1_555
H3A C6A 1_555 1_555
C7A C3A 1_555 1_555
H4A C7A 1_555 1_555
C8A C7A 1_555 1_555
H5A C8A 1_555 1_555
C9A N1A 1_555 1_555
C10A H6A 1_555 1_555
C11A H7A 1_555 1_555
C12A C3A 1_555 1_555
H8A C12A 1_555 1_555
C13A C10A 1_555 1_555
H9A C13A 1_555 1_555
C14A C6A 1_555 1_555
H10A C14A 1_555 1_555
N2A C21A 1_555 1_555
C15A H11A 1_555 1_555
C16A H12A 1_555 1_555
C17A C28 1_555 1_555
C18A C17A 1_555 1_555
H13A C18A 1_555 1_555
C19A H14A 1_555 1_555
C20A C16A 1_555 1_555
H15A C20A 1_555 1_555
C21A C15A 1_555 1_555
C22A H16A 1_555 1_555
C23A C20A 1_555 1_555
C24A N2A 1_555 1_555
C25A C15A 1_555 1_555
H17A C25A 1_555 1_555
C26A C22A 1_555 1_555
H18A C26A 1_555 1_555
C27A C17A 1_555 1_555
H19A C27A 1_555 1_555
C28A C17 1_555 1_555
H20A C28A 1_555 1_555
C8 C9 1_555 1_555
C9 C14 1_555 1_555
C11 C12 1_555 1_555
C11 C13 1_555 1_555
C16 C24 1_555 1_555
C19 C24 1_555 1_555
C19 C27 1_555 1_555
C21 C23 1_555 1_555
C22 C23 1_555 1_555
C25 C26 1_555 1_555
C1A C4A 1_555 1_555
C8A C9A 1_555 1_555
C9A C14A 1_555 1_555
C11A C12A 1_555 1_555
C11A C13A 1_555 1_555
C16A C24A 1_555 1_555
C18A C28A 1_555 1_555
C19A C24A 1_555 1_555
C19A C27A 1_555 1_555
C21A C23A 1_555 1_555
C22A C23A 1_555 1_555
C25A C26A 1_555 1_555

#END
