
#######################################################################
#
#                 Cambridge Crystallographic Data Centre
#                                CCDC 
#
#######################################################################
#
# If this CIF has been generated from an entry in the Cambridge 
# Structural Database, then it will include bibliographic, chemical, 
# crystal, experimental, refinement or atomic coordinate data resulting 
# from the CCDC's data processing and validation procedures.
#
#######################################################################

data_BASYOL
_chemical_formula_moiety         'C7 H5 Br1 N2 S1,C7 H5 N1 O4'
_chemical_name_systematic        
'6-Bromo-1,3-benzothiazol-2-amine 4-nitrobenzoic acid'
_symmetry_cell_setting           monoclinic
_symmetry_space_group_name_H-M   'P 21'
_symmetry_Int_Tables_number      4
_space_group_name_Hall           'P 2yb'
loop_
_symmetry_equiv_pos_site_id
_symmetry_equiv_pos_as_xyz
1 x,y,z
2 -x,1/2+y,-z
_cell_length_a                   8.5977(8)
_cell_length_b                   4.9726(3)
_cell_length_c                   17.3935(15)
_cell_angle_alpha                90
_cell_angle_beta                 90.162(1)
_cell_angle_gamma                90
_cell_volume                     743.62
_exptl_crystal_colour            colorless
_exptl_crystal_description       block
_cell_formula_units_Z            2
loop_
_atom_site_label
_atom_site_type_symbol
_atom_site_fract_x
_atom_site_fract_y
_atom_site_fract_z
Br1 Br 0.81052(8) 0.7081(2) 0.61283(3)
S1 S 0.89854(18) 0.7570(4) 0.28953(9)
N1 N 0.6938(6) 0.3728(11) 0.2837(3)
N2 N 0.7856(6) 0.5100(13) 0.1637(3)
H1 H 0.7277 0.3951 0.1402
H2 H 0.8456 0.6146 0.1378
C1 C 0.7825(7) 0.5261(13) 0.2407(3)
C2 C 0.7134(7) 0.4375(13) 0.3608(4)
C3 C 0.8183(6) 0.6404(13) 0.3766(3)
C4 C 0.8508(6) 0.729(2) 0.4507(3)
H4 H 0.9202 0.8688 0.4602
C5 C 0.7726(7) 0.5959(14) 0.5105(4)
C6 C 0.6705(8) 0.3891(17) 0.4963(4)
H5 H 0.6230 0.3034 0.5375
C7 C 0.6367(8) 0.3052(16) 0.4223(4)
H6 H 0.5662 0.1669 0.4132
N3 N 0.0928(6) 0.0973(11) 0.0727(3)
O1 O 0.5089(5) 0.9754(10) 0.2442(2)
H3 H 0.5691 1.0994 0.2533
O2 O 0.5735(5) 1.0668(9) 0.1229(2)
O3 O 0.1015(5) 0.0250(10) 0.0057(2)
O4 O 0.0044(6) -0.0050(10) 0.1198(3)
C8 C 0.5000(7) 0.9378(13) 0.1697(3)
C9 C 0.3920(5) 0.7180(14) 0.1459(3)
C10 C 0.3039(7) 0.5751(14) 0.2005(3)
H7 H 0.3125 0.6160 0.2525
C11 C 0.2039(7) 0.3729(14) 0.1761(3)
H8 H 0.1444 0.2777 0.2115
C12 C 0.1944(6) 0.3160(11) 0.0993(3)
C13 C 0.2795(7) 0.4551(14) 0.0444(3)
H9 H 0.2695 0.4140 -0.0076
C14 C 0.3788(6) 0.6553(13) 0.0686(3)
H10 H 0.4376 0.7492 0.0327
loop_
_geom_bond_atom_site_label_1
_geom_bond_atom_site_label_2
_geom_bond_site_symmetry_1
_geom_bond_site_symmetry_2
Br1 C5 1_555 1_555
S1 C1 1_555 1_555
N1 C1 1_555 1_555
N2 H1 1_555 1_555
H2 N2 1_555 1_555
N3 O3 1_555 1_555
O1 H3 1_555 1_555
O2 C8 1_555 1_555
O4 N3 1_555 1_555
C1 N2 1_555 1_555
C2 N1 1_555 1_555
C3 S1 1_555 1_555
C4 C3 1_555 1_555
H4 C4 1_555 1_555
C5 C4 1_555 1_555
C6 C5 1_555 1_555
H5 C6 1_555 1_555
C7 C2 1_555 1_555
H6 C7 1_555 1_555
C8 O1 1_555 1_555
C9 C8 1_555 1_555
C10 C9 1_555 1_555
H7 C10 1_555 1_555
C11 C10 1_555 1_555
H8 C11 1_555 1_555
C12 N3 1_555 1_555
C13 C12 1_555 1_555
H9 C13 1_555 1_555
C14 C9 1_555 1_555
H10 C14 1_555 1_555
C2 C3 1_555 1_555
C6 C7 1_555 1_555
C11 C12 1_555 1_555
C13 C14 1_555 1_555

#END
