
#######################################################################
#
#                 Cambridge Crystallographic Data Centre
#                                CCDC 
#
#######################################################################
#
# If this CIF has been generated from an entry in the Cambridge 
# Structural Database, then it will include bibliographic, chemical, 
# crystal, experimental, refinement or atomic coordinate data resulting 
# from the CCDC's data processing and validation procedures.
#
#######################################################################

data_BATGUY10
_chemical_formula_moiety         'C28 H48 O12'
_chemical_name_systematic        
4,7,10,15,18,21,24,27,30,33,36,39-Dodecaoxatricyclo(11.9.9.9^2,12^)tetraconta-1,12-diene
_symmetry_cell_setting           monoclinic
_symmetry_space_group_name_H-M   'P 21/c'
_symmetry_Int_Tables_number      14
_space_group_name_Hall           '-P 2ybc'
loop_
_symmetry_equiv_pos_site_id
_symmetry_equiv_pos_as_xyz
1 x,y,z
2 -x,1/2+y,1/2-z
3 -x,-y,-z
4 x,1/2-y,1/2+z
_cell_length_a                   8.356(3)
_cell_length_b                   17.029(8)
_cell_length_c                   11.059(4)
_cell_angle_alpha                90
_cell_angle_beta                 111.26(3)
_cell_angle_gamma                90
_cell_volume                     1466.54
_exptl_crystal_colour            white
_chemical_melting_point          118-123deg.C
_cell_formula_units_Z            2
loop_
_atom_site_label
_atom_site_type_symbol
_atom_site_fract_x
_atom_site_fract_y
_atom_site_fract_z
O1 O -0.1841(2) 0.0615(1) -0.4086(2)
O2 O -0.1780(2) 0.1750(1) -0.2072(2)
O3 O -0.0438(2) 0.2143(1) 0.0702(2)
O4 O -0.3519(2) -0.17855(9) -0.2088(2)
O5 O -0.3667(2) -0.1099(1) 0.0251(2)
O6 O -0.1897(2) -0.0233(1) 0.2639(2)
C1 C -0.0572(3) -0.0463(1) -0.2629(2)
C2 C -0.1502(3) -0.0202(1) -0.4011(2)
C3 C -0.3198(3) 0.0813(2) -0.3669(3)
C4 C -0.3090(3) 0.1657(2) -0.3297(2)
C5 C -0.1729(4) 0.2518(3) -0.1569(3)
C6 C -0.0268(4) 0.2593(2) -0.0316(3)
C7 C 0.0069(3) 0.1346(1) 0.0722(2)
C8 C -0.0984(3) -0.1100(1) -0.2105(2)
C9 C -0.2442(3) -0.1648(1) -0.2807(2)
C10 C -0.4496(3) -0.1120(2) -0.2020(3)
C11 C -0.5084(3) -0.1203(2) -0.0907(3)
C12 C -0.4105(3) -0.1142(2) 0.1365(3)
C13 C -0.2539(4) -0.1008(2) 0.2536(3)
C14 C 0.0832(3) 0.0098(1) -0.1905(2)
H1 H -0.256 -0.048 -0.435
H2 H -0.081 -0.032 -0.451
H3 H -0.312 0.050 -0.294
H4 H -0.426 0.072 -0.435
H5 H -0.415 0.182 -0.326
H6 H -0.283 0.196 -0.392
H7 H -0.277 0.262 -0.144
H8 H -0.159 0.289 -0.217
H9 H -0.018 0.313 -0.006
H10 H 0.075 0.243 -0.044
H11 H 0.082 0.129 0.026
H12 H -0.091 0.103 0.034
H13 H -0.311 -0.142 -0.362
H14 H -0.198 -0.213 -0.295
H15 H -0.381 -0.066 -0.190
H16 H -0.547 -0.108 -0.280
H17 H -0.593 -0.081 -0.097
H18 H -0.556 -0.171 -0.092
H19 H -0.493 -0.075 0.132
H20 H -0.456 -0.165 0.141
H21 H -0.281 -0.111 0.328
H22 H -0.167 -0.136 0.251
H23 H 0.034 0.058 -0.178
H24 H 0.150 -0.012 -0.109
C8B C 0.0984(3) 0.1100(1) 0.2105(2)
C7B C -0.0069(3) -0.1346(1) -0.0722(2)
C14B C -0.0832(3) -0.0098(1) 0.1905(2)
O6B O 0.1897(2) 0.0233(1) -0.2639(2)
C1B C 0.0572(3) 0.0463(1) 0.2629(2)
C9B C 0.2442(3) 0.1648(1) 0.2807(2)
O3B O 0.0438(2) -0.2143(1) -0.0702(2)
H11B H -0.082 -0.129 -0.026
H12B H 0.091 -0.103 -0.034
H23B H -0.034 -0.058 0.178
H24B H -0.150 0.012 0.109
C13B C 0.2539(4) 0.1008(2) -0.2536(3)
C2B C 0.1502(3) 0.0202(1) 0.4011(2)
O4B O 0.3519(2) 0.17855(9) 0.2088(2)
H13B H 0.311 0.142 0.362
H14B H 0.198 0.213 0.295
C6B C 0.0268(4) -0.2593(2) 0.0316(3)
C12B C 0.4105(3) 0.1142(2) -0.1365(3)
H21B H 0.281 0.111 -0.328
H22B H 0.167 0.136 -0.251
O1B O 0.1841(2) -0.0615(1) 0.4086(2)
H1B H 0.256 0.048 0.435
H2B H 0.081 0.032 0.451
C10B C 0.4496(3) 0.1120(2) 0.2020(3)
C5B C 0.1729(4) -0.2518(3) 0.1569(3)
H9B H 0.018 -0.313 0.006
H10B H -0.075 -0.243 0.044
O5B O 0.3667(2) 0.1099(1) -0.0251(2)
H19B H 0.493 0.075 -0.132
H20B H 0.456 0.165 -0.141
C3B C 0.3198(3) -0.0813(2) 0.3669(3)
C11B C 0.5084(3) 0.1203(2) 0.0907(3)
H15B H 0.381 0.066 0.190
H16B H 0.547 0.108 0.280
O2B O 0.1780(2) -0.1750(1) 0.2072(2)
H7B H 0.277 -0.262 0.144
H8B H 0.159 -0.289 0.217
C4B C 0.3090(3) -0.1657(2) 0.3297(2)
H3B H 0.312 -0.050 0.294
H4B H 0.426 -0.072 0.435
H17B H 0.593 0.081 0.097
H18B H 0.556 0.171 0.092
H5B H 0.415 -0.182 0.326
H6B H 0.283 -0.196 0.392
loop_
_geom_bond_atom_site_label_1
_geom_bond_atom_site_label_2
_geom_bond_site_symmetry_1
_geom_bond_site_symmetry_2
O1 C2 1_555 1_555
O2 C4 1_555 1_555
O3 C6 1_555 1_555
O4 C9 1_555 1_555
O5 C11 1_555 1_555
O6 C13 1_555 1_555
C1 C2 1_555 1_555
C2 H1 1_555 1_555
C3 O1 1_555 1_555
C4 C3 1_555 1_555
C5 O2 1_555 1_555
C6 C5 1_555 1_555
C7 O3 1_555 1_555
C8 C1 1_555 1_555
C9 C8 1_555 1_555
C10 O4 1_555 1_555
C11 C10 1_555 1_555
C12 O5 1_555 1_555
C13 C12 1_555 1_555
C14 C1 1_555 1_555
H2 C2 1_555 1_555
H3 C3 1_555 1_555
H4 C3 1_555 1_555
H5 C4 1_555 1_555
H6 C4 1_555 1_555
H7 C5 1_555 1_555
H8 C5 1_555 1_555
H9 C6 1_555 1_555
H10 C6 1_555 1_555
H11 C7 1_555 1_555
H12 C7 1_555 1_555
H13 C9 1_555 1_555
H14 C9 1_555 1_555
H15 C10 1_555 1_555
H16 C10 1_555 1_555
H17 C11 1_555 1_555
H18 C11 1_555 1_555
H19 C12 1_555 1_555
H20 C12 1_555 1_555
H21 C13 1_555 1_555
H22 C13 1_555 1_555
H23 C14 1_555 1_555
H24 C14 1_555 1_555
C8B C7 1_555 1_555
C7B C8 1_555 1_555
C14B O6 1_555 1_555
O6B C14 1_555 1_555
C1B C8B 1_555 1_555
C9B C8B 1_555 1_555
O3B C7B 1_555 1_555
H11B C7B 1_555 1_555
H12B C7B 1_555 1_555
H23B C14B 1_555 1_555
H24B C14B 1_555 1_555
C13B O6B 1_555 1_555
C2B C1B 1_555 1_555
O4B C9B 1_555 1_555
H13B C9B 1_555 1_555
H14B C9B 1_555 1_555
C6B O3B 1_555 1_555
C12B C13B 1_555 1_555
H21B C13B 1_555 1_555
H22B C13B 1_555 1_555
O1B C2B 1_555 1_555
H1B C2B 1_555 1_555
H2B C2B 1_555 1_555
C10B O4B 1_555 1_555
C5B C6B 1_555 1_555
H9B C6B 1_555 1_555
H10B C6B 1_555 1_555
O5B C12B 1_555 1_555
H19B C12B 1_555 1_555
H20B C12B 1_555 1_555
C3B O1B 1_555 1_555
C11B C10B 1_555 1_555
H15B C10B 1_555 1_555
H16B C10B 1_555 1_555
O2B C5B 1_555 1_555
H7B C5B 1_555 1_555
H8B C5B 1_555 1_555
C4B C3B 1_555 1_555
H3B C3B 1_555 1_555
H4B C3B 1_555 1_555
H17B C11B 1_555 1_555
H18B C11B 1_555 1_555
H5B C4B 1_555 1_555
H6B C4B 1_555 1_555
C14B C1B 1_555 1_555
O5B C11B 1_555 1_555
O2B C4B 1_555 1_555

#END
