
#######################################################################
#
#                 Cambridge Crystallographic Data Centre
#                                CCDC 
#
#######################################################################
#
# If this CIF has been generated from an entry in the Cambridge 
# Structural Database, then it will include bibliographic, chemical, 
# crystal, experimental, refinement or atomic coordinate data resulting 
# from the CCDC's data processing and validation procedures.
#
#######################################################################

data_BATMUF
_chemical_formula_moiety         'C26 H23 N3 O2'
_chemical_name_systematic        
5,8-Dimethyl-2,6,7-triphenyl-4,5,8,9-tetrahydro-2H-benzo[1,2-a][1,2,4]triazol-1,3-dione
_symmetry_cell_setting           monoclinic
_symmetry_space_group_name_H-M   'C c'
_symmetry_Int_Tables_number      9
_space_group_name_Hall           'C -2yc'
loop_
_symmetry_equiv_pos_site_id
_symmetry_equiv_pos_as_xyz
1 x,y,z
2 x,-y,1/2+z
3 1/2+x,1/2+y,z
4 1/2+x,1/2-y,1/2+z
_cell_length_a                   9.6641(19)
_cell_length_b                   26.231(5)
_cell_length_c                   9.0057(18)
_cell_angle_alpha                90
_cell_angle_beta                 111.78(3)
_cell_angle_gamma                90
_cell_volume                     2119.97
_exptl_crystal_colour            colorless
_exptl_crystal_description       needle
_cell_formula_units_Z            4
loop_
_atom_site_label
_atom_site_type_symbol
_atom_site_fract_x
_atom_site_fract_y
_atom_site_fract_z
C1 C 0.5383(6) 0.08318(18) 0.2700(7)
C2 C 0.4213(6) 0.0588(2) 0.1519(7)
H1 H 0.3600 0.0764 0.0584
C3 C 0.3968(7) 0.0075(2) 0.1749(8)
H2 H 0.3180 -0.0105 0.0966
C4 C 0.4876(7) -0.0170(2) 0.3121(7)
H3 H 0.4701 -0.0518 0.3278
C5 C 0.6023(7) 0.0081(2) 0.4258(7)
H4 H 0.6634 -0.0094 0.5197
C6 C 0.6303(6) 0.0592(2) 0.4049(7)
H5 H 0.7110 0.0768 0.4821
C7 C 0.5721(6) 0.1737(2) 0.3687(7)
C8 C 0.5623(6) 0.16043(19) 0.1123(7)
C9 C 0.5540(6) 0.2681(2) 0.3563(6)
H6 H 0.4502 0.2641 0.3535
C10 C 0.6562(6) 0.2814(2) 0.5240(7)
H7 H 0.6513 0.2545 0.5976
H8 H 0.6251 0.3139 0.5555
H9 H 0.7587 0.2844 0.5281
C11 C 0.5552(6) 0.30929(19) 0.2363(6)
C12 C 0.5952(6) 0.30145(19) 0.1119(7)
C13 C 0.6347(6) 0.24859(19) 0.0683(7)
H10 H 0.5859 0.2444 -0.0503
C14 C 0.8029(7) 0.2413(2) 0.1145(8)
H11 H 0.8530 0.2441 0.2308
H12 H 0.8413 0.2676 0.0624
H13 H 0.8221 0.2075 0.0798
C15 C 0.5074(6) 0.36035(18) 0.2740(6)
C16 C 0.3719(6) 0.36637(19) 0.2905(7)
H14 H 0.3092 0.3376 0.2790
C17 C 0.3251(7) 0.4137(2) 0.3237(7)
H15 H 0.2326 0.4171 0.3373
C18 C 0.4151(7) 0.4558(2) 0.3367(7)
H16 H 0.3833 0.4884 0.3573
C19 C 0.5506(7) 0.4507(2) 0.3200(7)
H17 H 0.6129 0.4796 0.3310
C20 C 0.5958(6) 0.4031(2) 0.2869(7)
H18 H 0.6882 0.3998 0.2730
C21 C 0.5946(6) 0.34220(19) -0.0033(6)
C22 C 0.4601(6) 0.3582(2) -0.1186(7)
H19 H 0.3694 0.3447 -0.1174
C23 C 0.4555(6) 0.3932(2) -0.2336(7)
H20 H 0.3623 0.4034 -0.3109
C24 C 0.5866(7) 0.4137(2) -0.2376(7)
H21 H 0.5841 0.4374 -0.3183
C25 C 0.7197(7) 0.3991(2) -0.1227(8)
H22 H 0.8098 0.4136 -0.1228
C26 C 0.7253(6) 0.3638(2) -0.0075(7)
H23 H 0.8189 0.3540 0.0700
N1 N 0.5604(5) 0.13721(15) 0.2501(5)
N2 N 0.6032(4) 0.21923(15) 0.3093(5)
N3 N 0.5690(5) 0.21185(15) 0.1431(5)
O1 O 0.5621(4) 0.16681(13) 0.4968(5)
O2 O 0.5569(4) 0.14022(13) -0.0110(5)
loop_
_geom_bond_atom_site_label_1
_geom_bond_atom_site_label_2
_geom_bond_site_symmetry_1
_geom_bond_site_symmetry_2
C1 C2 1_555 1_555
C2 H1 1_555 1_555
C3 C2 1_555 1_555
H2 C3 1_555 1_555
C4 C3 1_555 1_555
H3 C4 1_555 1_555
C5 C4 1_555 1_555
H4 C5 1_555 1_555
C6 C1 1_555 1_555
H5 C6 1_555 1_555
C7 N1 1_555 1_555
C8 N1 1_555 1_555
C9 H6 1_555 1_555
C10 C9 1_555 1_555
H7 C10 1_555 1_555
H8 C10 1_555 1_555
H9 C10 1_555 1_555
C11 C9 1_555 1_555
C12 C11 1_555 1_555
C13 C12 1_555 1_555
H10 C13 1_555 1_555
C14 C13 1_555 1_555
H11 C14 1_555 1_555
H12 C14 1_555 1_555
H13 C14 1_555 1_555
C15 C11 1_555 1_555
C16 C15 1_555 1_555
H14 C16 1_555 1_555
C17 C16 1_555 1_555
H15 C17 1_555 1_555
C18 C17 1_555 1_555
H16 C18 1_555 1_555
C19 C18 1_555 1_555
H17 C19 1_555 1_555
C20 C15 1_555 1_555
H18 C20 1_555 1_555
C21 C12 1_555 1_555
C22 C21 1_555 1_555
H19 C22 1_555 1_555
C23 C22 1_555 1_555
H20 C23 1_555 1_555
C24 C23 1_555 1_555
H21 C24 1_555 1_555
C25 C24 1_555 1_555
H22 C25 1_555 1_555
C26 C21 1_555 1_555
H23 C26 1_555 1_555
N1 C1 1_555 1_555
N2 C7 1_555 1_555
N3 C8 1_555 1_555
O1 C7 1_555 1_555
O2 C8 1_555 1_555
C5 C6 1_555 1_555
C9 N2 1_555 1_555
C13 N3 1_555 1_555
C19 C20 1_555 1_555
C25 C26 1_555 1_555
N2 N3 1_555 1_555

#END
