
#######################################################################
#
#                 Cambridge Crystallographic Data Centre
#                                CCDC 
#
#######################################################################
#
# If this CIF has been generated from an entry in the Cambridge 
# Structural Database, then it will include bibliographic, chemical, 
# crystal, experimental, refinement or atomic coordinate data resulting 
# from the CCDC's data processing and validation procedures.
#
#######################################################################

data_BATYAZ
_chemical_formula_moiety         'C7 H10 N1 1+,C7 H3 N2 O6 1-'
_chemical_name_systematic        '4-ethylpyridin-1-ium 3,5-dinitrobenzoate'
_symmetry_cell_setting           monoclinic
_symmetry_space_group_name_H-M   'P 21/c'
_symmetry_Int_Tables_number      14
_space_group_name_Hall           '-P 2ybc'
loop_
_symmetry_equiv_pos_site_id
_symmetry_equiv_pos_as_xyz
1 x,y,z
2 -x,1/2+y,1/2-z
3 -x,-y,-z
4 x,1/2-y,1/2+z
_cell_length_a                   8.439(6)
_cell_length_b                   14.091(9)
_cell_length_c                   12.167(8)
_cell_angle_alpha                90
_cell_angle_beta                 95.500(11)
_cell_angle_gamma                90
_cell_volume                     1440.17
_exptl_crystal_colour            colorless
_exptl_crystal_description       block
_chemical_melting_point          '119-122 deg.C'
_cell_formula_units_Z            4
loop_
_atom_site_label
_atom_site_type_symbol
_atom_site_fract_x
_atom_site_fract_y
_atom_site_fract_z
H1 H 0.456(3) 0.2575(19) 0.467(2)
H2 H 0.527(2) 0.1017(13) 0.4854(15)
H3 H 0.6808(19) 0.0090(13) 0.3644(14)
H4 H 0.707(2) 0.2511(13) 0.1794(15)
H5 H 0.5597(19) 0.3312(12) 0.3115(13)
H6 H 0.871(2) 0.1059(13) 0.1422(15)
H7 H 0.858(2) 0.0167(13) 0.2149(15)
C1 C 0.56982(16) 0.12698(10) 0.42318(11)
C2 C 0.65598(15) 0.07589(10) 0.35234(11)
C3 C 0.70791(14) 0.12053(9) 0.26002(10)
C4 C 0.67219(15) 0.21688(9) 0.24425(10)
C5 C 0.58611(15) 0.26418(9) 0.31819(10)
C6 C 0.79381(16) 0.06533(10) 0.17825(11)
C7 C 0.6767(2) 0.02098(13) 0.08992(14)
H8 H 0.7342 -0.0138 0.0387
H9 H 0.6153 0.0701 0.0513
H10 H 0.6068 -0.0213 0.1240
N1 N 0.53517(13) 0.21897(8) 0.40567(9)
H11 H 0.1224(18) 0.3429(12) 0.2389(13)
H12 H 0.038(2) 0.1235(12) 0.4386(15)
H13 H 0.306(2) 0.0791(13) 0.1781(15)
C8 C 0.30472(14) 0.26050(9) 0.10136(10)
C9 C 0.22438(14) 0.21815(9) 0.19588(10)
C10 C 0.13626(14) 0.27749(9) 0.25878(10)
C11 C 0.06869(14) 0.23924(9) 0.34798(10)
C12 C 0.08378(15) 0.14480(9) 0.37842(10)
C13 C 0.17268(14) 0.08853(9) 0.31377(10)
C14 C 0.24314(14) 0.12263(9) 0.22315(10)
N2 N -0.02385(13) 0.30238(8) 0.41489(9)
N3 N 0.19327(13) -0.01231(8) 0.34342(9)
O1 O 0.36156(12) 0.19939(7) 0.03716(8)
O2 O 0.31207(12) 0.34760(7) 0.09291(8)
O3 O -0.04470(13) 0.38464(7) 0.38489(9)
O4 O -0.07647(13) 0.26784(8) 0.49665(8)
O5 O 0.09484(14) -0.04888(8) 0.39831(9)
O6 O 0.30787(13) -0.05436(7) 0.31190(9)
loop_
_geom_bond_atom_site_label_1
_geom_bond_atom_site_label_2
_geom_bond_site_symmetry_1
_geom_bond_site_symmetry_2
H1 N1 1_555 1_555
H2 C1 1_555 1_555
H3 C2 1_555 1_555
H4 C4 1_555 1_555
H5 C5 1_555 1_555
H6 C6 1_555 1_555
H7 C6 1_555 1_555
C1 C2 1_555 1_555
C2 C3 1_555 1_555
C3 C4 1_555 1_555
C4 C5 1_555 1_555
C5 N1 1_555 1_555
C6 C3 1_555 1_555
C7 C6 1_555 1_555
H8 C7 1_555 1_555
H9 C7 1_555 1_555
H10 C7 1_555 1_555
N1 C1 1_555 1_555
H11 C10 1_555 1_555
H12 C12 1_555 1_555
H13 C14 1_555 1_555
C8 C9 1_555 1_555
C9 C10 1_555 1_555
C10 C11 1_555 1_555
C11 C12 1_555 1_555
C12 C13 1_555 1_555
C13 C14 1_555 1_555
C14 C9 1_555 1_555
N2 C11 1_555 1_555
N3 C13 1_555 1_555
O1 C8 1_555 1_555
O2 C8 1_555 1_555
O3 N2 1_555 1_555
O4 N2 1_555 1_555
O5 N3 1_555 1_555
O6 N3 1_555 1_555

#END
