
#######################################################################
#
#                 Cambridge Crystallographic Data Centre
#                                CCDC 
#
#######################################################################
#
# If this CIF has been generated from an entry in the Cambridge 
# Structural Database, then it will include bibliographic, chemical, 
# crystal, experimental, refinement or atomic coordinate data resulting 
# from the CCDC's data processing and validation procedures.
#
#######################################################################

data_BAVHUE
_chemical_formula_moiety         'C22 H24 O6'
_chemical_name_systematic        
2-(but-2-en-2-yl)-4,11-dihydroxy-5a-methyl-3,4,6,6a,12a,12b-hexahydro-2H,5aH-oxireno[2,3]anthra[1,2-b]pyran-7,12-dione
_symmetry_cell_setting           monoclinic
_symmetry_space_group_name_H-M   'P 21/n'
_symmetry_Int_Tables_number      14
_space_group_name_Hall           '-P 2yn'
loop_
_symmetry_equiv_pos_site_id
_symmetry_equiv_pos_as_xyz
1 x,y,z
2 1/2-x,1/2+y,1/2-z
3 -x,-y,-z
4 1/2+x,1/2-y,1/2+z
_cell_length_a                   15.6246(12)
_cell_length_b                   8.2035(6)
_cell_length_c                   16.7827(13)
_cell_angle_alpha                90
_cell_angle_beta                 117.184(6)
_cell_angle_gamma                90
_cell_volume                     1913.54
_exptl_crystal_description       prism
_cell_formula_units_Z            4
loop_
_atom_site_label
_atom_site_type_symbol
_atom_site_fract_x
_atom_site_fract_y
_atom_site_fract_z
O1 O -0.32745(10) -0.0887(2) -0.08743(9)
O2 O -0.43186(14) -0.2130(3) -0.35002(10)
O3 O -0.26330(11) -0.3628(2) -0.22544(9)
O4 O -0.26697(17) -0.3968(3) 0.05956(14)
O5 O -0.10416(14) 0.0924(2) -0.02866(11)
O6 O -0.07202(18) 0.2487(3) 0.11549(16)
C1 C -0.43063(15) -0.0946(3) -0.13691(13)
C2 C -0.46231(15) -0.0928(3) -0.23741(13)
C3 C -0.42588(15) -0.2430(3) -0.26443(12)
C4 C -0.32294(15) -0.2804(3) -0.19403(12)
C5 C -0.27517(14) -0.1357(3) -0.13453(13)
C6 C -0.17246(15) -0.1713(3) -0.06312(13)
C7 C -0.13563(16) -0.0244(3) -0.00384(14)
C8 C -0.14127(16) -0.0195(3) 0.08083(13)
C9 C -0.10993(20) 0.1188(4) 0.13620(17)
C10 C -0.1166(2) 0.1213(5) 0.21593(19)
C11 C -0.1550(2) -0.0068(5) 0.23994(19)
C12 C -0.18866(18) -0.1426(4) 0.18538(16)
C13 C -0.18126(16) -0.1502(3) 0.10635(14)
C14 C -0.21347(18) -0.3001(3) 0.05032(15)
C15 C -0.16823(16) -0.3275(3) -0.01086(13)
C16 C -0.20587(18) -0.4764(3) -0.07111(15)
C17 C -0.28920(17) -0.4465(3) -0.16297(13)
C18 C -0.3530(2) -0.5918(3) -0.20309(16)
C19 C -0.5802(2) 0.0192(4) -0.1369(2)
C20 C -0.47494(17) 0.0409(3) -0.10734(14)
C21 C -0.4236(2) 0.1653(3) -0.05953(15)
C22 C -0.4601(3) 0.3095(4) -0.0288(2)
H1 H -0.453491 -0.195161 -0.124356
H2 H -0.531281 -0.089753 -0.269425
H3 H -0.437337 0.002866 -0.25246
H4 H -0.46401 -0.337022 -0.26788
H5 H -0.274047 -0.051724 -0.173886
H6 H -0.131505 -0.191429 -0.090707
H7 H -0.093745 0.21461 0.254547
H8 H -0.158782 -0.00306 0.295406
H9 H -0.217072 -0.231244 0.202285
H10 H -0.101855 -0.352899 0.027167
H11 H -0.154011 -0.52725 -0.077487
H12 H -0.223317 -0.559226 -0.040805
H13 H -0.391768 -0.609503 -0.173028
H14 H -0.393967 -0.572476 -0.265586
H15 H -0.314063 -0.686385 -0.196298
H16 H -0.593139 -0.093012 -0.130181
H17 H -0.599227 0.086229 -0.100774
H18 H -0.615835 0.050526 -0.198567
H19 H -0.356024 0.163583 -0.04266
H20 H -0.42423 0.319786 0.035077
H21 H -0.452313 0.406632 -0.056757
H22 H -0.52695 0.294171 -0.04511
H23 H -0.404(2) -0.285(4) -0.364(2)
H24 H -0.073(3) 0.220(5) 0.052(3)
loop_
_geom_bond_atom_site_label_1
_geom_bond_atom_site_label_2
_geom_bond_site_symmetry_1
_geom_bond_site_symmetry_2
O1 C1 1_555 1_555
O2 C3 1_555 1_555
O3 C4 1_555 1_555
O4 C14 1_555 1_555
O5 C7 1_555 1_555
O6 C9 1_555 1_555
C1 C2 1_555 1_555
C2 C3 1_555 1_555
C3 C4 1_555 1_555
C4 C5 1_555 1_555
C5 O1 1_555 1_555
C6 C5 1_555 1_555
C7 C6 1_555 1_555
C8 C7 1_555 1_555
C9 C8 1_555 1_555
C10 C9 1_555 1_555
C11 C10 1_555 1_555
C12 C11 1_555 1_555
C13 C8 1_555 1_555
C14 C13 1_555 1_555
C15 C6 1_555 1_555
C16 C15 1_555 1_555
C17 O3 1_555 1_555
C18 C17 1_555 1_555
C19 C20 1_555 1_555
C20 C1 1_555 1_555
C21 C20 1_555 1_555
C22 C21 1_555 1_555
H1 C1 1_555 1_555
H2 C2 1_555 1_555
H3 C2 1_555 1_555
H4 C3 1_555 1_555
H5 C5 1_555 1_555
H6 C6 1_555 1_555
H7 C10 1_555 1_555
H8 C11 1_555 1_555
H9 C12 1_555 1_555
H10 C15 1_555 1_555
H11 C16 1_555 1_555
H12 C16 1_555 1_555
H13 C18 1_555 1_555
H14 C18 1_555 1_555
H15 C18 1_555 1_555
H16 C19 1_555 1_555
H17 C19 1_555 1_555
H18 C19 1_555 1_555
H19 C21 1_555 1_555
H20 C22 1_555 1_555
H21 C22 1_555 1_555
H22 C22 1_555 1_555
H23 O2 1_555 1_555
H24 O6 1_555 1_555
C4 C17 1_555 1_555
C12 C13 1_555 1_555
C14 C15 1_555 1_555
C16 C17 1_555 1_555

#END
