
#######################################################################
#
#                 Cambridge Crystallographic Data Centre
#                                CCDC 
#
#######################################################################
#
# If this CIF has been generated from an entry in the Cambridge 
# Structural Database, then it will include bibliographic, chemical, 
# crystal, experimental, refinement or atomic coordinate data resulting 
# from the CCDC's data processing and validation procedures.
#
#######################################################################

data_BAVVOM
_chemical_formula_moiety         'C17 H18 N4 S1'
_chemical_name_systematic        
N^3^-phenyl-N^5^-(2,4,6-trimethylphenyl)-1,2,4-thiadiazole-3,5-diamine
_symmetry_cell_setting           triclinic
_symmetry_space_group_name_H-M   'P -1'
_symmetry_Int_Tables_number      2
_space_group_name_Hall           '-P 1'
loop_
_symmetry_equiv_pos_site_id
_symmetry_equiv_pos_as_xyz
1 x,y,z
2 -x,-y,-z
_cell_length_a                   9.4847(19)
_cell_length_b                   13.027(3)
_cell_length_c                   13.207(3)
_cell_angle_alpha                89.49(3)
_cell_angle_beta                 88.15(3)
_cell_angle_gamma                84.53(3)
_cell_volume                     1623.51
_exptl_crystal_colour            colorless
_exptl_crystal_description       BLOCK
_cell_formula_units_Z            4
loop_
_atom_site_label
_atom_site_type_symbol
_atom_site_fract_x
_atom_site_fract_y
_atom_site_fract_z
S1 S 0.30796(5) 0.73484(4) 0.85248(4)
N1 N 0.60049(17) 0.90870(13) 0.86966(12)
H1 H 0.6330 0.9425 0.8193
N2 N 0.44523(16) 0.86169(12) 0.75077(11)
N3 N 0.43604(17) 0.78801(13) 0.91295(12)
N4 N 0.26659(18) 0.79479(13) 0.65815(12)
H2 H 0.2816 0.8336 0.6067
C1 C 0.7643(2) 0.99341(16) 0.96517(16)
H3 H 0.7869 1.0297 0.9068
C2 C 0.8283(3) 1.01177(18) 1.05483(18)
H4 H 0.8931 1.0610 1.0565
C3 C 0.7975(2) 0.95821(19) 1.14157(17)
H5 H 0.8394 0.9717 1.2021
C4 C 0.7036(3) 0.8844(2) 1.13738(17)
H6 H 0.6827 0.8474 1.1956
C5 C 0.6401(2) 0.86417(18) 1.04843(16)
H7 H 0.5794 0.8123 1.0466
C6 C 0.66599(19) 0.92059(14) 0.96184(14)
C7 C 0.49234(19) 0.85102(14) 0.84838(14)
C8 C 0.34111(19) 0.80310(14) 0.74160(14)
C9 C 0.1621(2) 0.72234(16) 0.65298(14)
C10 C 0.0203(2) 0.7559(2) 0.67410(15)
C11 C -0.0782(3) 0.6844(3) 0.66607(17)
H8 H -0.1737 0.7059 0.6777
C12 C -0.0394(4) 0.5822(3) 0.64130(18)
C13 C 0.1021(5) 0.5516(2) 0.62333(18)
H9 H 0.1294 0.4828 0.6081
C14 C 0.2058(3) 0.62037(19) 0.62731(16)
C15 C 0.3590(4) 0.5870(2) 0.6036(2)
H10 H 0.3923 0.6278 0.5486
H11 H 0.3691 0.5156 0.5848
H12 H 0.4136 0.5961 0.6623
C16 C -0.1514(5) 0.5074(3) 0.6325(2)
H13 H -0.1070 0.4410 0.6128
H14 H -0.2178 0.5322 0.5825
H15 H -0.2004 0.5016 0.6968
C17 C -0.0246(3) 0.8647(2) 0.7069(2)
H16 H -0.1260 0.8742 0.7145
H17 H 0.0067 0.9120 0.6567
H18 H 0.0168 0.8774 0.7704
S2 S 0.73405(6) 0.24366(4) 0.63832(4)
N5 N 0.62698(18) -0.02401(13) 0.59955(12)
H19 H 0.5581 -0.0486 0.6327
N6 N 0.63081(17) 0.09396(12) 0.73004(11)
N7 N 0.71514(19) 0.13819(13) 0.56898(12)
N8 N 0.65333(19) 0.23364(13) 0.83768(13)
H20 H 0.6190 0.2005 0.8879
C18 C 0.8127(2) -0.06480(18) 0.46803(15)
H21 H 0.8517 -0.0030 0.4782
C19 C 0.8760(3) -0.1358(2) 0.39931(18)
H22 H 0.9588 -0.1216 0.3646
C20 C 0.8191(3) -0.2271(2) 0.3812(2)
H23 H 0.8632 -0.2744 0.3352
C21 C 0.6954(3) -0.2470(2) 0.43256(19)
H24 H 0.6546 -0.3075 0.4199
C22 C 0.6321(2) -0.17797(17) 0.50238(17)
H25 H 0.5494 -0.1927 0.5371
C23 C 0.6908(2) -0.08616(15) 0.52157(14)
C24 C 0.66022(19) 0.07107(15) 0.62980(14)
C25 C 0.6651(2) 0.18776(14) 0.74671(15)
C26 C 0.6949(2) 0.33519(15) 0.85598(14)
C27 C 0.5922(2) 0.41968(17) 0.85658(16)
C28 C 0.6349(3) 0.51618(17) 0.87835(17)
H26 H 0.5674 0.5729 0.8801
C29 C 0.7737(3) 0.53078(17) 0.89744(16)
C30 C 0.8723(3) 0.44517(17) 0.89642(16)
H27 H 0.9662 0.4537 0.9096
C31 C 0.8352(2) 0.34675(16) 0.87627(16)
C32 C 0.9451(3) 0.25418(19) 0.8790(2)
H28 H 1.0383 0.2773 0.8765
H29 H 0.9345 0.2109 0.8218
H30 H 0.9320 0.2158 0.9404
C33 C 0.4391(3) 0.4071(2) 0.8360(2)
H31 H 0.4334 0.3734 0.7721
H32 H 0.3863 0.4737 0.8340
H33 H 0.4002 0.3661 0.8889
C34 C 0.8169(3) 0.63657(19) 0.9191(2)
H34 H 0.7611 0.6871 0.8803
H35 H 0.9154 0.6389 0.9009
H36 H 0.8019 0.6511 0.9900
loop_
_geom_bond_atom_site_label_1
_geom_bond_atom_site_label_2
_geom_bond_site_symmetry_1
_geom_bond_site_symmetry_2
S1 N3 1_555 1_555
N1 H1 1_555 1_555
N2 C7 1_555 1_555
N3 C7 1_555 1_555
N4 H2 1_555 1_555
C1 H3 1_555 1_555
C2 C1 1_555 1_555
H4 C2 1_555 1_555
C3 C2 1_555 1_555
H5 C3 1_555 1_555
C4 C3 1_555 1_555
H6 C4 1_555 1_555
C5 C4 1_555 1_555
H7 C5 1_555 1_555
C6 N1 1_555 1_555
C7 N1 1_555 1_555
C8 S1 1_555 1_555
C9 N4 1_555 1_555
C10 C9 1_555 1_555
C11 C10 1_555 1_555
H8 C11 1_555 1_555
C12 C11 1_555 1_555
C13 C12 1_555 1_555
H9 C13 1_555 1_555
C14 C9 1_555 1_555
C15 C14 1_555 1_555
H10 C15 1_555 1_555
H11 C15 1_555 1_555
H12 C15 1_555 1_555
C16 C12 1_555 1_555
H13 C16 1_555 1_555
H14 C16 1_555 1_555
H15 C16 1_555 1_555
C17 C10 1_555 1_555
H16 C17 1_555 1_555
H17 C17 1_555 1_555
H18 C17 1_555 1_555
S2 N7 1_555 1_555
N5 H19 1_555 1_555
N6 C24 1_555 1_555
N7 C24 1_555 1_555
N8 H20 1_555 1_555
C18 H21 1_555 1_555
C19 C18 1_555 1_555
H22 C19 1_555 1_555
C20 C19 1_555 1_555
H23 C20 1_555 1_555
C21 C20 1_555 1_555
H24 C21 1_555 1_555
C22 C21 1_555 1_555
H25 C22 1_555 1_555
C23 N5 1_555 1_555
C24 N5 1_555 1_555
C25 S2 1_555 1_555
C26 N8 1_555 1_555
C27 C26 1_555 1_555
C28 C27 1_555 1_555
H26 C28 1_555 1_555
C29 C28 1_555 1_555
C30 C29 1_555 1_555
H27 C30 1_555 1_555
C31 C26 1_555 1_555
C32 C31 1_555 1_555
H28 C32 1_555 1_555
H29 C32 1_555 1_555
H30 C32 1_555 1_555
C33 C27 1_555 1_555
H31 C33 1_555 1_555
H32 C33 1_555 1_555
H33 C33 1_555 1_555
C34 C29 1_555 1_555
H34 C34 1_555 1_555
H35 C34 1_555 1_555
H36 C34 1_555 1_555
N2 C8 1_555 1_555
N4 C8 1_555 1_555
C1 C6 1_555 1_555
C5 C6 1_555 1_555
C13 C14 1_555 1_555
N6 C25 1_555 1_555
N8 C25 1_555 1_555
C18 C23 1_555 1_555
C22 C23 1_555 1_555
C30 C31 1_555 1_555

#END
