
#######################################################################
#
#                 Cambridge Crystallographic Data Centre
#                                CCDC 
#
#######################################################################
#
# If this CIF has been generated from an entry in the Cambridge 
# Structural Database, then it will include bibliographic, chemical, 
# crystal, experimental, refinement or atomic coordinate data resulting 
# from the CCDC's data processing and validation procedures.
#
#######################################################################

data_BAVXOO
_chemical_formula_moiety         'C19 H17 N3 O3'
_chemical_name_systematic        
'allyl 3-cyano-4-(1-methyl-2-oxo-2,3-dihydro-1H-indol-3-yl)pyridine-1(4H)-carboxylate'
_symmetry_cell_setting           triclinic
_symmetry_space_group_name_H-M   'P -1'
_symmetry_Int_Tables_number      2
_space_group_name_Hall           '-P 1'
loop_
_symmetry_equiv_pos_site_id
_symmetry_equiv_pos_as_xyz
1 x,y,z
2 -x,-y,-z
_cell_length_a                   8.4064(4)
_cell_length_b                   9.1017(4)
_cell_length_c                   12.6039(6)
_cell_angle_alpha                92.2300(10)
_cell_angle_beta                 106.6150(10)
_cell_angle_gamma                114.1270(10)
_cell_volume                     829.875
_exptl_crystal_colour            colorless
_exptl_crystal_description       block
_cell_formula_units_Z            2
loop_
_atom_site_label
_atom_site_type_symbol
_atom_site_fract_x
_atom_site_fract_y
_atom_site_fract_z
O1 O 0.6807(4) 0.9791(3) 0.1115(2)
O2 O 0.8788(4) 0.8907(3) 0.0771(2)
O3 O 0.1464(5) 0.1739(3) -0.3596(3)
N1 N 0.2193(5) 0.3668(4) -0.4725(3)
N2 N -0.0784(5) 0.5600(5) -0.1490(3)
C1 C 0.2521(5) 0.5323(5) -0.4695(3)
C2 C 0.2962(6) 0.6291(6) -0.5470(4)
H1 H 0.3103 0.5895 -0.6112
C3 C 0.3193(6) 0.7896(6) -0.5260(4)
H2 H 0.3499 0.8584 -0.5770
C4 C 0.2974(6) 0.8481(5) -0.4310(4)
H3 H 0.3115 0.9549 -0.4193
C5 C 0.2545(5) 0.7486(5) -0.3530(4)
H4 H 0.2416 0.7885 -0.2884
C6 C 0.2310(5) 0.5881(5) -0.3724(3)
C7 C 0.1705(5) 0.4482(4) -0.3108(3)
H5 H 0.0408 0.4171 -0.3188
C8 C 0.1761(5) 0.3106(5) -0.3817(3)
C9 C 0.2122(7) 0.2633(7) -0.5658(4)
H6 H 0.1892 0.1566 -0.5478
H7 H 0.3279 0.3105 -0.5796
H8 H 0.1147 0.2543 -0.6319
C10 C 0.2756(5) 0.4703(4) -0.1851(3)
H9 H 0.2212 0.3657 -0.1606
C11 C 0.2542(5) 0.5972(4) -0.1162(3)
C12 C 0.3963(5) 0.7255(4) -0.0418(3)
H10 H 0.3719 0.7983 -0.0028
N3 N 0.5760(4) 0.7527(4) -0.0215(2)
C13 C 0.6134(5) 0.6462(4) -0.0837(3)
H11 H 0.7353 0.6654 -0.0715
C14 C 0.4772(5) 0.5180(4) -0.1599(3)
H12 H 0.5100 0.4537 -0.2002
C15 C 0.7153(5) 0.8860(4) 0.0619(3)
C16 C 1.0265(5) 1.0188(5) 0.1696(3)
H13 H 1.0491 1.1253 0.1490
H14 H 0.9894 1.0139 0.2360
C17 C 1.1954(6) 0.9970(4) 0.1944(3)
H15 H 1.3004 1.0789 0.2472
C18 C 1.2168(6) 0.8749(5) 0.1508(4)
C19 C 0.0711(5) 0.5785(5) -0.1321(3)
H16? H 1.3430 0.8931 0.1826
H17? H 1.1854 0.8684 0.0707
H18? H 1.1375 0.7742 0.1673
loop_
_geom_bond_atom_site_label_1
_geom_bond_atom_site_label_2
_geom_bond_site_symmetry_1
_geom_bond_site_symmetry_2
O1 C15 1_555 1_555
O2 C15 1_555 1_555
O3 C8 1_555 1_555
N1 C1 1_555 1_555
N2 C19 1_555 1_555
C1 C2 1_555 1_555
C2 H1 1_555 1_555
C3 C2 1_555 1_555
H2 C3 1_555 1_555
C4 C3 1_555 1_555
H3 C4 1_555 1_555
C5 C4 1_555 1_555
H4 C5 1_555 1_555
C6 C1 1_555 1_555
C7 C6 1_555 1_555
H5 C7 1_555 1_555
C8 N1 1_555 1_555
C9 N1 1_555 1_555
H6 C9 1_555 1_555
H7 C9 1_555 1_555
H8 C9 1_555 1_555
C10 C7 1_555 1_555
H9 C10 1_555 1_555
C11 C10 1_555 1_555
C12 C11 1_555 1_555
H10 C12 1_555 1_555
N3 C12 1_555 1_555
C13 N3 1_555 1_555
H11 C13 1_555 1_555
C14 C10 1_555 1_555
H12 C14 1_555 1_555
C15 N3 1_555 1_555
C16 O2 1_555 1_555
H13 C16 1_555 1_555
H14 C16 1_555 1_555
C17 C16 1_555 1_555
H15 C17 1_555 1_555
C18 C17 1_555 1_555
C19 C11 1_555 1_555
C5 C6 1_555 1_555
C7 C8 1_555 1_555
C13 C14 1_555 1_555

#END
