
#######################################################################
#
#                 Cambridge Crystallographic Data Centre
#                                CCDC 
#
#######################################################################
#
# If this CIF has been generated from an entry in the Cambridge 
# Structural Database, then it will include bibliographic, chemical, 
# crystal, experimental, refinement or atomic coordinate data resulting 
# from the CCDC's data processing and validation procedures.
#
#######################################################################

data_BAWFIR
_chemical_formula_moiety         'C18 H16 O2'
_chemical_name_systematic        6-methoxy-1-(4-methoxyphenyl)naphthalene
_symmetry_cell_setting           monoclinic
_symmetry_space_group_name_H-M   'P 21/c'
_symmetry_Int_Tables_number      14
_space_group_name_Hall           '-P 2ybc'
loop_
_symmetry_equiv_pos_site_id
_symmetry_equiv_pos_as_xyz
1 x,y,z
2 -x,1/2+y,1/2-z
3 -x,-y,-z
4 x,1/2-y,1/2+z
_cell_length_a                   7.654(4)
_cell_length_b                   13.820(8)
_cell_length_c                   13.657(8)
_cell_angle_alpha                90
_cell_angle_beta                 98.379(9)
_cell_angle_gamma                90
_cell_volume                     1429.19
_exptl_crystal_colour            colorless
_cell_formula_units_Z            4
loop_
_atom_site_label
_atom_site_type_symbol
_atom_site_fract_x
_atom_site_fract_y
_atom_site_fract_z
O1 O 1.34159(17) 0.43038(9) -0.04510(10)
O2 O 0.48471(15) 0.41374(9) 0.42180(9)
C1 C 1.4661(3) 0.38503(17) -0.09751(17)
H1 H 1.5618 0.3597 -0.0513
H2 H 1.5110 0.4315 -0.1398
H3 H 1.4098 0.3331 -0.1369
C2 C 1.2640(2) 0.37469(12) 0.01877(13)
C3 C 1.1462(2) 0.42550(12) 0.06989(14)
H4 H 1.1325 0.4919 0.0609
C4 C 1.0527(2) 0.37883(12) 0.13193(13)
H5 H 0.9729 0.4136 0.1634
C5 C 1.07313(19) 0.27769(11) 0.15041(12)
C6 C 0.9787(2) 0.22655(11) 0.21680(12)
C7 C 0.8459(2) 0.27653(11) 0.26908(12)
C8 C 0.6902(2) 0.31310(13) 0.21758(13)
H6 H 0.6693 0.3072 0.1490
C9 C 0.5655(2) 0.35803(12) 0.26549(12)
H7 H 0.4610 0.3808 0.2296
C10 C 0.5967(2) 0.36904(11) 0.36692(12)
C11 C 0.3301(2) 0.45764(18) 0.37032(15)
H8 H 0.3631 0.5077 0.3279
H9 H 0.2620 0.4851 0.4171
H10 H 0.2609 0.4098 0.3312
C12 C 1.1980(2) 0.22741(11) 0.10208(12)
C13 C 1.2908(2) 0.27746(12) 0.03561(12)
H11 H 1.3709 0.2443 0.0029
C14 C 1.2260(2) 0.12738(12) 0.12132(14)
H12 H 1.3074 0.0938 0.0900
C15 C 1.1353(3) 0.08022(13) 0.18503(16)
H13 H 1.1547 0.0145 0.1968
C16 C 1.0129(2) 0.12955(13) 0.23317(15)
H14 H 0.9532 0.0961 0.2773
C17 C 0.8722(2) 0.28662(12) 0.37125(12)
H15 H 0.9746 0.2618 0.4076
C18 C 0.7511(2) 0.33233(13) 0.41998(13)
H16 H 0.7723 0.3387 0.4885
loop_
_geom_bond_atom_site_label_1
_geom_bond_atom_site_label_2
_geom_bond_site_symmetry_1
_geom_bond_site_symmetry_2
O1 C1 1_555 1_555
O2 C10 1_555 1_555
C1 H1 1_555 1_555
H2 C1 1_555 1_555
H3 C1 1_555 1_555
C2 O1 1_555 1_555
C3 C2 1_555 1_555
H4 C3 1_555 1_555
C4 C3 1_555 1_555
H5 C4 1_555 1_555
C5 C4 1_555 1_555
C6 C5 1_555 1_555
C7 C6 1_555 1_555
C8 C7 1_555 1_555
H6 C8 1_555 1_555
C9 C8 1_555 1_555
H7 C9 1_555 1_555
C10 C9 1_555 1_555
C11 O2 1_555 1_555
H8 C11 1_555 1_555
H9 C11 1_555 1_555
H10 C11 1_555 1_555
C12 C5 1_555 1_555
C13 C2 1_555 1_555
H11 C13 1_555 1_555
C14 C12 1_555 1_555
H12 C14 1_555 1_555
C15 C14 1_555 1_555
H13 C15 1_555 1_555
C16 C6 1_555 1_555
H14 C16 1_555 1_555
C17 C7 1_555 1_555
H15 C17 1_555 1_555
C18 C10 1_555 1_555
H16 C18 1_555 1_555
C12 C13 1_555 1_555
C15 C16 1_555 1_555
C17 C18 1_555 1_555

#END
