
#######################################################################
#
#                 Cambridge Crystallographic Data Centre
#                                CCDC 
#
#######################################################################
#
# If this CIF has been generated from an entry in the Cambridge 
# Structural Database, then it will include bibliographic, chemical, 
# crystal, experimental, refinement or atomic coordinate data resulting 
# from the CCDC's data processing and validation procedures.
#
#######################################################################

data_BAWMOE
_chemical_formula_moiety         'C37 H26 N2 O1'
_chemical_name_systematic        
2,4,6,7,9-pentaphenyl-2,3-diazaspiro[4.4]nona-3,6,8-trien-1-one
_symmetry_cell_setting           triclinic
_symmetry_space_group_name_H-M   'P -1'
_symmetry_Int_Tables_number      2
_space_group_name_Hall           '-P 1'
loop_
_symmetry_equiv_pos_site_id
_symmetry_equiv_pos_as_xyz
1 x,y,z
2 -x,-y,-z
_cell_length_a                   11.1664(7)
_cell_length_b                   11.3872(7)
_cell_length_c                   11.4497(7)
_cell_angle_alpha                71.223(2)
_cell_angle_beta                 86.606(2)
_cell_angle_gamma                89.619(2)
_cell_volume                     1375.86
_exptl_crystal_colour            colorless
_exptl_crystal_description       block
_cell_formula_units_Z            2
loop_
_atom_site_label
_atom_site_type_symbol
_atom_site_fract_x
_atom_site_fract_y
_atom_site_fract_z
C1 C 0.6324(3) 0.4358(3) 0.7042(3)
O1 O 0.6905(2) 0.5808(2) 1.0447(2)
N1 N 0.8065(2) 0.8607(2) 0.8472(2)
N2 N 0.7852(2) 0.7702(2) 0.9628(2)
C2 C 0.7506(3) 0.8271(3) 0.7687(3)
C3 C 0.7536(3) 0.9031(3) 0.6382(3)
C4 C 0.7185(3) 0.6726(3) 0.9590(3)
C5 C 0.5513(3) 0.6939(3) 0.8224(3)
C6 C 0.7316(3) 0.6048(3) 0.7695(3)
C7 C 0.6865(3) 0.7043(3) 0.8230(3)
C8 C 0.4656(3) 0.7685(3) 0.8696(3)
C9 C 0.5270(3) 0.5984(3) 0.7850(3)
H1 H 0.4498 0.5701 0.7814
C10 C 0.8605(3) 0.5944(3) 0.7404(3)
C11 C 0.6360(3) 0.5431(3) 0.7502(3)
C12 C 0.8343(3) 0.7856(3) 1.0682(3)
C13 C 0.9449(3) 0.8398(4) 1.0594(3)
H2 H 0.9890 0.8657 0.9839
C14 C 0.6657(4) 0.8909(4) 0.5625(3)
H3 H 0.6055 0.8311 0.5939
C15 C 0.4038(4) 0.9594(4) 0.9021(4)
H4 H 0.4207 1.0413 0.8950
C16 C 0.8431(3) 0.9916(3) 0.5886(3)
H5 H 0.9035 1.0006 0.6377
C17 C 0.3557(3) 0.7180(3) 0.9228(4)
H6 H 0.3386 0.6357 0.9318
C18 C 0.4884(3) 0.8906(3) 0.8619(3)
H7 H 0.5625 0.9266 0.8287
C19 C 0.7692(3) 0.7469(3) 1.1805(3)
H8 H 0.6935 0.7108 1.1873
C20 C 0.9447(4) 0.5771(5) 0.8271(4)
H9 H 0.9198 0.5696 0.9082
C21 C 0.9907(4) 0.8561(4) 1.1612(4)
H10 H 1.0653 0.8944 1.1542
C22 C 0.6663(4) 0.9664(4) 0.4407(4)
H11 H 0.6064 0.9578 0.3909
C23 C 0.8434(4) 1.0661(4) 0.4677(4)
H12 H 0.9038 1.1256 0.4355
C24 C 0.9278(4) 0.8165(4) 1.2736(4)
H13 H 0.9597 0.8264 1.3431
C25 C 0.2953(4) 0.9076(4) 0.9521(4)
H14 H 0.2379 0.9542 0.9790
C26 C 0.7548(4) 1.0534(4) 0.3938(4)
H15 H 0.7554 1.1042 0.3118
C27 C 0.7249(4) 0.3530(4) 0.7157(4)
H16 H 0.7932 0.3640 0.7540
C28 C 0.8178(4) 0.7625(4) 1.2819(4)
H17 H 0.7747 0.7356 1.3579
C29 C 0.9028(4) 0.6073(4) 0.6220(4)
H18 H 0.8492 0.6210 0.5600
C30 C 0.6208(4) 0.2347(4) 0.6171(5)
H19 H 0.6169 0.1673 0.5883
C31 C 1.1052(4) 0.5816(5) 0.6785(6)
H20 H 1.1865 0.5763 0.6581
C32 C 0.7181(5) 0.2543(4) 0.6718(5)
H21 H 0.7822 0.2003 0.6800
C33 C 0.5340(4) 0.4131(5) 0.6492(6)
H22 H 0.4688 0.4657 0.6415
C34 C 1.0246(4) 0.6000(5) 0.5935(5)
H23 H 1.0507 0.6083 0.5125
C35 C 0.2710(4) 0.7868(4) 0.9628(4)
H24 H 0.1971 0.7512 0.9972
C36 C 1.0653(4) 0.5706(6) 0.7963(5)
H25 H 1.1202 0.5584 0.8569
C37 C 0.5284(5) 0.3141(6) 0.6047(6)
H26 H 0.4609 0.3022 0.5659
loop_
_geom_bond_atom_site_label_1
_geom_bond_atom_site_label_2
_geom_bond_site_symmetry_1
_geom_bond_site_symmetry_2
C1 C11 1_555 1_555
O1 C4 1_555 1_555
N1 N2 1_555 1_555
N2 C4 1_555 1_555
C2 N1 1_555 1_555
C3 C2 1_555 1_555
C4 C7 1_555 1_555
C5 C7 1_555 1_555
C6 C7 1_555 1_555
C7 C2 1_555 1_555
C8 C5 1_555 1_555
C9 C5 1_555 1_555
H1 C9 1_555 1_555
C10 C6 1_555 1_555
C11 C6 1_555 1_555
C12 N2 1_555 1_555
C13 C12 1_555 1_555
H2 C13 1_555 1_555
C14 C3 1_555 1_555
H3 C14 1_555 1_555
C15 H4 1_555 1_555
C16 C3 1_555 1_555
H5 C16 1_555 1_555
C17 C8 1_555 1_555
H6 C17 1_555 1_555
C18 C8 1_555 1_555
H7 C18 1_555 1_555
C19 C12 1_555 1_555
H8 C19 1_555 1_555
C20 C10 1_555 1_555
H9 C20 1_555 1_555
C21 C13 1_555 1_555
H10 C21 1_555 1_555
C22 C14 1_555 1_555
H11 C22 1_555 1_555
C23 C16 1_555 1_555
H12 C23 1_555 1_555
C24 C21 1_555 1_555
H13 C24 1_555 1_555
C25 C15 1_555 1_555
H14 C25 1_555 1_555
C26 C22 1_555 1_555
H15 C26 1_555 1_555
C27 C1 1_555 1_555
H16 C27 1_555 1_555
C28 C19 1_555 1_555
H17 C28 1_555 1_555
C29 C10 1_555 1_555
H18 C29 1_555 1_555
C30 H19 1_555 1_555
C31 H20 1_555 1_555
C32 C27 1_555 1_555
H21 C32 1_555 1_555
C33 C1 1_555 1_555
H22 C33 1_555 1_555
C34 C29 1_555 1_555
H23 C34 1_555 1_555
C35 C17 1_555 1_555
H24 C35 1_555 1_555
C36 C20 1_555 1_555
H25 C36 1_555 1_555
C37 C30 1_555 1_555
H26 C37 1_555 1_555
C9 C11 1_555 1_555
C15 C18 1_555 1_555
C23 C26 1_555 1_555
C24 C28 1_555 1_555
C25 C35 1_555 1_555
C30 C32 1_555 1_555
C31 C34 1_555 1_555
C31 C36 1_555 1_555
C33 C37 1_555 1_555

#END
