
#######################################################################
#
#                 Cambridge Crystallographic Data Centre
#                                CCDC 
#
#######################################################################
#
# If this CIF has been generated from an entry in the Cambridge 
# Structural Database, then it will include bibliographic, chemical, 
# crystal, experimental, refinement or atomic coordinate data resulting 
# from the CCDC's data processing and validation procedures.
#
#######################################################################

data_BAWRUP
_chemical_formula_moiety         'C17 H19 N1 O5'
_chemical_name_systematic        
1,2-dihydroxy-2,3,5,6,9,14b-hexahydro-4H-cyclopenta[a][1,3]dioxolo[4,5-h]pyrrolo[2,1-b][3]benzazepin-8(1H)-one
_symmetry_cell_setting           monoclinic
_symmetry_space_group_name_H-M   'P 21/n'
_symmetry_Int_Tables_number      14
_space_group_name_Hall           '-P 2yn'
loop_
_symmetry_equiv_pos_site_id
_symmetry_equiv_pos_as_xyz
1 x,y,z
2 1/2-x,1/2+y,1/2-z
3 -x,-y,-z
4 1/2+x,1/2-y,1/2+z
_cell_length_a                   9.9818(9)
_cell_length_b                   8.4211(9)
_cell_length_c                   16.8877(13)
_cell_angle_alpha                90
_cell_angle_beta                 93.204(8)
_cell_angle_gamma                90
_cell_volume                     1417.32
_exptl_crystal_colour            colorless
_exptl_crystal_description       block
_chemical_melting_point          '197-198 deg.C'
_cell_formula_units_Z            4
_exptl_crystal_recrystallization_method chloroform
loop_
_atom_site_label
_atom_site_type_symbol
_atom_site_fract_x
_atom_site_fract_y
_atom_site_fract_z
O1 O 0.8254(3) 0.5132(3) 0.12719(14)
O2 O 1.0760(3) 0.0392(3) 0.37792(16)
H1 H 1.0729 -0.0186 0.4168
O3 O 0.8878(3) 0.1528(3) 0.47799(15)
H2 H 0.8368 0.1050 0.4466
O4 O 0.5718(3) 0.6832(4) 0.50514(16)
O5 O 0.4219(3) 0.6962(3) 0.39583(16)
N1 N 0.9593(3) 0.4620(4) 0.23584(17)
C1 C 0.8401(4) 0.4527(5) 0.1942(2)
C2 C 0.7172(4) 0.3743(5) 0.2278(2)
H3 H 0.6422 0.3836 0.1890
H4 H 0.7356 0.2621 0.2355
C3 C 0.6764(4) 0.4444(4) 0.3058(2)
C4 C 0.7629(4) 0.4295(5) 0.3731(2)
C5 C 0.8872(4) 0.3321(4) 0.3628(2)
H5 H 0.8602 0.2411 0.3294
C6 C 0.9961(4) 0.4210(5) 0.3201(2)
C7 C 1.0374(4) 0.5837(5) 0.3519(2)
H6 H 1.0934 0.5745 0.4005
H7 H 0.9594 0.6477 0.3620
C8 C 1.1158(4) 0.6556(5) 0.2854(2)
H8 H 1.1016 0.7694 0.2822
H9 H 1.2111 0.6353 0.2944
C9 C 1.0615(4) 0.5744(5) 0.2093(2)
H10 H 1.0215 0.6513 0.1724
H11 H 1.1325 0.5184 0.1839
C10 C 1.1166(4) 0.3035(5) 0.3300(2)
H12 H 1.1211 0.2375 0.2832
H13 H 1.2002 0.3616 0.3376
C11 C 1.0932(4) 0.2003(5) 0.4032(2)
H14 H 1.1686 0.2097 0.4426
C12 C 0.9632(4) 0.2659(5) 0.4362(2)
H15 H 0.9869 0.3542 0.4720
C13 C 0.7342(4) 0.5075(5) 0.4441(2)
H16 H 0.7903 0.4972 0.4896
C14 C 0.6214(4) 0.5982(5) 0.4434(2)
C15 C 0.5322(4) 0.6064(5) 0.3783(2)
C16 C 0.5576(4) 0.5322(5) 0.3083(2)
H17 H 0.4980 0.5399 0.2641
C17 C 0.4621(5) 0.7726(6) 0.4700(2)
H18 H 0.4895 0.8812 0.4607
H19 H 0.3880 0.7741 0.5048
loop_
_geom_bond_atom_site_label_1
_geom_bond_atom_site_label_2
_geom_bond_site_symmetry_1
_geom_bond_site_symmetry_2
O1 C1 1_555 1_555
O2 H1 1_555 1_555
O3 H2 1_555 1_555
O4 C14 1_555 1_555
O5 C15 1_555 1_555
N1 C1 1_555 1_555
C1 C2 1_555 1_555
C2 H3 1_555 1_555
H4 C2 1_555 1_555
C3 C2 1_555 1_555
C4 C3 1_555 1_555
C5 C4 1_555 1_555
H5 C5 1_555 1_555
C6 N1 1_555 1_555
C7 C6 1_555 1_555
H6 C7 1_555 1_555
H7 C7 1_555 1_555
C8 C7 1_555 1_555
H8 C8 1_555 1_555
H9 C8 1_555 1_555
C9 N1 1_555 1_555
H10 C9 1_555 1_555
H11 C9 1_555 1_555
C10 C6 1_555 1_555
H12 C10 1_555 1_555
H13 C10 1_555 1_555
C11 O2 1_555 1_555
H14 C11 1_555 1_555
C12 O3 1_555 1_555
H15 C12 1_555 1_555
C13 C4 1_555 1_555
H16 C13 1_555 1_555
C14 C13 1_555 1_555
C15 C14 1_555 1_555
C16 C3 1_555 1_555
H17 C16 1_555 1_555
C17 O4 1_555 1_555
H18 C17 1_555 1_555
H19 C17 1_555 1_555
O5 C17 1_555 1_555
C5 C6 1_555 1_555
C5 C12 1_555 1_555
C8 C9 1_555 1_555
C10 C11 1_555 1_555
C11 C12 1_555 1_555
C15 C16 1_555 1_555

#END
