
#######################################################################
#
#                 Cambridge Crystallographic Data Centre
#                                CCDC 
#
#######################################################################
#
# If this CIF has been generated from an entry in the Cambridge 
# Structural Database, then it will include bibliographic, chemical, 
# crystal, experimental, refinement or atomic coordinate data resulting 
# from the CCDC's data processing and validation procedures.
#
#######################################################################

data_BAWRID
_chemical_formula_moiety         'C24 H22 Br1 N1 O5'
_chemical_name_systematic        
'1-benzyl-6-(6-bromo-1,3-benzodioxol-5-yl)-2-oxo-1-azaspiro[4.4]non-7-en-7-yl acetate'
_symmetry_cell_setting           monoclinic
_symmetry_space_group_name_H-M   'P 21/n'
_symmetry_Int_Tables_number      14
_space_group_name_Hall           '-P 2yn'
loop_
_symmetry_equiv_pos_site_id
_symmetry_equiv_pos_as_xyz
1 x,y,z
2 1/2-x,1/2+y,1/2-z
3 -x,-y,-z
4 1/2+x,1/2-y,1/2+z
_cell_length_a                   10.1412(16)
_cell_length_b                   18.601(4)
_cell_length_c                   11.3292(16)
_cell_angle_alpha                90
_cell_angle_beta                 91.857(14)
_cell_angle_gamma                90
_cell_volume                     2135.98
_exptl_crystal_colour            'light yellow'
_exptl_crystal_description       block
_chemical_melting_point          '429 K'
_cell_formula_units_Z            4
_exptl_crystal_recrystallization_method n-hexane/dichloromethane
loop_
_atom_site_label
_atom_site_type_symbol
_atom_site_fract_x
_atom_site_fract_y
_atom_site_fract_z
Br1 Br -0.07729(9) 0.39621(6) 1.01458(8)
O1 O -0.3506(5) 0.5050(3) 0.6534(5)
O2 O -0.1936(4) 0.4830(3) 0.5160(5)
O3 O 0.2803(4) 0.4633(3) 0.7487(5)
O4 O 0.3644(6) 0.4454(4) 0.9306(6)
O5 O 0.0997(6) 0.1659(3) 1.0255(6)
N1 N 0.1693(5) 0.2439(3) 0.8847(5)
C1 C 0.1188(6) 0.3669(4) 0.8076(7)
H1 H 0.1362 0.3736 0.8925
C2 C 0.2371(6) 0.3915(4) 0.7417(7)
C3 C 0.2901(6) 0.3445(4) 0.6748(6)
H2 H 0.3663 0.3522 0.6331
C4 C 0.2120(6) 0.2752(4) 0.6731(7)
H3 H 0.2698 0.2339 0.6832
H4 H 0.1611 0.2700 0.5996
C5 C 0.1211(6) 0.2831(4) 0.7782(7)
C6 C -0.0131(6) 0.2463(4) 0.7546(7)
H5 H -0.0800 0.2818 0.7338
H6 H -0.0075 0.2124 0.6899
C7 C -0.0478(7) 0.2080(5) 0.8657(8)
H7 H -0.0844 0.1609 0.8476
H8 H -0.1122 0.2354 0.9085
C8 C 0.0784(7) 0.2010(5) 0.9378(8)
C9 C -0.0081(6) 0.4059(4) 0.7716(7)
C10 C -0.0329(6) 0.4249(4) 0.6537(6)
H9 H 0.0288 0.4158 0.5965
C11 C -0.1508(6) 0.4573(4) 0.6248(6)
C12 C -0.3262(7) 0.5031(5) 0.5313(7)
H10 H -0.3848 0.4687 0.4921
H11 H -0.3426 0.5501 0.4966
C13 C -0.2445(6) 0.4700(4) 0.7058(7)
C14 C -0.2248(7) 0.4533(4) 0.8219(7)
H12 H -0.2876 0.4631 0.8777
C15 C -0.1041(6) 0.4206(4) 0.8526(7)
C16 C 0.3479(7) 0.4841(5) 0.8484(9)
C17 C 0.3938(8) 0.5609(5) 0.8349(9)
H13 H 0.4286 0.5674 0.7578
H14 H 0.4613 0.5712 0.8938
H15 H 0.3207 0.5930 0.8444
C18 C 0.2956(6) 0.2581(4) 0.9454(7)
H16 H 0.2934 0.2384 1.0246
H17 H 0.3073 0.3097 0.9526
C19 C 0.5152(7) 0.2723(5) 0.8514(8)
H18 H 0.5139 0.3207 0.8720
C20 C 0.6191(8) 0.2449(6) 0.7879(10)
H19 H 0.6849 0.2752 0.7617
C21 C 0.6232(9) 0.1732(6) 0.7646(9)
H20 H 0.6943 0.1545 0.7249
C22 C 0.4197(8) 0.1548(4) 0.8585(8)
H21 H 0.3532 0.1241 0.8821
C23 C 0.5243(9) 0.1281(5) 0.7986(9)
H22 H 0.5283 0.0793 0.7809
C24 C 0.4129(7) 0.2270(4) 0.8840(7)
loop_
_geom_bond_atom_site_label_1
_geom_bond_atom_site_label_2
_geom_bond_site_symmetry_1
_geom_bond_site_symmetry_2
Br1 C15 1_555 1_555
O1 C12 1_555 1_555
O2 C11 1_555 1_555
O3 C2 1_555 1_555
O4 C16 1_555 1_555
O5 C8 1_555 1_555
N1 C5 1_555 1_555
C1 H1 1_555 1_555
C2 C1 1_555 1_555
C3 C2 1_555 1_555
H2 C3 1_555 1_555
C4 C3 1_555 1_555
H3 C4 1_555 1_555
H4 C4 1_555 1_555
C5 C1 1_555 1_555
C6 C5 1_555 1_555
H5 C6 1_555 1_555
H6 C6 1_555 1_555
C7 C6 1_555 1_555
H7 C7 1_555 1_555
H8 C7 1_555 1_555
C8 N1 1_555 1_555
C9 C1 1_555 1_555
C10 C9 1_555 1_555
H9 C10 1_555 1_555
C11 C10 1_555 1_555
C12 O2 1_555 1_555
H10 C12 1_555 1_555
H11 C12 1_555 1_555
C13 O1 1_555 1_555
C14 C13 1_555 1_555
H12 C14 1_555 1_555
C15 C9 1_555 1_555
C16 O3 1_555 1_555
C17 C16 1_555 1_555
H13 C17 1_555 1_555
H14 C17 1_555 1_555
H15 C17 1_555 1_555
C18 N1 1_555 1_555
H16 C18 1_555 1_555
H17 C18 1_555 1_555
C19 H18 1_555 1_555
C20 C19 1_555 1_555
H19 C20 1_555 1_555
C21 C20 1_555 1_555
H20 C21 1_555 1_555
C22 H21 1_555 1_555
C23 C21 1_555 1_555
H22 C23 1_555 1_555
C24 C18 1_555 1_555
C4 C5 1_555 1_555
C7 C8 1_555 1_555
C11 C13 1_555 1_555
C14 C15 1_555 1_555
C19 C24 1_555 1_555
C22 C23 1_555 1_555
C22 C24 1_555 1_555

#END
