
#######################################################################
#
#                 Cambridge Crystallographic Data Centre
#                                CCDC 
#
#######################################################################
#
# If this CIF has been generated from an entry in the Cambridge 
# Structural Database, then it will include bibliographic, chemical, 
# crystal, experimental, refinement or atomic coordinate data resulting 
# from the CCDC's data processing and validation procedures.
#
#######################################################################

data_BAWSOK
_chemical_formula_moiety         'C28 H25 N1 O4'
_chemical_name_systematic        
"2'-benzyl-2-(4-methoxyphenyl)-3'-oxo-2',3'-dihydrospiro[cyclopent-3-ene-1,1'-isoindol]-3-yl acetate"
_symmetry_cell_setting           orthorhombic
_symmetry_space_group_name_H-M   'P c a 21'
_symmetry_Int_Tables_number      29
_space_group_name_Hall           'P 2c -2ac'
loop_
_symmetry_equiv_pos_site_id
_symmetry_equiv_pos_as_xyz
1 x,y,z
2 -x,-y,1/2+z
3 1/2-x,y,1/2+z
4 1/2+x,-y,z
_cell_length_a                   14.8441(2)
_cell_length_b                   10.42006(18)
_cell_length_c                   14.7439(3)
_cell_angle_alpha                90
_cell_angle_beta                 90
_cell_angle_gamma                90
_cell_volume                     2280.53
_exptl_crystal_colour            colorless
_exptl_crystal_description       block
_chemical_melting_point          '441-443 K'
_cell_formula_units_Z            4
_exptl_crystal_recrystallization_method 'petroleum ether/ethyl acetate'
loop_
_atom_site_label
_atom_site_type_symbol
_atom_site_fract_x
_atom_site_fract_y
_atom_site_fract_z
O1 O 0.30733(9) 0.59509(13) 0.58493(14)
O2 O 0.17012(11) 0.66846(16) 0.61501(15)
C1 C 0.32999(15) 0.12613(19) 0.72049(14)
H1 H 0.3085 0.0671 0.7626
C2 C 0.02427(11) 0.51551(18) 0.39783(14)
O3 O 0.47481(11) 0.04546(17) 0.74596(13)
C3 C 0.04549(12) 0.44309(17) 0.48427(13)
H2 H 0.0798 0.4990 0.5240
H3 H -0.0107 0.4231 0.5147
N1 N 0.09581(9) 0.32438(13) 0.47155(12)
C4 C 0.30090(11) 0.29763(16) 0.61340(13)
C5 C 0.39245(12) 0.30295(18) 0.59641(14)
H4 H 0.4142 0.3631 0.5553
C6 C 0.03141(14) 0.64813(19) 0.39683(15)
H5 H 0.0522 0.6911 0.4480
C7 C 0.27065(11) 0.50336(17) 0.52636(16)
O4 O -0.02748(9) 0.19146(16) 0.47515(17)
C8 C 0.42159(14) 0.13129(19) 0.70094(14)
C9 C -0.02183(16) 0.6550(3) 0.24331(18)
H6 H -0.0368 0.7014 0.1916
C10 C 0.19502(10) 0.31600(16) 0.47155(13)
C11 C 0.23875(14) 0.39397(19) 0.39296(15)
H7 H 0.2872 0.3457 0.3649
H8 H 0.1944 0.4153 0.3471
C12 C -0.02916(17) 0.5230(3) 0.24379(18)
H9 H -0.0492 0.4804 0.1922
C13 C 0.27402(13) 0.51217(19) 0.43751(17)
H10 H 0.2957 0.5833 0.4063
C14 C 0.24922(15) 0.67530(19) 0.62473(18)
C15 C 0.23356(11) 0.37892(16) 0.56187(13)
H11 H 0.1829 0.3982 0.6022
C16 C 0.11900(16) -0.0209(2) 0.45884(17)
H12 H 0.0630 -0.0609 0.4605
C17 C 0.20824(12) 0.17273(17) 0.46311(13)
C18 C 0.28723(14) 0.1025(2) 0.45340(16)
H13 H 0.3430 0.1430 0.4508
C19 C 0.00770(17) 0.7175(2) 0.31960(19)
H14 H 0.0119 0.8065 0.3198
C20 C 0.05396(12) 0.20830(17) 0.47119(14)
C21 C 0.45316(12) 0.2206(2) 0.63916(15)
H15 H 0.5144 0.2257 0.6263
C22 C 0.28018(17) -0.0307(2) 0.44762(18)
H16 H 0.3323 -0.0796 0.4421
C23 C 0.12632(12) 0.11074(17) 0.46532(14)
C24 C -0.00688(17) 0.4538(2) 0.32067(18)
H17 H -0.0129 0.3650 0.3206
C25 C 0.2972(2) 0.7733(3) 0.6807(3)
H18 H 0.3175 0.7347 0.7362
H19 H 0.2569 0.8427 0.6943
H20 H 0.3481 0.8056 0.6476
C26 C 0.56824(19) 0.0513(3) 0.7312(3)
H21 H 0.5807 0.0372 0.6681
H22 H 0.5976 -0.0136 0.7667
H23 H 0.5903 0.1343 0.7487
C27 C 0.27104(13) 0.20850(18) 0.67746(14)
H24 H 0.2100 0.2046 0.6914
C28 C 0.19752(18) -0.0917(2) 0.44984(19)
H25 H 0.1946 -0.1806 0.4453
loop_
_geom_bond_atom_site_label_1
_geom_bond_atom_site_label_2
_geom_bond_site_symmetry_1
_geom_bond_site_symmetry_2
O1 C7 1_555 1_555
O2 C14 1_555 1_555
C1 H1 1_555 1_555
C2 C3 1_555 1_555
O3 C8 1_555 1_555
C3 H2 1_555 1_555
H3 C3 1_555 1_555
N1 C3 1_555 1_555
C4 C5 1_555 1_555
C5 H4 1_555 1_555
C6 C2 1_555 1_555
H5 C6 1_555 1_555
C7 C13 1_555 1_555
O4 C20 1_555 1_555
C8 C1 1_555 1_555
C9 H6 1_555 1_555
C10 N1 1_555 1_555
C11 C10 1_555 1_555
H7 C11 1_555 1_555
H8 C11 1_555 1_555
C12 C9 1_555 1_555
H9 C12 1_555 1_555
C13 C11 1_555 1_555
H10 C13 1_555 1_555
C14 O1 1_555 1_555
C15 C4 1_555 1_555
H11 C15 1_555 1_555
C16 H12 1_555 1_555
C17 C10 1_555 1_555
C18 C17 1_555 1_555
H13 C18 1_555 1_555
C19 C6 1_555 1_555
H14 C19 1_555 1_555
C20 N1 1_555 1_555
C21 C5 1_555 1_555
H15 C21 1_555 1_555
C22 C18 1_555 1_555
H16 C22 1_555 1_555
C23 C16 1_555 1_555
C24 C2 1_555 1_555
H17 C24 1_555 1_555
C25 C14 1_555 1_555
H18 C25 1_555 1_555
H19 C25 1_555 1_555
H20 C25 1_555 1_555
C26 O3 1_555 1_555
H21 C26 1_555 1_555
H22 C26 1_555 1_555
H23 C26 1_555 1_555
C27 C1 1_555 1_555
H24 C27 1_555 1_555
C28 C16 1_555 1_555
H25 C28 1_555 1_555
C4 C27 1_555 1_555
C7 C15 1_555 1_555
C8 C21 1_555 1_555
C9 C19 1_555 1_555
C10 C15 1_555 1_555
C12 C24 1_555 1_555
C17 C23 1_555 1_555
C20 C23 1_555 1_555
C22 C28 1_555 1_555

#END
