
#######################################################################
#
#                 Cambridge Crystallographic Data Centre
#                                CCDC 
#
#######################################################################
#
# If this CIF has been generated from an entry in the Cambridge 
# Structural Database, then it will include bibliographic, chemical, 
# crystal, experimental, refinement or atomic coordinate data resulting 
# from the CCDC's data processing and validation procedures.
#
#######################################################################

data_BAXMUK
_chemical_formula_moiety         'C26 H15 N3'
_chemical_name_systematic        3,6-bis(pyridin-4-ylethynyl)-9H-carbazole
_symmetry_cell_setting           monoclinic
_symmetry_space_group_name_H-M   'P 21/n'
_symmetry_Int_Tables_number      14
_space_group_name_Hall           '-P 2yn'
loop_
_symmetry_equiv_pos_site_id
_symmetry_equiv_pos_as_xyz
1 x,y,z
2 1/2-x,1/2+y,1/2-z
3 -x,-y,-z
4 1/2+x,1/2-y,1/2+z
_cell_length_a                   17.205(6)
_cell_length_b                   5.746(2)
_cell_length_c                   20.409(7)
_cell_angle_alpha                90
_cell_angle_beta                 104.374(8)
_cell_angle_gamma                90
_cell_volume                     1954.47
_exptl_crystal_colour            'pale yellow'
_exptl_crystal_description       block
_cell_formula_units_Z            4
loop_
_atom_site_label
_atom_site_type_symbol
_atom_site_fract_x
_atom_site_fract_y
_atom_site_fract_z
N1 N -0.1916(3) 0.8848(10) 0.1493(3)
N2 N 0.1656(3) -0.1382(9) 0.5699(3)
C1 C -0.0672(4) 1.0333(10) 0.1814(3)
C2 C -0.1508(4) 0.7530(10) 0.2039(3)
C3 C -0.0070(4) 1.1907(12) 0.1774(4)
C4 C 0.0445(4) 0.3121(11) 0.4112(3)
C5 C -0.0732(4) 0.8402(10) 0.2259(3)
C6 C 0.0876(3) 0.1639(10) 0.4663(4)
C7 C -0.0200(4) 0.7339(11) 0.2790(3)
C8 C -0.1564(5) 1.2202(13) 0.0833(4)
C9 C -0.0206(4) 1.3595(12) 0.1279(4)
C10 C -0.1241(4) 0.4619(11) 0.2872(4)
C11 C -0.1415(4) 1.0527(11) 0.1341(3)
C12 C -0.0453(4) 0.5429(11) 0.3103(3)
C13 C 0.0945(5) 1.6586(12) 0.1272(4)
C14 C -0.1775(4) 0.5651(11) 0.2350(3)
C15 C 0.1302(4) 0.0568(13) 0.5818(4)
C16 C 0.1629(5) -0.1762(13) 0.5060(4)
C17 C 0.0072(4) 0.4203(11) 0.3656(3)
C18 C 0.1253(4) -0.0345(13) 0.4528(4)
C19 C 0.2351(6) 1.7858(15) 0.1714(5)
N3 N 0.2853(5) 2.1419(13) 0.1426(4)
C20 C 0.0915(4) 0.2084(12) 0.5330(4)
C21 C -0.0953(5) 1.3708(13) 0.0815(4)
C22 C 0.0424(5) 1.5254(11) 0.1260(4)
C23 C 0.1592(5) 1.8209(12) 0.1310(4)
C24 C 0.1485(6) 2.0259(13) 0.0947(5)
C25 C 0.2953(6) 1.9474(16) 0.1766(5)
C26 C 0.2125(7) 2.1768(14) 0.1031(6)
H1 H -0.105(3) 1.487(8) 0.049(2)
H2 H -0.232(3) 0.495(8) 0.216(2)
H3 H 0.031(3) 0.786(7) 0.295(2)
H4 H 0.069(3) 0.342(8) 0.543(2)
H5 H -0.209(3) 1.227(9) 0.049(3)
H6 H 0.043(3) 1.180(7) 0.207(2)
H7 H 0.132(3) 0.078(9) 0.629(3)
H8 H 0.095(4) 2.047(11) 0.060(3)
H9 H 0.202(3) 2.318(11) 0.080(3)
H10 H 0.249(3) 1.657(10) 0.198(3)
H11 H -0.234(3) 0.829(8) 0.126(2)
H12 H 0.125(3) -0.069(8) 0.409(3)
H13 H -0.144(3) 0.339(9) 0.314(2)
H14 H 0.183(4) -0.316(13) 0.494(3)
H15 H 0.353(6) 1.892(17) 0.209(5)
loop_
_geom_bond_atom_site_label_1
_geom_bond_atom_site_label_2
_geom_bond_site_symmetry_1
_geom_bond_site_symmetry_2
N1 C2 1_555 1_555
N2 C15 1_555 1_555
C1 C3 1_555 1_555
C2 C5 1_555 1_555
C3 C9 1_555 1_555
C4 C6 1_555 1_555
C5 C1 1_555 1_555
C6 C18 1_555 1_555
C7 C5 1_555 1_555
C8 C11 1_555 1_555
C9 C21 1_555 1_555
C10 C12 1_555 1_555
C11 N1 1_555 1_555
C12 C7 1_555 1_555
C13 C22 1_555 1_555
C14 C2 1_555 1_555
C15 C20 1_555 1_555
C16 N2 1_555 1_555
C17 C4 1_555 1_555
C18 C16 1_555 1_555
C19 C23 1_555 1_555
N3 C25 1_555 1_555
C20 C6 1_555 1_555
C21 C8 1_555 1_555
C22 C9 1_555 1_555
C23 C13 1_555 1_555
C24 C23 1_555 1_555
C25 C19 1_555 1_555
C26 N3 1_555 1_555
H1 C21 1_555 1_555
H2 C14 1_555 1_555
H3 C7 1_555 1_555
H4 C20 1_555 1_555
H5 C8 1_555 1_555
H6 C3 1_555 1_555
H7 C15 1_555 1_555
H8 C24 1_555 1_555
H9 C26 1_555 1_555
H10 C19 1_555 1_555
H11 N1 1_555 1_555
H12 C18 1_555 1_555
H13 C10 1_555 1_555
H14 C16 1_555 1_555
H15 C25 1_555 1_555
C1 C11 1_555 1_555
C10 C14 1_555 1_555
C12 C17 1_555 1_555
C24 C26 1_555 1_555

#END
