
#######################################################################
#
#                 Cambridge Crystallographic Data Centre
#                                CCDC 
#
#######################################################################
#
# If this CIF has been generated from an entry in the Cambridge 
# Structural Database, then it will include bibliographic, chemical, 
# crystal, experimental, refinement or atomic coordinate data resulting 
# from the CCDC's data processing and validation procedures.
#
#######################################################################

data_BAXPOI
_chemical_formula_moiety         'C25 H21 Cl1 F3 N1 O3'
_chemical_name_systematic        
'(7S,7aR,12aR)-t-butyl 5-chloro-7-(trifluoromethyl)-7,7a-dihydrobenzo[7,8]chromeno[2,3-b]indole-12(12aH)-carboxylate'
_symmetry_cell_setting           orthorhombic
_symmetry_space_group_name_H-M   'P 21 21 21'
_symmetry_Int_Tables_number      19
_space_group_name_Hall           'P 2ac 2ab'
loop_
_symmetry_equiv_pos_site_id
_symmetry_equiv_pos_as_xyz
1 x,y,z
2 1/2-x,-y,1/2+z
3 1/2+x,1/2-y,-z
4 -x,1/2+y,1/2-z
_cell_length_a                   10.8976(2)
_cell_length_b                   11.3914(2)
_cell_length_c                   18.5840(3)
_cell_angle_alpha                90
_cell_angle_beta                 90
_cell_angle_gamma                90
_cell_volume                     2307
_exptl_crystal_colour            colorless
_exptl_crystal_description       prism
_cell_formula_units_Z            4
loop_
_atom_site_label
_atom_site_type_symbol
_atom_site_fract_x
_atom_site_fract_y
_atom_site_fract_z
Cl1 Cl 0.20032(8) 0.59639(10) 0.15670(5)
F1 F 0.7118(2) 0.8558(2) 0.24208(14)
F2 F 0.6908(2) 0.7288(2) 0.15896(10)
F3 F 0.83173(16) 0.7073(2) 0.23648(12)
O1 O 0.53033(18) 0.85350(16) 0.35134(10)
O2 O 0.5572(2) 0.91967(17) 0.50414(10)
O3 O 0.4410(3) 0.7802(2) 0.55914(13)
N1 N 0.5506(2) 0.74107(19) 0.45736(12)
C1 C 0.5327(3) 0.6175(2) 0.45329(14)
C2 C 0.4656(3) 0.5450(3) 0.49774(16)
H1 H 0.4207 0.5753 0.5374
C3 C 0.4664(4) 0.4254(3) 0.48206(18)
H2 H 0.4221 0.3730 0.5122
C4 C 0.5294(4) 0.3812(3) 0.42413(18)
H3 H 0.5275 0.2994 0.4143
C5 C 0.5962(3) 0.4562(3) 0.37977(17)
H4 H 0.6406 0.4262 0.3398
C6 C 0.5970(3) 0.5746(2) 0.39481(15)
C7 C 0.6610(2) 0.6732(2) 0.35557(14)
H5 H 0.7517 0.6663 0.3624
C8 C 0.6139(2) 0.7844(2) 0.39347(14)
H6 H 0.6852 0.8340 0.4084
C9 C 0.6300(2) 0.6690(3) 0.27430(14)
H7 H 0.6386 0.5856 0.2584
C10 C 0.4969(2) 0.7025(2) 0.26506(13)
C11 C 0.4526(2) 0.7907(2) 0.30719(13)
C12 C 0.3271(3) 0.8240(2) 0.30618(14)
C13 C 0.2816(3) 0.9138(3) 0.35113(18)
H8 H 0.3351 0.9537 0.3832
C14 C 0.1593(4) 0.9433(4) 0.3483(2)
H9 H 0.1283 1.0038 0.3784
C15 C 0.0802(3) 0.8840(4) 0.3010(3)
H10 H -0.0041 0.9049 0.2996
C16 C 0.1217(3) 0.7977(4) 0.2574(2)
H11 H 0.0663 0.7591 0.2259
C17 C 0.2465(3) 0.7642(3) 0.25834(15)
C18 C 0.2964(3) 0.6729(3) 0.21567(14)
C19 C 0.4160(3) 0.6419(3) 0.21886(14)
H12 H 0.4456 0.5792 0.1900
C20 C 0.5091(3) 0.8114(3) 0.51224(15)
C21 C 0.5366(3) 1.0128(3) 0.55778(18)
C22 C 0.6173(4) 1.1100(3) 0.5306(3)
H13 H 0.7033 1.0853 0.5330
H14 H 0.6055 1.1800 0.5604
H15 H 0.5957 1.1281 0.4806
C23 C 0.4040(4) 1.0498(4) 0.5542(4)
H16 H 0.3835 1.0725 0.5048
H17 H 0.3906 1.1167 0.5864
H18 H 0.3516 0.9842 0.5691
C24 C 0.5770(8) 0.9723(4) 0.6305(3)
H19 H 0.5171 0.9162 0.6496
H20 H 0.5830 1.0399 0.6629
H21 H 0.6573 0.9342 0.6266
C25 C 0.7157(3) 0.7414(3) 0.22903(18)
loop_
_geom_bond_atom_site_label_1
_geom_bond_atom_site_label_2
_geom_bond_site_symmetry_1
_geom_bond_site_symmetry_2
Cl1 C18 1_555 1_555
F1 C25 1_555 1_555
F2 C25 1_555 1_555
F3 C25 1_555 1_555
O1 C8 1_555 1_555
O2 C20 1_555 1_555
O3 C20 1_555 1_555
N1 C1 1_555 1_555
C1 C2 1_555 1_555
C2 H1 1_555 1_555
C3 C2 1_555 1_555
H2 C3 1_555 1_555
C4 C3 1_555 1_555
H3 C4 1_555 1_555
C5 C4 1_555 1_555
H4 C5 1_555 1_555
C6 C1 1_555 1_555
C7 C6 1_555 1_555
H5 C7 1_555 1_555
C8 N1 1_555 1_555
H6 C8 1_555 1_555
C9 C7 1_555 1_555
H7 C9 1_555 1_555
C10 C9 1_555 1_555
C11 O1 1_555 1_555
C12 C11 1_555 1_555
C13 C12 1_555 1_555
H8 C13 1_555 1_555
C14 C13 1_555 1_555
H9 C14 1_555 1_555
C15 C14 1_555 1_555
H10 C15 1_555 1_555
C16 C15 1_555 1_555
H11 C16 1_555 1_555
C17 C12 1_555 1_555
C18 C17 1_555 1_555
C19 C10 1_555 1_555
H12 C19 1_555 1_555
C20 N1 1_555 1_555
C21 O2 1_555 1_555
C22 C21 1_555 1_555
H13 C22 1_555 1_555
H14 C22 1_555 1_555
H15 C22 1_555 1_555
C23 C21 1_555 1_555
H16 C23 1_555 1_555
H17 C23 1_555 1_555
H18 C23 1_555 1_555
C24 C21 1_555 1_555
H19 C24 1_555 1_555
H20 C24 1_555 1_555
H21 C24 1_555 1_555
C25 C9 1_555 1_555
C5 C6 1_555 1_555
C7 C8 1_555 1_555
C10 C11 1_555 1_555
C16 C17 1_555 1_555
C18 C19 1_555 1_555

#END
