
#######################################################################
#
#                 Cambridge Crystallographic Data Centre
#                                CCDC 
#
#######################################################################
#
# If this CIF has been generated from an entry in the Cambridge 
# Structural Database, then it will include bibliographic, chemical, 
# crystal, experimental, refinement or atomic coordinate data resulting 
# from the CCDC's data processing and validation procedures.
#
#######################################################################

data_BAYNIY
_chemical_formula_moiety         'C35 H64 O10 S1'
_chemical_name_systematic        
(+-)-t-Butyl-9-acetoxy-13-ethyl-3-hydroxy-5,6:11,12-bis(isopropylidenedioxy)-2,4,6,8,10,12-hexamethyl-14,16-dioxaheptadecanethioate
_symmetry_cell_setting           monoclinic
_symmetry_space_group_name_H-M   'P 21/c'
_symmetry_Int_Tables_number      14
_space_group_name_Hall           '-P 2ybc'
loop_
_symmetry_equiv_pos_site_id
_symmetry_equiv_pos_as_xyz
1 x,y,z
2 -x,1/2+y,1/2-z
3 -x,-y,-z
4 x,1/2-y,1/2+z
_cell_length_a                   8.097(1)
_cell_length_b                   21.250(3)
_cell_length_c                   23.289(4)
_cell_angle_alpha                90
_cell_angle_beta                 92.37(1)
_cell_angle_gamma                90
_cell_volume                     4003.71
_chemical_melting_point          136-7deg.C
_cell_formula_units_Z            4
loop_
_atom_site_label
_atom_site_type_symbol
_atom_site_fract_x
_atom_site_fract_y
_atom_site_fract_z
S1 S 0.76900 0.66920 0.14540
C1 C 0.76100 0.66910 0.06980
O1 O 0.79700 0.71310 0.03970
C2 C 0.69900 0.60460 0.04570
C3 C 0.85500 0.56860 0.02780
C4 C 0.58100 0.61750 -0.00810
O2 O 0.53300 0.55750 -0.03350
C5 C 0.42800 0.65610 0.00830
C6 C 0.32100 0.62120 0.05230
C7 C 0.32100 0.66990 -0.04600
O3 O 0.18200 0.70720 -0.02670
C8 C 0.10400 0.73870 -0.07590
C9 C -0.03400 0.69650 -0.10270
C10 C 0.04600 0.80360 -0.05580
O4 O 0.23700 0.74410 -0.11580
C11 C 0.39000 0.71560 -0.09320
C12 C 0.49800 0.76980 -0.06750
C13 C 0.47600 0.68470 -0.14310
C14 C 0.37500 0.63380 -0.17650
C15 C 0.25400 0.66490 -0.22250
C16 C 0.49300 0.59060 -0.20910
O5 O 0.60800 0.56110 -0.16500
C17 C 0.77300 0.55960 -0.17480
O6 O 0.83000 0.58710 -0.21400
C18 C 0.86200 0.51590 -0.13110
C19 C 0.40400 0.53650 -0.24280
C20 C 0.30900 0.49340 -0.20280
C21 C 0.53700 0.50310 -0.27750
O7 O 0.60500 0.45150 -0.24410
C22 C 0.68200 0.40990 -0.28260
C23 C 0.86500 0.42550 -0.28830
C24 C 0.65100 0.34260 -0.26310
O8 O 0.59800 0.41980 -0.33770
C25 C 0.47900 0.47080 -0.33430
C26 C 0.30400 0.44110 -0.33750
C27 C 0.50100 0.51420 -0.38880
C28 C 0.39500 0.57460 -0.38800
C29 C 0.40100 0.61060 -0.44500
O9 O 0.67100 0.53220 -0.38850
C30 C 0.77800 0.49770 -0.42620
O10 O 0.76800 0.52260 -0.48160
C31 C 0.86300 0.58080 -0.48650
C32 C 0.84300 0.74970 0.16800
C33 C 0.84500 0.74470 0.23370
C34 C 1.01200 0.76210 0.14420
C35 C 0.71400 0.79800 0.14680
loop_
_geom_bond_atom_site_label_1
_geom_bond_atom_site_label_2
_geom_bond_site_symmetry_1
_geom_bond_site_symmetry_2
S1 C1 1_555 1_555
C1 O1 1_555 1_555
C2 C1 1_555 1_555
C3 C2 1_555 1_555
C4 C2 1_555 1_555
O2 C4 1_555 1_555
C5 C4 1_555 1_555
C6 C5 1_555 1_555
C7 C5 1_555 1_555
O3 C7 1_555 1_555
C8 O3 1_555 1_555
C9 C8 1_555 1_555
C10 C8 1_555 1_555
O4 C8 1_555 1_555
C11 C7 1_555 1_555
C12 C11 1_555 1_555
C13 C11 1_555 1_555
C14 C13 1_555 1_555
C15 C14 1_555 1_555
C16 C14 1_555 1_555
O5 C16 1_555 1_555
C17 O5 1_555 1_555
O6 C17 1_555 1_555
C18 C17 1_555 1_555
C19 C16 1_555 1_555
C20 C19 1_555 1_555
C21 C19 1_555 1_555
O7 C21 1_555 1_555
C22 O7 1_555 1_555
C23 C22 1_555 1_555
C24 C22 1_555 1_555
O8 C22 1_555 1_555
C25 C21 1_555 1_555
C26 C25 1_555 1_555
C27 C25 1_555 1_555
C28 C27 1_555 1_555
C29 C28 1_555 1_555
O9 C27 1_555 1_555
C30 O9 1_555 1_555
O10 C30 1_555 1_555
C31 O10 1_555 1_555
C32 S1 1_555 1_555
C33 C32 1_555 1_555
C34 C32 1_555 1_555
C35 C32 1_555 1_555
O4 C11 1_555 1_555
O8 C25 1_555 1_555

#END
