
#######################################################################
#
#                 Cambridge Crystallographic Data Centre
#                                CCDC 
#
#######################################################################
#
# If this CIF has been generated from an entry in the Cambridge 
# Structural Database, then it will include bibliographic, chemical, 
# crystal, experimental, refinement or atomic coordinate data resulting 
# from the CCDC's data processing and validation procedures.
#
#######################################################################

data_BAZXUX
_chemical_formula_moiety         'C21 H26 O3 S1'
_chemical_name_systematic        
4-(Hydroxymethyl)-5-(2-methyl-5-(prop-1-en-2-yl)cyclopent-1-en-1-yl)-3-((phenylsulfanyl)methyl)dihydrofuran-2(3H)-one
_symmetry_cell_setting           orthorhombic
_symmetry_space_group_name_H-M   'P 21 21 21'
_symmetry_Int_Tables_number      19
_space_group_name_Hall           'P 2ac 2ab'
loop_
_symmetry_equiv_pos_site_id
_symmetry_equiv_pos_as_xyz
1 x,y,z
2 1/2-x,-y,1/2+z
3 -x,1/2+y,1/2-z
4 1/2+x,1/2-y,-z
_cell_length_a                   9.1092(18)
_cell_length_b                   10.189(2)
_cell_length_c                   20.517(4)
_cell_angle_alpha                90
_cell_angle_beta                 90
_cell_angle_gamma                90
_cell_volume                     1904.26
_cell_formula_units_Z            4
loop_
_atom_site_label
_atom_site_type_symbol
_atom_site_fract_x
_atom_site_fract_y
_atom_site_fract_z
S1 S 0.82808(8) 0.94476(7) 1.01138(4)
O1 O 0.7242(2) 0.63596(17) 0.97677(9)
O2 O 0.64325(19) 0.69008(16) 0.87888(7)
O3 O 0.2885(2) 0.9332(2) 0.89501(8)
H1 H 0.2632 0.9217 0.9329
C1 C 0.8201(3) 1.1002(2) 0.97459(12)
C2 C 0.9123(3) 1.1274(3) 0.92236(14)
H2 H 0.9732 1.0619 0.9061
C3 C 0.9146(3) 1.2503(3) 0.89441(13)
H3 H 0.9762 1.2669 0.8592
C4 C 0.8268(3) 1.3480(3) 0.91810(13)
H4 H 0.8302 1.4312 0.8995
C5 C 0.7335(3) 1.3236(3) 0.96929(13)
H5 H 0.6719 1.3896 0.9845
C6 C 0.7310(3) 1.2005(3) 0.99829(13)
H6 H 0.6696 1.1850 1.0337
C7 C 0.6370(3) 0.8993(3) 1.02176(12)
H7 H 0.6289 0.8416 1.0592
H8 H 0.5806 0.9778 1.0311
C8 C 0.5701(3) 0.8313(2) 0.96329(11)
H9 H 0.4712 0.8030 0.9758
C9 C 0.5564(3) 0.9049(2) 0.89929(11)
H10 H 0.6470 0.9547 0.8920
C10 C 0.5503(3) 0.7932(2) 0.85032(10)
H11 H 0.4492 0.7608 0.8480
C11 C 0.6544(3) 0.7092(2) 0.94241(11)
C12 C 0.4267(3) 0.9982(3) 0.89367(12)
H12 H 0.4307 1.0608 0.9293
H13 H 0.4350 1.0470 0.8532
C13 C 0.6008(3) 0.8257(2) 0.78319(12)
C14 C 0.5136(3) 0.8244(3) 0.73095(12)
C15 C 0.5937(4) 0.8718(3) 0.67155(13)
H14 H 0.5399 0.9419 0.6503
H15 H 0.6081 0.8008 0.6407
C16 C 0.7399(4) 0.9211(3) 0.69734(14)
H16 H 0.7422 1.0162 0.6970
H17 H 0.8197 0.8889 0.6704
C17 C 0.7557(3) 0.8691(3) 0.76773(12)
H18 H 0.7821 0.9422 0.7965
C18 C 0.8678(3) 0.7614(3) 0.77554(12)
C19 C 0.9898(3) 0.7783(4) 0.80811(13)
H19 H 1.0569 0.7099 0.8117
H20 H 1.0094 0.8587 0.8277
C20 C 0.8339(4) 0.6318(3) 0.74341(16)
H21 H 0.9159 0.5736 0.7485
H22 H 0.8155 0.6457 0.6979
H23 H 0.7486 0.5937 0.7634
C21 C 0.3590(4) 0.7820(4) 0.72588(15)
H24 H 0.3252 0.7528 0.7678
H25 H 0.3515 0.7114 0.6951
H26 H 0.2998 0.8544 0.7115
loop_
_geom_bond_atom_site_label_1
_geom_bond_atom_site_label_2
_geom_bond_site_symmetry_1
_geom_bond_site_symmetry_2
S1 C1 1_555 1_555
O1 C11 1_555 1_555
O2 C10 1_555 1_555
O3 H1 1_555 1_555
C1 C2 1_555 1_555
C2 H2 1_555 1_555
C3 C2 1_555 1_555
H3 C3 1_555 1_555
C4 C3 1_555 1_555
H4 C4 1_555 1_555
C5 C4 1_555 1_555
H5 C5 1_555 1_555
C6 C1 1_555 1_555
H6 C6 1_555 1_555
C7 S1 1_555 1_555
H7 C7 1_555 1_555
H8 C7 1_555 1_555
C8 C7 1_555 1_555
H9 C8 1_555 1_555
C9 C8 1_555 1_555
H10 C9 1_555 1_555
C10 C9 1_555 1_555
H11 C10 1_555 1_555
C11 O2 1_555 1_555
C12 O3 1_555 1_555
H12 C12 1_555 1_555
H13 C12 1_555 1_555
C13 C10 1_555 1_555
C14 C13 1_555 1_555
C15 C14 1_555 1_555
H14 C15 1_555 1_555
H15 C15 1_555 1_555
C16 C15 1_555 1_555
H16 C16 1_555 1_555
H17 C16 1_555 1_555
C17 C13 1_555 1_555
H18 C17 1_555 1_555
C18 C17 1_555 1_555
C19 C18 1_555 1_555
H19 C19 1_555 1_555
H20 C19 1_555 1_555
C20 C18 1_555 1_555
H21 C20 1_555 1_555
H22 C20 1_555 1_555
H23 C20 1_555 1_555
C21 C14 1_555 1_555
H24 C21 1_555 1_555
H25 C21 1_555 1_555
H26 C21 1_555 1_555
C5 C6 1_555 1_555
C8 C11 1_555 1_555
C9 C12 1_555 1_555
C16 C17 1_555 1_555

#END
