
#######################################################################
#
#                 Cambridge Crystallographic Data Centre
#                                CCDC 
#
#######################################################################
#
# If this CIF has been generated from an entry in the Cambridge 
# Structural Database, then it will include bibliographic, chemical, 
# crystal, experimental, refinement or atomic coordinate data resulting 
# from the CCDC's data processing and validation procedures.
#
#######################################################################

data_BAZZIM
_chemical_formula_moiety         'C36 H60 N2 O2 Si2'
_chemical_name_systematic        
Glyoxal-bis((2-\a-tri-isopropylsiloxymethyl)-6-methylphenyl)-di-imine
_symmetry_cell_setting           triclinic
_symmetry_space_group_name_H-M   'P -1'
_symmetry_Int_Tables_number      2
_space_group_name_Hall           '-P 1'
loop_
_symmetry_equiv_pos_site_id
_symmetry_equiv_pos_as_xyz
1 x,y,z
2 -x,-y,-z
_cell_length_a                   8.11010(10)
_cell_length_b                   8.7180(2)
_cell_length_c                   13.2157(3)
_cell_angle_alpha                86.6100(10)
_cell_angle_beta                 78.6380(10)
_cell_angle_gamma                87.3270(10)
_cell_volume                     913.901
_exptl_crystal_colour            yellow
_cell_formula_units_Z            1
_exptl_crystal_recrystallization_method 'absolute ethanol/dichloromethane(4:1)'
loop_
_atom_site_label
_atom_site_type_symbol
_atom_site_fract_x
_atom_site_fract_y
_atom_site_fract_z
Si1 Si 0.2690(1) 0.2722(1) 0.3135(1)
O1 O 0.2279(1) 0.1435(1) 0.2354(1)
N1 N 0.3425(1) -0.1311(1) 0.0444(1)
C1 C 0.4112(2) -0.0037(1) 0.0247(1)
C2 C 0.1713(2) -0.1395(1) 0.0947(1)
C3 C 0.1109(2) -0.0899(1) 0.1946(1)
C4 C -0.0559(2) -0.1144(2) 0.2405(1)
C5 C -0.1615(2) -0.1859(2) 0.1895(1)
C6 C -0.1002(2) -0.2355(2) 0.0914(1)
C7 C 0.0654(2) -0.2144(2) 0.0424(1)
C8 C 0.1298(3) -0.2699(2) -0.0644(1)
C9 C 0.2228(2) -0.0185(1) 0.2559(1)
C10 C 0.3879(2) 0.4244(2) 0.2256(1)
C11 C 0.3264(3) 0.4544(2) 0.1242(1)
C12 C 0.3923(3) 0.5764(2) 0.2782(2)
C13 C 0.0668(2) 0.3510(1) 0.3922(1)
C14 C -0.0513(2) 0.4283(2) 0.3262(1)
C15 C -0.0261(2) 0.2278(2) 0.4665(1)
C16 C 0.4004(2) 0.1754(2) 0.4037(1)
C17 C 0.5722(2) 0.1171(2) 0.3449(1)
C18 C 0.4239(2) 0.2734(2) 0.4918(1)
H1 H 0.3473(2) 0.0884(1) 0.0421(1)
H2 H -0.0980(2) -0.0814(2) 0.3082(1)
H3 H -0.2755(2) -0.2009(2) 0.2217(1)
H4 H -0.1731(2) -0.2852(2) 0.0567(1)
H5 H 0.0447(8) -0.3319(14) -0.0842(5)
H6 H 0.2334(10) -0.3326(14) -0.0649(3)
H7 H 0.1531(17) -0.1813(2) -0.1135(2)
H8 H 0.1803(2) -0.0409(1) 0.3305(1)
H9 H 0.3381(2) -0.0646(1) 0.2379(1)
H10 H 0.5070(2) 0.3846(2) 0.2072(1)
H11 H 0.3951(11) 0.5325(12) 0.0813(5)
H12 H 0.2085(6) 0.4910(15) 0.1385(1)
H13 H 0.3363(17) 0.3589(4) 0.0875(5)
H14 H 0.4595(15) 0.6496(6) 0.2298(4)
H15 H 0.4428(17) 0.5574(3) 0.3395(6)
H16 H 0.2774(3) 0.6190(9) 0.2988(10)
H17 H 0.0975(2) 0.4315(1) 0.4353(1)
H18 H -0.1569(7) 0.4605(14) 0.3710(2)
H19 H -0.0748(14) 0.3554(5) 0.2775(7)
H20 H 0.0019(7) 0.5184(9) 0.2877(8)
H21 H -0.1228(10) 0.2756(3) 0.5116(7)
H22 H 0.0504(5) 0.1786(10) 0.5085(7)
H23 H -0.0653(14) 0.1503(8) 0.4268(1)
H24 H 0.3390(2) 0.0828(2) 0.4364(1)
H25 H 0.6302(7) 0.0553(13) 0.3926(3)
H26 H 0.6402(7) 0.2049(2) 0.3156(9)
H27 H 0.5559(2) 0.0537(13) 0.2891(7)
H28 H 0.4903(14) 0.2142(6) 0.5361(6)
H29 H 0.3136(2) 0.3021(13) 0.5328(6)
H30 H 0.4829(15) 0.3665(8) 0.4630(1)
C1A C 0.5888(2) 0.0037(1) -0.0247(1)
N1A N 0.6575(1) 0.1311(1) -0.0444(1)
C2A C 0.8287(2) 0.1395(1) -0.0947(1)
C3A C 0.8891(2) 0.0899(1) -0.1946(1)
C4A C 1.0559(2) 0.1144(2) -0.2405(1)
C5A C 1.1615(2) 0.1859(2) -0.1895(1)
C6A C 1.1002(2) 0.2355(2) -0.0914(1)
C7A C 0.9346(2) 0.2144(2) -0.0424(1)
C8A C 0.8702(3) 0.2699(2) 0.0644(1)
H5A H 0.9553(8) 0.3319(14) 0.0842(5)
H6A H 0.7666(10) 0.3326(14) 0.0649(3)
H7A H 0.8469(17) 0.1813(2) 0.1135(2)
H4A H 1.1731(2) 0.2852(2) -0.0567(1)
H3A H 1.2755(2) 0.2009(2) -0.2217(1)
H2A H 1.0980(2) 0.0814(2) -0.3082(1)
C9A C 0.7772(2) 0.0185(1) -0.2559(1)
O1A O 0.7721(1) -0.1435(1) -0.2354(1)
Si1A Si 0.7310(1) -0.2722(1) -0.3135(1)
C10A C 0.6121(2) -0.4244(2) -0.2256(1)
C11A C 0.6736(3) -0.4544(2) -0.1242(1)
H11A H 0.6049(11) -0.5325(12) -0.0813(5)
H12A H 0.7915(6) -0.4910(15) -0.1385(1)
H13A H 0.6637(17) -0.3589(4) -0.0875(5)
C12A C 0.6077(3) -0.5764(2) -0.2782(2)
H14A H 0.5405(15) -0.6496(6) -0.2298(4)
H15A H 0.5572(17) -0.5574(3) -0.3395(6)
H16A H 0.7226(3) -0.6190(9) -0.2988(10)
H10A H 0.4930(2) -0.3846(2) -0.2072(1)
C13A C 0.9332(2) -0.3510(1) -0.3922(1)
C14A C 1.0513(2) -0.4283(2) -0.3262(1)
H18A H 1.1569(7) -0.4605(14) -0.3710(2)
H19A H 1.0748(14) -0.3554(5) -0.2775(7)
H20A H 0.9981(7) -0.5184(9) -0.2877(8)
C15A C 1.0261(2) -0.2278(2) -0.4665(1)
H21A H 1.1228(10) -0.2756(3) -0.5116(7)
H22A H 0.9496(5) -0.1786(10) -0.5085(7)
H23A H 1.0653(14) -0.1503(8) -0.4268(1)
H17A H 0.9025(2) -0.4315(1) -0.4353(1)
C16A C 0.5996(2) -0.1754(2) -0.4037(1)
C17A C 0.4278(2) -0.1171(2) -0.3449(1)
H25A H 0.3698(7) -0.0553(13) -0.3926(3)
H26A H 0.3598(7) -0.2049(2) -0.3156(9)
H27A H 0.4441(2) -0.0537(13) -0.2891(7)
C18A C 0.5761(2) -0.2734(2) -0.4918(1)
H28A H 0.5097(14) -0.2142(6) -0.5361(6)
H29A H 0.6864(2) -0.3021(13) -0.5328(6)
H30A H 0.5171(15) -0.3665(8) -0.4630(1)
H24A H 0.6610(2) -0.0828(2) -0.4364(1)
H8A H 0.8197(2) 0.0409(1) -0.3305(1)
H9A H 0.6619(2) 0.0646(1) -0.2379(1)
H1A H 0.6527(2) -0.0884(1) -0.0421(1)
loop_
_geom_bond_atom_site_label_1
_geom_bond_atom_site_label_2
_geom_bond_site_symmetry_1
_geom_bond_site_symmetry_2
Si1 O1 1_555 1_555
O1 C9 1_555 1_555
N1 C1 1_555 1_555
C1 H1 1_555 1_555
C2 N1 1_555 1_555
C3 C2 1_555 1_555
C4 C3 1_555 1_555
C5 C4 1_555 1_555
C6 C5 1_555 1_555
C7 C2 1_555 1_555
C8 C7 1_555 1_555
C9 C3 1_555 1_555
C10 Si1 1_555 1_555
C11 C10 1_555 1_555
C12 C10 1_555 1_555
C13 Si1 1_555 1_555
C14 C13 1_555 1_555
C15 C13 1_555 1_555
C16 Si1 1_555 1_555
C17 C16 1_555 1_555
C18 C16 1_555 1_555
H2 C4 1_555 1_555
H3 C5 1_555 1_555
H4 C6 1_555 1_555
H5 C8 1_555 1_555
H6 C8 1_555 1_555
H7 C8 1_555 1_555
H8 C9 1_555 1_555
H9 C9 1_555 1_555
H10 C10 1_555 1_555
H11 C11 1_555 1_555
H12 C11 1_555 1_555
H13 C11 1_555 1_555
H14 C12 1_555 1_555
H15 C12 1_555 1_555
H16 C12 1_555 1_555
H17 C13 1_555 1_555
H18 C14 1_555 1_555
H19 C14 1_555 1_555
H20 C14 1_555 1_555
H21 C15 1_555 1_555
H22 C15 1_555 1_555
H23 C15 1_555 1_555
H24 C16 1_555 1_555
H25 C17 1_555 1_555
H26 C17 1_555 1_555
H27 C17 1_555 1_555
H28 C18 1_555 1_555
H29 C18 1_555 1_555
H30 C18 1_555 1_555
C1A C1 1_555 1_555
N1A C1A 1_555 1_555
C2A N1A 1_555 1_555
C3A C2A 1_555 1_555
C4A C3A 1_555 1_555
C5A C4A 1_555 1_555
C6A C5A 1_555 1_555
C7A C2A 1_555 1_555
C8A C7A 1_555 1_555
H5A C8A 1_555 1_555
H6A C8A 1_555 1_555
H7A C8A 1_555 1_555
H4A C6A 1_555 1_555
H3A C5A 1_555 1_555
H2A C4A 1_555 1_555
C9A C3A 1_555 1_555
O1A C9A 1_555 1_555
Si1A O1A 1_555 1_555
C10A Si1A 1_555 1_555
C11A C10A 1_555 1_555
H11A C11A 1_555 1_555
H12A C11A 1_555 1_555
H13A C11A 1_555 1_555
C12A C10A 1_555 1_555
H14A C12A 1_555 1_555
H15A C12A 1_555 1_555
H16A C12A 1_555 1_555
H10A C10A 1_555 1_555
C13A Si1A 1_555 1_555
C14A C13A 1_555 1_555
H18A C14A 1_555 1_555
H19A C14A 1_555 1_555
H20A C14A 1_555 1_555
C15A C13A 1_555 1_555
H21A C15A 1_555 1_555
H22A C15A 1_555 1_555
H23A C15A 1_555 1_555
H17A C13A 1_555 1_555
C16A Si1A 1_555 1_555
C17A C16A 1_555 1_555
H25A C17A 1_555 1_555
H26A C17A 1_555 1_555
H27A C17A 1_555 1_555
C18A C16A 1_555 1_555
H28A C18A 1_555 1_555
H29A C18A 1_555 1_555
H30A C18A 1_555 1_555
H24A C16A 1_555 1_555
H8A C9A 1_555 1_555
H9A C9A 1_555 1_555
H1A C1A 1_555 1_555
C6 C7 1_555 1_555
C6A C7A 1_555 1_555

#END
