
#######################################################################
#
#                 Cambridge Crystallographic Data Centre
#                                CCDC 
#
#######################################################################
#
# If this CIF has been generated from an entry in the Cambridge 
# Structural Database, then it will include bibliographic, chemical, 
# crystal, experimental, refinement or atomic coordinate data resulting 
# from the CCDC's data processing and validation procedures.
#
#######################################################################

data_BEBGIA
_chemical_formula_moiety         'C23 H17 N3 O1 S1,H2 O1'
_chemical_name_systematic        
'(2R,4R)-4-(2-Oxo-2-phenylethyl)-2-(2-thienyl)-1,4-dihydroquinoline-3,3(2H)-dicarbonitrile monohydrate'
_symmetry_cell_setting           hexagonal
_symmetry_space_group_name_H-M   'P 65'
_symmetry_Int_Tables_number      170
_space_group_name_Hall           'P 65'
loop_
_symmetry_equiv_pos_site_id
_symmetry_equiv_pos_as_xyz
1 x,y,z
2 -y,x-y,2/3+z
3 -x+y,-x,1/3+z
4 -x,-y,1/2+z
5 y,-x+y,1/6+z
6 x-y,x,5/6+z
_cell_length_a                   20.5741(4)
_cell_length_b                   20.5741(4)
_cell_length_c                   8.3019(4)
_cell_angle_alpha                90
_cell_angle_beta                 90
_cell_angle_gamma                120
_cell_volume                     3043.34
_exptl_crystal_colour            colorless
_exptl_crystal_description       rod
_cell_formula_units_Z            6
loop_
_atom_site_label
_atom_site_type_symbol
_atom_site_fract_x
_atom_site_fract_y
_atom_site_fract_z
S1 S 0.88251(7) 0.51114(7) 0.11389(14)
O1 O 0.89687(16) 0.68624(16) 0.9631(4)
N1 N 0.9109(2) 0.65037(19) 0.3060(5)
H1 H 0.909(3) 0.660(2) 0.209(7)
N2 N 1.0191(3) 0.5785(3) 0.4576(6)
N3 N 0.7994(3) 0.4378(2) 0.6549(6)
C1 C 0.8105(4) 0.4280(3) 0.0472(6)
H2 H 0.8151 0.4006 -0.0383
C2 C 0.7461(3) 0.4053(3) 0.1298(7)
H3 H 0.7012 0.3605 0.1086
C3 C 0.7537(3) 0.4564(3) 0.2511(6)
H4 H 0.7144 0.4499 0.3194
C4 C 0.8262(2) 0.5177(2) 0.2583(5)
C5 C 0.8552(2) 0.5814(2) 0.3767(5)
H5 H 0.8125 0.5878 0.4102
C6 C 0.8921(2) 0.5709(2) 0.5328(5)
C7 C 0.9067(2) 0.6342(2) 0.6545(5)
H6 H 0.9375 0.6322 0.7440
C8 C 0.9521(2) 0.7091(2) 0.5678(5)
C9 C 0.9504(2) 0.7145(2) 0.4003(5)
C10 C 0.9926(2) 0.7835(2) 0.3248(6)
H7 H 0.9914 0.7869 0.2120
C11 C 1.0364(2) 0.8475(2) 0.4158(6)
H8 H 1.0637 0.8942 0.3642
C12 C 1.0402(2) 0.8432(2) 0.5802(6)
H9 H 1.0718 0.8865 0.6400
C13 C 0.9975(2) 0.7752(2) 0.6580(6)
H10 H 0.9987 0.7728 0.7709
C14 C 0.8319(2) 0.6224(2) 0.7253(5)
H11 H 0.8153 0.6515 0.6611
H12 H 0.7937 0.5693 0.7148
C15 C 0.8364(3) 0.6450(2) 0.8997(5)
C16 C 0.7655(2) 0.6166(2) 0.9936(5)
C17 C 0.7663(2) 0.6520(2) 1.1366(6)
H13 H 0.8101 0.6961 1.1673
C18 C 0.7037(3) 0.6233(3) 1.2345(6)
H14 H 0.7054 0.6473 1.3321
C19 C 0.6388(3) 0.5597(3) 1.1886(7)
H15 H 0.5964 0.5396 1.2559
C20 C 0.6361(3) 0.5257(3) 1.0449(8)
H16 H 0.5911 0.4836 1.0115
C21 C 0.6995(3) 0.5532(3) 0.9485(7)
H17 H 0.6976 0.5286 0.8517
C22 C 0.9637(3) 0.5742(2) 0.4899(6)
C23 C 0.8406(3) 0.4952(3) 0.6025(5)
O2 O 0.9313(7) 0.9014(6) 0.1401(16)
O3? O 0.9932(7) 0.9261(6) 0.0477(15)
loop_
_geom_bond_atom_site_label_1
_geom_bond_atom_site_label_2
_geom_bond_site_symmetry_1
_geom_bond_site_symmetry_2
S1 C1 1_555 1_555
O1 C15 1_555 1_555
N1 H1 1_555 1_555
N2 C22 1_555 1_555
N3 C23 1_555 1_555
C1 H2 1_555 1_555
C2 C1 1_555 1_555
H3 C2 1_555 1_555
C3 C2 1_555 1_555
H4 C3 1_555 1_555
C4 S1 1_555 1_555
C5 N1 1_555 1_555
H5 C5 1_555 1_555
C6 C5 1_555 1_555
C7 C6 1_555 1_555
H6 C7 1_555 1_555
C8 C7 1_555 1_555
C9 N1 1_555 1_555
C10 C9 1_555 1_555
H7 C10 1_555 1_555
C11 C10 1_555 1_555
H8 C11 1_555 1_555
C12 C11 1_555 1_555
H9 C12 1_555 1_555
C13 C8 1_555 1_555
H10 C13 1_555 1_555
C14 C7 1_555 1_555
H11 C14 1_555 1_555
H12 C14 1_555 1_555
C15 C14 1_555 1_555
C16 C15 1_555 1_555
C17 C16 1_555 1_555
H13 C17 1_555 1_555
C18 C17 1_555 1_555
H14 C18 1_555 1_555
C19 C18 1_555 1_555
H15 C19 1_555 1_555
C20 C19 1_555 1_555
H16 C20 1_555 1_555
C21 C16 1_555 1_555
H17 C21 1_555 1_555
C22 C6 1_555 1_555
C23 C6 1_555 1_555
C3 C4 1_555 1_555
C4 C5 1_555 1_555
C8 C9 1_555 1_555
C12 C13 1_555 1_555
C20 C21 1_555 1_555

#END
