
#######################################################################
#
#                 Cambridge Crystallographic Data Centre
#                                CCDC 
#
#######################################################################
#
# If this CIF has been generated from an entry in the Cambridge 
# Structural Database, then it will include bibliographic, chemical, 
# crystal, experimental, refinement or atomic coordinate data resulting 
# from the CCDC's data processing and validation procedures.
#
#######################################################################

data_BEBTIM
_chemical_compound_source        'Sophora flavescens'
_chemical_formula_moiety         'C15 H25 N2 O1 1+,Cl1 1-,2.5(H2 O1)'
_chemical_name_systematic        
'cis-(1S,5S,6S,7R,11R,16S)-Neomatrine trans-(1S,5S,6S,7R,11R,16R)-neomatrine dihydrochloride hydrate'
_symmetry_cell_setting           orthorhombic
_symmetry_space_group_name_H-M   'P 21 21 21'
_symmetry_Int_Tables_number      19
_space_group_name_Hall           'P 2ac 2ab'
loop_
_symmetry_equiv_pos_site_id
_symmetry_equiv_pos_as_xyz
1 x,y,z
2 1/2-x,-y,1/2+z
3 1/2+x,1/2-y,-z
4 -x,1/2+y,1/2-z
_cell_length_a                   8.053(2)
_cell_length_b                   13.464(5)
_cell_length_c                   30.971(9)
_cell_angle_alpha                90
_cell_angle_beta                 90
_cell_angle_gamma                90
_cell_volume                     3358.05
_chemical_melting_point          79.5-81.0deg.C
_cell_formula_units_Z            8
loop_
_atom_site_label
_atom_site_type_symbol
_atom_site_fract_x
_atom_site_fract_y
_atom_site_fract_z
Cl1 Cl 0.3664(1) 0.5308(1) 0.5080(1)
O1 O -0.0854(3) 0.5383(2) 0.6701(1)
N1 N -0.0055(4) 0.4830(2) 0.4903(1)
N2 N -0.0238(4) 0.5798(2) 0.6017(1)
C1 C 0.0145(6) 0.3745(3) 0.4789(1)
C2 C 0.0471(5) 0.3127(3) 0.5182(1)
C3 C -0.0900(5) 0.3252(3) 0.5511(1)
C4 C -0.1195(5) 0.4339(2) 0.5623(1)
C5 C -0.1462(4) 0.4972(2) 0.5226(1)
C6 C -0.1675(5) 0.6078(3) 0.5335(1)
C7 C -0.1911(5) 0.6677(3) 0.4918(1)
C8 C -0.0494(5) 0.6507(3) 0.4600(1)
C9 C -0.0267(6) 0.5427(3) 0.4505(1)
C10 C -0.0301(5) 0.6455(2) 0.5635(1)
C11 C -0.0442(6) 0.7537(3) 0.5776(1)
C12 C -0.1706(6) 0.7691(3) 0.6119(1)
C13 C -0.1344(6) 0.7066(3) 0.6500(1)
C14 C -0.0817(4) 0.6013(3) 0.6411(1)
C15 C 0.0143(5) 0.4775(3) 0.5909(1)
O2 O 0.3185(4) 0.7773(2) 0.6471(1)
N3 N 0.3195(4) 0.6270(2) 0.8172(1)
N4 N 0.3008(4) 0.6643(2) 0.7003(1)
C16 C 0.2823(6) 0.7056(3) 0.8506(1)
C17 C 0.2450(6) 0.8042(3) 0.8289(1)
C18 C 0.1016(5) 0.7952(3) 0.7977(1)
C19 C 0.1348(5) 0.7131(2) 0.7645(1)
C20 C 0.1767(5) 0.6148(2) 0.7861(1)
C21 C 0.2140(4) 0.5351(3) 0.7528(1)
C22 C 0.2540(5) 0.4368(3) 0.7756(1)
C23 C 0.3994(5) 0.4495(3) 0.8069(1)
C24 C 0.3631(6) 0.5307(3) 0.8389(1)
C25 C 0.3434(5) 0.5662(2) 0.7192(1)
C26 C 0.3604(6) 0.4869(3) 0.6845(1)
C27 C 0.4501(8) 0.5231(4) 0.6462(1)
C28 C 0.4006(5) 0.6160(3) 0.6301(1)
C29 C 0.3367(4) 0.6907(3) 0.6599(1)
C30 C 0.2651(5) 0.7430(3) 0.7321(1)
Cl2 Cl -0.2342(5) 0.6759(5) 0.8843(1)
O3 O 0.1468(7) 0.9536(4) 0.6652(2)
O4 O -0.4875(5) 0.8444(3) 0.9325(1)
O5 O -0.2274(5) 0.5342(4) 0.7528(1)
O6 O 0.5290(40) 0.4422(14) 0.4142(4)
O7 O 0.6762(19) 0.6777(13) 0.7964(6)
loop_
_geom_bond_atom_site_label_1
_geom_bond_atom_site_label_2
_geom_bond_site_symmetry_1
_geom_bond_site_symmetry_2
O1 C14 1_555 1_555
N1 C1 1_555 1_555
N2 C10 1_555 1_555
C1 C2 1_555 1_555
C2 C3 1_555 1_555
C3 C4 1_555 1_555
C4 C5 1_555 1_555
C5 N1 1_555 1_555
C6 C5 1_555 1_555
C7 C6 1_555 1_555
C8 C7 1_555 1_555
C9 N1 1_555 1_555
C10 C6 1_555 1_555
C11 C10 1_555 1_555
C12 C11 1_555 1_555
C13 C12 1_555 1_555
C14 N2 1_555 1_555
C15 N2 1_555 1_555
O2 C29 1_555 1_555
N3 C16 1_555 1_555
N4 C25 1_555 1_555
C16 C17 1_555 1_555
C17 C18 1_555 1_555
C18 C19 1_555 1_555
C19 C20 1_555 1_555
C20 N3 1_555 1_555
C21 C20 1_555 1_555
C22 C21 1_555 1_555
C23 C22 1_555 1_555
C24 N3 1_555 1_555
C25 C21 1_555 1_555
C26 C25 1_555 1_555
C27 C26 1_555 1_555
C28 C27 1_555 1_555
C29 N4 1_555 1_555
C30 N4 1_555 1_555
C4 C15 1_555 1_555
C8 C9 1_555 1_555
C13 C14 1_555 1_555
C19 C30 1_555 1_555
C23 C24 1_555 1_555
C28 C29 1_555 1_555

#END
