
#######################################################################
#
#                 Cambridge Crystallographic Data Centre
#                                CCDC 
#
#######################################################################
#
# If this CIF has been generated from an entry in the Cambridge 
# Structural Database, then it will include bibliographic, chemical, 
# crystal, experimental, refinement or atomic coordinate data resulting 
# from the CCDC's data processing and validation procedures.
#
#######################################################################

data_BEDDUL
_chemical_formula_moiety         'C22 H26 Br1 N1 O2'
_chemical_name_systematic        
'(3-t-Butyl-1-(1-phenylethyl)aziridin-2-yl)methyl 4-bromobenzoate'
_symmetry_cell_setting           monoclinic
_symmetry_space_group_name_H-M   'P 21'
_symmetry_Int_Tables_number      4
_space_group_name_Hall           'P 2yb'
loop_
_symmetry_equiv_pos_site_id
_symmetry_equiv_pos_as_xyz
1 x,y,z
2 -x,1/2+y,-z
_cell_length_a                   7.84100(10)
_cell_length_b                   5.96740(10)
_cell_length_c                   21.8095(5)
_cell_angle_alpha                90
_cell_angle_beta                 94.774(2)
_cell_angle_gamma                90
_cell_volume                     1016.93
_exptl_crystal_colour            colorless
_exptl_crystal_description       block
_cell_formula_units_Z            2
loop_
_atom_site_label
_atom_site_type_symbol
_atom_site_fract_x
_atom_site_fract_y
_atom_site_fract_z
Br1 Br 1.38036(4) 0.24927(7) 0.527555(18)
O1 O 0.7962(3) 0.9141(4) 0.65361(13)
O2 O 0.6325(3) 0.6087(5) 0.63553(14)
N1 N 0.7086(4) 1.0491(5) 0.79291(14)
C1 C 0.6268(4) 1.2662(8) 0.78104(14)
H1 H 0.6932 1.3906 0.8025
C2 C 0.7248(4) 1.1568(6) 0.73315(16)
H2 H 0.8398 1.2251 0.7290
C3 C 0.6532(4) 1.0341(7) 0.67668(18)
H3 H 0.5629 0.9279 0.6870
H4 H 0.6033 1.1409 0.6454
C4 C 0.4330(4) 1.2967(6) 0.78366(17)
C5 C 0.3927(4) 1.2448(11) 0.84951(16)
H5 H 0.2726 1.2809 0.8544
H6 H 0.4668 1.3349 0.8783
H7 H 0.4128 1.0853 0.8581
C6 C 0.3223(4) 1.1508(6) 0.73894(19)
H8 H 0.3479 0.9925 0.7474
H9 H 0.3467 1.1863 0.6967
H10 H 0.2013 1.1797 0.7440
C7 C 0.3932(5) 1.5431(7) 0.7691(2)
H11 H 0.4208 1.5767 0.7271
H12 H 0.4620 1.6387 0.7982
H13 H 0.2714 1.5718 0.7728
C8 C 0.8664(4) 1.0534(6) 0.83488(18)
H14 H 0.9350 1.1877 0.8247
C9 C 0.9701(5) 0.8438(7) 0.8230(2)
H15 H 0.9051 0.7104 0.8330
H16 H 1.0786 0.8475 0.8487
H17 H 0.9932 0.8388 0.7795
C10 C 0.8218(4) 1.0743(6) 0.90062(18)
C11 C 0.8699(4) 1.2642(9) 0.93481(16)
H18 H 0.9330 1.3791 0.9167
C12 C 0.8271(5) 1.2883(7) 0.99466(19)
H19 H 0.8612 1.4191 1.0173
C13 C 0.7352(5) 1.1234(7) 1.0217(2)
H20 H 0.7050 1.1404 1.0628
C14 C 0.6876(5) 0.9329(7) 0.98831(19)
H21 H 0.6259 0.8177 1.0068
C15 C 0.7289(5) 0.9085(7) 0.92820(19)
H22 H 0.6937 0.7780 0.9056
C16 C 0.7670(4) 0.7027(6) 0.63494(16)
C17 C 0.9216(4) 0.5987(6) 0.61026(16)
C18 C 1.0820(4) 0.6993(6) 0.61637(16)
H23 H 1.0971 0.8384 0.6373
C19 C 1.2205(4) 0.5970(6) 0.59185(17)
H24 H 1.3305 0.6650 0.5952
C20 C 1.1935(4) 0.3948(6) 0.56264(17)
C21 C 1.0367(4) 0.2906(6) 0.55629(16)
H25 H 1.0227 0.1506 0.5357
C22 C 0.8998(5) 0.3950(6) 0.58060(17)
H26 H 0.7902 0.3260 0.5769
loop_
_geom_bond_atom_site_label_1
_geom_bond_atom_site_label_2
_geom_bond_site_symmetry_1
_geom_bond_site_symmetry_2
Br1 C20 1_555 1_555
O1 C3 1_555 1_555
O2 C16 1_555 1_555
N1 C1 1_555 1_555
C1 H1 1_555 1_555
C2 N1 1_555 1_555
H2 C2 1_555 1_555
C3 C2 1_555 1_555
H3 C3 1_555 1_555
H4 C3 1_555 1_555
C4 C1 1_555 1_555
C5 C4 1_555 1_555
H5 C5 1_555 1_555
H6 C5 1_555 1_555
H7 C5 1_555 1_555
C6 C4 1_555 1_555
H8 C6 1_555 1_555
H9 C6 1_555 1_555
H10 C6 1_555 1_555
C7 C4 1_555 1_555
H11 C7 1_555 1_555
H12 C7 1_555 1_555
H13 C7 1_555 1_555
C8 N1 1_555 1_555
H14 C8 1_555 1_555
C9 C8 1_555 1_555
H15 C9 1_555 1_555
H16 C9 1_555 1_555
H17 C9 1_555 1_555
C10 C8 1_555 1_555
C11 C10 1_555 1_555
H18 C11 1_555 1_555
C12 C11 1_555 1_555
H19 C12 1_555 1_555
C13 C12 1_555 1_555
H20 C13 1_555 1_555
C14 C13 1_555 1_555
H21 C14 1_555 1_555
C15 C10 1_555 1_555
H22 C15 1_555 1_555
C16 O1 1_555 1_555
C17 C16 1_555 1_555
C18 C17 1_555 1_555
H23 C18 1_555 1_555
C19 C18 1_555 1_555
H24 C19 1_555 1_555
C20 C19 1_555 1_555
C21 C20 1_555 1_555
H25 C21 1_555 1_555
C22 C17 1_555 1_555
H26 C22 1_555 1_555
C1 C2 1_555 1_555
C14 C15 1_555 1_555
C21 C22 1_555 1_555

#END
