
#######################################################################
#
#                 Cambridge Crystallographic Data Centre
#                                CCDC 
#
#######################################################################
#
# If this CIF has been generated from an entry in the Cambridge 
# Structural Database, then it will include bibliographic, chemical, 
# crystal, experimental, refinement or atomic coordinate data resulting 
# from the CCDC's data processing and validation procedures.
#
#######################################################################

data_BEDLIH
_chemical_formula_moiety         'C26 H23 O5 P1'
_chemical_name_systematic        
'Dimethyl 1-benzyl-3-methyl-7-phenyl-1H-phosphindole-5,6-dicarboxylate 1-oxide'
_symmetry_cell_setting           triclinic
_symmetry_space_group_name_H-M   'P -1'
_symmetry_Int_Tables_number      2
_space_group_name_Hall           '-P 1'
loop_
_symmetry_equiv_pos_site_id
_symmetry_equiv_pos_as_xyz
1 x,y,z
2 -x,-y,-z
_cell_length_a                   10.330(2)
_cell_length_b                   12.617(3)
_cell_length_c                   18.692(4)
_cell_angle_alpha                103.22(3)
_cell_angle_beta                 90.92(3)
_cell_angle_gamma                102.56(3)
_cell_volume                     2309.32
_exptl_crystal_colour            colorless
_exptl_crystal_description       prism
_cell_formula_units_Z            4
loop_
_atom_site_label
_atom_site_type_symbol
_atom_site_fract_x
_atom_site_fract_y
_atom_site_fract_z
P1 P 0.57849(9) 0.29390(9) 0.13713(6)
O1 O -0.0193(2) 0.3879(2) 0.25661(14)
O2 O 0.0914(2) 0.3684(2) 0.35481(14)
O3 O 0.0489(2) 0.3423(2) 0.08035(13)
O4 O -0.0454(2) 0.2005(2) 0.12950(14)
O5 O 0.6354(2) 0.3639(2) 0.08658(14)
C1 C 0.4139(3) 0.3040(3) 0.16757(19)
C2 C 0.4268(3) 0.3454(3) 0.2441(2)
C3 C 0.2910(3) 0.2785(3) 0.12817(19)
C4 C 0.1804(3) 0.3009(3) 0.16789(18)
C5 C 0.1937(3) 0.3436(3) 0.24365(19)
C6 C 0.3174(3) 0.3656(3) 0.28209(19)
H1 H 0.3262 0.3936 0.3329
C7 C 0.2753(3) 0.2253(3) 0.04814(19)
C8 C 0.1840(3) 0.1251(3) 0.0204(2)
H2 H 0.1307 0.0916 0.0524
C9 C 0.1708(4) 0.0742(4) -0.0533(3)
H3 H 0.1099 0.0064 -0.0706
C10 C 0.2474(4) 0.1234(4) -0.1016(3)
H4 H 0.2363 0.0902 -0.1518
C11 C 0.3393(4) 0.2207(4) -0.0757(2)
H5 H 0.3933 0.2525 -0.1081
C12 C 0.3533(3) 0.2729(3) -0.0012(2)
H6 H 0.4153 0.3402 0.0158
C13 C -0.0660(4) 0.3158(4) 0.0286(2)
H7 H -0.0789 0.2399 0.0007
H8 H -0.0519 0.3651 -0.0041
H9 H -0.1433 0.3248 0.0550
C14 C 0.0473(3) 0.2751(3) 0.12580(19)
C15 C 0.0761(3) 0.3688(3) 0.2845(2)
C16 C -0.0187(4) 0.3869(3) 0.3993(2)
H10 H -0.0310 0.4609 0.4019
H11 H 0.0001 0.3790 0.4480
H12 H -0.0981 0.3330 0.3775
C17 C 0.5642(3) 0.3650(3) 0.2784(2)
C18 C 0.5934(4) 0.4094(4) 0.3595(2)
H13 H 0.6878 0.4324 0.3704
H14 H 0.5569 0.3522 0.3844
H15 H 0.5541 0.4724 0.3758
C19 C 0.6509(3) 0.3387(3) 0.2287(2)
H16 H 0.7400 0.3435 0.2410
C20 C 0.5789(4) 0.1491(3) 0.1009(2)
H17 H 0.5387 0.1274 0.0509
H18 H 0.6708 0.1432 0.0979
C21 C 0.3887(5) -0.0061(4) 0.1139(3)
H19 H 0.3492 -0.0002 0.0703
C22 C 0.5099(4) 0.0649(4) 0.1414(2)
C23 C 0.3251(6) -0.0852(4) 0.1494(4)
H20 H 0.2436 -0.1317 0.1297
C24 C 0.3808(7) -0.0953(5) 0.2128(4)
H21 H 0.3375 -0.1485 0.2368
C25 C 0.4994(7) -0.0282(5) 0.2412(3)
H22 H 0.5381 -0.0359 0.2845
C26 C 0.5643(5) 0.0528(4) 0.2059(3)
H23 H 0.6455 0.0992 0.2262
P2 P 0.06791(9) 0.28545(9) 0.62700(6)
O6 O 0.7142(2) 0.4004(2) 0.76860(14)
O7 O 0.5886(2) 0.3982(2) 0.86486(14)
O8 O 0.6274(2) 0.3676(2) 0.59430(14)
O9 O 0.6512(2) 0.2181(2) 0.63536(15)
O10 O 0.0510(2) 0.3506(2) 0.57201(15)
C27 C 0.0193(4) 0.0623(3) 0.6399(2)
C28 C 0.1097(5) -0.0028(4) 0.6192(3)
H24 H 0.1539 0.0016 0.5766
C29 C 0.1362(5) -0.0745(4) 0.6606(4)
H25 H 0.1986 -0.1170 0.6461
C30 C 0.0707(7) -0.0832(5) 0.7228(4)
H26 H 0.0874 -0.1320 0.7504
C31 C -0.0189(6) -0.0197(5) 0.7437(3)
H27 H -0.0635 -0.0253 0.7860
C32 C -0.0450(4) 0.0531(4) 0.7031(3)
H28 H -0.1063 0.0962 0.7186
C33 C -0.0074(4) 0.1393(3) 0.5932(2)
H29 H -0.1028 0.1310 0.5874
H30 H 0.0229 0.1145 0.5447
C34 C 0.3835(3) 0.1233(3) 0.5280(2)
H31 H 0.4179 0.0932 0.5630
C35 C 0.3745(4) 0.0691(4) 0.4546(3)
H32 H 0.4045 0.0035 0.4407
C36 C 0.3220(4) 0.1103(4) 0.4017(3)
H33 H 0.3162 0.0731 0.3522
C37 C 0.2785(4) 0.2071(4) 0.4229(2)
H34 H 0.2415 0.2350 0.3875
C38 C 0.2886(3) 0.2640(3) 0.4961(2)
H35 H 0.2600 0.3303 0.5094
C39 C 0.3415(3) 0.2225(3) 0.5501(2)
C40 C 0.0142(4) 0.3334(3) 0.7159(2)
H36 H -0.0733 0.3369 0.7247
C41 C 0.1117(3) 0.3638(3) 0.7684(2)
C42 C 0.2422(3) 0.3480(3) 0.7402(2)
C43 C 0.2366(3) 0.3015(3) 0.6646(2)
C44 C 0.1009(4) 0.4084(4) 0.8484(2)
H37 H 0.0144 0.4234 0.8562
H38 H 0.1675 0.4764 0.8658
H39 H 0.1140 0.3544 0.8750
C45 C 0.3611(3) 0.3747(3) 0.7821(2)
H40 H 0.3644 0.4052 0.8325
C46 C 0.3497(3) 0.2796(3) 0.62941(19)
C47 C 0.4716(3) 0.3089(3) 0.67336(19)
C48 C 0.4766(3) 0.3558(3) 0.74859(19)
C49 C 0.5951(3) 0.2914(3) 0.6337(2)
C50 C 0.7356(4) 0.3552(4) 0.5467(2)
H41 H 0.8161 0.3648 0.5762
H42 H 0.7470 0.4106 0.5182
H43 H 0.7151 0.2820 0.5142
C51 C 0.6070(3) 0.3878(3) 0.7936(2)
C52 C 0.7056(4) 0.4212(4) 0.9139(2)
H44 H 0.7565 0.3661 0.8973
H45 H 0.6797 0.4188 0.9627
H46 H 0.7586 0.4941 0.9145
loop_
_geom_bond_atom_site_label_1
_geom_bond_atom_site_label_2
_geom_bond_site_symmetry_1
_geom_bond_site_symmetry_2
P1 O5 1_555 1_555
P2 O10 1_555 1_555
O1 C15 1_555 1_555
O2 C15 1_555 1_555
O3 C13 1_555 1_555
O4 C14 1_555 1_555
O6 C51 1_555 1_555
O7 C51 1_555 1_555
O8 C49 1_555 1_555
O9 C49 1_555 1_555
C1 P1 1_555 1_555
C2 C1 1_555 1_555
C3 C1 1_555 1_555
C4 C3 1_555 1_555
C5 C4 1_555 1_555
C6 C2 1_555 1_555
H1 C6 1_555 1_555
C7 C3 1_555 1_555
C8 C7 1_555 1_555
H2 C8 1_555 1_555
C9 C8 1_555 1_555
H3 C9 1_555 1_555
C10 C9 1_555 1_555
H4 C10 1_555 1_555
C11 C10 1_555 1_555
H5 C11 1_555 1_555
C12 C7 1_555 1_555
H6 C12 1_555 1_555
C13 H7 1_555 1_555
H8 C13 1_555 1_555
H9 C13 1_555 1_555
C14 O3 1_555 1_555
C15 C5 1_555 1_555
C16 O2 1_555 1_555
H10 C16 1_555 1_555
H11 C16 1_555 1_555
H12 C16 1_555 1_555
C17 C2 1_555 1_555
C18 C17 1_555 1_555
H13 C18 1_555 1_555
H14 C18 1_555 1_555
H15 C18 1_555 1_555
C19 P1 1_555 1_555
H16 C19 1_555 1_555
C20 P1 1_555 1_555
H17 C20 1_555 1_555
H18 C20 1_555 1_555
C21 H19 1_555 1_555
C22 C20 1_555 1_555
C23 C21 1_555 1_555
H20 C23 1_555 1_555
C24 C23 1_555 1_555
H21 C24 1_555 1_555
C25 C24 1_555 1_555
H22 C25 1_555 1_555
C26 C22 1_555 1_555
H23 C26 1_555 1_555
C27 C28 1_555 1_555
C28 H24 1_555 1_555
C29 C28 1_555 1_555
H25 C29 1_555 1_555
C30 C29 1_555 1_555
H26 C30 1_555 1_555
C31 C30 1_555 1_555
H27 C31 1_555 1_555
C32 C27 1_555 1_555
H28 C32 1_555 1_555
C33 P2 1_555 1_555
H29 C33 1_555 1_555
H30 C33 1_555 1_555
C34 H31 1_555 1_555
C35 C34 1_555 1_555
H32 C35 1_555 1_555
C36 C35 1_555 1_555
H33 C36 1_555 1_555
C37 C36 1_555 1_555
H34 C37 1_555 1_555
C38 C37 1_555 1_555
H35 C38 1_555 1_555
C39 C34 1_555 1_555
C40 P2 1_555 1_555
H36 C40 1_555 1_555
C41 C40 1_555 1_555
C42 C41 1_555 1_555
C43 P2 1_555 1_555
C44 C41 1_555 1_555
H37 C44 1_555 1_555
H38 C44 1_555 1_555
H39 C44 1_555 1_555
C45 C42 1_555 1_555
H40 C45 1_555 1_555
C46 C39 1_555 1_555
C47 C46 1_555 1_555
C48 C45 1_555 1_555
C49 C47 1_555 1_555
C50 O8 1_555 1_555
H41 C50 1_555 1_555
H42 C50 1_555 1_555
H43 C50 1_555 1_555
C51 C48 1_555 1_555
C52 O7 1_555 1_555
H44 C52 1_555 1_555
H45 C52 1_555 1_555
H46 C52 1_555 1_555
C4 C14 1_555 1_555
C5 C6 1_555 1_555
C11 C12 1_555 1_555
C17 C19 1_555 1_555
C21 C22 1_555 1_555
C25 C26 1_555 1_555
C27 C33 1_555 1_555
C31 C32 1_555 1_555
C38 C39 1_555 1_555
C42 C43 1_555 1_555
C43 C46 1_555 1_555
C47 C48 1_555 1_555

#END
