
#######################################################################
#
#                 Cambridge Crystallographic Data Centre
#                                CCDC 
#
#######################################################################
#
# If this CIF has been generated from an entry in the Cambridge 
# Structural Database, then it will include bibliographic, chemical, 
# crystal, experimental, refinement or atomic coordinate data resulting 
# from the CCDC's data processing and validation procedures.
#
#######################################################################

data_BEDRIO02
_chemical_formula_moiety         'C25 H17 N1 O2'
_chemical_name_systematic        3-(diphenylamino)-9H-xanthen-9-one
_symmetry_cell_setting           monoclinic
_symmetry_space_group_name_H-M   'P 21/c'
_symmetry_Int_Tables_number      14
_space_group_name_Hall           '-P 2ybc'
loop_
_symmetry_equiv_pos_site_id
_symmetry_equiv_pos_as_xyz
1 x,y,z
2 -x,1/2+y,1/2-z
3 -x,-y,-z
4 x,1/2-y,1/2+z
_cell_length_a                   12.527(3)
_cell_length_b                   13.393(3)
_cell_length_c                   12.388(3)
_cell_angle_alpha                90
_cell_angle_beta                 116.73(3)
_cell_angle_gamma                90
_cell_volume                     1856.28
_exptl_crystal_colour            green
_exptl_crystal_description       block
_cell_formula_units_Z            4
loop_
_atom_site_label
_atom_site_type_symbol
_atom_site_fract_x
_atom_site_fract_y
_atom_site_fract_z
O1 O 0.45630(14) 0.21014(12) 0.45547(14)
O2 O 0.21979(15) -0.01288(13) 0.42552(15)
C1 C 0.48064(19) 0.14640(17) 0.55058(19)
C2 C 0.2717(2) 0.12195(17) 0.3352(2)
N1 N 0.72143(17) 0.12345(15) 0.86158(17)
C3 C 0.6185(2) 0.10479(18) 0.7542(2)
C4 C 0.2926(2) 0.05258(18) 0.4339(2)
C5 C 0.40460(19) 0.06749(17) 0.54239(19)
C6 C 0.5846(2) 0.16675(18) 0.6544(2)
H1 H 0.6314 0.2215 0.6572
C7 C 0.3545(2) 0.19524(18) 0.3488(2)
C8 C 0.5466(2) 0.02070(18) 0.7454(2)
H2 H 0.5704 -0.0238 0.8097
C9 C 0.4428(2) 0.00436(17) 0.6434(2)
H3 H 0.3958 -0.0503 0.6407
C10 C 0.8061(2) 0.19864(18) 0.8675(2)
C11 C 0.1705(2) 0.11460(18) 0.2233(2)
H4 H 0.1135 0.0659 0.2120
C12 C 0.1538(2) 0.1776(2) 0.1303(2)
H5 H 0.0854 0.1724 0.0569
C13 C 0.3392(2) 0.2590(2) 0.2543(2)
H6 H 0.3960 0.3076 0.2645
C14 C 0.7379(2) 0.07962(18) 0.9731(2)
C15 C 0.8315(2) 0.27759(19) 0.9467(2)
H7 H 0.7922 0.2834 0.9946
C16 C 0.9478(2) 0.2620(2) 0.8042(2)
H8 H 0.9859 0.2576 0.7550
C17 C 0.8647(2) 0.18987(18) 0.7964(2)
H9 H 0.8487 0.1362 0.7437
C18 C 0.9737(2) 0.3401(2) 0.8845(2)
H10 H 1.0307 0.3873 0.8910
C19 C 0.2392(3) 0.2491(2) 0.1458(2)
H11 H 0.2285 0.2910 0.0819
C20 C 0.6520(2) 0.0902(2) 1.0131(2)
H12 H 0.5828 0.1265 0.9679
C21 C 0.8408(2) 0.0268(2) 1.0421(2)
H13 H 0.8996 0.0204 1.0163
C22 C 0.8563(3) -0.0163(2) 1.1487(3)
H14 H 0.9256 -0.0521 1.1947
C23 C 0.9153(2) 0.3482(2) 0.9549(2)
H15 H 0.9322 0.4013 1.0084
C24 C 0.7702(3) -0.0068(2) 1.1879(3)
H16 H 0.7808 -0.0365 1.2599
C25 C 0.6692(3) 0.0465(3) 1.1203(3)
H17 H 0.6111 0.0534 1.1470
loop_
_geom_bond_atom_site_label_1
_geom_bond_atom_site_label_2
_geom_bond_site_symmetry_1
_geom_bond_site_symmetry_2
O1 C1 1_555 1_555
O2 C4 1_555 1_555
C1 C5 1_555 1_555
C2 C4 1_555 1_555
N1 C3 1_555 1_555
C3 C6 1_555 1_555
C4 C5 1_555 1_555
C5 C9 1_555 1_555
C6 C1 1_555 1_555
H1 C6 1_555 1_555
C7 O1 1_555 1_555
C8 C3 1_555 1_555
H2 C8 1_555 1_555
C9 C8 1_555 1_555
H3 C9 1_555 1_555
C10 N1 1_555 1_555
C11 C2 1_555 1_555
H4 C11 1_555 1_555
C12 C11 1_555 1_555
H5 C12 1_555 1_555
C13 C7 1_555 1_555
H6 C13 1_555 1_555
C14 N1 1_555 1_555
C15 C10 1_555 1_555
H7 C15 1_555 1_555
C16 H8 1_555 1_555
C17 C10 1_555 1_555
H9 C17 1_555 1_555
C18 C16 1_555 1_555
H10 C18 1_555 1_555
C19 C12 1_555 1_555
H11 C19 1_555 1_555
C20 C14 1_555 1_555
H12 C20 1_555 1_555
C21 C14 1_555 1_555
H13 C21 1_555 1_555
C22 C21 1_555 1_555
H14 C22 1_555 1_555
C23 C15 1_555 1_555
H15 C23 1_555 1_555
C24 C22 1_555 1_555
H16 C24 1_555 1_555
C25 C20 1_555 1_555
H17 C25 1_555 1_555
C2 C7 1_555 1_555
C13 C19 1_555 1_555
C16 C17 1_555 1_555
C18 C23 1_555 1_555
C24 C25 1_555 1_555

#END
