
#######################################################################
#
#                 Cambridge Crystallographic Data Centre
#                                CCDC 
#
#######################################################################
#
# If this CIF has been generated from an entry in the Cambridge 
# Structural Database, then it will include bibliographic, chemical, 
# crystal, experimental, refinement or atomic coordinate data resulting 
# from the CCDC's data processing and validation procedures.
#
#######################################################################

data_BEDVUE
_chemical_formula_moiety         'C28 H30 Cl2 N2 S2'
_chemical_name_systematic        
9,10-dichloro-2,5-dihexylbisthieno[3,2-a:2',3'-c]phenazine
_symmetry_cell_setting           triclinic
_symmetry_space_group_name_H-M   'P -1'
_symmetry_Int_Tables_number      2
_space_group_name_Hall           '-P 1'
loop_
_symmetry_equiv_pos_site_id
_symmetry_equiv_pos_as_xyz
1 x,y,z
2 -x,-y,-z
_cell_length_a                   5.0200(10)
_cell_length_b                   22.600(4)
_cell_length_c                   25.700(5)
_cell_angle_alpha                76.70(3)
_cell_angle_beta                 89.10(3)
_cell_angle_gamma                87.30(3)
_cell_volume                     2834.33
_exptl_crystal_colour            yellow
_exptl_crystal_description       needle-like
_cell_formula_units_Z            4
loop_
_atom_site_label
_atom_site_type_symbol
_atom_site_fract_x
_atom_site_fract_y
_atom_site_fract_z
C1 C 0.8927(6) 0.38350(13) 0.07972(13)
C2 C 0.7191(7) 0.36992(14) 0.12686(12)
C3 C 0.5511(7) 0.32143(14) 0.13522(13)
H1 H 0.4436 0.3135 0.1656
C4 C 0.5409(6) 0.28259(13) 0.09679(12)
C5 C 0.7182(6) 0.29664(13) 0.04953(12)
C6 C 0.8903(6) 0.34733(14) 0.04264(13)
H2 H 1.0016 0.3560 0.0128
C7 C 0.5506(6) 0.21482(13) 0.01986(12)
C8 C 0.3724(6) 0.20116(13) 0.06781(12)
C9 C 0.1974(6) 0.14856(13) 0.07491(11)
C10 C 0.2087(6) 0.11131(13) 0.03693(12)
C11 C 0.3837(6) 0.12503(13) -0.01013(12)
C12 C 0.5467(6) 0.17539(13) -0.01909(12)
C13 C 0.7063(6) 0.18133(14) -0.06842(12)
H3 H 0.8234 0.2123 -0.0805
C14 C 0.6618(6) 0.13491(13) -0.09522(12)
C15 C 0.7891(7) 0.12368(16) -0.14728(13)
H4 H 0.6492 0.1145 -0.1694
H5 H 0.9098 0.0881 -0.1383
C16 C 0.9461(7) 0.17762(15) -0.18091(13)
H6 H 1.0927 0.1859 -0.1599
H7 H 0.8289 0.2139 -0.1894
C17 C 1.0582(9) 0.16321(17) -0.23395(15)
H8 H 1.1535 0.1239 -0.2255
H9 H 0.9094 0.1601 -0.2567
C18 C 1.248(2) 0.2111(4) -0.2657(3)
H10 H 1.4323 0.1989 -0.2567
H11 H 1.2087 0.2506 -0.2578
C19 C 1.1881(18) 0.2142(4) -0.3347(3)
H12 H 1.0028 0.2080 -0.3412
H13 H 1.2408 0.2523 -0.3575
C20 C 1.370(3) 0.1608(5) -0.3420(4)
H14 H 1.3581 0.1564 -0.3782
H15 H 1.3160 0.1242 -0.3180
H16 H 1.5508 0.1681 -0.3346
C21 C 0.0064(6) 0.12613(13) 0.11849(12)
H17 H -0.0272 0.1449 0.1467
C22 C -0.1187(6) 0.07389(14) 0.11328(12)
C23 C -0.3230(6) 0.03474(14) 0.14999(13)
H18 H -0.2477 -0.0065 0.1613
H19 H -0.4818 0.0333 0.1294
C24 C -0.4064(6) 0.05837(15) 0.20114(13)
H20 H -0.2484 0.0623 0.2211
H21 H -0.4962 0.0982 0.1905
C25 C -0.5969(7) 0.01304(16) 0.23748(14)
H22 H -0.5058 -0.0267 0.2476
H23 H -0.7528 0.0090 0.2169
C26 C -0.6900(8) 0.0333(2) 0.28933(15)
H24 H -0.7838 0.0727 0.2794
H25 H -0.5345 0.0377 0.3098
C27 C -0.8767(9) -0.0130(3) 0.32524(18)
H26 H -1.0293 -0.0186 0.3045
H27 H -0.7808 -0.0520 0.3365
C28 C -0.9768(13) 0.0093(4) 0.3759(2)
H28 H -0.8262 0.0166 0.3958
H29 H -1.0817 -0.0212 0.3980
H30 H -1.0837 0.0464 0.3649
Cl1 Cl 1.10522(19) 0.44598(4) 0.06899(4)
Cl2 Cl 0.7217(2) 0.41749(4) 0.17356(4)
N1 N 0.7190(5) 0.26212(11) 0.01147(10)
N2 N 0.3710(5) 0.23522(11) 0.10528(10)
S1 S 0.42600(16) 0.08331(3) -0.06036(3)
S2 S -0.00698(15) 0.04976(3) 0.05459(3)
C29 C 0.4687(6) 0.59075(14) 0.12234(12)
C30 C 0.6009(6) 0.64140(13) 0.13609(13)
C31 C 0.5496(7) 0.65649(14) 0.18510(14)
H31 H 0.6345 0.6887 0.1936
C32 C 0.3634(6) 0.62186(14) 0.22301(13)
C33 C 0.2241(6) 0.57276(13) 0.20815(12)
C34 C 0.2838(6) 0.55787(14) 0.15692(12)
H32 H 0.1984 0.5264 0.1473
C35 C -0.0001(6) 0.55364(13) 0.29109(12)
C36 C 0.1508(7) 0.60146(14) 0.30666(13)
C37 C 0.1144(7) 0.61084(15) 0.36201(13)
C38 C -0.0639(7) 0.57495(15) 0.39793(13)
C39 C -0.2183(7) 0.52900(15) 0.38173(13)
C40 C -0.1927(6) 0.51867(14) 0.32909(12)
C41 C -0.3620(6) 0.47077(14) 0.32079(13)
H33 H -0.3700 0.4588 0.2886
C42 C -0.5105(6) 0.44473(15) 0.36605(13)
C43 C -0.7027(7) 0.39285(16) 0.37493(14)
H34 H -0.8744 0.4074 0.3861
H35 H -0.6357 0.3601 0.4038
C44 C -0.7437(7) 0.36674(16) 0.32406(15)
H36 H -0.8325 0.3977 0.2966
H37 H -0.5710 0.3566 0.3102
C45 C -0.9135(9) 0.30873(18) 0.33702(17)
H38 H -0.8248 0.2782 0.3649
H39 H -1.0856 0.3193 0.3509
C46 C -0.9579(11) 0.28108(19) 0.28864(19)
H40 H -0.7862 0.2729 0.2732
H41 H -1.0578 0.3105 0.2617
C47 C -1.1119(13) 0.2206(2) 0.3034(2)
H42 H -1.0088 0.1909 0.3296
H43 H -1.2806 0.2286 0.3200
C48 C -1.1665(19) 0.1933(3) 0.2558(3)
H44 H -1.2976 0.2186 0.2331
H45 H -1.2319 0.1532 0.2683
H46 H -1.0045 0.1909 0.2359
C49 C 0.2588(8) 0.65167(16) 0.38681(15)
H47 H 0.3834 0.6782 0.3686
C50 C 0.1908(8) 0.64699(18) 0.44113(16)
C51 C 0.2993(10) 0.6837(2) 0.47917(19)
H48 H 0.2485 0.6638 0.5153
H49 H 0.4924 0.6809 0.4773
C52 C 0.220(3) 0.7446(4) 0.4709(4)
H50 H 0.0412 0.7503 0.4565
H51 H 0.3374 0.7682 0.4445
C53 C 0.352(4) 0.8831(7) 0.5396(7)
H52 H 0.1657 0.8868 0.5496
H53 H 0.4480 0.8647 0.5722
C54 C 0.434(5) 0.9390(8) 0.5236(9)
H54 H 0.3988 0.9609 0.5510
H55 H 0.3412 0.9593 0.4916
H56 H 0.6223 0.9376 0.5164
C55 C 0.332(3) 0.7775(5) 0.5125(5)
H57 H 0.3688 0.7671 0.5505
H58 H 0.4978 0.7729 0.4938
C56 C 0.233(3) 0.8434(6) 0.4968(6)
H59 H 0.0492 0.8493 0.5076
H60 H 0.2535 0.8608 0.4588
Cl3 Cl 0.54521(19) 0.57123(4) 0.06041(3)
Cl4 Cl 0.83339(16) 0.68329(4) 0.09075(3)
N3 N 0.0377(5) 0.53947(11) 0.24187(10)
N4 N 0.3248(6) 0.63581(12) 0.27269(11)
S3 S -0.44707(17) 0.47978(4) 0.42075(3)
S4 S -0.0534(2) 0.59147(5) 0.46211(4)
H61? H 0.9263 0.1419 -0.2489
H62? H 1.2163 0.1364 -0.2260
C57? C 1.132(2) 0.2232(4) -0.2775(4)
H63? H 1.1994 0.2541 -0.2611
H64? H 0.9816 0.2403 -0.3001
C58? C 1.394(2) 0.1904(5) -0.3143(4)
H65? H 1.5313 0.2186 -0.3285
H66? H 1.4723 0.1522 -0.2940
C59? C 1.196(3) 0.1823(8) -0.3573(5)
H67? H 1.2887 0.1646 -0.3833
H68? H 1.1166 0.2212 -0.3746
H69? H 1.0585 0.1560 -0.3407
H70? H 0.3743 0.6551 0.5101
H71? H 0.4439 0.7073 0.4611
C60? C 0.225(3) 0.7728(5) 0.5294(4)
H72? H 0.0487 0.7827 0.5420
H73? H 0.3285 0.7471 0.5582
C61? C 0.374(3) 0.8297(6) 0.4985(5)
H74? H 0.2903 0.8467 0.4642
H75? H 0.5590 0.8187 0.4924
C62? C 0.106(2) 0.7257(5) 0.4984(4)
H76? H 0.0106 0.7053 0.5302
H77? H -0.0211 0.7451 0.4709
C63? C 0.471(3) 0.8723(7) 0.5374(7)
H78? H 0.3795 0.8916 0.5631
H79? H 0.5915 0.8399 0.5562
C64? C 0.599(4) 0.9123(9) 0.5012(9)
H80? H 0.7264 0.9316 0.5186
H81? H 0.4742 0.9425 0.4818
H82? H 0.6909 0.8919 0.4768
loop_
_geom_bond_atom_site_label_1
_geom_bond_atom_site_label_2
_geom_bond_site_symmetry_1
_geom_bond_site_symmetry_2
C1 C2 1_555 1_555
C2 C3 1_555 1_555
C3 H1 1_555 1_555
C4 C3 1_555 1_555
C5 C4 1_555 1_555
C6 C1 1_555 1_555
H2 C6 1_555 1_555
C7 C8 1_555 1_555
C8 C9 1_555 1_555
C9 C10 1_555 1_555
C10 C11 1_555 1_555
C11 C12 1_555 1_555
C12 C7 1_555 1_555
C13 C12 1_555 1_555
H3 C13 1_555 1_555
C14 C13 1_555 1_555
C15 C14 1_555 1_555
H4 C15 1_555 1_555
H5 C15 1_555 1_555
C16 C15 1_555 1_555
H6 C16 1_555 1_555
H7 C16 1_555 1_555
C17 C16 1_555 1_555
H8 C17 1_555 1_555
H9 C17 1_555 1_555
C18 C17 1_555 1_555
H10 C18 1_555 1_555
H11 C18 1_555 1_555
C19 C18 1_555 1_555
H12 C19 1_555 1_555
H13 C19 1_555 1_555
C20 C19 1_555 1_555
H14 C20 1_555 1_555
H15 C20 1_555 1_555
H16 C20 1_555 1_555
C21 C9 1_555 1_555
H17 C21 1_555 1_555
C22 C21 1_555 1_555
C23 C22 1_555 1_555
H18 C23 1_555 1_555
H19 C23 1_555 1_555
C24 C23 1_555 1_555
H20 C24 1_555 1_555
H21 C24 1_555 1_555
C25 C24 1_555 1_555
H22 C25 1_555 1_555
H23 C25 1_555 1_555
C26 C25 1_555 1_555
H24 C26 1_555 1_555
H25 C26 1_555 1_555
C27 C26 1_555 1_555
H26 C27 1_555 1_555
H27 C27 1_555 1_555
C28 C27 1_555 1_555
H28 C28 1_555 1_555
H29 C28 1_555 1_555
H30 C28 1_555 1_555
Cl1 C1 1_555 1_555
Cl2 C2 1_555 1_555
N1 C5 1_555 1_555
N2 C4 1_555 1_555
S1 C11 1_555 1_555
S2 C10 1_555 1_555
C29 C30 1_555 1_555
C30 C31 1_555 1_555
C31 H31 1_555 1_555
C32 C31 1_555 1_555
C33 C32 1_555 1_555
C34 C29 1_555 1_555
H32 C34 1_555 1_555
C35 C36 1_555 1_555
C36 C37 1_555 1_555
C37 C38 1_555 1_555
C38 C39 1_555 1_555
C39 C40 1_555 1_555
C40 C35 1_555 1_555
C41 C40 1_555 1_555
H33 C41 1_555 1_555
C42 C41 1_555 1_555
C43 C42 1_555 1_555
H34 C43 1_555 1_555
H35 C43 1_555 1_555
C44 C43 1_555 1_555
H36 C44 1_555 1_555
H37 C44 1_555 1_555
C45 C44 1_555 1_555
H38 C45 1_555 1_555
H39 C45 1_555 1_555
C46 C45 1_555 1_555
H40 C46 1_555 1_555
H41 C46 1_555 1_555
C47 C46 1_555 1_555
H42 C47 1_555 1_555
H43 C47 1_555 1_555
C48 C47 1_555 1_555
H44 C48 1_555 1_555
H45 C48 1_555 1_555
H46 C48 1_555 1_555
C49 C37 1_555 1_555
H47 C49 1_555 1_555
C50 C49 1_555 1_555
C51 C50 1_555 1_555
H48 C51 1_555 1_555
H49 C51 1_555 1_555
C52 C51 1_555 1_555
H50 C52 1_555 1_555
H51 C52 1_555 1_555
C53 H52 1_555 1_555
H53 C53 1_555 1_555
C54 C53 1_555 1_555
H54 C54 1_555 1_555
H55 C54 1_555 1_555
H56 C54 1_555 1_555
C55 C52 1_555 1_555
H57 C55 1_555 1_555
H58 C55 1_555 1_555
C56 C53 1_555 1_555
H59 C56 1_555 1_555
H60 C56 1_555 1_555
Cl3 C29 1_555 1_555
Cl4 C30 1_555 1_555
N3 C33 1_555 1_555
N4 C32 1_555 1_555
S3 C39 1_555 1_555
S4 C38 1_555 1_555
C5 C6 1_555 1_555
C7 N1 1_555 1_555
C8 N2 1_555 1_555
C14 S1 1_555 1_555
C22 S2 1_555 1_555
C33 C34 1_555 1_555
C35 N3 1_555 1_555
C36 N4 1_555 1_555
C42 S3 1_555 1_555
C50 S4 1_555 1_555
C55 C56 1_555 1_555

#END
