
#######################################################################
#
#                 Cambridge Crystallographic Data Centre
#                                CCDC 
#
#######################################################################
#
# If this CIF has been generated from an entry in the Cambridge 
# Structural Database, then it will include bibliographic, chemical, 
# crystal, experimental, refinement or atomic coordinate data resulting 
# from the CCDC's data processing and validation procedures.
#
#######################################################################

data_BEDVAK
_chemical_formula_moiety         'C28 H30 Br2 N2 S2'
_chemical_name_systematic        
9,10-dibromo-2,5-dihexylbisthieno[3,2-a:2',3'-c]phenazine
_symmetry_cell_setting           triclinic
_symmetry_space_group_name_H-M   'P -1'
_symmetry_Int_Tables_number      2
_space_group_name_Hall           '-P 1'
loop_
_symmetry_equiv_pos_site_id
_symmetry_equiv_pos_as_xyz
1 x,y,z
2 -x,-y,-z
_cell_length_a                   15.0835(17)
_cell_length_b                   18.666(2)
_cell_length_c                   19.454(2)
_cell_angle_alpha                91.299(2)
_cell_angle_beta                 100.911(2)
_cell_angle_gamma                102.116(2)
_cell_volume                     5247.31
_exptl_crystal_colour            red
_exptl_crystal_description       block
_cell_formula_units_Z            8
loop_
_atom_site_label
_atom_site_type_symbol
_atom_site_fract_x
_atom_site_fract_y
_atom_site_fract_z
Br1 Br -0.04106(7) 0.43464(4) 0.19805(5)
Br2 Br 0.07129(7) 0.51451(5) 0.35464(5)
C1 C 0.0108(5) 0.5364(4) 0.2077(4)
C2 C 0.0605(6) 0.5700(4) 0.2753(4)
C3 C 0.0996(6) 0.6427(4) 0.2825(4)
H1 H 0.1325 0.6640 0.3261
C4 C 0.0909(5) 0.6866(4) 0.2243(4)
C5 C 0.0410(6) 0.6548(4) 0.1576(4)
C6 C 0.0000(5) 0.5779(4) 0.1514(4)
H2 H -0.0344 0.5562 0.1084
C7 C 0.0696(6) 0.7650(5) 0.1089(4)
C8 C 0.1242(5) 0.7986(4) 0.1771(4)
C9 C 0.1673(6) 0.8747(4) 0.1838(4)
C10 C 0.1554(6) 0.9166(4) 0.1259(4)
C11 C 0.1006(6) 0.8843(4) 0.0606(4)
C12 C 0.0594(6) 0.8108(4) 0.0498(4)
C13 C 0.0122(5) 0.7906(4) -0.0214(4)
H3 H -0.0177 0.7428 -0.0380
C14 C 0.0163(6) 0.8494(4) -0.0620(4)
C15 C -0.0232(6) 0.8527(4) -0.1375(4)
H4 H 0.0258 0.8783 -0.1596
H5 H -0.0693 0.8824 -0.1409
C16 C -0.0674(6) 0.7812(4) -0.1796(4)
H6 H -0.1171 0.7547 -0.1587
H7 H -0.0218 0.7513 -0.1786
C17 C -0.1055(6) 0.7945(5) -0.2551(4)
H8 H -0.1478 0.8271 -0.2546
H9 H -0.0545 0.8203 -0.2750
C18 C -0.1553(6) 0.7280(5) -0.3034(5)
H10 H -0.1144 0.6943 -0.3039
H11 H -0.2088 0.7029 -0.2857
C19 C -0.1867(7) 0.7488(5) -0.3778(5)
H12 H -0.1325 0.7727 -0.3952
H13 H -0.2249 0.7844 -0.3762
C20 C -0.2400(7) 0.6861(6) -0.4290(6)
H14 H -0.2022 0.6513 -0.4325
H15 H -0.2572 0.7044 -0.4742
H16 H -0.2947 0.6626 -0.4130
C21 C 0.2263(6) 0.9181(4) 0.2434(4)
H17 H 0.2434 0.8987 0.2862
C22 C 0.2550(6) 0.9898(4) 0.2321(4)
C23 C 0.3113(6) 1.0519(4) 0.2812(4)
H18 H 0.2729 1.0865 0.2865
H19 H 0.3615 1.0769 0.2599
C24 C 0.3524(6) 1.0320(4) 0.3535(4)
H20 H 0.3956 1.0010 0.3496
H21 H 0.3036 1.0046 0.3747
C25 C 0.4018(6) 1.1001(4) 0.3995(4)
H22 H 0.3568 1.1286 0.4059
H23 H 0.4457 1.1295 0.3753
C26 C 0.4534(6) 1.0862(5) 0.4718(5)
H24 H 0.4097 1.0570 0.4964
H25 H 0.4987 1.0579 0.4657
C27 C 0.5027(6) 1.1564(5) 0.5170(5)
H26 H 0.5420 1.1877 0.4906
H27 H 0.5422 1.1436 0.5581
C28 C 0.4373(6) 1.1994(5) 0.5406(5)
H28 H 0.3941 1.2085 0.5005
H29 H 0.4723 1.2454 0.5639
H30 H 0.4042 1.1716 0.5723
N1 N 0.0301(5) 0.6940(3) 0.1003(3)
N2 N 0.1331(5) 0.7582(3) 0.2328(3)
S1 S 0.07882(16) 0.92968(12) -0.01496(11)
S2 S 0.21184(16) 1.00678(11) 0.14624(11)
Br3 Br 0.22542(6) 0.81656(4) 0.41349(4)
Br4 Br 0.20531(6) 0.65965(4) 0.49352(4)
C29 C 0.2616(5) 0.7491(4) 0.5450(4)
C30 C 0.2700(5) 0.8171(4) 0.5111(4)
C31 C 0.3122(5) 0.8817(4) 0.5482(4)
H31 H 0.3167 0.9253 0.5256
C32 C 0.3491(5) 0.8833(4) 0.6204(4)
C33 C 0.3395(5) 0.8168(4) 0.6551(4)
C34 C 0.2956(5) 0.7502(4) 0.6160(4)
H32 H 0.2896 0.7064 0.6384
C35 C 0.4344(5) 0.9460(4) 0.7220(4)
C36 C 0.4903(6) 1.0135(4) 0.7612(4)
C37 C 0.5317(5) 1.0113(4) 0.8304(4)
C38 C 0.5189(6) 0.9443(4) 0.8656(4)
C39 C 0.4661(5) 0.8796(4) 0.8314(4)
C40 C 0.4234(5) 0.8783(4) 0.7576(4)
C41 C 0.4629(5) 0.8184(4) 0.8751(4)
H33 H 0.4305 0.7707 0.8604
C42 C 0.5141(6) 0.8396(4) 0.9415(4)
C43 C 0.5280(6) 0.7954(4) 1.0053(4)
H34 H 0.5935 0.8061 1.0261
H35 H 0.4962 0.8121 1.0394
C44 C 0.4950(6) 0.7124(4) 0.9929(4)
H36 H 0.4299 0.7004 0.9708
H37 H 0.5293 0.6940 0.9616
C45 C 0.5088(6) 0.6764(4) 1.0615(4)
H38 H 0.4726 0.6943 1.0915
H39 H 0.5734 0.6917 1.0842
C46 C 0.4823(6) 0.5923(4) 1.0553(4)
H40 H 0.4196 0.5764 1.0287
H41 H 0.5231 0.5737 1.0300
C47 C 0.4885(7) 0.5604(4) 1.1269(5)
H42 H 0.5512 0.5771 1.1534
H43 H 0.4477 0.5794 1.1519
C48 C 0.4635(7) 0.4773(5) 1.1241(5)
H44 H 0.4051 0.4598 1.0927
H45 H 0.4592 0.4614 1.1702
H46 H 0.5104 0.4579 1.1076
C49 C 0.5125(6) 1.0855(4) 0.7369(4)
H47 H 0.4911 1.0971 0.6913
C50 C 0.5674(6) 1.1346(4) 0.7865(4)
C51 C 0.6102(6) 1.2152(4) 0.7858(4)
H48 H 0.5827 1.2424 0.8159
H49 H 0.6756 1.2228 0.8063
C52 C 0.6012(6) 1.2477(4) 0.7157(4)
H50 H 0.5364 1.2377 0.6930
H51 H 0.6338 1.2245 0.6864
C53 C 0.6403(7) 1.3308(4) 0.7225(5)
H52 H 0.6077 1.3533 0.7524
H53 H 0.7048 1.3401 0.7458
C54 C 0.6337(7) 1.3675(5) 0.6546(5)
H54 H 0.5701 1.3549 0.6292
H55 H 0.6714 1.3488 0.6263
C55 C 0.6649(7) 1.4501(5) 0.6646(6)
H56 H 0.7289 1.4626 0.6891
H57 H 0.6281 1.4687 0.6937
C56 C 0.6565(8) 1.4871(6) 0.5968(7)
H58 H 0.6990 1.4741 0.5703
H59 H 0.6706 1.5394 0.6065
H60 H 0.5945 1.4716 0.5704
N3 N 0.3969(4) 0.9486(3) 0.6556(3)
N4 N 0.3754(4) 0.8142(3) 0.7235(3)
S3 S 0.59445(16) 1.09532(11) 0.86532(11)
S4 S 0.56364(15) 0.93306(11) 0.95131(11)
Br5 Br -0.03120(6) 0.74626(4) 0.41800(4)
Br6 Br -0.05205(7) 0.59307(4) 0.50235(4)
C57 C 0.0156(5) 0.7509(4) 0.5156(4)
C58 C 0.0051(5) 0.6842(4) 0.5519(4)
C59 C 0.0399(5) 0.6861(4) 0.6226(4)
H61 H 0.0348 0.6428 0.6457
C60 C 0.0837(5) 0.7542(4) 0.6604(4)
C61 C 0.0929(5) 0.8195(4) 0.6238(4)
C62 C 0.0568(5) 0.8161(4) 0.5523(4)
H62 H 0.0609 0.8592 0.5290
C63 C 0.1638(5) 0.8183(4) 0.7620(4)
C64 C 0.1717(5) 0.8849(4) 0.7263(4)
C65 C 0.2225(5) 0.9538(4) 0.7653(4)
C66 C 0.2594(5) 0.9525(4) 0.8366(4)
C67 C 0.2515(5) 0.8858(4) 0.8721(4)
C68 C 0.2025(6) 0.8211(4) 0.8361(4)
C69 C 0.2013(5) 0.7619(4) 0.8808(4)
H63 H 0.1732 0.7136 0.8650
C70 C 0.2450(6) 0.7817(4) 0.9490(4)
C71 C 0.2558(6) 0.7375(4) 1.0114(4)
H64 H 0.2305 0.7581 1.0476
H65 H 0.3213 0.7415 1.0296
C72 C 0.2092(6) 0.6568(4) 0.9970(4)
H66 H 0.1432 0.6524 0.9811
H67 H 0.2325 0.6364 0.9595
C73 C 0.2249(7) 0.6128(5) 1.0605(5)
H68 H 0.2027 0.6335 1.0984
H69 H 0.2907 0.6158 1.0758
C74 C 0.1742(7) 0.5313(5) 1.0439(5)
H70 H 0.1958 0.5108 1.0056
H71 H 0.1083 0.5283 1.0292
C75 C 0.1914(8) 0.4865(6) 1.1082(6)
H72 H 0.1707 0.5071 1.1470
H73 H 0.2570 0.4880 1.1224
C76 C 0.1374(9) 0.4061(6) 1.0893(8)
H74 H 0.0732 0.4053 1.0723
H75 H 0.1441 0.3784 1.1302
H76 H 0.1617 0.3847 1.0535
C77 C 0.2410(5) 1.0276(4) 0.7430(4)
H77 H 0.2194 1.0392 0.6975
C78 C 0.2928(6) 1.0792(4) 0.7939(4)
C79 C 0.3285(6) 1.1590(4) 0.7947(4)
H78 H 0.3952 1.1691 0.8101
H79 H 0.3039 1.1827 0.8295
C80 C 0.3065(6) 1.1939(4) 0.7260(4)
H80 H 0.2399 1.1868 0.7115
H81 H 0.3289 1.1696 0.6904
C81 C 0.3496(6) 1.2755(4) 0.7310(4)
H82 H 0.3259 1.2997 0.7660
H83 H 0.4160 1.2824 0.7471
C82 C 0.3314(6) 1.3120(4) 0.6628(4)
H84 H 0.3514 1.2857 0.6271
H85 H 0.2652 1.3078 0.6483
C83 C 0.3794(6) 1.3925(4) 0.6664(5)
H86 H 0.4453 1.3971 0.6833
H87 H 0.3568 1.4194 0.7001
C84 C 0.3643(7) 1.4268(5) 0.5962(5)
H88 H 0.3816 1.3979 0.5616
H89 H 0.4017 1.4757 0.6005
H90 H 0.3003 1.4284 0.5822
N5 N 0.1372(4) 0.8861(3) 0.6581(3)
N6 N 0.1198(4) 0.7539(3) 0.7296(3)
S5 S 0.31551(15) 1.03845(11) 0.87368(11)
S6 S 0.29071(16) 0.87639(11) 0.95896(11)
Br7 Br 0.19537(7) 0.54663(4) 0.64053(5)
Br8 Br 0.31452(7) 0.62580(4) 0.79562(5)
C85 C 0.2065(5) 0.4911(4) 0.7220(4)
C86 C 0.2596(5) 0.5244(4) 0.7874(4)
C87 C 0.2688(6) 0.4831(4) 0.8448(4)
H91 H 0.3035 0.5045 0.8878
C88 C 0.2257(5) 0.4087(4) 0.8381(4)
C89 C 0.1729(5) 0.3749(4) 0.7735(4)
C90 C 0.1656(5) 0.4192(4) 0.7151(4)
H92 H 0.1322 0.3982 0.6716
C91 C 0.1431(5) 0.2643(4) 0.8209(4)
C92 C 0.1982(6) 0.2973(4) 0.8880(4)
C93 C 0.2107(6) 0.2516(4) 0.9472(4)
C94 C 0.1699(5) 0.1774(4) 0.9367(4)
C95 C 0.1174(5) 0.1453(4) 0.8706(4)
C96 C 0.1026(5) 0.1868(4) 0.8135(4)
C97 C 0.0494(6) 0.1438(4) 0.7530(4)
H93 H 0.0319 0.1635 0.7104
C98 C 0.0263(5) 0.0713(4) 0.7629(4)
C99 C -0.0258(6) 0.0075(4) 0.7128(4)
H94 H -0.0794 -0.0176 0.7304
H95 H 0.0135 -0.0270 0.7100
C100 C -0.0571(7) 0.0317(4) 0.6410(4)
H96 H -0.0963 0.0662 0.6439
H97 H -0.0035 0.0567 0.6234
C101 C -0.1102(6) -0.0329(4) 0.5899(4)
H98 H -0.1621 -0.0591 0.6087
H99 H -0.0700 -0.0664 0.5858
C102 C -0.1463(6) -0.0093(5) 0.5172(5)
H100 H -0.0937 0.0086 0.4954
H101 H -0.1756 0.0314 0.5227
C103 C -0.2134(7) -0.0672(5) 0.4684(5)
H102 H -0.2347 -0.0456 0.4251
H103 H -0.2667 -0.0851 0.4894
C104 C -0.1739(7) -0.1297(6) 0.4518(6)
H104 H -0.1234 -0.1129 0.4285
H105 H -0.2207 -0.1658 0.4217
H106 H -0.1520 -0.1510 0.4944
C105 C 0.2607(5) 0.2709(4) 1.0174(4)
H107 H 0.2909 0.3188 1.0333
C106 C 0.2606(6) 0.2134(4) 1.0589(4)
C107 C 0.3033(6) 0.2084(4) 1.1329(4)
H108 H 0.3468 0.1766 1.1342
H109 H 0.2551 0.1847 1.1568
C108 C 0.3532(6) 0.2795(4) 1.1740(4)
H110 H 0.3104 0.3115 1.1750
H111 H 0.4021 0.3041 1.1512
C109 C 0.3950(6) 0.2648(4) 1.2495(4)
H112 H 0.3453 0.2386 1.2706
H113 H 0.4371 0.2324 1.2471
C110 C 0.4464(6) 0.3305(4) 1.2979(4)
H114 H 0.4062 0.3644 1.3004
H115 H 0.4993 0.3557 1.2797
C111 C 0.4795(7) 0.3062(4) 1.3722(4)
H116 H 0.4259 0.2813 1.3898
H117 H 0.5179 0.2711 1.3687
C112 C 0.5336(7) 0.3686(5) 1.4243(5)
H118 H 0.5823 0.3974 1.4048
H119 H 0.5597 0.3491 1.4668
H120 H 0.4930 0.3990 1.4345
N7 N 0.2387(4) 0.3691(3) 0.8964(3)
N8 N 0.1321(4) 0.3031(3) 0.7646(3)
S7 S 0.06739(15) 0.05364(11) 0.84984(11)
S8 S 0.19619(16) 0.13232(11) 1.01145(11)
loop_
_geom_bond_atom_site_label_1
_geom_bond_atom_site_label_2
_geom_bond_site_symmetry_1
_geom_bond_site_symmetry_2
Br1 C1 1_555 1_555
Br2 C2 1_555 1_555
C1 C2 1_555 1_555
C2 C3 1_555 1_555
C3 H1 1_555 1_555
C4 C3 1_555 1_555
C5 C4 1_555 1_555
C6 C1 1_555 1_555
H2 C6 1_555 1_555
C7 C8 1_555 1_555
C8 C9 1_555 1_555
C9 C10 1_555 1_555
C10 C11 1_555 1_555
C11 C12 1_555 1_555
C12 C7 1_555 1_555
C13 C12 1_555 1_555
H3 C13 1_555 1_555
C14 C13 1_555 1_555
C15 C14 1_555 1_555
H4 C15 1_555 1_555
H5 C15 1_555 1_555
C16 C15 1_555 1_555
H6 C16 1_555 1_555
H7 C16 1_555 1_555
C17 C16 1_555 1_555
H8 C17 1_555 1_555
H9 C17 1_555 1_555
C18 C17 1_555 1_555
H10 C18 1_555 1_555
H11 C18 1_555 1_555
C19 C18 1_555 1_555
H12 C19 1_555 1_555
H13 C19 1_555 1_555
C20 C19 1_555 1_555
H14 C20 1_555 1_555
H15 C20 1_555 1_555
H16 C20 1_555 1_555
C21 C9 1_555 1_555
H17 C21 1_555 1_555
C22 C21 1_555 1_555
C23 C22 1_555 1_555
H18 C23 1_555 1_555
H19 C23 1_555 1_555
C24 C23 1_555 1_555
H20 C24 1_555 1_555
H21 C24 1_555 1_555
C25 C24 1_555 1_555
H22 C25 1_555 1_555
H23 C25 1_555 1_555
C26 C25 1_555 1_555
H24 C26 1_555 1_555
H25 C26 1_555 1_555
C27 C26 1_555 1_555
H26 C27 1_555 1_555
H27 C27 1_555 1_555
C28 C27 1_555 1_555
H28 C28 1_555 1_555
H29 C28 1_555 1_555
H30 C28 1_555 1_555
N1 C5 1_555 1_555
N2 C4 1_555 1_555
S1 C11 1_555 1_555
S2 C10 1_555 1_555
Br3 C30 1_555 1_555
Br4 C29 1_555 1_555
C29 C30 1_555 1_555
C30 C31 1_555 1_555
C31 H31 1_555 1_555
C32 C31 1_555 1_555
C33 C32 1_555 1_555
C34 C29 1_555 1_555
H32 C34 1_555 1_555
C35 C36 1_555 1_555
C36 C37 1_555 1_555
C37 C38 1_555 1_555
C38 C39 1_555 1_555
C39 C40 1_555 1_555
C40 C35 1_555 1_555
C41 C39 1_555 1_555
H33 C41 1_555 1_555
C42 C41 1_555 1_555
C43 C42 1_555 1_555
H34 C43 1_555 1_555
H35 C43 1_555 1_555
C44 C43 1_555 1_555
H36 C44 1_555 1_555
H37 C44 1_555 1_555
C45 C44 1_555 1_555
H38 C45 1_555 1_555
H39 C45 1_555 1_555
C46 C45 1_555 1_555
H40 C46 1_555 1_555
H41 C46 1_555 1_555
C47 C46 1_555 1_555
H42 C47 1_555 1_555
H43 C47 1_555 1_555
C48 C47 1_555 1_555
H44 C48 1_555 1_555
H45 C48 1_555 1_555
H46 C48 1_555 1_555
C49 C36 1_555 1_555
H47 C49 1_555 1_555
C50 C49 1_555 1_555
C51 C50 1_555 1_555
H48 C51 1_555 1_555
H49 C51 1_555 1_555
C52 C51 1_555 1_555
H50 C52 1_555 1_555
H51 C52 1_555 1_555
C53 C52 1_555 1_555
H52 C53 1_555 1_555
H53 C53 1_555 1_555
C54 C53 1_555 1_555
H54 C54 1_555 1_555
H55 C54 1_555 1_555
C55 C54 1_555 1_555
H56 C55 1_555 1_555
H57 C55 1_555 1_555
C56 C55 1_555 1_555
H58 C56 1_555 1_555
H59 C56 1_555 1_555
H60 C56 1_555 1_555
N3 C32 1_555 1_555
N4 C33 1_555 1_555
S3 C37 1_555 1_555
S4 C38 1_555 1_555
Br5 C57 1_555 1_555
Br6 C58 1_555 1_555
C57 C58 1_555 1_555
C58 C59 1_555 1_555
C59 H61 1_555 1_555
C60 C59 1_555 1_555
C61 C60 1_555 1_555
C62 C57 1_555 1_555
H62 C62 1_555 1_555
C63 C64 1_555 1_555
C64 C65 1_555 1_555
C65 C66 1_555 1_555
C66 C67 1_555 1_555
C67 C68 1_555 1_555
C68 C63 1_555 1_555
C69 C68 1_555 1_555
H63 C69 1_555 1_555
C70 C69 1_555 1_555
C71 C70 1_555 1_555
H64 C71 1_555 1_555
H65 C71 1_555 1_555
C72 C71 1_555 1_555
H66 C72 1_555 1_555
H67 C72 1_555 1_555
C73 C72 1_555 1_555
H68 C73 1_555 1_555
H69 C73 1_555 1_555
C74 C73 1_555 1_555
H70 C74 1_555 1_555
H71 C74 1_555 1_555
C75 C74 1_555 1_555
H72 C75 1_555 1_555
H73 C75 1_555 1_555
C76 C75 1_555 1_555
H74 C76 1_555 1_555
H75 C76 1_555 1_555
H76 C76 1_555 1_555
C77 C65 1_555 1_555
H77 C77 1_555 1_555
C78 C77 1_555 1_555
C79 C78 1_555 1_555
H78 C79 1_555 1_555
H79 C79 1_555 1_555
C80 C79 1_555 1_555
H80 C80 1_555 1_555
H81 C80 1_555 1_555
C81 C80 1_555 1_555
H82 C81 1_555 1_555
H83 C81 1_555 1_555
C82 C81 1_555 1_555
H84 C82 1_555 1_555
H85 C82 1_555 1_555
C83 C82 1_555 1_555
H86 C83 1_555 1_555
H87 C83 1_555 1_555
C84 C83 1_555 1_555
H88 C84 1_555 1_555
H89 C84 1_555 1_555
H90 C84 1_555 1_555
N5 C61 1_555 1_555
N6 C60 1_555 1_555
S5 C66 1_555 1_555
S6 C67 1_555 1_555
Br7 C85 1_555 1_555
Br8 C86 1_555 1_555
C85 C86 1_555 1_555
C86 C87 1_555 1_555
C87 H91 1_555 1_555
C88 C87 1_555 1_555
C89 C88 1_555 1_555
C90 C85 1_555 1_555
H92 C90 1_555 1_555
C91 C92 1_555 1_555
C92 C93 1_555 1_555
C93 C94 1_555 1_555
C94 C95 1_555 1_555
C95 C96 1_555 1_555
C96 C91 1_555 1_555
C97 C96 1_555 1_555
H93 C97 1_555 1_555
C98 C97 1_555 1_555
C99 C98 1_555 1_555
H94 C99 1_555 1_555
H95 C99 1_555 1_555
C100 C99 1_555 1_555
H96 C100 1_555 1_555
H97 C100 1_555 1_555
C101 C100 1_555 1_555
H98 C101 1_555 1_555
H99 C101 1_555 1_555
C102 C101 1_555 1_555
H100 C102 1_555 1_555
H101 C102 1_555 1_555
C103 C102 1_555 1_555
H102 C103 1_555 1_555
H103 C103 1_555 1_555
C104 C103 1_555 1_555
H104 C104 1_555 1_555
H105 C104 1_555 1_555
H106 C104 1_555 1_555
C105 C93 1_555 1_555
H107 C105 1_555 1_555
C106 C105 1_555 1_555
C107 C106 1_555 1_555
H108 C107 1_555 1_555
H109 C107 1_555 1_555
C108 C107 1_555 1_555
H110 C108 1_555 1_555
H111 C108 1_555 1_555
C109 C108 1_555 1_555
H112 C109 1_555 1_555
H113 C109 1_555 1_555
C110 C109 1_555 1_555
H114 C110 1_555 1_555
H115 C110 1_555 1_555
C111 C110 1_555 1_555
H116 C111 1_555 1_555
H117 C111 1_555 1_555
C112 C111 1_555 1_555
H118 C112 1_555 1_555
H119 C112 1_555 1_555
H120 C112 1_555 1_555
N7 C88 1_555 1_555
N8 C89 1_555 1_555
S7 C95 1_555 1_555
S8 C94 1_555 1_555
C5 C6 1_555 1_555
C7 N1 1_555 1_555
C8 N2 1_555 1_555
C14 S1 1_555 1_555
C22 S2 1_555 1_555
C33 C34 1_555 1_555
C35 N3 1_555 1_555
C40 N4 1_555 1_555
C42 S4 1_555 1_555
C50 S3 1_555 1_555
C61 C62 1_555 1_555
C63 N6 1_555 1_555
C64 N5 1_555 1_555
C70 S6 1_555 1_555
C78 S5 1_555 1_555
C89 C90 1_555 1_555
C91 N8 1_555 1_555
C92 N7 1_555 1_555
C98 S7 1_555 1_555
C106 S8 1_555 1_555

#END
