
#######################################################################
#
#                 Cambridge Crystallographic Data Centre
#                                CCDC 
#
#######################################################################
#
# If this CIF has been generated from an entry in the Cambridge 
# Structural Database, then it will include bibliographic, chemical, 
# crystal, experimental, refinement or atomic coordinate data resulting 
# from the CCDC's data processing and validation procedures.
#
#######################################################################

data_BEFDIA
_chemical_formula_moiety         'C48 H73 N1 O37,4(H2 O1)'
_chemical_name_systematic        
'6-O-(4-Nitrophenyl)-\b-D-cyclodextrin tetrahydrate'
_symmetry_cell_setting           orthorhombic
_symmetry_space_group_name_H-M   'P 21 21 21'
_symmetry_Int_Tables_number      19
_space_group_name_Hall           'P 2ac 2ab'
loop_
_symmetry_equiv_pos_site_id
_symmetry_equiv_pos_as_xyz
1 x,y,z
2 1/2-x,-y,1/2+z
3 -x,1/2+y,1/2-z
4 1/2+x,1/2-y,-z
_cell_length_a                   13.207(4)
_cell_length_b                   18.993(5)
_cell_length_c                   28.563(8)
_cell_angle_alpha                90
_cell_angle_beta                 90
_cell_angle_gamma                90
_cell_volume                     7164.76
_cell_formula_units_Z            4
loop_
_atom_site_label
_atom_site_type_symbol
_atom_site_fract_x
_atom_site_fract_y
_atom_site_fract_z
C1 C 0.1934(11) -0.6063(7) -0.0754(4)
H1 H 0.1753 -0.5899 -0.1068
C2 C 0.2089(9) -0.5634(6) 0.1069(4)
H2 H 0.1713 -0.5219 0.0963
C3 C 0.3434(11) -0.7241(6) 0.2458(4)
H3 H 0.3199 -0.6830 0.2635
C4 C 0.4782(9) -0.9832(6) 0.2280(4)
H4 H 0.4909 -0.9765 0.2615
C5 C 0.4351(15) -1.1458(8) 0.0789(5)
H5 H 0.4437 -1.1824 0.1028
C6 C 0.3498(9) -1.0853(7) -0.0957(4)
H6 H 0.3611 -1.1362 -0.0975
C7 C 0.1995(9) -0.8482(7) -0.1657(4)
H7 H 0.1805 -0.8784 -0.1921
C8 C 0.2890(10) -0.5654(7) -0.0573(4)
H8 H 0.2735 -0.5150 -0.0587
O1 O 0.3722(7) -0.5778(5) -0.0868(3)
H9 H 0.3562 -0.6059 -0.1072
C9 C 0.3005(8) -0.5392(6) 0.1367(4)
H10 H 0.2755 -0.5093 0.1622
O2 O 0.3644(6) -0.4975(5) 0.1071(3)
H11 H 0.3679 -0.5157 0.0811
C10 C 0.4477(12) -0.7365(6) 0.2578(4)
H12 H 0.4527 -0.7437 0.2917
O3 O 0.5061(7) -0.6796(4) 0.2456(3)
H13 H 0.5527 -0.6754 0.2644
C11 C 0.5767(9) -1.0034(6) 0.2053(4)
H14 H 0.6035 -1.0456 0.2206
O4 O 0.6478(7) -0.9477(5) 0.2100(3)
H15 H 0.6195 -0.9130 0.2209
C12 C 0.5242(13) -1.1530(10) 0.0419(5)
H16 H 0.5233 -1.2006 0.0287
O5 O 0.6203(9) -1.1398(6) 0.0612(3)
H17 H 0.6153 -1.1100 0.0819
C13 C 0.4162(9) -1.0482(7) -0.1315(4)
H18 H 0.4038 -1.0693 -0.1623
O6 O 0.5225(6) -1.0565(5) -0.1201(3)
H19 H 0.5522 -1.0744 -0.1423
C14 C 0.2620(11) -0.7844(7) -0.1829(4)
H20 H 0.2206 -0.7583 -0.2054
O7 O 0.3514(7) -0.8086(5) -0.2069(3)
H21 H 0.3714 -0.8452 -0.1948
C15 C 0.3087(9) -0.5833(7) -0.0084(4)
H22 H 0.3324 -0.6321 -0.0067
O8 O 0.3873(7) -0.5370(6) 0.0107(3)
H23 H 0.4430 -0.5550 0.0067
C16 C 0.3520(8) -0.6015(6) 0.1576(4)
H24 H 0.3815 -0.6295 0.1322
O9 O 0.4324(6) -0.5772(4) 0.1870(2)
H25 H 0.4697 -0.5511 0.1720
C17 C 0.4842(10) -0.8050(6) 0.2322(4)
H26 H 0.4838 -0.7955 0.1985
O10 O 0.5873(7) -0.8199(5) 0.2456(3)
H27 H 0.6042 -0.8583 0.2350
C18 C 0.5554(10) -1.0199(7) 0.1536(4)
H28 H 0.5352 -0.9765 0.1375
O11 O 0.6499(7) -1.0448(5) 0.1338(3)
H29 H 0.6380 -1.0730 0.1128
C19 C 0.4990(11) -1.0993(8) 0.0026(4)
H30 H 0.5035 -1.0513 0.0151
O12 O 0.5774(8) -1.1094(7) -0.0337(3)
H31 H 0.5574 -1.0928 -0.0586
C20 C 0.3927(9) -0.9684(6) -0.1344(4)
H32 H 0.4143 -0.9461 -0.1052
O13 O 0.4453(6) -0.9375(5) -0.1715(3)
H33 H 0.4164 -0.9013 -0.1795
C21 C 0.2893(10) -0.7367(7) -0.1453(4)
H34 H 0.3350 -0.7611 -0.1237
O14 O 0.3369(7) -0.6781(6) -0.1621(3)
H35 H 0.3471 -0.6505 -0.1406
C22 C 0.2180(9) -0.5751(7) 0.0232(4)
H36 H 0.1975 -0.5255 0.0249
O15 O 0.2414(6) -0.6007(4) 0.0684(3)
C23 C 0.2817(8) -0.6462(6) 0.1837(4)
H37 H 0.2571 -0.6208 0.2113
O16 O 0.3351(6) -0.7087(4) 0.1984(3)
C24 C 0.4154(10) -0.8619(6) 0.2408(4)
H38 H 0.4247 -0.8778 0.2731
O17 O 0.4423(6) -0.9192(4) 0.2098(2)
C25 C 0.4733(10) -1.0725(7) 0.1490(4)
H39 H 0.4973 -1.1182 0.1604
O18 O 0.4496(7) -1.0777(4) 0.1008(3)
C26 C 0.4002(11) -1.1107(7) -0.0162(4)
H40 H 0.3969 -1.1580 -0.0300
O19 O 0.3790(6) -1.0604(4) -0.0510(2)
C27 C 0.2818(9) -0.9570(6) -0.1403(4)
H41 H 0.2607 -0.9716 -0.1718
O20 O 0.2635(6) -0.8849(4) -0.1343(3)
C28 C 0.1911(9) -0.7156(6) -0.1186(3)
H42 H 0.1472 -0.6862 -0.1381
O21 O 0.2242(6) -0.6777(4) -0.0773(3)
C29 C 0.1330(10) -0.6195(7) 0.0028(4)
H43 H 0.1538 -0.6690 0.0027
O22 O 0.1123(7) -0.5973(5) -0.0454(3)
C30 C 0.1920(9) -0.6696(7) 0.1540(5)
H44 H 0.2168 -0.6989 0.1281
O23 O 0.1427(6) -0.6072(5) 0.1347(3)
C31 C 0.3074(11) -0.8444(7) 0.2339(5)
H45 H 0.2962 -0.8367 0.2004
O24 O 0.2796(7) -0.7827(5) 0.2576(3)
C32 C 0.3810(9) -1.0516(7) 0.1754(4)
H46 H 0.3537 -1.0086 0.1613
O25 O 0.4050(6) -1.0373(4) 0.2231(2)
C33 C 0.3216(11) -1.1050(9) 0.0247(4)
H47 H 0.3241 -1.0574 0.0379
O26 O 0.3457(9) -1.1538(5) 0.0595(3)
C34 C 0.2219(9) -0.9986(7) -0.1030(4)
H48 H 0.2408 -0.9801 -0.0722
O27 O 0.2496(6) -1.0708(5) -0.1044(3)
C35 C 0.1371(8) -0.7804(7) -0.1029(4)
H49 H 0.1820 -0.8069 -0.0820
O28 O 0.1131(6) -0.8238(4) -0.1424(3)
C36 C 0.0315(11) -0.6127(12) 0.0288(6)
H50 H -0.0209 -0.6064 0.0054
H51 H 0.0342 -0.5695 0.0470
O29 O 0.0022(10) -0.6619(9) 0.0564(6)
H52 H 0.0321 -0.6585 0.0815
C37 C 0.1139(13) -0.7087(10) 0.1798(8)
O30 O 0.0403(12) -0.7365(11) 0.1465(7)
H53 H 0.0372 -0.7105 0.1237
C38 C 0.2347(12) -0.9004(9) 0.2501(7)
H54 H 0.2394 -0.9043 0.2839
H55 H 0.2555 -0.9451 0.2368
O32 O 0.1347(10) -0.8883(8) 0.2381(10)
H56 H 0.0991 -0.9197 0.2490
C39 C 0.3001(10) -1.1062(7) 0.1754(5)
H57 H 0.2768 -1.1138 0.1436
H58 H 0.2431 -1.0896 0.1938
O33 O 0.3354(7) -1.1702(5) 0.1941(3)
H59 H 0.3820 -1.1624 0.2124
C40 C 0.2194(14) -1.1206(10) 0.0103(5)
H60 H 0.1973 -1.0840 -0.0111
H61 H 0.1760 -1.1184 0.0377
O34 O 0.2056(11) -1.1851(7) -0.0111(4)
H62 H 0.1453 -1.1908 -0.0169
C41 C 0.1099(9) -0.9935(7) -0.1074(4)
H63 H 0.0888 -0.9451 -0.1028
H64 H 0.0781 -1.0221 -0.0834
O35 O 0.0788(6) -1.0166(5) -0.1517(3)
H65 H 0.0363 -0.9894 -0.1622
C42 C 0.0377(10) -0.7655(7) -0.0770(4)
H66 H 0.0520 -0.7465 -0.0462
H67 H -0.0002 -0.8089 -0.0732
O36 O -0.0205(6) -0.7161(5) -0.1033(3)
C43 C -0.1040(9) -0.6892(6) -0.0845(4)
C44 C -0.1477(12) -0.7159(8) -0.0437(5)
H68 H -0.1187 -0.7536 -0.0278
C45 C -0.2363(11) -0.6843(9) -0.0274(5)
H69 H -0.2713 -0.7050 -0.0027
C46 C -0.2717(10) -0.6261(7) -0.0460(5)
C47 C -0.2252(11) -0.5992(8) -0.0868(5)
H70 H -0.2510 -0.5593 -0.1014
C48 C -0.1450(10) -0.6315(7) -0.1039(4)
H71 H -0.1153 -0.6134 -0.1309
N1 N -0.3568(11) -0.5917(8) -0.0267(5)
O37 O -0.3971(11) -0.5417(7) -0.0454(5)
O38 O -0.3958(10) -0.6154(7) 0.0099(5)
O39 O 0.6253(13) -1.1130(10) -0.1893(6)
O40 O 0.466(3) -0.8406(12) 0.3643(9)
O41 O 0.8251(19) -0.994(3) 0.2430(13)
O42 O 0.1735(18) -1.2280(10) -0.1005(7)
O43 O 0.806(2) -1.1094(18) 0.1791(12)
O44 O 0.798(2) -1.1915(13) -0.1748(12)
O31? O 0.085(3) -0.667(2) 0.2206(12)
loop_
_geom_bond_atom_site_label_1
_geom_bond_atom_site_label_2
_geom_bond_site_symmetry_1
_geom_bond_site_symmetry_2
C1 H1 1_555 1_555
C2 H2 1_555 1_555
C3 H3 1_555 1_555
C4 H4 1_555 1_555
C5 H5 1_555 1_555
C6 H6 1_555 1_555
C7 H7 1_555 1_555
C8 C1 1_555 1_555
H8 C8 1_555 1_555
O1 C8 1_555 1_555
H9 O1 1_555 1_555
C9 C2 1_555 1_555
H10 C9 1_555 1_555
O2 C9 1_555 1_555
H11 O2 1_555 1_555
C10 C3 1_555 1_555
H12 C10 1_555 1_555
O3 C10 1_555 1_555
H13 O3 1_555 1_555
C11 C4 1_555 1_555
H14 C11 1_555 1_555
O4 C11 1_555 1_555
H15 O4 1_555 1_555
C12 C5 1_555 1_555
H16 C12 1_555 1_555
O5 C12 1_555 1_555
H17 O5 1_555 1_555
C13 C6 1_555 1_555
H18 C13 1_555 1_555
O6 C13 1_555 1_555
H19 O6 1_555 1_555
C14 C7 1_555 1_555
H20 C14 1_555 1_555
O7 C14 1_555 1_555
H21 O7 1_555 1_555
C15 C8 1_555 1_555
H22 C15 1_555 1_555
O8 C15 1_555 1_555
H23 O8 1_555 1_555
C16 C9 1_555 1_555
H24 C16 1_555 1_555
O9 C16 1_555 1_555
H25 O9 1_555 1_555
C17 C10 1_555 1_555
H26 C17 1_555 1_555
O10 C17 1_555 1_555
H27 O10 1_555 1_555
C18 C11 1_555 1_555
H28 C18 1_555 1_555
O11 C18 1_555 1_555
H29 O11 1_555 1_555
C19 C12 1_555 1_555
H30 C19 1_555 1_555
O12 C19 1_555 1_555
H31 O12 1_555 1_555
C20 C13 1_555 1_555
H32 C20 1_555 1_555
O13 C20 1_555 1_555
H33 O13 1_555 1_555
C21 C14 1_555 1_555
H34 C21 1_555 1_555
O14 C21 1_555 1_555
H35 O14 1_555 1_555
C22 C15 1_555 1_555
H36 C22 1_555 1_555
O15 C2 1_555 1_555
C23 C16 1_555 1_555
H37 C23 1_555 1_555
O16 C3 1_555 1_555
C24 C17 1_555 1_555
H38 C24 1_555 1_555
O17 C4 1_555 1_555
C25 C18 1_555 1_555
H39 C25 1_555 1_555
O18 C5 1_555 1_555
C26 C19 1_555 1_555
H40 C26 1_555 1_555
O19 C6 1_555 1_555
C27 C20 1_555 1_555
H41 C27 1_555 1_555
O20 C7 1_555 1_555
C28 C21 1_555 1_555
H42 C28 1_555 1_555
O21 C1 1_555 1_555
C29 C22 1_555 1_555
H43 C29 1_555 1_555
O22 C1 1_555 1_555
C30 C23 1_555 1_555
H44 C30 1_555 1_555
O23 C2 1_555 1_555
C31 C24 1_555 1_555
H45 C31 1_555 1_555
O24 C3 1_555 1_555
C32 C25 1_555 1_555
H46 C32 1_555 1_555
O25 C4 1_555 1_555
C33 C26 1_555 1_555
H47 C33 1_555 1_555
O26 C5 1_555 1_555
C34 C27 1_555 1_555
H48 C34 1_555 1_555
O27 C6 1_555 1_555
C35 C28 1_555 1_555
H49 C35 1_555 1_555
O28 C7 1_555 1_555
C36 C29 1_555 1_555
H50 C36 1_555 1_555
H51 C36 1_555 1_555
O29 C36 1_555 1_555
H52 O29 1_555 1_555
C37 C30 1_555 1_555
O30 C37 1_555 1_555
H53 O30 1_555 1_555
C38 C31 1_555 1_555
H54 C38 1_555 1_555
H55 C38 1_555 1_555
O32 C38 1_555 1_555
H56 O32 1_555 1_555
C39 C32 1_555 1_555
H57 C39 1_555 1_555
H58 C39 1_555 1_555
O33 C39 1_555 1_555
H59 O33 1_555 1_555
C40 C33 1_555 1_555
H60 C40 1_555 1_555
H61 C40 1_555 1_555
O34 C40 1_555 1_555
H62 O34 1_555 1_555
C41 C34 1_555 1_555
H63 C41 1_555 1_555
H64 C41 1_555 1_555
O35 C41 1_555 1_555
H65 O35 1_555 1_555
C42 C35 1_555 1_555
H66 C42 1_555 1_555
H67 C42 1_555 1_555
O36 C42 1_555 1_555
C43 O36 1_555 1_555
C44 C43 1_555 1_555
H68 C44 1_555 1_555
C45 C44 1_555 1_555
H69 C45 1_555 1_555
C46 C45 1_555 1_555
C47 C46 1_555 1_555
H70 C47 1_555 1_555
C48 C43 1_555 1_555
H71 C48 1_555 1_555
N1 C46 1_555 1_555
O37 N1 1_555 1_555
O38 N1 1_555 1_555
C22 O15 1_555 1_555
C23 O16 1_555 1_555
C24 O17 1_555 1_555
C25 O18 1_555 1_555
C26 O19 1_555 1_555
C27 O20 1_555 1_555
C28 O21 1_555 1_555
C29 O22 1_555 1_555
C30 O23 1_555 1_555
C31 O24 1_555 1_555
C32 O25 1_555 1_555
C33 O26 1_555 1_555
C34 O27 1_555 1_555
C35 O28 1_555 1_555
C47 C48 1_555 1_555

#END
