
#######################################################################
#
#                 Cambridge Crystallographic Data Centre
#                                CCDC 
#
#######################################################################
#
# If this CIF has been generated from an entry in the Cambridge 
# Structural Database, then it will include bibliographic, chemical, 
# crystal, experimental, refinement or atomic coordinate data resulting 
# from the CCDC's data processing and validation procedures.
#
#######################################################################

data_BEFSOW
_chemical_formula_moiety         'C18 H20 F3 N1 O5'
_chemical_name_systematic        
'Ethyl 4-hydroxy-5-((1-methyl-1H-indol-3-yl)methyl)-4-(trifluoromethyl)-1,3-dioxane-5-carboxylate'
_symmetry_cell_setting           monoclinic
_symmetry_space_group_name_H-M   'P 21/c'
_symmetry_Int_Tables_number      14
_space_group_name_Hall           '-P 2ybc'
loop_
_symmetry_equiv_pos_site_id
_symmetry_equiv_pos_as_xyz
1 x,y,z
2 -x,1/2+y,1/2-z
3 -x,-y,-z
4 x,1/2-y,1/2+z
_cell_length_a                   13.9406(7)
_cell_length_b                   8.5319(4)
_cell_length_c                   16.0361(7)
_cell_angle_alpha                90
_cell_angle_beta                 107.249(2)
_cell_angle_gamma                90
_cell_volume                     1821.55
_exptl_crystal_colour            colorless
_exptl_crystal_description       block
_cell_formula_units_Z            4
loop_
_atom_site_label
_atom_site_type_symbol
_atom_site_fract_x
_atom_site_fract_y
_atom_site_fract_z
F1 F 0.01351(12) 0.7289(2) 0.41697(12)
F2 F 0.07440(17) 0.5020(2) 0.45532(14)
F3 F 0.16760(14) 0.7039(2) 0.48617(11)
O1 O 0.19478(13) 0.28814(18) 0.41481(10)
O2 O 0.14321(12) 0.26023(19) 0.27076(11)
O3 O 0.02662(10) 0.5618(2) 0.27737(11)
H1 H -0.0200 0.6233 0.2723
O4 O 0.13327(11) 0.77742(18) 0.31741(11)
O5 O 0.23110(12) 0.7059(2) 0.22896(11)
N1 N 0.51657(13) 0.3026(2) 0.40304(12)
C1 C 0.1828(3) 0.1005(4) 0.5183(2)
H2 H 0.2519 0.1169 0.5509
H3 H 0.1636 -0.0048 0.5274
H4 H 0.1413 0.1731 0.5377
C2 C 0.1701(3) 0.1249(3) 0.42639(19)
H5 H 0.1013 0.1029 0.3925
H6 H 0.2142 0.0556 0.4068
C3 C 0.17573(14) 0.3410(3) 0.33454(14)
C4 C 0.20216(14) 0.5135(2) 0.33117(13)
C5 C 0.0931(2) 0.6378(3) 0.42491(19)
C6 C 0.11292(14) 0.6219(2) 0.33609(14)
C7 C 0.14899(19) 0.7949(3) 0.23459(19)
H7 H 0.0892 0.7618 0.1894
H8 H 0.1608 0.9045 0.2249
C8 C 0.21354(16) 0.5443(3) 0.24002(14)
H9 H 0.2692 0.4832 0.2327
H10 H 0.1529 0.5115 0.1957
C9 C 0.30010(14) 0.5554(2) 0.40330(13)
H11 H 0.3094 0.6681 0.4034
H12 H 0.2923 0.5266 0.4594
C10 C 0.39322(14) 0.4776(2) 0.39402(13)
C11 C 0.47048(14) 0.5505(2) 0.36515(12)
C12 C 0.48407(16) 0.7011(3) 0.33560(14)
H13 H 0.4355 0.7781 0.3307
C13 C 0.57039(17) 0.7331(3) 0.31402(16)
H14 H 0.5803 0.8332 0.2951
C14 C 0.64320(17) 0.6188(3) 0.31998(16)
H15 H 0.7005 0.6438 0.3044
C15 C 0.63238(16) 0.4700(3) 0.34831(15)
H16 H 0.6810 0.3937 0.3519
C16 C 0.54591(15) 0.4376(3) 0.37154(13)
C17 C 0.5690(2) 0.1536(3) 0.4137(2)
H17 H 0.5445 0.0929 0.3613
H18 H 0.5575 0.0975 0.4618
H19 H 0.6397 0.1718 0.4251
C18 C 0.42504(15) 0.3286(3) 0.41628(14)
H20 H 0.3895 0.2542 0.4376
loop_
_geom_bond_atom_site_label_1
_geom_bond_atom_site_label_2
_geom_bond_site_symmetry_1
_geom_bond_site_symmetry_2
F1 C5 1_555 1_555
F2 C5 1_555 1_555
F3 C5 1_555 1_555
O1 C2 1_555 1_555
O2 C3 1_555 1_555
O3 H1 1_555 1_555
O4 C6 1_555 1_555
O5 C7 1_555 1_555
N1 C16 1_555 1_555
C1 H2 1_555 1_555
H3 C1 1_555 1_555
H4 C1 1_555 1_555
C2 C1 1_555 1_555
H5 C2 1_555 1_555
H6 C2 1_555 1_555
C3 O1 1_555 1_555
C4 C3 1_555 1_555
C5 C6 1_555 1_555
C6 O3 1_555 1_555
C7 O4 1_555 1_555
H7 C7 1_555 1_555
H8 C7 1_555 1_555
C8 O5 1_555 1_555
H9 C8 1_555 1_555
H10 C8 1_555 1_555
C9 C4 1_555 1_555
H11 C9 1_555 1_555
H12 C9 1_555 1_555
C10 C9 1_555 1_555
C11 C10 1_555 1_555
C12 C11 1_555 1_555
H13 C12 1_555 1_555
C13 C12 1_555 1_555
H14 C13 1_555 1_555
C14 C13 1_555 1_555
H15 C14 1_555 1_555
C15 C14 1_555 1_555
H16 C15 1_555 1_555
C16 C11 1_555 1_555
C17 N1 1_555 1_555
H17 C17 1_555 1_555
H18 C17 1_555 1_555
H19 C17 1_555 1_555
C18 N1 1_555 1_555
H20 C18 1_555 1_555
C4 C6 1_555 1_555
C4 C8 1_555 1_555
C10 C18 1_555 1_555
C15 C16 1_555 1_555

#END
