
#######################################################################
#
#                 Cambridge Crystallographic Data Centre
#                                CCDC 
#
#######################################################################
#
# If this CIF has been generated from an entry in the Cambridge 
# Structural Database, then it will include bibliographic, chemical, 
# crystal, experimental, refinement or atomic coordinate data resulting 
# from the CCDC's data processing and validation procedures.
#
#######################################################################

data_BEHRUE
_chemical_formula_moiety         'C21 H19 B1 Cl1 O5 P1'
_chemical_name_systematic        
'dibenzyl (5-chloro-1-hydroxy-1,3-dihydro-2,1-benzoxaborol-3-yl)phosphonate'
_symmetry_cell_setting           monoclinic
_symmetry_space_group_name_H-M   'P 21/n'
_symmetry_Int_Tables_number      14
_space_group_name_Hall           '-P 2yn'
loop_
_symmetry_equiv_pos_site_id
_symmetry_equiv_pos_as_xyz
1 x,y,z
2 1/2-x,1/2+y,1/2-z
3 -x,-y,-z
4 1/2+x,1/2-y,1/2+z
_cell_length_a                   6.25905(14)
_cell_length_b                   28.2364(7)
_cell_length_c                   11.0514(3)
_cell_angle_alpha                90
_cell_angle_beta                 93.280(2)
_cell_angle_gamma                90
_cell_volume                     1949.95
_exptl_crystal_colour            colorless
_exptl_crystal_description       prism
_cell_formula_units_Z            4
loop_
_atom_site_label
_atom_site_type_symbol
_atom_site_fract_x
_atom_site_fract_y
_atom_site_fract_z
Cl1 Cl 0.83419(8) 0.510813(18) 0.18648(5)
C1 C 0.6962(3) 0.55928(7) 0.12323(18)
C2 C 0.8031(3) 0.60209(7) 0.11650(17)
C3 C 0.6891(3) 0.63979(7) 0.06480(17)
C4 C 0.7694(3) 0.68923(7) 0.04220(17)
P1 P 0.87013(8) 0.719482(18) 0.17887(4)
O1 O 1.0894(2) 0.69311(5) 0.19820(12)
C5 C 1.2129(3) 0.69152(8) 0.31682(18)
C6 C 1.2095(3) 0.64207(7) 0.36566(17)
C7 C 1.0340(3) 0.62581(8) 0.42518(18)
C8 C 1.0301(4) 0.58018(8) 0.4709(2)
C9 C 1.2013(4) 0.55022(8) 0.4559(2)
C10 C 1.3770(4) 0.56585(8) 0.3965(2)
C11 C 1.3812(4) 0.61182(8) 0.35168(18)
O2 O 0.7278(2) 0.71835(5) 0.28101(12)
O3 O 0.9131(2) 0.77252(5) 0.14541(14)
C12 C 1.1062(3) 0.79145(8) 0.09561(19)
C13 C 1.1643(3) 0.83645(7) 0.16162(17)
C14 C 1.3676(3) 0.84220(8) 0.21659(18)
C15 C 1.4227(4) 0.88409(8) 0.27600(19)
C16 C 1.2746(4) 0.92000(8) 0.28185(19)
C17 C 1.0713(4) 0.91455(8) 0.22719(19)
C18 C 1.0168(3) 0.87306(8) 0.16738(18)
O4 O 0.5893(2) 0.71500(5) -0.01205(12)
B1 B 0.4140(4) 0.68531(9) -0.03060(19)
C19 C 0.4748(3) 0.63586(7) 0.02284(16)
C20 C 0.3735(3) 0.59197(7) 0.03188(17)
C21 C 0.4834(3) 0.55368(7) 0.08257(17)
O5 O 0.2293(2) 0.69979(5) -0.08656(12)
H1 H 0.9495 0.6052 0.1442
H2 H 0.8843 0.6885 -0.0125
H3 H 1.3569 0.7007 0.3033
H4 H 1.1520 0.7133 0.3712
H5 H 0.9180 0.6461 0.4338
H6 H 0.9132 0.5698 0.5128
H7 H 1.1962 0.5188 0.4864
H8 H 1.4941 0.5453 0.3863
H9 H 1.5004 0.6223 0.3123
H10 H 1.0717 0.7974 0.0095
H11 H 1.2214 0.7687 0.1053
H12 H 1.4688 0.8180 0.2117
H13 H 1.5617 0.8873 0.3107
H14 H 1.3119 0.9484 0.3235
H15 H 0.9688 0.9381 0.2320
H16 H 0.8775 0.8688 0.1309
H17 H 0.2279 0.5884 0.0060
H18 H 0.4176 0.5240 0.0891
H19 H 0.237(4) 0.7259(7) -0.121(2)
loop_
_geom_bond_atom_site_label_1
_geom_bond_atom_site_label_2
_geom_bond_site_symmetry_1
_geom_bond_site_symmetry_2
Cl1 C1 1_555 1_555
C1 C2 1_555 1_555
C2 C3 1_555 1_555
C3 C4 1_555 1_555
C4 P1 1_555 1_555
P1 O1 1_555 1_555
O1 C5 1_555 1_555
C5 C6 1_555 1_555
C6 C7 1_555 1_555
C7 C8 1_555 1_555
C8 C9 1_555 1_555
C9 C10 1_555 1_555
C10 C11 1_555 1_555
C11 C6 1_555 1_555
O2 P1 1_555 1_555
O3 P1 1_555 1_555
C12 O3 1_555 1_555
C13 C12 1_555 1_555
C14 C13 1_555 1_555
C15 C14 1_555 1_555
C16 C15 1_555 1_555
C17 C16 1_555 1_555
C18 C13 1_555 1_555
O4 C4 1_555 1_555
B1 O4 1_555 1_555
C19 C3 1_555 1_555
C20 C19 1_555 1_555
C21 C1 1_555 1_555
O5 B1 1_555 1_555
H1 C2 1_555 1_555
H2 C4 1_555 1_555
H3 C5 1_555 1_555
H4 C5 1_555 1_555
H5 C7 1_555 1_555
H6 C8 1_555 1_555
H7 C9 1_555 1_555
H8 C10 1_555 1_555
H9 C11 1_555 1_555
H10 C12 1_555 1_555
H11 C12 1_555 1_555
H12 C14 1_555 1_555
H13 C15 1_555 1_555
H14 C16 1_555 1_555
H15 C17 1_555 1_555
H16 C18 1_555 1_555
H17 C20 1_555 1_555
H18 C21 1_555 1_555
H19 O5 1_555 1_555
C17 C18 1_555 1_555
B1 C19 1_555 1_555
C20 C21 1_555 1_555

#END
