
#######################################################################
#
#                 Cambridge Crystallographic Data Centre
#                                CCDC 
#
#######################################################################
#
# If this CIF has been generated from an entry in the Cambridge 
# Structural Database, then it will include bibliographic, chemical, 
# crystal, experimental, refinement or atomic coordinate data resulting 
# from the CCDC's data processing and validation procedures.
#
#######################################################################

data_BEJGON
_chemical_formula_moiety         'C22 H25 Cl2 I1 O4'
_chemical_name_systematic        
(2R,3S,4R,5R)-2-(2,6-Dichlorobenzyloxymethyl)-5-iodomethyl-3-(4-methoxybenzyloxy)-4-methyltetrahydrofuran
_symmetry_cell_setting           orthorhombic
_symmetry_space_group_name_H-M   'P 21 21 21'
_symmetry_Int_Tables_number      19
_space_group_name_Hall           'P 2ac 2ab'
loop_
_symmetry_equiv_pos_site_id
_symmetry_equiv_pos_as_xyz
1 x,y,z
2 1/2-x,-y,1/2+z
3 1/2+x,1/2-y,-z
4 -x,1/2+y,1/2-z
_cell_length_a                   4.987(1)
_cell_length_b                   14.790(1)
_cell_length_c                   32.050(3)
_cell_angle_alpha                90
_cell_angle_beta                 90
_cell_angle_gamma                90
_cell_volume                     2363.94
_cell_formula_units_Z            4
loop_
_atom_site_label
_atom_site_type_symbol
_atom_site_fract_x
_atom_site_fract_y
_atom_site_fract_z
Cl1 Cl 0.0173(11) 0.4542(3) 0.7825(1)
Cl2 Cl -0.6081(11) 0.7256(3) 0.7253(1)
C1 C -0.2980(30) 0.5118(7) 0.5208(3)
C2 C -0.2640(20) 0.4747(6) 0.5641(3)
C3 C -0.1280(30) 0.5302(8) 0.5965(3)
C4 C -0.0470(30) 0.4582(8) 0.6296(3)
C5 C -0.2370(30) 0.4507(7) 0.6650(3)
O1 O -0.036(15) 0.3725(10) 0.6098(4)
C6 C -0.1340(40) 0.3814(10) 0.5676(4)
C7 C -0.3470(50) 0.3103(11) 0.5582(5)
I1 I -0.1997(4) 0.1744(1) 0.5598(1)
C10 C 0.1890(30) 0.6499(8) 0.5993(4)
C11 C 0.0000(30) 0.7284(8) 0.5951(5)
C12 C -0.1480(30) 0.7593(9) 0.6283(4)
C13 C -0.3260(30) 0.8319(8) 0.6243(4)
C14 C -0.3470(30) 0.8706(9) 0.5862(4)
C15 C -0.2180(30) 0.8399(9) 0.5523(4)
C16 C -0.0410(30) 0.7696(10) 0.5567(4)
C17 C -0.6760(30) 0.9758(8) 0.6111(4)
C18 C -0.3940(30) 0.5293(9) 0.7235(3)
C19 C -0.2950(40) 0.5927(9) 0.7568(3)
C20 C -0.1000(30) 0.5642(9) 0.7859(5)
C21 C -0.0160(50) 0.6196(13) 0.8163(4)
C22 C -0.0980(50) 0.7062(12) 0.8193(5)
C23 C -0.2930(40) 0.7382(11) 0.7916(5)
C24 C -0.3760(30) 0.6806(11) 0.7602(4)
O3 O 0.0950(20) 0.5696(5) 0.5776(3)
O4 O -0.2007(19) 0.5280(5) 0.6901(2)
O5 O -0.5130(20) 0.9428(7) 0.5779(3)
H1 H -0.4040 0.4706 0.5045
H2 H -0.1257 0.5193 0.5080
H3 H -0.3876 0.5693 0.5222
H4 H -0.4470 0.4664 0.5746
H5 H -0.2481 0.5759 0.6083
H6 H 0.1313 0.4731 0.6405
H7 H -0.4201 0.4480 0.6548
H8 H -0.2009 0.3963 0.6810
H9 H 0.0149 0.3763 0.5478
H10 H -0.4215 0.3221 0.5307
H11 H -0.4912 0.3162 0.5783
H15 H 0.3629 0.6671 0.5882
H16 H 0.2124 0.6359 0.6286
H17 H -0.1297 0.7313 0.6541
H18 H -0.4252 0.8528 0.6469
H19 H -0.2483 0.8658 0.5263
H20 H 0.0538 0.7492 0.5336
H21 H -0.7851 1.0246 0.6012
H22 H -0.5628 0.9970 0.6333
H23 H -0.7883 0.9280 0.6212
H24 H -0.4148 0.4690 0.7349
H25 H -0.5662 0.5494 0.7131
H26 H 0.1036 0.5975 0.8360
H27 H -0.0264 0.7442 0.8395
H28 H -0.3640 0.7961 0.7942
O2? O -0.030(70) 0.3850(40) 0.6010(20)
C8? C -0.060(13) 0.3990(40) 0.5570(20)
C9? C -0.116(18) 0.3010(40) 0.5440(20)
I2? I -0.4412(16) 0.2414(5) 0.5806(2)
H12? H 0.1059 0.4223 0.5439
H13? H 0.0459 0.2659 0.5485
H14? H -0.1614 0.2990 0.5150
loop_
_geom_bond_atom_site_label_1
_geom_bond_atom_site_label_2
_geom_bond_site_symmetry_1
_geom_bond_site_symmetry_2
Cl1 C20 1_555 1_555
Cl2 C24 1_555 1_555
C1 C2 1_555 1_555
C2 C3 1_555 1_555
C3 C4 1_555 1_555
C4 C5 1_555 1_555
C5 O4 1_555 1_555
O1 C4 1_555 1_555
C6 C2 1_555 1_555
C7 C6 1_555 1_555
I1 C7 1_555 1_555
C10 C11 1_555 1_555
C11 C12 1_555 1_555
C12 C13 1_555 1_555
C13 C14 1_555 1_555
C14 C15 1_555 1_555
C15 C16 1_555 1_555
C16 C11 1_555 1_555
C17 O5 1_555 1_555
C18 C19 1_555 1_555
C19 C20 1_555 1_555
C20 C21 1_555 1_555
C21 C22 1_555 1_555
C22 C23 1_555 1_555
C23 C24 1_555 1_555
C24 C19 1_555 1_555
O3 C3 1_555 1_555
O4 C18 1_555 1_555
O5 C14 1_555 1_555
H1 C1 1_555 1_555
H2 C1 1_555 1_555
H3 C1 1_555 1_555
H4 C2 1_555 1_555
H5 C3 1_555 1_555
H6 C4 1_555 1_555
H7 C5 1_555 1_555
H8 C5 1_555 1_555
H9 C6 1_555 1_555
H10 C7 1_555 1_555
H11 C7 1_555 1_555
H15 C10 1_555 1_555
H16 C10 1_555 1_555
H17 C12 1_555 1_555
H18 C13 1_555 1_555
H19 C15 1_555 1_555
H20 C16 1_555 1_555
H21 C17 1_555 1_555
H22 C17 1_555 1_555
H23 C17 1_555 1_555
H24 C18 1_555 1_555
H25 C18 1_555 1_555
H26 C21 1_555 1_555
H27 C22 1_555 1_555
H28 C23 1_555 1_555
O1 C6 1_555 1_555
C10 O3 1_555 1_555

#END
