
#######################################################################
#
#                 Cambridge Crystallographic Data Centre
#                                CCDC 
#
#######################################################################
#
# If this CIF has been generated from an entry in the Cambridge 
# Structural Database, then it will include bibliographic, chemical, 
# crystal, experimental, refinement or atomic coordinate data resulting 
# from the CCDC's data processing and validation procedures.
#
#######################################################################

data_BEJGII
_chemical_formula_moiety         'C43 H72 O12 Si1'
_chemical_name_systematic        
6-(4-((t-Butyl(dimethyl)silyl)oxy)-1-hydroxy-4-(8-((methoxymethoxy)(2-methyl-1,3-dioxolan-2-yl)methyl)-4,10-dimethyl-1,7-dioxaspiro[5.5]undec-2-yl)-3-methylbutyl)-4-((4-methoxybenzyl)oxy)-5-methyltetrahydro-2H-pyran-2-one
_symmetry_cell_setting           monoclinic
_symmetry_space_group_name_H-M   'P 21'
_symmetry_Int_Tables_number      4
_space_group_name_Hall           'P 2yb'
loop_
_symmetry_equiv_pos_site_id
_symmetry_equiv_pos_as_xyz
1 x,y,z
2 -x,1/2+y,-z
_cell_length_a                   15.566(9)
_cell_length_b                   8.643(5)
_cell_length_c                   19.095(12)
_cell_angle_alpha                90
_cell_angle_beta                 112.229(7)
_cell_angle_gamma                90
_cell_volume                     2378.05
_exptl_crystal_colour            colorless
_exptl_crystal_description       stick
_cell_formula_units_Z            2
loop_
_atom_site_label
_atom_site_type_symbol
_atom_site_fract_x
_atom_site_fract_y
_atom_site_fract_z
C1 C 1.1092(8) 0.276(2) 0.3353(6)
H1 H 1.1445 0.1945 0.3690
H2 H 1.1502 0.3621 0.3383
C2 C 1.0671(9) 0.2200(17) 0.2592(7)
H3 H 1.1009 0.2585 0.2293
H4 H 1.0689 0.1078 0.2588
C3 C 0.9484(6) 0.2964(12) 0.2914(5)
C4 C 0.9031(5) 0.1498(10) 0.3054(4)
H5 H 0.9471 0.0638 0.3147
C5 C 0.8681(5) 0.1580(10) 0.3713(4)
H6 H 0.8166 0.2317 0.3585
C6 C 0.9427(5) 0.2013(10) 0.4477(4)
H7 H 0.9502 0.3128 0.4509
H8 H 1.0015 0.1558 0.4520
C7 C 0.9162(5) 0.1435(9) 0.5138(4)
H9 H 0.9463 0.0430 0.5302
C8 C 0.8116(5) 0.1178(9) 0.4843(4)
H10 H 0.7946 0.0832 0.5256
H11 H 0.7804 0.2154 0.4660
C9 C 0.7789(5) 0.0003(8) 0.4213(4)
C10 C 0.7870(5) -0.1656(9) 0.4479(4)
H12 H 0.8520 -0.1898 0.4752
H13 H 0.7556 -0.1763 0.4830
C11 C 0.7465(6) -0.2808(9) 0.3846(4)
H14 H 0.7806 -0.2734 0.3508
C12 C 0.6460(5) -0.2350(9) 0.3406(4)
H15 H 0.6105 -0.2470 0.3724
H16 H 0.6192 -0.3022 0.2970
C13 C 0.6412(5) -0.0667(8) 0.3144(4)
H17 H 0.6732 -0.0592 0.2791
C14 C 0.5416(5) -0.0135(9) 0.2735(4)
H18 H 0.5128 -0.0849 0.2312
C15 C 0.5273(5) 0.1498(9) 0.2405(4)
H19 H 0.4617 0.1563 0.2070
C16 C 0.5827(6) 0.1697(9) 0.1899(4)
H20 H 0.5722 0.0802 0.1570
H21 H 0.6483 0.1726 0.2215
C17 C 0.5580(6) 0.3161(9) 0.1408(4)
H22 H 0.5617 0.4044 0.1740
C18 C 0.6263(6) 0.3463(10) 0.1006(4)
H23 H 0.6895 0.3456 0.1390
C19 C 0.6109(6) 0.4985(10) 0.0598(5)
H24 H 0.5442 0.5092 0.0306
C20 C 0.6598(7) 0.4967(12) 0.0036(5)
H25 H 0.6498 0.5952 -0.0238
C21 C 0.6205(9) 0.3662(15) -0.0506(5)
H26 H 0.5583 0.3942 -0.0844
H27 H 0.6577 0.3539 -0.0810
C22 C 0.8108(9) 0.5543(19) 0.0137(7)
H28 H 0.8015 0.6645 0.0175
H29 H 0.7910 0.5285 -0.0395
C23 C 0.9115(9) 0.5176(18) 0.0525(7)
C24 C 0.9599(10) 0.6098(19) 0.1085(7)
H30 H 0.9280 0.6873 0.1224
C25 C 1.0527(11) 0.6002(19) 0.1473(8)
H31 H 1.0836 0.6587 0.1904
C26 C 1.0968(11) 0.499(2) 0.1186(9)
C27 C 1.0576(10) 0.4037(17) 0.0642(7)
H32 H 1.0928 0.3346 0.0488
C28 C 0.9596(11) 0.4061(19) 0.0281(7)
H33 H 0.9283 0.3365 -0.0102
C29 C 1.2477(11) 0.405(2) 0.1307(8)
H34 H 1.2672 0.4703 0.0990
H35 H 1.2090 0.3235 0.1007
H36 H 1.3012 0.3601 0.1694
C30 C 0.8910(7) 0.4374(12) 0.2764(6)
H37 H 0.8337 0.4196 0.2344
H38 H 0.9237 0.5212 0.2646
H39 H 0.8782 0.4633 0.3204
C31 C 0.8166(7) -0.0264(11) 0.2077(5)
H40 H 0.7541 -0.0405 0.1707
H41 H 0.8265 -0.1017 0.2477
C32 C 0.8557(9) 0.0309(19) 0.1021(6)
H42 H 0.8287 0.1282 0.1068
H43 H 0.8115 -0.0282 0.0620
H44 H 0.9100 0.0488 0.0908
C33 C 0.9504(6) 0.2523(11) 0.5815(4)
H45 H 0.9434 0.2035 0.6242
H46 H 0.9148 0.3461 0.5695
H47 H 1.0147 0.2760 0.5936
C34 C 0.7542(7) -0.4482(11) 0.4144(6)
H48 H 0.7269 -0.5178 0.3727
H49 H 0.7222 -0.4566 0.4484
H50 H 0.8184 -0.4743 0.4407
C35 C 0.3994(12) -0.3241(19) 0.2900(13)
H51 H 0.4588 -0.3459 0.2878
H52 H 0.3512 -0.3530 0.2430
H53 H 0.3927 -0.3820 0.3305
C36 C 0.2997(8) -0.040(2) 0.2211(6)
H54 H 0.3270 0.0008 0.1877
H55 H 0.2641 0.0388 0.2330
H56 H 0.2598 -0.1255 0.1970
C37 C 0.3720(10) -0.091(3) 0.3939(8)
C38 C 0.2709(10) -0.147(2) 0.3828(9)
H57 H 0.2588 -0.1225 0.4273
H58 H 0.2659 -0.2564 0.3743
H59 H 0.2265 -0.0946 0.3399
C39 C 0.4426(12) -0.145(3) 0.4598(7)
H60 H 0.4670 -0.2403 0.4493
H61 H 0.4180 -0.1617 0.4983
H62 H 0.4913 -0.0692 0.4770
C40 C 0.3564(13) 0.108(3) 0.3956(12)
H63 H 0.4121 0.1552 0.4304
H64 H 0.3059 0.1299 0.4114
H65 H 0.3424 0.1500 0.3459
C41 C 0.5434(7) 0.2799(11) 0.2977(5)
H66 H 0.6089 0.2928 0.3254
H67 H 0.5139 0.2548 0.3322
H68 H 0.5178 0.3743 0.2717
C42 C 0.6160(7) 0.2147(16) -0.0153(6)
C43 C 0.6413(8) 0.6342(12) 0.1143(6)
H69 H 0.7033 0.6165 0.1501
H70 H 0.6000 0.6444 0.1407
H71 H 0.6400 0.7274 0.0866
O1 O 1.0344(4) 0.3225(7) 0.3542(3)
O2 O 0.9760(5) 0.2708(8) 0.2288(3)
O3 O 0.8247(4) 0.1196(7) 0.2376(3)
O4 O 0.8812(5) -0.0541(9) 0.1725(4)
O5 O 0.8352(3) 0.0065(6) 0.3766(3)
O6 O 0.6864(3) 0.0349(5) 0.3766(3)
O7 O 0.4913(3) -0.0281(6) 0.3231(3)
O8 O 0.4653(4) 0.3054(8) 0.0879(4)
H72 H 0.4504 0.2141 0.0803
O9 O 0.6153(4) 0.2107(7) 0.0523(3)
O10 O 0.6110(5) 0.0979(10) -0.0506(4)
O11 O 0.7560(5) 0.4729(8) 0.0450(4)
O12 O 1.1965(8) 0.4938(15) 0.1650(6)
Si1 Si 0.3904(2) -0.1069(5) 0.30737(19)
loop_
_geom_bond_atom_site_label_1
_geom_bond_atom_site_label_2
_geom_bond_site_symmetry_1
_geom_bond_site_symmetry_2
C1 H1 1_555 1_555
H2 C1 1_555 1_555
C2 C1 1_555 1_555
H3 C2 1_555 1_555
H4 C2 1_555 1_555
C3 C4 1_555 1_555
C4 H5 1_555 1_555
C5 C4 1_555 1_555
H6 C5 1_555 1_555
C6 C5 1_555 1_555
H7 C6 1_555 1_555
H8 C6 1_555 1_555
C7 C6 1_555 1_555
H9 C7 1_555 1_555
C8 C7 1_555 1_555
H10 C8 1_555 1_555
H11 C8 1_555 1_555
C9 C8 1_555 1_555
C10 C9 1_555 1_555
H12 C10 1_555 1_555
H13 C10 1_555 1_555
C11 C10 1_555 1_555
H14 C11 1_555 1_555
C12 C11 1_555 1_555
H15 C12 1_555 1_555
H16 C12 1_555 1_555
C13 C12 1_555 1_555
H17 C13 1_555 1_555
C14 C13 1_555 1_555
H18 C14 1_555 1_555
C15 C14 1_555 1_555
H19 C15 1_555 1_555
C16 C15 1_555 1_555
H20 C16 1_555 1_555
H21 C16 1_555 1_555
C17 C16 1_555 1_555
H22 C17 1_555 1_555
C18 C17 1_555 1_555
H23 C18 1_555 1_555
C19 C18 1_555 1_555
H24 C19 1_555 1_555
C20 C19 1_555 1_555
H25 C20 1_555 1_555
C21 C20 1_555 1_555
H26 C21 1_555 1_555
H27 C21 1_555 1_555
C22 H28 1_555 1_555
H29 C22 1_555 1_555
C23 C22 1_555 1_555
C24 C23 1_555 1_555
H30 C24 1_555 1_555
C25 C24 1_555 1_555
H31 C25 1_555 1_555
C26 C25 1_555 1_555
C27 C26 1_555 1_555
H32 C27 1_555 1_555
C28 C23 1_555 1_555
H33 C28 1_555 1_555
C29 H34 1_555 1_555
H35 C29 1_555 1_555
H36 C29 1_555 1_555
C30 C3 1_555 1_555
H37 C30 1_555 1_555
H38 C30 1_555 1_555
H39 C30 1_555 1_555
C31 H40 1_555 1_555
H41 C31 1_555 1_555
C32 H42 1_555 1_555
H43 C32 1_555 1_555
H44 C32 1_555 1_555
C33 C7 1_555 1_555
H45 C33 1_555 1_555
H46 C33 1_555 1_555
H47 C33 1_555 1_555
C34 C11 1_555 1_555
H48 C34 1_555 1_555
H49 C34 1_555 1_555
H50 C34 1_555 1_555
C35 H51 1_555 1_555
H52 C35 1_555 1_555
H53 C35 1_555 1_555
C36 H54 1_555 1_555
H55 C36 1_555 1_555
H56 C36 1_555 1_555
C37 C38 1_555 1_555
C38 H57 1_555 1_555
H58 C38 1_555 1_555
H59 C38 1_555 1_555
C39 C37 1_555 1_555
H60 C39 1_555 1_555
H61 C39 1_555 1_555
H62 C39 1_555 1_555
C40 C37 1_555 1_555
H63 C40 1_555 1_555
H64 C40 1_555 1_555
H65 C40 1_555 1_555
C41 C15 1_555 1_555
H66 C41 1_555 1_555
H67 C41 1_555 1_555
H68 C41 1_555 1_555
C42 C21 1_555 1_555
C43 C19 1_555 1_555
H69 C43 1_555 1_555
H70 C43 1_555 1_555
H71 C43 1_555 1_555
O1 C1 1_555 1_555
O2 C2 1_555 1_555
O3 C4 1_555 1_555
O4 C31 1_555 1_555
O5 C5 1_555 1_555
O6 C9 1_555 1_555
O7 C14 1_555 1_555
O8 C17 1_555 1_555
H72 O8 1_555 1_555
O9 C18 1_555 1_555
O10 C42 1_555 1_555
O11 C20 1_555 1_555
O12 C26 1_555 1_555
Si1 C35 1_555 1_555
C3 O1 1_555 1_555
C3 O2 1_555 1_555
C9 O5 1_555 1_555
C13 O6 1_555 1_555
C22 O11 1_555 1_555
C27 C28 1_555 1_555
C29 O12 1_555 1_555
C31 O3 1_555 1_555
C32 O4 1_555 1_555
C36 Si1 1_555 1_555
C37 Si1 1_555 1_555
C42 O9 1_555 1_555
O7 Si1 1_555 1_555

#END
