
#######################################################################
#
#                 Cambridge Crystallographic Data Centre
#                                CCDC 
#
#######################################################################
#
# If this CIF has been generated from an entry in the Cambridge 
# Structural Database, then it will include bibliographic, chemical, 
# crystal, experimental, refinement or atomic coordinate data resulting 
# from the CCDC's data processing and validation procedures.
#
#######################################################################

data_BELFEG
_chemical_formula_moiety         'C17 H13 Cl1 O4'
_chemical_name_systematic        
3-(4-chlorophenyl)-5,7-dimethoxy-4H-chromen-4-one
_symmetry_cell_setting           monoclinic
_symmetry_space_group_name_H-M   'P 21/c'
_symmetry_Int_Tables_number      14
_space_group_name_Hall           '-P 2ybc'
loop_
_symmetry_equiv_pos_site_id
_symmetry_equiv_pos_as_xyz
1 x,y,z
2 -x,1/2+y,1/2-z
3 -x,-y,-z
4 x,1/2-y,1/2+z
_cell_length_a                   5.3053(3)
_cell_length_b                   20.9803(14)
_cell_length_c                   13.2248(7)
_cell_angle_alpha                90
_cell_angle_beta                 99.352(2)
_cell_angle_gamma                90
_cell_volume                     1452.44
_exptl_crystal_colour            gold
_exptl_crystal_description       block
_cell_formula_units_Z            4
loop_
_atom_site_label
_atom_site_type_symbol
_atom_site_fract_x
_atom_site_fract_y
_atom_site_fract_z
C1 C 0.6176(4) 0.36909(11) -0.00549(17)
H1 H 0.5785 0.3750 -0.0760
C2 C 0.4873(4) 0.40079(10) 0.06015(17)
C3 C 0.5466(4) 0.39189(11) 0.16590(17)
H2 H 0.4567 0.4141 0.2094
C4 C 0.7368(4) 0.35052(10) 0.20607(15)
C5 C 0.8807(4) 0.31661(10) 0.14122(15)
C6 C 0.8099(4) 0.32780(10) 0.03668(15)
C7 C 1.0941(5) 0.24975(11) -0.00276(16)
H3 H 1.1617 0.2271 -0.0526
C8 C 1.1685(4) 0.23307(10) 0.09514(14)
C9 C 1.0789(4) 0.26956(10) 0.17694(14)
C10 C 1.3374(4) 0.17707(10) 0.11948(15)
C11 C 1.2763(4) 0.11962(11) 0.06946(17)
H4 H 1.1273 0.1167 0.0217
C12 C 1.4310(4) 0.06672(11) 0.08877(18)
H5 H 1.3858 0.0285 0.0551
C13 C 1.6522(4) 0.07126(11) 0.15828(17)
C14 C 1.7187(4) 0.12748(11) 0.20985(17)
H6 H 1.8697 0.1303 0.2565
C15 C 1.5589(4) 0.17951(10) 0.19156(16)
H7 H 1.6003 0.2169 0.2282
C16 C 0.2103(5) 0.45032(14) -0.0774(2)
H8 H 0.0732 0.4807 -0.0885
H9 H 0.3501 0.4655 -0.1087
H10 H 0.1520 0.4102 -0.1073
C17 C 0.6331(5) 0.36366(13) 0.37334(17)
H11 H 0.6954 0.3516 0.4429
H12 H 0.6302 0.4093 0.3679
H13 H 0.4634 0.3473 0.3532
O1 O 0.2931(3) 0.44231(8) 0.03005(13)
O2 O 0.7971(3) 0.33805(8) 0.30785(11)
O3 O 1.1637(3) 0.25912(8) 0.26719(11)
O4 O 0.9278(3) 0.29712(8) -0.03431(11)
Cl1 Cl 1.85219(13) 0.00498(3) 0.18125(5)
loop_
_geom_bond_atom_site_label_1
_geom_bond_atom_site_label_2
_geom_bond_site_symmetry_1
_geom_bond_site_symmetry_2
C1 H1 1_555 1_555
C2 C1 1_555 1_555
C3 C2 1_555 1_555
H2 C3 1_555 1_555
C4 C3 1_555 1_555
C5 C4 1_555 1_555
C6 C1 1_555 1_555
C7 H3 1_555 1_555
C8 C7 1_555 1_555
C9 C5 1_555 1_555
C10 C8 1_555 1_555
C11 C10 1_555 1_555
H4 C11 1_555 1_555
C12 C11 1_555 1_555
H5 C12 1_555 1_555
C13 C12 1_555 1_555
C14 C13 1_555 1_555
H6 C14 1_555 1_555
C15 C10 1_555 1_555
H7 C15 1_555 1_555
C16 H8 1_555 1_555
H9 C16 1_555 1_555
H10 C16 1_555 1_555
C17 H11 1_555 1_555
H12 C17 1_555 1_555
H13 C17 1_555 1_555
O1 C2 1_555 1_555
O2 C4 1_555 1_555
O3 C9 1_555 1_555
O4 C6 1_555 1_555
Cl1 C13 1_555 1_555
C5 C6 1_555 1_555
C7 O4 1_555 1_555
C8 C9 1_555 1_555
C14 C15 1_555 1_555
C16 O1 1_555 1_555
C17 O2 1_555 1_555

#END
