
#######################################################################
#
#                 Cambridge Crystallographic Data Centre
#                                CCDC 
#
#######################################################################
#
# If this CIF has been generated from an entry in the Cambridge 
# Structural Database, then it will include bibliographic, chemical, 
# crystal, experimental, refinement or atomic coordinate data resulting 
# from the CCDC's data processing and validation procedures.
#
#######################################################################

data_BELTIW
_chemical_formula_moiety         'C30 H27 N3'
_chemical_name_systematic        2,4,6-tris(4-Methylstyryl)-1,3,5-s-triazine
_symmetry_cell_setting           orthorhombic
_symmetry_space_group_name_H-M   'P m n 21'
_symmetry_Int_Tables_number      31
_space_group_name_Hall           'P 2ac -2'
loop_
_symmetry_equiv_pos_site_id
_symmetry_equiv_pos_as_xyz
1 x,y,z
2 1/2-x,-y,1/2+z
3 1/2+x,-y,1/2+z
4 -x,y,z
_cell_length_a                   24.218(4)
_cell_length_b                   6.1945(5)
_cell_length_c                   8.1438(5)
_cell_angle_alpha                90
_cell_angle_beta                 90
_cell_angle_gamma                90
_cell_volume                     1221.72
_exptl_crystal_colour            'pale yellow'
_exptl_crystal_description       plate
_chemical_melting_point          '408-410 K'
_cell_formula_units_Z            2
_exptl_crystal_recrystallization_method benzene/ethanol
loop_
_atom_site_label
_atom_site_type_symbol
_atom_site_fract_x
_atom_site_fract_y
_atom_site_fract_z
N1 N 0.0447(3) -0.1634(14) 0.8327(9)
N2 N 0.0000 -0.4275(13) 0.9471(11)
C1 C 0.3271(2) 0.5222(12) 0.6440(11)
H1 H 0.3167 0.6549 0.5916
H2 H 0.3523 0.4449 0.5744
H3 H 0.3448 0.5533 0.7469
C2 C 0.2751(2) 0.3831(10) 0.6745(10)
C3 C 0.2244(3) 0.4585(12) 0.6237(9)
H4 H 0.2219 0.5901 0.5693
C4 C 0.1776(3) 0.3395(16) 0.6532(11)
H5 H 0.1436 0.3946 0.6205
C5 C 0.1793(3) 0.1399(14) 0.7301(10)
C6 C 0.2310(3) 0.0636(11) 0.7783(12)
H6 H 0.2342 -0.0685 0.8318
C7 C 0.2777(2) 0.1870(11) 0.7457(10)
H7 H 0.3121 0.1319 0.7742
C8 C 0.1186(6) 0.081(3) 0.742(2)
C10 C 0.1096(5) -0.112(3) 0.8140(18)
C12 C 0.0000 -0.0625(13) 0.7890(12)
H8 H 0.0000 0.0680 0.7325
C13 C 0.04857(19) -0.3436(10) 0.9126(8)
H9 H 0.0820 -0.4067 0.9422
C14 C 0.0196(4) -0.631(2) 1.0427(19)
C15 C 0.0211(4) -0.743(2) 1.1122(18)
C16 C 0.0000 -0.9393(15) 1.2188(13)
C17 C 0.0474(3) -1.0323(13) 1.2656(12)
H10 H 0.0807 -0.9721 1.2323
C18 C 0.0480(3) -1.2140(12) 1.3615(11)
H11 H 0.0816 -1.2729 1.3933
C19 C 0.0000 -1.3102(13) 1.4111(12)
C20 C 0.0000 -1.5177(15) 1.5102(15)
N1C N -0.0447(3) -0.1634(14) 0.8327(9)
C10C C -0.1096(5) -0.112(3) 0.8140(18)
C8C C -0.1186(6) 0.081(3) 0.742(2)
C5C C -0.1793(3) 0.1399(14) 0.7301(10)
C4C C -0.1776(3) 0.3395(16) 0.6532(11)
C3C C -0.2244(3) 0.4585(12) 0.6237(9)
C2C C -0.2751(2) 0.3831(10) 0.6745(10)
C1C C -0.3271(2) 0.5222(12) 0.6440(11)
H1C H -0.3167 0.6549 0.5916
H2C H -0.3523 0.4449 0.5744
H3C H -0.3448 0.5533 0.7469
C7C C -0.2777(2) 0.1870(11) 0.7457(10)
C6C C -0.2310(3) 0.0636(11) 0.7783(12)
H6C H -0.2342 -0.0685 0.8318
H7C H -0.3121 0.1319 0.7742
H4C H -0.2219 0.5901 0.5693
H5C H -0.1436 0.3946 0.6205
C13C C -0.04857(19) -0.3436(10) 0.9126(8)
C14C C -0.0196(4) -0.631(2) 1.0427(19)
C15C C -0.0211(4) -0.743(2) 1.1122(18)
C18C C -0.0480(3) -1.2140(12) 1.3615(11)
C17C C -0.0474(3) -1.0323(13) 1.2656(12)
H10C H -0.0807 -0.9721 1.2323
H11C H -0.0816 -1.2729 1.3933
H9C H -0.0820 -0.4067 0.9422
C9? C 0.1373(8) -0.031(3) 0.7906(19)
C11? C 0.0848(7) 0.011(2) 0.7669(16)
loop_
_geom_bond_atom_site_label_1
_geom_bond_atom_site_label_2
_geom_bond_site_symmetry_1
_geom_bond_site_symmetry_2
N1 C10 1_555 1_555
N2 C13 1_555 1_555
C1 H1 1_555 1_555
H2 C1 1_555 1_555
H3 C1 1_555 1_555
C2 C1 1_555 1_555
C3 C2 1_555 1_555
H4 C3 1_555 1_555
C4 C3 1_555 1_555
H5 C4 1_555 1_555
C5 C4 1_555 1_555
C6 C5 1_555 1_555
H6 C6 1_555 1_555
C7 C2 1_555 1_555
H7 C7 1_555 1_555
C8 C5 1_555 1_555
C10 C8 1_555 1_555
C12 N1 1_555 1_555
H8 C12 1_555 1_555
C13 N1 1_555 1_555
H9 C13 1_555 1_555
C14 N2 1_555 1_555
C15 C14 1_555 1_555
C16 C15 1_555 1_555
C17 C16 1_555 1_555
H10 C17 1_555 1_555
C18 C17 1_555 1_555
H11 C18 1_555 1_555
C19 C18 1_555 1_555
C20 C19 1_555 1_555
N1C C12 1_555 1_555
C10C N1C 1_555 1_555
C8C C10C 1_555 1_555
C5C C8C 1_555 1_555
C4C C5C 1_555 1_555
C3C C4C 1_555 1_555
C2C C3C 1_555 1_555
C1C C2C 1_555 1_555
H1C C1C 1_555 1_555
H2C C1C 1_555 1_555
H3C C1C 1_555 1_555
C7C C2C 1_555 1_555
C6C C5C 1_555 1_555
H6C C6C 1_555 1_555
H7C C7C 1_555 1_555
H4C C3C 1_555 1_555
H5C C4C 1_555 1_555
C13C N2 1_555 1_555
C14C N2 1_555 1_555
C15C C14 1_555 1_555
C18C C19 1_555 1_555
C17C C16 1_555 1_555
H10C C17C 1_555 1_555
H11C C18C 1_555 1_555
H9C C13C 1_555 1_555
C6 C7 1_555 1_555
C14 C14C 1_555 1_555
C15 C14C 1_555 1_555
C15 C15C 1_555 1_555
C16 C15C 1_555 1_555
N1C C13C 1_555 1_555
C7C C6C 1_555 1_555
C14C C15C 1_555 1_555
C18C C17C 1_555 1_555

#END
