
#######################################################################
#
#                 Cambridge Crystallographic Data Centre
#                                CCDC 
#
#######################################################################
#
# If this CIF has been generated from an entry in the Cambridge 
# Structural Database, then it will include bibliographic, chemical, 
# crystal, experimental, refinement or atomic coordinate data resulting 
# from the CCDC's data processing and validation procedures.
#
#######################################################################

data_BEMDIJ
_chemical_formula_moiety         'C13 H13 N1 O4 S1'
_chemical_name_systematic        
'benzyl 3-(2,5-dioxo-1,3-thiazolidin-4-yl)propanoate'
_symmetry_cell_setting           monoclinic
_symmetry_space_group_name_H-M   'P 21/c'
_symmetry_Int_Tables_number      14
_space_group_name_Hall           '-P 2ybc'
loop_
_symmetry_equiv_pos_site_id
_symmetry_equiv_pos_as_xyz
1 x,y,z
2 -x,1/2+y,1/2-z
3 -x,-y,-z
4 x,1/2-y,1/2+z
_cell_length_a                   13.6224(7)
_cell_length_b                   9.1977(4)
_cell_length_c                   10.4122(5)
_cell_angle_alpha                90
_cell_angle_beta                 93.725(2)
_cell_angle_gamma                90
_cell_volume                     1301.84
_exptl_crystal_colour            colorless
_exptl_crystal_description       needle
_cell_formula_units_Z            4
loop_
_atom_site_label
_atom_site_type_symbol
_atom_site_fract_x
_atom_site_fract_y
_atom_site_fract_z
S1 S 1.115871(17) 0.34164(3) 0.64548(3)
O1 O 1.12033(4) 0.07290(7) 0.55306(8)
O2 O 0.98095(5) 0.54745(7) 0.66487(8)
O3 O 0.62105(5) 0.07895(8) 0.72219(6)
O4 O 0.73262(5) 0.15249(9) 0.87795(6)
N1 N 0.96948(4) 0.18627(7) 0.54919(7)
H1 H 0.9398(10) 0.1112(16) 0.5163(13)
C1 C 1.06689(6) 0.17674(10) 0.57450(16)
C2 C 0.91836(5) 0.31472(7) 0.58976(7)
H2 H 0.8784 0.3566 0.5147
C3 C 0.99711(6) 0.42295(8) 0.63636(8)
C4 C 0.85148(5) 0.28368(8) 0.69961(7)
H3 H 0.8903 0.2357 0.7713
H4 H 0.8261 0.3767 0.7321
C5 C 0.76526(5) 0.18658(9) 0.65532(7)
H5 H 0.7220 0.2397 0.5912
H6 H 0.7905 0.0992 0.6127
C6 C 0.70605(5) 0.13996(8) 0.76540(7)
C7 C 0.56400(7) 0.00635(9) 0.81801(8)
H7 H 0.6078 -0.0174 0.8948
H8 H 0.5369 -0.0859 0.7817
C8 C 0.48130(5) 0.10057(8) 0.85724(7)
C9 C 0.49943(5) 0.22020(9) 0.93829(8)
H9 H 0.5651 0.2439 0.9671
C10 C 0.42204(7) 0.30446(10) 0.97690(10)
H10 H 0.4349 0.3858 1.0317
C11 C 0.32563(7) 0.27007(12) 0.93556(13)
H11 H 0.2729 0.3279 0.9622
C12 C 0.30664(7) 0.15248(13) 0.85621(13)
H12 H 0.2407 0.1287 0.8287
C13 C 0.38411(6) 0.06791(11) 0.81596(10)
H13 H 0.3706 -0.0124 0.7602
S2? S 1.1242(5) 0.3408(8) 0.6121(7)
O5? O 1.1157(12) 0.0818(18) 0.5069(17)
O6? O 0.9973(12) 0.5268(16) 0.7026(17)
O7? O 0.6480(12) 0.090(2) 0.7241(16)
O8? O 0.7586(11) 0.2095(17) 0.8450(13)
N2? N 0.9790(12) 0.1719(18) 0.589(2)
H14? H 0.9395 0.1092 0.5481
C14? C 1.0754(17) 0.164(3) 0.576(5)
C15? C 0.9376(10) 0.2820(17) 0.6701(17)
H15? H 0.9315 0.2433 0.7590
C16? C 1.0147(11) 0.4035(17) 0.672(2)
C17? C 0.8393(10) 0.3393(18) 0.6154(19)
H16? H 0.8469 0.3759 0.5272
H17? H 0.8195 0.4223 0.6685
C18? C 0.7265(13) 0.176(2) 0.7356(15)
C19? C 0.6002(16) 0.030(2) 0.8313(19)
H18? H 0.6432 0.0455 0.9103
H19? H 0.5941 -0.0768 0.8184
C20? C 0.7579(13) 0.225(2) 0.6108(17)
H20? H 0.6998 0.2653 0.5607
H21? H 0.7806 0.1394 0.5634
loop_
_geom_bond_atom_site_label_1
_geom_bond_atom_site_label_2
_geom_bond_site_symmetry_1
_geom_bond_site_symmetry_2
S1 C1 1_555 1_555
O1 C1 1_555 1_555
O2 C3 1_555 1_555
O3 C6 1_555 1_555
O4 C6 1_555 1_555
N1 H1 1_555 1_555
C1 N1 1_555 1_555
C2 N1 1_555 1_555
H2 C2 1_555 1_555
C3 S1 1_555 1_555
C4 C2 1_555 1_555
H3 C4 1_555 1_555
H4 C4 1_555 1_555
C5 C4 1_555 1_555
H5 C5 1_555 1_555
H6 C5 1_555 1_555
C6 C5 1_555 1_555
C7 O3 1_555 1_555
H7 C7 1_555 1_555
H8 C7 1_555 1_555
C8 C7 1_555 1_555
C9 C8 1_555 1_555
H9 C9 1_555 1_555
C10 C9 1_555 1_555
H10 C10 1_555 1_555
C11 C10 1_555 1_555
H11 C11 1_555 1_555
C12 C11 1_555 1_555
H12 C12 1_555 1_555
C13 C8 1_555 1_555
H13 C13 1_555 1_555
C2 C3 1_555 1_555
C12 C13 1_555 1_555

#END
