
#######################################################################
#
#                 Cambridge Crystallographic Data Centre
#                                CCDC 
#
#######################################################################
#
# If this CIF has been generated from an entry in the Cambridge 
# Structural Database, then it will include bibliographic, chemical, 
# crystal, experimental, refinement or atomic coordinate data resulting 
# from the CCDC's data processing and validation procedures.
#
#######################################################################

data_BEMRUI
_chemical_compound_source        'leaves and stems of Daphniphyllum macropodum'
_chemical_name_common            'daphmacromine A'
_chemical_formula_moiety         'C25 H37 N1 O5'
_chemical_name_systematic        
"Ethyl 6'-ethyl-6'-methoxy-3-methyl-9-oxo-5',6'-dihydro-4'H-spiro[3-azatetracyclo[6.5.1.1^1,5^.0^11,14^]pentadec-8(14)-ene-15,3'-pyran]-12-carboxylate"
_symmetry_cell_setting           tetragonal
_symmetry_space_group_name_H-M   'P 41'
_symmetry_Int_Tables_number      76
_space_group_name_Hall           'P 4w'
loop_
_symmetry_equiv_pos_site_id
_symmetry_equiv_pos_as_xyz
1 x,y,z
2 -y,x,1/4+z
3 y,-x,3/4+z
4 -x,-y,1/2+z
_cell_length_a                   14.3257(4)
_cell_length_b                   14.3257(4)
_cell_length_c                   11.4299(3)
_cell_angle_alpha                90
_cell_angle_beta                 90
_cell_angle_gamma                90
_cell_volume                     2345.71
_exptl_crystal_colour            colorless
_exptl_crystal_description       prism
_cell_formula_units_Z            4
loop_
_atom_site_label
_atom_site_type_symbol
_atom_site_fract_x
_atom_site_fract_y
_atom_site_fract_z
O1 O 0.67845(9) 0.86506(10) 1.07511(11)
O2 O 0.72198(12) 0.53847(13) 0.91161(19)
O3 O 0.82570(10) 0.81511(11) 1.13524(13)
O4 O 0.35714(9) 0.73631(12) 0.69494(15)
O5 O 0.57655(11) 0.59248(13) 0.91284(16)
C1 C 0.69222(12) 0.79731(12) 0.75239(16)
C2 C 0.8457(2) 1.0002(2) 1.2567(2)
H1 H 0.8856 0.9479 1.2806
H2 H 0.8310 1.0387 1.3251
H3 H 0.8785 1.0381 1.1984
C3 C 0.75655(18) 0.96285(18) 1.2044(2)
H4 H 0.7191 1.0161 1.1752
H5 H 0.7201 0.9320 1.2670
C4 C 0.77028(14) 0.89355(15) 1.10439(18)
C5 C 0.67228(13) 0.80705(13) 0.97363(17)
H6 H 0.6072 0.7852 0.9641
H7 H 0.7126 0.7516 0.9842
C6 C 0.70237(12) 0.85956(12) 0.86383(17)
C7 C 0.74805(12) 0.70325(13) 0.75513(19)
H8 H 0.7924 0.7007 0.6888
H9 H 0.7840 0.6983 0.8289
C8 C 0.67647(13) 0.62183(13) 0.7462(2)
H10 H 0.7037 0.5705 0.6977
C9 C 0.65006(14) 0.58405(14) 0.8646(2)
C10 C 0.7046(2) 0.4958(3) 1.0262(4)
H11 H 0.6652 0.5378 1.0740
H12 H 0.6709 0.4361 1.0159
C11 C 0.7925(3) 0.4792(3) 1.0855(4)
H13 H 0.8344 0.4444 1.0337
H14 H 0.7812 0.4429 1.1568
H15 H 0.8212 0.5391 1.1061
C12 C 0.79154(19) 0.7592(2) 1.2287(3)
H16 H 0.7975 0.7936 1.3024
H17 H 0.8279 0.7014 1.2332
H18 H 0.7257 0.7442 1.2148
C13 C 0.59430(12) 0.76483(13) 0.72860(16)
C14 C 0.59635(13) 0.66786(14) 0.67892(18)
H19 H 0.6164 0.6731 0.5954
C15 C 0.49439(14) 0.63773(16) 0.6789(2)
H20 H 0.4766 0.6106 0.6024
H21 H 0.4823 0.5912 0.7411
C16 C 0.44162(13) 0.72743(15) 0.70201(18)
C17 C 0.50825(12) 0.80016(14) 0.73781(16)
C18 C 0.47919(14) 0.89649(15) 0.77166(19)
H22 H 0.4137 0.8942 0.7992
H23 H 0.4808 0.9364 0.7010
C19 C 0.53832(14) 0.94260(14) 0.8663(2)
H24 H 0.5284 0.9076 0.9399
H25 H 0.5136 1.0064 0.8788
C20 C 0.64446(14) 0.95075(13) 0.84651(17)
H26 H 0.6669 0.9942 0.9090
C21 C 0.66953(15) 0.99875(14) 0.73141(18)
H27 H 0.6274 1.0527 0.7195
H28 H 0.7342 1.0228 0.7364
N1 N 0.66207(12) 0.93621(11) 0.63123(14)
C22 C 0.72070(13) 0.85434(13) 0.64412(16)
H29 H 0.7867 0.8739 0.6518
H30 H 0.7152 0.8149 0.5734
C23 C 0.68269(18) 0.98565(18) 0.5233(2)
H31 H 0.7480 1.0059 0.5238
H32 H 0.6419 1.0403 0.5167
H33 H 0.6721 0.9441 0.4565
C24 C 0.80582(13) 0.88436(13) 0.88548(17)
H34 H 0.8431 0.8262 0.8872
H35 H 0.8289 0.9230 0.8197
C25 C 0.82046(14) 0.93752(14) 1.00041(18)
H36 H 0.8881 0.9403 1.0176
H37 H 0.7980 1.0024 0.9905
loop_
_geom_bond_atom_site_label_1
_geom_bond_atom_site_label_2
_geom_bond_site_symmetry_1
_geom_bond_site_symmetry_2
O1 C4 1_555 1_555
O2 C9 1_555 1_555
O3 C4 1_555 1_555
O4 C16 1_555 1_555
O5 C9 1_555 1_555
C1 C6 1_555 1_555
C2 H1 1_555 1_555
H2 C2 1_555 1_555
H3 C2 1_555 1_555
C3 C2 1_555 1_555
H4 C3 1_555 1_555
H5 C3 1_555 1_555
C4 C3 1_555 1_555
C5 O1 1_555 1_555
H6 C5 1_555 1_555
H7 C5 1_555 1_555
C6 C5 1_555 1_555
C7 C1 1_555 1_555
H8 C7 1_555 1_555
H9 C7 1_555 1_555
C8 C7 1_555 1_555
H10 C8 1_555 1_555
C9 C8 1_555 1_555
C10 O2 1_555 1_555
H11 C10 1_555 1_555
H12 C10 1_555 1_555
C11 C10 1_555 1_555
H13 C11 1_555 1_555
H14 C11 1_555 1_555
H15 C11 1_555 1_555
C12 O3 1_555 1_555
H16 C12 1_555 1_555
H17 C12 1_555 1_555
H18 C12 1_555 1_555
C13 C1 1_555 1_555
C14 C8 1_555 1_555
H19 C14 1_555 1_555
C15 C14 1_555 1_555
H20 C15 1_555 1_555
H21 C15 1_555 1_555
C16 C15 1_555 1_555
C17 C13 1_555 1_555
C18 C17 1_555 1_555
H22 C18 1_555 1_555
H23 C18 1_555 1_555
C19 C18 1_555 1_555
H24 C19 1_555 1_555
H25 C19 1_555 1_555
C20 C6 1_555 1_555
H26 C20 1_555 1_555
C21 C20 1_555 1_555
H27 C21 1_555 1_555
H28 C21 1_555 1_555
N1 C21 1_555 1_555
C22 C1 1_555 1_555
H29 C22 1_555 1_555
H30 C22 1_555 1_555
C23 N1 1_555 1_555
H31 C23 1_555 1_555
H32 C23 1_555 1_555
H33 C23 1_555 1_555
C24 C6 1_555 1_555
H34 C24 1_555 1_555
H35 C24 1_555 1_555
C25 C4 1_555 1_555
H36 C25 1_555 1_555
H37 C25 1_555 1_555
C13 C14 1_555 1_555
C16 C17 1_555 1_555
C19 C20 1_555 1_555
N1 C22 1_555 1_555
C24 C25 1_555 1_555

#END
