
#######################################################################
#
#                 Cambridge Crystallographic Data Centre
#                                CCDC 
#
#######################################################################
#
# If this CIF has been generated from an entry in the Cambridge 
# Structural Database, then it will include bibliographic, chemical, 
# crystal, experimental, refinement or atomic coordinate data resulting 
# from the CCDC's data processing and validation procedures.
#
#######################################################################

data_BEMYAU
_chemical_formula_moiety         'C36 H36'
_chemical_name_systematic        
5,6-Di-n-butyl-11,12-diphenyl-dibenzo(a,e)cyclooctene
_symmetry_cell_setting           rhombohedral
_symmetry_space_group_name_H-M   'R -3'
_symmetry_Int_Tables_number      148
_space_group_name_Hall           '-R 3'
loop_
_symmetry_equiv_pos_site_id
_symmetry_equiv_pos_as_xyz
1 x,y,z
2 -y,x-y,z
3 -x+y,-x,z
4 2/3+x,1/3+y,1/3+z
5 2/3-y,1/3+x-y,1/3+z
6 2/3-x+y,1/3-x,1/3+z
7 1/3+x,2/3+y,2/3+z
8 1/3-y,2/3+x-y,2/3+z
9 1/3-x+y,2/3-x,2/3+z
10 -x,-y,-z
11 y,-x+y,-z
12 x-y,x,-z
13 1/3-x,2/3-y,2/3-z
14 1/3+y,2/3-x+y,2/3-z
15 1/3+x-y,2/3+x,2/3-z
16 2/3-x,1/3-y,1/3-z
17 2/3+y,1/3-x+y,1/3-z
18 2/3+x-y,1/3+x,1/3-z
_cell_length_a                   41.160(9)
_cell_length_b                   41.160(9)
_cell_length_c                   9.079(3)
_cell_angle_alpha                90
_cell_angle_beta                 90
_cell_angle_gamma                120
_cell_volume                     13320.5
_exptl_crystal_colour            colorless
_exptl_crystal_description       prism
_chemical_melting_point          '109-111 deg.C'
_cell_formula_units_Z            18
loop_
_atom_site_label
_atom_site_type_symbol
_atom_site_fract_x
_atom_site_fract_y
_atom_site_fract_z
C1 C 0.0822(2) 0.5282(2) 0.5370(8)
C2 C 0.0542(2) 0.4935(2) 0.5625(8)
C3 C 0.0326(2) 0.48180(18) 0.7020(8)
C4 C 0.0493(2) 0.48019(18) 0.8332(9)
C5 C 0.0889(2) 0.4899(2) 0.8536(7)
C6 C 0.1165(2) 0.5245(2) 0.8205(7)
C7 C 0.10681(18) 0.55462(19) 0.7935(8)
C8 C 0.0915(2) 0.5570(2) 0.6569(8)
C9 C 0.08404(18) 0.5857(2) 0.6336(8)
H1 H 0.0748 0.5877 0.5425
C10 C 0.0899(2) 0.6117(2) 0.7418(10)
H2 H 0.0835 0.6301 0.7253
C11 C 0.1053(2) 0.6100(2) 0.8747(9)
H3 H 0.1110 0.6285 0.9453
C12 C 0.11241(18) 0.5806(2) 0.9042(7)
H4 H 0.1208 0.5785 0.9967
C13 C -0.0048(2) 0.47159(19) 0.6989(9)
H5 H -0.0154 0.4728 0.6101
C14 C -0.0268(2) 0.4597(2) 0.8228(10)
H6 H -0.0518 0.4538 0.8174
C15 C -0.0123(2) 0.45643(18) 0.9559(9)
H7 H -0.0272 0.4479 1.0398
C16 C 0.0254(2) 0.46632(18) 0.9602(8)
H8 H 0.0354 0.4639 1.0486
C17 C 0.0941(2) 0.4588(2) 0.9085(8)
C18 C 0.0680(2) 0.4214(3) 0.8711(8)
H9 H 0.0479 0.4163 0.8099
C19 C 0.0723(3) 0.3923(2) 0.9253(10)
H10 H 0.0559 0.3680 0.8933
C20 C 0.0994(3) 0.3977(3) 1.0229(12)
H11 H 0.1006 0.3776 1.0645
C21 C 0.1254(3) 0.4344(3) 1.0580(10)
H12 H 0.1458 0.4395 1.1178
C22 C 0.1213(2) 0.4631(2) 1.0051(8)
H13 H 0.1381 0.4873 1.0373
C23 C 0.1570(2) 0.5363(2) 0.8097(8)
C24 C 0.1677(2) 0.5134(2) 0.7347(7)
H14 H 0.1494 0.4904 0.6972
C25 C 0.2052(3) 0.5246(3) 0.7158(9)
H15 H 0.2119 0.5091 0.6657
C26 C 0.2323(3) 0.5581(3) 0.7704(10)
H16 H 0.2574 0.5651 0.7587
C27 C 0.2231(3) 0.5809(3) 0.8406(10)
H17 H 0.2417 0.6037 0.8782
C28 C 0.1859(3) 0.5703(2) 0.8568(7)
H18 H 0.1799 0.5869 0.9019
C29 C 0.1063(2) 0.5440(2) 0.3995(7)
H19 H 0.0932 0.5281 0.3161
H20 H 0.1099 0.5688 0.3796
C30 C 0.1437(2) 0.5467(2) 0.4148(8)
H21 H 0.1568 0.5623 0.4989
H22 H 0.1403 0.5219 0.4323
C31 C 0.1662(3) 0.5625(3) 0.2832(9)
H23 H 0.1726 0.5885 0.2731
H24 H 0.1518 0.5489 0.1974
C32 C 0.2022(3) 0.5604(3) 0.2903(9)
H25 H 0.2167 0.5711 0.2025
H26 H 0.1960 0.5346 0.2982
H27 H 0.2167 0.5741 0.3746
C33 C 0.0404(2) 0.4643(2) 0.4396(7)
H28 H 0.0133 0.4527 0.4320
H29 H 0.0511 0.4768 0.3469
C34 C 0.0504(2) 0.4344(2) 0.4644(7)
H30 H 0.0395 0.4217 0.5566
H31 H 0.0775 0.4460 0.4727
C35 C 0.0366(2) 0.4052(2) 0.3391(8)
H32 H 0.0098 0.3946 0.3268
H33 H 0.0487 0.4175 0.2477
C36 C 0.0451(2) 0.3735(2) 0.3713(8)
H34 H 0.0355 0.3555 0.2927
H35 H 0.0334 0.3615 0.4622
H36 H 0.0718 0.3838 0.3790
loop_
_geom_bond_atom_site_label_1
_geom_bond_atom_site_label_2
_geom_bond_site_symmetry_1
_geom_bond_site_symmetry_2
C1 C2 1_555 1_555
C2 C3 1_555 1_555
C3 C4 1_555 1_555
C4 C5 1_555 1_555
C5 C6 1_555 1_555
C6 C7 1_555 1_555
C7 C8 1_555 1_555
C8 C1 1_555 1_555
C9 C8 1_555 1_555
H1 C9 1_555 1_555
C10 C9 1_555 1_555
H2 C10 1_555 1_555
C11 C10 1_555 1_555
H3 C11 1_555 1_555
C12 C7 1_555 1_555
H4 C12 1_555 1_555
C13 C3 1_555 1_555
H5 C13 1_555 1_555
C14 C13 1_555 1_555
H6 C14 1_555 1_555
C15 C14 1_555 1_555
H7 C15 1_555 1_555
C16 C4 1_555 1_555
H8 C16 1_555 1_555
C17 C5 1_555 1_555
C18 C17 1_555 1_555
H9 C18 1_555 1_555
C19 C18 1_555 1_555
H10 C19 1_555 1_555
C20 C19 1_555 1_555
H11 C20 1_555 1_555
C21 C20 1_555 1_555
H12 C21 1_555 1_555
C22 C17 1_555 1_555
H13 C22 1_555 1_555
C23 C6 1_555 1_555
C24 C23 1_555 1_555
H14 C24 1_555 1_555
C25 C24 1_555 1_555
H15 C25 1_555 1_555
C26 C25 1_555 1_555
H16 C26 1_555 1_555
C27 C26 1_555 1_555
H17 C27 1_555 1_555
C28 C23 1_555 1_555
H18 C28 1_555 1_555
C29 C1 1_555 1_555
H19 C29 1_555 1_555
H20 C29 1_555 1_555
C30 C29 1_555 1_555
H21 C30 1_555 1_555
H22 C30 1_555 1_555
C31 C30 1_555 1_555
H23 C31 1_555 1_555
H24 C31 1_555 1_555
C32 C31 1_555 1_555
H25 C32 1_555 1_555
H26 C32 1_555 1_555
H27 C32 1_555 1_555
C33 C2 1_555 1_555
H28 C33 1_555 1_555
H29 C33 1_555 1_555
C34 C33 1_555 1_555
H30 C34 1_555 1_555
H31 C34 1_555 1_555
C35 C34 1_555 1_555
H32 C35 1_555 1_555
H33 C35 1_555 1_555
C36 C35 1_555 1_555
H34 C36 1_555 1_555
H35 C36 1_555 1_555
H36 C36 1_555 1_555
C11 C12 1_555 1_555
C15 C16 1_555 1_555
C21 C22 1_555 1_555
C27 C28 1_555 1_555

#END
