
#######################################################################
#
#                 Cambridge Crystallographic Data Centre
#                                CCDC 
#
#######################################################################
#
# If this CIF has been generated from an entry in the Cambridge 
# Structural Database, then it will include bibliographic, chemical, 
# crystal, experimental, refinement or atomic coordinate data resulting 
# from the CCDC's data processing and validation procedures.
#
#######################################################################

data_BENKUD
_chemical_formula_moiety         'C23 H34 F2 N4 O4'
_chemical_name_systematic        
1-(7,7-difluorocycloheptadecylidene)-2-(2,4-dinitrophenyl)hydrazine
_symmetry_cell_setting           triclinic
_symmetry_space_group_name_H-M   'P -1'
_symmetry_Int_Tables_number      2
_space_group_name_Hall           '-P 1'
loop_
_symmetry_equiv_pos_site_id
_symmetry_equiv_pos_as_xyz
1 x,y,z
2 -x,-y,-z
_cell_length_a                   7.451(7)
_cell_length_b                   8.712(5)
_cell_length_c                   18.445(15)
_cell_angle_alpha                99.50(6)
_cell_angle_beta                 93.75(7)
_cell_angle_gamma                95.72(6)
_cell_volume                     1170.93
_exptl_crystal_colour            yellow
_exptl_crystal_description       platelet
_cell_formula_units_Z            2
loop_
_atom_site_label
_atom_site_type_symbol
_atom_site_fract_x
_atom_site_fract_y
_atom_site_fract_z
F1 F 0.1531(8) 0.7930(8) 0.4936(5)
F2 F 0.2772(7) 0.6090(7) 0.5384(3)
O1 O 0.3656(5) 0.1194(4) -0.0269(2)
O2 O 0.3229(6) 0.2276(5) -0.1222(3)
O3 O -0.2121(6) 0.4584(5) -0.1742(3)
O4 O -0.3806(5) 0.5238(5) -0.0862(3)
N1 N 0.0619(6) 0.1088(5) 0.1390(2)
N2 N 0.1331(6) 0.1324(4) 0.0739(2)
N3 N 0.2749(6) 0.1950(5) -0.0643(3)
N4 N -0.2563(6) 0.4540(5) -0.1132(3)
C1 C 0.1652(7) 0.0521(5) 0.1853(3)
C2 C 0.0836(9) 0.0151(6) 0.2520(3)
H1 H 0.0972 -0.0955 0.2553
H2 H -0.0476 0.0247 0.2462
C3 C 0.1632(9) 0.1179(7) 0.3252(3)
H3 H 0.1234 0.0671 0.3666
H4 H 0.2969 0.1241 0.3273
C4 C 0.1087(8) 0.2819(7) 0.3356(3)
H5 H -0.0226 0.2771 0.3419
H6 H 0.1306 0.3270 0.2907
C5 C 0.2119(9) 0.3893(8) 0.4022(3)
H7 H 0.2009 0.3386 0.4462
H8 H 0.3418 0.4031 0.3935
C6 C 0.1444(9) 0.5474(9) 0.4174(4)
H9 H 0.1402 0.5910 0.3712
H10 H 0.0189 0.5334 0.4318
C7 C 0.2545(10) 0.6648(10) 0.4764(5)
C8 C 0.4386(11) 0.7356(8) 0.4595(5)
H11 H 0.4970 0.8048 0.5046
H12 H 0.5152 0.6501 0.4468
C9 C 0.4327(15) 0.8251(10) 0.3998(6)
H13 H 0.3539 0.9091 0.4122
H14 H 0.3757 0.7551 0.3546
C10 C 0.6187(17) 0.9009(9) 0.3823(6)
H15 H 0.6004 0.9561 0.3401
H16 H 0.6706 0.9797 0.4254
C11 C 0.7513(13) 0.7836(10) 0.3642(4)
H17 H 0.7843 0.7365 0.4079
H18 H 0.8628 0.8341 0.3478
C12 C 0.6556(15) 0.6605(11) 0.3030(6)
H19 H 0.5441 0.6115 0.3202
H20 H 0.6204 0.7098 0.2603
C13 C 0.7780(15) 0.5375(11) 0.2799(7)
H21 H 0.8821 0.5859 0.2577
H22 H 0.8260 0.5001 0.3244
C14 C 0.6883(11) 0.3998(8) 0.2260(4)
H23 H 0.7889 0.3412 0.2085
H24 H 0.6426 0.4451 0.1834
C15 C 0.5383(10) 0.2738(7) 0.2348(4)
H25 H 0.5702 0.2292 0.2793
H26 H 0.4245 0.3219 0.2421
C16 C 0.5078(9) 0.1433(7) 0.1685(4)
H27 H 0.6221 0.0956 0.1619
H28 H 0.4793 0.1895 0.1241
C17 C 0.3575(8) 0.0139(6) 0.1729(3)
H29 H 0.3969 -0.0407 0.2131
H30 H 0.3506 -0.0626 0.1264
C18 C 0.0401(7) 0.2070(5) 0.0265(3)
C19 C 0.1009(7) 0.2388(5) -0.0394(3)
C20 C 0.0033(7) 0.3177(5) -0.0860(3)
H31 H 0.0481 0.3375 -0.1310
C21 C -0.1581(7) 0.3660(5) -0.0654(3)
C22 C -0.2248(7) 0.3385(5) -0.0008(3)
H32 H -0.3358 0.3752 0.0129
C23 C -0.1301(7) 0.2572(6) 0.0444(3)
H33 H -0.1795 0.2345 0.0882
H34 H 0.233(5) 0.077(6) 0.054(3)
C24? C 0.784(2) 0.6740(11) 0.2958(6)
H35? H 0.9145 0.6628 0.2947
H36? H 0.7437 0.7162 0.2515
C25? C 0.679(2) 0.5169(11) 0.2959(5)
H37? H 0.5504 0.5318 0.3023
H38? H 0.7263 0.4731 0.3386
loop_
_geom_bond_atom_site_label_1
_geom_bond_atom_site_label_2
_geom_bond_site_symmetry_1
_geom_bond_site_symmetry_2
F1 C7 1_555 1_555
F2 C7 1_555 1_555
O1 N3 1_555 1_555
O2 N3 1_555 1_555
O3 N4 1_555 1_555
O4 N4 1_555 1_555
N1 N2 1_555 1_555
N2 C18 1_555 1_555
N3 C19 1_555 1_555
N4 C21 1_555 1_555
C1 N1 1_555 1_555
C2 C1 1_555 1_555
H1 C2 1_555 1_555
H2 C2 1_555 1_555
C3 C2 1_555 1_555
H3 C3 1_555 1_555
H4 C3 1_555 1_555
C4 C3 1_555 1_555
H5 C4 1_555 1_555
H6 C4 1_555 1_555
C5 C4 1_555 1_555
H7 C5 1_555 1_555
H8 C5 1_555 1_555
C6 C5 1_555 1_555
H9 C6 1_555 1_555
H10 C6 1_555 1_555
C7 C6 1_555 1_555
C8 C7 1_555 1_555
H11 C8 1_555 1_555
H12 C8 1_555 1_555
C9 C8 1_555 1_555
H13 C9 1_555 1_555
H14 C9 1_555 1_555
C10 C9 1_555 1_555
H15 C10 1_555 1_555
H16 C10 1_555 1_555
C11 C10 1_555 1_555
H17 C11 1_555 1_555
H18 C11 1_555 1_555
C12 C11 1_555 1_555
H19 C12 1_555 1_555
H20 C12 1_555 1_555
C13 C12 1_555 1_555
H21 C13 1_555 1_555
H22 C13 1_555 1_555
C14 C13 1_555 1_555
H23 C14 1_555 1_555
H24 C14 1_555 1_555
C15 C14 1_555 1_555
H25 C15 1_555 1_555
H26 C15 1_555 1_555
C16 C15 1_555 1_555
H27 C16 1_555 1_555
H28 C16 1_555 1_555
C17 C1 1_555 1_555
H29 C17 1_555 1_555
H30 C17 1_555 1_555
C18 C19 1_555 1_555
C19 C20 1_555 1_555
C20 H31 1_555 1_555
C21 C20 1_555 1_555
C22 C21 1_555 1_555
H32 C22 1_555 1_555
C23 C18 1_555 1_555
H33 C23 1_555 1_555
H34 N2 1_555 1_555
C16 C17 1_555 1_555
C22 C23 1_555 1_555

#END
