
#######################################################################
#
#                 Cambridge Crystallographic Data Centre
#                                CCDC 
#
#######################################################################
#
# If this CIF has been generated from an entry in the Cambridge 
# Structural Database, then it will include bibliographic, chemical, 
# crystal, experimental, refinement or atomic coordinate data resulting 
# from the CCDC's data processing and validation procedures.
#
#######################################################################

data_BENLUE
_chemical_formula_moiety         'C22 H32 F2 N4 O4'
_chemical_name_systematic        
1-(8,8-difluoro-3-methylcyclopentadecylidene)-2-(2,4-dinitrophenyl)hydrazine
_symmetry_cell_setting           triclinic
_symmetry_space_group_name_H-M   'P -1'
_symmetry_Int_Tables_number      2
_space_group_name_Hall           '-P 1'
loop_
_symmetry_equiv_pos_site_id
_symmetry_equiv_pos_as_xyz
1 x,y,z
2 -x,-y,-z
_cell_length_a                   8.1680(4)
_cell_length_b                   8.2115(4)
_cell_length_c                   18.675(3)
_cell_angle_alpha                101.487(18)
_cell_angle_beta                 93.13(2)
_cell_angle_gamma                111.781(14)
_cell_volume                     1128.42
_exptl_crystal_colour            orange
_exptl_crystal_description       prism
_cell_formula_units_Z            2
loop_
_atom_site_label
_atom_site_type_symbol
_atom_site_fract_x
_atom_site_fract_y
_atom_site_fract_z
F1 F 1.04119(12) 1.06729(15) 0.38533(6)
F2 F 0.99369(13) 1.29033(13) 0.45339(6)
O1 O 0.2213(2) 0.91045(18) 0.01894(8)
O2 O 0.2993(5) 0.8856(3) -0.08837(13)
O3 O 0.39310(19) 0.38442(18) -0.21679(7)
O4 O 0.4012(2) 0.17853(18) -0.16266(8)
N1 N 0.14339(18) 0.57446(17) 0.14761(7)
N2 N 0.2642(3) 0.8267(2) -0.03433(9)
N3 N 0.37674(18) 0.31641(18) -0.16355(8)
N4 N 0.18418(19) 0.65712(17) 0.08933(7)
C1 C 0.10355(19) 0.6658(2) 0.20341(8)
C2 C 0.0955(2) 0.8489(2) 0.20764(9)
H1 H 0.0411 0.8776 0.2520
H2 H 0.0131 0.8374 0.1643
C3 C 0.2711(2) 1.0133(2) 0.21054(9)
H3 H 0.3340 0.9800 0.1692
C4 C 0.3941(2) 1.0643(2) 0.28276(9)
H4 H 0.4235 0.9600 0.2875
H5 H 0.3298 1.0894 0.3243
C5 C 0.5677(2) 1.2288(2) 0.28933(9)
H6 H 0.5412 1.3384 0.2940
H7 H 0.6234 1.2137 0.2440
C6 C 0.6981(2) 1.2526(2) 0.35652(9)
H8 H 0.7774 1.3818 0.3739
H9 H 0.6303 1.2156 0.3969
C7 C 0.8112(2) 1.1414(2) 0.33874(9)
H10 H 0.7336 1.0197 0.3089
H11 H 0.9012 1.1993 0.3084
C8 C 0.9051(2) 1.1219(2) 0.40639(9)
C9 C 0.7920(2) 0.9954(2) 0.44894(8)
H12 H 0.6856 1.0233 0.4574
H13 H 0.8604 1.0179 0.4978
C10 C 0.7306(2) 0.7953(2) 0.41089(9)
H14 H 0.6900 0.7774 0.3579
H15 H 0.8327 0.7585 0.4144
C11 C 0.5794(2) 0.6754(2) 0.44511(9)
H16 H 0.6157 0.7049 0.4991
H17 H 0.5617 0.5480 0.4255
C12 C 0.4017(2) 0.6940(2) 0.43076(8)
H18 H 0.3193 0.6293 0.4621
H19 H 0.4219 0.8233 0.4463
C13 C 0.3118(2) 0.6222(2) 0.35082(8)
H20 H 0.2854 0.4915 0.3355
H21 H 0.3943 0.6836 0.3187
C14 C 0.1394(2) 0.6522(2) 0.34051(8)
H22 H 0.1682 0.7837 0.3521
H23 H 0.0625 0.6009 0.3763
C15 C 0.0344(2) 0.5679(2) 0.26246(9)
H24 H 0.0306 0.4439 0.2469
H25 H -0.0896 0.5576 0.2651
C16 C 0.2293(2) 0.5749(2) 0.02838(8)
C17 C 0.2704(2) 0.6539(2) -0.03301(9)
C18 C 0.3173(2) 0.5682(2) -0.09540(9)
H26 H 0.3430 0.6227 -0.1360
C19 C 0.3261(2) 0.4042(2) -0.09769(8)
C20 C 0.2863(2) 0.3199(2) -0.03910(9)
H27 H 0.2920 0.2054 -0.0420
C21 C 0.2392(2) 0.4037(2) 0.02229(9)
H28 H 0.2123 0.3459 0.0620
C22 C 0.2210(2) 1.1679(2) 0.19723(10)
H29 H 0.3293 1.2720 0.1963
H30 H 0.1580 1.2018 0.2370
H31 H 0.1436 1.1288 0.1499
H32 H 0.180(3) 0.7741(16) 0.0899(13)
loop_
_geom_bond_atom_site_label_1
_geom_bond_atom_site_label_2
_geom_bond_site_symmetry_1
_geom_bond_site_symmetry_2
F1 C8 1_555 1_555
F2 C8 1_555 1_555
O1 N2 1_555 1_555
O2 N2 1_555 1_555
O3 N3 1_555 1_555
O4 N3 1_555 1_555
N1 N4 1_555 1_555
N2 C17 1_555 1_555
N3 C19 1_555 1_555
N4 C16 1_555 1_555
C1 N1 1_555 1_555
C2 C1 1_555 1_555
H1 C2 1_555 1_555
H2 C2 1_555 1_555
C3 C2 1_555 1_555
H3 C3 1_555 1_555
C4 C3 1_555 1_555
H4 C4 1_555 1_555
H5 C4 1_555 1_555
C5 C4 1_555 1_555
H6 C5 1_555 1_555
H7 C5 1_555 1_555
C6 C5 1_555 1_555
H8 C6 1_555 1_555
H9 C6 1_555 1_555
C7 C6 1_555 1_555
H10 C7 1_555 1_555
H11 C7 1_555 1_555
C8 C7 1_555 1_555
C9 C8 1_555 1_555
H12 C9 1_555 1_555
H13 C9 1_555 1_555
C10 C9 1_555 1_555
H14 C10 1_555 1_555
H15 C10 1_555 1_555
C11 C10 1_555 1_555
H16 C11 1_555 1_555
H17 C11 1_555 1_555
C12 C11 1_555 1_555
H18 C12 1_555 1_555
H19 C12 1_555 1_555
C13 C12 1_555 1_555
H20 C13 1_555 1_555
H21 C13 1_555 1_555
C14 C13 1_555 1_555
H22 C14 1_555 1_555
H23 C14 1_555 1_555
C15 C1 1_555 1_555
H24 C15 1_555 1_555
H25 C15 1_555 1_555
C16 C17 1_555 1_555
C17 C18 1_555 1_555
C18 H26 1_555 1_555
C19 C18 1_555 1_555
C20 C19 1_555 1_555
H27 C20 1_555 1_555
C21 C16 1_555 1_555
H28 C21 1_555 1_555
C22 C3 1_555 1_555
H29 C22 1_555 1_555
H30 C22 1_555 1_555
H31 C22 1_555 1_555
H32 N4 1_555 1_555
C14 C15 1_555 1_555
C20 C21 1_555 1_555

#END
