
#######################################################################
#
#                 Cambridge Crystallographic Data Centre
#                                CCDC 
#
#######################################################################
#
# If this CIF has been generated from an entry in the Cambridge 
# Structural Database, then it will include bibliographic, chemical, 
# crystal, experimental, refinement or atomic coordinate data resulting 
# from the CCDC's data processing and validation procedures.
#
#######################################################################

data_BENMOW01
_chemical_formula_moiety         'C7 H5 I1 O2'
_chemical_name_systematic        'p-Iodobenzoic acid'
_symmetry_cell_setting           monoclinic
_symmetry_space_group_name_H-M   'P 21/a'
_symmetry_Int_Tables_number      14
_space_group_name_Hall           '-P 2yab'
loop_
_symmetry_equiv_pos_site_id
_symmetry_equiv_pos_as_xyz
1 x,y,z
2 1/2-x,1/2+y,-z
3 -x,-y,-z
4 1/2+x,1/2-y,z
_cell_length_a                   30.357(2)
_cell_length_b                   6.0300(7)
_cell_length_c                   4.1561(4)
_cell_angle_alpha                90
_cell_angle_beta                 97.35(1)
_cell_angle_gamma                90
_cell_volume                     754.534
_exptl_crystal_colour            colorless
_cell_formula_units_Z            4
loop_
_atom_site_label
_atom_site_type_symbol
_atom_site_fract_x
_atom_site_fract_y
_atom_site_fract_z
I1 I 0.20932 0.22590 0.07910
O1 O 0.00970 0.76000 0.28700
O2 O 0.05600 0.99300 0.57600
C1 C 0.08600 0.68100 0.33300
C2 C 0.07850 0.48900 0.15900
C3 C 0.11380 0.35800 0.09200
C4 C 0.15620 0.42400 0.18300
C5 C 0.16490 0.62000 0.35100
C6 C 0.13020 0.75500 0.42000
C7 C 0.04840 0.82500 0.40900
H1 H 0.04390 0.44470 0.08390
H2 H 0.10820 0.22060 -0.01870
H3 H 0.19480 0.66240 0.41930
H4 H 0.13600 0.89440 0.53270
loop_
_geom_bond_atom_site_label_1
_geom_bond_atom_site_label_2
_geom_bond_site_symmetry_1
_geom_bond_site_symmetry_2
I1 C4 1_555 1_555
O1 C7 1_555 1_555
O2 C7 1_555 1_555
C1 C2 1_555 1_555
C2 C3 1_555 1_555
C3 C4 1_555 1_555
C4 C5 1_555 1_555
C5 C6 1_555 1_555
C6 C1 1_555 1_555
C7 C1 1_555 1_555
H1 C2 1_555 1_555
H2 C3 1_555 1_555
H3 C5 1_555 1_555
H4 C6 1_555 1_555

#END
