
#######################################################################
#
#                 Cambridge Crystallographic Data Centre
#                                CCDC 
#
#######################################################################
#
# If this CIF has been generated from an entry in the Cambridge 
# Structural Database, then it will include bibliographic, chemical, 
# crystal, experimental, refinement or atomic coordinate data resulting 
# from the CCDC's data processing and validation procedures.
#
#######################################################################

data_BENXIE
_chemical_formula_moiety         'C23 H26 N1 O3 P1 S1,4.5(H2 O1)'
_chemical_name_systematic        
'4-(((3-methylpyridin-2-yl)methyl)(diphenyl)phosphonio)butane-1-sulfonate hydrate'
_symmetry_cell_setting           triclinic
_symmetry_space_group_name_H-M   'P -1'
_symmetry_Int_Tables_number      2
_space_group_name_Hall           '-P 1'
loop_
_symmetry_equiv_pos_site_id
_symmetry_equiv_pos_as_xyz
1 x,y,z
2 -x,-y,-z
_cell_length_a                   8.2742(4)
_cell_length_b                   10.4756(5)
_cell_length_c                   15.3061(7)
_cell_angle_alpha                85.733(1)
_cell_angle_beta                 80.041(1)
_cell_angle_gamma                85.762(1)
_cell_volume                     1300.56
_exptl_crystal_colour            colorless
_exptl_crystal_description       plate
_cell_formula_units_Z            2
loop_
_atom_site_label
_atom_site_type_symbol
_atom_site_fract_x
_atom_site_fract_y
_atom_site_fract_z
C1 C 0.4801(2) 0.25797(15) 0.17177(10)
H1 H 0.4238 0.1846 0.1566
H2 H 0.4013 0.3340 0.1744
C2 C 0.6276(2) 0.28395(16) 0.09883(10)
H3 H 0.6825 0.3588 0.1130
H4 H 0.7077 0.2088 0.0967
C3 C 0.5747(2) 0.31027(15) 0.00862(10)
H5 H 0.4873 0.3804 0.0121
H6 H 0.5290 0.2326 -0.0081
C4 C 0.7194(2) 0.34774(16) -0.06214(10)
H7 H 0.8147 0.2865 -0.0567
H8 H 0.7504 0.4340 -0.0515
C5 C 0.62697(19) 0.36513(14) 0.30425(10)
H9 H 0.7322 0.3749 0.2631
H10 H 0.5522 0.4400 0.2918
C6 C 0.65904(18) 0.36970(14) 0.39769(10)
C7 C 0.6620(2) 0.26601(19) 0.53471(11)
H11 H 0.6437 0.1914 0.5734
C8 C 0.7134(2) 0.3712(2) 0.56771(12)
H12 H 0.7311 0.3693 0.6275
C9 C 0.7386(3) 0.4797(2) 0.51190(13)
H13 H 0.7746 0.5536 0.5333
C10 C 0.7119(2) 0.48221(16) 0.42470(11)
C11 C 0.7406(3) 0.59878(17) 0.36205(14)
H14 H 0.8364 0.5810 0.3162
H15 H 0.7606 0.6710 0.3951
H16 H 0.6435 0.6204 0.3339
C12 C 0.35862(18) 0.18729(14) 0.35783(10)
C13 C 0.3658(2) 0.09188(16) 0.42578(11)
H17 H 0.4643 0.0398 0.4275
C14 C 0.2295(2) 0.07291(18) 0.49078(12)
H18 H 0.2344 0.0076 0.5369
C15 C 0.0861(2) 0.14907(18) 0.48858(12)
H19 H -0.0064 0.1374 0.5340
C16 C 0.0773(2) 0.24222(17) 0.42030(11)
H20 H -0.0222 0.2930 0.4184
C17 C 0.2137(2) 0.26198(15) 0.35427(10)
H21 H 0.2075 0.3259 0.3073
C18 C 0.6845(2) 0.08778(15) 0.26940(10)
C19 C 0.8484(2) 0.09837(17) 0.27590(11)
H22 H 0.8841 0.1768 0.2910
C20 C 0.9598(3) -0.0070(2) 0.26011(14)
H23 H 1.0717 -0.0009 0.2653
C21 C 0.9083(3) -0.1203(2) 0.23693(14)
H24 H 0.9849 -0.1920 0.2265
C22 C 0.7461(3) -0.13014(18) 0.22884(14)
H25 H 0.7121 -0.2079 0.2117
C23 C 0.6327(2) -0.02706(16) 0.24558(12)
H26 H 0.5208 -0.0343 0.2409
N1 N 0.63605(17) 0.26258(13) 0.45066(9)
O1 O 0.51918(16) 0.42264(13) -0.17169(8)
O2 O 0.81011(17) 0.41214(14) -0.22925(8)
O3 O 0.66817(18) 0.21610(12) -0.19063(8)
P1 P 0.53930(5) 0.22302(4) 0.27910(2)
S1 S 0.67549(5) 0.34922(4) -0.17171(2)
O4 O 1.01878(18) 0.58079(16) 0.82283(11)
H27 H 0.944(2) 0.540(2) 0.8095(17)
H28 H 0.970(3) 0.6379(19) 0.8556(14)
O5 O 0.1975(2) 0.38932(16) 0.91441(12)
H29 H 0.2968(15) 0.393(3) 0.8900(17)
H30 H 0.142(3) 0.4482(19) 0.8891(16)
O6 O 0.1171(3) 0.2289(2) 0.06192(14)
H31 H 0.145(4) 0.282(3) 0.0186(16)
H32 H 0.063(4) 0.176(3) 0.042(2)
O7 O 0.6397(2) -0.00422(14) 0.93088(11)
O8? O 0.9241(5) 1.0199(5) 0.0183(3)
loop_
_geom_bond_atom_site_label_1
_geom_bond_atom_site_label_2
_geom_bond_site_symmetry_1
_geom_bond_site_symmetry_2
C1 H1 1_555 1_555
H2 C1 1_555 1_555
C2 C1 1_555 1_555
H3 C2 1_555 1_555
H4 C2 1_555 1_555
C3 C2 1_555 1_555
H5 C3 1_555 1_555
H6 C3 1_555 1_555
C4 C3 1_555 1_555
H7 C4 1_555 1_555
H8 C4 1_555 1_555
C5 H9 1_555 1_555
H10 C5 1_555 1_555
C6 C5 1_555 1_555
C7 H11 1_555 1_555
C8 C7 1_555 1_555
H12 C8 1_555 1_555
C9 C8 1_555 1_555
H13 C9 1_555 1_555
C10 C6 1_555 1_555
C11 C10 1_555 1_555
H14 C11 1_555 1_555
H15 C11 1_555 1_555
H16 C11 1_555 1_555
C12 C13 1_555 1_555
C13 H17 1_555 1_555
C14 C13 1_555 1_555
H18 C14 1_555 1_555
C15 C14 1_555 1_555
H19 C15 1_555 1_555
C16 C15 1_555 1_555
H20 C16 1_555 1_555
C17 C12 1_555 1_555
H21 C17 1_555 1_555
C18 C19 1_555 1_555
C19 H22 1_555 1_555
C20 C19 1_555 1_555
H23 C20 1_555 1_555
C21 C20 1_555 1_555
H24 C21 1_555 1_555
C22 C21 1_555 1_555
H25 C22 1_555 1_555
C23 C18 1_555 1_555
H26 C23 1_555 1_555
N1 C6 1_555 1_555
O1 S1 1_555 1_555
O2 S1 1_555 1_555
O3 S1 1_555 1_555
P1 C1 1_555 1_555
S1 C4 1_555 1_555
O4 H27 1_555 1_555
H28 O4 1_555 1_555
O5 H29 1_555 1_555
H30 O5 1_555 1_555
O6 H31 1_555 1_555
H32 O6 1_555 1_555
C5 P1 1_555 1_555
C7 N1 1_555 1_555
C9 C10 1_555 1_555
C12 P1 1_555 1_555
C16 C17 1_555 1_555
C18 P1 1_555 1_555
C22 C23 1_555 1_555

#END
