
#######################################################################
#
#                 Cambridge Crystallographic Data Centre
#                                CCDC 
#
#######################################################################
#
# If this CIF has been generated from an entry in the Cambridge 
# Structural Database, then it will include bibliographic, chemical, 
# crystal, experimental, refinement or atomic coordinate data resulting 
# from the CCDC's data processing and validation procedures.
#
#######################################################################

data_BENZID
_chemical_formula_moiety         'C12 H14 N2 2+,2(Cl1 1-)'
_chemical_name_systematic        'Benzidine dihydrochloride'
_symmetry_cell_setting           triclinic
_symmetry_space_group_name_H-M   'P -1'
_symmetry_Int_Tables_number      2
_space_group_name_Hall           '-P 1'
loop_
_symmetry_equiv_pos_site_id
_symmetry_equiv_pos_as_xyz
1 x,y,z
2 -x,-y,-z
_cell_length_a                   4.38(1)
_cell_length_b                   5.76(1)
_cell_length_c                   12.82(2)
_cell_angle_alpha                101.5(2)
_cell_angle_beta                 99.5(2)
_cell_angle_gamma                99.5(2)
_cell_volume                     305.967
_cell_formula_units_Z            1
loop_
_atom_site_label
_atom_site_type_symbol
_atom_site_fract_x
_atom_site_fract_y
_atom_site_fract_z
Cl1 Cl 0.44200 0.30000 0.08500
C1 C 0.08000 0.84000 0.23000
C2 C 0.19200 0.70000 0.29800
C3 C 0.15800 0.76200 0.40500
C4 C 0.02400 0.96200 0.44200
C5 C -0.07600 1.09600 0.36900
C6 C -0.04400 1.04200 0.26100
N1 N 0.14200 0.78000 0.11600
C1A C -0.08000 1.16000 0.77000
C2A C -0.19200 1.30000 0.70200
C3A C -0.15800 1.23800 0.59500
C4A C -0.02400 1.03800 0.55800
C5A C 0.07600 0.90400 0.63100
C6A C 0.04400 0.95800 0.73900
N1A N -0.14200 1.22000 0.88400
loop_
_geom_bond_atom_site_label_1
_geom_bond_atom_site_label_2
_geom_bond_site_symmetry_1
_geom_bond_site_symmetry_2
C1 C2 1_555 1_555
C2 C3 1_555 1_555
C3 C4 1_555 1_555
C4 C5 1_555 1_555
C5 C6 1_555 1_555
C6 C1 1_555 1_555
N1 C1 1_555 1_555
C1A C2A 1_555 1_555
C2A C3A 1_555 1_555
C3A C4A 1_555 1_555
C4A C4 1_555 1_555
C5A C4A 1_555 1_555
C6A C1A 1_555 1_555
N1A C1A 1_555 1_555
C5A C6A 1_555 1_555

#END
