
#######################################################################
#
#                 Cambridge Crystallographic Data Centre
#                                CCDC 
#
#######################################################################
#
# If this CIF has been generated from an entry in the Cambridge 
# Structural Database, then it will include bibliographic, chemical, 
# crystal, experimental, refinement or atomic coordinate data resulting 
# from the CCDC's data processing and validation procedures.
#
#######################################################################

data_BEPHIN
_chemical_formula_moiety         'C23 H33 Cl1 O5'
_chemical_name_systematic        12-Chloro-tenacissigenin
_symmetry_cell_setting           monoclinic
_symmetry_space_group_name_H-M   'P 21'
_symmetry_Int_Tables_number      4
_space_group_name_Hall           'P 2yb'
loop_
_symmetry_equiv_pos_site_id
_symmetry_equiv_pos_as_xyz
1 x,y,z
2 -x,1/2+y,-z
_cell_length_a                   15.782(7)
_cell_length_b                   8.454(4)
_cell_length_c                   8.074(4)
_cell_angle_alpha                90
_cell_angle_beta                 101.08(21)
_cell_angle_gamma                90
_cell_volume                     1057.16
_cell_formula_units_Z            2
loop_
_atom_site_label
_atom_site_type_symbol
_atom_site_fract_x
_atom_site_fract_y
_atom_site_fract_z
Cl1 Cl 0.34215 0.11260 0.03564
O1 O 0.32882 0.56072 -0.09823
O2 O 0.28679 0.53368 -0.39384
O3 O 0.29695 0.09911 -0.39292
O4 O -0.20112 0.46862 -0.31450
O5 O -0.13448 0.25943 -0.18081
C1 C -0.20483 0.34183 -0.24899
C2 C 0.25170 0.37576 -0.38039
C3 C 0.32686 0.25653 -0.38159
C4 C 0.35616 0.56832 -0.25902
C5 C 0.13469 0.28202 -0.19996
C6 C 0.39758 0.28020 -0.21984
C7 C 0.17880 0.36237 -0.53833
C8 C -0.02295 0.26128 -0.35090
C9 C 0.21231 0.38465 -0.21757
C10 C 0.10166 0.34328 -0.04093
C11 C 0.06642 0.32394 -0.35605
C12 C -0.05251 0.32528 -0.19365
C13 C 0.42851 0.44678 -0.26349
C14 C -0.28462 0.25658 -0.23495
C15 C 0.09796 0.27211 -0.51622
C16 C 0.46920 0.15761 -0.20285
C17 C 0.29034 0.40952 -0.07065
C18 C 0.37587 0.30203 -0.52363
C19 C 0.14773 0.10223 -0.18469
C20 C 0.36550 0.29401 -0.05308
C21 C 0.01099 0.28227 -0.03523
C22 C 0.44274 0.42824 -0.44355
C23 C 0.38444 0.73614 -0.27680
H1 H 0.27000 0.08070 -0.50435
H2 H 0.19000 0.30600 -0.63300
H3 H 0.17122 0.46941 -0.59628
H4 H -0.02446 0.14695 -0.35232
H5 H -0.06000 0.30000 -0.45000
H6 H 0.18822 0.50212 -0.23902
H7 H 0.09742 0.46000 -0.05956
H8 H 0.15120 0.31694 0.06768
H9 H 0.06368 0.43891 -0.37192
H10 H -0.05544 0.43726 -0.20660
H11 H 0.47000 0.49000 -0.17903
H12 H 0.10709 0.14986 -0.52134
H13 H 0.05500 0.29400 -0.62500
H14 H 0.26465 0.41748 0.03759
H15 H 0.34681 0.37000 -0.61137
H16 H 0.40000 0.18854 -0.56142
H17 H 0.41500 0.32000 0.03000
H18 H -0.00369 0.33282 0.05762
H19 H 0.02000 0.15800 -0.06000
H20 H 0.50000 0.41800 -0.45400
H21 H 0.43300 0.52300 -0.53000
loop_
_geom_bond_atom_site_label_1
_geom_bond_atom_site_label_2
_geom_bond_site_symmetry_1
_geom_bond_site_symmetry_2
Cl1 C20 1_555 1_555
O1 C4 1_555 1_555
O2 C2 1_555 1_555
O3 C3 1_555 1_555
O4 C1 1_555 1_555
O5 C1 1_555 1_555
C1 C14 1_555 1_555
C2 C3 1_555 1_555
C3 C6 1_555 1_555
C4 O2 1_555 1_555
C5 C9 1_555 1_555
C6 C13 1_555 1_555
C7 C2 1_555 1_555
C8 C11 1_555 1_555
C9 C2 1_555 1_555
C10 C5 1_555 1_555
C11 C5 1_555 1_555
C12 O5 1_555 1_555
C13 C4 1_555 1_555
C15 C7 1_555 1_555
C16 C6 1_555 1_555
C17 O1 1_555 1_555
C18 C3 1_555 1_555
C19 C5 1_555 1_555
C20 C6 1_555 1_555
C21 C10 1_555 1_555
C22 C13 1_555 1_555
C23 C4 1_555 1_555
H1 O3 1_555 1_555
H2 C7 1_555 1_555
H3 C7 1_555 1_555
H4 C8 1_555 1_555
H5 C8 1_555 1_555
H6 C9 1_555 1_555
H7 C10 1_555 1_555
H8 C10 1_555 1_555
H9 C11 1_555 1_555
H10 C12 1_555 1_555
H11 C13 1_555 1_555
H12 C15 1_555 1_555
H13 C15 1_555 1_555
H14 C17 1_555 1_555
H15 C18 1_555 1_555
H16 C18 1_555 1_555
H17 C20 1_555 1_555
H18 C21 1_555 1_555
H19 C21 1_555 1_555
H20 C22 1_555 1_555
H21 C22 1_555 1_555
C8 C12 1_555 1_555
C9 C17 1_555 1_555
C11 C15 1_555 1_555
C12 C21 1_555 1_555
C17 C20 1_555 1_555
C18 C22 1_555 1_555

#END
