
#######################################################################
#
#                 Cambridge Crystallographic Data Centre
#                                CCDC 
#
#######################################################################
#
# If this CIF has been generated from an entry in the Cambridge 
# Structural Database, then it will include bibliographic, chemical, 
# crystal, experimental, refinement or atomic coordinate data resulting 
# from the CCDC's data processing and validation procedures.
#
#######################################################################

data_BEPRUL
_chemical_formula_moiety         
'C56 H46 N12 O6,H2 O1,2(Cl1 1-),2(C16 H36 N1 1+)'
_chemical_name_systematic        
"bis(n-butylammonium) dichloride 1,1'-(1,2-phenylenebis(carbamoylimino-2,1-phenylenecarbamoylimino-2,1-phenylene))bis(3-(1-naphthyl)urea) monohydrate"
_symmetry_cell_setting           monoclinic
_symmetry_space_group_name_H-M   'P 21/n'
_symmetry_Int_Tables_number      14
_space_group_name_Hall           '-P 2yn'
loop_
_symmetry_equiv_pos_site_id
_symmetry_equiv_pos_as_xyz
1 x,y,z
2 1/2-x,1/2+y,1/2-z
3 -x,-y,-z
4 1/2+x,1/2-y,1/2+z
_cell_length_a                   23.978(3)
_cell_length_b                   14.3995(16)
_cell_length_c                   27.522(3)
_cell_angle_alpha                90
_cell_angle_beta                 109.797(2)
_cell_angle_gamma                90
_cell_volume                     8940.94
_exptl_crystal_colour            yellow
_exptl_crystal_description       block
_cell_formula_units_Z            4
loop_
_atom_site_label
_atom_site_type_symbol
_atom_site_fract_x
_atom_site_fract_y
_atom_site_fract_z
Cl1 Cl 0.65459(6) 0.06280(8) 0.44148(5)
Cl2 Cl 0.80650(6) 0.12970(9) 0.54136(5)
O1 O 0.6787(4) -0.2673(3) 0.3950(2)
O2 O 0.6504(2) -0.0579(3) 0.61311(16)
O3 O 0.63349(17) 0.3647(2) 0.50781(14)
O4 O 0.78627(16) 0.2215(3) 0.35502(14)
O5 O 0.8523(3) -0.1903(3) 0.49044(17)
O6 O 0.8536(3) -0.0084(4) 0.72357(18)
N1 N 0.6639(2) -0.1182(3) 0.36845(15)
H1 H 0.6542 -0.0645 0.3768
N2 N 0.6555(2) -0.1617(3) 0.44580(15)
H2 H 0.6445 -0.1051 0.4467
N3 N 0.67689(18) -0.0786(3) 0.54198(14)
H3 H 0.6877 -0.0498 0.5193
N4 N 0.67596(18) 0.0669(3) 0.57501(14)
H4 H 0.6881 0.0828 0.5501
N5 N 0.69363(18) 0.2447(3) 0.54865(14)
H5 H 0.7203 0.2073 0.5457
N6 N 0.7054(2) 0.3109(3) 0.47831(15)
H6 H 0.7363 0.2759 0.4865
N7 N 0.71803(19) 0.2244(3) 0.39599(16)
H7 H 0.6996 0.1896 0.4110
N8 N 0.76882(18) 0.0917(3) 0.39565(15)
H8 H 0.7517 0.0730 0.4167
N9 N 0.8217(2) -0.0443(3) 0.46309(15)
H9 H 0.8100 0.0073 0.4722
N10 N 0.8175(2) -0.0963(3) 0.54008(16)
H10 H 0.8023 -0.0427 0.5414
N11 N 0.8352(2) -0.0225(3) 0.63770(17)
H11 H 0.8317 0.0099 0.6106
N12 N 0.8291(2) 0.1192(3) 0.67246(16)
H12 H 0.8298 0.1410 0.6436
C1 C 0.6748(2) -0.1232(4) 0.32132(18)
C2 C 0.6959(3) -0.2018(4) 0.3056(2)
H13 H 0.7034 -0.2545 0.3263
C3 C 0.7063(3) -0.2036(5) 0.2582(3)
H14 H 0.7199 -0.2580 0.2477
C4 C 0.6970(3) -0.1279(6) 0.2279(2)
H15 H 0.7036 -0.1309 0.1965
C5 C 0.6774(3) -0.0441(5) 0.2431(2)
C6 C 0.6722(3) 0.0393(7) 0.2143(2)
H16 H 0.6811 0.0383 0.1840
C7 C 0.6549(4) 0.1193(7) 0.2296(3)
H17 H 0.6529 0.1732 0.2105
C8 C 0.6397(3) 0.1211(5) 0.2748(2)
H18 H 0.6266 0.1762 0.2850
C9 C 0.6441(3) 0.0432(4) 0.3034(2)
H19 H 0.6333 0.0457 0.3329
C10 C 0.6643(2) -0.0415(4) 0.29008(18)
C11 C 0.6670(3) -0.1885(4) 0.4025(2)
C12 C 0.6597(2) -0.2168(3) 0.48905(19)
C13 C 0.6519(3) -0.3131(4) 0.4845(2)
H20 H 0.6421 -0.3410 0.4522
C14 C 0.6587(3) -0.3666(4) 0.5275(3)
H21 H 0.6537 -0.4306 0.5242
C15 C 0.6728(3) -0.3268(4) 0.5748(2)
H22 H 0.6783 -0.3636 0.6038
C16 C 0.6788(2) -0.2325(4) 0.5799(2)
H23 H 0.6880 -0.2057 0.6124
C17 C 0.6711(2) -0.1759(3) 0.53696(18)
C18 C 0.6670(2) -0.0257(3) 0.57946(18)
C19 C 0.6678(2) 0.1399(3) 0.60610(16)
C20 C 0.6544(3) 0.1259(4) 0.65069(19)
H24 H 0.6517 0.0659 0.6622
C21 C 0.6451(3) 0.2012(5) 0.6782(2)
H25 H 0.6358 0.1911 0.7079
C22 C 0.6493(3) 0.2902(4) 0.6625(2)
H26 H 0.6415 0.3401 0.6806
C23 C 0.6651(2) 0.3052(4) 0.61943(19)
H27 H 0.6695 0.3655 0.6092
C24 C 0.6745(2) 0.2310(3) 0.59138(16)
C25 C 0.6739(2) 0.3115(3) 0.51162(18)
C26 C 0.6925(2) 0.3619(3) 0.43189(19)
C27 C 0.6727(3) 0.4524(4) 0.4271(2)
H28 H 0.6647 0.4810 0.4543
C28 C 0.6647(3) 0.5006(4) 0.3816(3)
H29 H 0.6510 0.5615 0.3782
C29 C 0.6768(3) 0.4586(4) 0.3416(2)
H30 H 0.6727 0.4918 0.3115
C30 C 0.6951(3) 0.3679(4) 0.3456(2)
H31 H 0.7026 0.3393 0.3182
C31 C 0.7024(2) 0.3191(3) 0.39026(18)
C32 C 0.7600(2) 0.1830(3) 0.37975(18)
C33 C 0.8033(2) 0.0266(3) 0.38047(18)
C34 C 0.8100(2) 0.0291(4) 0.33222(19)
H32 H 0.7933 0.0773 0.3095
C35 C 0.8413(3) -0.0394(5) 0.3179(2)
H33 H 0.8463 -0.0366 0.2859
C36 C 0.8650(3) -0.1112(5) 0.3505(2)
H34 H 0.8846 -0.1587 0.3400
C37 C 0.8601(3) -0.1141(4) 0.3991(2)
H35 H 0.8777 -0.1623 0.4215
C38 C 0.8292(2) -0.0457(3) 0.41461(18)
C39 C 0.8309(2) -0.1163(3) 0.4972(2)
C40 C 0.8263(2) -0.1562(4) 0.5828(2)
C41 C 0.8246(3) -0.2515(4) 0.5764(3)
H36 H 0.8168 -0.2761 0.5435
C42 C 0.8342(3) -0.3103(4) 0.6176(3)
H37 H 0.8338 -0.3743 0.6129
C43 C 0.8442(3) -0.2741(5) 0.6649(3)
H38 H 0.8511 -0.3139 0.6930
C44 C 0.8444(3) -0.1808(5) 0.6728(2)
H39 H 0.8504 -0.1578 0.7057
C45 C 0.8357(2) -0.1191(4) 0.6314(2)
C46 C 0.8394(3) 0.0265(4) 0.6807(2)
C47 C 0.8175(2) 0.1828(4) 0.7067(2)
C48 C 0.8074(3) 0.1551(5) 0.7508(2)
H40 H 0.8110 0.0928 0.7603
C49 C 0.7916(3) 0.2215(6) 0.7818(2)
H41 H 0.7842 0.2020 0.8112
C50 C 0.7871(3) 0.3123(6) 0.7695(3)
H42 H 0.7772 0.3547 0.7907
C51 C 0.7972(3) 0.3430(5) 0.7256(3)
C52 C 0.7889(4) 0.4369(6) 0.7110(4)
H43 H 0.7783 0.4790 0.7320
C53 C 0.7960(4) 0.4666(5) 0.6671(4)
H44 H 0.7883 0.5284 0.6573
C54 C 0.8153(4) 0.4043(5) 0.6352(4)
H45 H 0.8221 0.4260 0.6059
C55 C 0.8232(3) 0.3133(5) 0.6486(3)
H46 H 0.8353 0.2726 0.6279
C56 C 0.8136(2) 0.2788(4) 0.6930(2)
N13 N 0.4904(2) 0.2551(3) 0.3713(2)
C57 C 0.4986(6) 0.3832(10) 0.2050(5)
C58 C 0.5316(7) 0.3513(12) 0.2565(6)
C59 C 0.4992(5) 0.3191(9) 0.2841(4)
C60 C 0.5337(3) 0.2857(5) 0.3428(4)
C61 C 0.4826(4) 0.5857(5) 0.4339(3)
C62 C 0.4480(3) 0.5017(5) 0.4053(3)
C63 C 0.4877(3) 0.4217(5) 0.4041(3)
C64 C 0.4516(3) 0.3381(4) 0.3752(2)
C65 C 0.4492(3) 0.1787(4) 0.3411(2)
C66 C 0.4845(4) 0.0901(5) 0.3358(3)
C67 C 0.4456(4) 0.0274(6) 0.2960(4)
C68 C 0.4796(5) -0.0624(6) 0.2931(4)
C69 C 0.5275(3) 0.2219(4) 0.4262(3)
C70 C 0.4896(3) 0.1905(5) 0.4581(2)
C71 C 0.5308(3) 0.1537(5) 0.5093(3)
C72 C 0.4971(4) 0.1237(6) 0.5440(3)
N14 N 0.0259(2) 0.7574(4) 0.62680(19)
C73 C 0.0914(6) 0.6671(8) 0.4750(4)
H47 H 0.0686 0.6110 0.4706
H48 H 0.1263 0.6557 0.4663
H49 H 0.0680 0.7146 0.4529
C74 C 0.1096(5) 0.6991(8) 0.5316(3)
H50 H 0.1375 0.6550 0.5535
H51 H 0.1291 0.7590 0.5353
C75 C 0.0555(4) 0.7070(7) 0.5493(3)
H52 H 0.0359 0.6472 0.5459
H53 H 0.0275 0.7513 0.5276
C76 C 0.0754(3) 0.7390(6) 0.6058(3)
H54 H 0.1012 0.6918 0.6270
H55 H 0.0985 0.7953 0.6091
C77 C -0.0126(3) 0.6723(5) 0.6227(3)
H56 H -0.0434 0.6881 0.6368
H57 H -0.0320 0.6586 0.5863
C78 C 0.0169(3) 0.5862(5) 0.6486(3)
H58 H 0.0376 0.5980 0.6849
H59 H 0.0457 0.5655 0.6332
C79 C -0.0305(4) 0.5112(6) 0.6421(3)
H60 H -0.0580 0.5324 0.6588
H61 H -0.0526 0.5038 0.6056
C80 C -0.0063(5) 0.4185(7) 0.6641(4)
H62 H 0.0146 0.3912 0.6435
H63 H -0.0384 0.3786 0.6641
H64 H 0.0203 0.4263 0.6989
C81 C 0.0106(5) 0.8536(8) 0.8002(4)
H65 H -0.0246 0.8857 0.7797
H66 H 0.0320 0.8912 0.8293
H67 H -0.0001 0.7958 0.8121
C82 C 0.0490(4) 0.8347(7) 0.7678(3)
H68 H 0.0773 0.7865 0.7844
H69 H 0.0713 0.8905 0.7667
C83 C 0.0151(3) 0.8049(6) 0.7132(3)
H70 H -0.0125 0.8535 0.6960
H71 H -0.0076 0.7495 0.7140
C84 C 0.0560(3) 0.7849(5) 0.6828(2)
H72 H 0.0798 0.8398 0.6838
H73 H 0.0828 0.7354 0.7001
C85 C -0.0152(3) 0.8344(5) 0.5971(3)
H74 H -0.0351 0.8127 0.5621
H75 H -0.0455 0.8437 0.6128
C86 C 0.0122(4) 0.9278(6) 0.5940(4)
H76 H 0.0386 0.9221 0.5741
H77 H 0.0354 0.9486 0.6285
C87 C -0.0365(4) 0.9995(8) 0.5684(5)
H78 H -0.0601 0.9748 0.5350
H79 H -0.0621 1.0030 0.5890
C88 C -0.0207(5) 1.0909(10) 0.5605(6)
H80 H -0.0141 1.1263 0.5915
H81 H -0.0521 1.1187 0.5328
H82 H 0.0149 1.0900 0.5519
O7 O 0.8741(11) 0.5930(8) 0.4724(7)
H83 H 0.907(12) 0.60(2) 0.508(7)
H84 H 0.878(17) 0.59(2) 0.434(6)
loop_
_geom_bond_atom_site_label_1
_geom_bond_atom_site_label_2
_geom_bond_site_symmetry_1
_geom_bond_site_symmetry_2
O1 C11 1_555 1_555
O2 C18 1_555 1_555
O3 C25 1_555 1_555
O4 C32 1_555 1_555
O5 C39 1_555 1_555
O6 C46 1_555 1_555
N1 H1 1_555 1_555
N2 H2 1_555 1_555
N3 H3 1_555 1_555
N4 H4 1_555 1_555
N5 H5 1_555 1_555
N6 H6 1_555 1_555
N7 H7 1_555 1_555
N8 H8 1_555 1_555
N9 H9 1_555 1_555
N10 H10 1_555 1_555
N11 H11 1_555 1_555
N12 H12 1_555 1_555
C1 N1 1_555 1_555
C2 C1 1_555 1_555
H13 C2 1_555 1_555
C3 C2 1_555 1_555
H14 C3 1_555 1_555
C4 C3 1_555 1_555
H15 C4 1_555 1_555
C5 C4 1_555 1_555
C6 C5 1_555 1_555
H16 C6 1_555 1_555
C7 C6 1_555 1_555
H17 C7 1_555 1_555
C8 C7 1_555 1_555
H18 C8 1_555 1_555
C9 C8 1_555 1_555
H19 C9 1_555 1_555
C10 C1 1_555 1_555
C11 N1 1_555 1_555
C12 N2 1_555 1_555
C13 C12 1_555 1_555
H20 C13 1_555 1_555
C14 C13 1_555 1_555
H21 C14 1_555 1_555
C15 C14 1_555 1_555
H22 C15 1_555 1_555
C16 C15 1_555 1_555
H23 C16 1_555 1_555
C17 N3 1_555 1_555
C18 N3 1_555 1_555
C19 N4 1_555 1_555
C20 C19 1_555 1_555
H24 C20 1_555 1_555
C21 C20 1_555 1_555
H25 C21 1_555 1_555
C22 C21 1_555 1_555
H26 C22 1_555 1_555
C23 C22 1_555 1_555
H27 C23 1_555 1_555
C24 N5 1_555 1_555
C25 N5 1_555 1_555
C26 N6 1_555 1_555
C27 C26 1_555 1_555
H28 C27 1_555 1_555
C28 C27 1_555 1_555
H29 C28 1_555 1_555
C29 C28 1_555 1_555
H30 C29 1_555 1_555
C30 C29 1_555 1_555
H31 C30 1_555 1_555
C31 N7 1_555 1_555
C32 N7 1_555 1_555
C33 N8 1_555 1_555
C34 C33 1_555 1_555
H32 C34 1_555 1_555
C35 C34 1_555 1_555
H33 C35 1_555 1_555
C36 C35 1_555 1_555
H34 C36 1_555 1_555
C37 C36 1_555 1_555
H35 C37 1_555 1_555
C38 N9 1_555 1_555
C39 N9 1_555 1_555
C40 N10 1_555 1_555
C41 C40 1_555 1_555
H36 C41 1_555 1_555
C42 C41 1_555 1_555
H37 C42 1_555 1_555
C43 C42 1_555 1_555
H38 C43 1_555 1_555
C44 C43 1_555 1_555
H39 C44 1_555 1_555
C45 N11 1_555 1_555
C46 N11 1_555 1_555
C47 N12 1_555 1_555
C48 C47 1_555 1_555
H40 C48 1_555 1_555
C49 C48 1_555 1_555
H41 C49 1_555 1_555
C50 C49 1_555 1_555
H42 C50 1_555 1_555
C51 C50 1_555 1_555
C52 C51 1_555 1_555
H43 C52 1_555 1_555
C53 C52 1_555 1_555
H44 C53 1_555 1_555
C54 C53 1_555 1_555
H45 C54 1_555 1_555
C55 C54 1_555 1_555
H46 C55 1_555 1_555
C56 C47 1_555 1_555
N13 C60 1_555 1_555
C57 C58 1_555 1_555
C58 C59 1_555 1_555
C59 C60 1_555 1_555
C61 C62 1_555 1_555
C62 C63 1_555 1_555
C63 C64 1_555 1_555
C64 N13 1_555 1_555
C65 N13 1_555 1_555
C66 C65 1_555 1_555
C67 C66 1_555 1_555
C68 C67 1_555 1_555
C69 N13 1_555 1_555
C70 C69 1_555 1_555
C71 C70 1_555 1_555
C72 C71 1_555 1_555
N14 C76 1_555 1_555
C73 H47 1_555 1_555
H48 C73 1_555 1_555
H49 C73 1_555 1_555
C74 C73 1_555 1_555
H50 C74 1_555 1_555
H51 C74 1_555 1_555
C75 C74 1_555 1_555
H52 C75 1_555 1_555
H53 C75 1_555 1_555
C76 C75 1_555 1_555
H54 C76 1_555 1_555
H55 C76 1_555 1_555
C77 N14 1_555 1_555
H56 C77 1_555 1_555
H57 C77 1_555 1_555
C78 C77 1_555 1_555
H58 C78 1_555 1_555
H59 C78 1_555 1_555
C79 C78 1_555 1_555
H60 C79 1_555 1_555
H61 C79 1_555 1_555
C80 C79 1_555 1_555
H62 C80 1_555 1_555
H63 C80 1_555 1_555
H64 C80 1_555 1_555
C81 H65 1_555 1_555
H66 C81 1_555 1_555
H67 C81 1_555 1_555
C82 C81 1_555 1_555
H68 C82 1_555 1_555
H69 C82 1_555 1_555
C83 C82 1_555 1_555
H70 C83 1_555 1_555
H71 C83 1_555 1_555
C84 N14 1_555 1_555
H72 C84 1_555 1_555
H73 C84 1_555 1_555
C85 N14 1_555 1_555
H74 C85 1_555 1_555
H75 C85 1_555 1_555
C86 C85 1_555 1_555
H76 C86 1_555 1_555
H77 C86 1_555 1_555
C87 C86 1_555 1_555
H78 C87 1_555 1_555
H79 C87 1_555 1_555
C88 C87 1_555 1_555
H80 C88 1_555 1_555
H81 C88 1_555 1_555
H82 C88 1_555 1_555
O7 H83 1_555 1_555
H84 O7 1_555 1_555
N2 C11 1_555 1_555
N4 C18 1_555 1_555
N6 C25 1_555 1_555
N8 C32 1_555 1_555
N10 C39 1_555 1_555
N12 C46 1_555 1_555
C5 C10 1_555 1_555
C9 C10 1_555 1_555
C12 C17 1_555 1_555
C16 C17 1_555 1_555
C19 C24 1_555 1_555
C23 C24 1_555 1_555
C26 C31 1_555 1_555
C30 C31 1_555 1_555
C33 C38 1_555 1_555
C37 C38 1_555 1_555
C40 C45 1_555 1_555
C44 C45 1_555 1_555
C51 C56 1_555 1_555
C55 C56 1_555 1_555
C83 C84 1_555 1_555

#END
