
#######################################################################
#
#                 Cambridge Crystallographic Data Centre
#                                CCDC 
#
#######################################################################
#
# If this CIF has been generated from an entry in the Cambridge 
# Structural Database, then it will include bibliographic, chemical, 
# crystal, experimental, refinement or atomic coordinate data resulting 
# from the CCDC's data processing and validation procedures.
#
#######################################################################

data_BEPSUM
_chemical_formula_moiety         
'C42 H34 N8 O4,2(C8 H20 N1 1+),C4 H10 O1,2(Cl1 1-)'
_chemical_name_systematic        
"bis(tetraethylammonium) dichloride 1,1'-(1,2-phenylenebis(carbamoylimino-2,1-phenylene))bis(3-(1-anthryl)urea) diethyl ether solvate"
_symmetry_cell_setting           monoclinic
_symmetry_space_group_name_H-M   'P 21/c'
_symmetry_Int_Tables_number      14
_space_group_name_Hall           '-P 2ybc'
loop_
_symmetry_equiv_pos_site_id
_symmetry_equiv_pos_as_xyz
1 x,y,z
2 -x,1/2+y,1/2-z
3 -x,-y,-z
4 x,1/2-y,1/2+z
_cell_length_a                   19.580(6)
_cell_length_b                   14.218(4)
_cell_length_c                   25.608(8)
_cell_angle_alpha                90
_cell_angle_beta                 112.48
_cell_angle_gamma                90
_cell_volume                     6587.26
_exptl_crystal_colour            colorless
_exptl_crystal_description       block
_cell_formula_units_Z            4
loop_
_atom_site_label
_atom_site_type_symbol
_atom_site_fract_x
_atom_site_fract_y
_atom_site_fract_z
Cl1 Cl 0.14167(4) 1.00430(5) 0.30697(3)
Cl2 Cl 0.35094(5) 0.99162(5) 0.39528(4)
O1 O 0.27055(13) 1.13375(14) 0.18394(9)
O2 O 0.23917(12) 1.30239(14) 0.41747(8)
O3 O 0.21309(13) 0.86240(14) 0.50246(8)
O4 O 0.37407(17) 0.64489(17) 0.35984(16)
N1 N 0.22052(15) 1.00956(15) 0.21366(10)
H1 H 0.2085 0.9909 0.2409
N2 N 0.23642(14) 1.15067(15) 0.25906(9)
H2 H 0.2192 1.1219 0.2810
N3 N 0.29507(14) 1.21420(15) 0.37019(9)
H3 H 0.3199 1.1637 0.3715
N4 N 0.27485(14) 1.15195(15) 0.44483(10)
H4 H 0.2990 1.1048 0.4397
N5 N 0.19697(14) 0.99327(15) 0.44756(10)
H5 H 0.1849 1.0126 0.4134
N6 N 0.20069(13) 0.84879(15) 0.41026(9)
H6 H 0.1965 0.8785 0.3799
N7 N 0.31326(15) 0.75840(17) 0.38931(12)
H7 H 0.3130 0.8177 0.3959
N8 N 0.40294(15) 0.79904(18) 0.35694(13)
H8 H 0.3906 0.8555 0.3616
C1 C 0.2132(2) 0.9701(3) 0.11879(15)
H9 H 0.2191 1.0331 0.1116
C2 C 0.2035(3) 0.9022(4) 0.07667(17)
H10 H 0.2045 0.9207 0.0421
C3 C 0.1925(3) 0.8105(3) 0.08532(19)
H11 H 0.1830 0.7675 0.0560
C4 C 0.19545(19) 0.7795(2) 0.13826(15)
C5 C 0.1852(2) 0.6848(3) 0.1485(2)
H12 H 0.1753 0.6414 0.1193
C6 C 0.1895(2) 0.6543(3) 0.2005(2)
H13 H 0.1824 0.5912 0.2065
C7 C 0.2048(2) 0.7189(2) 0.24429(18)
H14 H 0.2088 0.6980 0.2798
C8 C 0.21392(17) 0.8129(2) 0.23624(14)
H15 H 0.2244 0.8545 0.2663
C9 C 0.20759(15) 0.8469(2) 0.18289(13)
C10 C 0.21404(16) 0.9434(2) 0.17090(12)
C11 C 0.24417(15) 1.10061(19) 0.21587(11)
C12 C 0.25502(15) 1.24628(17) 0.26959(11)
C13 C 0.24352(18) 1.3102(2) 0.22607(13)
H16 H 0.2236 1.2898 0.1888
C14 C 0.2616(2) 1.4047(2) 0.23780(14)
H17 H 0.2538 1.4469 0.2083
C15 C 0.2906(2) 1.4357(2) 0.29240(15)
H18 H 0.3030 1.4988 0.3000
C16 C 0.30162(18) 1.37384(19) 0.33625(13)
H19 H 0.3206 1.3955 0.3733
C17 C 0.28452(15) 1.27896(18) 0.32533(11)
C18 C 0.26724(15) 1.22892(18) 0.41159(11)
C19 C 0.24555(17) 1.1443(2) 0.48747(12)
C20 C 0.2559(2) 1.2145(2) 0.52769(14)
H20 H 0.2802 1.2698 0.5259
C21 C 0.2299(2) 1.2018(3) 0.57033(15)
H21 H 0.2368 1.2486 0.5972
C22 C 0.1940(2) 1.1209(3) 0.57309(14)
H22 H 0.1774 1.1128 0.6023
C23 C 0.18220(19) 1.0515(2) 0.53365(13)
H23 H 0.1568 0.9974 0.5358
C24 C 0.20837(16) 1.0618(2) 0.48983(11)
C25 C 0.20369(14) 0.89888(19) 0.45683(11)
C26 C 0.20428(16) 0.74872(19) 0.41093(11)
C27 C 0.15143(19) 0.6966(2) 0.42302(13)
H24 H 0.1136 0.7272 0.4297
C28 C 0.1557(2) 0.6001(3) 0.42502(15)
H25 H 0.1205 0.5655 0.4330
C29 C 0.2113(2) 0.5544(2) 0.41532(16)
H26 H 0.2136 0.4891 0.4167
C30 C 0.2639(2) 0.6049(2) 0.40346(15)
H27 H 0.3016 0.5731 0.3971
C31 C 0.26126(17) 0.7034(2) 0.40084(12)
C32 C 0.36519(18) 0.7277(2) 0.36840(16)
C33 C 0.46241(18) 0.7870(2) 0.33742(17)
C34 C 0.5137(2) 0.7195(3) 0.3595(2)
H28 H 0.5095 0.6784 0.3864
C35 C 0.5743(2) 0.7104(3) 0.3421(3)
H29 H 0.6097 0.6639 0.3578
C36 C 0.5802(2) 0.7696(4) 0.3029(2)
H30 H 0.6197 0.7630 0.2915
C37 C 0.5287(2) 0.8401(3) 0.27927(19)
C38 C 0.5345(3) 0.9058(5) 0.2393(2)
H31 H 0.5744 0.9013 0.2282
C39 C 0.4851(3) 0.9732(5) 0.2172(3)
H32 H 0.4911 1.0150 0.1914
C40 C 0.4233(3) 0.9820(4) 0.2327(2)
H33 H 0.3884 1.0288 0.2168
C41 C 0.4152(2) 0.9209(3) 0.27152(18)
H34 H 0.3745 0.9271 0.2815
C42 C 0.46656(17) 0.8498(3) 0.29631(16)
O5 O 0.0201(3) 0.2221(4) 0.5650(3)
C43 C 0.0494(8) 0.3813(9) 0.5555(7)
H35 H 0.0390 0.3857 0.5891
H36 H 0.0242 0.4309 0.5300
H37 H 0.1017 0.3871 0.5652
C44 C 0.0237(5) 0.2893(8) 0.5280(5)
H38 H -0.0248 0.2969 0.4983
H39 H 0.0572 0.2682 0.5106
C45 C -0.0070(4) 0.1349(6) 0.5354(4)
H40 H 0.0228 0.1162 0.5143
H41 H -0.0578 0.1418 0.5092
C46 C -0.0013(5) 0.0621(7) 0.5806(5)
H42 H 0.0468 0.0654 0.6104
H43 H -0.0089 0.0004 0.5642
H44 H -0.0383 0.0747 0.5957
N9 N 0.03232(15) 0.3048(2) 0.29786(14)
C47 C 0.0712(3) 0.4563(5) 0.2614(3)
H45 H 0.0441 0.4384 0.2228
H46 H 0.1142 0.4915 0.2639
H47 H 0.0404 0.4944 0.2744
C48 C 0.0947(2) 0.3691(3) 0.2977(2)
H48 H 0.1230 0.3885 0.3362
H49 H 0.1273 0.3329 0.2849
C49 C 0.0310(4) 0.2134(5) 0.2114(2)
H50 H 0.0578 0.2573 0.1980
H51 H -0.0027 0.1783 0.1802
H52 H 0.0651 0.1711 0.2379
C50 C -0.0121(3) 0.2667(4) 0.24039(19)
H53 H -0.0375 0.3187 0.2163
H54 H -0.0496 0.2250 0.2435
C51 C 0.0196(3) 0.1577(3) 0.3494(2)
H55 H -0.0053 0.1877 0.3707
H56 H 0.0478 0.1053 0.3704
H57 H -0.0161 0.1359 0.3141
C52 C 0.0699(2) 0.2261(3) 0.33870(17)
H58 H 0.1018 0.1921 0.3241
H59 H 0.1012 0.2539 0.3745
C53 C 0.0111(4) 0.4012(5) 0.3734(3)
H60 H 0.0297 0.3530 0.4015
H61 H -0.0265 0.4364 0.3803
H62 H 0.0507 0.4426 0.3752
C54 C -0.0208(2) 0.3576(3) 0.3167(2)
H63 H -0.0437 0.4067 0.2893
H64 H -0.0596 0.3147 0.3161
N10 N 0.4291(2) 0.8462(3) 0.5884(2)
C55 C 0.4308(4) 1.0211(5) 0.5789(4)
H65 H 0.4521 1.0186 0.6195
H66 H 0.3970 1.0730 0.5671
H67 H 0.4693 1.0293 0.5648
C56 C 0.3903(3) 0.9314(5) 0.5563(3)
H68 H 0.3414 0.9350 0.5575
H69 H 0.3841 0.9245 0.5171
C57 C 0.4968(4) 0.8245(6) 0.5205(3)
H70 H 0.4648 0.7741 0.5006
H71 H 0.5453 0.8142 0.5207
H72 H 0.4776 0.8831 0.5021
C58 C 0.5008(3) 0.8278(5) 0.5806(4)
H73 H 0.5359 0.8763 0.6006
H74 H 0.5206 0.7682 0.5985
C59 C 0.3982(6) 0.6732(7) 0.5959(7)
H75 H 0.4501 0.6632 0.6055
H76 H 0.3708 0.6221 0.5729
H77 H 0.3884 0.6764 0.6299
C60 C 0.3743(4) 0.7674(5) 0.5625(4)
H78 H 0.3697 0.7576 0.5238
H79 H 0.3262 0.7858 0.5618
C61 C 0.3786(5) 0.8518(10) 0.6656(5)
H80 H 0.3701 0.9152 0.6745
H81 H 0.3886 0.8126 0.6982
H82 H 0.3355 0.8289 0.6351
C62 C 0.4411(5) 0.8497(8) 0.6488(4)
H83 H 0.4709 0.7955 0.6668
H84 H 0.4708 0.9051 0.6647
loop_
_geom_bond_atom_site_label_1
_geom_bond_atom_site_label_2
_geom_bond_site_symmetry_1
_geom_bond_site_symmetry_2
O1 C11 1_555 1_555
O2 C18 1_555 1_555
O3 C25 1_555 1_555
O4 C32 1_555 1_555
N1 H1 1_555 1_555
N2 H2 1_555 1_555
N3 H3 1_555 1_555
N4 H4 1_555 1_555
N5 H5 1_555 1_555
N6 H6 1_555 1_555
N7 H7 1_555 1_555
N8 H8 1_555 1_555
C1 H9 1_555 1_555
C2 C1 1_555 1_555
H10 C2 1_555 1_555
C3 C2 1_555 1_555
H11 C3 1_555 1_555
C4 C3 1_555 1_555
C5 C4 1_555 1_555
H12 C5 1_555 1_555
C6 C5 1_555 1_555
H13 C6 1_555 1_555
C7 C6 1_555 1_555
H14 C7 1_555 1_555
C8 C7 1_555 1_555
H15 C8 1_555 1_555
C9 C4 1_555 1_555
C10 N1 1_555 1_555
C11 N1 1_555 1_555
C12 N2 1_555 1_555
C13 C12 1_555 1_555
H16 C13 1_555 1_555
C14 C13 1_555 1_555
H17 C14 1_555 1_555
C15 C14 1_555 1_555
H18 C15 1_555 1_555
C16 C15 1_555 1_555
H19 C16 1_555 1_555
C17 N3 1_555 1_555
C18 N3 1_555 1_555
C19 N4 1_555 1_555
C20 C19 1_555 1_555
H20 C20 1_555 1_555
C21 C20 1_555 1_555
H21 C21 1_555 1_555
C22 C21 1_555 1_555
H22 C22 1_555 1_555
C23 C22 1_555 1_555
H23 C23 1_555 1_555
C24 N5 1_555 1_555
C25 N5 1_555 1_555
C26 N6 1_555 1_555
C27 C26 1_555 1_555
H24 C27 1_555 1_555
C28 C27 1_555 1_555
H25 C28 1_555 1_555
C29 C28 1_555 1_555
H26 C29 1_555 1_555
C30 C29 1_555 1_555
H27 C30 1_555 1_555
C31 N7 1_555 1_555
C32 N7 1_555 1_555
C33 N8 1_555 1_555
C34 C33 1_555 1_555
H28 C34 1_555 1_555
C35 C34 1_555 1_555
H29 C35 1_555 1_555
C36 C35 1_555 1_555
H30 C36 1_555 1_555
C37 C36 1_555 1_555
C38 C37 1_555 1_555
H31 C38 1_555 1_555
C39 C38 1_555 1_555
H32 C39 1_555 1_555
C40 C39 1_555 1_555
H33 C40 1_555 1_555
C41 C40 1_555 1_555
H34 C41 1_555 1_555
C42 C33 1_555 1_555
O5 C44 1_555 1_555
C43 H35 1_555 1_555
H36 C43 1_555 1_555
H37 C43 1_555 1_555
C44 C43 1_555 1_555
H38 C44 1_555 1_555
H39 C44 1_555 1_555
C45 O5 1_555 1_555
H40 C45 1_555 1_555
H41 C45 1_555 1_555
C46 C45 1_555 1_555
H42 C46 1_555 1_555
H43 C46 1_555 1_555
H44 C46 1_555 1_555
N9 C48 1_555 1_555
C47 H45 1_555 1_555
H46 C47 1_555 1_555
H47 C47 1_555 1_555
C48 C47 1_555 1_555
H48 C48 1_555 1_555
H49 C48 1_555 1_555
C49 H50 1_555 1_555
H51 C49 1_555 1_555
H52 C49 1_555 1_555
C50 N9 1_555 1_555
H53 C50 1_555 1_555
H54 C50 1_555 1_555
C51 H55 1_555 1_555
H56 C51 1_555 1_555
H57 C51 1_555 1_555
C52 N9 1_555 1_555
H58 C52 1_555 1_555
H59 C52 1_555 1_555
C53 H60 1_555 1_555
H61 C53 1_555 1_555
H62 C53 1_555 1_555
C54 N9 1_555 1_555
H63 C54 1_555 1_555
H64 C54 1_555 1_555
N10 C56 1_555 1_555
C55 H65 1_555 1_555
H66 C55 1_555 1_555
H67 C55 1_555 1_555
C56 C55 1_555 1_555
H68 C56 1_555 1_555
H69 C56 1_555 1_555
C57 H70 1_555 1_555
H71 C57 1_555 1_555
H72 C57 1_555 1_555
C58 N10 1_555 1_555
H73 C58 1_555 1_555
H74 C58 1_555 1_555
C59 H75 1_555 1_555
H76 C59 1_555 1_555
H77 C59 1_555 1_555
C60 N10 1_555 1_555
H78 C60 1_555 1_555
H79 C60 1_555 1_555
C61 H80 1_555 1_555
H81 C61 1_555 1_555
H82 C61 1_555 1_555
C62 N10 1_555 1_555
H83 C62 1_555 1_555
H84 C62 1_555 1_555
N2 C11 1_555 1_555
N4 C18 1_555 1_555
N6 C25 1_555 1_555
N8 C32 1_555 1_555
C1 C10 1_555 1_555
C8 C9 1_555 1_555
C9 C10 1_555 1_555
C12 C17 1_555 1_555
C16 C17 1_555 1_555
C19 C24 1_555 1_555
C23 C24 1_555 1_555
C26 C31 1_555 1_555
C30 C31 1_555 1_555
C37 C42 1_555 1_555
C41 C42 1_555 1_555
C49 C50 1_555 1_555
C51 C52 1_555 1_555
C53 C54 1_555 1_555
C57 C58 1_555 1_555
C59 C60 1_555 1_555
C61 C62 1_555 1_555

#END
