
#######################################################################
#
#                 Cambridge Crystallographic Data Centre
#                                CCDC 
#
#######################################################################
#
# If this CIF has been generated from an entry in the Cambridge 
# Structural Database, then it will include bibliographic, chemical, 
# crystal, experimental, refinement or atomic coordinate data resulting 
# from the CCDC's data processing and validation procedures.
#
#######################################################################

data_BEQQIA
_chemical_formula_moiety         'C21 H20 Cl1 N1 O3 S1'
_chemical_name_systematic        
'tricyclo[3.3.1.1^3,7^]decan-1-yl 5-chloro-1-oxo-2-thiocyanato-2,3-dihydro-1H-indene-2-carboxylate'
_symmetry_cell_setting           orthorhombic
_symmetry_space_group_name_H-M   'P 21 21 21'
_symmetry_Int_Tables_number      19
_space_group_name_Hall           'P 2ac 2ab'
loop_
_symmetry_equiv_pos_site_id
_symmetry_equiv_pos_as_xyz
1 x,y,z
2 1/2-x,-y,1/2+z
3 -x,1/2+y,1/2-z
4 1/2+x,1/2-y,-z
_cell_length_a                   6.313(2)
_cell_length_b                   13.256(4)
_cell_length_c                   23.840(8)
_cell_angle_alpha                90
_cell_angle_beta                 90
_cell_angle_gamma                90
_cell_volume                     1995.05
_cell_formula_units_Z            4
loop_
_atom_site_label
_atom_site_type_symbol
_atom_site_fract_x
_atom_site_fract_y
_atom_site_fract_z
S1 S -0.00969(14) 0.34295(5) 0.41617(3)
Cl1 Cl 0.6273(2) 0.64582(10) 0.62335(4)
O1 O 0.3080(3) 0.54305(14) 0.33551(7)
O2 O 0.0536(4) 0.42882(17) 0.31486(8)
O3 O -0.1304(4) 0.57740(18) 0.42244(12)
C1 C 0.3332(3) 0.58322(16) 0.27728(8)
C2 C 0.1730(4) 0.68777(19) 0.20231(11)
H1 H 0.0448 0.7236 0.1906
C3 C 0.3528(4) 0.52611(17) 0.48869(9)
C4 C 0.1671(4) 0.4728(2) 0.34704(10)
C5 C 0.1670(4) 0.58013(17) 0.48581(10)
C6 C 0.1341(3) 0.63834(17) 0.25972(9)
H2 H 0.0987 0.6895 0.2873
H3 H 0.0167 0.5913 0.2572
C7 C 0.3723(4) 0.45008(19) 0.44178(10)
H4 H 0.3966 0.3829 0.4566
H5 H 0.4879 0.4676 0.4168
C8 C 0.1575(4) 0.45560(17) 0.41083(9)
C9 C 0.3896(5) 0.50125(19) 0.23514(11)
H6 H 0.2753 0.4526 0.2325
H7 H 0.5167 0.4661 0.2471
C10 C 0.4267(4) 0.5516(2) 0.17748(11)
H8 H 0.4615 0.4997 0.1497
C11 C 0.2253(4) 0.6069(2) 0.15933(10)
H9 H 0.2466 0.6375 0.1228
H10 H 0.1088 0.5594 0.1565
C12 C 0.0373(4) 0.54591(18) 0.43833(11)
C13 C 0.4988(5) 0.5453(2) 0.53138(11)
H11 H 0.6249 0.5093 0.5340
C14 C 0.5154(4) 0.6572(2) 0.28312(10)
H12 H 0.6418 0.6222 0.2956
H13 H 0.4805 0.7084 0.3107
C15 C 0.5555(4) 0.7069(2) 0.22552(12)
H14 H 0.6730 0.7549 0.2286
C16 C 0.3551(5) 0.7626(2) 0.20720(14)
H15 H 0.3200 0.8143 0.2345
H16 H 0.3789 0.7952 0.1713
C17 C 0.1188(5) 0.6559(2) 0.52498(13)
H17 H -0.0068 0.6922 0.5226
C18 C 0.6104(4) 0.6260(3) 0.18213(12)
H18 H 0.6362 0.6573 0.1460
H19 H 0.7380 0.5907 0.1934
C19 C 0.2641(6) 0.6748(2) 0.56731(13)
H20 H 0.2370 0.7244 0.5940
C20 C -0.0014(7) 0.3276(2) 0.48667(12)
C21 C 0.4487(6) 0.6197(2) 0.56953(12)
N1 N 0.0019(9) 0.3128(3) 0.53349(13)
loop_
_geom_bond_atom_site_label_1
_geom_bond_atom_site_label_2
_geom_bond_site_symmetry_1
_geom_bond_site_symmetry_2
S1 C8 1_555 1_555
Cl1 C21 1_555 1_555
O1 C1 1_555 1_555
O2 C4 1_555 1_555
O3 C12 1_555 1_555
C1 C6 1_555 1_555
C2 H1 1_555 1_555
C3 C5 1_555 1_555
C4 O1 1_555 1_555
C5 C12 1_555 1_555
C6 C2 1_555 1_555
H2 C6 1_555 1_555
H3 C6 1_555 1_555
C7 C3 1_555 1_555
H4 C7 1_555 1_555
H5 C7 1_555 1_555
C8 C4 1_555 1_555
C9 C1 1_555 1_555
H6 C9 1_555 1_555
H7 C9 1_555 1_555
C10 C9 1_555 1_555
H8 C10 1_555 1_555
C11 C2 1_555 1_555
H9 C11 1_555 1_555
H10 C11 1_555 1_555
C12 C8 1_555 1_555
C13 C3 1_555 1_555
H11 C13 1_555 1_555
C14 C1 1_555 1_555
H12 C14 1_555 1_555
H13 C14 1_555 1_555
C15 C14 1_555 1_555
H14 C15 1_555 1_555
C16 C2 1_555 1_555
H15 C16 1_555 1_555
H16 C16 1_555 1_555
C17 C5 1_555 1_555
H17 C17 1_555 1_555
C18 C10 1_555 1_555
H18 C18 1_555 1_555
H19 C18 1_555 1_555
C19 C17 1_555 1_555
H20 C19 1_555 1_555
C20 S1 1_555 1_555
C21 C13 1_555 1_555
N1 C20 1_555 1_555
C7 C8 1_555 1_555
C10 C11 1_555 1_555
C15 C16 1_555 1_555
C15 C18 1_555 1_555
C19 C21 1_555 1_555

#END
