
#######################################################################
#
#                 Cambridge Crystallographic Data Centre
#                                CCDC 
#
#######################################################################
#
# If this CIF has been generated from an entry in the Cambridge 
# Structural Database, then it will include bibliographic, chemical, 
# crystal, experimental, refinement or atomic coordinate data resulting 
# from the CCDC's data processing and validation procedures.
#
#######################################################################

data_BERCOS
_chemical_formula_moiety         'C19 H19 N1 O3'
_chemical_name_systematic        
5-Allyl-2-butyl-6-hydroxy-1H-benzo[de]isoquinoline-1,3(2H)-dione
_symmetry_cell_setting           monoclinic
_symmetry_space_group_name_H-M   'P 21'
_symmetry_Int_Tables_number      4
_space_group_name_Hall           'P 2yb'
loop_
_symmetry_equiv_pos_site_id
_symmetry_equiv_pos_as_xyz
1 x,y,z
2 -x,1/2+y,-z
_cell_length_a                   4.9619(4)
_cell_length_b                   13.1060(14)
_cell_length_c                   12.2014(9)
_cell_angle_alpha                90
_cell_angle_beta                 91.684(6)
_cell_angle_gamma                90
_cell_volume                     793.122
_exptl_crystal_colour            colorless
_exptl_crystal_description       block
_cell_formula_units_Z            2
loop_
_atom_site_label
_atom_site_type_symbol
_atom_site_fract_x
_atom_site_fract_y
_atom_site_fract_z
O1 O 0.3225(4) 1.01490(16) 1.05931(16)
H1 H 0.4729 1.0154 1.0890
O2 O -0.4373(4) 0.74381(18) 0.64867(15)
O3 O 0.2535(4) 0.57906(16) 0.82264(14)
N1 N -0.0919(4) 0.66222(18) 0.73689(16)
C1 C -0.2732(6) 1.0177(3) 0.8184(2)
H2 H -0.3710 1.0769 0.8036
C2 C -0.3320(6) 0.9288(2) 0.7595(2)
H3 H -0.4699 0.9291 0.7062
C3 C -0.1890(5) 0.8414(2) 0.7794(2)
C4 C 0.0201(5) 0.8394(2) 0.86080(19)
C5 C 0.0785(5) 0.9294(2) 0.9220(2)
C6 C -0.0715(6) 1.0184(3) 0.8982(2)
H4 H -0.0337 1.0782 0.9368
C7 C 0.2860(5) 0.9261(2) 1.0043(2)
C8 C 0.4312(5) 0.8378(2) 1.02515(19)
C9 C 0.3705(5) 0.7509(2) 0.96201(19)
H5 H 0.4690 0.6916 0.9754
C10 C 0.1709(5) 0.7496(2) 0.88076(18)
C11 C -0.2539(5) 0.7480(2) 0.71629(19)
C12 C 0.1198(5) 0.6581(2) 0.81381(18)
C13 C -0.1460(6) 0.5720(3) 0.6676(2)
H6 H -0.3394 0.5631 0.6584
H7 H -0.0738 0.5119 0.7044
C14 C -0.0236(7) 0.5811(3) 0.5562(2)
H8 H 0.1704 0.5734 0.5642
H9 H -0.0599 0.6488 0.5271
C15 C -0.1327(8) 0.5016(4) 0.4744(3)
H10 H -0.3271 0.5089 0.4678
H11 H -0.0600 0.5160 0.4031
C16 C -0.0694(11) 0.3955(4) 0.5035(4)
H12 H -0.1396 0.3509 0.4472
H13 H -0.1497 0.3790 0.5719
H14 H 0.1225 0.3873 0.5105
C17 C 0.6489(6) 0.8326(3) 1.1153(2)
H15 H 0.7767 0.7797 1.0971
H16 H 0.7452 0.8970 1.1177
C18 C 0.5439(8) 0.8113(3) 1.2255(2)
H17 H 0.3965 0.8499 1.2461
C19 C 0.6335(11) 0.7456(4) 1.2960(3)
H18 H 0.7806 0.7049 1.2798
H19 H 0.5511 0.7388 1.3631
loop_
_geom_bond_atom_site_label_1
_geom_bond_atom_site_label_2
_geom_bond_site_symmetry_1
_geom_bond_site_symmetry_2
O1 H1 1_555 1_555
O2 C11 1_555 1_555
O3 C12 1_555 1_555
N1 C11 1_555 1_555
C1 H2 1_555 1_555
C2 C1 1_555 1_555
H3 C2 1_555 1_555
C3 C2 1_555 1_555
C4 C3 1_555 1_555
C5 C4 1_555 1_555
C6 C1 1_555 1_555
H4 C6 1_555 1_555
C7 O1 1_555 1_555
C8 C7 1_555 1_555
C9 C8 1_555 1_555
H5 C9 1_555 1_555
C10 C4 1_555 1_555
C11 C3 1_555 1_555
C12 N1 1_555 1_555
C13 N1 1_555 1_555
H6 C13 1_555 1_555
H7 C13 1_555 1_555
C14 C13 1_555 1_555
H8 C14 1_555 1_555
H9 C14 1_555 1_555
C15 C14 1_555 1_555
H10 C15 1_555 1_555
H11 C15 1_555 1_555
C16 C15 1_555 1_555
H12 C16 1_555 1_555
H13 C16 1_555 1_555
H14 C16 1_555 1_555
C17 C8 1_555 1_555
H15 C17 1_555 1_555
H16 C17 1_555 1_555
C18 C17 1_555 1_555
H17 C18 1_555 1_555
C19 C18 1_555 1_555
H18 C19 1_555 1_555
H19 C19 1_555 1_555
C5 C6 1_555 1_555
C5 C7 1_555 1_555
C9 C10 1_555 1_555
C10 C12 1_555 1_555

#END
