
#######################################################################
#
#                 Cambridge Crystallographic Data Centre
#                                CCDC 
#
#######################################################################
#
# If this CIF has been generated from an entry in the Cambridge 
# Structural Database, then it will include bibliographic, chemical, 
# crystal, experimental, refinement or atomic coordinate data resulting 
# from the CCDC's data processing and validation procedures.
#
#######################################################################

data_BERFAH
_chemical_formula_moiety         'C19 H13 F3 N2 O2 S2'
_chemical_name_systematic        
N-(3-(4-(Trifluoromethyl)phenyl)indolizin-1-yl)thiophene-2-sulfonamide
_symmetry_cell_setting           orthorhombic
_symmetry_space_group_name_H-M   'P 21 21 21'
_symmetry_Int_Tables_number      19
_space_group_name_Hall           'P 2ac 2ab'
loop_
_symmetry_equiv_pos_site_id
_symmetry_equiv_pos_as_xyz
1 x,y,z
2 1/2-x,-y,1/2+z
3 -x,1/2+y,1/2-z
4 1/2+x,1/2-y,-z
_cell_length_a                   9.6945(6)
_cell_length_b                   19.1655(12)
_cell_length_c                   20.4065(12)
_cell_angle_alpha                90
_cell_angle_beta                 90
_cell_angle_gamma                90
_cell_volume                     3791.53
_exptl_crystal_colour            colorless
_exptl_crystal_description       prismatic
_chemical_melting_point          '192-193 deg.C'
_cell_formula_units_Z            8
loop_
_atom_site_label
_atom_site_type_symbol
_atom_site_fract_x
_atom_site_fract_y
_atom_site_fract_z
S1 S 0.37892(12) 0.86372(6) 0.83607(6)
S2 S 0.3625(3) 0.77092(11) 0.95480(12)
F1 F 0.8966(12) 0.3636(5) 0.8574(5)
F2 F 0.7690(13) 0.3755(6) 0.9362(6)
F3 F 0.9664(14) 0.4289(7) 0.9404(8)
N1 N 0.5209(4) 0.65600(19) 0.73421(18)
N2 N 0.4977(4) 0.83492(19) 0.7872(2)
O1 O 0.2530(4) 0.8292(2) 0.8190(2)
O2 O 0.3860(4) 0.93693(17) 0.83390(19)
C1 C 0.5204(5) 0.7619(2) 0.7794(2)
C2 C 0.5995(4) 0.7176(2) 0.8189(2)
H1 H 0.6441 0.7299 0.8575
C3 C 0.5994(5) 0.6524(2) 0.7902(2)
C4 C 0.4707(5) 0.7237(2) 0.7267(2)
C5 C 0.3881(7) 0.7389(3) 0.6728(3)
H2 H 0.3515 0.7834 0.6678
C6 C 0.3613(9) 0.6897(4) 0.6281(3)
H3 H 0.3036 0.6999 0.5930
C7 C 0.4193(9) 0.6228(3) 0.6336(3)
H4 H 0.4033 0.5897 0.6011
C8 C 0.4981(8) 0.6065(3) 0.6858(3)
H5 H 0.5369 0.5624 0.6894
C9 C 0.6665(5) 0.5894(2) 0.8152(2)
C10 C 0.6082(5) 0.5226(3) 0.8110(3)
H6 H 0.5249 0.5164 0.7892
C11 C 0.6737(6) 0.4656(3) 0.8390(3)
H7 H 0.6345 0.4215 0.8355
C12 C 0.7955(6) 0.4739(3) 0.8718(3)
C13 C 0.8546(5) 0.5396(3) 0.8768(3)
H8 H 0.9374 0.5453 0.8992
C14 C 0.7912(5) 0.5962(3) 0.8486(2)
H9 H 0.8322 0.6399 0.8519
C15 C 0.8620(8) 0.4142(4) 0.9029(4)
C16 C 0.4216(6) 0.8393(3) 0.9162(3)
C17 C 0.5233(5) 0.8722(3) 0.9589(2)
H10 H 0.5764 0.9101 0.9457
C18 C 0.5335(9) 0.8454(5) 1.0145(4)
H11 H 0.5881 0.8642 1.0475
C19 C 0.4613(9) 0.7890(4) 1.0221(3)
H12 H 0.4630 0.7616 1.0597
H13 H 0.572(4) 0.857(3) 0.789(3)
S3 S 1.11314(12) 0.38226(5) 0.66194(6)
S4 S 1.14766(19) 0.48552(9) 0.55152(9)
F7 F 0.5952(15) 0.8194(8) 0.5223(6)
F8 F 0.7670(16) 0.8768(8) 0.5398(8)
F9 F 0.5978(13) 0.8709(8) 0.6114(8)
N3 N 1.0482(4) 0.60205(18) 0.73840(17)
N4 N 1.0066(4) 0.41591(19) 0.71488(19)
O3 O 1.0875(4) 0.30909(17) 0.66149(17)
O4 O 1.2471(3) 0.4082(2) 0.67688(18)
C20 C 0.9991(4) 0.4910(2) 0.7158(2)
C21 C 0.9141(5) 0.5331(2) 0.6778(2)
H14 H 0.8480 0.5175 0.6482
C22 C 0.9438(5) 0.6015(2) 0.6912(2)
C23 C 1.0824(5) 0.5327(2) 0.7538(2)
C24 C 1.1841(5) 0.5202(3) 0.8016(2)
H15 H 1.2076 0.4747 0.8131
C25 C 1.2470(5) 0.5746(3) 0.8306(3)
H16 H 1.3114 0.5668 0.8636
C26 C 1.2158(6) 0.6432(3) 0.8113(3)
H17 H 1.2638 0.6802 0.8300
C27 C 1.1177(5) 0.6562(3) 0.7662(2)
H18 H 1.0976 0.7018 0.7542
C28 C 0.8815(5) 0.6640(2) 0.6623(2)
C29 C 0.8550(5) 0.7251(2) 0.6978(2)
H19 H 0.8825 0.7285 0.7414
C30 C 0.7876(5) 0.7805(2) 0.6681(2)
H20 H 0.7693 0.8207 0.6922
C31 C 0.7476(6) 0.7770(3) 0.6037(2)
C32 C 0.7727(8) 0.7169(3) 0.5686(3)
H21 H 0.7452 0.7138 0.5251
C33 C 0.8387(7) 0.6612(3) 0.5980(3)
H22 H 0.8545 0.6208 0.5738
C34 C 0.6756(7) 0.8362(3) 0.5735(3)
C35 C 1.0701(5) 0.4151(2) 0.5855(2)
C36 C 0.9532(5) 0.3926(2) 0.5463(2)
H23 H 0.8943 0.3558 0.5564
C37 C 0.9440(7) 0.4351(3) 0.4913(3)
H24 H 0.8770 0.4290 0.4592
C38 C 1.0357(8) 0.4837(3) 0.4884(3)
H25 H 1.0398 0.5153 0.4539
H26 H 0.930(4) 0.394(3) 0.716(3)
F4? F 0.9941(12) 0.4069(7) 0.8898(7)
F5? F 0.8059(17) 0.3579(7) 0.8997(8)
F6? F 0.8815(17) 0.4233(7) 0.9699(6)
F10? F 0.5469(14) 0.8200(8) 0.5529(6)
F11? F 0.733(2) 0.8620(10) 0.5191(8)
F12? F 0.6605(16) 0.8905(6) 0.6142(8)
loop_
_geom_bond_atom_site_label_1
_geom_bond_atom_site_label_2
_geom_bond_site_symmetry_1
_geom_bond_site_symmetry_2
S1 N2 1_555 1_555
S2 C16 1_555 1_555
F1 C15 1_555 1_555
F2 C15 1_555 1_555
F3 C15 1_555 1_555
N1 C3 1_555 1_555
N2 C1 1_555 1_555
O1 S1 1_555 1_555
O2 S1 1_555 1_555
C1 C2 1_555 1_555
C2 H1 1_555 1_555
C3 C2 1_555 1_555
C4 N1 1_555 1_555
C5 C4 1_555 1_555
H2 C5 1_555 1_555
C6 C5 1_555 1_555
H3 C6 1_555 1_555
C7 C6 1_555 1_555
H4 C7 1_555 1_555
C8 N1 1_555 1_555
H5 C8 1_555 1_555
C9 C3 1_555 1_555
C10 C9 1_555 1_555
H6 C10 1_555 1_555
C11 C10 1_555 1_555
H7 C11 1_555 1_555
C12 C11 1_555 1_555
C13 C12 1_555 1_555
H8 C13 1_555 1_555
C14 C9 1_555 1_555
H9 C14 1_555 1_555
C15 C12 1_555 1_555
C16 S1 1_555 1_555
C17 C16 1_555 1_555
H10 C17 1_555 1_555
C18 C17 1_555 1_555
H11 C18 1_555 1_555
C19 S2 1_555 1_555
H12 C19 1_555 1_555
H13 N2 1_555 1_555
S3 N4 1_555 1_555
S4 C35 1_555 1_555
F7 C34 1_555 1_555
F8 C34 1_555 1_555
F9 C34 1_555 1_555
N3 C22 1_555 1_555
N4 C20 1_555 1_555
O3 S3 1_555 1_555
O4 S3 1_555 1_555
C20 C21 1_555 1_555
C21 H14 1_555 1_555
C22 C21 1_555 1_555
C23 N3 1_555 1_555
C24 C23 1_555 1_555
H15 C24 1_555 1_555
C25 C24 1_555 1_555
H16 C25 1_555 1_555
C26 C25 1_555 1_555
H17 C26 1_555 1_555
C27 N3 1_555 1_555
H18 C27 1_555 1_555
C28 C22 1_555 1_555
C29 C28 1_555 1_555
H19 C29 1_555 1_555
C30 C29 1_555 1_555
H20 C30 1_555 1_555
C31 C30 1_555 1_555
C32 C31 1_555 1_555
H21 C32 1_555 1_555
C33 C28 1_555 1_555
H22 C33 1_555 1_555
C34 C31 1_555 1_555
C35 S3 1_555 1_555
C36 C35 1_555 1_555
H23 C36 1_555 1_555
C37 C36 1_555 1_555
H24 C37 1_555 1_555
C38 S4 1_555 1_555
H25 C38 1_555 1_555
H26 N4 1_555 1_555
C1 C4 1_555 1_555
C7 C8 1_555 1_555
C13 C14 1_555 1_555
C18 C19 1_555 1_555
C20 C23 1_555 1_555
C26 C27 1_555 1_555
C32 C33 1_555 1_555
C37 C38 1_555 1_555

#END
