
#######################################################################
#
#                 Cambridge Crystallographic Data Centre
#                                CCDC 
#
#######################################################################
#
# If this CIF has been generated from an entry in the Cambridge 
# Structural Database, then it will include bibliographic, chemical, 
# crystal, experimental, refinement or atomic coordinate data resulting 
# from the CCDC's data processing and validation procedures.
#
#######################################################################

data_BERHEM
_chemical_formula_moiety         'C16 H21 N3 O1'
_chemical_name_systematic        
N-t-Butyl-2-(1,5-dimethyl-1H-pyrazol-3-yl)benzamide
_symmetry_cell_setting           monoclinic
_symmetry_space_group_name_H-M   'P 21/a'
_symmetry_Int_Tables_number      14
_space_group_name_Hall           '-P 2yab'
loop_
_symmetry_equiv_pos_site_id
_symmetry_equiv_pos_as_xyz
1 x,y,z
2 1/2-x,1/2+y,-z
3 -x,-y,-z
4 1/2+x,1/2-y,z
_cell_length_a                   9.0026(2)
_cell_length_b                   17.7091(5)
_cell_length_c                   9.9930(3)
_cell_angle_alpha                90
_cell_angle_beta                 110.503(1)
_cell_angle_gamma                90
_cell_volume                     1492.24
_exptl_crystal_colour            colorless
_exptl_crystal_description       platelet
_chemical_melting_point          136-138deg.C
_cell_formula_units_Z            4
loop_
_atom_site_label
_atom_site_type_symbol
_atom_site_fract_x
_atom_site_fract_y
_atom_site_fract_z
O1 O 0.1939(1) -0.17466(6) 0.3322(1)
N1 N 0.2128(1) 0.07178(6) 0.6142(1)
N2 N 0.3339(1) 0.02239(7) 0.6728(1)
N3 N 0.3688(1) -0.12439(6) 0.2378(1)
C1 C 0.4468(1) -0.08648(7) 0.5951(1)
C2 C 0.5623(3) -0.09222(8) 0.7319(1)
C3 C 0.6770(2) -0.14807(8) 0.7666(1)
C4 C 0.6810(2) -0.20009(8) 0.6640(2)
C5 C 0.5691(1) -0.19561(8) 0.5274(1)
C6 C 0.4505(1) -0.14028(7) 0.4926(1)
C7 C 0.3302(1) -0.02413(7) 0.5652(1)
C8 C 0.2073(2) -0.00294(8) 0.4391(1)
C9 C 0.1350(1) 0.05844(8) 0.4740(1)
C10 C -0.0015(2) 0.10574(8) 0.3855(2)
C11 C 0.1857(2) 0.13211(9) 0.7013(2)
C12 C 0.3241(1) -0.14687(7) 0.3466(1)
C13 C 0.2699(2) -0.12936(8) 0.0841(1)
C14 C 0.1273(2) -0.07677(9) 0.0513(2)
C15 C 0.3756(2) -0.10464(9) 0.0017(1)
C16 C 0.2161(2) -0.21070(9) 0.0440(2)
H1 H 0.5618 -0.0567 0.8030
H2 H 0.7532 -0.1508 0.8606
H3 H 0.4677 -0.0905 0.2629
H4 H 0.7596 -0.2386 0.6873
H5 H 0.5728 -0.2305 0.4563
H6 H 0.1797 -0.0264 0.3481
H7 H -0.0589 0.1232 0.4433
H8 H 0.0366 0.1476 0.3479
H9 H -0.0698 0.0762 0.3092
H10 H 0.0775 0.1471 0.6637
H11 H 0.2104 0.1148 0.7965
H12 H 0.2513 0.1740 0.7002
H13 H 0.0650 -0.0799 -0.0474
H14 H 0.1629 -0.0263 0.0745
H15 H 0.0643 -0.0914 0.1065
H16 H 0.4139 -0.0551 0.0300
H17 H 0.4625 -0.1384 0.0209
H18 H 0.3158 -0.1050 -0.0980
H19 H 0.1681 -0.2147 -0.0570
H20 H 0.1414 -0.2245 0.0872
H21 H 0.3050 -0.2435 0.0764
loop_
_geom_bond_atom_site_label_1
_geom_bond_atom_site_label_2
_geom_bond_site_symmetry_1
_geom_bond_site_symmetry_2
O1 C12 1_555 1_555
N1 N2 1_555 1_555
N2 C7 1_555 1_555
N3 C12 1_555 1_555
C1 C2 1_555 1_555
C2 C3 1_555 1_555
C3 C4 1_555 1_555
C4 C5 1_555 1_555
C5 C6 1_555 1_555
C6 C1 1_555 1_555
C7 C1 1_555 1_555
C8 C7 1_555 1_555
C9 N1 1_555 1_555
C10 C9 1_555 1_555
C11 N1 1_555 1_555
C12 C6 1_555 1_555
C13 N3 1_555 1_555
C14 C13 1_555 1_555
C15 C13 1_555 1_555
C16 C13 1_555 1_555
H1 C2 1_555 1_555
H2 C3 1_555 1_555
H3 N3 1_555 1_555
H4 C4 1_555 1_555
H5 C5 1_555 1_555
H6 C8 1_555 1_555
H7 C10 1_555 1_555
H8 C10 1_555 1_555
H9 C10 1_555 1_555
H10 C11 1_555 1_555
H11 C11 1_555 1_555
H12 C11 1_555 1_555
H13 C14 1_555 1_555
H14 C14 1_555 1_555
H15 C14 1_555 1_555
H16 C15 1_555 1_555
H17 C15 1_555 1_555
H18 C15 1_555 1_555
H19 C16 1_555 1_555
H20 C16 1_555 1_555
H21 C16 1_555 1_555
C8 C9 1_555 1_555

#END
