
#######################################################################
#
#                 Cambridge Crystallographic Data Centre
#                                CCDC 
#
#######################################################################
#
# If this CIF has been generated from an entry in the Cambridge 
# Structural Database, then it will include bibliographic, chemical, 
# crystal, experimental, refinement or atomic coordinate data resulting 
# from the CCDC's data processing and validation procedures.
#
#######################################################################

data_BERRIB
_chemical_formula_moiety         'C32 H29 N3 O2 S1'
_chemical_name_systematic        
2-((4-Methylphenyl)sulfonyl)-4'-phenyl-1,2,3,3',4',9-hexahydro-1'H-spiro[\b-carboline-4,2'-quinoline]
_symmetry_cell_setting           monoclinic
_symmetry_space_group_name_H-M   'P 21'
_symmetry_Int_Tables_number      4
_space_group_name_Hall           'P 2yb'
loop_
_symmetry_equiv_pos_site_id
_symmetry_equiv_pos_as_xyz
1 x,y,z
2 -x,1/2+y,-z
_cell_length_a                   10.505(3)
_cell_length_b                   5.7765(16)
_cell_length_c                   21.837(6)
_cell_angle_alpha                90
_cell_angle_beta                 98.113(5)
_cell_angle_gamma                90
_cell_volume                     1311.85
_exptl_crystal_colour            colorless
_exptl_crystal_description       prismatic
_cell_formula_units_Z            2
loop_
_atom_site_label
_atom_site_type_symbol
_atom_site_fract_x
_atom_site_fract_y
_atom_site_fract_z
S1 S -0.12267(15) 1.2036(4) 0.63087(7)
O1 O -0.1324(6) 1.4407(11) 0.6467(3)
O2 O -0.2281(5) 1.0993(11) 0.5913(2)
N1 N -0.2620(5) 0.6547(14) 0.7915(3)
N2 N 0.1143(5) 1.0561(12) 0.8443(2)
N3 N -0.0984(5) 1.0366(11) 0.6924(2)
C1 C -0.2007(6) 0.5525(14) 0.8447(3)
C2 C -0.2443(8) 0.3908(18) 0.8832(4)
H1 H -0.3277 0.3334 0.8756
C3 C -0.1601(9) 0.3181(19) 0.9331(4)
H2 H -0.1860 0.2061 0.9593
C4 C -0.0356(8) 0.4096(15) 0.9453(3)
H3 H 0.0186 0.3617 0.9804
C5 C 0.0070(6) 0.5655(14) 0.9071(3)
H4 H 0.0907 0.6211 0.9153
C6 C -0.0754(6) 0.6446(12) 0.8546(2)
C7 C -0.0661(5) 0.8008(13) 0.8046(3)
C8 C -0.1790(5) 0.8013(14) 0.7682(3)
C9 C -0.2164(5) 0.9417(16) 0.7111(3)
H5 H -0.2604 0.8452 0.6784
H6 H -0.2737 1.0661 0.7192
C10 C -0.0057(6) 1.1309(12) 0.7445(3)
H7 H -0.0483 1.2482 0.7661
H8 H 0.0653 1.2043 0.7280
C11 C 0.0465(6) 0.9441(13) 0.7899(2)
C12 C 0.1396(5) 0.7771(12) 0.7619(3)
H9 H 0.1486 0.6353 0.7859
H10 H 0.1030 0.7376 0.7199
C13 C 0.2737(5) 0.8866(11) 0.7614(2)
H11 H 0.2635 1.0322 0.7382
C14 C 0.3289(6) 0.9403(12) 0.8291(3)
C15 C 0.2423(6) 1.0234(13) 0.8666(3)
C16 C 0.2882(8) 1.0825(17) 0.9285(3)
H12 H 0.2320 1.1382 0.9544
C17 C 0.4159(7) 1.0572(18) 0.9500(3)
H13 H 0.4457 1.0981 0.9907
C18 C 0.5007(8) 0.9740(19) 0.9139(3)
H14 H 0.5865 0.9500 0.9300
C19 C 0.4552(6) 0.9252(15) 0.8516(3)
H15 H 0.5133 0.8815 0.8253
C20 C 0.3576(5) 0.7265(13) 0.7302(3)
C21 C 0.3977(6) 0.5116(13) 0.7531(3)
H16 H 0.3716 0.4618 0.7899
C22 C 0.4740(6) 0.3693(12) 0.7240(3)
H17 H 0.4959 0.2234 0.7401
C23 C 0.5185(6) 0.4410(16) 0.6709(4)
H18 H 0.5735 0.3479 0.6519
C24 C 0.4792(6) 0.6581(16) 0.6460(3)
H19 H 0.5063 0.7079 0.6095
C25 C 0.4001(6) 0.7980(14) 0.6759(3)
H20 H 0.3752 0.9420 0.6593
C26 C 0.0205(6) 1.1635(13) 0.5976(3)
C27 C 0.1076(7) 1.3414(14) 0.5997(3)
H21 H 0.0947 1.4775 0.6207
C28 C 0.2141(7) 1.3161(16) 0.5704(3)
H22 H 0.2735 1.4359 0.5718
C29 C 0.2338(6) 1.1180(15) 0.5393(3)
C30 C 0.1456(7) 0.9426(15) 0.5378(3)
H23 H 0.1585 0.8076 0.5162
C31 C 0.0376(7) 0.9604(14) 0.5674(3)
H24 H -0.0209 0.8393 0.5667
C32 C 0.3503(7) 1.094(2) 0.5041(4)
H25 H 0.4277 1.1304 0.5313
H26 H 0.3408 1.1985 0.4696
H27 H 0.3551 0.9379 0.4894
H28 H -0.334(2) 0.644(8) 0.7725(16)
H29 H 0.066(4) 1.055(10) 0.8716(17)
loop_
_geom_bond_atom_site_label_1
_geom_bond_atom_site_label_2
_geom_bond_site_symmetry_1
_geom_bond_site_symmetry_2
S1 O1 1_555 1_555
O2 S1 1_555 1_555
N1 C1 1_555 1_555
N2 C11 1_555 1_555
N3 S1 1_555 1_555
C1 C2 1_555 1_555
C2 H1 1_555 1_555
C3 C2 1_555 1_555
H2 C3 1_555 1_555
C4 C3 1_555 1_555
H3 C4 1_555 1_555
C5 C4 1_555 1_555
H4 C5 1_555 1_555
C6 C1 1_555 1_555
C7 C6 1_555 1_555
C8 N1 1_555 1_555
C9 N3 1_555 1_555
H5 C9 1_555 1_555
H6 C9 1_555 1_555
C10 N3 1_555 1_555
H7 C10 1_555 1_555
H8 C10 1_555 1_555
C11 C7 1_555 1_555
C12 C11 1_555 1_555
H9 C12 1_555 1_555
H10 C12 1_555 1_555
C13 C12 1_555 1_555
H11 C13 1_555 1_555
C14 C13 1_555 1_555
C15 N2 1_555 1_555
C16 C15 1_555 1_555
H12 C16 1_555 1_555
C17 C16 1_555 1_555
H13 C17 1_555 1_555
C18 C17 1_555 1_555
H14 C18 1_555 1_555
C19 C14 1_555 1_555
H15 C19 1_555 1_555
C20 C13 1_555 1_555
C21 C20 1_555 1_555
H16 C21 1_555 1_555
C22 C21 1_555 1_555
H17 C22 1_555 1_555
C23 C22 1_555 1_555
H18 C23 1_555 1_555
C24 C23 1_555 1_555
H19 C24 1_555 1_555
C25 C20 1_555 1_555
H20 C25 1_555 1_555
C26 S1 1_555 1_555
C27 C26 1_555 1_555
H21 C27 1_555 1_555
C28 C27 1_555 1_555
H22 C28 1_555 1_555
C29 C28 1_555 1_555
C30 C29 1_555 1_555
H23 C30 1_555 1_555
C31 C26 1_555 1_555
H24 C31 1_555 1_555
C32 C29 1_555 1_555
H25 C32 1_555 1_555
H26 C32 1_555 1_555
H27 C32 1_555 1_555
H28 N1 1_555 1_555
H29 N2 1_555 1_555
C5 C6 1_555 1_555
C7 C8 1_555 1_555
C8 C9 1_555 1_555
C10 C11 1_555 1_555
C14 C15 1_555 1_555
C18 C19 1_555 1_555
C24 C25 1_555 1_555
C30 C31 1_555 1_555

#END
