
#######################################################################
#
#                 Cambridge Crystallographic Data Centre
#                                CCDC 
#
#######################################################################
#
# If this CIF has been generated from an entry in the Cambridge 
# Structural Database, then it will include bibliographic, chemical, 
# crystal, experimental, refinement or atomic coordinate data resulting 
# from the CCDC's data processing and validation procedures.
#
#######################################################################

data_BERTOK
_chemical_formula_moiety         'C14 H13 Cl1 O6'
_chemical_name_systematic        
'dimethyl (6-chloro-4-oxo-3,4-dihydro-1H-2-benzopyran-1-yl)propanedioate'
_symmetry_cell_setting           orthorhombic
_symmetry_space_group_name_H-M   'P c c n'
_symmetry_Int_Tables_number      56
_space_group_name_Hall           '-P 2ab 2ac'
loop_
_symmetry_equiv_pos_site_id
_symmetry_equiv_pos_as_xyz
1 x,y,z
2 1/2-x,1/2-y,z
3 -x,1/2+y,1/2-z
4 1/2+x,-y,1/2-z
5 -x,-y,-z
6 1/2+x,1/2+y,-z
7 x,1/2-y,1/2+z
8 1/2-x,y,1/2+z
_cell_length_a                   28.4668(11)
_cell_length_b                   13.3730(5)
_cell_length_c                   7.2090(3)
_cell_angle_alpha                90
_cell_angle_beta                 90
_cell_angle_gamma                90
_cell_volume                     2744.37
_exptl_crystal_colour            colorless
_exptl_crystal_description       block
_cell_formula_units_Z            8
loop_
_atom_site_label
_atom_site_type_symbol
_atom_site_fract_x
_atom_site_fract_y
_atom_site_fract_z
Cl1 Cl 0.51637(2) 0.90939(5) 0.37047(9)
O1 O 0.72904(6) 0.44972(13) 0.4235(2)
O2 O 0.62612(6) 0.41349(14) 0.7154(2)
O3 O 0.66373(6) 0.54795(12) 0.1204(2)
O4 O 0.57525(6) 0.39544(14) 0.4801(3)
O5 O 0.67983(6) 0.33190(13) 0.3150(3)
O6 O 0.68945(6) 0.80593(13) 0.1674(3)
C1 C 0.59973(8) 0.62557(17) 0.2900(3)
C2 C 0.62043(8) 0.71945(17) 0.2589(3)
C3 C 0.59501(8) 0.80721(17) 0.2877(3)
H1 H 0.6090 0.8693 0.2699
C4 C 0.55300(8) 0.62173(18) 0.3496(3)
H2 H 0.5390 0.5601 0.3717
C5 C 0.61143(8) 0.42746(16) 0.5428(3)
C6 C 0.52739(8) 0.70867(18) 0.3761(3)
H3 H 0.4963 0.7057 0.4155
C7 C 0.54868(8) 0.80011(18) 0.3432(3)
C8 C 0.62757(8) 0.53144(17) 0.2542(3)
H4 H 0.6059 0.4820 0.2019
C9 C 0.66968(8) 0.72622(18) 0.1927(3)
C10 C 0.68694(8) 0.41232(17) 0.3836(3)
C11 C 0.64816(8) 0.48619(17) 0.4344(3)
H5 H 0.6611 0.5396 0.5124
C12 C 0.69493(9) 0.62887(18) 0.1609(4)
H6 H 0.7167 0.6369 0.0585
H7 H 0.7131 0.6124 0.2706
C13 C 0.59746(10) 0.3491(2) 0.8304(4)
H8 H 0.5937 0.2855 0.7706
H9 H 0.5672 0.3793 0.8485
H10 H 0.6125 0.3398 0.9484
C14 C 0.76930(9) 0.3877(2) 0.3787(4)
H11 H 0.7646 0.3568 0.2600
H12 H 0.7729 0.3370 0.4717
H13 H 0.7971 0.4284 0.3747
loop_
_geom_bond_atom_site_label_1
_geom_bond_atom_site_label_2
_geom_bond_site_symmetry_1
_geom_bond_site_symmetry_2
Cl1 C7 1_555 1_555
O1 C10 1_555 1_555
O2 C5 1_555 1_555
O3 C8 1_555 1_555
O4 C5 1_555 1_555
O5 C10 1_555 1_555
O6 C9 1_555 1_555
C1 C2 1_555 1_555
C2 C3 1_555 1_555
C3 H1 1_555 1_555
C4 C1 1_555 1_555
H2 C4 1_555 1_555
C5 C11 1_555 1_555
C6 C4 1_555 1_555
H3 C6 1_555 1_555
C7 C3 1_555 1_555
C8 C1 1_555 1_555
H4 C8 1_555 1_555
C9 C2 1_555 1_555
C10 C11 1_555 1_555
C11 C8 1_555 1_555
H5 C11 1_555 1_555
C12 O3 1_555 1_555
H6 C12 1_555 1_555
H7 C12 1_555 1_555
C13 O2 1_555 1_555
H8 C13 1_555 1_555
H9 C13 1_555 1_555
H10 C13 1_555 1_555
C14 O1 1_555 1_555
H11 C14 1_555 1_555
H12 C14 1_555 1_555
H13 C14 1_555 1_555
C6 C7 1_555 1_555
C9 C12 1_555 1_555

#END
