
#######################################################################
#
#                 Cambridge Crystallographic Data Centre
#                                CCDC 
#
#######################################################################
#
# If this CIF has been generated from an entry in the Cambridge 
# Structural Database, then it will include bibliographic, chemical, 
# crystal, experimental, refinement or atomic coordinate data resulting 
# from the CCDC's data processing and validation procedures.
#
#######################################################################

data_BESHOZ
_chemical_formula_moiety         'C22 H23 N3 O3'
_chemical_name_systematic        
N'-{[4-(diethylamino)-2-hydroxyphenyl]methylidene}-3-hydroxynaphthalene-2-carbohydrazide
_symmetry_cell_setting           monoclinic
_symmetry_space_group_name_H-M   'P 21'
_symmetry_Int_Tables_number      4
_space_group_name_Hall           'P 2yb'
loop_
_symmetry_equiv_pos_site_id
_symmetry_equiv_pos_as_xyz
1 x,y,z
2 -x,1/2+y,-z
_cell_length_a                   6.1987(10)
_cell_length_b                   24.923(4)
_cell_length_c                   6.6605(12)
_cell_angle_alpha                90
_cell_angle_beta                 113.186(3)
_cell_angle_gamma                90
_cell_volume                     945.873
_exptl_crystal_colour            yellow
_exptl_crystal_description       plate
_cell_formula_units_Z            2
loop_
_atom_site_label
_atom_site_type_symbol
_atom_site_fract_x
_atom_site_fract_y
_atom_site_fract_z
O1 O -0.1194(7) -0.56859(17) -0.8572(6)
O2 O -0.5482(7) -0.45860(17) -0.2079(5)
H1 H -0.4585 -0.4771 -0.2419
O3 O 0.0119(7) -0.55258(16) -0.1916(6)
N1 N -0.2335(7) -0.53529(18) -0.5379(7)
H2 H -0.2625 -0.5392 -0.6745
N2 N -0.3890(8) -0.50690(17) -0.4761(7)
N3 N -1.2762(8) -0.36521(18) -0.5169(7)
C1 C 0.0704(9) -0.5941(2) -0.7021(8)
C2 C 0.2142(10) -0.6253(2) -0.7631(9)
H3 H 0.1805 -0.6300 -0.9110
C3 C 0.4121(10) -0.6506(2) -0.6088(9)
C4 C 0.5623(12) -0.6837(2) -0.6694(11)
H4 H 0.5263 -0.6905 -0.8164
C5 C 0.7601(12) -0.7059(3) -0.5140(12)
H5 H 0.8580 -0.7273 -0.5562
C6 C 0.8149(12) -0.6965(3) -0.2927(12)
H6 H 0.9508 -0.7112 -0.1885
C7 C 0.6708(10) -0.6659(2) -0.2274(10)
H7 H 0.7072 -0.6608 -0.0792
C8 C 0.4666(9) -0.6420(2) -0.3840(9)
C9 C 0.3131(9) -0.61024(19) -0.3265(8)
H8 H 0.3478 -0.6047 -0.1789
C10 C 0.1139(9) -0.5869(2) -0.4764(8)
C11 C -0.0389(9) -0.5568(2) -0.3891(8)
C12 C -0.5744(9) -0.4903(2) -0.6364(9)
H9 H -0.5942 -0.4985 -0.7788
C13 C -0.7519(9) -0.4592(2) -0.5990(8)
C14 C -0.7344(9) -0.4436(2) -0.3915(8)
C15 C -0.9009(10) -0.4122(2) -0.3628(8)
H10 H -0.8810 -0.4019 -0.2224
C16 C -1.1029(10) -0.3951(2) -0.5427(8)
C17 C -1.1229(10) -0.4121(2) -0.7515(8)
H11 H -1.2544 -0.4024 -0.8741
C18 C -0.9517(9) -0.4426(2) -0.7758(8)
H12 H -0.9690 -0.4526 -0.9158
C19 C -1.4695(11) -0.3429(3) -0.7049(11)
H13 H -1.5953 -0.3327 -0.6606
H14 H -1.5295 -0.3704 -0.8163
C20 C -1.3994(14) -0.2947(3) -0.8016(12)
H15 H -1.3523 -0.2662 -0.6962
H16 H -1.5302 -0.2831 -0.9294
H17 H -1.2709 -0.3040 -0.8410
C21 C -1.2517(11) -0.3474(3) -0.3011(10)
H18 H -1.1902 -0.3768 -0.1993
H19 H -1.4062 -0.3388 -0.3057
C22 C -1.0942(15) -0.2992(3) -0.2151(12)
H20 H -1.0653 -0.2939 -0.0639
H21 H -1.1692 -0.2680 -0.2971
H22 H -0.9481 -0.3052 -0.2297
H23 H -0.090(10) -0.560(3) -0.983(11)
loop_
_geom_bond_atom_site_label_1
_geom_bond_atom_site_label_2
_geom_bond_site_symmetry_1
_geom_bond_site_symmetry_2
O1 C1 1_555 1_555
O2 H1 1_555 1_555
O3 C11 1_555 1_555
N1 H2 1_555 1_555
N2 N1 1_555 1_555
N3 C16 1_555 1_555
C1 C2 1_555 1_555
C2 H3 1_555 1_555
C3 C2 1_555 1_555
C4 C3 1_555 1_555
H4 C4 1_555 1_555
C5 C4 1_555 1_555
H5 C5 1_555 1_555
C6 C5 1_555 1_555
H6 C6 1_555 1_555
C7 C6 1_555 1_555
H7 C7 1_555 1_555
C8 C3 1_555 1_555
C9 C8 1_555 1_555
H8 C9 1_555 1_555
C10 C1 1_555 1_555
C11 N1 1_555 1_555
C12 N2 1_555 1_555
H9 C12 1_555 1_555
C13 C12 1_555 1_555
C14 O2 1_555 1_555
C15 C14 1_555 1_555
H10 C15 1_555 1_555
C16 C15 1_555 1_555
C17 C16 1_555 1_555
H11 C17 1_555 1_555
C18 C13 1_555 1_555
H12 C18 1_555 1_555
C19 N3 1_555 1_555
H13 C19 1_555 1_555
H14 C19 1_555 1_555
C20 C19 1_555 1_555
H15 C20 1_555 1_555
H16 C20 1_555 1_555
H17 C20 1_555 1_555
C21 N3 1_555 1_555
H18 C21 1_555 1_555
H19 C21 1_555 1_555
C22 C21 1_555 1_555
H20 C22 1_555 1_555
H21 C22 1_555 1_555
H22 C22 1_555 1_555
H23 O1 1_555 1_555
C7 C8 1_555 1_555
C9 C10 1_555 1_555
C10 C11 1_555 1_555
C13 C14 1_555 1_555
C17 C18 1_555 1_555

#END
