
#######################################################################
#
#                 Cambridge Crystallographic Data Centre
#                                CCDC 
#
#######################################################################
#
# If this CIF has been generated from an entry in the Cambridge 
# Structural Database, then it will include bibliographic, chemical, 
# crystal, experimental, refinement or atomic coordinate data resulting 
# from the CCDC's data processing and validation procedures.
#
#######################################################################

data_BESJUH
_chemical_compound_source        'Corydalis mucronifera'
_chemical_name_common            'mucroniferanine A'
_chemical_formula_moiety         'C19 H15 N1 O5'
_chemical_name_systematic        
5-[1-(2H-[1,3]dioxolo[4,5-g]isoquinolin-5-yl)ethyl]-2H-1,3-benzodioxol-4-ol
_symmetry_cell_setting           triclinic
_symmetry_space_group_name_H-M   'P -1'
_symmetry_Int_Tables_number      2
_space_group_name_Hall           '-P 1'
loop_
_symmetry_equiv_pos_site_id
_symmetry_equiv_pos_as_xyz
1 x,y,z
2 -x,-y,-z
_cell_length_a                   6.93466(8)
_cell_length_b                   9.91657(11)
_cell_length_c                   11.54675(14)
_cell_angle_alpha                71.8945(10)
_cell_angle_beta                 84.5865(10)
_cell_angle_gamma                75.6285(10)
_cell_volume                     730.985
_exptl_crystal_colour            colorless
_exptl_crystal_description       'rectangular prism'
_cell_formula_units_Z            2
loop_
_atom_site_label
_atom_site_type_symbol
_atom_site_fract_x
_atom_site_fract_y
_atom_site_fract_z
O1 O 0.88761(13) 0.74852(9) 0.71945(8)
O2 O 0.83073(13) 0.90606(9) 0.52397(8)
O3 O 0.02866(12) 0.30255(9) 0.78191(8)
H1 H 0.0526 0.3800 0.7339
O4 O 0.04355(12) -0.00780(9) 0.84589(8)
O5 O 0.33237(13) -0.18843(9) 0.88627(8)
N1 N 0.21049(15) 0.50199(11) 0.63208(9)
C1 C 0.36355(18) 0.50176(13) 0.69327(11)
C2 C 0.38686(18) 0.23438(13) 0.81926(10)
C3 C 0.55970(18) 0.12334(13) 0.84008(10)
H2 H 0.6831 0.1486 0.8405
C4 C 0.17311(18) 0.60029(13) 0.51966(11)
H3 H 0.0629 0.6003 0.4766
C5 C 0.56066(18) -0.02349(13) 0.86043(10)
H4 H 0.6804 -0.0973 0.8712
C6 C 0.28569(18) 0.69852(13) 0.46577(11)
H5 H 0.2575 0.7617 0.3855
C7 C 0.37781(18) -0.05378(13) 0.86380(10)
C8 C 0.44470(18) 0.70598(13) 0.52986(11)
C9 C 0.56035(18) 0.81214(13) 0.47913(11)
H6 H 0.5389 0.8773 0.3990
C10 C 0.20446(18) 0.05404(13) 0.84054(10)
C11 C 0.70188(18) 0.81560(13) 0.55059(11)
C12 C 0.20283(18) 0.20065(13) 0.81249(10)
C13 C 0.73784(18) 0.71864(13) 0.66903(11)
C14 C 0.12232(18) -0.15846(13) 0.91108(12)
H7 H 0.0956 -0.1758 0.9996
H8 H 0.0599 -0.2223 0.8832
C15 C 0.63746(18) 0.61302(13) 0.71957(11)
H9 H 0.6675 0.5468 0.7986
C16 C 0.9323(2) 0.87817(14) 0.63463(12)
H10 H 0.883(2) 0.9608(17) 0.6672(14)
H11 H 1.075(2) 0.8618(16) 0.6188(13)
C17 C 0.48383(18) 0.60528(12) 0.64884(11)
C18 C 0.40353(19) 0.38614(13) 0.81636(11)
H12 H 0.5452 0.3762 0.8350
C19 C 0.2765(2) 0.43992(14) 0.91693(12)
H13 H 0.1351 0.4582 0.8998
H14 H 0.3071 0.5304 0.9192
H15 H 0.3065 0.3655 0.9959
loop_
_geom_bond_atom_site_label_1
_geom_bond_atom_site_label_2
_geom_bond_site_symmetry_1
_geom_bond_site_symmetry_2
O1 C13 1_555 1_555
O2 C11 1_555 1_555
O3 H1 1_555 1_555
O4 C10 1_555 1_555
O5 C7 1_555 1_555
N1 C1 1_555 1_555
C1 C17 1_555 1_555
C2 C3 1_555 1_555
C3 H2 1_555 1_555
C4 N1 1_555 1_555
H3 C4 1_555 1_555
C5 C3 1_555 1_555
H4 C5 1_555 1_555
C6 C4 1_555 1_555
H5 C6 1_555 1_555
C7 C5 1_555 1_555
C8 C6 1_555 1_555
C9 C8 1_555 1_555
H6 C9 1_555 1_555
C10 C7 1_555 1_555
C11 C9 1_555 1_555
C12 O3 1_555 1_555
C13 C11 1_555 1_555
C14 O4 1_555 1_555
H7 C14 1_555 1_555
H8 C14 1_555 1_555
C15 C13 1_555 1_555
H9 C15 1_555 1_555
C16 O1 1_555 1_555
H10 C16 1_555 1_555
H11 C16 1_555 1_555
C17 C8 1_555 1_555
C18 C1 1_555 1_555
H12 C18 1_555 1_555
C19 C18 1_555 1_555
H13 C19 1_555 1_555
H14 C19 1_555 1_555
H15 C19 1_555 1_555
O2 C16 1_555 1_555
O5 C14 1_555 1_555
C2 C12 1_555 1_555
C2 C18 1_555 1_555
C10 C12 1_555 1_555
C15 C17 1_555 1_555

#END
