
#######################################################################
#
#                 Cambridge Crystallographic Data Centre
#                                CCDC 
#
#######################################################################
#
# If this CIF has been generated from an entry in the Cambridge 
# Structural Database, then it will include bibliographic, chemical, 
# crystal, experimental, refinement or atomic coordinate data resulting 
# from the CCDC's data processing and validation procedures.
#
#######################################################################

data_BESJAN
_chemical_compound_source        
'obtained from the leaves of Tripterygium wilfordii'
_chemical_name_common            'triptersinine Z4'
_chemical_formula_moiety         'C32 H37 N1 O12'
_chemical_name_systematic        
'4,10-bis(acetyloxy)-5a-[(acetyloxy)methyl]-6-[(furan-3-carbonyl)oxy]-2,2,9-trimethyloctahydro-2H-3,9a-methano-1-benzoxepin-5-yl pyridine-3-carboxylate'
_chemical_properties_biological  
'increased cell viability of the okadaic acid treated PC12 cells'
_symmetry_cell_setting           monoclinic
_symmetry_space_group_name_H-M   'P 21'
_symmetry_Int_Tables_number      4
_space_group_name_Hall           'P 2yb'
loop_
_symmetry_equiv_pos_site_id
_symmetry_equiv_pos_as_xyz
1 x,y,z
2 -x,1/2+y,-z
_cell_length_a                   10.5270(15)
_cell_length_b                   9.3108(5)
_cell_length_c                   15.753(2)
_cell_angle_alpha                90
_cell_angle_beta                 102.012(13)
_cell_angle_gamma                90
_cell_volume                     1510.22
_cell_formula_units_Z            2
loop_
_atom_site_label
_atom_site_type_symbol
_atom_site_fract_x
_atom_site_fract_y
_atom_site_fract_z
O1 O 0.1865(2) 0.4652(2) 0.20788(13)
O2 O 0.1054(2) 0.8159(2) 0.37653(12)
O3 O -0.1130(2) 0.6141(2) 0.16362(13)
O4 O -0.1278(2) 0.4517(2) 0.32210(13)
O5 O 0.3755(2) 0.7971(2) 0.32950(12)
O6 O 0.0988(2) 0.7291(2) 0.11658(12)
O7 O 0.1822(2) 0.2272(2) 0.18898(14)
C1 C 0.1689(3) 0.6898(3) 0.34934(18)
O8 O -0.0524(3) 0.8288(3) 0.01217(15)
O9 O -0.2586(2) 0.5091(3) 0.41417(15)
C2 C 0.2253(3) 0.3423(3) 0.17560(18)
C3 C 0.1211(3) 0.9412(3) 0.32382(18)
C4 C 0.1630(3) 0.8724(3) 0.24499(18)
H1 H 0.2107 0.9415 0.2144
O10 O -0.2702(2) 0.7790(3) 0.16595(17)
C5 C -0.0265(3) 0.6951(3) 0.22956(18)
H2 H -0.0825 0.7533 0.2606
O11 O 0.4724(3) 0.6666(4) 0.23988(17)
C6 C 0.3383(3) 0.4997(4) 0.4181(2)
H3 H 0.2900 0.4091 0.4132
H4 H 0.4127 0.4942 0.4670
H5 H 0.3692 0.5169 0.3644
C7 C 0.0555(3) 0.5927(3) 0.29849(18)
C8 C -0.3087(3) 0.5900(3) 0.0621(2)
C9 C 0.2487(3) 0.7478(3) 0.28507(18)
H6 H 0.2563 0.6740 0.2403
C10 C 0.0404(3) 0.7534(3) 0.03375(19)
O12 O -0.4017(3) 0.1473(3) 0.2215(2)
C11 C 0.0479(3) 0.8027(3) 0.18338(18)
H7 H -0.0132 0.8797 0.1558
C12 C 0.3257(3) 0.3711(4) 0.1237(2)
H8 H 0.2874 0.4278 0.0723
H9 H 0.3580 0.2798 0.1054
H10 H 0.3979 0.4247 0.1591
C13 C -0.2508(3) 0.5143(4) 0.0052(2)
H11 H -0.1587 0.5094 0.0166
C14 C 0.0904(3) 0.4502(3) 0.25963(19)
H12 H 0.1228 0.3820 0.3075
H13 H 0.0108 0.4086 0.2234
C15 C 0.0484(3) 0.4808(3) 0.44776(19)
H14 H 0.0861 0.3892 0.4327
H15 H -0.0103 0.4591 0.4876
C16 C 0.4795(3) 0.7494(4) 0.29921(19)
C17 C 0.1573(3) 0.5804(3) 0.49292(19)
H16 H 0.2080 0.5314 0.5448
H17 H 0.1186 0.6680 0.5127
C18 C 0.2246(3) 1.0405(3) 0.37611(19)
H18 H 0.1942 1.0775 0.4266
H19 H 0.2404 1.1209 0.3395
H20 H 0.3054 0.9866 0.3957
C19 C 0.2489(3) 0.6237(3) 0.43299(18)
H21 H 0.3063 0.7015 0.4634
C20 C -0.3192(3) 0.3225(4) 0.3121(2)
C21 C -0.2349(3) 0.4381(3) 0.35565(18)
C22 C -0.0285(3) 0.5512(3) 0.36559(19)
H22 H -0.0718 0.6396 0.3820
N1 N -0.3172(4) 0.4474(4) -0.0653(2)
C23 C -0.5139(4) 0.5236(5) -0.0241(2)
H23 H -0.6061 0.5238 -0.0358
C24 C -0.4347(3) 0.2686(4) 0.3362(2)
H24 H -0.4716 0.3007 0.3830
C25 C -0.4797(4) 0.1648(5) 0.2797(3)
H25 H -0.5559 0.1102 0.2800
C26 C -0.0062(3) 1.0254(3) 0.3034(2)
H26 H -0.0760 0.9628 0.2732
H27 H 0.0032 1.1076 0.2664
H28 H -0.0274 1.0598 0.3576
C27 C -0.4442(3) 0.5943(4) 0.0460(2)
H29 H -0.4873 0.6461 0.0837
C28 C -0.4467(4) 0.4513(4) -0.0778(2)
H30 H -0.4956 0.4014 -0.1264
C29 C 0.1073(4) 0.6727(4) -0.0272(2)
H31 H 0.2007 0.6930 -0.0126
H32 H 0.0718 0.7031 -0.0870
H33 H 0.0931 0.5694 -0.0217
C30 C -0.2321(3) 0.6721(4) 0.13554(19)
C31 C -0.3040(4) 0.2440(5) 0.2431(2)
H34 H -0.2344 0.2549 0.2137
C32 C 0.6024(3) 0.8107(4) 0.3505(2)
H35 H 0.5844 0.9035 0.3749
H36 H 0.6645 0.8241 0.3127
H37 H 0.6392 0.7447 0.3977
loop_
_geom_bond_atom_site_label_1
_geom_bond_atom_site_label_2
_geom_bond_site_symmetry_1
_geom_bond_site_symmetry_2
O1 C2 1_555 1_555
O2 C1 1_555 1_555
O3 C5 1_555 1_555
O4 C21 1_555 1_555
O5 C9 1_555 1_555
O6 C10 1_555 1_555
O7 C2 1_555 1_555
C1 C7 1_555 1_555
O8 C10 1_555 1_555
O9 C21 1_555 1_555
C2 C12 1_555 1_555
C3 O2 1_555 1_555
C4 C3 1_555 1_555
H1 C4 1_555 1_555
O10 C30 1_555 1_555
C5 H2 1_555 1_555
O11 C16 1_555 1_555
C6 H3 1_555 1_555
H4 C6 1_555 1_555
H5 C6 1_555 1_555
C7 C5 1_555 1_555
C8 C13 1_555 1_555
C9 C1 1_555 1_555
H6 C9 1_555 1_555
C10 C29 1_555 1_555
O12 C25 1_555 1_555
C11 O6 1_555 1_555
H7 C11 1_555 1_555
C12 H8 1_555 1_555
H9 C12 1_555 1_555
H10 C12 1_555 1_555
C13 H11 1_555 1_555
C14 O1 1_555 1_555
H12 C14 1_555 1_555
H13 C14 1_555 1_555
C15 H14 1_555 1_555
H15 C15 1_555 1_555
C16 O5 1_555 1_555
C17 C15 1_555 1_555
H16 C17 1_555 1_555
H17 C17 1_555 1_555
C18 C3 1_555 1_555
H18 C18 1_555 1_555
H19 C18 1_555 1_555
H20 C18 1_555 1_555
C19 C1 1_555 1_555
H21 C19 1_555 1_555
C20 C21 1_555 1_555
C22 O4 1_555 1_555
H22 C22 1_555 1_555
N1 C13 1_555 1_555
C23 H23 1_555 1_555
C24 C20 1_555 1_555
H24 C24 1_555 1_555
C25 C24 1_555 1_555
H25 C25 1_555 1_555
C26 C3 1_555 1_555
H26 C26 1_555 1_555
H27 C26 1_555 1_555
H28 C26 1_555 1_555
C27 C8 1_555 1_555
H29 C27 1_555 1_555
C28 N1 1_555 1_555
H30 C28 1_555 1_555
C29 H31 1_555 1_555
H32 C29 1_555 1_555
H33 C29 1_555 1_555
C30 O3 1_555 1_555
C31 O12 1_555 1_555
H34 C31 1_555 1_555
C32 C16 1_555 1_555
H35 C32 1_555 1_555
H36 C32 1_555 1_555
H37 C32 1_555 1_555
C4 C9 1_555 1_555
C4 C11 1_555 1_555
C5 C11 1_555 1_555
C6 C19 1_555 1_555
C7 C14 1_555 1_555
C7 C22 1_555 1_555
C8 C30 1_555 1_555
C15 C22 1_555 1_555
C17 C19 1_555 1_555
C20 C31 1_555 1_555
C23 C27 1_555 1_555
C23 C28 1_555 1_555

#END
