
#######################################################################
#
#                 Cambridge Crystallographic Data Centre
#                                CCDC 
#
#######################################################################
#
# If this CIF has been generated from an entry in the Cambridge 
# Structural Database, then it will include bibliographic, chemical, 
# crystal, experimental, refinement or atomic coordinate data resulting 
# from the CCDC's data processing and validation procedures.
#
#######################################################################

data_BETDAI
_chemical_formula_moiety         'C45 H38 N1 P1 S1'
_chemical_name_systematic        
'N-[2,6-bis(diphenylmethyl)-4-methylphenyl]-P,P-diphenylphosphinothioic amide'
_symmetry_cell_setting           orthorhombic
_symmetry_space_group_name_H-M   'P b c a'
_symmetry_Int_Tables_number      61
_space_group_name_Hall           '-P 2ac 2ab'
loop_
_symmetry_equiv_pos_site_id
_symmetry_equiv_pos_as_xyz
1 x,y,z
2 1/2-x,-y,1/2+z
3 -x,1/2+y,1/2-z
4 1/2+x,1/2-y,-z
5 -x,-y,-z
6 1/2+x,y,1/2-z
7 x,1/2-y,1/2+z
8 1/2-x,1/2+y,z
_cell_length_a                   20.2781(14)
_cell_length_b                   15.5171(11)
_cell_length_c                   23.3382(19)
_cell_angle_alpha                90
_cell_angle_beta                 90
_cell_angle_gamma                90
_cell_volume                     7343.54
_exptl_crystal_colour            colorless
_exptl_crystal_description       plate
_cell_formula_units_Z            8
loop_
_atom_site_label
_atom_site_type_symbol
_atom_site_fract_x
_atom_site_fract_y
_atom_site_fract_z
P1 P 0.41673(5) 0.72236(7) 0.31425(5)
S1 S 0.49012(5) 0.64262(8) 0.31134(6)
N1 N 0.34405(15) 0.6726(2) 0.30302(14)
H1 H 0.3149 0.6933 0.3260
C1 C 0.3810(2) 0.5368(3) 0.14407(18)
C2 C 0.34087(18) 0.5379(3) 0.24773(17)
C3 C 0.33271(19) 0.4490(3) 0.24650(19)
H2 H 0.3361 0.4198 0.2108
C4 C 0.32469(19) 0.5338(3) 0.35113(18)
C5 C 0.3197(2) 0.4010(3) 0.29589(19)
C6 C 0.33721(18) 0.5800(3) 0.30066(18)
C7 C 0.3520(2) 0.5904(3) 0.19269(17)
H3 H 0.3854 0.6356 0.2022
C8 C 0.3417(2) 0.4894(3) 0.10598(19)
H4 H 0.2951 0.4908 0.1099
C9 C 0.3204(2) 0.5807(3) 0.40850(18)
H5 H 0.3530 0.6289 0.4063
C10 C 0.2893(2) 0.6376(3) 0.17499(19)
C11 C 0.3437(2) 0.5229(3) 0.45743(18)
C12 C 0.3150(2) 0.4449(3) 0.34786(19)
H6 H 0.3050 0.4137 0.3818
C13 C 0.40882(19) 0.7776(3) 0.38272(18)
C14 C 0.2533(2) 0.6233(3) 0.4176(2)
C15 C 0.3934(2) 0.4157(3) 0.5442(2)
H7 H 0.4100 0.3787 0.5732
C16 C 0.3055(2) 0.5016(3) 0.5049(2)
H8 H 0.2618 0.5234 0.5078
C17 C 0.4488(2) 0.5334(3) 0.1372(2)
H9 H 0.4765 0.5646 0.1627
C18 C 0.3136(2) 0.3043(3) 0.2940(2)
H10 H 0.2848 0.2877 0.2621
H11 H 0.2946 0.2836 0.3301
H12 H 0.3573 0.2787 0.2886
C19 C 0.2267(2) 0.6177(3) 0.1959(2)
H13 H 0.2216 0.5712 0.2221
C20 C 0.3700(2) 0.4402(3) 0.0625(2)
H14 H 0.3428 0.4077 0.0374
C21 C 0.4439(2) 0.7474(3) 0.4307(2)
H15 H 0.4743 0.7012 0.4267
C22 C 0.4321(2) 0.4369(3) 0.4975(2)
H16 H 0.4756 0.4145 0.4948
C23 C 0.3643(2) 0.8452(3) 0.3898(2)
H17 H 0.3400 0.8655 0.3577
C24 C 0.1962(2) 0.5961(3) 0.3905(2)
H18 H 0.1974 0.5478 0.3655
C25 C 0.4082(2) 0.4905(3) 0.4543(2)
H19 H 0.4356 0.5052 0.4228
C26 C 0.3300(2) 0.4490(3) 0.5483(2)
H20 H 0.3034 0.4359 0.5807
C27 C 0.4212(2) 0.8084(3) 0.26192(19)
C28 C 0.3670(2) 0.8347(3) 0.2300(2)
H21 H 0.3255 0.8075 0.2356
C29 C 0.1716(2) 0.6649(3) 0.1791(2)
H22 H 0.1295 0.6504 0.1940
C30 C 0.2937(2) 0.7054(3) 0.1357(2)
H23 H 0.3356 0.7202 0.1203
C31 C 0.4374(3) 0.4390(3) 0.0561(2)
H24 H 0.4567 0.4065 0.0260
C32 C 0.1776(3) 0.7329(3) 0.1408(2)
H25 H 0.1401 0.7659 0.1302
C33 C 0.2500(2) 0.6956(3) 0.4533(2)
H26 H 0.2888 0.7154 0.4720
C34 C 0.4340(3) 0.7854(3) 0.4839(2)
H27 H 0.4577 0.7648 0.5163
C35 C 0.2382(3) 0.7518(3) 0.1186(2)
H28 H 0.2426 0.7968 0.0913
C36 C 0.3550(3) 0.8835(3) 0.4432(2)
H29 H 0.3249 0.9300 0.4475
C37 C 0.3901(3) 0.8528(3) 0.4902(3)
H30 H 0.3839 0.8783 0.5267
C38 C 0.4815(2) 0.8494(3) 0.2528(2)
H31 H 0.5193 0.8323 0.2741
C39 C 0.4771(2) 0.4848(3) 0.0933(2)
H32 H 0.5237 0.4832 0.0890
C40 C 0.1371(2) 0.6394(3) 0.3999(2)
H33 H 0.0982 0.6197 0.3814
C41 C 0.3727(3) 0.9008(3) 0.1897(2)
H34 H 0.3353 0.9184 0.1682
C42 C 0.1909(3) 0.7387(3) 0.4618(2)
H35 H 0.1897 0.7880 0.4859
C43 C 0.1338(3) 0.7104(3) 0.4355(3)
H36 H 0.0931 0.7392 0.4418
C44 C 0.4325(3) 0.9401(3) 0.1814(2)
H37 H 0.4365 0.9848 0.1538
C45 C 0.4864(3) 0.9153(4) 0.2128(3)
H38 H 0.5275 0.9434 0.2070
loop_
_geom_bond_atom_site_label_1
_geom_bond_atom_site_label_2
_geom_bond_site_symmetry_1
_geom_bond_site_symmetry_2
P1 S1 1_555 1_555
N1 P1 1_555 1_555
H1 N1 1_555 1_555
C1 C7 1_555 1_555
C2 C3 1_555 1_555
C3 H2 1_555 1_555
C4 C6 1_555 1_555
C5 C3 1_555 1_555
C6 N1 1_555 1_555
C7 C2 1_555 1_555
H3 C7 1_555 1_555
C8 C1 1_555 1_555
H4 C8 1_555 1_555
C9 C4 1_555 1_555
H5 C9 1_555 1_555
C10 C7 1_555 1_555
C11 C9 1_555 1_555
C12 C4 1_555 1_555
H6 C12 1_555 1_555
C13 P1 1_555 1_555
C14 C9 1_555 1_555
C15 H7 1_555 1_555
C16 C11 1_555 1_555
H8 C16 1_555 1_555
C17 C1 1_555 1_555
H9 C17 1_555 1_555
C18 C5 1_555 1_555
H10 C18 1_555 1_555
H11 C18 1_555 1_555
H12 C18 1_555 1_555
C19 C10 1_555 1_555
H13 C19 1_555 1_555
C20 C8 1_555 1_555
H14 C20 1_555 1_555
C21 C13 1_555 1_555
H15 C21 1_555 1_555
C22 C15 1_555 1_555
H16 C22 1_555 1_555
C23 C13 1_555 1_555
H17 C23 1_555 1_555
C24 C14 1_555 1_555
H18 C24 1_555 1_555
C25 C11 1_555 1_555
H19 C25 1_555 1_555
C26 C15 1_555 1_555
H20 C26 1_555 1_555
C27 P1 1_555 1_555
C28 C27 1_555 1_555
H21 C28 1_555 1_555
C29 C19 1_555 1_555
H22 C29 1_555 1_555
C30 C10 1_555 1_555
H23 C30 1_555 1_555
C31 C20 1_555 1_555
H24 C31 1_555 1_555
C32 C29 1_555 1_555
H25 C32 1_555 1_555
C33 C14 1_555 1_555
H26 C33 1_555 1_555
C34 C21 1_555 1_555
H27 C34 1_555 1_555
C35 C30 1_555 1_555
H28 C35 1_555 1_555
C36 C23 1_555 1_555
H29 C36 1_555 1_555
C37 C34 1_555 1_555
H30 C37 1_555 1_555
C38 C27 1_555 1_555
H31 C38 1_555 1_555
C39 C17 1_555 1_555
H32 C39 1_555 1_555
C40 C24 1_555 1_555
H33 C40 1_555 1_555
C41 C28 1_555 1_555
H34 C41 1_555 1_555
C42 C33 1_555 1_555
H35 C42 1_555 1_555
C43 C40 1_555 1_555
H36 C43 1_555 1_555
C44 C41 1_555 1_555
H37 C44 1_555 1_555
C45 C38 1_555 1_555
H38 C45 1_555 1_555
C2 C6 1_555 1_555
C5 C12 1_555 1_555
C16 C26 1_555 1_555
C22 C25 1_555 1_555
C31 C39 1_555 1_555
C32 C35 1_555 1_555
C36 C37 1_555 1_555
C42 C43 1_555 1_555
C44 C45 1_555 1_555

#END
