
#######################################################################
#
#                 Cambridge Crystallographic Data Centre
#                                CCDC 
#
#######################################################################
#
# If this CIF has been generated from an entry in the Cambridge 
# Structural Database, then it will include bibliographic, chemical, 
# crystal, experimental, refinement or atomic coordinate data resulting 
# from the CCDC's data processing and validation procedures.
#
#######################################################################

data_BETJAL01
_chemical_name_common            N-(pyridin-3-oyl)-N,N'-dicyclohexylurea
_chemical_formula_moiety         'C19 H27 N3 O2'
_chemical_name_systematic        
N-Cyclohexyl-N-(cyclohexylcarbamoyl)nicotinamide
_symmetry_cell_setting           triclinic
_symmetry_space_group_name_H-M   'P -1'
_symmetry_Int_Tables_number      2
_space_group_name_Hall           '-P 1'
loop_
_symmetry_equiv_pos_site_id
_symmetry_equiv_pos_as_xyz
1 x,y,z
2 -x,-y,-z
_cell_length_a                   9.477(2)
_cell_length_b                   12.928(3)
_cell_length_c                   15.633(4)
_cell_angle_alpha                68.102(2)
_cell_angle_beta                 84.227(3)
_cell_angle_gamma                82.245(3)
_cell_volume                     1758.25
_exptl_crystal_colour            colorless
_exptl_crystal_description       lath
_cell_formula_units_Z            4
_exptl_crystal_recrystallization_method ethanol
loop_
_atom_site_label
_atom_site_type_symbol
_atom_site_fract_x
_atom_site_fract_y
_atom_site_fract_z
O1 O 0.68502(14) 0.03721(12) 0.42915(10)
O4 O 0.32163(14) 0.23162(11) 0.25176(10)
N1 N 0.53370(16) 0.13500(13) 0.31452(11)
N4 N 0.50517(17) 0.32871(13) 0.24902(11)
H2 H 0.595(2) 0.3206(18) 0.2532(15)
C1 C 0.44278(19) 0.23588(16) 0.26967(13)
C2 C 0.4294(2) 0.44120(16) 0.21224(14)
H3 H 0.3283 0.4333 0.2047
C7 C 0.5944(2) 0.11613(16) 0.39567(14)
C9 C 0.6040(2) 0.11820(17) 0.16367(14)
H8 H 0.6859 0.1615 0.1563
H9 H 0.5211 0.1718 0.1363
C10 C 0.5694(2) 0.05547(16) 0.26607(14)
H10 H 0.6575 0.0066 0.2926
C11 C 0.5215(2) -0.03727(19) 0.12737(15)
H11 H 0.5499 -0.0915 0.0962
H12 H 0.4343 0.0096 0.0996
C13 C 0.3989(2) 0.20814(17) 0.47412(14)
H14 H 0.3308 0.1708 0.4591
N5 N 0.5971(2) 0.31631(17) 0.51799(14)
C16 C 0.5416(2) 0.19350(16) 0.44566(13)
C18 C 0.4285(2) 0.50160(17) 0.27914(15)
H18 H 0.5277 0.5046 0.2919
H19 H 0.3784 0.4595 0.3382
C19 C 0.4191(2) 0.62461(17) 0.07909(15)
H20 H 0.3192 0.6208 0.0682
H21 H 0.4668 0.6667 0.0191
C20 C 0.4523(2) -0.02036(17) 0.28160(15)
H22 H 0.4383 -0.0639 0.3485
H23 H 0.3617 0.0261 0.2600
C21 C 0.3540(2) 0.62076(17) 0.23929(16)
H24 H 0.2518 0.6174 0.2334
H25 H 0.3604 0.6600 0.2822
C22 C 0.4902(2) -0.10043(18) 0.23008(16)
H26 H 0.4101 -0.1457 0.2383
H27 H 0.5750 -0.1523 0.2564
C23 C 0.6385(2) 0.24740(18) 0.47028(15)
H28 H 0.7368 0.2358 0.4533
C26 C 0.6401(2) 0.03649(18) 0.11286(15)
H33 H 0.6560 0.0793 0.0460
H34 H 0.7295 -0.0113 0.1354
C27 C 0.3560(2) 0.27542(17) 0.52326(14)
H35 H 0.2586 0.2857 0.5429
C31 C 0.4947(2) 0.50645(17) 0.11785(14)
H42 H 0.4873 0.4671 0.0752
H43 H 0.5970 0.5103 0.1228
C34 C 0.4210(2) 0.68636(17) 0.14530(15)
H48 H 0.5206 0.6963 0.1519
H49 H 0.3675 0.7616 0.1198
C37 C 0.4562(2) 0.32748(19) 0.54350(16)
H53 H 0.4258 0.3746 0.5776
O2 O 0.16142(15) 0.46421(12) 0.07204(10)
O3 O -0.18476(14) 0.26633(12) 0.25189(10)
N2 N 0.01050(16) 0.36480(13) 0.18698(11)
N3 N 0.03425(17) 0.17109(13) 0.25029(11)
H1 H 0.123(2) 0.1795(18) 0.2436(14)
C3 C -0.0091(2) 0.05767(16) 0.28564(14)
H4 H -0.1155 0.0639 0.2867
C4 C -0.05563(19) 0.26319(16) 0.23222(13)
C5 C -0.0002(2) 0.44527(16) 0.23502(14)
H5 H 0.0773 0.4952 0.2076
C6 C 0.0254(2) 0.38382(18) 0.33715(14)
H6 H 0.1217 0.3419 0.3439
H7 H -0.0453 0.3291 0.3653
C8 C 0.0829(2) 0.30777(16) 0.05498(13)
C12 C -0.0452(2) 0.28921(17) 0.02981(14)
H13 H -0.1333 0.3229 0.0469
C14 C 0.09068(19) 0.38517(16) 0.10531(13)
C15 C -0.1416(2) 0.51933(17) 0.21984(15)
H15 H -0.2212 0.4720 0.2429
H16 H -0.1511 0.5618 0.1530
C17 C 0.2082(2) 0.2586(2) 0.02716(15)
H17 H 0.2956 0.2738 0.0427
C24 C -0.1497(2) 0.60119(19) 0.27039(16)
H29 H -0.0750 0.6527 0.2436
H30 H -0.2437 0.6467 0.2619
C25 C 0.0360(2) -0.00498(17) 0.38410(14)
H31 H -0.0123 0.0340 0.4245
H32 H 0.1402 -0.0053 0.3858
N6 N 0.2140(2) 0.19065(19) -0.02051(15)
C28 C -0.1294(2) 0.5388(2) 0.37259(16)
H36 H -0.2079 0.4911 0.4002
H37 H -0.1329 0.5933 0.4037
C29 C 0.0505(2) -0.00382(17) 0.22171(14)
H38 H 0.1552 -0.0019 0.2131
H39 H 0.0096 0.0352 0.1606
C30 C 0.0171(2) -0.12531(18) 0.25952(16)
H40 H -0.0869 -0.1273 0.2591
H41 H 0.0657 -0.1640 0.2190
C32 C 0.0649(2) -0.18690(18) 0.35738(16)
H44 H 0.1701 -0.1923 0.3572
H45 H 0.0362 -0.2639 0.3812
C33 C 0.0132(2) 0.4657(2) 0.38784(16)
H46 H 0.0225 0.4232 0.4547
H47 H 0.0919 0.5141 0.3653
C35 C -0.0020(2) -0.12511(18) 0.41994(16)
H50 H -0.1069 -0.1247 0.4236
H51 H 0.0320 -0.1651 0.4830
C36 C -0.0421(3) 0.22110(18) -0.02036(15)
H52 H -0.1280 0.2073 -0.0389
C38 C 0.0874(3) 0.1735(2) -0.04305(17)
H54 H 0.0881 0.1255 -0.0767
loop_
_geom_bond_atom_site_label_1
_geom_bond_atom_site_label_2
_geom_bond_site_symmetry_1
_geom_bond_site_symmetry_2
O1 C7 1_555 1_555
O2 C14 1_555 1_555
O3 C4 1_555 1_555
O4 C1 1_555 1_555
N1 C1 1_555 1_555
N2 C4 1_555 1_555
N3 H1 1_555 1_555
N4 H2 1_555 1_555
C1 N4 1_555 1_555
C2 N4 1_555 1_555
H3 C2 1_555 1_555
C3 N3 1_555 1_555
H4 C3 1_555 1_555
C4 N3 1_555 1_555
C5 N2 1_555 1_555
H5 C5 1_555 1_555
C6 C5 1_555 1_555
H6 C6 1_555 1_555
H7 C6 1_555 1_555
C7 N1 1_555 1_555
C8 C12 1_555 1_555
C9 H8 1_555 1_555
H9 C9 1_555 1_555
C10 N1 1_555 1_555
H10 C10 1_555 1_555
C11 H11 1_555 1_555
H12 C11 1_555 1_555
C12 H13 1_555 1_555
C13 H14 1_555 1_555
C14 N2 1_555 1_555
N5 C23 1_555 1_555
C15 C5 1_555 1_555
H15 C15 1_555 1_555
H16 C15 1_555 1_555
C16 C7 1_555 1_555
C17 C8 1_555 1_555
H17 C17 1_555 1_555
C18 C2 1_555 1_555
H18 C18 1_555 1_555
H19 C18 1_555 1_555
C19 H20 1_555 1_555
H21 C19 1_555 1_555
C20 C10 1_555 1_555
H22 C20 1_555 1_555
H23 C20 1_555 1_555
C21 C18 1_555 1_555
H24 C21 1_555 1_555
H25 C21 1_555 1_555
C22 C11 1_555 1_555
H26 C22 1_555 1_555
H27 C22 1_555 1_555
C23 C16 1_555 1_555
H28 C23 1_555 1_555
C24 C15 1_555 1_555
H29 C24 1_555 1_555
H30 C24 1_555 1_555
C25 C3 1_555 1_555
H31 C25 1_555 1_555
H32 C25 1_555 1_555
C26 C9 1_555 1_555
H33 C26 1_555 1_555
H34 C26 1_555 1_555
N6 C17 1_555 1_555
C27 C13 1_555 1_555
H35 C27 1_555 1_555
C28 C24 1_555 1_555
H36 C28 1_555 1_555
H37 C28 1_555 1_555
C29 C3 1_555 1_555
H38 C29 1_555 1_555
H39 C29 1_555 1_555
C30 C29 1_555 1_555
H40 C30 1_555 1_555
H41 C30 1_555 1_555
C31 C2 1_555 1_555
H42 C31 1_555 1_555
H43 C31 1_555 1_555
C32 C30 1_555 1_555
H44 C32 1_555 1_555
H45 C32 1_555 1_555
C33 C6 1_555 1_555
H46 C33 1_555 1_555
H47 C33 1_555 1_555
C34 C19 1_555 1_555
H48 C34 1_555 1_555
H49 C34 1_555 1_555
C35 C25 1_555 1_555
H50 C35 1_555 1_555
H51 C35 1_555 1_555
C36 C12 1_555 1_555
H52 C36 1_555 1_555
C37 N5 1_555 1_555
H53 C37 1_555 1_555
C38 N6 1_555 1_555
H54 C38 1_555 1_555
C8 C14 1_555 1_555
C9 C10 1_555 1_555
C11 C26 1_555 1_555
C13 C16 1_555 1_555
C19 C31 1_555 1_555
C20 C22 1_555 1_555
C21 C34 1_555 1_555
C27 C37 1_555 1_555
C28 C33 1_555 1_555
C32 C35 1_555 1_555
C36 C38 1_555 1_555

#END
