
#######################################################################
#
#                 Cambridge Crystallographic Data Centre
#                                CCDC 
#
#######################################################################
#
# If this CIF has been generated from an entry in the Cambridge 
# Structural Database, then it will include bibliographic, chemical, 
# crystal, experimental, refinement or atomic coordinate data resulting 
# from the CCDC's data processing and validation procedures.
#
#######################################################################

data_BETKAO
_chemical_formula_moiety         'C25 H21 Br2 Cl1 N2 O2'
_chemical_name_systematic        
1-(1-(4-Bromophenyl)-4-((4-bromophenyl)amino)-5-(4-chlorophenyl)-5-hydroxy-2-methyl-4,5-dihydro-1H-pyrrol-3-yl)ethanone
_symmetry_cell_setting           triclinic
_symmetry_space_group_name_H-M   'P -1'
_symmetry_Int_Tables_number      2
_space_group_name_Hall           '-P 1'
loop_
_symmetry_equiv_pos_site_id
_symmetry_equiv_pos_as_xyz
1 x,y,z
2 -x,-y,-z
_cell_length_a                   11.9309(11)
_cell_length_b                   14.0473(13)
_cell_length_c                   15.0113(15)
_cell_angle_alpha                100.801(2)
_cell_angle_beta                 90.9050(10)
_cell_angle_gamma                97.8560(10)
_cell_volume                     2445.87
_exptl_crystal_colour            white
_exptl_crystal_description       block
_cell_formula_units_Z            4
loop_
_atom_site_label
_atom_site_type_symbol
_atom_site_fract_x
_atom_site_fract_y
_atom_site_fract_z
Br1 Br -0.0568(2) 0.28000(16) 0.35384(19)
Br2 Br 0.6745(2) 1.1580(2) 0.3650(2)
Cl1 Cl 0.1540(6) 0.5663(4) -0.0666(3)
N1 N 0.0529(9) 0.7161(8) 0.3652(7)
N2 N 0.2229(10) 0.9280(8) 0.4186(8)
H1 H 0.2050 0.9289 0.4740
O1 O 0.2562(8) 0.7438(7) 0.3760(6)
H2 H 0.2725 0.7882 0.4201
O2 O -0.1307(9) 0.9569(7) 0.4195(7)
C1 C 0.1614(12) 0.7609(10) 0.3289(9)
C2 C 0.1430(12) 0.8698(10) 0.3456(10)
H3 H 0.1533 0.8958 0.2896
C3 C 0.0235(12) 0.8705(10) 0.3741(9)
C4 C -0.0217(12) 0.7802(11) 0.3876(9)
C5 C -0.1323(12) 0.7526(11) 0.4220(10)
H4 H -0.1863 0.7289 0.3720
H5 H -0.1557 0.8086 0.4602
H6 H -0.1280 0.7020 0.4564
C6 C 0.0239(13) 0.6120(11) 0.3603(10)
C7 C -0.0614(13) 0.5564(11) 0.3063(10)
H7 H -0.1032 0.5860 0.2693
C8 C -0.0890(13) 0.4569(11) 0.3040(10)
H8 H -0.1524 0.4219 0.2702
C9 C -0.0231(13) 0.4108(11) 0.3513(10)
C10 C 0.0699(13) 0.4624(11) 0.4055(10)
H9 H 0.1143 0.4307 0.4387
C11 C 0.0952(13) 0.5672(11) 0.4085(10)
H10 H 0.1580 0.6038 0.4420
C12 C 0.1627(13) 0.7155(10) 0.2293(10)
C13 C 0.0777(13) 0.7208(11) 0.1703(10)
H11 H 0.0218 0.7584 0.1915
C14 C 0.0692(14) 0.6739(11) 0.0807(10)
H12 H 0.0066 0.6740 0.0429
C15 C 0.1609(15) 0.6262(12) 0.0504(10)
C16 C 0.2429(14) 0.6188(11) 0.1033(10)
H13 H 0.2999 0.5836 0.0799
C17 C 0.2492(13) 0.6619(11) 0.1948(10)
H14 H 0.3093 0.6555 0.2325
C18 C 0.3258(13) 0.9814(10) 0.4022(10)
C19 C 0.3790(13) 0.9611(11) 0.3222(10)
H15 H 0.3440 0.9122 0.2758
C20 C 0.4857(13) 1.0123(11) 0.3080(11)
H16 H 0.5228 0.9947 0.2547
C21 C 0.5343(13) 1.0899(11) 0.3756(10)
C22 C 0.4815(13) 1.1122(11) 0.4558(10)
H17 H 0.5154 1.1629 0.5012
C23 C 0.3778(13) 1.0597(10) 0.4700(10)
H18 H 0.3423 1.0762 0.5243
C24 C -0.0336(14) 0.9571(11) 0.3865(10)
C25 C 0.0203(14) 1.0444(11) 0.3574(11)
H19 H 0.0455 1.0271 0.2968
H20 H 0.0841 1.0739 0.3976
H21 H -0.0329 1.0900 0.3584
Br3 Br -0.0897(2) 0.1056(2) 0.0634(2)
Br4 Br 0.7985(4) 0.8631(3) 0.1459(3)
Cl2 Cl 0.6402(5) 0.0733(4) -0.0665(4)
N3 N 0.3517(10) 0.3296(9) 0.2431(8)
N4 N 0.5095(10) 0.5430(9) 0.2942(8)
H22 H 0.4567 0.5614 0.3289
O3 O 0.3950(9) 0.4460(7) 0.1465(6)
H23 H 0.3979 0.5002 0.1791
O4 O 0.5145(8) 0.3712(7) 0.5048(6)
C26 C 0.4428(12) 0.3828(11) 0.1946(10)
C27 C 0.5227(13) 0.4401(11) 0.2750(9)
H24 H 0.6015 0.4331 0.2612
C28 C 0.4883(12) 0.3913(11) 0.3557(9)
C29 C 0.3854(12) 0.3343(11) 0.3292(10)
C30 C 0.3129(12) 0.2751(11) 0.3858(9)
H25 H 0.2357 0.2650 0.3631
H26 H 0.3178 0.3095 0.4477
H27 H 0.3389 0.2129 0.3829
C31 C 0.2519(13) 0.2783(12) 0.1962(10)
C32 C 0.2398(13) 0.1771(13) 0.1747(10)
H28 H 0.2987 0.1446 0.1887
C33 C 0.1399(14) 0.1237(13) 0.1324(11)
H29 H 0.1329 0.0558 0.1161
C34 C 0.0501(14) 0.1730(14) 0.1147(11)
C35 C 0.0627(14) 0.2736(13) 0.1349(11)
H30 H 0.0042 0.3066 0.1211
C36 C 0.1637(13) 0.3258(12) 0.1763(10)
H31 H 0.1718 0.3938 0.1906
C37 C 0.4974(13) 0.3075(12) 0.1285(10)
C38 C 0.5557(13) 0.2435(12) 0.1562(11)
H32 H 0.5682 0.2480 0.2183
C39 C 0.5978(13) 0.1724(13) 0.0986(11)
H33 H 0.6367 0.1285 0.1213
C40 C 0.5831(14) 0.1651(13) 0.0070(11)
C41 C 0.5262(14) 0.2268(13) -0.0247(11)
H34 H 0.5157 0.2215 -0.0870
C42 C 0.4829(13) 0.2978(12) 0.0330(10)
H35 H 0.4432 0.3408 0.0096
C43 C 0.5814(13) 0.6148(12) 0.2574(10)
C44 C 0.5788(13) 0.7165(12) 0.3015(10)
H36 H 0.5338 0.7331 0.3505
C45 C 0.6486(14) 0.7877(13) 0.2653(11)
H37 H 0.6504 0.8533 0.2918
C46 C 0.7140(14) 0.7641(13) 0.1926(11)
C47 C 0.7107(14) 0.6664(13) 0.1507(11)
H38 H 0.7516 0.6494 0.0994
C48 C 0.6453(13) 0.5954(12) 0.1870(10)
H39 H 0.6463 0.5302 0.1605
C49 C 0.5483(12) 0.4050(11) 0.4394(11)
C50 C 0.6624(12) 0.4685(11) 0.4479(10)
H40 H 0.6794 0.4987 0.5103
H41 H 0.6607 0.5183 0.4121
H42 H 0.7196 0.4289 0.4266
loop_
_geom_bond_atom_site_label_1
_geom_bond_atom_site_label_2
_geom_bond_site_symmetry_1
_geom_bond_site_symmetry_2
Br1 C9 1_555 1_555
Br2 C21 1_555 1_555
Cl1 C15 1_555 1_555
N1 C1 1_555 1_555
N2 H1 1_555 1_555
O1 H2 1_555 1_555
O2 C24 1_555 1_555
C1 O1 1_555 1_555
C2 N2 1_555 1_555
H3 C2 1_555 1_555
C3 C2 1_555 1_555
C4 N1 1_555 1_555
C5 C4 1_555 1_555
H4 C5 1_555 1_555
H5 C5 1_555 1_555
H6 C5 1_555 1_555
C6 N1 1_555 1_555
C7 C6 1_555 1_555
H7 C7 1_555 1_555
C8 C7 1_555 1_555
H8 C8 1_555 1_555
C9 C8 1_555 1_555
C10 C9 1_555 1_555
H9 C10 1_555 1_555
C11 C6 1_555 1_555
H10 C11 1_555 1_555
C12 C1 1_555 1_555
C13 C12 1_555 1_555
H11 C13 1_555 1_555
C14 C13 1_555 1_555
H12 C14 1_555 1_555
C15 C14 1_555 1_555
C16 C15 1_555 1_555
H13 C16 1_555 1_555
C17 C12 1_555 1_555
H14 C17 1_555 1_555
C18 N2 1_555 1_555
C19 C18 1_555 1_555
H15 C19 1_555 1_555
C20 C19 1_555 1_555
H16 C20 1_555 1_555
C21 C20 1_555 1_555
C22 C21 1_555 1_555
H17 C22 1_555 1_555
C23 C18 1_555 1_555
H18 C23 1_555 1_555
C24 C3 1_555 1_555
C25 C24 1_555 1_555
H19 C25 1_555 1_555
H20 C25 1_555 1_555
H21 C25 1_555 1_555
Br3 C34 1_555 1_555
Br4 C46 1_555 1_555
Cl2 C40 1_555 1_555
N3 C26 1_555 1_555
N4 H22 1_555 1_555
O3 H23 1_555 1_555
O4 C49 1_555 1_555
C26 O3 1_555 1_555
C27 N4 1_555 1_555
H24 C27 1_555 1_555
C28 C27 1_555 1_555
C29 N3 1_555 1_555
C30 C29 1_555 1_555
H25 C30 1_555 1_555
H26 C30 1_555 1_555
H27 C30 1_555 1_555
C31 N3 1_555 1_555
C32 C31 1_555 1_555
H28 C32 1_555 1_555
C33 C32 1_555 1_555
H29 C33 1_555 1_555
C34 C33 1_555 1_555
C35 C34 1_555 1_555
H30 C35 1_555 1_555
C36 C31 1_555 1_555
H31 C36 1_555 1_555
C37 C26 1_555 1_555
C38 C37 1_555 1_555
H32 C38 1_555 1_555
C39 C38 1_555 1_555
H33 C39 1_555 1_555
C40 C39 1_555 1_555
C41 C40 1_555 1_555
H34 C41 1_555 1_555
C42 C37 1_555 1_555
H35 C42 1_555 1_555
C43 N4 1_555 1_555
C44 C43 1_555 1_555
H36 C44 1_555 1_555
C45 C44 1_555 1_555
H37 C45 1_555 1_555
C46 C45 1_555 1_555
C47 C46 1_555 1_555
H38 C47 1_555 1_555
C48 C43 1_555 1_555
H39 C48 1_555 1_555
C49 C28 1_555 1_555
C50 C49 1_555 1_555
H40 C50 1_555 1_555
H41 C50 1_555 1_555
H42 C50 1_555 1_555
C1 C2 1_555 1_555
C3 C4 1_555 1_555
C10 C11 1_555 1_555
C16 C17 1_555 1_555
C22 C23 1_555 1_555
C26 C27 1_555 1_555
C28 C29 1_555 1_555
C35 C36 1_555 1_555
C41 C42 1_555 1_555
C47 C48 1_555 1_555

#END
