
#######################################################################
#
#                 Cambridge Crystallographic Data Centre
#                                CCDC 
#
#######################################################################
#
# If this CIF has been generated from an entry in the Cambridge 
# Structural Database, then it will include bibliographic, chemical, 
# crystal, experimental, refinement or atomic coordinate data resulting 
# from the CCDC's data processing and validation procedures.
#
#######################################################################

data_BETMOD
_chemical_formula_moiety         'C23 H19 F3 N3 O2 1+,Cl1 1-,H2 O1'
_chemical_name_systematic        
'(+-)-3,5-Difluoro-4-((3aSR,4RS,8aSR,8bRS)-2-(4-fluorobenzyl)-1,3-dioxodecahydropyrrolo(3,4-a)pyrrolizin-4-yl)benzonitrile hydrochloride monohydrate'
_symmetry_cell_setting           monoclinic
_symmetry_space_group_name_H-M   'P 21/c'
_symmetry_Int_Tables_number      14
_space_group_name_Hall           '-P 2ybc'
loop_
_symmetry_equiv_pos_site_id
_symmetry_equiv_pos_as_xyz
1 x,y,z
2 x,1/2-y,1/2+z
3 -x,-y,-z
4 -x,1/2+y,1/2-z
_cell_length_a                   11.6360(6)
_cell_length_b                   6.9444(4)
_cell_length_c                   26.6949(16)
_cell_angle_alpha                90
_cell_angle_beta                 98.983(2)
_cell_angle_gamma                90
_cell_volume                     2130.63
_exptl_crystal_colour            colorless
_cell_formula_units_Z            4
loop_
_atom_site_label
_atom_site_type_symbol
_atom_site_fract_x
_atom_site_fract_y
_atom_site_fract_z
C1 C 0.9819(4) 0.2674(6) 0.28458(15)
N1 N 0.8686(3) 0.2036(5) 0.28007(12)
C2 C 0.8505(4) 0.0854(6) 0.32011(15)
C3 C 0.9603(4) 0.0828(6) 0.35838(15)
H1 H 0.9852 -0.0520 0.3656
C4 C 1.0512(4) 0.1878(6) 0.33272(15)
H2 H 1.1086 0.0934 0.3239
O1 O 1.0190(3) 0.3692(5) 0.25355(12)
O2 O 0.7607(3) 0.0024(5) 0.32277(11)
C5 C 0.7893(4) 0.2097(7) 0.23193(15)
H3 H 0.7472 0.0872 0.2278
H4 H 0.8362 0.2186 0.2045
C6 C 0.7011(4) 0.3708(7) 0.22510(15)
C7 C 0.7200(5) 0.5488(7) 0.24797(16)
H5 H 0.7882 0.5702 0.2712
C8 C 0.6401(5) 0.6961(7) 0.23711(18)
H6 H 0.6516 0.8153 0.2538
C9 C 0.5437(4) 0.6645(7) 0.20149(18)
C10 C 0.5214(5) 0.4903(8) 0.17815(19)
H7 H 0.4538 0.4712 0.1543
C11 C 0.6003(5) 0.3433(7) 0.19042(18)
H8 H 0.5856 0.2221 0.1750
F1 F 0.4685(3) 0.8132(5) 0.18883(12)
C12 C 0.9528(4) 0.1892(6) 0.40880(15)
H9 H 0.9583 0.0913 0.4360
N2 N 1.0608(3) 0.3120(5) 0.41855(12)
C13 C 1.1559(4) 0.2283(7) 0.45732(16)
H10 H 1.1576 0.0876 0.4549
H11 H 1.1455 0.2649 0.4918
C14 C 1.2653(4) 0.3160(8) 0.44336(17)
H12 H 1.3341 0.2409 0.4575
H13 H 1.2754 0.4490 0.4555
C15 C 1.2446(4) 0.3082(8) 0.38530(16)
H14 H 1.2881 0.4103 0.3712
H15 H 1.2688 0.1834 0.3733
C16 C 1.1139(4) 0.3371(6) 0.36974(15)
H16 H 1.0981 0.4685 0.3560
C17 C 0.8422(4) 0.3057(6) 0.41012(14)
C18 C 0.8201(4) 0.4843(6) 0.38854(14)
C19 C 0.7257(4) 0.5984(7) 0.39424(15)
H17 H 0.7160 0.7216 0.3796
C20 C 0.6456(4) 0.5235(7) 0.42248(16)
C21 C 0.6596(4) 0.3344(7) 0.44230(17)
H18 H 0.6036 0.2800 0.4599
C22 C 0.7561(4) 0.2331(6) 0.43536(16)
C23 C 0.5470(5) 0.6359(8) 0.43185(18)
N3 N 0.4707(5) 0.7243(8) 0.44028(18)
F2 F 0.8971(2) 0.5561(3) 0.35978(9)
F3 F 0.7668(2) 0.0526(4) 0.45337(10)
H19 H 1.052 0.435 0.4299
Cl1 Cl 1.04694(11) 0.71811(16) 0.45995(4)
O3 O 1.2192(4) 0.8107(6) 0.38756(14)
H20 H 1.1668 0.7846 0.4122
H21 H 1.3286 0.8232 0.4048
loop_
_geom_bond_atom_site_label_1
_geom_bond_atom_site_label_2
_geom_bond_site_symmetry_1
_geom_bond_site_symmetry_2
C1 N1 1_555 1_555
N1 C2 1_555 1_555
C2 C3 1_555 1_555
C3 H1 1_555 1_555
C4 C1 1_555 1_555
H2 C4 1_555 1_555
O1 C1 1_555 1_555
O2 C2 1_555 1_555
C5 N1 1_555 1_555
H3 C5 1_555 1_555
H4 C5 1_555 1_555
C6 C5 1_555 1_555
C7 C6 1_555 1_555
H5 C7 1_555 1_555
C8 C7 1_555 1_555
H6 C8 1_555 1_555
C9 C8 1_555 1_555
C10 C9 1_555 1_555
H7 C10 1_555 1_555
C11 C6 1_555 1_555
H8 C11 1_555 1_555
F1 C9 1_555 1_555
C12 C3 1_555 1_555
H9 C12 1_555 1_555
N2 C12 1_555 1_555
C13 N2 1_555 1_555
H10 C13 1_555 1_555
H11 C13 1_555 1_555
C14 C13 1_555 1_555
H12 C14 1_555 1_555
H13 C14 1_555 1_555
C15 C14 1_555 1_555
H14 C15 1_555 1_555
H15 C15 1_555 1_555
C16 C4 1_555 1_555
H16 C16 1_555 1_555
C17 C12 1_555 1_555
C18 C17 1_555 1_555
C19 C18 1_555 1_555
H17 C19 1_555 1_555
C20 C19 1_555 1_555
C21 C20 1_555 1_555
H18 C21 1_555 1_555
C22 C17 1_555 1_555
C23 C20 1_555 1_555
N3 C23 1_555 1_555
F2 C18 1_555 1_555
F3 C22 1_555 1_555
H19 N2 1_555 1_555
O3 H20 1_555 1_555
H21 O3 1_555 1_555
C3 C4 1_555 1_555
C10 C11 1_555 1_555
N2 C16 1_555 1_555
C15 C16 1_555 1_555
C21 C22 1_555 1_555

#END
