
#######################################################################
#
#                 Cambridge Crystallographic Data Centre
#                                CCDC 
#
#######################################################################
#
# If this CIF has been generated from an entry in the Cambridge 
# Structural Database, then it will include bibliographic, chemical, 
# crystal, experimental, refinement or atomic coordinate data resulting 
# from the CCDC's data processing and validation procedures.
#
#######################################################################

data_BETQIA01
_chemical_formula_moiety         'C23 H29 Br1 O7,C1 H2 Cl2'
_chemical_name_systematic        
'1,8,13,13-Tetramethyl-2,5,7,12-tetraoxa-6-oxotricyclo[9.5.0.0^3,8^]hexadec-14-yl 4-bromobenzoate dichloromethane solvate'
_symmetry_cell_setting           monoclinic
_symmetry_space_group_name_H-M   'P 21'
_symmetry_Int_Tables_number      4
_space_group_name_Hall           'P 2yb'
loop_
_symmetry_equiv_pos_site_id
_symmetry_equiv_pos_as_xyz
1 x,y,z
2 -x,1/2+y,-z
_cell_length_a                   10.3128(7)
_cell_length_b                   10.7363(7)
_cell_length_c                   11.5382(8)
_cell_angle_alpha                90
_cell_angle_beta                 94.1510(10)
_cell_angle_gamma                90
_cell_volume                     1274.17
_exptl_crystal_colour            colorless
_cell_formula_units_Z            2
_exptl_crystal_recrystallization_method hexanes/dichloromethane
loop_
_atom_site_label
_atom_site_type_symbol
_atom_site_fract_x
_atom_site_fract_y
_atom_site_fract_z
Br1 Br 0.05803(3) 1.52076(2) 1.02213(2)
O1 O 0.21038(16) 0.73184(16) 0.67000(14)
O2 O 0.29389(14) 1.0108(2) 0.76269(13)
O3 O 0.46523(17) 1.0419(2) 0.89276(16)
O4 O -0.02363(15) 0.93606(15) 0.50845(15)
O5 O -0.34520(16) 0.86675(17) 0.37037(16)
O6 O -0.48519(17) 0.72461(16) 0.41806(15)
O7 O -0.32340(16) 0.76594(15) 0.54882(15)
C1 C 0.3156(2) 0.7801(2) 0.7455(2)
C2 C 0.3603(2) 0.9092(2) 0.7061(2)
H1 H 0.4556 0.9168 0.7281
C3 C 0.3387(2) 0.9327(2) 0.5761(2)
H2 H 0.3636 0.8566 0.5346
H3 H 0.3980 1.0002 0.5550
C4 C 0.1995(2) 0.9685(2) 0.5315(2)
H4 H 0.1712 1.0389 0.5790
H5 H 0.2018 0.9989 0.4507
C5 C 0.0968(2) 0.8664(2) 0.5328(2)
C6 C -0.1380(2) 0.8640(2) 0.4846(2)
H6 H -0.1125 0.7784 0.4608
C7 C -0.2169(2) 0.9234(2) 0.3857(2)
H7 H -0.2260 1.0136 0.4011
H8 H -0.1717 0.9137 0.3135
C8 C -0.3885(2) 0.7831(2) 0.4451(2)
C9 C -0.2191(2) 0.8540(2) 0.5887(2)
C10 C -0.1461(2) 0.7930(2) 0.6937(2)
H9 H -0.2067 0.7346 0.7285
H10 H -0.1249 0.8590 0.7520
C11 C -0.0205(2) 0.7217(2) 0.6753(2)
H11 H -0.0363 0.6652 0.6079
H12 H 0.0022 0.6696 0.7446
C12 C 0.0955(2) 0.8063(2) 0.6539(2)
H13 H 0.1002 0.8739 0.7136
C13 C 0.3594(3) 1.0717(2) 0.8500(2)
C14 C 0.2843(3) 1.1818(2) 0.8885(2)
C15 C 0.3470(3) 1.2655(3) 0.9647(2)
H14 H 0.4354 1.2523 0.9909
C16 C 0.2809(3) 1.3688(3) 1.0031(2)
H15 H 0.3240 1.4280 1.0535
C17 C 0.1523(3) 1.3834(2) 0.9665(2)
C18 C 0.0866(3) 1.3014(2) 0.8911(2)
H16 H -0.0027 1.3137 0.8675
C19 C 0.1548(2) 1.2000(2) 0.8507(2)
H17 H 0.1126 1.1433 0.7972
C20 C 0.4262(2) 0.6883(2) 0.7308(2)
H18 H 0.3976 0.6040 0.7492
H19 H 0.5013 0.7111 0.7834
H20 H 0.4507 0.6909 0.6503
C21 C 0.2792(3) 0.7800(3) 0.8715(2)
H21 H 0.2008 0.8304 0.8780
H22 H 0.3509 0.8151 0.9215
H23 H 0.2625 0.6944 0.8958
C22 C 0.1175(2) 0.7718(2) 0.4378(2)
H24 H 0.0658 0.6971 0.4504
H25 H 0.2098 0.7494 0.4399
H26 H 0.0903 0.8080 0.3619
C23 C -0.2801(2) 0.9743(2) 0.6245(2)
H27 H -0.3387 1.0056 0.5604
H28 H -0.2118 1.0360 0.6438
H29 H -0.3295 0.9596 0.6927
C24 C 0.3634(3) 0.8768(3) 0.2122(3)
H30 H 0.4473 0.8848 0.1763
H31 H 0.3814 0.8790 0.2977
Cl1 Cl 0.29171(8) 0.73452(6) 0.17201(6)
Cl2 Cl 0.26303(8) 1.00236(8) 0.16888(8)
loop_
_geom_bond_atom_site_label_1
_geom_bond_atom_site_label_2
_geom_bond_site_symmetry_1
_geom_bond_site_symmetry_2
Br1 C17 1_555 1_555
O1 C1 1_555 1_555
O2 C2 1_555 1_555
O3 C13 1_555 1_555
O4 C5 1_555 1_555
O5 C7 1_555 1_555
O6 C8 1_555 1_555
O7 C8 1_555 1_555
C1 C2 1_555 1_555
C2 H1 1_555 1_555
C3 C2 1_555 1_555
H2 C3 1_555 1_555
H3 C3 1_555 1_555
C4 C3 1_555 1_555
H4 C4 1_555 1_555
H5 C4 1_555 1_555
C5 C4 1_555 1_555
C6 O4 1_555 1_555
H6 C6 1_555 1_555
C7 C6 1_555 1_555
H7 C7 1_555 1_555
H8 C7 1_555 1_555
C8 O5 1_555 1_555
C9 O7 1_555 1_555
C10 C9 1_555 1_555
H9 C10 1_555 1_555
H10 C10 1_555 1_555
C11 C10 1_555 1_555
H11 C11 1_555 1_555
H12 C11 1_555 1_555
C12 O1 1_555 1_555
H13 C12 1_555 1_555
C13 O2 1_555 1_555
C14 C13 1_555 1_555
C15 C14 1_555 1_555
H14 C15 1_555 1_555
C16 C15 1_555 1_555
H15 C16 1_555 1_555
C17 C16 1_555 1_555
C18 C17 1_555 1_555
H16 C18 1_555 1_555
C19 C14 1_555 1_555
H17 C19 1_555 1_555
C20 C1 1_555 1_555
H18 C20 1_555 1_555
H19 C20 1_555 1_555
H20 C20 1_555 1_555
C21 C1 1_555 1_555
H21 C21 1_555 1_555
H22 C21 1_555 1_555
H23 C21 1_555 1_555
C22 C5 1_555 1_555
H24 C22 1_555 1_555
H25 C22 1_555 1_555
H26 C22 1_555 1_555
C23 C9 1_555 1_555
H27 C23 1_555 1_555
H28 C23 1_555 1_555
H29 C23 1_555 1_555
C24 H30 1_555 1_555
H31 C24 1_555 1_555
Cl1 C24 1_555 1_555
Cl2 C24 1_555 1_555
C5 C12 1_555 1_555
C6 C9 1_555 1_555
C11 C12 1_555 1_555
C18 C19 1_555 1_555

#END
