
#######################################################################
#
#                 Cambridge Crystallographic Data Centre
#                                CCDC 
#
#######################################################################
#
# If this CIF has been generated from an entry in the Cambridge 
# Structural Database, then it will include bibliographic, chemical, 
# crystal, experimental, refinement or atomic coordinate data resulting 
# from the CCDC's data processing and validation procedures.
#
#######################################################################

data_BETVUU
_chemical_formula_moiety         'C21 H23 N1 O3 S1'
_chemical_name_systematic        
2'-methylene-4-((4-methylphenyl)sulfonyl)-3,4-dihydrospiro[1,4-benzoxazine-2,1'-cyclohexane]
_symmetry_cell_setting           monoclinic
_symmetry_space_group_name_H-M   'P 21/n'
_symmetry_Int_Tables_number      14
_space_group_name_Hall           '-P 2yn'
loop_
_symmetry_equiv_pos_site_id
_symmetry_equiv_pos_as_xyz
1 x,y,z
2 1/2-x,1/2+y,1/2-z
3 -x,-y,-z
4 1/2+x,1/2-y,1/2+z
_cell_length_a                   12.1283(10)
_cell_length_b                   11.3121(8)
_cell_length_c                   13.7932(10)
_cell_angle_alpha                90
_cell_angle_beta                 94.594(7)
_cell_angle_gamma                90
_cell_volume                     1886.3
_exptl_crystal_colour            colorless
_exptl_crystal_description       block
_cell_formula_units_Z            4
_exptl_crystal_recrystallization_method 'Vapour Deposition'
loop_
_atom_site_label
_atom_site_type_symbol
_atom_site_fract_x
_atom_site_fract_y
_atom_site_fract_z
S1 S 0.79344(6) 0.12411(6) 0.17332(5)
O1 O 0.85712(16) 0.02112(17) 0.19821(14)
O2 O 0.84689(16) 0.23601(16) 0.17378(14)
O3 O 0.60621(19) 0.0341(2) -0.10989(14)
N1 N 0.73666(18) 0.09969(19) 0.06176(15)
C1 C 0.6397(3) 0.0248(3) 0.2797(2)
H1 H 0.6715 -0.0470 0.2647
C2 C 0.5481(3) 0.0277(3) 0.3332(2)
H2 H 0.5184 -0.0429 0.3537
C3 C 0.4998(3) 0.1336(3) 0.3568(2)
C4 C 0.5461(3) 0.2368(3) 0.3267(2)
H3 H 0.5156 0.3087 0.3433
C5 C 0.6376(3) 0.2361(3) 0.2721(2)
H4 H 0.6674 0.3067 0.2516
C6 C 0.6834(2) 0.1295(2) 0.24870(18)
C7 C 0.3971(4) 0.1357(4) 0.4122(3)
H5 H 0.4029 0.1985 0.4591
H6 H 0.3899 0.0616 0.4450
H7 H 0.3333 0.1484 0.3676
C8 C 0.6712(2) 0.1867(2) 0.00723(19)
C9 C 0.6675(3) 0.3061(3) 0.0307(2)
H8 H 0.7094 0.3340 0.0853
C10 C 0.6027(3) 0.3838(3) -0.0257(3)
H9 H 0.6004 0.4631 -0.0082
C11 C 0.5415(3) 0.3452(3) -0.1077(3)
H10 H 0.4977 0.3979 -0.1455
C12 C 0.5456(3) 0.2282(3) -0.1333(2)
H11 H 0.5049 0.2021 -0.1892
C13 C 0.6095(2) 0.1484(3) -0.0773(2)
C14 C 0.6885(3) -0.0448(3) -0.0666(2)
C15 C 0.6984(2) -0.0224(2) 0.04259(18)
H12 H 0.6272 -0.0341 0.0684
H13 H 0.7506 -0.0777 0.0745
C16 C 0.6423(4) -0.1710(3) -0.0883(3)
H14 H 0.5761 -0.1827 -0.0544
H15 H 0.6221 -0.1788 -0.1575
C17 C 0.7266(4) -0.2649(3) -0.0567(3)
H16 H 0.7384 -0.2643 0.0137
H17 H 0.6974 -0.3418 -0.0763
C18 C 0.7961(3) -0.0320(3) -0.1122(2)
C19 C 0.8360(5) -0.2466(4) -0.0995(4)
H18 H 0.8266 -0.2591 -0.1692
H19 H 0.8889 -0.3043 -0.0721
C20 C 0.8808(4) -0.1227(4) -0.0789(3)
H20 H 0.9001 -0.1137 -0.0096
H21 H 0.9472 -0.1110 -0.1124
C21 C 0.8082(4) 0.0391(4) -0.1839(3)
H22 H 0.8717 0.0354 -0.2173
H23 H 0.7533 0.0941 -0.2021
loop_
_geom_bond_atom_site_label_1
_geom_bond_atom_site_label_2
_geom_bond_site_symmetry_1
_geom_bond_site_symmetry_2
S1 O1 1_555 1_555
O2 S1 1_555 1_555
O3 C13 1_555 1_555
N1 S1 1_555 1_555
C1 H1 1_555 1_555
C2 C1 1_555 1_555
H2 C2 1_555 1_555
C3 C2 1_555 1_555
C4 C3 1_555 1_555
H3 C4 1_555 1_555
C5 C4 1_555 1_555
H4 C5 1_555 1_555
C6 S1 1_555 1_555
C7 C3 1_555 1_555
H5 C7 1_555 1_555
H6 C7 1_555 1_555
H7 C7 1_555 1_555
C8 N1 1_555 1_555
C9 C8 1_555 1_555
H8 C9 1_555 1_555
C10 C9 1_555 1_555
H9 C10 1_555 1_555
C11 C10 1_555 1_555
H10 C11 1_555 1_555
C12 C11 1_555 1_555
H11 C12 1_555 1_555
C13 C8 1_555 1_555
C14 O3 1_555 1_555
C15 N1 1_555 1_555
H12 C15 1_555 1_555
H13 C15 1_555 1_555
C16 C14 1_555 1_555
H14 C16 1_555 1_555
H15 C16 1_555 1_555
C17 C16 1_555 1_555
H16 C17 1_555 1_555
H17 C17 1_555 1_555
C18 C14 1_555 1_555
C19 C17 1_555 1_555
H18 C19 1_555 1_555
H19 C19 1_555 1_555
C20 C18 1_555 1_555
H20 C20 1_555 1_555
H21 C20 1_555 1_555
C21 C18 1_555 1_555
H22 C21 1_555 1_555
H23 C21 1_555 1_555
C1 C6 1_555 1_555
C5 C6 1_555 1_555
C12 C13 1_555 1_555
C14 C15 1_555 1_555
C19 C20 1_555 1_555

#END
