
#######################################################################
#
#                 Cambridge Crystallographic Data Centre
#                                CCDC 
#
#######################################################################
#
# If this CIF has been generated from an entry in the Cambridge 
# Structural Database, then it will include bibliographic, chemical, 
# crystal, experimental, refinement or atomic coordinate data resulting 
# from the CCDC's data processing and validation procedures.
#
#######################################################################

data_BEVCOX
_chemical_formula_moiety         'C31 H22 Br3 N9 O10,C2 H3 N1'
_chemical_name_systematic        
'trimethyl 1,8-bis(6-bromopyridin-2-yl)-4-[1-(6-bromopyridin-2-yl)-5-hydroxy-3-(methoxycarbonyl)-1H-pyrazol-4-yl]-9-oxo-1,2,7,8-tetraazaspiro[4.4]nona-2,6-diene-3,4,6-tricarboxylate acetonitrile solvate'
_symmetry_cell_setting           triclinic
_symmetry_space_group_name_H-M   'P -1'
_symmetry_Int_Tables_number      2
_space_group_name_Hall           '-P 1'
loop_
_symmetry_equiv_pos_site_id
_symmetry_equiv_pos_as_xyz
1 x,y,z
2 -x,-y,-z
_cell_length_a                   9.9856(5)
_cell_length_b                   11.5690(4)
_cell_length_c                   17.6687(9)
_cell_angle_alpha                84.550(4)
_cell_angle_beta                 88.841(4)
_cell_angle_gamma                64.565(5)
_cell_volume                     1834.49
_exptl_crystal_colour            white
_exptl_crystal_description       BLOCK
_cell_formula_units_Z            2
loop_
_atom_site_label
_atom_site_type_symbol
_atom_site_fract_x
_atom_site_fract_y
_atom_site_fract_z
Br1 Br 0.87345(13) 0.93196(9) 0.07570(6)
Br2 Br 0.90170(16) 0.64036(11) -0.27558(8)
O1 O 0.2780(5) 1.4076(4) -0.1294(2)
N1 N 0.7824(6) 0.8473(5) -0.1966(3)
O2 O 0.4621(5) 1.1472(4) -0.0890(3)
O3 O 0.4297(6) 1.7093(4) -0.1840(3)
O4 O 0.6142(6) 1.5396(5) -0.3094(3)
H1 H 0.5387 1.5904 -0.2904
N2 N 0.6901(5) 1.0415(4) -0.1433(3)
N3 N 0.5483(5) 1.4690(5) -0.1072(3)
O5 O 0.8479(6) 1.3477(5) -0.1872(3)
O6 O 0.2612(5) 1.3635(5) -0.2488(3)
N4 N 0.7943(5) 1.0714(5) -0.1804(3)
C1 C 0.7523(6) 1.1940(5) -0.1823(3)
N5 N 0.7425(6) 1.1611(5) -0.0076(3)
O7 O 0.2935(6) 1.6429(5) -0.2527(3)
N6 N 0.7199(7) 1.5382(6) -0.4468(3)
N7 N 0.5973(6) 1.2924(5) -0.4056(3)
O8 O 0.4900(6) 1.1182(5) -0.2645(3)
C2 C 0.4823(6) 1.4913(5) -0.1720(3)
N8 N 0.6289(6) 1.3936(6) -0.3985(3)
C3 C 0.8502(7) 1.2550(6) -0.2111(4)
N9 N 0.6055(6) 1.3394(4) -0.0857(3)
C4 C 0.5689(7) 1.1469(6) -0.1200(3)
C5 C 0.3261(6) 1.3813(6) -0.1993(3)
C6 C 0.7064(6) 0.9124(5) -0.1397(3)
C7 C 0.3920(7) 1.6231(6) -0.2073(3)
C8 C 0.6893(8) 1.4433(7) -0.4603(4)
C9 C 0.6010(6) 1.2645(5) -0.1479(3)
C10 C 0.4866(6) 1.3726(5) -0.2054(3)
O9 O 0.9396(6) 1.1887(5) -0.2648(3)
O10 O 0.5033(9) 1.1136(6) -0.3905(3)
C11 C 0.5440(7) 1.2728(6) -0.3396(4)
C12 C 0.7995(8) 0.7272(6) -0.1942(4)
C13 C 0.7067(7) 1.2858(6) -0.0247(3)
C14 C 0.5083(7) 1.1607(6) -0.3254(4)
C15 C 0.7754(9) 1.5861(8) -0.5041(4)
C16 C 0.7625(8) 1.3554(6) 0.0137(4)
H2 H 0.7362 1.4421 -0.0004
C17 C 0.5372(7) 1.3629(6) -0.2876(3)
C18 C 0.5928(7) 1.4383(6) -0.3287(3)
C19 C 0.8974(8) 1.1602(7) 0.0940(4)
H3 H 0.9627 1.1142 0.1343
C20 C 0.8344(7) 1.1038(6) 0.0515(4)
C21 C 0.7452(8) 0.6663(6) -0.1407(4)
H4 H 0.7593 0.5819 -0.1432
C22 C 0.6679(9) 0.7374(7) -0.0824(4)
H5 H 0.6305 0.7002 -0.0437
C23 C 0.6461(8) 0.8643(6) -0.0817(4)
H6 H 0.5931 0.9142 -0.0436
C24 C 0.7708(9) 1.4399(9) -0.5864(4)
H7 H 0.7864 1.4080 -0.6338
C25 C 0.8600(8) 1.2885(7) 0.0744(4)
H8 H 0.9003 1.3309 0.1021
C26 C 0.3612(11) 1.8365(7) -0.2258(5)
H9 H 0.3956 1.8926 -0.2047
H10 H 0.2553 1.8706 -0.2220
H11 H 0.3876 1.8299 -0.2783
C27 C 0.1428(8) 1.3954(7) -0.1105(4)
H12 H 0.1170 1.4161 -0.0592
H13 H 0.1575 1.3087 -0.1148
H14 H 0.0641 1.4533 -0.1447
C28 C 0.7156(8) 1.3856(7) -0.5287(4)
H15 H 0.6969 1.3148 -0.5347
C29 C 0.4789(16) 0.9975(10) -0.3820(6)
H16 H 0.4768 0.9694 -0.4312
H17 H 0.3860 1.0155 -0.3578
H18 H 0.5578 0.9311 -0.3514
C30 C 1.0427(13) 1.2390(11) -0.2945(7)
H19 H 1.1022 1.1866 -0.3325
H20 H 1.1058 1.2379 -0.2539
H21 H 0.9883 1.3257 -0.3168
Br3 Br 0.81439(18) 1.72245(14) -0.48713(8)
C31 C 0.8029(9) 1.5409(9) -0.5745(4)
H22 H 0.8420 1.5774 -0.6128
C32 C 1.0464(18) 0.9636(14) -0.3981(8)
C33 C 0.919(2) 0.9531(18) -0.3688(11)
H23 H 0.9221 0.8719 -0.3789
H24 H 0.8316 1.0215 -0.3926
H25 H 0.9160 0.9589 -0.3149
N10 N 1.150(2) 0.967(2) -0.4193(11)
loop_
_geom_bond_atom_site_label_1
_geom_bond_atom_site_label_2
_geom_bond_site_symmetry_1
_geom_bond_site_symmetry_2
Br1 C20 1_555 1_555
Br2 C12 1_555 1_555
O1 C5 1_555 1_555
N1 C6 1_555 1_555
O2 C4 1_555 1_555
O3 C7 1_555 1_555
O4 H1 1_555 1_555
N2 N4 1_555 1_555
N3 C2 1_555 1_555
O5 C3 1_555 1_555
O6 C5 1_555 1_555
N4 C1 1_555 1_555
C1 C3 1_555 1_555
N5 C13 1_555 1_555
O7 C7 1_555 1_555
N6 C8 1_555 1_555
N7 N8 1_555 1_555
O8 C14 1_555 1_555
C2 C7 1_555 1_555
N8 C8 1_555 1_555
C3 O9 1_555 1_555
N9 N3 1_555 1_555
C4 N2 1_555 1_555
C5 C10 1_555 1_555
C6 N2 1_555 1_555
C8 C28 1_555 1_555
C9 C1 1_555 1_555
C10 C2 1_555 1_555
O9 C30 1_555 1_555
O10 C14 1_555 1_555
C11 N7 1_555 1_555
C12 N1 1_555 1_555
C13 N9 1_555 1_555
C14 C11 1_555 1_555
C15 N6 1_555 1_555
C16 C13 1_555 1_555
H2 C16 1_555 1_555
C17 C10 1_555 1_555
C18 O4 1_555 1_555
C19 H3 1_555 1_555
C20 N5 1_555 1_555
C21 C12 1_555 1_555
H4 C21 1_555 1_555
C22 C21 1_555 1_555
H5 C22 1_555 1_555
C23 C6 1_555 1_555
H6 C23 1_555 1_555
C24 H7 1_555 1_555
C25 C16 1_555 1_555
H8 C25 1_555 1_555
C26 O3 1_555 1_555
H9 C26 1_555 1_555
H10 C26 1_555 1_555
H11 C26 1_555 1_555
C27 O1 1_555 1_555
H12 C27 1_555 1_555
H13 C27 1_555 1_555
H14 C27 1_555 1_555
C28 C24 1_555 1_555
H15 C28 1_555 1_555
C29 O10 1_555 1_555
H16 C29 1_555 1_555
H17 C29 1_555 1_555
H18 C29 1_555 1_555
C30 H19 1_555 1_555
H20 C30 1_555 1_555
H21 C30 1_555 1_555
Br3 C15 1_555 1_555
C31 C15 1_555 1_555
H22 C31 1_555 1_555
C32 C33 1_555 1_555
C33 H23 1_555 1_555
H24 C33 1_555 1_555
H25 C33 1_555 1_555
N10 C32 1_555 1_555
N8 C18 1_555 1_555
N9 C9 1_555 1_555
C4 C9 1_555 1_555
C9 C10 1_555 1_555
C11 C17 1_555 1_555
C17 C18 1_555 1_555
C19 C20 1_555 1_555
C19 C25 1_555 1_555
C22 C23 1_555 1_555
C24 C31 1_555 1_555

#END
