
#######################################################################
#
#                 Cambridge Crystallographic Data Centre
#                                CCDC 
#
#######################################################################
#
# If this CIF has been generated from an entry in the Cambridge 
# Structural Database, then it will include bibliographic, chemical, 
# crystal, experimental, refinement or atomic coordinate data resulting 
# from the CCDC's data processing and validation procedures.
#
#######################################################################

data_BEVGIV
_chemical_formula_moiety         'C12 H28 N1 1+,4(C8 N6),C1 H2 Cl2,Cl1 1-'
_chemical_name_systematic        
'tetra-n-propylammonium chloride tetrakis(pyrazine-2,3,5,6-tetracarbonitrile) dichloromethane solvate'
_symmetry_cell_setting           tetragonal
_symmetry_space_group_name_H-M   'I -4'
_symmetry_Int_Tables_number      82
_space_group_name_Hall           'I -4'
loop_
_symmetry_equiv_pos_site_id
_symmetry_equiv_pos_as_xyz
1 x,y,z
2 -x,-y,z
3 y,-x,-z
4 -y,x,-z
5 1/2+x,1/2+y,1/2+z
6 1/2-x,1/2-y,1/2+z
7 1/2+y,1/2-x,1/2-z
8 1/2-y,1/2+x,1/2-z
_cell_length_a                   13.1749(6)
_cell_length_b                   13.1749(6)
_cell_length_c                   15.0846(9)
_cell_angle_alpha                90
_cell_angle_beta                 90
_cell_angle_gamma                90
_cell_volume                     2618.35
_exptl_crystal_colour            colorless
_exptl_crystal_description       prism
_cell_formula_units_Z            2
loop_
_atom_site_label
_atom_site_type_symbol
_atom_site_fract_x
_atom_site_fract_y
_atom_site_fract_z
N1 N 0.19489(9) 0.53609(9) 0.91763(8)
N2 N 0.35693(9) 0.50091(9) 0.79929(9)
N3 N 0.28677(12) 0.73814(12) 1.03333(11)
N4 N 0.50228(11) 0.71062(11) 0.84356(13)
N5 N 0.26978(12) 0.27956(12) 0.70410(12)
N6 N 0.02698(11) 0.35737(12) 0.84310(11)
C1 C 0.27806(10) 0.59364(10) 0.91708(9)
C2 C 0.35717(10) 0.57844(9) 0.85596(10)
C3 C 0.27557(10) 0.44049(9) 0.80277(9)
C4 C 0.19312(10) 0.46070(10) 0.85869(9)
C5 C 0.28284(11) 0.67408(11) 0.98194(10)
C6 C 0.44013(11) 0.64977(10) 0.84995(11)
C7 C 0.27464(11) 0.35197(11) 0.74606(11)
C8 C 0.10103(11) 0.40201(11) 0.85237(11)
N7 N 0.000000 0.500000 1.250000
C9 C 0.03149(11) 0.41010(11) 1.19282(11)
H1 H 0.094952 0.428143 1.161409
H2 H 0.046985 0.352173 1.232370
C10 C -0.04592(13) 0.37533(15) 1.12451(14)
H3 H -0.110520 0.357945 1.154392
H4 H -0.059392 0.430860 1.081885
C11 C -0.00560(17) 0.28325(17) 1.07555(16)
H5 H -0.054634 0.262384 1.030223
H6 H 0.004775 0.227499 1.117599
H7 H 0.059101 0.300344 1.047200
C9A C -0.03149(11) 0.58990(11) 1.19282(11)
H1A H -0.094952 0.571857 1.161409
H2A H -0.046985 0.647827 1.232370
C10A C 0.04592(13) 0.62467(15) 1.12451(14)
H3A H 0.110520 0.642055 1.154392
H4A H 0.059392 0.569140 1.081885
C11A C 0.00560(17) 0.71675(17) 1.07555(16)
H5A H 0.054634 0.737616 1.030223
H6A H -0.004775 0.772501 1.117599
H7A H -0.059101 0.699656 1.047200
C9F C -0.08990(11) 0.46851(11) 1.30718(11)
H1F H -0.071857 0.405048 1.338591
H2F H -0.147827 0.453015 1.267630
C10F C -0.12467(15) 0.54592(13) 1.37549(14)
H3F H -0.142055 0.610520 1.345608
H4F H -0.069140 0.559392 1.418115
C11F C -0.21675(17) 0.50560(17) 1.42445(16)
H5F H -0.237616 0.554634 1.469777
H6F H -0.272501 0.495225 1.382401
H7F H -0.199656 0.440899 1.452800
C9G C 0.08990(11) 0.53149(11) 1.30718(11)
H1G H 0.071857 0.594952 1.338591
H2G H 0.147827 0.546985 1.267630
C10G C 0.12467(15) 0.45408(13) 1.37549(14)
H3G H 0.142055 0.389480 1.345608
H4G H 0.069140 0.440608 1.418115
C11G C 0.21675(17) 0.49440(17) 1.42445(16)
H5G H 0.237616 0.445366 1.469777
H6G H 0.272501 0.504775 1.382401
H7G H 0.199656 0.559101 1.452800
Cl1 Cl 0.500000 0.500000 1.000000
C12? C 0.5427(8) 0.505(2) 0.5169(6)
H8? H 0.578002 0.439044 0.513143
H9? H 0.591842 0.555810 0.539452
Cl2? Cl 0.4431(7) 0.4950(6) 0.5914(7)
Cl3? Cl 0.5041(9) 0.5411(11) 0.4107(9)
loop_
_geom_bond_atom_site_label_1
_geom_bond_atom_site_label_2
_geom_bond_site_symmetry_1
_geom_bond_site_symmetry_2
N1 C1 1_555 1_555
N2 C2 1_555 1_555
N3 C5 1_555 1_555
N4 C6 1_555 1_555
N5 C7 1_555 1_555
N6 C8 1_555 1_555
C1 C2 1_555 1_555
C2 C6 1_555 1_555
C3 N2 1_555 1_555
C4 N1 1_555 1_555
C5 C1 1_555 1_555
C7 C3 1_555 1_555
C8 C4 1_555 1_555
N7 C9 1_555 1_555
C9 H1 1_555 1_555
H2 C9 1_555 1_555
C10 C9 1_555 1_555
H3 C10 1_555 1_555
H4 C10 1_555 1_555
C11 C10 1_555 1_555
H5 C11 1_555 1_555
H6 C11 1_555 1_555
H7 C11 1_555 1_555
C9A N7 1_555 1_555
H1A C9A 1_555 1_555
H2A C9A 1_555 1_555
C10A C9A 1_555 1_555
H3A C10A 1_555 1_555
H4A C10A 1_555 1_555
C11A C10A 1_555 1_555
H5A C11A 1_555 1_555
H6A C11A 1_555 1_555
H7A C11A 1_555 1_555
C9F N7 1_555 1_555
H1F C9F 1_555 1_555
H2F C9F 1_555 1_555
C10F C9F 1_555 1_555
H3F C10F 1_555 1_555
H4F C10F 1_555 1_555
C11F C10F 1_555 1_555
H5F C11F 1_555 1_555
H6F C11F 1_555 1_555
H7F C11F 1_555 1_555
C9G N7 1_555 1_555
H1G C9G 1_555 1_555
H2G C9G 1_555 1_555
C10G C9G 1_555 1_555
H3G C10G 1_555 1_555
H4G C10G 1_555 1_555
C11G C10G 1_555 1_555
H5G C11G 1_555 1_555
H6G C11G 1_555 1_555
H7G C11G 1_555 1_555
C3 C4 1_555 1_555

#END
