
#######################################################################
#
#                 Cambridge Crystallographic Data Centre
#                                CCDC 
#
#######################################################################
#
# If this CIF has been generated from an entry in the Cambridge 
# Structural Database, then it will include bibliographic, chemical, 
# crystal, experimental, refinement or atomic coordinate data resulting 
# from the CCDC's data processing and validation procedures.
#
#######################################################################

data_BEVGER
_chemical_formula_moiety         
'C18 H36 K1 N2 O6 1+,1.5(C8 N6),I1 1-,C2 H3 N1,0.5(H2 O1)'
_chemical_name_systematic        
'(4,7,13,16,21,24-hexaoxa-1,10-diazabicyclo[8.8.8]hexacosane)-potassium iodide sesquikis(pyrazine-2,3,5,6-tetracarbonitrile) acetonitrile solvate hemihydrate'
_symmetry_cell_setting           trigonal
_symmetry_space_group_name_H-M   'P -3'
_symmetry_Int_Tables_number      147
_space_group_name_Hall           '-P 3'
loop_
_symmetry_equiv_pos_site_id
_symmetry_equiv_pos_as_xyz
1 x,y,z
2 -y,x-y,z
3 -x+y,-x,z
4 -x,-y,-z
5 y,-x+y,-z
6 x-y,x,-z
_cell_length_a                   12.4751(5)
_cell_length_b                   12.4751(5)
_cell_length_c                   15.0171(6)
_cell_angle_alpha                90
_cell_angle_beta                 90
_cell_angle_gamma                120
_cell_volume                     2023.97
_exptl_crystal_colour            red
_exptl_crystal_description       block
_cell_formula_units_Z            2
loop_
_atom_site_label
_atom_site_type_symbol
_atom_site_fract_x
_atom_site_fract_y
_atom_site_fract_z
K1 K 0.666667 0.333333 0.99301(3)
O1 O 0.44823(10) 0.28657(11) 0.90157(7)
O2 O 0.46906(9) 0.33997(10) 1.08457(7)
N1 N 0.666667 0.333333 0.79697(14)
N2 N 0.666667 0.333333 1.18964(13)
C1 C 0.53834(16) 0.27237(18) 0.76414(10)
H1 H 0.500398 0.181947 0.772962
H2 H 0.539647 0.287592 0.699341
C2 C 0.45831(17) 0.31523(19) 0.80888(11)
H3 H 0.495155 0.405665 0.800813
H4 H 0.375013 0.273765 0.781414
C3 C 0.37204(16) 0.32559(16) 0.94466(11)
H5 H 0.291197 0.289763 0.913853
H6 H 0.411926 0.416899 0.941878
C4 C 0.35256(14) 0.28439(16) 1.03982(10)
H7 H 0.297103 0.308959 1.069262
H8 H 0.313027 0.193116 1.042706
C5 C 0.45313(14) 0.30389(15) 1.17599(10)
H9 H 0.416794 0.213067 1.180486
H10 H 0.395801 0.326438 1.204885
C6 C 0.57701(13) 0.36828(14) 1.22256(9)
H11 H 0.613286 0.458801 1.215529
H12 H 0.563624 0.349386 1.286985
O1A O 0.71343(11) 0.16166(15) 0.90157(7)
O2A O 0.66003(10) 0.12909(13) 1.08457(7)
C1A C 0.72763(18) 0.26597(24) 0.76414(10)
H1A H 0.818053 0.318451 0.772962
H2A H 0.712408 0.252055 0.699341
C2A C 0.68477(19) 0.14308(25) 0.80888(11)
H3A H 0.594335 0.089490 0.800813
H4A H 0.726235 0.101248 0.781414
C3A C 0.67441(16) 0.04645(23) 0.94466(11)
H5A H 0.710237 0.001434 0.913853
H6A H 0.583101 -0.004973 0.941878
C4A C 0.71561(16) 0.06817(21) 1.03982(10)
H7A H 0.691041 -0.011856 1.069262
H8A H 0.806884 0.119911 1.042706
C5A C 0.69611(15) 0.14924(21) 1.17599(10)
H9A H 0.786933 0.203727 1.180486
H10A H 0.673562 0.069363 1.204885
C6A C 0.63172(14) 0.20873(19) 1.22256(9)
H11A H 0.541199 0.154485 1.215529
H12A H 0.650614 0.214238 1.286985
O1B O 0.83834(15) 0.55177(10) 0.90157(7)
O2B O 0.87091(13) 0.53094(9) 1.08457(7)
C1B C 0.73403(24) 0.46166(16) 0.76414(10)
H1B H 0.681549 0.499602 0.772962
H2B H 0.747945 0.460353 0.699341
C2B C 0.85692(25) 0.54169(17) 0.80888(11)
H3B H 0.910510 0.504845 0.800813
H4B H 0.898752 0.624987 0.781414
C3B C 0.95355(23) 0.62796(16) 0.94466(11)
H5B H 0.998566 0.708803 0.913853
H6B H 1.004973 0.588074 0.941878
C4B C 0.93183(21) 0.64744(14) 1.03982(10)
H7B H 1.011856 0.702897 1.069262
H8B H 0.880089 0.686973 1.042706
C5B C 0.85076(21) 0.54687(14) 1.17599(10)
H9B H 0.796273 0.583206 1.180486
H10B H 0.930637 0.604199 1.204885
C6B C 0.79127(19) 0.42299(13) 1.22256(9)
H11B H 0.845515 0.386714 1.215529
H12B H 0.785762 0.436376 1.286985
N3 N 0.99976(11) 0.48784(12) 0.59368(8)
N4 N 0.88097(17) 0.17550(16) 0.60860(13)
N5 N 1.12114(16) 0.79071(15) 0.65390(11)
C7 C 0.96238(13) 0.39164(14) 0.53915(10)
C8 C 0.91826(16) 0.27168(16) 0.57886(11)
C9 C 1.03747(13) 0.59634(14) 0.55405(10)
C10 C 1.08357(15) 0.70443(16) 0.61045(11)
N3C N 1.00024(11) 0.51216(12) 0.40632(8)
N4C N 1.11903(17) 0.82450(16) 0.39140(13)
N5C N 0.87886(16) 0.20929(15) 0.34610(11)
C7C C 1.03762(13) 0.60836(14) 0.46085(10)
C8C C 1.08174(16) 0.72832(16) 0.42114(11)
C9C C 0.96253(13) 0.40366(14) 0.44595(10)
C10C C 0.91643(15) 0.29557(16) 0.38955(11)
I1 I 0.666667 0.333333 0.49658(2)
H13? H 1.075(10) 0.028(6) 0.934(2)
O3? O 1.080(4) 0.056(7) 0.986(2)
H14? H 1.07(5) 0.00(2) 1.023(3)
N6? N 0.963(2) -0.1005(14) 0.8468(8)
C11? C 0.9796(19) -0.0576(10) 0.7782(10)
C12? C 1.000000 0.000000 0.6910(4)
H15? H 1.036374 -0.035466 0.651155
H16? H 1.056538 0.089328 0.696599
H17? H 0.920872 -0.015037 0.666443
loop_
_geom_bond_atom_site_label_1
_geom_bond_atom_site_label_2
_geom_bond_site_symmetry_1
_geom_bond_site_symmetry_2
K1 O1 1_555 1_555
O1 C2 1_555 1_555
O2 K1 1_555 1_555
N1 K1 1_555 1_555
N2 K1 1_555 1_555
C1 N1 1_555 1_555
H1 C1 1_555 1_555
H2 C1 1_555 1_555
C2 C1 1_555 1_555
H3 C2 1_555 1_555
H4 C2 1_555 1_555
C3 O1 1_555 1_555
H5 C3 1_555 1_555
H6 C3 1_555 1_555
C4 O2 1_555 1_555
H7 C4 1_555 1_555
H8 C4 1_555 1_555
C5 O2 1_555 1_555
H9 C5 1_555 1_555
H10 C5 1_555 1_555
C6 N2 1_555 1_555
H11 C6 1_555 1_555
H12 C6 1_555 1_555
N3 C7 1_555 1_555
N4 C8 1_555 1_555
N5 C10 1_555 1_555
C7 C8 1_555 1_555
C9 N3 1_555 1_555
C10 C9 1_555 1_555
O1A K1 1_555 1_555
O2A K1 1_555 1_555
C1A N1 1_555 1_555
H1A C1A 1_555 1_555
H2A C1A 1_555 1_555
C2A O1A 1_555 1_555
H3A C2A 1_555 1_555
H4A C2A 1_555 1_555
C3A O1A 1_555 1_555
H5A C3A 1_555 1_555
H6A C3A 1_555 1_555
C4A O2A 1_555 1_555
H7A C4A 1_555 1_555
H8A C4A 1_555 1_555
C5A O2A 1_555 1_555
H9A C5A 1_555 1_555
H10A C5A 1_555 1_555
C6A N2 1_555 1_555
H11A C6A 1_555 1_555
H12A C6A 1_555 1_555
O1B K1 1_555 1_555
O2B K1 1_555 1_555
C1B N1 1_555 1_555
H1B C1B 1_555 1_555
H2B C1B 1_555 1_555
C2B O1B 1_555 1_555
H3B C2B 1_555 1_555
H4B C2B 1_555 1_555
C3B O1B 1_555 1_555
H5B C3B 1_555 1_555
H6B C3B 1_555 1_555
C4B O2B 1_555 1_555
H7B C4B 1_555 1_555
H8B C4B 1_555 1_555
C5B O2B 1_555 1_555
H9B C5B 1_555 1_555
H10B C5B 1_555 1_555
C6B N2 1_555 1_555
H11B C6B 1_555 1_555
H12B C6B 1_555 1_555
N3C C7C 1_555 1_555
N4C C8C 1_555 1_555
N5C C10C 1_555 1_555
C7C C9 1_555 1_555
C8C C7C 1_555 1_555
C9C C7 1_555 1_555
C10C C9C 1_555 1_555
C3 C4 1_555 1_555
C5 C6 1_555 1_555
C1A C2A 1_555 1_555
C3A C4A 1_555 1_555
C5A C6A 1_555 1_555
C1B C2B 1_555 1_555
C3B C4B 1_555 1_555
C5B C6B 1_555 1_555
N3C C9C 1_555 1_555

#END
