
#######################################################################
#
#                 Cambridge Crystallographic Data Centre
#                                CCDC 
#
#######################################################################
#
# If this CIF has been generated from an entry in the Cambridge 
# Structural Database, then it will include bibliographic, chemical, 
# crystal, experimental, refinement or atomic coordinate data resulting 
# from the CCDC's data processing and validation procedures.
#
#######################################################################

data_BEVJIX
_chemical_formula_moiety         'C24 H17 N1 O1'
_chemical_name_systematic        6-(3-Methoxyphenyl)benzo[k]phenanthridine
_symmetry_cell_setting           triclinic
_symmetry_space_group_name_H-M   'P -1'
_symmetry_Int_Tables_number      2
_space_group_name_Hall           '-P 1'
loop_
_symmetry_equiv_pos_site_id
_symmetry_equiv_pos_as_xyz
1 x,y,z
2 -x,-y,-z
_cell_length_a                   8.2325(16)
_cell_length_b                   10.227(2)
_cell_length_c                   10.877(2)
_cell_angle_alpha                98.04(3)
_cell_angle_beta                 95.54(3)
_cell_angle_gamma                112.46(3)
_cell_volume                     826.661
_exptl_crystal_colour            colorless
_exptl_crystal_description       plate
_cell_formula_units_Z            2
loop_
_atom_site_label
_atom_site_type_symbol
_atom_site_fract_x
_atom_site_fract_y
_atom_site_fract_z
O1 O 0.23727(19) 0.12891(15) -0.03976(12)
N1 N 0.7544(2) 0.45165(16) 0.30625(14)
C1 C 0.8625(2) 0.58003(19) 0.38480(17)
C2 C 0.9749(2) 0.6882(2) 0.32752(18)
H1 H 0.9810 0.6668 0.2407
C3 C 1.0747(3) 0.8231(2) 0.39555(19)
H2 H 1.1517 0.8949 0.3567
C4 C 1.0632(3) 0.8553(2) 0.52263(19)
H3 H 1.1281 0.9506 0.5690
C5 C 0.9592(2) 0.7505(2) 0.58129(18)
H4 H 0.9529 0.7747 0.6678
C6 C 0.8615(2) 0.60769(19) 0.51564(17)
C7 C 0.7440(2) 0.49250(19) 0.57023(17)
C8 C 0.7444(2) 0.49672(19) 0.70449(17)
C9 C 0.8903(3) 0.5862(2) 0.79844(17)
H5 H 0.9960 0.6492 0.7746
C10 C 0.8826(3) 0.5840(2) 0.92393(18)
H6 H 0.9830 0.6454 0.9853
C11 C 0.7291(3) 0.4927(2) 0.96243(18)
H7 H 0.7233 0.4949 1.0495
C12 C 0.5874(3) 0.4001(2) 0.87371(18)
H8 H 0.4834 0.3374 0.8997
C13 C 0.5936(2) 0.39634(19) 0.74433(17)
C14 C 0.4560(2) 0.2872(2) 0.65307(18)
H9 H 0.3512 0.2254 0.6789
C15 C 0.4723(2) 0.2703(2) 0.53013(18)
H10 H 0.3853 0.1902 0.4721
C16 C 0.6189(2) 0.37141(19) 0.48578(17)
C17 C 0.6357(2) 0.35449(19) 0.35447(17)
C18 C 0.5192(2) 0.21942(19) 0.26381(17)
C19 C 0.5055(3) 0.0842(2) 0.28464(18)
H11 H 0.5655 0.0758 0.3603
C20 C 0.4045(3) -0.0371(2) 0.19484(19)
H12 H 0.3964 -0.1288 0.2090
C21 C 0.3143(3) -0.0276(2) 0.08382(19)
H13 H 0.2466 -0.1117 0.0220
C22 C 0.3246(2) 0.1068(2) 0.06453(17)
C23 C 0.4282(2) 0.22927(19) 0.15312(17)
H14 H 0.4374 0.3210 0.1383
C24 C 0.1333(3) 0.0064(2) -0.13458(19)
H15 H 0.0736 0.0355 -0.2013
H16 H 0.0438 -0.0647 -0.0978
H17 H 0.2108 -0.0364 -0.1701
loop_
_geom_bond_atom_site_label_1
_geom_bond_atom_site_label_2
_geom_bond_site_symmetry_1
_geom_bond_site_symmetry_2
O1 C22 1_555 1_555
N1 C1 1_555 1_555
C1 C2 1_555 1_555
C2 H1 1_555 1_555
C3 C2 1_555 1_555
H2 C3 1_555 1_555
C4 C3 1_555 1_555
H3 C4 1_555 1_555
C5 C4 1_555 1_555
H4 C5 1_555 1_555
C6 C1 1_555 1_555
C7 C6 1_555 1_555
C8 C7 1_555 1_555
C9 C8 1_555 1_555
H5 C9 1_555 1_555
C10 C9 1_555 1_555
H6 C10 1_555 1_555
C11 C10 1_555 1_555
H7 C11 1_555 1_555
C12 C11 1_555 1_555
H8 C12 1_555 1_555
C13 C8 1_555 1_555
C14 C13 1_555 1_555
H9 C14 1_555 1_555
C15 C14 1_555 1_555
H10 C15 1_555 1_555
C16 C7 1_555 1_555
C17 N1 1_555 1_555
C18 C17 1_555 1_555
C19 C18 1_555 1_555
H11 C19 1_555 1_555
C20 C19 1_555 1_555
H12 C20 1_555 1_555
C21 C20 1_555 1_555
H13 C21 1_555 1_555
C22 C21 1_555 1_555
C23 C18 1_555 1_555
H14 C23 1_555 1_555
C24 O1 1_555 1_555
H15 C24 1_555 1_555
H16 C24 1_555 1_555
H17 C24 1_555 1_555
C5 C6 1_555 1_555
C12 C13 1_555 1_555
C15 C16 1_555 1_555
C16 C17 1_555 1_555
C22 C23 1_555 1_555

#END
