
#######################################################################
#
#                 Cambridge Crystallographic Data Centre
#                                CCDC 
#
#######################################################################
#
# If this CIF has been generated from an entry in the Cambridge 
# Structural Database, then it will include bibliographic, chemical, 
# crystal, experimental, refinement or atomic coordinate data resulting 
# from the CCDC's data processing and validation procedures.
#
#######################################################################

data_BEVKIY
_chemical_formula_moiety         'C28 H41 B1 N1 P1'
_chemical_name_systematic        
(Z)-(N-(3-(Dicyclohexylphosphino)-4-phenylbut-3-en-2-yl)aniline)(trihydrido)boron
_symmetry_cell_setting           monoclinic
_symmetry_space_group_name_H-M   'P 21'
_symmetry_Int_Tables_number      4
_space_group_name_Hall           'P 2yb'
loop_
_symmetry_equiv_pos_site_id
_symmetry_equiv_pos_as_xyz
1 x,y,z
2 -x,1/2+y,-z
_cell_length_a                   10.2232(2)
_cell_length_b                   10.8428(2)
_cell_length_c                   34.8873(6)
_cell_angle_alpha                90
_cell_angle_beta                 93.6680(10)
_cell_angle_gamma                90
_cell_volume                     3859.27
_exptl_crystal_colour            colorless
_exptl_crystal_description       'rectangular prism'
_chemical_melting_point          '401-403 K'
_cell_formula_units_Z            2
loop_
_atom_site_label
_atom_site_type_symbol
_atom_site_fract_x
_atom_site_fract_y
_atom_site_fract_z
P1 P 0.67892(5) 0.42063(6) 0.059388(17)
C1 C 0.7345(3) 0.1926(2) 0.02484(8)
H1 H 0.6406 0.1837 0.0166
H2 H 0.7485 0.1575 0.0510
B1 B 0.4955(2) 0.4285(3) 0.04299(9)
H3 H 0.437(4) 0.481(4) 0.0644(11)
H4 H 0.483(3) 0.466(3) 0.0146(9)
H5 H 0.456(3) 0.325(3) 0.0437(9)
N1 N 0.5832(2) 0.2367(2) 0.15643(6)
C2 C 0.8178(3) 0.1225(3) -0.00279(8)
H6 H 0.9110 0.1262 0.0068
H7 H 0.7908 0.0348 -0.0036
C3 C 0.8038(3) 0.1759(3) -0.04322(8)
H8 H 0.8637 0.1321 -0.0598
H9 H 0.7129 0.1633 -0.0541
C4 C 0.8357(3) 0.3130(2) -0.04285(8)
H10 H 0.8185 0.3468 -0.0690
H11 H 0.9301 0.3244 -0.0355
C5 C 0.7550(3) 0.3844(3) -0.01498(7)
H12 H 0.6613 0.3817 -0.0241
H13 H 0.7832 0.4717 -0.0142
C6 C 0.7720(2) 0.3291(2) 0.02555(7)
H14 H 0.8670 0.3349 0.0342
C7 C 0.6883(2) 0.6651(2) 0.03183(8)
H15 H 0.6719 0.6256 0.0064
H16 H 0.6028 0.6881 0.0415
C8 C 0.7721(3) 0.7801(2) 0.02793(8)
H17 H 0.8542 0.7572 0.0161
H18 H 0.7243 0.8393 0.0105
C9 C 0.8058(3) 0.8425(2) 0.06642(8)
H19 H 0.7254 0.8787 0.0761
H20 H 0.8687 0.9104 0.0628
C10 C 0.8657(2) 0.7513(2) 0.09597(8)
H21 H 0.9536 0.7264 0.0884
H22 H 0.8767 0.7924 0.1213
C11 C 0.7807(2) 0.6362(2) 0.09948(7)
H23 H 0.6949 0.6596 0.1090
H24 H 0.8241 0.5781 0.1181
C12 C 0.7600(2) 0.5737(2) 0.05994(7)
H25 H 0.8491 0.5605 0.0504
C13 C 0.7033(2) 0.3460(2) 0.10650(7)
C14 C 0.5785(2) 0.3393(2) 0.12961(7)
H26 H 0.5009 0.3276 0.1110
C15 C 0.5596(3) 0.4584(3) 0.15162(9)
H27 H 0.4806 0.4519 0.1660
H28 H 0.5500 0.5274 0.1335
H29 H 0.6359 0.4726 0.1695
C16 C 0.5302(2) 0.0866(3) 0.10536(9)
H30 H 0.5427 0.1475 0.0864
C17 C 0.4953(3) -0.0320(3) 0.09412(11)
H31 H 0.4840 -0.0508 0.0675
C18 C 0.4768(3) -0.1231(3) 0.12055(12)
H32 H 0.4524 -0.2041 0.1125
C19 C 0.4944(3) -0.0941(3) 0.15919(12)
H33 H 0.4819 -0.1560 0.1779
C20 C 0.5302(3) 0.0241(3) 0.17104(9)
H34 H 0.5433 0.0417 0.1977
C21 C 0.5471(2) 0.1180(3) 0.14408(8)
C22 C 0.8125(2) 0.2903(2) 0.12070(7)
H35 H 0.8047 0.2526 0.1450
C23 C 1.0211(2) 0.3754(2) 0.09484(7)
H36 H 0.9899 0.4573 0.0974
C24 C 1.1441(2) 0.3553(2) 0.08053(7)
H37 H 1.1954 0.4233 0.0732
C25 C 1.1909(2) 0.2364(3) 0.07703(7)
H38 H 1.2737 0.2226 0.0669
C26 C 1.1170(3) 0.1380(3) 0.08824(8)
H39 H 1.1495 0.0564 0.0861
C27 C 0.9950(2) 0.1577(2) 0.10267(7)
H40 H 0.9458 0.0893 0.1108
C28 C 0.9439(2) 0.2766(2) 0.10533(7)
loop_
_geom_bond_atom_site_label_1
_geom_bond_atom_site_label_2
_geom_bond_site_symmetry_1
_geom_bond_site_symmetry_2
P1 B1 1_555 1_555
C1 H1 1_555 1_555
H2 C1 1_555 1_555
B1 H3 1_555 1_555
H4 B1 1_555 1_555
H5 B1 1_555 1_555
N1 C14 1_555 1_555
C2 C1 1_555 1_555
H6 C2 1_555 1_555
H7 C2 1_555 1_555
C3 C2 1_555 1_555
H8 C3 1_555 1_555
H9 C3 1_555 1_555
C4 C3 1_555 1_555
H10 C4 1_555 1_555
H11 C4 1_555 1_555
C5 C4 1_555 1_555
H12 C5 1_555 1_555
H13 C5 1_555 1_555
C6 P1 1_555 1_555
H14 C6 1_555 1_555
C7 H15 1_555 1_555
H16 C7 1_555 1_555
C8 C7 1_555 1_555
H17 C8 1_555 1_555
H18 C8 1_555 1_555
C9 C8 1_555 1_555
H19 C9 1_555 1_555
H20 C9 1_555 1_555
C10 C9 1_555 1_555
H21 C10 1_555 1_555
H22 C10 1_555 1_555
C11 C10 1_555 1_555
H23 C11 1_555 1_555
H24 C11 1_555 1_555
C12 P1 1_555 1_555
H25 C12 1_555 1_555
C13 P1 1_555 1_555
C14 C13 1_555 1_555
H26 C14 1_555 1_555
C15 C14 1_555 1_555
H27 C15 1_555 1_555
H28 C15 1_555 1_555
H29 C15 1_555 1_555
C16 H30 1_555 1_555
C17 C16 1_555 1_555
H31 C17 1_555 1_555
C18 C17 1_555 1_555
H32 C18 1_555 1_555
C19 C18 1_555 1_555
H33 C19 1_555 1_555
C20 C19 1_555 1_555
H34 C20 1_555 1_555
C21 N1 1_555 1_555
C22 C13 1_555 1_555
H35 C22 1_555 1_555
C23 H36 1_555 1_555
C24 C23 1_555 1_555
H37 C24 1_555 1_555
C25 C24 1_555 1_555
H38 C25 1_555 1_555
C26 C25 1_555 1_555
H39 C26 1_555 1_555
C27 C26 1_555 1_555
H40 C27 1_555 1_555
C28 C22 1_555 1_555
C1 C6 1_555 1_555
C5 C6 1_555 1_555
C7 C12 1_555 1_555
C11 C12 1_555 1_555
C16 C21 1_555 1_555
C20 C21 1_555 1_555
C23 C28 1_555 1_555
C27 C28 1_555 1_555

#END
