
#######################################################################
#
#                 Cambridge Crystallographic Data Centre
#                                CCDC 
#
#######################################################################
#
# If this CIF has been generated from an entry in the Cambridge 
# Structural Database, then it will include bibliographic, chemical, 
# crystal, experimental, refinement or atomic coordinate data resulting 
# from the CCDC's data processing and validation procedures.
#
#######################################################################

data_BEVTUS
_chemical_formula_moiety         'C44 H58 O4'
_chemical_name_systematic        
6,12,18,24-Tetra-t-butyl-2-oxahexacyclo(20.3.1.1^1,4^.1^10,14^.1^16,20^.0^3,8^)nonacosa-3,5,7,10(28),11,13,16(27),17,19,22-decaene-26,27,28-triol
_symmetry_cell_setting           monoclinic
_symmetry_space_group_name_H-M   'C 2/c'
_symmetry_Int_Tables_number      15
_space_group_name_Hall           '-C 2yn'
loop_
_symmetry_equiv_pos_site_id
_symmetry_equiv_pos_as_xyz
1 x,y,z
2 -x,y,1/2-z
3 1/2+x,1/2+y,z
4 1/2-x,1/2+y,1/2-z
5 -x,-y,-z
6 x,-y,1/2+z
7 1/2-x,1/2-y,-z
8 1/2+x,1/2-y,1/2+z
_cell_length_a                   24.793(3)
_cell_length_b                   15.217(3)
_cell_length_c                   21.409(4)
_cell_angle_alpha                90
_cell_angle_beta                 106.98(1)
_cell_angle_gamma                90
_cell_volume                     7724.98
_cell_formula_units_Z            8
_exptl_crystal_recrystallization_method dichloromethane/acetonitrile
loop_
_atom_site_label
_atom_site_type_symbol
_atom_site_fract_x
_atom_site_fract_y
_atom_site_fract_z
O1 O 0.34779(7) 0.5258(1) 0.14224(8)
O2 O 0.35995(8) 0.3855(1) 0.22134(9)
O3 O 0.30102(9) 0.2419(1) 0.2490(1)
O4 O 0.21128(8) 0.3672(1) 0.0469(1)
C1 C 0.2972(1) 0.5536(2) 0.1007(1)
C2 C 0.2759(1) 0.5275(2) 0.0365(1)
C3 C 0.2260(1) 0.5689(2) 0.0003(1)
C4 C 0.1976(1) 0.6308(2) 0.0266(1)
C5 C 0.2187(1) 0.6492(2) 0.0936(1)
C6 C 0.2685(1) 0.6099(2) 0.1300(1)
C7 C 0.3009(1) 0.6172(2) 0.2009(1)
C8 C 0.3259(1) 0.4581(2) 0.2315(1)
C9 C 0.3452(1) 0.5439(2) 0.2093(1)
C10 C 0.4030(1) 0.5677(2) 0.2525(1)
C11 C 0.4016(1) 0.5824(2) 0.3231(1)
C12 C 0.3641(1) 0.5172(2) 0.3421(1)
C13 C 0.3301(1) 0.4600(2) 0.3031(1)
C14 C 0.2960(1) 0.3912(2) 0.3281(1)
C15 C 0.2523(1) 0.2921(2) 0.2326(1)
C16 C 0.2460(1) 0.3596(2) 0.2748(1)
C17 C 0.1957(1) 0.4056(2) 0.2582(2)
C18 C 0.1526(1) 0.3903(2) 0.2007(2)
C19 C 0.1622(1) 0.3254(2) 0.1598(1)
C20 C 0.2120(1) 0.2770(2) 0.1740(1)
C21 C 0.2242(1) 0.2167(2) 0.1236(1)
C22 C 0.2645(1) 0.3303(2) 0.0638(1)
C23 C 0.2716(1) 0.2525(2) 0.0994(1)
C24 C 0.3234(1) 0.2111(2) 0.1134(1)
C25 C 0.3689(1) 0.2450(2) 0.0956(1)
C26 C 0.3601(1) 0.3244(2) 0.0628(1)
C27 C 0.3089(1) 0.3685(2) 0.0459(1)
C28 C 0.3022(1) 0.4537(2) 0.0082(1)
C29 C 0.1442(1) 0.6776(2) -0.0152(1)
C30 C 0.1288(4) 0.6504(8) -0.0867(4)
C31 C 0.1552(3) 0.7761(4) -0.0096(4)
C32 C 0.0933(3) 0.651(1) 0.0109(7)
C36 C 0.4609(1) 0.5870(2) 0.3732(1)
C37 C 0.4901(2) 0.4993(3) 0.3802(2)
C38 C 0.4971(2) 0.6548(3) 0.3495(2)
C39 C 0.4566(2) 0.6169(3) 0.4390(2)
C40 C 0.0992(1) 0.4471(2) 0.1832(2)
C41 C 0.0611(2) 0.4286(4) 0.1147(3)
C42 C 0.0661(2) 0.4292(4) 0.2304(3)
C43 C 0.1155(2) 0.5437(3) 0.1857(3)
C44 C 0.4257(1) 0.1983(2) 0.1120(2)
C45 C 0.4318(3) 0.1212(6) 0.1582(5)
C46 C 0.4343(4) 0.1626(7) 0.0472(3)
C47 C 0.4752(3) 0.2645(5) 0.1405(7)
H1 H 0.3532 0.3810 0.1744
H2 H 0.3320 0.2847 0.2482
H3 H 0.2129 0.4287 0.0398
H4 H 0.2109 0.5539 -0.0445
H5 H 0.1990 0.6881 0.1139
H6 H 0.2878 0.4479 0.2071
H7 H 0.3848 0.6384 0.3238
H8 H 0.3648 0.5167 0.3867
H9 H 0.1903 0.4495 0.2873
H10 H 0.1336 0.3134 0.1203
H11 H 0.3282 0.1570 0.1364
H12 H 0.3907 0.3501 0.0512
H13 H 0.3183 0.6732 0.2106
H14 H 0.2772 0.6073 0.2280
H15 H 0.4285 0.5213 0.2518
H16 H 0.4153 0.6201 0.2367
H17 H 0.3197 0.3424 0.3451
H18 H 0.2833 0.4166 0.3617
H19 H 0.2347 0.1605 0.1427
H20 H 0.1911 0.2112 0.0876
H21 H 0.2791 0.4428 -0.0351
H22 H 0.3385 0.4723 0.0070
H23 H 0.4685 0.4569 0.3951
H24 H 0.4938 0.4815 0.3391
H25 H 0.5264 0.5040 0.4109
H26 H 0.5333 0.6589 0.3805
H27 H 0.5010 0.6368 0.3085
H28 H 0.4792 0.7108 0.3448
H29 H 0.4933 0.6203 0.4690
H30 H 0.4393 0.6731 0.4346
H31 H 0.4346 0.5760 0.4545
H32 H 0.0292 0.4662 0.1056
H33 H 0.0814 0.4397 0.0840
H34 H 0.0494 0.3692 0.1117
H35 H 0.0337 0.4659 0.2203
H36 H 0.0549 0.3695 0.2275
H37 H 0.0890 0.4417 0.2736
H38 H 0.1384 0.5580 0.2283
H39 H 0.1355 0.5547 0.1549
H40 H 0.0822 0.5788 0.1753
C33? C 0.0994(6) 0.614(1) -0.039(1)
C34? C 0.1604(6) 0.718(1) -0.0745(8)
C35? C 0.124(1) 0.752(2) 0.0234(8)
C48? C 0.4109(5) 0.0976(8) 0.092(1)
C49? C 0.4509(8) 0.209(2) 0.1848(9)
C50? C 0.4618(7) 0.232(1) 0.072(1)
loop_
_geom_bond_atom_site_label_1
_geom_bond_atom_site_label_2
_geom_bond_site_symmetry_1
_geom_bond_site_symmetry_2
O1 C1 1_555 1_555
O2 C8 1_555 1_555
O3 C15 1_555 1_555
O4 C22 1_555 1_555
C1 C2 1_555 1_555
C2 C3 1_555 1_555
C3 C4 1_555 1_555
C4 C5 1_555 1_555
C5 C6 1_555 1_555
C6 C1 1_555 1_555
C7 C6 1_555 1_555
C8 C9 1_555 1_555
C9 O1 1_555 1_555
C10 C9 1_555 1_555
C11 C10 1_555 1_555
C12 C11 1_555 1_555
C13 C8 1_555 1_555
C14 C13 1_555 1_555
C15 C16 1_555 1_555
C16 C14 1_555 1_555
C17 C16 1_555 1_555
C18 C17 1_555 1_555
C19 C18 1_555 1_555
C20 C15 1_555 1_555
C21 C20 1_555 1_555
C22 C23 1_555 1_555
C23 C21 1_555 1_555
C24 C23 1_555 1_555
C25 C24 1_555 1_555
C26 C25 1_555 1_555
C27 C22 1_555 1_555
C28 C2 1_555 1_555
C29 C4 1_555 1_555
C30 C29 1_555 1_555
C31 C29 1_555 1_555
C32 C29 1_555 1_555
C36 C11 1_555 1_555
C37 C36 1_555 1_555
C38 C36 1_555 1_555
C39 C36 1_555 1_555
C40 C18 1_555 1_555
C41 C40 1_555 1_555
C42 C40 1_555 1_555
C43 C40 1_555 1_555
C44 C25 1_555 1_555
C45 C44 1_555 1_555
C46 C44 1_555 1_555
C47 C44 1_555 1_555
H1 O2 1_555 1_555
H2 O3 1_555 1_555
H3 O4 1_555 1_555
H4 C3 1_555 1_555
H5 C5 1_555 1_555
H6 C8 1_555 1_555
H7 C11 1_555 1_555
H8 C12 1_555 1_555
H9 C17 1_555 1_555
H10 C19 1_555 1_555
H11 C24 1_555 1_555
H12 C26 1_555 1_555
H13 C7 1_555 1_555
H14 C7 1_555 1_555
H15 C10 1_555 1_555
H16 C10 1_555 1_555
H17 C14 1_555 1_555
H18 C14 1_555 1_555
H19 C21 1_555 1_555
H20 C21 1_555 1_555
H21 C28 1_555 1_555
H22 C28 1_555 1_555
H23 C37 1_555 1_555
H24 C37 1_555 1_555
H25 C37 1_555 1_555
H26 C38 1_555 1_555
H27 C38 1_555 1_555
H28 C38 1_555 1_555
H29 C39 1_555 1_555
H30 C39 1_555 1_555
H31 C39 1_555 1_555
H32 C41 1_555 1_555
H33 C41 1_555 1_555
H34 C41 1_555 1_555
H35 C42 1_555 1_555
H36 C42 1_555 1_555
H37 C42 1_555 1_555
H38 C43 1_555 1_555
H39 C43 1_555 1_555
H40 C43 1_555 1_555
C7 C9 1_555 1_555
C12 C13 1_555 1_555
C19 C20 1_555 1_555
C26 C27 1_555 1_555
C27 C28 1_555 1_555

#END
