
#######################################################################
#
#                 Cambridge Crystallographic Data Centre
#                                CCDC 
#
#######################################################################
#
# If this CIF has been generated from an entry in the Cambridge 
# Structural Database, then it will include bibliographic, chemical, 
# crystal, experimental, refinement or atomic coordinate data resulting 
# from the CCDC's data processing and validation procedures.
#
#######################################################################

data_BEWCEN
_chemical_formula_moiety         'C40 H35 N5 O13,2(C1 H1 Cl3)'
_chemical_name_systematic        
'Methyl 3-((3-((2-hydroxy-3-((2-methoxy-3-((2-methoxy-3-nitrobenzoyl)amino)benzoyl)amino)benzoyl)amino)-2-methoxybenzoyl)amino)-2-methoxybenzoate chloroform solvate'
_symmetry_cell_setting           monoclinic
_symmetry_space_group_name_H-M   'P 21/c'
_symmetry_Int_Tables_number      14
_space_group_name_Hall           '-P 2ybc'
loop_
_symmetry_equiv_pos_site_id
_symmetry_equiv_pos_as_xyz
1 x,y,z
2 -x,1/2+y,1/2-z
3 -x,-y,-z
4 x,1/2-y,1/2+z
_cell_length_a                   14.4427(8)
_cell_length_b                   21.5076(12)
_cell_length_c                   15.8649(8)
_cell_angle_alpha                90
_cell_angle_beta                 109.8110(10)
_cell_angle_gamma                90
_cell_volume                     4636.41
_exptl_crystal_colour            colorless
_exptl_crystal_description       block
_cell_formula_units_Z            4
loop_
_atom_site_label
_atom_site_type_symbol
_atom_site_fract_x
_atom_site_fract_y
_atom_site_fract_z
O1 O 0.4902(2) 0.60380(12) 0.36743(19)
O2 O 0.5848(2) 0.52380(12) 0.39011(18)
O3 O 0.45064(17) 0.42501(10) 0.33634(14)
O4 O 0.2948(3) 0.35023(14) 0.08308(18)
O5 O 0.42543(17) 0.27290(10) 0.38840(14)
O6 O 0.40406(18) 0.08031(10) 0.41334(15)
O7 O 0.54364(19) 0.24813(10) 0.60735(15)
H1 H 0.5653 0.2717 0.6511
O8 O 0.6150(2) 0.27632(11) 0.77368(16)
O9 O 0.74535(17) 0.14148(10) 1.02489(14)
O10 O 0.8433(2) 0.23218(12) 1.27597(16)
O11 O 0.80521(19) 0.02218(11) 1.15976(15)
O12 O 0.9238(2) -0.11284(13) 1.3558(2)
O13 O 0.8014(2) -0.10294(12) 1.22587(19)
N1 N 0.5110(2) 0.55205(14) 0.3470(2)
N2 N 0.3735(2) 0.32750(13) 0.22907(18)
H2 H 0.412(3) 0.3433(18) 0.2810(18)
N3 N 0.4932(2) 0.16523(12) 0.47798(18)
H3 H 0.502(3) 0.2042(10) 0.466(2)
N4 N 0.6984(2) 0.20496(13) 0.87530(18)
H4 H 0.718(2) 0.1668(9) 0.878(2)
N5 N 0.8279(2) 0.13953(14) 1.20449(19)
H5 H 0.810(3) 0.1242(19) 1.1515(17)
C1 C 0.4225(2) 0.46058(15) 0.2603(2)
C2 C 0.4457(3) 0.52401(16) 0.2639(2)
C3 C 0.4135(3) 0.56209(17) 0.1894(2)
H6 H 0.4259 0.6051 0.1944
C4 C 0.3630(3) 0.53580(18) 0.1081(3)
H7 H 0.3417 0.5607 0.0564
C5 C 0.3434(3) 0.47282(17) 0.1021(2)
H8 H 0.3107 0.4553 0.0456
C6 C 0.3707(2) 0.43457(16) 0.1772(2)
C7 C 0.4117(3) 0.44381(16) 0.4053(2)
H9 H 0.4310 0.4864 0.4228
H10 H 0.4376 0.4168 0.4569
H11 H 0.3405 0.4409 0.3825
C8 C 0.3424(3) 0.36662(16) 0.1593(2)
C9 C 0.3918(2) 0.23447(14) 0.3139(2)
C10 C 0.3610(2) 0.26307(15) 0.2297(2)
C11 C 0.3219(3) 0.22650(17) 0.1530(2)
H12 H 0.2991 0.2451 0.0960
C12 C 0.3172(3) 0.16284(17) 0.1616(2)
H13 H 0.2898 0.1383 0.1101
C13 C 0.3518(3) 0.13468(16) 0.2443(2)
H14 H 0.3499 0.0911 0.2483
C14 C 0.3899(2) 0.16986(15) 0.3224(2)
C15 C 0.3500(3) 0.28522(17) 0.4271(2)
H15 H 0.2963 0.3078 0.3843
H16 H 0.3774 0.3100 0.4810
H17 H 0.3256 0.2462 0.4420
C16 C 0.4285(2) 0.13471(15) 0.4092(2)
C17 C 0.5678(2) 0.18903(14) 0.6335(2)
C18 C 0.5405(2) 0.14311(14) 0.5663(2)
C19 C 0.5633(2) 0.08134(15) 0.5882(2)
H18 H 0.5457 0.0507 0.5433
C20 C 0.6118(3) 0.06515(15) 0.6760(2)
H19 H 0.6266 0.0231 0.6907
C21 C 0.6390(3) 0.10897(15) 0.7423(2)
H20 H 0.6722 0.0966 0.8017
C22 C 0.6179(2) 0.17240(14) 0.7228(2)
C23 C 0.6437(2) 0.22232(15) 0.7916(2)
C24 C 0.7550(2) 0.20559(15) 1.0341(2)
C25 C 0.7288(2) 0.24008(15) 0.9549(2)
C26 C 0.7378(3) 0.30421(16) 0.9584(2)
H21 H 0.7197 0.3279 0.9055
C27 C 0.7743(3) 0.33278(16) 1.0417(2)
H22 H 0.7814 0.3762 1.0449
C28 C 0.8002(2) 0.29889(15) 1.1194(2)
H23 H 0.8238 0.3196 1.1748
C29 C 0.7920(2) 0.23464(15) 1.1177(2)
C30 C 0.6467(3) 0.12017(18) 1.0124(3)
H24 H 0.6343 0.1233 1.0687
H25 H 0.6399 0.0772 0.9927
H26 H 0.5997 0.1457 0.9676
C31 C 0.8229(3) 0.20212(16) 1.2071(2)
C32 C 0.8415(2) 0.03406(16) 1.2503(2)
C33 C 0.8512(2) 0.09644(16) 1.2753(2)
C34 C 0.8831(3) 0.11257(18) 1.3654(2)
H27 H 0.8904 0.1546 1.3826
C35 C 0.9041(3) 0.0663(2) 1.4296(2)
H28 H 0.9239 0.0772 1.4905
C36 C 0.8963(3) 0.00495(19) 1.4058(2)
H29 H 0.9117 -0.0257 1.4506
C37 C 0.8657(2) -0.01292(17) 1.3152(2)
C38 C 0.8726(4) -0.0033(3) 1.1206(3)
H30 H 0.9344 0.0192 1.1425
H31 H 0.8452 0.0005 1.0560
H32 H 0.8840 -0.0468 1.1369
C39 C 0.8579(3) -0.07990(18) 1.2914(3)
C40 C 0.9200(4) -0.1795(2) 1.3445(4)
H33 H 0.8599 -0.1953 1.3510
H34 H 0.9763 -0.1982 1.3896
H35 H 0.9212 -0.1897 1.2854
C41 C 0.8284(4) 0.5593(2) 0.1915(3)
H36 H 0.7570 0.5651 0.1596
Cl1 Cl 0.87045(13) 0.50085(11) 0.13903(13)
Cl2 Cl 0.8460(3) 0.53299(17) 0.30284(19)
Cl3 Cl 0.8858(3) 0.6307(2) 0.2006(5)
C42 C -0.0244(4) 0.3174(3) 0.4270(4)
H38 H -0.0717 0.2826 0.4075
Cl6 Cl 0.08254(18) 0.2965(2) 0.41153(19)
Cl7 Cl -0.07682(16) 0.38290(9) 0.36734(15)
Cl8 Cl -0.00091(14) 0.33060(8) 0.54066(12)
H37? H 0.7585 0.5566 0.1768
Cl4? Cl 0.8805(13) 0.5637(11) 0.3028(6)
Cl5? Cl 0.8602(10) 0.6226(6) 0.1337(16)
loop_
_geom_bond_atom_site_label_1
_geom_bond_atom_site_label_2
_geom_bond_site_symmetry_1
_geom_bond_site_symmetry_2
O1 N1 1_555 1_555
O2 N1 1_555 1_555
O3 C1 1_555 1_555
O4 C8 1_555 1_555
O5 C9 1_555 1_555
O6 C16 1_555 1_555
O7 H1 1_555 1_555
O8 C23 1_555 1_555
O9 C24 1_555 1_555
O10 C31 1_555 1_555
O11 C32 1_555 1_555
O12 C39 1_555 1_555
O13 C39 1_555 1_555
N1 C2 1_555 1_555
N2 H2 1_555 1_555
N3 H3 1_555 1_555
N4 H4 1_555 1_555
N5 H5 1_555 1_555
C1 C2 1_555 1_555
C2 C3 1_555 1_555
C3 H6 1_555 1_555
C4 C3 1_555 1_555
H7 C4 1_555 1_555
C5 C4 1_555 1_555
H8 C5 1_555 1_555
C6 C1 1_555 1_555
C7 O3 1_555 1_555
H9 C7 1_555 1_555
H10 C7 1_555 1_555
H11 C7 1_555 1_555
C8 N2 1_555 1_555
C9 C10 1_555 1_555
C10 N2 1_555 1_555
C11 C10 1_555 1_555
H12 C11 1_555 1_555
C12 C11 1_555 1_555
H13 C12 1_555 1_555
C13 C12 1_555 1_555
H14 C13 1_555 1_555
C14 C9 1_555 1_555
C15 O5 1_555 1_555
H15 C15 1_555 1_555
H16 C15 1_555 1_555
H17 C15 1_555 1_555
C16 N3 1_555 1_555
C17 O7 1_555 1_555
C18 N3 1_555 1_555
C19 C18 1_555 1_555
H18 C19 1_555 1_555
C20 C19 1_555 1_555
H19 C20 1_555 1_555
C21 C20 1_555 1_555
H20 C21 1_555 1_555
C22 C17 1_555 1_555
C23 N4 1_555 1_555
C24 C25 1_555 1_555
C25 N4 1_555 1_555
C26 C25 1_555 1_555
H21 C26 1_555 1_555
C27 C26 1_555 1_555
H22 C27 1_555 1_555
C28 C27 1_555 1_555
H23 C28 1_555 1_555
C29 C24 1_555 1_555
C30 O9 1_555 1_555
H24 C30 1_555 1_555
H25 C30 1_555 1_555
H26 C30 1_555 1_555
C31 N5 1_555 1_555
C32 C33 1_555 1_555
C33 N5 1_555 1_555
C34 C33 1_555 1_555
H27 C34 1_555 1_555
C35 C34 1_555 1_555
H28 C35 1_555 1_555
C36 C35 1_555 1_555
H29 C36 1_555 1_555
C37 C32 1_555 1_555
C38 O11 1_555 1_555
H30 C38 1_555 1_555
H31 C38 1_555 1_555
H32 C38 1_555 1_555
C39 C37 1_555 1_555
C40 O12 1_555 1_555
H33 C40 1_555 1_555
H34 C40 1_555 1_555
H35 C40 1_555 1_555
C41 H36 1_555 1_555
Cl1 C41 1_555 1_555
Cl2 C41 1_555 1_555
Cl3 C41 1_555 1_555
C42 H38 1_555 1_555
Cl6 C42 1_555 1_555
Cl7 C42 1_555 1_555
Cl8 C42 1_555 1_555
C5 C6 1_555 1_555
C6 C8 1_555 1_555
C13 C14 1_555 1_555
C14 C16 1_555 1_555
C17 C18 1_555 1_555
C21 C22 1_555 1_555
C22 C23 1_555 1_555
C28 C29 1_555 1_555
C29 C31 1_555 1_555
C36 C37 1_555 1_555

#END
