
#######################################################################
#
#                 Cambridge Crystallographic Data Centre
#                                CCDC 
#
#######################################################################
#
# If this CIF has been generated from an entry in the Cambridge 
# Structural Database, then it will include bibliographic, chemical, 
# crystal, experimental, refinement or atomic coordinate data resulting 
# from the CCDC's data processing and validation procedures.
#
#######################################################################

data_BEXFIW
_chemical_formula_moiety         'C68 H60 N4 O2'
_chemical_name_systematic        
5,6-bis(3,6-di-t-butyl-9H-carbazol-9-yl)benzo[b]dinaphtho[2,1-e:1',2'-g][1,4]dioxocine-4,7-dicarbonitrile
_symmetry_cell_setting           orthorhombic
_symmetry_space_group_name_H-M   'P 21 21 21'
_symmetry_Int_Tables_number      19
_space_group_name_Hall           'P 2ac 2ab'
loop_
_symmetry_equiv_pos_site_id
_symmetry_equiv_pos_as_xyz
1 x,y,z
2 1/2-x,-y,1/2+z
3 1/2+x,1/2-y,-z
4 -x,1/2+y,1/2-z
_cell_length_a                   11.00895(10)
_cell_length_b                   15.23088(13)
_cell_length_c                   32.1223(3)
_cell_angle_alpha                90
_cell_angle_beta                 90
_cell_angle_gamma                90
_cell_volume                     5386.14
_exptl_crystal_colour            yellow
_exptl_crystal_description       block
_cell_formula_units_Z            4
loop_
_atom_site_label
_atom_site_type_symbol
_atom_site_fract_x
_atom_site_fract_y
_atom_site_fract_z
O1 O 0.39214(12) 0.30882(9) 0.65219(4)
O2 O 0.60389(12) 0.28966(9) 0.70600(4)
N1 N 0.31939(17) 0.43685(14) 0.56807(6)
N2 N 0.90660(17) 0.31961(13) 0.69924(5)
N3 N 0.85055(15) 0.42846(11) 0.60250(5)
N4 N 0.63196(15) 0.46890(11) 0.55451(5)
C1 C 0.51543(18) 0.39160(12) 0.60657(6)
C2 C 0.50426(18) 0.34337(12) 0.64362(6)
C3 C 0.60709(18) 0.32946(12) 0.66787(6)
C4 C 0.72000(18) 0.35959(12) 0.65395(6)
C5 C 0.73332(18) 0.40414(12) 0.61572(6)
C6 C 0.62865(18) 0.42163(12) 0.59212(6)
C7 C 0.40631(19) 0.41512(13) 0.58481(6)
C8 C 0.82497(18) 0.33784(13) 0.67870(6)
C9 C 0.33755(18) 0.33105(13) 0.69050(6)
C10 C 0.35637(18) 0.27852(13) 0.72454(6)
C11 C 0.29922(19) 0.30331(14) 0.76282(6)
C12 C 0.3262(2) 0.26088(15) 0.80103(7)
H1 H 0.3822 0.2134 0.8014
C13 C 0.2727(2) 0.28755(17) 0.83724(7)
H2 H 0.2938 0.2598 0.8627
C14 C 0.1864(2) 0.35595(18) 0.83714(7)
H3 H 0.1480 0.3729 0.8624
C15 C 0.1581(2) 0.39791(16) 0.80088(8)
H4 H 0.0989 0.4433 0.8010
C16 C 0.21591(19) 0.37463(14) 0.76294(7)
C17 C 0.1941(2) 0.42185(14) 0.72582(7)
H5 H 0.1361 0.4680 0.7257
C18 C 0.25574(19) 0.40169(14) 0.68998(6)
H6 H 0.2433 0.4349 0.6653
C19 C 0.55115(19) 0.20569(14) 0.70814(6)
C20 C 0.43219(19) 0.19858(13) 0.72021(6)
C21 C 0.3824(2) 0.11215(14) 0.72489(6)
C22 C 0.2597(2) 0.09747(14) 0.73575(6)
H7 H 0.2077 0.1461 0.7407
C23 C 0.2147(2) 0.01363(15) 0.73923(7)
H8 H 0.1318 0.0050 0.7463
C24 C 0.2899(3) -0.05946(15) 0.73239(7)
H9 H 0.2580 -0.1171 0.7352
C25 C 0.4088(3) -0.04761(15) 0.72170(7)
H10 H 0.4591 -0.0974 0.7172
C26 C 0.4584(2) 0.03796(14) 0.71726(6)
C27 C 0.5798(2) 0.05058(15) 0.70499(7)
H11 H 0.6301 0.0011 0.6999
C28 C 0.6262(2) 0.13334(15) 0.70035(6)
H12 H 0.7082 0.1416 0.6920
C29 C 0.92632(18) 0.49012(13) 0.62244(6)
C30 C 0.91234(19) 0.53049(14) 0.66094(6)
H13 H 0.8456 0.5168 0.6785
C31 C 0.9992(2) 0.59155(14) 0.67285(6)
H14 H 0.9905 0.6200 0.6990
C32 C 1.0995(2) 0.61301(13) 0.64777(7)
C33 C 1.10799(19) 0.57445(13) 0.60859(6)
H15 H 1.1732 0.5896 0.5906
C34 C 1.02081(17) 0.51338(13) 0.59558(6)
C35 C 1.00061(17) 0.46763(12) 0.55656(6)
C36 C 1.05716(17) 0.47042(13) 0.51763(6)
H16 H 1.1281 0.5050 0.5138
C37 C 1.00981(18) 0.42278(13) 0.48457(6)
C38 C 0.91027(18) 0.36724(12) 0.49201(6)
H17 H 0.8804 0.3323 0.4698
C39 C 0.85383(17) 0.36133(12) 0.53050(6)
H18 H 0.7886 0.3217 0.5351
C40 C 0.89653(17) 0.41572(12) 0.56202(6)
C41 C 1.1950(2) 0.68049(16) 0.66218(7)
C42 C 1.1741(3) 0.76635(17) 0.63971(9)
H19 H 1.1769 0.7564 0.6096
H20 H 1.2375 0.8084 0.6476
H21 H 1.0944 0.7900 0.6474
C43 C 1.3236(3) 0.6459(2) 0.65266(11)
H22 H 1.3380 0.5918 0.6685
H23 H 1.3838 0.6902 0.6607
H24 H 1.3308 0.6336 0.6228
C44 C 1.1905(3) 0.6954(2) 0.70908(9)
H25 H 1.1143 0.7248 0.7164
H26 H 1.2592 0.7321 0.7175
H27 H 1.1950 0.6387 0.7235
C45 C 1.0589(2) 0.43165(14) 0.43987(6)
C46 C 0.9579(2) 0.46976(19) 0.41206(7)
H28 H 0.8867 0.4312 0.4130
H29 H 0.9873 0.4741 0.3833
H30 H 0.9354 0.5283 0.4221
C47 C 1.0962(2) 0.34175(15) 0.42292(7)
H31 H 1.1569 0.3154 0.4414
H32 H 1.1310 0.3487 0.3950
H33 H 1.0248 0.3035 0.4214
C48 C 1.1680(2) 0.49325(16) 0.43744(7)
H34 H 1.1445 0.5516 0.4474
H35 H 1.1957 0.4975 0.4085
H36 H 1.2339 0.4702 0.4548
C49 C 0.60260(17) 0.43429(13) 0.51494(6)
C50 C 0.54668(18) 0.35589(13) 0.50445(6)
H37 H 0.5182 0.3167 0.5253
C51 C 0.53368(18) 0.33664(13) 0.46252(6)
H38 H 0.4967 0.2827 0.4548
C52 C 0.57299(17) 0.39368(13) 0.43088(6)
C53 C 0.63098(18) 0.47122(13) 0.44216(6)
H39 H 0.6591 0.5106 0.4213
C54 C 0.64774(17) 0.49109(12) 0.48434(6)
C55 C 0.70864(17) 0.56233(12) 0.50542(6)
C56 C 0.77231(18) 0.63571(13) 0.49156(6)
H40 H 0.7806 0.6463 0.4626
C57 C 0.82400(18) 0.69364(13) 0.52014(6)
C58 C 0.80606(18) 0.67768(13) 0.56272(6)
H41 H 0.8397 0.7176 0.5823
C59 C 0.74136(18) 0.60609(13) 0.57739(6)
H42 H 0.7282 0.5976 0.6063
C60 C 0.69650(17) 0.54733(13) 0.54828(6)
C61 C 0.5520(2) 0.36809(15) 0.38534(6)
C62 C 0.4162(2) 0.35062(18) 0.37834(7)
H43 H 0.3900 0.3019 0.3961
H44 H 0.4024 0.3354 0.3491
H45 H 0.3697 0.4034 0.3854
C63 C 0.6240(2) 0.28510(19) 0.37495(8)
H46 H 0.7109 0.2965 0.3786
H47 H 0.6082 0.2682 0.3460
H48 H 0.5989 0.2374 0.3935
C64 C 0.5890(3) 0.44146(19) 0.35555(7)
H49 H 0.5457 0.4955 0.3629
H50 H 0.5682 0.4246 0.3270
H51 H 0.6767 0.4514 0.3576
C65 C 0.8987(2) 0.77193(13) 0.50443(7)
C66 C 1.0016(2) 0.73803(17) 0.47727(9)
H52 H 1.0518 0.6971 0.4934
H53 H 1.0517 0.7875 0.4679
H54 H 0.9678 0.7077 0.4530
C67 C 0.8172(3) 0.83236(17) 0.47824(10)
H55 H 0.7825 0.7990 0.4550
H56 H 0.8657 0.8812 0.4673
H57 H 0.7516 0.8555 0.4957
C68 C 0.9492(3) 0.82617(18) 0.54006(8)
H58 H 0.8821 0.8476 0.5574
H59 H 0.9946 0.8762 0.5289
H60 H 1.0034 0.7897 0.5570
loop_
_geom_bond_atom_site_label_1
_geom_bond_atom_site_label_2
_geom_bond_site_symmetry_1
_geom_bond_site_symmetry_2
O1 C2 1_555 1_555
O2 C3 1_555 1_555
N1 C7 1_555 1_555
N2 C8 1_555 1_555
N3 C5 1_555 1_555
N4 C6 1_555 1_555
C1 C2 1_555 1_555
C2 C3 1_555 1_555
C3 C4 1_555 1_555
C4 C5 1_555 1_555
C5 C6 1_555 1_555
C6 C1 1_555 1_555
C7 C1 1_555 1_555
C8 C4 1_555 1_555
C9 O1 1_555 1_555
C10 C9 1_555 1_555
C11 C10 1_555 1_555
C12 C11 1_555 1_555
H1 C12 1_555 1_555
C13 C12 1_555 1_555
H2 C13 1_555 1_555
C14 C13 1_555 1_555
H3 C14 1_555 1_555
C15 C14 1_555 1_555
H4 C15 1_555 1_555
C16 C11 1_555 1_555
C17 C16 1_555 1_555
H5 C17 1_555 1_555
C18 C9 1_555 1_555
H6 C18 1_555 1_555
C19 O2 1_555 1_555
C20 C10 1_555 1_555
C21 C20 1_555 1_555
C22 C21 1_555 1_555
H7 C22 1_555 1_555
C23 C22 1_555 1_555
H8 C23 1_555 1_555
C24 C23 1_555 1_555
H9 C24 1_555 1_555
C25 C24 1_555 1_555
H10 C25 1_555 1_555
C26 C21 1_555 1_555
C27 C26 1_555 1_555
H11 C27 1_555 1_555
C28 C19 1_555 1_555
H12 C28 1_555 1_555
C29 N3 1_555 1_555
C30 C29 1_555 1_555
H13 C30 1_555 1_555
C31 C30 1_555 1_555
H14 C31 1_555 1_555
C32 C31 1_555 1_555
C33 C32 1_555 1_555
H15 C33 1_555 1_555
C34 C29 1_555 1_555
C35 C34 1_555 1_555
C36 C35 1_555 1_555
H16 C36 1_555 1_555
C37 C36 1_555 1_555
C38 C37 1_555 1_555
H17 C38 1_555 1_555
C39 C38 1_555 1_555
H18 C39 1_555 1_555
C40 N3 1_555 1_555
C41 C32 1_555 1_555
C42 C41 1_555 1_555
H19 C42 1_555 1_555
H20 C42 1_555 1_555
H21 C42 1_555 1_555
C43 C41 1_555 1_555
H22 C43 1_555 1_555
H23 C43 1_555 1_555
H24 C43 1_555 1_555
C44 C41 1_555 1_555
H25 C44 1_555 1_555
H26 C44 1_555 1_555
H27 C44 1_555 1_555
C45 C37 1_555 1_555
C46 C45 1_555 1_555
H28 C46 1_555 1_555
H29 C46 1_555 1_555
H30 C46 1_555 1_555
C47 C45 1_555 1_555
H31 C47 1_555 1_555
H32 C47 1_555 1_555
H33 C47 1_555 1_555
C48 C45 1_555 1_555
H34 C48 1_555 1_555
H35 C48 1_555 1_555
H36 C48 1_555 1_555
C49 N4 1_555 1_555
C50 C49 1_555 1_555
H37 C50 1_555 1_555
C51 C50 1_555 1_555
H38 C51 1_555 1_555
C52 C51 1_555 1_555
C53 C52 1_555 1_555
H39 C53 1_555 1_555
C54 C49 1_555 1_555
C55 C54 1_555 1_555
C56 C55 1_555 1_555
H40 C56 1_555 1_555
C57 C56 1_555 1_555
C58 C57 1_555 1_555
H41 C58 1_555 1_555
C59 C58 1_555 1_555
H42 C59 1_555 1_555
C60 N4 1_555 1_555
C61 C52 1_555 1_555
C62 C61 1_555 1_555
H43 C62 1_555 1_555
H44 C62 1_555 1_555
H45 C62 1_555 1_555
C63 C61 1_555 1_555
H46 C63 1_555 1_555
H47 C63 1_555 1_555
H48 C63 1_555 1_555
C64 C61 1_555 1_555
H49 C64 1_555 1_555
H50 C64 1_555 1_555
H51 C64 1_555 1_555
C65 C57 1_555 1_555
C66 C65 1_555 1_555
H52 C66 1_555 1_555
H53 C66 1_555 1_555
H54 C66 1_555 1_555
C67 C65 1_555 1_555
H55 C67 1_555 1_555
H56 C67 1_555 1_555
H57 C67 1_555 1_555
C68 C65 1_555 1_555
H58 C68 1_555 1_555
H59 C68 1_555 1_555
H60 C68 1_555 1_555
C15 C16 1_555 1_555
C17 C18 1_555 1_555
C19 C20 1_555 1_555
C25 C26 1_555 1_555
C27 C28 1_555 1_555
C33 C34 1_555 1_555
C35 C40 1_555 1_555
C39 C40 1_555 1_555
C53 C54 1_555 1_555
C55 C60 1_555 1_555
C59 C60 1_555 1_555

#END
