
#######################################################################
#
#                 Cambridge Crystallographic Data Centre
#                                CCDC 
#
#######################################################################
#
# If this CIF has been generated from an entry in the Cambridge 
# Structural Database, then it will include bibliographic, chemical, 
# crystal, experimental, refinement or atomic coordinate data resulting 
# from the CCDC's data processing and validation procedures.
#
#######################################################################

data_BEXLIB
_chemical_formula_moiety         'C16 H14 N2 O2 S1'
_chemical_name_systematic        
2-(4-cyanophenyl)-N-[methyl(oxo)phenylsulfanylidene]acetamide
_symmetry_cell_setting           triclinic
_symmetry_space_group_name_H-M   'P -1'
_symmetry_Int_Tables_number      2
_space_group_name_Hall           '-P 1'
loop_
_symmetry_equiv_pos_site_id
_symmetry_equiv_pos_as_xyz
1 x,y,z
2 -x,-y,-z
_cell_length_a                   8.2843(9)
_cell_length_b                   9.3434(10)
_cell_length_c                   10.7379(11)
_cell_angle_alpha                104.267(2)
_cell_angle_beta                 109.635(2)
_cell_angle_gamma                102.167(2)
_cell_volume                     718.369
_exptl_crystal_colour            colorless
_exptl_crystal_description       brick
_cell_formula_units_Z            2
loop_
_atom_site_label
_atom_site_type_symbol
_atom_site_fract_x
_atom_site_fract_y
_atom_site_fract_z
S1 S 0.50064(5) 0.70659(4) 0.30842(4)
O1 O 0.60082(16) 0.60729(14) 0.35724(12)
O2 O 0.66099(16) 0.74216(15) 0.11502(13)
N1 N 0.39679(18) 0.66963(16) 0.14722(14)
N2 N -0.3519(2) 0.93497(18) -0.21794(17)
C1 C 0.3251(2) 0.69963(18) 0.36698(16)
C2 C 0.1759(2) 0.74105(19) 0.29858(18)
H1 H 0.171(2) 0.774(2) 0.222(2)
C3 C 0.0418(2) 0.7354(2) 0.34882(18)
H2 H -0.062(3) 0.762(2) 0.300(2)
C4 C 0.0581(2) 0.6905(2) 0.46582(18)
H3 H -0.038(3) 0.692(2) 0.499(2)
C5 C 0.2068(2) 0.6492(2) 0.53172(18)
H4 H 0.216(3) 0.612(3) 0.612(2)
C6 C 0.3427(2) 0.65309(19) 0.48305(17)
H5 H 0.443(3) 0.621(2) 0.5279(19)
C7 C 0.6442(2) 0.9033(2) 0.39579(19)
H6 H 0.681(3) 0.921(2) 0.496(2)
H7 H 0.741(3) 0.914(3) 0.368(2)
H8 H 0.575(3) 0.968(2) 0.362(2)
C8 C 0.4958(2) 0.69815(18) 0.07038(17)
C9 C 0.3783(2) 0.6646(2) -0.08362(18)
H9 H 0.459(3) 0.708(2) -0.122(2)
H10 H 0.334(3) 0.554(2) -0.129(2)
C10 C 0.2199(2) 0.72559(19) -0.10829(16)
C11 C 0.2282(2) 0.8626(2) -0.13939(18)
H11 H 0.335(3) 0.917(2) -0.142(2)
C12 C 0.0825(2) 0.9183(2) -0.16474(18)
H12 H 0.093(3) 1.012(2) -0.182(2)
C13 C -0.0749(2) 0.8363(2) -0.15903(17)
C14 C -0.0851(2) 0.7000(2) -0.12627(18)
H13 H -0.192(3) 0.644(2) -0.123(2)
C15 C 0.0619(2) 0.6462(2) -0.10150(17)
H14 H 0.052(2) 0.554(2) -0.081(2)
C16 C -0.2289(2) 0.8916(2) -0.19016(18)
loop_
_geom_bond_atom_site_label_1
_geom_bond_atom_site_label_2
_geom_bond_site_symmetry_1
_geom_bond_site_symmetry_2
S1 O1 1_555 1_555
O2 C8 1_555 1_555
N1 S1 1_555 1_555
N2 C16 1_555 1_555
C1 S1 1_555 1_555
C2 C1 1_555 1_555
H1 C2 1_555 1_555
C3 C2 1_555 1_555
H2 C3 1_555 1_555
C4 C3 1_555 1_555
H3 C4 1_555 1_555
C5 C4 1_555 1_555
H4 C5 1_555 1_555
C6 C1 1_555 1_555
H5 C6 1_555 1_555
C7 S1 1_555 1_555
H6 C7 1_555 1_555
H7 C7 1_555 1_555
H8 C7 1_555 1_555
C8 N1 1_555 1_555
C9 C8 1_555 1_555
H9 C9 1_555 1_555
H10 C9 1_555 1_555
C10 C9 1_555 1_555
C11 C10 1_555 1_555
H11 C11 1_555 1_555
C12 C11 1_555 1_555
H12 C12 1_555 1_555
C13 C12 1_555 1_555
C14 C13 1_555 1_555
H13 C14 1_555 1_555
C15 C10 1_555 1_555
H14 C15 1_555 1_555
C16 C13 1_555 1_555
C5 C6 1_555 1_555
C14 C15 1_555 1_555

#END
