
#######################################################################
#
#                 Cambridge Crystallographic Data Centre
#                                CCDC 
#
#######################################################################
#
# If this CIF has been generated from an entry in the Cambridge 
# Structural Database, then it will include bibliographic, chemical, 
# crystal, experimental, refinement or atomic coordinate data resulting 
# from the CCDC's data processing and validation procedures.
#
#######################################################################

data_BEZMEZ
_chemical_formula_moiety         'C36 H26 F1 1+,B1 F4 1-'
_chemical_name_systematic        
'8-(Diphenyl(fluoro)methyl)-1-(diphenylmethylium)naphthalene tetrafluoroborate'
_symmetry_cell_setting           triclinic
_symmetry_space_group_name_H-M   'P -1'
_symmetry_Int_Tables_number      2
_space_group_name_Hall           '-P 1'
loop_
_symmetry_equiv_pos_site_id
_symmetry_equiv_pos_as_xyz
1 x,y,z
2 -x,-y,-z
_cell_length_a                   10.190(2)
_cell_length_b                   10.273(2)
_cell_length_c                   14.506(3)
_cell_angle_alpha                110.71(3)
_cell_angle_beta                 104.54(3)
_cell_angle_gamma                95.19(3)
_cell_volume                     1347.69
_exptl_crystal_colour            'deep purple'
_cell_formula_units_Z            2
_chemical_properties_physical    air-sensitive
loop_
_atom_site_label
_atom_site_type_symbol
_atom_site_fract_x
_atom_site_fract_y
_atom_site_fract_z
F1 F 0.45916(8) 0.08618(9) 0.68982(6)
C1 C 0.31771(15) 0.08288(16) 0.64242(12)
C2 C 0.49073(16) 0.05720(16) 0.85367(11)
C3 C 0.26006(15) 0.17492(16) 0.72618(12)
C4 C 0.13986(16) 0.21693(16) 0.68836(13)
H1 H 0.0968 0.1788 0.6173
C5 C 0.07989(16) 0.31403(17) 0.75179(13)
H2 H -0.0041 0.3350 0.7238
C6 C 0.14678(16) 0.37738(16) 0.85530(13)
H3 H 0.1115 0.4473 0.8974
C7 C 0.33615(17) 0.40929(16) 1.00729(12)
H4 H 0.2965 0.4771 1.0471
C8 C 0.45684(17) 0.38122(16) 1.05416(13)
H5 H 0.5022 0.4329 1.1241
C9 C 0.51181(16) 0.27312(16) 0.99525(12)
H6 H 0.5956 0.2551 1.0268
C10 C 0.44485(15) 0.19161(16) 0.89077(12)
C11 C 0.32392(15) 0.22921(16) 0.83621(12)
C12 C 0.26845(16) 0.33837(16) 0.89938(12)
C13 C 0.32305(15) 0.15349(16) 0.56588(12)
C14 C 0.24573(17) 0.09059(18) 0.46223(13)
H7 H 0.1896 0.0012 0.4365
C15 C 0.25180(18) 0.1608(2) 0.39659(14)
H8 H 0.1997 0.1179 0.3272
C16 C 0.33422(18) 0.29320(19) 0.43350(14)
H9 H 0.3373 0.3401 0.3895
C17 C 0.41270(18) 0.35617(18) 0.53690(14)
H10 H 0.4690 0.4454 0.5622
C18 C 0.40751(17) 0.28674(17) 0.60263(13)
H11 H 0.4608 0.3294 0.6717
C19 C 0.24635(16) -0.07274(16) 0.58903(12)
C20 C 0.30840(17) -0.16727(17) 0.52560(12)
H12 H 0.3932 -0.1349 0.5201
C21 C 0.24454(18) -0.30818(17) 0.47113(13)
H13 H 0.2862 -0.3700 0.4287
C22 C 0.11879(18) -0.35806(18) 0.47923(13)
H14 H 0.0757 -0.4529 0.4421
C23 C 0.05785(17) -0.26644(17) 0.54262(13)
H15 H -0.0260 -0.2999 0.5489
C24 C 0.12114(16) -0.12402(17) 0.59730(12)
H16 H 0.0791 -0.0628 0.6397
C25 C 0.63587(15) 0.06190(16) 0.86652(12)
C26 C 0.70299(16) -0.04674(16) 0.88155(12)
H17 H 0.6527 -0.1263 0.8824
C27 C 0.84298(16) -0.03499(18) 0.89503(12)
H18 H 0.8870 -0.1067 0.9047
C28 C 0.91819(17) 0.08375(18) 0.89410(13)
H19 H 1.0127 0.0913 0.9037
C29 C 0.85435(17) 0.19152(18) 0.87906(13)
H20 H 0.9057 0.2706 0.8785
C30 C 0.71485(16) 0.18050(17) 0.86502(12)
H21 H 0.6719 0.2523 0.8544
C31 C 0.39201(15) -0.07361(16) 0.81835(12)
C32 C 0.27655(16) -0.07295(17) 0.85544(12)
H22 H 0.2622 0.0123 0.8989
C33 C 0.18493(16) -0.19707(17) 0.82810(13)
H23 H 0.1104 -0.1959 0.8543
C34 C 0.20434(17) -0.32402(17) 0.76120(13)
H24 H 0.1420 -0.4077 0.7422
C35 C 0.31563(17) -0.32695(17) 0.72257(12)
H25 H 0.3272 -0.4124 0.6774
C36 C 0.40958(16) -0.20367(16) 0.75073(12)
H26 H 0.4846 -0.2065 0.7250
B1 B 0.18639(19) 0.42694(19) 0.19836(15)
F2 F 0.20604(11) 0.56545(10) 0.20463(8)
F3 F 0.11119(10) 0.41279(11) 0.26307(8)
F4 F 0.11377(12) 0.33685(11) 0.09690(8)
F5 F 0.31425(10) 0.39180(11) 0.22786(8)
loop_
_geom_bond_atom_site_label_1
_geom_bond_atom_site_label_2
_geom_bond_site_symmetry_1
_geom_bond_site_symmetry_2
F1 C1 1_555 1_555
C1 C3 1_555 1_555
C2 C10 1_555 1_555
C3 C4 1_555 1_555
C4 H1 1_555 1_555
C5 C4 1_555 1_555
H2 C5 1_555 1_555
C6 C5 1_555 1_555
H3 C6 1_555 1_555
C7 H4 1_555 1_555
C8 C7 1_555 1_555
H5 C8 1_555 1_555
C9 C8 1_555 1_555
H6 C9 1_555 1_555
C10 C9 1_555 1_555
C11 C3 1_555 1_555
C12 C6 1_555 1_555
C13 C1 1_555 1_555
C14 C13 1_555 1_555
H7 C14 1_555 1_555
C15 C14 1_555 1_555
H8 C15 1_555 1_555
C16 C15 1_555 1_555
H9 C16 1_555 1_555
C17 C16 1_555 1_555
H10 C17 1_555 1_555
C18 C13 1_555 1_555
H11 C18 1_555 1_555
C19 C1 1_555 1_555
C20 C19 1_555 1_555
H12 C20 1_555 1_555
C21 C20 1_555 1_555
H13 C21 1_555 1_555
C22 C21 1_555 1_555
H14 C22 1_555 1_555
C23 C22 1_555 1_555
H15 C23 1_555 1_555
C24 C19 1_555 1_555
H16 C24 1_555 1_555
C25 C2 1_555 1_555
C26 C25 1_555 1_555
H17 C26 1_555 1_555
C27 C26 1_555 1_555
H18 C27 1_555 1_555
C28 C27 1_555 1_555
H19 C28 1_555 1_555
C29 C28 1_555 1_555
H20 C29 1_555 1_555
C30 C25 1_555 1_555
H21 C30 1_555 1_555
C31 C2 1_555 1_555
C32 C31 1_555 1_555
H22 C32 1_555 1_555
C33 C32 1_555 1_555
H23 C33 1_555 1_555
C34 C33 1_555 1_555
H24 C34 1_555 1_555
C35 C34 1_555 1_555
H25 C35 1_555 1_555
C36 C31 1_555 1_555
H26 C36 1_555 1_555
B1 F2 1_555 1_555
F3 B1 1_555 1_555
F4 B1 1_555 1_555
F5 B1 1_555 1_555
C7 C12 1_555 1_555
C10 C11 1_555 1_555
C11 C12 1_555 1_555
C17 C18 1_555 1_555
C23 C24 1_555 1_555
C29 C30 1_555 1_555
C35 C36 1_555 1_555

#END
