
#######################################################################
#
#                 Cambridge Crystallographic Data Centre
#                                CCDC 
#
#######################################################################
#
# If this CIF has been generated from an entry in the Cambridge 
# Structural Database, then it will include bibliographic, chemical, 
# crystal, experimental, refinement or atomic coordinate data resulting 
# from the CCDC's data processing and validation procedures.
#
#######################################################################

data_BEZMAV
_chemical_formula_moiety         'C36 H26 2+,2(B1 F4 1-)'
_chemical_name_systematic        
'1,8-bis(Diphenylmethylium)naphthalene bis(tetrafluoroborate)'
_symmetry_cell_setting           monoclinic
_symmetry_space_group_name_H-M   'P 21/c'
_symmetry_Int_Tables_number      14
_space_group_name_Hall           '-P 2ybc'
loop_
_symmetry_equiv_pos_site_id
_symmetry_equiv_pos_as_xyz
1 x,y,z
2 x,1/2-y,1/2+z
3 -x,-y,-z
4 -x,1/2+y,1/2-z
_cell_length_a                   17.6581(15)
_cell_length_b                   10.4884(9)
_cell_length_c                   16.0575(13)
_cell_angle_alpha                90
_cell_angle_beta                 104.633(2)
_cell_angle_gamma                90
_cell_volume                     2877.47
_exptl_crystal_colour            'dark red'
_cell_formula_units_Z            4
_exptl_crystal_recrystallization_method 'diethyl ether/acetonitrile'
loop_
_atom_site_label
_atom_site_type_symbol
_atom_site_fract_x
_atom_site_fract_y
_atom_site_fract_z
C1 C 0.29725(14) 0.0533(3) 0.01824(18)
C2 C 0.22457(15) 0.1705(2) -0.16231(18)
C3 C 0.33045(14) 0.1830(2) 0.02910(18)
C4 C 0.37189(15) 0.2107(3) 0.11281(18)
H1 H 0.3697 0.1541 0.1567
C5 C 0.41703(16) 0.3220(3) 0.1329(2)
H2 H 0.4451 0.3381 0.1892
C6 C 0.41923(15) 0.4055(3) 0.0691(2)
H3 H 0.4480 0.4803 0.0827
C7 C 0.38731(15) 0.4676(3) -0.0819(2)
H4 H 0.4145 0.5434 -0.0660
C8 C 0.35654(16) 0.4427(3) -0.1673(2)
H5 H 0.3664 0.4966 -0.2093
C9 C 0.30992(15) 0.3342(3) -0.1901(2)
H6 H 0.2902 0.3155 -0.2481
C10 C 0.29187(14) 0.2533(3) -0.12924(18)
C11 C 0.33189(14) 0.2703(2) -0.03941(18)
C12 C 0.37906(15) 0.3822(2) -0.01764(19)
C13 C 0.32181(14) -0.0347(2) -0.03804(18)
C14 C 0.39382(15) -0.0162(3) -0.05911(18)
H7 H 0.4245 0.0542 -0.0375
C15 C 0.41917(16) -0.1017(3) -0.11153(19)
H8 H 0.4673 -0.0899 -0.1241
C16 C 0.37255(16) -0.2057(3) -0.14567(19)
H9 H 0.3888 -0.2620 -0.1824
C17 C 0.30200(16) -0.2254(3) -0.12487(19)
H10 H 0.2716 -0.2959 -0.1471
C18 C 0.27621(16) -0.1424(3) -0.07190(18)
H11 H 0.2288 -0.1570 -0.0583
C19 C 0.24641(14) 0.0191(3) 0.07190(18)
C20 C 0.24428(15) -0.1060(3) 0.10450(18)
H12 H 0.2750 -0.1697 0.0895
C21 C 0.19679(16) -0.1335(3) 0.1583(2)
H13 H 0.1971 -0.2151 0.1811
C22 C 0.14865(16) -0.0407(3) 0.17882(19)
H14 H 0.1162 -0.0606 0.2145
C23 C 0.14864(16) 0.0823(3) 0.14613(19)
H15 H 0.1152 0.1438 0.1587
C24 C 0.19801(15) 0.1128(3) 0.09527(18)
H16 H 0.1996 0.1962 0.0760
C25 C 0.21837(15) 0.0985(2) -0.23982(19)
C26 C 0.28652(16) 0.0559(3) -0.26234(19)
H17 H 0.3355 0.0776 -0.2279
C27 C 0.28102(17) -0.0172(3) -0.33475(19)
H18 H 0.3261 -0.0487 -0.3474
C28 C 0.20798(17) -0.0439(3) -0.3890(2)
H19 H 0.2044 -0.0910 -0.4389
C29 C 0.14036(17) -0.0007(3) -0.36919(19)
H20 H 0.0917 -0.0190 -0.4059
C30 C 0.14484(16) 0.0688(3) -0.29566(19)
H21 H 0.0992 0.0966 -0.2825
C31 C 0.15945(15) 0.1746(3) -0.12265(18)
C32 C 0.11193(15) 0.0668(3) -0.12189(18)
H22 H 0.1241 -0.0103 -0.1440
C33 C 0.04765(16) 0.0752(3) -0.0886(2)
H23 H 0.0179 0.0028 -0.0858
C34 C 0.02699(16) 0.1912(3) -0.0591(2)
H24 H -0.0173 0.1968 -0.0379
C35 C 0.07192(16) 0.2985(3) -0.0612(2)
H25 H 0.0571 0.3763 -0.0426
C36 C 0.13854(16) 0.2907(3) -0.09077(19)
H26 H 0.1698 0.3625 -0.0896
B1 B 0.0791(2) 0.8244(4) 0.3884(3)
F1 F 0.0339(2) 0.8975(5) 0.4316(3)
F4 F 0.1487(5) 0.8922(5) 0.3920(7)
F7 F 0.0990(5) 0.7137(5) 0.4273(7)
F10 F 0.0384(4) 0.8177(13) 0.3078(4)
B2 B 0.45604(19) 0.7619(3) 0.1490(2)
F13 F 0.47393(10) 0.66207(16) 0.20819(11)
F14 F 0.42304(10) 0.86219(17) 0.18487(12)
F15 F 0.40230(11) 0.71890(17) 0.07591(12)
F16 F 0.52324(11) 0.80415(17) 0.13034(16)
F2? F 0.099(6) 0.755(4) 0.321(2)
F3? F 0.1425(8) 0.8928(12) 0.3768(13)
F5? F 0.0451(19) 0.9382(16) 0.3538(14)
F6? F 0.0392(8) 0.8983(14) 0.4367(9)
F8? F 0.099(6) 0.755(4) 0.321(2)
F9? F 0.0212(9) 0.7695(16) 0.3201(10)
F11? F 0.091(3) 0.742(2) 0.4591(13)
F12? F 0.1056(6) 0.7279(13) 0.4491(9)
loop_
_geom_bond_atom_site_label_1
_geom_bond_atom_site_label_2
_geom_bond_site_symmetry_1
_geom_bond_site_symmetry_2
C1 C3 1_555 1_555
C2 C10 1_555 1_555
C3 C4 1_555 1_555
C4 H1 1_555 1_555
C5 C4 1_555 1_555
H2 C5 1_555 1_555
C6 C5 1_555 1_555
H3 C6 1_555 1_555
C7 H4 1_555 1_555
C8 C7 1_555 1_555
H5 C8 1_555 1_555
C9 C8 1_555 1_555
H6 C9 1_555 1_555
C10 C9 1_555 1_555
C11 C3 1_555 1_555
C12 C6 1_555 1_555
C13 C1 1_555 1_555
C14 C13 1_555 1_555
H7 C14 1_555 1_555
C15 C14 1_555 1_555
H8 C15 1_555 1_555
C16 C15 1_555 1_555
H9 C16 1_555 1_555
C17 C16 1_555 1_555
H10 C17 1_555 1_555
C18 C13 1_555 1_555
H11 C18 1_555 1_555
C19 C1 1_555 1_555
C20 C19 1_555 1_555
H12 C20 1_555 1_555
C21 C20 1_555 1_555
H13 C21 1_555 1_555
C22 C21 1_555 1_555
H14 C22 1_555 1_555
C23 C22 1_555 1_555
H15 C23 1_555 1_555
C24 C19 1_555 1_555
H16 C24 1_555 1_555
C25 C2 1_555 1_555
C26 C25 1_555 1_555
H17 C26 1_555 1_555
C27 C26 1_555 1_555
H18 C27 1_555 1_555
C28 C27 1_555 1_555
H19 C28 1_555 1_555
C29 C28 1_555 1_555
H20 C29 1_555 1_555
C30 C25 1_555 1_555
H21 C30 1_555 1_555
C31 C2 1_555 1_555
C32 C31 1_555 1_555
H22 C32 1_555 1_555
C33 C32 1_555 1_555
H23 C33 1_555 1_555
C34 C33 1_555 1_555
H24 C34 1_555 1_555
C35 C34 1_555 1_555
H25 C35 1_555 1_555
C36 C31 1_555 1_555
H26 C36 1_555 1_555
B1 F1 1_555 1_555
B2 F13 1_555 1_555
F4 B1 1_555 1_555
F7 B1 1_555 1_555
F10 B1 1_555 1_555
F14 B2 1_555 1_555
F15 B2 1_555 1_555
F16 B2 1_555 1_555
C7 C12 1_555 1_555
C10 C11 1_555 1_555
C11 C12 1_555 1_555
C17 C18 1_555 1_555
C23 C24 1_555 1_555
C29 C30 1_555 1_555
C35 C36 1_555 1_555

#END
