
#######################################################################
#
#                 Cambridge Crystallographic Data Centre
#                                CCDC 
#
#######################################################################
#
# If this CIF has been generated from an entry in the Cambridge 
# Structural Database, then it will include bibliographic, chemical, 
# crystal, experimental, refinement or atomic coordinate data resulting 
# from the CCDC's data processing and validation procedures.
#
#######################################################################

data_BEZPAA
_chemical_formula_moiety         'C44 H36 F6 N4 O6 P1 S2 1-,C6 H16 N1 1+,C6 H14'
_chemical_name_systematic        
'triethylammonium bis[N-(2-{[2-(hydroxy)-5-(trifluoromethyl)phenyl]amino}-1,2-diphenylethyl)methanesulfonamidato]phosphate hexane solvate'
_symmetry_cell_setting           orthorhombic
_symmetry_space_group_name_H-M   'P 21 21 21'
_symmetry_Int_Tables_number      19
_space_group_name_Hall           'P 2ac 2ab'
loop_
_symmetry_equiv_pos_site_id
_symmetry_equiv_pos_as_xyz
1 x,y,z
2 1/2-x,-y,1/2+z
3 1/2+x,1/2-y,-z
4 -x,1/2+y,1/2-z
_cell_length_a                   10.3061(5)
_cell_length_b                   20.5931(13)
_cell_length_c                   26.0626(17)
_cell_angle_alpha                90
_cell_angle_beta                 90
_cell_angle_gamma                90
_cell_volume                     5531.38
_exptl_crystal_colour            colorless
_exptl_crystal_description       Prism
_cell_formula_units_Z            4
loop_
_atom_site_label
_atom_site_type_symbol
_atom_site_fract_x
_atom_site_fract_y
_atom_site_fract_z
S1 S 0.34620(5) 0.29765(3) 0.36044(2)
P1 P 0.55574(5) 0.24566(2) 0.28668(2)
F1 F 0.7289(2) 0.22464(12) 0.01770(6)
F2 F 0.5250(2) 0.22831(12) 0.02962(6)
F3 F 0.6235(3) 0.13739(10) 0.03234(7)
O1 O 0.70817(15) 0.22936(7) 0.25712(6)
O2 O 0.42734(16) 0.35411(8) 0.36736(6)
O3 O 0.20902(17) 0.30903(9) 0.35475(7)
N1 N 0.39334(18) 0.25444(9) 0.31184(7)
N2 N 0.48143(18) 0.23684(9) 0.22635(7)
C1 C 0.2884(2) 0.23162(11) 0.27724(8)
H1 H 0.2371 0.2701 0.2656
C2 C 0.3577(2) 0.20173(11) 0.23004(8)
H2 H 0.3765 0.1550 0.2374
C3 C 0.3666(3) 0.24825(13) 0.41555(9)
H3 H 0.3391 0.2723 0.4461
H4 H 0.4582 0.2362 0.4190
H5 H 0.3139 0.2089 0.4121
C4 C 0.6337(3) 0.19964(13) 0.04623(9)
C5 C 0.6981(2) 0.22155(10) 0.20603(8)
C6 C 0.5704(2) 0.22314(10) 0.18725(8)
C7 C 0.5486(2) 0.21631(10) 0.13498(8)
H6 H 0.4630 0.2171 0.1215
C8 C 0.6556(3) 0.20822(11) 0.10257(9)
C9 C 0.7814(3) 0.20645(12) 0.12128(9)
H7 H 0.8523 0.2008 0.0984
C10 C 0.8037(2) 0.21298(11) 0.17370(9)
H8 H 0.8894 0.2116 0.1871
C11 C 0.1961(2) 0.18289(12) 0.30099(9)
C12 C 0.0637(3) 0.19015(14) 0.29288(11)
H9 H 0.0331 0.2256 0.2730
C13 C -0.0241(3) 0.14661(16) 0.31335(13)
H10 H -0.1143 0.1517 0.3070
C14 C 0.0198(3) 0.09583(16) 0.34298(13)
H11 H -0.0406 0.0664 0.3577
C15 C 0.1517(3) 0.08735(16) 0.35145(12)
H12 H 0.1814 0.0521 0.3719
C16 C 0.2405(3) 0.13059(14) 0.32996(11)
H13 H 0.3309 0.1244 0.3351
C17 C 0.2731(2) 0.20562(14) 0.18271(9)
C18 C 0.2410(3) 0.26479(15) 0.15983(10)
H14 H 0.2687 0.3044 0.1749
C19 C 0.1684(3) 0.26560(19) 0.11494(11)
H15 H 0.1468 0.3059 0.0995
C20 C 0.1272(3) 0.2084(2) 0.09255(11)
H16 H 0.0778 0.2094 0.0618
C21 C 0.1582(3) 0.1496(2) 0.11516(11)
H17 H 0.1310 0.1101 0.0996
C22 C 0.2291(3) 0.14794(16) 0.16076(10)
H18 H 0.2475 0.1076 0.1768
S2 S 0.50308(6) 0.38595(3) 0.25024(2)
F4 F 0.7717(13) 0.0325(3) 0.4902(3)
F5 F 0.9288(6) 0.0931(7) 0.4666(2)
F6 F 0.7829(8) 0.1278(3) 0.5119(2)
O4 O 0.54081(16) 0.16100(7) 0.29678(6)
N3 N 0.58956(18) 0.33140(8) 0.27913(7)
N4 N 0.63526(18) 0.25219(9) 0.34662(7)
C23 C 0.6926(2) 0.35737(10) 0.31344(8)
H19 H 0.6520 0.3899 0.3370
C24 C 0.7415(2) 0.29967(11) 0.34628(8)
H20 H 0.8182 0.2798 0.3288
C25 C 0.5728(3) 0.39441(13) 0.18881(9)
H21 H 0.5666 0.3531 0.1704
H22 H 0.6642 0.4068 0.1923
H23 H 0.5263 0.4281 0.1696
C26 C 0.8130(4) 0.09206(15) 0.47271(11)
C27 C 0.6008(2) 0.14103(11) 0.33947(8)
C28 C 0.6598(2) 0.19087(10) 0.36802(8)
C29 C 0.7291(2) 0.17516(12) 0.41180(9)
H24 H 0.7704 0.2079 0.4316
C30 C 0.7368(3) 0.10967(13) 0.42621(9)
C31 C 0.6770(3) 0.06115(12) 0.39850(10)
H25 H 0.6831 0.0173 0.4095
C32 C 0.6076(3) 0.07660(12) 0.35419(9)
H26 H 0.5661 0.0437 0.3346
C33 C 0.8032(2) 0.39060(11) 0.28509(9)
C34 C 0.8861(2) 0.35595(12) 0.25273(10)
H27 H 0.8748 0.3104 0.2489
C35 C 0.9847(3) 0.38726(13) 0.22610(10)
H28 H 1.0410 0.3631 0.2045
C36 C 1.0010(3) 0.45380(14) 0.23103(11)
H29 H 1.0679 0.4753 0.2126
C37 C 0.9198(3) 0.48857(13) 0.26271(12)
H30 H 0.9307 0.5342 0.2660
C38 C 0.8221(3) 0.45725(12) 0.28985(11)
H31 H 0.7674 0.4817 0.3120
C39 C 0.7836(2) 0.32457(11) 0.39847(9)
C40 C 0.6963(3) 0.34606(13) 0.43527(10)
H32 H 0.6056 0.3439 0.4288
C41 C 0.7414(3) 0.37083(16) 0.48175(11)
H33 H 0.6812 0.3853 0.5069
C42 C 0.8730(4) 0.37461(17) 0.49167(12)
H34 H 0.9033 0.3917 0.5234
C43 C 0.9600(4) 0.3533(2) 0.45514(13)
H35 H 1.0505 0.3561 0.4617
C44 C 0.9166(3) 0.32779(16) 0.40864(11)
H36 H 0.9773 0.3126 0.3840
O5 O 0.52314(17) 0.44743(8) 0.27609(7)
O6 O 0.37057(17) 0.36643(9) 0.24347(7)
N5 N 0.3391(2) 0.49220(9) 0.35379(8)
H37 H 0.381(3) 0.4614(16) 0.3363(13)
C45 C 0.3483(3) 0.55399(11) 0.32314(10)
H38 H 0.4407 0.5631 0.3157
H39 H 0.3145 0.5903 0.3441
C46 C 0.2741(3) 0.55139(13) 0.27320(10)
H40 H 0.2951 0.5110 0.2551
H41 H 0.2982 0.5886 0.2518
H42 H 0.1807 0.5528 0.2803
C47 C 0.2024(3) 0.46697(12) 0.35978(12)
H43 H 0.2048 0.4267 0.3805
H44 H 0.1681 0.4556 0.3254
C48 C 0.1102(3) 0.51446(16) 0.38498(14)
H45 H 0.1445 0.5271 0.4186
H46 H 0.0251 0.4939 0.3894
H47 H 0.1013 0.5531 0.3633
C49 C 0.4052(3) 0.49815(13) 0.40491(10)
H48 H 0.3991 0.4560 0.4230
H49 H 0.3584 0.5308 0.4258
C50 C 0.5461(3) 0.51756(16) 0.40149(12)
H50 H 0.5898 0.4907 0.3757
H51 H 0.5878 0.5112 0.4349
H52 H 0.5523 0.5634 0.3916
C51 C 0.487(2) 0.0706(5) -0.0769(7)
H53 H 0.5104 0.0617 -0.0412
H54 H 0.5590 0.0923 -0.0943
H55 H 0.4673 0.0296 -0.0945
C52 C 0.3765(9) 0.1110(4) -0.0782(4)
H56 H 0.3482 0.1171 -0.1141
H57 H 0.3986 0.1541 -0.0638
C53 C 0.2642(15) 0.0801(7) -0.0464(7)
H58 H 0.2580 0.0335 -0.0553
H59 H 0.2864 0.0830 -0.0095
C54 C 0.1476(9) 0.1076(3) -0.0537(3)
H60 H 0.1315 0.1099 -0.0911
H61 H 0.1520 0.1528 -0.0409
C55 C 0.0363(12) 0.0763(7) -0.0299(4)
H62 H 0.0298 0.0308 -0.0419
H63 H 0.0475 0.0757 0.0079
C56 C -0.0763(10) 0.1095(4) -0.0424(6)
H64 H -0.1485 0.0788 -0.0451
H65 H -0.0646 0.1318 -0.0753
H66 H -0.0955 0.1415 -0.0156
F7? F 0.8795(6) 0.0377(2) 0.47082(17)
F8? F 0.9175(9) 0.1361(3) 0.4834(3)
F9? F 0.7551(9) 0.0947(8) 0.5155(3)
loop_
_geom_bond_atom_site_label_1
_geom_bond_atom_site_label_2
_geom_bond_site_symmetry_1
_geom_bond_site_symmetry_2
S1 O2 1_555 1_555
P1 O1 1_555 1_555
F1 C4 1_555 1_555
F2 C4 1_555 1_555
F3 C4 1_555 1_555
O1 C5 1_555 1_555
O3 S1 1_555 1_555
N1 S1 1_555 1_555
N2 P1 1_555 1_555
C1 N1 1_555 1_555
H1 C1 1_555 1_555
C2 N2 1_555 1_555
H2 C2 1_555 1_555
C3 S1 1_555 1_555
H3 C3 1_555 1_555
H4 C3 1_555 1_555
H5 C3 1_555 1_555
C4 C8 1_555 1_555
C5 C6 1_555 1_555
C6 N2 1_555 1_555
C7 C6 1_555 1_555
H6 C7 1_555 1_555
C8 C7 1_555 1_555
C9 C8 1_555 1_555
H7 C9 1_555 1_555
C10 C5 1_555 1_555
H8 C10 1_555 1_555
C11 C1 1_555 1_555
C12 C11 1_555 1_555
H9 C12 1_555 1_555
C13 C12 1_555 1_555
H10 C13 1_555 1_555
C14 C13 1_555 1_555
H11 C14 1_555 1_555
C15 C14 1_555 1_555
H12 C15 1_555 1_555
C16 C11 1_555 1_555
H13 C16 1_555 1_555
C17 C2 1_555 1_555
C18 C17 1_555 1_555
H14 C18 1_555 1_555
C19 C18 1_555 1_555
H15 C19 1_555 1_555
C20 C19 1_555 1_555
H16 C20 1_555 1_555
C21 C20 1_555 1_555
H17 C21 1_555 1_555
C22 C17 1_555 1_555
H18 C22 1_555 1_555
S2 N3 1_555 1_555
F4 C26 1_555 1_555
F5 C26 1_555 1_555
F6 C26 1_555 1_555
O4 P1 1_555 1_555
N3 P1 1_555 1_555
N4 P1 1_555 1_555
C23 N3 1_555 1_555
H19 C23 1_555 1_555
C24 N4 1_555 1_555
H20 C24 1_555 1_555
C25 S2 1_555 1_555
H21 C25 1_555 1_555
H22 C25 1_555 1_555
H23 C25 1_555 1_555
C26 C30 1_555 1_555
C27 O4 1_555 1_555
C28 N4 1_555 1_555
C29 C28 1_555 1_555
H24 C29 1_555 1_555
C30 C29 1_555 1_555
C31 C30 1_555 1_555
H25 C31 1_555 1_555
C32 C27 1_555 1_555
H26 C32 1_555 1_555
C33 C23 1_555 1_555
C34 C33 1_555 1_555
H27 C34 1_555 1_555
C35 C34 1_555 1_555
H28 C35 1_555 1_555
C36 C35 1_555 1_555
H29 C36 1_555 1_555
C37 C36 1_555 1_555
H30 C37 1_555 1_555
C38 C33 1_555 1_555
H31 C38 1_555 1_555
C39 C24 1_555 1_555
C40 C39 1_555 1_555
H32 C40 1_555 1_555
C41 C40 1_555 1_555
H33 C41 1_555 1_555
C42 C41 1_555 1_555
H34 C42 1_555 1_555
C43 C42 1_555 1_555
H35 C43 1_555 1_555
C44 C39 1_555 1_555
H36 C44 1_555 1_555
O5 S2 1_555 1_555
O6 S2 1_555 1_555
N5 H37 1_555 1_555
C45 N5 1_555 1_555
H38 C45 1_555 1_555
H39 C45 1_555 1_555
C46 C45 1_555 1_555
H40 C46 1_555 1_555
H41 C46 1_555 1_555
H42 C46 1_555 1_555
C47 N5 1_555 1_555
H43 C47 1_555 1_555
H44 C47 1_555 1_555
C48 C47 1_555 1_555
H45 C48 1_555 1_555
H46 C48 1_555 1_555
H47 C48 1_555 1_555
C49 N5 1_555 1_555
H48 C49 1_555 1_555
H49 C49 1_555 1_555
C50 C49 1_555 1_555
H50 C50 1_555 1_555
H51 C50 1_555 1_555
H52 C50 1_555 1_555
C51 H53 1_555 1_555
H54 C51 1_555 1_555
H55 C51 1_555 1_555
C52 C51 1_555 1_555
H56 C52 1_555 1_555
H57 C52 1_555 1_555
C53 C52 1_555 1_555
H58 C53 1_555 1_555
H59 C53 1_555 1_555
C54 C53 1_555 1_555
H60 C54 1_555 1_555
H61 C54 1_555 1_555
C55 C54 1_555 1_555
H62 C55 1_555 1_555
H63 C55 1_555 1_555
C56 C55 1_555 1_555
H64 C56 1_555 1_555
H65 C56 1_555 1_555
H66 C56 1_555 1_555
P1 N1 1_555 1_555
C1 C2 1_555 1_555
C9 C10 1_555 1_555
C15 C16 1_555 1_555
C21 C22 1_555 1_555
C23 C24 1_555 1_555
C27 C28 1_555 1_555
C31 C32 1_555 1_555
C37 C38 1_555 1_555
C43 C44 1_555 1_555

#END
