
#######################################################################
#
#                 Cambridge Crystallographic Data Centre
#                                CCDC 
#
#######################################################################
#
# If this CIF has been generated from an entry in the Cambridge 
# Structural Database, then it will include bibliographic, chemical, 
# crystal, experimental, refinement or atomic coordinate data resulting 
# from the CCDC's data processing and validation procedures.
#
#######################################################################

data_BHMNDC
_chemical_formula_moiety         'C23 H27 Br1 O7'
_chemical_name_systematic        
6-Bromo-9-hydroxy-3,4,5,19-tetramethoxy-9,10-dimethyl-15,17-dioxatetracyclo(10.7.0.0^2,7^.0^14,18^)nonadeca-1(12),2(7),3,5,13,18-hexaene
_symmetry_cell_setting           orthorhombic
_symmetry_space_group_name_H-M   'P 21 21 21'
_symmetry_Int_Tables_number      19
_space_group_name_Hall           'P 2ac 2ab'
loop_
_symmetry_equiv_pos_site_id
_symmetry_equiv_pos_as_xyz
1 x,y,z
2 1/2+x,1/2-y,-z
3 -x,1/2+y,1/2-z
4 1/2-x,-y,1/2+z
_cell_length_a                   19.253
_cell_length_b                   15.992
_cell_length_c                   7.280
_cell_angle_alpha                90
_cell_angle_beta                 90
_cell_angle_gamma                90
_cell_volume                     2241.47
_cell_formula_units_Z            4
loop_
_atom_site_label
_atom_site_type_symbol
_atom_site_fract_x
_atom_site_fract_y
_atom_site_fract_z
C1 C 0.28800 0.18500 0.35800
C2 C 0.24600 0.12800 0.24500
C3 C 0.17700 0.15300 0.21300
C4 C 0.15100 0.22800 0.28100
C5 C 0.17000 0.36100 0.46000
C6 C 0.13200 0.35400 0.65400
C7 C 0.17900 0.35800 0.82000
C8 C 0.24400 0.29700 0.80000
C9 C 0.35500 0.37800 0.78900
C10 C 0.41500 0.40600 0.70300
C11 C 0.42300 0.39000 0.51700
C12 C 0.37200 0.34100 0.43000
C13 C 0.31400 0.31100 0.51700
C14 C 0.31000 0.33100 0.70800
C15 C 0.19800 0.27900 0.38400
C16 C 0.26400 0.25000 0.40800
C17 C 0.36500 0.11700 0.55700
C18 C 0.31900 0.04800 0.07100
C19 C 0.12700 0.09400 -0.06600
C20 C 0.06900 0.41900 0.66900
C21 C 0.20300 0.44600 0.86600
C22 C 0.50300 0.46900 0.61200
C23 C 0.44100 0.29100 0.17000
O1 O 0.46600 0.45300 0.75700
O2 O 0.47900 0.42300 0.46400
O3 O 0.37800 0.32400 0.24000
O4 O 0.35600 0.15400 0.39200
O5 O 0.26800 0.05200 0.19300
O6 O 0.13100 0.09900 0.13100
O7 O 0.09700 0.27000 0.67700
Br1 Br 0.05000 0.25000 0.25000
loop_
_geom_bond_atom_site_label_1
_geom_bond_atom_site_label_2
_geom_bond_site_symmetry_1
_geom_bond_site_symmetry_2
C1 C2 1_555 1_555
C2 C3 1_555 1_555
C3 C4 1_555 1_555
C4 C15 1_555 1_555
C5 C6 1_555 1_555
C6 C7 1_555 1_555
C7 C8 1_555 1_555
C8 C14 1_555 1_555
C9 C10 1_555 1_555
C10 C11 1_555 1_555
C11 C12 1_555 1_555
C12 C13 1_555 1_555
C13 C14 1_555 1_555
C14 C9 1_555 1_555
C15 C5 1_555 1_555
C16 C1 1_555 1_555
C17 O4 1_555 1_555
C18 O5 1_555 1_555
C19 O6 1_555 1_555
C20 C6 1_555 1_555
C21 C7 1_555 1_555
C22 O1 1_555 1_555
C23 O3 1_555 1_555
O1 C10 1_555 1_555
O2 C11 1_555 1_555
O3 C12 1_555 1_555
O4 C1 1_555 1_555
O5 C2 1_555 1_555
O6 C3 1_555 1_555
O7 C6 1_555 1_555
Br1 C4 1_555 1_555
C13 C16 1_555 1_555
C15 C16 1_555 1_555
C22 O2 1_555 1_555

#END
