
#######################################################################
#
#                 Cambridge Crystallographic Data Centre
#                                CCDC 
#
#######################################################################
#
# If this CIF has been generated from an entry in the Cambridge 
# Structural Database, then it will include bibliographic, chemical, 
# crystal, experimental, refinement or atomic coordinate data resulting 
# from the CCDC's data processing and validation procedures.
#
#######################################################################

data_BIBHAY
_chemical_formula_moiety         'C8 H20 N1 1+,C24 H36 B11 O2 1-'
_chemical_name_systematic        
'tetraethylammonium 1,2-(1-oxo-3,4-bis(4-t-butylphenyl)-2-oxabut-3-en-1,4-diyl)-1-carba-closo-dodecaborate(10)'
_symmetry_cell_setting           orthorhombic
_symmetry_space_group_name_H-M   'P c a 21'
_symmetry_Int_Tables_number      29
_space_group_name_Hall           'P 2c -2ac'
loop_
_symmetry_equiv_pos_site_id
_symmetry_equiv_pos_as_xyz
1 x,y,z
2 -x,-y,1/2+z
3 1/2-x,y,1/2+z
4 1/2+x,-y,z
_cell_length_a                   26.8667(14)
_cell_length_b                   7.2437(5)
_cell_length_c                   20.1125(9)
_cell_angle_alpha                90
_cell_angle_beta                 90
_cell_angle_gamma                90
_cell_volume                     3914.18
_exptl_crystal_colour            colorless
_exptl_crystal_description       block
_cell_formula_units_Z            4
loop_
_atom_site_label
_atom_site_type_symbol
_atom_site_fract_x
_atom_site_fract_y
_atom_site_fract_z
O1 O 0.60898(8) 0.7591(3) 0.91917(11)
O2 O 0.66760(9) 0.7679(3) 0.99301(12)
C1 C 0.68085(10) 0.5605(4) 0.90363(13)
C2 C 0.53782(12) 0.8112(5) 0.85717(17)
B1 B 0.70609(13) 0.6195(5) 0.82917(16)
H1 H 0.7045 0.7575 0.8064
C3 C 0.65298(11) 0.7019(4) 0.94191(15)
C4 C 0.58421(12) 0.7027(5) 0.86036(16)
C5 C 0.60214(12) 0.5743(5) 0.81976(15)
B2 B 0.65216(13) 0.4757(5) 0.83535(16)
B3 B 0.67194(15) 0.2426(5) 0.8311(2)
H2 H 0.6485 0.1344 0.8089
B4 B 0.75874(14) 0.4770(5) 0.82127(19)
H3 H 0.7916 0.5203 0.7926
B5 B 0.74451(13) 0.5751(5) 0.89949(18)
H4 H 0.7674 0.6840 0.9223
B6 B 0.70148(14) 0.4149(5) 0.78180(17)
H5 H 0.6971 0.4182 0.7274
B7 B 0.73767(15) 0.2443(5) 0.8224(2)
H6 H 0.7570 0.1359 0.7942
C6 C 0.44913(12) 1.0184(5) 0.85342(19)
B8 B 0.65807(15) 0.3402(5) 0.90948(18)
H7 H 0.6255 0.2974 0.9388
B9 B 0.71527(16) 0.4045(5) 0.94778(18)
H8 H 0.7194 0.4043 1.0022
C7 C 0.40081(14) 1.1300(7) 0.8531(3)
B10 B 0.71105(18) 0.1998(6) 0.9016(2)
H9 H 0.7130 0.0631 0.9252
C8 C 0.53616(14) 0.9937(5) 0.8779(2)
H10 H 0.5650 1.0499 0.8934
C9 C 0.49303(14) 1.0917(6) 0.8761(2)
H11 H 0.4933 1.2135 0.8907
C10 C 0.49390(13) 0.7336(6) 0.8357(2)
H12 H 0.4934 0.6107 0.8225
B11 B 0.76402(15) 0.3433(6) 0.8954(2)
H13 H 0.8004 0.2994 0.9149
C11 C 0.45034(13) 0.8364(6) 0.8337(2)
H14 H 0.4212 0.7810 0.8186
C12 C 0.57603(13) 0.5304(7) 0.75641(18)
C13 C 0.55949(16) 0.3533(8) 0.7434(2)
H15 H 0.5657 0.2593 0.7738
C14 C 0.53365(19) 0.3148(11) 0.6852(3)
H16 H 0.5220 0.1954 0.6784
C15 C 0.56840(17) 0.6640(10) 0.7083(2)
H17 H 0.5801 0.7835 0.7148
C16 C 0.5249(2) 0.4422(15) 0.6385(3)
C17 C 0.5432(2) 0.6190(15) 0.6501(3)
H18 H 0.5383 0.7098 0.6181
C18 C 0.3621(4) 1.0462(16) 0.8051(6)
H19 H 0.3725 1.0670 0.7600
H20 H 0.3304 1.1036 0.8123
H21 H 0.3594 0.9159 0.8130
C19 C 0.3776(3) 1.1042(16) 0.9243(5)
H22 H 0.3719 0.9753 0.9325
H23 H 0.3465 1.1694 0.9268
H24 H 0.4001 1.1521 0.9571
C20 C 0.4963(3) 0.397(2) 0.5753(4)
C21 C 0.4086(3) 1.3246(13) 0.8429(7)
H25 H 0.4273 1.3741 0.8794
H26 H 0.3770 1.3860 0.8403
H27 H 0.4266 1.3435 0.8023
C22 C 0.4925(7) 0.547(4) 0.5263(7)
H28 H 0.4762 0.6510 0.5462
H29 H 0.4736 0.5052 0.4887
H30 H 0.5253 0.5820 0.5120
C23 C 0.4517(7) 0.278(4) 0.5906(9)
H31 H 0.4625 0.1642 0.6105
H32 H 0.4340 0.2516 0.5502
H33 H 0.4301 0.3419 0.6208
C24 C 0.5306(7) 0.259(4) 0.5326(8)
H34 H 0.5643 0.3028 0.5327
H35 H 0.5185 0.2537 0.4878
H36 H 0.5294 0.1377 0.5519
N1 N 0.73535(12) 0.9189(4) 0.61985(14)
C31 C 0.76882(16) 1.0641(5) 0.59071(19)
H55 H 0.7948 1.0034 0.5654
H56 H 0.7495 1.1385 0.5600
C32 C 0.71839(16) 0.8008(5) 0.56235(19)
H57 H 0.7023 0.8802 0.5300
H58 H 0.7476 0.7486 0.5412
C33 C 0.76281(16) 0.8034(5) 0.67121(17)
H59 H 0.7710 0.8818 0.7088
H60 H 0.7405 0.7079 0.6871
C34 C 0.7927(2) 1.1895(6) 0.6404(2)
H61 H 0.8124 1.2801 0.6176
H62 H 0.8137 1.1186 0.6694
H63 H 0.7674 1.2503 0.6660
C35 C 0.8097(2) 0.7135(7) 0.6472(2)
H64 H 0.8021 0.6333 0.6105
H65 H 0.8242 0.6428 0.6826
H66 H 0.8328 0.8066 0.6329
C36 C 0.69137(18) 1.0038(7) 0.6559(2)
H67 H 0.6726 0.9053 0.6768
H68 H 0.7040 1.0826 0.6910
C37 C 0.6838(2) 0.6476(8) 0.5787(3)
H69 H 0.6760 0.5799 0.5390
H70 H 0.6538 0.6972 0.5974
H71 H 0.6993 0.5666 0.6104
C38 C 0.6572(2) 1.1124(9) 0.6148(4)
H72 H 0.6429 1.0347 0.5812
H73 H 0.6751 1.2116 0.5941
H74 H 0.6313 1.1622 0.6423
C25? C 0.3575(9) 1.039(4) 0.8429(17)
H37? H 0.3619 0.9484 0.8087
H38? H 0.3323 1.1258 0.8294
H39? H 0.3474 0.9800 0.8834
C26? C 0.3996(7) 1.280(3) 0.9068(13)
H40? H 0.4026 1.2242 0.9498
H41? H 0.3687 1.3465 0.9041
H42? H 0.4268 1.3642 0.9000
C27? C 0.4103(7) 1.282(3) 0.7891(14)
H43? H 0.4416 1.3435 0.7953
H44? H 0.3839 1.3708 0.7883
H45? H 0.4109 1.2153 0.7477
C28? C 0.4882(12) 0.185(4) 0.5686(12)
H46? H 0.5145 0.1207 0.5910
H47? H 0.4880 0.1516 0.5224
H48? H 0.4568 0.1521 0.5883
C29? C 0.5295(10) 0.441(6) 0.5155(8)
H49? H 0.5454 0.5582 0.5222
H50? H 0.5096 0.4457 0.4759
H51? H 0.5544 0.3468 0.5108
C30? C 0.4427(7) 0.474(6) 0.5870(10)
H52? H 0.4306 0.4329 0.6294
H53? H 0.4210 0.4307 0.5525
H54? H 0.4436 0.6067 0.5863
loop_
_geom_bond_atom_site_label_1
_geom_bond_atom_site_label_2
_geom_bond_site_symmetry_1
_geom_bond_site_symmetry_2
O1 C3 1_555 1_555
O2 C3 1_555 1_555
C1 B1 1_555 1_555
C2 C4 1_555 1_555
B1 H1 1_555 1_555
C3 C1 1_555 1_555
C4 O1 1_555 1_555
C5 C4 1_555 1_555
B2 C1 1_555 1_555
B3 B2 1_555 1_555
H2 B3 1_555 1_555
B4 B1 1_555 1_555
H3 B4 1_555 1_555
B5 C1 1_555 1_555
H4 B5 1_555 1_555
B6 B1 1_555 1_555
H5 B6 1_555 1_555
B7 B3 1_555 1_555
H6 B7 1_555 1_555
C6 C7 1_555 1_555
B8 C1 1_555 1_555
H7 B8 1_555 1_555
B9 C1 1_555 1_555
H8 B9 1_555 1_555
C7 C18 1_555 1_555
B10 B3 1_555 1_555
H9 B10 1_555 1_555
C8 C2 1_555 1_555
H10 C8 1_555 1_555
C9 C6 1_555 1_555
H11 C9 1_555 1_555
C10 C2 1_555 1_555
H12 C10 1_555 1_555
B11 B4 1_555 1_555
H13 B11 1_555 1_555
C11 C6 1_555 1_555
H14 C11 1_555 1_555
C12 C5 1_555 1_555
C13 C12 1_555 1_555
H15 C13 1_555 1_555
C14 C13 1_555 1_555
H16 C14 1_555 1_555
C15 C12 1_555 1_555
H17 C15 1_555 1_555
C16 C14 1_555 1_555
C17 C15 1_555 1_555
H18 C17 1_555 1_555
C18 H19 1_555 1_555
H20 C18 1_555 1_555
H21 C18 1_555 1_555
C19 C7 1_555 1_555
H22 C19 1_555 1_555
H23 C19 1_555 1_555
H24 C19 1_555 1_555
C20 C16 1_555 1_555
C21 C7 1_555 1_555
H25 C21 1_555 1_555
H26 C21 1_555 1_555
H27 C21 1_555 1_555
C22 C20 1_555 1_555
H28 C22 1_555 1_555
H29 C22 1_555 1_555
H30 C22 1_555 1_555
C23 C20 1_555 1_555
H31 C23 1_555 1_555
H32 C23 1_555 1_555
H33 C23 1_555 1_555
C24 C20 1_555 1_555
H34 C24 1_555 1_555
H35 C24 1_555 1_555
H36 C24 1_555 1_555
N1 C31 1_555 1_555
C31 H55 1_555 1_555
H56 C31 1_555 1_555
C32 N1 1_555 1_555
H57 C32 1_555 1_555
H58 C32 1_555 1_555
C33 N1 1_555 1_555
H59 C33 1_555 1_555
H60 C33 1_555 1_555
C34 C31 1_555 1_555
H61 C34 1_555 1_555
H62 C34 1_555 1_555
H63 C34 1_555 1_555
C35 C33 1_555 1_555
H64 C35 1_555 1_555
H65 C35 1_555 1_555
H66 C35 1_555 1_555
C36 N1 1_555 1_555
H67 C36 1_555 1_555
H68 C36 1_555 1_555
C37 C32 1_555 1_555
H69 C37 1_555 1_555
H70 C37 1_555 1_555
H71 C37 1_555 1_555
C38 C36 1_555 1_555
H72 C38 1_555 1_555
H73 C38 1_555 1_555
H74 C38 1_555 1_555
B1 B2 1_555 1_555
B1 B5 1_555 1_555
C5 B2 1_555 1_555
B2 B6 1_555 1_555
B2 B8 1_555 1_555
B3 B6 1_555 1_555
B3 B8 1_555 1_555
B4 B5 1_555 1_555
B4 B6 1_555 1_555
B4 B7 1_555 1_555
B5 B9 1_555 1_555
B5 B11 1_555 1_555
B6 B7 1_555 1_555
B7 B10 1_555 1_555
B7 B11 1_555 1_555
B8 B9 1_555 1_555
B8 B10 1_555 1_555
B9 B10 1_555 1_555
B9 B11 1_555 1_555
B10 B11 1_555 1_555
C8 C9 1_555 1_555
C10 C11 1_555 1_555
C16 C17 1_555 1_555

#END
