
#######################################################################
#
#                 Cambridge Crystallographic Data Centre
#                                CCDC 
#
#######################################################################
#
# If this CIF has been generated from an entry in the Cambridge 
# Structural Database, then it will include bibliographic, chemical, 
# crystal, experimental, refinement or atomic coordinate data resulting 
# from the CCDC's data processing and validation procedures.
#
#######################################################################

data_BIBJUT
_chemical_formula_moiety         'C29 H21 N5 O6 S2'
_chemical_name_systematic        
'3-(1H-Indol-3-yl)-18-methyl-13,17-dioxo-15,16-dithia-10,12,18-triazapentacyclo[12.2.2.0^1,12^.0^3,11^.0^4,9^]octadeca-4,6,8-trien-2-yl 4-nitrobenzoate'
_symmetry_cell_setting           monoclinic
_symmetry_space_group_name_H-M   'P 21'
_symmetry_Int_Tables_number      4
_space_group_name_Hall           'P 2yb'
loop_
_symmetry_equiv_pos_site_id
_symmetry_equiv_pos_as_xyz
1 x,y,z
2 -x,1/2+y,-z
_cell_length_a                   11.6928(7)
_cell_length_b                   11.2669(6)
_cell_length_c                   20.6483(11)
_cell_angle_alpha                90
_cell_angle_beta                 96.6760(10)
_cell_angle_gamma                90
_cell_volume                     2701.8
_exptl_crystal_colour            yellow
_exptl_crystal_description       block
_cell_formula_units_Z            4
loop_
_atom_site_label
_atom_site_type_symbol
_atom_site_fract_x
_atom_site_fract_y
_atom_site_fract_z
S1 S -0.74395(11) -0.49430(8) -0.42072(5)
S2 S -0.70411(7) -0.63513(10) -0.47867(6)
N1 N -0.6408(2) -0.4014(2) -0.62912(15)
H1 H -0.6344 -0.3251 -0.6370
C1 C -0.7465(4) -0.4684(4) -0.6343(4)
H2 H -0.8034 -0.4360 -0.6698
C2 C -0.7110(2) -0.5971(2) -0.65040(15)
C3 C -0.5854(2) -0.5962(2) -0.62042(15)
C4 C -0.5090(2) -0.6889(2) -0.60583(14)
H3 H -0.5331 -0.7687 -0.6134
C5 C -0.3949(3) -0.6632(4) -0.5796(2)
H4 H -0.3416 -0.7255 -0.5683
C6 C -0.3614(3) -0.5457(4) -0.57048(18)
H5 H -0.2837 -0.5286 -0.5543
C7 C -0.4379(3) -0.4521(3) -0.58434(19)
H6 H -0.4141 -0.3721 -0.5770
C8 C -0.5502(3) -0.4794(3) -0.60926(18)
C9 C -0.7848(2) -0.6788(3) -0.60955(17)
H7 H -0.7439 -0.7541 -0.5956
N2 N -0.7996(3) -0.4815(3) -0.57270(15)
C10 C -0.8111(3) -0.6024(3) -0.55068(14)
C11 C -0.9257(3) -0.6228(3) -0.52316(12)
N3 N -0.9562(3) -0.5283(4) -0.4886(2)
C12 C -0.8714(5) -0.4370(5) -0.4730(2)
H8 H -0.9064 -0.3703 -0.4502
C13 C -0.8260(4) -0.3904(2) -0.5343(2)
C14 C -1.0554(4) -0.5319(5) -0.4513(3)
H9 H -1.1077 -0.5956 -0.4682
H10 H -1.0961 -0.4557 -0.4556
H11 H -1.0289 -0.5467 -0.4053
O1 O -0.9784(3) -0.7165(3) -0.52990(13)
O2 O -0.8088(3) -0.2855(2) -0.5451(2)
O3 O -0.8952(4) -0.7004(5) -0.6463(2)
C15 C -0.9094(3) -0.8091(3) -0.67467(19)
O4 O -0.83418(19) -0.8830(3) -0.67333(17)
C16 C -1.0279(3) -0.8256(4) -0.7079(2)
C17 C -1.1206(2) -0.7584(3) -0.69166(15)
H12 H -1.1091 -0.7007 -0.6580
C18 C -1.2301(2) -0.7758(3) -0.72476(15)
H13 H -1.2944 -0.7320 -0.7135
C19 C -1.2424(2) -0.8591(4) -0.77463(18)
C20 C -1.1518(4) -0.9299(5) -0.7903(3)
H14 H -1.1635 -0.9885 -0.8235
C21 C -1.0444(3) -0.9122(5) -0.7561(3)
H15 H -0.9813 -0.9597 -0.7656
N4 N -1.3566(3) -0.8745(3) -0.81194(14)
O5 O -1.3768(3) -0.9602(3) -0.84898(16)
O6 O -1.4317(2) -0.8010(3) -0.80417(14)
N5 N -0.6849(5) -0.6933(7) -0.8191(3)
H16 H -0.651(3) -0.729(3) -0.8508(17)
C22 C -0.6434(4) -0.6775(4) -0.7548(3)
H17 H -0.5686 -0.6999 -0.7358
C23 C -0.7252(4) -0.6247(4) -0.7220(2)
C24 C -0.8256(6) -0.6070(10) -0.7692(3)
C25 C -0.9370(3) -0.5610(3) -0.76711(18)
H18 H -0.9594 -0.5313 -0.7274
C26 C -1.0136(2) -0.5594(3) -0.82355(13)
H19 H -1.0890 -0.5287 -0.8223
C27 C -0.9811(2) -0.6027(3) -0.88286(13)
H20 H -1.0346 -0.5992 -0.9211
C28 C -0.8729(3) -0.6504(3) -0.88647(16)
H21 H -0.8515 -0.6803 -0.9263
C29 C -0.7962(3) -0.6527(4) -0.8290(2)
S5 S -0.69881(9) -0.03730(8) -0.06794(3)
S6 S -0.72797(10) -0.18427(7) -0.01063(3)
N11 N -0.8768(2) 0.0321(3) 0.10609(15)
H43 H -0.8991 0.1059 0.0986
C59 C -0.7620(2) -0.0029(2) 0.13177(14)
H44 H -0.7316 0.0485 0.1694
C60 C -0.7733(2) -0.13489(19) 0.15377(13)
C61 C -0.89131(19) -0.1675(3) 0.12061(11)
C62 C -0.9432(2) -0.2773(3) 0.11478(12)
H45 H -0.9030 -0.3466 0.1308
C63 C -1.0570(2) -0.2843(3) 0.08447(13)
H46 H -1.0950 -0.3589 0.0800
C64 C -1.1138(2) -0.1822(4) 0.06111(13)
H47 H -1.1915 -0.1876 0.0418
C65 C -1.0604(2) -0.0728(3) 0.06513(13)
H48 H -1.0998 -0.0039 0.0481
C66 C -0.9469(2) -0.0659(3) 0.09492(12)
C67 C -0.6768(2) -0.2065(2) 0.12379(15)
H49 H -0.7054 -0.2862 0.1080
N12 N -0.6781(3) -0.0116(3) 0.08319(14)
C68 C -0.6456(2) -0.1292(2) 0.06735(10)
C69 C -0.5202(2) -0.1350(2) 0.05146(11)
N13 N -0.49518(19) -0.0442(2) 0.01271(10)
C70 C -0.5856(3) 0.0368(2) -0.00938(13)
H50 H -0.5530 0.1063 -0.0311
C71 C -0.6506(3) 0.0797(3) 0.04570(13)
C72 C -0.3861(3) -0.0397(3) -0.01521(16)
H51 H -0.3322 0.0121 0.0115
H52 H -0.3993 -0.0083 -0.0597
H53 H -0.3537 -0.1197 -0.0161
O13 O -0.45417(19) -0.21531(18) 0.06877(10)
O14 O -0.6760(4) 0.1831(3) 0.05477(16)
O15 O -0.57726(18) -0.21705(18) 0.17178(7)
C73 C -0.53501(18) -0.3278(2) 0.18136(10)
O16 O -0.5821(2) -0.41577(17) 0.15801(11)
C74 C -0.4233(2) -0.3297(3) 0.22498(16)
C75 C -0.3640(2) -0.2259(2) 0.24310(17)
H54 H -0.3943 -0.1510 0.2285
C76 C -0.2595(2) -0.2327(3) 0.2830(2)
H55 H -0.2177 -0.1630 0.2964
C77 C -0.2186(3) -0.3425(2) 0.30232(11)
C78 C -0.2757(3) -0.4460(3) 0.28495(18)
H56 H -0.2452 -0.5204 0.3002
C79 C -0.3795(3) -0.4396(3) 0.24439(18)
H57 H -0.4197 -0.5100 0.2303
N14 N -0.10655(18) -0.3514(2) 0.34373(12)
O17 O -0.05018(18) -0.2608(3) 0.35309(15)
O18 O -0.0764(2) -0.4484(3) 0.36665(16)
N15 N -0.8160(2) -0.1823(2) 0.32730(9)
H58 H -0.855(2) -0.213(3) 0.3580(14)
C80 C -0.8479(2) -0.1962(3) 0.26176(10)
H59 H -0.9148 -0.2369 0.2430
C81 C -0.7693(3) -0.1428(4) 0.22770(12)
C82 C -0.6827(3) -0.0915(4) 0.27486(16)
C83 C -0.5834(2) -0.0215(2) 0.27147(13)
H60 H -0.5599 -0.0002 0.2305
C84 C -0.5213(2) 0.0153(2) 0.32881(13)
H61 H -0.4553 0.0638 0.3271
C85 C -0.5535(2) -0.0175(3) 0.38968(16)
H62 H -0.5070 0.0065 0.4282
C86 C -0.6513(3) -0.0838(3) 0.39486(14)
H63 H -0.6739 -0.1047 0.4361
C87 C -0.7154(2) -0.1190(2) 0.33665(13)
S3? S -0.7687(7) -0.5010(9) -0.4185(4)
S4? S -0.7234(11) -0.6609(8) -0.4864(4)
N6? N -0.6351(12) -0.4281(11) -0.6211(8)
H22? H -0.6222 -0.3512 -0.6214
C30? C -0.7450(14) -0.4843(16) -0.6389(17)
H23? H -0.7907 -0.4480 -0.6778
C31? C -0.7257(12) -0.6186(13) -0.6454(8)
C32? C -0.5986(11) -0.6219(12) -0.6184(8)
C33? C -0.5281(11) -0.7175(12) -0.6052(7)
H24? H -0.5552 -0.7958 -0.6147
C34? C -0.4145(14) -0.6972(17) -0.5772(10)
H25? H -0.3652 -0.7634 -0.5674
C35? C -0.3726(13) -0.5868(16) -0.5635(9)
H26? H -0.2944 -0.5779 -0.5458
C36? C -0.4407(13) -0.4866(15) -0.5746(10)
H27? H -0.4147 -0.4084 -0.5640
C37? C -0.5537(11) -0.5139(13) -0.6037(10)
C38? C -0.8105(13) -0.6850(18) -0.6161(9)
H28? H -0.7747 -0.7624 -0.6011
N7? N -0.8109(18) -0.4973(13) -0.5811(8)
C39? C -0.8256(15) -0.6208(14) -0.5624(9)
C40? C -0.9423(13) -0.6285(15) -0.5374(7)
N8? N -0.967(2) -0.540(2) -0.4982(13)
C41? C -0.884(3) -0.448(2) -0.4814(11)
H29? H -0.9224 -0.3774 -0.4647
C42? C -0.818(2) -0.4112(13) -0.5393(11)
C43? C -1.063(3) -0.556(3) -0.4595(17)
H30? H -1.0690 -0.6395 -0.4479
H31? H -1.1347 -0.5300 -0.4849
H32? H -1.0493 -0.5078 -0.4197
O7? O -1.0016(14) -0.7163(14) -0.5467(7)
O8? O -0.7975(18) -0.3058(12) -0.5482(10)
O9? O -0.912(2) -0.710(3) -0.6562(13)
C44? C -0.9401(17) -0.8181(18) -0.6851(11)
O10? O -0.8637(11) -0.8919(16) -0.6715(9)
C45? C -1.0454(16) -0.8200(18) -0.7216(10)
C46? C -1.1315(13) -0.7380(15) -0.7121(8)
H33? H -1.1167 -0.6720 -0.6838
C47? C -1.2378(11) -0.7567(12) -0.7453(6)
H34? H -1.2979 -0.7033 -0.7382
C48? C -1.2632(16) -0.8492(16) -0.7889(9)
C49? C -1.1754(18) -0.928(3) -0.7981(16)
H35? H -1.1887 -0.9899 -0.8294
C50? C -1.0703(17) -0.917(2) -0.7626(14)
H36? H -1.0134 -0.9765 -0.7659
N9? N -1.3725(14) -0.8544(15) -0.8259(8)
O11? O -1.3559(14) -0.9377(16) -0.8618(8)
O12? O -1.4440(11) -0.7850(14) -0.8248(6)
N10? N -0.685(2) -0.696(3) -0.8185(13)
H37? H -0.6477 -0.7314 -0.8478
C51? C -0.651(2) -0.696(2) -0.7524(13)
H38? H -0.5821 -0.7297 -0.7317
C52? C -0.733(2) -0.640(2) -0.7211(11)
C53? C -0.822(3) -0.602(5) -0.7708(11)
C54? C -0.9257(17) -0.539(2) -0.7708(9)
H39? H -0.9476 -0.5074 -0.7314
C55? C -0.9938(12) -0.5248(13) -0.8280(6)
H40? H -1.0663 -0.4870 -0.8273
C56? C -0.9629(11) -0.5625(14) -0.8877(6)
H41? H -1.0131 -0.5492 -0.9265
C57? C -0.8586(13) -0.6195(15) -0.8903(8)
H42? H -0.8370 -0.6480 -0.9304
C58? C -0.7859(18) -0.634(2) -0.8318(9)
S7? S -0.7375(6) -0.0225(6) -0.0752(3)
S8? S -0.7752(7) -0.1701(8) -0.0132(3)
N16? N -0.8583(14) 0.0714(15) 0.1122(11)
H64? H -0.8746 0.1477 0.1113
C88? C -0.7444(15) 0.0222(17) 0.1325(13)
H65? H -0.6963 0.0676 0.1672
C89? C -0.7756(15) -0.1063(16) 0.1510(10)
C90? C -0.8970(13) -0.1253(14) 0.1164(7)
C91? C -0.9583(13) -0.2270(16) 0.1068(8)
H66? H -0.9259 -0.3003 0.1227
C92? C -1.0708(16) -0.224(2) 0.0731(9)
H67? H -1.1170 -0.2927 0.0647
C93? C -1.1068(15) -0.113(2) 0.0538(9)
H68? H -1.1824 -0.1090 0.0314
C94? C -1.0491(13) -0.007(2) 0.0621(9)
H69? H -1.0818 0.0669 0.0472
C95? C -0.9370(13) -0.0175(16) 0.0948(9)
C96? C -0.697(2) -0.187(3) 0.1257(14)
H70? H -0.7381 -0.2641 0.1162
N17? N -0.690(3) -0.0040(19) 0.0757(14)
C97? C -0.6772(14) -0.1232(16) 0.0529(11)
C98? C -0.5539(14) -0.1400(13) 0.0367(9)
N18? N -0.5269(14) -0.0422(15) 0.0012(9)
C99? C -0.6182(19) 0.038(2) -0.0225(10)
H71? H -0.5843 0.1054 -0.0457
C100? C -0.670(3) 0.0885(19) 0.0370(13)
C101? C -0.4326(17) -0.052(2) -0.0399(10)
H72? H -0.4070 -0.1348 -0.0408
H73? H -0.3682 -0.0018 -0.0220
H74? H -0.4599 -0.0261 -0.0843
O19? O -0.4982(14) -0.2310(12) 0.0475(9)
O20? O -0.693(4) 0.192(2) 0.0459(16)
O21? O -0.5859(16) -0.2135(15) 0.1558(7)
C102? C -0.5605(15) -0.3184(16) 0.1805(6)
O22? O -0.6284(14) -0.3991(13) 0.1722(9)
C103? C -0.4442(18) -0.332(2) 0.2173(15)
C104? C -0.3626(17) -0.2496(18) 0.2166(12)
H75? H -0.3800 -0.1806 0.1909
C105? C -0.2558(18) -0.258(2) 0.2503(12)
H76? H -0.2023 -0.1950 0.2490
C106? C -0.225(2) -0.3591(16) 0.2863(10)
C107? C -0.3135(19) -0.441(2) 0.2895(15)
H77? H -0.2984 -0.5114 0.3143
C108? C -0.4193(15) -0.4232(18) 0.2584(9)
H78? H -0.4789 -0.4772 0.2657
N19? N -0.1344(15) -0.3574(16) 0.3273(9)
O23? O -0.0515(14) -0.290(2) 0.3220(11)
O24? O -0.102(2) -0.450(3) 0.3583(14)
N20? N -0.8124(18) -0.195(2) 0.3149(9)
H79? H -0.8549 -0.2255 0.3430
C109? C -0.840(2) -0.195(2) 0.2492(10)
H80? H -0.9077 -0.2296 0.2273
C110? C -0.761(2) -0.140(3) 0.2192(10)
C111? C -0.674(2) -0.103(4) 0.2709(11)
C112? C -0.5677(18) -0.046(2) 0.2713(10)
H81? H -0.5374 -0.0310 0.2313
C113? C -0.507(2) -0.011(2) 0.3289(10)
H82? H -0.4442 0.0429 0.3286
C114? C -0.538(2) -0.054(2) 0.3887(10)
H83? H -0.4859 -0.0483 0.4274
C115? C -0.645(2) -0.105(3) 0.3901(11)
H84? H -0.6756 -0.1172 0.4304
C116? C -0.7085(19) -0.139(2) 0.3309(10)
loop_
_geom_bond_atom_site_label_1
_geom_bond_atom_site_label_2
_geom_bond_site_symmetry_1
_geom_bond_site_symmetry_2
S1 S2 1_555 1_555
S2 C10 1_555 1_555
N1 H1 1_555 1_555
C1 N1 1_555 1_555
H2 C1 1_555 1_555
C2 C1 1_555 1_555
C3 C2 1_555 1_555
C4 C3 1_555 1_555
H3 C4 1_555 1_555
C5 C4 1_555 1_555
H4 C5 1_555 1_555
C6 C5 1_555 1_555
H5 C6 1_555 1_555
C7 C6 1_555 1_555
H6 C7 1_555 1_555
C8 N1 1_555 1_555
C9 C2 1_555 1_555
H7 C9 1_555 1_555
N2 C1 1_555 1_555
C10 C9 1_555 1_555
C11 C10 1_555 1_555
N3 C11 1_555 1_555
C12 S1 1_555 1_555
H8 C12 1_555 1_555
C13 N2 1_555 1_555
C14 N3 1_555 1_555
H9 C14 1_555 1_555
H10 C14 1_555 1_555
H11 C14 1_555 1_555
O1 C11 1_555 1_555
O2 C13 1_555 1_555
O3 C9 1_555 1_555
C15 O3 1_555 1_555
O4 C15 1_555 1_555
C16 C15 1_555 1_555
C17 C16 1_555 1_555
H12 C17 1_555 1_555
C18 C17 1_555 1_555
H13 C18 1_555 1_555
C19 C18 1_555 1_555
C20 C19 1_555 1_555
H14 C20 1_555 1_555
C21 C16 1_555 1_555
H15 C21 1_555 1_555
N4 C19 1_555 1_555
O5 N4 1_555 1_555
O6 N4 1_555 1_555
N5 H16 1_555 1_555
C22 N5 1_555 1_555
H17 C22 1_555 1_555
C23 C2 1_555 1_555
C24 C23 1_555 1_555
C25 C24 1_555 1_555
H18 C25 1_555 1_555
C26 C25 1_555 1_555
H19 C26 1_555 1_555
C27 C26 1_555 1_555
H20 C27 1_555 1_555
C28 C27 1_555 1_555
H21 C28 1_555 1_555
C29 N5 1_555 1_555
S5 S6 1_555 1_555
S6 C68 1_555 1_555
N11 H43 1_555 1_555
C59 N11 1_555 1_555
H44 C59 1_555 1_555
C60 C59 1_555 1_555
C61 C60 1_555 1_555
C62 C61 1_555 1_555
H45 C62 1_555 1_555
C63 C62 1_555 1_555
H46 C63 1_555 1_555
C64 C63 1_555 1_555
H47 C64 1_555 1_555
C65 C64 1_555 1_555
H48 C65 1_555 1_555
C66 N11 1_555 1_555
C67 C60 1_555 1_555
H49 C67 1_555 1_555
N12 C59 1_555 1_555
C68 C67 1_555 1_555
C69 C68 1_555 1_555
N13 C69 1_555 1_555
C70 S5 1_555 1_555
H50 C70 1_555 1_555
C71 N12 1_555 1_555
C72 N13 1_555 1_555
H51 C72 1_555 1_555
H52 C72 1_555 1_555
H53 C72 1_555 1_555
O13 C69 1_555 1_555
O14 C71 1_555 1_555
O15 C67 1_555 1_555
C73 O15 1_555 1_555
O16 C73 1_555 1_555
C74 C73 1_555 1_555
C75 C74 1_555 1_555
H54 C75 1_555 1_555
C76 C75 1_555 1_555
H55 C76 1_555 1_555
C77 C76 1_555 1_555
C78 C77 1_555 1_555
H56 C78 1_555 1_555
C79 C74 1_555 1_555
H57 C79 1_555 1_555
N14 C77 1_555 1_555
O17 N14 1_555 1_555
O18 N14 1_555 1_555
N15 H58 1_555 1_555
C80 N15 1_555 1_555
H59 C80 1_555 1_555
C81 C60 1_555 1_555
C82 C81 1_555 1_555
C83 C82 1_555 1_555
H60 C83 1_555 1_555
C84 C83 1_555 1_555
H61 C84 1_555 1_555
C85 C84 1_555 1_555
H62 C85 1_555 1_555
C86 C85 1_555 1_555
H63 C86 1_555 1_555
C87 N15 1_555 1_555
C3 C8 1_555 1_555
C7 C8 1_555 1_555
N2 C10 1_555 1_555
N3 C12 1_555 1_555
C12 C13 1_555 1_555
C20 C21 1_555 1_555
C22 C23 1_555 1_555
C24 C29 1_555 1_555
C28 C29 1_555 1_555
C61 C66 1_555 1_555
C65 C66 1_555 1_555
N12 C68 1_555 1_555
N13 C70 1_555 1_555
C70 C71 1_555 1_555
C78 C79 1_555 1_555
C80 C81 1_555 1_555
C82 C87 1_555 1_555
C86 C87 1_555 1_555

#END
