
#######################################################################
#
#                 Cambridge Crystallographic Data Centre
#                                CCDC 
#
#######################################################################
#
# If this CIF has been generated from an entry in the Cambridge 
# Structural Database, then it will include bibliographic, chemical, 
# crystal, experimental, refinement or atomic coordinate data resulting 
# from the CCDC's data processing and validation procedures.
#
#######################################################################

data_BIBLUV
_chemical_formula_moiety         'C14 H16 N2 O1'
_chemical_name_systematic        
1-Methyl-3-(piperidin-2-ylidene)-1,3-dihydro-2H-indol-2-one
_symmetry_cell_setting           monoclinic
_symmetry_space_group_name_H-M   'P 21/c'
_symmetry_Int_Tables_number      14
_space_group_name_Hall           '-P 2ybc'
loop_
_symmetry_equiv_pos_site_id
_symmetry_equiv_pos_as_xyz
1 x,y,z
2 -x,1/2+y,1/2-z
3 -x,-y,-z
4 x,1/2-y,1/2+z
_cell_length_a                   5.3738(4)
_cell_length_b                   20.6265(17)
_cell_length_c                   10.7546(9)
_cell_angle_alpha                90
_cell_angle_beta                 98.569(7)
_cell_angle_gamma                90
_cell_volume                     1178.76
_exptl_crystal_colour            yellow
_exptl_crystal_description       block
_cell_formula_units_Z            4
loop_
_atom_site_label
_atom_site_type_symbol
_atom_site_fract_x
_atom_site_fract_y
_atom_site_fract_z
O1 O 0.5440(4) 0.57762(9) 0.47955(19)
N1 N 0.5831(4) 0.68930(10) 0.4778(2)
N2 N 0.2184(4) 0.53955(10) 0.6412(2)
H1 H 0.3101 0.5298 0.5849
C1 C 0.4860(5) 0.63192(12) 0.5157(2)
C2 C 0.3166(4) 0.64896(12) 0.6043(2)
C3 C 0.3151(4) 0.71860(12) 0.6135(2)
C4 C 0.4817(4) 0.74214(12) 0.5333(2)
C5 C 0.5246(5) 0.80678(13) 0.5187(3)
H2 H 0.6362 0.8207 0.4660
C6 C 0.3994(6) 0.85125(14) 0.5834(3)
H3 H 0.4267 0.8954 0.5745
C7 C 0.2341(5) 0.82985(14) 0.6613(3)
H4 H 0.1493 0.8600 0.7039
C8 C 0.1925(5) 0.76478(13) 0.6769(3)
H5 H 0.0815 0.7515 0.7304
C9 C 0.1907(4) 0.60157(12) 0.6636(2)
C10 C 0.0239(4) 0.62141(12) 0.7584(2)
H6 H 0.1238 0.6461 0.8246
H7 H -0.1069 0.6498 0.7173
C11 C -0.0982(6) 0.56617(15) 0.8172(3)
H8 H -0.1318 0.5795 0.8996
H9 H -0.2586 0.5566 0.7662
C12 C 0.0541(9) 0.50691(19) 0.8307(4)
H10 H -0.0359 0.4729 0.8675
H11 H 0.2107 0.5150 0.8860
C13 C 0.1090(6) 0.48571(13) 0.7023(3)
H12 H 0.2251 0.4494 0.7116
H13 H -0.0455 0.4717 0.6509
C14 C 0.7617(5) 0.69416(14) 0.3896(3)
H14 H 0.6824 0.7146 0.3137
H15 H 0.8173 0.6516 0.3706
H16 H 0.9037 0.7196 0.4262
H17? H 0.0017 0.5572 0.8982
H18? H -0.2619 0.5808 0.8334
C15? C -0.131(3) 0.5110(6) 0.7553(14)
H19? H -0.2665 0.5163 0.6857
H20? H -0.1831 0.4782 0.8109
H21? H 0.2306 0.4688 0.7704
H22? H 0.0626 0.4511 0.6423
loop_
_geom_bond_atom_site_label_1
_geom_bond_atom_site_label_2
_geom_bond_site_symmetry_1
_geom_bond_site_symmetry_2
O1 C1 1_555 1_555
N1 C1 1_555 1_555
N2 H1 1_555 1_555
C1 C2 1_555 1_555
C2 C3 1_555 1_555
C3 C4 1_555 1_555
C4 N1 1_555 1_555
C5 C4 1_555 1_555
H2 C5 1_555 1_555
C6 C5 1_555 1_555
H3 C6 1_555 1_555
C7 C6 1_555 1_555
H4 C7 1_555 1_555
C8 C3 1_555 1_555
H5 C8 1_555 1_555
C9 N2 1_555 1_555
C10 C9 1_555 1_555
H6 C10 1_555 1_555
H7 C10 1_555 1_555
C11 C10 1_555 1_555
H8 C11 1_555 1_555
H9 C11 1_555 1_555
C12 C11 1_555 1_555
H10 C12 1_555 1_555
H11 C12 1_555 1_555
C13 N2 1_555 1_555
H12 C13 1_555 1_555
H13 C13 1_555 1_555
C14 N1 1_555 1_555
H14 C14 1_555 1_555
H15 C14 1_555 1_555
H16 C14 1_555 1_555
C2 C9 1_555 1_555
C7 C8 1_555 1_555
C12 C13 1_555 1_555

#END
