
#######################################################################
#
#                 Cambridge Crystallographic Data Centre
#                                CCDC 
#
#######################################################################
#
# If this CIF has been generated from an entry in the Cambridge 
# Structural Database, then it will include bibliographic, chemical, 
# crystal, experimental, refinement or atomic coordinate data resulting 
# from the CCDC's data processing and validation procedures.
#
#######################################################################

data_BIBQUA
_chemical_formula_moiety         'C20 H23 B1 F2 N2 Si1'
_chemical_name_systematic        
5,5-Difluoro-3,7-dimethyl-10-(2-(trimethylsilyl)phenyl)-5H-dipyrrolo[1,2-c:2',1'-f][1,3,2]diazaborinine
_symmetry_cell_setting           monoclinic
_symmetry_space_group_name_H-M   'P 21'
_symmetry_Int_Tables_number      4
_space_group_name_Hall           'P 2yb'
loop_
_symmetry_equiv_pos_site_id
_symmetry_equiv_pos_as_xyz
1 x,y,z
2 -x,1/2+y,-z
_cell_length_a                   6.880(3)
_cell_length_b                   10.870(5)
_cell_length_c                   26.448(12)
_cell_angle_alpha                90
_cell_angle_beta                 93.084(9)
_cell_angle_gamma                90
_cell_volume                     1975.06
_exptl_crystal_colour            orange
_exptl_crystal_description       prism
_cell_formula_units_Z            4
loop_
_atom_site_label
_atom_site_type_symbol
_atom_site_fract_x
_atom_site_fract_y
_atom_site_fract_z
C1 C 0.8880(14) 0.5064(10) 0.1020(3)
C2 C 1.0083(15) 0.4428(7) 0.1340(3)
C3 C 1.1924(12) 0.4831(7) 0.1574(3)
H1 H 1.2539 0.5586 0.1539
C4 C 1.2558(15) 0.3829(10) 0.1865(3)
H2 H 1.3720 0.3812 0.2062
C5 C 1.1237(13) 0.2845(10) 0.1826(3)
C6 C 1.1417(19) 0.1650(11) 0.2044(4)
H3 H 1.0193 0.1407 0.2171
H4 H 1.2393 0.1664 0.2318
H5 H 1.1787 0.1073 0.1792
C7 C 0.7140(14) 0.4501(7) 0.0803(3)
C8 C 0.5596(14) 0.4880(10) 0.0464(3)
H6 H 0.5480 0.5637 0.0301
C9 C 0.4302(17) 0.3922(11) 0.0422(4)
H7 H 0.3148 0.3915 0.0222
C10 C 0.4996(15) 0.2972(9) 0.0723(3)
C11 C 0.4243(14) 0.1675(10) 0.0808(4)
H8 H 0.5047 0.1094 0.0643
H9 H 0.2928 0.1610 0.0670
H10 H 0.4280 0.1503 0.1164
C12 C 0.9361(13) 0.6293(10) 0.0829(3)
C13 C 1.0454(10) 0.6435(9) 0.0430(3)
H11 H 1.0874 0.5740 0.0262
C14 C 1.0981(13) 0.7595(15) 0.0258(4)
H12 H 1.1734 0.7681 -0.0022
C15 C 1.0350(17) 0.8613(9) 0.0516(5)
H13 H 1.0709 0.9394 0.0412
C16 C 0.9288(12) 0.8506(9) 0.0895(4)
H14 H 0.8884 0.9224 0.1049
C17 C 0.8673(12) 0.7361(8) 0.1099(3)
C18 C 0.4692(15) 0.8150(11) 0.1418(6)
H15 H 0.4536 0.8061 0.1057
H16 H 0.4652 0.9007 0.1505
H17 H 0.3659 0.7724 0.1574
C19 C 0.815(2) 0.8663(9) 0.2084(5)
H18 H 0.7406 0.8717 0.2380
H19 H 0.8157 0.9448 0.1918
H20 H 0.9464 0.8428 0.2182
C20 C 0.6736(17) 0.6012(11) 0.2005(4)
H21 H 0.5585 0.6062 0.2194
H22 H 0.7848 0.5883 0.2234
H23 H 0.6615 0.5338 0.1771
Si1 Si 0.7050(4) 0.7494(3) 0.16444(13)
N1 N 0.6728(12) 0.3266(6) 0.0965(3)
N2 N 0.9769(9) 0.3204(6) 0.1512(2)
B1 B 0.7932(17) 0.2488(10) 0.1300(4)
F1 F 0.7032(10) 0.2155(7) 0.1748(2)
F2 F 0.8452(9) 0.1431(6) 0.1068(3)
C21 C 0.1198(12) 1.0212(6) 0.3987(3)
C22 C 0.2910(12) 1.0800(9) 0.4148(3)
C23 C 0.4324(14) 1.0367(10) 0.4493(4)
H24 H 0.4370 0.9587 0.4638
C24 C 0.5634(13) 1.1286(12) 0.4583(3)
H25 H 0.6742 1.1257 0.4799
C25 C 0.4991(12) 1.2288(10) 0.4285(4)
C26 C 0.6046(19) 1.3483(11) 0.4236(5)
H26 H 0.7068 1.3540 0.4497
H27 H 0.5152 1.4152 0.4269
H28 H 0.6596 1.3523 0.3910
C27 C -0.0145(11) 1.0811(8) 0.3658(3)
C28 C -0.1875(14) 1.0474(11) 0.3410(4)
H29 H -0.2460 0.9708 0.3439
C29 C -0.2596(14) 1.1384(9) 0.3125(4)
H30 H -0.3742 1.1382 0.2922
C30 C -0.1268(15) 1.2348(7) 0.3196(3)
C31 C -0.1408(18) 1.3626(9) 0.2941(5)
H31 H -0.1121 1.4252 0.3190
H32 H -0.2700 1.3746 0.2794
H33 H -0.0489 1.3674 0.2681
C32 C 0.0766(11) 0.8894(7) 0.4131(3)
C33 C 0.1327(10) 0.7852(7) 0.3895(3)
C34 C 0.0722(15) 0.6753(9) 0.4090(5)
H34 H 0.1101 0.6034 0.3932
C35 C -0.0424(12) 0.6641(12) 0.4508(4)
H35 H -0.0800 0.5874 0.4624
C36 C -0.0985(12) 0.7721(12) 0.4747(4)
H36 H -0.1744 0.7702 0.5028
C37 C -0.0357(18) 0.8828(11) 0.4547(5)
H37 H -0.0711 0.9558 0.4700
C38 C 0.3046(14) 0.9210(9) 0.2979(4)
H38 H 0.1758 0.9462 0.2866
H39 H 0.3813 0.9078 0.2691
H40 H 0.3638 0.9841 0.3190
C39 C 0.1973(19) 0.6516(12) 0.2923(4)
H41 H 0.2674 0.5771 0.3003
H42 H 0.2143 0.6735 0.2577
H43 H 0.0614 0.6392 0.2972
C40 C 0.5379(14) 0.7412(10) 0.3612(4)
H44 H 0.5714 0.7971 0.3884
H45 H 0.6297 0.7495 0.3354
H46 H 0.5407 0.6584 0.3739
Si2 Si 0.2914(4) 0.7771(2) 0.33440(9)
N3 N 0.3354(10) 1.1970(7) 0.4029(2)
N4 N 0.0244(14) 1.1987(8) 0.3522(3)
B2 B 0.1965(19) 1.2804(13) 0.3653(5)
F3 F 0.1297(13) 1.3807(7) 0.3948(3)
F4 F 0.3098(9) 1.3185(7) 0.3282(3)
loop_
_geom_bond_atom_site_label_1
_geom_bond_atom_site_label_2
_geom_bond_site_symmetry_1
_geom_bond_site_symmetry_2
C1 C2 1_555 1_555
C2 C3 1_555 1_555
C3 H1 1_555 1_555
C4 C3 1_555 1_555
H2 C4 1_555 1_555
C5 C4 1_555 1_555
C6 C5 1_555 1_555
H3 C6 1_555 1_555
H4 C6 1_555 1_555
H5 C6 1_555 1_555
C7 C1 1_555 1_555
C8 C7 1_555 1_555
H6 C8 1_555 1_555
C9 C8 1_555 1_555
H7 C9 1_555 1_555
C10 C9 1_555 1_555
C11 C10 1_555 1_555
H8 C11 1_555 1_555
H9 C11 1_555 1_555
H10 C11 1_555 1_555
C12 C1 1_555 1_555
C13 C12 1_555 1_555
H11 C13 1_555 1_555
C14 C13 1_555 1_555
H12 C14 1_555 1_555
C15 C14 1_555 1_555
H13 C15 1_555 1_555
C16 C15 1_555 1_555
H14 C16 1_555 1_555
C17 C12 1_555 1_555
C18 H15 1_555 1_555
H16 C18 1_555 1_555
H17 C18 1_555 1_555
C19 H18 1_555 1_555
H19 C19 1_555 1_555
H20 C19 1_555 1_555
C20 H21 1_555 1_555
H22 C20 1_555 1_555
H23 C20 1_555 1_555
Si1 C17 1_555 1_555
N1 C7 1_555 1_555
N2 C2 1_555 1_555
B1 N1 1_555 1_555
F1 B1 1_555 1_555
F2 B1 1_555 1_555
C21 C22 1_555 1_555
C22 C23 1_555 1_555
C23 H24 1_555 1_555
C24 C23 1_555 1_555
H25 C24 1_555 1_555
C25 C24 1_555 1_555
C26 C25 1_555 1_555
H26 C26 1_555 1_555
H27 C26 1_555 1_555
H28 C26 1_555 1_555
C27 C21 1_555 1_555
C28 C27 1_555 1_555
H29 C28 1_555 1_555
C29 C28 1_555 1_555
H30 C29 1_555 1_555
C30 C29 1_555 1_555
C31 C30 1_555 1_555
H31 C31 1_555 1_555
H32 C31 1_555 1_555
H33 C31 1_555 1_555
C32 C21 1_555 1_555
C33 C32 1_555 1_555
C34 C33 1_555 1_555
H34 C34 1_555 1_555
C35 C34 1_555 1_555
H35 C35 1_555 1_555
C36 C35 1_555 1_555
H36 C36 1_555 1_555
C37 C32 1_555 1_555
H37 C37 1_555 1_555
C38 H38 1_555 1_555
H39 C38 1_555 1_555
H40 C38 1_555 1_555
C39 H41 1_555 1_555
H42 C39 1_555 1_555
H43 C39 1_555 1_555
C40 H44 1_555 1_555
H45 C40 1_555 1_555
H46 C40 1_555 1_555
Si2 C33 1_555 1_555
N3 C22 1_555 1_555
N4 C27 1_555 1_555
B2 N3 1_555 1_555
F3 B2 1_555 1_555
F4 B2 1_555 1_555
C5 N2 1_555 1_555
C10 N1 1_555 1_555
C16 C17 1_555 1_555
C18 Si1 1_555 1_555
C19 Si1 1_555 1_555
C20 Si1 1_555 1_555
N2 B1 1_555 1_555
C25 N3 1_555 1_555
C30 N4 1_555 1_555
C36 C37 1_555 1_555
C38 Si2 1_555 1_555
C39 Si2 1_555 1_555
C40 Si2 1_555 1_555
N4 B2 1_555 1_555

#END
