
#######################################################################
#
#                 Cambridge Crystallographic Data Centre
#                                CCDC 
#
#######################################################################
#
# If this CIF has been generated from an entry in the Cambridge 
# Structural Database, then it will include bibliographic, chemical, 
# crystal, experimental, refinement or atomic coordinate data resulting 
# from the CCDC's data processing and validation procedures.
#
#######################################################################

data_BIBTEO
_chemical_formula_moiety         'C31 H38 B1 N1,0.5(C6 H6)'
_chemical_name_systematic        
'6-cyclohexyl-10,12-dimethyl-7-(2,4,6-trimethylphenyl)-5,6,7,8-tetrahydrodibenzo[d,f][1,2]azaborocine benzene solvate'
_symmetry_cell_setting           monoclinic
_symmetry_space_group_name_H-M   'P 21/c'
_symmetry_Int_Tables_number      14
_space_group_name_Hall           '-P 2ybc'
loop_
_symmetry_equiv_pos_site_id
_symmetry_equiv_pos_as_xyz
1 x,y,z
2 -x,1/2+y,1/2-z
3 -x,-y,-z
4 x,1/2-y,1/2+z
_cell_length_a                   7.9902(4)
_cell_length_b                   21.3281(10)
_cell_length_c                   17.0355(7)
_cell_angle_alpha                90
_cell_angle_beta                 102.778(2)
_cell_angle_gamma                90
_cell_volume                     2831.22
_exptl_crystal_colour            colorless
_exptl_crystal_description       Block
_cell_formula_units_Z            4
loop_
_atom_site_label
_atom_site_type_symbol
_atom_site_fract_x
_atom_site_fract_y
_atom_site_fract_z
B1 B 0.4444(4) 0.61990(13) 0.70739(17)
C1 C 0.4755(3) 0.69394(11) 0.71254(15)
H1 H 0.4273 0.7113 0.6584
H2 H 0.4057 0.7110 0.7489
N1 N 0.5313(3) 0.57659(9) 0.76308(11)
C2 C 0.6549(3) 0.72040(11) 0.74005(16)
C3 C 0.7458(3) 0.73949(12) 0.68375(16)
H3 H 0.6949 0.7351 0.6281
C4 C 0.9090(4) 0.76480(13) 0.70660(18)
C5 C 0.9814(4) 0.77039(13) 0.78772(18)
H4 H 1.0935 0.7875 0.8040
C6 C 0.8956(4) 0.75190(12) 0.84610(17)
C7 C 0.7305(3) 0.72714(11) 0.82185(15)
C8 C 0.9836(4) 0.75666(14) 0.93408(17)
H5 H 1.0886 0.7816 0.9397
H6 H 1.0129 0.7145 0.9558
H7 H 0.9065 0.7769 0.9638
C9 C 1.0043(5) 0.78473(19) 0.6437(2)
H8 H 1.0870 0.8176 0.6658
H9 H 0.9225 0.8009 0.5965
H10 H 1.0652 0.7486 0.6279
C10 C 0.6316(3) 0.70588(13) 0.88121(15)
C11 C 0.5957(3) 0.64211(12) 0.88759(15)
C12 C 0.4978(4) 0.62338(15) 0.94151(16)
H11 H 0.4754 0.5801 0.9474
C13 C 0.4325(4) 0.66718(18) 0.98668(18)
H12 H 0.3658 0.6538 1.0233
C14 C 0.4636(4) 0.73024(17) 0.97881(18)
H13 H 0.4163 0.7603 1.0089
C15 C 0.5633(4) 0.74924(14) 0.92725(17)
H14 H 0.5865 0.7926 0.9227
C16 C 0.6619(3) 0.59427(12) 0.83627(14)
H15 H 0.7639 0.6116 0.8198
H16 H 0.6983 0.5562 0.8688
C17 C 0.2973(3) 0.59955(10) 0.63287(14)
C18 C 0.3340(3) 0.59083(11) 0.55655(14)
C19 C 0.2004(3) 0.58164(12) 0.48917(15)
H17 H 0.2272 0.5757 0.4381
C20 C 0.0305(3) 0.58099(12) 0.49476(16)
C21 C -0.0044(3) 0.58854(12) 0.56995(16)
H18 H -0.1205 0.5877 0.5749
C22 C 0.1244(3) 0.59734(11) 0.63885(15)
C23 C 0.0765(4) 0.60341(14) 0.71932(17)
H19 H -0.0390 0.6212 0.7117
H20 H 0.1588 0.6310 0.7543
H21 H 0.0786 0.5619 0.7443
C24 C 0.5165(3) 0.59082(14) 0.54710(16)
H22 H 0.5705 0.5507 0.5658
H23 H 0.5797 0.6250 0.5791
H24 H 0.5184 0.5968 0.4903
C25 C -0.1118(4) 0.57335(14) 0.42059(17)
H25 H -0.1903 0.5402 0.4299
H26 H -0.0627 0.5619 0.3747
H27 H -0.1749 0.6129 0.4091
C26 C 0.5067(3) 0.50812(11) 0.75128(15)
H28 H 0.4179 0.5025 0.7003
C27 C 0.6685(3) 0.47580(12) 0.73851(16)
H29 H 0.7609 0.4803 0.7876
H30 H 0.7072 0.4962 0.6934
C28 C 0.6355(4) 0.40636(13) 0.71985(17)
H31 H 0.5519 0.4018 0.6678
H32 H 0.7438 0.3858 0.7150
C29 C 0.5661(4) 0.37463(13) 0.78557(18)
H33 H 0.5401 0.3302 0.7708
H34 H 0.6549 0.3754 0.8363
C30 C 0.4057(4) 0.40640(12) 0.79882(18)
H35 H 0.3682 0.3860 0.8442
H36 H 0.3127 0.4016 0.7501
C31 C 0.4376(3) 0.47595(12) 0.81718(16)
H37 H 0.3290 0.4963 0.8220
H38 H 0.5211 0.4807 0.8692
C32 C 0.0136(5) 0.56368(17) 0.0067(2)
H39 H 0.0234 0.6080 0.0115
C33 C -0.0717(4) 0.53104(18) 0.0546(2)
H40 H -0.1220 0.5525 0.0925
C34 C 0.0846(4) 0.53299(18) -0.0479(2)
H41 H 0.1433 0.5559 -0.0814
C32B C -0.0136(5) 0.43632(17) -0.0067(2)
H39B H -0.0234 0.3920 -0.0115
C33B C 0.0717(4) 0.46896(18) -0.0546(2)
H40B H 0.1220 0.4475 -0.0925
C34B C -0.0846(4) 0.46701(18) 0.0479(2)
H41B H -0.1433 0.4441 0.0814
loop_
_geom_bond_atom_site_label_1
_geom_bond_atom_site_label_2
_geom_bond_site_symmetry_1
_geom_bond_site_symmetry_2
B1 C1 1_555 1_555
C1 H1 1_555 1_555
H2 C1 1_555 1_555
N1 B1 1_555 1_555
C2 C1 1_555 1_555
C3 C2 1_555 1_555
H3 C3 1_555 1_555
C4 C3 1_555 1_555
C5 C4 1_555 1_555
H4 C5 1_555 1_555
C6 C5 1_555 1_555
C7 C2 1_555 1_555
C8 C6 1_555 1_555
H5 C8 1_555 1_555
H6 C8 1_555 1_555
H7 C8 1_555 1_555
C9 C4 1_555 1_555
H8 C9 1_555 1_555
H9 C9 1_555 1_555
H10 C9 1_555 1_555
C10 C7 1_555 1_555
C11 C10 1_555 1_555
C12 C11 1_555 1_555
H11 C12 1_555 1_555
C13 C12 1_555 1_555
H12 C13 1_555 1_555
C14 C13 1_555 1_555
H13 C14 1_555 1_555
C15 C10 1_555 1_555
H14 C15 1_555 1_555
C16 N1 1_555 1_555
H15 C16 1_555 1_555
H16 C16 1_555 1_555
C17 B1 1_555 1_555
C18 C17 1_555 1_555
C19 C18 1_555 1_555
H17 C19 1_555 1_555
C20 C19 1_555 1_555
C21 C20 1_555 1_555
H18 C21 1_555 1_555
C22 C17 1_555 1_555
C23 C22 1_555 1_555
H19 C23 1_555 1_555
H20 C23 1_555 1_555
H21 C23 1_555 1_555
C24 C18 1_555 1_555
H22 C24 1_555 1_555
H23 C24 1_555 1_555
H24 C24 1_555 1_555
C25 C20 1_555 1_555
H25 C25 1_555 1_555
H26 C25 1_555 1_555
H27 C25 1_555 1_555
C26 N1 1_555 1_555
H28 C26 1_555 1_555
C27 C26 1_555 1_555
H29 C27 1_555 1_555
H30 C27 1_555 1_555
C28 C27 1_555 1_555
H31 C28 1_555 1_555
H32 C28 1_555 1_555
C29 C28 1_555 1_555
H33 C29 1_555 1_555
H34 C29 1_555 1_555
C30 C29 1_555 1_555
H35 C30 1_555 1_555
H36 C30 1_555 1_555
C31 C26 1_555 1_555
H37 C31 1_555 1_555
H38 C31 1_555 1_555
C32 H39 1_555 1_555
C33 C32 1_555 1_555
H40 C33 1_555 1_555
C34 C32 1_555 1_555
H41 C34 1_555 1_555
C32B H39B 1_555 1_555
C33B C34 1_555 1_555
H40B C33B 1_555 1_555
C34B C33 1_555 1_555
H41B C34B 1_555 1_555
C6 C7 1_555 1_555
C11 C16 1_555 1_555
C14 C15 1_555 1_555
C21 C22 1_555 1_555
C30 C31 1_555 1_555
C32B C33B 1_555 1_555
C32B C34B 1_555 1_555

#END
