
#######################################################################
#
#                 Cambridge Crystallographic Data Centre
#                                CCDC 
#
#######################################################################
#
# If this CIF has been generated from an entry in the Cambridge 
# Structural Database, then it will include bibliographic, chemical, 
# crystal, experimental, refinement or atomic coordinate data resulting 
# from the CCDC's data processing and validation procedures.
#
#######################################################################

data_BIBTAI
_chemical_formula_moiety         'C16 H15 N1 O1'
_chemical_name_systematic        
N-Benzyl-3-azabicyclo(5.3.0)deca-5,7,9-trien-2-one
_symmetry_cell_setting           monoclinic
_symmetry_space_group_name_H-M   'P 21/n'
_symmetry_Int_Tables_number      14
_space_group_name_Hall           '-P 2yn'
loop_
_symmetry_equiv_pos_site_id
_symmetry_equiv_pos_as_xyz
1 x,y,z
2 1/2-x,1/2+y,1/2-z
3 -x,-y,-z
4 1/2+x,1/2-y,1/2+z
_cell_length_a                   6.215(1)
_cell_length_b                   12.323(1)
_cell_length_c                   17.747(2)
_cell_angle_alpha                90
_cell_angle_beta                 91.448(4)
_cell_angle_gamma                90
_cell_volume                     1358.76
_exptl_crystal_colour            colorless
_exptl_crystal_description       Block
_cell_formula_units_Z            4
loop_
_atom_site_label
_atom_site_type_symbol
_atom_site_fract_x
_atom_site_fract_y
_atom_site_fract_z
O1 O 0.17000(16) 0.11301(10) 0.21403(6)
N1 N -0.18448(18) 0.08988(10) 0.17897(6)
C1 C -0.1307(3) 0.37704(15) 0.17248(8)
H1 H 0.0028 0.3617 0.1948
C2 C -0.1567(3) 0.48038(15) 0.13187(10)
H2 H -0.0409 0.5278 0.1287
C3 C -0.3520(3) 0.50705(15) 0.09850(9)
H3 H -0.3725 0.5722 0.0728
C4 C -0.5197(3) 0.43044(16) 0.10526(8)
H4 H -0.6533 0.4466 0.0833
C5 C -0.4940(2) 0.32685(14) 0.14514(8)
H5 H -0.6102 0.2795 0.1473
C6 C -0.2998(2) 0.29833(13) 0.17968(7)
C7 C -0.2715(2) 0.18549(13) 0.22366(8)
H6 H -0.1758 0.1975 0.2669
H7 H -0.4105 0.1649 0.2428
C8 C 0.0265(2) 0.06327(13) 0.17703(8)
C9 C 0.0578(2) -0.03720(12) 0.12282(7)
H8 H 0.1441 -0.0140 0.0803
C10 C 0.1601(2) -0.14497(13) 0.15723(8)
H9 H 0.1976 -0.1440 0.2083
C11 C 0.1995(2) -0.24175(14) 0.11783(9)
H10 H 0.2738 -0.2967 0.1432
C12 C 0.1322(3) -0.26133(14) 0.04067(9)
H11 H 0.2199 -0.3050 0.0117
C13 C -0.0481(3) -0.22119(14) 0.00731(9)
H12 H -0.0765 -0.2432 -0.0421
C14 C -0.2076(3) -0.14538(13) 0.04065(8)
H13 H -0.3501 -0.1530 0.0242
C15 C -0.1650(2) -0.06477(12) 0.09369(8)
C16 C -0.3207(2) 0.01656(14) 0.13064(8)
H14 H -0.3985 0.0580 0.0923
H15 H -0.4240 -0.0217 0.1609
loop_
_geom_bond_atom_site_label_1
_geom_bond_atom_site_label_2
_geom_bond_site_symmetry_1
_geom_bond_site_symmetry_2
O1 C8 1_555 1_555
N1 C7 1_555 1_555
C1 H1 1_555 1_555
C2 C1 1_555 1_555
H2 C2 1_555 1_555
C3 C2 1_555 1_555
H3 C3 1_555 1_555
C4 C3 1_555 1_555
H4 C4 1_555 1_555
C5 C4 1_555 1_555
H5 C5 1_555 1_555
C6 C1 1_555 1_555
C7 C6 1_555 1_555
H6 C7 1_555 1_555
H7 C7 1_555 1_555
C8 N1 1_555 1_555
C9 C8 1_555 1_555
H8 C9 1_555 1_555
C10 C9 1_555 1_555
H9 C10 1_555 1_555
C11 C10 1_555 1_555
H10 C11 1_555 1_555
C12 C11 1_555 1_555
H11 C12 1_555 1_555
C13 C12 1_555 1_555
H12 C13 1_555 1_555
C14 C13 1_555 1_555
H13 C14 1_555 1_555
C15 C9 1_555 1_555
C16 N1 1_555 1_555
H14 C16 1_555 1_555
H15 C16 1_555 1_555
C5 C6 1_555 1_555
C14 C15 1_555 1_555
C15 C16 1_555 1_555

#END
