
#######################################################################
#
#                 Cambridge Crystallographic Data Centre
#                                CCDC 
#
#######################################################################
#
# If this CIF has been generated from an entry in the Cambridge 
# Structural Database, then it will include bibliographic, chemical, 
# crystal, experimental, refinement or atomic coordinate data resulting 
# from the CCDC's data processing and validation procedures.
#
#######################################################################

data_BIBYOC
_chemical_formula_moiety         'C18 H16 O3'
_chemical_name_systematic        
2-(2-Acetyl-2,3-dihydro-1-benzofuran-3-yl)-1-phenylethanone
_symmetry_cell_setting           monoclinic
_symmetry_space_group_name_H-M   'P 21'
_symmetry_Int_Tables_number      4
_space_group_name_Hall           'P 2yb'
loop_
_symmetry_equiv_pos_site_id
_symmetry_equiv_pos_as_xyz
1 x,y,z
2 -x,1/2+y,-z
_cell_length_a                   9.4360(13)
_cell_length_b                   5.6250(10)
_cell_length_c                   27.591(3)
_cell_angle_alpha                90
_cell_angle_beta                 99.553(5)
_cell_angle_gamma                90
_cell_volume                     1444.15
_exptl_crystal_colour            colorless
_exptl_crystal_description       prism
_cell_formula_units_Z            4
loop_
_atom_site_label
_atom_site_type_symbol
_atom_site_fract_x
_atom_site_fract_y
_atom_site_fract_z
O1 O 0.34500(16) 0.3565(3) 0.32988(7)
O2 O 0.6066(2) -0.0867(5) 0.32369(9)
O3 O 0.3196(3) -0.3730(4) 0.44047(8)
C1 C 0.4528(2) 0.1921(5) 0.35350(8)
H1 H 0.5173 0.2773 0.3792
C2 C 0.3746(2) -0.0053(4) 0.37788(7)
H2 H 0.4116 -0.1624 0.3710
C3 C 0.2232(2) 0.0279(4) 0.35062(7)
C4 C 0.2161(2) 0.2405(4) 0.32535(7)
C5 C 0.0904(2) 0.3262(5) 0.29826(8)
H3 H 0.0876 0.4699 0.2815
C6 C -0.0314(2) 0.1881(7) 0.29728(10)
H4 H -0.1182 0.2400 0.2795
C7 C -0.0265(2) -0.0252(7) 0.32225(10)
H5 H -0.1096 -0.1154 0.3208
C8 C 0.1002(2) -0.1057(5) 0.34924(8)
H6 H 0.1028 -0.2485 0.3663
C9 C 0.5407(2) 0.0977(6) 0.31603(9)
C10 C 0.5447(3) 0.2401(7) 0.27116(9)
H7 H 0.6154 0.1751 0.2536
H8 H 0.5694 0.4015 0.2802
H9 H 0.4521 0.2361 0.2506
C11 C 0.3827(2) 0.0305(5) 0.43322(8)
H10 H 0.4825 0.0495 0.4483
H11 H 0.3322 0.1754 0.4389
C12 C 0.3186(2) -0.1744(4) 0.45746(8)
C13 C 0.2560(2) -0.1336(5) 0.50285(7)
C14 C 0.2877(3) 0.0652(6) 0.53184(9)
H12 H 0.3469 0.1829 0.5225
C15 C 0.2314(4) 0.0905(7) 0.57516(11)
H13 H 0.2554 0.2227 0.5951
C16 C 0.1418(4) -0.0764(8) 0.58845(12)
H14 H 0.1040 -0.0579 0.6173
C17 C 0.1065(4) -0.2728(8) 0.55942(14)
H15 H 0.0431 -0.3852 0.5683
C18 C 0.1646(3) -0.3043(6) 0.51707(10)
H16 H 0.1425 -0.4399 0.4981
O4 O 0.49252(13) 0.6542(3) 0.16530(6)
O5 O 0.77386(19) 1.0411(5) 0.16201(10)
O6 O 0.3836(2) 1.3804(3) 0.05135(7)
C19 C 0.57542(18) 0.7848(4) 0.13475(7)
H17 H 0.5951 0.6818 0.1080
C20 C 0.48562(19) 0.9997(4) 0.11277(7)
H18 H 0.5433 1.1453 0.1174
C21 C 0.37030(18) 1.0040(4) 0.14516(6)
C22 C 0.38291(17) 0.8012(4) 0.17363(7)
C23 C 0.2933(2) 0.7526(5) 0.20750(8)
H19 H 0.3041 0.6159 0.2267
C24 C 0.1867(2) 0.9186(5) 0.21124(8)
H20 H 0.1246 0.8930 0.2336
C25 C 0.1709(2) 1.1203(5) 0.18254(8)
H21 H 0.0973 1.2267 0.1854
C26 C 0.2634(2) 1.1670(5) 0.14939(8)
H22 H 0.2536 1.3048 0.1305
C27 C 0.71773(19) 0.8539(5) 0.16680(8)
C28 C 0.7835(3) 0.6732(7) 0.20337(11)
H23 H 0.8838 0.7075 0.2132
H24 H 0.7725 0.5179 0.1888
H25 H 0.7363 0.6780 0.2316
C29 C 0.4233(2) 0.9652(4) 0.05837(7)
H26 H 0.5002 0.9212 0.0408
H27 H 0.3548 0.8353 0.0552
C30 C 0.3497(2) 1.1850(4) 0.03508(7)
C31 C 0.2346(2) 1.1596(4) -0.00883(7)
C32 C 0.1348(2) 1.3424(5) -0.01968(8)
H28 H 0.1394 1.4748 0.0007
C33 C 0.0286(3) 1.3275(6) -0.06080(10)
H29 H -0.0385 1.4491 -0.0678
C34 C 0.0223(3) 1.1323(6) -0.09145(9)
H30 H -0.0481 1.1236 -0.1193
C35 C 0.1201(3) 0.9507(5) -0.08076(9)
H31 H 0.1154 0.8194 -0.1014
C36 C 0.2256(2) 0.9619(4) -0.03942(7)
H32 H 0.2904 0.8372 -0.0321
loop_
_geom_bond_atom_site_label_1
_geom_bond_atom_site_label_2
_geom_bond_site_symmetry_1
_geom_bond_site_symmetry_2
O1 C1 1_555 1_555
O2 C9 1_555 1_555
O3 C12 1_555 1_555
C1 H1 1_555 1_555
C2 C1 1_555 1_555
H2 C2 1_555 1_555
C3 C2 1_555 1_555
C4 O1 1_555 1_555
C5 C4 1_555 1_555
H3 C5 1_555 1_555
C6 C5 1_555 1_555
H4 C6 1_555 1_555
C7 C6 1_555 1_555
H5 C7 1_555 1_555
C8 C3 1_555 1_555
H6 C8 1_555 1_555
C9 C1 1_555 1_555
C10 C9 1_555 1_555
H7 C10 1_555 1_555
H8 C10 1_555 1_555
H9 C10 1_555 1_555
C11 C2 1_555 1_555
H10 C11 1_555 1_555
H11 C11 1_555 1_555
C12 C11 1_555 1_555
C13 C12 1_555 1_555
C14 C13 1_555 1_555
H12 C14 1_555 1_555
C15 C14 1_555 1_555
H13 C15 1_555 1_555
C16 C15 1_555 1_555
H14 C16 1_555 1_555
C17 C16 1_555 1_555
H15 C17 1_555 1_555
C18 C13 1_555 1_555
H16 C18 1_555 1_555
O4 C19 1_555 1_555
O5 C27 1_555 1_555
O6 C30 1_555 1_555
C19 H17 1_555 1_555
C20 C19 1_555 1_555
H18 C20 1_555 1_555
C21 C20 1_555 1_555
C22 O4 1_555 1_555
C23 C22 1_555 1_555
H19 C23 1_555 1_555
C24 C23 1_555 1_555
H20 C24 1_555 1_555
C25 C24 1_555 1_555
H21 C25 1_555 1_555
C26 C21 1_555 1_555
H22 C26 1_555 1_555
C27 C19 1_555 1_555
C28 C27 1_555 1_555
H23 C28 1_555 1_555
H24 C28 1_555 1_555
H25 C28 1_555 1_555
C29 C20 1_555 1_555
H26 C29 1_555 1_555
H27 C29 1_555 1_555
C30 C29 1_555 1_555
C31 C30 1_555 1_555
C32 C31 1_555 1_555
H28 C32 1_555 1_555
C33 C32 1_555 1_555
H29 C33 1_555 1_555
C34 C33 1_555 1_555
H30 C34 1_555 1_555
C35 C34 1_555 1_555
H31 C35 1_555 1_555
C36 C31 1_555 1_555
H32 C36 1_555 1_555
C3 C4 1_555 1_555
C7 C8 1_555 1_555
C17 C18 1_555 1_555
C21 C22 1_555 1_555
C25 C26 1_555 1_555
C35 C36 1_555 1_555

#END
