
#######################################################################
#
#                 Cambridge Crystallographic Data Centre
#                                CCDC 
#
#######################################################################
#
# If this CIF has been generated from an entry in the Cambridge 
# Structural Database, then it will include bibliographic, chemical, 
# crystal, experimental, refinement or atomic coordinate data resulting 
# from the CCDC's data processing and validation procedures.
#
#######################################################################

data_BICSIR
_chemical_formula_moiety         'C20 H16 I1 N1 O5'
_chemical_name_systematic        
'4-Iodophenyl 4-(1,3-benzodioxol-5-yl)-4-cyano-5-oxohexanoate'
_symmetry_cell_setting           monoclinic
_symmetry_space_group_name_H-M   'C 2'
_symmetry_Int_Tables_number      5
_space_group_name_Hall           'C 2y'
loop_
_symmetry_equiv_pos_site_id
_symmetry_equiv_pos_as_xyz
1 x,y,z
2 -x,y,-z
3 1/2+x,1/2+y,z
4 1/2-x,1/2+y,-z
_cell_length_a                   31.7980(4)
_cell_length_b                   6.66530(8)
_cell_length_c                   18.1830(2)
_cell_angle_alpha                90
_cell_angle_beta                 96.6461(11)
_cell_angle_gamma                90
_cell_volume                     3827.87
_exptl_crystal_colour            'light yellow'
_exptl_crystal_description       needle
_cell_formula_units_Z            8
loop_
_atom_site_label
_atom_site_type_symbol
_atom_site_fract_x
_atom_site_fract_y
_atom_site_fract_z
I1 I 0.307712(12) -0.05897(7) 0.97675(2)
O1 O 0.18815(14) 0.4432(11) 0.7505(2)
O2 O 0.16393(16) 0.6557(9) 0.8300(2)
O3 O 0.09440(18) 0.7170(11) 0.3640(2)
O4 O 0.0582(2) 0.4834(10) 0.4262(2)
O5 O 0.0758(2) 1.2324(8) 0.6904(3)
N1 N 0.01642(19) 0.6468(10) 0.7105(3)
C1 C 0.25145(16) 0.4247(15) 0.8375(3)
H1 H 0.2589 0.5544 0.8253
C2 C 0.27826(16) 0.3097(12) 0.8874(3)
H2 H 0.3038 0.3630 0.9088
C3 C 0.26693(15) 0.1195(10) 0.9046(2)
C4 C 0.22827(19) 0.0392(12) 0.8759(3)
H3 H 0.2203 -0.0883 0.8898
C5 C 0.20177(19) 0.1514(14) 0.8263(4)
H4 H 0.1759 0.0992 0.8060
C6 C 0.21389(18) 0.3421(12) 0.8070(3)
C7 C 0.16287(15) 0.5910(10) 0.7688(3)
C8 C 0.13281(17) 0.6554(11) 0.7033(3)
H5 H 0.1103 0.5572 0.6951
H6 H 0.1478 0.6560 0.6598
C9 C 0.11334(17) 0.8601(9) 0.7112(3)
H7 H 0.1331 0.9623 0.6989
H8 H 0.1083 0.8799 0.7624
C10 C 0.07090(15) 0.8847(9) 0.6604(3)
C11 C 0.07699(14) 0.8442(9) 0.5787(2)
C12 C 0.09927(19) 0.9842(10) 0.5415(3)
H9 H 0.1091 1.1005 0.5659
C13 C 0.1072(2) 0.9540(12) 0.4682(3)
H10 H 0.1220 1.0470 0.4431
C14 C 0.09190(18) 0.7803(12) 0.4359(3)
C15 C 0.0791(3) 0.5166(16) 0.3611(4)
H11 H 0.1024 0.4232 0.3600
H12 H 0.0594 0.4968 0.3169
C16 C 0.07022(18) 0.6422(11) 0.4719(3)
C17 C 0.06148(17) 0.6664(10) 0.5440(3)
H13 H 0.0464 0.5718 0.5679
C18 C 0.03969(16) 0.7473(9) 0.6865(3)
C19 C 0.0538(2) 1.1020(8) 0.6648(3)
C20 C 0.0087(3) 1.1367(14) 0.6333(5)
H14 H -0.0097 1.1072 0.6702
H15 H 0.0018 1.0509 0.5912
H16 H 0.0051 1.2743 0.6182
I2 I 0.196837(15) 1.39555(8) 0.52731(2)
O6 O 0.30325(13) 0.8324(8) 0.7514(2)
O7 O 0.34438(15) 0.7167(10) 0.6684(2)
O8 O 0.44251(18) 0.8917(10) 1.0643(3)
O9 O 0.40108(16) 0.7005(10) 1.1334(2)
O10 O 0.49157(14) 0.5609(9) 0.8141(3)
N2 N 0.3968(2) 0.0789(9) 0.8123(3)
C21 C 0.2969(2) 1.1373(13) 0.6813(4)
H17 H 0.3236 1.1758 0.7028
C22 C 0.2729(2) 1.2658(11) 0.6322(3)
H18 H 0.2833 1.3909 0.6208
C23 C 0.23339(16) 1.2041(12) 0.6011(3)
C24 C 0.21790(17) 1.0158(13) 0.6166(4)
H19 H 0.1914 0.9747 0.5946
C25 C 0.24211(18) 0.8898(14) 0.6649(3)
H20 H 0.2323 0.7626 0.6752
C26 C 0.28078(16) 0.9553(12) 0.6973(3)
C27 C 0.33573(15) 0.7225(9) 0.7312(3)
C28 C 0.35776(15) 0.6107(10) 0.7952(3)
H21 H 0.3444 0.4807 0.7986
H22 H 0.3547 0.6837 0.8405
C29 C 0.40467(14) 0.5810(8) 0.7887(2)
H23 H 0.4189 0.7098 0.7939
H24 H 0.4079 0.5292 0.7398
C30 C 0.42589(13) 0.4355(9) 0.8475(2)
C31 C 0.41825(14) 0.4931(9) 0.9257(2)
C32 C 0.43628(17) 0.6725(10) 0.9546(3)
H25 H 0.4529 0.7519 0.9274
C33 C 0.42843(17) 0.7268(10) 1.0249(3)
C34 C 0.4263(2) 0.8716(14) 1.1344(3)
H26 H 0.4495 0.8611 1.1737
H27 H 0.4097 0.9891 1.1437
C35 C 0.40350(17) 0.6086(11) 1.0663(3)
C36 C 0.38602(16) 0.4381(11) 1.0402(3)
H28 H 0.3689 0.3624 1.0678
C37 C 0.39427(15) 0.3758(9) 0.9690(3)
H29 H 0.3835 0.2538 0.9505
C38 C 0.40966(17) 0.2312(8) 0.8296(3)
C39 C 0.47513(15) 0.4317(10) 0.8459(3)
C40 C 0.4990(2) 0.2672(15) 0.8875(4)
H30 H 0.5009 0.1541 0.8554
H31 H 0.4844 0.2284 0.9287
H32 H 0.5269 0.3132 0.9053
loop_
_geom_bond_atom_site_label_1
_geom_bond_atom_site_label_2
_geom_bond_site_symmetry_1
_geom_bond_site_symmetry_2
I1 C3 1_555 1_555
O1 C6 1_555 1_555
O2 C7 1_555 1_555
O3 C14 1_555 1_555
O4 C15 1_555 1_555
O5 C19 1_555 1_555
N1 C18 1_555 1_555
C1 H1 1_555 1_555
C2 C1 1_555 1_555
H2 C2 1_555 1_555
C3 C2 1_555 1_555
C4 C3 1_555 1_555
H3 C4 1_555 1_555
C5 C4 1_555 1_555
H4 C5 1_555 1_555
C6 C1 1_555 1_555
C7 O1 1_555 1_555
C8 C7 1_555 1_555
H5 C8 1_555 1_555
H6 C8 1_555 1_555
C9 C8 1_555 1_555
H7 C9 1_555 1_555
H8 C9 1_555 1_555
C10 C9 1_555 1_555
C11 C10 1_555 1_555
C12 C11 1_555 1_555
H9 C12 1_555 1_555
C13 C12 1_555 1_555
H10 C13 1_555 1_555
C14 C13 1_555 1_555
C15 O3 1_555 1_555
H11 C15 1_555 1_555
H12 C15 1_555 1_555
C16 O4 1_555 1_555
C17 C11 1_555 1_555
H13 C17 1_555 1_555
C18 C10 1_555 1_555
C19 C10 1_555 1_555
C20 C19 1_555 1_555
H14 C20 1_555 1_555
H15 C20 1_555 1_555
H16 C20 1_555 1_555
I2 C23 1_555 1_555
O6 C26 1_555 1_555
O7 C27 1_555 1_555
O8 C33 1_555 1_555
O9 C34 1_555 1_555
O10 C39 1_555 1_555
N2 C38 1_555 1_555
C21 H17 1_555 1_555
C22 C21 1_555 1_555
H18 C22 1_555 1_555
C23 C22 1_555 1_555
C24 C23 1_555 1_555
H19 C24 1_555 1_555
C25 C24 1_555 1_555
H20 C25 1_555 1_555
C26 C21 1_555 1_555
C27 O6 1_555 1_555
C28 C27 1_555 1_555
H21 C28 1_555 1_555
H22 C28 1_555 1_555
C29 C28 1_555 1_555
H23 C29 1_555 1_555
H24 C29 1_555 1_555
C30 C29 1_555 1_555
C31 C30 1_555 1_555
C32 C31 1_555 1_555
H25 C32 1_555 1_555
C33 C32 1_555 1_555
C34 O8 1_555 1_555
H26 C34 1_555 1_555
H27 C34 1_555 1_555
C35 O9 1_555 1_555
C36 C35 1_555 1_555
H28 C36 1_555 1_555
C37 C31 1_555 1_555
H29 C37 1_555 1_555
C38 C30 1_555 1_555
C39 C30 1_555 1_555
C40 C39 1_555 1_555
H30 C40 1_555 1_555
H31 C40 1_555 1_555
H32 C40 1_555 1_555
C5 C6 1_555 1_555
C14 C16 1_555 1_555
C16 C17 1_555 1_555
C25 C26 1_555 1_555
C33 C35 1_555 1_555
C36 C37 1_555 1_555

#END
