
#######################################################################
#
#                 Cambridge Crystallographic Data Centre
#                                CCDC 
#
#######################################################################
#
# If this CIF has been generated from an entry in the Cambridge 
# Structural Database, then it will include bibliographic, chemical, 
# crystal, experimental, refinement or atomic coordinate data resulting 
# from the CCDC's data processing and validation procedures.
#
#######################################################################

data_BICVAM
_chemical_formula_moiety         'C38 H38 Br2 N2 O2 S2'
_chemical_name_systematic        
3,6-bis(5-bromo-2-thienyl)-1,4-bis(4-hexylphenyl)pyrrolo[3,2-b]pyrrole-2,5(1H,4H)-dione
_symmetry_cell_setting           monoclinic
_symmetry_space_group_name_H-M   'P 21/c'
_symmetry_Int_Tables_number      14
_space_group_name_Hall           '-P 2ybc'
loop_
_symmetry_equiv_pos_site_id
_symmetry_equiv_pos_as_xyz
1 x,y,z
2 -x,1/2+y,1/2-z
3 -x,-y,-z
4 x,1/2-y,1/2+z
_cell_length_a                   18.397(2)
_cell_length_b                   8.5233(10)
_cell_length_c                   11.0281(7)
_cell_angle_alpha                90
_cell_angle_beta                 90.413(7)
_cell_angle_gamma                90
_cell_volume                     1729.2
_exptl_crystal_colour            red
_exptl_crystal_description       platelet
_cell_formula_units_Z            2
loop_
_atom_site_label
_atom_site_type_symbol
_atom_site_fract_x
_atom_site_fract_y
_atom_site_fract_z
Br1 Br -0.39400(3) 0.33237(6) 0.44589(4)
S1 S -0.23286(7) 0.40559(14) 0.39213(10)
O1 O -0.10160(16) 0.4137(4) 0.2549(2)
N1 N 0.00892(19) 0.4837(4) 0.3429(3)
C1 C -0.2981(2) 0.3621(5) 0.4978(4)
C2 C -0.1658(2) 0.4138(5) 0.5045(3)
C3 C -0.0915(2) 0.4508(5) 0.4730(3)
C4 C -0.0658(3) 0.4467(5) 0.3450(4)
C5 C 0.0566(2) 0.4509(5) 0.2428(3)
C6 C 0.1065(2) 0.3316(5) 0.2554(4)
H1 H 0.1066 0.2678 0.3261
C7 C 0.1565(2) 0.3051(5) 0.1646(4)
H2 H 0.1916 0.2241 0.1738
C8 C 0.1558(2) 0.3966(5) 0.0593(3)
C9 C 0.1034(2) 0.5121(5) 0.0466(3)
H3 H 0.1014 0.5732 -0.0254
C10 C 0.0534(2) 0.5396(5) 0.1387(3)
H4 H 0.0174 0.6189 0.1297
C11 C 0.2148(2) 0.3735(5) -0.0341(4)
H5 H 0.2018 0.4328 -0.1083
H6 H 0.2173 0.2610 -0.0559
C12 C 0.2896(2) 0.4273(6) 0.0107(4)
H7 H 0.2857 0.5365 0.0407
H8 H 0.3047 0.3605 0.0799
C13 C 0.3481(3) 0.4208(6) -0.0858(4)
H9 H 0.3931 0.4685 -0.0526
H10 H 0.3323 0.4850 -0.1560
C14 C 0.3656(3) 0.2550(6) -0.1304(4)
H11 H 0.3793 0.1889 -0.0600
H12 H 0.3215 0.2090 -0.1679
C15 C 0.4267(3) 0.2518(6) -0.2216(4)
H13 H 0.4699 0.3034 -0.1854
H14 H 0.4119 0.3134 -0.2937
C16 C 0.4478(3) 0.0869(6) -0.2620(4)
H15 H 0.4646 0.0264 -0.1917
H16 H 0.4868 0.0935 -0.3218
H17 H 0.4054 0.0351 -0.2986
C17 C -0.0313(2) 0.4901(5) 0.5385(3)
C18 C -0.1958(2) 0.3782(5) 0.6150(4)
H18 H -0.1679 0.3737 0.6878
C19 C -0.2710(3) 0.3490(5) 0.6121(4)
H19 H -0.2992 0.3234 0.6812
Br1B Br 0.39400(3) 0.66763(6) 0.55411(4)
S1B S 0.23286(7) 0.59441(14) 0.60787(10)
O1B O 0.10160(16) 0.5863(4) 0.7451(2)
N1B N -0.00892(19) 0.5163(4) 0.6571(3)
C1B C 0.2981(2) 0.6379(5) 0.5022(4)
C2B C 0.1658(2) 0.5862(5) 0.4955(3)
C3B C 0.0915(2) 0.5492(5) 0.5270(3)
C4B C 0.0658(3) 0.5533(5) 0.6550(4)
C5B C -0.0566(2) 0.5491(5) 0.7572(3)
C6B C -0.1065(2) 0.6684(5) 0.7446(4)
H1B H -0.1066 0.7322 0.6739
C7B C -0.1565(2) 0.6949(5) 0.8354(4)
H2B H -0.1916 0.7759 0.8262
C8B C -0.1558(2) 0.6034(5) 0.9407(3)
C9B C -0.1034(2) 0.4879(5) 0.9534(3)
H3B H -0.1014 0.4268 1.0254
C10B C -0.0534(2) 0.4604(5) 0.8613(3)
H4B H -0.0174 0.3811 0.8703
C11B C -0.2148(2) 0.6265(5) 1.0341(4)
H5B H -0.2018 0.5672 1.1083
H6B H -0.2173 0.7390 1.0559
C12B C -0.2896(2) 0.5727(6) 0.9893(4)
H7B H -0.2857 0.4635 0.9593
H8B H -0.3047 0.6395 0.9201
C13B C -0.3481(3) 0.5792(6) 1.0858(4)
H9B H -0.3931 0.5315 1.0526
H10B H -0.3323 0.5150 1.1560
C14B C -0.3656(3) 0.7450(6) 1.1304(4)
H11B H -0.3793 0.8111 1.0600
H12B H -0.3215 0.7910 1.1679
C15B C -0.4267(3) 0.7482(6) 1.2216(4)
H13B H -0.4699 0.6966 1.1854
H14B H -0.4119 0.6866 1.2937
C16B C -0.4478(3) 0.9131(6) 1.2620(4)
H15B H -0.4646 0.9736 1.1917
H16B H -0.4868 0.9065 1.3218
H17B H -0.4054 0.9649 1.2986
C17B C 0.0313(2) 0.5099(5) 0.4615(3)
C18B C 0.1958(2) 0.6218(5) 0.3850(4)
H18B H 0.1679 0.6263 0.3122
C19B C 0.2710(3) 0.6510(5) 0.3879(4)
H19B H 0.2992 0.6766 0.3188
loop_
_geom_bond_atom_site_label_1
_geom_bond_atom_site_label_2
_geom_bond_site_symmetry_1
_geom_bond_site_symmetry_2
Br1 C1 1_555 1_555
S1 C1 1_555 1_555
O1 C4 1_555 1_555
N1 C4 1_555 1_555
C1 C19 1_555 1_555
C2 S1 1_555 1_555
C3 C2 1_555 1_555
C4 C3 1_555 1_555
C5 N1 1_555 1_555
C6 C5 1_555 1_555
H1 C6 1_555 1_555
C7 C6 1_555 1_555
H2 C7 1_555 1_555
C8 C7 1_555 1_555
C9 C8 1_555 1_555
H3 C9 1_555 1_555
C10 C5 1_555 1_555
H4 C10 1_555 1_555
C11 C8 1_555 1_555
H5 C11 1_555 1_555
H6 C11 1_555 1_555
C12 C11 1_555 1_555
H7 C12 1_555 1_555
H8 C12 1_555 1_555
C13 C12 1_555 1_555
H9 C13 1_555 1_555
H10 C13 1_555 1_555
C14 C13 1_555 1_555
H11 C14 1_555 1_555
H12 C14 1_555 1_555
C15 C14 1_555 1_555
H13 C15 1_555 1_555
H14 C15 1_555 1_555
C16 C15 1_555 1_555
H15 C16 1_555 1_555
H16 C16 1_555 1_555
H17 C16 1_555 1_555
C17 C3 1_555 1_555
C18 C2 1_555 1_555
H18 C18 1_555 1_555
C19 C18 1_555 1_555
H19 C19 1_555 1_555
Br1B C1B 1_555 1_555
S1B C1B 1_555 1_555
O1B C4B 1_555 1_555
N1B C17 1_555 1_555
C1B C19B 1_555 1_555
C2B S1B 1_555 1_555
C3B C2B 1_555 1_555
C4B N1B 1_555 1_555
C5B N1B 1_555 1_555
C6B C5B 1_555 1_555
H1B C6B 1_555 1_555
C7B C6B 1_555 1_555
H2B C7B 1_555 1_555
C8B C7B 1_555 1_555
C9B C8B 1_555 1_555
H3B C9B 1_555 1_555
C10B C5B 1_555 1_555
H4B C10B 1_555 1_555
C11B C8B 1_555 1_555
H5B C11B 1_555 1_555
H6B C11B 1_555 1_555
C12B C11B 1_555 1_555
H7B C12B 1_555 1_555
H8B C12B 1_555 1_555
C13B C12B 1_555 1_555
H9B C13B 1_555 1_555
H10B C13B 1_555 1_555
C14B C13B 1_555 1_555
H11B C14B 1_555 1_555
H12B C14B 1_555 1_555
C15B C14B 1_555 1_555
H13B C15B 1_555 1_555
H14B C15B 1_555 1_555
C16B C15B 1_555 1_555
H15B C16B 1_555 1_555
H16B C16B 1_555 1_555
H17B C16B 1_555 1_555
C17B N1 1_555 1_555
C18B C2B 1_555 1_555
H18B C18B 1_555 1_555
C19B C18B 1_555 1_555
H19B C19B 1_555 1_555
C9 C10 1_555 1_555
C17 C17B 1_555 1_555
C3B C4B 1_555 1_555
C3B C17B 1_555 1_555
C9B C10B 1_555 1_555

#END
