
#######################################################################
#
#                 Cambridge Crystallographic Data Centre
#                                CCDC 
#
#######################################################################
#
# If this CIF has been generated from an entry in the Cambridge 
# Structural Database, then it will include bibliographic, chemical, 
# crystal, experimental, refinement or atomic coordinate data resulting 
# from the CCDC's data processing and validation procedures.
#
#######################################################################

data_BIDBAR
_chemical_formula_moiety         'C12 H27 N1 O3'
_chemical_name_systematic        1,4-bis(t-Butoxy)-3(R)-amino-2(S)-butanol
_symmetry_cell_setting           monoclinic
_symmetry_space_group_name_H-M   'P 21'
_symmetry_Int_Tables_number      4
_space_group_name_Hall           'P 2yb'
loop_
_symmetry_equiv_pos_site_id
_symmetry_equiv_pos_as_xyz
1 x,y,z
2 -x,1/2+y,-z
_cell_length_a                   6.0945(2)
_cell_length_b                   28.5243(7)
_cell_length_c                   17.5379(6)
_cell_angle_alpha                90
_cell_angle_beta                 90.0460(10)
_cell_angle_gamma                90
_cell_volume                     3048.81
_exptl_crystal_colour            colorless
_chemical_melting_point          81-82deg.C
_cell_formula_units_Z            8
_exptl_crystal_recrystallization_method hexane
loop_
_atom_site_label
_atom_site_type_symbol
_atom_site_fract_x
_atom_site_fract_y
_atom_site_fract_z
O1 O 0.9089(11) 0.0904(3) 1.3296(3)
O2 O 0.9943(9) 0.0596(2) 1.1323(3)
O3 O 0.4744(10) 0.1580(2) 1.1704(4)
N1 N 0.5372(11) 0.0626(2) 1.1330(4)
C1 C 1.0178(18) 0.1122(4) 1.3940(6)
C2 C 1.0305(14) 0.0839(3) 1.2622(4)
C3 C 0.8818(13) 0.0613(3) 1.2036(5)
C4 C 0.6612(13) 0.0869(3) 1.1926(4)
C5 C 0.6857(15) 0.1380(3) 1.1768(5)
C6 C 0.4547(15) 0.2058(3) 1.1505(5)
C7 C 0.5522(23) 0.2175(5) 1.0746(7)
C8 C 0.2111(16) 0.2158(4) 1.1510(7)
C9 C 0.5652(22) 0.2351(4) 1.2158(8)
C10 C 1.2046(25) 0.0826(6) 1.4213(7)
C11 C 0.8530(26) 0.1123(9) 1.4564(8)
C12 C 1.0995(38) 0.1599(4) 1.3733(8)
H1 H 1.1167(9) 0.0711(2) 1.1371(3)
H2 H 0.4880(11) 0.0780(2) 1.0945(4)
H3 H 0.5136(11) 0.0330(2) 1.1366(4)
H4 H 1.1560(14) 0.0639(3) 1.2721(4)
H5 H 1.0834(14) 0.1138(3) 1.2435(4)
H6 H 0.8512(13) 0.0291(3) 1.2199(5)
H7 H 0.5784(13) 0.0838(3) 1.2402(4)
H8 H 0.7662(15) 0.1530(3) 1.2178(5)
H9 H 0.7666(15) 0.1427(3) 1.1297(5)
H10 H 0.7067(23) 0.2108(5) 1.0754(7)
H11 H 0.5297(23) 0.2500(5) 1.0638(7)
H12 H 0.4829(23) 0.1988(5) 1.0358(7)
H13 H 0.1518(16) 0.2082(4) 1.2002(7)
H14 H 0.1399(16) 0.1972(4) 1.1127(7)
H15 H 0.1869(16) 0.2485(4) 1.1406(7)
H16 H 0.4998(22) 0.2270(4) 1.2638(8)
H17 H 0.5440(22) 0.2679(4) 1.2062(8)
H18 H 0.7194(22) 0.2283(4) 1.2173(8)
H19 H 1.3161(25) 0.0814(6) 1.3827(7)
H20 H 1.1529(25) 0.0515(6) 1.4317(7)
H21 H 1.2646(25) 0.0959(6) 1.4670(7)
H22 H 0.8075(26) 0.0808(9) 1.4669(8)
H23 H 0.7280(26) 0.1306(9) 1.4412(8)
H24 H 0.9169(26) 0.1258(9) 1.5014(8)
H25 H 1.2052(38) 0.1573(4) 1.3330(8)
H26 H 1.1671(38) 0.1741(4) 1.4170(8)
H27 H 0.9788(38) 0.1789(4) 1.3566(8)
O4 O 0.6119(11) 0.1611(2) 0.6466(4)
O5 O 0.5417(9) 0.0390(2) 0.6930(3)
O6 O 1.0569(10) 0.1010(2) 0.8186(3)
N2 N 0.9980(13) 0.0430(3) 0.6938(5)
C13 C 0.4921(20) 0.2039(4) 0.6461(7)
C14 C 0.4966(14) 0.1201(3) 0.6691(5)
C15 C 0.6503(13) 0.0786(3) 0.6636(4)
C16 C 0.8693(13) 0.0849(3) 0.7037(5)
C17 C 0.8439(15) 0.0977(3) 0.7863(5)
C18 C 1.0772(18) 0.1002(4) 0.9009(6)
C19 C 0.9533(24) 0.1403(6) 0.9353(8)
C20 C 1.3137(19) 0.1022(7) 0.9143(7)
C21 C 0.9838(30) 0.0537(6) 0.9310(8)
C22 C 0.6551(35) 0.2386(5) 0.6175(12)
C23 C 0.2974(28) 0.2016(6) 0.5970(12)
C24 C 0.4169(44) 0.2158(6) 0.7218(10)
H28 H 0.4182(9) 0.0464(2) 0.7071(3)
H29 H 1.0497(13) 0.0286(3) 0.7329(5)
H30 H 1.0231(13) 0.0324(3) 0.6487(5)
H31 H 0.3707(14) 0.1153(3) 0.6361(5)
H32 H 0.4444(14) 0.1235(3) 0.7211(5)
H33 H 0.6796(13) 0.0728(3) 0.6095(4)
H34 H 0.9469(13) 0.1107(3) 0.6784(5)
H35 H 0.7679(15) 0.1275(3) 0.7910(5)
H36 H 0.7591(15) 0.0739(3) 0.8126(5)
H37 H 0.7997(24) 0.1368(6) 0.9245(8)
H38 H 1.0053(24) 0.1692(6) 0.9139(8)
H39 H 0.9756(24) 0.1405(6) 0.9895(8)
H40 H 1.3828(19) 0.0756(7) 0.8909(7)
H41 H 1.3420(19) 0.1019(7) 0.9681(7)
H42 H 1.3717(19) 0.1305(7) 0.8926(7)
H43 H 0.8285(30) 0.0528(6) 0.9220(8)
H44 H 1.0118(30) 0.0513(6) 0.9847(8)
H45 H 1.0528(30) 0.0280(6) 0.9050(8)
H46 H 0.7017(35) 0.2298(5) 0.5672(12)
H47 H 0.7796(35) 0.2393(5) 0.6511(12)
H48 H 0.5889(35) 0.2691(5) 0.6158(12)
H49 H 0.3409(28) 0.1937(6) 0.5460(12)
H50 H 0.2251(28) 0.2315(6) 0.5968(12)
H51 H 0.1986(28) 0.1782(6) 0.6160(12)
H52 H 0.5403(44) 0.2176(6) 0.7557(10)
H53 H 0.3169(44) 0.1912(6) 0.7395(10)
H54 H 0.3436(44) 0.2456(6) 0.7204(10)
O7 O -0.4094(11) 0.4351(3) 1.0787(4)
O8 O -0.4973(9) 0.4659(2) 0.8822(3)
O9 O 0.0238(9) 0.3674(2) 0.9176(4)
N3 N -0.0400(12) 0.4628(3) 0.8831(4)
C25 C -0.5180(19) 0.4144(4) 1.1442(5)
C26 C -0.5292(14) 0.4414(3) 1.0109(5)
C27 C -0.3822(13) 0.4636(3) 0.9536(5)
C28 C -0.1661(13) 0.4391(3) 0.9425(4)
C29 C -0.1864(14) 0.3866(3) 0.9239(6)
C30 C 0.0393(14) 0.3187(4) 0.8974(6)
C31 C -0.0676(25) 0.2885(5) 0.9575(9)
C32 C 0.2810(19) 0.3094(4) 0.8970(8)
C33 C -0.0628(26) 0.3093(6) 0.8217(9)
C34 C -0.6158(36) 0.3671(5) 1.1235(8)
C35 C -0.3447(27) 0.4133(9) 1.2054(8)
C36 C -0.7017(25) 0.4461(6) 1.1710(7)
H55 H -0.6202(9) 0.4546(2) 0.8873(3)
H56 H -0.0935(12) 0.4870(3) 0.8605(4)
H57 H 0.0878(12) 0.4525(3) 0.8707(4)
H58 H -0.6553(14) 0.4614(3) 1.0202(5)
H59 H -0.5814(14) 0.4114(3) 0.9921(5)
H60 H -0.3520(13) 0.4957(3) 0.9702(5)
H61 H -0.0834(13) 0.4419(3) 0.9902(4)
H62 H -0.2672(14) 0.3708(3) 0.9639(6)
H63 H -0.2655(14) 0.3825(3) 0.8763(6)
H64 H -0.0011(25) 0.2947(5) 1.0061(9)
H65 H -0.0482(25) 0.2561(5) 0.9447(9)
H66 H -0.2214(25) 0.2956(5) 0.9600(9)
H67 H 0.3407(19) 0.3159(4) 0.9465(8)
H68 H 0.3505(19) 0.3292(4) 0.8598(8)
H69 H 0.3070(19) 0.2772(4) 0.8842(8)
H70 H -0.2173(26) 0.3157(6) 0.8242(9)
H71 H -0.0403(26) 0.2770(6) 0.8082(9)
H72 H 0.0035(26) 0.3291(6) 0.7839(9)
H73 H -0.7238(36) 0.3712(5) 1.0842(8)
H74 H -0.6836(36) 0.3536(5) 1.1677(8)
H75 H -0.5018(36) 0.3467(5) 1.1055(8)
H76 H -0.2262(27) 0.3934(9) 1.1896(8)
H77 H -0.4070(27) 0.4014(9) 1.2517(8)
H78 H -0.2905(27) 0.4445(9) 1.2138(8)
H79 H -0.8143(25) 0.4473(6) 1.1328(7)
H80 H -0.6452(25) 0.4770(6) 1.1797(7)
H81 H -0.7620(25) 0.4339(6) 1.2176(7)
O10 O 0.8926(11) 0.3707(2) 1.3997(4)
O11 O 0.9563(10) 0.4927(2) 1.4417(3)
O12 O 0.4463(11) 0.4293(3) 1.5666(3)
N4 N 0.5031(12) 0.4879(3) 1.4428(4)
C37 C 1.0053(21) 0.3268(4) 1.4013(7)
C38 C 1.0024(16) 0.4120(4) 1.4206(5)
C39 C 0.8483(14) 0.4516(3) 1.4118(5)
C40 C 0.6297(13) 0.4460(3) 1.4525(4)
C41 C 0.6593(14) 0.4332(3) 1.5355(5)
C42 C 0.4283(17) 0.4284(4) 1.6493(6)
C43 C 0.1849(20) 0.4260(7) 1.6638(7)
C44 C 0.5188(28) 0.4741(6) 1.6802(8)
C45 C 0.5407(23) 0.3866(6) 1.6802(7)
C46 C 0.8313(31) 0.2909(5) 1.3886(13)
C47 C 1.1822(38) 0.3266(6) 1.3463(12)
C48 C 1.0984(37) 0.3183(6) 1.4780(10)
H82 H 1.0790(10) 0.4856(2) 1.4571(3)
H83 H 0.4526(12) 0.5026(3) 1.4820(4)
H84 H 0.4754(12) 0.4984(3) 1.3977(4)
H85 H 1.1296(16) 0.4166(4) 1.3883(5)
H86 H 1.0518(16) 0.4099(4) 1.4731(5)
H87 H 0.8201(14) 0.4565(3) 1.3574(5)
H88 H 0.5503(13) 0.4203(3) 1.4278(4)
H89 H 0.7372(14) 0.4037(3) 1.5401(5)
H90 H 0.7421(14) 0.4573(3) 1.5619(5)
H91 H 0.1155(20) 0.4534(7) 1.6433(7)
H92 H 0.1586(20) 0.4244(7) 1.7176(7)
H93 H 0.1257(20) 0.3986(7) 1.6395(7)
H94 H 0.4399(28) 0.4999(6) 1.6581(8)
H95 H 0.6715(28) 0.4766(6) 1.6673(8)
H96 H 0.5025(28) 0.4747(6) 1.7346(8)
H97 H 0.6953(23) 0.3889(6) 1.6703(7)
H98 H 0.4834(23) 0.3589(6) 1.6561(7)
H99 H 0.5165(23) 0.3848(6) 1.7342(7)
H100 H 0.7215(31) 0.2937(5) 1.4276(13)
H101 H 0.8951(31) 0.2601(5) 1.3906(13)
H102 H 0.7650(31) 0.2957(5) 1.3396(13)
H103 H 1.1239(38) 0.3320(6) 1.2962(12)
H104 H 1.2551(38) 0.2968(6) 1.3475(12)
H105 H 1.2851(38) 0.3509(6) 1.3588(12)
H106 H 0.9825(37) 0.3182(6) 1.5150(10)
H107 H 1.2015(37) 0.3426(6) 1.4901(10)
H108 H 1.1717(37) 0.2885(6) 1.4787(10)
loop_
_geom_bond_atom_site_label_1
_geom_bond_atom_site_label_2
_geom_bond_site_symmetry_1
_geom_bond_site_symmetry_2
O1 C1 1_555 1_555
O2 C3 1_555 1_555
O3 C5 1_555 1_555
N1 C4 1_555 1_555
C1 C10 1_555 1_555
C2 O1 1_555 1_555
C3 C2 1_555 1_555
C4 C3 1_555 1_555
C5 C4 1_555 1_555
C6 O3 1_555 1_555
C7 C6 1_555 1_555
C8 C6 1_555 1_555
C9 C6 1_555 1_555
C10 H19 1_555 1_555
C11 C1 1_555 1_555
C12 C1 1_555 1_555
O4 C13 1_555 1_555
O5 C15 1_555 1_555
O6 C17 1_555 1_555
N2 C16 1_555 1_555
C13 C22 1_555 1_555
C14 O4 1_555 1_555
C15 C14 1_555 1_555
C16 C15 1_555 1_555
C17 C16 1_555 1_555
C18 O6 1_555 1_555
C19 C18 1_555 1_555
C20 C18 1_555 1_555
C21 C18 1_555 1_555
C22 H46 1_555 1_555
C23 C13 1_555 1_555
C24 C13 1_555 1_555
O7 C25 1_555 1_555
O8 C27 1_555 1_555
O9 C29 1_555 1_555
N3 C28 1_555 1_555
C25 C34 1_555 1_555
C26 O7 1_555 1_555
C27 C26 1_555 1_555
C28 C27 1_555 1_555
C29 C28 1_555 1_555
C30 O9 1_555 1_555
C31 C30 1_555 1_555
C32 C30 1_555 1_555
C33 C30 1_555 1_555
C34 H73 1_555 1_555
C35 C25 1_555 1_555
C36 C25 1_555 1_555
O10 C37 1_555 1_555
O11 C39 1_555 1_555
O12 C41 1_555 1_555
N4 C40 1_555 1_555
C37 C46 1_555 1_555
C38 O10 1_555 1_555
C39 C38 1_555 1_555
C40 C39 1_555 1_555
C41 C40 1_555 1_555
C42 O12 1_555 1_555
C43 C42 1_555 1_555
C44 C42 1_555 1_555
C45 C42 1_555 1_555
C46 H100 1_555 1_555
C47 C37 1_555 1_555
C48 C37 1_555 1_555
H1 O2 1_555 1_555
H2 N1 1_555 1_555
H3 N1 1_555 1_555
H4 C2 1_555 1_555
H5 C2 1_555 1_555
H6 C3 1_555 1_555
H7 C4 1_555 1_555
H8 C5 1_555 1_555
H9 C5 1_555 1_555
H10 C7 1_555 1_555
H11 C7 1_555 1_555
H12 C7 1_555 1_555
H13 C8 1_555 1_555
H14 C8 1_555 1_555
H15 C8 1_555 1_555
H16 C9 1_555 1_555
H17 C9 1_555 1_555
H18 C9 1_555 1_555
H20 C10 1_555 1_555
H21 C10 1_555 1_555
H22 C11 1_555 1_555
H23 C11 1_555 1_555
H24 C11 1_555 1_555
H25 C12 1_555 1_555
H26 C12 1_555 1_555
H27 C12 1_555 1_555
H28 O5 1_555 1_555
H29 N2 1_555 1_555
H30 N2 1_555 1_555
H31 C14 1_555 1_555
H32 C14 1_555 1_555
H33 C15 1_555 1_555
H34 C16 1_555 1_555
H35 C17 1_555 1_555
H36 C17 1_555 1_555
H37 C19 1_555 1_555
H38 C19 1_555 1_555
H39 C19 1_555 1_555
H40 C20 1_555 1_555
H41 C20 1_555 1_555
H42 C20 1_555 1_555
H43 C21 1_555 1_555
H44 C21 1_555 1_555
H45 C21 1_555 1_555
H47 C22 1_555 1_555
H48 C22 1_555 1_555
H49 C23 1_555 1_555
H50 C23 1_555 1_555
H51 C23 1_555 1_555
H52 C24 1_555 1_555
H53 C24 1_555 1_555
H54 C24 1_555 1_555
H55 O8 1_555 1_555
H56 N3 1_555 1_555
H57 N3 1_555 1_555
H58 C26 1_555 1_555
H59 C26 1_555 1_555
H60 C27 1_555 1_555
H61 C28 1_555 1_555
H62 C29 1_555 1_555
H63 C29 1_555 1_555
H64 C31 1_555 1_555
H65 C31 1_555 1_555
H66 C31 1_555 1_555
H67 C32 1_555 1_555
H68 C32 1_555 1_555
H69 C32 1_555 1_555
H70 C33 1_555 1_555
H71 C33 1_555 1_555
H72 C33 1_555 1_555
H74 C34 1_555 1_555
H75 C34 1_555 1_555
H76 C35 1_555 1_555
H77 C35 1_555 1_555
H78 C35 1_555 1_555
H79 C36 1_555 1_555
H80 C36 1_555 1_555
H81 C36 1_555 1_555
H82 O11 1_555 1_555
H83 N4 1_555 1_555
H84 N4 1_555 1_555
H85 C38 1_555 1_555
H86 C38 1_555 1_555
H87 C39 1_555 1_555
H88 C40 1_555 1_555
H89 C41 1_555 1_555
H90 C41 1_555 1_555
H91 C43 1_555 1_555
H92 C43 1_555 1_555
H93 C43 1_555 1_555
H94 C44 1_555 1_555
H95 C44 1_555 1_555
H96 C44 1_555 1_555
H97 C45 1_555 1_555
H98 C45 1_555 1_555
H99 C45 1_555 1_555
H101 C46 1_555 1_555
H102 C46 1_555 1_555
H103 C47 1_555 1_555
H104 C47 1_555 1_555
H105 C47 1_555 1_555
H106 C48 1_555 1_555
H107 C48 1_555 1_555
H108 C48 1_555 1_555

#END
