
#######################################################################
#
#                 Cambridge Crystallographic Data Centre
#                                CCDC 
#
#######################################################################
#
# If this CIF has been generated from an entry in the Cambridge 
# Structural Database, then it will include bibliographic, chemical, 
# crystal, experimental, refinement or atomic coordinate data resulting 
# from the CCDC's data processing and validation procedures.
#
#######################################################################

data_BIDKOR
_chemical_formula_moiety         'C19 H19 B1 Cl2 O2'
_chemical_name_systematic        
dichloro-(3-(isopropylidene)-1-oxo-1-p-tolyl-4-phenyl-2-oxabutan-4-yl)-boron
_symmetry_cell_setting           monoclinic
_symmetry_space_group_name_H-M   'P 21/n'
_symmetry_Int_Tables_number      14
_space_group_name_Hall           '-P 2yn'
loop_
_symmetry_equiv_pos_site_id
_symmetry_equiv_pos_as_xyz
1 x,y,z
2 1/2-x,1/2+y,1/2-z
3 -x,-y,-z
4 1/2+x,1/2-y,1/2+z
_cell_length_a                   10.8458(4)
_cell_length_b                   13.8708(5)
_cell_length_c                   12.3961(5)
_cell_angle_alpha                90
_cell_angle_beta                 103.821(4)
_cell_angle_gamma                90
_cell_volume                     1810.87
_exptl_crystal_colour            colorless
_exptl_crystal_description       block
_cell_formula_units_Z            4
loop_
_atom_site_label
_atom_site_type_symbol
_atom_site_fract_x
_atom_site_fract_y
_atom_site_fract_z
Cl1 Cl 0.24814(4) 0.37333(3) 0.47985(4)
Cl2 Cl 0.27696(4) 0.59034(3) 0.50958(3)
C1 C 0.07894(16) 0.41506(12) 0.78035(14)
C2 C -0.03306(16) 0.46481(12) 0.73574(15)
H1 H -0.0436 0.4976 0.6669
C3 C -0.11583(18) 0.41820(14) 0.89244(16)
C4 C -0.0049(2) 0.36573(17) 0.93413(16)
H2 H 0.0039 0.3306 1.0013
C5 C -0.12915(17) 0.46642(13) 0.79186(16)
H3 H -0.2052 0.5009 0.7613
C6 C 0.09195(18) 0.36385(15) 0.87994(15)
H4 H 0.1671 0.3281 0.9098
C7 C 0.46502(15) 0.53804(12) 0.75030(14)
C8 C 0.54146(17) 0.60781(14) 0.71772(16)
H5 H 0.5629 0.6014 0.6481
C9 C 0.43678(18) 0.54949(14) 0.85316(15)
H6 H 0.3858 0.5027 0.8780
C10 C 0.55715(19) 0.69709(15) 0.88648(17)
H7 H 0.5880 0.7509 0.9324
C11 C 0.4821(2) 0.62855(15) 0.92044(17)
H8 H 0.4612 0.6353 0.9902
C12 C 0.58675(19) 0.68616(14) 0.78474(17)
H9 H 0.6385 0.7327 0.7606
B1 B 0.28577(19) 0.47437(14) 0.58221(16)
O1 O 0.17781(11) 0.47397(8) 0.64281(9)
O2 O 0.27755(11) 0.36153(8) 0.76546(10)
C13 C 0.18246(15) 0.41774(11) 0.72462(13)
C14 C 0.39543(15) 0.36335(12) 0.73059(14)
C15 C 0.41706(15) 0.45375(12) 0.67260(14)
H10 H 0.4833 0.4396 0.6308
C16 C 0.46222(16) 0.28273(12) 0.75415(14)
C17 C 0.59062(17) 0.27239(14) 0.72895(16)
H11 H 0.6094 0.3302 0.6904
H12 H 0.5906 0.2158 0.6816
H13 H 0.6555 0.2644 0.7985
C18 C -0.2186(2) 0.42201(18) 0.95522(19)
H14 H -0.1926 0.3841 1.0236
H15 H -0.2973 0.3953 0.9090
H16 H -0.2328 0.4891 0.9739
C19 C 0.41603(19) 0.19615(14) 0.80553(18)
H17 H 0.3352 0.2114 0.8239
H18 H 0.4789 0.1782 0.8733
H19 H 0.4038 0.1423 0.7529
loop_
_geom_bond_atom_site_label_1
_geom_bond_atom_site_label_2
_geom_bond_site_symmetry_1
_geom_bond_site_symmetry_2
Cl1 B1 1_555 1_555
Cl2 B1 1_555 1_555
C1 C2 1_555 1_555
C2 H1 1_555 1_555
C3 C4 1_555 1_555
C4 H2 1_555 1_555
C5 C2 1_555 1_555
H3 C5 1_555 1_555
C6 C1 1_555 1_555
H4 C6 1_555 1_555
C7 C8 1_555 1_555
C8 H5 1_555 1_555
C9 C7 1_555 1_555
H6 C9 1_555 1_555
C10 H7 1_555 1_555
C11 C9 1_555 1_555
H8 C11 1_555 1_555
C12 C8 1_555 1_555
H9 C12 1_555 1_555
B1 O1 1_555 1_555
O1 C13 1_555 1_555
O2 C13 1_555 1_555
C13 C1 1_555 1_555
C14 O2 1_555 1_555
C15 C7 1_555 1_555
H10 C15 1_555 1_555
C16 C14 1_555 1_555
C17 C16 1_555 1_555
H11 C17 1_555 1_555
H12 C17 1_555 1_555
H13 C17 1_555 1_555
C18 C3 1_555 1_555
H14 C18 1_555 1_555
H15 C18 1_555 1_555
H16 C18 1_555 1_555
C19 C16 1_555 1_555
H17 C19 1_555 1_555
H18 C19 1_555 1_555
H19 C19 1_555 1_555
C3 C5 1_555 1_555
C4 C6 1_555 1_555
C10 C11 1_555 1_555
C10 C12 1_555 1_555
B1 C15 1_555 1_555
C14 C15 1_555 1_555

#END
