
#######################################################################
#
#                 Cambridge Crystallographic Data Centre
#                                CCDC 
#
#######################################################################
#
# If this CIF has been generated from an entry in the Cambridge 
# Structural Database, then it will include bibliographic, chemical, 
# crystal, experimental, refinement or atomic coordinate data resulting 
# from the CCDC's data processing and validation procedures.
#
#######################################################################

data_BIDLEH
_chemical_formula_moiety         'C22 H30 N2 O1'
_chemical_name_systematic        
2,6-Di-isopropyl-N-(2-(((2-methoxyethyl)imino)methyl)phenyl)aniline
_symmetry_cell_setting           monoclinic
_symmetry_space_group_name_H-M   'C 2/c'
_symmetry_Int_Tables_number      15
_space_group_name_Hall           '-C 2yn'
loop_
_symmetry_equiv_pos_site_id
_symmetry_equiv_pos_as_xyz
1 x,y,z
2 -x,y,1/2-z
3 1/2+x,1/2+y,z
4 1/2-x,1/2+y,1/2-z
5 -x,-y,-z
6 x,-y,1/2+z
7 1/2-x,1/2-y,-z
8 1/2+x,1/2-y,1/2+z
_cell_length_a                   31.4201(10)
_cell_length_b                   8.0500(3)
_cell_length_c                   16.4354(6)
_cell_angle_alpha                90
_cell_angle_beta                 90.222(2)
_cell_angle_gamma                90
_cell_volume                     4157
_exptl_crystal_colour            colorless
_exptl_crystal_description       parallelepiped
_cell_formula_units_Z            8
loop_
_atom_site_label
_atom_site_type_symbol
_atom_site_fract_x
_atom_site_fract_y
_atom_site_fract_z
O1 O 0.28141(7) 0.1732(3) -0.24104(13)
N1 N 0.37310(6) 0.1119(3) 0.01350(11)
H1 H 0.3544 0.1791 -0.0062
N2 N 0.29902(7) 0.1608(3) -0.06721(12)
C1 C 0.36494(7) -0.0533(3) 0.00791(13)
C2 C 0.32675(8) -0.1086(3) -0.02941(13)
C3 C 0.31925(11) -0.2791(4) -0.03314(19)
H2 H 0.2941 -0.3157 -0.0572
C4 C 0.34648(13) -0.3933(4) -0.0037(2)
H3 H 0.3404 -0.5061 -0.0076
C5 C 0.38405(11) -0.3387(4) 0.0328(2)
H4 H 0.4033 -0.4156 0.0537
C6 C 0.39267(9) -0.1730(4) 0.03822(17)
H5 H 0.4179 -0.1391 0.0629
C7 C 0.41016(8) 0.1822(3) 0.04952(16)
C8 C 0.41036(10) 0.2172(4) 0.13307(17)
C9 C 0.44594(13) 0.2888(5) 0.1665(2)
H6 H 0.4469 0.3100 0.2221
C10 C 0.47968(14) 0.3290(5) 0.1195(3)
H7 H 0.5032 0.3803 0.1432
C11 C 0.47990(11) 0.2954(5) 0.0377(3)
H8 H 0.5037 0.3221 0.0070
C12 C 0.44461(9) 0.2214(4) -0.00019(19)
C13 C 0.37327(12) 0.1768(5) 0.18696(18)
H9 H 0.3531 0.1131 0.1536
C14 C 0.38488(17) 0.0672(7) 0.2587(3)
H10 H 0.3988 -0.0314 0.2394
H11 H 0.3595 0.0370 0.2875
H12 H 0.4037 0.1265 0.2945
C15 C 0.34976(16) 0.3307(7) 0.2151(3)
H13 H 0.3422 0.3972 0.1687
H14 H 0.3678 0.3940 0.2508
H15 H 0.3244 0.2985 0.2435
C16 C 0.44300(10) 0.1857(4) -0.0908(2)
H16 H 0.4252 0.0871 -0.0991
C17 C 0.48664(15) 0.1496(7) -0.1263(3)
H17 H 0.4993 0.0575 -0.0980
H18 H 0.5045 0.2457 -0.1202
H19 H 0.4838 0.1229 -0.1829
C18 C 0.42199(14) 0.3308(5) -0.1352(2)
H20 H 0.3942 0.3498 -0.1130
H21 H 0.4195 0.3052 -0.1920
H22 H 0.4390 0.4288 -0.1283
C19 C 0.29555(8) 0.0043(4) -0.06390(15)
H23 H 0.2709 -0.0423 -0.0854
C20 C 0.26524(9) 0.2556(5) -0.1078(2)
H24 H 0.2579 0.3514 -0.0748
H25 H 0.2400 0.1867 -0.1130
C21 C 0.27878(11) 0.3116(4) -0.1890(2)
H26 H 0.2584 0.3910 -0.2106
H27 H 0.3063 0.3658 -0.1853
C22 C 0.29837(14) 0.2109(6) -0.3169(2)
H28 H 0.2994 0.1120 -0.3495
H29 H 0.3266 0.2545 -0.3102
H30 H 0.2808 0.2921 -0.3435
loop_
_geom_bond_atom_site_label_1
_geom_bond_atom_site_label_2
_geom_bond_site_symmetry_1
_geom_bond_site_symmetry_2
O1 C21 1_555 1_555
N1 H1 1_555 1_555
N2 C19 1_555 1_555
C1 N1 1_555 1_555
C2 C1 1_555 1_555
C3 C2 1_555 1_555
H2 C3 1_555 1_555
C4 C3 1_555 1_555
H3 C4 1_555 1_555
C5 C4 1_555 1_555
H4 C5 1_555 1_555
C6 C1 1_555 1_555
H5 C6 1_555 1_555
C7 N1 1_555 1_555
C8 C7 1_555 1_555
C9 C8 1_555 1_555
H6 C9 1_555 1_555
C10 C9 1_555 1_555
H7 C10 1_555 1_555
C11 C10 1_555 1_555
H8 C11 1_555 1_555
C12 C7 1_555 1_555
C13 C8 1_555 1_555
H9 C13 1_555 1_555
C14 C13 1_555 1_555
H10 C14 1_555 1_555
H11 C14 1_555 1_555
H12 C14 1_555 1_555
C15 C13 1_555 1_555
H13 C15 1_555 1_555
H14 C15 1_555 1_555
H15 C15 1_555 1_555
C16 C12 1_555 1_555
H16 C16 1_555 1_555
C17 C16 1_555 1_555
H17 C17 1_555 1_555
H18 C17 1_555 1_555
H19 C17 1_555 1_555
C18 C16 1_555 1_555
H20 C18 1_555 1_555
H21 C18 1_555 1_555
H22 C18 1_555 1_555
C19 C2 1_555 1_555
H23 C19 1_555 1_555
C20 N2 1_555 1_555
H24 C20 1_555 1_555
H25 C20 1_555 1_555
C21 C20 1_555 1_555
H26 C21 1_555 1_555
H27 C21 1_555 1_555
C22 O1 1_555 1_555
H28 C22 1_555 1_555
H29 C22 1_555 1_555
H30 C22 1_555 1_555
C5 C6 1_555 1_555
C11 C12 1_555 1_555

#END
