
#######################################################################
#
#                 Cambridge Crystallographic Data Centre
#                                CCDC 
#
#######################################################################
#
# If this CIF has been generated from an entry in the Cambridge 
# Structural Database, then it will include bibliographic, chemical, 
# crystal, experimental, refinement or atomic coordinate data resulting 
# from the CCDC's data processing and validation procedures.
#
#######################################################################

data_BIFBID
_chemical_formula_moiety         'C22 H24 N2 O3 S1'
_chemical_name_systematic        
2-Methyl-N-(3-(2-oxo-4-phenyl-1,3-oxazolidin-3-yl)-1-phenylprop-2-yn-1-yl)propane-2-sulfinamide
_symmetry_cell_setting           orthorhombic
_symmetry_space_group_name_H-M   'P 21 21 21'
_symmetry_Int_Tables_number      19
_space_group_name_Hall           'P 2ac 2ab'
loop_
_symmetry_equiv_pos_site_id
_symmetry_equiv_pos_as_xyz
1 x,y,z
2 1/2-x,-y,1/2+z
3 -x,1/2+y,1/2-z
4 1/2+x,1/2-y,-z
_cell_length_a                   6.1458(8)
_cell_length_b                   16.246(2)
_cell_length_c                   20.503(3)
_cell_angle_alpha                90
_cell_angle_beta                 90
_cell_angle_gamma                90
_cell_volume                     2047.12
_exptl_crystal_colour            colorless
_exptl_crystal_description       Needle
_cell_formula_units_Z            4
loop_
_atom_site_label
_atom_site_type_symbol
_atom_site_fract_x
_atom_site_fract_y
_atom_site_fract_z
S1 S 0.11576(11) 0.68783(4) 0.59132(3)
O1 O -0.0128(3) 0.70485(10) 0.53111(8)
O2 O 0.5375(3) 0.44967(11) 0.35661(9)
O3 O 0.2364(3) 0.37600(10) 0.33463(8)
N1 N 0.3800(4) 0.68254(12) 0.57520(9)
H1 H 0.419(4) 0.7158(12) 0.5416(8)
N2 N 0.2267(4) 0.46041(13) 0.41899(10)
C1 C 0.1200(5) 0.78398(14) 0.63913(12)
C2 C 0.2208(5) 0.76245(18) 0.70424(13)
H2 H 0.2183 0.8109 0.7327
H3 H 0.3717 0.7447 0.6976
H4 H 0.1379 0.7178 0.7246
C3 C -0.1191(5) 0.80813(18) 0.64608(14)
H5 H -0.1305 0.8581 0.6727
H6 H -0.1992 0.7633 0.6672
H7 H -0.1810 0.8185 0.6028
C4 C 0.2460(5) 0.85168(15) 0.60428(12)
H8 H 0.2213 0.9043 0.6265
H9 H 0.1961 0.8557 0.5590
H10 H 0.4017 0.8386 0.6049
C5 C 0.4699(4) 0.59856(15) 0.56451(12)
H11 H 0.6270 0.6059 0.5532
C6 C 0.4639(4) 0.54869(15) 0.62738(12)
C7 C 0.2889(5) 0.49784(15) 0.64294(13)
H12 H 0.1700 0.4929 0.6136
C8 C 0.2880(5) 0.45459(16) 0.70101(12)
H13 H 0.1675 0.4205 0.7116
C9 C 0.4607(5) 0.46065(16) 0.74370(13)
H14 H 0.4587 0.4311 0.7837
C10 C 0.6371(5) 0.50986(16) 0.72812(13)
H15 H 0.7577 0.5133 0.7570
C11 C 0.6370(5) 0.55404(15) 0.67033(12)
H16 H 0.7572 0.5884 0.6601
C12 C 0.3700(4) 0.55323(15) 0.50950(12)
C13 C 0.3049(4) 0.51106(16) 0.46644(13)
C14 C 0.3542(5) 0.43122(15) 0.36911(13)
C15 C 0.0285(4) 0.36129(16) 0.36492(13)
H17 H 0.0184 0.3035 0.3800
H18 H -0.0908 0.3717 0.3335
C16 C 0.0122(4) 0.42079(16) 0.42315(12)
H19 H -0.1045 0.4624 0.4147
C17 C -0.0255(4) 0.38036(15) 0.48878(12)
C18 C 0.1230(5) 0.32385(15) 0.51365(12)
H20 H 0.2480 0.3092 0.4890
C19 C 0.0887(5) 0.28899(16) 0.57434(13)
H21 H 0.1910 0.2507 0.5912
C20 C -0.0930(5) 0.30935(16) 0.61076(12)
H22 H -0.1155 0.2851 0.6524
C21 C -0.2413(5) 0.36514(16) 0.58629(14)
H23 H -0.3663 0.3795 0.6111
C22 C -0.2075(5) 0.40019(16) 0.52529(13)
H24 H -0.3106 0.4382 0.5085
loop_
_geom_bond_atom_site_label_1
_geom_bond_atom_site_label_2
_geom_bond_site_symmetry_1
_geom_bond_site_symmetry_2
S1 O1 1_555 1_555
O2 C14 1_555 1_555
O3 C14 1_555 1_555
N1 S1 1_555 1_555
H1 N1 1_555 1_555
N2 C13 1_555 1_555
C1 S1 1_555 1_555
C2 C1 1_555 1_555
H2 C2 1_555 1_555
H3 C2 1_555 1_555
H4 C2 1_555 1_555
C3 C1 1_555 1_555
H5 C3 1_555 1_555
H6 C3 1_555 1_555
H7 C3 1_555 1_555
C4 C1 1_555 1_555
H8 C4 1_555 1_555
H9 C4 1_555 1_555
H10 C4 1_555 1_555
C5 N1 1_555 1_555
H11 C5 1_555 1_555
C6 C5 1_555 1_555
C7 C6 1_555 1_555
H12 C7 1_555 1_555
C8 C7 1_555 1_555
H13 C8 1_555 1_555
C9 C8 1_555 1_555
H14 C9 1_555 1_555
C10 C9 1_555 1_555
H15 C10 1_555 1_555
C11 C6 1_555 1_555
H16 C11 1_555 1_555
C12 C5 1_555 1_555
C13 C12 1_555 1_555
C14 N2 1_555 1_555
C15 O3 1_555 1_555
H17 C15 1_555 1_555
H18 C15 1_555 1_555
C16 N2 1_555 1_555
H19 C16 1_555 1_555
C17 C16 1_555 1_555
C18 C17 1_555 1_555
H20 C18 1_555 1_555
C19 C18 1_555 1_555
H21 C19 1_555 1_555
C20 C19 1_555 1_555
H22 C20 1_555 1_555
C21 C20 1_555 1_555
H23 C21 1_555 1_555
C22 C17 1_555 1_555
H24 C22 1_555 1_555
C10 C11 1_555 1_555
C15 C16 1_555 1_555
C21 C22 1_555 1_555

#END
