
#######################################################################
#
#                 Cambridge Crystallographic Data Centre
#                                CCDC 
#
#######################################################################
#
# If this CIF has been generated from an entry in the Cambridge 
# Structural Database, then it will include bibliographic, chemical, 
# crystal, experimental, refinement or atomic coordinate data resulting 
# from the CCDC's data processing and validation procedures.
#
#######################################################################

data_BIFNOV
_chemical_formula_moiety         'C30 H29 N1 O7,C1 H1 Cl3'
_chemical_name_systematic        
'Methyl (6-(((9H-fluoren-9-ylmethoxy)carbonyl)amino)-1-(hydroxymethyl)-3,4,4a,9a-tetrahydro-1H-pyrano[3,4-b][1]benzofuran-3-yl)acetate chloroform solvate'
_symmetry_cell_setting           orthorhombic
_symmetry_space_group_name_H-M   'P 21 21 21'
_symmetry_Int_Tables_number      19
_space_group_name_Hall           'P 2ac 2ab'
loop_
_symmetry_equiv_pos_site_id
_symmetry_equiv_pos_as_xyz
1 x,y,z
2 1/2-x,-y,1/2+z
3 -x,1/2+y,1/2-z
4 1/2+x,1/2-y,-z
_cell_length_a                   4.81570(10)
_cell_length_b                   11.3310(2)
_cell_length_c                   54.7137(11)
_cell_angle_alpha                90
_cell_angle_beta                 90
_cell_angle_gamma                90
_cell_volume                     2985.55
_exptl_crystal_colour            colorless
_exptl_crystal_description       needle
_cell_formula_units_Z            4
loop_
_atom_site_label
_atom_site_type_symbol
_atom_site_fract_x
_atom_site_fract_y
_atom_site_fract_z
O1 O 0.8893(4) 1.02778(17) 0.96393(3)
O2 O 1.0066(5) 1.24547(19) 0.98851(3)
H1 H 0.850(5) 1.240(4) 0.9947(6)
O3 O 0.7976(4) 1.16000(17) 0.91517(3)
O4 O 0.7854(5) 0.63109(18) 0.98586(4)
O5 O 1.1253(6) 0.6671(2) 0.95893(4)
O6 O 0.7680(4) 0.74006(17) 0.80600(3)
O7 O 1.1050(4) 0.8571(2) 0.82170(4)
N1 N 0.6557(5) 0.8725(2) 0.83416(4)
H2 H 0.488(4) 0.850(3) 0.8318(6)
C1 C 1.0550(6) 1.1172(2) 0.95328(5)
H3 H 1.2500 1.1054 0.9591
C2 C 1.0576(6) 1.1133(2) 0.92523(5)
H4 H 1.2149 1.1630 0.9192
C3 C 1.0886(6) 0.9884(2) 0.91455(5)
H5 H 1.2874 0.9682 0.9113
C4 C 0.9444(6) 0.8933(2) 0.93040(5)
H6 H 0.7424 0.8945 0.9270
H7 H 1.0160 0.8146 0.9258
C5 C 0.9917(7) 0.9126(2) 0.95748(5)
H8 H 1.1942 0.9067 0.9613
C6 C 0.8288(6) 0.8258(2) 0.97304(5)
H9 H 0.8375 0.8514 0.9903
H10 H 0.6316 0.8276 0.9679
C7 C 0.9343(7) 0.7010(3) 0.97122(5)
C8 C 0.9562(7) 1.2352(2) 0.96278(5)
H11 H 1.0545 1.2993 0.9541
H12 H 0.7549 1.2438 0.9596
C9 C 0.8529(9) 0.5065(3) 0.98507(6)
H13 H 0.8450 0.4786 0.9681
H14 H 0.7191 0.4623 0.9950
H15 H 1.0404 0.4943 0.9916
C10 C 0.7591(6) 1.1001(2) 0.89342(5)
C11 C 0.9264(6) 1.0019(2) 0.89126(5)
C12 C 0.8999(6) 0.9260(2) 0.87165(5)
H16 H 1.0138 0.8579 0.8703
C13 C 0.7004(6) 0.9521(2) 0.85379(5)
C14 C 0.5362(6) 1.0524(2) 0.85602(5)
H17 H 0.4032 1.0695 0.8437
C15 C 0.5615(6) 1.1287(2) 0.87590(5)
H18 H 0.4488 1.1971 0.8774
C16 C 0.8622(6) 0.8259(3) 0.82093(5)
C17 C 0.9723(6) 0.6945(2) 0.78895(5)
H19 H 1.1531 0.6838 0.7973
H20 H 0.9981 0.7504 0.7752
C18 C 0.8662(6) 0.5765(2) 0.77944(5)
H21 H 0.6758 0.5846 0.7723
C19 C 0.8750(6) 0.4791(2) 0.79865(5)
C20 C 0.7254(6) 0.4699(3) 0.82021(5)
H22 H 0.5947 0.5287 0.8248
C21 C 0.7728(7) 0.3713(3) 0.83508(6)
H23 H 0.6683 0.3620 0.8497
C22 C 0.9687(7) 0.2872(3) 0.82891(6)
H24 H 0.9999 0.2221 0.8395
C23 C 1.1208(6) 0.2966(2) 0.80739(6)
H25 H 1.2548 0.2387 0.8031
C24 C 1.0715(6) 0.3936(2) 0.79214(5)
C25 C 1.1951(6) 0.4257(2) 0.76846(5)
C26 C 1.3992(6) 0.3710(3) 0.75444(5)
H26 H 1.4845 0.2999 0.7598
C27 C 1.4756(6) 0.4234(3) 0.73224(5)
H27 H 1.6155 0.3877 0.7225
C28 C 1.3503(6) 0.5268(3) 0.72427(5)
H28 H 1.4040 0.5601 0.7091
C29 C 1.1461(6) 0.5827(2) 0.73830(5)
H29 H 1.0615 0.6538 0.7329
C30 C 1.0698(6) 0.5312(2) 0.76055(5)
C31 C 1.3144(8) 0.5476(3) 0.90577(7)
H30 H 1.1636 0.5654 0.9178
Cl1 Cl 1.1643(3) 0.50467(14) 0.87803(2)
Cl2 Cl 1.5159(3) 0.67490(10) 0.90137(3)
Cl3 Cl 1.5173(3) 0.42928(11) 0.91701(2)
loop_
_geom_bond_atom_site_label_1
_geom_bond_atom_site_label_2
_geom_bond_site_symmetry_1
_geom_bond_site_symmetry_2
O1 C1 1_555 1_555
O2 H1 1_555 1_555
O3 C2 1_555 1_555
O4 C7 1_555 1_555
O5 C7 1_555 1_555
O6 C16 1_555 1_555
O7 C16 1_555 1_555
N1 H2 1_555 1_555
C1 H3 1_555 1_555
C2 C1 1_555 1_555
H4 C2 1_555 1_555
C3 C2 1_555 1_555
H5 C3 1_555 1_555
C4 C3 1_555 1_555
H6 C4 1_555 1_555
H7 C4 1_555 1_555
C5 O1 1_555 1_555
H8 C5 1_555 1_555
C6 C5 1_555 1_555
H9 C6 1_555 1_555
H10 C6 1_555 1_555
C7 C6 1_555 1_555
C8 O2 1_555 1_555
H11 C8 1_555 1_555
H12 C8 1_555 1_555
C9 O4 1_555 1_555
H13 C9 1_555 1_555
H14 C9 1_555 1_555
H15 C9 1_555 1_555
C10 O3 1_555 1_555
C11 C3 1_555 1_555
C12 C11 1_555 1_555
H16 C12 1_555 1_555
C13 N1 1_555 1_555
C14 C13 1_555 1_555
H17 C14 1_555 1_555
C15 C10 1_555 1_555
H18 C15 1_555 1_555
C16 N1 1_555 1_555
C17 O6 1_555 1_555
H19 C17 1_555 1_555
H20 C17 1_555 1_555
C18 C17 1_555 1_555
H21 C18 1_555 1_555
C19 C18 1_555 1_555
C20 C19 1_555 1_555
H22 C20 1_555 1_555
C21 C20 1_555 1_555
H23 C21 1_555 1_555
C22 C21 1_555 1_555
H24 C22 1_555 1_555
C23 C22 1_555 1_555
H25 C23 1_555 1_555
C24 C19 1_555 1_555
C25 C24 1_555 1_555
C26 C25 1_555 1_555
H26 C26 1_555 1_555
C27 C26 1_555 1_555
H27 C27 1_555 1_555
C28 C27 1_555 1_555
H28 C28 1_555 1_555
C29 C28 1_555 1_555
H29 C29 1_555 1_555
C30 C18 1_555 1_555
C31 H30 1_555 1_555
Cl1 C31 1_555 1_555
Cl2 C31 1_555 1_555
Cl3 C31 1_555 1_555
C1 C8 1_555 1_555
C4 C5 1_555 1_555
C10 C11 1_555 1_555
C12 C13 1_555 1_555
C14 C15 1_555 1_555
C23 C24 1_555 1_555
C25 C30 1_555 1_555
C29 C30 1_555 1_555

#END
