
#######################################################################
#
#                 Cambridge Crystallographic Data Centre
#                                CCDC 
#
#######################################################################
#
# If this CIF has been generated from an entry in the Cambridge 
# Structural Database, then it will include bibliographic, chemical, 
# crystal, experimental, refinement or atomic coordinate data resulting 
# from the CCDC's data processing and validation procedures.
#
#######################################################################

data_BIFSAM
_chemical_formula_moiety         'C26 H29 N1 O7'
_chemical_name_systematic        
'Ethyl 3a,6-dimethyl-2-((4-nitrobenzoyl)oxy)-4-oxo-2,3,3a,4,6,7,8,8a,9,10-decahydrobenzo[f]azulene-5-carboxylate'
_symmetry_cell_setting           triclinic
_symmetry_space_group_name_H-M   'P -1'
_symmetry_Int_Tables_number      2
_space_group_name_Hall           '-P 1'
loop_
_symmetry_equiv_pos_site_id
_symmetry_equiv_pos_as_xyz
1 x,y,z
2 -x,-y,-z
_cell_length_a                   8.94700(10)
_cell_length_b                   10.28630(10)
_cell_length_c                   14.9572(10)
_cell_angle_alpha                70.258(5)
_cell_angle_beta                 79.287(6)
_cell_angle_gamma                69.189(5)
_cell_volume                     1207.7
_exptl_crystal_colour            colorless
_exptl_crystal_description       prism
_cell_formula_units_Z            2
loop_
_atom_site_label
_atom_site_type_symbol
_atom_site_fract_x
_atom_site_fract_y
_atom_site_fract_z
O1 O 0.1036(3) 1.1451(2) 0.07686(17)
O2 O 0.0818(2) 1.11304(19) -0.05410(16)
O3 O 0.68286(17) 0.45246(15) 0.09054(11)
O4 O 0.81584(15) 0.58178(13) 0.11783(9)
O5 O 0.8897(2) 0.43145(15) 0.44045(10)
O6 O 0.59632(19) 0.63854(19) 0.34600(11)
N1 N 0.1467(2) 1.0784(2) 0.01896(16)
C1 C 0.2884(2) 0.9464(2) 0.03919(14)
C2 C 0.3914(3) 0.9290(2) 0.10304(14)
H1 H 0.3712 0.9981 0.1346
C3 C 0.5256(3) 0.8071(2) 0.11935(13)
H2 H 0.602(3) 0.793(2) 0.1601(14)
C4 C 0.5518(2) 0.70326(19) 0.07351(12)
C5 C 0.4438(2) 0.7230(2) 0.01052(14)
H3 H 0.462(3) 0.653(3) -0.0202(16)
C6 C 0.3120(3) 0.8459(2) -0.00800(15)
H4 H 0.234(3) 0.864(2) -0.0505(17)
C7 C 0.6888(2) 0.56548(19) 0.09423(12)
C8 C 0.9528(2) 0.4482(2) 0.14474(13)
H5 H 0.9687 0.3872 0.1035
C9 C 1.0980(2) 0.4898(2) 0.13897(14)
H6 H 1.143(3) 0.542(3) 0.0780(17)
C10 C 1.1555(2) 0.4496(2) 0.22311(13)
C11 C 1.0513(2) 0.38121(18) 0.30347(12)
C12 C 0.9306(3) 0.3639(2) 0.24918(15)
H7 H 0.824(3) 0.394(2) 0.2767(14)
H8 H 0.956(3) 0.259(3) 0.2560(18)
C13 C 0.9573(2) 0.48119(19) 0.36518(12)
C14 C 0.9423(2) 0.64075(18) 0.33308(11)
C15 C 1.0893(2) 0.6885(2) 0.29220(13)
H9 H 1.0866 0.7224 0.2227
C16 C 1.2466(2) 0.5654(3) 0.31552(14)
H10 H 1.2348 0.5019 0.3794
H11 H 1.3302 0.6059 0.3138
C17 C 1.2961(2) 0.4764(3) 0.24479(17)
C18 C 0.8006(2) 0.73522(19) 0.35018(12)
C19 C 0.7724(3) 0.8953(2) 0.33605(14)
H12 H 0.7484 0.9090 0.3995
C20 C 0.9208(3) 0.9395(3) 0.29273(18)
H13 H 0.9221 0.9681 0.2239
H14 H 0.9155 1.0233 0.3107
C21 C 1.0742(3) 0.8191(3) 0.32401(16)
H15 H 1.0744 0.7902 0.3928
H16 H 1.1651 0.8539 0.2965
C22 C 1.1468(3) 0.2338(2) 0.36819(17)
H17 H 1.0752 0.1948 0.4175
H18 H 1.2263 0.2469 0.3964
H19 H 1.1984 0.1675 0.3311
C23 C 0.6272(4) 0.9945(2) 0.27950(19)
H20 H 0.6132 1.0941 0.2731
H21 H 0.5331 0.9706 0.3124
H22 H 0.6439 0.9812 0.2175
C24 C 0.6538(2) 0.68933(19) 0.38683(12)
O7 O 0.58850(16) 0.72205(15) 0.46740(10)
C25 C 0.4344(3) 0.7008(3) 0.5050(2)
C26 C 0.3406(17) 0.8139(15) 0.5470(12)
H23 H 1.382(3) 0.387(3) 0.2678(19)
H24 H 1.344(3) 0.524(3) 0.1889(18)
H25 H 0.3789 0.7037 0.4542
H26 H 0.4500 0.6065 0.5526
H27 H 0.3911 0.8047 0.6011
H28 H 0.2352 0.8057 0.5670
H29 H 0.3328 0.9071 0.5010
C27? C 0.3140(13) 0.8360(12) 0.5051(16)
H30? H 0.4429 0.6355 0.5695
H31? H 0.4041 0.6562 0.4665
H32? H 0.2180 0.8183 0.5397
H33? H 0.2918 0.8939 0.4407
H34? H 0.3512 0.8870 0.5349
loop_
_geom_bond_atom_site_label_1
_geom_bond_atom_site_label_2
_geom_bond_site_symmetry_1
_geom_bond_site_symmetry_2
O1 N1 1_555 1_555
O2 N1 1_555 1_555
O3 C7 1_555 1_555
O4 C7 1_555 1_555
O5 C13 1_555 1_555
O6 C24 1_555 1_555
N1 C1 1_555 1_555
C1 C2 1_555 1_555
C2 H1 1_555 1_555
C3 C2 1_555 1_555
H2 C3 1_555 1_555
C4 C3 1_555 1_555
C5 C4 1_555 1_555
H3 C5 1_555 1_555
C6 C1 1_555 1_555
H4 C6 1_555 1_555
C7 C4 1_555 1_555
C8 O4 1_555 1_555
H5 C8 1_555 1_555
C9 C8 1_555 1_555
H6 C9 1_555 1_555
C10 C9 1_555 1_555
C11 C10 1_555 1_555
C12 C8 1_555 1_555
H7 C12 1_555 1_555
H8 C12 1_555 1_555
C13 C11 1_555 1_555
C14 C13 1_555 1_555
C15 C14 1_555 1_555
H9 C15 1_555 1_555
C16 C15 1_555 1_555
H10 C16 1_555 1_555
H11 C16 1_555 1_555
C17 C10 1_555 1_555
C18 C14 1_555 1_555
C19 C18 1_555 1_555
H12 C19 1_555 1_555
C20 C19 1_555 1_555
H13 C20 1_555 1_555
H14 C20 1_555 1_555
C21 C15 1_555 1_555
H15 C21 1_555 1_555
H16 C21 1_555 1_555
C22 C11 1_555 1_555
H17 C22 1_555 1_555
H18 C22 1_555 1_555
H19 C22 1_555 1_555
C23 C19 1_555 1_555
H20 C23 1_555 1_555
H21 C23 1_555 1_555
H22 C23 1_555 1_555
C24 C18 1_555 1_555
O7 C24 1_555 1_555
C25 O7 1_555 1_555
C26 C25 1_555 1_555
H23 C17 1_555 1_555
H24 C17 1_555 1_555
H25 C25 1_555 1_555
H26 C25 1_555 1_555
H27 C26 1_555 1_555
H28 C26 1_555 1_555
H29 C26 1_555 1_555
C5 C6 1_555 1_555
C11 C12 1_555 1_555
C16 C17 1_555 1_555
C20 C21 1_555 1_555

#END
