
#######################################################################
#
#                 Cambridge Crystallographic Data Centre
#                                CCDC 
#
#######################################################################
#
# If this CIF has been generated from an entry in the Cambridge 
# Structural Database, then it will include bibliographic, chemical, 
# crystal, experimental, refinement or atomic coordinate data resulting 
# from the CCDC's data processing and validation procedures.
#
#######################################################################

data_BIGDOK
_chemical_formula_moiety         'C13 H12 O4'
_chemical_name_systematic        
'1,2,3,4,4a,5,8,8a-Octahydro-5,8-exo-oxa-1,4-exo-methanonaphthalene-4a,8a-dicarboxylic acid anhydride'
_symmetry_cell_setting           monoclinic
_symmetry_space_group_name_H-M   'P 21/c'
_symmetry_Int_Tables_number      14
_space_group_name_Hall           '-P 2ybc'
loop_
_symmetry_equiv_pos_site_id
_symmetry_equiv_pos_as_xyz
1 x,y,z
2 -x,1/2+y,1/2-z
3 -x,-y,-z
4 x,1/2-y,1/2+z
_cell_length_a                   15.982(8)
_cell_length_b                   7.564(2)
_cell_length_c                   12.084(4)
_cell_angle_alpha                90
_cell_angle_beta                 134.44(2)
_cell_angle_gamma                90
_cell_volume                     1042.99
_exptl_crystal_colour            white
_chemical_melting_point          146-7deg.C
_cell_formula_units_Z            4
loop_
_atom_site_label
_atom_site_type_symbol
_atom_site_fract_x
_atom_site_fract_y
_atom_site_fract_z
C1 C 0.19360 0.83120 0.40770
C2 C 0.14350 0.90100 0.25430
C3 C 0.06900 0.77930 0.15110
C4 C 0.07250 0.63400 0.23910
C5 C 0.19350 0.53510 0.33610
C6 C 0.21990 0.37580 0.43490
C7 C 0.34060 0.30150 0.51440
C8 C 0.42750 0.44250 0.63570
C9 C 0.34730 0.58430 0.61260
C10 C 0.27990 0.67670 0.45560
C11 C 0.25270 0.46580 0.57580
O1 O 0.09650 0.73260 0.36000
C12 C 0.35230 0.71830 0.42290
C13 C 0.22300 0.50820 0.24400
O2 O 0.31790 0.61220 0.30250
O3 O 0.42880 0.82150 0.48110
O4 O 0.17920 0.41530 0.13600
H1 H 0.22100 0.90900 0.48700
H2 H 0.16800 1.01400 0.24200
H3 H 0.02800 0.77800 0.04300
H4 H 0.00100 0.56800 0.17800
H5 H 0.16300 0.29000 0.38200
H6 H 0.34500 0.26800 0.44100
H7 H 0.35100 0.19600 0.56500
H8 H 0.48500 0.49300 0.62600
H9 H 0.48600 0.39900 0.74800
H10 H 0.38200 0.66700 0.69500
H11 H 0.18100 0.53500 0.54500
H12 H 0.28900 0.37700 0.66400
loop_
_geom_bond_atom_site_label_1
_geom_bond_atom_site_label_2
_geom_bond_site_symmetry_1
_geom_bond_site_symmetry_2
C1 C2 1_555 1_555
C2 C3 1_555 1_555
C3 C4 1_555 1_555
C4 C5 1_555 1_555
C5 C6 1_555 1_555
C6 C7 1_555 1_555
C7 C8 1_555 1_555
C8 C9 1_555 1_555
C9 C10 1_555 1_555
C10 C1 1_555 1_555
C11 C6 1_555 1_555
O1 C1 1_555 1_555
C12 C10 1_555 1_555
C13 C5 1_555 1_555
O2 C12 1_555 1_555
O3 C12 1_555 1_555
O4 C13 1_555 1_555
H1 C1 1_555 1_555
H2 C2 1_555 1_555
H3 C3 1_555 1_555
H4 C4 1_555 1_555
H5 C6 1_555 1_555
H6 C7 1_555 1_555
H7 C7 1_555 1_555
H8 C8 1_555 1_555
H9 C8 1_555 1_555
H10 C9 1_555 1_555
H11 C11 1_555 1_555
H12 C11 1_555 1_555
C4 O1 1_555 1_555
C5 C10 1_555 1_555
C9 C11 1_555 1_555
C13 O2 1_555 1_555

#END
