
#######################################################################
#
#                 Cambridge Crystallographic Data Centre
#                                CCDC 
#
#######################################################################
#
# If this CIF has been generated from an entry in the Cambridge 
# Structural Database, then it will include bibliographic, chemical, 
# crystal, experimental, refinement or atomic coordinate data resulting 
# from the CCDC's data processing and validation procedures.
#
#######################################################################

data_BIGKUA
_chemical_formula_moiety         'C26 H36 Ca1 O8 S2'
_chemical_name_systematic        
aqua-bis(4-methylthiobenzoato)-(1,4,7,10,13-pentaoxacyclopentadecane)-calcium
_symmetry_cell_setting           monoclinic
_symmetry_space_group_name_H-M   'P 21/n'
_symmetry_Int_Tables_number      14
_space_group_name_Hall           '-P 2yn'
loop_
_symmetry_equiv_pos_site_id
_symmetry_equiv_pos_as_xyz
1 x,y,z
2 1/2-x,1/2+y,1/2-z
3 -x,-y,-z
4 1/2+x,1/2-y,1/2+z
_cell_length_a                   8.867(2)
_cell_length_b                   22.380(2)
_cell_length_c                   14.372(2)
_cell_angle_alpha                90
_cell_angle_beta                 93.68(2)
_cell_angle_gamma                90
_cell_volume                     2846.15
_exptl_crystal_colour            'pale yellow'
_exptl_crystal_description       prismatic
_cell_formula_units_Z            4
loop_
_atom_site_label
_atom_site_type_symbol
_atom_site_fract_x
_atom_site_fract_y
_atom_site_fract_z
Ca1 Ca 0.94845(11) 0.70269(5) 0.43862(7)
S1 S 0.68994(18) 0.57265(7) 0.56484(11)
S2 S 0.71084(18) 0.78120(7) 0.63354(11)
O1 O 0.9300(4) 0.64138(17) 0.5687(2)
O2 O 0.9268(4) 0.79367(15) 0.5183(2)
O3 O 1.2224(4) 0.71008(16) 0.5120(2)
O4 O 1.1121(4) 0.76624(16) 0.3511(2)
O5 O 0.8173(4) 0.75751(15) 0.3015(2)
O6 O 0.8705(4) 0.63632(16) 0.3047(2)
O7 O 1.1241(4) 0.61740(15) 0.4098(2)
O8 O 0.6790(4) 0.69692(18) 0.4553(2)
H1 H 0.667(6) 0.661(2) 0.483(3)
H2 H 0.676(6) 0.718(2) 0.500(4)
C1 C 0.8470(6) 0.6071(2) 0.6122(4)
C2 C 0.8940(6) 0.5981(2) 0.7143(4)
C3 C 1.0180(6) 0.6296(2) 0.7537(4)
H3 H 1.0732 0.6551 0.7154
C4 C 1.0623(6) 0.6243(3) 0.8479(4)
H4 H 1.1473 0.6460 0.8733
C5 C 0.9830(7) 0.5875(2) 0.9047(4)
C6 C 0.8607(7) 0.5561(2) 0.8664(4)
H5 H 0.8060 0.5305 0.9049
C7 C 0.8160(6) 0.5613(2) 0.7716(4)
H6 H 0.7312 0.5393 0.7464
C8 C 1.0258(8) 0.5833(3) 1.0082(4)
H7 H 0.9403 0.5673 1.0404
H8 H 1.0515 0.6231 1.0327
H9 H 1.1131 0.5568 1.0187
C9 C 0.8606(6) 0.8138(2) 0.5866(3)
C10 C 0.9218(5) 0.8705(2) 0.6284(3)
C11 C 1.0031(6) 0.9103(2) 0.5763(3)
H10 H 1.0166 0.9015 0.5127
C12 C 1.0649(6) 0.9623(2) 0.6146(4)
H11 H 1.1175 0.9890 0.5767
C13 C 1.0508(6) 0.9758(2) 0.7076(4)
C14 C 0.9699(6) 0.9367(3) 0.7605(4)
H12 H 0.9605 0.9448 0.8248
C15 C 0.9029(6) 0.8862(2) 0.7209(4)
H13 H 0.8425 0.8617 0.7575
C16 C 1.1240(7) 1.0311(3) 0.7514(5)
H14 H 1.0477 1.0547 0.7814
H15 H 1.1679 1.0552 0.7030
H16 H 1.2038 1.0192 0.7981
C17 C 1.2845(6) 0.7666(3) 0.4854(4)
H17 H 1.3930 0.7682 0.5063
H18 H 1.2322 0.7994 0.5165
C18 C 1.2672(6) 0.7751(3) 0.3815(4)
H19 H 1.2994 0.8159 0.3651
H20 H 1.3314 0.7461 0.3503
C19 C 1.0388(6) 0.8168(2) 0.3065(4)
H21 H 1.1103 0.8386 0.2686
H22 H 1.0018 0.8445 0.3536
C20 C 0.9099(5) 0.7931(2) 0.2458(3)
H23 H 0.8502 0.8266 0.2174
H24 H 0.9482 0.7686 0.1950
C21 C 0.7201(6) 0.7174(2) 0.2479(4)
H25 H 0.6777 0.7381 0.1912
H26 H 0.6350 0.7053 0.2851
C22 C 0.8055(6) 0.6629(2) 0.2204(3)
H27 H 0.7365 0.6344 0.1867
H28 H 0.8860 0.6742 0.1790
C23 C 0.9611(7) 0.5854(2) 0.2855(4)
H29 H 1.0366 0.5959 0.2403
H30 H 0.8969 0.5526 0.2588
C24 C 1.0392(6) 0.5663(2) 0.3773(4)
H31 H 0.9643 0.5549 0.4223
H32 H 1.1069 0.5319 0.3683
C25 C 1.2291(6) 0.6051(2) 0.4880(4)
H33 H 1.2934 0.5703 0.4752
H34 H 1.1749 0.5969 0.5448
C26 C 1.3218(6) 0.6608(3) 0.4996(4)
H35 H 1.3945 0.6570 0.5545
H36 H 1.3796 0.6673 0.4437
loop_
_geom_bond_atom_site_label_1
_geom_bond_atom_site_label_2
_geom_bond_site_symmetry_1
_geom_bond_site_symmetry_2
Ca1 O1 1_555 1_555
S1 C1 1_555 1_555
S2 C9 1_555 1_555
O1 C1 1_555 1_555
O2 Ca1 1_555 1_555
O3 Ca1 1_555 1_555
O4 Ca1 1_555 1_555
O5 Ca1 1_555 1_555
O6 Ca1 1_555 1_555
O7 Ca1 1_555 1_555
O8 Ca1 1_555 1_555
H1 O8 1_555 1_555
H2 O8 1_555 1_555
C1 C2 1_555 1_555
C2 C3 1_555 1_555
C3 H3 1_555 1_555
C4 C3 1_555 1_555
H4 C4 1_555 1_555
C5 C4 1_555 1_555
C6 C5 1_555 1_555
H5 C6 1_555 1_555
C7 C2 1_555 1_555
H6 C7 1_555 1_555
C8 C5 1_555 1_555
H7 C8 1_555 1_555
H8 C8 1_555 1_555
H9 C8 1_555 1_555
C9 O2 1_555 1_555
C10 C9 1_555 1_555
C11 C10 1_555 1_555
H10 C11 1_555 1_555
C12 C11 1_555 1_555
H11 C12 1_555 1_555
C13 C12 1_555 1_555
C14 C13 1_555 1_555
H12 C14 1_555 1_555
C15 C10 1_555 1_555
H13 C15 1_555 1_555
C16 C13 1_555 1_555
H14 C16 1_555 1_555
H15 C16 1_555 1_555
H16 C16 1_555 1_555
C17 O3 1_555 1_555
H17 C17 1_555 1_555
H18 C17 1_555 1_555
C18 O4 1_555 1_555
H19 C18 1_555 1_555
H20 C18 1_555 1_555
C19 O4 1_555 1_555
H21 C19 1_555 1_555
H22 C19 1_555 1_555
C20 O5 1_555 1_555
H23 C20 1_555 1_555
H24 C20 1_555 1_555
C21 O5 1_555 1_555
H25 C21 1_555 1_555
H26 C21 1_555 1_555
C22 O6 1_555 1_555
H27 C22 1_555 1_555
H28 C22 1_555 1_555
C23 O6 1_555 1_555
H29 C23 1_555 1_555
H30 C23 1_555 1_555
C24 O7 1_555 1_555
H31 C24 1_555 1_555
H32 C24 1_555 1_555
C25 O7 1_555 1_555
H33 C25 1_555 1_555
H34 C25 1_555 1_555
C26 O3 1_555 1_555
H35 C26 1_555 1_555
H36 C26 1_555 1_555
C6 C7 1_555 1_555
C14 C15 1_555 1_555
C17 C18 1_555 1_555
C19 C20 1_555 1_555
C21 C22 1_555 1_555
C23 C24 1_555 1_555
C25 C26 1_555 1_555

#END
