
#######################################################################
#
#                 Cambridge Crystallographic Data Centre
#                                CCDC 
#
#######################################################################
#
# If this CIF has been generated from an entry in the Cambridge 
# Structural Database, then it will include bibliographic, chemical, 
# crystal, experimental, refinement or atomic coordinate data resulting 
# from the CCDC's data processing and validation procedures.
#
#######################################################################

data_BIHGEH
_chemical_formula_moiety         'C18 H15 N1 O2'
_chemical_name_systematic        
'[5-methyl-3-(phenylamino)furan-2-yl](phenyl)methanone'
_symmetry_cell_setting           monoclinic
_symmetry_space_group_name_H-M   'P 21/c'
_symmetry_Int_Tables_number      14
_space_group_name_Hall           '-P 2ybc'
loop_
_symmetry_equiv_pos_site_id
_symmetry_equiv_pos_as_xyz
1 x,y,z
2 -x,1/2+y,1/2-z
3 -x,-y,-z
4 x,1/2-y,1/2+z
_cell_length_a                   8.1903(10)
_cell_length_b                   25.986(3)
_cell_length_c                   6.9046(9)
_cell_angle_alpha                90
_cell_angle_beta                 90.081(11)
_cell_angle_gamma                90
_cell_volume                     1469.53
_exptl_crystal_colour            colorless
_exptl_crystal_description       prismatic
_cell_formula_units_Z            4
loop_
_atom_site_label
_atom_site_type_symbol
_atom_site_fract_x
_atom_site_fract_y
_atom_site_fract_z
N1 N 0.74167(15) 0.44408(5) 0.7981(2)
H1 H 0.6674 0.4637 0.8461
O1 O 1.07721(12) 0.52956(4) 0.74128(15)
O2 O 0.65265(13) 0.54687(5) 0.83902(19)
C1 C 1.15049(18) 0.48370(7) 0.7068(2)
C2 C 1.04278(18) 0.44476(6) 0.7189(2)
H2 H 1.0648 0.4100 0.7004
C3 C 0.88921(17) 0.46678(6) 0.7654(2)
C4 C 0.91401(17) 0.51917(6) 0.7788(2)
C5 C 0.79787(19) 0.55890(6) 0.8058(2)
C6 C 0.8437(2) 0.61407(6) 0.7876(2)
C7 C 0.7349(2) 0.64706(7) 0.6963(3)
H3 H 0.6367 0.6345 0.6477
C8 C 0.7730(3) 0.69861(9) 0.6780(4)
H4 H 0.7024 0.7205 0.6120
C9 C 0.9145(3) 0.71782(8) 0.7566(4)
H5 H 0.9377 0.7528 0.7472
C10 C 1.0217(3) 0.68553(8) 0.8490(3)
H6 H 1.1172 0.6986 0.9028
C11 C 0.9879(2) 0.63373(7) 0.8622(3)
H7 H 1.0624 0.6118 0.9216
C12 C 1.3270(2) 0.48580(8) 0.6672(3)
H8 H 1.3672 0.4516 0.6445
H9 H 1.3826 0.5005 0.7765
H10 H 1.3462 0.5066 0.5547
C13 C 0.69549(18) 0.39303(6) 0.7638(2)
C14 C 0.7643(2) 0.36330(7) 0.6189(3)
H11 H 0.8453 0.3769 0.5398
C15 C 0.7120(2) 0.31332(7) 0.5923(3)
H12 H 0.7601 0.2932 0.4969
C16 C 0.5906(3) 0.29302(8) 0.7041(3)
H13 H 0.5569 0.2592 0.6858
C17 C 0.5192(2) 0.32290(7) 0.8431(3)
H14 H 0.4342 0.3096 0.9168
C18 C 0.5714(2) 0.37245(7) 0.8753(3)
H15 H 0.5233 0.3922 0.9721
loop_
_geom_bond_atom_site_label_1
_geom_bond_atom_site_label_2
_geom_bond_site_symmetry_1
_geom_bond_site_symmetry_2
N1 H1 1_555 1_555
O1 C1 1_555 1_555
O2 C5 1_555 1_555
C1 C2 1_555 1_555
C2 H2 1_555 1_555
C3 N1 1_555 1_555
C4 O1 1_555 1_555
C5 C4 1_555 1_555
C6 C5 1_555 1_555
C7 C6 1_555 1_555
H3 C7 1_555 1_555
C8 C7 1_555 1_555
H4 C8 1_555 1_555
C9 C8 1_555 1_555
H5 C9 1_555 1_555
C10 C9 1_555 1_555
H6 C10 1_555 1_555
C11 C6 1_555 1_555
H7 C11 1_555 1_555
C12 C1 1_555 1_555
H8 C12 1_555 1_555
H9 C12 1_555 1_555
H10 C12 1_555 1_555
C13 N1 1_555 1_555
C14 C13 1_555 1_555
H11 C14 1_555 1_555
C15 C14 1_555 1_555
H12 C15 1_555 1_555
C16 C15 1_555 1_555
H13 C16 1_555 1_555
C17 C16 1_555 1_555
H14 C17 1_555 1_555
C18 C13 1_555 1_555
H15 C18 1_555 1_555
C2 C3 1_555 1_555
C3 C4 1_555 1_555
C10 C11 1_555 1_555
C17 C18 1_555 1_555

#END
