
#######################################################################
#
#                 Cambridge Crystallographic Data Centre
#                                CCDC 
#
#######################################################################
#
# If this CIF has been generated from an entry in the Cambridge 
# Structural Database, then it will include bibliographic, chemical, 
# crystal, experimental, refinement or atomic coordinate data resulting 
# from the CCDC's data processing and validation procedures.
#
#######################################################################

data_BIHGIL
_chemical_formula_moiety         'C24 H19 N1 O2 S1'
_chemical_name_systematic        
{3-[(4-methoxyphenyl)amino]-5-phenylthiophen-2-yl}(phenyl)methanone
_symmetry_cell_setting           monoclinic
_symmetry_space_group_name_H-M   'P 21/n'
_symmetry_Int_Tables_number      14
_space_group_name_Hall           '-P 2yn'
loop_
_symmetry_equiv_pos_site_id
_symmetry_equiv_pos_as_xyz
1 x,y,z
2 1/2-x,1/2+y,1/2-z
3 -x,-y,-z
4 1/2+x,1/2-y,1/2+z
_cell_length_a                   9.7282(9)
_cell_length_b                   20.0714(17)
_cell_length_c                   10.4923(8)
_cell_angle_alpha                90
_cell_angle_beta                 108.639(10)
_cell_angle_gamma                90
_cell_volume                     1941.26
_exptl_crystal_colour            colorless
_exptl_crystal_description       prismatic
_cell_formula_units_Z            4
loop_
_atom_site_label
_atom_site_type_symbol
_atom_site_fract_x
_atom_site_fract_y
_atom_site_fract_z
S1 S 0.78878(6) 0.42769(3) -0.06124(5)
N1 N 0.9532(2) 0.54026(10) 0.25255(17)
H1 H 1.0195 0.5153 0.3047
O1 O 1.11059(18) 0.42747(8) 0.28174(15)
O2 O 0.94885(18) 0.79295(8) 0.46497(16)
C1 C 0.6930(2) 0.50082(11) -0.0725(2)
C2 C 0.7506(2) 0.54062(12) 0.0367(2)
H2 H 0.7126 0.5820 0.0471
C3 C 0.8744(2) 0.51252(11) 0.13286(19)
C4 C 0.9083(2) 0.44903(11) 0.0959(2)
C5 C 1.0224(2) 0.40657(12) 0.1747(2)
C6 C 1.0375(2) 0.33708(12) 0.1326(2)
C7 C 1.1754(3) 0.31086(15) 0.1534(2)
H3 H 1.2570 0.3368 0.1938
C8 C 1.1914(3) 0.24636(17) 0.1143(3)
H4 H 1.2841 0.2298 0.1266
C9 C 1.0737(4) 0.20629(15) 0.0577(3)
H5 H 1.0859 0.1631 0.0311
C10 C 0.9376(3) 0.23082(13) 0.0409(3)
H6 H 0.8569 0.2038 0.0042
C11 C 0.9196(2) 0.29539(12) 0.0783(2)
H7 H 0.8266 0.3112 0.0667
C12 C 0.5620(2) 0.51189(10) -0.1889(2)
C13 C 0.5223(3) 0.46738(13) -0.2954(2)
H8 H 0.5808 0.4307 -0.2952
C14 C 0.3969(3) 0.47697(16) -0.4018(3)
H9 H 0.3710 0.4463 -0.4719
C15 C 0.3113(3) 0.53034(15) -0.4054(3)
H10 H 0.2279 0.5370 -0.4783
C16 C 0.3481(3) 0.57451(14) -0.3010(3)
H11 H 0.2888 0.6110 -0.3026
C17 C 0.4723(3) 0.56549(12) -0.1933(2)
H12 H 0.4959 0.5960 -0.1228
C18 C 0.9403(2) 0.60423(11) 0.3018(2)
C19 C 0.9203(3) 0.66143(13) 0.2235(2)
H13 H 0.9067 0.6579 0.1319
C20 C 0.9203(2) 0.72304(12) 0.2799(2)
H14 H 0.9048 0.7608 0.2258
C21 C 0.9432(2) 0.72961(11) 0.4166(2)
C22 C 0.9609(2) 0.67296(12) 0.4946(2)
H15 H 0.9750 0.6765 0.5863
C23 C 0.9576(3) 0.61131(12) 0.4371(2)
H16 H 0.9673 0.5735 0.4903
C24 C 0.9973(3) 0.80114(13) 0.6070(2)
H17 H 0.9272 0.7824 0.6435
H18 H 1.0088 0.8477 0.6284
H19 H 1.0887 0.7789 0.6449
loop_
_geom_bond_atom_site_label_1
_geom_bond_atom_site_label_2
_geom_bond_site_symmetry_1
_geom_bond_site_symmetry_2
S1 C1 1_555 1_555
N1 H1 1_555 1_555
O1 C5 1_555 1_555
O2 C21 1_555 1_555
C1 C2 1_555 1_555
C2 H2 1_555 1_555
C3 N1 1_555 1_555
C4 S1 1_555 1_555
C5 C4 1_555 1_555
C6 C5 1_555 1_555
C7 C6 1_555 1_555
H3 C7 1_555 1_555
C8 C7 1_555 1_555
H4 C8 1_555 1_555
C9 C8 1_555 1_555
H5 C9 1_555 1_555
C10 C9 1_555 1_555
H6 C10 1_555 1_555
C11 C6 1_555 1_555
H7 C11 1_555 1_555
C12 C1 1_555 1_555
C13 C12 1_555 1_555
H8 C13 1_555 1_555
C14 C13 1_555 1_555
H9 C14 1_555 1_555
C15 C14 1_555 1_555
H10 C15 1_555 1_555
C16 C15 1_555 1_555
H11 C16 1_555 1_555
C17 C12 1_555 1_555
H12 C17 1_555 1_555
C18 N1 1_555 1_555
C19 C18 1_555 1_555
H13 C19 1_555 1_555
C20 C19 1_555 1_555
H14 C20 1_555 1_555
C21 C20 1_555 1_555
C22 C21 1_555 1_555
H15 C22 1_555 1_555
C23 C18 1_555 1_555
H16 C23 1_555 1_555
C24 O2 1_555 1_555
H17 C24 1_555 1_555
H18 C24 1_555 1_555
H19 C24 1_555 1_555
C2 C3 1_555 1_555
C3 C4 1_555 1_555
C10 C11 1_555 1_555
C16 C17 1_555 1_555
C22 C23 1_555 1_555

#END
