
#######################################################################
#
#                 Cambridge Crystallographic Data Centre
#                                CCDC 
#
#######################################################################
#
# If this CIF has been generated from an entry in the Cambridge 
# Structural Database, then it will include bibliographic, chemical, 
# crystal, experimental, refinement or atomic coordinate data resulting 
# from the CCDC's data processing and validation procedures.
#
#######################################################################

data_BIHHUX
_chemical_formula_moiety         'C20 H20 N3 1+,Cl1 1-'
_chemical_name_systematic        
'N-Methyl-2-(10-methylphenazin-5(10H)-yl)anilinium chloride'
_symmetry_cell_setting           monoclinic
_symmetry_space_group_name_H-M   'P 21/n'
_symmetry_Int_Tables_number      14
_space_group_name_Hall           '-P 2yn'
loop_
_symmetry_equiv_pos_site_id
_symmetry_equiv_pos_as_xyz
1 x,y,z
2 1/2-x,1/2+y,1/2-z
3 -x,-y,-z
4 1/2+x,1/2-y,1/2+z
_cell_length_a                   13.439(3)
_cell_length_b                   10.260(2)
_cell_length_c                   13.653(3)
_cell_angle_alpha                90
_cell_angle_beta                 115.905(3)
_cell_angle_gamma                90
_cell_volume                     1693.37
_exptl_crystal_colour            brown
_exptl_crystal_description       plate
_cell_formula_units_Z            4
loop_
_atom_site_label
_atom_site_type_symbol
_atom_site_fract_x
_atom_site_fract_y
_atom_site_fract_z
C1 C -0.0966(2) 0.5586(2) 0.2030(2)
C2 C -0.1750(2) 0.6116(2) 0.1071(2)
H1 H -0.1553 0.6821 0.0739
C3 C -0.2828(2) 0.5627(2) 0.0585(2)
H2 H -0.3358 0.5989 -0.0079
C4 C -0.3116(2) 0.4625(2) 0.1069(2)
H3 H -0.3853 0.4302 0.0750
C5 C -0.2334(2) 0.4082(2) 0.2025(2)
H4 H -0.2548 0.3393 0.2357
C6 C -0.1245(2) 0.4517(2) 0.2510(2)
C7 C 0.0607(2) 0.4515(2) 0.3998(2)
C8 C 0.1365(2) 0.4076(2) 0.5002(2)
H5 H 0.1161 0.3388 0.5344
C9 C 0.2410(2) 0.4605(2) 0.5525(2)
H6 H 0.2918 0.4278 0.6214
C10 C 0.2718(2) 0.5617(2) 0.5043(2)
H7 H 0.3444 0.5969 0.5388
C11 C 0.1958(2) 0.6112(2) 0.4051(2)
H8 H 0.2161 0.6818 0.3727
C12 C 0.0904(2) 0.5587(2) 0.3529(2)
C13 C -0.0693(2) 0.2761(3) 0.3860(3)
H9 H -0.0971 0.2994 0.4391
H10 H -0.0025 0.2228 0.4215
H11 H -0.1260 0.2266 0.3262
C14 C 0.03015(19) 0.7385(2) 0.2241(2)
C15 C 0.0070(2) 0.8446(2) 0.2735(2)
H12 H -0.0217 0.8313 0.3251
C16 C 0.0257(2) 0.9703(2) 0.2476(2)
H13 H 0.0100 1.0428 0.2819
C17 C 0.0670(2) 0.9902(2) 0.1723(2)
H14 H 0.0795 1.0763 0.1545
C18 C 0.0903(2) 0.8847(2) 0.1227(2)
H15 H 0.1186 0.8977 0.0706
C19 C 0.07183(19) 0.7594(2) 0.14986(19)
C20 C 0.2047(2) 0.6505(3) 0.0950(2)
H16 H 0.2033 0.7132 0.0403
H17 H 0.2220 0.5636 0.0770
H18 H 0.2613 0.6765 0.1669
N1 N 0.09463(16) 0.64785(17) 0.09645(17)
H19 H 0.0408 0.6438 0.0258
H20 H 0.0897 0.5730 0.1312
N2 N 0.01302(16) 0.60814(18) 0.25213(17)
N3 N -0.04317(18) 0.3941(2) 0.34302(19)
Cl1 Cl 0.08989(6) 0.34582(5) 0.13193(5)
loop_
_geom_bond_atom_site_label_1
_geom_bond_atom_site_label_2
_geom_bond_site_symmetry_1
_geom_bond_site_symmetry_2
C1 C2 1_555 1_555
C2 H1 1_555 1_555
C3 C2 1_555 1_555
H2 C3 1_555 1_555
C4 C3 1_555 1_555
H3 C4 1_555 1_555
C5 C4 1_555 1_555
H4 C5 1_555 1_555
C6 C1 1_555 1_555
C7 C8 1_555 1_555
C8 H5 1_555 1_555
C9 C8 1_555 1_555
H6 C9 1_555 1_555
C10 C9 1_555 1_555
H7 C10 1_555 1_555
C11 C10 1_555 1_555
H8 C11 1_555 1_555
C12 C7 1_555 1_555
C13 H9 1_555 1_555
H10 C13 1_555 1_555
H11 C13 1_555 1_555
C14 C15 1_555 1_555
C15 H12 1_555 1_555
C16 C15 1_555 1_555
H13 C16 1_555 1_555
C17 C16 1_555 1_555
H14 C17 1_555 1_555
C18 C17 1_555 1_555
H15 C18 1_555 1_555
C19 C14 1_555 1_555
C20 H16 1_555 1_555
H17 C20 1_555 1_555
H18 C20 1_555 1_555
N1 C19 1_555 1_555
H19 N1 1_555 1_555
H20 N1 1_555 1_555
N2 C1 1_555 1_555
N3 C6 1_555 1_555
C5 C6 1_555 1_555
C7 N3 1_555 1_555
C11 C12 1_555 1_555
C12 N2 1_555 1_555
C13 N3 1_555 1_555
C14 N2 1_555 1_555
C18 C19 1_555 1_555
C20 N1 1_555 1_555

#END
