
#######################################################################
#
#                 Cambridge Crystallographic Data Centre
#                                CCDC 
#
#######################################################################
#
# If this CIF has been generated from an entry in the Cambridge 
# Structural Database, then it will include bibliographic, chemical, 
# crystal, experimental, refinement or atomic coordinate data resulting 
# from the CCDC's data processing and validation procedures.
#
#######################################################################

data_BIHKOV
_chemical_formula_moiety         'C34 H29 N3 O2,C1 H4 O1'
_chemical_name_systematic        
'3-[(1,3-dibenzyl-1,3-dihydro-2H-benzimidazol-2-ylidene)methyl]-4-[4-(dimethylamino)phenyl]cyclobut-3-ene-1,2-dione methanol solvate'
_symmetry_cell_setting           triclinic
_symmetry_space_group_name_H-M   'P -1'
_symmetry_Int_Tables_number      2
_space_group_name_Hall           '-P 1'
loop_
_symmetry_equiv_pos_site_id
_symmetry_equiv_pos_as_xyz
1 x,y,z
2 -x,-y,-z
_cell_length_a                   8.8017(7)
_cell_length_b                   11.1365(8)
_cell_length_c                   17.4058(13)
_cell_angle_alpha                92.293(2)
_cell_angle_beta                 102.682(2)
_cell_angle_gamma                106.827(2)
_cell_volume                     1583.4
_cell_formula_units_Z            2
loop_
_atom_site_label
_atom_site_type_symbol
_atom_site_fract_x
_atom_site_fract_y
_atom_site_fract_z
O1 O 0.7241(3) 0.26136(19) 0.22861(13)
O2 O 0.9691(3) 0.48651(19) 0.36526(12)
N1 N 0.1450(4) 0.4210(4) -0.05155(18)
N2 N 0.9946(2) 0.86170(17) 0.37880(11)
N3 N 0.9008(2) 0.71303(17) 0.45021(11)
C1 C 0.1085(5) 0.5299(6) -0.0794(2)
H1 H 0.1664 0.6014 -0.0405
H2 H -0.0070 0.5167 -0.0883
H3 H 0.1413 0.5452 -0.1281
C2 C 0.0714(6) 0.3067(6) -0.1036(3)
H4 H 0.1040 0.2395 -0.0790
H5 H 0.1060 0.3171 -0.1522
H6 H -0.0455 0.2865 -0.1147
C3 C 0.2671(4) 0.4298(4) 0.01528(17)
C4 C 0.3457(4) 0.5435(4) 0.06334(18)
H7 H 0.3148 0.6145 0.0501
C5 C 0.4673(4) 0.5532(3) 0.12959(16)
H8 H 0.5174 0.6311 0.1600
C6 C 0.5191(3) 0.4499(2) 0.15328(14)
C7 C 0.4398(4) 0.3362(3) 0.10472(18)
H9 H 0.4709 0.2652 0.1179
C8 C 0.3190(5) 0.3260(4) 0.03893(19)
H10 H 0.2692 0.2481 0.0086
C9 C 0.6494(3) 0.4593(2) 0.22100(13)
C10 C 0.7343(4) 0.3713(2) 0.24893(15)
C11 C 0.8466(3) 0.4731(2) 0.31386(14)
C12 C 0.7478(3) 0.5573(2) 0.28280(12)
C13 C 0.7651(3) 0.6805(2) 0.30585(13)
H11 H 0.6991 0.7213 0.2752
C14 C 0.8823(3) 0.7478(2) 0.37581(13)
C15 C 0.7930(3) 0.6037(2) 0.47676(14)
H12 H 0.8592 0.5617 0.5110
H13 H 0.7271 0.5441 0.4311
C16 C 0.6827(3) 0.6422(2) 0.52066(14)
C17 C 0.5510(3) 0.6778(2) 0.48075(18)
H14 H 0.5298 0.6770 0.4259
C18 C 0.4511(4) 0.7146(3) 0.5214(2)
H15 H 0.3636 0.7390 0.4941
C19 C 0.4810(4) 0.7150(3) 0.6030(3)
H16 H 0.4145 0.7410 0.6305
C20 C 0.6065(4) 0.6778(3) 0.6426(2)
H17 H 0.6247 0.6768 0.6973
C21 C 0.7089(3) 0.6411(3) 0.60254(16)
H18 H 0.7950 0.6156 0.6304
C22 C 1.0302(3) 0.80473(19) 0.50074(13)
C23 C 1.0992(3) 0.8125(2) 0.58125(14)
H19 H 1.0589 0.7502 0.6120
C24 C 1.2315(3) 0.9184(2) 0.61331(15)
H20 H 1.2809 0.9275 0.6671
C25 C 1.2915(3) 1.0103(2) 0.56766(17)
H21 H 1.3814 1.0791 0.5915
C26 C 1.2227(3) 1.0037(2) 0.48771(16)
H22 H 1.2630 1.0661 0.4570
C27 C 1.0898(3) 0.8980(2) 0.45588(13)
C28 C 1.0291(3) 0.9273(2) 0.31114(14)
H23 H 1.0542 1.0173 0.3251
H24 H 0.9321 0.9006 0.2677
C29 C 1.1698(3) 0.9029(2) 0.28393(13)
C30 C 1.2122(3) 0.7945(3) 0.29497(16)
H25 H 1.1571 0.7343 0.3231
C31 C 1.3371(4) 0.7738(3) 0.26438(18)
H26 H 1.3626 0.6988 0.2705
C32 C 1.4218(4) 0.8632(4) 0.2257(2)
H27 H 1.5062 0.8496 0.2060
C33 C 1.3841(4) 0.9715(4) 0.2157(2)
H28 H 1.4427 1.0321 0.1891
C34 C 1.2587(4) 0.9933(3) 0.24489(18)
H29 H 1.2343 1.0687 0.2382
O3 O 0.9479(15) 0.1538(12) 0.2078(6)
C35 C 0.7726(17) 0.0202(19) 0.1583(11)
H30 H 0.7874 -0.0563 0.1774
H31 H 0.7631 0.0154 0.1022
H32 H 0.6749 0.0312 0.1693
H33 H 1.056(4) 0.258(3) 0.183(2)
loop_
_geom_bond_atom_site_label_1
_geom_bond_atom_site_label_2
_geom_bond_site_symmetry_1
_geom_bond_site_symmetry_2
O1 C10 1_555 1_555
O2 C11 1_555 1_555
N1 C1 1_555 1_555
N2 C14 1_555 1_555
N3 C14 1_555 1_555
C1 H1 1_555 1_555
H2 C1 1_555 1_555
H3 C1 1_555 1_555
C2 N1 1_555 1_555
H4 C2 1_555 1_555
H5 C2 1_555 1_555
H6 C2 1_555 1_555
C3 N1 1_555 1_555
C4 C3 1_555 1_555
H7 C4 1_555 1_555
C5 C4 1_555 1_555
H8 C5 1_555 1_555
C6 C5 1_555 1_555
C7 C6 1_555 1_555
H9 C7 1_555 1_555
C8 C3 1_555 1_555
H10 C8 1_555 1_555
C9 C6 1_555 1_555
C10 C9 1_555 1_555
C11 C10 1_555 1_555
C12 C9 1_555 1_555
C13 C12 1_555 1_555
H11 C13 1_555 1_555
C14 C13 1_555 1_555
C15 N3 1_555 1_555
H12 C15 1_555 1_555
H13 C15 1_555 1_555
C16 C15 1_555 1_555
C17 C16 1_555 1_555
H14 C17 1_555 1_555
C18 C17 1_555 1_555
H15 C18 1_555 1_555
C19 C18 1_555 1_555
H16 C19 1_555 1_555
C20 C19 1_555 1_555
H17 C20 1_555 1_555
C21 C16 1_555 1_555
H18 C21 1_555 1_555
C22 N3 1_555 1_555
C23 C22 1_555 1_555
H19 C23 1_555 1_555
C24 C23 1_555 1_555
H20 C24 1_555 1_555
C25 C24 1_555 1_555
H21 C25 1_555 1_555
C26 C25 1_555 1_555
H22 C26 1_555 1_555
C27 N2 1_555 1_555
C28 N2 1_555 1_555
H23 C28 1_555 1_555
H24 C28 1_555 1_555
C29 C28 1_555 1_555
C30 C29 1_555 1_555
H25 C30 1_555 1_555
C31 C30 1_555 1_555
H26 C31 1_555 1_555
C32 C31 1_555 1_555
H27 C32 1_555 1_555
C33 C32 1_555 1_555
H28 C33 1_555 1_555
C34 C29 1_555 1_555
H29 C34 1_555 1_555
O3 C35 1_555 1_555
C35 H30 1_555 1_555
H31 C35 1_555 1_555
H32 C35 1_555 1_555
H33 O3 1_555 1_555
C7 C8 1_555 1_555
C11 C12 1_555 1_555
C20 C21 1_555 1_555
C22 C27 1_555 1_555
C26 C27 1_555 1_555
C33 C34 1_555 1_555

#END
