
#######################################################################
#
#                 Cambridge Crystallographic Data Centre
#                                CCDC 
#
#######################################################################
#
# If this CIF has been generated from an entry in the Cambridge 
# Structural Database, then it will include bibliographic, chemical, 
# crystal, experimental, refinement or atomic coordinate data resulting 
# from the CCDC's data processing and validation procedures.
#
#######################################################################

data_BIHPOZ
_chemical_formula_moiety         'C17 H15 N1 O2'
_chemical_name_systematic        
1,1'-(9-Methyl-9H-carbazole-1,3-diyl)diethanone
_symmetry_cell_setting           orthorhombic
_symmetry_space_group_name_H-M   'P 21 21 21'
_symmetry_Int_Tables_number      19
_space_group_name_Hall           'P 2ac 2ab'
loop_
_symmetry_equiv_pos_site_id
_symmetry_equiv_pos_as_xyz
1 x,y,z
2 1/2-x,-y,1/2+z
3 1/2+x,1/2-y,-z
4 -x,1/2+y,1/2-z
_cell_length_a                   6.4122(19)
_cell_length_b                   12.077(4)
_cell_length_c                   16.676(5)
_cell_angle_alpha                90
_cell_angle_beta                 90
_cell_angle_gamma                90
_cell_volume                     1291.39
_exptl_crystal_colour            colorless
_exptl_crystal_description       Block
_cell_formula_units_Z            4
loop_
_atom_site_label
_atom_site_type_symbol
_atom_site_fract_x
_atom_site_fract_y
_atom_site_fract_z
O1 O 0.5523(3) -0.18108(14) 0.48511(10)
O2 O -0.1197(3) -0.13387(14) 0.72644(10)
N1 N 0.7162(3) 0.05242(16) 0.57044(11)
C1 C 0.5317(4) 0.01497(19) 0.60387(14)
C2 C 0.4443(4) -0.09239(18) 0.60488(13)
C3 C 0.2625(4) -0.1064(2) 0.64912(13)
H1 H 0.2039 -0.1785 0.6528
C4 C 0.1611(4) -0.0188(2) 0.68877(14)
C5 C 0.2469(4) 0.08732(19) 0.68591(14)
H2 H 0.1800 0.1475 0.7120
C6 C 0.4323(4) 0.10342(19) 0.64407(13)
C7 C 0.5608(4) 0.20048(18) 0.63132(13)
C8 C 0.5414(4) 0.31139(19) 0.65343(14)
H3 H 0.4270 0.3360 0.6849
C9 C 0.6941(4) 0.3846(2) 0.62802(14)
H4 H 0.6821 0.4607 0.6416
C10 C 0.8653(4) 0.3492(2) 0.58290(14)
H5 H 0.9673 0.4016 0.5667
C11 C 0.8892(4) 0.2391(2) 0.56145(15)
H6 H 1.0065 0.2145 0.5316
C12 C 0.7331(4) 0.16599(19) 0.58563(14)
C13 C 0.8672(4) -0.0108(2) 0.52421(14)
H7 H 0.8898 -0.0828 0.5498
H8 H 0.9993 0.0299 0.5219
H9 H 0.8141 -0.0220 0.4697
C14 C 0.5283(4) -0.1884(2) 0.55771(15)
C15 C 0.5802(4) -0.29098(19) 0.60338(15)
H10 H 0.6311 -0.3478 0.5663
H11 H 0.4551 -0.3181 0.6308
H12 H 0.6886 -0.2744 0.6431
C16 C -0.0368(4) -0.0431(2) 0.73126(14)
C17 C -0.1349(4) 0.0476(2) 0.78135(15)
H13 H -0.2634 0.0198 0.8060
H14 H -0.1675 0.1111 0.7471
H15 H -0.0373 0.0704 0.8234
loop_
_geom_bond_atom_site_label_1
_geom_bond_atom_site_label_2
_geom_bond_site_symmetry_1
_geom_bond_site_symmetry_2
O1 C14 1_555 1_555
O2 C16 1_555 1_555
N1 C1 1_555 1_555
C1 C2 1_555 1_555
C2 C3 1_555 1_555
C3 H1 1_555 1_555
C4 C3 1_555 1_555
C5 C4 1_555 1_555
H2 C5 1_555 1_555
C6 C1 1_555 1_555
C7 C6 1_555 1_555
C8 C7 1_555 1_555
H3 C8 1_555 1_555
C9 C8 1_555 1_555
H4 C9 1_555 1_555
C10 C9 1_555 1_555
H5 C10 1_555 1_555
C11 C10 1_555 1_555
H6 C11 1_555 1_555
C12 N1 1_555 1_555
C13 N1 1_555 1_555
H7 C13 1_555 1_555
H8 C13 1_555 1_555
H9 C13 1_555 1_555
C14 C2 1_555 1_555
C15 C14 1_555 1_555
H10 C15 1_555 1_555
H11 C15 1_555 1_555
H12 C15 1_555 1_555
C16 C4 1_555 1_555
C17 C16 1_555 1_555
H13 C17 1_555 1_555
H14 C17 1_555 1_555
H15 C17 1_555 1_555
C5 C6 1_555 1_555
C7 C12 1_555 1_555
C11 C12 1_555 1_555

#END
