
#######################################################################
#
#                 Cambridge Crystallographic Data Centre
#                                CCDC 
#
#######################################################################
#
# If this CIF has been generated from an entry in the Cambridge 
# Structural Database, then it will include bibliographic, chemical, 
# crystal, experimental, refinement or atomic coordinate data resulting 
# from the CCDC's data processing and validation procedures.
#
#######################################################################

data_BIHXAU
_chemical_formula_moiety         'C25 H22 O5'
_chemical_name_systematic        
'methyl hydroxy(4-(4-methoxyphenyl)-2H-chromen-2-yl)phenylacetate'
_symmetry_cell_setting           tetragonal
_symmetry_space_group_name_H-M   'P -4 21 c'
_symmetry_Int_Tables_number      114
_space_group_name_Hall           'P -4 2n'
loop_
_symmetry_equiv_pos_site_id
_symmetry_equiv_pos_as_xyz
1 x,y,z
2 y,-x,-z
3 -x,-y,z
4 -y,x,-z
5 1/2+x,1/2-y,1/2-z
6 1/2-y,1/2-x,1/2+z
7 1/2-x,1/2+y,1/2-z
8 1/2+y,1/2+x,1/2+z
_cell_length_a                   24.3665(6)
_cell_length_b                   24.3665(6)
_cell_length_c                   7.0430(3)
_cell_angle_alpha                90
_cell_angle_beta                 90
_cell_angle_gamma                90
_cell_volume                     4181.61
_exptl_crystal_colour            colorless
_exptl_crystal_description       block
_cell_formula_units_Z            8
loop_
_atom_site_label
_atom_site_type_symbol
_atom_site_fract_x
_atom_site_fract_y
_atom_site_fract_z
O1 O 0.29629(7) 0.09148(8) 0.9998(3)
C1 C 0.0434(3) 0.0630(4) 1.2282(14)
H1 H 0.0085 0.0519 1.2656
O2 O 0.24608(9) 0.12484(9) 1.3496(3)
C2 C 0.0875(3) 0.0492(4) 1.3347(11)
H2 H 0.0826 0.0298 1.4472
C3 C 0.26563(11) -0.03326(11) 0.5970(4)
O3 O 0.19944(10) 0.14262(9) 0.8787(3)
H3 H 0.1836 0.1718 0.8974
C4 C 0.23201(11) 0.03244(11) 0.8418(4)
H4 H 0.1971 0.0314 0.7889
C5 C 0.27291(10) 0.00370(11) 0.7633(4)
C6 C 0.32753(10) 0.00860(11) 0.8523(4)
C7 C 0.22662(11) 0.15191(12) 1.2029(4)
C8 C 0.38674(11) 0.06153(13) 1.0582(4)
H5 H 0.3924 0.0925 1.1328
O4 O 0.22573(10) 0.20044(9) 1.1854(4)
O5 O 0.24974(9) -0.14682(10) 0.1604(3)
C9 C 0.25652(12) -0.10764(12) 0.2964(4)
C10 C 0.21838(12) -0.10759(13) 0.4425(4)
H6 H 0.1893 -0.1323 0.4401
C11 C 0.33705(10) 0.05337(11) 0.9718(4)
C12 C 0.20314(11) 0.11347(12) 1.0494(4)
C13 C 0.30204(13) -0.03250(12) 0.4461(4)
H7 H 0.3302 -0.0068 0.4452
C14 C 0.37011(11) -0.02872(12) 0.8298(4)
H8 H 0.3652 -0.0592 0.7523
C15 C 0.29758(13) -0.06894(13) 0.2969(4)
H9 H 0.3224 -0.0673 0.1967
C16 C 0.24281(10) 0.06625(11) 1.0154(4)
H10 H 0.2425 0.0421 1.1268
C17 C 0.42833(12) 0.02382(14) 1.0344(5)
H11 H 0.4619 0.0289 1.0948
C18 C 0.14714(12) 0.09268(14) 1.1166(5)
C19 C 0.41995(12) -0.02097(14) 0.9216(5)
H12 H 0.4479 -0.0466 0.9061
C20 C 0.22322(12) -0.07123(13) 0.5907(4)
H13 H 0.1976 -0.0721 0.6886
C21 C 0.27170(17) 0.15842(18) 1.4947(5)
H14 H 0.2844 0.1354 1.5961
H15 H 0.2454 0.1842 1.5432
H16 H 0.3022 0.1779 1.4407
C22 C 0.10100(13) 0.10770(15) 1.0147(7)
H17 H 0.1048 0.1287 0.9053
C23 C 0.29329(15) -0.15412(17) 0.0253(6)
H18 H 0.2835 -0.1826 -0.0626
H19 H 0.3263 -0.1642 0.0908
H20 H 0.2991 -0.1204 -0.0424
C24 C 0.14029(19) 0.0637(2) 1.2773(7)
H21 H 0.1705 0.0535 1.3496
C25 C 0.04944(18) 0.0918(2) 1.0735(13)
H22 H 0.0188 0.1017 1.0025
loop_
_geom_bond_atom_site_label_1
_geom_bond_atom_site_label_2
_geom_bond_site_symmetry_1
_geom_bond_site_symmetry_2
O1 C11 1_555 1_555
C1 H1 1_555 1_555
O2 C7 1_555 1_555
C2 C1 1_555 1_555
H2 C2 1_555 1_555
C3 C5 1_555 1_555
O3 H3 1_555 1_555
C4 H4 1_555 1_555
C5 C4 1_555 1_555
C6 C5 1_555 1_555
C7 O4 1_555 1_555
C8 H5 1_555 1_555
O5 C9 1_555 1_555
C9 C10 1_555 1_555
C10 H6 1_555 1_555
C11 C6 1_555 1_555
C12 O3 1_555 1_555
C13 C3 1_555 1_555
H7 C13 1_555 1_555
C14 C6 1_555 1_555
H8 C14 1_555 1_555
C15 C9 1_555 1_555
H9 C15 1_555 1_555
C16 O1 1_555 1_555
H10 C16 1_555 1_555
C17 C8 1_555 1_555
H11 C17 1_555 1_555
C18 C12 1_555 1_555
C19 C14 1_555 1_555
H12 C19 1_555 1_555
C20 C3 1_555 1_555
H13 C20 1_555 1_555
C21 O2 1_555 1_555
H14 C21 1_555 1_555
H15 C21 1_555 1_555
H16 C21 1_555 1_555
C22 C18 1_555 1_555
H17 C22 1_555 1_555
C23 O5 1_555 1_555
H18 C23 1_555 1_555
H19 C23 1_555 1_555
H20 C23 1_555 1_555
C24 C2 1_555 1_555
H21 C24 1_555 1_555
C25 C1 1_555 1_555
H22 C25 1_555 1_555
C4 C16 1_555 1_555
C7 C12 1_555 1_555
C8 C11 1_555 1_555
C10 C20 1_555 1_555
C12 C16 1_555 1_555
C13 C15 1_555 1_555
C17 C19 1_555 1_555
C18 C24 1_555 1_555
C22 C25 1_555 1_555

#END
