
#######################################################################
#
#                 Cambridge Crystallographic Data Centre
#                                CCDC 
#
#######################################################################
#
# If this CIF has been generated from an entry in the Cambridge 
# Structural Database, then it will include bibliographic, chemical, 
# crystal, experimental, refinement or atomic coordinate data resulting 
# from the CCDC's data processing and validation procedures.
#
#######################################################################

data_BIJVOI
_chemical_formula_moiety         'C11 H10 F3 N1 O1'
_chemical_name_systematic        
N-benzyl-1,2,2-trifluorocyclopropane-1-carboxamide
_symmetry_cell_setting           orthorhombic
_symmetry_space_group_name_H-M   'P c a 21'
_symmetry_Int_Tables_number      29
_space_group_name_Hall           'P 2c -2ac'
loop_
_symmetry_equiv_pos_site_id
_symmetry_equiv_pos_as_xyz
1 x,y,z
2 -x,-y,1/2+z
3 1/2-x,y,1/2+z
4 1/2+x,-y,z
_cell_length_a                   21.421(6)
_cell_length_b                   8.828(2)
_cell_length_c                   11.037(3)
_cell_angle_alpha                90
_cell_angle_beta                 90
_cell_angle_gamma                90
_cell_volume                     2087.15
_exptl_crystal_colour            colorless
_exptl_crystal_description       needle
_cell_formula_units_Z            8
_exptl_crystal_recrystallization_method 'Dichloromethane/petroleum ether'
loop_
_atom_site_label
_atom_site_type_symbol
_atom_site_fract_x
_atom_site_fract_y
_atom_site_fract_z
F1 F -0.02822(9) 0.3466(2) 0.19240(18)
F2 F -0.09919(11) 0.3570(3) -0.0097(2)
F3 F -0.03682(13) 0.5185(3) -0.0973(2)
O1 O 0.05884(11) 0.6428(3) 0.0604(2)
N1 N 0.09004(13) 0.4249(3) 0.1514(2)
H1 H 0.0760(17) 0.342(3) 0.194(3)
C1 C -0.01868(16) 0.4675(4) 0.1171(3)
C2 C -0.05967(19) 0.4733(5) 0.0095(4)
C3 C -0.07206(19) 0.5801(5) 0.1073(4)
H2 H -0.109441 0.562583 0.158151
H3 H -0.061444 0.687846 0.093609
C4 C 0.04733(16) 0.5197(4) 0.1081(3)
C5 C 0.15652(15) 0.4558(4) 0.1423(3)
H4 H 0.176625 0.430363 0.220466
H5 H 0.162598 0.565535 0.127952
C6 C 0.18844(16) 0.3684(4) 0.0423(3)
C7 C 0.15623(17) 0.3093(4) -0.0555(3)
H6 H 0.112427 0.324262 -0.061640
C8 C 0.1873(2) 0.2287(5) -0.1446(3)
H7 H 0.164577 0.186899 -0.210575
C9 C 0.2513(2) 0.2086(4) -0.1379(4)
H8 H 0.272667 0.153298 -0.198994
C10 C 0.28363(19) 0.2696(5) -0.0419(4)
H9 H 0.327643 0.257619 -0.037324
C11 C 0.25257(18) 0.3480(4) 0.0479(4)
H10 H 0.275364 0.388397 0.114287
F4 F -0.00897(10) -0.1654(3) 0.2719(2)
F5 F -0.01636(11) -0.1406(3) 0.5127(2)
F6 F 0.05863(11) 0.0260(3) 0.5225(2)
O2 O 0.09867(11) 0.1375(3) 0.2824(2)
N2 N 0.10078(13) -0.0859(3) 0.1798(3)
H11 H 0.0786(15) -0.174(3) 0.156(3)
C12 C 0.01834(16) -0.0383(4) 0.3204(3)
C13 C 0.01141(19) -0.0251(5) 0.4538(3)
C14 C -0.02587(19) 0.0753(4) 0.3785(3)
H12 H -0.014100 0.183652 0.375868
H13 H -0.071240 0.055143 0.372808
C15 C 0.07626(15) 0.0133(4) 0.2576(3)
C16 C 0.16116(15) -0.0603(4) 0.1222(3)
H14 H 0.168483 0.050145 0.116232
H15 H 0.159728 -0.101331 0.038743
C17 C 0.21523(16) -0.1316(4) 0.1884(3)
C18 C 0.20821(17) -0.2150(4) 0.2939(3)
H16 H 0.167866 -0.227167 0.328315
C19 C 0.2597(2) -0.2812(4) 0.3501(4)
H17 H 0.254086 -0.339314 0.421730
C20 C 0.31836(19) -0.2629(5) 0.3026(4)
H18 H 0.353338 -0.308781 0.340739
C21 C 0.32622(18) -0.1775(5) 0.1993(4)
H19 H 0.366891 -0.162956 0.166977
C22 C 0.27535(17) -0.1128(4) 0.1423(3)
H20 H 0.281407 -0.054716 0.070750
loop_
_geom_bond_atom_site_label_1
_geom_bond_atom_site_label_2
_geom_bond_site_symmetry_1
_geom_bond_site_symmetry_2
F1 C1 1_555 1_555
F2 C2 1_555 1_555
F3 C2 1_555 1_555
O1 C4 1_555 1_555
N1 H1 1_555 1_555
C1 C2 1_555 1_555
C2 C3 1_555 1_555
C3 C1 1_555 1_555
H2 C3 1_555 1_555
H3 C3 1_555 1_555
C4 N1 1_555 1_555
C5 N1 1_555 1_555
H4 C5 1_555 1_555
H5 C5 1_555 1_555
C6 C5 1_555 1_555
C7 C6 1_555 1_555
H6 C7 1_555 1_555
C8 C7 1_555 1_555
H7 C8 1_555 1_555
C9 C8 1_555 1_555
H8 C9 1_555 1_555
C10 C9 1_555 1_555
H9 C10 1_555 1_555
C11 C6 1_555 1_555
H10 C11 1_555 1_555
F4 C12 1_555 1_555
F5 C13 1_555 1_555
F6 C13 1_555 1_555
O2 C15 1_555 1_555
N2 H11 1_555 1_555
C12 C13 1_555 1_555
C13 C14 1_555 1_555
C14 C12 1_555 1_555
H12 C14 1_555 1_555
H13 C14 1_555 1_555
C15 N2 1_555 1_555
C16 N2 1_555 1_555
H14 C16 1_555 1_555
H15 C16 1_555 1_555
C17 C16 1_555 1_555
C18 C17 1_555 1_555
H16 C18 1_555 1_555
C19 C18 1_555 1_555
H17 C19 1_555 1_555
C20 C19 1_555 1_555
H18 C20 1_555 1_555
C21 C20 1_555 1_555
H19 C21 1_555 1_555
C22 C17 1_555 1_555
H20 C22 1_555 1_555
C1 C4 1_555 1_555
C10 C11 1_555 1_555
C12 C15 1_555 1_555
C21 C22 1_555 1_555

#END
