
#######################################################################
#
#                 Cambridge Crystallographic Data Centre
#                                CCDC 
#
#######################################################################
#
# If this CIF has been generated from an entry in the Cambridge 
# Structural Database, then it will include bibliographic, chemical, 
# crystal, experimental, refinement or atomic coordinate data resulting 
# from the CCDC's data processing and validation procedures.
#
#######################################################################

data_BIKGOT
_chemical_formula_moiety         'C28 H20 O1'
_chemical_name_systematic        Tetraphenylfuran
_symmetry_cell_setting           monoclinic
_symmetry_space_group_name_H-M   'C 2/c'
_symmetry_Int_Tables_number      15
_space_group_name_Hall           '-C 2yn'
loop_
_symmetry_equiv_pos_site_id
_symmetry_equiv_pos_as_xyz
1 x,y,z
2 -x,y,1/2-z
3 1/2+x,1/2+y,z
4 1/2-x,1/2+y,1/2-z
5 -x,-y,-z
6 x,-y,1/2+z
7 1/2-x,1/2-y,-z
8 1/2+x,1/2-y,1/2+z
_cell_length_a                   25.7493(14)
_cell_length_b                   8.1753(3)
_cell_length_c                   21.7304(12)
_cell_angle_alpha                90
_cell_angle_beta                 117.408(7)
_cell_angle_gamma                90
_cell_volume                     4060.95
_cell_formula_units_Z            8
loop_
_atom_site_label
_atom_site_type_symbol
_atom_site_fract_x
_atom_site_fract_y
_atom_site_fract_z
O1 O 0.22638(4) 0.00839(14) 0.47010(5)
C1 C 0.31007(7) 0.0581(2) 0.42405(8)
H1 H 0.2717 0.0904 0.3958
C2 C 0.34950(8) 0.0550(2) 0.39757(9)
H2 H 0.3376 0.0854 0.3518
C3 C 0.40613(8) 0.0071(3) 0.43841(9)
H3 H 0.4327 0.0051 0.4205
C4 C 0.42371(8) -0.0383(3) 0.50647(10)
H4 H 0.4621 -0.0715 0.5342
C5 C 0.38451(7) -0.0345(2) 0.53340(9)
H5 H 0.3968 -0.0646 0.5793
C6 C 0.32689(7) 0.0138(2) 0.49264(8)
C7 C 0.28424(7) 0.0140(2) 0.51974(8)
C8 C 0.28733(6) 0.0141(2) 0.58401(7)
C9 C 0.34082(6) 0.0239(2) 0.65158(7)
C10 C 0.37636(7) 0.1613(2) 0.66829(8)
H6 H 0.3666 0.2470 0.6368
C11 C 0.42610(7) 0.1719(3) 0.73127(10)
H7 H 0.4494 0.2650 0.7419
C12 C 0.44132(8) 0.0468(4) 0.77802(10)
H8 H 0.4753 0.0535 0.8199
C13 C 0.40607(9) -0.0895(3) 0.76273(9)
H9 H 0.4160 -0.1742 0.7948
C14 C 0.35591(7) -0.1010(2) 0.69991(8)
H10 H 0.3322 -0.1931 0.6901
C15 C 0.23510(6) 0.0925(2) 0.68822(7)
H11 H 0.2641 0.1666 0.6930
C16 C 0.21786(7) 0.0818(2) 0.73961(8)
H12 H 0.2352 0.1488 0.7785
C17 C 0.17512(7) -0.0274(2) 0.73353(8)
H13 H 0.1631 -0.0336 0.7678
C18 C 0.15018(7) -0.1277(2) 0.67614(9)
H14 H 0.1216 -0.2027 0.6720
C19 C 0.16737(6) -0.1177(2) 0.62477(8)
H15 H 0.1504 -0.1865 0.5865
C20 C 0.20972(6) -0.0058(2) 0.62952(7)
C21 C 0.22794(6) 0.00536(19) 0.57420(7)
C22 C 0.19269(7) 0.0040(2) 0.50417(8)
C23 C 0.12942(7) 0.0000(2) 0.45893(8)
C24 C 0.09036(7) 0.0759(2) 0.47724(9)
H16 H 0.1043 0.1326 0.5189
C25 C 0.03073(8) 0.0676(3) 0.43386(11)
H17 H 0.0048 0.1183 0.4467
C26 C 0.00962(9) -0.0151(3) 0.37202(11)
H18 H -0.0305 -0.0213 0.3432
C27 C 0.04783(9) -0.0884(3) 0.35296(10)
H19 H 0.0336 -0.1436 0.3109
C28 C 0.10734(8) -0.0809(3) 0.39570(8)
H20 H 0.1329 -0.1305 0.3821
loop_
_geom_bond_atom_site_label_1
_geom_bond_atom_site_label_2
_geom_bond_site_symmetry_1
_geom_bond_site_symmetry_2
O1 C7 1_555 1_555
C1 H1 1_555 1_555
C2 C1 1_555 1_555
H2 C2 1_555 1_555
C3 C2 1_555 1_555
H3 C3 1_555 1_555
C4 C3 1_555 1_555
H4 C4 1_555 1_555
C5 C4 1_555 1_555
H5 C5 1_555 1_555
C6 C1 1_555 1_555
C7 C6 1_555 1_555
C8 C7 1_555 1_555
C9 C8 1_555 1_555
C10 C9 1_555 1_555
H6 C10 1_555 1_555
C11 C10 1_555 1_555
H7 C11 1_555 1_555
C12 C11 1_555 1_555
H8 C12 1_555 1_555
C13 C12 1_555 1_555
H9 C13 1_555 1_555
C14 C9 1_555 1_555
H10 C14 1_555 1_555
C15 H11 1_555 1_555
C16 C15 1_555 1_555
H12 C16 1_555 1_555
C17 C16 1_555 1_555
H13 C17 1_555 1_555
C18 C17 1_555 1_555
H14 C18 1_555 1_555
C19 C18 1_555 1_555
H15 C19 1_555 1_555
C20 C15 1_555 1_555
C21 C8 1_555 1_555
C22 O1 1_555 1_555
C23 C22 1_555 1_555
C24 C23 1_555 1_555
H16 C24 1_555 1_555
C25 C24 1_555 1_555
H17 C25 1_555 1_555
C26 C25 1_555 1_555
H18 C26 1_555 1_555
C27 C26 1_555 1_555
H19 C27 1_555 1_555
C28 C23 1_555 1_555
H20 C28 1_555 1_555
C5 C6 1_555 1_555
C13 C14 1_555 1_555
C19 C20 1_555 1_555
C20 C21 1_555 1_555
C21 C22 1_555 1_555
C27 C28 1_555 1_555

#END
