
#######################################################################
#
#                 Cambridge Crystallographic Data Centre
#                                CCDC 
#
#######################################################################
#
# If this CIF has been generated from an entry in the Cambridge 
# Structural Database, then it will include bibliographic, chemical, 
# crystal, experimental, refinement or atomic coordinate data resulting 
# from the CCDC's data processing and validation procedures.
#
#######################################################################

data_BIKMOZ
_chemical_formula_moiety         'C15 H16 Cl1 N3 O2'
_chemical_name_systematic        
't-Butyl (1-(4-chlorophenyl)-2,2-dicyanoethyl)carbamate'
_symmetry_cell_setting           orthorhombic
_symmetry_space_group_name_H-M   'P c c n'
_symmetry_Int_Tables_number      56
_space_group_name_Hall           '-P 2ab 2ac'
loop_
_symmetry_equiv_pos_site_id
_symmetry_equiv_pos_as_xyz
1 x,y,z
2 1/2-x,1/2-y,z
3 1/2+x,-y,1/2-z
4 -x,1/2+y,1/2-z
5 -x,-y,-z
6 1/2+x,1/2+y,-z
7 1/2-x,y,1/2+z
8 x,1/2-y,1/2+z
_cell_length_a                   17.723(6)
_cell_length_b                   19.685(6)
_cell_length_c                   9.112(3)
_cell_angle_alpha                90
_cell_angle_beta                 90
_cell_angle_gamma                90
_cell_volume                     3178.97
_exptl_crystal_colour            colorless
_exptl_crystal_description       block
_chemical_melting_point          '112-115 deg.C'
_cell_formula_units_Z            8
loop_
_atom_site_label
_atom_site_type_symbol
_atom_site_fract_x
_atom_site_fract_y
_atom_site_fract_z
C1 C 0.3052(3) 0.1014(3) 0.4719(6)
C2 C 0.2659(4) 0.0520(4) 0.4004(9)
H1 H 0.2909 0.0198 0.3437
C3 C 0.1887(4) 0.0505(3) 0.4133(9)
H2 H 0.1617 0.0163 0.3664
C4 C 0.1505(3) 0.0985(3) 0.4940(6)
C5 C 0.1912(4) 0.1469(4) 0.5637(8)
H3 H 0.1663 0.1794 0.6198
C6 C 0.2689(4) 0.1491(4) 0.5531(9)
H4 H 0.2960 0.1828 0.6012
C7 C 0.0659(3) 0.0922(3) 0.4964(6)
H5 H 0.0539 0.0452 0.5231
C8 C 0.0514(4) 0.1737(3) 0.2865(7)
C9 C 0.0324(3) 0.1050(3) 0.3405(7)
H6 H 0.0547 0.0718 0.2731
C10 C -0.0497(4) 0.0954(4) 0.3389(7)
C11 C -0.0298(3) 0.1113(3) 0.6833(6)
C12 C -0.1267(3) 0.1517(3) 0.8473(7)
C13 C -0.1183(6) 0.0977(7) 0.9587(11)
H7 H -0.1103 0.0549 0.9106
H8 H -0.1633 0.0953 1.0172
H9 H -0.0760 0.1078 1.0206
C14 C -0.1919(4) 0.1389(4) 0.7480(10)
H10 H -0.1973 0.1762 0.6811
H11 H -0.2371 0.1342 0.8052
H12 H -0.1832 0.0978 0.6936
C15 C -0.1342(6) 0.2207(5) 0.9206(15)
H13 H -0.0938 0.2268 0.9894
H14 H -0.1817 0.2232 0.9712
H15 H -0.1320 0.2557 0.8474
Cl1 Cl 0.40290(9) 0.10267(12) 0.45674(19)
N1 N 0.0682(4) 0.2254(3) 0.2436(7)
N2 N -0.1133(3) 0.0859(4) 0.3397(8)
N3 N 0.0296(3) 0.1351(2) 0.6009(6)
O1 O -0.0512(2) 0.0524(2) 0.6797(5)
O2 O -0.0574(2) 0.1593(2) 0.7627(5)
loop_
_geom_bond_atom_site_label_1
_geom_bond_atom_site_label_2
_geom_bond_site_symmetry_1
_geom_bond_site_symmetry_2
C1 C2 1_555 1_555
C2 H1 1_555 1_555
C3 C2 1_555 1_555
H2 C3 1_555 1_555
C4 C3 1_555 1_555
C5 C4 1_555 1_555
H3 C5 1_555 1_555
C6 C1 1_555 1_555
H4 C6 1_555 1_555
C7 C4 1_555 1_555
H5 C7 1_555 1_555
C8 C9 1_555 1_555
C9 C7 1_555 1_555
H6 C9 1_555 1_555
C10 C9 1_555 1_555
C11 N3 1_555 1_555
C12 C13 1_555 1_555
C13 H7 1_555 1_555
H8 C13 1_555 1_555
H9 C13 1_555 1_555
C14 C12 1_555 1_555
H10 C14 1_555 1_555
H11 C14 1_555 1_555
H12 C14 1_555 1_555
C15 C12 1_555 1_555
H13 C15 1_555 1_555
H14 C15 1_555 1_555
H15 C15 1_555 1_555
Cl1 C1 1_555 1_555
N1 C8 1_555 1_555
N2 C10 1_555 1_555
N3 C7 1_555 1_555
O1 C11 1_555 1_555
O2 C11 1_555 1_555
C5 C6 1_555 1_555
C12 O2 1_555 1_555

#END
