
#######################################################################
#
#                 Cambridge Crystallographic Data Centre
#                                CCDC 
#
#######################################################################
#
# If this CIF has been generated from an entry in the Cambridge 
# Structural Database, then it will include bibliographic, chemical, 
# crystal, experimental, refinement or atomic coordinate data resulting 
# from the CCDC's data processing and validation procedures.
#
#######################################################################

data_BIKVAT
_chemical_formula_moiety         'C22 H18 S4 Si1'
_chemical_name_systematic        
2,6-bis(Methylthio)-4,4-diphenyldithieno(3,2-b:2',3'-d)silole
_symmetry_cell_setting           triclinic
_symmetry_space_group_name_H-M   'P -1'
_symmetry_Int_Tables_number      2
_space_group_name_Hall           '-P 1'
loop_
_symmetry_equiv_pos_site_id
_symmetry_equiv_pos_as_xyz
1 x,y,z
2 -x,-y,-z
_cell_length_a                   7.9176(5)
_cell_length_b                   12.0194(7)
_cell_length_c                   12.0845(7)
_cell_angle_alpha                79.475(3)
_cell_angle_beta                 85.387(2)
_cell_angle_gamma                74.614(2)
_cell_volume                     1089.53
_exptl_crystal_colour            yellow
_exptl_crystal_description       platelet
_chemical_melting_point          '173-174 deg.C'
_cell_formula_units_Z            2
_exptl_crystal_recrystallization_method chloroform/ethanol
loop_
_atom_site_label
_atom_site_type_symbol
_atom_site_fract_x
_atom_site_fract_y
_atom_site_fract_z
S1 S 0.6581 0.0165 0.6544
S2 S 0.9676 0.1666 0.4809
S3 S 0.3999 -0.0736 0.8217
S4 S 1.1970 0.3220 0.3667
Si1 Si 0.7597 0.2999 0.7816
C1 C 0.5317 0.0228 0.7791
C2 C 0.5569 0.1069 0.8326
C3 C 0.6771 0.1689 0.7759
C4 C 0.7380 0.1305 0.6761
C5 C 0.8511 0.1927 0.6049
C6 C 0.8800 0.2880 0.6430
C7 C 0.9980 0.3388 0.5693
C8 C 1.0568 0.2838 0.4784
C9 C 0.5724 0.4331 0.7802
C10 C 0.4396 0.4517 0.7056
C11 C 0.2919 0.5436 0.7022
C12 C 0.2744 0.6183 0.7778
C13 C 0.4024 0.6045 0.8509
C14 C 0.5506 0.5115 0.8532
C15 C 0.9158 0.2806 0.8951
C16 C 0.9533 0.1832 0.9771
C17 C 1.0778 0.1696 1.0564
C18 C 1.1691 0.2514 1.0534
C19 C 1.1361 0.3487 0.9725
C20 C 1.0117 0.3637 0.8926
C21 C 0.2186 -0.0086 0.7342
C22 C 1.4010 0.2735 0.4320
H1 H 0.4995 0.1226 0.9023
H2 H 1.0324 0.4053 0.5819
H3 H 0.4513 0.3990 0.6541
H4 H 0.2031 0.5544 0.6500
H5 H 0.1720 0.6811 0.7778
H6 H 0.3891 0.6585 0.9013
H7 H 0.6399 0.5028 0.9044
H8 H 0.8915 0.1249 0.9797
H9 H 1.1020 0.1016 1.1126
H10 H 1.2543 0.2418 1.1078
H11 H 1.1986 0.4065 0.9700
H12 H 0.9895 0.4314 0.8360
H13 H 0.1672 0.0683 0.7492
H14 H 0.2567 -0.0048 0.6573
H15 H 0.1344 -0.0534 0.7494
H16 H 1.4227 0.1917 0.4588
H17 H 1.4907 0.2881 0.3787
H18 H 1.3997 0.3131 0.4934
loop_
_geom_bond_atom_site_label_1
_geom_bond_atom_site_label_2
_geom_bond_site_symmetry_1
_geom_bond_site_symmetry_2
S1 C1 1_555 1_555
S2 C5 1_555 1_555
S3 C1 1_555 1_555
S4 C8 1_555 1_555
Si1 C3 1_555 1_555
C1 C2 1_555 1_555
C2 C3 1_555 1_555
C3 C4 1_555 1_555
C4 S1 1_555 1_555
C5 C4 1_555 1_555
C6 Si1 1_555 1_555
C7 C6 1_555 1_555
C8 S2 1_555 1_555
C9 Si1 1_555 1_555
C10 C9 1_555 1_555
C11 C10 1_555 1_555
C12 C11 1_555 1_555
C13 C12 1_555 1_555
C14 C9 1_555 1_555
C15 Si1 1_555 1_555
C16 C15 1_555 1_555
C17 C16 1_555 1_555
C18 C17 1_555 1_555
C19 C18 1_555 1_555
C20 C15 1_555 1_555
C21 S3 1_555 1_555
C22 S4 1_555 1_555
H1 C2 1_555 1_555
H2 C7 1_555 1_555
H3 C10 1_555 1_555
H4 C11 1_555 1_555
H5 C12 1_555 1_555
H6 C13 1_555 1_555
H7 C14 1_555 1_555
H8 C16 1_555 1_555
H9 C17 1_555 1_555
H10 C18 1_555 1_555
H11 C19 1_555 1_555
H12 C20 1_555 1_555
H13 C21 1_555 1_555
H14 C21 1_555 1_555
H15 C21 1_555 1_555
H16 C22 1_555 1_555
H17 C22 1_555 1_555
H18 C22 1_555 1_555
C5 C6 1_555 1_555
C7 C8 1_555 1_555
C13 C14 1_555 1_555
C19 C20 1_555 1_555

#END
