
#######################################################################
#
#                 Cambridge Crystallographic Data Centre
#                                CCDC 
#
#######################################################################
#
# If this CIF has been generated from an entry in the Cambridge 
# Structural Database, then it will include bibliographic, chemical, 
# crystal, experimental, refinement or atomic coordinate data resulting 
# from the CCDC's data processing and validation procedures.
#
#######################################################################

data_BIKWOH10
_chemical_formula_moiety         'C28 H39 N1 O18'
_chemical_name_systematic        
2-Acetamido-1,3,6-tri-O-acetyl-2-desoxy-4-O-(2,3,4,6-tetra-O-acetyl-\a-L-idopyranosyl)-\a-D-glucopyranose
_symmetry_cell_setting           monoclinic
_symmetry_space_group_name_H-M   'P 21'
_symmetry_Int_Tables_number      4
_space_group_name_Hall           'P 2yb'
loop_
_symmetry_equiv_pos_site_id
_symmetry_equiv_pos_as_xyz
1 x,y,z
2 -x,1/2+y,-z
_cell_length_a                   9.331(5)
_cell_length_b                   15.385(8)
_cell_length_c                   11.989(6)
_cell_angle_alpha                90
_cell_angle_beta                 97.07(2)
_cell_angle_gamma                90
_cell_volume                     1708.02
_cell_formula_units_Z            2
loop_
_atom_site_label
_atom_site_type_symbol
_atom_site_fract_x
_atom_site_fract_y
_atom_site_fract_z
C1 C 0.7952(5) -0.3085(4) 0.4365(4)
C2 C 0.8637(5) -0.2204(4) 0.4313(4)
C3 C 0.7706(5) -0.1602(4) 0.3514(4)
C4 C 0.7371(4) -0.2041(4) 0.2382(3)
C5 C 0.6666(5) -0.2917(4) 0.2525(4)
C6 C 0.6271(5) -0.3435(4) 0.1462(4)
C7 C 0.6482(7) -0.3516(5) 0.5767(5)
C8 C 0.5122(8) -0.3349(6) 0.6228(6)
C9 C 1.0259(6) -0.1728(4) 0.5962(4)
C10 C 1.0333(7) -0.1215(6) 0.7044(5)
C11 C 0.8093(6) -0.0076(4) 0.3771(5)
C12 C 0.8975(8) 0.0652(5) 0.3428(6)
C13 C 0.7130(6) -0.3632(4) -0.0298(4)
C14 C 0.8260(7) -0.3367(5) -0.0999(5)
N1 N 0.8920(4) -0.1799 0.5413(3)
O1 O 0.6652(4) -0.2994(3) 0.4886(3)
O2 O 0.8521(3) -0.0826(3) 0.3353(3)
O3 O 0.6391(3) -0.1514(2) 0.1631(2)
O4 O 0.7610(3) -0.3442(3) 0.3286(2)
O5 O 0.7447(4) -0.3339(3) 0.0777(3)
O6 O 0.7352(6) -0.4044(4) 0.6104(4)
O7 O 1.1302(4) -0.2032(4) 0.5604(4)
O8 O 0.7148(5) -0.0029(4) 0.4359(5)
O9 O 0.6039(4) -0.4010(3) -0.0612(3)
C15 C 0.6975(5) -0.1208(4) 0.0699(4)
C16 C 0.5769(4) -0.1013(4) -0.0243(4)
C17 C 0.6499(5) -0.0676(4) -0.1231(4)
C18 C 0.7321(5) 0.0150(4) -0.0880(4)
C19 C 0.8423(5) -0.0002(4) 0.0158(4)
C20 C 0.9775(5) -0.0505(4) -0.0064(4)
C21 C 0.3628(5) -0.1838(4) -0.0725(4)
C22 C 0.3048(6) -0.2698(5) -0.1075(6)
C23 C 0.5533(5) -0.0811(4) -0.3156(4)
C24 C 0.4323(7) -0.0527(5) -0.4020(5)
C25 C 0.7688(6) 0.1149(4) -0.2356(5)
C26 C 0.8573(7) 0.1290(5) -0.3280(6)
C27 C 1.1122(5) -0.1234(5) 0.1462(5)
C28 C 1.2257(7) -0.1113(5) 0.2419(6)
O10 O 0.5077(3) -0.1827(2) -0.0571(2)
O11 O 0.5383(3) -0.0465(3) -0.2143(2)
O12 O 0.8098(3) 0.0411(3) -0.1794(3)
O13 O 0.7692(3) -0.0395(3) 0.1015(2)
O14 O 1.0769(3) -0.0482(3) 0.0931(3)
O15 O 0.2913(4) -0.1206(4) -0.0617(4)
O16 O 0.6499(4) -0.1286(4) -0.3315(3)
O17 O 0.6745(5) 0.1584(8) -0.2132(5)
O18 O 1.0547(4) -0.1913(3) 0.1173(4)
H1 H 0.869(5) -0.353(4) 0.475(4)
H2 H 0.973(6) -0.226(4) 0.407(4)
H3 H 0.676(4) -0.145(3) 0.377(3)
H4 H 0.825(3) -0.217(2) 0.204(3)
H5 H 0.580(6) -0.277(4) 0.280(4)
H6 H 0.527(7) -0.322(5) 0.105(5)
H7 H 0.629(7) -0.407(4) 0.162(5)
H8 H 0.450(5) -0.292(4) 0.574(5)
H9 H 0.532(7) -0.302(5) 0.684(6)
H10 H 0.460(5) -0.390(3) 0.627(4)
H11 H 0.821(6) -0.170(4) 0.576(5)
H12 H 0.970(8) -0.083(5) 0.707(6)
H13 H 1.142(8) -0.111(6) 0.739(6)
H14 H 1.019(5) -0.164(3) 0.764(3)
H15 H 1.002(6) 0.050(4) 0.362(4)
H16 H 0.870(5) 0.119(3) 0.375(4)
H17 H 0.882(5) 0.076(5) 0.258(4)
H18 H 0.890(6) -0.310(4) -0.059(5)
H19 H 0.780(6) -0.297(3) -0.162(3)
H20 H 0.879(5) -0.383(3) -0.121(4)
H21 H 0.776(5) -0.165(3) 0.049(4)
H22 H 0.506(4) -0.070(3) 0.011(3)
H23 H 0.717(4) -0.113(3) -0.147(3)
H24 H 0.657 0.057(5) -0.081(5)
H25 H 0.853(4) 0.060(3) -0.044(3)
H26 H 1.023(7) -0.012(5) -0.061(5)
H27 H 0.941(4) -0.108(3) -0.027(3)
H28 H 0.257(5) -0.268(3) -0.182(4)
H29 H 0.369(6) -0.317(4) -0.110(5)
H30 H 0.237(5) -0.285(3) -0.058(4)
H31 H 0.347(7) -0.082(5) -0.391(6)
H32 H 0.455(5) -0.073(3) -0.478(4)
H33 H 0.418(5) 0.004(3) -0.402(3)
H34 H 0.928(5) 0.165(3) -0.298(4)
H35 H 0.889(9) 0.082(5) -0.364(6)
H36 H 1.239(5) -0.156(4) 0.277(4)
H37 H 1.200(5) -0.065(3) 0.291(4)
H38 H 1.315(5) -0.095(3) 0.216(3)
loop_
_geom_bond_atom_site_label_1
_geom_bond_atom_site_label_2
_geom_bond_site_symmetry_1
_geom_bond_site_symmetry_2
C1 C2 1_555 1_555
C2 C3 1_555 1_555
C3 C4 1_555 1_555
C4 C5 1_555 1_555
C5 C6 1_555 1_555
C6 O5 1_555 1_555
C7 C8 1_555 1_555
C8 H8 1_555 1_555
C9 C10 1_555 1_555
C10 H12 1_555 1_555
C11 C12 1_555 1_555
C12 H15 1_555 1_555
C13 C14 1_555 1_555
C14 H18 1_555 1_555
N1 C2 1_555 1_555
O1 C1 1_555 1_555
O2 C3 1_555 1_555
O3 C4 1_555 1_555
O4 C1 1_555 1_555
O5 C13 1_555 1_555
O6 C7 1_555 1_555
O7 C9 1_555 1_555
O8 C11 1_555 1_555
O9 C13 1_555 1_555
C15 O3 1_555 1_555
C16 C15 1_555 1_555
C17 C16 1_555 1_555
C18 C17 1_555 1_555
C19 C18 1_555 1_555
C20 C19 1_555 1_555
C21 C22 1_555 1_555
C22 H28 1_555 1_555
C23 C24 1_555 1_555
C24 H31 1_555 1_555
C25 C26 1_555 1_555
C26 H34 1_555 1_555
C27 C28 1_555 1_555
C28 H36 1_555 1_555
O10 C16 1_555 1_555
O11 C17 1_555 1_555
O12 C18 1_555 1_555
O13 C15 1_555 1_555
O14 C20 1_555 1_555
O15 C21 1_555 1_555
O16 C23 1_555 1_555
O17 C25 1_555 1_555
O18 C27 1_555 1_555
H1 C1 1_555 1_555
H2 C2 1_555 1_555
H3 C3 1_555 1_555
H4 C4 1_555 1_555
H5 C5 1_555 1_555
H6 C6 1_555 1_555
H7 C6 1_555 1_555
H9 C8 1_555 1_555
H10 C8 1_555 1_555
H11 N1 1_555 1_555
H13 C10 1_555 1_555
H14 C10 1_555 1_555
H16 C12 1_555 1_555
H17 C12 1_555 1_555
H19 C14 1_555 1_555
H20 C14 1_555 1_555
H21 C15 1_555 1_555
H22 C16 1_555 1_555
H23 C17 1_555 1_555
H24 C18 1_555 1_555
H25 C19 1_555 1_555
H26 C20 1_555 1_555
H27 C20 1_555 1_555
H29 C22 1_555 1_555
H30 C22 1_555 1_555
H32 C24 1_555 1_555
H33 C24 1_555 1_555
H35 C26 1_555 1_555
H37 C28 1_555 1_555
H38 C28 1_555 1_555
C5 O4 1_555 1_555
C7 O1 1_555 1_555
C9 N1 1_555 1_555
C11 O2 1_555 1_555
C19 O13 1_555 1_555
C21 O10 1_555 1_555
C23 O11 1_555 1_555
C25 O12 1_555 1_555
C27 O14 1_555 1_555

#END
