
#######################################################################
#
#                 Cambridge Crystallographic Data Centre
#                                CCDC 
#
#######################################################################
#
# If this CIF has been generated from an entry in the Cambridge 
# Structural Database, then it will include bibliographic, chemical, 
# crystal, experimental, refinement or atomic coordinate data resulting 
# from the CCDC's data processing and validation procedures.
#
#######################################################################

data_BIKWEX
_chemical_formula_moiety         'C6 H1 N3 O8 2-,2(H4 N1 1+)'
_chemical_name_systematic        'diammonium styphnate'
_symmetry_cell_setting           monoclinic
_symmetry_space_group_name_H-M   'P 21/n'
_symmetry_Int_Tables_number      14
_space_group_name_Hall           '-P 2yn'
loop_
_symmetry_equiv_pos_site_id
_symmetry_equiv_pos_as_xyz
1 x,y,z
2 1/2-x,1/2+y,1/2-z
3 -x,-y,-z
4 1/2+x,1/2-y,1/2+z
_cell_length_a                   8.616(1)
_cell_length_b                   17.901(3)
_cell_length_c                   14.157
_cell_angle_alpha                90
_cell_angle_beta                 102.95(1)
_cell_angle_gamma                90
_cell_volume                     2127.97
_cell_formula_units_Z            8
loop_
_atom_site_label
_atom_site_type_symbol
_atom_site_fract_x
_atom_site_fract_y
_atom_site_fract_z
O1 O 0.6782(3) 0.0641(1) 0.7865(2)
O2 O 0.8668(3) 0.1187(1) 0.6812(2)
O3 O 0.9247(3) 0.0513(1) 0.5693(2)
O4 O 0.8551(4) -0.1997(2) 0.5486(2)
O5 O 0.7435(3) -0.2661(1) 0.6397(2)
O6 O 0.6624(3) -0.2001(1) 0.7904(2)
O7 O 0.5199(3) -0.1090(1) 0.8943(2)
O8 O 0.6869(3) -0.0216(2) 0.9439(2)
N1 N 0.8629(3) 0.0580(1) 0.6382(2)
N2 N 0.7859(3) -0.2052(2) 0.6155(2)
N3 N 0.6228(3) -0.0661(1) 0.8803(2)
C1 C 0.7128(3) 0.0018(2) 0.7535(2)
C2 C 0.7917(4) -0.0051(2) 0.6741(2)
C3 C 0.8104(4) -0.0726(2) 0.6327(2)
C4 C 0.7609(4) -0.1382(2) 0.6664(2)
C5 C 0.6940(4) -0.1408(2) 0.7512(2)
C6 C 0.6733(3) -0.0680(2) 0.7900(2)
O9 O 0.2016(3) 0.0319(1) 0.8112(2)
O10 O 0.2974(3) 0.1126(1) 0.6777(2)
O11 O 0.4119(3) 0.0556(1) 0.5784(2)
O12 O 0.4001(4) -0.1952(2) 0.5324(2)
O13 O 0.2916(4) -0.2728(1) 0.6080(3)
O14 O 0.1333(3) -0.2256(1) 0.7352(2)
O15 O 0.1580(3) -0.1644(1) 0.9124(2)
O16 O 0.0267(3) -0.0618(1) 0.8881(2)
N4 N 0.3335(3) 0.0544(1) 0.6415(2)
N5 N 0.3182(3) -0.2084(2) 0.5909(2)
N6 N 0.1141(3) -0.1084(2) 0.8627(2)
C7 C 0.2149(3) -0.0224(2) 0.7574(2)
C8 C 0.2867(3) -0.0163(2) 0.6739(2)
C9 C 0.3173(4) -0.0778(2) 0.6237(2)
C10 C 0.2718(4) -0.1485(2) 0.6445(2)
C11 C 0.1873(3) -0.1623(2) 0.7202(2)
C12 C 0.1706(3) -0.0970(2) 0.7756(2)
N7 N 0.5782(5) 0.2029(2) 0.6657(3)
N8 N 0.9895(5) 0.1025(2) 0.9078(3)
N9 N 0.4310(4) -0.2688(2) 0.8665(3)
N10 N 0.0382(4) -0.3756(2) 0.6110(3)
loop_
_geom_bond_atom_site_label_1
_geom_bond_atom_site_label_2
_geom_bond_site_symmetry_1
_geom_bond_site_symmetry_2
O1 C1 1_555 1_555
O2 N1 1_555 1_555
O3 N1 1_555 1_555
O4 N2 1_555 1_555
O5 N2 1_555 1_555
O6 C5 1_555 1_555
O7 N3 1_555 1_555
O8 N3 1_555 1_555
O9 C7 1_555 1_555
O10 N4 1_555 1_555
O11 N4 1_555 1_555
O12 N5 1_555 1_555
O13 N5 1_555 1_555
O14 C11 1_555 1_555
O15 N6 1_555 1_555
O16 N6 1_555 1_555
N1 C2 1_555 1_555
N2 C4 1_555 1_555
N3 C6 1_555 1_555
N4 C8 1_555 1_555
N5 C10 1_555 1_555
N6 C12 1_555 1_555
C1 C2 1_555 1_555
C2 C3 1_555 1_555
C3 C4 1_555 1_555
C4 C5 1_555 1_555
C5 C6 1_555 1_555
C6 C1 1_555 1_555
C7 C8 1_555 1_555
C8 C9 1_555 1_555
C9 C10 1_555 1_555
C10 C11 1_555 1_555
C11 C12 1_555 1_555
C12 C7 1_555 1_555

#END
