
#######################################################################
#
#                 Cambridge Crystallographic Data Centre
#                                CCDC 
#
#######################################################################
#
# If this CIF has been generated from an entry in the Cambridge 
# Structural Database, then it will include bibliographic, chemical, 
# crystal, experimental, refinement or atomic coordinate data resulting 
# from the CCDC's data processing and validation procedures.
#
#######################################################################

data_BIKXUQ
_chemical_formula_moiety         
'C14 H20 N4 2+,C36 H36 N24 O12,2(Cl1 O4 1-),4(H2 O1)'
_chemical_name_systematic        
"[2]-(1,1'-Hexane-1,6-diylbis(pyrazin-1-ium))-(cucurbit[6]uril)-pseudorotaxane diperchlorate tetrahydrate"
_symmetry_cell_setting           orthorhombic
_symmetry_space_group_name_H-M   'P b c a'
_symmetry_Int_Tables_number      61
_space_group_name_Hall           '-P 2ac 2ab'
loop_
_symmetry_equiv_pos_site_id
_symmetry_equiv_pos_as_xyz
1 x,y,z
2 1/2-x,-y,1/2+z
3 -x,1/2+y,1/2-z
4 1/2+x,1/2-y,-z
5 -x,-y,-z
6 1/2+x,y,1/2-z
7 x,1/2-y,1/2+z
8 1/2-x,1/2+y,z
_cell_length_a                   21.9494(9)
_cell_length_b                   12.5269(5)
_cell_length_c                   21.9494(9)
_cell_angle_alpha                90
_cell_angle_beta                 90
_cell_angle_gamma                90
_cell_volume                     6035.16
_exptl_crystal_colour            yellow
_exptl_crystal_description       block
_cell_formula_units_Z            4
loop_
_atom_site_label
_atom_site_type_symbol
_atom_site_fract_x
_atom_site_fract_y
_atom_site_fract_z
C1 C 0.47292(14) 1.2603(2) 0.13902(12)
C2 C 0.43658(12) 0.9720(2) 0.19258(11)
C3 C 0.40850(12) 1.1515(2) 0.19637(11)
H1 H 0.3814 1.1782 0.2284
C4 C 0.47457(12) 1.13952(19) 0.21974(12)
H2 H 0.4783 1.1621 0.2623
C5 C 0.57381(13) 1.2295(2) 0.18496(13)
H3 H 0.5842 1.2333 0.2279
H4 H 0.5825 1.2986 0.1671
C6 C 0.53982(12) 0.9725(2) 0.23677(12)
H5 H 0.5523 1.0078 0.2741
H6 H 0.5290 0.8996 0.2470
C7 C 0.64634(12) 1.1718(2) 0.10498(12)
C8 C 0.60710(12) 0.8809(2) 0.16316(11)
C9 C 0.63439(12) 1.0563(2) 0.18778(12)
H7 H 0.6529 1.0756 0.2269
C10 C 0.68194(12) 1.0095(2) 0.14386(12)
H8 H 0.7218 1.0025 0.1635
C11 C 0.72807(12) 1.0852(2) 0.04589(12)
H9 H 0.7335 1.1575 0.0310
H10 H 0.7668 1.0614 0.0622
C12 C 0.69052(14) 0.8264(2) 0.09454(12)
H11 H 0.7332 0.8310 0.1057
H12 H 0.6760 0.7561 0.1062
C13 C 0.69430(12) 1.0584(2) -0.06016(12)
C14 C 0.64884(12) 0.77220(19) -0.00446(12)
C15 C 0.72410(12) 0.9043(2) -0.00735(12)
H13 H 0.7672 0.8894 0.0004
C16 C 0.70597(12) 0.8735(2) -0.07323(12)
H14 H 0.7403 0.8426 -0.0956
C17 C 0.63581(14) 0.7283(2) -0.11304(12)
H15 H 0.6692 0.7140 -0.1408
H16 H 0.6233 0.6608 -0.0955
C18 C 0.33011(12) 1.0112(2) 0.16299(12)
H17 H 0.3019 1.0515 0.1881
H18 H 0.3256 0.9364 0.1735
N1 N 0.41457(11) 1.22787(17) 0.14727(10)
N2 N 0.39172(10) 1.04440(16) 0.17758(10)
N3 N 0.50955(10) 1.20817(17) 0.17927(11)
N4 N 0.48635(10) 1.02606(16) 0.21289(10)
N5 N 0.61216(10) 1.14993(16) 0.15606(10)
N6 N 0.59101(10) 0.97071(16) 0.19501(10)
N7 N 0.68363(10) 1.08658(16) 0.09464(10)
N8 N 0.65676(10) 0.90608(17) 0.12828(10)
N9 N 0.71161(11) 1.01727(16) -0.00458(10)
N10 N 0.68525(10) 0.83762(17) 0.02933(10)
N11 N 0.68674(11) 0.97453(17) -0.09950(10)
N12 N 0.65763(11) 0.79696(17) -0.06473(9)
O1 O 0.48998(10) 1.32771(15) 0.10212(10)
O2 O 0.43226(9) 0.87482(14) 0.18854(9)
O3 O 0.64350(9) 1.25269(15) 0.07438(9)
O4 O 0.58166(9) 0.79462(14) 0.16561(9)
O5 O 0.68673(10) 1.15223(15) -0.07167(9)
O6 O 0.61547(10) 0.70322(14) 0.01517(9)
C1D C 0.52708(14) 0.7397(2) -0.13902(12)
C2D C 0.56342(12) 1.0280(2) -0.19258(11)
C3D C 0.59150(12) 0.8485(2) -0.19637(11)
H1D H 0.6186 0.8218 -0.2284
C4D C 0.52543(12) 0.86048(19) -0.21974(12)
H2D H 0.5217 0.8379 -0.2623
C5D C 0.42619(13) 0.7705(2) -0.18496(13)
H3D H 0.4158 0.7667 -0.2279
H4D H 0.4175 0.7014 -0.1671
C6D C 0.46018(12) 1.0275(2) -0.23677(12)
H5D H 0.4477 0.9922 -0.2741
H6D H 0.4710 1.1004 -0.2470
C7D C 0.35366(12) 0.8282(2) -0.10498(12)
C8D C 0.39290(12) 1.1191(2) -0.16316(11)
C9D C 0.36561(12) 0.9437(2) -0.18778(12)
H7D H 0.3471 0.9244 -0.2269
C10D C 0.31806(12) 0.9905(2) -0.14386(12)
H8D H 0.2782 0.9975 -0.1635
C11D C 0.27193(12) 0.9148(2) -0.04589(12)
H9D H 0.2665 0.8425 -0.0310
H10D H 0.2332 0.9386 -0.0622
C12D C 0.30948(14) 1.1736(2) -0.09454(12)
H11D H 0.2668 1.1690 -0.1057
H12D H 0.3240 1.2439 -0.1062
C13D C 0.30570(12) 0.9416(2) 0.06016(12)
C14D C 0.35116(12) 1.22780(19) 0.00446(12)
C15D C 0.27590(12) 1.0957(2) 0.00735(12)
H13D H 0.2328 1.1106 -0.0004
C16D C 0.29403(12) 1.1265(2) 0.07323(12)
H14D H 0.2597 1.1574 0.0956
C17D C 0.36419(14) 1.2717(2) 0.11304(12)
H15D H 0.3308 1.2860 0.1408
H16D H 0.3767 1.3392 0.0955
C18D C 0.66989(12) 0.9888(2) -0.16299(12)
H17D H 0.6981 0.9485 -0.1881
H18D H 0.6744 1.0636 -0.1735
N1D N 0.58543(11) 0.77213(17) -0.14727(10)
N2D N 0.60828(10) 0.95560(16) -0.17758(10)
N3D N 0.49045(10) 0.79183(17) -0.17927(11)
N4D N 0.51365(10) 0.97394(16) -0.21289(10)
N5D N 0.38784(10) 0.85007(16) -0.15606(10)
N6D N 0.40899(10) 1.02929(16) -0.19501(10)
N7D N 0.31637(10) 0.91342(16) -0.09464(10)
N8D N 0.34324(10) 1.09392(17) -0.12828(10)
N9D N 0.28839(11) 0.98273(16) 0.00458(10)
N10D N 0.31475(10) 1.16238(17) -0.02933(10)
N11D N 0.31326(11) 1.02547(17) 0.09950(10)
N12D N 0.34237(11) 1.20304(17) 0.06473(9)
O1D O 0.51002(10) 0.67229(15) -0.10212(10)
O2D O 0.56774(9) 1.12518(14) -0.18854(9)
O3D O 0.35650(9) 0.74731(15) -0.07438(9)
O4D O 0.41834(9) 1.20538(14) -0.16561(9)
O5D O 0.31327(10) 0.84777(15) 0.07167(9)
O6D O 0.38453(10) 1.29678(14) -0.01517(9)
C19 C 0.39855(14) 0.6762(2) 0.10754(13)
H19 H 0.3987 0.7258 0.1391
C20 C 0.35914(14) 0.5912(2) 0.10835(14)
H20 H 0.3332 0.5837 0.1416
N13 N 0.35607(13) 0.51937(19) 0.06422(13)
C21 C 0.39427(17) 0.5333(2) 0.01781(15)
H21 H 0.3932 0.4848 -0.0142
C22 C 0.43539(16) 0.6162(2) 0.01505(14)
H22 H 0.4617 0.6230 -0.0179
C23 C 0.48243(15) 0.7738(2) 0.05946(16)
H23 H 0.5210 0.7458 0.0450
H24 H 0.4885 0.8000 0.1006
C24 C 0.46326(15) 0.8640(2) 0.01963(16)
H25 H 0.4241 0.8906 0.0334
H26 H 0.4584 0.8382 -0.0218
C25 C 0.50865(16) 0.9538(2) 0.02004(17)
H27 H 0.5478 0.9264 0.0069
H28 H 0.5133 0.9793 0.0615
N14 N 0.43675(10) 0.68636(17) 0.06051(10)
C19D C 0.60145(14) 1.3238(2) -0.10754(13)
H19D H 0.6013 1.2742 -0.1391
C20D C 0.64086(14) 1.4088(2) -0.10835(14)
H20D H 0.6668 1.4163 -0.1416
N13D N 0.64393(13) 1.48063(19) -0.06422(13)
C21D C 0.60573(17) 1.4667(2) -0.01781(15)
H21D H 0.6068 1.5152 0.0142
C22D C 0.56461(16) 1.3838(2) -0.01505(14)
H22D H 0.5383 1.3770 0.0179
C23D C 0.51757(15) 1.2262(2) -0.05946(16)
H23D H 0.4790 1.2542 -0.0450
H24D H 0.5115 1.2000 -0.1006
C24D C 0.53674(15) 1.1360(2) -0.01963(16)
H25D H 0.5759 1.1094 -0.0334
H26D H 0.5416 1.1618 0.0218
C25D C 0.49135(16) 1.0462(2) -0.02004(17)
H27D H 0.4522 1.0736 -0.0069
H28D H 0.4867 1.0207 -0.0615
N14D N 0.56325(10) 1.31364(17) -0.06051(10)
Cl1 Cl 0.74422(3) 0.27611(6) 0.24494(3)
O7 O 0.79083(12) 0.3467(2) 0.26289(12)
O8 O 0.70200(11) 0.3331(2) 0.20848(12)
O9 O 0.71443(13) 0.2327(2) 0.29651(11)
O10 O 0.76982(13) 0.1924(2) 0.21017(12)
O11 O 0.52501(16) 0.5524(3) 0.13119(14)
H29 H 0.4991 0.5875 0.1132
H30 H 0.5121 0.4912 0.1344
O13 O 0.6466(3) 0.5352(4) 0.1593(3)
H33 H 0.6776 0.5680 0.1685
H34 H 0.6205 0.5493 0.1848
O12? O 0.6501(3) 0.4659(6) 0.1224(4)
H31? H 0.6362 0.4788 0.0885
H32? H 0.6612 0.4035 0.1226
loop_
_geom_bond_atom_site_label_1
_geom_bond_atom_site_label_2
_geom_bond_site_symmetry_1
_geom_bond_site_symmetry_2
C1 N1 1_555 1_555
C2 N2 1_555 1_555
C3 H1 1_555 1_555
C4 C3 1_555 1_555
H2 C4 1_555 1_555
C5 H3 1_555 1_555
H4 C5 1_555 1_555
C6 H5 1_555 1_555
H6 C6 1_555 1_555
C7 N5 1_555 1_555
C8 N6 1_555 1_555
C9 H7 1_555 1_555
C10 C9 1_555 1_555
H8 C10 1_555 1_555
C11 H9 1_555 1_555
H10 C11 1_555 1_555
C12 H11 1_555 1_555
H12 C12 1_555 1_555
C13 N9 1_555 1_555
C14 N10 1_555 1_555
C15 H13 1_555 1_555
C16 C15 1_555 1_555
H14 C16 1_555 1_555
C17 H15 1_555 1_555
H16 C17 1_555 1_555
C18 H17 1_555 1_555
H18 C18 1_555 1_555
N1 C3 1_555 1_555
N2 C3 1_555 1_555
N3 C1 1_555 1_555
N4 C2 1_555 1_555
N5 C5 1_555 1_555
N6 C6 1_555 1_555
N7 C7 1_555 1_555
N8 C8 1_555 1_555
N9 C11 1_555 1_555
N10 C12 1_555 1_555
N11 C13 1_555 1_555
N12 C14 1_555 1_555
O1 C1 1_555 1_555
O2 C2 1_555 1_555
O3 C7 1_555 1_555
O4 C8 1_555 1_555
O5 C13 1_555 1_555
O6 C14 1_555 1_555
C19 H19 1_555 1_555
C20 C19 1_555 1_555
H20 C20 1_555 1_555
N13 C20 1_555 1_555
C21 N13 1_555 1_555
H21 C21 1_555 1_555
C22 C21 1_555 1_555
H22 C22 1_555 1_555
C23 H23 1_555 1_555
H24 C23 1_555 1_555
C24 C23 1_555 1_555
H25 C24 1_555 1_555
H26 C24 1_555 1_555
C25 C24 1_555 1_555
H27 C25 1_555 1_555
H28 C25 1_555 1_555
N14 C19 1_555 1_555
Cl1 O7 1_555 1_555
O8 Cl1 1_555 1_555
O9 Cl1 1_555 1_555
O10 Cl1 1_555 1_555
O11 H29 1_555 1_555
H30 O11 1_555 1_555
O13 H33 1_555 1_555
H34 O13 1_555 1_555
C1D N1D 1_555 1_555
C2D N2D 1_555 1_555
C3D H1D 1_555 1_555
C4D C3D 1_555 1_555
H2D C4D 1_555 1_555
C5D H3D 1_555 1_555
H4D C5D 1_555 1_555
C6D H5D 1_555 1_555
H6D C6D 1_555 1_555
C7D N5D 1_555 1_555
C8D N6D 1_555 1_555
C9D H7D 1_555 1_555
C10D C9D 1_555 1_555
H8D C10D 1_555 1_555
C11D H9D 1_555 1_555
H10D C11D 1_555 1_555
C12D H11D 1_555 1_555
H12D C12D 1_555 1_555
C13D N9D 1_555 1_555
C14D N10D 1_555 1_555
C15D H13D 1_555 1_555
C16D C15D 1_555 1_555
H14D C16D 1_555 1_555
C17D N1 1_555 1_555
H15D C17D 1_555 1_555
H16D C17D 1_555 1_555
C18D N11 1_555 1_555
H17D C18D 1_555 1_555
H18D C18D 1_555 1_555
N1D C17 1_555 1_555
N2D C3D 1_555 1_555
N3D C1D 1_555 1_555
N4D C2D 1_555 1_555
N5D C5D 1_555 1_555
N6D C6D 1_555 1_555
N7D C7D 1_555 1_555
N8D C8D 1_555 1_555
N9D C11D 1_555 1_555
N10D C12D 1_555 1_555
N11D C18 1_555 1_555
N12D C14D 1_555 1_555
O1D C1D 1_555 1_555
O2D C2D 1_555 1_555
O3D C7D 1_555 1_555
O4D C8D 1_555 1_555
O5D C13D 1_555 1_555
O6D C14D 1_555 1_555
C19D H19D 1_555 1_555
C20D C19D 1_555 1_555
H20D C20D 1_555 1_555
N13D C20D 1_555 1_555
C21D N13D 1_555 1_555
H21D C21D 1_555 1_555
C22D C21D 1_555 1_555
H22D C22D 1_555 1_555
C23D H23D 1_555 1_555
H24D C23D 1_555 1_555
C24D C23D 1_555 1_555
H25D C24D 1_555 1_555
H26D C24D 1_555 1_555
C25D C25 1_555 1_555
H27D C25D 1_555 1_555
H28D C25D 1_555 1_555
N14D C19D 1_555 1_555
C4 N3 1_555 1_555
C4 N4 1_555 1_555
C5 N3 1_555 1_555
C6 N4 1_555 1_555
C9 N5 1_555 1_555
C9 N6 1_555 1_555
C10 N7 1_555 1_555
C10 N8 1_555 1_555
C11 N7 1_555 1_555
C12 N8 1_555 1_555
C15 N9 1_555 1_555
C15 N10 1_555 1_555
C16 N11 1_555 1_555
C16 N12 1_555 1_555
C17 N12 1_555 1_555
C18 N2 1_555 1_555
C22 N14 1_555 1_555
C23 N14 1_555 1_555
C3D N1D 1_555 1_555
C4D N3D 1_555 1_555
C4D N4D 1_555 1_555
C5D N3D 1_555 1_555
C6D N4D 1_555 1_555
C9D N5D 1_555 1_555
C9D N6D 1_555 1_555
C10D N7D 1_555 1_555
C10D N8D 1_555 1_555
C11D N7D 1_555 1_555
C12D N8D 1_555 1_555
C13D N11D 1_555 1_555
C15D N9D 1_555 1_555
C15D N10D 1_555 1_555
C16D N11D 1_555 1_555
C16D N12D 1_555 1_555
C17D N12D 1_555 1_555
C18D N2D 1_555 1_555
C22D N14D 1_555 1_555
C23D N14D 1_555 1_555
C24D C25D 1_555 1_555

#END
