
#######################################################################
#
#                 Cambridge Crystallographic Data Centre
#                                CCDC 
#
#######################################################################
#
# If this CIF has been generated from an entry in the Cambridge 
# Structural Database, then it will include bibliographic, chemical, 
# crystal, experimental, refinement or atomic coordinate data resulting 
# from the CCDC's data processing and validation procedures.
#
#######################################################################

data_BILMIV
_chemical_formula_moiety         'H4 N1 1+,C5 H14 N2 2+,3(I1 1-),0.5(H2 O1)'
_chemical_name_systematic        
'ammonium rac-2-methylpiperazine-1,4-diium tris(iodide) hemihydrate'
_symmetry_cell_setting           orthorhombic
_symmetry_space_group_name_H-M   'P n m a'
_symmetry_Int_Tables_number      62
_space_group_name_Hall           '-P 2ac 2n'
loop_
_symmetry_equiv_pos_site_id
_symmetry_equiv_pos_as_xyz
1 x,y,z
2 1/2-x,-y,1/2+z
3 1/2+x,1/2-y,1/2-z
4 -x,1/2+y,-z
5 -x,-y,-z
6 1/2+x,y,1/2-z
7 1/2-x,1/2+y,1/2+z
8 x,1/2-y,z
_cell_length_a                   14.424(6)
_cell_length_b                   13.902(6)
_cell_length_c                   14.509(6)
_cell_angle_alpha                90
_cell_angle_beta                 90
_cell_angle_gamma                90
_cell_volume                     2909.38
_exptl_crystal_colour            colorless
_exptl_crystal_description       block
_cell_formula_units_Z            8
loop_
_atom_site_label
_atom_site_type_symbol
_atom_site_fract_x
_atom_site_fract_y
_atom_site_fract_z
I1 I 0.22588(7) 0.7500 0.26003(7)
I2 I 0.03492(7) 0.2500 0.01358(6)
I3 I 0.23175(5) 0.00086(5) 0.06021(5)
I4 I 0.03201(7) 0.2500 0.52675(7)
I5 I 0.36242(7) 0.2500 0.25298(7)
O1 O 0.0068(7) 0.2500 0.7785(6)
H1 H 0.0098 0.2500 0.8370
H2 H -0.0503 0.2500 0.7640
N1 N 0.2913(8) 0.2500 0.0084(9)
H3 H 0.2648 0.2048 0.0411
H4 H 0.3523 0.2500 0.0206
H5 H 0.2821 0.2500 -0.0520
H3G H 0.2648 0.2952 0.0411
N2 N 0.2821(9) 0.2500 0.4982(9)
H6 H 0.2477 0.2011 0.5239
H7 H 0.3365 0.2500 0.5254
H8 H 0.2852 0.2500 0.4365
H6G H 0.2477 0.2989 0.5239
N3 N 0.4154(6) -0.0734(6) 0.2141(6)
H9 H 0.3671 -0.0864 0.1769
H10 H 0.4436 -0.1294 0.2276
N4 N 0.5260(5) 0.0601(6) 0.3138(5)
H11 H 0.4956 0.1145 0.2993
H12 H 0.5737 0.0756 0.3510
C1 C 0.5626(7) 0.0170(8) 0.2271(6)
H13 H 0.5970 -0.0415 0.2428
C2 C 0.4613(8) -0.0049(8) 0.3636(7)
H14 H 0.4382 0.0271 0.4184
H15 H 0.4940 -0.0625 0.3828
C3 C 0.3818(7) -0.0319(9) 0.3029(8)
H16 H 0.3444 0.0247 0.2905
H17 H 0.3431 -0.0786 0.3343
C4 C 0.4823(7) -0.0104(8) 0.1655(7)
H18 H 0.4508 0.0474 0.1451
H19 H 0.5056 -0.0435 0.1115
C5 C 0.6279(8) 0.0863(10) 0.1819(8)
H20 H 0.6759 0.1037 0.2246
H21 H 0.5945 0.1430 0.1636
H22 H 0.6550 0.0567 0.1285
I6? I 0.2543(17) 0.2500 0.2602(15)
loop_
_geom_bond_atom_site_label_1
_geom_bond_atom_site_label_2
_geom_bond_site_symmetry_1
_geom_bond_site_symmetry_2
O1 H1 1_555 1_555
H2 O1 1_555 1_555
N1 H3 1_555 1_555
H4 N1 1_555 1_555
H5 N1 1_555 1_555
N2 H6 1_555 1_555
H7 N2 1_555 1_555
H8 N2 1_555 1_555
N3 H9 1_555 1_555
H10 N3 1_555 1_555
N4 H11 1_555 1_555
H12 N4 1_555 1_555
C1 N4 1_555 1_555
H13 C1 1_555 1_555
C2 N4 1_555 1_555
H14 C2 1_555 1_555
H15 C2 1_555 1_555
C3 N3 1_555 1_555
H16 C3 1_555 1_555
H17 C3 1_555 1_555
C4 N3 1_555 1_555
H18 C4 1_555 1_555
H19 C4 1_555 1_555
C5 C1 1_555 1_555
H20 C5 1_555 1_555
H21 C5 1_555 1_555
H22 C5 1_555 1_555
H3G N1 1_555 1_555
H6G N2 1_555 1_555
C1 C4 1_555 1_555
C2 C3 1_555 1_555

#END
