
#######################################################################
#
#                 Cambridge Crystallographic Data Centre
#                                CCDC 
#
#######################################################################
#
# If this CIF has been generated from an entry in the Cambridge 
# Structural Database, then it will include bibliographic, chemical, 
# crystal, experimental, refinement or atomic coordinate data resulting 
# from the CCDC's data processing and validation procedures.
#
#######################################################################

data_BILPUK
_chemical_formula_moiety         'H4 N1 1+,C4 H12 N2 2+,3(Br1 1-)'
_chemical_name_systematic        
'ammonium (R)-3-ammoniopyrrolidin-1-ium tribromide'
_symmetry_cell_setting           cubic
_symmetry_space_group_name_H-M   'P 4 3 2'
_symmetry_Int_Tables_number      207
_space_group_name_Hall           'P 4 2 3'
loop_
_symmetry_equiv_pos_site_id
_symmetry_equiv_pos_as_xyz
1 x,y,z
2 -x,-y,z
3 -x,y,-z
4 x,-y,-z
5 z,x,y
6 z,-x,-y
7 -z,-x,y
8 -z,x,-y
9 y,z,x
10 -y,z,-x
11 y,-z,-x
12 -y,-z,x
13 y,x,-z
14 -y,-x,-z
15 y,-x,z
16 -y,x,z
17 x,z,-y
18 -x,z,y
19 -x,-z,-y
20 x,-z,y
21 z,y,-x
22 z,-y,x
23 -z,y,x
24 -z,-y,-x
_cell_length_a                   6.658(3)
_cell_length_b                   6.658(3)
_cell_length_c                   6.658(3)
_cell_angle_alpha                90
_cell_angle_beta                 90
_cell_angle_gamma                90
_cell_volume                     295.142
_exptl_crystal_colour            colorless
_exptl_crystal_description       block
_cell_formula_units_Z            1
loop_
_atom_site_label
_atom_site_type_symbol
_atom_site_fract_x
_atom_site_fract_y
_atom_site_fract_z
Br1 Br 0.0000 -0.5000 0.0000
C1 C 1.5000 -0.5000 -1.690(13)
C1D C 1.310(13) -0.5000 -1.5000
C1F C 1.690(13) -0.5000 -1.5000
C1H C 1.5000 -0.690(13) -1.5000
C1J C 1.5000 -0.310(13) -1.5000
C1B C 1.5000 -0.5000 -1.310(13)
N1 N 0.0000 0.0000 0.0000
loop_
_geom_bond_atom_site_label_1
_geom_bond_atom_site_label_2
_geom_bond_site_symmetry_1
_geom_bond_site_symmetry_2
C1 C1D 1_555 1_555
C1D C1H 1_555 1_555
C1F C1 1_555 1_555
C1H C1 1_555 1_555
C1J C1 1_555 1_555
C1B C1D 1_555 1_555
C1D C1J 1_555 1_555
C1F C1H 1_555 1_555
C1F C1J 1_555 1_555
C1F C1B 1_555 1_555
C1H C1B 1_555 1_555
C1J C1B 1_555 1_555

#END
