
#######################################################################
#
#                 Cambridge Crystallographic Data Centre
#                                CCDC 
#
#######################################################################
#
# If this CIF has been generated from an entry in the Cambridge 
# Structural Database, then it will include bibliographic, chemical, 
# crystal, experimental, refinement or atomic coordinate data resulting 
# from the CCDC's data processing and validation procedures.
#
#######################################################################

data_BILPUJ
_chemical_formula_moiety         'C38 H26 N4,C1 H4 O1'
_chemical_name_systematic        
"1,1'-((3,6-bis(Phenylethynyl)-1,2-phenylene)bis(methylene))bis(1H-benzimidazole) methanol solvate"
_symmetry_cell_setting           monoclinic
_symmetry_space_group_name_H-M   'P 21'
_symmetry_Int_Tables_number      4
_space_group_name_Hall           'P 2yb'
loop_
_symmetry_equiv_pos_site_id
_symmetry_equiv_pos_as_xyz
1 x,y,z
2 -x,1/2+y,-z
_cell_length_a                   8.114(6)
_cell_length_b                   28.02(2)
_cell_length_c                   14.117(11)
_cell_angle_alpha                90
_cell_angle_beta                 93.417(14)
_cell_angle_gamma                90
_cell_volume                     3203.85
_exptl_crystal_colour            colorless
_exptl_crystal_description       block
_cell_formula_units_Z            4
loop_
_atom_site_label
_atom_site_type_symbol
_atom_site_fract_x
_atom_site_fract_y
_atom_site_fract_z
C1 C 0.4664(6) 1.09993(14) 0.5239(4)
H1 H 0.4243 1.1268 0.4923
C2 C 0.5598(7) 1.10483(10) 0.6091(4)
H2 H 0.5802 1.1350 0.6346
C3 C 0.6227(6) 1.06462(14) 0.6563(3)
H3 H 0.6852 1.0679 0.7133
C4 C 0.5921(4) 1.01951(11) 0.6182(2)
C5 C 0.4987(5) 1.01461(12) 0.5330(3)
H4 H 0.4782 0.9844 0.5075
C6 C 0.4358(5) 1.05481(18) 0.4858(3)
H5 H 0.3733 1.0515 0.4288
C7 C 0.6580(6) 0.97725(18) 0.6650(3)
C8 C 0.7156(6) 0.94381(19) 0.7064(3)
C9 C 0.7859(5) 0.90333(16) 0.7567(3)
C10 C 0.8016(5) 0.90347(14) 0.8567(3)
C11 C 0.8624(5) 0.86242(14) 0.9039(3)
C12 C 0.9137(5) 0.82363(15) 0.8523(3)
C13 C 0.9019(5) 0.82457(16) 0.7532(3)
H6 H 0.9375 0.7986 0.7189
C14 C 0.8374(5) 0.86396(17) 0.7065(3)
H7 H 0.8282 0.8643 0.6406
C15 C 0.9768(5) 0.78047(17) 0.8981(3)
C16 C 1.0299(6) 0.74440(16) 0.9344(3)
C17 C 1.0872(4) 0.69987(8) 0.9713(2)
C18 C 1.1794(4) 0.69670(11) 1.0573(2)
H8 H 1.2064 0.7242 1.0916
C19 C 1.2311(5) 0.65240(15) 1.0920(3)
H9 H 1.2927 0.6503 1.1495
C20 C 1.1906(5) 0.61127(10) 1.0407(3)
H10 H 1.2252 0.5816 1.0639
C21 C 1.0985(5) 0.61444(9) 0.9547(3)
H11 H 1.0714 0.5869 0.9204
C22 C 1.0468(4) 0.65874(12) 0.9200(2)
H12 H 0.9851 0.6609 0.8625
C23 C 0.7556(6) 0.94804(15) 0.9097(3)
H13 H 0.6972 0.9697 0.8658
H14 H 0.6810 0.9394 0.9581
C24 C 0.9311(7) 0.97835(16) 1.0503(3)
H15 H 0.8590 0.9685 1.0952
C25 C 1.0333(6) 0.99175(15) 0.9116(4)
C26 C 1.1401(6) 1.00673(16) 0.9868(4)
C27 C 1.2893(8) 1.02730(19) 0.9671(5)
H16 H 1.3622 1.0377 1.0161
C28 C 1.3283(8) 1.03216(19) 0.8746(5)
H17 H 1.4296 1.0453 0.8613
C29 C 1.2193(7) 1.01775(17) 0.7999(4)
H18 H 1.2475 1.0223 0.7376
C30 C 1.0690(6) 0.99670(15) 0.8175(3)
H19 H 0.9961 0.9864 0.7684
C31 C 0.8612(5) 0.85728(16) 1.0099(3)
H20 H 0.7973 0.8832 1.0347
H21 H 0.8063 0.8276 1.0244
C32 C 1.1554(6) 0.88472(15) 1.0402(3)
H22 H 1.1554 0.9053 0.9885
C33 C 1.0712(5) 0.83133(15) 1.1387(3)
C34 C 1.2322(6) 0.84616(16) 1.1639(3)
C35 C 1.3153(7) 0.8252(2) 1.2433(4)
H23 H 1.4217 0.8346 1.2632
C36 C 1.2341(9) 0.7905(3) 1.2905(3)
H24 H 1.2870 0.7770 1.3442
C37 C 1.0778(8) 0.7747(2) 1.2622(4)
H25 H 1.0302 0.7499 1.2947
C38 C 0.9920(7) 0.7956(2) 1.1860(3)
H26 H 0.8853 0.7860 1.1671
N1 N 0.8984(5) 0.97272(13) 0.9546(3)
N2 N 1.0720(6) 0.99874(15) 1.0728(3)
N3 N 1.0258(4) 0.85746(12) 1.0584(2)
N4 N 1.2832(5) 0.88001(13) 1.1016(3)
C39 C 0.9088(6) 0.45605(16) 0.5166(3)
C40 C 0.8658(7) 0.44238(19) 0.6078(4)
H27 H 0.7977 0.4161 0.6151
C41 C 0.9239(9) 0.4676(3) 0.6857(4)
H28 H 0.8946 0.4585 0.7458
C42 C 1.0244(10) 0.5060(3) 0.6756(6)
H29 H 1.0614 0.5235 0.7287
C43 C 1.0706(8) 0.5187(2) 0.5882(6)
H30 H 1.1416 0.5445 0.5822
C44 C 1.0128(7) 0.49371(19) 0.5069(4)
H31 H 1.0449 0.5027 0.4473
C45 C 0.8448(6) 0.42836(17) 0.4369(3)
C46 C 0.7874(6) 0.40435(16) 0.3731(4)
C47 C 0.7186(5) 0.37295(15) 0.3012(3)
C48 C 0.7096(5) 0.32359(14) 0.3161(3)
C49 C 0.6501(5) 0.29377(14) 0.2435(3)
C50 C 0.5905(5) 0.31367(15) 0.1561(3)
C51 C 0.5964(5) 0.36310(16) 0.1429(3)
H32 H 0.5559 0.3763 0.0858
C52 C 0.6617(6) 0.39229(16) 0.2141(3)
H33 H 0.6679 0.4250 0.2042
C53 C 0.5245(6) 0.28373(17) 0.0812(3)
C54 C 0.4690(6) 0.25769(18) 0.0201(3)
C55 C 0.4041(5) 0.22645(16) -0.0521(3)
C56 C 0.3209(6) 0.18495(18) -0.0297(4)
H34 H 0.3084 0.1774 0.0336
C57 C 0.2569(8) 0.1549(2) -0.0990(5)
H35 H 0.1963 0.1283 -0.0825
C58 C 0.2807(8) 0.1634(2) -0.1898(5)
H36 H 0.2414 0.1419 -0.2358
C59 C 0.3620(8) 0.2033(3) -0.2161(4)
H37 H 0.3751 0.2093 -0.2800
C60 C 0.4261(7) 0.23529(19) -0.1473(4)
H38 H 0.4831 0.2623 -0.1652
C61 C 0.7644(5) 0.30357(15) 0.4126(3)
H39 H 0.8432 0.2781 0.4046
H40 H 0.8194 0.3284 0.4504
C62 C 0.5981(6) 0.23841(17) 0.4856(3)
H41 H 0.6687 0.2138 0.4704
C63 C 0.4938(6) 0.31072(15) 0.4975(3)
C64 C 0.3952(6) 0.27692(17) 0.5384(3)
C65 C 0.2535(7) 0.2912(2) 0.5803(4)
H42 H 0.1854 0.2692 0.6080
C66 C 0.2170(7) 0.3389(2) 0.5795(4)
H43 H 0.1214 0.3490 0.6066
C67 C 0.3164(7) 0.37221(19) 0.5402(3)
H44 H 0.2877 0.4043 0.5417
C68 C 0.4568(6) 0.35876(17) 0.4990(3)
H45 H 0.5254 0.3812 0.4729
C69 C 0.6618(5) 0.23988(14) 0.2492(3)
H46 H 0.7044 0.2280 0.1909
H47 H 0.7404 0.2314 0.3009
C70 C 0.3632(6) 0.23404(18) 0.2969(3)
H48 H 0.3510 0.2659 0.3138
C71 C 0.4771(6) 0.16806(15) 0.2471(3)
C72 C 0.3149(7) 0.16043(18) 0.2712(3)
C73 C 0.2441(8) 0.1144(2) 0.2616(4)
H49 H 0.1378 0.1079 0.2792
C74 C 0.3424(12) 0.0797(3) 0.2243(5)
H50 H 0.2991 0.0493 0.2142
C75 C 0.5031(12) 0.0886(2) 0.2015(6)
H51 H 0.5653 0.0637 0.1788
C76 C 0.5744(9) 0.13317(19) 0.2113(5)
H52 H 0.6816 0.1392 0.1946
N5 N 0.6251(4) 0.28508(12) 0.4631(2)
N6 N 0.4629(6) 0.23158(14) 0.5307(3)
N7 N 0.5054(4) 0.21621(11) 0.2637(2)
N8 N 0.2451(5) 0.20218(17) 0.3029(3)
C77 C 0.0136(13) 0.1621(5) 0.5084(13)
H53 H 0.1215 0.1697 0.5359
H54 H 0.0109 0.1294 0.4886
H55 H -0.0667 0.1671 0.5547
O1 O -0.0297(5) 0.19718(18) 0.4151(4)
H56 H 0.0360 0.1919 0.3744
C78 C 0.5778(13) 0.9446(4) 0.2312(8)
H57 H 0.6620 0.9265 0.2659
H58 H 0.4721 0.9371 0.2545
H59 H 0.5994 0.9780 0.2395
O2 O 0.5777(5) 0.9317(2) 0.1240(3)
H60 H 0.4960 0.9156 0.1090
loop_
_geom_bond_atom_site_label_1
_geom_bond_atom_site_label_2
_geom_bond_site_symmetry_1
_geom_bond_site_symmetry_2
C1 H1 1_555 1_555
C2 C1 1_555 1_555
H2 C2 1_555 1_555
C3 C2 1_555 1_555
H3 C3 1_555 1_555
C4 C3 1_555 1_555
C5 C4 1_555 1_555
H4 C5 1_555 1_555
C6 C1 1_555 1_555
H5 C6 1_555 1_555
C7 C4 1_555 1_555
C8 C7 1_555 1_555
C9 C8 1_555 1_555
C10 C9 1_555 1_555
C11 C10 1_555 1_555
C12 C11 1_555 1_555
C13 C12 1_555 1_555
H6 C13 1_555 1_555
C14 C9 1_555 1_555
H7 C14 1_555 1_555
C15 C12 1_555 1_555
C16 C15 1_555 1_555
C17 C16 1_555 1_555
C18 C17 1_555 1_555
H8 C18 1_555 1_555
C19 C18 1_555 1_555
H9 C19 1_555 1_555
C20 C19 1_555 1_555
H10 C20 1_555 1_555
C21 C20 1_555 1_555
H11 C21 1_555 1_555
C22 C17 1_555 1_555
H12 C22 1_555 1_555
C23 C10 1_555 1_555
H13 C23 1_555 1_555
H14 C23 1_555 1_555
C24 H15 1_555 1_555
C25 C26 1_555 1_555
C26 C27 1_555 1_555
C27 H16 1_555 1_555
C28 C27 1_555 1_555
H17 C28 1_555 1_555
C29 C28 1_555 1_555
H18 C29 1_555 1_555
C30 C25 1_555 1_555
H19 C30 1_555 1_555
C31 C11 1_555 1_555
H20 C31 1_555 1_555
H21 C31 1_555 1_555
C32 H22 1_555 1_555
C33 C34 1_555 1_555
C34 C35 1_555 1_555
C35 H23 1_555 1_555
C36 C35 1_555 1_555
H24 C36 1_555 1_555
C37 C36 1_555 1_555
H25 C37 1_555 1_555
C38 C33 1_555 1_555
H26 C38 1_555 1_555
N1 C23 1_555 1_555
N2 C24 1_555 1_555
N3 C31 1_555 1_555
N4 C32 1_555 1_555
C39 C40 1_555 1_555
C40 H27 1_555 1_555
C41 C40 1_555 1_555
H28 C41 1_555 1_555
C42 C41 1_555 1_555
H29 C42 1_555 1_555
C43 C42 1_555 1_555
H30 C43 1_555 1_555
C44 C39 1_555 1_555
H31 C44 1_555 1_555
C45 C39 1_555 1_555
C46 C45 1_555 1_555
C47 C46 1_555 1_555
C48 C47 1_555 1_555
C49 C48 1_555 1_555
C50 C49 1_555 1_555
C51 C50 1_555 1_555
H32 C51 1_555 1_555
C52 C47 1_555 1_555
H33 C52 1_555 1_555
C53 C50 1_555 1_555
C54 C53 1_555 1_555
C55 C54 1_555 1_555
C56 C55 1_555 1_555
H34 C56 1_555 1_555
C57 C56 1_555 1_555
H35 C57 1_555 1_555
C58 C57 1_555 1_555
H36 C58 1_555 1_555
C59 C58 1_555 1_555
H37 C59 1_555 1_555
C60 C55 1_555 1_555
H38 C60 1_555 1_555
C61 C48 1_555 1_555
H39 C61 1_555 1_555
H40 C61 1_555 1_555
C62 H41 1_555 1_555
C63 C64 1_555 1_555
C64 C65 1_555 1_555
C65 H42 1_555 1_555
C66 C65 1_555 1_555
H43 C66 1_555 1_555
C67 C66 1_555 1_555
H44 C67 1_555 1_555
C68 C63 1_555 1_555
H45 C68 1_555 1_555
C69 C49 1_555 1_555
H46 C69 1_555 1_555
H47 C69 1_555 1_555
C70 H48 1_555 1_555
C71 C72 1_555 1_555
C72 C73 1_555 1_555
C73 H49 1_555 1_555
C74 C73 1_555 1_555
H50 C74 1_555 1_555
C75 C74 1_555 1_555
H51 C75 1_555 1_555
C76 C71 1_555 1_555
H52 C76 1_555 1_555
N5 C61 1_555 1_555
N6 C62 1_555 1_555
N7 C69 1_555 1_555
N8 C70 1_555 1_555
C77 H53 1_555 1_555
H54 C77 1_555 1_555
H55 C77 1_555 1_555
O1 C77 1_555 1_555
H56 O1 1_555 1_555
C78 H57 1_555 1_555
H58 C78 1_555 1_555
H59 C78 1_555 1_555
O2 C78 1_555 1_555
H60 O2 1_555 1_555
C5 C6 1_555 1_555
C13 C14 1_555 1_555
C21 C22 1_555 1_555
C24 N1 1_555 1_555
C25 N1 1_555 1_555
C26 N2 1_555 1_555
C29 C30 1_555 1_555
C32 N3 1_555 1_555
C33 N3 1_555 1_555
C34 N4 1_555 1_555
C37 C38 1_555 1_555
C43 C44 1_555 1_555
C51 C52 1_555 1_555
C59 C60 1_555 1_555
C62 N5 1_555 1_555
C63 N5 1_555 1_555
C64 N6 1_555 1_555
C67 C68 1_555 1_555
C70 N7 1_555 1_555
C71 N7 1_555 1_555
C72 N8 1_555 1_555
C75 C76 1_555 1_555

#END
