
#######################################################################
#
#                 Cambridge Crystallographic Data Centre
#                                CCDC 
#
#######################################################################
#
# If this CIF has been generated from an entry in the Cambridge 
# Structural Database, then it will include bibliographic, chemical, 
# crystal, experimental, refinement or atomic coordinate data resulting 
# from the CCDC's data processing and validation procedures.
#
#######################################################################

data_BIMVEZ
_chemical_formula_moiety         'C13 H9 Cl1 O1'
_chemical_name_systematic        2-Chlorobenzophenone
_symmetry_cell_setting           monoclinic
_symmetry_space_group_name_H-M   'P 21/c'
_symmetry_Int_Tables_number      14
_space_group_name_Hall           '-P 2ybc'
loop_
_symmetry_equiv_pos_site_id
_symmetry_equiv_pos_as_xyz
1 x,y,z
2 x,1/2-y,1/2+z
3 -x,-y,-z
4 -x,1/2+y,1/2-z
_cell_length_a                   8.2812(8)
_cell_length_b                   16.593(2)
_cell_length_c                   7.7599(7)
_cell_angle_alpha                90
_cell_angle_beta                 98.488(5)
_cell_angle_gamma                90
_cell_volume                     1054.61
_exptl_crystal_colour            colorless
_exptl_crystal_description       prism
_chemical_melting_point          46.4-47.0deg.C
_cell_formula_units_Z            4
_exptl_crystal_recrystallization_method '95% ethanol'
loop_
_atom_site_label
_atom_site_type_symbol
_atom_site_fract_x
_atom_site_fract_y
_atom_site_fract_z
C1 C 0.31906(11) 0.43722(6) 0.07058(12)
C2 C 0.38860(11) 0.35503(5) 0.11856(11)
C3 C 0.29271(11) 0.29044(6) 0.15785(12)
C4 C 0.35624(13) 0.21317(6) 0.18545(13)
H1 H 0.2897 0.1707 0.2093
C5 C 0.52079(13) 0.20037(6) 0.17677(14)
H2 H 0.5650 0.1491 0.1956
C6 C 0.61947(13) 0.26405(6) 0.13999(15)
H3 H 0.7297 0.2553 0.1354
C7 C 0.55359(12) 0.34080(6) 0.11006(14)
H4 H 0.6199 0.3830 0.0842
C8 C 0.25284(11) 0.48680(5) 0.20374(12)
C9 C 0.29703(13) 0.47170(6) 0.38182(13)
H5 H 0.3665 0.4291 0.4190
C10 C 0.23638(15) 0.52088(7) 0.50355(14)
H6 H 0.2671 0.5117 0.6221
C11 C 0.13027(15) 0.58339(7) 0.44729(16)
H7 H 0.0891 0.6157 0.5286
C12 C 0.08492(13) 0.59824(6) 0.27025(15)
H8 H 0.0131 0.6400 0.2337
C13 C 0.14704(12) 0.55060(6) 0.14826(13)
H9 H 0.1184 0.5610 0.0299
Cl1 Cl 0.08478(3) 0.304984(15) 0.16516(4)
O1 O 0.32106(10) 0.46222(5) -0.07726(9)
loop_
_geom_bond_atom_site_label_1
_geom_bond_atom_site_label_2
_geom_bond_site_symmetry_1
_geom_bond_site_symmetry_2
C1 C2 1_555 1_555
C2 C3 1_555 1_555
C3 C4 1_555 1_555
C4 H1 1_555 1_555
C5 C4 1_555 1_555
H2 C5 1_555 1_555
C6 C5 1_555 1_555
H3 C6 1_555 1_555
C7 C2 1_555 1_555
H4 C7 1_555 1_555
C8 C1 1_555 1_555
C9 C8 1_555 1_555
H5 C9 1_555 1_555
C10 C9 1_555 1_555
H6 C10 1_555 1_555
C11 C10 1_555 1_555
H7 C11 1_555 1_555
C12 C11 1_555 1_555
H8 C12 1_555 1_555
C13 C8 1_555 1_555
H9 C13 1_555 1_555
Cl1 C3 1_555 1_555
O1 C1 1_555 1_555
C6 C7 1_555 1_555
C12 C13 1_555 1_555

#END
