
#######################################################################
#
#                 Cambridge Crystallographic Data Centre
#                                CCDC 
#
#######################################################################
#
# If this CIF has been generated from an entry in the Cambridge 
# Structural Database, then it will include bibliographic, chemical, 
# crystal, experimental, refinement or atomic coordinate data resulting 
# from the CCDC's data processing and validation procedures.
#
#######################################################################

data_BINHUE
_chemical_formula_moiety         'C29 H35 N1 O3'
_chemical_name_systematic        
8-methoxy-3,3,5-trimethyl-9-{[4-methyl-1-(propan-2-yl)cyclohex-3-en-1-yl]oxy}-3,11-dihydropyrano[3,2-a]carbazole
_symmetry_cell_setting           orthorhombic
_symmetry_space_group_name_H-M   'P b c a'
_symmetry_Int_Tables_number      61
_space_group_name_Hall           '-P 2ac 2ab'
loop_
_symmetry_equiv_pos_site_id
_symmetry_equiv_pos_as_xyz
1 x,y,z
2 1/2-x,-y,1/2+z
3 -x,1/2+y,1/2-z
4 1/2+x,1/2-y,-z
5 -x,-y,-z
6 1/2+x,y,1/2-z
7 x,1/2-y,1/2+z
8 1/2-x,1/2+y,z
_cell_length_a                   12.92580(10)
_cell_length_b                   18.5966(2)
_cell_length_c                   20.6239(2)
_cell_angle_alpha                90
_cell_angle_beta                 90
_cell_angle_gamma                90
_cell_volume                     4957.49
_exptl_crystal_colour            colorless
_exptl_crystal_description       plate
_cell_formula_units_Z            8
loop_
_atom_site_label
_atom_site_type_symbol
_atom_site_fract_x
_atom_site_fract_y
_atom_site_fract_z
O1 O 0.17201(19) 0.09747(13) 0.43468(12)
O2 O 0.7926(2) 0.31102(14) 0.33537(12)
O3 O 0.70721(19) 0.37329(14) 0.23816(12)
N1 N 0.3735(2) 0.26743(17) 0.30512(14)
H1 H 0.3284 0.2848 0.2772
C1 C 0.2592(3) 0.1854(2) 0.36923(17)
C2 C 0.1629(3) 0.1950(2) 0.33324(19)
H2 H 0.1630 0.2206 0.2934
C3 C 0.2599(3) 0.1356(2) 0.41970(17)
C4 C 0.0750(3) 0.1681(2) 0.35627(18)
H3 H 0.0134 0.1715 0.3313
C5 C 0.3503(3) 0.1166(2) 0.45352(18)
C6 C 0.0724(3) 0.1319(2) 0.42198(18)
C7 C 0.4421(3) 0.1507(2) 0.43726(19)
H4 H 0.5036 0.1394 0.4603
C8 C 0.0521(3) 0.1850(2) 0.4761(2)
H5 H 0.0500 0.1595 0.5176
H6 H -0.0144 0.2090 0.4687
H7 H 0.1075 0.2210 0.4770
C9 C 0.4452(3) 0.20172(19) 0.38715(18)
C10 C 0.5253(3) 0.2450(2) 0.35737(17)
C11 C 0.6319(3) 0.2526(2) 0.36781(18)
H8 H 0.6655 0.2257 0.4009
C12 C -0.0052(3) 0.0713(2) 0.4234(2)
H9 H 0.0117 0.0365 0.3894
H10 H -0.0747 0.0906 0.4159
H11 H -0.0029 0.0476 0.4658
C13 C 0.6871(3) 0.2992(2) 0.32969(17)
C14 C 0.3458(3) 0.0607(2) 0.5060(2)
H12 H 0.3016 0.0779 0.5414
H13 H 0.4157 0.0517 0.5226
H14 H 0.3172 0.0160 0.4883
C15 C 0.6395(3) 0.33782(19) 0.27859(17)
C16 C 0.8440(3) 0.2752(2) 0.38692(19)
H15 H 0.8350 0.2231 0.3822
H16 H 0.8146 0.2908 0.4284
H17 H 0.9179 0.2869 0.3858
C17 C 0.5343(3) 0.3303(2) 0.26742(18)
H18 H 0.5012 0.3556 0.2332
C18 C 0.6941(3) 0.4491(2) 0.21718(19)
C19 C 0.4789(3) 0.2846(2) 0.30764(17)
C20 C 0.7984(3) 0.4639(2) 0.18448(18)
H19 H 0.8045 0.5162 0.1760
H20 H 0.8547 0.4502 0.2145
C21 C 0.3522(3) 0.2184(2) 0.35409(18)
C22 C 0.8119(3) 0.4239(2) 0.12169(18)
H21 H 0.8798 0.4190 0.1046
C23 C 0.7325(3) 0.3945(2) 0.08833(19)
C24 C 0.6270(3) 0.3987(3) 0.1115(2)
H22 H 0.6060 0.3508 0.1278
H23 H 0.5812 0.4110 0.0747
C25 C 0.6109(3) 0.4539(2) 0.1653(2)
H24 H 0.6114 0.5028 0.1463
H25 H 0.5424 0.4460 0.1855
C26 C 0.6738(4) 0.4959(2) 0.2769(2)
H26 H 0.6125 0.4750 0.2997
C27 C 0.7632(5) 0.4950(3) 0.3247(2)
H27 H 0.7832 0.4452 0.3336
H28 H 0.7419 0.5184 0.3651
H29 H 0.8222 0.5209 0.3061
C28 C 0.6457(4) 0.5730(2) 0.2587(2)
H30 H 0.6408 0.6023 0.2981
H31 H 0.5791 0.5734 0.2360
H32 H 0.6993 0.5929 0.2303
C29 C 0.7530(4) 0.3536(3) 0.0262(2)
H33 H 0.8217 0.3662 0.0097
H34 H 0.7004 0.3662 -0.0061
H35 H 0.7501 0.3018 0.0349
loop_
_geom_bond_atom_site_label_1
_geom_bond_atom_site_label_2
_geom_bond_site_symmetry_1
_geom_bond_site_symmetry_2
O1 C3 1_555 1_555
O2 C13 1_555 1_555
O3 C15 1_555 1_555
N1 H1 1_555 1_555
C1 C2 1_555 1_555
C2 H2 1_555 1_555
C3 C1 1_555 1_555
C4 C2 1_555 1_555
H3 C4 1_555 1_555
C5 C3 1_555 1_555
C6 O1 1_555 1_555
C7 C5 1_555 1_555
H4 C7 1_555 1_555
C8 C6 1_555 1_555
H5 C8 1_555 1_555
H6 C8 1_555 1_555
H7 C8 1_555 1_555
C9 C7 1_555 1_555
C10 C9 1_555 1_555
C11 C10 1_555 1_555
H8 C11 1_555 1_555
C12 C6 1_555 1_555
H9 C12 1_555 1_555
H10 C12 1_555 1_555
H11 C12 1_555 1_555
C13 C11 1_555 1_555
C14 C5 1_555 1_555
H12 C14 1_555 1_555
H13 C14 1_555 1_555
H14 C14 1_555 1_555
C15 C13 1_555 1_555
C16 O2 1_555 1_555
H15 C16 1_555 1_555
H16 C16 1_555 1_555
H17 C16 1_555 1_555
C17 C15 1_555 1_555
H18 C17 1_555 1_555
C18 O3 1_555 1_555
C19 N1 1_555 1_555
C20 C18 1_555 1_555
H19 C20 1_555 1_555
H20 C20 1_555 1_555
C21 N1 1_555 1_555
C22 C20 1_555 1_555
H21 C22 1_555 1_555
C23 C22 1_555 1_555
C24 C23 1_555 1_555
H22 C24 1_555 1_555
H23 C24 1_555 1_555
C25 C18 1_555 1_555
H24 C25 1_555 1_555
H25 C25 1_555 1_555
C26 C18 1_555 1_555
H26 C26 1_555 1_555
C27 C26 1_555 1_555
H27 C27 1_555 1_555
H28 C27 1_555 1_555
H29 C27 1_555 1_555
C28 C26 1_555 1_555
H30 C28 1_555 1_555
H31 C28 1_555 1_555
H32 C28 1_555 1_555
C29 C23 1_555 1_555
H33 C29 1_555 1_555
H34 C29 1_555 1_555
H35 C29 1_555 1_555
C1 C21 1_555 1_555
C4 C6 1_555 1_555
C9 C21 1_555 1_555
C10 C19 1_555 1_555
C17 C19 1_555 1_555
C24 C25 1_555 1_555

#END
