
#######################################################################
#
#                 Cambridge Crystallographic Data Centre
#                                CCDC 
#
#######################################################################
#
# If this CIF has been generated from an entry in the Cambridge 
# Structural Database, then it will include bibliographic, chemical, 
# crystal, experimental, refinement or atomic coordinate data resulting 
# from the CCDC's data processing and validation procedures.
#
#######################################################################

data_BINXII
_chemical_formula_moiety         'C10 H9 Cl2 N1 O1 S1'
_chemical_name_systematic        
2,2-dichloro-1-(2,3-dihydro-4H-1,4-benzothiazin-4-yl)ethan-1-one
_symmetry_cell_setting           monoclinic
_symmetry_space_group_name_H-M   'P 21/c'
_symmetry_Int_Tables_number      14
_space_group_name_Hall           '-P 2ybc'
loop_
_symmetry_equiv_pos_site_id
_symmetry_equiv_pos_as_xyz
1 x,y,z
2 -x,1/2+y,1/2-z
3 -x,-y,-z
4 x,1/2-y,1/2+z
_cell_length_a                   8.9954(18)
_cell_length_b                   12.302(3)
_cell_length_c                   10.472(2)
_cell_angle_alpha                90
_cell_angle_beta                 108.07(3)
_cell_angle_gamma                90
_cell_volume                     1101.69
_exptl_crystal_colour            colorless
_exptl_crystal_description       block
_cell_formula_units_Z            4
loop_
_atom_site_label
_atom_site_type_symbol
_atom_site_fract_x
_atom_site_fract_y
_atom_site_fract_z
C1 C -0.0358(3) 0.3982(2) 0.7927(2)
C2 C -0.1959(3) 0.3757(2) 0.7445(3)
H1 H -0.2586 0.4123 0.6693
C3 C -0.2614(3) 0.2998(2) 0.8074(3)
H2 H -0.3677 0.2846 0.7734
C4 C -0.1710(3) 0.2459(2) 0.9206(3)
H3 H -0.2166 0.1957 0.9635
C5 C -0.0117(3) 0.2671(2) 0.9699(3)
H4 H 0.0494 0.2320 1.0470
C6 C 0.0564(3) 0.3406(2) 0.9039(2)
C7 C 0.2517(3) 0.4841(2) 0.9660(3)
H5 H 0.3583 0.4963 1.0226
H6 H 0.1817 0.5192 1.0075
C8 C 0.2291(3) 0.5322(2) 0.8288(3)
H7 H 0.3118 0.5064 0.7951
H8 H 0.2378 0.6107 0.8366
C9 C 0.3403(3) 0.2973(2) 0.9663(3)
C10 C 0.2958(3) 0.1799(2) 0.9214(3)
H9 H 0.1818 0.1732 0.8862
Cl1 Cl 0.36904(9) 0.09172(5) 1.05943(7)
Cl2 Cl 0.37955(10) 0.14774(6) 0.79322(7)
N1 N 0.2191(2) 0.36672(16) 0.9532(2)
O1 O 0.4768(2) 0.32457(16) 1.0081(2)
S1 S 0.03979(8) 0.49721(6) 0.70785(7)
loop_
_geom_bond_atom_site_label_1
_geom_bond_atom_site_label_2
_geom_bond_site_symmetry_1
_geom_bond_site_symmetry_2
C1 C2 1_555 1_555
C2 H1 1_555 1_555
C3 C2 1_555 1_555
H2 C3 1_555 1_555
C4 C3 1_555 1_555
H3 C4 1_555 1_555
C5 C4 1_555 1_555
H4 C5 1_555 1_555
C6 C1 1_555 1_555
C7 H5 1_555 1_555
H6 C7 1_555 1_555
C8 C7 1_555 1_555
H7 C8 1_555 1_555
H8 C8 1_555 1_555
C9 C10 1_555 1_555
C10 H9 1_555 1_555
Cl1 C10 1_555 1_555
Cl2 C10 1_555 1_555
N1 C6 1_555 1_555
O1 C9 1_555 1_555
S1 C1 1_555 1_555
C5 C6 1_555 1_555
C7 N1 1_555 1_555
C8 S1 1_555 1_555
C9 N1 1_555 1_555

#END
