
#######################################################################
#
#                 Cambridge Crystallographic Data Centre
#                                CCDC 
#
#######################################################################
#
# If this CIF has been generated from an entry in the Cambridge 
# Structural Database, then it will include bibliographic, chemical, 
# crystal, experimental, refinement or atomic coordinate data resulting 
# from the CCDC's data processing and validation procedures.
#
#######################################################################

data_BIPVUU
_chemical_formula_moiety         
'4(C16 H36 N1 1+),H2 B11 Cl9 4-,H3 B11 Cl8,C3 H6 O1'
_chemical_name_systematic        
'tetrakis(tetra-n-butylammonium) octachloro-closo-undecaborate nonachloro-closo-undecaborate acetone solvate'
_symmetry_cell_setting           triclinic
_symmetry_space_group_name_H-M   'P -1'
_symmetry_Int_Tables_number      2
_space_group_name_Hall           '-P 1'
loop_
_symmetry_equiv_pos_site_id
_symmetry_equiv_pos_as_xyz
1 x,y,z
2 -x,-y,-z
_cell_length_a                   12.1542(8)
_cell_length_b                   20.4092(14)
_cell_length_c                   23.6086(16)
_cell_angle_alpha                65.9960(10)
_cell_angle_beta                 76.1200(10)
_cell_angle_gamma                77.1670(10)
_cell_volume                     5142.16
_exptl_crystal_colour            colorless
_exptl_crystal_description       block
_cell_formula_units_Z            2
loop_
_atom_site_label
_atom_site_type_symbol
_atom_site_fract_x
_atom_site_fract_y
_atom_site_fract_z
B1 B 0.3064(2) 0.7514(2) 0.23177(18)
H1 H 0.21317(17) 0.7615(2) 0.2459(5)
B2 B 0.3433(4) 0.6678(2) 0.22611(19)
Cl1 Cl 0.24757(9) 0.60569(5) 0.23941(5)
B3 B 0.3627(2) 0.82713(18) 0.2217(2)
Cl2 Cl 0.28396(10) 0.90807(6) 0.23181(6)
B4 B 0.4192(4) 0.6659(2) 0.27610(19)
Cl3 Cl 0.41478(11) 0.59458(7) 0.35317(5)
B5 B 0.3914(3) 0.7266(2) 0.15698(19)
Cl4 Cl 0.35020(9) 0.72937(6) 0.08741(4)
B6 B 0.4057(4) 0.8172(2) 0.1538(2)
Cl5 Cl 0.38547(11) 0.89335(7) 0.08416(5)
B7 B 0.4279(4) 0.7566(3) 0.2737(2)
Cl6 Cl 0.42798(17) 0.76278(11) 0.34726(8)
B8 B 0.4915(4) 0.6607(2) 0.20334(19)
Cl7 Cl 0.57870(9) 0.58387(6) 0.18862(5)
B9 B 0.5088(4) 0.8035(3) 0.2009(2)
Cl8 Cl 0.61638(12) 0.86018(8) 0.18326(9)
B10 B 0.5245(4) 0.7495(2) 0.1556(2)
Cl9 Cl 0.63760(9) 0.75916(6) 0.08939(5)
B11 B 0.5424(2) 0.7081(2) 0.23811(17)
H2 H 0.6238(3) 0.6880(15) 0.2562(3)
B12 B 0.1931(4) 0.2637(2) 0.2438(2)
H4 H 0.289(3) 0.2665(17) 0.2273(14)
B13 B 0.1049(3) 0.3370(2) 0.20544(18)
Cl10 Cl 0.14565(8) 0.41773(5) 0.14045(4)
B14 B 0.1921(4) 0.1853(3) 0.3103(2)
Cl11 Cl 0.31798(10) 0.12270(8) 0.33444(5)
B15 B 0.0671(4) 0.2663(2) 0.20120(19)
Cl12 Cl 0.06150(9) 0.26335(6) 0.12639(4)
B16 B 0.0780(4) 0.3257(2) 0.2813(2)
H5 H 0.0871 0.3715 0.2922
B17 B 0.1204(4) 0.1795(2) 0.26094(19)
Cl13 Cl 0.16299(10) 0.10376(6) 0.23620(5)
B18 B 0.1122(4) 0.2396(2) 0.3436(2)
Cl14 Cl 0.13440(12) 0.24280(6) 0.41515(5)
B19 B -0.0298(4) 0.3166(2) 0.2432(2)
Cl15 Cl -0.15723(8) 0.37848(6) 0.22046(5)
B20 B 0.0474(4) 0.1750(2) 0.33656(18)
Cl16 Cl 0.00205(9) 0.09535(5) 0.40129(4)
B21 B -0.0249(4) 0.2634(2) 0.32496(18)
Cl17 Cl -0.14714(9) 0.27881(6) 0.38136(5)
B22 B -0.0264(4) 0.2211(2) 0.27095(19)
H6 H -0.104(2) 0.1940(15) 0.2692(12)
N1 N -0.0226(2) 0.64328(16) 0.11895(14)
C1 C 0.0962(3) 0.6383(2) 0.08122(17)
H7 H 0.1198 0.5887 0.0837
H8 H 0.1480 0.6487 0.1010
C2 C 0.1106(3) 0.6877(2) 0.01266(18)
H9 H 0.0604 0.6774 -0.0081
H10 H 0.0885 0.7376 0.0093
C3 C 0.2316(3) 0.6780(2) -0.01967(19)
H11 H 0.2548 0.6273 -0.0137
H12 H 0.2808 0.6907 0.0000
C4 C 0.2493(4) 0.7231(3) -0.0894(2)
H13 H 0.3286 0.7151 -0.1071
H14 H 0.2271 0.7735 -0.0958
H15 H 0.2035 0.7094 -0.1096
C5 C -0.0624(3) 0.7178(2) 0.1211(2)
H16 H -0.1390 0.7180 0.1455
H17 H -0.0681 0.7519 0.0786
C6 C 0.0101(4) 0.7454(2) 0.1481(2)
H18 H 0.0884 0.7433 0.1260
H19 H 0.0101 0.7154 0.1922
C7 C -0.0387(5) 0.8233(3) 0.1410(3)
H20 H -0.0406 0.8522 0.0968
H21 H -0.1169 0.8244 0.1632
C8 C 0.0279(5) 0.8567(3) 0.1653(3)
H22 H 0.1059 0.8551 0.1440
H23 H 0.0259 0.8304 0.2097
H24 H -0.0052 0.9062 0.1578
C9 C -0.1091(3) 0.6297(2) 0.08954(17)
H25 H -0.1844 0.6358 0.1140
H26 H -0.1097 0.6665 0.0476
C10 C -0.0898(3) 0.5575(2) 0.08470(18)
H27 H -0.0990 0.5201 0.1265
H28 H -0.0123 0.5484 0.0637
C11 C -0.1740(4) 0.5542(2) 0.0481(2)
H29 H -0.2512 0.5663 0.0679
H30 H -0.1619 0.5903 0.0058
C12 C -0.1635(4) 0.4812(2) 0.0442(2)
H31 H -0.2111 0.4844 0.0158
H32 H -0.1874 0.4465 0.0852
H33 H -0.0852 0.4663 0.0291
C13 C -0.0164(3) 0.5861(2) 0.18470(17)
H34 H 0.0151 0.5398 0.1808
H35 H 0.0369 0.5979 0.2027
C14 C -0.1280(4) 0.5773(3) 0.23037(19)
H36 H -0.1610 0.6231 0.2349
H37 H -0.1816 0.5636 0.2140
C15 C -0.1095(5) 0.5201(3) 0.2939(2)
H38 H -0.0657 0.4767 0.2880
H39 H -0.0644 0.5373 0.3124
C16 C -0.2175(6) 0.5007(4) 0.3388(3)
H40 H -0.2635 0.5436 0.3432
H41 H -0.1994 0.4672 0.3790
H42 H -0.2590 0.4786 0.3231
N2 N -0.0031(3) 0.11670(16) 0.60737(13)
C17 C -0.0117(4) 0.1988(2) 0.57968(19)
H43 H 0.0634 0.2116 0.5745
H44 H -0.0318 0.2162 0.5381
C18 C -0.0967(4) 0.2381(2) 0.6173(2)
H45 H -0.1723 0.2259 0.6229
H46 H -0.0763 0.2224 0.6586
C19 C -0.0996(4) 0.3189(2) 0.5854(2)
H47 H -0.1448 0.3415 0.6142
H48 H -0.0223 0.3302 0.5761
C20 C -0.1477(5) 0.3504(3) 0.5265(3)
H49 H -0.1524 0.4022 0.5103
H50 H -0.2227 0.3374 0.5347
H51 H -0.0990 0.3321 0.4960
C21 C -0.1150(3) 0.0919(2) 0.61545(18)
H52 H -0.1028 0.0396 0.6287
H53 H -0.1676 0.1040 0.6489
C22 C -0.1701(4) 0.1235(3) 0.5580(2)
H54 H -0.1895 0.1755 0.5466
H55 H -0.1164 0.1146 0.5234
C23 C -0.2759(4) 0.0913(3) 0.5690(2)
H56 H -0.2555 0.0397 0.5783
H57 H -0.3273 0.0977 0.6053
C24 C -0.3342(5) 0.1232(4) 0.5160(3)
H58 H -0.2812 0.1225 0.4788
H59 H -0.3659 0.1724 0.5109
H60 H -0.3947 0.0962 0.5228
C25 C 0.0337(4) 0.0893(2) 0.67124(17)
H61 H 0.0961 0.1144 0.6670
H62 H -0.0297 0.1029 0.7000
C26 C 0.0717(4) 0.0088(2) 0.70088(17)
H63 H 0.1435 -0.0046 0.6769
H64 H 0.0149 -0.0177 0.7006
C27 C 0.0868(4) -0.0104(2) 0.76793(18)
H65 H 0.1372 0.0203 0.7680
H66 H 0.0131 -0.0004 0.7922
C28 C 0.1350(4) -0.0882(2) 0.7994(2)
H67 H 0.0856 -0.1190 0.7996
H68 H 0.1407 -0.0972 0.8419
H69 H 0.2097 -0.0980 0.7769
C29 C 0.0837(3) 0.0865(2) 0.56341(17)
H70 H 0.0841 0.0344 0.5800
H71 H 0.0578 0.1060 0.5231
C30 C 0.2045(4) 0.1005(2) 0.55196(18)
H72 H 0.2323 0.0818 0.5916
H73 H 0.2073 0.1522 0.5328
C31 C 0.2798(4) 0.0637(3) 0.50879(19)
H74 H 0.2872 0.0116 0.5312
H75 H 0.2432 0.0753 0.4730
C32 C 0.3961(4) 0.0862(4) 0.4859(2)
H76 H 0.4416 0.0597 0.4607
H77 H 0.4319 0.0763 0.5212
H78 H 0.3897 0.1372 0.4609
N3 N 0.4457(3) 0.36378(16) 0.33088(15)
C33 C 0.5237(4) 0.3780(2) 0.36496(19)
H79 H 0.4999 0.4267 0.3647
H80 H 0.6011 0.3760 0.3417
C34 C 0.5250(5) 0.3253(3) 0.4327(2)
H81 H 0.4471 0.3226 0.4553
H82 H 0.5589 0.2774 0.4332
C35 C 0.5930(4) 0.3496(3) 0.4652(2)
H83 H 0.6033 0.3110 0.5054
H84 H 0.6683 0.3565 0.4399
C36 C 0.5396(5) 0.4183(3) 0.4766(3)
H85 H 0.5379 0.4583 0.4369
H86 H 0.5841 0.4269 0.5008
H87 H 0.4630 0.4135 0.4991
C37 C 0.4819(4) 0.2890(2) 0.3271(2)
H88 H 0.4827 0.2532 0.3694
H89 H 0.4245 0.2797 0.3100
C38 C 0.5967(4) 0.2787(3) 0.2879(2)
H90 H 0.6553 0.2875 0.3045
H91 H 0.5967 0.3134 0.2451
C39 C 0.6246(4) 0.2013(3) 0.2880(3)
H92 H 0.5583 0.1889 0.2804
H93 H 0.6870 0.1997 0.2539
C40 C 0.6571(5) 0.1468(3) 0.3483(3)
H94 H 0.6775 0.0999 0.3455
H95 H 0.5936 0.1457 0.3818
H96 H 0.7212 0.1597 0.3567
C41 C 0.4519(4) 0.4226(2) 0.26630(18)
H97 H 0.4288 0.4689 0.2712
H98 H 0.5312 0.4211 0.2458
C42 C 0.3814(4) 0.4202(3) 0.2231(2)
H99 H 0.3010 0.4331 0.2379
H100 H 0.3920 0.3713 0.2241
C43 C 0.4144(4) 0.4721(3) 0.1555(2)
H101 H 0.3589 0.4752 0.1308
H102 H 0.4116 0.5201 0.1553
C44 C 0.5302(5) 0.4493(3) 0.1256(2)
H103 H 0.5328 0.4026 0.1242
H104 H 0.5857 0.4466 0.1496
H105 H 0.5470 0.4840 0.0836
C45 C 0.3240(4) 0.3647(2) 0.3660(2)
H106 H 0.2763 0.3588 0.3413
H107 H 0.3218 0.3230 0.4052
C46 C 0.2724(4) 0.4302(2) 0.3805(2)
H108 H 0.2787 0.4729 0.3421
H109 H 0.3141 0.4341 0.4090
C47 C 0.1464(5) 0.4269(3) 0.4106(3)
H110 H 0.1056 0.4213 0.3826
H111 H 0.1407 0.3848 0.4495
C48 C 0.0913(6) 0.4929(4) 0.4242(3)
H112 H 0.1026 0.5351 0.3865
H113 H 0.1249 0.4952 0.4560
H114 H 0.0108 0.4909 0.4387
N4 N 0.4855(2) 0.10825(18) 0.11053(13)
C49 C 0.4230(3) 0.0983(2) 0.06635(16)
H115 H 0.4448 0.1327 0.0242
H116 H 0.4496 0.0501 0.0657
C50 C 0.2961(3) 0.1074(2) 0.08171(18)
H117 H 0.2679 0.1572 0.0775
H118 H 0.2733 0.0768 0.1252
C51 C 0.2406(4) 0.0887(3) 0.0403(2)
H119 H 0.2663 0.1176 -0.0034
H120 H 0.2657 0.0382 0.0462
C52 C 0.1143(4) 0.1013(4) 0.0536(3)
H121 H 0.0887 0.1517 0.0460
H122 H 0.0882 0.0728 0.0968
H123 H 0.0840 0.0874 0.0268
C53 C 0.4666(3) 0.0460(2) 0.17400(16)
H124 H 0.3863 0.0518 0.1923
H125 H 0.4829 0.0010 0.1668
C54 C 0.5376(4) 0.0389(3) 0.22179(18)
H126 H 0.6184 0.0303 0.2054
H127 H 0.5232 0.0836 0.2294
C55 C 0.5070(4) -0.0228(3) 0.28240(17)
H128 H 0.5203 -0.0671 0.2742
H129 H 0.4262 -0.0138 0.2985
C56 C 0.5757(5) -0.0333(4) 0.3319(2)
H130 H 0.6559 -0.0415 0.3160
H131 H 0.5553 -0.0743 0.3690
H132 H 0.5595 0.0093 0.3420
C57 C 0.4392(4) 0.1773(2) 0.12038(17)
H133 H 0.4765 0.1790 0.1517
H134 H 0.3582 0.1771 0.1375
C58 C 0.4534(4) 0.2459(2) 0.06230(18)
H135 H 0.5342 0.2481 0.0459
H136 H 0.4178 0.2446 0.0302
C59 C 0.4010(4) 0.3115(3) 0.0765(2)
H137 H 0.4270 0.3084 0.1134
H138 H 0.3185 0.3130 0.0863
C60 C 0.4303(4) 0.3807(2) 0.0227(2)
H139 H 0.4179 0.3800 -0.0157
H140 H 0.5092 0.3847 0.0190
H141 H 0.3826 0.4214 0.0307
C61 C 0.6119(8) 0.1041(12) 0.0838(19)
H142 H 0.6202 0.1428 0.0427
H143 H 0.6487 0.1156 0.1101
C62 C 0.6806(15) 0.0363(9) 0.0759(10)
H144 H 0.6528 0.0279 0.0445
H145 H 0.6667 -0.0043 0.1153
C63 C 0.8078(15) 0.0375(11) 0.0566(7)
H146 H 0.8362 0.0440 0.0888
H147 H 0.8441 -0.0092 0.0549
C64 C 0.842(2) 0.0952(12) -0.0051(9)
H148 H 0.9239 0.0874 -0.0174
H149 H 0.8198 0.1417 -0.0014
H150 H 0.8057 0.0937 -0.0362
O1 O 0.2510(9) 0.2660(5) 0.5602(4)
C73 C 0.2692(14) 0.2792(4) 0.6045(5)
C74 C 0.2597(13) 0.3582(5) 0.5986(6)
H169 H 0.2761 0.3588 0.6362
H170 H 0.3135 0.3827 0.5632
H171 H 0.1835 0.3823 0.5928
C75 C 0.2408(14) 0.2267(8) 0.6731(4)
H172 H 0.2598 0.2447 0.7008
H173 H 0.1606 0.2227 0.6832
H174 H 0.2844 0.1798 0.6779
H3? H 0.4256 0.7605 0.3191
Cl18? Cl 0.0729(7) 0.4043(3) 0.2972(3)
C65? C 0.6057(9) 0.1253(11) 0.0810(19)
H151? H 0.6060 0.1619 0.0389
H152? H 0.6338 0.1441 0.1057
C66? C 0.6817(15) 0.0575(11) 0.0783(12)
H153? H 0.6480 0.0347 0.0589
H154? H 0.6913 0.0236 0.1204
C67? C 0.7956(13) 0.0781(8) 0.0400(8)
H155? H 0.7849 0.1131 -0.0016
H156? H 0.8288 0.1005 0.0599
C68? C 0.8753(12) 0.0133(7) 0.0342(9)
H157? H 0.8452 -0.0068 0.0117
H158? H 0.8834 -0.0222 0.0754
H159? H 0.9488 0.0273 0.0118
C69? C 0.6104(14) 0.094(2) 0.084(3)
H160? H 0.6246 0.1321 0.0425
H161? H 0.6549 0.0998 0.1100
C70? C 0.6579(16) 0.0228(15) 0.0763(16)
H162? H 0.6285 -0.0164 0.1134
H163? H 0.6343 0.0221 0.0402
C71? C 0.7863(16) 0.0126(15) 0.0676(10)
H164? H 0.8080 0.0128 0.1045
H165? H 0.8153 -0.0348 0.0656
C72? C 0.844(3) 0.0676(18) 0.0108(14)
H166? H 0.8127 0.0745 -0.0253
H167? H 0.9245 0.0512 0.0044
H168? H 0.8312 0.1127 0.0168
O2? O 0.2183(11) 0.2166(6) 0.6166(6)
C76? C 0.2403(9) 0.2680(6) 0.6266(6)
C77? C 0.3603(12) 0.2914(14) 0.6024(17)
H175? H 0.3626 0.3310 0.6140
H176? H 0.4162 0.2514 0.6207
H177? H 0.3770 0.3064 0.5575
C78? C 0.1722(18) 0.2866(10) 0.6835(7)
H178? H 0.1995 0.3269 0.6842
H179? H 0.0925 0.2992 0.6800
H180? H 0.1821 0.2455 0.7216
loop_
_geom_bond_atom_site_label_1
_geom_bond_atom_site_label_2
_geom_bond_site_symmetry_1
_geom_bond_site_symmetry_2
B1 H1 1_555 1_555
B2 B1 1_555 1_555
Cl1 B2 1_555 1_555
B3 B1 1_555 1_555
Cl2 B3 1_555 1_555
B4 B1 1_555 1_555
Cl3 B4 1_555 1_555
B5 B1 1_555 1_555
Cl4 B5 1_555 1_555
B6 B1 1_555 1_555
Cl5 B6 1_555 1_555
B7 B1 1_555 1_555
Cl6 B7 1_555 1_555
B8 B2 1_555 1_555
Cl7 B8 1_555 1_555
B9 B3 1_555 1_555
Cl8 B9 1_555 1_555
B10 B5 1_555 1_555
Cl9 B10 1_555 1_555
B11 B4 1_555 1_555
H2 B11 1_555 1_555
B12 H4 1_555 1_555
B13 B12 1_555 1_555
Cl10 B13 1_555 1_555
B14 B12 1_555 1_555
Cl11 B14 1_555 1_555
B15 B12 1_555 1_555
Cl12 B15 1_555 1_555
B16 B12 1_555 1_555
H5 B16 1_555 1_555
B17 B12 1_555 1_555
Cl13 B17 1_555 1_555
B18 B14 1_555 1_555
Cl14 B18 1_555 1_555
B19 B13 1_555 1_555
Cl15 B19 1_555 1_555
B20 B14 1_555 1_555
Cl16 B20 1_555 1_555
B21 B16 1_555 1_555
Cl17 B21 1_555 1_555
B22 B15 1_555 1_555
H6 B22 1_555 1_555
N1 C1 1_555 1_555
C1 H7 1_555 1_555
H8 C1 1_555 1_555
C2 C1 1_555 1_555
H9 C2 1_555 1_555
H10 C2 1_555 1_555
C3 C2 1_555 1_555
H11 C3 1_555 1_555
H12 C3 1_555 1_555
C4 C3 1_555 1_555
H13 C4 1_555 1_555
H14 C4 1_555 1_555
H15 C4 1_555 1_555
C5 N1 1_555 1_555
H16 C5 1_555 1_555
H17 C5 1_555 1_555
C6 C5 1_555 1_555
H18 C6 1_555 1_555
H19 C6 1_555 1_555
C7 C6 1_555 1_555
H20 C7 1_555 1_555
H21 C7 1_555 1_555
C8 C7 1_555 1_555
H22 C8 1_555 1_555
H23 C8 1_555 1_555
H24 C8 1_555 1_555
C9 N1 1_555 1_555
H25 C9 1_555 1_555
H26 C9 1_555 1_555
C10 C9 1_555 1_555
H27 C10 1_555 1_555
H28 C10 1_555 1_555
C11 C10 1_555 1_555
H29 C11 1_555 1_555
H30 C11 1_555 1_555
C12 C11 1_555 1_555
H31 C12 1_555 1_555
H32 C12 1_555 1_555
H33 C12 1_555 1_555
C13 N1 1_555 1_555
H34 C13 1_555 1_555
H35 C13 1_555 1_555
C14 C13 1_555 1_555
H36 C14 1_555 1_555
H37 C14 1_555 1_555
C15 C14 1_555 1_555
H38 C15 1_555 1_555
H39 C15 1_555 1_555
C16 C15 1_555 1_555
H40 C16 1_555 1_555
H41 C16 1_555 1_555
H42 C16 1_555 1_555
N2 C17 1_555 1_555
C17 H43 1_555 1_555
H44 C17 1_555 1_555
C18 C17 1_555 1_555
H45 C18 1_555 1_555
H46 C18 1_555 1_555
C19 C18 1_555 1_555
H47 C19 1_555 1_555
H48 C19 1_555 1_555
C20 C19 1_555 1_555
H49 C20 1_555 1_555
H50 C20 1_555 1_555
H51 C20 1_555 1_555
C21 N2 1_555 1_555
H52 C21 1_555 1_555
H53 C21 1_555 1_555
C22 C21 1_555 1_555
H54 C22 1_555 1_555
H55 C22 1_555 1_555
C23 C22 1_555 1_555
H56 C23 1_555 1_555
H57 C23 1_555 1_555
C24 C23 1_555 1_555
H58 C24 1_555 1_555
H59 C24 1_555 1_555
H60 C24 1_555 1_555
C25 N2 1_555 1_555
H61 C25 1_555 1_555
H62 C25 1_555 1_555
C26 C25 1_555 1_555
H63 C26 1_555 1_555
H64 C26 1_555 1_555
C27 C26 1_555 1_555
H65 C27 1_555 1_555
H66 C27 1_555 1_555
C28 C27 1_555 1_555
H67 C28 1_555 1_555
H68 C28 1_555 1_555
H69 C28 1_555 1_555
C29 N2 1_555 1_555
H70 C29 1_555 1_555
H71 C29 1_555 1_555
C30 C29 1_555 1_555
H72 C30 1_555 1_555
H73 C30 1_555 1_555
C31 C30 1_555 1_555
H74 C31 1_555 1_555
H75 C31 1_555 1_555
C32 C31 1_555 1_555
H76 C32 1_555 1_555
H77 C32 1_555 1_555
H78 C32 1_555 1_555
N3 C33 1_555 1_555
C33 H79 1_555 1_555
H80 C33 1_555 1_555
C34 C33 1_555 1_555
H81 C34 1_555 1_555
H82 C34 1_555 1_555
C35 C34 1_555 1_555
H83 C35 1_555 1_555
H84 C35 1_555 1_555
C36 C35 1_555 1_555
H85 C36 1_555 1_555
H86 C36 1_555 1_555
H87 C36 1_555 1_555
C37 N3 1_555 1_555
H88 C37 1_555 1_555
H89 C37 1_555 1_555
C38 C37 1_555 1_555
H90 C38 1_555 1_555
H91 C38 1_555 1_555
C39 C38 1_555 1_555
H92 C39 1_555 1_555
H93 C39 1_555 1_555
C40 C39 1_555 1_555
H94 C40 1_555 1_555
H95 C40 1_555 1_555
H96 C40 1_555 1_555
C41 N3 1_555 1_555
H97 C41 1_555 1_555
H98 C41 1_555 1_555
C42 C41 1_555 1_555
H99 C42 1_555 1_555
H100 C42 1_555 1_555
C43 C42 1_555 1_555
H101 C43 1_555 1_555
H102 C43 1_555 1_555
C44 C43 1_555 1_555
H103 C44 1_555 1_555
H104 C44 1_555 1_555
H105 C44 1_555 1_555
C45 N3 1_555 1_555
H106 C45 1_555 1_555
H107 C45 1_555 1_555
C46 C45 1_555 1_555
H108 C46 1_555 1_555
H109 C46 1_555 1_555
C47 C46 1_555 1_555
H110 C47 1_555 1_555
H111 C47 1_555 1_555
C48 C47 1_555 1_555
H112 C48 1_555 1_555
H113 C48 1_555 1_555
H114 C48 1_555 1_555
N4 C49 1_555 1_555
C49 H115 1_555 1_555
H116 C49 1_555 1_555
C50 C49 1_555 1_555
H117 C50 1_555 1_555
H118 C50 1_555 1_555
C51 C50 1_555 1_555
H119 C51 1_555 1_555
H120 C51 1_555 1_555
C52 C51 1_555 1_555
H121 C52 1_555 1_555
H122 C52 1_555 1_555
H123 C52 1_555 1_555
C53 N4 1_555 1_555
H124 C53 1_555 1_555
H125 C53 1_555 1_555
C54 C53 1_555 1_555
H126 C54 1_555 1_555
H127 C54 1_555 1_555
C55 C54 1_555 1_555
H128 C55 1_555 1_555
H129 C55 1_555 1_555
C56 C55 1_555 1_555
H130 C56 1_555 1_555
H131 C56 1_555 1_555
H132 C56 1_555 1_555
C57 N4 1_555 1_555
H133 C57 1_555 1_555
H134 C57 1_555 1_555
C58 C57 1_555 1_555
H135 C58 1_555 1_555
H136 C58 1_555 1_555
C59 C58 1_555 1_555
H137 C59 1_555 1_555
H138 C59 1_555 1_555
C60 C59 1_555 1_555
H139 C60 1_555 1_555
H140 C60 1_555 1_555
H141 C60 1_555 1_555
C61 N4 1_555 1_555
H142 C61 1_555 1_555
H143 C61 1_555 1_555
C62 C61 1_555 1_555
H144 C62 1_555 1_555
H145 C62 1_555 1_555
C63 C62 1_555 1_555
H146 C63 1_555 1_555
H147 C63 1_555 1_555
C64 C63 1_555 1_555
H148 C64 1_555 1_555
H149 C64 1_555 1_555
H150 C64 1_555 1_555
O1 C73 1_555 1_555
C73 C74 1_555 1_555
C74 H169 1_555 1_555
H170 C74 1_555 1_555
H171 C74 1_555 1_555
C75 C73 1_555 1_555
H172 C75 1_555 1_555
H173 C75 1_555 1_555
H174 C75 1_555 1_555
B2 B4 1_555 1_555
B2 B5 1_555 1_555
B3 B6 1_555 1_555
B3 B7 1_555 1_555
B4 B7 1_555 1_555
B4 B8 1_555 1_555
B5 B6 1_555 1_555
B5 B8 1_555 1_555
B6 B9 1_555 1_555
B6 B10 1_555 1_555
B7 B9 1_555 1_555
B7 B11 1_555 1_555
B8 B10 1_555 1_555
B8 B11 1_555 1_555
B9 B10 1_555 1_555
B9 B11 1_555 1_555
B10 B11 1_555 1_555
B13 B15 1_555 1_555
B13 B16 1_555 1_555
B14 B17 1_555 1_555
B15 B17 1_555 1_555
B15 B19 1_555 1_555
B16 B18 1_555 1_555
B16 B19 1_555 1_555
B17 B20 1_555 1_555
B17 B22 1_555 1_555
B18 B20 1_555 1_555
B18 B21 1_555 1_555
B19 B21 1_555 1_555
B19 B22 1_555 1_555
B20 B21 1_555 1_555
B20 B22 1_555 1_555
B21 B22 1_555 1_555

#END
