
#######################################################################
#
#                 Cambridge Crystallographic Data Centre
#                                CCDC 
#
#######################################################################
#
# If this CIF has been generated from an entry in the Cambridge 
# Structural Database, then it will include bibliographic, chemical, 
# crystal, experimental, refinement or atomic coordinate data resulting 
# from the CCDC's data processing and validation procedures.
#
#######################################################################

data_BIPYUX
_chemical_formula_moiety         'C18 H12 Cl3 O1 P1 S3'
_chemical_name_systematic        
'S,S,S-tris(4-chlorophenyl) phosphorotrithioate'
_symmetry_cell_setting           monoclinic
_symmetry_space_group_name_H-M   'C 2/c'
_symmetry_Int_Tables_number      15
_space_group_name_Hall           '-C 2yn'
loop_
_symmetry_equiv_pos_site_id
_symmetry_equiv_pos_as_xyz
1 x,y,z
2 -x,y,1/2-z
3 1/2+x,1/2+y,z
4 1/2-x,1/2+y,1/2-z
5 -x,-y,-z
6 x,-y,1/2+z
7 1/2-x,1/2-y,-z
8 1/2+x,1/2-y,1/2+z
_cell_length_a                   12.268(2)
_cell_length_b                   8.6753(17)
_cell_length_c                   37.965(7)
_cell_angle_alpha                90
_cell_angle_beta                 92.878(3)
_cell_angle_gamma                90
_cell_volume                     4035.46
_exptl_crystal_colour            colorless
_exptl_crystal_description       block
_cell_formula_units_Z            8
loop_
_atom_site_label
_atom_site_type_symbol
_atom_site_fract_x
_atom_site_fract_y
_atom_site_fract_z
S1 S 0.32879(6) 0.52679(9) 0.37747(2)
Cl1 Cl 0.61073(7) 0.97659(10) 0.29100(2)
P1 P 0.43095(7) 0.38016(10) 0.40680(2)
S2 S 0.49716(7) 0.21168(10) 0.37505(3)
Cl2 Cl 0.11854(10) 0.70289(11) 0.54237(3)
S3 S 0.31874(10) 0.25474(10) 0.43407(3)
Cl3 Cl 0.12412(9) -0.05530(13) 0.27431(3)
O1 O 0.5204(2) 0.4557(3) 0.42709(7)
C1 C 0.4204(2) 0.6410(3) 0.35338(8)
C2 C 0.5389(2) 0.8422(3) 0.31509(8)
C3 C 0.3936(3) 0.6636(3) 0.31803(8)
H1 H 0.3361 0.6089 0.3071
C4 C 0.5094(3) 0.7172(3) 0.36937(8)
H2 H 0.5283 0.7012 0.3931
C5 C 0.4517(3) 0.7666(4) 0.29887(8)
H3 H 0.4322 0.7849 0.2752
C6 C 0.5693(3) 0.8165(4) 0.34969(9)
H4 H 0.6302 0.8660 0.3599
C7 C 0.3839(3) 0.1446(4) 0.34799(9)
C8 C 0.1778(3) 0.5880(4) 0.51091(9)
C9 C 0.2676(3) 0.3970(4) 0.46311(8)
C10 C 0.3167(3) 0.0285(4) 0.35941(9)
H5 H 0.3268 -0.0100 0.3822
C11 C 0.2351(3) -0.0300(4) 0.33716(10)
H6 H 0.1887 -0.1061 0.3450
C12 C 0.2228(3) 0.0251(4) 0.30327(10)
C13 C 0.3249(3) 0.4311(4) 0.49433(9)
H7 H 0.3938 0.3889 0.4990
C14 C 0.3686(3) 0.2018(4) 0.31383(9)
H8 H 0.4128 0.2810 0.3062
C15 C 0.2887(3) 0.1419(4) 0.29138(10)
H9 H 0.2787 0.1791 0.2685
C16 C 0.1212(3) 0.5579(4) 0.47955(9)
H10 H 0.0530 0.6020 0.4746
C17 C 0.1665(3) 0.4619(4) 0.45558(9)
H11 H 0.1290 0.4406 0.4342
C18 C 0.2802(3) 0.5274(4) 0.51852(9)
H12 H 0.3183 0.5513 0.5396
loop_
_geom_bond_atom_site_label_1
_geom_bond_atom_site_label_2
_geom_bond_site_symmetry_1
_geom_bond_site_symmetry_2
S1 P1 1_555 1_555
Cl1 C2 1_555 1_555
P1 S2 1_555 1_555
S2 C7 1_555 1_555
Cl2 C8 1_555 1_555
S3 P1 1_555 1_555
Cl3 C12 1_555 1_555
O1 P1 1_555 1_555
C1 S1 1_555 1_555
C2 C5 1_555 1_555
C3 C1 1_555 1_555
H1 C3 1_555 1_555
C4 C1 1_555 1_555
H2 C4 1_555 1_555
C5 C3 1_555 1_555
H3 C5 1_555 1_555
C6 C2 1_555 1_555
H4 C6 1_555 1_555
C7 C10 1_555 1_555
C8 C16 1_555 1_555
C9 S3 1_555 1_555
C10 H5 1_555 1_555
C11 C10 1_555 1_555
H6 C11 1_555 1_555
C12 C11 1_555 1_555
C13 C9 1_555 1_555
H7 C13 1_555 1_555
C14 C7 1_555 1_555
H8 C14 1_555 1_555
C15 C12 1_555 1_555
H9 C15 1_555 1_555
C16 H10 1_555 1_555
C17 C9 1_555 1_555
H11 C17 1_555 1_555
C18 C8 1_555 1_555
H12 C18 1_555 1_555
C4 C6 1_555 1_555
C13 C18 1_555 1_555
C14 C15 1_555 1_555
C16 C17 1_555 1_555

#END
