
#######################################################################
#
#                 Cambridge Crystallographic Data Centre
#                                CCDC 
#
#######################################################################
#
# If this CIF has been generated from an entry in the Cambridge 
# Structural Database, then it will include bibliographic, chemical, 
# crystal, experimental, refinement or atomic coordinate data resulting 
# from the CCDC's data processing and validation procedures.
#
#######################################################################

data_BIQKUK
_chemical_formula_moiety         'C31 H24 N2 O2'
_chemical_name_systematic        
6-benzylidene-4-methyl-9-(naphthalen-1-yl)-2-phenyl-2,3-diazaspiro[4.4]non-3-ene-1,7-dione
_symmetry_cell_setting           monoclinic
_symmetry_space_group_name_H-M   'I 2/a'
_symmetry_Int_Tables_number      15
_space_group_name_Hall           '-I 2ya'
loop_
_symmetry_equiv_pos_site_id
_symmetry_equiv_pos_as_xyz
1 x,y,z
2 1/2-x,y,-z
3 1/2+x,1/2+y,1/2+z
4 -x,1/2+y,1/2-z
5 -x,-y,-z
6 1/2+x,-y,z
7 1/2-x,1/2-y,1/2-z
8 x,1/2-y,1/2+z
_cell_length_a                   14.50950(10)
_cell_length_b                   15.42510(10)
_cell_length_c                   22.00390(10)
_cell_angle_alpha                90
_cell_angle_beta                 107.7770(10)
_cell_angle_gamma                90
_cell_volume                     4689.56
_exptl_crystal_colour            colorless
_exptl_crystal_description       block
_cell_formula_units_Z            8
loop_
_atom_site_label
_atom_site_type_symbol
_atom_site_fract_x
_atom_site_fract_y
_atom_site_fract_z
O1 O 0.36073(5) 0.79963(5) 0.74293(3)
O2 O 0.22797(6) 0.64847(8) 0.58046(4)
N1 N 0.52664(6) 0.78361(6) 0.78551(4)
N2 N 0.60011(6) 0.73418(7) 0.77200(4)
C1 C 0.42772(7) 0.59759(6) 0.80211(5)
C2 C 0.40499(7) 0.60357(7) 0.73016(5)
H1 H 0.4320 0.5519 0.7160
C3 C 0.50995(7) 0.54947(6) 0.83973(5)
C4 C 0.43656(7) 0.76406(7) 0.74543(5)
C5 C 0.29771(7) 0.60860(8) 0.69125(5)
H2 H 0.2691 0.5512 0.6844
H3 H 0.2623 0.6438 0.7131
C6 C 0.45079(7) 0.68654(7) 0.70635(5)
C7 C 0.53370(7) 0.55239(7) 0.90755(5)
C8 C 0.55974(7) 0.68202(7) 0.72639(5)
C9 C 0.37251(7) 0.64179(7) 0.83275(5)
H4 H 0.3180 0.6716 0.8085
C10 C 0.39156(7) 0.69156(7) 0.63647(5)
C11 C 0.29604(8) 0.64945(8) 0.62891(5)
C12 C 0.56939(7) 0.49807(7) 0.81363(5)
H5 H 0.5541 0.4933 0.7695
C13 C 0.41491(8) 0.71839(8) 0.58530(5)
H6 H 0.3670 0.7119 0.5463
C14 C 0.55364(8) 0.84564(7) 0.83516(5)
C15 C 0.50583(9) 0.75669(8) 0.58229(5)
C16 C 0.39605(8) 0.64328(8) 0.89973(5)
H7 H 0.3573 0.6740 0.9190
C17 C 0.64853(8) 0.45537(8) 0.85159(6)
H8 H 0.6869 0.4229 0.8331
C18 C 0.47505(8) 0.60008(8) 0.93626(5)
H9 H 0.4906 0.6019 0.9805
C19 C 0.61629(8) 0.50716(8) 0.94534(5)
H10 H 0.6324 0.5097 0.9896
C20 C 0.61954(9) 0.62367(9) 0.69957(6)
H11 H 0.6280 0.6495 0.6619
H12 H 0.5875 0.5688 0.6888
H13 H 0.6816 0.6151 0.7307
C21 C 0.67226(9) 0.46022(9) 0.91813(6)
H14 H 0.7265 0.4312 0.9437
C22 C 0.55356(10) 0.82168(8) 0.62314(6)
H15 H 0.5267 0.8445 0.6530
C23 C 0.48539(10) 0.88153(9) 0.86032(6)
H16 H 0.4209 0.8648 0.8449
C24 C 0.54634(11) 0.72544(10) 0.53655(7)
H17 H 0.5133 0.6841 0.5071
C25 C 0.64997(9) 0.86945(10) 0.85994(6)
H18 H 0.6964 0.8448 0.8441
C26 C 0.64149(11) 0.85282(11) 0.61967(8)
H19 H 0.6730 0.8971 0.6468
C27 C 0.60953(13) 0.96742(10) 0.93258(7)
H20 H 0.6281 1.0089 0.9647
C28 C 0.67660(12) 0.93011(11) 0.90843(7)
H21 H 0.7413 0.9459 0.9250
C29 C 0.51422(13) 0.94254(10) 0.90862(7)
H22 H 0.4684 0.9671 0.9251
C30 C 0.68241(12) 0.81842(13) 0.57610(10)
H23 H 0.7424 0.8381 0.5748
C31 C 0.63445(13) 0.75515(12) 0.53465(9)
H24 H 0.6619 0.7323 0.5051
loop_
_geom_bond_atom_site_label_1
_geom_bond_atom_site_label_2
_geom_bond_site_symmetry_1
_geom_bond_site_symmetry_2
O1 C4 1_555 1_555
O2 C11 1_555 1_555
N1 N2 1_555 1_555
N2 C8 1_555 1_555
C1 C2 1_555 1_555
C2 H1 1_555 1_555
C3 C1 1_555 1_555
C4 N1 1_555 1_555
C5 C2 1_555 1_555
H2 C5 1_555 1_555
H3 C5 1_555 1_555
C6 C2 1_555 1_555
C7 C3 1_555 1_555
C8 C6 1_555 1_555
C9 C1 1_555 1_555
H4 C9 1_555 1_555
C10 C6 1_555 1_555
C11 C5 1_555 1_555
C12 C3 1_555 1_555
H5 C12 1_555 1_555
C13 C10 1_555 1_555
H6 C13 1_555 1_555
C14 N1 1_555 1_555
C15 C13 1_555 1_555
C16 C9 1_555 1_555
H7 C16 1_555 1_555
C17 C12 1_555 1_555
H8 C17 1_555 1_555
C18 C7 1_555 1_555
H9 C18 1_555 1_555
C19 C7 1_555 1_555
H10 C19 1_555 1_555
C20 C8 1_555 1_555
H11 C20 1_555 1_555
H12 C20 1_555 1_555
H13 C20 1_555 1_555
C21 C17 1_555 1_555
H14 C21 1_555 1_555
C22 C15 1_555 1_555
H15 C22 1_555 1_555
C23 C14 1_555 1_555
H16 C23 1_555 1_555
C24 C15 1_555 1_555
H17 C24 1_555 1_555
C25 C14 1_555 1_555
H18 C25 1_555 1_555
C26 C22 1_555 1_555
H19 C26 1_555 1_555
C27 H20 1_555 1_555
C28 C25 1_555 1_555
H21 C28 1_555 1_555
C29 C23 1_555 1_555
H22 C29 1_555 1_555
C30 C26 1_555 1_555
H23 C30 1_555 1_555
C31 C24 1_555 1_555
H24 C31 1_555 1_555
C4 C6 1_555 1_555
C10 C11 1_555 1_555
C16 C18 1_555 1_555
C19 C21 1_555 1_555
C27 C28 1_555 1_555
C27 C29 1_555 1_555
C30 C31 1_555 1_555

#END
