
#######################################################################
#
#                 Cambridge Crystallographic Data Centre
#                                CCDC 
#
#######################################################################
#
# If this CIF has been generated from an entry in the Cambridge 
# Structural Database, then it will include bibliographic, chemical, 
# crystal, experimental, refinement or atomic coordinate data resulting 
# from the CCDC's data processing and validation procedures.
#
#######################################################################

data_BIRHUI
_chemical_formula_moiety         'C43 H37 B1 N2'
_chemical_name_systematic        
1-{4-[bis(2,4,6-trimethylphenyl)boranyl]phenyl}-2-(pyridin-2-yl)indolizino[3,4,5-ab]isoindole
_symmetry_cell_setting           triclinic
_symmetry_space_group_name_H-M   'P -1'
_symmetry_Int_Tables_number      2
_space_group_name_Hall           '-P 1'
loop_
_symmetry_equiv_pos_site_id
_symmetry_equiv_pos_as_xyz
1 x,y,z
2 -x,-y,-z
_cell_length_a                   8.1887(14)
_cell_length_b                   13.353(2)
_cell_length_c                   15.493(2)
_cell_angle_alpha                81.008(6)
_cell_angle_beta                 83.598(6)
_cell_angle_gamma                78.061(6)
_cell_volume                     1631.54
_exptl_crystal_colour            yellow
_exptl_crystal_description       Block
_cell_formula_units_Z            2
loop_
_atom_site_label
_atom_site_type_symbol
_atom_site_fract_x
_atom_site_fract_y
_atom_site_fract_z
B1 B 0.3637(7) 0.1275(4) 0.2941(3)
N1 N 1.0175(5) 0.5062(3) 0.1584(2)
N2 N 0.7095(6) 0.6040(4) 0.3785(3)
C1 C 0.4913(6) 0.2017(3) 0.2684(3)
C2 C 0.5685(6) 0.2326(3) 0.3334(3)
H1 H 0.5478 0.2044 0.3929
C3 C 0.6738(6) 0.3029(3) 0.3134(3)
H2 H 0.7276 0.3202 0.3588
C4 C 0.7018(6) 0.3486(3) 0.2274(3)
C5 C 0.6286(6) 0.3174(3) 0.1616(3)
H3 H 0.6488 0.3460 0.1022
C6 C 0.5264(6) 0.2447(4) 0.1824(3)
H4 H 0.4789 0.2237 0.1366
C7 C 0.8078(6) 0.4277(3) 0.2081(3)
C8 C 0.9490(6) 0.4247(3) 0.1483(3)
C9 C 1.0607(6) 0.3766(3) 0.0808(3)
C10 C 1.0607(6) 0.2906(4) 0.0396(3)
H5 H 0.9761 0.2505 0.0558
C11 C 1.1855(7) 0.2651(4) -0.0246(4)
H6 H 1.1879 0.2057 -0.0517
C12 C 1.3083(7) 0.3238(4) -0.0511(3)
H7 H 1.3914 0.3049 -0.0967
C13 C 1.3107(6) 0.4085(4) -0.0123(3)
H8 H 1.3945 0.4487 -0.0310
C14 C 1.1886(6) 0.4354(3) 0.0553(3)
C15 C 1.1581(6) 0.5200(4) 0.1069(3)
C16 C 1.2235(7) 0.6025(4) 0.1195(4)
H9 H 1.3218 0.6173 0.0855
C17 C 1.1445(7) 0.6654(4) 0.1830(4)
H10 H 1.1917 0.7220 0.1917
C18 C 1.0000(7) 0.6471(4) 0.2331(4)
H11 H 0.9477 0.6913 0.2748
C19 C 0.9321(6) 0.5624(3) 0.2213(3)
C20 C 0.7964(6) 0.5137(3) 0.2547(3)
C21 C 0.6622(6) 0.5540(3) 0.3194(3)
C22 C 0.4983(6) 0.5443(4) 0.3180(3)
H12 H 0.4676 0.5092 0.2753
C23 C 0.3794(8) 0.5865(4) 0.3795(4)
H13 H 0.2657 0.5805 0.3798
C24 C 0.4267(9) 0.6366(5) 0.4399(4)
H14 H 0.3478 0.6652 0.4835
C25 C 0.5909(9) 0.6445(5) 0.4355(4)
H15 H 0.6225 0.6818 0.4763
C26 C 0.2645(6) 0.1291(3) 0.3877(3)
C27 C 0.2672(6) 0.0386(3) 0.4476(3)
C28 C 0.1764(6) 0.0423(4) 0.5295(3)
H16 H 0.1786 -0.0197 0.5693
C29 C 0.0843(7) 0.1332(4) 0.5538(3)
C30 C 0.0801(6) 0.2229(4) 0.4948(3)
H17 H 0.0138 0.2857 0.5104
C31 C 0.1709(6) 0.2233(4) 0.4132(3)
C32 C 0.1563(7) 0.3254(4) 0.3535(4)
H18 H 0.0480 0.3695 0.3675
H19 H 0.1645 0.3131 0.2923
H20 H 0.2469 0.3598 0.3622
C33 C 0.3711(7) -0.0635(4) 0.4281(3)
H21 H 0.4867 -0.0680 0.4417
H22 H 0.3695 -0.0692 0.3659
H23 H 0.3247 -0.1199 0.4641
C34 C -0.0146(7) 0.1351(5) 0.6426(3)
H24 H -0.0589 0.0713 0.6587
H25 H -0.1077 0.1947 0.6397
H26 H 0.0588 0.1406 0.6867
C35 C 0.3327(6) 0.0597(3) 0.2260(3)
C36 C 0.1725(6) 0.0650(3) 0.2005(3)
C37 C 0.1504(7) 0.0100(4) 0.1355(3)
H27 H 0.0405 0.0159 0.1185
C38 C 0.2810(7) -0.0530(4) 0.0942(3)
C39 C 0.4375(7) -0.0612(4) 0.1214(3)
H28 H 0.5291 -0.1050 0.0946
C40 C 0.4678(6) -0.0089(4) 0.1858(3)
C41 C 0.6435(7) -0.0282(5) 0.2163(4)
H29 H 0.7232 -0.0651 0.1745
H30 H 0.6460 -0.0699 0.2743
H31 H 0.6745 0.0381 0.2198
C42 C 0.0207(6) 0.1319(4) 0.2399(3)
H32 H -0.0789 0.1256 0.2131
H33 H 0.0346 0.2041 0.2291
H34 H 0.0075 0.1098 0.3032
C43 C 0.2544(9) -0.1101(5) 0.0220(4)
H35 H 0.3299 -0.1777 0.0263
H36 H 0.2780 -0.0701 -0.0350
H37 H 0.1381 -0.1198 0.0276
loop_
_geom_bond_atom_site_label_1
_geom_bond_atom_site_label_2
_geom_bond_site_symmetry_1
_geom_bond_site_symmetry_2
B1 C1 1_555 1_555
N1 C8 1_555 1_555
N2 C21 1_555 1_555
C1 C2 1_555 1_555
C2 H1 1_555 1_555
C3 C2 1_555 1_555
H2 C3 1_555 1_555
C4 C3 1_555 1_555
C5 C4 1_555 1_555
H3 C5 1_555 1_555
C6 C1 1_555 1_555
H4 C6 1_555 1_555
C7 C4 1_555 1_555
C8 C7 1_555 1_555
C9 C8 1_555 1_555
C10 C9 1_555 1_555
H5 C10 1_555 1_555
C11 C10 1_555 1_555
H6 C11 1_555 1_555
C12 C11 1_555 1_555
H7 C12 1_555 1_555
C13 C12 1_555 1_555
H8 C13 1_555 1_555
C14 C9 1_555 1_555
C15 N1 1_555 1_555
C16 C15 1_555 1_555
H9 C16 1_555 1_555
C17 C16 1_555 1_555
H10 C17 1_555 1_555
C18 C17 1_555 1_555
H11 C18 1_555 1_555
C19 N1 1_555 1_555
C20 C7 1_555 1_555
C21 C20 1_555 1_555
C22 C21 1_555 1_555
H12 C22 1_555 1_555
C23 C22 1_555 1_555
H13 C23 1_555 1_555
C24 C23 1_555 1_555
H14 C24 1_555 1_555
C25 N2 1_555 1_555
H15 C25 1_555 1_555
C26 B1 1_555 1_555
C27 C26 1_555 1_555
C28 C27 1_555 1_555
H16 C28 1_555 1_555
C29 C28 1_555 1_555
C30 C29 1_555 1_555
H17 C30 1_555 1_555
C31 C26 1_555 1_555
C32 C31 1_555 1_555
H18 C32 1_555 1_555
H19 C32 1_555 1_555
H20 C32 1_555 1_555
C33 C27 1_555 1_555
H21 C33 1_555 1_555
H22 C33 1_555 1_555
H23 C33 1_555 1_555
C34 C29 1_555 1_555
H24 C34 1_555 1_555
H25 C34 1_555 1_555
H26 C34 1_555 1_555
C35 B1 1_555 1_555
C36 C35 1_555 1_555
C37 C36 1_555 1_555
H27 C37 1_555 1_555
C38 C37 1_555 1_555
C39 C38 1_555 1_555
H28 C39 1_555 1_555
C40 C35 1_555 1_555
C41 C40 1_555 1_555
H29 C41 1_555 1_555
H30 C41 1_555 1_555
H31 C41 1_555 1_555
C42 C36 1_555 1_555
H32 C42 1_555 1_555
H33 C42 1_555 1_555
H34 C42 1_555 1_555
C43 C38 1_555 1_555
H35 C43 1_555 1_555
H36 C43 1_555 1_555
H37 C43 1_555 1_555
C5 C6 1_555 1_555
C13 C14 1_555 1_555
C14 C15 1_555 1_555
C18 C19 1_555 1_555
C19 C20 1_555 1_555
C24 C25 1_555 1_555
C30 C31 1_555 1_555
C39 C40 1_555 1_555

#END
