
#######################################################################
#
#                 Cambridge Crystallographic Data Centre
#                                CCDC 
#
#######################################################################
#
# If this CIF has been generated from an entry in the Cambridge 
# Structural Database, then it will include bibliographic, chemical, 
# crystal, experimental, refinement or atomic coordinate data resulting 
# from the CCDC's data processing and validation procedures.
#
#######################################################################

data_BIRJAQ
_chemical_formula_moiety         'C43 H37 B1 N2,C6 H14'
_chemical_name_systematic        
"6,6-bis(2,4,6-trimethylphenyl)-6H-5\l^5^,6\l^5^-isoindolo[1',2',3':3,4,5]indolizino[2,1-d]pyrido[1,2-b][2,1]benzazaborepine n-hexane solvate"
_symmetry_cell_setting           triclinic
_symmetry_space_group_name_H-M   'P -1'
_symmetry_Int_Tables_number      2
_space_group_name_Hall           '-P 1'
loop_
_symmetry_equiv_pos_site_id
_symmetry_equiv_pos_as_xyz
1 x,y,z
2 -x,-y,-z
_cell_length_a                   9.196(3)
_cell_length_b                   14.091(4)
_cell_length_c                   14.197(4)
_cell_angle_alpha                74.441(9)
_cell_angle_beta                 87.034(9)
_cell_angle_gamma                75.138(8)
_cell_volume                     1712.67
_exptl_crystal_colour            orange
_exptl_crystal_description       Block
_cell_formula_units_Z            2
loop_
_atom_site_label
_atom_site_type_symbol
_atom_site_fract_x
_atom_site_fract_y
_atom_site_fract_z
N1 N 0.5180(3) 0.8194(2) 0.6842(2)
C1 C 0.4422(4) 0.9035(3) 0.7115(3)
H1 H 0.4987 0.9429 0.7312
B1 B 0.7114(4) 0.7798(3) 0.6901(3)
N2 N 0.5517(3) 0.5121(2) 0.6215(2)
C2 C 0.2879(4) 0.9348(3) 0.7122(3)
H2 H 0.2399 0.9953 0.7304
C3 C 0.2036(4) 0.8781(3) 0.6864(3)
H3 H 0.0968 0.8984 0.6860
C4 C 0.2779(4) 0.7911(3) 0.6611(3)
H4 H 0.2219 0.7500 0.6438
C5 C 0.4349(4) 0.7622(3) 0.6604(3)
C6 C 0.4637(4) 0.5773(3) 0.6687(3)
C7 C 0.5069(4) 0.6692(3) 0.6335(3)
C8 C 0.3839(4) 0.5151(3) 0.7388(3)
C9 C 0.2856(4) 0.5356(3) 0.8137(3)
H5 H 0.2589 0.6014 0.8248
C10 C 0.2289(5) 0.4588(4) 0.8703(3)
H6 H 0.1611 0.4717 0.9208
C11 C 0.3700(5) 0.3383(3) 0.7845(3)
H7 H 0.3988 0.2713 0.7764
C12 C 0.2690(5) 0.3623(4) 0.8550(3)
H8 H 0.2254 0.3111 0.8944
C13 C 0.4280(5) 0.4153(3) 0.7260(3)
C14 C 0.5403(4) 0.4134(3) 0.6507(3)
C15 C 0.6377(5) 0.3482(3) 0.6061(3)
H9 H 0.6352 0.2789 0.6198
C16 C 0.6514(4) 0.5548(3) 0.5587(3)
C17 C 0.7510(4) 0.4853(3) 0.5156(3)
H10 H 0.8238 0.5067 0.4706
C18 C 0.7417(5) 0.3859(4) 0.5394(3)
H11 H 0.8091 0.3399 0.5092
C19 C 0.6226(4) 0.6555(3) 0.5653(3)
C20 C 0.7111(4) 0.7270(3) 0.5208(3)
C21 C 0.7629(5) 0.7286(3) 0.4262(3)
H12 H 0.7257 0.6924 0.3893
C22 C 0.8671(5) 0.7820(4) 0.3859(3)
H13 H 0.9032 0.7813 0.3221
C23 C 0.9192(4) 0.8367(3) 0.4381(3)
H14 H 0.9915 0.8735 0.4110
C24 C 0.8645(4) 0.8370(3) 0.5305(3)
H15 H 0.9004 0.8756 0.5653
C25 C 0.7587(4) 0.7835(3) 0.5763(3)
C26 C 0.7726(4) 0.8631(3) 0.7302(3)
C27 C 0.8670(4) 0.8353(3) 0.8149(3)
C28 C 0.9333(5) 0.7275(3) 0.8743(3)
H16 H 1.0126 0.7268 0.9182
H17 H 0.9761 0.6849 0.8303
H18 H 0.8543 0.7007 0.9130
C29 C 0.9115(4) 0.9086(3) 0.8480(3)
H19 H 0.9728 0.8866 0.9055
C30 C 0.8715(5) 1.0101(3) 0.8021(3)
C31 C 0.9198(5) 1.0883(4) 0.8395(4)
H20 H 0.8846 1.0847 0.9065
H21 H 0.8764 1.1565 0.7973
H22 H 1.0299 1.0745 0.8391
C32 C 0.7857(5) 1.0386(3) 0.7172(3)
H23 H 0.7580 1.1085 0.6823
C33 C 0.7384(4) 0.9690(3) 0.6808(3)
C34 C 0.6449(5) 1.0154(3) 0.5859(3)
H24 H 0.5574 1.0685 0.5955
H25 H 0.6108 0.9622 0.5677
H26 H 0.7067 1.0452 0.5336
C35 C 0.7410(4) 0.6631(3) 0.7603(3)
C36 C 0.6539(4) 0.6368(3) 0.8440(3)
C37 C 0.5518(4) 0.7159(3) 0.8878(3)
H27 H 0.5522 0.6896 0.9591
H28 H 0.4491 0.7314 0.8620
H29 H 0.5877 0.7780 0.8708
C38 C 0.6616(4) 0.5363(3) 0.8917(3)
H30 H 0.5994 0.5223 0.9466
C39 C 0.7551(4) 0.4550(3) 0.8636(3)
C40 C 0.7538(5) 0.3459(3) 0.9128(3)
H31 H 0.8485 0.3004 0.9003
H32 H 0.6695 0.3295 0.8867
H33 H 0.7425 0.3370 0.9835
C41 C 0.8519(4) 0.4799(3) 0.7892(3)
H34 H 0.9240 0.4265 0.7711
C42 C 0.8485(4) 0.5794(3) 0.7397(3)
C43 C 0.9755(4) 0.5914(3) 0.6669(3)
H35 H 1.0606 0.5313 0.6854
H36 H 1.0079 0.6523 0.6677
H37 H 0.9393 0.5984 0.6011
loop_
_geom_bond_atom_site_label_1
_geom_bond_atom_site_label_2
_geom_bond_site_symmetry_1
_geom_bond_site_symmetry_2
N1 C1 1_555 1_555
C1 H1 1_555 1_555
B1 N1 1_555 1_555
N2 C6 1_555 1_555
C2 C1 1_555 1_555
H2 C2 1_555 1_555
C3 C2 1_555 1_555
H3 C3 1_555 1_555
C4 C3 1_555 1_555
H4 C4 1_555 1_555
C5 N1 1_555 1_555
C6 C7 1_555 1_555
C7 C5 1_555 1_555
C8 C6 1_555 1_555
C9 C8 1_555 1_555
H5 C9 1_555 1_555
C10 C9 1_555 1_555
H6 C10 1_555 1_555
C11 H7 1_555 1_555
C12 C10 1_555 1_555
H8 C12 1_555 1_555
C13 C8 1_555 1_555
C14 N2 1_555 1_555
C15 C14 1_555 1_555
H9 C15 1_555 1_555
C16 N2 1_555 1_555
C17 C16 1_555 1_555
H10 C17 1_555 1_555
C18 C15 1_555 1_555
H11 C18 1_555 1_555
C19 C7 1_555 1_555
C20 C19 1_555 1_555
C21 C20 1_555 1_555
H12 C21 1_555 1_555
C22 C21 1_555 1_555
H13 C22 1_555 1_555
C23 C22 1_555 1_555
H14 C23 1_555 1_555
C24 C23 1_555 1_555
H15 C24 1_555 1_555
C25 B1 1_555 1_555
C26 B1 1_555 1_555
C27 C26 1_555 1_555
C28 C27 1_555 1_555
H16 C28 1_555 1_555
H17 C28 1_555 1_555
H18 C28 1_555 1_555
C29 C27 1_555 1_555
H19 C29 1_555 1_555
C30 C29 1_555 1_555
C31 C30 1_555 1_555
H20 C31 1_555 1_555
H21 C31 1_555 1_555
H22 C31 1_555 1_555
C32 C30 1_555 1_555
H23 C32 1_555 1_555
C33 C26 1_555 1_555
C34 C33 1_555 1_555
H24 C34 1_555 1_555
H25 C34 1_555 1_555
H26 C34 1_555 1_555
C35 B1 1_555 1_555
C36 C35 1_555 1_555
C37 C36 1_555 1_555
H27 C37 1_555 1_555
H28 C37 1_555 1_555
H29 C37 1_555 1_555
C38 C36 1_555 1_555
H30 C38 1_555 1_555
C39 C38 1_555 1_555
C40 C39 1_555 1_555
H31 C40 1_555 1_555
H32 C40 1_555 1_555
H33 C40 1_555 1_555
C41 C39 1_555 1_555
H34 C41 1_555 1_555
C42 C35 1_555 1_555
C43 C42 1_555 1_555
H35 C43 1_555 1_555
H36 C43 1_555 1_555
H37 C43 1_555 1_555
C4 C5 1_555 1_555
C11 C12 1_555 1_555
C11 C13 1_555 1_555
C13 C14 1_555 1_555
C16 C19 1_555 1_555
C17 C18 1_555 1_555
C20 C25 1_555 1_555
C24 C25 1_555 1_555
C32 C33 1_555 1_555
C41 C42 1_555 1_555

#END
