
#######################################################################
#
#                 Cambridge Crystallographic Data Centre
#                                CCDC 
#
#######################################################################
#
# If this CIF has been generated from an entry in the Cambridge 
# Structural Database, then it will include bibliographic, chemical, 
# crystal, experimental, refinement or atomic coordinate data resulting 
# from the CCDC's data processing and validation procedures.
#
#######################################################################

data_BISDIT
_chemical_formula_moiety         'C31 H31 N1 O4 S1'
_chemical_name_systematic        
"t-butyl 2-([1,1'-biphenyl]-4-yl)-3-[3-(methylsulfanyl)propanoyl]-2'-oxospiro[cyclopropane-1,3'-indole]-1'(2'H)-carboxylate"
_symmetry_cell_setting           monoclinic
_symmetry_space_group_name_H-M   'P 21'
_symmetry_Int_Tables_number      4
_space_group_name_Hall           'P 2yb'
loop_
_symmetry_equiv_pos_site_id
_symmetry_equiv_pos_as_xyz
1 x,y,z
2 -x,1/2+y,-z
_cell_length_a                   8.6030(3)
_cell_length_b                   9.4783(2)
_cell_length_c                   16.5290(4)
_cell_angle_alpha                90
_cell_angle_beta                 91.762(2)
_cell_angle_gamma                90
_cell_volume                     1347.17
_exptl_crystal_colour            colorless
_exptl_crystal_description       needle
_cell_formula_units_Z            2
loop_
_atom_site_label
_atom_site_type_symbol
_atom_site_fract_x
_atom_site_fract_y
_atom_site_fract_z
S1 S 0.71949(9) 0.36920(11) 0.42556(5)
O1 O 0.3447(3) 0.0241(3) 0.91072(13)
O2 O 0.5742(3) 0.1291(3) 0.82478(14)
O3 O 0.4428(3) 0.4504(3) 0.57979(14)
O4 O 0.1769(4) 0.1846(3) 0.95865(17)
N1 N 0.3430(3) 0.2421(3) 0.85824(16)
C1 C 0.8634(4) 0.9537(4) 0.6745(2)
C2 C 0.7048(4) 0.7795(4) 0.75180(18)
H1 H 0.6791 0.8512 0.7874
C3 C 0.8855(5) 1.0066(5) 0.5973(3)
H2 H 0.8557 0.9542 0.5518
C4 C 0.6845(4) 0.5350(4) 0.71208(17)
C5 C 0.7748(4) 0.5651(4) 0.64561(18)
H3 H 0.7979 0.4937 0.6093
C6 C 0.2666(4) 0.3688(4) 0.83133(17)
C7 C 0.7979(4) 0.8099(4) 0.68619(19)
C8 C 0.6506(4) 0.6445(4) 0.76436(17)
H4 H 0.5900 0.6265 0.8088
C9 C 0.1350(4) 0.4316(4) 0.8615(2)
H5 H 0.0866 0.3947 0.9064
C10 C 0.4828(4) 0.3370(3) 0.75250(17)
C11 C 0.2900(4) -0.0949(4) 0.96155(19)
C12 C 0.8306(4) 0.7002(4) 0.63299(18)
H6 H 0.8907 0.7180 0.5883
C13 C 0.5009(4) 0.3364(3) 0.59181(18)
C14 C 0.5207(4) 0.2297(4) 0.52479(18)
H7 H 0.4349 0.1633 0.5252
H8 H 0.6160 0.1772 0.5353
C15 C 0.6450(3) 0.3855(4) 0.73122(17)
H9 H 0.7273 0.3375 0.7630
C16 C 0.2787(4) 0.1488(4) 0.91516(18)
C17 C 0.2856(4) 0.5456(4) 0.72794(19)
H10 H 0.3360 0.5845 0.6842
C18 C 0.3432(4) 0.4243(4) 0.76524(18)
C19 C 0.4779(4) 0.2202(4) 0.81446(17)
C20 C 0.9059(4) 1.0366(4) 0.7411(3)
H11 H 0.8891 1.0032 0.7930
C21 C 0.1518(4) 0.6086(4) 0.7564(2)
H12 H 0.1119 0.6890 0.7312
C22 C 0.5585(4) 0.2879(3) 0.67344(17)
H13 H 0.5957 0.1902 0.6748
C23 C 0.6849(4) 0.4445(4) 0.3265(2)
H14 H 0.6478 0.3725 0.2899
H15 H 0.7800 0.4832 0.3072
H16 H 0.6084 0.5179 0.3295
C24 C 0.0777(4) 0.5517(4) 0.8223(2)
H17 H -0.0118 0.5946 0.8407
C25 C 0.9535(5) 1.1407(6) 0.5888(4)
H18 H 0.9693 1.1767 0.5374
C26 C 0.1216(5) -0.1253(5) 0.9400(2)
H19 H 0.0584 -0.0480 0.9571
H20 H 0.0902 -0.2101 0.9668
H21 H 0.1092 -0.1373 0.8825
C27 C 0.3170(6) -0.0580(5) 1.0504(2)
H22 H 0.4243 -0.0335 1.0600
H23 H 0.2914 -0.1378 1.0832
H24 H 0.2525 0.0205 1.0641
C28 C 0.5268(4) 0.2970(4) 0.44083(18)
H25 H 0.4499 0.3716 0.4360
H26 H 0.5028 0.2267 0.3997
C29 C 0.9726(5) 1.1674(5) 0.7310(4)
H27 H 1.0011 1.2207 0.7763
C30 C 0.3955(5) -0.2146(4) 0.9365(2)
H28 H 0.3835 -0.2297 0.8792
H29 H 0.3680 -0.2992 0.9647
H30 H 0.5016 -0.1906 0.9498
C31 C 0.9972(5) 1.2197(5) 0.6561(5)
H31 H 1.0429 1.3078 0.6500
loop_
_geom_bond_atom_site_label_1
_geom_bond_atom_site_label_2
_geom_bond_site_symmetry_1
_geom_bond_site_symmetry_2
S1 C23 1_555 1_555
O1 C11 1_555 1_555
O2 C19 1_555 1_555
O3 C13 1_555 1_555
O4 C16 1_555 1_555
N1 C6 1_555 1_555
C1 C3 1_555 1_555
C2 H1 1_555 1_555
C3 H2 1_555 1_555
C4 C5 1_555 1_555
C5 H3 1_555 1_555
C6 C9 1_555 1_555
C7 C1 1_555 1_555
C8 C2 1_555 1_555
H4 C8 1_555 1_555
C9 H5 1_555 1_555
C10 C15 1_555 1_555
C11 C26 1_555 1_555
C12 C5 1_555 1_555
H6 C12 1_555 1_555
C13 C14 1_555 1_555
C14 H7 1_555 1_555
H8 C14 1_555 1_555
C15 C4 1_555 1_555
H9 C15 1_555 1_555
C16 O1 1_555 1_555
C17 H10 1_555 1_555
C18 C6 1_555 1_555
C19 N1 1_555 1_555
C20 C1 1_555 1_555
H11 C20 1_555 1_555
C21 C17 1_555 1_555
H12 C21 1_555 1_555
C22 C10 1_555 1_555
H13 C22 1_555 1_555
C23 H14 1_555 1_555
H15 C23 1_555 1_555
H16 C23 1_555 1_555
C24 C9 1_555 1_555
H17 C24 1_555 1_555
C25 C3 1_555 1_555
H18 C25 1_555 1_555
C26 H19 1_555 1_555
H20 C26 1_555 1_555
H21 C26 1_555 1_555
C27 C11 1_555 1_555
H22 C27 1_555 1_555
H23 C27 1_555 1_555
H24 C27 1_555 1_555
C28 S1 1_555 1_555
H25 C28 1_555 1_555
H26 C28 1_555 1_555
C29 C20 1_555 1_555
H27 C29 1_555 1_555
C30 C11 1_555 1_555
H28 C30 1_555 1_555
H29 C30 1_555 1_555
H30 C30 1_555 1_555
C31 C25 1_555 1_555
H31 C31 1_555 1_555
N1 C16 1_555 1_555
C2 C7 1_555 1_555
C4 C8 1_555 1_555
C7 C12 1_555 1_555
C10 C18 1_555 1_555
C10 C19 1_555 1_555
C13 C22 1_555 1_555
C14 C28 1_555 1_555
C15 C22 1_555 1_555
C17 C18 1_555 1_555
C21 C24 1_555 1_555
C29 C31 1_555 1_555

#END
