
#######################################################################
#
#                 Cambridge Crystallographic Data Centre
#                                CCDC 
#
#######################################################################
#
# If this CIF has been generated from an entry in the Cambridge 
# Structural Database, then it will include bibliographic, chemical, 
# crystal, experimental, refinement or atomic coordinate data resulting 
# from the CCDC's data processing and validation procedures.
#
#######################################################################

data_BISJEU
_chemical_formula_moiety         'C16 H22 B10 N2 O2,0.5(C4 H10 O1)'
_chemical_name_systematic        
"N,N'-diphenyl-1,2-dicarba-closo-dodecaborane-1,2-dicarboxamide diethyl ether solvate"
_symmetry_cell_setting           monoclinic
_symmetry_space_group_name_H-M   'P 21/n'
_symmetry_Int_Tables_number      14
_space_group_name_Hall           '-P 2yn'
loop_
_symmetry_equiv_pos_site_id
_symmetry_equiv_pos_as_xyz
1 x,y,z
2 1/2-x,1/2+y,1/2-z
3 -x,-y,-z
4 1/2+x,1/2-y,1/2+z
_cell_length_a                   11.83661(15)
_cell_length_b                   16.9357(2)
_cell_length_c                   23.0517(3)
_cell_angle_alpha                90
_cell_angle_beta                 93.6391(12)
_cell_angle_gamma                90
_cell_volume                     4611.66
_cell_formula_units_Z            8
loop_
_atom_site_label
_atom_site_type_symbol
_atom_site_fract_x
_atom_site_fract_y
_atom_site_fract_z
O3 O 0.50228(12) 0.13707(9) 0.22289(6)
O4 O 0.74010(10) 0.14401(7) 0.29214(5)
N3 N 0.37751(12) 0.23522(9) 0.24076(6)
H23 H 0.3441(18) 0.2572(13) 0.2644(9)
N4 N 0.67970(12) 0.01711(9) 0.28637(7)
H24 H 0.6301(18) -0.0139(13) 0.2956(9)
C17 C 0.46393(14) 0.16083(10) 0.32141(7)
C18 C 0.57898(14) 0.11040(10) 0.34434(7)
C19 C 0.45028(14) 0.17704(10) 0.25611(7)
C20 C 0.35117(15) 0.26080(10) 0.18236(7)
C21 C 0.43347(17) 0.26476(16) 0.14254(9)
H25 H 0.5070 0.2485 0.1530
C22 C 0.40608(19) 0.29303(17) 0.08700(9)
H26 H 0.4614 0.2950 0.0601
C23 C 0.29821(18) 0.31816(13) 0.07121(8)
H27 H 0.2803 0.3372 0.0339
C24 C 0.21691(17) 0.31485(13) 0.11114(9)
H28 H 0.1439 0.3323 0.1008
C25 C 0.24251(15) 0.28578(12) 0.16665(8)
H29 H 0.1867 0.2831 0.1932
C26 C 0.67329(14) 0.09261(10) 0.30331(7)
C27 C 0.76817(14) -0.01165(11) 0.25239(8)
C28 C 0.79398(16) 0.02624(12) 0.20169(9)
H30 H 0.7532 0.0706 0.1889
C29 C 0.88117(18) -0.00243(14) 0.17001(11)
H31 H 0.8996 0.0233 0.1363
C30 C 0.94046(17) -0.06890(14) 0.18836(11)
H32 H 0.9986 -0.0880 0.1670
C31 C 0.91327(17) -0.10694(13) 0.23846(11)
H33 H 0.9531 -0.1520 0.2506
C32 C 0.82704(16) -0.07886(11) 0.27114(10)
H34 H 0.8091 -0.1046 0.3050
B11 B 0.45075(16) 0.06144(12) 0.33837(9)
H35 H 0.4292 0.0145 0.3066
B12 B 0.35010(17) 0.13360(12) 0.35863(9)
H36 H 0.2622 0.1330 0.3401
B13 B 0.42395(17) 0.22390(12) 0.37412(8)
H37 H 0.3831 0.2815 0.3656
B14 B 0.56951(16) 0.20977(12) 0.36291(8)
H38 H 0.6230 0.2571 0.3468
B15 B 0.54911(17) 0.04631(12) 0.39876(9)
H39 H 0.5907 -0.0112 0.4066
B16 B 0.40288(18) 0.06136(13) 0.40952(10)
H40 H 0.3488 0.0137 0.4246
B17 B 0.38642(18) 0.16184(13) 0.43201(9)
H41 H 0.3217 0.1790 0.4618
B18 B 0.52255(17) 0.20852(13) 0.43417(8)
H42 H 0.5460 0.2558 0.4653
B19 B 0.62272(17) 0.13692(12) 0.41352(8)
H43 H 0.7116 0.1375 0.4306
B20 B 0.50948(18) 0.10802(13) 0.45655(9)
H44 H 0.5244 0.0904 0.5023
O1 O 0.23171(11) 0.35357(7) 0.29398(6)
O2 O -0.00948(11) 0.38313(8) 0.23592(5)
N1 N 0.18704(13) 0.48291(9) 0.30391(7)
H1 H 0.1421(18) 0.5136(13) 0.3189(9)
N2 N -0.12168(12) 0.27547(9) 0.24606(6)
H2 H -0.1521(17) 0.2469(13) 0.2688(9)
C1 C 0.08391(14) 0.38406(10) 0.35602(7)
C2 C -0.03494(14) 0.33966(10) 0.33201(7)
C3 C 0.17415(14) 0.40523(10) 0.31324(7)
C4 C 0.27494(14) 0.51557(11) 0.27156(8)
C5 C 0.30768(16) 0.48014(11) 0.22109(9)
H3 H 0.2713 0.4348 0.2068
C6 C 0.39548(17) 0.51323(13) 0.19217(10)
H4 H 0.4188 0.4893 0.1586
C7 C 0.44864(16) 0.58132(13) 0.21257(11)
H5 H 0.5078 0.6028 0.1931
C8 C 0.41349(17) 0.61705(13) 0.26189(10)
H6 H 0.4486 0.6633 0.2754
C9 C 0.32610(16) 0.58492(12) 0.29188(9)
H7 H 0.3023 0.6095 0.3251
C10 C -0.05396(14) 0.33416(10) 0.26599(7)
C11 C -0.15141(14) 0.26063(10) 0.18603(7)
C12 C -0.07810(17) 0.27756(14) 0.14328(8)
H8 H -0.0089 0.3017 0.1529
C13 C -0.10874(19) 0.25822(17) 0.08609(9)
H9 H -0.0597 0.2699 0.0573
C14 C -0.21053(17) 0.22205(15) 0.07116(8)
H10 H -0.2298 0.2087 0.0327
C15 C -0.28363(16) 0.20589(12) 0.11381(8)
H11 H -0.3526 0.1815 0.1040
C16 C -0.25501(15) 0.22567(11) 0.17127(8)
H12 H -0.3052 0.2155 0.1998
B1 B -0.04075(16) 0.43650(12) 0.35726(9)
H13 H -0.0620 0.4885 0.3301
B2 B 0.06315(17) 0.43978(12) 0.41638(9)
H14 H 0.1087 0.4947 0.4280
B3 B 0.13218(17) 0.34628(13) 0.42159(8)
H15 H 0.2222 0.3414 0.4362
B4 B 0.07050(16) 0.28245(12) 0.36652(8)
H16 H 0.1194 0.2367 0.3453
B5 B -0.14393(17) 0.36363(12) 0.37402(9)
H17 H -0.2330 0.3689 0.3577
B6 B -0.08216(18) 0.42641(13) 0.42953(9)
H18 H -0.1317 0.4725 0.4499
B7 B 0.02513(18) 0.37053(13) 0.46968(9)
H19 H 0.0452 0.3805 0.5164
B8 B 0.02989(17) 0.27398(13) 0.43874(9)
H20 H 0.0530 0.2217 0.4652
B9 B -0.07458(17) 0.26997(12) 0.38025(8)
H21 H -0.1197 0.2150 0.3681
B10 B -0.10290(17) 0.32384(13) 0.44379(9)
H22 H -0.1660 0.3038 0.4736
O5? O 0.4866(5) 0.5119(3) 0.4893(3)
C33? C 0.5213(5) 0.4336(3) 0.4983(3)
H45? H 0.5254 0.4074 0.4611
H46? H 0.4660 0.4060 0.5201
C34? C 0.6347(6) 0.4301(4) 0.5310(4)
H47? H 0.6568 0.3759 0.5366
H48? H 0.6303 0.4552 0.5681
H49? H 0.6897 0.4568 0.5092
C35? C 0.3754(5) 0.5182(4) 0.4611(3)
H50? H 0.3210 0.4913 0.4839
H51? H 0.3739 0.4936 0.4230
C36? C 0.3452(6) 0.6039(3) 0.4552(4)
H52? H 0.2709 0.6089 0.4363
H53? H 0.3991 0.6301 0.4324
H54? H 0.3463 0.6277 0.4930
O6? O -0.0097(5) 0.0145(4) 0.5069(3)
C37? C 0.1123(6) 0.0306(6) 0.5043(4)
H55? H 0.1252 0.0738 0.4779
H56? H 0.1521 -0.0158 0.4917
C38? C 0.1497(7) 0.0521(6) 0.5658(4)
H57? H 0.2292 0.0637 0.5682
H58? H 0.1352 0.0087 0.5911
H59? H 0.1085 0.0977 0.5774
C39? C -0.0641(6) -0.0088(6) 0.4546(4)
H60? H -0.0136 -0.0415 0.4333
H61? H -0.0838 0.0373 0.4312
C40? C -0.1688(7) -0.0542(6) 0.4653(4)
H62? H -0.2056 -0.0700 0.4288
H63? H -0.2191 -0.0216 0.4860
H64? H -0.1491 -0.1003 0.4881
loop_
_geom_bond_atom_site_label_1
_geom_bond_atom_site_label_2
_geom_bond_site_symmetry_1
_geom_bond_site_symmetry_2
O1 C3 1_555 1_555
O2 C10 1_555 1_555
N1 H1 1_555 1_555
N2 H2 1_555 1_555
C1 C2 1_555 1_555
C2 C10 1_555 1_555
C3 N1 1_555 1_555
C4 N1 1_555 1_555
C5 C4 1_555 1_555
H3 C5 1_555 1_555
C6 C5 1_555 1_555
H4 C6 1_555 1_555
C7 C6 1_555 1_555
H5 C7 1_555 1_555
C8 C7 1_555 1_555
H6 C8 1_555 1_555
C9 C4 1_555 1_555
H7 C9 1_555 1_555
C10 N2 1_555 1_555
C11 N2 1_555 1_555
C12 C11 1_555 1_555
H8 C12 1_555 1_555
C13 C12 1_555 1_555
H9 C13 1_555 1_555
C14 C13 1_555 1_555
H10 C14 1_555 1_555
C15 C14 1_555 1_555
H11 C15 1_555 1_555
C16 C11 1_555 1_555
H12 C16 1_555 1_555
B1 C1 1_555 1_555
H13 B1 1_555 1_555
B2 C1 1_555 1_555
H14 B2 1_555 1_555
B3 C1 1_555 1_555
H15 B3 1_555 1_555
B4 C1 1_555 1_555
H16 B4 1_555 1_555
B5 C2 1_555 1_555
H17 B5 1_555 1_555
B6 B1 1_555 1_555
H18 B6 1_555 1_555
B7 B2 1_555 1_555
H19 B7 1_555 1_555
B8 B3 1_555 1_555
H20 B8 1_555 1_555
B9 C2 1_555 1_555
H21 B9 1_555 1_555
B10 B5 1_555 1_555
H22 B10 1_555 1_555
O3 C19 1_555 1_555
O4 C26 1_555 1_555
N3 H23 1_555 1_555
N4 H24 1_555 1_555
C17 C18 1_555 1_555
C18 C26 1_555 1_555
C19 N3 1_555 1_555
C20 N3 1_555 1_555
C21 C20 1_555 1_555
H25 C21 1_555 1_555
C22 C21 1_555 1_555
H26 C22 1_555 1_555
C23 C22 1_555 1_555
H27 C23 1_555 1_555
C24 C23 1_555 1_555
H28 C24 1_555 1_555
C25 C20 1_555 1_555
H29 C25 1_555 1_555
C26 N4 1_555 1_555
C27 N4 1_555 1_555
C28 C27 1_555 1_555
H30 C28 1_555 1_555
C29 C28 1_555 1_555
H31 C29 1_555 1_555
C30 C29 1_555 1_555
H32 C30 1_555 1_555
C31 C30 1_555 1_555
H33 C31 1_555 1_555
C32 C27 1_555 1_555
H34 C32 1_555 1_555
B11 C17 1_555 1_555
H35 B11 1_555 1_555
B12 C17 1_555 1_555
H36 B12 1_555 1_555
B13 C17 1_555 1_555
H37 B13 1_555 1_555
B14 C17 1_555 1_555
H38 B14 1_555 1_555
B15 C18 1_555 1_555
H39 B15 1_555 1_555
B16 B11 1_555 1_555
H40 B16 1_555 1_555
B17 B12 1_555 1_555
H41 B17 1_555 1_555
B18 B13 1_555 1_555
H42 B18 1_555 1_555
B19 C18 1_555 1_555
H43 B19 1_555 1_555
B20 B15 1_555 1_555
H44 B20 1_555 1_555
C1 C3 1_555 1_555
C2 B1 1_555 1_555
C2 B4 1_555 1_555
C8 C9 1_555 1_555
C15 C16 1_555 1_555
B1 B2 1_555 1_555
B1 B5 1_555 1_555
B2 B3 1_555 1_555
B2 B6 1_555 1_555
B3 B4 1_555 1_555
B3 B7 1_555 1_555
B4 B8 1_555 1_555
B4 B9 1_555 1_555
B5 B6 1_555 1_555
B5 B9 1_555 1_555
B6 B7 1_555 1_555
B6 B10 1_555 1_555
B7 B8 1_555 1_555
B7 B10 1_555 1_555
B8 B9 1_555 1_555
B8 B10 1_555 1_555
B9 B10 1_555 1_555
C17 C19 1_555 1_555
C18 B11 1_555 1_555
C18 B14 1_555 1_555
C24 C25 1_555 1_555
C31 C32 1_555 1_555
B11 B12 1_555 1_555
B11 B15 1_555 1_555
B12 B13 1_555 1_555
B12 B16 1_555 1_555
B13 B14 1_555 1_555
B13 B17 1_555 1_555
B14 B18 1_555 1_555
B14 B19 1_555 1_555
B15 B16 1_555 1_555
B15 B19 1_555 1_555
B16 B17 1_555 1_555
B16 B20 1_555 1_555
B17 B18 1_555 1_555
B17 B20 1_555 1_555
B18 B19 1_555 1_555
B18 B20 1_555 1_555
B19 B20 1_555 1_555

#END
