
#######################################################################
#
#                 Cambridge Crystallographic Data Centre
#                                CCDC 
#
#######################################################################
#
# If this CIF has been generated from an entry in the Cambridge 
# Structural Database, then it will include bibliographic, chemical, 
# crystal, experimental, refinement or atomic coordinate data resulting 
# from the CCDC's data processing and validation procedures.
#
#######################################################################

data_BISVEG
_chemical_formula_moiety         'C41 H35 N3 O3'
_chemical_name_systematic        
3'-Acetyl-1,1''-dibenzyl-5-methyl-5'-phenyldispiro[indole-3,2'-pyrrolidine-4',3''-indole]-2,2''(1H,1''H)-dione
_symmetry_cell_setting           monoclinic
_symmetry_space_group_name_H-M   'P 21/c'
_symmetry_Int_Tables_number      14
_space_group_name_Hall           '-P 2ybc'
loop_
_symmetry_equiv_pos_site_id
_symmetry_equiv_pos_as_xyz
1 x,y,z
2 -x,1/2+y,1/2-z
3 -x,-y,-z
4 x,1/2-y,1/2+z
_cell_length_a                   20.9064(9)
_cell_length_b                   9.3117(4)
_cell_length_c                   17.3450(7)
_cell_angle_alpha                90
_cell_angle_beta                 105.018(2)
_cell_angle_gamma                90
_cell_volume                     3261.29
_exptl_crystal_colour            colorless
_exptl_crystal_description       bar
_cell_formula_units_Z            4
loop_
_atom_site_label
_atom_site_type_symbol
_atom_site_fract_x
_atom_site_fract_y
_atom_site_fract_z
O1 O 0.10955(8) 0.63253(17) 0.10484(9)
O2 O 0.19969(8) 0.20384(18) 0.28795(9)
O3 O 0.33296(7) 0.30024(17) 0.25508(9)
N1 N 0.15603(9) 0.76234(18) 0.21793(10)
N2 N 0.25922(9) 0.55818(17) 0.15062(10)
H1 H 0.2881 0.6247 0.1523
N3 N 0.29279(9) 0.09948(18) 0.18219(11)
C1 C 0.15264(11) 0.6514(2) 0.16639(13)
C2 C 0.21233(10) 0.5512(2) 0.20053(12)
C3 C 0.24309(10) 0.6199(2) 0.28040(12)
C4 C 0.21006(11) 0.7470(2) 0.28550(13)
C5 C 0.23078(13) 0.8397(3) 0.34909(15)
H2 H 0.2088 0.9257 0.3517
C6 C 0.28554(14) 0.7992(3) 0.40867(16)
H3 H 0.3003 0.8600 0.4522
C7 C 0.31946(13) 0.6721(3) 0.40655(15)
C8 C 0.29774(12) 0.5827(3) 0.33982(13)
H4 H 0.3204 0.4982 0.3359
C9 C 0.37735(17) 0.6314(4) 0.47365(18)
H5 H 0.3654 0.6389 0.5233
H6 H 0.4137 0.6949 0.4744
H7 H 0.3902 0.5344 0.4663
C10 C 0.10654(13) 0.8762(3) 0.20873(15)
H8 H 0.0747 0.8667 0.1572
H9 H 0.1281 0.9688 0.2102
C11 C 0.07082(12) 0.8698(3) 0.27388(15)
C12 C 0.07428(15) 0.9790(3) 0.32673(18)
H10 H 0.0969 1.0624 0.3206
C13 C 0.04506(17) 0.9691(5) 0.3893(2)
H11 H 0.0478 1.0456 0.4245
C14 C 0.01259(17) 0.8488(5) 0.3995(2)
H12 H -0.0060 0.8412 0.4426
C15 C 0.00695(15) 0.7382(4) 0.3469(2)
H13 H -0.0167 0.6562 0.3531
C16 C 0.03651(13) 0.7479(3) 0.28409(18)
H14 H 0.0331 0.6716 0.2486
C17 C 0.18690(10) 0.3917(2) 0.19350(11)
H15 H 0.1425 0.3953 0.1568
C18 C 0.17762(11) 0.3219(2) 0.26830(12)
C19 C 0.13617(14) 0.3988(3) 0.31307(15)
H16 H 0.1226 0.3329 0.3484
H17 H 0.0977 0.4377 0.2761
H18 H 0.1614 0.4753 0.3436
C20 C 0.22960(10) 0.3095(2) 0.14828(11)
C21 C 0.24871(10) 0.4341(2) 0.09744(12)
H19 H 0.2098 0.4544 0.0534
C22 C 0.30574(11) 0.4050(2) 0.06151(12)
C23 C 0.36991(12) 0.4470(3) 0.09680(15)
H20 H 0.3795 0.4926 0.1462
C24 C 0.42015(14) 0.4225(3) 0.06021(18)
H21 H 0.4630 0.4529 0.0847
C25 C 0.40732(17) 0.3538(3) -0.01182(19)
H22 H 0.4412 0.3376 -0.0366
C26 C 0.34475(17) 0.3096(3) -0.04682(17)
H23 H 0.3360 0.2613 -0.0954
C27 C 0.29388(13) 0.3350(2) -0.01145(13)
H24 H 0.2512 0.3050 -0.0368
C28 C 0.29103(10) 0.2406(2) 0.20300(12)
C29 C 0.19644(10) 0.1836(2) 0.10005(11)
C30 C 0.13756(12) 0.1722(3) 0.04222(13)
H25 H 0.1102 0.2518 0.0275
C31 C 0.11954(15) 0.0392(3) 0.00597(14)
H26 H 0.0793 0.0296 -0.0323
C32 C 0.16072(16) -0.0778(3) 0.02627(15)
H27 H 0.1482 -0.1650 0.0007
C33 C 0.22009(15) -0.0685(2) 0.08370(15)
H28 H 0.2480 -0.1476 0.0970
C34 C 0.23673(11) 0.0630(2) 0.12093(12)
C35 C 0.33914(13) -0.0029(3) 0.22978(15)
H29 H 0.3159 -0.0925 0.2318
H30 H 0.3538 0.0334 0.2839
C36 C 0.39916(12) -0.0339(3) 0.19983(14)
C37 C 0.43349(16) -0.1594(4) 0.2206(2)
H31 H 0.4181 -0.2276 0.2506
C38 C 0.49123(19) -0.1857(5) 0.1969(2)
H32 H 0.5138 -0.2720 0.2103
C39 C 0.51453(16) -0.0857(5) 0.1545(2)
H33 H 0.5541 -0.1015 0.1408
C40 C 0.48056(16) 0.0366(4) 0.1321(2)
H34 H 0.4959 0.1039 0.1015
C41 C 0.42298(14) 0.0618(3) 0.15450(19)
H35 H 0.3997 0.1464 0.1383
loop_
_geom_bond_atom_site_label_1
_geom_bond_atom_site_label_2
_geom_bond_site_symmetry_1
_geom_bond_site_symmetry_2
O1 C1 1_555 1_555
O2 C18 1_555 1_555
O3 C28 1_555 1_555
N1 C1 1_555 1_555
N2 H1 1_555 1_555
N3 C28 1_555 1_555
C1 C2 1_555 1_555
C2 N2 1_555 1_555
C3 C2 1_555 1_555
C4 N1 1_555 1_555
C5 C4 1_555 1_555
H2 C5 1_555 1_555
C6 C5 1_555 1_555
H3 C6 1_555 1_555
C7 C6 1_555 1_555
C8 C3 1_555 1_555
H4 C8 1_555 1_555
C9 C7 1_555 1_555
H5 C9 1_555 1_555
H6 C9 1_555 1_555
H7 C9 1_555 1_555
C10 N1 1_555 1_555
H8 C10 1_555 1_555
H9 C10 1_555 1_555
C11 C10 1_555 1_555
C12 C11 1_555 1_555
H10 C12 1_555 1_555
C13 C12 1_555 1_555
H11 C13 1_555 1_555
C14 C13 1_555 1_555
H12 C14 1_555 1_555
C15 C14 1_555 1_555
H13 C15 1_555 1_555
C16 C11 1_555 1_555
H14 C16 1_555 1_555
C17 C2 1_555 1_555
H15 C17 1_555 1_555
C18 C17 1_555 1_555
C19 C18 1_555 1_555
H16 C19 1_555 1_555
H17 C19 1_555 1_555
H18 C19 1_555 1_555
C20 C17 1_555 1_555
C21 N2 1_555 1_555
H19 C21 1_555 1_555
C22 C21 1_555 1_555
C23 C22 1_555 1_555
H20 C23 1_555 1_555
C24 C23 1_555 1_555
H21 C24 1_555 1_555
C25 C24 1_555 1_555
H22 C25 1_555 1_555
C26 C25 1_555 1_555
H23 C26 1_555 1_555
C27 C22 1_555 1_555
H24 C27 1_555 1_555
C28 C20 1_555 1_555
C29 C20 1_555 1_555
C30 C29 1_555 1_555
H25 C30 1_555 1_555
C31 C30 1_555 1_555
H26 C31 1_555 1_555
C32 C31 1_555 1_555
H27 C32 1_555 1_555
C33 C32 1_555 1_555
H28 C33 1_555 1_555
C34 N3 1_555 1_555
C35 N3 1_555 1_555
H29 C35 1_555 1_555
H30 C35 1_555 1_555
C36 C35 1_555 1_555
C37 C36 1_555 1_555
H31 C37 1_555 1_555
C38 C37 1_555 1_555
H32 C38 1_555 1_555
C39 C38 1_555 1_555
H33 C39 1_555 1_555
C40 C39 1_555 1_555
H34 C40 1_555 1_555
C41 C36 1_555 1_555
H35 C41 1_555 1_555
C3 C4 1_555 1_555
C7 C8 1_555 1_555
C15 C16 1_555 1_555
C20 C21 1_555 1_555
C26 C27 1_555 1_555
C29 C34 1_555 1_555
C33 C34 1_555 1_555
C40 C41 1_555 1_555

#END
