
#######################################################################
#
#                 Cambridge Crystallographic Data Centre
#                                CCDC 
#
#######################################################################
#
# If this CIF has been generated from an entry in the Cambridge 
# Structural Database, then it will include bibliographic, chemical, 
# crystal, experimental, refinement or atomic coordinate data resulting 
# from the CCDC's data processing and validation procedures.
#
#######################################################################

data_BISWOS
_chemical_formula_moiety         'C16 H22 N2 O6 S1'
_chemical_name_systematic        
3,5,6-trihydroxy-N,N-dimethyl-4-{[(4-methylphenyl)sulfonyl]amino}cyclohex-1-ene-1-carboxamide
_symmetry_cell_setting           triclinic
_symmetry_space_group_name_H-M   'P 1'
_symmetry_Int_Tables_number      1
_space_group_name_Hall           'P 1'
loop_
_symmetry_equiv_pos_site_id
_symmetry_equiv_pos_as_xyz
1 x,y,z
_cell_length_a                   5.7776(2)
_cell_length_b                   6.4485(2)
_cell_length_c                   12.4143(4)
_cell_angle_alpha                96.716(3)
_cell_angle_beta                 91.948(3)
_cell_angle_gamma                112.530(3)
_cell_volume                     422.718
_exptl_crystal_colour            colorless
_exptl_crystal_description       irregular
_cell_formula_units_Z            1
loop_
_atom_site_label
_atom_site_type_symbol
_atom_site_fract_x
_atom_site_fract_y
_atom_site_fract_z
C1 C 0.7058(5) 0.7315(5) 0.7604(3)
C2 C 0.8987(6) 0.9366(6) 0.8296(3)
C3 C 0.8740(5) 0.9185(5) 0.9508(3)
C4 C 0.8609(6) 0.6848(5) 0.9720(3)
C5 C 0.6341(5) 0.4910(5) 0.9089(3)
C6 C 0.5843(5) 0.5324(5) 0.7947(2)
C7 C 0.4234(6) 0.3292(5) 0.7159(3)
C8 C 0.1212(7) 0.1578(7) 0.5605(3)
C9 C 0.1580(7) 0.5262(7) 0.6547(3)
C10 C 0.6742(6) 0.9288(6) 1.2013(2)
C11 C 0.8994(6) 0.9444(6) 1.2535(3)
C12 C 0.8939(6) 0.7866(6) 1.3209(3)
C13 C 0.6700(7) 0.6110(6) 1.3369(3)
C14 C 0.4476(6) 0.5983(6) 1.2844(3)
C15 C 0.4479(6) 0.7539(6) 1.2162(3)
C16 C 0.6655(8) 0.4347(8) 1.4072(3)
H1 H 0.7630 1.1180 0.7893
H2 H 1.1035 0.5704 0.9491
H3 H 0.3970 0.3895 1.0084
H4 H 0.4894 0.8550 0.9720
H5 H 0.6680 0.7448 0.6870
H6 H 1.0591 0.9367 0.8146
H7 H 1.0212 1.0301 0.9902
H8 H 0.8544 0.6754 1.0478
H9 H 0.6661 0.3564 0.9041
H10 H 0.0140 0.1966 0.5144
H11 H 0.2356 0.1174 0.5184
H12 H 0.0228 0.0333 0.5953
H13 H 0.0685 0.5143 0.7180
H14 H 0.0473 0.5072 0.5926
H15 H 0.2917 0.6713 0.6616
H16 H 1.0541 1.0617 1.2428
H17 H 1.0467 0.7980 1.3572
H18 H 0.2931 0.4811 1.2955
H19 H 0.2950 0.7417 1.1798
H20 H 0.4972 0.3297 1.4084
H21 H 0.7317 0.5063 1.4792
H22 H 0.7648 0.3567 1.3784
N1 N 0.6557(5) 0.9669(4) 0.9864(2)
N2 N 0.2602(5) 0.3507(5) 0.6423(2)
O1 O 0.8949(4) 1.1412(4) 0.8020(2)
O2 O 1.0909(4) 0.6748(4) 0.9376(2)
O3 O 0.4105(4) 0.4546(4) 0.96318(19)
O4 O 0.4548(4) 0.1484(4) 0.7153(2)
O5 O 0.4492(4) 1.1484(4) 1.11039(19)
O6 O 0.9137(4) 1.2973(4) 1.1207(2)
S1 S 0.67664(16) 1.10823(17) 1.10502(8)
loop_
_geom_bond_atom_site_label_1
_geom_bond_atom_site_label_2
_geom_bond_site_symmetry_1
_geom_bond_site_symmetry_2
C1 C2 1_555 1_555
C2 C3 1_555 1_555
C3 C4 1_555 1_555
C4 C5 1_555 1_555
C5 C6 1_555 1_555
C6 C1 1_555 1_555
C7 C6 1_555 1_555
C8 H10 1_555 1_555
C9 H13 1_555 1_555
C10 C11 1_555 1_555
C11 C12 1_555 1_555
C12 C13 1_555 1_555
C13 C14 1_555 1_555
C14 C15 1_555 1_555
C15 C10 1_555 1_555
C16 C13 1_555 1_555
H1 O1 1_555 1_555
H2 O2 1_555 1_555
H3 O3 1_555 1_555
H4 N1 1_555 1_555
H5 C1 1_555 1_555
H6 C2 1_555 1_555
H7 C3 1_555 1_555
H8 C4 1_555 1_555
H9 C5 1_555 1_555
H11 C8 1_555 1_555
H12 C8 1_555 1_555
H14 C9 1_555 1_555
H15 C9 1_555 1_555
H16 C11 1_555 1_555
H17 C12 1_555 1_555
H18 C14 1_555 1_555
H19 C15 1_555 1_555
H20 C16 1_555 1_555
H21 C16 1_555 1_555
H22 C16 1_555 1_555
N1 C3 1_555 1_555
N2 C7 1_555 1_555
O1 C2 1_555 1_555
O2 C4 1_555 1_555
O3 C5 1_555 1_555
O4 C7 1_555 1_555
O5 S1 1_555 1_555
O6 S1 1_555 1_555
S1 C10 1_555 1_555
C8 N2 1_555 1_555
C9 N2 1_555 1_555
N1 S1 1_555 1_555

#END
