
#######################################################################
#
#                 Cambridge Crystallographic Data Centre
#                                CCDC 
#
#######################################################################
#
# If this CIF has been generated from an entry in the Cambridge 
# Structural Database, then it will include bibliographic, chemical, 
# crystal, experimental, refinement or atomic coordinate data resulting 
# from the CCDC's data processing and validation procedures.
#
#######################################################################

data_BISZOV
_chemical_formula_moiety         'C16 H11 N1 O3'
_chemical_name_systematic        
2-(2-hydroxyphenyl)-4-phenyl-6H-1,3-oxazin-6-one
_symmetry_cell_setting           monoclinic
_symmetry_space_group_name_H-M   'P 21/n'
_symmetry_Int_Tables_number      14
_space_group_name_Hall           '-P 2yn'
loop_
_symmetry_equiv_pos_site_id
_symmetry_equiv_pos_as_xyz
1 x,y,z
2 1/2-x,1/2+y,1/2-z
3 -x,-y,-z
4 1/2+x,1/2-y,1/2+z
_cell_length_a                   6.4546(2)
_cell_length_b                   7.8422(3)
_cell_length_c                   24.1745(9)
_cell_angle_alpha                90
_cell_angle_beta                 94.6870(10)
_cell_angle_gamma                90
_cell_volume                     1219.58
_exptl_crystal_colour            yellow
_exptl_crystal_description       prism
_cell_formula_units_Z            4
loop_
_atom_site_label
_atom_site_type_symbol
_atom_site_fract_x
_atom_site_fract_y
_atom_site_fract_z
C1 C 0.1294(3) 0.1318(2) 0.57849(8)
C2 C 0.2369(3) 0.1500(2) 0.52978(8)
H1 H 0.1777 0.1040 0.4957
C3 C 0.4213(3) 0.2316(2) 0.53102(7)
C4 C 0.5372(3) 0.2582(2) 0.48133(7)
C5 C 0.4521(3) 0.2119(3) 0.42853(8)
H2 H 0.3177 0.1618 0.4242
C6 C 0.5621(3) 0.2384(3) 0.38235(8)
H3 H 0.5024 0.2069 0.3466
C7 C 0.7579(3) 0.3103(3) 0.38801(8)
H4 H 0.8329 0.3281 0.3563
C8 C 0.8439(3) 0.3560(3) 0.43982(8)
H5 H 0.9789 0.4051 0.4438
C9 C 0.7344(3) 0.3309(3) 0.48627(8)
H6 H 0.7950 0.3636 0.5218
C10 C 0.4140(3) 0.2850(2) 0.62468(8)
C11 C 0.4927(3) 0.3578(2) 0.67789(7)
C12 C 0.3664(3) 0.3630(3) 0.72248(8)
H7 H 0.2313 0.3142 0.7184
C13 C 0.4357(3) 0.4376(3) 0.77174(8)
H8 H 0.3483 0.4417 0.8015
C14 C 0.6343(3) 0.5074(3) 0.77816(8)
H9 H 0.6831 0.5575 0.8126
C15 C 0.7604(3) 0.5044(3) 0.73510(8)
H10 H 0.8957 0.5527 0.7398
C16 C 0.6913(3) 0.4312(3) 0.68468(8)
N1 N 0.5130(2) 0.29801(19) 0.58057(6)
O1 O 0.22840(18) 0.20552(17) 0.62630(5)
H11 H 0.7559 0.3926 0.6115
O2 O -0.0352(2) 0.06336(18) 0.58408(6)
O3 O 0.8202(2) 0.43573(19) 0.64346(6)
loop_
_geom_bond_atom_site_label_1
_geom_bond_atom_site_label_2
_geom_bond_site_symmetry_1
_geom_bond_site_symmetry_2
C1 C2 1_555 1_555
C2 H1 1_555 1_555
C3 C2 1_555 1_555
C4 C3 1_555 1_555
C5 C4 1_555 1_555
H2 C5 1_555 1_555
C6 C5 1_555 1_555
H3 C6 1_555 1_555
C7 C6 1_555 1_555
H4 C7 1_555 1_555
C8 C7 1_555 1_555
H5 C8 1_555 1_555
C9 C4 1_555 1_555
H6 C9 1_555 1_555
C10 C11 1_555 1_555
C11 C12 1_555 1_555
C12 H7 1_555 1_555
C13 C12 1_555 1_555
H8 C13 1_555 1_555
C14 C13 1_555 1_555
H9 C14 1_555 1_555
C15 C14 1_555 1_555
H10 C15 1_555 1_555
C16 C11 1_555 1_555
N1 C3 1_555 1_555
O1 C1 1_555 1_555
H11 O3 1_555 1_555
O2 C1 1_555 1_555
O3 C16 1_555 1_555
C8 C9 1_555 1_555
C10 N1 1_555 1_555
C10 O1 1_555 1_555
C15 C16 1_555 1_555

#END
