
#######################################################################
#
#                 Cambridge Crystallographic Data Centre
#                                CCDC 
#
#######################################################################
#
# If this CIF has been generated from an entry in the Cambridge 
# Structural Database, then it will include bibliographic, chemical, 
# crystal, experimental, refinement or atomic coordinate data resulting 
# from the CCDC's data processing and validation procedures.
#
#######################################################################

data_BITJOG
_chemical_formula_moiety         'C23 H25 N3 O2'
_chemical_name_systematic        
7-benzyl-1-[(benzylimino)methyl]-4-methyl-1,7-diazaspiro[4.4]nonane-2,6-dione
_symmetry_cell_setting           monoclinic
_symmetry_space_group_name_H-M   'P 21'
_symmetry_Int_Tables_number      4
_space_group_name_Hall           'P 2yb'
loop_
_symmetry_equiv_pos_site_id
_symmetry_equiv_pos_as_xyz
1 x,y,z
2 -x,1/2+y,-z
_cell_length_a                   5.9763(5)
_cell_length_b                   8.3261(6)
_cell_length_c                   20.0693(11)
_cell_angle_alpha                90
_cell_angle_beta                 90.664(6)
_cell_angle_gamma                90
_cell_volume                     998.567
_exptl_crystal_colour            'metallic light white'
_exptl_crystal_description       irregular
_chemical_melting_point          '405.1 K'
_cell_formula_units_Z            2
_exptl_crystal_recrystallization_method 'Ethyl acetate/hexanes'
loop_
_atom_site_label
_atom_site_type_symbol
_atom_site_fract_x
_atom_site_fract_y
_atom_site_fract_z
O1 O 0.5159(5) 0.4818(4) 0.10066(14)
N1 N 0.4261(5) 0.7861(4) 0.16605(14)
O2 O 0.6859(5) 0.9669(4) 0.12934(16)
N2 N 0.1906(6) 0.4075(4) 0.15190(15)
N3 N 0.4762(6) 0.6449(5) 0.26445(14)
C1 C 0.3389(7) 0.5127(5) 0.12791(17)
C2 C 0.5254(7) 0.7635(5) 0.22789(16)
H1 H 0.631066 0.837328 0.243070
C3 C 0.0440(6) 0.6578(5) 0.18307(19)
H2 H 0.071630 0.702886 0.226968
H3 H -0.086262 0.710179 0.163654
C4 C 0.5269(7) 0.8814(5) 0.11813(18)
C5 C 0.4480(8) 0.6352(6) 0.38675(18)
C6 C 0.2666(7) 0.1722(5) 0.22203(19)
C7 C 0.2483(6) 0.6825(5) 0.13871(16)
C8 C 0.4094(8) 0.8510(6) 0.05303(19)
H4 H 0.497348 0.780759 0.025004
H5 H 0.381651 0.950800 0.029441
C9 C 0.1902(7) 0.7708(6) 0.07231(18)
H6 H 0.084277 0.856639 0.082968
C10 C 0.0056(7) 0.4791(6) 0.1879(2)
H7 H 0.006853 0.444472 0.234083
H8 H -0.136674 0.449657 0.167621
C11 C 0.4610(8) 0.2083(6) 0.2557(2)
H9 H 0.571207 0.268027 0.234768
C12 C 0.6005(8) 0.6327(7) 0.32777(18)
H10 H 0.705158 0.721428 0.331253
H11 H 0.686124 0.533675 0.328247
C13 C 0.2550(10) 0.5486(8) 0.3869(2)
H12 H 0.215521 0.486364 0.350084
C14 C 0.1073(9) 0.0833(7) 0.2538(3)
H13 H -0.025117 0.057059 0.231548
C15 C 0.2266(9) 0.2337(5) 0.1523(2)
H14 H 0.354733 0.208014 0.124998
H15 H 0.096637 0.180535 0.133060
C16 C 0.4949(10) 0.1570(8) 0.3202(2)
H16 H 0.628230 0.181142 0.342392
C17 C 0.0799(9) 0.6659(8) 0.0189(2)
H17 H 0.180765 0.581600 0.006428
H18 H 0.044315 0.730251 -0.019491
H19 H -0.054868 0.619731 0.036087
C18 C 0.5056(10) 0.7256(7) 0.4425(2)
H20 H 0.638380 0.783871 0.442980
C19 C 0.3315(12) 0.0699(7) 0.3521(2)
H21 H 0.352379 0.037735 0.396119
C20 C 0.1423(12) 0.0318(7) 0.3191(3)
H22 H 0.033623 -0.029452 0.340068
C21 C 0.3678(14) 0.7301(10) 0.4972(2)
H23 H 0.406212 0.792570 0.534040
C22 C 0.1758(14) 0.6425(11) 0.4970(3)
H24 H 0.084805 0.643418 0.534310
C23 C 0.1152(11) 0.5533(10) 0.4428(3)
H25 H -0.018182 0.495699 0.442721
loop_
_geom_bond_atom_site_label_1
_geom_bond_atom_site_label_2
_geom_bond_site_symmetry_1
_geom_bond_site_symmetry_2
O1 C1 1_555 1_555
N1 C2 1_555 1_555
O2 C4 1_555 1_555
N2 C1 1_555 1_555
N3 C2 1_555 1_555
C1 C7 1_555 1_555
C2 H1 1_555 1_555
C3 H2 1_555 1_555
H3 C3 1_555 1_555
C4 N1 1_555 1_555
C5 C12 1_555 1_555
C6 C11 1_555 1_555
C7 N1 1_555 1_555
C8 C4 1_555 1_555
H4 C8 1_555 1_555
H5 C8 1_555 1_555
C9 C7 1_555 1_555
H6 C9 1_555 1_555
C10 N2 1_555 1_555
H7 C10 1_555 1_555
H8 C10 1_555 1_555
C11 H9 1_555 1_555
C12 N3 1_555 1_555
H10 C12 1_555 1_555
H11 C12 1_555 1_555
C13 C5 1_555 1_555
H12 C13 1_555 1_555
C14 C6 1_555 1_555
H13 C14 1_555 1_555
C15 N2 1_555 1_555
H14 C15 1_555 1_555
H15 C15 1_555 1_555
C16 C11 1_555 1_555
H16 C16 1_555 1_555
C17 C9 1_555 1_555
H17 C17 1_555 1_555
H18 C17 1_555 1_555
H19 C17 1_555 1_555
C18 C5 1_555 1_555
H20 C18 1_555 1_555
C19 C16 1_555 1_555
H21 C19 1_555 1_555
C20 C14 1_555 1_555
H22 C20 1_555 1_555
C21 C18 1_555 1_555
H23 C21 1_555 1_555
C22 C21 1_555 1_555
H24 C22 1_555 1_555
C23 C13 1_555 1_555
H25 C23 1_555 1_555
C3 C7 1_555 1_555
C3 C10 1_555 1_555
C6 C15 1_555 1_555
C8 C9 1_555 1_555
C19 C20 1_555 1_555
C22 C23 1_555 1_555

#END
