
#######################################################################
#
#                 Cambridge Crystallographic Data Centre
#                                CCDC 
#
#######################################################################
#
# If this CIF has been generated from an entry in the Cambridge 
# Structural Database, then it will include bibliographic, chemical, 
# crystal, experimental, refinement or atomic coordinate data resulting 
# from the CCDC's data processing and validation procedures.
#
#######################################################################

data_BITKAQ
_chemical_formula_moiety         'C15 H15 N1 S1'
_chemical_name_systematic        1-Isopropylphenothiazine
_symmetry_cell_setting           orthorhombic
_symmetry_space_group_name_H-M   'P 21 21 21'
_symmetry_Int_Tables_number      19
_space_group_name_Hall           'P 2ac 2ab'
loop_
_symmetry_equiv_pos_site_id
_symmetry_equiv_pos_as_xyz
1 x,y,z
2 1/2+x,1/2-y,-z
3 -x,1/2+y,1/2-z
4 1/2-x,-y,1/2+z
_cell_length_a                   7.716(1)
_cell_length_b                   8.366(2)
_cell_length_c                   19.963(4)
_cell_angle_alpha                90
_cell_angle_beta                 90
_cell_angle_gamma                90
_cell_volume                     1288.65
_chemical_melting_point          390-2K
_cell_formula_units_Z            4
loop_
_atom_site_label
_atom_site_type_symbol
_atom_site_fract_x
_atom_site_fract_y
_atom_site_fract_z
S1 S 0.87380 0.51300 0.56800
N1 N 0.56800 0.36290 0.50530
C1 C 0.57280 0.52130 0.40190
C2 C 0.65620 0.64160 0.36540
C3 C 0.79390 0.72590 0.39100
C4 C 0.85660 0.68880 0.45340
C5 C 0.66860 0.47390 0.67950
C6 C 0.52750 0.41520 0.71330
C7 C 0.39740 0.33740 0.67800
C8 C 0.40730 0.32150 0.60860
C9 C 0.63970 0.48500 0.46550
C10 C 0.78010 0.57010 0.49020
C11 C 0.68220 0.45610 0.61070
C12 C 0.55210 0.38150 0.57500
C13 C 0.41270 0.43810 0.37520
C14 C 0.25030 0.51810 0.40130
C15 C 0.40680 0.42310 0.29900
H1 H 0.48300 0.31600 0.48900
H2 H 0.60700 0.66300 0.31900
H3 H 0.85000 0.79900 0.36500
H4 H 0.94300 0.74300 0.47100
H5 H 0.75300 0.53000 0.70600
H6 H 0.50600 0.42500 0.76200
H7 H 0.29200 0.30200 0.70100
H8 H 0.29800 0.29800 0.57800
H9 H 0.41300 0.33000 0.39000
H10 H 0.24900 0.52200 0.46000
H11 H 0.14400 0.46700 0.38400
H12 H 0.24900 0.61900 0.38700
H13 H 0.30000 0.35900 0.28900
H14 H 0.52600 0.36400 0.28100
H15 H 0.40900 0.52500 0.27800
loop_
_geom_bond_atom_site_label_1
_geom_bond_atom_site_label_2
_geom_bond_site_symmetry_1
_geom_bond_site_symmetry_2
S1 C10 1_555 1_555
N1 C9 1_555 1_555
C1 C2 1_555 1_555
C2 C3 1_555 1_555
C3 C4 1_555 1_555
C4 C10 1_555 1_555
C5 C6 1_555 1_555
C6 C7 1_555 1_555
C7 C8 1_555 1_555
C8 C12 1_555 1_555
C9 C1 1_555 1_555
C10 C9 1_555 1_555
C11 S1 1_555 1_555
C12 N1 1_555 1_555
C13 C1 1_555 1_555
C14 C13 1_555 1_555
C15 C13 1_555 1_555
H1 N1 1_555 1_555
H2 C2 1_555 1_555
H3 C3 1_555 1_555
H4 C4 1_555 1_555
H5 C5 1_555 1_555
H6 C6 1_555 1_555
H7 C7 1_555 1_555
H8 C8 1_555 1_555
H9 C13 1_555 1_555
H10 C14 1_555 1_555
H11 C14 1_555 1_555
H12 C14 1_555 1_555
H13 C15 1_555 1_555
H14 C15 1_555 1_555
H15 C15 1_555 1_555
C5 C11 1_555 1_555
C11 C12 1_555 1_555

#END
