
#######################################################################
#
#                 Cambridge Crystallographic Data Centre
#                                CCDC 
#
#######################################################################
#
# If this CIF has been generated from an entry in the Cambridge 
# Structural Database, then it will include bibliographic, chemical, 
# crystal, experimental, refinement or atomic coordinate data resulting 
# from the CCDC's data processing and validation procedures.
#
#######################################################################

data_BITSOO
_chemical_formula_moiety         'C34 H23 N1'
_chemical_name_systematic        4-(7,10-Diphenylfluoranthen-8-yl)aniline
_symmetry_cell_setting           monoclinic
_symmetry_space_group_name_H-M   'P 21/c'
_symmetry_Int_Tables_number      14
_space_group_name_Hall           '-P 2ybc'
loop_
_symmetry_equiv_pos_site_id
_symmetry_equiv_pos_as_xyz
1 x,y,z
2 -x,1/2+y,1/2-z
3 -x,-y,-z
4 x,1/2-y,1/2+z
_cell_length_a                   10.475(2)
_cell_length_b                   19.232(4)
_cell_length_c                   11.241(2)
_cell_angle_alpha                90
_cell_angle_beta                 101.93(3)
_cell_angle_gamma                90
_cell_volume                     2215.65
_exptl_crystal_colour            colorless
_exptl_crystal_description       block
_cell_formula_units_Z            4
loop_
_atom_site_label
_atom_site_type_symbol
_atom_site_fract_x
_atom_site_fract_y
_atom_site_fract_z
C1 C 0.0725(4) 0.1565(2) 0.8637(4)
C2 C -0.1564(4) 0.1888(2) 0.7670(4)
C3 C 0.1634(4) 0.1328(2) 0.9643(4)
C4 C 0.1281(4) 0.1137(2) 1.0707(4)
C5 C 0.2306(4) 0.0934(2) 1.1766(4)
C6 C 0.2913(4) 0.1302(2) 0.9311(4)
C7 C -0.0035(4) 0.1158(2) 1.0746(4)
C8 C 0.2709(4) 0.1539(2) 0.8125(4)
C9 C -0.0034(5) 0.1037(3) 1.2970(4)
H1 H 0.0696 0.1323 1.3169
C10 C 0.1414(4) 0.1713(2) 0.7655(4)
C11 C -0.0563(4) 0.1633(2) 0.8698(4)
C12 C -0.0904(4) 0.1419(2) 0.9750(4)
H2 H -0.1778 0.1452 0.9799
C13 C 0.2020(5) 0.1969(3) 0.5790(4)
H3 H 0.1781 0.2111 0.4983
C14 C -0.1630(5) 0.0337(2) 1.3620(4)
C15 C -0.0552(4) 0.0889(2) 1.1769(4)
C16 C -0.2167(5) 0.0193(3) 1.2431(4)
H4 H -0.2906 -0.0086 1.2235
C17 C 0.2522(5) 0.0260(3) 1.2128(4)
H5 H 0.1979 -0.0090 1.1742
C18 C 0.3276(5) 0.1797(3) 0.6247(5)
H6 H 0.3886 0.1828 0.5754
C19 C -0.0584(5) 0.0769(3) 1.3870(4)
H7 H -0.0234 0.0886 1.4675
N1 N -0.2187(4) 0.0067(2) 1.4523(4)
H8 H -0.1874 0.0172 1.5271
H9 H -0.2849 -0.0206 1.4342
C20 C 0.3674(5) 0.1574(2) 0.7453(5)
C21 C 0.3546(5) 0.0102(3) 1.3064(5)
H10 H 0.3685 -0.0357 1.3319
C22 C 0.3118(5) 0.1438(3) 1.2350(4)
H11 H 0.2977 0.1899 1.2109
C23 C -0.1911(4) 0.1510(3) 0.6622(4)
H12 H -0.1511 0.1084 0.6555
C24 C 0.1079(5) 0.1941(2) 0.6490(4)
H13 H 0.0227 0.2078 0.6166
C25 C -0.3102(5) 0.2742(3) 0.6803(5)
H14 H -0.3513 0.3165 0.6866
C26 C -0.2834(5) 0.1751(3) 0.5675(4)
H15 H -0.3054 0.1491 0.4965
C27 C 0.5107(5) 0.1109(3) 0.9184(5)
H16 H 0.5941 0.0959 0.9547
C28 C -0.1614(5) 0.0460(2) 1.1531(4)
H17 H -0.1974 0.0345 1.0728
C29 C -0.2177(5) 0.2508(3) 0.7753(4)
H18 H -0.1962 0.2770 0.8461
C30 C 0.4132(5) 0.1278(3) 1.3280(5)
H19 H 0.4667 0.1628 1.3680
C31 C 0.4113(5) 0.1070(3) 0.9848(5)
H20 H 0.4275 0.0891 1.0633
C32 C 0.4896(5) 0.1353(3) 0.8044(5)
H21 H 0.5587 0.1376 0.7642
C33 C -0.3429(5) 0.2364(3) 0.5762(5)
H22 H -0.4059 0.2527 0.5115
C34 C 0.4357(5) 0.0607(3) 1.3620(5)
H23 H 0.5066 0.0492 1.4234
loop_
_geom_bond_atom_site_label_1
_geom_bond_atom_site_label_2
_geom_bond_site_symmetry_1
_geom_bond_site_symmetry_2
C1 C3 1_555 1_555
C2 C11 1_555 1_555
C3 C4 1_555 1_555
C4 C5 1_555 1_555
C5 C17 1_555 1_555
C6 C3 1_555 1_555
C7 C4 1_555 1_555
C8 C6 1_555 1_555
C9 H1 1_555 1_555
C10 C1 1_555 1_555
C11 C1 1_555 1_555
C12 C7 1_555 1_555
H2 C12 1_555 1_555
C13 H3 1_555 1_555
C14 C16 1_555 1_555
C15 C7 1_555 1_555
C16 H4 1_555 1_555
C17 H5 1_555 1_555
C18 C13 1_555 1_555
H6 C18 1_555 1_555
C19 C9 1_555 1_555
H7 C19 1_555 1_555
N1 C14 1_555 1_555
H8 N1 1_555 1_555
H9 N1 1_555 1_555
C20 C8 1_555 1_555
C21 C17 1_555 1_555
H10 C21 1_555 1_555
C22 C5 1_555 1_555
H11 C22 1_555 1_555
C23 C2 1_555 1_555
H12 C23 1_555 1_555
C24 C10 1_555 1_555
H13 C24 1_555 1_555
C25 H14 1_555 1_555
C26 C23 1_555 1_555
H15 C26 1_555 1_555
C27 H16 1_555 1_555
C28 C15 1_555 1_555
H17 C28 1_555 1_555
C29 C2 1_555 1_555
H18 C29 1_555 1_555
C30 C22 1_555 1_555
H19 C30 1_555 1_555
C31 C6 1_555 1_555
H20 C31 1_555 1_555
C32 C20 1_555 1_555
H21 C32 1_555 1_555
C33 C25 1_555 1_555
H22 C33 1_555 1_555
C34 C21 1_555 1_555
H23 C34 1_555 1_555
C8 C10 1_555 1_555
C9 C15 1_555 1_555
C11 C12 1_555 1_555
C13 C24 1_555 1_555
C14 C19 1_555 1_555
C16 C28 1_555 1_555
C18 C20 1_555 1_555
C25 C29 1_555 1_555
C26 C33 1_555 1_555
C27 C31 1_555 1_555
C27 C32 1_555 1_555
C30 C34 1_555 1_555

#END
