
#######################################################################
#
#                 Cambridge Crystallographic Data Centre
#                                CCDC 
#
#######################################################################
#
# If this CIF has been generated from an entry in the Cambridge 
# Structural Database, then it will include bibliographic, chemical, 
# crystal, experimental, refinement or atomic coordinate data resulting 
# from the CCDC's data processing and validation procedures.
#
#######################################################################

data_BIVGIZ
_chemical_formula_moiety         'C29 H30 N4 O2'
_chemical_name_systematic        
2^4^-{4-[4-(morpholin-4-yl)butoxy]phenyl}-1^2^,2^2^:2^6^,3^2^-terpyridine
_symmetry_cell_setting           monoclinic
_symmetry_space_group_name_H-M   'P 21/c'
_symmetry_Int_Tables_number      14
_space_group_name_Hall           '-P 2ybc'
loop_
_symmetry_equiv_pos_site_id
_symmetry_equiv_pos_as_xyz
1 x,y,z
2 -x,1/2+y,1/2-z
3 -x,-y,-z
4 x,1/2-y,1/2+z
_cell_length_a                   19.8548(19)
_cell_length_b                   11.6986(11)
_cell_length_c                   10.8633(10)
_cell_angle_alpha                90
_cell_angle_beta                 93.535(7)
_cell_angle_gamma                90
_cell_volume                     2518.45
_exptl_crystal_colour            colorless
_exptl_crystal_description       block
_cell_formula_units_Z            4
loop_
_atom_site_label
_atom_site_type_symbol
_atom_site_fract_x
_atom_site_fract_y
_atom_site_fract_z
O1 O 0.84037(15) 0.4136(3) 0.7548(2)
N1 N 0.61070(16) 0.4116(3) 0.0741(3)
N2 N 0.7177(2) 0.6478(3) 0.0185(3)
C1 C 0.68476(19) 0.4134(3) 0.3021(3)
C2 C 0.7253(2) 0.4148(3) 0.4220(3)
C3 C 0.6619(2) 0.4838(3) 0.0953(3)
C4 C 0.5958(2) 0.3398(3) 0.1648(3)
C5 C 0.6317(2) 0.3393(3) 0.2784(3)
H1 H 0.619803 0.288362 0.339081
C6 C 0.6996(2) 0.4868(3) 0.2071(3)
H2 H 0.735032 0.538444 0.218418
C7 C 0.6774(2) 0.5589(3) -0.0079(3)
N3 N 0.5317(2) 0.1739(4) 0.2122(3)
C8 C 0.5400(2) 0.2602(4) 0.1349(3)
C9 C 0.8008(2) 0.4105(3) 0.6484(3)
C10 C 0.7874(2) 0.4651(4) 0.4367(3)
H3 H 0.804858 0.501773 0.369738
C11 C 0.8246(2) 0.4631(4) 0.5471(4)
H4 H 0.866672 0.498162 0.553388
C12 C 0.7015(2) 0.3620(4) 0.5240(3)
H5 H 0.659734 0.325967 0.517405
O2 O 0.9582(3) 0.7630(4) 1.3458(5)
C13 C 0.6522(3) 0.5345(4) -0.1269(4)
H6 H 0.623807 0.472351 -0.142738
C14 C 0.7388(3) 0.3616(4) 0.6366(4)
H7 H 0.720949 0.327384 0.704650
C15 C 0.8221(3) 0.3451(4) 0.8546(4)
H8 H 0.817400 0.266118 0.828176
H9 H 0.778965 0.370379 0.882170
C16 C 0.4977(2) 0.2741(4) 0.0316(4)
H10 H 0.504328 0.335323 -0.020963
C17 C 0.6704(3) 0.6047(5) -0.2213(4)
H11 H 0.655253 0.589205 -0.302297
N4 N 0.9188(3) 0.5720(5) 1.2074(4)
C18 C 0.7330(3) 0.7131(4) -0.0751(5)
H12 H 0.761406 0.775008 -0.057773
C19 C 0.7106(3) 0.6969(5) -0.1951(5)
H13 H 0.722356 0.746917 -0.256741
C20 C 0.8744(3) 0.3536(4) 0.9576(4)
H14 H 0.918226 0.339629 0.925623
H15 H 0.866571 0.294046 1.017166
C21 C 0.4465(3) 0.2001(6) 0.0049(5)
H16 H 0.417522 0.210232 -0.064750
C22 C 0.9193(3) 0.4727(5) 1.1337(5)
H17 H 0.908123 0.408671 1.185318
H18 H 0.965330 0.461175 1.111183
C23 C 0.4827(3) 0.1018(6) 0.1838(5)
H19 H 0.477722 0.040160 0.236621
C24 C 0.8764(4) 0.4656(5) 1.0221(5)
H20 H 0.890949 0.523169 0.965224
H21 H 0.830794 0.484910 1.041868
C25 C 0.4384(3) 0.1097(7) 0.0831(5)
H22 H 0.404240 0.056243 0.068132
C26 C 0.9704(4) 0.5658(6) 1.3064(6)
H23 H 1.014377 0.564537 1.272165
H24 H 0.965231 0.495282 1.351865
C27 C 0.9110(4) 0.7709(5) 1.2507(6)
H25 H 0.922098 0.836632 1.201523
H26 H 0.868027 0.786874 1.285033
C28 C 0.9013(4) 0.6728(6) 1.1669(6)
H27 H 0.853797 0.669792 1.139984
H28 H 0.926041 0.688178 1.094539
C29 C 0.9668(5) 0.6634(8) 1.3910(8)
H29 H 0.930162 0.648893 1.444067
H30 H 1.008171 0.664425 1.443263
loop_
_geom_bond_atom_site_label_1
_geom_bond_atom_site_label_2
_geom_bond_site_symmetry_1
_geom_bond_site_symmetry_2
O1 C9 1_555 1_555
N1 C3 1_555 1_555
N2 C7 1_555 1_555
C1 C2 1_555 1_555
C2 C10 1_555 1_555
C3 C6 1_555 1_555
C4 N1 1_555 1_555
C5 C1 1_555 1_555
H1 C5 1_555 1_555
C6 C1 1_555 1_555
H2 C6 1_555 1_555
C7 C3 1_555 1_555
N3 C8 1_555 1_555
C8 C4 1_555 1_555
C9 C11 1_555 1_555
C10 H3 1_555 1_555
C11 C10 1_555 1_555
H4 C11 1_555 1_555
C12 C2 1_555 1_555
H5 C12 1_555 1_555
O2 C27 1_555 1_555
C13 C7 1_555 1_555
H6 C13 1_555 1_555
C14 C9 1_555 1_555
H7 C14 1_555 1_555
C15 O1 1_555 1_555
H8 C15 1_555 1_555
H9 C15 1_555 1_555
C16 C8 1_555 1_555
H10 C16 1_555 1_555
C17 C13 1_555 1_555
H11 C17 1_555 1_555
N4 C22 1_555 1_555
C18 N2 1_555 1_555
H12 C18 1_555 1_555
C19 C17 1_555 1_555
H13 C19 1_555 1_555
C20 C15 1_555 1_555
H14 C20 1_555 1_555
H15 C20 1_555 1_555
C21 C16 1_555 1_555
H16 C21 1_555 1_555
C22 H17 1_555 1_555
H18 C22 1_555 1_555
C23 N3 1_555 1_555
H19 C23 1_555 1_555
C24 C20 1_555 1_555
H20 C24 1_555 1_555
H21 C24 1_555 1_555
C25 C21 1_555 1_555
H22 C25 1_555 1_555
C26 N4 1_555 1_555
H23 C26 1_555 1_555
H24 C26 1_555 1_555
C27 H25 1_555 1_555
H26 C27 1_555 1_555
C28 N4 1_555 1_555
H27 C28 1_555 1_555
H28 C28 1_555 1_555
C29 O2 1_555 1_555
H29 C29 1_555 1_555
H30 C29 1_555 1_555
C4 C5 1_555 1_555
C12 C14 1_555 1_555
C18 C19 1_555 1_555
C22 C24 1_555 1_555
C23 C25 1_555 1_555
C26 C29 1_555 1_555
C27 C28 1_555 1_555

#END
