
#######################################################################
#
#                 Cambridge Crystallographic Data Centre
#                                CCDC 
#
#######################################################################
#
# If this CIF has been generated from an entry in the Cambridge 
# Structural Database, then it will include bibliographic, chemical, 
# crystal, experimental, refinement or atomic coordinate data resulting 
# from the CCDC's data processing and validation procedures.
#
#######################################################################

data_BIVPII
_chemical_formula_moiety         'C13 H14 O3'
_chemical_name_systematic        2-(benzenecarbonyl)-2-hydroxycyclohexan-1-one
_symmetry_cell_setting           orthorhombic
_symmetry_space_group_name_H-M   'P 21 21 21'
_symmetry_Int_Tables_number      19
_space_group_name_Hall           'P 2ac 2ab'
loop_
_symmetry_equiv_pos_site_id
_symmetry_equiv_pos_as_xyz
1 x,y,z
2 1/2-x,-y,1/2+z
3 -x,1/2+y,1/2-z
4 1/2+x,1/2-y,-z
_cell_length_a                   5.62454(12)
_cell_length_b                   12.3374(3)
_cell_length_c                   15.5545(4)
_cell_angle_alpha                90
_cell_angle_beta                 90
_cell_angle_gamma                90
_cell_volume                     1079.36
_exptl_crystal_colour            'pale colorless'
_exptl_crystal_description       plate
_cell_formula_units_Z            4
loop_
_atom_site_label
_atom_site_type_symbol
_atom_site_fract_x
_atom_site_fract_y
_atom_site_fract_z
O1 O -0.3046(2) 0.32340(10) 0.23840(8)
O2 O -0.2166(2) 0.36037(11) 0.39943(8)
O3 O 0.2408(2) 0.42808(9) 0.26476(8)
C1 C -0.0715(3) 0.29626(12) 0.26594(10)
C2 C -0.0548(3) 0.31333(12) 0.36403(10)
C3 C 0.1573(3) 0.26794(14) 0.41033(11)
C4 C 0.2130(4) 0.15153(13) 0.38194(13)
C5 C 0.2183(3) 0.14078(13) 0.28419(12)
C6 C -0.0181(3) 0.17707(12) 0.24518(11)
C7 C 0.1050(3) 0.37395(11) 0.22154(10)
C8 C 0.1063(3) 0.38388(12) 0.12559(10)
C9 C 0.3005(3) 0.43750(13) 0.08876(11)
C10 C 0.3089(3) 0.45570(14) 0.00083(12)
C11 C 0.1245(4) 0.42065(15) -0.05153(11)
C12 C -0.0659(3) 0.36459(15) -0.01569(11)
C13 C -0.0759(3) 0.34583(13) 0.07238(11)
H1 H -0.367(5) 0.360(2) 0.2803(17)
H2 H 0.129(5) 0.275(2) 0.4753(15)
H3 H 0.290(4) 0.315(2) 0.3952(14)
H4 H 0.092(5) 0.101(2) 0.4078(17)
H5 H 0.366(5) 0.132(2) 0.4091(17)
H6 H 0.351(4) 0.1843(19) 0.2616(15)
H7 H 0.249(5) 0.066(2) 0.2690(16)
H8 H -0.150(4) 0.1353(19) 0.2681(15)
H9 H -0.023(4) 0.1670(17) 0.1811(13)
H10 H 0.423(4) 0.4623(17) 0.1245(14)
H11 H 0.450(5) 0.490(2) -0.0243(16)
H12 H 0.126(4) 0.4323(18) -0.1139(15)
H13 H -0.193(4) 0.3392(19) -0.0521(15)
H14 H -0.216(4) 0.3100(18) 0.0956(14)
loop_
_geom_bond_atom_site_label_1
_geom_bond_atom_site_label_2
_geom_bond_site_symmetry_1
_geom_bond_site_symmetry_2
O1 C1 1_555 1_555
O2 C2 1_555 1_555
O3 C7 1_555 1_555
C1 C2 1_555 1_555
C2 C3 1_555 1_555
C3 C4 1_555 1_555
C4 C5 1_555 1_555
C5 C6 1_555 1_555
C6 C1 1_555 1_555
C7 C1 1_555 1_555
C8 C7 1_555 1_555
C9 C8 1_555 1_555
C10 C9 1_555 1_555
C11 C10 1_555 1_555
C12 C11 1_555 1_555
C13 C8 1_555 1_555
H1 O1 1_555 1_555
H2 C3 1_555 1_555
H3 C3 1_555 1_555
H4 C4 1_555 1_555
H5 C4 1_555 1_555
H6 C5 1_555 1_555
H7 C5 1_555 1_555
H8 C6 1_555 1_555
H9 C6 1_555 1_555
H10 C9 1_555 1_555
H11 C10 1_555 1_555
H12 C11 1_555 1_555
H13 C12 1_555 1_555
H14 C13 1_555 1_555
C12 C13 1_555 1_555

#END
