
#######################################################################
#
#                 Cambridge Crystallographic Data Centre
#                                CCDC 
#
#######################################################################
#
# If this CIF has been generated from an entry in the Cambridge 
# Structural Database, then it will include bibliographic, chemical, 
# crystal, experimental, refinement or atomic coordinate data resulting 
# from the CCDC's data processing and validation procedures.
#
#######################################################################

data_BIVWEL
_chemical_formula_moiety         'C38 H44 S2'
_chemical_name_systematic        
5,12-dioctylthiopyrano[3'',2'':1',2']indeno[5',4':4,5]indeno[2,1-b]thiopyran
_symmetry_cell_setting           triclinic
_symmetry_space_group_name_H-M   'P -1'
_symmetry_Int_Tables_number      2
_space_group_name_Hall           '-P 1'
loop_
_symmetry_equiv_pos_site_id
_symmetry_equiv_pos_as_xyz
1 x,y,z
2 -x,-y,-z
_cell_length_a                   4.9037(8)
_cell_length_b                   9.209(3)
_cell_length_c                   17.287(5)
_cell_angle_alpha                78.265(16)
_cell_angle_beta                 87.365(18)
_cell_angle_gamma                80.485(15)
_cell_volume                     753.756
_exptl_crystal_colour            'dark green'
_exptl_crystal_description       block
_cell_formula_units_Z            1
loop_
_atom_site_label
_atom_site_type_symbol
_atom_site_fract_x
_atom_site_fract_y
_atom_site_fract_z
S1 S 1.34817(9) 0.32121(5) 0.77250(2)
C1 C 1.3932(4) 0.13026(19) 0.77939(10)
H1 H 1.5325 0.0884 0.7466
C2 C 1.2493(4) 0.03407(19) 0.82702(10)
H2 H 1.2923 -0.0695 0.8249
C3 C 1.0360(4) 0.07870(18) 0.88047(10)
H3 H 0.9416 0.0045 0.9115
C4 C 0.9644(3) 0.22316(18) 0.88821(9)
C5 C 1.0922(3) 0.34786(18) 0.84345(9)
C6 C 0.9829(3) 0.47936(17) 0.86528(9)
C7 C 0.7734(3) 0.44421(17) 0.92695(9)
C8 C 0.5729(3) 0.22322(17) 0.99280(9)
H4 H 0.5669 0.1188 0.9993
C9 C 0.7627(3) 0.28971(17) 0.93931(9)
C10 C 0.3977(3) 0.30901(17) 1.03522(9)
H5 H 0.2682 0.2635 1.0707
C11 C 0.4040(3) 0.46483(17) 1.02764(9)
C12 C 1.0673(3) 0.62809(18) 0.82832(10)
H6 H 1.2456 0.6097 0.7999
H7 H 1.0972 0.6813 0.8708
C13 C 0.8544(4) 0.73002(18) 0.77044(10)
H8 H 0.6780 0.7511 0.7994
H9 H 0.9208 0.8269 0.7508
C14 C 0.7996(4) 0.66375(19) 0.70004(10)
H10 H 0.7363 0.5660 0.7196
H11 H 0.9751 0.6446 0.6704
C15 C 0.5840(4) 0.76468(19) 0.64384(10)
H12 H 0.4111 0.7878 0.6739
H13 H 0.6513 0.8606 0.6222
C16 C 0.5207(4) 0.6947(2) 0.57574(10)
H14 H 0.4489 0.6002 0.5976
H15 H 0.6953 0.6685 0.5470
C17 C 0.3129(4) 0.7943(2) 0.51731(10)
H16 H 0.1372 0.8196 0.5458
H17 H 0.3835 0.8892 0.4956
C18 C 0.2549(4) 0.7226(2) 0.44934(11)
H18 H 0.1844 0.6276 0.4711
H19 H 0.4306 0.6973 0.4209
C19 C 0.0467(5) 0.8221(3) 0.39080(13)
H20 H 0.1145 0.9166 0.3689
H21 H -0.1311 0.8435 0.4179
H22 H 0.0225 0.7704 0.3479
S1A S -0.34817(9) 0.67879(5) 1.22750(2)
C1A C -0.3932(4) 0.86974(19) 1.22061(10)
H1A H -0.5325 0.9116 1.2534
C2A C -0.2493(4) 0.96593(19) 1.17298(10)
H2A H -0.2923 1.0695 1.1751
C3A C -0.0360(4) 0.92130(18) 1.11953(10)
H3A H 0.0584 0.9955 1.0885
C4A C 0.0356(3) 0.77684(18) 1.11179(9)
C5A C -0.0922(3) 0.65214(18) 1.15655(9)
C6A C 0.0171(3) 0.52064(17) 1.13472(9)
C7A C 0.2266(3) 0.55579(17) 1.07305(9)
C8A C 0.4271(3) 0.77678(17) 1.00720(9)
H4A H 0.4331 0.8812 1.0007
C9A C 0.2373(3) 0.71029(17) 1.06069(9)
C10A C 0.6023(3) 0.69099(17) 0.96478(9)
H5A H 0.7318 0.7365 0.9293
C11A C 0.5960(3) 0.53517(17) 0.97236(9)
C12A C -0.0673(3) 0.37191(18) 1.17168(10)
H6A H -0.2456 0.3903 1.2001
H7A H -0.0972 0.3187 1.1292
C13A C 0.1456(4) 0.26998(18) 1.22956(10)
H8A H 0.3220 0.2489 1.2006
H9A H 0.0792 0.1731 1.2492
C14A C 0.2004(4) 0.33625(19) 1.29996(10)
H10A H 0.2637 0.4340 1.2804
H11A H 0.0249 0.3554 1.3296
C15A C 0.4160(4) 0.23532(19) 1.35616(10)
H12A H 0.5889 0.2122 1.3261
H13A H 0.3487 0.1394 1.3778
C16A C 0.4793(4) 0.3053(2) 1.42426(10)
H14A H 0.5511 0.3998 1.4024
H15A H 0.3047 0.3315 1.4530
C17A C 0.6871(4) 0.2057(2) 1.48269(10)
H16A H 0.8628 0.1804 1.4542
H17A H 0.6165 0.1108 1.5044
C18A C 0.7451(4) 0.2774(2) 1.55066(11)
H18A H 0.8156 0.3724 1.5289
H19A H 0.5694 0.3027 1.5791
C19A C 0.9533(5) 0.1779(3) 1.60920(13)
H20A H 0.8855 0.0834 1.6311
H21A H 1.1311 0.1565 1.5821
H22A H 0.9775 0.2296 1.6521
loop_
_geom_bond_atom_site_label_1
_geom_bond_atom_site_label_2
_geom_bond_site_symmetry_1
_geom_bond_site_symmetry_2
S1 C1 1_555 1_555
C1 H1 1_555 1_555
C2 C1 1_555 1_555
H2 C2 1_555 1_555
C3 C2 1_555 1_555
H3 C3 1_555 1_555
C4 C3 1_555 1_555
C5 S1 1_555 1_555
C6 C5 1_555 1_555
C7 C6 1_555 1_555
C8 H4 1_555 1_555
C9 C4 1_555 1_555
C10 C8 1_555 1_555
H5 C10 1_555 1_555
C11 C10 1_555 1_555
C12 C6 1_555 1_555
H6 C12 1_555 1_555
H7 C12 1_555 1_555
C13 C12 1_555 1_555
H8 C13 1_555 1_555
H9 C13 1_555 1_555
C14 C13 1_555 1_555
H10 C14 1_555 1_555
H11 C14 1_555 1_555
C15 C14 1_555 1_555
H12 C15 1_555 1_555
H13 C15 1_555 1_555
C16 C15 1_555 1_555
H14 C16 1_555 1_555
H15 C16 1_555 1_555
C17 C16 1_555 1_555
H16 C17 1_555 1_555
H17 C17 1_555 1_555
C18 C17 1_555 1_555
H18 C18 1_555 1_555
H19 C18 1_555 1_555
C19 C18 1_555 1_555
H20 C19 1_555 1_555
H21 C19 1_555 1_555
H22 C19 1_555 1_555
S1A C1A 1_555 1_555
C1A H1A 1_555 1_555
C2A C1A 1_555 1_555
H2A C2A 1_555 1_555
C3A C2A 1_555 1_555
H3A C3A 1_555 1_555
C4A C3A 1_555 1_555
C5A S1A 1_555 1_555
C6A C5A 1_555 1_555
C7A C11 1_555 1_555
C8A H4A 1_555 1_555
C9A C4A 1_555 1_555
C10A C8A 1_555 1_555
H5A C10A 1_555 1_555
C11A C7 1_555 1_555
C12A C6A 1_555 1_555
H6A C12A 1_555 1_555
H7A C12A 1_555 1_555
C13A C12A 1_555 1_555
H8A C13A 1_555 1_555
H9A C13A 1_555 1_555
C14A C13A 1_555 1_555
H10A C14A 1_555 1_555
H11A C14A 1_555 1_555
C15A C14A 1_555 1_555
H12A C15A 1_555 1_555
H13A C15A 1_555 1_555
C16A C15A 1_555 1_555
H14A C16A 1_555 1_555
H15A C16A 1_555 1_555
C17A C16A 1_555 1_555
H16A C17A 1_555 1_555
H17A C17A 1_555 1_555
C18A C17A 1_555 1_555
H18A C18A 1_555 1_555
H19A C18A 1_555 1_555
C19A C18A 1_555 1_555
H20A C19A 1_555 1_555
H21A C19A 1_555 1_555
H22A C19A 1_555 1_555
C4 C5 1_555 1_555
C7 C9 1_555 1_555
C8 C9 1_555 1_555
C11 C11A 1_555 1_555
C4A C5A 1_555 1_555
C6A C7A 1_555 1_555
C7A C9A 1_555 1_555
C8A C9A 1_555 1_555
C10A C11A 1_555 1_555

#END
