
#######################################################################
#
#                 Cambridge Crystallographic Data Centre
#                                CCDC 
#
#######################################################################
#
# If this CIF has been generated from an entry in the Cambridge 
# Structural Database, then it will include bibliographic, chemical, 
# crystal, experimental, refinement or atomic coordinate data resulting 
# from the CCDC's data processing and validation procedures.
#
#######################################################################

data_BIVZOW
_chemical_formula_moiety         'C27 H34 O7'
_chemical_name_systematic        
"trans,cis-4-((Methoxycarbonyl)methyl)-dispiro(cyclohexane-1,3'-(1,2,4)trioxolane-5',2''-adamantan)-5''-yl 4-methylbenzoate"
_symmetry_cell_setting           triclinic
_symmetry_space_group_name_H-M   'P -1'
_symmetry_Int_Tables_number      2
_space_group_name_Hall           '-P 1'
loop_
_symmetry_equiv_pos_site_id
_symmetry_equiv_pos_as_xyz
1 x,y,z
2 -x,-y,-z
_cell_length_a                   6.8401(14)
_cell_length_b                   10.832(2)
_cell_length_c                   16.781(3)
_cell_angle_alpha                92.75(3)
_cell_angle_beta                 92.94(3)
_cell_angle_gamma                91.16(3)
_cell_volume                     1239.95
_exptl_crystal_colour            colorless
_cell_formula_units_Z            2
_exptl_crystal_recrystallization_method acetone
loop_
_atom_site_label
_atom_site_type_symbol
_atom_site_fract_x
_atom_site_fract_y
_atom_site_fract_z
O1 O 0.65475(19) 0.81122(14) 0.42145(9)
O2 O 0.9796(2) 0.85666(17) 0.43325(11)
O3 O 0.3880(2) 0.82336(12) 0.16989(9)
O4 O 0.3740(2) 1.02300(12) 0.13963(9)
O5 O 0.1882(2) 0.96152(13) 0.11017(9)
O6 O -0.2885(3) 0.52368(17) -0.05957(14)
O7 O -0.4304(3) 0.61708(17) -0.16059(12)
C1 C -0.5826(5) 0.5215(3) -0.1655(2)
H1 H -0.5304 0.4452 -0.1855
H2 H -0.6886 0.5453 -0.2008
H3 H -0.6297 0.5107 -0.1133
C2 C -0.2890(3) 0.6070(2) -0.10354(16)
C3 C -0.1360(3) 0.7085(2) -0.10460(14)
H4 H -0.2008 0.7872 -0.1069
H5 H -0.0644 0.6971 -0.1527
C4 C 0.0099(3) 0.71358(18) -0.03209(13)
H6 H 0.0586 0.6300 -0.0255
C5 C -0.0845(3) 0.7551(2) 0.04474(13)
H7 H -0.1938 0.6999 0.0536
H8 H -0.1344 0.8377 0.0396
C6 C 0.0641(3) 0.75500(19) 0.11615(13)
H9 H 0.0027 0.7864 0.1636
H10 H 0.1019 0.6707 0.1248
C7 C 0.2458(3) 0.83287(18) 0.10424(13)
C8 C 0.3365(3) 0.8009(2) 0.02568(13)
H11 H 0.3957 0.7205 0.0281
H12 H 0.4391 0.8613 0.0172
C9 C 0.1850(3) 0.7988(2) -0.04449(13)
H13 H 0.1395 0.8820 -0.0516
H14 H 0.2465 0.7714 -0.0929
C10 C 0.4318(3) 0.94522(18) 0.20326(13)
C11 C 0.6505(3) 0.9656(2) 0.22172(13)
H15 H 0.7207 0.9502 0.1729
C12 C 0.6916(3) 1.0992(2) 0.25401(15)
H16 H 0.8310 1.1122 0.2657
H17 H 0.6499 1.1562 0.2140
C13 C 0.5813(3) 1.1241(2) 0.32993(14)
H18 H 0.6083 1.2095 0.3501
C14 C 0.6520(3) 1.0349(2) 0.39353(14)
H19 H 0.7913 1.0475 0.4058
H20 H 0.5839 1.0502 0.4422
C15 C 0.6098(3) 0.90246(18) 0.36066(13)
C16 C 0.3906(3) 0.8829(2) 0.34200(14)
H21 H 0.3206 0.8977 0.3903
H22 H 0.3637 0.7981 0.3226
C17 C 0.3203(3) 0.97123(19) 0.27875(13)
H23 H 0.1795 0.9580 0.2666
C18 C 0.3611(3) 1.1060(2) 0.31036(15)
H24 H 0.3183 1.1626 0.2703
H25 H 0.2896 1.1231 0.3580
C19 C 0.7187(3) 0.8749(2) 0.28459(13)
H26 H 0.6907 0.7905 0.2647
H27 H 0.8588 0.8846 0.2959
C20 C 0.8382(3) 0.7979(2) 0.45255(14)
C21 C 0.8487(3) 0.70257(19) 0.51359(13)
C22 C 1.0313(3) 0.6769(2) 0.54793(15)
H28 H 1.1421 0.7176 0.5316
C23 C 1.0500(4) 0.5912(2) 0.60631(17)
H29 H 1.1739 0.5749 0.6283
C24 C 0.8885(4) 0.5293(2) 0.63267(15)
C25 C 0.7062(3) 0.5546(2) 0.59750(16)
H30 H 0.5955 0.5135 0.6138
C26 C 0.6858(3) 0.6397(2) 0.53855(14)
H31 H 0.5624 0.6547 0.5157
C27 C 0.9097(5) 0.4364(2) 0.6977(2)
H32 H 0.9541 0.3595 0.6750
H33 H 0.7853 0.4232 0.7203
H34 H 1.0031 0.4679 0.7387
loop_
_geom_bond_atom_site_label_1
_geom_bond_atom_site_label_2
_geom_bond_site_symmetry_1
_geom_bond_site_symmetry_2
O1 C15 1_555 1_555
O2 C20 1_555 1_555
O3 C7 1_555 1_555
O4 O5 1_555 1_555
O5 C7 1_555 1_555
O6 C2 1_555 1_555
O7 C1 1_555 1_555
C1 H1 1_555 1_555
H2 C1 1_555 1_555
H3 C1 1_555 1_555
C2 O7 1_555 1_555
C3 C2 1_555 1_555
H4 C3 1_555 1_555
H5 C3 1_555 1_555
C4 C3 1_555 1_555
H6 C4 1_555 1_555
C5 C4 1_555 1_555
H7 C5 1_555 1_555
H8 C5 1_555 1_555
C6 C5 1_555 1_555
H9 C6 1_555 1_555
H10 C6 1_555 1_555
C7 C6 1_555 1_555
C8 C7 1_555 1_555
H11 C8 1_555 1_555
H12 C8 1_555 1_555
C9 C4 1_555 1_555
H13 C9 1_555 1_555
H14 C9 1_555 1_555
C10 O3 1_555 1_555
C11 C10 1_555 1_555
H15 C11 1_555 1_555
C12 C11 1_555 1_555
H16 C12 1_555 1_555
H17 C12 1_555 1_555
C13 C12 1_555 1_555
H18 C13 1_555 1_555
C14 C13 1_555 1_555
H19 C14 1_555 1_555
H20 C14 1_555 1_555
C15 C14 1_555 1_555
C16 C15 1_555 1_555
H21 C16 1_555 1_555
H22 C16 1_555 1_555
C17 C10 1_555 1_555
H23 C17 1_555 1_555
C18 C13 1_555 1_555
H24 C18 1_555 1_555
H25 C18 1_555 1_555
C19 C11 1_555 1_555
H26 C19 1_555 1_555
H27 C19 1_555 1_555
C20 O1 1_555 1_555
C21 C20 1_555 1_555
C22 C21 1_555 1_555
H28 C22 1_555 1_555
C23 C22 1_555 1_555
H29 C23 1_555 1_555
C24 C23 1_555 1_555
C25 C24 1_555 1_555
H30 C25 1_555 1_555
C26 C21 1_555 1_555
H31 C26 1_555 1_555
C27 C24 1_555 1_555
H32 C27 1_555 1_555
H33 C27 1_555 1_555
H34 C27 1_555 1_555
O4 C10 1_555 1_555
C8 C9 1_555 1_555
C15 C19 1_555 1_555
C16 C17 1_555 1_555
C17 C18 1_555 1_555
C25 C26 1_555 1_555

#END
