
#######################################################################
#
#                 Cambridge Crystallographic Data Centre
#                                CCDC 
#
#######################################################################
#
# If this CIF has been generated from an entry in the Cambridge 
# Structural Database, then it will include bibliographic, chemical, 
# crystal, experimental, refinement or atomic coordinate data resulting 
# from the CCDC's data processing and validation procedures.
#
#######################################################################

data_BIXBES
_chemical_formula_moiety         'C22 H20 O1 S2'
_chemical_name_systematic        
2-(1,1-dimethyl-1H-inden-3-yl)-2-(1,3-dithiolan-2-ylidene)-1-phenylethan-1-one
_symmetry_cell_setting           monoclinic
_symmetry_space_group_name_H-M   'P 21/c'
_symmetry_Int_Tables_number      14
_space_group_name_Hall           '-P 2ybc'
loop_
_symmetry_equiv_pos_site_id
_symmetry_equiv_pos_as_xyz
1 x,y,z
2 -x,1/2+y,1/2-z
3 -x,-y,-z
4 x,1/2-y,1/2+z
_cell_length_a                   10.5261(4)
_cell_length_b                   13.4622(5)
_cell_length_c                   13.9672(5)
_cell_angle_alpha                90
_cell_angle_beta                 109.6200(10)
_cell_angle_gamma                90
_cell_volume                     1864.3
_exptl_crystal_colour            colorless
_exptl_crystal_description       prismatic
_cell_formula_units_Z            4
loop_
_atom_site_label
_atom_site_type_symbol
_atom_site_fract_x
_atom_site_fract_y
_atom_site_fract_z
S1 S 0.20361(4) 0.70899(3) 0.47863(3)
S2 S 0.40631(4) 0.78155(4) 0.39312(3)
O1 O 0.32729(12) 0.59915(9) 0.63854(9)
C1 C 0.6670(2) 0.62003(15) 0.78610(14)
H1 H 0.6748 0.6883 0.7717
C2 C 0.7655(2) 0.57511(17) 0.86617(15)
H2 H 0.8399 0.6129 0.9076
C3 C 0.7558(2) 0.47521(17) 0.88595(15)
H3 H 0.8238 0.4445 0.9408
C4 C 0.6477(2) 0.42006(16) 0.82633(16)
H4 H 0.6423 0.3512 0.8392
C5 C 0.5470(2) 0.46543(14) 0.74763(15)
H5 H 0.4710 0.4281 0.7078
C6 C 0.55740(17) 0.56566(13) 0.72699(12)
C7 C 0.44467(17) 0.61248(12) 0.64264(13)
C8 C 0.47599(16) 0.67070(11) 0.56519(12)
C9 C 0.37352(16) 0.71454(11) 0.48977(12)
C10 C 0.14373(19) 0.79116(15) 0.36961(15)
H6 H 0.0497 0.7741 0.3286
H7 H 0.1458 0.8609 0.3926
C11 C 0.23410(19) 0.77905(15) 0.30681(14)
H8 H 0.2188 0.8337 0.2568
H9 H 0.2152 0.7152 0.2695
C12 C 0.61610(16) 0.67511(12) 0.56290(12)
C13 C 0.68399(16) 0.60137(12) 0.53758(12)
H10 H 0.6477 0.5370 0.5178
C14 C 0.82496(16) 0.63188(12) 0.54388(13)
C15 C 0.83011(16) 0.73742(12) 0.58304(12)
C16 C 0.70562(16) 0.76243(12) 0.59213(12)
C17 C 0.68494(19) 0.85523(13) 0.62774(15)
H11 H 0.5997 0.8729 0.6321
C18 C 0.7927(2) 0.92180(14) 0.65699(16)
H12 H 0.7814 0.9850 0.6832
C19 C 0.91586(19) 0.89684(14) 0.64827(14)
H13 H 0.9881 0.9432 0.6687
C20 C 0.93545(17) 0.80482(13) 0.61000(13)
H14 H 1.0195 0.7886 0.6026
C21 C 0.83853(19) 0.62877(15) 0.43803(15)
H15 H 0.7702 0.6720 0.3918
H16 H 0.8255 0.5605 0.4122
H17 H 0.9286 0.6519 0.4423
C22 C 0.9312(2) 0.56651(14) 0.61843(17)
H18 H 1.0214 0.5896 0.6229
H19 H 0.9193 0.4976 0.5946
H20 H 0.9213 0.5704 0.6856
loop_
_geom_bond_atom_site_label_1
_geom_bond_atom_site_label_2
_geom_bond_site_symmetry_1
_geom_bond_site_symmetry_2
S1 C9 1_555 1_555
S2 C9 1_555 1_555
O1 C7 1_555 1_555
C1 H1 1_555 1_555
C2 C1 1_555 1_555
H2 C2 1_555 1_555
C3 C2 1_555 1_555
H3 C3 1_555 1_555
C4 C3 1_555 1_555
H4 C4 1_555 1_555
C5 C4 1_555 1_555
H5 C5 1_555 1_555
C6 C1 1_555 1_555
C7 C6 1_555 1_555
C8 C7 1_555 1_555
C9 C8 1_555 1_555
C10 S1 1_555 1_555
H6 C10 1_555 1_555
H7 C10 1_555 1_555
C11 S2 1_555 1_555
H8 C11 1_555 1_555
H9 C11 1_555 1_555
C12 C8 1_555 1_555
C13 C12 1_555 1_555
H10 C13 1_555 1_555
C14 C13 1_555 1_555
C15 C14 1_555 1_555
C16 C12 1_555 1_555
C17 C16 1_555 1_555
H11 C17 1_555 1_555
C18 C17 1_555 1_555
H12 C18 1_555 1_555
C19 C18 1_555 1_555
H13 C19 1_555 1_555
C20 C15 1_555 1_555
H14 C20 1_555 1_555
C21 C14 1_555 1_555
H15 C21 1_555 1_555
H16 C21 1_555 1_555
H17 C21 1_555 1_555
C22 C14 1_555 1_555
H18 C22 1_555 1_555
H19 C22 1_555 1_555
H20 C22 1_555 1_555
C5 C6 1_555 1_555
C10 C11 1_555 1_555
C15 C16 1_555 1_555
C19 C20 1_555 1_555

#END
