
#######################################################################
#
#                 Cambridge Crystallographic Data Centre
#                                CCDC 
#
#######################################################################
#
# If this CIF has been generated from an entry in the Cambridge 
# Structural Database, then it will include bibliographic, chemical, 
# crystal, experimental, refinement or atomic coordinate data resulting 
# from the CCDC's data processing and validation procedures.
#
#######################################################################

data_BIXKOJ
_chemical_formula_moiety         'C12 H12 O1 S2'
_chemical_name_systematic        Spiro(1,3-dithiane-2,1'-inden)-2'(3'H)-one
_symmetry_cell_setting           monoclinic
_symmetry_space_group_name_H-M   'P 21/c'
_symmetry_Int_Tables_number      14
_space_group_name_Hall           '-P 2ybc'
loop_
_symmetry_equiv_pos_site_id
_symmetry_equiv_pos_as_xyz
1 x,y,z
2 -x,1/2+y,1/2-z
3 -x,-y,-z
4 x,1/2-y,1/2+z
_cell_length_a                   7.5386(16)
_cell_length_b                   7.1648(16)
_cell_length_c                   21.186(5)
_cell_angle_alpha                90
_cell_angle_beta                 99.386(4)
_cell_angle_gamma                90
_cell_volume                     1128.99
_exptl_crystal_colour            'pale red'
_exptl_crystal_description       plate
_chemical_melting_point          '123-126 deg.C'
_cell_formula_units_Z            4
loop_
_atom_site_label
_atom_site_type_symbol
_atom_site_fract_x
_atom_site_fract_y
_atom_site_fract_z
C1 C 0.2681(5) 0.7407(5) 0.39031(16)
C2 C 0.3162(5) 0.5448(5) 0.36874(18)
C3 C 0.2996(6) 0.4072(5) 0.4213(2)
H1 H 0.2057 0.3167 0.4073
H2 H 0.4121 0.3415 0.4345
C4 C 0.2532(5) 0.5234(5) 0.47485(18)
C5 C 0.2280(5) 0.4682(6) 0.5350(2)
H3 H 0.2384 0.3432 0.5469
C6 C 0.1872(5) 0.6011(7) 0.5775(2)
H4 H 0.1700 0.5645 0.6182
C7 C 0.1715(6) 0.7862(7) 0.56106(19)
H5 H 0.1446 0.8736 0.5905
C8 C 0.1957(5) 0.8430(6) 0.50051(19)
H6 H 0.1850 0.9683 0.4890
C9 C 0.2359(5) 0.7108(5) 0.45748(16)
C10 C 0.1309(6) 0.8702(6) 0.26584(19)
H7 H 0.1716 0.7558 0.2484
H8 H 0.0282 0.9152 0.2361
C11 C 0.2794(6) 1.0132(6) 0.27011(19)
H9 H 0.2979 1.0452 0.2272
H10 H 0.2417 1.1256 0.2898
C12 C 0.4554(6) 0.9481(7) 0.3079(2)
H11 H 0.5467 1.0410 0.3042
H12 H 0.4906 0.8334 0.2890
O1 O 0.3597(5) 0.5077(4) 0.31840(15)
S1 S 0.05813(13) 0.81690(15) 0.34151(5)
S2 S 0.45078(13) 0.90695(13) 0.39198(5)
loop_
_geom_bond_atom_site_label_1
_geom_bond_atom_site_label_2
_geom_bond_site_symmetry_1
_geom_bond_site_symmetry_2
C1 C2 1_555 1_555
C2 C3 1_555 1_555
C3 H1 1_555 1_555
H2 C3 1_555 1_555
C4 C3 1_555 1_555
C5 C4 1_555 1_555
H3 C5 1_555 1_555
C6 C5 1_555 1_555
H4 C6 1_555 1_555
C7 C6 1_555 1_555
H5 C7 1_555 1_555
C8 C7 1_555 1_555
H6 C8 1_555 1_555
C9 C1 1_555 1_555
C10 H7 1_555 1_555
H8 C10 1_555 1_555
C11 C10 1_555 1_555
H9 C11 1_555 1_555
H10 C11 1_555 1_555
C12 C11 1_555 1_555
H11 C12 1_555 1_555
H12 C12 1_555 1_555
O1 C2 1_555 1_555
S1 C1 1_555 1_555
S2 C1 1_555 1_555
C4 C9 1_555 1_555
C8 C9 1_555 1_555
C10 S1 1_555 1_555
C12 S2 1_555 1_555

#END
