
#######################################################################
#
#                 Cambridge Crystallographic Data Centre
#                                CCDC 
#
#######################################################################
#
# If this CIF has been generated from an entry in the Cambridge 
# Structural Database, then it will include bibliographic, chemical, 
# crystal, experimental, refinement or atomic coordinate data resulting 
# from the CCDC's data processing and validation procedures.
#
#######################################################################

data_BIYBIW
_chemical_formula_moiety         'C29 H42 N3 1+,C1 F3 O3 S1 1-'
_chemical_name_systematic        
'1,3-bis(2,6-diisopropylphenyl)-5-(dimethylamino)-1H-imidazol-3-ium trifluoromethanesulfonate'
_symmetry_cell_setting           orthorhombic
_symmetry_space_group_name_H-M   'P 21 21 21'
_symmetry_Int_Tables_number      19
_space_group_name_Hall           'P 2ac 2ab'
loop_
_symmetry_equiv_pos_site_id
_symmetry_equiv_pos_as_xyz
1 x,y,z
2 1/2-x,-y,1/2+z
3 1/2+x,1/2-y,-z
4 -x,1/2+y,1/2-z
_cell_length_a                   10.4485(3)
_cell_length_b                   15.7243(5)
_cell_length_c                   19.4279(6)
_cell_angle_alpha                90
_cell_angle_beta                 90
_cell_angle_gamma                90
_cell_volume                     3191.91
_exptl_crystal_colour            colorless
_exptl_crystal_description       block
_cell_formula_units_Z            4
loop_
_atom_site_label
_atom_site_type_symbol
_atom_site_fract_x
_atom_site_fract_y
_atom_site_fract_z
C1 C 0.13042(17) 0.23231(11) 0.73473(9)
H1 H 0.1174 0.2864 0.7141
C2 C 0.17765(19) 0.13086(12) 0.80982(10)
C3 C 0.1402(2) 0.09360(12) 0.75033(10)
H2 H 0.1338 0.0343 0.7418
C4 C 0.1587(3) 0.10846(18) 0.93285(12)
H3 H 0.139 0.1689 0.9391
H4 H 0.21 0.0883 0.9718
H5 H 0.0788 0.0759 0.9304
C5 C 0.2760(4) 0.00933(19) 0.85894(17)
H6 H 0.2023 -0.0285 0.853
H7 H 0.3254 -0.0086 0.8993
H8 H 0.3303 0.0067 0.8179
C6 C 0.20760(19) 0.28428(12) 0.84723(9)
C7 C 0.3383(2) 0.30174(13) 0.85273(10)
C8 C 0.3730(2) 0.36328(15) 0.90054(12)
H9 H 0.4609 0.3769 0.9063
C9 C 0.2829(3) 0.40503(16) 0.93975(13)
H10 H 0.3093 0.4469 0.972
C10 C 0.1553(3) 0.38647(14) 0.93244(12)
H11 H 0.0944 0.4162 0.9597
C11 C 0.1127(2) 0.32481(12) 0.88582(10)
C12 C -0.0284(2) 0.30566(15) 0.87738(12)
H12 H -0.0364 0.2516 0.8506
C13 C -0.0918(3) 0.3767(2) 0.83555(16)
H13 H -0.0859 0.4304 0.861
H14 H -0.1821 0.3627 0.8278
H15 H -0.0482 0.3826 0.7912
C14 C -0.0975(3) 0.2935(3) 0.94619(15)
H16 H -0.0553 0.2482 0.9724
H17 H -0.1868 0.2778 0.9377
H18 H -0.0944 0.3466 0.9725
C15 C 0.4371(2) 0.25986(16) 0.80704(13)
H19 H 0.3964 0.2086 0.7858
C16 C 0.4742(3) 0.3197(3) 0.74916(18)
H20 H 0.3972 0.3374 0.7242
H21 H 0.5325 0.2904 0.7175
H22 H 0.517 0.3698 0.7684
C17 C 0.5539(3) 0.2302(3) 0.8463(2)
H23 H 0.5969 0.2794 0.8669
H24 H 0.6128 0.2014 0.8148
H25 H 0.5277 0.1908 0.8827
C18 C 0.08397(18) 0.14409(12) 0.63192(9)
C19 C 0.18698(19) 0.12844(13) 0.58785(10)
C20 C 0.1572(2) 0.11244(15) 0.51961(11)
H26 H 0.2242 0.1015 0.4878
C21 C 0.0319(2) 0.11209(16) 0.49693(11)
H27 H 0.014 0.1008 0.4499
C22 C -0.0676(2) 0.12799(15) 0.54187(11)
H28 H -0.1532 0.1274 0.5254
C23 C -0.04379(19) 0.14485(13) 0.61108(10)
C24 C 0.32569(19) 0.12871(14) 0.61184(12)
H29 H 0.3276 0.1499 0.6604
C25 C 0.4078(2) 0.18788(17) 0.56834(16)
H30 H 0.4129 0.1659 0.5212
H31 H 0.494 0.1912 0.5881
H32 H 0.3693 0.2447 0.5677
C26 C 0.3815(2) 0.03888(16) 0.61117(17)
H33 H 0.3276 0.0013 0.6391
H34 H 0.4683 0.04 0.6302
H35 H 0.3843 0.0177 0.5637
C27 C -0.1525(2) 0.16721(15) 0.65975(12)
H36 H -0.1185 0.1653 0.7078
C28 C -0.2632(2) 0.10454(19) 0.65482(14)
H37 H -0.2991 0.1061 0.6082
H38 H -0.3295 0.1202 0.6882
H39 H -0.2322 0.0471 0.6649
C29 C -0.1975(3) 0.25773(19) 0.6453(2)
H40 H -0.1243 0.2966 0.6474
H41 H -0.2611 0.2744 0.6798
H42 H -0.2361 0.2603 0.5994
N1 N 0.16924(14) 0.21869(9) 0.79916(8)
N2 N 0.11308(15) 0.15812(10) 0.70425(8)
N3 N 0.2308(2) 0.09696(12) 0.86892(10)
C30 C 0.2356(3) 0.51634(17) 0.64110(13)
O1 O 0.0479(2) 0.41951(15) 0.67146(12)
O2 O 0.2242(2) 0.35836(12) 0.61286(12)
O3 O 0.0836(2) 0.45404(13) 0.55191(10)
F1 F 0.2944(2) 0.50296(16) 0.69967(10)
F2 F 0.1694(2) 0.58674(11) 0.64814(13)
F3 F 0.32743(19) 0.53087(14) 0.59507(10)
S1 S 0.13567(6) 0.42710(3) 0.61579(3)
loop_
_geom_bond_atom_site_label_1
_geom_bond_atom_site_label_2
_geom_bond_site_symmetry_1
_geom_bond_site_symmetry_2
C1 H1 1_555 1_555
C2 C3 1_555 1_555
C3 H2 1_555 1_555
C4 H3 1_555 1_555
H4 C4 1_555 1_555
H5 C4 1_555 1_555
C5 H6 1_555 1_555
H7 C5 1_555 1_555
H8 C5 1_555 1_555
C6 C7 1_555 1_555
C7 C8 1_555 1_555
C8 H9 1_555 1_555
C9 C8 1_555 1_555
H10 C9 1_555 1_555
C10 C9 1_555 1_555
H11 C10 1_555 1_555
C11 C6 1_555 1_555
C12 C11 1_555 1_555
H12 C12 1_555 1_555
C13 C12 1_555 1_555
H13 C13 1_555 1_555
H14 C13 1_555 1_555
H15 C13 1_555 1_555
C14 C12 1_555 1_555
H16 C14 1_555 1_555
H17 C14 1_555 1_555
H18 C14 1_555 1_555
C15 C7 1_555 1_555
H19 C15 1_555 1_555
C16 C15 1_555 1_555
H20 C16 1_555 1_555
H21 C16 1_555 1_555
H22 C16 1_555 1_555
C17 C15 1_555 1_555
H23 C17 1_555 1_555
H24 C17 1_555 1_555
H25 C17 1_555 1_555
C18 C19 1_555 1_555
C19 C20 1_555 1_555
C20 H26 1_555 1_555
C21 C20 1_555 1_555
H27 C21 1_555 1_555
C22 C21 1_555 1_555
H28 C22 1_555 1_555
C23 C18 1_555 1_555
C24 C19 1_555 1_555
H29 C24 1_555 1_555
C25 C24 1_555 1_555
H30 C25 1_555 1_555
H31 C25 1_555 1_555
H32 C25 1_555 1_555
C26 C24 1_555 1_555
H33 C26 1_555 1_555
H34 C26 1_555 1_555
H35 C26 1_555 1_555
C27 C23 1_555 1_555
H36 C27 1_555 1_555
C28 C27 1_555 1_555
H37 C28 1_555 1_555
H38 C28 1_555 1_555
H39 C28 1_555 1_555
C29 C27 1_555 1_555
H40 C29 1_555 1_555
H41 C29 1_555 1_555
H42 C29 1_555 1_555
N1 C1 1_555 1_555
N2 C1 1_555 1_555
N3 C2 1_555 1_555
C30 F1 1_555 1_555
O1 S1 1_555 1_555
O2 S1 1_555 1_555
O3 S1 1_555 1_555
F2 C30 1_555 1_555
F3 C30 1_555 1_555
S1 C30 1_555 1_555
C2 N1 1_555 1_555
C3 N2 1_555 1_555
C4 N3 1_555 1_555
C5 N3 1_555 1_555
C6 N1 1_555 1_555
C10 C11 1_555 1_555
C18 N2 1_555 1_555
C22 C23 1_555 1_555

#END
