
#######################################################################
#
#                 Cambridge Crystallographic Data Centre
#                                CCDC 
#
#######################################################################
#
# If this CIF has been generated from an entry in the Cambridge 
# Structural Database, then it will include bibliographic, chemical, 
# crystal, experimental, refinement or atomic coordinate data resulting 
# from the CCDC's data processing and validation procedures.
#
#######################################################################

data_BIYDAR
_chemical_formula_moiety         'C40 H34 N2 O6'
_chemical_name_systematic        
'2,2-diethyl 8-methyl 4,10-diphenyl-5-(pyridin-2-yl)-3,5-dihydrocyclopenta[b]carbazole-2,2,8(1H)-tricarboxylate'
_symmetry_cell_setting           monoclinic
_symmetry_space_group_name_H-M   'P 21/n'
_symmetry_Int_Tables_number      14
_space_group_name_Hall           '-P 2yn'
loop_
_symmetry_equiv_pos_site_id
_symmetry_equiv_pos_as_xyz
1 x,y,z
2 1/2-x,1/2+y,1/2-z
3 -x,-y,-z
4 1/2+x,1/2-y,1/2+z
_cell_length_a                   8.0120(16)
_cell_length_b                   28.214(6)
_cell_length_c                   14.572(3)
_cell_angle_alpha                90
_cell_angle_beta                 99.10(3)
_cell_angle_gamma                90
_cell_volume                     3252.55
_exptl_crystal_colour            colorless
_exptl_crystal_description       needle
_cell_formula_units_Z            4
loop_
_atom_site_label
_atom_site_type_symbol
_atom_site_fract_x
_atom_site_fract_y
_atom_site_fract_z
O1 O -0.38178(19) 0.00723(6) 0.39361(10)
O2 O -0.1674(2) 0.05351(6) 0.45947(9)
O3 O 0.80802(16) 0.23752(5) 0.17679(9)
O4 O 0.82378(17) 0.19727(5) 0.04546(10)
O5 O 0.4887(3) 0.27277(8) 0.02914(11)
O6 O 0.3640(2) 0.25766(7) 0.15313(12)
N1 N -0.07905(19) 0.08287(5) 0.04417(10)
C1 C -0.1486(2) 0.07188(7) 0.12261(13)
C2 C -0.3033(3) 0.04997(9) 0.12759(15)
H1 H -0.3799 0.0421 0.0731
C3 C -0.3400(3) 0.04020(9) 0.21486(15)
H2 H -0.4434 0.0248 0.2203
C4 C -0.2287(3) 0.05232(7) 0.29623(13)
C5 C -0.0785(2) 0.07604(6) 0.29053(12)
H3 H -0.0055 0.0854 0.3454
C6 C -0.0364(2) 0.08584(6) 0.20294(12)
C7 C 0.1089(2) 0.10688(6) 0.17056(12)
C8 C 0.2580(2) 0.12819(7) 0.21791(12)
C9 C 0.3685(2) 0.14683(8) 0.16304(13)
C10 C 0.5340(3) 0.17224(9) 0.19468(13)
H4 H 0.6274 0.1495 0.2133
H5 H 0.5256 0.1939 0.2472
C11 C 0.5590(2) 0.20001(8) 0.10609(13)
C12 C 0.4781(3) 0.16766(9) 0.02526(13)
H6 H 0.4337 0.1865 -0.0306
H7 H 0.5603 0.1442 0.0090
C13 C 0.3363(2) 0.14375(8) 0.06541(13)
C14 C 0.1931(2) 0.12210(6) 0.01672(12)
C15 C 0.0792(2) 0.10432(6) 0.07185(12)
C16 C -0.1604(2) 0.07104(6) -0.04781(12)
N2 N -0.1798(4) 0.02549(11) -0.0658(2)
C17 C -0.2569(5) 0.01405(15) -0.1514(3)
H8 H -0.2736 -0.0185 -0.1664
C18 C -0.3150(3) 0.04829(7) -0.22090(13)
H9 H -0.373(2) 0.0404(7) -0.2819(9)
C19 C -0.2824(5) 0.09470(14) -0.1995(2)
H10 H -0.3116 0.1183 -0.2456
C20 C -0.2064(4) 0.10786(13) -0.1103(2)
H11 H -0.1872 0.1401 -0.0932
C21 C 0.1696(2) 0.11920(6) -0.08659(12)
C22 C 0.1775(5) 0.07228(15) -0.1226(3)
H12 H 0.1957 0.0460 -0.0814
C23 C 0.1584(5) 0.06520(16) -0.2182(3)
H13 H 0.1556 0.0339 -0.2425
C24 C 0.1436(11) 0.1034(2) -0.2778(5)
H14 H 0.1341 0.0984 -0.3430
C25 C 0.1428(6) 0.1492(2) -0.2427(3)
H15 H 0.1318 0.1755 -0.2839
C26 C 0.1580(5) 0.15666(14) -0.1464(3)
H16 H 0.1602 0.1881 -0.1228
C27 C -0.2705(3) 0.03539(8) 0.38573(13)
C28 C -0.1938(3) 0.03615(11) 0.54917(15)
H17 H -0.1131 0.0514 0.5979
H18 H -0.3093 0.0435 0.5587
H19 H -0.1768 0.0018 0.5519
C29 C 0.2949(2) 0.13181(7) 0.32139(12)
C30 C 0.3319(2) 0.09206(7) 0.37699(13)
H20 H 0.3335 0.0617 0.3489
C31 C 0.3664(3) 0.09601(9) 0.47314(14)
H21 H 0.3907 0.0685 0.5103
C32 C 0.3655(3) 0.14000(9) 0.51462(14)
H22 H 0.3888 0.1428 0.5804
C33 C 0.3306(3) 0.17990(9) 0.45991(15)
H23 H 0.3304 0.2102 0.4882
C34 C 0.2960(3) 0.17597(8) 0.36411(14)
H24 H 0.2728 0.2036 0.3272
C35 C 0.7440(2) 0.21080(7) 0.10364(13)
C36 C 0.9878(2) 0.24873(7) 0.18600(14)
H25 H 1.0117 0.2656 0.1299
H26 H 1.0557 0.2193 0.1933
C37 C 1.0319(3) 0.27964(8) 0.27042(17)
H27 H 1.1522 0.2878 0.2785
H28 H 0.9642 0.3087 0.2624
H29 H 1.0080 0.2626 0.3255
C38 C 0.4588(3) 0.24648(9) 0.10127(14)
C39 C 0.3918(5) 0.31676(13) 0.0091(2)
H30 H 0.3272 0.3233 0.0602
H31 H 0.4709 0.3435 0.0059
C40 C 0.2802(5) 0.31384(13) -0.0747(2)
H32 H 0.2179 0.3437 -0.0858
H33 H 0.3440 0.3080 -0.1256
H34 H 0.2004 0.2878 -0.0714
N3? N -0.3132(4) 0.09156(12) -0.0779(2)
C41? C -0.3891(5) 0.08042(16) -0.1637(3)
H35? H -0.4953 0.0943 -0.1871
C42? C -0.1696(7) 0.02780(15) -0.1878(3)
H36? H -0.1201 0.0060 -0.2252
C43? C -0.0888(6) 0.03803(14) -0.0986(3)
H37? H 0.0135 0.0226 -0.0734
C44? C 0.2647(6) 0.09442(16) -0.1371(3)
H38? H 0.3539 0.0754 -0.1057
C45? C 0.2383(7) 0.09529(17) -0.2336(3)
H39? H 0.3076 0.0770 -0.2672
C46? C 0.1108(10) 0.1230(3) -0.2801(6)
H40? H 0.0922 0.1235 -0.3461
C47? C 0.0097(6) 0.14989(15) -0.2319(3)
H41? H -0.0771 0.1692 -0.2645
C48? C 0.0359(6) 0.14849(14) -0.1353(3)
H42? H -0.0336 0.1667 -0.1015
loop_
_geom_bond_atom_site_label_1
_geom_bond_atom_site_label_2
_geom_bond_site_symmetry_1
_geom_bond_site_symmetry_2
O1 C27 1_555 1_555
O2 C27 1_555 1_555
O3 C35 1_555 1_555
O4 C35 1_555 1_555
O5 C38 1_555 1_555
O6 C38 1_555 1_555
N1 C1 1_555 1_555
C1 C2 1_555 1_555
C2 H1 1_555 1_555
C3 C2 1_555 1_555
H2 C3 1_555 1_555
C4 C3 1_555 1_555
C5 C4 1_555 1_555
H3 C5 1_555 1_555
C6 C1 1_555 1_555
C7 C6 1_555 1_555
C8 C7 1_555 1_555
C9 C8 1_555 1_555
C10 C9 1_555 1_555
H4 C10 1_555 1_555
H5 C10 1_555 1_555
C11 C10 1_555 1_555
C12 C11 1_555 1_555
H6 C12 1_555 1_555
H7 C12 1_555 1_555
C13 C9 1_555 1_555
C14 C13 1_555 1_555
C15 N1 1_555 1_555
C16 N1 1_555 1_555
N2 C16 1_555 1_555
C17 N2 1_555 1_555
H8 C17 1_555 1_555
C18 C17 1_555 1_555
H9 C18 1_555 1_555
C19 C18 1_555 1_555
H10 C19 1_555 1_555
C20 C16 1_555 1_555
H11 C20 1_555 1_555
C21 C14 1_555 1_555
C22 C21 1_555 1_555
H12 C22 1_555 1_555
C23 C22 1_555 1_555
H13 C23 1_555 1_555
C24 C23 1_555 1_555
H14 C24 1_555 1_555
C25 C24 1_555 1_555
H15 C25 1_555 1_555
C26 C21 1_555 1_555
H16 C26 1_555 1_555
C27 C4 1_555 1_555
C28 O2 1_555 1_555
H17 C28 1_555 1_555
H18 C28 1_555 1_555
H19 C28 1_555 1_555
C29 C8 1_555 1_555
C30 C29 1_555 1_555
H20 C30 1_555 1_555
C31 C30 1_555 1_555
H21 C31 1_555 1_555
C32 C31 1_555 1_555
H22 C32 1_555 1_555
C33 C32 1_555 1_555
H23 C33 1_555 1_555
C34 C29 1_555 1_555
H24 C34 1_555 1_555
C35 C11 1_555 1_555
C36 O3 1_555 1_555
H25 C36 1_555 1_555
H26 C36 1_555 1_555
C37 C36 1_555 1_555
H27 C37 1_555 1_555
H28 C37 1_555 1_555
H29 C37 1_555 1_555
C38 C11 1_555 1_555
C39 O5 1_555 1_555
H30 C39 1_555 1_555
H31 C39 1_555 1_555
C40 C39 1_555 1_555
H32 C40 1_555 1_555
H33 C40 1_555 1_555
H34 C40 1_555 1_555
C5 C6 1_555 1_555
C7 C15 1_555 1_555
C12 C13 1_555 1_555
C14 C15 1_555 1_555
C19 C20 1_555 1_555
C25 C26 1_555 1_555
C33 C34 1_555 1_555

#END
