
#######################################################################
#
#                 Cambridge Crystallographic Data Centre
#                                CCDC 
#
#######################################################################
#
# If this CIF has been generated from an entry in the Cambridge 
# Structural Database, then it will include bibliographic, chemical, 
# crystal, experimental, refinement or atomic coordinate data resulting 
# from the CCDC's data processing and validation procedures.
#
#######################################################################

data_BIYNIG01
_chemical_formula_moiety         'C17 H24 O4'
_chemical_name_systematic        
12-Hydroxy-14-methoxy-3-methyl-3,4,5,6,7,8,9,10-octahydro-1H-2-benzoxacyclododecin-1-one
_symmetry_cell_setting           orthorhombic
_symmetry_space_group_name_H-M   'P 21 21 21'
_symmetry_Int_Tables_number      19
_space_group_name_Hall           'P 2ac 2ab'
loop_
_symmetry_equiv_pos_site_id
_symmetry_equiv_pos_as_xyz
1 x,y,z
2 1/2-x,-y,1/2+z
3 -x,1/2+y,1/2-z
4 1/2+x,1/2-y,-z
_cell_length_a                   7.656(2)
_cell_length_b                   14.361(4)
_cell_length_c                   14.923(4)
_cell_angle_alpha                90
_cell_angle_beta                 90
_cell_angle_gamma                90
_cell_volume                     1640.75
_exptl_crystal_colour            colorless
_exptl_crystal_description       rectangular
_cell_formula_units_Z            4
loop_
_atom_site_label
_atom_site_type_symbol
_atom_site_fract_x
_atom_site_fract_y
_atom_site_fract_z
O1 O 0.8880(5) 0.4143(3) 0.6620(2)
H1 H 0.8808 0.4653 0.6865
O2 O 0.6972(4) 0.25755(19) 0.39918(16)
O3 O 0.6147(4) 0.4259(3) 0.25960(18)
O4 O 0.3820(4) 0.3839(2) 0.33693(18)
C1 C 0.5467(5) 0.4091(3) 0.3294(3)
C2 C 0.6344(5) 0.4140(3) 0.4188(2)
C3 C 0.7134(5) 0.3338(3) 0.4521(2)
C4 C 0.7981(5) 0.3349(3) 0.5331(2)
H2 H 0.8513 0.2814 0.5552
C5 C 0.8027(6) 0.4172(3) 0.5811(3)
C6 C 0.7289(6) 0.4967(3) 0.5485(3)
H3 H 0.7358 0.5513 0.5817
C7 C 0.6434(5) 0.4973(3) 0.4664(3)
C8 C 0.5513(16) 0.5826(8) 0.4325(10)
H4 H 0.6315 0.6348 0.4355
H5 H 0.5219 0.5730 0.3699
C9 C 0.3902(13) 0.6076(9) 0.4815(9)
H6 H 0.3155 0.5532 0.4851
H7 H 0.4210 0.6255 0.5422
C10 C 0.2916(13) 0.6844(7) 0.4395(7)
H8 H 0.1964 0.7014 0.4791
H9 H 0.3682 0.7380 0.4347
C11 C 0.2198(14) 0.6651(9) 0.3517(7)
H10 H 0.3096 0.6340 0.3170
H11 H 0.1974 0.7244 0.3228
C12 C 0.0565(14) 0.6080(9) 0.3447(11)
H12 H -0.0222 0.6261 0.3927
H13 H -0.0006 0.6224 0.2884
C13 C 0.0842(17) 0.5101(9) 0.3495(10)
H14 H 0.0033 0.4894 0.3954
H15 H 0.1995 0.5041 0.3759
C14 C 0.0785(18) 0.4381(11) 0.2836(11)
H16 H 0.0248 0.4638 0.2302
H17 H 0.0014 0.3897 0.3057
C15 C 0.256(2) 0.3901(11) 0.2545(16)
H18 H 0.3113 0.4288 0.2085
C16 C 0.273(3) 0.2869(11) 0.2263(12)
H19 H 0.3887 0.2754 0.2044
H20 H 0.1896 0.2735 0.1798
H21 H 0.2504 0.2476 0.2770
C17 C 0.7696(7) 0.1722(3) 0.4304(3)
H22 H 0.7446 0.1236 0.3881
H23 H 0.7193 0.1567 0.4874
H24 H 0.8938 0.1788 0.4367
C18? C 0.591(3) 0.5871(14) 0.426(2)
H25? H 0.6916 0.6281 0.4224
H26? H 0.5496 0.5765 0.3650
C19? C 0.4516(19) 0.6320(12) 0.4790(17)
H27? H 0.4857 0.6329 0.5416
H28? H 0.4372 0.6959 0.4593
C20? C 0.285(2) 0.5826(14) 0.4698(12)
H29? H 0.2375 0.5702 0.5288
H30? H 0.3052 0.5233 0.4404
C21? C 0.159(2) 0.6373(15) 0.4174(12)
H31? H 0.0422 0.6252 0.4394
H32? H 0.1834 0.7031 0.4253
C22? C 0.168(3) 0.6141(12) 0.3227(11)
H33? H 0.2901 0.6040 0.3072
H34? H 0.1285 0.6676 0.2887
C23? C 0.067(2) 0.5317(12) 0.2930(13)
H35? H 0.0210 0.4982 0.3442
H36? H -0.0292 0.5504 0.2549
C24? C 0.1918(15) 0.4728(8) 0.2427(8)
H37? H 0.2900 0.5144 0.2334
H38? H 0.1366 0.4673 0.1845
C25? C 0.2839(19) 0.3744(9) 0.2547(15)
H39? H 0.3527 0.3539 0.2029
C26? C 0.126(2) 0.3102(13) 0.2784(11)
H40? H 0.1642 0.2466 0.2812
H41? H 0.0373 0.3163 0.2332
H42? H 0.0786 0.3282 0.3354
loop_
_geom_bond_atom_site_label_1
_geom_bond_atom_site_label_2
_geom_bond_site_symmetry_1
_geom_bond_site_symmetry_2
O1 H1 1_555 1_555
O2 C3 1_555 1_555
O3 C1 1_555 1_555
O4 C1 1_555 1_555
C1 C2 1_555 1_555
C2 C3 1_555 1_555
C3 C4 1_555 1_555
C4 H2 1_555 1_555
C5 O1 1_555 1_555
C6 C5 1_555 1_555
H3 C6 1_555 1_555
C7 C2 1_555 1_555
C8 C7 1_555 1_555
H4 C8 1_555 1_555
H5 C8 1_555 1_555
C9 C8 1_555 1_555
H6 C9 1_555 1_555
H7 C9 1_555 1_555
C10 C9 1_555 1_555
H8 C10 1_555 1_555
H9 C10 1_555 1_555
C11 C10 1_555 1_555
H10 C11 1_555 1_555
H11 C11 1_555 1_555
C12 C11 1_555 1_555
H12 C12 1_555 1_555
H13 C12 1_555 1_555
C13 C12 1_555 1_555
H14 C13 1_555 1_555
H15 C13 1_555 1_555
C14 C13 1_555 1_555
H16 C14 1_555 1_555
H17 C14 1_555 1_555
C15 O4 1_555 1_555
H18 C15 1_555 1_555
C16 C15 1_555 1_555
H19 C16 1_555 1_555
H20 C16 1_555 1_555
H21 C16 1_555 1_555
C17 O2 1_555 1_555
H22 C17 1_555 1_555
H23 C17 1_555 1_555
H24 C17 1_555 1_555
C4 C5 1_555 1_555
C6 C7 1_555 1_555
C14 C15 1_555 1_555

#END
