
#######################################################################
#
#                 Cambridge Crystallographic Data Centre
#                                CCDC 
#
#######################################################################
#
# If this CIF has been generated from an entry in the Cambridge 
# Structural Database, then it will include bibliographic, chemical, 
# crystal, experimental, refinement or atomic coordinate data resulting 
# from the CCDC's data processing and validation procedures.
#
#######################################################################

data_BIYPIK
_chemical_formula_moiety         'C34 H35 N3 O7'
_chemical_name_systematic        
'diethyl 3,5-dicyano-2,4,6-tris(3-methoxyphenyl)piperidine-3,5-dicarboxylate'
_symmetry_cell_setting           triclinic
_symmetry_space_group_name_H-M   'P -1'
_symmetry_Int_Tables_number      2
_space_group_name_Hall           '-P 1'
loop_
_symmetry_equiv_pos_site_id
_symmetry_equiv_pos_as_xyz
1 x,y,z
2 -x,-y,-z
_cell_length_a                   10.6012(14)
_cell_length_b                   11.1276(17)
_cell_length_c                   14.251(2)
_cell_angle_alpha                85.303(5)
_cell_angle_beta                 72.887(4)
_cell_angle_gamma                79.968(4)
_cell_volume                     1581.3
_exptl_crystal_colour            colorless
_exptl_crystal_description       block
_cell_formula_units_Z            2
loop_
_atom_site_label
_atom_site_type_symbol
_atom_site_fract_x
_atom_site_fract_y
_atom_site_fract_z
C1 C 0.7350(2) 0.2016(2) 0.17457(17)
H1 H 0.7378 0.1543 0.1187
C2 C 0.7534(2) 0.1088(2) 0.26077(16)
C3 C 0.8918(2) 0.0252(2) 0.22606(16)
H2 H 0.8866 -0.0176 0.1702
C4 C 1.0085(2) 0.0997(2) 0.18221(16)
C5 C 0.9730(2) 0.1888(2) 0.09950(16)
H3 H 0.9573 0.1403 0.0509
C6 C 1.0822(2) 0.2623(2) 0.04720(16)
C7 C 1.0802(2) 0.3791(2) 0.07622(17)
H4 H 1.0134 0.4117 0.1304
C8 C 1.1776(3) 0.4465(2) 0.02439(19)
C9 C 1.2790(3) 0.3969(3) -0.0554(2)
H5 H 1.3453 0.4419 -0.0898
C10 C 1.2811(3) 0.2814(3) -0.0832(2)
H6 H 1.3489 0.2484 -0.1367
C11 C 1.1832(2) 0.2137(2) -0.03241(18)
H7 H 1.1853 0.1354 -0.0518
C12 C 1.0833(3) 0.6160(3) 0.1289(2)
H8 H 0.9957 0.6129 0.1236
H9 H 1.0932 0.6995 0.1327
H10 H 1.0949 0.5711 0.1870
C13 C 0.6027(2) 0.2865(3) 0.2014(2)
C14 C 0.5832(3) 0.3871(3) 0.2586(2)
H11 H 0.6535 0.4057 0.2784
C15 C 0.4587(4) 0.4598(4) 0.2861(3)
C16 C 0.3556(4) 0.4332(5) 0.2558(4)
H12 H 0.2722 0.4820 0.2743
C17 C 0.3752(4) 0.3352(5) 0.1984(4)
H13 H 0.3048 0.3181 0.1780
C18 C 0.4995(3) 0.2604(3) 0.1699(3)
H14 H 0.5124 0.1942 0.1304
C19 C 0.5275(7) 0.5921(5) 0.3763(4)
H15 H 0.5643 0.5244 0.4115
H16 H 0.4904 0.6597 0.4190
H17 H 0.5968 0.6155 0.3210
C20 C 0.9165(2) -0.0761(2) 0.30039(16)
C21 C 0.8740(3) -0.1853(2) 0.29725(19)
H18 H 0.8313 -0.1945 0.2505
C22 C 0.8931(3) -0.2819(2) 0.3619(2)
C23 C 0.9576(3) -0.2703(3) 0.4303(2)
H19 H 0.9708 -0.3345 0.4743
C24 C 1.0022(3) -0.1626(3) 0.4329(2)
H20 H 1.0478 -0.1550 0.4782
C25 C 0.9812(3) -0.0654(3) 0.37013(19)
H21 H 1.0105 0.0074 0.3745
C26 C 0.8686(5) -0.4895(3) 0.4111(4)
H22 H 0.9627 -0.5108 0.4036
H23 H 0.8364 -0.5566 0.3923
H24 H 0.8225 -0.4717 0.4785
C27 C 0.6437(2) 0.0291(2) 0.27785(18)
C28 C 0.4528(3) -0.0356(4) 0.3912(3)
H25 H 0.4660 -0.0926 0.3399
H26 H 0.4481 -0.0818 0.4526
C29 C 0.3297(4) 0.0489(5) 0.3998(4)
H27 H 0.3196 0.1076 0.4483
H28 H 0.2554 0.0048 0.4193
H29 H 0.3325 0.0904 0.3376
C30 C 1.1311(2) 0.0055(2) 0.13448(18)
C31 C 1.3509(17) -0.0888(12) 0.1352(12)
H30 H 1.4311 -0.0611 0.1388
H31 H 1.3634 -0.1082 0.0676
C32 C 1.3284(9) -0.2011(7) 0.2004(10)
H32 H 1.3123 -0.1809 0.2675
H33 H 1.4061 -0.2626 0.1819
H34 H 1.2524 -0.2315 0.1933
C33 C 1.0363(2) 0.1741(2) 0.25254(18)
C34 C 0.7410(2) 0.1723(2) 0.35077(19)
H35 H 0.831(2) 0.326(2) 0.1064(19)
N1 N 0.84821(19) 0.26771(19) 0.14516(15)
N2 N 1.0583(2) 0.2362(2) 0.30329(17)
N3 N 0.7328(2) 0.2195(2) 0.42048(17)
O1 O 1.12805(17) -0.06287(17) 0.07476(13)
O2 O 1.23505(17) 0.00947(17) 0.16612(14)
O3 O 0.63413(17) -0.02835(17) 0.21368(14)
O4 O 0.56437(18) 0.03344(19) 0.36749(13)
O5 O 1.18145(19) 0.56349(17) 0.04478(15)
O6 O 0.4278(3) 0.5584(3) 0.3437(3)
O7 O 0.8454(3) -0.38469(19) 0.3502(2)
C35? C 1.359(3) -0.067(2) 0.110(2)
H36? H 1.3671 -0.0577 0.0405
H37? H 1.4361 -0.0407 0.1210
C36? C 1.3584(14) -0.1961(13) 0.1406(16)
H38? H 1.3533 -0.2061 0.2091
H39? H 1.4388 -0.2443 0.1029
H40? H 1.2824 -0.2225 0.1298
loop_
_geom_bond_atom_site_label_1
_geom_bond_atom_site_label_2
_geom_bond_site_symmetry_1
_geom_bond_site_symmetry_2
C1 H1 1_555 1_555
C2 C1 1_555 1_555
C3 C2 1_555 1_555
H2 C3 1_555 1_555
C4 C3 1_555 1_555
C5 C4 1_555 1_555
H3 C5 1_555 1_555
C6 C5 1_555 1_555
C7 C6 1_555 1_555
H4 C7 1_555 1_555
C8 C7 1_555 1_555
C9 C8 1_555 1_555
H5 C9 1_555 1_555
C10 C9 1_555 1_555
H6 C10 1_555 1_555
C11 C6 1_555 1_555
H7 C11 1_555 1_555
C12 H8 1_555 1_555
H9 C12 1_555 1_555
H10 C12 1_555 1_555
C13 C1 1_555 1_555
C14 C13 1_555 1_555
H11 C14 1_555 1_555
C15 C14 1_555 1_555
C16 C15 1_555 1_555
H12 C16 1_555 1_555
C17 C16 1_555 1_555
H13 C17 1_555 1_555
C18 C13 1_555 1_555
H14 C18 1_555 1_555
C19 H15 1_555 1_555
H16 C19 1_555 1_555
H17 C19 1_555 1_555
C20 C3 1_555 1_555
C21 C20 1_555 1_555
H18 C21 1_555 1_555
C22 C21 1_555 1_555
C23 C22 1_555 1_555
H19 C23 1_555 1_555
C24 C23 1_555 1_555
H20 C24 1_555 1_555
C25 C20 1_555 1_555
H21 C25 1_555 1_555
C26 H22 1_555 1_555
H23 C26 1_555 1_555
H24 C26 1_555 1_555
C27 C2 1_555 1_555
C28 H25 1_555 1_555
H26 C28 1_555 1_555
C29 C28 1_555 1_555
H27 C29 1_555 1_555
H28 C29 1_555 1_555
H29 C29 1_555 1_555
C30 C4 1_555 1_555
C31 H30 1_555 1_555
H31 C31 1_555 1_555
C32 C31 1_555 1_555
H32 C32 1_555 1_555
H33 C32 1_555 1_555
H34 C32 1_555 1_555
C33 C4 1_555 1_555
C34 C2 1_555 1_555
H35 N1 1_555 1_555
N1 C1 1_555 1_555
N2 C33 1_555 1_555
N3 C34 1_555 1_555
O1 C30 1_555 1_555
O2 C30 1_555 1_555
O3 C27 1_555 1_555
O4 C27 1_555 1_555
O5 C8 1_555 1_555
O6 C15 1_555 1_555
O7 C22 1_555 1_555
C5 N1 1_555 1_555
C10 C11 1_555 1_555
C12 O5 1_555 1_555
C17 C18 1_555 1_555
C19 O6 1_555 1_555
C24 C25 1_555 1_555
C26 O7 1_555 1_555
C28 O4 1_555 1_555
C31 O2 1_555 1_555

#END
