
#######################################################################
#
#                 Cambridge Crystallographic Data Centre
#                                CCDC 
#
#######################################################################
#
# If this CIF has been generated from an entry in the Cambridge 
# Structural Database, then it will include bibliographic, chemical, 
# crystal, experimental, refinement or atomic coordinate data resulting 
# from the CCDC's data processing and validation procedures.
#
#######################################################################

data_BOBBOK
_chemical_formula_moiety         'C27 H34 O7'
_chemical_name_systematic        
"cis,cis-4-((Methoxycarbonyl)methyl)-dispiro(cyclohexane-1,3'-(1,2,4)trioxolane-5',2''-adamantan)-5''-yl 4-methylbenzoate"
_symmetry_cell_setting           monoclinic
_symmetry_space_group_name_H-M   'P 21/c'
_symmetry_Int_Tables_number      14
_space_group_name_Hall           '-P 2ybc'
loop_
_symmetry_equiv_pos_site_id
_symmetry_equiv_pos_as_xyz
1 x,y,z
2 -x,1/2+y,1/2-z
3 -x,-y,-z
4 x,1/2-y,1/2+z
_cell_length_a                   10.722(2)
_cell_length_b                   19.755(4)
_cell_length_c                   11.586(2)
_cell_angle_alpha                90
_cell_angle_beta                 94.22(3)
_cell_angle_gamma                90
_cell_volume                     2447.41
_exptl_crystal_colour            colorless
_cell_formula_units_Z            4
_exptl_crystal_recrystallization_method acetone
loop_
_atom_site_label
_atom_site_type_symbol
_atom_site_fract_x
_atom_site_fract_y
_atom_site_fract_z
O1 O 0.82572(17) -0.02033(9) 0.46730(17)
O2 O 0.65181(14) -0.05113(7) 0.35695(14)
O3 O 0.64483(13) 0.21860(7) 0.18431(13)
O4 O 0.77974(14) 0.17347(7) 0.32461(13)
O5 O 0.84496(13) 0.22385(8) 0.25700(13)
O6 O 0.8243(3) 0.51656(13) 0.4057(3)
O7 O 0.9559(2) 0.57493(10) 0.31537(19)
C1 C 0.9282(3) 0.63249(15) 0.3861(3)
H1 H 0.8422 0.6451 0.3706
H2 H 0.9810 0.6698 0.3683
H3 H 0.9431 0.6208 0.4663
C2 C 0.8991(2) 0.51905(14) 0.3326(3)
C3 C 0.9364(2) 0.46231(13) 0.2557(3)
H4 H 1.0109 0.4409 0.2916
H5 H 0.9581 0.4815 0.1828
C4 C 0.8364(2) 0.40745(11) 0.2301(2)
H6 H 0.7599 0.4300 0.1986
C5 C 0.8043(2) 0.36787(12) 0.3379(2)
H7 H 0.8790 0.3457 0.3717
H8 H 0.7752 0.3990 0.3947
C6 C 0.7032(2) 0.31470(12) 0.3078(2)
H9 H 0.6871 0.2894 0.3769
H10 H 0.6263 0.3372 0.2803
C7 C 0.74211(19) 0.26624(11) 0.21576(19)
C8 C 0.7816(2) 0.30271(12) 0.1083(2)
H11 H 0.7084 0.3224 0.0671
H12 H 0.8171 0.2701 0.0574
C9 C 0.8775(2) 0.35849(12) 0.1380(2)
H13 H 0.8914 0.3837 0.0683
H14 H 0.9563 0.3379 0.1654
C10 C 0.67384(19) 0.15665(11) 0.24561(19)
C11 C 0.70366(19) 0.10028(11) 0.16102(18)
H15 H 0.7736 0.1143 0.1166
C12 C 0.73920(19) 0.03576(11) 0.22924(19)
H16 H 0.7581 -0.0002 0.1763
H17 H 0.8131 0.0440 0.2808
C13 C 0.6305(2) 0.01471(11) 0.2992(2)
C14 C 0.5143(2) 0.00155(12) 0.2174(2)
H18 H 0.4454 -0.0124 0.2617
H19 H 0.5312 -0.0346 0.1641
C15 C 0.4787(2) 0.06644(12) 0.1494(2)
H20 H 0.4043 0.0579 0.0971
C16 C 0.4503(2) 0.12249(13) 0.2349(2)
H21 H 0.3808 0.1091 0.2788
H22 H 0.4272 0.1637 0.1930
C17 C 0.5673(2) 0.13527(11) 0.3177(2)
H23 H 0.5500 0.1715 0.3720
C18 C 0.6036(2) 0.07016(11) 0.3856(2)
H24 H 0.6772 0.0783 0.4376
H25 H 0.5358 0.0564 0.4313
C19 C 0.5876(2) 0.08771(12) 0.0783(2)
H26 H 0.6047 0.0523 0.0236
H27 H 0.5658 0.1286 0.0351
C20 C 0.7477(2) -0.06198(12) 0.4371(2)
C21 C 0.7457(2) -0.13240(11) 0.48364(19)
C22 C 0.8449(2) -0.15526(14) 0.5568(2)
H28 H 0.9135 -0.1272 0.5737
C23 C 0.8431(2) -0.21936(14) 0.6051(2)
H29 H 0.9114 -0.2340 0.6526
C24 C 0.7413(2) -0.26206(13) 0.5839(2)
C25 C 0.6429(2) -0.23975(13) 0.5093(2)
H30 H 0.5746 -0.2680 0.4925
C26 C 0.6444(2) -0.17561(12) 0.4590(2)
H31 H 0.5776 -0.1616 0.4089
C27 C 0.7366(3) -0.33119(15) 0.6407(3)
H32 H 0.8112 -0.3380 0.6904
H33 H 0.7308 -0.3656 0.5821
H34 H 0.6649 -0.3336 0.6855
loop_
_geom_bond_atom_site_label_1
_geom_bond_atom_site_label_2
_geom_bond_site_symmetry_1
_geom_bond_site_symmetry_2
O1 C20 1_555 1_555
O2 C13 1_555 1_555
O3 C7 1_555 1_555
O4 O5 1_555 1_555
O5 C7 1_555 1_555
O6 C2 1_555 1_555
O7 C1 1_555 1_555
C1 H1 1_555 1_555
H2 C1 1_555 1_555
H3 C1 1_555 1_555
C2 O7 1_555 1_555
C3 C2 1_555 1_555
H4 C3 1_555 1_555
H5 C3 1_555 1_555
C4 C3 1_555 1_555
H6 C4 1_555 1_555
C5 C4 1_555 1_555
H7 C5 1_555 1_555
H8 C5 1_555 1_555
C6 C5 1_555 1_555
H9 C6 1_555 1_555
H10 C6 1_555 1_555
C7 C6 1_555 1_555
C8 C7 1_555 1_555
H11 C8 1_555 1_555
H12 C8 1_555 1_555
C9 C4 1_555 1_555
H13 C9 1_555 1_555
H14 C9 1_555 1_555
C10 O3 1_555 1_555
C11 C10 1_555 1_555
H15 C11 1_555 1_555
C12 C11 1_555 1_555
H16 C12 1_555 1_555
H17 C12 1_555 1_555
C13 C12 1_555 1_555
C14 C13 1_555 1_555
H18 C14 1_555 1_555
H19 C14 1_555 1_555
C15 C14 1_555 1_555
H20 C15 1_555 1_555
C16 C15 1_555 1_555
H21 C16 1_555 1_555
H22 C16 1_555 1_555
C17 C10 1_555 1_555
H23 C17 1_555 1_555
C18 C13 1_555 1_555
H24 C18 1_555 1_555
H25 C18 1_555 1_555
C19 C11 1_555 1_555
H26 C19 1_555 1_555
H27 C19 1_555 1_555
C20 O2 1_555 1_555
C21 C20 1_555 1_555
C22 C21 1_555 1_555
H28 C22 1_555 1_555
C23 C22 1_555 1_555
H29 C23 1_555 1_555
C24 C23 1_555 1_555
C25 C24 1_555 1_555
H30 C25 1_555 1_555
C26 C21 1_555 1_555
H31 C26 1_555 1_555
C27 C24 1_555 1_555
H32 C27 1_555 1_555
H33 C27 1_555 1_555
H34 C27 1_555 1_555
O4 C10 1_555 1_555
C8 C9 1_555 1_555
C15 C19 1_555 1_555
C16 C17 1_555 1_555
C17 C18 1_555 1_555
C25 C26 1_555 1_555

#END
