
#######################################################################
#
#                 Cambridge Crystallographic Data Centre
#                                CCDC 
#
#######################################################################
#
# If this CIF has been generated from an entry in the Cambridge 
# Structural Database, then it will include bibliographic, chemical, 
# crystal, experimental, refinement or atomic coordinate data resulting 
# from the CCDC's data processing and validation procedures.
#
#######################################################################

data_BOBKUZ
_chemical_formula_moiety         'C22 H22 O2'
_chemical_name_systematic        
5-Methyl-2-phenyl-4-(2-phenylethynyl)-1-oxaspiro(2.5)oct-4-ol
_symmetry_cell_setting           monoclinic
_symmetry_space_group_name_H-M   'P 21/n'
_symmetry_Int_Tables_number      14
_space_group_name_Hall           '-P 2yn'
loop_
_symmetry_equiv_pos_site_id
_symmetry_equiv_pos_as_xyz
1 x,y,z
2 1/2-x,1/2+y,1/2-z
3 -x,-y,-z
4 1/2+x,1/2-y,1/2+z
_cell_length_a                   11.0854(18)
_cell_length_b                   10.6426(17)
_cell_length_c                   30.709(2)
_cell_angle_alpha                90
_cell_angle_beta                 98.078(2)
_cell_angle_gamma                90
_cell_volume                     3587.02
_chemical_melting_point          90-92deg.C
_cell_formula_units_Z            8
loop_
_atom_site_label
_atom_site_type_symbol
_atom_site_fract_x
_atom_site_fract_y
_atom_site_fract_z
O1 O 0.6068(2) 1.0809(2) 0.21423(7)
O2 O 0.43404(19) 0.8912(2) 0.20800(7)
H1 H 0.4506 0.8643 0.2332
C1 C 0.5213(3) 1.1122(3) 0.17555(11)
H2 H 0.4353 1.0992 0.1786
C2 C 0.5941(3) 0.9976(3) 0.17664(10)
C3 C 0.5347(3) 0.8710(3) 0.18467(10)
C4 C 0.6316(3) 0.7842(3) 0.20978(11)
H3 H 0.6601 0.8244 0.2381
C5 C 0.7409(3) 0.7718(3) 0.18519(13)
H4 H 0.7156 0.7310 0.1571
H5 H 0.8017 0.7188 0.2020
C6 C 0.7981(3) 0.8987(3) 0.17719(14)
H6 H 0.8323 0.9354 0.2051
H7 H 0.8637 0.8868 0.1598
C7 C 0.7036(3) 0.9877(3) 0.15328(12)
H8 H 0.7396 1.0702 0.1514
H9 H 0.6788 0.9574 0.1236
C8 C 0.5464(3) 1.2253(3) 0.15035(11)
C9 C 0.4760(3) 1.2463(4) 0.11043(13)
H10 H 0.4142 1.1901 0.1002
C10 C 0.4963(4) 1.3499(4) 0.08554(14)
H11 H 0.4483 1.3635 0.0586
C11 C 0.5874(4) 1.4329(4) 0.10060(15)
H12 H 0.6012 1.5030 0.0839
C12 C 0.6573(4) 1.4124(4) 0.13987(15)
H13 H 0.7191 1.4687 0.1499
C13 C 0.6379(3) 1.3091(3) 0.16502(13)
H14 H 0.6864 1.2959 0.1919
C14 C 0.4837(3) 0.8213(3) 0.14110(12)
C15 C 0.4379(3) 0.7928(3) 0.10526(12)
C16 C 0.3797(3) 0.7596(4) 0.06205(12)
C17 C 0.3638(5) 0.8485(5) 0.02924(14)
H15 H 0.3919 0.9299 0.0351
C18 C 0.3068(6) 0.8180(7) -0.01208(17)
H16 H 0.2957 0.8789 -0.0340
C19 C 0.2668(5) 0.6988(7) -0.02086(18)
H17 H 0.2299 0.6777 -0.0490
C20 C 0.2803(4) 0.6112(5) 0.01101(18)
H18 H 0.2513 0.5301 0.0049
C21 C 0.3367(4) 0.6407(4) 0.05256(14)
H19 H 0.3457 0.5794 0.0744
C22 C 0.5822(3) 0.6554(3) 0.21959(12)
H20 H 0.5514 0.6142 0.1925
H21 H 0.5176 0.6649 0.2371
H22 H 0.6463 0.6058 0.2353
O3 O 0.1040(2) 0.3008(2) 0.20848(7)
O4 O -0.06867(19) 0.4880(2) 0.20279(7)
H23 H -0.0546 0.5207 0.2272
C23 C 0.0180(3) 0.2667(3) 0.17043(11)
H24 H -0.0680 0.2783 0.1737
C24 C 0.0895(3) 0.3831(3) 0.17047(10)
C25 C 0.0313(3) 0.5093(3) 0.17931(11)
C26 C 0.1298(3) 0.5936(3) 0.20497(11)
H25 H 0.1572 0.5514 0.2330
C27 C 0.2404(3) 0.6040(3) 0.18062(12)
H26 H 0.2164 0.6458 0.1527
H27 H 0.3020 0.6554 0.1978
C28 C 0.2949(3) 0.4773(3) 0.17236(13)
H28 H 0.3266 0.4386 0.2002
H29 H 0.3621 0.4885 0.1556
C29 C 0.1997(3) 0.3918(3) 0.14718(12)
H30 H 0.1762 0.4246 0.1177
H31 H 0.2340 0.3087 0.1447
C30 C 0.0452(3) 0.1521(3) 0.14625(11)
C31 C -0.0301(3) 0.1193(3) 0.10848(12)
H32 H -0.0982 0.1682 0.0988
C32 C -0.0053(4) 0.0140(4) 0.08470(14)
H33 H -0.0561 -0.0072 0.0590
C33 C 0.0942(4) -0.0583(4) 0.09915(16)
H34 H 0.1114 -0.1286 0.0831
C34 C 0.1685(4) -0.0283(4) 0.13700(16)
H35 H 0.2354 -0.0785 0.1469
C35 C 0.1443(3) 0.0763(4) 0.16049(13)
H36 H 0.1952 0.0964 0.1863
C36 C -0.0199(3) 0.5656(3) 0.13665(12)
C37 C -0.0621(3) 0.6105(3) 0.10259(12)
C38 C -0.1107(3) 0.6672(3) 0.06131(11)
C39 C -0.0421(4) 0.6672(4) 0.02736(13)
H37 H 0.0339 0.6286 0.0309
C40 C -0.0863(5) 0.7244(6) -0.01199(15)
H38 H -0.0396 0.7241 -0.0349
C41 C -0.1960(6) 0.7804(5) -0.01761(18)
H39 H -0.2243 0.8189 -0.0443
C42 C -0.2654(5) 0.7812(5) 0.01530(17)
H40 H -0.3415 0.8197 0.0112
C43 C -0.2228(4) 0.7246(4) 0.05496(13)
H41 H -0.2705 0.7253 0.0776
C44 C 0.0836(3) 0.7227(3) 0.21600(13)
H42 H 0.0573 0.7679 0.1893
H43 H 0.1480 0.7683 0.2333
H44 H 0.0164 0.7134 0.2323
loop_
_geom_bond_atom_site_label_1
_geom_bond_atom_site_label_2
_geom_bond_site_symmetry_1
_geom_bond_site_symmetry_2
O1 C1 1_555 1_555
O2 H1 1_555 1_555
C1 H2 1_555 1_555
C2 O1 1_555 1_555
C3 O2 1_555 1_555
C4 C3 1_555 1_555
H3 C4 1_555 1_555
C5 C4 1_555 1_555
H4 C5 1_555 1_555
H5 C5 1_555 1_555
C6 C5 1_555 1_555
H6 C6 1_555 1_555
H7 C6 1_555 1_555
C7 C2 1_555 1_555
H8 C7 1_555 1_555
H9 C7 1_555 1_555
C8 C1 1_555 1_555
C9 C8 1_555 1_555
H10 C9 1_555 1_555
C10 C9 1_555 1_555
H11 C10 1_555 1_555
C11 C10 1_555 1_555
H12 C11 1_555 1_555
C12 C11 1_555 1_555
H13 C12 1_555 1_555
C13 C8 1_555 1_555
H14 C13 1_555 1_555
C14 C3 1_555 1_555
C15 C14 1_555 1_555
C16 C15 1_555 1_555
C17 C16 1_555 1_555
H15 C17 1_555 1_555
C18 C17 1_555 1_555
H16 C18 1_555 1_555
C19 C18 1_555 1_555
H17 C19 1_555 1_555
C20 C19 1_555 1_555
H18 C20 1_555 1_555
C21 C16 1_555 1_555
H19 C21 1_555 1_555
C22 C4 1_555 1_555
H20 C22 1_555 1_555
H21 C22 1_555 1_555
H22 C22 1_555 1_555
O3 C23 1_555 1_555
O4 H23 1_555 1_555
C23 H24 1_555 1_555
C24 O3 1_555 1_555
C25 O4 1_555 1_555
C26 C25 1_555 1_555
H25 C26 1_555 1_555
C27 C26 1_555 1_555
H26 C27 1_555 1_555
H27 C27 1_555 1_555
C28 C27 1_555 1_555
H28 C28 1_555 1_555
H29 C28 1_555 1_555
C29 C24 1_555 1_555
H30 C29 1_555 1_555
H31 C29 1_555 1_555
C30 C23 1_555 1_555
C31 C30 1_555 1_555
H32 C31 1_555 1_555
C32 C31 1_555 1_555
H33 C32 1_555 1_555
C33 C32 1_555 1_555
H34 C33 1_555 1_555
C34 C33 1_555 1_555
H35 C34 1_555 1_555
C35 C30 1_555 1_555
H36 C35 1_555 1_555
C36 C25 1_555 1_555
C37 C36 1_555 1_555
C38 C37 1_555 1_555
C39 C38 1_555 1_555
H37 C39 1_555 1_555
C40 C39 1_555 1_555
H38 C40 1_555 1_555
C41 C40 1_555 1_555
H39 C41 1_555 1_555
C42 C41 1_555 1_555
H40 C42 1_555 1_555
C43 C38 1_555 1_555
H41 C43 1_555 1_555
C44 C26 1_555 1_555
H42 C44 1_555 1_555
H43 C44 1_555 1_555
H44 C44 1_555 1_555
C1 C2 1_555 1_555
C2 C3 1_555 1_555
C6 C7 1_555 1_555
C12 C13 1_555 1_555
C20 C21 1_555 1_555
C23 C24 1_555 1_555
C24 C25 1_555 1_555
C28 C29 1_555 1_555
C34 C35 1_555 1_555
C42 C43 1_555 1_555

#END
