
#######################################################################
#
#                 Cambridge Crystallographic Data Centre
#                                CCDC 
#
#######################################################################
#
# If this CIF has been generated from an entry in the Cambridge 
# Structural Database, then it will include bibliographic, chemical, 
# crystal, experimental, refinement or atomic coordinate data resulting 
# from the CCDC's data processing and validation procedures.
#
#######################################################################

data_BOCWUN
_chemical_formula_moiety         'C11 H21 N2 1+,C5 H7 O4 1-'
_chemical_name_systematic        
'1,3-Di-t-butyl-1H-imidazol-3-ium bis(methoxycarbonyl)methanide'
_symmetry_cell_setting           monoclinic
_symmetry_space_group_name_H-M   'P 21/c'
_symmetry_Int_Tables_number      14
_space_group_name_Hall           '-P 2ybc'
loop_
_symmetry_equiv_pos_site_id
_symmetry_equiv_pos_as_xyz
1 x,y,z
2 -x,1/2+y,1/2-z
3 -x,-y,-z
4 x,1/2-y,1/2+z
_cell_length_a                   10.3046(10)
_cell_length_b                   14.9806(15)
_cell_length_c                   12.1361(12)
_cell_angle_alpha                90
_cell_angle_beta                 111.332(4)
_cell_angle_gamma                90
_cell_volume                     1745.09
_exptl_crystal_colour            colorless
_exptl_crystal_description       block
_cell_formula_units_Z            4
loop_
_atom_site_label
_atom_site_type_symbol
_atom_site_fract_x
_atom_site_fract_y
_atom_site_fract_z
O1 O 0.24369(10) 0.52397(7) 0.81049(9)
O2 O 0.46122(10) 0.55159(8) 0.81532(9)
C1 C 0.30914(16) 0.47149(11) 0.91415(14)
H1 H 0.2392 0.4451 0.9388
H2 H 0.3687 0.5088 0.9763
H3 H 0.3635 0.4252 0.8971
C2 C 0.33570(15) 0.56579(9) 0.76613(13)
C3 C 0.26478(15) 0.61999(10) 0.66870(13)
C4 C 0.33467(15) 0.67119(9) 0.61036(12)
C5 C 0.30426(17) 0.77680(11) 0.45620(15)
H4 H 0.2335 0.8097 0.3960
H5 H 0.3533 0.7394 0.4201
H6 H 0.3685 0.8176 0.5097
O3 O 0.24100(11) 0.72257(7) 0.51995(9)
O4 O 0.45912(11) 0.67645(8) 0.62743(10)
H7 H 0.167(2) 0.6227(12) 0.6435(16)
N1 N 0.17760(12) 0.43496(8) 0.20653(10)
N2 N 0.18464(12) 0.31054(8) 0.11726(10)
C6 C 0.26143(15) 0.37740(10) 0.18078(13)
C7 C 0.04306(16) 0.40307(11) 0.15840(14)
H8 H -0.0361 0.4299 0.1633
C8 C 0.04762(15) 0.32595(11) 0.10309(14)
H9 H -0.0279 0.2896 0.0627
C9 C 0.22335(15) 0.52290(10) 0.27009(13)
C10 C 0.10467(19) 0.55951(14) 0.30250(19)
H10 H 0.0842 0.5186 0.3549
H11 H 0.0236 0.5669 0.2321
H12 H 0.1311 0.6162 0.3410
C11 C 0.2593(2) 0.58543(12) 0.18624(15)
H13 H 0.3345 0.5605 0.1673
H14 H 0.2869 0.6424 0.2236
H15 H 0.1792 0.5927 0.1150
C12 C 0.35083(17) 0.50650(11) 0.38027(14)
H16 H 0.3270 0.4671 0.4324
H17 H 0.3835 0.5622 0.4197
H18 H 0.4228 0.4798 0.3585
C13 C 0.23347(16) 0.23033(10) 0.06861(14)
C14 C 0.1954(3) 0.14804(12) 0.1222(2)
H19 H 0.2453 0.1481 0.2062
H20 H 0.2196 0.0957 0.0883
H21 H 0.0970 0.1480 0.1062
C15 C 0.38702(19) 0.23950(14) 0.0939(2)
H22 H 0.4369 0.2396 0.1778
H23 H 0.4042 0.2944 0.0608
H24 H 0.4180 0.1903 0.0591
C16 C 0.1544(2) 0.23032(13) -0.06541(16)
H25 H 0.0564 0.2239 -0.0818
H26 H 0.1861 0.1815 -0.1003
H27 H 0.1711 0.2855 -0.0982
H28 H 0.359(2) 0.3834(12) 0.2038(16)
loop_
_geom_bond_atom_site_label_1
_geom_bond_atom_site_label_2
_geom_bond_site_symmetry_1
_geom_bond_site_symmetry_2
O1 C1 1_555 1_555
O2 C2 1_555 1_555
C1 H1 1_555 1_555
H2 C1 1_555 1_555
H3 C1 1_555 1_555
C2 O1 1_555 1_555
C3 C2 1_555 1_555
C4 C3 1_555 1_555
C5 H4 1_555 1_555
H5 C5 1_555 1_555
H6 C5 1_555 1_555
O3 C4 1_555 1_555
O4 C4 1_555 1_555
H7 C3 1_555 1_555
N1 C6 1_555 1_555
N2 C6 1_555 1_555
C6 H28 1_555 1_555
C7 N1 1_555 1_555
H8 C7 1_555 1_555
C8 N2 1_555 1_555
H9 C8 1_555 1_555
C9 N1 1_555 1_555
C10 C9 1_555 1_555
H10 C10 1_555 1_555
H11 C10 1_555 1_555
H12 C10 1_555 1_555
C11 C9 1_555 1_555
H13 C11 1_555 1_555
H14 C11 1_555 1_555
H15 C11 1_555 1_555
C12 C9 1_555 1_555
H16 C12 1_555 1_555
H17 C12 1_555 1_555
H18 C12 1_555 1_555
C13 N2 1_555 1_555
C14 C13 1_555 1_555
H19 C14 1_555 1_555
H20 C14 1_555 1_555
H21 C14 1_555 1_555
C15 C13 1_555 1_555
H22 C15 1_555 1_555
H23 C15 1_555 1_555
H24 C15 1_555 1_555
C16 C13 1_555 1_555
H25 C16 1_555 1_555
H26 C16 1_555 1_555
H27 C16 1_555 1_555
C5 O3 1_555 1_555
C7 C8 1_555 1_555

#END
