
#######################################################################
#
#                 Cambridge Crystallographic Data Centre
#                                CCDC 
#
#######################################################################
#
# If this CIF has been generated from an entry in the Cambridge 
# Structural Database, then it will include bibliographic, chemical, 
# crystal, experimental, refinement or atomic coordinate data resulting 
# from the CCDC's data processing and validation procedures.
#
#######################################################################

data_BODCEE
_chemical_formula_moiety         'C81 H57 N15,C60'
_chemical_name_systematic        
'2,14,26-Trimethyl-8,20,32-tris(pyren-1-ylmethyl)-2,4,6,8,14,16,18,20,26,28,30,32,37,39,41-pentadeca-azaheptacyclo[31.3.1.1^3,7^.1^9,13^.1^15,19^.1^21,25^.1^27,31^]dotetraconta-1(37),3(42),4,6,9(41),10,12,15(40),16,18,21(39),22,24,27(38),28,30,33,35-octadecaene C60fullerene unknown solvate'
_symmetry_cell_setting           trigonal
_symmetry_space_group_name_H-M   'P -3 c 1'
_symmetry_Int_Tables_number      165
_space_group_name_Hall           '-P 3 2"c'
loop_
_symmetry_equiv_pos_site_id
_symmetry_equiv_pos_as_xyz
1 x,y,z
2 -y,x-y,z
3 -x+y,-x,z
4 y,x,1/2-z
5 x-y,-y,1/2-z
6 -x,-x+y,1/2-z
7 -x,-y,-z
8 y,-x+y,-z
9 x-y,x,-z
10 -y,-x,1/2+z
11 -x+y,y,1/2+z
12 x,x-y,1/2+z
_cell_length_a                   21.571(3)
_cell_length_b                   21.571(3)
_cell_length_c                   27.870(6)
_cell_angle_alpha                90
_cell_angle_beta                 90
_cell_angle_gamma                120
_cell_volume                     11230.7
_exptl_crystal_colour            black
_exptl_crystal_description       block
_cell_formula_units_Z            4
loop_
_atom_site_label
_atom_site_type_symbol
_atom_site_fract_x
_atom_site_fract_y
_atom_site_fract_z
N1 N 0.44101(14) 0.42075(14) 0.39394(11)
N2 N 0.56034(14) 0.47759(13) 0.37488(9)
N3 N 0.68449(13) 0.52904(12) 0.37062(9)
N4 N 0.80796(14) 0.58943(14) 0.37197(11)
N5 N 0.92636(14) 0.63410(14) 0.39333(13)
C1 C 0.38004(18) 0.36084(19) 0.40037(15)
H1 H 0.3410 0.3659 0.4112
C2 C 0.49669(17) 0.41397(16) 0.37855(12)
C3 C 0.48940(15) 0.34866(16) 0.36859(11)
H2 H 0.5283 0.3446 0.3562
C4 C 0.62202(16) 0.48392(16) 0.35100(11)
C5 C 0.61716(18) 0.44918(19) 0.30692(11)
H3 H 0.5722 0.4176 0.2927
C6 C 0.67935(19) 0.4629(2) 0.28591(13)
H4 H 0.6776 0.4404 0.2562
C7 C 0.7440(2) 0.50757(19) 0.30575(13)
H5 H 0.7873 0.5165 0.2910
C8 C 0.74348(17) 0.54034(16) 0.34967(11)
C9 C 0.86525(17) 0.57852(17) 0.37740(12)
C10 C 0.8079(2) 0.6471(2) 0.4007(2)
H6 H 0.7953 0.6311 0.4340
H7 H 0.7726 0.6585 0.3875
H8 H 0.8555 0.6898 0.3997
C11 C 0.57390(18) 0.53709(17) 0.40672(11)
H9 H 0.6109 0.5439 0.4305
H10 H 0.5295 0.5249 0.4245
C12 C 0.59860(16) 0.60640(16) 0.37957(12)
C13 C 0.5824(2) 0.6065(2) 0.33228(13)
H11 H 0.5570 0.5621 0.3159
C14 C 0.6015(2) 0.6690(2) 0.30732(15)
H12 H 0.5904 0.6668 0.2742
C15 C 0.6377(2) 0.7363(2) 0.33104(18)
C16 C 0.6598(3) 0.8028(3) 0.3055(2)
H13 H 0.6510 0.8037 0.2722
C17 C 0.6952(3) 0.8660(3) 0.3331(3)
H14 H 0.7079 0.9100 0.3176
C18 C 0.7128(3) 0.8689(2) 0.3812(3)
C19 C 0.7497(3) 0.9345(2) 0.4098(3)
H15 H 0.7626 0.9793 0.3956
C20 C 0.7658(4) 0.9312(3) 0.4567(3)
H16 H 0.7955 0.9741 0.4738
C21 C 0.7403(3) 0.8688(2) 0.4784(3)
H17 H 0.7460 0.8685 0.5122
C22 C 0.7066(2) 0.8051(2) 0.4553(2)
C23 C 0.6830(2) 0.7388(2) 0.47922(18)
H18 H 0.6913 0.7385 0.5127
C24 C 0.64950(19) 0.6768(2) 0.45532(14)
H19 H 0.6347 0.6337 0.4726
C25 C 0.63481(15) 0.67209(16) 0.40485(12)
C26 C 0.6553(2) 0.7381(2) 0.37965(17)
C27 C 0.6911(2) 0.8032(2) 0.4059(2)
N1A N 0.57925(14) 0.02026(20) 0.39394(11)
N2A N 0.52241(13) 0.08275(19) 0.37488(9)
N3A N 0.47096(12) 0.15545(18) 0.37062(9)
N4A N 0.41057(14) 0.21853(20) 0.37197(11)
N5A N 0.36590(14) 0.29226(20) 0.39333(13)
C1A C 0.63916(19) 0.01920(26) 0.40037(15)
H1A H 0.6341 -0.0249 0.4112
C2A C 0.58603(16) 0.08272(23) 0.37855(12)
C3A C 0.65134(16) 0.14074(22) 0.36859(11)
H2A H 0.6554 0.1837 0.3562
C4A C 0.51608(16) 0.13810(23) 0.35100(11)
C5A C 0.55082(19) 0.16798(26) 0.30692(11)
H3A H 0.5824 0.1546 0.2927
C6A C 0.5371(2) 0.21645(28) 0.28591(13)
H4A H 0.5596 0.2372 0.2562
C7A C 0.49243(19) 0.23643(28) 0.30575(13)
H5A H 0.4835 0.2708 0.2910
C8A C 0.45966(16) 0.20314(23) 0.34967(11)
C9A C 0.42148(17) 0.28673(24) 0.37740(12)
C10A C 0.3529(2) 0.1608(3) 0.4007(2)
H6A H 0.3689 0.1642 0.4340
H7A H 0.3415 0.1141 0.3875
H8A H 0.3102 0.1657 0.3997
C11A C 0.46291(17) 0.03681(25) 0.40672(11)
H9A H 0.4561 0.0670 0.4305
H10A H 0.4751 0.0046 0.4245
C12A C 0.39360(16) -0.00780(23) 0.37957(12)
C13A C 0.3935(2) -0.0241(3) 0.33228(13)
H11A H 0.4379 -0.0051 0.3159
C14A C 0.3310(2) -0.0675(3) 0.30732(15)
H12A H 0.3332 -0.0764 0.2742
C15A C 0.2637(2) -0.0986(3) 0.33104(18)
C16A C 0.1972(3) -0.1430(4) 0.3055(2)
H13A H 0.1963 -0.1527 0.2722
C17A C 0.1340(3) -0.1708(4) 0.3331(3)
H14A H 0.0900 -0.2021 0.3176
C18A C 0.1311(2) -0.1561(4) 0.3812(3)
C19A C 0.0655(2) -0.1848(4) 0.4098(3)
H15A H 0.0207 -0.2167 0.3956
C20A C 0.0688(3) -0.1654(5) 0.4567(3)
H16A H 0.0259 -0.1786 0.4738
C21A C 0.1312(2) -0.1285(4) 0.4784(3)
H17A H 0.1315 -0.1225 0.5122
C22A C 0.1949(2) -0.0985(3) 0.4553(2)
C23A C 0.2612(2) -0.0558(3) 0.47922(18)
H18A H 0.2615 -0.0472 0.5127
C24A C 0.3232(2) -0.02730(28) 0.45532(14)
H19A H 0.3663 0.0010 0.4726
C25A C 0.32791(16) -0.03728(22) 0.40485(12)
C26A C 0.2619(2) -0.0828(3) 0.37965(17)
C27A C 0.1968(2) -0.1121(3) 0.4059(2)
N1B N 0.97974(20) 0.55899(14) 0.39394(11)
N2B N 0.91725(19) 0.43966(14) 0.37488(9)
N3B N 0.84455(18) 0.31551(13) 0.37062(9)
N4B N 0.78147(20) 0.19204(14) 0.37197(11)
N5B N 0.70774(20) 0.07364(14) 0.39333(13)
C1B C 0.98080(26) 0.61996(18) 0.40037(15)
H1B H 1.0249 0.6590 0.4112
C2B C 0.91728(23) 0.50331(17) 0.37855(12)
C3B C 0.85926(22) 0.51060(15) 0.36859(11)
H2B H 0.8163 0.4717 0.3562
C4B C 0.86190(23) 0.37798(16) 0.35100(11)
C5B C 0.83202(26) 0.38284(18) 0.30692(11)
H3B H 0.8454 0.4278 0.2927
C6B C 0.78355(28) 0.32065(19) 0.28591(13)
H4B H 0.7628 0.3224 0.2562
C7B C 0.76357(28) 0.2560(2) 0.30575(13)
H5B H 0.7292 0.2127 0.2910
C8B C 0.79686(23) 0.25652(17) 0.34967(11)
C9B C 0.71327(24) 0.13475(17) 0.37740(12)
C10B C 0.8392(3) 0.1921(2) 0.4007(2)
H6B H 0.8358 0.2047 0.4340
H7B H 0.8859 0.2274 0.3875
H8B H 0.8343 0.1445 0.3997
C11B C 0.96319(25) 0.42610(18) 0.40672(11)
H9B H 0.9330 0.3891 0.4305
H10B H 0.9954 0.4705 0.4245
C12B C 1.00780(23) 0.40140(16) 0.37957(12)
C13B C 1.0241(3) 0.4176(2) 0.33228(13)
H11B H 1.0051 0.4430 0.3159
C14B C 1.0675(3) 0.3985(2) 0.30732(15)
H12B H 1.0764 0.4096 0.2742
C15B C 1.0986(3) 0.3623(2) 0.33104(18)
C16B C 1.1430(4) 0.3402(3) 0.3055(2)
H13B H 1.1527 0.3490 0.2722
C17B C 1.1708(4) 0.3048(3) 0.3331(3)
H14B H 1.2021 0.2921 0.3176
C18B C 1.1561(4) 0.2872(3) 0.3812(3)
C19B C 1.1848(4) 0.2503(3) 0.4098(3)
H15B H 1.2167 0.2374 0.3956
C20B C 1.1654(5) 0.2342(4) 0.4567(3)
H16B H 1.1786 0.2045 0.4738
C21B C 1.1285(4) 0.2597(3) 0.4784(3)
H17B H 1.1225 0.2540 0.5122
C22B C 1.0985(3) 0.2934(2) 0.4553(2)
C23B C 1.0558(3) 0.3170(2) 0.47922(18)
H18B H 1.0472 0.3087 0.5127
C24B C 1.02730(28) 0.35050(19) 0.45532(14)
H19B H 0.9990 0.3653 0.4726
C25B C 1.03728(22) 0.36519(15) 0.40485(12)
C26B C 1.0828(3) 0.3447(2) 0.37965(17)
C27B C 1.1121(3) 0.3089(2) 0.4059(2)
C28 C 0.59129(17) 0.30028(18) 0.43605(11)
C29 C 0.63076(19) 0.37292(19) 0.43675(11)
C30 C 0.61046(18) 0.41477(18) 0.46568(13)
C31 C 0.54960(19) 0.3799(2) 0.49499(14)
C32 C 0.50746(18) 0.3031(2) 0.49449(13)
C33 C 0.52799(17) 0.26334(19) 0.46590(14)
C34 C 0.48349(17) 0.2811(2) 0.54420(16)
C35 C 0.50983(19) 0.3422(2) 0.57310(15)
C36 C 0.5513(2) 0.40471(19) 0.54335(14)
C37 C 0.6132(2) 0.4631(2) 0.56028(14)
C38 C 0.6760(2) 0.50040(18) 0.53031(13)
C39 C 0.67551(19) 0.47537(17) 0.48366(13)
C40 C 0.7379(2) 0.52061(16) 0.56119(14)
C41 C 0.7153(2) 0.49883(19) 0.60939(15)
C42 C 0.7481(2) 0.4722(2) 0.63834(13)
C43 C 0.7076(2) 0.4101(2) 0.66821(13)
C44 C 0.6320(2) 0.3759(2) 0.66854(12)
C45 C 0.5973(2) 0.4029(2) 0.63871(13)
C46 C 0.5322(2) 0.3415(2) 0.61975(14)
C47 C 0.6353(2) 0.4622(2) 0.60959(14)
C28A C 0.69972(18) 0.29101(25) 0.43605(11)
C29A C 0.62708(19) 0.25784(27) 0.43675(11)
C30A C 0.58523(18) 0.19569(25) 0.46568(13)
C31A C 0.6201(2) 0.16970(28) 0.49499(14)
C32A C 0.6969(2) 0.20436(27) 0.49449(13)
C33A C 0.73666(19) 0.26465(25) 0.46590(14)
C34A C 0.7189(2) 0.20239(26) 0.54420(16)
C35A C 0.6578(2) 0.16763(28) 0.57310(15)
C36A C 0.59529(19) 0.14659(28) 0.54335(14)
C37A C 0.5369(2) 0.1501(3) 0.56028(14)
C38A C 0.49960(18) 0.17560(27) 0.53031(13)
C39A C 0.52463(17) 0.20014(25) 0.48366(13)
C40A C 0.47939(16) 0.21729(26) 0.56119(14)
C41A C 0.50117(19) 0.21647(28) 0.60939(15)
C42A C 0.5278(2) 0.2759(3) 0.63834(13)
C43A C 0.5899(2) 0.2975(3) 0.66821(13)
C44A C 0.6241(2) 0.2561(3) 0.66854(12)
C45A C 0.5971(2) 0.1944(3) 0.63871(13)
C46A C 0.6585(2) 0.1907(3) 0.61975(14)
C47A C 0.5378(2) 0.1731(3) 0.60959(14)
C28B C 0.70899(25) 0.40871(17) 0.43605(11)
C29B C 0.74216(27) 0.36924(19) 0.43675(11)
C30B C 0.80431(25) 0.38954(18) 0.46568(13)
C31B C 0.83030(28) 0.45040(19) 0.49499(14)
C32B C 0.79564(27) 0.49254(18) 0.49449(13)
C33B C 0.73535(25) 0.47201(17) 0.46590(14)
C34B C 0.79761(26) 0.51651(17) 0.54420(16)
C35B C 0.83237(28) 0.49017(19) 0.57310(15)
C36B C 0.85341(28) 0.4487(2) 0.54335(14)
C37B C 0.8499(3) 0.3868(2) 0.56028(14)
C38B C 0.82440(27) 0.3240(2) 0.53031(13)
C39B C 0.79986(25) 0.32449(19) 0.48366(13)
C40B C 0.78271(26) 0.2621(2) 0.56119(14)
C41B C 0.78353(28) 0.2847(2) 0.60939(15)
C42B C 0.7241(3) 0.2519(2) 0.63834(13)
C43B C 0.7025(3) 0.2924(2) 0.66821(13)
C44B C 0.7439(3) 0.3680(2) 0.66854(12)
C45B C 0.8056(3) 0.4027(2) 0.63871(13)
C46B C 0.8093(3) 0.4678(2) 0.61975(14)
C47B C 0.8269(3) 0.3647(2) 0.60959(14)
loop_
_geom_bond_atom_site_label_1
_geom_bond_atom_site_label_2
_geom_bond_site_symmetry_1
_geom_bond_site_symmetry_2
N1 C1 1_555 1_555
N2 C2 1_555 1_555
N3 C4 1_555 1_555
N4 C8 1_555 1_555
N5 C9 1_555 1_555
C1 H1 1_555 1_555
C2 N1 1_555 1_555
C3 C2 1_555 1_555
H2 C3 1_555 1_555
C4 N2 1_555 1_555
C5 C4 1_555 1_555
H3 C5 1_555 1_555
C6 C5 1_555 1_555
H4 C6 1_555 1_555
C7 C6 1_555 1_555
H5 C7 1_555 1_555
C8 N3 1_555 1_555
C9 N4 1_555 1_555
C10 N4 1_555 1_555
H6 C10 1_555 1_555
H7 C10 1_555 1_555
H8 C10 1_555 1_555
C11 N2 1_555 1_555
H9 C11 1_555 1_555
H10 C11 1_555 1_555
C12 C11 1_555 1_555
C13 C12 1_555 1_555
H11 C13 1_555 1_555
C14 C13 1_555 1_555
H12 C14 1_555 1_555
C15 C14 1_555 1_555
C16 C15 1_555 1_555
H13 C16 1_555 1_555
C17 C16 1_555 1_555
H14 C17 1_555 1_555
C18 C17 1_555 1_555
C19 C18 1_555 1_555
H15 C19 1_555 1_555
C20 C19 1_555 1_555
H16 C20 1_555 1_555
C21 C20 1_555 1_555
H17 C21 1_555 1_555
C22 C21 1_555 1_555
C23 C22 1_555 1_555
H18 C23 1_555 1_555
C24 C23 1_555 1_555
H19 C24 1_555 1_555
C25 C12 1_555 1_555
C26 C15 1_555 1_555
C27 C18 1_555 1_555
C28 C29 1_555 1_555
C29 C30 1_555 1_555
C30 C31 1_555 1_555
C31 C32 1_555 1_555
C32 C33 1_555 1_555
C33 C28 1_555 1_555
C34 C32 1_555 1_555
C35 C34 1_555 1_555
C36 C31 1_555 1_555
C37 C36 1_555 1_555
C38 C37 1_555 1_555
C39 C30 1_555 1_555
C40 C38 1_555 1_555
C41 C40 1_555 1_555
C42 C41 1_555 1_555
C43 C42 1_555 1_555
C44 C43 1_555 1_555
C45 C44 1_555 1_555
C46 C35 1_555 1_555
C47 C37 1_555 1_555
N1A C1A 1_555 1_555
N2A C2A 1_555 1_555
N3A C4A 1_555 1_555
N4A C8A 1_555 1_555
N5A C1 1_555 1_555
C1A H1A 1_555 1_555
C2A N1A 1_555 1_555
C3A C2A 1_555 1_555
H2A C3A 1_555 1_555
C4A N2A 1_555 1_555
C5A C4A 1_555 1_555
H3A C5A 1_555 1_555
C6A C5A 1_555 1_555
H4A C6A 1_555 1_555
C7A C6A 1_555 1_555
H5A C7A 1_555 1_555
C8A N3A 1_555 1_555
C9A C3 1_555 1_555
C10A N4A 1_555 1_555
H6A C10A 1_555 1_555
H7A C10A 1_555 1_555
H8A C10A 1_555 1_555
C11A N2A 1_555 1_555
H9A C11A 1_555 1_555
H10A C11A 1_555 1_555
C12A C11A 1_555 1_555
C13A C12A 1_555 1_555
H11A C13A 1_555 1_555
C14A C13A 1_555 1_555
H12A C14A 1_555 1_555
C15A C14A 1_555 1_555
C16A C15A 1_555 1_555
H13A C16A 1_555 1_555
C17A C16A 1_555 1_555
H14A C17A 1_555 1_555
C18A C17A 1_555 1_555
C19A C18A 1_555 1_555
H15A C19A 1_555 1_555
C20A C19A 1_555 1_555
H16A C20A 1_555 1_555
C21A C20A 1_555 1_555
H17A C21A 1_555 1_555
C22A C21A 1_555 1_555
C23A C22A 1_555 1_555
H18A C23A 1_555 1_555
C24A C23A 1_555 1_555
H19A C24A 1_555 1_555
C25A C12A 1_555 1_555
C26A C15A 1_555 1_555
C27A C18A 1_555 1_555
N1B C1B 1_555 1_555
N2B C2B 1_555 1_555
N3B C4B 1_555 1_555
N4B C8B 1_555 1_555
N5B C1A 1_555 1_555
C1B N5 1_555 1_555
H1B C1B 1_555 1_555
C2B N1B 1_555 1_555
C3B C9 1_555 1_555
H2B C3B 1_555 1_555
C4B N2B 1_555 1_555
C5B C4B 1_555 1_555
H3B C5B 1_555 1_555
C6B C5B 1_555 1_555
H4B C6B 1_555 1_555
C7B C6B 1_555 1_555
H5B C7B 1_555 1_555
C8B N3B 1_555 1_555
C9B C3A 1_555 1_555
C10B N4B 1_555 1_555
H6B C10B 1_555 1_555
H7B C10B 1_555 1_555
H8B C10B 1_555 1_555
C11B N2B 1_555 1_555
H9B C11B 1_555 1_555
H10B C11B 1_555 1_555
C12B C11B 1_555 1_555
C13B C12B 1_555 1_555
H11B C13B 1_555 1_555
C14B C13B 1_555 1_555
H12B C14B 1_555 1_555
C15B C14B 1_555 1_555
C16B C15B 1_555 1_555
H13B C16B 1_555 1_555
C17B C16B 1_555 1_555
H14B C17B 1_555 1_555
C18B C17B 1_555 1_555
C19B C18B 1_555 1_555
H15B C19B 1_555 1_555
C20B C19B 1_555 1_555
H16B C20B 1_555 1_555
C21B C20B 1_555 1_555
H17B C21B 1_555 1_555
C22B C21B 1_555 1_555
C23B C22B 1_555 1_555
H18B C23B 1_555 1_555
C24B C23B 1_555 1_555
H19B C24B 1_555 1_555
C25B C12B 1_555 1_555
C26B C15B 1_555 1_555
C27B C18B 1_555 1_555
C28A C29A 1_555 1_555
C29A C28 1_555 1_555
C30A C29A 1_555 1_555
C31A C30A 1_555 1_555
C32A C31A 1_555 1_555
C33A C28A 1_555 1_555
C34A C32A 1_555 1_555
C35A C34A 1_555 1_555
C36A C31A 1_555 1_555
C37A C36A 1_555 1_555
C38A C37A 1_555 1_555
C39A C33 1_555 1_555
C40A C34 1_555 1_555
C41A C40A 1_555 1_555
C42A C46 1_555 1_555
C43A C44 1_555 1_555
C44A C43A 1_555 1_555
C45A C44A 1_555 1_555
C46A C35A 1_555 1_555
C47A C37A 1_555 1_555
C28B C29 1_555 1_555
C29B C28A 1_555 1_555
C30B C29B 1_555 1_555
C31B C30B 1_555 1_555
C32B C31B 1_555 1_555
C33B C39 1_555 1_555
C34B C40 1_555 1_555
C35B C34B 1_555 1_555
C36B C31B 1_555 1_555
C37B C36B 1_555 1_555
C38B C37B 1_555 1_555
C39B C33A 1_555 1_555
C40B C34A 1_555 1_555
C41B C40B 1_555 1_555
C42B C46A 1_555 1_555
C43B C44A 1_555 1_555
C44B C43 1_555 1_555
C45B C44B 1_555 1_555
C46B C42 1_555 1_555
C47B C37B 1_555 1_555
C7 C8 1_555 1_555
C22 C27 1_555 1_555
C24 C25 1_555 1_555
C25 C26 1_555 1_555
C26 C27 1_555 1_555
C35 C36 1_555 1_555
C38 C39 1_555 1_555
C41 C47 1_555 1_555
C45 C46 1_555 1_555
C45 C47 1_555 1_555
N4A C9A 1_555 1_555
N5A C9A 1_555 1_555
C7A C8A 1_555 1_555
C22A C27A 1_555 1_555
C24A C25A 1_555 1_555
C25A C26A 1_555 1_555
C26A C27A 1_555 1_555
N4B C9B 1_555 1_555
N5B C9B 1_555 1_555
C2B C3B 1_555 1_555
C7B C8B 1_555 1_555
C22B C27B 1_555 1_555
C24B C25B 1_555 1_555
C25B C26B 1_555 1_555
C26B C27B 1_555 1_555
C30A C39A 1_555 1_555
C32A C33A 1_555 1_555
C35A C36A 1_555 1_555
C38A C39A 1_555 1_555
C38A C40A 1_555 1_555
C41A C42A 1_555 1_555
C41A C47A 1_555 1_555
C42A C43A 1_555 1_555
C45A C46A 1_555 1_555
C45A C47A 1_555 1_555
C28B C29B 1_555 1_555
C28B C33B 1_555 1_555
C30B C39B 1_555 1_555
C32B C33B 1_555 1_555
C32B C34B 1_555 1_555
C35B C36B 1_555 1_555
C35B C46B 1_555 1_555
C38B C39B 1_555 1_555
C38B C40B 1_555 1_555
C41B C42B 1_555 1_555
C41B C47B 1_555 1_555
C42B C43B 1_555 1_555
C43B C44B 1_555 1_555
C45B C46B 1_555 1_555
C45B C47B 1_555 1_555

#END
