
#######################################################################
#
#                 Cambridge Crystallographic Data Centre
#                                CCDC 
#
#######################################################################
#
# If this CIF has been generated from an entry in the Cambridge 
# Structural Database, then it will include bibliographic, chemical, 
# crystal, experimental, refinement or atomic coordinate data resulting 
# from the CCDC's data processing and validation procedures.
#
#######################################################################

data_BODDEF
_chemical_formula_moiety         'C39 H39 N15,0.5(C60)'
_chemical_name_systematic        
'2,14,26-Triallyl-8,20,32-trimethyl-2,4,6,8,14,16,18,20,26,28,30,32,37,39,41-pentadeca-azaheptacyclo[31.3.1.1^3,7^.1^9,13^.1^15,19^.1^21,25^.1^27,31^]dotetraconta-1(37),3(42),4,6,9(41),10,12,15(40),16,18,21(39),22,24,27(38),28,30,33,35-octadecaene hemikis(C60fullerene) unknown solvate'
_symmetry_cell_setting           rhombohedral
_symmetry_space_group_name_H-M   'R -3'
_symmetry_Int_Tables_number      148
_space_group_name_Hall           '-R 3'
loop_
_symmetry_equiv_pos_site_id
_symmetry_equiv_pos_as_xyz
1 x,y,z
2 -y,x-y,z
3 -x+y,-x,z
4 2/3+x,1/3+y,1/3+z
5 2/3-y,1/3+x-y,1/3+z
6 2/3-x+y,1/3-x,1/3+z
7 1/3+x,2/3+y,2/3+z
8 1/3-y,2/3+x-y,2/3+z
9 1/3-x+y,2/3-x,2/3+z
10 -x,-y,-z
11 y,-x+y,-z
12 x-y,x,-z
13 1/3-x,2/3-y,2/3-z
14 1/3+y,2/3-x+y,2/3-z
15 1/3+x-y,2/3+x,2/3-z
16 2/3-x,1/3-y,1/3-z
17 2/3+y,1/3-x+y,1/3-z
18 2/3+x-y,1/3+x,1/3-z
_cell_length_a                   15.210(2)
_cell_length_b                   15.210(2)
_cell_length_c                   44.815(9)
_cell_angle_alpha                90
_cell_angle_beta                 90
_cell_angle_gamma                120
_cell_volume                     8978.68
_exptl_crystal_colour            colorless
_exptl_crystal_description       plate
_cell_formula_units_Z            6
loop_
_atom_site_label
_atom_site_type_symbol
_atom_site_fract_x
_atom_site_fract_y
_atom_site_fract_z
N1 N 0.1149(3) -0.1889(3) 0.11375(8)
N2 N 0.2793(3) -0.0535(3) 0.11012(8)
N3 N 0.4342(3) 0.0877(3) 0.09848(8)
N4 N 0.4627(3) 0.2565(3) 0.10174(8)
N5 N 0.3342(2) 0.2889(3) 0.11410(8)
C1 C 0.0243(3) -0.2404(3) 0.12736(10)
C2 C 0.0027(3) -0.2051(3) 0.15354(10)
H1 H -0.0622 -0.2414 0.1627
C3 C 0.0781(4) -0.1160(4) 0.16570(10)
H2 H 0.0651 -0.0909 0.1836
C4 C 0.1710(3) -0.0634(3) 0.15265(10)
H3 H 0.2235 -0.0024 0.1611
C5 C 0.1860(3) -0.1033(3) 0.12588(9)
C6 C 0.3090(4) -0.1170(4) 0.09256(14)
H4 H 0.2495 -0.1669 0.0809
H5 H 0.3626 -0.0730 0.0782
C7 C 0.3456(5) -0.1706(5) 0.1104(2)
H6 H 0.3521 -0.2226 0.1008
C8 C 0.3698(7) -0.1554(7) 0.1376(3)
H7 H 0.3646 -0.1042 0.1482
H8 H 0.3933 -0.1951 0.1474
C9 C 0.3383(3) 0.0508(3) 0.10801(9)
C10 C 0.3006(3) 0.1156(3) 0.11429(9)
H9 H 0.2329 0.0898 0.1210
C11 C 0.3653(3) 0.2190(3) 0.11037(9)
C12 C 0.4901(3) 0.1879(3) 0.09619(11)
H10 H 0.5581 0.2137 0.0898
C13 C 0.3909(4) 0.3878(4) 0.09879(15)
H11 H 0.4633 0.4189 0.1036
H12 H 0.3657 0.4326 0.1055
H13 H 0.3814 0.3776 0.0772
N1A N 0.1889(3) 0.3038(4) 0.11375(8)
N2A N 0.0535(3) 0.3328(4) 0.11012(8)
N3A N -0.0877(3) 0.3465(4) 0.09848(8)
N4A N -0.2565(3) 0.2062(4) 0.10174(8)
N5A N -0.2889(3) 0.0453(4) 0.11410(8)
C1A C 0.2404(3) 0.2647(4) 0.12736(10)
C2A C 0.2051(3) 0.2078(4) 0.15354(10)
H1A H 0.2414 0.1792 0.1627
C3A C 0.1160(4) 0.1941(6) 0.16570(10)
H2A H 0.0909 0.1560 0.1836
C4A C 0.0634(3) 0.2344(4) 0.15265(10)
H3A H 0.0024 0.2259 0.1611
C5A C 0.1033(3) 0.2893(4) 0.12588(9)
C6A C 0.1170(4) 0.4260(6) 0.09256(14)
H4A H 0.1669 0.4164 0.0809
H5A H 0.0730 0.4356 0.0782
C7A C 0.1706(5) 0.5162(7) 0.1104(2)
H6A H 0.2226 0.5747 0.1008
C8A C 0.1554(7) 0.5252(10) 0.1376(3)
H7A H 0.1042 0.4688 0.1482
H8A H 0.1951 0.5884 0.1474
C9A C -0.0508(3) 0.2875(4) 0.10801(9)
C10A C -0.1156(3) 0.1850(4) 0.11429(9)
H9A H -0.0898 0.1431 0.1210
C11A C -0.2190(3) 0.1463(4) 0.11037(9)
C12A C -0.1879(3) 0.3022(4) 0.09619(11)
H10A H -0.2137 0.3444 0.0898
C13A C -0.3878(4) 0.0031(6) 0.09879(15)
H11A H -0.4189 0.0444 0.1036
H12A H -0.4326 -0.0669 0.1055
H13A H -0.3776 0.0038 0.0772
N1B N -0.3038(4) -0.1149(3) 0.11375(8)
N2B N -0.3328(4) -0.2793(3) 0.11012(8)
N3B N -0.3465(4) -0.4342(3) 0.09848(8)
N4B N -0.2062(4) -0.4627(3) 0.10174(8)
N5B N -0.0453(4) -0.3342(2) 0.11410(8)
C1B C -0.2647(4) -0.0243(3) 0.12736(10)
C2B C -0.2078(4) -0.0027(3) 0.15354(10)
H1B H -0.1792 0.0622 0.1627
C3B C -0.1941(6) -0.0781(4) 0.16570(10)
H2B H -0.1560 -0.0651 0.1836
C4B C -0.2344(4) -0.1710(3) 0.15265(10)
H3B H -0.2259 -0.2235 0.1611
C5B C -0.2893(4) -0.1860(3) 0.12588(9)
C6B C -0.4260(6) -0.3090(4) 0.09256(14)
H4B H -0.4164 -0.2495 0.0809
H5B H -0.4356 -0.3626 0.0782
C7B C -0.5162(7) -0.3456(5) 0.1104(2)
H6B H -0.5747 -0.3521 0.1008
C8B C -0.5252(10) -0.3698(7) 0.1376(3)
H7B H -0.4688 -0.3646 0.1482
H8B H -0.5884 -0.3933 0.1474
C9B C -0.2875(4) -0.3383(3) 0.10801(9)
C10B C -0.1850(4) -0.3006(3) 0.11429(9)
H9B H -0.1431 -0.2329 0.1210
C11B C -0.1463(4) -0.3653(3) 0.11037(9)
C12B C -0.3022(4) -0.4901(3) 0.09619(11)
H10B H -0.3444 -0.5581 0.0898
C13B C -0.0031(6) -0.3909(4) 0.09879(15)
H11B H -0.0444 -0.4633 0.1036
H12B H 0.0669 -0.3657 0.1055
H13B H -0.0038 -0.3814 0.0772
C14 C 0.1845(3) 0.2248(3) -0.03595(10)
C15 C 0.1856(3) 0.1512(3) -0.05373(9)
C16 C 0.0991(3) 0.0869(3) -0.07221(8)
C17 C 0.0849(3) -0.0148(3) -0.07233(8)
C18 C 0.1627(3) -0.0152(3) -0.05366(9)
C19 C 0.1398(3) -0.0975(4) -0.03594(10)
C20 C 0.2263(3) 0.0883(4) -0.04191(10)
C21 C 0.2624(3) 0.1028(4) -0.01318(11)
C22 C 0.2619(3) 0.1798(3) 0.00498(10)
C23 C 0.2406(3) 0.0163(3) 0.00504(10)
C14A C -0.2248(3) -0.0403(4) -0.03595(10)
C15A C -0.1512(3) 0.0344(4) -0.05373(9)
C16A C -0.0869(3) 0.0122(4) -0.07221(8)
C17A C 0.0148(3) 0.0997(4) -0.07233(8)
C18A C 0.0152(3) 0.1779(4) -0.05366(9)
C19A C 0.0975(4) 0.2373(5) -0.03594(10)
C20A C -0.0883(4) 0.1380(5) -0.04191(10)
C21A C -0.1028(4) 0.1596(5) -0.01318(11)
C22A C -0.1798(3) 0.0821(4) 0.00498(10)
C23A C -0.0163(3) 0.2243(4) 0.00504(10)
C14B C 0.0403(4) -0.1845(3) -0.03595(10)
C15B C -0.0344(4) -0.1856(3) -0.05373(9)
C16B C -0.0122(4) -0.0991(3) -0.07221(8)
C17B C -0.0997(4) -0.0849(3) -0.07233(8)
C18B C -0.1779(4) -0.1627(3) -0.05366(9)
C19B C -0.2373(5) -0.1398(3) -0.03594(10)
C20B C -0.1380(5) -0.2263(3) -0.04191(10)
C21B C -0.1596(5) -0.2624(3) -0.01318(11)
C22B C -0.0821(4) -0.2619(3) 0.00498(10)
C23B C -0.2243(4) -0.2406(3) 0.00504(10)
C14J C 0.2248(3) 0.0403(4) 0.03595(10)
C15J C 0.1512(3) -0.0344(4) 0.05373(9)
C16J C 0.0869(3) -0.0122(4) 0.07221(8)
C17J C -0.0148(3) -0.0997(4) 0.07233(8)
C18J C -0.0152(3) -0.1779(4) 0.05366(9)
C19J C -0.0975(4) -0.2373(5) 0.03594(10)
C20J C 0.0883(4) -0.1380(5) 0.04191(10)
C21J C 0.1028(4) -0.1596(5) 0.01318(11)
C22J C 0.1798(3) -0.0821(4) -0.00498(10)
C23J C 0.0163(3) -0.2243(4) -0.00504(10)
C14K C -0.0403(4) 0.1845(3) 0.03595(10)
C15K C 0.0344(4) 0.1856(3) 0.05373(9)
C16K C 0.0122(4) 0.0991(3) 0.07221(8)
C17K C 0.0997(4) 0.0849(3) 0.07233(8)
C18K C 0.1779(4) 0.1627(3) 0.05366(9)
C19K C 0.2373(5) 0.1398(3) 0.03594(10)
C20K C 0.1380(5) 0.2263(3) 0.04191(10)
C21K C 0.1596(5) 0.2624(3) 0.01318(11)
C22K C 0.0821(4) 0.2619(3) -0.00498(10)
C23K C 0.2243(4) 0.2406(3) -0.00504(10)
C14I C -0.1845(3) -0.2248(3) 0.03595(10)
C15I C -0.1856(3) -0.1512(3) 0.05373(9)
C16I C -0.0991(3) -0.0869(3) 0.07221(8)
C17I C -0.0849(3) 0.0148(3) 0.07233(8)
C18I C -0.1627(3) 0.0152(3) 0.05366(9)
C19I C -0.1398(3) 0.0975(4) 0.03594(10)
C20I C -0.2263(3) -0.0883(4) 0.04191(10)
C21I C -0.2624(3) -0.1028(4) 0.01318(11)
C22I C -0.2619(3) -0.1798(3) -0.00498(10)
C23I C -0.2406(3) -0.0163(3) -0.00504(10)
loop_
_geom_bond_atom_site_label_1
_geom_bond_atom_site_label_2
_geom_bond_site_symmetry_1
_geom_bond_site_symmetry_2
N1 C1 1_555 1_555
N2 C5 1_555 1_555
N3 C9 1_555 1_555
N4 C11 1_555 1_555
N5 C11 1_555 1_555
C1 C2 1_555 1_555
C2 H1 1_555 1_555
C3 C2 1_555 1_555
H2 C3 1_555 1_555
C4 C3 1_555 1_555
H3 C4 1_555 1_555
C5 N1 1_555 1_555
C6 N2 1_555 1_555
H4 C6 1_555 1_555
H5 C6 1_555 1_555
C7 C6 1_555 1_555
H6 C7 1_555 1_555
C8 C7 1_555 1_555
H7 C8 1_555 1_555
H8 C8 1_555 1_555
C9 N2 1_555 1_555
C10 C9 1_555 1_555
H9 C10 1_555 1_555
C11 C10 1_555 1_555
C12 N3 1_555 1_555
H10 C12 1_555 1_555
C13 N5 1_555 1_555
H11 C13 1_555 1_555
H12 C13 1_555 1_555
H13 C13 1_555 1_555
C14 C15 1_555 1_555
C15 C16 1_555 1_555
C16 C17 1_555 1_555
C17 C18 1_555 1_555
C18 C19 1_555 1_555
C19 C14B 1_555 1_555
C20 C15 1_555 1_555
C21 C20 1_555 1_555
C22 C21 1_555 1_555
C23 C21 1_555 1_555
N1A C1A 1_555 1_555
N2A C5A 1_555 1_555
N3A C9A 1_555 1_555
N4A C11A 1_555 1_555
N5A C11A 1_555 1_555
C1A N5 1_555 1_555
C2A C1A 1_555 1_555
H1A C2A 1_555 1_555
C3A C2A 1_555 1_555
H2A C3A 1_555 1_555
C4A C3A 1_555 1_555
H3A C4A 1_555 1_555
C5A N1A 1_555 1_555
C6A N2A 1_555 1_555
H4A C6A 1_555 1_555
H5A C6A 1_555 1_555
C7A C6A 1_555 1_555
H6A C7A 1_555 1_555
C8A C7A 1_555 1_555
H7A C8A 1_555 1_555
H8A C8A 1_555 1_555
C9A N2A 1_555 1_555
C10A C9A 1_555 1_555
H9A C10A 1_555 1_555
C11A C10A 1_555 1_555
C12A N3A 1_555 1_555
H10A C12A 1_555 1_555
C13A N5A 1_555 1_555
H11A C13A 1_555 1_555
H12A C13A 1_555 1_555
H13A C13A 1_555 1_555
N1B C1B 1_555 1_555
N2B C5B 1_555 1_555
N3B C9B 1_555 1_555
N4B C11B 1_555 1_555
N5B C1 1_555 1_555
C1B N5A 1_555 1_555
C2B C1B 1_555 1_555
H1B C2B 1_555 1_555
C3B C2B 1_555 1_555
H2B C3B 1_555 1_555
C4B C3B 1_555 1_555
H3B C4B 1_555 1_555
C5B N1B 1_555 1_555
C6B N2B 1_555 1_555
H4B C6B 1_555 1_555
H5B C6B 1_555 1_555
C7B C6B 1_555 1_555
H6B C7B 1_555 1_555
C8B C7B 1_555 1_555
H7B C8B 1_555 1_555
H8B C8B 1_555 1_555
C9B N2B 1_555 1_555
C10B C9B 1_555 1_555
H9B C10B 1_555 1_555
C11B N5B 1_555 1_555
C12B N3B 1_555 1_555
H10B C12B 1_555 1_555
C13B N5B 1_555 1_555
H11B C13B 1_555 1_555
H12B C13B 1_555 1_555
H13B C13B 1_555 1_555
C14A C15A 1_555 1_555
C15A C16A 1_555 1_555
C16A C17A 1_555 1_555
C17A C16 1_555 1_555
C18A C17A 1_555 1_555
C19A C14 1_555 1_555
C20A C15A 1_555 1_555
C21A C20A 1_555 1_555
C22A C21A 1_555 1_555
C23A C21A 1_555 1_555
C14B C15B 1_555 1_555
C15B C16B 1_555 1_555
C16B C17 1_555 1_555
C17B C16A 1_555 1_555
C18B C17B 1_555 1_555
C19B C14A 1_555 1_555
C20B C15B 1_555 1_555
C21B C20B 1_555 1_555
C22B C21B 1_555 1_555
C23B C21B 1_555 1_555
C14J C23 1_555 1_555
C15J C14J 1_555 1_555
C16J C15J 1_555 1_555
C17J C16J 1_555 1_555
C18J C17J 1_555 1_555
C19J C22B 1_555 1_555
C20J C15J 1_555 1_555
C21J C20J 1_555 1_555
C22J C19 1_555 1_555
C23J C14B 1_555 1_555
C14K C23A 1_555 1_555
C15K C14K 1_555 1_555
C16K C15K 1_555 1_555
C17K C16J 1_555 1_555
C18K C17K 1_555 1_555
C19K C22 1_555 1_555
C20K C15K 1_555 1_555
C21K C20K 1_555 1_555
C22K C19A 1_555 1_555
C23K C14 1_555 1_555
C14I C23B 1_555 1_555
C15I C14I 1_555 1_555
C16I C17J 1_555 1_555
C17I C16K 1_555 1_555
C18I C17I 1_555 1_555
C19I C22A 1_555 1_555
C20I C15I 1_555 1_555
C21I C20I 1_555 1_555
C22I C19B 1_555 1_555
C23I C14A 1_555 1_555
N4 C12 1_555 1_555
C4 C5 1_555 1_555
C18 C20 1_555 1_555
C22 C23K 1_555 1_555
C23 C22J 1_555 1_555
N4A C12A 1_555 1_555
C4A C5A 1_555 1_555
N4B C12B 1_555 1_555
C4B C5B 1_555 1_555
C10B C11B 1_555 1_555
C18A C19A 1_555 1_555
C18A C20A 1_555 1_555
C22A C23I 1_555 1_555
C23A C22K 1_555 1_555
C16B C17B 1_555 1_555
C18B C19B 1_555 1_555
C18B C20B 1_555 1_555
C22B C23J 1_555 1_555
C23B C22I 1_555 1_555
C14J C19K 1_555 1_555
C18J C19J 1_555 1_555
C18J C20J 1_555 1_555
C19J C14I 1_555 1_555
C21J C22J 1_555 1_555
C21J C23J 1_555 1_555
C14K C19I 1_555 1_555
C16K C17K 1_555 1_555
C18K C19K 1_555 1_555
C18K C20K 1_555 1_555
C21K C22K 1_555 1_555
C21K C23K 1_555 1_555
C15I C16I 1_555 1_555
C16I C17I 1_555 1_555
C18I C19I 1_555 1_555
C18I C20I 1_555 1_555
C21I C22I 1_555 1_555
C21I C23I 1_555 1_555

#END
