
#######################################################################
#
#                 Cambridge Crystallographic Data Centre
#                                CCDC 
#
#######################################################################
#
# If this CIF has been generated from an entry in the Cambridge 
# Structural Database, then it will include bibliographic, chemical, 
# crystal, experimental, refinement or atomic coordinate data resulting 
# from the CCDC's data processing and validation procedures.
#
#######################################################################

data_BOFCAB
_chemical_formula_moiety         'C17 H20 N6 O1 S1'
_chemical_name_systematic        
2-(5-((1H-1,2,4-Triazol-1-yl)methyl)-4-phenyl-4H-1,2,4-triazol-3-ylthio)-1-t-butylethanone
_chemical_properties_biological  'potential fungicidal activity'
_symmetry_cell_setting           monoclinic
_symmetry_space_group_name_H-M   'P 21/c'
_symmetry_Int_Tables_number      14
_space_group_name_Hall           '-P 2ybc'
loop_
_symmetry_equiv_pos_site_id
_symmetry_equiv_pos_as_xyz
1 x,y,z
2 -x,1/2+y,1/2-z
3 -x,-y,-z
4 x,1/2-y,1/2+z
_cell_length_a                   11.372(2)
_cell_length_b                   17.003(3)
_cell_length_c                   9.5947(18)
_cell_angle_alpha                90
_cell_angle_beta                 91.744(3)
_cell_angle_gamma                90
_cell_volume                     1854.35
_cell_formula_units_Z            4
loop_
_atom_site_label
_atom_site_type_symbol
_atom_site_fract_x
_atom_site_fract_y
_atom_site_fract_z
S1 S 0.90539(8) 0.07483(5) 0.64095(8)
O1 O 1.1548(2) 0.01988(13) 0.6553(2)
N1 N 1.0043(2) 0.19650(14) 0.9652(3)
N2 N 1.0123(2) 0.17793(15) 0.8249(3)
N3 N 0.8769(2) 0.10301(13) 0.9164(2)
C1 C 0.8909(3) 0.15301(19) 1.1668(3)
C2 C 0.9238(3) 0.15172(17) 1.0174(3)
C3 C 0.9353(3) 0.12258(16) 0.7993(3)
C4 C 0.7885(3) 0.04263(17) 0.9280(3)
C5 C 0.8150(3) -0.02442(18) 1.0014(3)
H1 H 0.8880 -0.0301 1.0466
C6 C 0.7325(3) -0.0834(2) 1.0076(4)
H2 H 0.7497 -0.1289 1.0580
C7 C 0.6271(3) -0.0759(2) 0.9414(4)
H3 H 0.5720 -0.1162 0.9464
C8 C 0.6005(3) -0.0094(3) 0.8668(4)
H4 H 0.5279 -0.0051 0.8200
C9 C 0.6808(3) 0.0515(2) 0.8606(3)
H5 H 0.6624 0.0974 0.8120
C10 C 1.0267(3) 0.11176(17) 0.5435(3)
H6 H 1.0108 0.1013 0.4454
H7 H 1.0303 0.1684 0.5552
C11 C 1.1455(3) 0.07792(17) 0.5833(3)
C12 C 1.2523(3) 0.11907(18) 0.5248(3)
C13 C 1.2742(4) 0.1937(2) 0.6142(4)
H8 H 1.2049 0.2260 0.6110
H9 H 1.3389 0.2227 0.5780
H10 H 1.2923 0.1788 0.7089
C14 C 1.2287(3) 0.1443(2) 0.3730(4)
H11 H 1.2054 0.0993 0.3184
H12 H 1.2990 0.1665 0.3365
H13 H 1.1670 0.1828 0.3692
C15 C 1.3579(3) 0.0646(2) 0.5341(5)
H14 H 1.3725 0.0494 0.6294
H15 H 1.4256 0.0913 0.5000
H16 H 1.3423 0.0185 0.4786
C16 C 0.6891(4) 0.1431(3) 1.2592(4)
H17 H 0.6990 0.0979 1.3130
N4 N 0.5920(3) 0.1849(4) 1.2457(5)
C17 C 0.6126(3) 0.2441(3) 1.1614(6)
H18 H 0.5589 0.2828 1.1339
N5 N 0.7224(3) 0.23881(19) 1.1227(6)
N6 N 0.7697(2) 0.1764(2) 1.1832(3)
C18? C 0.7231(4) 0.2268(3) 1.0529(6)
H19? H 0.7507 0.2289 0.9626
N7? N 0.6210(4) 0.2575(3) 1.0959(7)
N8? N 0.6130(3) 0.2422(3) 1.2333(6)
C19? C 0.7103(3) 0.2022(3) 1.2752(4)
H20? H 0.7274 0.1843 1.3651
N9? N 0.7783(2) 0.1927(2) 1.1637(4)
loop_
_geom_bond_atom_site_label_1
_geom_bond_atom_site_label_2
_geom_bond_site_symmetry_1
_geom_bond_site_symmetry_2
S1 C3 1_555 1_555
O1 C11 1_555 1_555
N1 N2 1_555 1_555
N2 C3 1_555 1_555
N3 C2 1_555 1_555
C1 C2 1_555 1_555
C2 N1 1_555 1_555
C3 N3 1_555 1_555
C4 N3 1_555 1_555
C5 C4 1_555 1_555
H1 C5 1_555 1_555
C6 C5 1_555 1_555
H2 C6 1_555 1_555
C7 C6 1_555 1_555
H3 C7 1_555 1_555
C8 C7 1_555 1_555
H4 C8 1_555 1_555
C9 C4 1_555 1_555
H5 C9 1_555 1_555
C10 S1 1_555 1_555
H6 C10 1_555 1_555
H7 C10 1_555 1_555
C11 C10 1_555 1_555
C12 C11 1_555 1_555
C13 C12 1_555 1_555
H8 C13 1_555 1_555
H9 C13 1_555 1_555
H10 C13 1_555 1_555
C14 C12 1_555 1_555
H11 C14 1_555 1_555
H12 C14 1_555 1_555
H13 C14 1_555 1_555
C15 C12 1_555 1_555
H14 C15 1_555 1_555
H15 C15 1_555 1_555
H16 C15 1_555 1_555
C16 H17 1_555 1_555
N4 C16 1_555 1_555
C17 N4 1_555 1_555
H18 C17 1_555 1_555
N5 C17 1_555 1_555
N6 C1 1_555 1_555
C8 C9 1_555 1_555
C16 N6 1_555 1_555
N5 N6 1_555 1_555

#END
