
#######################################################################
#
#                 Cambridge Crystallographic Data Centre
#                                CCDC 
#
#######################################################################
#
# If this CIF has been generated from an entry in the Cambridge 
# Structural Database, then it will include bibliographic, chemical, 
# crystal, experimental, refinement or atomic coordinate data resulting 
# from the CCDC's data processing and validation procedures.
#
#######################################################################

data_BOHFOV
_chemical_formula_moiety         'C17 H16 Cl1 N1 O3'
_chemical_name_systematic        
'methyl 9-(4-chlorophenyl)-10-oxo-8-azabicyclo[4.3.1]deca-2,4-diene-7-carboxylate'
_symmetry_cell_setting           orthorhombic
_symmetry_space_group_name_H-M   'P 21 21 21'
_symmetry_Int_Tables_number      19
_space_group_name_Hall           'P 2ac 2ab'
loop_
_symmetry_equiv_pos_site_id
_symmetry_equiv_pos_as_xyz
1 x,y,z
2 1/2-x,-y,1/2+z
3 -x,1/2+y,1/2-z
4 1/2+x,1/2-y,-z
_cell_length_a                   6.5811(11)
_cell_length_b                   7.0763(12)
_cell_length_c                   33.062(6)
_cell_angle_alpha                90
_cell_angle_beta                 90
_cell_angle_gamma                90
_cell_volume                     1539.69
_exptl_crystal_colour            colorless
_exptl_crystal_description       block
_cell_formula_units_Z            4
loop_
_atom_site_label
_atom_site_type_symbol
_atom_site_fract_x
_atom_site_fract_y
_atom_site_fract_z
C1 C 0.1796(4) 0.7057(3) 0.23535(6)
C2 C 0.0202(4) 0.7389(4) 0.26089(6)
H1 H -0.1037 0.7805 0.2507
C3 C 0.0447(3) 0.7105(4) 0.30182(6)
H2 H -0.0642 0.7319 0.3192
C4 C 0.2295(3) 0.6502(3) 0.31766(6)
C5 C 0.3859(3) 0.6149(3) 0.29104(6)
H3 H 0.5095 0.5706 0.3008
C6 C 0.3619(4) 0.6443(4) 0.24989(6)
H4 H 0.4696 0.6223 0.2323
C7 C 0.2513(3) 0.6232(3) 0.36319(6)
H5 H 0.1580 0.5215 0.3709
C8 C 0.4754(3) 0.5268(3) 0.41660(6)
H6 H 0.3787 0.4278 0.4243
C9 C 0.2253(3) 0.7817(3) 0.43138(6)
C10 C 0.1833(3) 0.8034(3) 0.38678(6)
H7 H 0.0361 0.8168 0.3833
C11 C 0.2809(4) 0.9788(3) 0.37082(7)
H8 H 0.2081 1.0447 0.3513
C12 C 0.4596(4) 1.0519(3) 0.38123(8)
H9 H 0.4950 1.1620 0.3676
C13 C 0.6074(4) 0.9871(3) 0.41044(8)
H10 H 0.7295 1.0533 0.4105
C14 C 0.5960(4) 0.8477(3) 0.43724(7)
H11 H 0.7059 0.8367 0.4548
C15 C 0.4301(3) 0.7065(3) 0.44294(6)
H12 H 0.4266 0.6691 0.4715
C16 C 0.6867(3) 0.4577(3) 0.42612(6)
C17 C 0.8912(4) 0.3337(4) 0.47875(8)
H13 H 0.9350 0.2229 0.4644
H14 H 0.8816 0.3056 0.5071
H15 H 0.9878 0.4336 0.4747
Cl1 Cl 0.14863(12) 0.74476(11) 0.183784(16)
N1 N 0.4538(2) 0.5616(2) 0.37401(5)
H16 H 0.5507 0.5474 0.3568
O1 O 0.1007(2) 0.8250(3) 0.45670(5)
O2 O 0.8277(2) 0.4633(2) 0.40354(4)
O3 O 0.6939(2) 0.3924(2) 0.46377(4)
loop_
_geom_bond_atom_site_label_1
_geom_bond_atom_site_label_2
_geom_bond_site_symmetry_1
_geom_bond_site_symmetry_2
C1 C2 1_555 1_555
C2 H1 1_555 1_555
C3 C2 1_555 1_555
H2 C3 1_555 1_555
C4 C3 1_555 1_555
C5 C4 1_555 1_555
H3 C5 1_555 1_555
C6 C1 1_555 1_555
H4 C6 1_555 1_555
C7 C4 1_555 1_555
H5 C7 1_555 1_555
C8 H6 1_555 1_555
C9 C10 1_555 1_555
C10 C7 1_555 1_555
H7 C10 1_555 1_555
C11 C10 1_555 1_555
H8 C11 1_555 1_555
C12 C11 1_555 1_555
H9 C12 1_555 1_555
C13 C12 1_555 1_555
H10 C13 1_555 1_555
C14 C13 1_555 1_555
H11 C14 1_555 1_555
C15 C8 1_555 1_555
H12 C15 1_555 1_555
C16 C8 1_555 1_555
C17 H13 1_555 1_555
H14 C17 1_555 1_555
H15 C17 1_555 1_555
Cl1 C1 1_555 1_555
N1 C7 1_555 1_555
H16 N1 1_555 1_555
O1 C9 1_555 1_555
O2 C16 1_555 1_555
O3 C16 1_555 1_555
C5 C6 1_555 1_555
C8 N1 1_555 1_555
C9 C15 1_555 1_555
C14 C15 1_555 1_555
C17 O3 1_555 1_555

#END
