
#######################################################################
#
#                 Cambridge Crystallographic Data Centre
#                                CCDC 
#
#######################################################################
#
# If this CIF has been generated from an entry in the Cambridge 
# Structural Database, then it will include bibliographic, chemical, 
# crystal, experimental, refinement or atomic coordinate data resulting 
# from the CCDC's data processing and validation procedures.
#
#######################################################################

data_BOJDIO
_chemical_formula_moiety         'C17 H19 Cl1 N1 O2 1+,Cl1 1-'
_chemical_name_systematic        
'1-(2-Chlorophenoxy)-2-hydroxy-2-methylammoniomethyl-2,3-dihydro-1H-indene chloride'
_chemical_properties_biological  
'inactive enantiomer of a potent norepinephrine reuptake inhibitor with low CYP2D6-related drug-drug interactions'
_symmetry_cell_setting           monoclinic
_symmetry_space_group_name_H-M   'P 21'
_symmetry_Int_Tables_number      4
_space_group_name_Hall           'P 2yb'
loop_
_symmetry_equiv_pos_site_id
_symmetry_equiv_pos_as_xyz
1 x,y,z
2 -x,1/2+y,-z
_cell_length_a                   7.8168(12)
_cell_length_b                   5.8834(8)
_cell_length_c                   18.473(3)
_cell_angle_alpha                90
_cell_angle_beta                 102.160(2)
_cell_angle_gamma                90
_cell_volume                     830.5
_exptl_crystal_colour            colorless
_exptl_crystal_description       plate
_cell_formula_units_Z            2
loop_
_atom_site_label
_atom_site_type_symbol
_atom_site_fract_x
_atom_site_fract_y
_atom_site_fract_z
Cl1 Cl 0.0118(3) -0.0301(3) 1.35995(9)
O1 O 0.2266(7) 0.1349(7) 1.1348(2)
O2 O 0.1459(6) 0.3789(8) 1.30133(18)
N1 N -0.1390(7) 0.2771(9) 1.0870(2)
H1 H -0.1141 0.4118 1.0673
H2 H -0.1019 0.1636 1.0606
C1 C 0.2542(8) 0.2709(12) 1.2556(2)
H3 H 0.2758 0.1084 1.2683
C2 C 0.4184(9) 0.3962(10) 1.2569(3)
C3 C 0.5809(9) 0.3729(13) 1.3046(3)
H4 H 0.5634 0.3887 1.3553
C4 C 0.7133(10) 0.5182(13) 1.2966(3)
H6 H 0.8255 0.5004 1.3267
C5 C 0.6821(11) 0.6904(13) 1.2445(3)
H7 H 0.7720 0.7933 1.2410
C6 C 0.5193(10) 0.7126(11) 1.1975(3)
H8 H 0.4988 0.8288 1.1618
C7 C 0.3902(9) 0.5648(10) 1.2036(3)
C8 C 0.2083(10) 0.5425(9) 1.1569(3)
H9 H 0.2091 0.5571 1.1041
H10 H 0.1301 0.6580 1.1703
C9 C 0.1519(8) 0.3034(9) 1.1749(3)
C10 C 0.2037(9) 0.3544(11) 1.3764(3)
C11 C 0.1442(9) 0.1701(11) 1.4118(3)
C12 C 0.1863(10) 0.1547(13) 1.4889(3)
H11 H 0.1462 0.0307 1.5128
C13 C 0.2850(10) 0.3183(13) 1.5293(3)
H12 H 0.3138 0.3072 1.5812
C14 C 0.3434(10) 0.5021(13) 1.4942(3)
H13 H 0.4106 0.6165 1.5223
C15 C 0.3031(10) 0.5166(11) 1.4186(3)
H14 H 0.3445 0.6407 1.3952
C16 C -0.0406(9) 0.2635(13) 1.1656(3)
H15 H -0.0885 0.3763 1.1950
H16 H -0.0590 0.1129 1.1853
C17 C -0.3320(10) 0.2581(14) 1.0795(3)
H17 H -0.3890 0.2659 1.0276
H18 H -0.3731 0.3820 1.1061
H19 H -0.3597 0.1143 1.1000
Cl2 Cl 0.1604(2) 0.2731(2) 0.97124(6)
H5? H 0.6217 0.2174 1.2995
loop_
_geom_bond_atom_site_label_1
_geom_bond_atom_site_label_2
_geom_bond_site_symmetry_1
_geom_bond_site_symmetry_2
Cl1 C11 1_555 1_555
O1 C9 1_555 1_555
O2 C1 1_555 1_555
N1 H1 1_555 1_555
H2 N1 1_555 1_555
C1 H3 1_555 1_555
C2 C1 1_555 1_555
C3 C2 1_555 1_555
H4 C3 1_555 1_555
C4 C3 1_555 1_555
H6 C4 1_555 1_555
C5 C4 1_555 1_555
H7 C5 1_555 1_555
C6 C5 1_555 1_555
H8 C6 1_555 1_555
C7 C2 1_555 1_555
C8 C7 1_555 1_555
H9 C8 1_555 1_555
H10 C8 1_555 1_555
C9 C1 1_555 1_555
C10 O2 1_555 1_555
C11 C10 1_555 1_555
C12 C11 1_555 1_555
H11 C12 1_555 1_555
C13 C12 1_555 1_555
H12 C13 1_555 1_555
C14 C13 1_555 1_555
H13 C14 1_555 1_555
C15 C10 1_555 1_555
H14 C15 1_555 1_555
C16 N1 1_555 1_555
H15 C16 1_555 1_555
H16 C16 1_555 1_555
C17 N1 1_555 1_555
H17 C17 1_555 1_555
H18 C17 1_555 1_555
H19 C17 1_555 1_555
C6 C7 1_555 1_555
C8 C9 1_555 1_555
C9 C16 1_555 1_555
C14 C15 1_555 1_555

#END
