
#######################################################################
#
#                 Cambridge Crystallographic Data Centre
#                                CCDC 
#
#######################################################################
#
# If this CIF has been generated from an entry in the Cambridge 
# Structural Database, then it will include bibliographic, chemical, 
# crystal, experimental, refinement or atomic coordinate data resulting 
# from the CCDC's data processing and validation procedures.
#
#######################################################################

data_BOMBIC10
_chemical_name_common            alpha-Dihydrophyllocladene
_chemical_formula_moiety         'C20 H34'
_chemical_name_systematic        Bombiccite
_symmetry_cell_setting           triclinic
_symmetry_space_group_name_H-M   'P 1'
_symmetry_Int_Tables_number      1
_space_group_name_Hall           'P 1'
loop_
_symmetry_equiv_pos_site_id
_symmetry_equiv_pos_as_xyz
1 x,y,z
_cell_length_a                   11.39(7)
_cell_length_b                   21.29(5)
_cell_length_c                   7.45(1)
_cell_angle_alpha                94.6(1)
_cell_angle_beta                 101.8(2)
_cell_angle_gamma                81.5(1)
_cell_volume                     1746.64
_chemical_melting_point          75deg.C
_cell_formula_units_Z            4
loop_
_atom_site_label
_atom_site_type_symbol
_atom_site_fract_x
_atom_site_fract_y
_atom_site_fract_z
C1 C 0.49010 0.05320 0.21590
C2 C 0.49390 0.01770 0.39130
C3 C 0.41390 0.05630 0.52390
C4 C 0.44860 0.12340 0.57710
C5 C 0.43700 0.16520 0.40650
C6 C 0.50250 0.22440 0.47110
C7 C 0.44250 0.27080 0.61330
C8 C 0.50630 0.32940 0.67000
C9 C 0.53330 0.36120 0.50520
C10 C 0.61150 0.31110 0.40480
C11 C 0.52460 0.26670 0.31430
C12 C 0.57840 0.22090 0.16770
C13 C 0.51130 0.16460 0.10510
C14 C 0.51180 0.12460 0.26820
C15 C 0.36590 0.04830 0.08700
C16 C 0.59120 0.01590 0.12370
C17 C 0.30440 0.18300 0.32290
C18 C 0.42490 0.37960 0.35480
C19 C 0.30580 0.41420 0.41700
C20 C 0.41110 0.31500 0.24120
C21 C -0.08420 0.11230 -0.20200
C22 C -0.10890 0.09180 -0.40490
C23 C -0.02300 0.11340 -0.51150
C24 C -0.02750 0.18740 -0.49280
C25 C -0.00350 0.21440 -0.29700
C26 C -0.04420 0.28820 -0.29560
C27 C 0.02590 0.32540 -0.40650
C28 C -0.01880 0.39800 -0.40350
C29 C -0.03350 0.42610 -0.21240
C30 C -0.11920 0.39260 -0.14340
C31 C -0.04880 0.32470 -0.10580
C32 C -0.10990 0.28590 0.01320
C33 C -0.06670 0.21420 0.01180
C34 C -0.08340 0.18500 -0.18320
C35 C 0.02970 0.07090 -0.10100
C36 C -0.19160 0.09490 -0.12000
C37 C 0.13380 0.19550 -0.21900
C38 C 0.07950 0.41060 -0.06500
C39 C 0.19820 0.42200 -0.11150
C40 C 0.07300 0.34270 -0.00920
C41 C -0.01070 -0.38420 0.44150
C42 C -0.01410 -0.41970 0.25380
C43 C 0.07130 -0.40180 0.14250
C44 C 0.04090 -0.32650 0.10940
C45 C 0.04540 -0.28480 0.28860
C46 C -0.01450 -0.21480 0.23950
C47 C 0.04860 -0.18200 0.11200
C48 C -0.00870 -0.11280 0.07340
C49 C -0.04240 -0.07330 0.24800
C50 C -0.12270 -0.10650 0.32580
C51 C -0.03800 -0.16700 0.40680
C52 C -0.09710 -0.19970 0.53820
C53 C -0.03510 -0.26700 0.58830
C54 C -0.03330 -0.31010 0.41370
C55 C 0.10810 -0.40770 0.57560
C56 C -0.11850 -0.40230 0.52360
C57 C 0.17860 -0.28990 0.38070
C58 C 0.06130 -0.07080 0.40260
C59 C 0.18520 -0.05640 0.36140
C60 C 0.07240 -0.13660 0.49950
C61 C -0.47470 -0.18510 -0.25660
C62 C -0.57900 -0.14190 -0.17470
C63 C -0.58700 -0.15980 0.01510
C64 C -0.60310 -0.23110 0.01880
C65 C -0.50050 -0.27890 -0.04770
C66 C -0.53930 -0.34690 -0.08030
C67 C -0.55820 -0.37570 0.09580
C68 C -0.59320 -0.44340 0.06680
C69 C -0.52130 -0.48780 -0.06100
C70 C -0.53410 -0.45540 -0.24190
C71 C -0.46190 -0.39850 -0.18670
C72 C -0.43570 -0.36990 -0.35960
C73 C -0.39390 -0.30490 -0.32250
C74 C -0.48730 -0.25640 -0.24140
C75 C -0.35250 -0.16680 -0.16290
C76 C -0.49670 -0.16900 -0.46430
C77 C -0.38340 -0.27850 0.09190
C78 C -0.38490 -0.49640 0.00220
C79 C -0.33850 -0.51060 0.19890
C80 C -0.34970 -0.43350 -0.06240
loop_
_geom_bond_atom_site_label_1
_geom_bond_atom_site_label_2
_geom_bond_site_symmetry_1
_geom_bond_site_symmetry_2
C1 C2 1_555 1_555
C2 C3 1_555 1_555
C3 C4 1_555 1_555
C4 C5 1_555 1_555
C5 C6 1_555 1_555
C6 C7 1_555 1_555
C7 C8 1_555 1_555
C8 C9 1_555 1_555
C9 C10 1_555 1_555
C10 C11 1_555 1_555
C11 C6 1_555 1_555
C12 C11 1_555 1_555
C13 C12 1_555 1_555
C14 C1 1_555 1_555
C15 C1 1_555 1_555
C16 C1 1_555 1_555
C17 C5 1_555 1_555
C18 C9 1_555 1_555
C19 C18 1_555 1_555
C20 C11 1_555 1_555
C21 C22 1_555 1_555
C22 C23 1_555 1_555
C23 C24 1_555 1_555
C24 C25 1_555 1_555
C25 C26 1_555 1_555
C26 C27 1_555 1_555
C27 C28 1_555 1_555
C28 C29 1_555 1_555
C29 C30 1_555 1_555
C30 C31 1_555 1_555
C31 C26 1_555 1_555
C32 C31 1_555 1_555
C33 C32 1_555 1_555
C34 C21 1_555 1_555
C35 C21 1_555 1_555
C36 C21 1_555 1_555
C37 C25 1_555 1_555
C38 C29 1_555 1_555
C39 C38 1_555 1_555
C40 C31 1_555 1_555
C41 C42 1_555 1_555
C42 C43 1_555 1_555
C43 C44 1_555 1_555
C44 C45 1_555 1_555
C45 C46 1_555 1_555
C46 C47 1_555 1_555
C47 C48 1_555 1_555
C48 C49 1_555 1_555
C49 C50 1_555 1_555
C50 C51 1_555 1_555
C51 C46 1_555 1_555
C52 C51 1_555 1_555
C53 C52 1_555 1_555
C54 C41 1_555 1_555
C55 C41 1_555 1_555
C56 C41 1_555 1_555
C57 C45 1_555 1_555
C58 C49 1_555 1_555
C59 C58 1_555 1_555
C60 C51 1_555 1_555
C61 C62 1_555 1_555
C62 C63 1_555 1_555
C63 C64 1_555 1_555
C64 C65 1_555 1_555
C65 C66 1_555 1_555
C66 C67 1_555 1_555
C67 C68 1_555 1_555
C68 C69 1_555 1_555
C69 C70 1_555 1_555
C70 C71 1_555 1_555
C71 C66 1_555 1_555
C72 C71 1_555 1_555
C73 C72 1_555 1_555
C74 C61 1_555 1_555
C75 C61 1_555 1_555
C76 C61 1_555 1_555
C77 C65 1_555 1_555
C78 C69 1_555 1_555
C79 C78 1_555 1_555
C80 C71 1_555 1_555
C5 C14 1_555 1_555
C13 C14 1_555 1_555
C18 C20 1_555 1_555
C25 C34 1_555 1_555
C33 C34 1_555 1_555
C38 C40 1_555 1_555
C45 C54 1_555 1_555
C53 C54 1_555 1_555
C58 C60 1_555 1_555
C65 C74 1_555 1_555
C73 C74 1_555 1_555
C78 C80 1_555 1_555

#END
