
#######################################################################
#
#                 Cambridge Crystallographic Data Centre
#                                CCDC 
#
#######################################################################
#
# If this CIF has been generated from an entry in the Cambridge 
# Structural Database, then it will include bibliographic, chemical, 
# crystal, experimental, refinement or atomic coordinate data resulting 
# from the CCDC's data processing and validation procedures.
#
#######################################################################

data_BOMDEO
_chemical_name_common            
(2-nitrophenyl)(4-(trifluoromethyl)isoxazol-5-yl)methanone
_chemical_formula_moiety         'C11 H5 F3 N2 O4'
_chemical_name_systematic        
(2-nitrophenyl)(4-(trifluoromethyl)-1,2-oxazol-5-yl)methanone
_symmetry_cell_setting           monoclinic
_symmetry_space_group_name_H-M   'P 21/c'
_symmetry_Int_Tables_number      14
_space_group_name_Hall           '-P 2ybc'
loop_
_symmetry_equiv_pos_site_id
_symmetry_equiv_pos_as_xyz
1 x,y,z
2 -x,1/2+y,1/2-z
3 -x,-y,-z
4 x,1/2-y,1/2+z
_cell_length_a                   11.2169(9)
_cell_length_b                   15.8678(13)
_cell_length_c                   6.8648(6)
_cell_angle_alpha                90
_cell_angle_beta                 107.601(3)
_cell_angle_gamma                90
_cell_volume                     1164.65
_exptl_crystal_colour            colorless
_exptl_crystal_description       block
_cell_formula_units_Z            4
_exptl_crystal_recrystallization_method dichloromethane/hexane
loop_
_atom_site_label
_atom_site_type_symbol
_atom_site_fract_x
_atom_site_fract_y
_atom_site_fract_z
F1 F 0.6519(2) 0.1304(2) 0.5404(6)
F2 F 0.5204(3) 0.13147(18) 0.7080(4)
F3 F 0.5428(2) 0.23807(15) 0.5422(4)
O1 O 0.1904(3) 0.02018(17) 0.4746(5)
O2 O 0.0333(3) -0.05139(18) 0.2923(6)
O3 O 0.2761(2) 0.21913(17) 0.5270(4)
O4 O 0.26993(19) 0.08618(13) 0.1181(3)
N1 N 0.0879(3) 0.01441(19) 0.3456(6)
N2 N 0.3672(3) 0.0493(2) 0.0583(5)
C1 C 0.0264(3) 0.0931(2) 0.2550(5)
C2 C -0.1011(4) 0.0923(3) 0.1574(6)
H1 H -0.1461 0.0422 0.1390
C3 C -0.1597(4) 0.1676(4) 0.0879(6)
H2 H -0.2453 0.1684 0.0211
C4 C -0.0939(4) 0.2407(3) 0.1162(6)
H3 H -0.1351 0.2911 0.0699
C5 C 0.0325(3) 0.2413(2) 0.2118(5)
H4 H 0.0762 0.2919 0.2296
C6 C 0.0958(3) 0.16670(18) 0.2826(4)
C7 C 0.2333(3) 0.17336(19) 0.3830(5)
C8 C 0.3198(3) 0.12817(17) 0.2941(5)
C9 C 0.4455(3) 0.12134(18) 0.3510(5)
C10 C 0.4682(3) 0.0713(2) 0.1972(6)
H5 H 0.5478 0.0557 0.1957
C11 C 0.5401(3) 0.1550(3) 0.5334(7)
loop_
_geom_bond_atom_site_label_1
_geom_bond_atom_site_label_2
_geom_bond_site_symmetry_1
_geom_bond_site_symmetry_2
F1 C11 1_555 1_555
F2 C11 1_555 1_555
F3 C11 1_555 1_555
O1 N1 1_555 1_555
O2 N1 1_555 1_555
O3 C7 1_555 1_555
O4 N2 1_555 1_555
N1 C1 1_555 1_555
N2 C10 1_555 1_555
C1 C2 1_555 1_555
C2 H1 1_555 1_555
C3 C2 1_555 1_555
H2 C3 1_555 1_555
C4 C3 1_555 1_555
H3 C4 1_555 1_555
C5 C4 1_555 1_555
H4 C5 1_555 1_555
C6 C1 1_555 1_555
C7 C6 1_555 1_555
C8 O4 1_555 1_555
C9 C8 1_555 1_555
C10 C9 1_555 1_555
H5 C10 1_555 1_555
C11 C9 1_555 1_555
C5 C6 1_555 1_555
C7 C8 1_555 1_555

#END
