
#######################################################################
#
#                 Cambridge Crystallographic Data Centre
#                                CCDC 
#
#######################################################################
#
# If this CIF has been generated from an entry in the Cambridge 
# Structural Database, then it will include bibliographic, chemical, 
# crystal, experimental, refinement or atomic coordinate data resulting 
# from the CCDC's data processing and validation procedures.
#
#######################################################################

data_BOMGOB
_chemical_name_common            
'isonicotinc acid (2,6-diphenyltetrahydrothiopyran-4-ylidene)hydrazide'
_chemical_formula_moiety         'C23 H21 N3 O1 S1'
_chemical_name_systematic        
N'-(2,6-diphenyltetrahydro-4H-thiopyran-4-ylidene)isonicotinohydrazide
_symmetry_cell_setting           monoclinic
_symmetry_space_group_name_H-M   'P 21/c'
_symmetry_Int_Tables_number      14
_space_group_name_Hall           '-P 2ybc'
loop_
_symmetry_equiv_pos_site_id
_symmetry_equiv_pos_as_xyz
1 x,y,z
2 -x,1/2+y,1/2-z
3 -x,-y,-z
4 x,1/2-y,1/2+z
_cell_length_a                   9.4089(9)
_cell_length_b                   13.6000(14)
_cell_length_c                   16.1335(14)
_cell_angle_alpha                90
_cell_angle_beta                 96.905(5)
_cell_angle_gamma                90
_cell_volume                     2049.49
_exptl_crystal_colour            colorless
_exptl_crystal_description       prism
_cell_formula_units_Z            4
loop_
_atom_site_label
_atom_site_type_symbol
_atom_site_fract_x
_atom_site_fract_y
_atom_site_fract_z
C1 C 0.2802(2) 0.31092(14) 0.27086(12)
C2 C 0.2700(2) 0.21666(14) 0.22040(12)
H1 H 0.1708 0.1957 0.2112
H2 H 0.3016 0.2292 0.1663
C3 C 0.3589(2) 0.13593(14) 0.26313(12)
C4 C 0.4442(2) 0.15808(15) 0.34562(11)
H3 H 0.5102 0.2114 0.3387
H4 H 0.5001 0.1007 0.3646
C5 C 0.3479(2) 0.18678(15) 0.41171(12)
C6 C 0.4345(2) 0.20915(16) 0.49464(12)
C7 C 0.4619(3) 0.13382(18) 0.55149(13)
H5 H 0.4220 0.0722 0.5392
C8 C 0.5466(3) 0.1480(2) 0.62569(14)
H6 H 0.5645 0.0963 0.6632
C9 C 0.6047(3) 0.2386(2) 0.64427(14)
H7 H 0.6635 0.2483 0.6942
C10 C 0.5766(3) 0.3153(2) 0.58954(14)
H8 H 0.6143 0.3772 0.6030
C11 C 0.4925(2) 0.30040(18) 0.51450(13)
H9 H 0.4748 0.3523 0.4771
C12 C 0.1866(2) 0.39314(15) 0.23328(13)
C13 C 0.2462(3) 0.48380(17) 0.22314(15)
H10 H 0.3438 0.4930 0.2382
C14 C 0.1629(3) 0.5613(2) 0.1909(2)
H11 H 0.2044 0.6225 0.1845
C15 C 0.0200(3) 0.5486(2) 0.1683(2)
H12 H -0.0357 0.6008 0.1460
C16 C -0.0417(3) 0.4592(2) 0.1785(2)
H13 H -0.1395 0.4509 0.1637
C17 C 0.0409(3) 0.38117(18) 0.21082(16)
H14 H -0.0014 0.3204 0.2175
C18 C 0.2870(2) -0.06811(15) 0.13431(12)
C19 C 0.1949(2) -0.08728(14) 0.05417(11)
C20 C 0.1801(2) -0.02164(15) -0.01168(12)
H15 H 0.2286 0.0381 -0.0078
C21 C 0.0923(2) -0.04628(17) -0.08288(12)
H16 H 0.0847 -0.0021 -0.1272
C22 C 0.0352(3) -0.19209(18) -0.02923(15)
H17 H -0.0148 -0.2512 -0.0348
C23 C 0.1226(2) -0.17522(16) 0.04395(13)
H18 H 0.1327 -0.2225 0.0859
N1 N 0.36747(17) 0.04800(12) 0.23662(10)
N2 N 0.2866(2) 0.02560(13) 0.16158(10)
O1 O 0.3560(2) -0.13323(12) 0.17110(10)
N3 N 0.0180(2) -0.12888(15) -0.09239(11)
S1 S 0.22743(6) 0.28730(4) 0.37465(3)
H19 H 0.378(2) 0.3352(15) 0.2751(12)
H20 H 0.224(3) 0.0625(18) 0.1409(14)
H21 H 0.281(2) 0.1308(15) 0.4215(12)
loop_
_geom_bond_atom_site_label_1
_geom_bond_atom_site_label_2
_geom_bond_site_symmetry_1
_geom_bond_site_symmetry_2
C1 C2 1_555 1_555
C2 H1 1_555 1_555
H2 C2 1_555 1_555
C3 C2 1_555 1_555
C4 C3 1_555 1_555
H3 C4 1_555 1_555
H4 C4 1_555 1_555
C5 C4 1_555 1_555
C6 C5 1_555 1_555
C7 C6 1_555 1_555
H5 C7 1_555 1_555
C8 C7 1_555 1_555
H6 C8 1_555 1_555
C9 C8 1_555 1_555
H7 C9 1_555 1_555
C10 C9 1_555 1_555
H8 C10 1_555 1_555
C11 C6 1_555 1_555
H9 C11 1_555 1_555
C12 C1 1_555 1_555
C13 C12 1_555 1_555
H10 C13 1_555 1_555
C14 C13 1_555 1_555
H11 C14 1_555 1_555
C15 C14 1_555 1_555
H12 C15 1_555 1_555
C16 C15 1_555 1_555
H13 C16 1_555 1_555
C17 C12 1_555 1_555
H14 C17 1_555 1_555
C18 C19 1_555 1_555
C19 C20 1_555 1_555
C20 H15 1_555 1_555
C21 C20 1_555 1_555
H16 C21 1_555 1_555
C22 H17 1_555 1_555
C23 C19 1_555 1_555
H18 C23 1_555 1_555
N1 C3 1_555 1_555
N2 C18 1_555 1_555
O1 C18 1_555 1_555
N3 C21 1_555 1_555
S1 C1 1_555 1_555
H19 C1 1_555 1_555
H20 N2 1_555 1_555
H21 C5 1_555 1_555
C5 S1 1_555 1_555
C10 C11 1_555 1_555
C16 C17 1_555 1_555
C22 C23 1_555 1_555
C22 N3 1_555 1_555
N1 N2 1_555 1_555

#END
