
#######################################################################
#
#                 Cambridge Crystallographic Data Centre
#                                CCDC 
#
#######################################################################
#
# If this CIF has been generated from an entry in the Cambridge 
# Structural Database, then it will include bibliographic, chemical, 
# crystal, experimental, refinement or atomic coordinate data resulting 
# from the CCDC's data processing and validation procedures.
#
#######################################################################

data_BONFUG
_chemical_formula_moiety         'C19 H18 O1 P1 1+,I1 1-'
_chemical_name_systematic        '(Hydroxymethyl)triphenylphosphonium iodide'
_symmetry_cell_setting           monoclinic
_symmetry_space_group_name_H-M   'P 21/c'
_symmetry_Int_Tables_number      14
_space_group_name_Hall           '-P 2ybc'
loop_
_symmetry_equiv_pos_site_id
_symmetry_equiv_pos_as_xyz
1 x,y,z
2 -x,1/2+y,1/2-z
3 -x,-y,-z
4 x,1/2-y,1/2+z
_cell_length_a                   9.2389(7)
_cell_length_b                   17.4224(13)
_cell_length_c                   11.4574(9)
_cell_angle_alpha                90
_cell_angle_beta                 103.3130(10)
_cell_angle_gamma                90
_cell_volume                     1794.67
_exptl_crystal_colour            colorless
_exptl_crystal_description       'thick plate'
_chemical_melting_point          168-170deg.C
_cell_formula_units_Z            4
_exptl_crystal_recrystallization_method ethanol
loop_
_atom_site_label
_atom_site_type_symbol
_atom_site_fract_x
_atom_site_fract_y
_atom_site_fract_z
I1 I 0.046279(12) 0.147953(6) 0.476850(10)
P1 P 0.32833(4) 0.10679(2) 0.15380(3)
C1 C 0.22147(17) 0.17669(9) 0.21798(14)
H1 H 0.1932 0.2203 0.1620
H2 H 0.1292 0.1525 0.2304
O1 O 0.30754(13) 0.20339(7) 0.32839(11)
H3 H 0.2642 0.1929 0.3833
C2 C 0.49108(17) 0.15299(8) 0.12597(14)
C3 C 0.60008(18) 0.17861(10) 0.22414(16)
H4 H 0.5882 0.1708 0.3035
C4 C 0.72554(19) 0.21552(10) 0.20489(19)
H5 H 0.7990 0.2339 0.2711
C5 C 0.7438(2) 0.22557(10) 0.0894(2)
H6 H 0.8299 0.2508 0.0765
C6 C 0.6371(2) 0.19902(11) -0.00744(19)
H7 H 0.6511 0.2054 -0.0865
C7 C 0.5098(2) 0.16322(10) 0.01017(16)
H8 H 0.4359 0.1458 -0.0566
C8 C 0.38609(16) 0.02817(8) 0.25378(13)
C9 C 0.51369(18) -0.01299(10) 0.24759(16)
H9 H 0.5724 0.0026 0.1938
C10 C 0.55454(19) -0.07680(10) 0.32035(18)
H10 H 0.6411 -0.1051 0.3162
C11 C 0.4689(2) -0.09914(10) 0.39894(17)
H11 H 0.4967 -0.1430 0.4482
C12 C 0.3436(2) -0.05825(10) 0.40626(16)
H12 H 0.2856 -0.0741 0.4604
C13 C 0.30167(17) 0.00625(9) 0.33462(15)
H13 H 0.2164 0.0350 0.3408
C14 C 0.21508(16) 0.07491(8) 0.01384(13)
C15 C 0.1408(2) 0.12945(10) -0.06752(16)
H14 H 0.1386 0.1816 -0.0440
C16 C 0.0701(2) 0.10724(11) -0.18295(16)
H15 H 0.0200 0.1443 -0.2387
C17 C 0.07264(18) 0.03130(11) -0.21662(16)
H16 H 0.0278 0.0166 -0.2966
C18 C 0.13998(18) -0.02345(10) -0.13477(16)
H17 H 0.1372 -0.0759 -0.1577
C19 C 0.21186(17) -0.00213(9) -0.01903(15)
H18 H 0.2584 -0.0398 0.0372
loop_
_geom_bond_atom_site_label_1
_geom_bond_atom_site_label_2
_geom_bond_site_symmetry_1
_geom_bond_site_symmetry_2
P1 C1 1_555 1_555
C1 H1 1_555 1_555
H2 C1 1_555 1_555
O1 C1 1_555 1_555
H3 O1 1_555 1_555
C2 P1 1_555 1_555
C3 C2 1_555 1_555
H4 C3 1_555 1_555
C4 C3 1_555 1_555
H5 C4 1_555 1_555
C5 C4 1_555 1_555
H6 C5 1_555 1_555
C6 C5 1_555 1_555
H7 C6 1_555 1_555
C7 C2 1_555 1_555
H8 C7 1_555 1_555
C8 P1 1_555 1_555
C9 C8 1_555 1_555
H9 C9 1_555 1_555
C10 C9 1_555 1_555
H10 C10 1_555 1_555
C11 C10 1_555 1_555
H11 C11 1_555 1_555
C12 C11 1_555 1_555
H12 C12 1_555 1_555
C13 C8 1_555 1_555
H13 C13 1_555 1_555
C14 P1 1_555 1_555
C15 C14 1_555 1_555
H14 C15 1_555 1_555
C16 C15 1_555 1_555
H15 C16 1_555 1_555
C17 C16 1_555 1_555
H16 C17 1_555 1_555
C18 C17 1_555 1_555
H17 C18 1_555 1_555
C19 C14 1_555 1_555
H18 C19 1_555 1_555
C6 C7 1_555 1_555
C12 C13 1_555 1_555
C18 C19 1_555 1_555

#END
