
#######################################################################
#
#                 Cambridge Crystallographic Data Centre
#                                CCDC 
#
#######################################################################
#
# If this CIF has been generated from an entry in the Cambridge 
# Structural Database, then it will include bibliographic, chemical, 
# crystal, experimental, refinement or atomic coordinate data resulting 
# from the CCDC's data processing and validation procedures.
#
#######################################################################

data_BONXUZ
_chemical_formula_moiety         'C18 H20 N2 S1'
_chemical_name_systematic        
N-(1-Phenylethyl)-1,2,3,4-tetrahydroisoquinoline-3-carbothioamide
_symmetry_cell_setting           orthorhombic
_symmetry_space_group_name_H-M   'P 21 21 21'
_symmetry_Int_Tables_number      19
_space_group_name_Hall           'P 2ac 2ab'
loop_
_symmetry_equiv_pos_site_id
_symmetry_equiv_pos_as_xyz
1 x,y,z
2 1/2-x,-y,1/2+z
3 1/2+x,1/2-y,-z
4 -x,1/2+y,1/2-z
_cell_length_a                   5.8660(4)
_cell_length_b                   8.6230(7)
_cell_length_c                   31.1701(18)
_cell_angle_alpha                90
_cell_angle_beta                 90
_cell_angle_gamma                90
_cell_volume                     1576.66
_exptl_crystal_colour            'light yellow'
_exptl_crystal_description       block
_cell_formula_units_Z            4
loop_
_atom_site_label
_atom_site_type_symbol
_atom_site_fract_x
_atom_site_fract_y
_atom_site_fract_z
S1 S -0.06230(10) 0.75438(10) 0.59662(2)
N1 N 0.3471(3) 0.8832(2) 0.60211(6)
H1 H 0.4747 0.8940 0.6203
C1 C 0.2316(4) 0.7420(3) 0.66509(7)
H2 H 0.1735 0.6361 0.6684
N2 N 0.4743(3) 0.7455(3) 0.67588(6)
H3 H 0.5740 0.6881 0.6574
C2 C 0.1065(4) 0.8493(3) 0.69634(7)
H4 H -0.0566 0.8389 0.6922
H5 H 0.1480 0.9559 0.6903
C3 C 0.1660(4) 0.8114(3) 0.74236(8)
C4 C 0.5135(4) 0.6651(3) 0.71706(8)
H6 H 0.4855 0.5551 0.7133
H7 H 0.6715 0.6781 0.7255
C5 C 0.3333(5) 0.9528(3) 0.55908(7)
H8 H 0.1718 0.9563 0.5511
C6 C 0.4187(4) 1.1191(3) 0.56101(7)
C7 C 0.3605(4) 0.7265(3) 0.75195(7)
C8 C 0.2772(4) 1.2302(3) 0.57875(8)
H9 H 0.1369 1.2007 0.5900
C9 C 0.6291(5) 1.1635(3) 0.54563(9)
H10 H 0.7273 1.0897 0.5342
C10 C 0.4106(5) 0.6937(3) 0.79484(8)
H11 H 0.5402 0.6364 0.8015
C11 C 0.1853(4) 0.7983(3) 0.61992(7)
C12 C 0.4531(5) 0.8496(3) 0.52669(8)
H12 H 0.3834 0.7489 0.5267
H13 H 0.4404 0.8947 0.4986
H14 H 0.6111 0.8400 0.5343
C13 C 0.5520(6) 1.4281(3) 0.56488(10)
H15 H 0.5968 1.5314 0.5662
C14 C 0.2715(5) 0.7446(4) 0.82748(8)
H16 H 0.3074 0.7220 0.8559
C15 C 0.0256(5) 0.8622(3) 0.77559(8)
H17 H -0.1050 0.9189 0.7693
C16 C 0.3425(6) 1.3844(3) 0.58022(10)
H18 H 0.2440 1.4583 0.5916
C17 C 0.6958(5) 1.3185(4) 0.54756(10)
H19 H 0.8374 1.3480 0.5369
C18 C 0.0776(6) 0.8287(3) 0.81796(9)
H20 H -0.0167 0.8635 0.8399
loop_
_geom_bond_atom_site_label_1
_geom_bond_atom_site_label_2
_geom_bond_site_symmetry_1
_geom_bond_site_symmetry_2
S1 C11 1_555 1_555
N1 H1 1_555 1_555
C1 H2 1_555 1_555
N2 C1 1_555 1_555
H3 N2 1_555 1_555
C2 C1 1_555 1_555
H4 C2 1_555 1_555
H5 C2 1_555 1_555
C3 C2 1_555 1_555
C4 N2 1_555 1_555
H6 C4 1_555 1_555
H7 C4 1_555 1_555
C5 N1 1_555 1_555
H8 C5 1_555 1_555
C6 C5 1_555 1_555
C7 C3 1_555 1_555
C8 C6 1_555 1_555
H9 C8 1_555 1_555
C9 C6 1_555 1_555
H10 C9 1_555 1_555
C10 C7 1_555 1_555
H11 C10 1_555 1_555
C11 N1 1_555 1_555
C12 C5 1_555 1_555
H12 C12 1_555 1_555
H13 C12 1_555 1_555
H14 C12 1_555 1_555
C13 H15 1_555 1_555
C14 C10 1_555 1_555
H16 C14 1_555 1_555
C15 C3 1_555 1_555
H17 C15 1_555 1_555
C16 C8 1_555 1_555
H18 C16 1_555 1_555
C17 C9 1_555 1_555
H19 C17 1_555 1_555
C18 C14 1_555 1_555
H20 C18 1_555 1_555
C1 C11 1_555 1_555
C4 C7 1_555 1_555
C13 C16 1_555 1_555
C13 C17 1_555 1_555
C15 C18 1_555 1_555

#END
