
#######################################################################
#
#                 Cambridge Crystallographic Data Centre
#                                CCDC 
#
#######################################################################
#
# If this CIF has been generated from an entry in the Cambridge 
# Structural Database, then it will include bibliographic, chemical, 
# crystal, experimental, refinement or atomic coordinate data resulting 
# from the CCDC's data processing and validation procedures.
#
#######################################################################

data_BOPBEP
_chemical_formula_moiety         'C12 H14 N2 O2'
_chemical_name_systematic        
(6-Hydroxy-7-methoxy-3,4-dihydroisoquinolin-2(1H)-yl)acetonitrile
_symmetry_cell_setting           orthorhombic
_symmetry_space_group_name_H-M   'P 21 21 21'
_symmetry_Int_Tables_number      19
_space_group_name_Hall           'P 2ac 2ab'
loop_
_symmetry_equiv_pos_site_id
_symmetry_equiv_pos_as_xyz
1 x,y,z
2 1/2+x,1/2-y,-z
3 -x,1/2+y,1/2-z
4 1/2-x,-y,1/2+z
_cell_length_a                   6.44687(15)
_cell_length_b                   8.8558(2)
_cell_length_c                   19.8617(5)
_cell_angle_alpha                90
_cell_angle_beta                 90
_cell_angle_gamma                90
_cell_volume                     1133.95
_exptl_crystal_colour            colorless
_exptl_crystal_description       platelet
_cell_formula_units_Z            4
loop_
_atom_site_label
_atom_site_type_symbol
_atom_site_fract_x
_atom_site_fract_y
_atom_site_fract_z
O1 O 0.2223(2) 0.76201(15) 0.38113(6)
O2 O 0.5154(3) 0.55987(17) 0.36689(7)
N1 N 0.4565(6) 0.5474(4) -0.02966(14)
N2 N 0.1078(3) 0.44776(19) 0.09050(7)
C1 C 0.2910(4) 0.4426(3) 0.13486(10)
C2 C 0.0219(4) 0.6017(3) 0.08605(9)
C3 C -0.0602(4) 0.6512(3) 0.15400(9)
C4 C 0.0845(3) 0.7059(3) 0.27043(9)
C5 C 0.2251(3) 0.6847(3) 0.32188(9)
C6 C 0.3841(3) 0.5778(3) 0.31298(10)
C7 C 0.3991(3) 0.5002(3) 0.25301(10)
C8 C 0.2573(3) 0.5247(3) 0.20040(9)
C9 C 0.0978(3) 0.6267(3) 0.20973(9)
C10 C 0.1606(4) 0.3861(3) 0.02392(11)
C11 C 0.3260(6) 0.4739(3) -0.00931(12)
C12 C 0.6636(5) 0.4410(4) 0.36092(15)
H1 H 0.4105 0.4884 0.1111
H2 H 0.3258 0.3359 0.1445
H3 H 0.1235 0.8238 0.3809
H4 H -0.0917 0.6038 0.0525
H5 H 0.1313 0.6725 0.0709
H6 H -0.1877 0.5935 0.1645
H7 H -0.0973 0.7595 0.1520
H8 H -0.0248 0.7765 0.2764
H9 H 0.5074 0.4286 0.2471
H10 H 0.0352 0.3866 -0.0049
H11 H 0.2066 0.2801 0.0290
H12 H 0.7521 0.4394 0.4010
H13 H 0.7493 0.4578 0.3209
H14 H 0.5911 0.3442 0.3567
loop_
_geom_bond_atom_site_label_1
_geom_bond_atom_site_label_2
_geom_bond_site_symmetry_1
_geom_bond_site_symmetry_2
O1 C5 1_555 1_555
O2 C6 1_555 1_555
N1 C11 1_555 1_555
N2 C1 1_555 1_555
C1 C8 1_555 1_555
C2 N2 1_555 1_555
C3 C2 1_555 1_555
C4 C5 1_555 1_555
C5 C6 1_555 1_555
C6 C7 1_555 1_555
C7 C8 1_555 1_555
C8 C9 1_555 1_555
C9 C3 1_555 1_555
C10 N2 1_555 1_555
C11 C10 1_555 1_555
C12 O2 1_555 1_555
H1 C1 1_555 1_555
H2 C1 1_555 1_555
H3 O1 1_555 1_555
H4 C2 1_555 1_555
H5 C2 1_555 1_555
H6 C3 1_555 1_555
H7 C3 1_555 1_555
H8 C4 1_555 1_555
H9 C7 1_555 1_555
H10 C10 1_555 1_555
H11 C10 1_555 1_555
H12 C12 1_555 1_555
H13 C12 1_555 1_555
H14 C12 1_555 1_555
C4 C9 1_555 1_555

#END
