
#######################################################################
#
#                 Cambridge Crystallographic Data Centre
#                                CCDC 
#
#######################################################################
#
# If this CIF has been generated from an entry in the Cambridge 
# Structural Database, then it will include bibliographic, chemical, 
# crystal, experimental, refinement or atomic coordinate data resulting 
# from the CCDC's data processing and validation procedures.
#
#######################################################################

data_BOPGAQ
_chemical_formula_moiety         'C17 H16 O3'
_chemical_name_systematic        3-(2,6-Dimethoxyphenyl)-3-phenylacrylaldehyde
_symmetry_cell_setting           orthorhombic
_symmetry_space_group_name_H-M   'P c a 21'
_symmetry_Int_Tables_number      29
_space_group_name_Hall           'P 2c -2ac'
loop_
_symmetry_equiv_pos_site_id
_symmetry_equiv_pos_as_xyz
1 x,y,z
2 -x,-y,1/2+z
3 1/2+x,-y,z
4 1/2-x,y,1/2+z
_cell_length_a                   16.5918(15)
_cell_length_b                   11.0463(10)
_cell_length_c                   15.4242(14)
_cell_angle_alpha                90
_cell_angle_beta                 90
_cell_angle_gamma                90
_cell_volume                     2826.92
_cell_formula_units_Z            8
loop_
_atom_site_label
_atom_site_type_symbol
_atom_site_fract_x
_atom_site_fract_y
_atom_site_fract_z
O1 O 0.7283(4) -0.0078(5) 1.1150(5)
C1 C 0.6633(6) 0.0193(7) 1.0866(6)
H1 H 0.6334 0.0793 1.1169
C2 C 0.6273(6) -0.0322(7) 1.0099(5)
H2 H 0.6566 -0.0959 0.9832
C3 C 0.5572(6) -0.0016(6) 0.9711(5)
C4 C 0.5251(5) -0.0785(7) 0.8998(5)
O2 O 0.5578(3) 0.0767(6) 0.8061(4)
C5 C 0.5286(5) -0.0373(9) 0.8159(6)
C6 C 0.5027(5) -0.1100(10) 0.7483(6)
H3 H 0.5053 -0.0809 0.6904
C7 C 0.4734(5) -0.2236(10) 0.7644(7)
H4 H 0.4561 -0.2732 0.7177
C8 C 0.4689(5) -0.2665(7) 0.8485(7)
H5 H 0.4475 -0.3448 0.8595
O3 O 0.4933(4) -0.2286(5) 1.0014(4)
C9 C 0.4958(5) -0.1951(8) 0.9173(6)
C10 C 0.4760(6) -0.3517(7) 1.0192(7)
H6 H 0.4757 -0.3647 1.0821
H7 H 0.5174 -0.4030 0.9926
H8 H 0.4231 -0.3725 0.9953
C11 C 0.5644(6) 0.1230(8) 0.7186(6)
H9 H 0.5853 0.2059 0.7202
H10 H 0.5112 0.1227 0.6912
H11 H 0.6013 0.0717 0.6852
C12 C 0.5080(6) 0.1052(7) 0.9979(4)
C13 C 0.4253(6) 0.0934(8) 1.0106(5)
H12 H 0.4006 0.0167 1.0021
C14 C 0.3786(5) 0.1903(11) 1.0351(6)
H13 H 0.3222 0.1809 1.0432
C15 C 0.4142(8) 0.3000(10) 1.0476(6)
H14 H 0.3827 0.3673 1.0656
C16 C 0.4968(8) 0.3139(8) 1.0339(6)
H15 H 0.5212 0.3910 1.0419
C17 C 0.5425(5) 0.2181(9) 1.0095(6)
H16 H 0.5987 0.2285 1.0001
O4 O 0.4757(5) -0.4687(7) 1.2177(6)
C18 C 0.4104(7) -0.5080(9) 1.2490(8)
H17 H 0.3823 -0.5698 1.2187
C19 C 0.3777(7) -0.4640(8) 1.3267(6)
H18 H 0.4063 -0.3999 1.3539
C20 C 0.3100(5) -0.5024(7) 1.3674(6)
C21 C 0.2821(5) -0.4297(8) 1.4406(6)
O5 O 0.2491(4) -0.2743(5) 1.3456(5)
C22 C 0.2513(5) -0.3123(9) 1.4301(8)
C23 C 0.2274(5) -0.2472(9) 1.5009(9)
H19 H 0.2059 -0.1679 1.4943
C24 C 0.2347(6) -0.2971(12) 1.5797(9)
H20 H 0.2190 -0.2508 1.6288
C25 C 0.2637(6) -0.4113(10) 1.5928(7)
H21 H 0.2673 -0.4439 1.6497
O6 O 0.3191(4) -0.5904(6) 1.5285(4)
C26 C 0.2872(5) -0.4771(8) 1.5236(7)
C27 C 0.2313(6) -0.1485(8) 1.3298(8)
H22 H 0.2316 -0.1329 1.2673
H23 H 0.2723 -0.0980 1.3580
H24 H 0.1781 -0.1289 1.3536
C28 C 0.3294(6) -0.6475(9) 1.6111(6)
H25 H 0.3530 -0.7280 1.6030
H26 H 0.2769 -0.6553 1.6398
H27 H 0.3653 -0.5982 1.6472
C29 C 0.2635(6) -0.6129(8) 1.3428(5)
C30 C 0.1802(6) -0.6099(9) 1.3454(5)
H28 H 0.1535 -0.5375 1.3620
C31 C 0.1357(6) -0.7102(12) 1.3243(6)
H29 H 0.0785 -0.7074 1.3269
C32 C 0.1746(9) -0.8162(10) 1.2989(6)
H30 H 0.1441 -0.8859 1.2839
C33 C 0.2570(9) -0.8193(9) 1.2957(7)
H31 H 0.2839 -0.8903 1.2764
C34 C 0.3003(6) -0.7202(9) 1.3203(6)
H32 H 0.3574 -0.7253 1.3219
loop_
_geom_bond_atom_site_label_1
_geom_bond_atom_site_label_2
_geom_bond_site_symmetry_1
_geom_bond_site_symmetry_2
O1 C1 1_555 1_555
C1 H1 1_555 1_555
C2 C1 1_555 1_555
H2 C2 1_555 1_555
C3 C2 1_555 1_555
C4 C3 1_555 1_555
O2 C5 1_555 1_555
C5 C4 1_555 1_555
C6 C5 1_555 1_555
H3 C6 1_555 1_555
C7 C6 1_555 1_555
H4 C7 1_555 1_555
C8 C7 1_555 1_555
H5 C8 1_555 1_555
O3 C9 1_555 1_555
C9 C4 1_555 1_555
C10 O3 1_555 1_555
H6 C10 1_555 1_555
H7 C10 1_555 1_555
H8 C10 1_555 1_555
C11 O2 1_555 1_555
H9 C11 1_555 1_555
H10 C11 1_555 1_555
H11 C11 1_555 1_555
C12 C3 1_555 1_555
C13 C12 1_555 1_555
H12 C13 1_555 1_555
C14 C13 1_555 1_555
H13 C14 1_555 1_555
C15 C14 1_555 1_555
H14 C15 1_555 1_555
C16 C15 1_555 1_555
H15 C16 1_555 1_555
C17 C12 1_555 1_555
H16 C17 1_555 1_555
O4 C18 1_555 1_555
C18 H17 1_555 1_555
C19 C18 1_555 1_555
H18 C19 1_555 1_555
C20 C19 1_555 1_555
C21 C20 1_555 1_555
O5 C22 1_555 1_555
C22 C21 1_555 1_555
C23 C22 1_555 1_555
H19 C23 1_555 1_555
C24 C23 1_555 1_555
H20 C24 1_555 1_555
C25 C24 1_555 1_555
H21 C25 1_555 1_555
O6 C26 1_555 1_555
C26 C21 1_555 1_555
C27 O5 1_555 1_555
H22 C27 1_555 1_555
H23 C27 1_555 1_555
H24 C27 1_555 1_555
C28 O6 1_555 1_555
H25 C28 1_555 1_555
H26 C28 1_555 1_555
H27 C28 1_555 1_555
C29 C20 1_555 1_555
C30 C29 1_555 1_555
H28 C30 1_555 1_555
C31 C30 1_555 1_555
H29 C31 1_555 1_555
C32 C31 1_555 1_555
H30 C32 1_555 1_555
C33 C32 1_555 1_555
H31 C33 1_555 1_555
C34 C29 1_555 1_555
H32 C34 1_555 1_555
C8 C9 1_555 1_555
C16 C17 1_555 1_555
C25 C26 1_555 1_555
C33 C34 1_555 1_555

#END
