
#######################################################################
#
#                 Cambridge Crystallographic Data Centre
#                                CCDC 
#
#######################################################################
#
# If this CIF has been generated from an entry in the Cambridge 
# Structural Database, then it will include bibliographic, chemical, 
# crystal, experimental, refinement or atomic coordinate data resulting 
# from the CCDC's data processing and validation procedures.
#
#######################################################################

data_BOPROP
_chemical_formula_moiety         'C19 H25 N1 O1'
_chemical_name_systematic        
3-(2-ethylidene-7-oxo-1,2,3,4,4a,4b,5,6,7,9,10,10a-dodecahydrophenanthren-1-yl)propanenitrile
_symmetry_cell_setting           monoclinic
_symmetry_space_group_name_H-M   'P 21'
_symmetry_Int_Tables_number      4
_space_group_name_Hall           'P 2yb'
loop_
_symmetry_equiv_pos_site_id
_symmetry_equiv_pos_as_xyz
1 x,y,z
2 -x,1/2+y,-z
_cell_length_a                   6.2823(7)
_cell_length_b                   14.9311(18)
_cell_length_c                   9.1583(10)
_cell_angle_alpha                90
_cell_angle_beta                 108.264(2)
_cell_angle_gamma                90
_cell_volume                     815.786
_exptl_crystal_colour            colorless
_exptl_crystal_description       prismatic
_cell_formula_units_Z            2
loop_
_atom_site_label
_atom_site_type_symbol
_atom_site_fract_x
_atom_site_fract_y
_atom_site_fract_z
N1 N 1.2082(5) 0.4838(2) -0.3169(3)
O1 O 0.1034(3) 0.70223(15) 0.5018(2)
C1 C 0.3443(4) 0.81404(15) 0.2469(3)
H1 H 0.3924 0.8742 0.2324
H2 H 0.2046 0.8024 0.1662
C2 C 0.3049(4) 0.80828(17) 0.4027(3)
H3 H 0.4410 0.8251 0.4830
H4 H 0.1880 0.8501 0.4053
C3 C 0.2382(4) 0.71601(18) 0.4326(2)
C4 C 0.3500(4) 0.64306(16) 0.3804(2)
H5 H 0.3219 0.5846 0.4044
C5 C 0.4923(3) 0.65630(14) 0.2989(2)
C6 C 0.6361(4) 0.58286(15) 0.2707(3)
H6 H 0.5842 0.5262 0.2986
H7 H 0.7888 0.5918 0.3369
C7 C 0.6359(4) 0.57757(15) 0.1036(3)
H8 H 0.4893 0.5584 0.0386
H9 H 0.7448 0.5334 0.0955
C8 C 0.6929(3) 0.66877(13) 0.0472(2)
H10 H 0.8411 0.6869 0.1146
C9 C 0.5214(3) 0.73775(13) 0.0649(2)
H11 H 0.3732 0.7150 0.0057
C10 C 0.5217(3) 0.74685(13) 0.2340(2)
H12 H 0.6687 0.7701 0.2947
C11 C 0.5471(4) 0.82820(15) -0.0038(3)
H13 H 0.6884 0.8551 0.0553
H14 H 0.4271 0.8677 0.0015
C12 C 0.5404(4) 0.81794(17) -0.1711(3)
H15 H 0.3972 0.7930 -0.2313
H16 H 0.5567 0.8762 -0.2134
C13 C 0.7264(3) 0.75733(14) -0.1799(2)
C14 C 0.7036(3) 0.66376(13) -0.1202(2)
H17 H 0.5591 0.6400 -0.1844
C15 C 0.8844(4) 0.59781(14) -0.1333(2)
H18 H 0.8787 0.5445 -0.0740
H19 H 1.0306 0.6251 -0.0888
C16 C 0.8573(4) 0.57025(17) -0.3000(2)
H20 H 0.7249 0.5331 -0.3386
H21 H 0.8359 0.6234 -0.3638
C17 C 1.0534(5) 0.52088(17) -0.3112(3)
C18 C 0.8948(4) 0.78536(16) -0.2274(3)
H22 H 1.0057 0.7435 -0.2245
C19 C 0.9252(4) 0.87628(19) -0.2848(4)
H23 H 0.8490 0.9196 -0.2417
H24 H 0.8642 0.8774 -0.3949
H25 H 1.0821 0.8904 -0.2548
loop_
_geom_bond_atom_site_label_1
_geom_bond_atom_site_label_2
_geom_bond_site_symmetry_1
_geom_bond_site_symmetry_2
N1 C17 1_555 1_555
O1 C3 1_555 1_555
C1 H1 1_555 1_555
H2 C1 1_555 1_555
C2 C1 1_555 1_555
H3 C2 1_555 1_555
H4 C2 1_555 1_555
C3 C2 1_555 1_555
C4 C3 1_555 1_555
H5 C4 1_555 1_555
C5 C4 1_555 1_555
C6 C5 1_555 1_555
H6 C6 1_555 1_555
H7 C6 1_555 1_555
C7 C6 1_555 1_555
H8 C7 1_555 1_555
H9 C7 1_555 1_555
C8 C7 1_555 1_555
H10 C8 1_555 1_555
C9 C8 1_555 1_555
H11 C9 1_555 1_555
C10 C1 1_555 1_555
H12 C10 1_555 1_555
C11 C9 1_555 1_555
H13 C11 1_555 1_555
H14 C11 1_555 1_555
C12 C11 1_555 1_555
H15 C12 1_555 1_555
H16 C12 1_555 1_555
C13 C12 1_555 1_555
C14 C8 1_555 1_555
H17 C14 1_555 1_555
C15 C14 1_555 1_555
H18 C15 1_555 1_555
H19 C15 1_555 1_555
C16 C15 1_555 1_555
H20 C16 1_555 1_555
H21 C16 1_555 1_555
C17 C16 1_555 1_555
C18 C13 1_555 1_555
H22 C18 1_555 1_555
C19 C18 1_555 1_555
H23 C19 1_555 1_555
H24 C19 1_555 1_555
H25 C19 1_555 1_555
C5 C10 1_555 1_555
C9 C10 1_555 1_555
C13 C14 1_555 1_555

#END
