
#######################################################################
#
#                 Cambridge Crystallographic Data Centre
#                                CCDC 
#
#######################################################################
#
# If this CIF has been generated from an entry in the Cambridge 
# Structural Database, then it will include bibliographic, chemical, 
# crystal, experimental, refinement or atomic coordinate data resulting 
# from the CCDC's data processing and validation procedures.
#
#######################################################################

data_BOPSAC
_chemical_formula_moiety         'C10 H10 Cl1 N3'
_chemical_name_systematic        2-Chloro-4-hydrazino-8-methylquinoline
_symmetry_cell_setting           monoclinic
_symmetry_space_group_name_H-M   'P 21/n'
_symmetry_Int_Tables_number      14
_space_group_name_Hall           '-P 2yn'
loop_
_symmetry_equiv_pos_site_id
_symmetry_equiv_pos_as_xyz
1 x,y,z
2 1/2-x,1/2+y,1/2-z
3 -x,-y,-z
4 1/2+x,1/2-y,1/2+z
_cell_length_a                   8.491(2)
_cell_length_b                   7.515(2)
_cell_length_c                   29.821(8)
_cell_angle_alpha                90
_cell_angle_beta                 98.057(5)
_cell_angle_gamma                90
_cell_volume                     1884.09
_exptl_crystal_colour            pink
_exptl_crystal_description       block
_cell_formula_units_Z            8
loop_
_atom_site_label
_atom_site_type_symbol
_atom_site_fract_x
_atom_site_fract_y
_atom_site_fract_z
C1 C -0.20529(18) 0.2539(2) 0.54619(5)
C2 C -0.27571(18) 0.1841(2) 0.50508(5)
H1 H -0.3854 0.1541 0.5000
C3 C -0.17910(17) 0.1601(2) 0.47165(5)
C4 C -0.01582(17) 0.2155(2) 0.48119(5)
C5 C 0.09063(18) 0.2023(2) 0.44888(5)
H2 H 0.0554 0.1527 0.4199
C6 C 0.24444(19) 0.2608(2) 0.45917(6)
H3 H 0.3160 0.2503 0.4375
C7 C 0.29613(18) 0.3365(2) 0.50195(5)
H4 H 0.4024 0.3785 0.5084
C8 C 0.19756(18) 0.3515(2) 0.53466(5)
C9 C 0.03795(17) 0.2885(2) 0.52458(5)
C10 C 0.25493(19) 0.4350(2) 0.58010(5)
H5 H 0.1768 0.5226 0.5873
H6 H 0.3572 0.4940 0.5790
H7 H 0.2680 0.3424 0.6035
N1 N -0.05785(15) 0.30408(18) 0.55801(4)
N2 N -0.23477(16) 0.09162(19) 0.43051(5)
H8 H -0.171(2) 0.053(3) 0.4130(6)
N3 N -0.39691(17) 0.0427(2) 0.42162(5)
H9 H -0.405(3) -0.073(2) 0.4270(7)
H10 H -0.430(2) 0.064(3) 0.3924(5)
Cl1 Cl -0.32699(5) 0.27625(7) 0.588804(14)
C11 C -0.10037(18) 0.6884(2) 0.22130(5)
C12 C -0.10491(18) 0.7782(2) 0.26206(5)
H11 H -0.1485 0.8945 0.2626
C13 C -0.04306(18) 0.6909(2) 0.30198(5)
C14 C 0.02419(17) 0.5161(2) 0.29826(5)
C15 C 0.09657(18) 0.4182(2) 0.33623(5)
H12 H 0.0995 0.4660 0.3658
C16 C 0.16248(19) 0.2545(2) 0.33036(6)
H13 H 0.2136 0.1910 0.3559
C17 C 0.15483(19) 0.1799(2) 0.28661(6)
H14 H 0.2000 0.0659 0.2832
C18 C 0.08317(19) 0.2692(2) 0.24880(5)
C19 C 0.01857(17) 0.4414(2) 0.25432(5)
C20 C 0.0752(2) 0.1904(2) 0.20217(6)
H15 H -0.0358 0.1857 0.1878
H16 H 0.1195 0.0698 0.2044
H17 H 0.1369 0.2643 0.1839
N4 N -0.04721(15) 0.52877(18) 0.21520(4)
N5 N -0.04477(18) 0.7671(2) 0.34306(5)
H18 H -0.010(3) 0.712(3) 0.3683(6)
N6 N -0.11991(17) 0.93155(19) 0.34834(5)
H19 H -0.2215(19) 0.926(3) 0.3344(7)
H20 H -0.064(2) 1.016(3) 0.3359(7)
Cl2 Cl -0.17814(5) 0.80171(5) 0.171712(13)
loop_
_geom_bond_atom_site_label_1
_geom_bond_atom_site_label_2
_geom_bond_site_symmetry_1
_geom_bond_site_symmetry_2
C1 C2 1_555 1_555
C2 H1 1_555 1_555
C3 C2 1_555 1_555
C4 C3 1_555 1_555
C5 C4 1_555 1_555
H2 C5 1_555 1_555
C6 C5 1_555 1_555
H3 C6 1_555 1_555
C7 C6 1_555 1_555
H4 C7 1_555 1_555
C8 C7 1_555 1_555
C9 C4 1_555 1_555
C10 C8 1_555 1_555
H5 C10 1_555 1_555
H6 C10 1_555 1_555
H7 C10 1_555 1_555
N1 C1 1_555 1_555
N2 C3 1_555 1_555
H8 N2 1_555 1_555
N3 N2 1_555 1_555
H9 N3 1_555 1_555
H10 N3 1_555 1_555
Cl1 C1 1_555 1_555
C11 C12 1_555 1_555
C12 H11 1_555 1_555
C13 C12 1_555 1_555
C14 C13 1_555 1_555
C15 C14 1_555 1_555
H12 C15 1_555 1_555
C16 C15 1_555 1_555
H13 C16 1_555 1_555
C17 C16 1_555 1_555
H14 C17 1_555 1_555
C18 C17 1_555 1_555
C19 C14 1_555 1_555
C20 C18 1_555 1_555
H15 C20 1_555 1_555
H16 C20 1_555 1_555
H17 C20 1_555 1_555
N4 C11 1_555 1_555
N5 C13 1_555 1_555
H18 N5 1_555 1_555
N6 N5 1_555 1_555
H19 N6 1_555 1_555
H20 N6 1_555 1_555
Cl2 C11 1_555 1_555
C8 C9 1_555 1_555
C9 N1 1_555 1_555
C18 C19 1_555 1_555
C19 N4 1_555 1_555

#END
