
#######################################################################
#
#                 Cambridge Crystallographic Data Centre
#                                CCDC 
#
#######################################################################
#
# If this CIF has been generated from an entry in the Cambridge 
# Structural Database, then it will include bibliographic, chemical, 
# crystal, experimental, refinement or atomic coordinate data resulting 
# from the CCDC's data processing and validation procedures.
#
#######################################################################

data_BOPWEJ
_chemical_formula_moiety         'C42 H26 N2 O2,C1 H2 Cl2'
_chemical_name_systematic        
"4,4'-(3,8-bis(4-Methylphenyl)chromeno[6,5,4-def]chromene-2,7-diyl)dibenzonitrile dichloromethane solvate"
_symmetry_cell_setting           monoclinic
_symmetry_space_group_name_H-M   'C 2/c'
_symmetry_Int_Tables_number      15
_space_group_name_Hall           '-C 2yn'
loop_
_symmetry_equiv_pos_site_id
_symmetry_equiv_pos_as_xyz
1 x,y,z
2 -x,y,1/2-z
3 1/2+x,1/2+y,z
4 1/2-x,1/2+y,1/2-z
5 -x,-y,-z
6 x,-y,1/2+z
7 1/2-x,1/2-y,-z
8 1/2+x,1/2-y,1/2+z
_cell_length_a                   17.338(5)
_cell_length_b                   7.722(2)
_cell_length_c                   24.734(7)
_cell_angle_alpha                90
_cell_angle_beta                 104.099(6)
_cell_angle_gamma                90
_cell_volume                     3211.73
_exptl_crystal_colour            red
_exptl_crystal_description       rod
_chemical_melting_point          372-375deg.C
_cell_formula_units_Z            4
_chemical_properties_physical    light-sensitive
_exptl_crystal_recrystallization_method 
chloroform/dichloromethane/acetonitrile
loop_
_atom_site_label
_atom_site_type_symbol
_atom_site_fract_x
_atom_site_fract_y
_atom_site_fract_z
Cl1 Cl 0.08382(4) 0.87840(8) 0.24995(3)
C22 C 0.0000 0.7498(4) 0.2500
H14 H 0.0116 0.6744 0.2834
Cl1A Cl -0.08382(4) 0.87840(8) 0.25005(3)
H14A H -0.0116 0.6744 0.2166
O1 O 1.09113(7) 0.32879(16) 0.49116(6)
N1 N 1.18168(11) 1.1847(2) 0.39027(9)
C1 C 1.03885(11) 0.3935(2) 0.44383(8)
C2 C 0.97034(11) 0.3121(2) 0.41890(8)
C3 C 0.94885(11) 0.1512(2) 0.44306(8)
C4 C 0.87929(11) 0.0603(2) 0.42288(8)
H1 H 0.8403 0.1065 0.3925
C5 C 1.00647(11) 0.0802(2) 0.48828(8)
C6 C 1.07832(11) 0.1670(2) 0.51111(8)
C7 C 1.13536(11) 0.0984(2) 0.55393(9)
H2 H 1.1842 0.1575 0.5678
C8 C 1.07025(11) 0.5585(2) 0.42794(8)
C9 C 1.02016(11) 0.6887(3) 0.39991(9)
H3 H 0.9646 0.6680 0.3881
C10 C 1.05010(12) 0.8462(2) 0.38913(9)
H4 H 1.0153 0.9333 0.3700
C11 C 1.13137(12) 0.8781(2) 0.40627(9)
C12 C 1.18222(12) 0.7497(3) 0.43288(9)
H5 H 1.2379 0.7706 0.4437
C13 C 1.15244(12) 0.5911(3) 0.44384(9)
H6 H 1.1877 0.5035 0.4622
C14 C 1.16039(12) 1.0483(3) 0.39737(9)
C15 C 0.91852(11) 0.3680(2) 0.36458(8)
C16 C 0.93838(11) 0.3239(2) 0.31546(9)
H7 H 0.9860 0.2614 0.3169
C17 C 0.88975(12) 0.3696(3) 0.26426(9)
H8 H 0.9044 0.3372 0.2311
C18 C 0.81956(12) 0.4627(2) 0.26064(9)
C19 C 0.79980(11) 0.5054(3) 0.31007(9)
H9 H 0.7524 0.5689 0.3088
C20 C 0.84752(11) 0.4576(2) 0.36115(9)
H10 H 0.8319 0.4859 0.3943
C21 C 0.76729(13) 0.5137(3) 0.20515(9)
H11 H 0.7231 0.4316 0.1946
H12 H 0.7984 0.5124 0.1770
H13 H 0.7463 0.6305 0.2077
O1D O 0.90887(7) -0.32879(16) 0.50884(6)
N1D N 0.81832(11) -1.1847(2) 0.60973(9)
C1D C 0.96115(11) -0.3935(2) 0.55617(8)
C2D C 1.02966(11) -0.3121(2) 0.58110(8)
C3D C 1.05115(11) -0.1512(2) 0.55694(8)
C4D C 1.12071(11) -0.0603(2) 0.57712(8)
H1D H 1.1597 -0.1065 0.6075
C5D C 0.99353(11) -0.0802(2) 0.51172(8)
C6D C 0.92168(11) -0.1670(2) 0.48889(8)
C7D C 0.86464(11) -0.0984(2) 0.44607(9)
H2D H 0.8158 -0.1575 0.4322
C8D C 0.92975(11) -0.5585(2) 0.57206(8)
C9D C 0.97984(11) -0.6887(3) 0.60009(9)
H3D H 1.0354 -0.6680 0.6119
C10D C 0.94990(12) -0.8462(2) 0.61087(9)
H4D H 0.9847 -0.9333 0.6300
C11D C 0.86863(12) -0.8781(2) 0.59373(9)
C12D C 0.81778(12) -0.7497(3) 0.56712(9)
H5D H 0.7621 -0.7706 0.5563
C13D C 0.84756(12) -0.5911(3) 0.55616(9)
H6D H 0.8123 -0.5035 0.5378
C14D C 0.83961(12) -1.0483(3) 0.60263(9)
C15D C 1.08148(11) -0.3680(2) 0.63542(8)
C16D C 1.06162(11) -0.3239(2) 0.68454(9)
H7D H 1.0140 -0.2614 0.6831
C17D C 1.11025(12) -0.3696(3) 0.73574(9)
H8D H 1.0956 -0.3372 0.7689
C18D C 1.18044(12) -0.4627(2) 0.73936(9)
C19D C 1.20020(11) -0.5054(3) 0.68993(9)
H9D H 1.2476 -0.5689 0.6912
C20D C 1.15248(11) -0.4576(2) 0.63885(9)
H10D H 1.1681 -0.4859 0.6057
C21D C 1.23271(13) -0.5137(3) 0.79485(9)
H11D H 1.2769 -0.4316 0.8054
H12D H 1.2016 -0.5124 0.8230
H13D H 1.2537 -0.6305 0.7923
loop_
_geom_bond_atom_site_label_1
_geom_bond_atom_site_label_2
_geom_bond_site_symmetry_1
_geom_bond_site_symmetry_2
Cl1 C22 1_555 1_555
O1 C1 1_555 1_555
N1 C14 1_555 1_555
C1 C2 1_555 1_555
C2 C3 1_555 1_555
C3 C4 1_555 1_555
C4 H1 1_555 1_555
C5 C3 1_555 1_555
C6 O1 1_555 1_555
C7 C6 1_555 1_555
H2 C7 1_555 1_555
C8 C1 1_555 1_555
C9 C8 1_555 1_555
H3 C9 1_555 1_555
C10 C9 1_555 1_555
H4 C10 1_555 1_555
C11 C10 1_555 1_555
C12 C11 1_555 1_555
H5 C12 1_555 1_555
C13 C8 1_555 1_555
H6 C13 1_555 1_555
C14 C11 1_555 1_555
C15 C2 1_555 1_555
C16 C15 1_555 1_555
H7 C16 1_555 1_555
C17 C16 1_555 1_555
H8 C17 1_555 1_555
C18 C17 1_555 1_555
C19 C18 1_555 1_555
H9 C19 1_555 1_555
C20 C15 1_555 1_555
H10 C20 1_555 1_555
C21 C18 1_555 1_555
H11 C21 1_555 1_555
H12 C21 1_555 1_555
H13 C21 1_555 1_555
C22 H14 1_555 1_555
Cl1A C22 1_555 1_555
O1D C1D 1_555 1_555
N1D C14D 1_555 1_555
C1D C2D 1_555 1_555
C2D C3D 1_555 1_555
C3D C4D 1_555 1_555
C4D C7 1_555 1_555
H1D C4D 1_555 1_555
C5D C5 1_555 1_555
C6D O1D 1_555 1_555
C7D C4 1_555 1_555
H2D C7D 1_555 1_555
C8D C1D 1_555 1_555
C9D C8D 1_555 1_555
H3D C9D 1_555 1_555
C10D C9D 1_555 1_555
H4D C10D 1_555 1_555
C11D C10D 1_555 1_555
C12D C11D 1_555 1_555
H5D C12D 1_555 1_555
C13D C8D 1_555 1_555
H6D C13D 1_555 1_555
C14D C11D 1_555 1_555
C15D C2D 1_555 1_555
C16D C15D 1_555 1_555
H7D C16D 1_555 1_555
C17D C16D 1_555 1_555
H8D C17D 1_555 1_555
C18D C17D 1_555 1_555
C19D C18D 1_555 1_555
H9D C19D 1_555 1_555
C20D C15D 1_555 1_555
H10D C20D 1_555 1_555
C21D C18D 1_555 1_555
H11D C21D 1_555 1_555
H12D C21D 1_555 1_555
H13D C21D 1_555 1_555
H14A C22 1_555 1_555
C5 C6 1_555 1_555
C12 C13 1_555 1_555
C19 C20 1_555 1_555
C3D C5D 1_555 1_555
C5D C6D 1_555 1_555
C6D C7D 1_555 1_555
C12D C13D 1_555 1_555
C19D C20D 1_555 1_555

#END
