
#######################################################################
#
#                 Cambridge Crystallographic Data Centre
#                                CCDC 
#
#######################################################################
#
# If this CIF has been generated from an entry in the Cambridge 
# Structural Database, then it will include bibliographic, chemical, 
# crystal, experimental, refinement or atomic coordinate data resulting 
# from the CCDC's data processing and validation procedures.
#
#######################################################################

data_BOQCAN
_chemical_formula_moiety         'C68 H72 O8'
_chemical_name_systematic        
5,9,16,20,27,31,38,42-octaethoxynonacyclo[39.3.1.1^2,6^.1^8,12^.1^13,17^.1^19,23^.1^24,28^.1^30,34^.1^35,39^]dopentaconta-1(45),2(52),3,5,8(51),9,11,13(50),14,16,19(49),20,22,24(48),25,27,30(47),31,33,35(46),36,38,41,43-tetracosaene
_symmetry_cell_setting           monoclinic
_symmetry_space_group_name_H-M   'P 21/c'
_symmetry_Int_Tables_number      14
_space_group_name_Hall           '-P 2ybc'
loop_
_symmetry_equiv_pos_site_id
_symmetry_equiv_pos_as_xyz
1 x,y,z
2 -x,1/2+y,1/2-z
3 -x,-y,-z
4 x,1/2-y,1/2+z
_cell_length_a                   11.5532(19)
_cell_length_b                   30.664(5)
_cell_length_c                   7.7100(13)
_cell_angle_alpha                90
_cell_angle_beta                 90.771(3)
_cell_angle_gamma                90
_cell_volume                     2731.15
_exptl_crystal_colour            colorless
_exptl_crystal_description       block
_cell_formula_units_Z            2
loop_
_atom_site_label
_atom_site_type_symbol
_atom_site_fract_x
_atom_site_fract_y
_atom_site_fract_z
O1 O 0.57439(13) 0.09868(5) 0.1524(2)
O2 O -0.14691(13) -0.06382(5) 0.3373(2)
O3 O 0.30086(14) 0.18805(5) 0.4931(2)
O4 O -0.21942(14) 0.17038(6) -0.5257(2)
C1 C 0.47966(18) 0.07383(7) 0.1911(3)
C2 C 0.37586(18) 0.09670(7) 0.2083(3)
C3 C 0.27635(18) 0.07310(7) 0.2411(3)
H1 H 0.2057 0.0885 0.2544
C4 C 0.27490(18) 0.02767(7) 0.2557(3)
C5 C 0.3801(2) 0.00622(7) 0.2426(4)
H2 H 0.3827 -0.0246 0.2551
C6 C 0.4818(2) 0.02899(8) 0.2115(4)
H3 H 0.5531 0.0137 0.2042
C7 C -0.04718(18) -0.04023(7) 0.3146(3)
C8 C 0.05489(19) -0.05905(7) 0.3802(3)
C9 C 0.15728(18) -0.03638(7) 0.3604(3)
H4 H 0.2266 -0.0489 0.4055
C10 C 0.16376(18) 0.00403(7) 0.2771(3)
C11 C 0.06009(19) 0.02142(7) 0.2133(3)
H5 H 0.0611 0.0488 0.1560
C12 C -0.04364(19) -0.00010(7) 0.2312(3)
H6 H -0.1129 0.0125 0.1864
C13 C 0.37555(18) 0.14608(7) 0.1903(3)
H7 H 0.4275 0.1587 0.2804
H8 H 0.4071 0.1539 0.0757
C14 C 0.22069(18) 0.18560(7) 0.3608(3)
C15 C 0.25674(18) 0.16616(6) 0.2071(3)
C16 C 0.17964(18) 0.16438(6) 0.0686(3)
H9 H 0.2050 0.1518 -0.0369
C17 C 0.06631(18) 0.18017(6) 0.0759(3)
C18 C 0.03158(19) 0.19833(7) 0.2332(3)
H10 H -0.0454 0.2087 0.2442
C19 C 0.10766(19) 0.20141(7) 0.3736(3)
H11 H 0.0828 0.2143 0.4788
C20 C -0.15635(19) 0.17202(7) -0.3715(3)
C21 C -0.17208(19) 0.20491(8) -0.2504(3)
H12 H -0.2321 0.2257 -0.2680
C22 C -0.10161(19) 0.20785(7) -0.1044(3)
H13 H -0.1135 0.2305 -0.0226
C23 C -0.01285(18) 0.17745(7) -0.0769(3)
C24 C -0.00081(18) 0.14430(7) -0.1984(3)
H14 H 0.0583 0.1232 -0.1800
C25 C -0.07094(18) 0.14052(7) -0.3456(3)
C26 C 0.0542(2) -0.10287(7) 0.4698(3)
H15 H -0.0204 -0.1066 0.5297
H16 H 0.1167 -0.1035 0.5589
C27 C 0.68361(19) 0.07681(8) 0.1358(4)
H17 H 0.6769 0.0530 0.0497
H18 H 0.7076 0.0640 0.2486
C28 C 0.7714(2) 0.10954(9) 0.0782(4)
H19 H 0.7492 0.1208 -0.0364
H20 H 0.8475 0.0956 0.0719
H21 H 0.7750 0.1336 0.1616
C29 C -0.25170(18) -0.04661(8) 0.2651(3)
H22 H -0.2427 -0.0411 0.1395
H23 H -0.2714 -0.0187 0.3223
C30 C -0.3456(2) -0.07963(8) 0.2939(4)
H24 H -0.3241 -0.1073 0.2396
H25 H -0.4183 -0.0691 0.2421
H26 H -0.3557 -0.0840 0.4186
C31 C 0.2707(2) 0.21346(8) 0.6425(3)
H27 H 0.2101 0.1985 0.7098
H28 H 0.2411 0.2424 0.6066
C32 C 0.3796(2) 0.21834(9) 0.7504(3)
H29 H 0.4086 0.1894 0.7832
H30 H 0.3627 0.2351 0.8552
H31 H 0.4383 0.2336 0.6829
C33 C -0.3424(2) 0.17667(9) -0.5170(4)
H32 H -0.3749 0.1792 -0.6361
H33 H -0.3586 0.2042 -0.4550
C34 C -0.3998(2) 0.14014(11) -0.4267(4)
H34 H -0.3810 0.1126 -0.4846
H35 H -0.4839 0.1446 -0.4298
H36 H -0.3726 0.1390 -0.3058
O1B O -0.57439(13) -0.09868(5) -0.1524(2)
O2B O 0.14691(13) 0.06382(5) -0.3373(2)
O3B O -0.30086(14) -0.18805(5) -0.4931(2)
O4B O 0.21942(14) -0.17038(6) 0.5257(2)
C1B C -0.47966(18) -0.07383(7) -0.1911(3)
C2B C -0.37586(18) -0.09670(7) -0.2083(3)
C3B C -0.27635(18) -0.07310(7) -0.2411(3)
H1B H -0.2057 -0.0885 -0.2544
C4B C -0.27490(18) -0.02767(7) -0.2557(3)
C5B C -0.3801(2) -0.00622(7) -0.2426(4)
H2B H -0.3827 0.0246 -0.2551
C6B C -0.4818(2) -0.02899(8) -0.2115(4)
H3B H -0.5531 -0.0137 -0.2042
C7B C 0.04718(18) 0.04023(7) -0.3146(3)
C8B C -0.05489(19) 0.05905(7) -0.3802(3)
C9B C -0.15728(18) 0.03638(7) -0.3604(3)
H4B H -0.2266 0.0489 -0.4055
C10B C -0.16376(18) -0.00403(7) -0.2771(3)
C11B C -0.06009(19) -0.02142(7) -0.2133(3)
H5B H -0.0611 -0.0488 -0.1560
C12B C 0.04364(19) 0.00010(7) -0.2312(3)
H6B H 0.1129 -0.0125 -0.1864
C13B C -0.37555(18) -0.14608(7) -0.1903(3)
H7B H -0.4275 -0.1587 -0.2804
H8B H -0.4071 -0.1539 -0.0757
C14B C -0.22069(18) -0.18560(7) -0.3608(3)
C15B C -0.25674(18) -0.16616(6) -0.2071(3)
C16B C -0.17964(18) -0.16438(6) -0.0686(3)
H9B H -0.2050 -0.1518 0.0369
C17B C -0.06631(18) -0.18017(6) -0.0759(3)
C18B C -0.03158(19) -0.19833(7) -0.2332(3)
H10B H 0.0454 -0.2087 -0.2442
C19B C -0.10766(19) -0.20141(7) -0.3736(3)
H11B H -0.0828 -0.2143 -0.4788
C20B C 0.15635(19) -0.17202(7) 0.3715(3)
C21B C 0.17208(19) -0.20491(8) 0.2504(3)
H12B H 0.2321 -0.2257 0.2680
C22B C 0.10161(19) -0.20785(7) 0.1044(3)
H13B H 0.1135 -0.2305 0.0226
C23B C 0.01285(18) -0.17745(7) 0.0769(3)
C24B C 0.00081(18) -0.14430(7) 0.1984(3)
H14B H -0.0583 -0.1232 0.1800
C25B C 0.07094(18) -0.14052(7) 0.3456(3)
C26B C -0.0542(2) 0.10287(7) -0.4698(3)
H15B H 0.0204 0.1066 -0.5297
H16B H -0.1167 0.1035 -0.5589
C27B C -0.68361(19) -0.07681(8) -0.1358(4)
H17B H -0.6769 -0.0530 -0.0497
H18B H -0.7076 -0.0640 -0.2486
C28B C -0.7714(2) -0.10954(9) -0.0782(4)
H19B H -0.7492 -0.1208 0.0364
H20B H -0.8475 -0.0956 -0.0719
H21B H -0.7750 -0.1336 -0.1616
C29B C 0.25170(18) 0.04661(8) -0.2651(3)
H22B H 0.2427 0.0411 -0.1395
H23B H 0.2714 0.0187 -0.3223
C30B C 0.3456(2) 0.07963(8) -0.2939(4)
H24B H 0.3241 0.1073 -0.2396
H25B H 0.4183 0.0691 -0.2421
H26B H 0.3557 0.0840 -0.4186
C31B C -0.2707(2) -0.21346(8) -0.6425(3)
H27B H -0.2101 -0.1985 -0.7098
H28B H -0.2411 -0.2424 -0.6066
C32B C -0.3796(2) -0.21834(9) -0.7504(3)
H29B H -0.4086 -0.1894 -0.7832
H30B H -0.3627 -0.2351 -0.8552
H31B H -0.4383 -0.2336 -0.6829
C33B C 0.3424(2) -0.17667(9) 0.5170(4)
H32B H 0.3749 -0.1792 0.6361
H33B H 0.3586 -0.2042 0.4550
C34B C 0.3998(2) -0.14014(11) 0.4267(4)
H34B H 0.3810 -0.1126 0.4846
H35B H 0.4839 -0.1446 0.4298
H36B H 0.3726 -0.1390 0.3058
loop_
_geom_bond_atom_site_label_1
_geom_bond_atom_site_label_2
_geom_bond_site_symmetry_1
_geom_bond_site_symmetry_2
O1 C1 1_555 1_555
O2 C7 1_555 1_555
O3 C14 1_555 1_555
O4 C20 1_555 1_555
C1 C2 1_555 1_555
C2 C3 1_555 1_555
C3 H1 1_555 1_555
C4 C3 1_555 1_555
C5 C4 1_555 1_555
H2 C5 1_555 1_555
C6 C1 1_555 1_555
H3 C6 1_555 1_555
C7 C8 1_555 1_555
C8 C9 1_555 1_555
C9 H4 1_555 1_555
C10 C4 1_555 1_555
C11 C10 1_555 1_555
H5 C11 1_555 1_555
C12 C7 1_555 1_555
H6 C12 1_555 1_555
C13 C2 1_555 1_555
H7 C13 1_555 1_555
H8 C13 1_555 1_555
C14 C15 1_555 1_555
C15 C13 1_555 1_555
C16 C15 1_555 1_555
H9 C16 1_555 1_555
C17 C16 1_555 1_555
C18 C17 1_555 1_555
H10 C18 1_555 1_555
C19 C14 1_555 1_555
H11 C19 1_555 1_555
C20 C21 1_555 1_555
C21 H12 1_555 1_555
C22 C21 1_555 1_555
H13 C22 1_555 1_555
C23 C17 1_555 1_555
C24 C23 1_555 1_555
H14 C24 1_555 1_555
C25 C20 1_555 1_555
C26 C8 1_555 1_555
H15 C26 1_555 1_555
H16 C26 1_555 1_555
C27 O1 1_555 1_555
H17 C27 1_555 1_555
H18 C27 1_555 1_555
C28 C27 1_555 1_555
H19 C28 1_555 1_555
H20 C28 1_555 1_555
H21 C28 1_555 1_555
C29 O2 1_555 1_555
H22 C29 1_555 1_555
H23 C29 1_555 1_555
C30 C29 1_555 1_555
H24 C30 1_555 1_555
H25 C30 1_555 1_555
H26 C30 1_555 1_555
C31 O3 1_555 1_555
H27 C31 1_555 1_555
H28 C31 1_555 1_555
C32 C31 1_555 1_555
H29 C32 1_555 1_555
H30 C32 1_555 1_555
H31 C32 1_555 1_555
C33 O4 1_555 1_555
H32 C33 1_555 1_555
H33 C33 1_555 1_555
C34 C33 1_555 1_555
H34 C34 1_555 1_555
H35 C34 1_555 1_555
H36 C34 1_555 1_555
O1B C1B 1_555 1_555
O2B C7B 1_555 1_555
O3B C14B 1_555 1_555
O4B C20B 1_555 1_555
C1B C2B 1_555 1_555
C2B C3B 1_555 1_555
C3B H1B 1_555 1_555
C4B C3B 1_555 1_555
C5B C4B 1_555 1_555
H2B C5B 1_555 1_555
C6B C1B 1_555 1_555
H3B C6B 1_555 1_555
C7B C8B 1_555 1_555
C8B C9B 1_555 1_555
C9B H4B 1_555 1_555
C10B C4B 1_555 1_555
C11B C10B 1_555 1_555
H5B C11B 1_555 1_555
C12B C7B 1_555 1_555
H6B C12B 1_555 1_555
C13B C2B 1_555 1_555
H7B C13B 1_555 1_555
H8B C13B 1_555 1_555
C14B C15B 1_555 1_555
C15B C13B 1_555 1_555
C16B C15B 1_555 1_555
H9B C16B 1_555 1_555
C17B C16B 1_555 1_555
C18B C17B 1_555 1_555
H10B C18B 1_555 1_555
C19B C14B 1_555 1_555
H11B C19B 1_555 1_555
C20B C21B 1_555 1_555
C21B H12B 1_555 1_555
C22B C21B 1_555 1_555
H13B C22B 1_555 1_555
C23B C17B 1_555 1_555
C24B C23B 1_555 1_555
H14B C24B 1_555 1_555
C25B C26 1_555 1_555
C26B C25 1_555 1_555
H15B C26B 1_555 1_555
H16B C26B 1_555 1_555
C27B O1B 1_555 1_555
H17B C27B 1_555 1_555
H18B C27B 1_555 1_555
C28B C27B 1_555 1_555
H19B C28B 1_555 1_555
H20B C28B 1_555 1_555
H21B C28B 1_555 1_555
C29B O2B 1_555 1_555
H22B C29B 1_555 1_555
H23B C29B 1_555 1_555
C30B C29B 1_555 1_555
H24B C30B 1_555 1_555
H25B C30B 1_555 1_555
H26B C30B 1_555 1_555
C31B O3B 1_555 1_555
H27B C31B 1_555 1_555
H28B C31B 1_555 1_555
C32B C31B 1_555 1_555
H29B C32B 1_555 1_555
H30B C32B 1_555 1_555
H31B C32B 1_555 1_555
C33B O4B 1_555 1_555
H32B C33B 1_555 1_555
H33B C33B 1_555 1_555
C34B C33B 1_555 1_555
H34B C34B 1_555 1_555
H35B C34B 1_555 1_555
H36B C34B 1_555 1_555
C5 C6 1_555 1_555
C9 C10 1_555 1_555
C11 C12 1_555 1_555
C18 C19 1_555 1_555
C22 C23 1_555 1_555
C24 C25 1_555 1_555
C5B C6B 1_555 1_555
C8B C26B 1_555 1_555
C9B C10B 1_555 1_555
C11B C12B 1_555 1_555
C18B C19B 1_555 1_555
C20B C25B 1_555 1_555
C22B C23B 1_555 1_555
C24B C25B 1_555 1_555

#END
