
#######################################################################
#
#                 Cambridge Crystallographic Data Centre
#                                CCDC 
#
#######################################################################
#
# If this CIF has been generated from an entry in the Cambridge 
# Structural Database, then it will include bibliographic, chemical, 
# crystal, experimental, refinement or atomic coordinate data resulting 
# from the CCDC's data processing and validation procedures.
#
#######################################################################

data_BOQFET
_chemical_formula_moiety         'C15 H16 N2 S8,C1 H4 O1'
_chemical_name_systematic        
'4-((2-(6,7-dihydro-5H-[1,3]dithiolo[4,5-b][1,4]dithiepin-2-ylidene)-5-(methylsulfanyl)-1,3-dithiol-4-yl)sulfanyl)-3,5-dimethyl-1H-pyrazole methanol solvate'
_symmetry_cell_setting           triclinic
_symmetry_space_group_name_H-M   'P -1'
_symmetry_Int_Tables_number      2
_space_group_name_Hall           '-P 1'
loop_
_symmetry_equiv_pos_site_id
_symmetry_equiv_pos_as_xyz
1 x,y,z
2 -x,-y,-z
_cell_length_a                   7.9103(13)
_cell_length_b                   12.213(2)
_cell_length_c                   12.503(2)
_cell_angle_alpha                85.206(3)
_cell_angle_beta                 80.115(3)
_cell_angle_gamma                71.614(3)
_cell_volume                     1128.66
_cell_formula_units_Z            2
loop_
_atom_site_label
_atom_site_type_symbol
_atom_site_fract_x
_atom_site_fract_y
_atom_site_fract_z
S1 S 0.43521(17) 0.08137(12) 1.21417(11)
S2 S 0.06668(17) 0.01395(11) 1.35930(9)
S3 S 0.22794(16) 0.12903(12) 1.03016(10)
S4 S -0.08428(16) 0.07208(11) 1.15289(9)
S5 S -0.01935(16) 0.27535(12) 0.85089(10)
S6 S -0.33522(17) 0.21974(12) 0.97722(10)
S7 S -0.59085(17) 0.37851(13) 0.83721(11)
S8 S -0.24528(17) 0.44101(12) 0.69805(11)
C1 C 0.5260(7) -0.0670(4) 1.2603(4)
H1 H 0.5204 -0.1167 1.2053
H2 H 0.6524 -0.0812 1.2649
C2 C 0.4363(7) -0.1029(5) 1.3678(4)
H3 H 0.4231 -0.0458 1.4206
H4 H 0.5154 -0.1756 1.3921
C3 C 0.2539(6) -0.1171(4) 1.3669(4)
H5 H 0.2249 -0.1606 1.4321
H6 H 0.2634 -0.1634 1.3054
C4 C 0.0959(6) 0.0583(4) 1.2231(3)
C5 C 0.2404(6) 0.0836(4) 1.1670(4)
C6 C -0.0038(6) 0.1488(4) 1.0412(4)
C7 C -0.1070(6) 0.2089(4) 0.9686(4)
C8 C -0.3740(6) 0.3251(4) 0.8717(4)
C9 C -0.2305(6) 0.3486(4) 0.8141(3)
C10 C -0.7140(8) 0.4577(6) 0.9542(6)
H7 H -0.6910 0.4101 1.0184
H8 H -0.8405 0.4809 0.9500
H9 H -0.6769 0.5249 0.9571
C11 C -0.0237(6) 0.4435(4) 0.6562(4)
C12 C 0.1103(6) 0.3683(4) 0.5844(4)
C13 C 0.1089(7) 0.2602(4) 0.5413(4)
H10 H 0.2098 0.2347 0.4847
H11 H -0.0010 0.2730 0.5126
H12 H 0.1169 0.2022 0.5986
C14 C 0.0432(7) 0.5317(4) 0.6721(4)
C15 C -0.0380(8) 0.6358(5) 0.7392(4)
H13 H 0.0429 0.6393 0.7870
H14 H -0.1495 0.6317 0.7814
H15 H -0.0608 0.7037 0.6926
N1 N 0.2515(5) 0.4081(3) 0.5601(3)
N2 N 0.2064(5) 0.5079(3) 0.6125(3)
H19 H 0.2749 0.5510 0.6079
C16 C 0.5901(9) 0.2738(5) 0.3536(5)
H16 H 0.4765 0.2584 0.3640
H17 H 0.6859 0.2022 0.3537
H18 H 0.6054 0.3144 0.2853
O1 O 0.5935(5) 0.3411(3) 0.4372(3)
H20 H 0.4915 0.3663 0.4711
loop_
_geom_bond_atom_site_label_1
_geom_bond_atom_site_label_2
_geom_bond_site_symmetry_1
_geom_bond_site_symmetry_2
S1 C1 1_555 1_555
S2 C3 1_555 1_555
S3 C5 1_555 1_555
S4 C4 1_555 1_555
S5 C7 1_555 1_555
S6 C7 1_555 1_555
S7 C8 1_555 1_555
S8 C9 1_555 1_555
C1 H1 1_555 1_555
H2 C1 1_555 1_555
C2 C1 1_555 1_555
H3 C2 1_555 1_555
H4 C2 1_555 1_555
C3 C2 1_555 1_555
H5 C3 1_555 1_555
H6 C3 1_555 1_555
C4 S2 1_555 1_555
C5 S1 1_555 1_555
C6 S3 1_555 1_555
C7 C6 1_555 1_555
C8 S6 1_555 1_555
C9 S5 1_555 1_555
C10 S7 1_555 1_555
H7 C10 1_555 1_555
H8 C10 1_555 1_555
H9 C10 1_555 1_555
C11 S8 1_555 1_555
C12 C11 1_555 1_555
C13 C12 1_555 1_555
H10 C13 1_555 1_555
H11 C13 1_555 1_555
H12 C13 1_555 1_555
C14 C11 1_555 1_555
C15 C14 1_555 1_555
H13 C15 1_555 1_555
H14 C15 1_555 1_555
H15 C15 1_555 1_555
C16 H16 1_555 1_555
H17 C16 1_555 1_555
H18 C16 1_555 1_555
N1 C12 1_555 1_555
N2 C14 1_555 1_555
H19 N2 1_555 1_555
O1 C16 1_555 1_555
H20 O1 1_555 1_555
S4 C6 1_555 1_555
C4 C5 1_555 1_555
C8 C9 1_555 1_555
N1 N2 1_555 1_555

#END
