
#######################################################################
#
#                 Cambridge Crystallographic Data Centre
#                                CCDC 
#
#######################################################################
#
# If this CIF has been generated from an entry in the Cambridge 
# Structural Database, then it will include bibliographic, chemical, 
# crystal, experimental, refinement or atomic coordinate data resulting 
# from the CCDC's data processing and validation procedures.
#
#######################################################################

data_BOQVUY
_chemical_formula_moiety         'C22 H36 N2 O1'
_chemical_name_systematic        4-t-Butyl-2,6-bis(piperidinomethyl)phenol
_symmetry_cell_setting           triclinic
_symmetry_space_group_name_H-M   'P -1'
_symmetry_Int_Tables_number      2
_space_group_name_Hall           '-P 1'
loop_
_symmetry_equiv_pos_site_id
_symmetry_equiv_pos_as_xyz
1 x,y,z
2 -x,-y,-z
_cell_length_a                   10.540(2)
_cell_length_b                   12.153(3)
_cell_length_c                   9.786(2)
_cell_angle_alpha                106.20(3)
_cell_angle_beta                 116.89(3)
_cell_angle_gamma                87.18(4)
_cell_volume                     1069.24
_exptl_crystal_colour            colorless
_exptl_crystal_description       needle
_cell_formula_units_Z            2
_exptl_crystal_recrystallization_method acetone
loop_
_atom_site_label
_atom_site_type_symbol
_atom_site_fract_x
_atom_site_fract_y
_atom_site_fract_z
C1 C 0.72334(16) -0.00083(13) 0.45577(18)
C2 C 0.82952(16) -0.01431(13) 0.60038(18)
C3 C 0.80763(16) -0.10284(13) 0.65378(18)
H1 H 0.8774 -0.1111 0.7507
C4 C 0.68568(16) -0.17951(13) 0.56811(18)
C5 C 0.58284(16) -0.16262(13) 0.42497(18)
H2 H 0.4999 -0.2125 0.3654
C6 C 0.59874(17) -0.07498(13) 0.36760(18)
C7 C 0.4822(2) -0.05780(15) 0.2142(2)
H3 H 0.4193 -0.0045 0.2400
H4 H 0.5255 -0.0229 0.1657
N1 N 0.39737(13) -0.16342(11) 0.09812(15)
C8 C 0.48005(19) -0.23846(18) 0.0321(2)
H5 H 0.5635 -0.2557 0.1185
H6 H 0.5127 -0.1989 -0.0213
C9 C 0.3937(3) -0.34948(19) -0.0855(3)
H7 H 0.3670 -0.3920 -0.0307
H8 H 0.4514 -0.3963 -0.1291
C10 C 0.2602(2) -0.32599(19) -0.2207(2)
H9 H 0.2863 -0.2937 -0.2856
H10 H 0.2008 -0.3974 -0.2884
C11 C 0.1787(2) -0.24332(19) -0.1528(2)
H11 H 0.1397 -0.2809 -0.1028
H12 H 0.0994 -0.2220 -0.2390
C12 C 0.27125(19) -0.13614(17) -0.0310(2)
H13 H 0.3015 -0.0939 -0.0835
H14 H 0.2158 -0.0872 0.0140
C13 C 0.97089(17) 0.05913(15) 0.6921(2)
H15 H 1.0118 0.0612 0.8038
H16 H 1.0361 0.0236 0.6513
N2 N 0.95811(13) 0.17729(11) 0.68092(15)
C14 C 0.89039(18) 0.24444(16) 0.7748(2)
H17 H 0.9490 0.2498 0.8869
H18 H 0.7981 0.2059 0.7404
C15 C 0.8712(2) 0.36361(17) 0.7546(3)
H19 H 0.8278 0.4072 0.8193
H20 H 0.8077 0.3585 0.6436
C16 C 1.0137(2) 0.42514(18) 0.8046(3)
H21 H 0.9991 0.4995 0.7839
H22 H 1.0739 0.4378 0.9184
C17 C 1.0858(2) 0.35312(19) 0.7117(3)
H23 H 1.0308 0.3486 0.5994
H24 H 1.1801 0.3896 0.7497
C18 C 1.09879(18) 0.23394(16) 0.7303(2)
H25 H 1.1412 0.1886 0.6657
H26 H 1.1613 0.2380 0.8412
O1 O 0.74069(14) 0.08386(10) 0.39626(14)
H27 H 0.817(3) 0.134(2) 0.486(3)
C19 C 0.66688(18) -0.28185(15) 0.6221(2)
C20 C 0.7545(4) -0.2597(3) 0.8016(3)
H28 H 0.7254 -0.1928 0.8560
H29 H 0.8539 -0.2474 0.8309
H30 H 0.7397 -0.3250 0.8314
C21 C 0.5126(2) -0.3062(3) 0.5805(4)
H31 H 0.5060 -0.3609 0.6319
H32 H 0.4578 -0.3372 0.4667
H33 H 0.4760 -0.2362 0.6165
C22 C 0.7177(4) -0.3855(2) 0.5399(5)
H34 H 0.7099 -0.4500 0.5750
H35 H 0.8155 -0.3691 0.5662
H36 H 0.6599 -0.4034 0.4262
loop_
_geom_bond_atom_site_label_1
_geom_bond_atom_site_label_2
_geom_bond_site_symmetry_1
_geom_bond_site_symmetry_2
C1 C2 1_555 1_555
C2 C3 1_555 1_555
C3 H1 1_555 1_555
C4 C3 1_555 1_555
C5 C4 1_555 1_555
H2 C5 1_555 1_555
C6 C1 1_555 1_555
C7 C6 1_555 1_555
H3 C7 1_555 1_555
H4 C7 1_555 1_555
N1 C7 1_555 1_555
C8 N1 1_555 1_555
H5 C8 1_555 1_555
H6 C8 1_555 1_555
C9 C8 1_555 1_555
H7 C9 1_555 1_555
H8 C9 1_555 1_555
C10 C9 1_555 1_555
H9 C10 1_555 1_555
H10 C10 1_555 1_555
C11 C10 1_555 1_555
H11 C11 1_555 1_555
H12 C11 1_555 1_555
C12 N1 1_555 1_555
H13 C12 1_555 1_555
H14 C12 1_555 1_555
C13 C2 1_555 1_555
H15 C13 1_555 1_555
H16 C13 1_555 1_555
N2 C13 1_555 1_555
C14 N2 1_555 1_555
H17 C14 1_555 1_555
H18 C14 1_555 1_555
C15 C14 1_555 1_555
H19 C15 1_555 1_555
H20 C15 1_555 1_555
C16 C15 1_555 1_555
H21 C16 1_555 1_555
H22 C16 1_555 1_555
C17 C16 1_555 1_555
H23 C17 1_555 1_555
H24 C17 1_555 1_555
C18 N2 1_555 1_555
H25 C18 1_555 1_555
H26 C18 1_555 1_555
O1 C1 1_555 1_555
H27 O1 1_555 1_555
C19 C4 1_555 1_555
C20 C19 1_555 1_555
H28 C20 1_555 1_555
H29 C20 1_555 1_555
H30 C20 1_555 1_555
C21 C19 1_555 1_555
H31 C21 1_555 1_555
H32 C21 1_555 1_555
H33 C21 1_555 1_555
C22 C19 1_555 1_555
H34 C22 1_555 1_555
H35 C22 1_555 1_555
H36 C22 1_555 1_555
C5 C6 1_555 1_555
C11 C12 1_555 1_555
C17 C18 1_555 1_555

#END
