
#######################################################################
#
#                 Cambridge Crystallographic Data Centre
#                                CCDC 
#
#######################################################################
#
# If this CIF has been generated from an entry in the Cambridge 
# Structural Database, then it will include bibliographic, chemical, 
# crystal, experimental, refinement or atomic coordinate data resulting 
# from the CCDC's data processing and validation procedures.
#
#######################################################################

data_BORGOG
_chemical_formula_moiety         'C26 H16 O2'
_chemical_name_systematic        hexahelicene-1,2-diol
_symmetry_cell_setting           orthorhombic
_symmetry_space_group_name_H-M   'P b c a'
_symmetry_Int_Tables_number      61
_space_group_name_Hall           '-P 2ac 2ab'
loop_
_symmetry_equiv_pos_site_id
_symmetry_equiv_pos_as_xyz
1 x,y,z
2 1/2+x,1/2-y,-z
3 -x,1/2+y,1/2-z
4 1/2-x,-y,1/2+z
5 -x,-y,-z
6 1/2-x,1/2+y,z
7 x,1/2-y,1/2+z
8 1/2+x,y,1/2-z
_cell_length_a                   9.8979(12)
_cell_length_b                   16.1975(17)
_cell_length_c                   21.268(2)
_cell_angle_alpha                90
_cell_angle_beta                 90
_cell_angle_gamma                90
_cell_volume                     3409.71
_exptl_crystal_colour            'dull brown'
_exptl_crystal_description       irregular
_cell_formula_units_Z            8
loop_
_atom_site_label
_atom_site_type_symbol
_atom_site_fract_x
_atom_site_fract_y
_atom_site_fract_z
O1 O -0.1590(2) 0.75810(15) 0.48685(12)
H1 H -0.1057 0.7749 0.5148
O2 O 0.0947(2) 0.79763(14) 0.47430(11)
H2 H 0.1759 0.7866 0.4821
C1 C -0.1484(4) 0.6628(2) 0.40166(18)
H3 H -0.2416 0.6502 0.4066
C2 C -0.0731(4) 0.6230(2) 0.35774(18)
H4 H -0.1131 0.5800 0.3337
C3 C 0.0634(4) 0.64422(19) 0.34716(16)
C4 C 0.1216(3) 0.71118(19) 0.37983(15)
C5 C 0.2569(3) 0.7384(2) 0.36209(15)
C6 C 0.3120(3) 0.8192(2) 0.37599(15)
C7 C 0.2337(4) 0.8926(2) 0.38745(16)
C8 C 0.0977(3) 0.90525(19) 0.36332(17)
C9 C 0.0161(4) 0.9700(2) 0.38936(18)
C10 C -0.1189(4) 0.9784(2) 0.36732(19)
H5 H -0.1762 1.0180 0.3867
C11 C -0.1684(4) 0.9321(2) 0.31970(19)
H6 H -0.2593 0.9392 0.3064
C12 C -0.0872(3) 0.72248(19) 0.43941(16)
C13 C 0.1467(4) 0.5939(2) 0.30721(17)
H7 H 0.1078 0.5496 0.2842
C14 C 0.2803(4) 0.6097(2) 0.30233(18)
H8 H 0.3364 0.5723 0.2799
C15 C 0.3385(4) 0.6810(2) 0.33021(17)
C16 C 0.0474(3) 0.74497(18) 0.43056(15)
C17 C 0.4549(4) 0.8266(3) 0.37938(18)
C18 C 0.5108(4) 0.8993(3) 0.4074(2)
H9 H 0.6062 0.9054 0.4090
C19 C 0.4322(5) 0.9591(3) 0.4313(2)
H10 H 0.4720 1.0027 0.4547
C20 C 0.2913(4) 0.9576(2) 0.42212(18)
C21 C 0.2054(5) 1.0226(2) 0.44665(19)
H11 H 0.2437 1.0640 0.4728
C22 C 0.0727(4) 1.0255(2) 0.4332(2)
H12 H 0.0168 1.0652 0.4533
C23 C -0.0861(4) 0.8738(2) 0.28998(18)
H13 H -0.1193 0.8431 0.2552
C24 C 0.0442(3) 0.8613(2) 0.31172(16)
H14 H 0.0996 0.8217 0.2911
C25 C 0.5378(4) 0.7629(3) 0.3538(2)
H15 H 0.6333 0.7674 0.3561
C26 C 0.4821(4) 0.6970(3) 0.32648(19)
H16 H 0.5381 0.6596 0.3040
loop_
_geom_bond_atom_site_label_1
_geom_bond_atom_site_label_2
_geom_bond_site_symmetry_1
_geom_bond_site_symmetry_2
O1 H1 1_555 1_555
O2 H2 1_555 1_555
C1 H3 1_555 1_555
C2 C1 1_555 1_555
H4 C2 1_555 1_555
C3 C2 1_555 1_555
C4 C3 1_555 1_555
C5 C4 1_555 1_555
C6 C5 1_555 1_555
C7 C6 1_555 1_555
C8 C7 1_555 1_555
C9 C8 1_555 1_555
C10 C9 1_555 1_555
H5 C10 1_555 1_555
C11 C10 1_555 1_555
H6 C11 1_555 1_555
C12 O1 1_555 1_555
C13 C3 1_555 1_555
H7 C13 1_555 1_555
C14 C13 1_555 1_555
H8 C14 1_555 1_555
C15 C5 1_555 1_555
C16 O2 1_555 1_555
C17 C6 1_555 1_555
C18 C17 1_555 1_555
H9 C18 1_555 1_555
C19 C18 1_555 1_555
H10 C19 1_555 1_555
C20 C7 1_555 1_555
C21 C20 1_555 1_555
H11 C21 1_555 1_555
C22 C9 1_555 1_555
H12 C22 1_555 1_555
C23 C11 1_555 1_555
H13 C23 1_555 1_555
C24 C8 1_555 1_555
H14 C24 1_555 1_555
C25 C17 1_555 1_555
H15 C25 1_555 1_555
C26 C15 1_555 1_555
H16 C26 1_555 1_555
C1 C12 1_555 1_555
C4 C16 1_555 1_555
C12 C16 1_555 1_555
C14 C15 1_555 1_555
C19 C20 1_555 1_555
C21 C22 1_555 1_555
C23 C24 1_555 1_555
C25 C26 1_555 1_555

#END
