
#######################################################################
#
#                 Cambridge Crystallographic Data Centre
#                                CCDC 
#
#######################################################################
#
# If this CIF has been generated from an entry in the Cambridge 
# Structural Database, then it will include bibliographic, chemical, 
# crystal, experimental, refinement or atomic coordinate data resulting 
# from the CCDC's data processing and validation procedures.
#
#######################################################################

data_BORTAD
_chemical_formula_moiety         '4(C1 H4 N2 O1),2(H2 O4 P1 1-),Mg1 2+'
_chemical_name_systematic        
'tetrakis(Urea) bis(dihydrogen phosphate) magnesium'
_symmetry_cell_setting           monoclinic
_symmetry_space_group_name_H-M   'P 21/n'
_symmetry_Int_Tables_number      14
_space_group_name_Hall           '-P 2yn'
loop_
_symmetry_equiv_pos_site_id
_symmetry_equiv_pos_as_xyz
1 x,y,z
2 1/2-x,1/2+y,1/2-z
3 -x,-y,-z
4 1/2+x,1/2-y,1/2+z
_cell_length_a                   7.352(2)
_cell_length_b                   21.502(5)
_cell_length_c                   5.370(1)
_cell_angle_alpha                90
_cell_angle_beta                 91.64(2)
_cell_angle_gamma                90
_cell_volume                     848.556
_cell_formula_units_Z            2
loop_
_atom_site_label
_atom_site_type_symbol
_atom_site_fract_x
_atom_site_fract_y
_atom_site_fract_z
Mg1 Mg 0.00000 0.00000 0.00000
P1 P 0.10240 0.08420 0.51080
O1 O 0.13430 0.03790 0.30720
O2 O 0.13310 0.06300 0.77560
O3 O 0.23200 0.14070 0.46450
O4 O -0.09870 0.10990 0.48330
H1 H 0.23300 0.16700 0.56900
H2 H -0.14500 0.09800 0.34000
O5 O -0.21890 0.06600 0.05530
C1 C -0.37910 0.07310 -0.03020
N1 N -0.43650 0.04420 -0.23560
N2 N -0.49580 0.11220 0.07700
H3 H -0.36500 0.01800 -0.30800
H4 H -0.55700 0.04600 -0.27500
H5 H -0.61000 0.11700 0.02300
H6 H -0.45900 0.12900 0.20600
O6 O 0.25680 0.22450 0.81650
C2 C 0.13130 0.23660 0.96120
N3 N -0.00930 0.19840 0.99170
N4 N 0.12970 0.29000 1.08900
H7 H 0.00400 0.16700 0.93200
H8 H -0.09500 0.21300 1.09900
H9 H 0.05800 0.29500 1.20800
H10 H 0.22300 0.31200 1.08400
loop_
_geom_bond_atom_site_label_1
_geom_bond_atom_site_label_2
_geom_bond_site_symmetry_1
_geom_bond_site_symmetry_2
P1 O1 1_555 1_555
O2 P1 1_555 1_555
O3 P1 1_555 1_555
O4 P1 1_555 1_555
H1 O3 1_555 1_555
H2 O4 1_555 1_555
O5 C1 1_555 1_555
C1 N1 1_555 1_555
N1 H3 1_555 1_555
N2 C1 1_555 1_555
H4 N1 1_555 1_555
H5 N2 1_555 1_555
H6 N2 1_555 1_555
O6 C2 1_555 1_555
C2 N3 1_555 1_555
N3 H7 1_555 1_555
N4 C2 1_555 1_555
H8 N3 1_555 1_555
H9 N4 1_555 1_555
H10 N4 1_555 1_555

#END
