
#######################################################################
#
#                 Cambridge Crystallographic Data Centre
#                                CCDC 
#
#######################################################################
#
# If this CIF has been generated from an entry in the Cambridge 
# Structural Database, then it will include bibliographic, chemical, 
# crystal, experimental, refinement or atomic coordinate data resulting 
# from the CCDC's data processing and validation procedures.
#
#######################################################################

data_BOSSEJ
_chemical_formula_moiety         'C27 H23 N1 O6'
_chemical_name_systematic        
3,4-bis(benzyloxy)-8,8-dimethoxynaphtho[2,3-d][1,2]oxazol-5(8H)-one
_symmetry_cell_setting           monoclinic
_symmetry_space_group_name_H-M   'P 21/c'
_symmetry_Int_Tables_number      14
_space_group_name_Hall           '-P 2ybc'
loop_
_symmetry_equiv_pos_site_id
_symmetry_equiv_pos_as_xyz
1 x,y,z
2 -x,1/2+y,1/2-z
3 -x,-y,-z
4 x,1/2-y,1/2+z
_cell_length_a                   11.7311(11)
_cell_length_b                   23.326(2)
_cell_length_c                   8.5134(8)
_cell_angle_alpha                90
_cell_angle_beta                 105.0810(10)
_cell_angle_gamma                90
_cell_volume                     2249.37
_exptl_crystal_colour            colorless
_exptl_crystal_description       Plate-like
_cell_formula_units_Z            4
loop_
_atom_site_label
_atom_site_type_symbol
_atom_site_fract_x
_atom_site_fract_y
_atom_site_fract_z
O1 O 0.04577(14) 0.06606(7) 0.5593(2)
O2 O 0.02053(16) 0.06626(8) 0.8022(2)
O3 O 0.45750(15) 0.07386(7) 1.0098(2)
O4 O 0.13237(14) 0.27751(7) 0.6605(2)
O5 O 0.45857(12) 0.18996(6) 0.99850(17)
O6 O 0.40777(14) 0.31812(6) 0.90255(19)
N1 N 0.22065(18) 0.31973(8) 0.7250(3)
C1 C 0.1123(2) 0.06931(10) 0.7231(3)
C2 C 0.1911(2) 0.01834(10) 0.7675(3)
H1 H 0.1605 -0.0174 0.7308
C3 C 0.3008(2) 0.02102(10) 0.8549(3)
H2 H 0.3434 -0.0129 0.8794
C4 C 0.3597(2) 0.07515(9) 0.9162(3)
C5 C 0.29566(18) 0.12943(9) 0.8566(2)
C6 C 0.17850(18) 0.12638(9) 0.7573(3)
C7 C 0.1167(2) 0.17432(10) 0.6893(3)
H3 H 0.0395 0.1720 0.6248
C8 C 0.17534(19) 0.22590(9) 0.7218(3)
C9 C 0.28759(18) 0.23162(9) 0.8219(3)
C10 C 0.35048(17) 0.18311(8) 0.8931(2)
C11 C 0.30914(19) 0.29206(9) 0.8185(3)
C12 C 0.1135(3) 0.06405(13) 0.4444(3)
H4 H 0.1514 0.1004 0.4418
H5 H 0.0628 0.0558 0.3387
H6 H 0.1723 0.0346 0.4745
C13 C 0.0516(3) 0.07834(16) 0.9706(4)
H7 H 0.1200 0.0564 1.0235
H8 H -0.0129 0.0684 1.0154
H9 H 0.0687 0.1185 0.9872
C14 C 0.5545(2) 0.19244(13) 0.9210(3)
H10 H 0.5422 0.2239 0.8441
H11 H 0.5579 0.1571 0.8624
C15 C 0.66705(19) 0.20088(10) 1.0491(3)
C16 C 0.7457(3) 0.15687(14) 1.0975(4)
H12 H 0.7287 0.1205 1.0530
C17 C 0.8520(3) 0.1673(2) 1.2149(5)
H13 H 0.9058 0.1377 1.2489
C18 C 0.8769(3) 0.2209(2) 1.2795(4)
H14 H 0.9478 0.2278 1.3566
C19 C 0.7992(3) 0.26339(18) 1.2319(4)
H15 H 0.8158 0.2997 1.2769
C20 C 0.6958(2) 0.25375(13) 1.1178(3)
H16 H 0.6431 0.2839 1.0856
C21 C 0.4177(2) 0.37811(10) 0.8580(3)
H17 H 0.3473 0.3991 0.8627
H18 H 0.4268 0.3807 0.7481
C22 C 0.5231(2) 0.40276(9) 0.9755(3)
C23 C 0.6348(3) 0.39444(12) 0.9552(4)
H19 H 0.6446 0.3735 0.8667
C24 C 0.7325(3) 0.41723(15) 1.0661(5)
H20 H 0.8079 0.4110 1.0533
C25 C 0.6074(3) 0.45865(13) 1.2125(3)
H21 H 0.5974 0.4810 1.2984
C26 C 0.5105(3) 0.43539(11) 1.1034(3)
H22 H 0.4355 0.4420 1.1170
C27 C 0.7173(3) 0.44902(15) 1.1946(4)
H23 H 0.7827 0.4640 1.2698
loop_
_geom_bond_atom_site_label_1
_geom_bond_atom_site_label_2
_geom_bond_site_symmetry_1
_geom_bond_site_symmetry_2
O1 C1 1_555 1_555
O2 C1 1_555 1_555
O3 C4 1_555 1_555
O4 N1 1_555 1_555
O5 C10 1_555 1_555
O6 C11 1_555 1_555
N1 C11 1_555 1_555
C1 C2 1_555 1_555
C2 H1 1_555 1_555
C3 C2 1_555 1_555
H2 C3 1_555 1_555
C4 C3 1_555 1_555
C5 C4 1_555 1_555
C6 C1 1_555 1_555
C7 C6 1_555 1_555
H3 C7 1_555 1_555
C8 O4 1_555 1_555
C9 C8 1_555 1_555
C10 C5 1_555 1_555
C11 C9 1_555 1_555
C12 O1 1_555 1_555
H4 C12 1_555 1_555
H5 C12 1_555 1_555
H6 C12 1_555 1_555
C13 O2 1_555 1_555
H7 C13 1_555 1_555
H8 C13 1_555 1_555
H9 C13 1_555 1_555
C14 O5 1_555 1_555
H10 C14 1_555 1_555
H11 C14 1_555 1_555
C15 C14 1_555 1_555
C16 C15 1_555 1_555
H12 C16 1_555 1_555
C17 C16 1_555 1_555
H13 C17 1_555 1_555
C18 C17 1_555 1_555
H14 C18 1_555 1_555
C19 C18 1_555 1_555
H15 C19 1_555 1_555
C20 C15 1_555 1_555
H16 C20 1_555 1_555
C21 O6 1_555 1_555
H17 C21 1_555 1_555
H18 C21 1_555 1_555
C22 C21 1_555 1_555
C23 C22 1_555 1_555
H19 C23 1_555 1_555
C24 C23 1_555 1_555
H20 C24 1_555 1_555
C25 H21 1_555 1_555
C26 C22 1_555 1_555
H22 C26 1_555 1_555
C27 C24 1_555 1_555
H23 C27 1_555 1_555
C5 C6 1_555 1_555
C7 C8 1_555 1_555
C9 C10 1_555 1_555
C19 C20 1_555 1_555
C25 C26 1_555 1_555
C25 C27 1_555 1_555

#END
