
#######################################################################
#
#                 Cambridge Crystallographic Data Centre
#                                CCDC 
#
#######################################################################
#
# If this CIF has been generated from an entry in the Cambridge 
# Structural Database, then it will include bibliographic, chemical, 
# crystal, experimental, refinement or atomic coordinate data resulting 
# from the CCDC's data processing and validation procedures.
#
#######################################################################

data_BOTGOI
_chemical_formula_moiety         'C32 H39 N3'
_chemical_name_systematic        
N-(2,6-diethylphenyl)-2-(N-(2,6-diethylphenyl)ethanimidoyl)-5,6,7,8-tetrahydro-9H-cyclohepta[b]pyridin-9-imine
_symmetry_cell_setting           monoclinic
_symmetry_space_group_name_H-M   'P 21/c'
_symmetry_Int_Tables_number      14
_space_group_name_Hall           '-P 2ybc'
loop_
_symmetry_equiv_pos_site_id
_symmetry_equiv_pos_as_xyz
1 x,y,z
2 -x,1/2+y,1/2-z
3 -x,-y,-z
4 x,1/2-y,1/2+z
_cell_length_a                   7.8001(16)
_cell_length_b                   14.869(3)
_cell_length_c                   23.458(5)
_cell_angle_alpha                90
_cell_angle_beta                 92.03(3)
_cell_angle_gamma                90
_cell_volume                     2718.94
_exptl_crystal_colour            yellow
_exptl_crystal_description       block
_cell_formula_units_Z            4
loop_
_atom_site_label
_atom_site_type_symbol
_atom_site_fract_x
_atom_site_fract_y
_atom_site_fract_z
N1 N 0.0231(3) 0.60456(14) 0.06439(9)
N2 N 0.2649(2) 0.48153(14) 0.16784(8)
N3 N 0.4891(3) 0.45025(13) 0.25802(8)
C1 C 0.1567(4) 0.65887(17) 0.15536(11)
H1 H 0.1092 0.7174 0.1439
H2 H 0.2813 0.6641 0.1614
H3 H 0.1053 0.6395 0.1908
C2 C 0.1174(3) 0.59098(17) 0.10936(10)
C3 C 0.1945(3) 0.49931(16) 0.11605(10)
C4 C 0.1908(3) 0.43751(17) 0.07192(10)
H4 H 0.1388 0.4521 0.0359
C5 C 0.2645(3) 0.35398(18) 0.08149(11)
H5 H 0.2667 0.3112 0.0515
C6 C 0.3352(3) 0.33267(17) 0.13508(10)
C7 C 0.3314(3) 0.39925(17) 0.17710(10)
C8 C 0.4043(3) 0.38412(17) 0.23630(10)
C9 C 0.3698(3) 0.29738(17) 0.26677(11)
H6 H 0.3310 0.3118 0.3055
H7 H 0.4790 0.2638 0.2713
C10 C 0.2369(4) 0.23607(19) 0.23758(12)
H8 H 0.1953 0.1926 0.2659
H9 H 0.1377 0.2729 0.2242
C11 C 0.3048(4) 0.18438(17) 0.18724(12)
H10 H 0.2065 0.1595 0.1645
H11 H 0.3745 0.1331 0.2018
C12 C 0.4153(3) 0.24229(18) 0.14791(11)
H12 H 0.5300 0.2514 0.1665
H13 H 0.4310 0.2097 0.1117
C13 C -0.3881(4) 0.5551(2) 0.07340(13)
H14 H -0.4743 0.5794 0.0462
H15 H -0.4420 0.5110 0.0981
H16 H -0.2966 0.5259 0.0526
C14 C -0.3124(4) 0.63138(19) 0.10970(11)
H17 H -0.4051 0.6600 0.1311
H18 H -0.2278 0.6062 0.1378
C15 C -0.2260(3) 0.70194(17) 0.07455(10)
C16 C -0.0593(3) 0.68895(17) 0.05466(10)
C17 C 0.0205(3) 0.75347(17) 0.02102(11)
C18 C -0.0725(3) 0.83040(18) 0.00577(12)
H19 H -0.0219 0.8744 -0.0177
C19 C -0.2379(3) 0.84397(18) 0.02426(11)
H20 H -0.2997 0.8965 0.0130
C20 C -0.3120(3) 0.78133(18) 0.05883(11)
H21 H -0.4236 0.7921 0.0723
C21 C 0.1998(3) 0.74028(19) 0.00089(13)
H22 H 0.2705 0.7124 0.0320
H23 H 0.2500 0.7998 -0.0073
C22 C 0.2089(4) 0.6816(2) -0.05225(15)
H24 H 0.1452 0.7106 -0.0840
H25 H 0.1583 0.6227 -0.0447
H26 H 0.3290 0.6740 -0.0622
C23 C 0.5604(3) 0.44694(16) 0.31466(10)
C24 C 0.7298(3) 0.41661(17) 0.32373(11)
C25 C 0.8304(3) 0.38098(19) 0.27478(11)
H27 H 0.7603 0.3354 0.2539
H28 H 0.9351 0.3508 0.2903
C26 C 0.8827(4) 0.4544(2) 0.23279(14)
H29 H 0.9398 0.4267 0.2006
H30 H 0.9614 0.4966 0.2522
H31 H 0.7802 0.4867 0.2187
C27 C 0.8027(3) 0.42356(18) 0.37847(11)
H32 H 0.9160 0.4021 0.3858
C28 C 0.7130(3) 0.46120(18) 0.42246(11)
H33 H 0.7656 0.4662 0.4595
C29 C 0.5473(3) 0.49153(17) 0.41258(11)
H34 H 0.4870 0.5176 0.4430
C30 C 0.4672(3) 0.48453(17) 0.35878(11)
C31 C 0.2866(4) 0.5163(2) 0.34587(12)
H35 H 0.2865 0.5521 0.3103
H36 H 0.2138 0.4628 0.3383
C32 C 0.2058(4) 0.5705(2) 0.38989(15)
H37 H 0.1966 0.5346 0.4247
H38 H 0.0911 0.5890 0.3762
H39 H 0.2760 0.6239 0.3981
H40? H 0.2395 0.4729 0.3174
H41? H 0.2250 0.5044 0.3813
C33? C 0.2248(14) 0.6011(6) 0.3269(5)
H42? H 0.2582 0.6473 0.3549
H43? H 0.0995 0.5991 0.3224
H44? H 0.2740 0.6156 0.2901
loop_
_geom_bond_atom_site_label_1
_geom_bond_atom_site_label_2
_geom_bond_site_symmetry_1
_geom_bond_site_symmetry_2
N1 C2 1_555 1_555
N2 C3 1_555 1_555
N3 C8 1_555 1_555
C1 H1 1_555 1_555
H2 C1 1_555 1_555
H3 C1 1_555 1_555
C2 C1 1_555 1_555
C3 C2 1_555 1_555
C4 C3 1_555 1_555
H4 C4 1_555 1_555
C5 C4 1_555 1_555
H5 C5 1_555 1_555
C6 C5 1_555 1_555
C7 N2 1_555 1_555
C8 C7 1_555 1_555
C9 C8 1_555 1_555
H6 C9 1_555 1_555
H7 C9 1_555 1_555
C10 C9 1_555 1_555
H8 C10 1_555 1_555
H9 C10 1_555 1_555
C11 C10 1_555 1_555
H10 C11 1_555 1_555
H11 C11 1_555 1_555
C12 C6 1_555 1_555
H12 C12 1_555 1_555
H13 C12 1_555 1_555
C13 H14 1_555 1_555
H15 C13 1_555 1_555
H16 C13 1_555 1_555
C14 C13 1_555 1_555
H17 C14 1_555 1_555
H18 C14 1_555 1_555
C15 C14 1_555 1_555
C16 N1 1_555 1_555
C17 C16 1_555 1_555
C18 C17 1_555 1_555
H19 C18 1_555 1_555
C19 C18 1_555 1_555
H20 C19 1_555 1_555
C20 C15 1_555 1_555
H21 C20 1_555 1_555
C21 C17 1_555 1_555
H22 C21 1_555 1_555
H23 C21 1_555 1_555
C22 C21 1_555 1_555
H24 C22 1_555 1_555
H25 C22 1_555 1_555
H26 C22 1_555 1_555
C23 N3 1_555 1_555
C24 C23 1_555 1_555
C25 C24 1_555 1_555
H27 C25 1_555 1_555
H28 C25 1_555 1_555
C26 C25 1_555 1_555
H29 C26 1_555 1_555
H30 C26 1_555 1_555
H31 C26 1_555 1_555
C27 C24 1_555 1_555
H32 C27 1_555 1_555
C28 C27 1_555 1_555
H33 C28 1_555 1_555
C29 C28 1_555 1_555
H34 C29 1_555 1_555
C30 C23 1_555 1_555
C31 C30 1_555 1_555
H35 C31 1_555 1_555
H36 C31 1_555 1_555
C32 C31 1_555 1_555
H37 C32 1_555 1_555
H38 C32 1_555 1_555
H39 C32 1_555 1_555
C6 C7 1_555 1_555
C11 C12 1_555 1_555
C15 C16 1_555 1_555
C19 C20 1_555 1_555
C29 C30 1_555 1_555

#END
