
#######################################################################
#
#                 Cambridge Crystallographic Data Centre
#                                CCDC 
#
#######################################################################
#
# If this CIF has been generated from an entry in the Cambridge 
# Structural Database, then it will include bibliographic, chemical, 
# crystal, experimental, refinement or atomic coordinate data resulting 
# from the CCDC's data processing and validation procedures.
#
#######################################################################

data_BOTHOJ
_chemical_formula_moiety         'C18 H15 Br1 N2 O4 S1'
_chemical_name_systematic        
'ethyl 3-(5-bromo-1H-indol-3-yl)-2,3-dihydro-1,2-benzothiazole-3-carboxylate 1,1-dioxide'
_symmetry_cell_setting           trigonal
_symmetry_space_group_name_H-M   'P 32'
_symmetry_Int_Tables_number      145
_space_group_name_Hall           'P 32'
loop_
_symmetry_equiv_pos_site_id
_symmetry_equiv_pos_as_xyz
1 x,y,z
2 -y,x-y,2/3+z
3 -x+y,-x,1/3+z
_cell_length_a                   11.8866(7)
_cell_length_b                   11.8866(7)
_cell_length_c                   11.3987(6)
_cell_angle_alpha                90
_cell_angle_beta                 90
_cell_angle_gamma                120
_cell_volume                     1394.77
_cell_formula_units_Z            3
loop_
_atom_site_label
_atom_site_type_symbol
_atom_site_fract_x
_atom_site_fract_y
_atom_site_fract_z
Br1 Br 0.35486(7) 0.68567(6) 0.26778(6)
S1 S 0.48221(16) 1.12532(17) 0.78146(11)
O1 O 0.1051(4) 0.9456(4) 0.5372(4)
O2 O 0.6141(4) 1.2140(5) 0.7449(5)
O3 O 0.1577(4) 0.8330(4) 0.6596(4)
O4 O 0.4699(6) 1.0609(6) 0.8889(3)
N1 N 0.4026(4) 1.0188(4) 0.6777(3)
H1 H 0.4094 0.9511 0.6648
N2 N 0.4551(4) 1.2253(4) 0.3300(4)
H2 H 0.4870 1.2931 0.2859
C1 C 0.3802(4) 1.0230(4) 0.3939(4)
C2 C 0.3794(5) 0.8560(5) 0.2802(4)
C3 C 0.4349(4) 1.1071(5) 0.2975(4)
C4 C 0.4314(5) 0.9398(6) 0.1820(4)
H3 H 0.4473 0.9093 0.1124
C5 C 0.3529(4) 0.8955(5) 0.3832(3)
H4 H 0.3169 0.8379 0.4457
C6 C 0.3699(4) 1.0987(4) 0.4873(4)
C7 C 0.1843(5) 0.9278(5) 0.6056(4)
C8 C 0.3176(4) 1.0529(4) 0.6088(4)
C9 C 0.4171(5) 1.2201(5) 0.4433(5)
H5 H 0.4226 1.2900 0.4849
C10 C 0.4579(4) 1.0646(6) 0.1897(4)
H6 H 0.4902 1.1203 0.1257
C11 C 0.3902(5) 1.2014(5) 0.7732(4)
C12 C 0.3085(5) 1.1579(4) 0.6778(4)
C13 C 0.2341(7) 1.2148(7) 0.6526(6)
H7 H 0.1806 1.1900 0.5869
C14 C 0.3243(12) 1.3520(7) 0.8200(9)
H8 H 0.3272 1.4171 0.8674
C15 C 0.4029(7) 1.3021(7) 0.8448(6)
H9 H 0.4621 1.3337 0.9064
C16 C 0.2415(9) 1.3079(8) 0.7268(9)
H10 H 0.1879 1.3427 0.7134
C17 C -0.0271(7) 0.8345(9) 0.5264(7)
H11 H -0.0335 0.7626 0.5720
H12 H -0.0878 0.8580 0.5593
C18 C -0.0589(11) 0.7982(12) 0.4226(10)
H13 H -0.1468 0.7273 0.4206
H14 H -0.0021 0.7703 0.3908
H15 H -0.0522 0.8691 0.3767
loop_
_geom_bond_atom_site_label_1
_geom_bond_atom_site_label_2
_geom_bond_site_symmetry_1
_geom_bond_site_symmetry_2
Br1 C2 1_555 1_555
S1 O2 1_555 1_555
O1 C7 1_555 1_555
O3 C7 1_555 1_555
O4 S1 1_555 1_555
N1 S1 1_555 1_555
H1 N1 1_555 1_555
N2 H2 1_555 1_555
C1 C3 1_555 1_555
C2 C4 1_555 1_555
C3 N2 1_555 1_555
C4 H3 1_555 1_555
C5 C1 1_555 1_555
H4 C5 1_555 1_555
C6 C1 1_555 1_555
C7 C8 1_555 1_555
C8 N1 1_555 1_555
C9 N2 1_555 1_555
H5 C9 1_555 1_555
C10 C3 1_555 1_555
H6 C10 1_555 1_555
C11 S1 1_555 1_555
C12 C8 1_555 1_555
C13 C12 1_555 1_555
H7 C13 1_555 1_555
C14 H8 1_555 1_555
C15 C11 1_555 1_555
H9 C15 1_555 1_555
C16 C13 1_555 1_555
H10 C16 1_555 1_555
C17 O1 1_555 1_555
H11 C17 1_555 1_555
H12 C17 1_555 1_555
C18 C17 1_555 1_555
H13 C18 1_555 1_555
H14 C18 1_555 1_555
H15 C18 1_555 1_555
C2 C5 1_555 1_555
C4 C10 1_555 1_555
C6 C8 1_555 1_555
C6 C9 1_555 1_555
C11 C12 1_555 1_555
C14 C15 1_555 1_555
C14 C16 1_555 1_555

#END
