
#######################################################################
#
#                 Cambridge Crystallographic Data Centre
#                                CCDC 
#
#######################################################################
#
# If this CIF has been generated from an entry in the Cambridge 
# Structural Database, then it will include bibliographic, chemical, 
# crystal, experimental, refinement or atomic coordinate data resulting 
# from the CCDC's data processing and validation procedures.
#
#######################################################################

data_BOTKAY
_chemical_formula_moiety         'C18 H21 N1 O4'
_chemical_name_systematic        
N-((4,4-dimethyl-2,6-dioxocyclohexylidene)(4-methylphenyl)methyl)glycine
_symmetry_cell_setting           monoclinic
_symmetry_space_group_name_H-M   'P 21/n'
_symmetry_Int_Tables_number      14
_space_group_name_Hall           '-P 2yn'
loop_
_symmetry_equiv_pos_site_id
_symmetry_equiv_pos_as_xyz
1 x,y,z
2 1/2-x,1/2+y,1/2-z
3 -x,-y,-z
4 1/2+x,1/2-y,1/2+z
_cell_length_a                   10.0101(10)
_cell_length_b                   10.7765(10)
_cell_length_c                   15.5711(14)
_cell_angle_alpha                90
_cell_angle_beta                 93.900(3)
_cell_angle_gamma                90
_cell_volume                     1675.82
_exptl_crystal_colour            white
_exptl_crystal_description       block
_cell_formula_units_Z            4
loop_
_atom_site_label
_atom_site_type_symbol
_atom_site_fract_x
_atom_site_fract_y
_atom_site_fract_z
C1 C 0.70658(17) 0.12376(17) 0.01855(11)
H1 H 0.7083 0.1170 0.0782
C2 C 0.66384(19) 0.02447(18) -0.03218(13)
H2 H 0.6384 -0.0487 -0.0061
O1 O 1.26122(12) 0.28103(13) -0.01054(8)
H3 H 1.345(3) 0.305(2) 0.0126(15)
N1 N 0.92912(13) 0.35614(15) 0.04034(10)
O2 O 0.51066(10) 0.33665(12) 0.02873(7)
C3 C 0.6082(3) 0.3816(2) 0.28704(14)
H4 H 0.6623 0.3281 0.2544
H5 H 0.5275 0.3391 0.2996
H6 H 0.6571 0.4041 0.3399
C4 C 0.57303(17) 0.49766(17) 0.23529(10)
C5 C 0.65821(17) 0.03172(18) -0.12083(12)
C6 C 0.6115(2) -0.0781(2) -0.17510(17)
H7 H 0.5867 -0.0509 -0.2327
H8 H 0.5354 -0.1155 -0.1509
H9 H 0.6825 -0.1378 -0.1762
C7 C 1.02850(15) 0.28691(18) -0.00346(12)
H10 H 1.0187 0.3031 -0.0648
H11 H 1.0171 0.1986 0.0057
C8 C 0.4889(2) 0.5837(2) 0.28844(14)
H12 H 0.5400 0.6073 0.3403
H13 H 0.4092 0.5412 0.3029
H14 H 0.4648 0.6566 0.2555
C9 C 0.69819(19) 0.14147(19) -0.15722(11)
H15 H 0.6948 0.1485 -0.2169
O3 O 1.18159(13) 0.39677(19) 0.09259(11)
C10 C 0.49599(16) 0.46481(19) 0.15063(11)
H16 H 0.4195 0.4144 0.1633
H17 H 0.4618 0.5410 0.1242
C11 C 0.57392(15) 0.39644(15) 0.08603(10)
C12 C 0.71870(15) 0.40785(16) 0.09128(10)
C13 C 0.79943(14) 0.33631(15) 0.03792(10)
C14 C 0.74677(14) 0.23313(15) -0.01826(10)
C15 C 1.16511(16) 0.32783(18) 0.03270(11)
C16 C 0.69689(19) 0.56620(19) 0.21114(12)
H18 H 0.6696 0.6445 0.1847
H19 H 0.7516 0.5849 0.2633
C17 C 0.78097(17) 0.49714(17) 0.15080(11)
C18 C 0.74337(16) 0.24175(18) -0.10700(10)
H20 H 0.7711 0.3142 -0.1330
H21 H 0.956(2) 0.420(2) 0.0753(15)
O4 O 0.90213(12) 0.52234(15) 0.15372(9)
loop_
_geom_bond_atom_site_label_1
_geom_bond_atom_site_label_2
_geom_bond_site_symmetry_1
_geom_bond_site_symmetry_2
C1 H1 1_555 1_555
C2 C1 1_555 1_555
H2 C2 1_555 1_555
O1 H3 1_555 1_555
N1 C7 1_555 1_555
O2 C11 1_555 1_555
C3 H4 1_555 1_555
H5 C3 1_555 1_555
H6 C3 1_555 1_555
C4 C3 1_555 1_555
C5 C2 1_555 1_555
C6 C5 1_555 1_555
H7 C6 1_555 1_555
H8 C6 1_555 1_555
H9 C6 1_555 1_555
C7 H10 1_555 1_555
H11 C7 1_555 1_555
C8 C4 1_555 1_555
H12 C8 1_555 1_555
H13 C8 1_555 1_555
H14 C8 1_555 1_555
C9 C5 1_555 1_555
H15 C9 1_555 1_555
O3 C15 1_555 1_555
C10 C4 1_555 1_555
H16 C10 1_555 1_555
H17 C10 1_555 1_555
C11 C10 1_555 1_555
C12 C11 1_555 1_555
C13 N1 1_555 1_555
C14 C1 1_555 1_555
C15 O1 1_555 1_555
C16 C4 1_555 1_555
H18 C16 1_555 1_555
H19 C16 1_555 1_555
C17 C12 1_555 1_555
C18 C9 1_555 1_555
H20 C18 1_555 1_555
H21 N1 1_555 1_555
O4 C17 1_555 1_555
C7 C15 1_555 1_555
C12 C13 1_555 1_555
C13 C14 1_555 1_555
C14 C18 1_555 1_555
C16 C17 1_555 1_555

#END
