
#######################################################################
#
#                 Cambridge Crystallographic Data Centre
#                                CCDC 
#
#######################################################################
#
# If this CIF has been generated from an entry in the Cambridge 
# Structural Database, then it will include bibliographic, chemical, 
# crystal, experimental, refinement or atomic coordinate data resulting 
# from the CCDC's data processing and validation procedures.
#
#######################################################################

data_BOTNAA
_chemical_name_common            
1-(2-Chlorophenylcarbamoyl)-1,2-dihydrodeoxyvasicinone
_chemical_formula_moiety         'C18 H16 Cl1 N3 O2'
_chemical_name_systematic        
1-(2-Chlorophenylaminocarbonyl)-2,3-trimethylene-1,2,3,4-tetrahydroquinazolin-4-one
_symmetry_cell_setting           monoclinic
_symmetry_space_group_name_H-M   'P 21/n'
_symmetry_Int_Tables_number      14
_space_group_name_Hall           '-P 2yn'
loop_
_symmetry_equiv_pos_site_id
_symmetry_equiv_pos_as_xyz
1 x,y,z
2 1/2-x,1/2+y,1/2-z
3 -x,-y,-z
4 1/2+x,1/2-y,1/2+z
_cell_length_a                   11.701(6)
_cell_length_b                   11.103(4)
_cell_length_c                   12.730(5)
_cell_angle_alpha                90
_cell_angle_beta                 110.93(3)
_cell_angle_gamma                90
_cell_volume                     1544.71
_exptl_crystal_colour            colorless
_exptl_crystal_description       prism
_chemical_melting_point          '210deg. C'
_cell_formula_units_Z            4
loop_
_atom_site_label
_atom_site_type_symbol
_atom_site_fract_x
_atom_site_fract_y
_atom_site_fract_z
Cl1 Cl 0.22070(11) 0.35882(11) 0.85361(9)
O1 O 0.4369(3) 0.4251(3) 0.3236(2)
O2 O 0.1528(2) 0.5304(3) 0.6413(2)
N1 N 0.2810(3) 0.4529(3) 0.5575(2)
C1 C 0.2053(3) 0.4822(4) 0.4428(3)
H1 H 0.1458 0.4176 0.4114
N2 N 0.2848(3) 0.4944(3) 0.3763(2)
C2 C 0.3785(4) 0.4211(4) 0.3879(3)
C3 C 0.4074(3) 0.3353(4) 0.4824(3)
C4 C 0.4838(4) 0.2373(4) 0.4895(4)
H2 H 0.5166 0.2258 0.4337
C5 C 0.5119(4) 0.1571(5) 0.5775(4)
H3 H 0.5632 0.0920 0.5813
C6 C 0.4626(4) 0.1746(4) 0.6602(4)
H4 H 0.4800 0.1197 0.7191
C7 C 0.3885(4) 0.2717(4) 0.6571(3)
H5 H 0.3570 0.2826 0.7140
C8 C 0.3605(3) 0.3540(4) 0.5684(3)
C9 C 0.1403(4) 0.6022(4) 0.4239(3)
H6 H 0.1878 0.6617 0.4776
H7 H 0.0603 0.5949 0.4302
C10 C 0.1289(4) 0.6359(4) 0.3044(3)
H8 H 0.0583 0.5970 0.2497
H9 H 0.1209 0.7224 0.2934
C11 C 0.2458(4) 0.5913(4) 0.2934(3)
H10 H 0.2312 0.5613 0.2182
H11 H 0.3066 0.6548 0.3104
C12 C 0.2552(4) 0.5019(3) 0.6485(3)
N3 N 0.3574(3) 0.5164(3) 0.7414(2)
C13 C 0.3561(3) 0.5549(3) 0.8472(3)
C14 C 0.2985(3) 0.4910(4) 0.9071(3)
C15 C 0.3067(4) 0.5277(4) 1.0136(3)
H12 H 0.2668 0.4844 1.0527
C16 C 0.3739(4) 0.6282(4) 1.0616(3)
H13 H 0.3793 0.6527 1.1331
C17 C 0.4331(4) 0.6924(4) 1.0039(3)
H14 H 0.4793 0.7599 1.0364
C18 C 0.4234(3) 0.6557(4) 0.8968(3)
H15 H 0.4629 0.6997 0.8576
H16 H 0.4376 0.5246 0.7331
loop_
_geom_bond_atom_site_label_1
_geom_bond_atom_site_label_2
_geom_bond_site_symmetry_1
_geom_bond_site_symmetry_2
Cl1 C14 1_555 1_555
O1 C2 1_555 1_555
O2 C12 1_555 1_555
N1 C1 1_555 1_555
C1 H1 1_555 1_555
N2 C1 1_555 1_555
C2 N2 1_555 1_555
C3 C2 1_555 1_555
C4 C3 1_555 1_555
H2 C4 1_555 1_555
C5 C4 1_555 1_555
H3 C5 1_555 1_555
C6 C5 1_555 1_555
H4 C6 1_555 1_555
C7 C6 1_555 1_555
H5 C7 1_555 1_555
C8 N1 1_555 1_555
C9 C1 1_555 1_555
H6 C9 1_555 1_555
H7 C9 1_555 1_555
C10 C9 1_555 1_555
H8 C10 1_555 1_555
H9 C10 1_555 1_555
C11 N2 1_555 1_555
H10 C11 1_555 1_555
H11 C11 1_555 1_555
C12 N1 1_555 1_555
N3 C12 1_555 1_555
C13 N3 1_555 1_555
C14 C13 1_555 1_555
C15 C14 1_555 1_555
H12 C15 1_555 1_555
C16 C15 1_555 1_555
H13 C16 1_555 1_555
C17 C16 1_555 1_555
H14 C17 1_555 1_555
C18 C13 1_555 1_555
H15 C18 1_555 1_555
H16 N3 1_555 1_555
C3 C8 1_555 1_555
C7 C8 1_555 1_555
C10 C11 1_555 1_555
C17 C18 1_555 1_555

#END
