
#######################################################################
#
#                 Cambridge Crystallographic Data Centre
#                                CCDC 
#
#######################################################################
#
# If this CIF has been generated from an entry in the Cambridge 
# Structural Database, then it will include bibliographic, chemical, 
# crystal, experimental, refinement or atomic coordinate data resulting 
# from the CCDC's data processing and validation procedures.
#
#######################################################################

data_BOTPUX
_chemical_formula_moiety         'C20 H24 O7'
_chemical_name_systematic        
'methyl 5,12-dihydroxy-11-methyl-6-methylene-17-oxo-14,16-dioxahexacyclo[9.4.2.1^5,8^.0^1,10^.0^2,8^.0^13,15^]octadecane-9-carboxylate'
_symmetry_cell_setting           orthorhombic
_symmetry_space_group_name_H-M   'P 21 21 21'
_symmetry_Int_Tables_number      19
_space_group_name_Hall           'P 2ac 2ab'
loop_
_symmetry_equiv_pos_site_id
_symmetry_equiv_pos_as_xyz
1 x,y,z
2 1/2-x,-y,1/2+z
3 -x,1/2+y,1/2-z
4 1/2+x,1/2-y,-z
_cell_length_a                   8.5528(9)
_cell_length_b                   9.548(1)
_cell_length_c                   22.930(3)
_cell_angle_alpha                90
_cell_angle_beta                 90
_cell_angle_gamma                90
_cell_volume                     1872.51
_exptl_crystal_colour            colorless
_chemical_melting_point          '459 K'
_cell_formula_units_Z            4
loop_
_atom_site_label
_atom_site_type_symbol
_atom_site_fract_x
_atom_site_fract_y
_atom_site_fract_z
C1 C 0.6682(4) 0.3858(4) 0.4817(1)
C2 C 0.7303(5) 0.5090(4) 0.5118(1)
C3 C 0.7350(4) 0.6507(3) 0.4821(1)
C4 C 0.6856(3) 0.6450(3) 0.4163(1)
C5 C 0.5372(3) 0.5545(3) 0.4135(1)
C6 C 0.4535(3) 0.5444(2) 0.3540(1)
C7 C 0.3310(3) 0.6555(2) 0.3453(1)
C8 C 0.3894(3) 0.3914(2) 0.3514(1)
C9 C 0.4933(3) 0.3057(3) 0.3954(1)
C10 C 0.6095(3) 0.4093(3) 0.4193(1)
C11 C 0.5616(3) 0.1719(3) 0.3689(1)
C12 C 0.4374(3) 0.0874(3) 0.3362(1)
C13 C 0.3175(3) 0.1812(3) 0.3048(1)
C14 C 0.3930(3) 0.3238(3) 0.2911(1)
C15 C 0.2154(3) 0.3712(3) 0.3675(1)
C16 C 0.1827(3) 0.2246(3) 0.3448(1)
C17 C 0.0571(4) 0.1477(4) 0.3566(2)
C18 C 0.6759(4) 0.7931(3) 0.3911(2)
C19 C 0.7973(3) 0.5533(3) 0.3824(1)
C20 C 0.1692(4) 0.7635(3) 0.2755(2)
O1 O 0.8343(3) 0.4012(3) 0.4901(1)
O2 O 0.6288(4) 0.7406(3) 0.5102(1)
O3 O 0.2867(2) 0.6617(2) 0.2897(1)
O4 O 0.2791(2) 0.7311(2) 0.3821(1)
O5 O 0.7464(2) 0.4192(2) 0.3811(1)
O6 O 0.9146(2) 0.5889(3) 0.3563(1)
O7 O 0.2668(3) 0.1040(2) 0.2550(1)
loop_
_geom_bond_atom_site_label_1
_geom_bond_atom_site_label_2
_geom_bond_site_symmetry_1
_geom_bond_site_symmetry_2
C1 C2 1_555 1_555
C2 C3 1_555 1_555
C3 C4 1_555 1_555
C4 C5 1_555 1_555
C5 C6 1_555 1_555
C6 C7 1_555 1_555
C7 O3 1_555 1_555
C8 C6 1_555 1_555
C9 C8 1_555 1_555
C10 C1 1_555 1_555
C11 C9 1_555 1_555
C12 C11 1_555 1_555
C13 C12 1_555 1_555
C14 C8 1_555 1_555
C15 C8 1_555 1_555
C16 C13 1_555 1_555
C17 C16 1_555 1_555
C18 C4 1_555 1_555
C19 C4 1_555 1_555
C20 O3 1_555 1_555
O1 C1 1_555 1_555
O2 C3 1_555 1_555
O4 C7 1_555 1_555
O5 C10 1_555 1_555
O6 C19 1_555 1_555
O7 C13 1_555 1_555
C2 O1 1_555 1_555
C5 C10 1_555 1_555
C9 C10 1_555 1_555
C13 C14 1_555 1_555
C15 C16 1_555 1_555
C19 O5 1_555 1_555

#END
