
#######################################################################
#
#                 Cambridge Crystallographic Data Centre
#                                CCDC 
#
#######################################################################
#
# If this CIF has been generated from an entry in the Cambridge 
# Structural Database, then it will include bibliographic, chemical, 
# crystal, experimental, refinement or atomic coordinate data resulting 
# from the CCDC's data processing and validation procedures.
#
#######################################################################

data_BOTSUZ
_chemical_name_common            
"4,4'-Disulfanediylbis(N,N,N-trimethylanilinium) diiodide acetone solvate"
_chemical_formula_moiety         'C18 H26 N2 S2 2+,2(I1 1-),2(C3 H6 O1)'
_chemical_name_systematic        
'bis[4-(trimethylammonio)phenyl] disulfide diiodide acetone solvate'
_symmetry_cell_setting           orthorhombic
_symmetry_space_group_name_H-M   'P n n a'
_symmetry_Int_Tables_number      52
_space_group_name_Hall           '-P 2a 2bc'
loop_
_symmetry_equiv_pos_site_id
_symmetry_equiv_pos_as_xyz
1 x,y,z
2 1/2-x,-y,z
3 x,1/2-y,1/2-z
4 1/2-x,1/2+y,1/2-z
5 -x,-y,-z
6 1/2+x,y,-z
7 -x,1/2+y,1/2+z
8 1/2+x,1/2-y,1/2+z
_cell_length_a                   12.398(2)
_cell_length_b                   10.1902(19)
_cell_length_c                   23.773(5)
_cell_angle_alpha                90
_cell_angle_beta                 90
_cell_angle_gamma                90
_cell_volume                     3003.44
_exptl_crystal_colour            yellow
_exptl_crystal_description       block
_cell_formula_units_Z            4
loop_
_atom_site_label
_atom_site_type_symbol
_atom_site_fract_x
_atom_site_fract_y
_atom_site_fract_z
I1 I 0.7500 0.0000 0.03612(2)
I2 I 0.19261(4) 0.7500 0.2500
S1 S -0.17267(11) 0.53097(12) 0.27874(5)
N1 N 0.0786(3) 0.2279(4) 0.10427(17)
C1 C -0.1070(4) 0.4385(4) 0.22510(18)
C2 C 0.0013(4) 0.4655(5) 0.2189(2)
H1 H 0.036(4) 0.535(5) 0.240(2)
C3 C 0.0625(4) 0.3988(5) 0.1797(2)
H2 H 0.138(6) 0.418(7) 0.177(3)
C4 C 0.0139(4) 0.3045(4) 0.14630(18)
C5 C -0.0949(4) 0.2770(4) 0.15229(19)
H3 H -0.125(4) 0.220(5) 0.131(2)
C6 C -0.1555(4) 0.3440(5) 0.19190(19)
H4 H -0.231(4) 0.322(5) 0.1942(19)
C7 C 0.1875(5) 0.2898(7) 0.0930(3)
H5 H 0.173(5) 0.378(7) 0.080(3)
H6 H 0.235(6) 0.290(7) 0.129(3)
H7 H 0.220(4) 0.235(6) 0.064(2)
C8 C 0.0198(5) 0.2237(9) 0.0486(3)
H8 H -0.041(6) 0.171(7) 0.052(3)
H9 H 0.068(6) 0.180(7) 0.024(3)
H10 H 0.008(7) 0.319(9) 0.037(3)
C9 C 0.0980(7) 0.0936(7) 0.1272(4)
H11 H 0.139(6) 0.044(7) 0.102(3)
H12 H 0.032(5) 0.060(6) 0.133(3)
H13 H 0.147(7) 0.095(8) 0.162(4)
S1A S -0.32733(11) 0.46903(12) 0.27874(5)
N1A N -0.5786(3) 0.7721(4) 0.10427(17)
C1A C -0.3930(4) 0.5615(4) 0.22510(18)
C2A C -0.5013(4) 0.5345(5) 0.2189(2)
H1A H -0.536(4) 0.465(5) 0.240(2)
C3A C -0.5625(4) 0.6012(5) 0.1797(2)
H2A H -0.638(6) 0.582(7) 0.177(3)
C4A C -0.5139(4) 0.6955(4) 0.14630(18)
C5A C -0.4051(4) 0.7230(4) 0.15229(19)
H3A H -0.375(4) 0.780(5) 0.131(2)
C6A C -0.3445(4) 0.6560(5) 0.19190(19)
H4A H -0.269(4) 0.678(5) 0.1942(19)
C7A C -0.6875(5) 0.7102(7) 0.0930(3)
H5A H -0.673(5) 0.622(7) 0.080(3)
H6A H -0.735(6) 0.710(7) 0.129(3)
H7A H -0.720(4) 0.765(6) 0.064(2)
C8A C -0.5198(5) 0.7763(9) 0.0486(3)
H8A H -0.459(6) 0.829(7) 0.052(3)
H9A H -0.568(6) 0.820(7) 0.024(3)
H10A H -0.508(7) 0.681(9) 0.037(3)
C9A C -0.5980(7) 0.9064(7) 0.1272(4)
H11A H -0.639(6) 0.956(7) 0.102(3)
H12A H -0.532(5) 0.940(6) 0.133(3)
H13A H -0.647(7) 0.905(8) 0.162(4)
O1 O 0.4334(4) 0.4128(5) 0.06145(18)
C10 C 0.5056(8) 0.2388(9) 0.1139(5)
H14 H 0.5610 0.1766 0.1016
H15 H 0.4341 0.1995 0.1089
H16 H 0.5166 0.2600 0.1537
C11 C 0.5131(5) 0.3593(6) 0.0802(2)
C12 C 0.6237(6) 0.4117(7) 0.0705(3)
H17 H 0.6708 0.3408 0.0574
H18 H 0.6521 0.4478 0.1057
H19 H 0.6209 0.4810 0.0420
loop_
_geom_bond_atom_site_label_1
_geom_bond_atom_site_label_2
_geom_bond_site_symmetry_1
_geom_bond_site_symmetry_2
S1 C1 1_555 1_555
N1 C4 1_555 1_555
C1 C2 1_555 1_555
C2 H1 1_555 1_555
C3 C2 1_555 1_555
H2 C3 1_555 1_555
C4 C3 1_555 1_555
C5 C4 1_555 1_555
H3 C5 1_555 1_555
C6 C1 1_555 1_555
H4 C6 1_555 1_555
C7 N1 1_555 1_555
H5 C7 1_555 1_555
H6 C7 1_555 1_555
H7 C7 1_555 1_555
C8 N1 1_555 1_555
H8 C8 1_555 1_555
H9 C8 1_555 1_555
H10 C8 1_555 1_555
C9 N1 1_555 1_555
H11 C9 1_555 1_555
H12 C9 1_555 1_555
H13 C9 1_555 1_555
O1 C11 1_555 1_555
C10 H14 1_555 1_555
H15 C10 1_555 1_555
H16 C10 1_555 1_555
C11 C10 1_555 1_555
C12 C11 1_555 1_555
H17 C12 1_555 1_555
H18 C12 1_555 1_555
H19 C12 1_555 1_555
S1A S1 1_555 1_555
N1A C4A 1_555 1_555
C1A S1A 1_555 1_555
C2A C1A 1_555 1_555
H1A C2A 1_555 1_555
C3A C2A 1_555 1_555
H2A C3A 1_555 1_555
C4A C3A 1_555 1_555
C5A C4A 1_555 1_555
H3A C5A 1_555 1_555
C6A C1A 1_555 1_555
H4A C6A 1_555 1_555
C7A N1A 1_555 1_555
H5A C7A 1_555 1_555
H6A C7A 1_555 1_555
H7A C7A 1_555 1_555
C8A N1A 1_555 1_555
H8A C8A 1_555 1_555
H9A C8A 1_555 1_555
H10A C8A 1_555 1_555
C9A N1A 1_555 1_555
H11A C9A 1_555 1_555
H12A C9A 1_555 1_555
H13A C9A 1_555 1_555
C5 C6 1_555 1_555
C5A C6A 1_555 1_555

#END
