
#######################################################################
#
#                 Cambridge Crystallographic Data Centre
#                                CCDC 
#
#######################################################################
#
# If this CIF has been generated from an entry in the Cambridge 
# Structural Database, then it will include bibliographic, chemical, 
# crystal, experimental, refinement or atomic coordinate data resulting 
# from the CCDC's data processing and validation procedures.
#
#######################################################################

data_BOTXOY
_chemical_compound_source        'root of Rennelia elliptica Korth'
_chemical_name_common            'ucidin omega-methyl ether'
_chemical_formula_moiety         'C16 H12 O5'
_chemical_name_systematic        
1,3-Dihydroxy-2-(methoxymethyl)-9,10-anthraquinone
_symmetry_cell_setting           monoclinic
_symmetry_space_group_name_H-M   'P 21/n'
_symmetry_Int_Tables_number      14
_space_group_name_Hall           '-P 2yn'
loop_
_symmetry_equiv_pos_site_id
_symmetry_equiv_pos_as_xyz
1 x,y,z
2 1/2-x,1/2+y,1/2-z
3 -x,-y,-z
4 1/2+x,1/2-y,1/2+z
_cell_length_a                   4.67250(10)
_cell_length_b                   39.6850(10)
_cell_length_c                   6.9869(2)
_cell_angle_alpha                90
_cell_angle_beta                 107.654(2)
_cell_angle_gamma                90
_cell_volume                     1234.55
_exptl_crystal_colour            yellow
_exptl_crystal_description       plate
_cell_formula_units_Z            4
_exptl_crystal_recrystallization_method dichloromethane
loop_
_atom_site_label
_atom_site_type_symbol
_atom_site_fract_x
_atom_site_fract_y
_atom_site_fract_z
O1 O 0.5327(4) 0.35893(4) 0.3196(2)
H1 H 0.476(7) 0.3392(4) 0.338(5)
O2 O 0.2892(4) 0.31121(4) 0.4610(3)
O3 O 0.0049(4) 0.39767(4) 0.9709(2)
O4 O 0.5244(4) 0.46858(4) 0.5956(3)
H2 H 0.601(8) 0.4724(9) 0.503(4)
O5 O 0.777(3) 0.45857(15) 0.3246(15)
C1 C 0.4569(5) 0.43535(6) 0.5813(3)
C2 C 0.3075(5) 0.42345(6) 0.7145(3)
H3 H 0.2585 0.4386 0.8052
C3 C 0.2318(5) 0.38992(6) 0.7142(3)
C4 C 0.0737(5) 0.37804(6) 0.8575(3)
C5 C 0.0051(5) 0.34142(6) 0.8590(3)
C6 C -0.1291(5) 0.32923(6) 0.9985(4)
H4 H -0.1774 0.3443 1.0900
C7 C -0.1917(6) 0.29523(6) 1.0034(4)
H5 H -0.2798 0.2869 1.1001
C8 C -0.1268(6) 0.27307(6) 0.8677(4)
H6 H -0.1728 0.2498 0.8707
C9 C 0.0054(6) 0.28509(6) 0.7283(4)
H7 H 0.0490 0.2700 0.6352
C10 C 0.0745(5) 0.31922(6) 0.7240(3)
C11 C 0.2280(5) 0.33153(6) 0.5794(3)
C12 C 0.3044(5) 0.36698(6) 0.5816(3)
C13 C 0.4545(5) 0.37961(6) 0.4486(3)
C14 C 0.5296(5) 0.41375(6) 0.4458(3)
C15 C 0.6804(5) 0.42442(6) 0.2919(3)
H8 H 0.8555 0.4097 0.3022
H9 H 0.5378 0.4220 0.1551
C16 C 0.8677(6) 0.47240(6) 0.1631(4)
H10 H 0.9308 0.4958 0.1938
H11 H 0.6989 0.4716 0.0390
H12 H 1.0357 0.4592 0.1459
H13? H 0.8858 0.4149 0.3277
H14? H 0.5654 0.4157 0.1578
H15? H 0.9262 0.4958 0.1984
H16? H 0.7474 0.4711 0.0215
H17? H 1.0482 0.4585 0.1853
O6? O 0.694(3) 0.46028(15) 0.2862(15)
loop_
_geom_bond_atom_site_label_1
_geom_bond_atom_site_label_2
_geom_bond_site_symmetry_1
_geom_bond_site_symmetry_2
O1 H1 1_555 1_555
O2 C11 1_555 1_555
O3 C4 1_555 1_555
O4 H2 1_555 1_555
O5 C15 1_555 1_555
C1 O4 1_555 1_555
C2 C1 1_555 1_555
H3 C2 1_555 1_555
C3 C2 1_555 1_555
C4 C3 1_555 1_555
C5 C4 1_555 1_555
C6 C5 1_555 1_555
H4 C6 1_555 1_555
C7 C6 1_555 1_555
H5 C7 1_555 1_555
C8 C7 1_555 1_555
H6 C8 1_555 1_555
C9 C8 1_555 1_555
H7 C9 1_555 1_555
C10 C5 1_555 1_555
C11 C10 1_555 1_555
C12 C3 1_555 1_555
C13 O1 1_555 1_555
C14 C1 1_555 1_555
C15 C14 1_555 1_555
H8 C15 1_555 1_555
H9 C15 1_555 1_555
C16 O5 1_555 1_555
H10 C16 1_555 1_555
H11 C16 1_555 1_555
H12 C16 1_555 1_555
C9 C10 1_555 1_555
C11 C12 1_555 1_555
C12 C13 1_555 1_555
C13 C14 1_555 1_555

#END
