
#######################################################################
#
#                 Cambridge Crystallographic Data Centre
#                                CCDC 
#
#######################################################################
#
# If this CIF has been generated from an entry in the Cambridge 
# Structural Database, then it will include bibliographic, chemical, 
# crystal, experimental, refinement or atomic coordinate data resulting 
# from the CCDC's data processing and validation procedures.
#
#######################################################################

data_BOWCUN
_chemical_formula_moiety         '2(C26 H22 N2 O2),C12 H4 N4,C6 H5 Cl1'
_chemical_name_systematic        
"2,2'-Cyclohexa-2,5-diene-1,4-diylidenedimalononitrile bis(1-(5-(9-anthryl)-3-(4-methoxyphenyl)-4,5-dihydro-1H-pyrazol-1-yl)ethanone) chlorobenzene solvate"
_symmetry_cell_setting           triclinic
_symmetry_space_group_name_H-M   'P -1'
_symmetry_Int_Tables_number      2
_space_group_name_Hall           '-P 1'
loop_
_symmetry_equiv_pos_site_id
_symmetry_equiv_pos_as_xyz
1 x,y,z
2 -x,-y,-z
_cell_length_a                   9.884(2)
_cell_length_b                   17.500(4)
_cell_length_c                   18.122(4)
_cell_angle_alpha                111.29(3)
_cell_angle_beta                 96.85(3)
_cell_angle_gamma                92.11(3)
_cell_volume                     2888.9
_cell_formula_units_Z            2
loop_
_atom_site_label
_atom_site_type_symbol
_atom_site_fract_x
_atom_site_fract_y
_atom_site_fract_z
N1 N 0.9778(3) 0.00948(19) 0.31471(18)
N2 N 0.8600(3) 0.01913(19) 0.26775(18)
O1 O 1.3258(3) -0.12634(19) 0.55580(18)
O2 O 0.7418(3) 0.10521(17) 0.22518(17)
C1 C 1.2950(5) -0.1967(3) 0.5752(3)
H1 H 1.3698 -0.2023 0.6114
H2 H 1.2810 -0.2451 0.5272
H3 H 1.2135 -0.1898 0.6002
C2 C 1.2270(5) -0.1076(3) 0.5039(3)
C3 C 1.2704(4) -0.0524(3) 0.4734(3)
H4 H 1.3605 -0.0294 0.4866
C4 C 1.1775(4) -0.0308(3) 0.4216(2)
H5 H 1.2063 0.0074 0.4009
C5 C 1.0443(4) -0.0647(2) 0.4006(2)
C6 C 1.0067(5) -0.1198(3) 0.4328(2)
H6 H 0.9170 -0.1435 0.4193
C7 C 1.0950(5) -0.1425(3) 0.4846(2)
H7 H 1.0658 -0.1802 0.5058
C8 C 0.9432(4) -0.0430(2) 0.3463(2)
C9 C 0.7983(4) -0.0767(2) 0.3227(2)
H8 H 0.7529 -0.0679 0.3694
H9 H 0.7907 -0.1351 0.2908
C10 C 0.7378(4) -0.0283(2) 0.2739(2)
H10 H 0.6802 0.0110 0.3066
C11 C 0.8536(5) 0.0855(3) 0.2463(2)
C12 C 0.9820(4) 0.1351(3) 0.2520(3)
H11 H 0.9616 0.1789 0.2335
H12 H 1.0425 0.1006 0.2194
H13 H 1.0252 0.1578 0.3066
C13 C 0.6505(4) -0.0788(2) 0.1946(2)
C14 C 0.5103(4) -0.0715(2) 0.1839(2)
C15 C 0.4362(4) -0.0154(3) 0.2430(2)
H14 H 0.4851 0.0189 0.2917
C16 C 0.3030(5) -0.0111(3) 0.2306(3)
H15 H 0.2608 0.0243 0.2714
C17 C 0.2228(4) -0.0589(3) 0.1570(3)
H16 H 0.1299 -0.0530 0.1481
C18 C 0.2842(4) -0.1136(2) 0.0995(3)
H17 H 0.2314 -0.1471 0.0519
C19 C 0.4264(4) -0.1207(2) 0.1103(2)
C20 C 0.4871(4) -0.1775(2) 0.0500(2)
H18 H 0.4333 -0.2088 0.0018
C21 C 0.6252(4) -0.1882(2) 0.0600(2)
C22 C 0.6870(4) -0.2496(2) -0.0014(2)
H19 H 0.6329 -0.2821 -0.0490
C23 C 0.8219(5) -0.2604(2) 0.0092(2)
H20 H 0.8595 -0.3001 -0.0309
C24 C 0.9049(4) -0.2117(2) 0.0808(2)
H21 H 0.9972 -0.2200 0.0881
C25 C 0.8519(4) -0.1521(2) 0.1400(2)
H22 H 0.9096 -0.1199 0.1863
C26 C 0.7098(4) -0.1381(2) 0.1327(2)
N3 N 0.2736(3) 0.48645(18) 0.37741(18)
N4 N 0.3327(3) 0.47735(18) 0.30889(18)
O3 O 0.1993(3) 0.64613(17) 0.74640(16)
O4 O 0.3583(3) 0.40167(16) 0.18240(15)
C27 C 0.2869(5) 0.7045(3) 0.8150(2)
H23 H 0.2417 0.7170 0.8615
H24 H 0.3060 0.7540 0.8055
H25 H 0.3710 0.6812 0.8234
C28 C 0.2452(4) 0.6212(2) 0.6724(2)
C29 C 0.3689(4) 0.6484(2) 0.6599(2)
H26 H 0.4300 0.6847 0.7023
C30 C 0.4013(4) 0.6205(2) 0.5823(2)
H27 H 0.4853 0.6389 0.5736
C31 C 0.3142(4) 0.5672(2) 0.5183(2)
C32 C 0.1927(4) 0.5402(2) 0.5339(2)
H28 H 0.1327 0.5025 0.4918
C33 C 0.1562(4) 0.5673(3) 0.6108(2)
H29 H 0.0725 0.5489 0.6197
C34 C 0.3475(4) 0.5421(2) 0.4366(2)
C35 C 0.4686(3) 0.5781(2) 0.4145(2)
H30 H 0.5531 0.5694 0.4424
H31 H 0.4640 0.6366 0.4269
C36 C 0.4584(4) 0.5313(2) 0.3244(2)
H32 H 0.5348 0.4965 0.3150
C37 C 0.2870(5) 0.4146(3) 0.2374(3)
C38 C 0.1564(5) 0.3652(3) 0.2305(2)
H33 H 0.1372 0.3232 0.1779
H34 H 0.0832 0.4006 0.2392
H35 H 0.1648 0.3402 0.2697
C39 C 0.4639(3) 0.5846(2) 0.2745(2)
C40 C 0.3559(4) 0.6380(2) 0.2718(2)
C41 C 0.2342(4) 0.6386(2) 0.3066(2)
H36 H 0.2215 0.6035 0.3338
C42 C 0.1354(4) 0.6897(3) 0.3009(2)
H37 H 0.0578 0.6901 0.3255
C43 C 0.1506(5) 0.7424(3) 0.2577(3)
H38 H 0.0815 0.7757 0.2530
C44 C 0.2608(5) 0.7445(2) 0.2245(2)
H39 H 0.2689 0.7802 0.1975
C45 C 0.3717(4) 0.6922(2) 0.2287(2)
C46 C 0.4890(4) 0.6957(2) 0.1955(2)
H40 H 0.4994 0.7334 0.1708
C47 C 0.5903(4) 0.6454(2) 0.1980(2)
C48 C 0.7139(4) 0.6518(3) 0.1641(2)
H41 H 0.7227 0.6896 0.1396
C49 C 0.8158(4) 0.6042(3) 0.1676(2)
H42 H 0.8949 0.6095 0.1461
C50 C 0.8025(4) 0.5462(3) 0.2037(2)
H43 H 0.8721 0.5119 0.2037
C51 C 0.6946(4) 0.5386(2) 0.2378(2)
H44 H 0.6912 0.5002 0.2622
C52 C 0.5814(4) 0.5890(2) 0.23805(19)
N5 N 0.1585(4) 0.6749(2) -0.0141(2)
N6 N 0.0898(4) 0.4997(2) 0.1037(2)
C53 C 0.5436(4) 0.4400(2) 0.0285(2)
H45 H 0.5742 0.3996 0.0469
C54 C 0.4228(4) 0.4678(2) 0.0440(2)
H46 H 0.3714 0.4470 0.0733
C55 C 0.3703(4) 0.5293(2) 0.0162(2)
C56 C 0.2461(4) 0.5593(2) 0.0312(2)
C57 C 0.1619(4) 0.5267(3) 0.0716(2)
C58 C 0.1958(4) 0.6233(3) 0.0063(3)
N5A N 0.8415(4) 0.3251(2) 0.0141(2)
N6A N 0.9102(4) 0.5003(2) -0.1037(2)
C53A C 0.4564(4) 0.5600(2) -0.0285(2)
H45A H 0.4258 0.6004 -0.0469
C54A C 0.5772(4) 0.5322(2) -0.0440(2)
H46A H 0.6286 0.5530 -0.0733
C55A C 0.6297(4) 0.4707(2) -0.0162(2)
C56A C 0.7539(4) 0.4407(2) -0.0312(2)
C57A C 0.8381(4) 0.4733(3) -0.0716(2)
C58A C 0.8042(4) 0.3767(3) -0.0063(3)
N7 N 0.9476(6) 0.9091(4) 0.9685(4)
N8 N 0.6272(6) 0.8018(3) 0.7698(3)
C59 C 0.6357(7) 1.0107(4) 1.0362(4)
H47 H 0.7262 1.0174 1.0602
C60 C 0.5989(7) 0.9532(4) 0.9572(3)
C61 C 0.4549(8) 0.9449(3) 0.9230(3)
H48 H 0.4265 0.9073 0.8713
C62 C 0.6912(7) 0.9040(4) 0.9155(4)
C63 C 0.8357(8) 0.9077(4) 0.9464(4)
C64 C 0.6540(6) 0.8459(4) 0.8345(4)
N7A N 0.0524(6) 1.0909(4) 1.0315(4)
N8A N 0.3728(6) 1.1982(3) 1.2302(3)
C59A C 0.3643(7) 0.9893(4) 0.9638(4)
H47A H 0.2738 0.9826 0.9398
C60A C 0.4011(7) 1.0468(4) 1.0428(3)
C61A C 0.5451(8) 1.0551(3) 1.0770(3)
H48A H 0.5735 1.0927 1.1287
C62A C 0.3088(7) 1.0960(4) 1.0845(4)
C63A C 0.1643(8) 1.0923(4) 1.0536(4)
C64A C 0.3460(6) 1.1541(4) 1.1655(4)
Cl1 Cl 0.5922(3) 0.8109(2) 0.4192(2)
C65 C 0.7858(9) 0.7114(6) 0.4366(6)
H49 H 0.7918 0.7045 0.3838
C66 C 0.8793(13) 0.6634(6) 0.4651(7)
H50 H 0.9292 0.6249 0.4316
C67 C 0.8882(12) 0.6778(5) 0.5382(7)
H51 H 0.9465 0.6581 0.5701
C68 C 0.7816(10) 0.7339(7) 0.5598(6)
H52 H 0.7749 0.7351 0.6109
C69 C 0.6862(10) 0.7854(6) 0.5533(4)
H53 H 0.6372 0.8208 0.5904
C70 C 0.6868(13) 0.7664(8) 0.4687(7)
loop_
_geom_bond_atom_site_label_1
_geom_bond_atom_site_label_2
_geom_bond_site_symmetry_1
_geom_bond_site_symmetry_2
N1 N2 1_555 1_555
N2 C10 1_555 1_555
O1 C1 1_555 1_555
O2 C11 1_555 1_555
C1 H1 1_555 1_555
H2 C1 1_555 1_555
H3 C1 1_555 1_555
C2 O1 1_555 1_555
C3 C2 1_555 1_555
H4 C3 1_555 1_555
C4 C3 1_555 1_555
H5 C4 1_555 1_555
C5 C4 1_555 1_555
C6 C5 1_555 1_555
H6 C6 1_555 1_555
C7 C2 1_555 1_555
H7 C7 1_555 1_555
C8 N1 1_555 1_555
C9 C8 1_555 1_555
H8 C9 1_555 1_555
H9 C9 1_555 1_555
C10 C9 1_555 1_555
H10 C10 1_555 1_555
C11 N2 1_555 1_555
C12 C11 1_555 1_555
H11 C12 1_555 1_555
H12 C12 1_555 1_555
H13 C12 1_555 1_555
C13 C10 1_555 1_555
C14 C13 1_555 1_555
C15 C14 1_555 1_555
H14 C15 1_555 1_555
C16 C15 1_555 1_555
H15 C16 1_555 1_555
C17 C16 1_555 1_555
H16 C17 1_555 1_555
C18 C17 1_555 1_555
H17 C18 1_555 1_555
C19 C14 1_555 1_555
C20 C19 1_555 1_555
H18 C20 1_555 1_555
C21 C20 1_555 1_555
C22 C21 1_555 1_555
H19 C22 1_555 1_555
C23 C22 1_555 1_555
H20 C23 1_555 1_555
C24 C23 1_555 1_555
H21 C24 1_555 1_555
C25 C24 1_555 1_555
H22 C25 1_555 1_555
C26 C13 1_555 1_555
N3 N4 1_555 1_555
N4 C36 1_555 1_555
O3 C27 1_555 1_555
O4 C37 1_555 1_555
C27 H23 1_555 1_555
H24 C27 1_555 1_555
H25 C27 1_555 1_555
C28 O3 1_555 1_555
C29 C28 1_555 1_555
H26 C29 1_555 1_555
C30 C29 1_555 1_555
H27 C30 1_555 1_555
C31 C30 1_555 1_555
C32 C31 1_555 1_555
H28 C32 1_555 1_555
C33 C28 1_555 1_555
H29 C33 1_555 1_555
C34 N3 1_555 1_555
C35 C34 1_555 1_555
H30 C35 1_555 1_555
H31 C35 1_555 1_555
C36 C35 1_555 1_555
H32 C36 1_555 1_555
C37 N4 1_555 1_555
C38 C37 1_555 1_555
H33 C38 1_555 1_555
H34 C38 1_555 1_555
H35 C38 1_555 1_555
C39 C36 1_555 1_555
C40 C39 1_555 1_555
C41 C40 1_555 1_555
H36 C41 1_555 1_555
C42 C41 1_555 1_555
H37 C42 1_555 1_555
C43 C42 1_555 1_555
H38 C43 1_555 1_555
C44 C43 1_555 1_555
H39 C44 1_555 1_555
C45 C40 1_555 1_555
C46 C45 1_555 1_555
H40 C46 1_555 1_555
C47 C46 1_555 1_555
C48 C47 1_555 1_555
H41 C48 1_555 1_555
C49 C48 1_555 1_555
H42 C49 1_555 1_555
C50 C49 1_555 1_555
H43 C50 1_555 1_555
C51 C50 1_555 1_555
H44 C51 1_555 1_555
C52 C39 1_555 1_555
N5 C58 1_555 1_555
N6 C57 1_555 1_555
C53 H45 1_555 1_555
C54 C53 1_555 1_555
H46 C54 1_555 1_555
C55 C54 1_555 1_555
C56 C55 1_555 1_555
C57 C56 1_555 1_555
C58 C56 1_555 1_555
N7 C63 1_555 1_555
N8 C64 1_555 1_555
C59 H47 1_555 1_555
C60 C59 1_555 1_555
C61 C60 1_555 1_555
H48 C61 1_555 1_555
C62 C60 1_555 1_555
C63 C62 1_555 1_555
C64 C62 1_555 1_555
Cl1 C70 1_555 1_555
C65 H49 1_555 1_555
C66 C65 1_555 1_555
H50 C66 1_555 1_555
C67 C66 1_555 1_555
H51 C67 1_555 1_555
C68 C67 1_555 1_555
H52 C68 1_555 1_555
C69 C68 1_555 1_555
H53 C69 1_555 1_555
C70 C65 1_555 1_555
N5A C58A 1_555 1_555
N6A C57A 1_555 1_555
C53A C55 1_555 1_555
H45A C53A 1_555 1_555
C54A C53A 1_555 1_555
H46A C54A 1_555 1_555
C55A C53 1_555 1_555
C56A C55A 1_555 1_555
C57A C56A 1_555 1_555
C58A C56A 1_555 1_555
N7A C63A 1_555 1_555
N8A C64A 1_555 1_555
C59A C61 1_555 1_555
H47A C59A 1_555 1_555
C60A C59A 1_555 1_555
C61A C59 1_555 1_555
H48A C61A 1_555 1_555
C62A C60A 1_555 1_555
C63A C62A 1_555 1_555
C64A C62A 1_555 1_555
C5 C8 1_555 1_555
C6 C7 1_555 1_555
C18 C19 1_555 1_555
C21 C26 1_555 1_555
C25 C26 1_555 1_555
C31 C34 1_555 1_555
C32 C33 1_555 1_555
C44 C45 1_555 1_555
C47 C52 1_555 1_555
C51 C52 1_555 1_555
C69 C70 1_555 1_555
C54A C55A 1_555 1_555
C60A C61A 1_555 1_555

#END
