
#######################################################################
#
#                 Cambridge Crystallographic Data Centre
#                                CCDC 
#
#######################################################################
#
# If this CIF has been generated from an entry in the Cambridge 
# Structural Database, then it will include bibliographic, chemical, 
# crystal, experimental, refinement or atomic coordinate data resulting 
# from the CCDC's data processing and validation procedures.
#
#######################################################################

data_BOWROU10
_chemical_name_common            1,4,7,10,13,16-Hexathiacyclo-octadecane
_chemical_formula_moiety         'C12 H24 S6'
_chemical_name_systematic        Hexathia-18-crown-6
_symmetry_cell_setting           orthorhombic
_symmetry_space_group_name_H-M   'F d d 2'
_symmetry_Int_Tables_number      43
_space_group_name_Hall           'F 2 -2d'
loop_
_symmetry_equiv_pos_site_id
_symmetry_equiv_pos_as_xyz
1 x,y,z
2 x,1/2+y,1/2+z
3 1/2+x,y,1/2+z
4 1/2+x,1/2+y,z
5 1/4-x,1/4+y,1/4+z
6 1/4-x,3/4+y,3/4+z
7 3/4-x,1/4+y,3/4+z
8 3/4-x,3/4+y,1/4+z
9 1/4+x,1/4-y,1/4+z
10 1/4+x,3/4-y,3/4+z
11 3/4+x,1/4-y,3/4+z
12 3/4+x,3/4-y,1/4+z
13 1/2-x,-y,1/2+z
14 1/2-x,1/2-y,z
15 -x,-y,z
16 -x,1/2-y,1/2+z
_cell_length_a                   20.466(1)
_cell_length_b                   33.222(3)
_cell_length_c                   5.213(4)
_cell_angle_alpha                90
_cell_angle_beta                 90
_cell_angle_gamma                90
_cell_volume                     3544.43
_chemical_melting_point          90-91deg.C
_cell_formula_units_Z            8
loop_
_atom_site_label
_atom_site_type_symbol
_atom_site_fract_x
_atom_site_fract_y
_atom_site_fract_z
S1 S 0.0737(1) 0.2781(1) 0.3125
S2 S 0.2619(1) 0.3079(1) -0.0649(8)
S3 S 0.3914(1) 0.3535(1) 0.3284(10)
C1 C 0.1654(7) 0.2920(3) 0.2567(27)
C2 C 0.1717(7) 0.2991(4) 0.0001(25)
C3 C 0.2758(4) 0.3592(2) 0.0429(20)
C4 C 0.3055(4) 0.3639(3) 0.3012(23)
C5 C 0.3930(4) 0.3001(3) 0.4251(24)
C6 C 0.0761(4) 0.2250(3) 0.2336(24)
H1 H 0.1931 0.2700 0.3073
H2 H 0.1768 0.3156 0.3530
H3 H 0.1565 0.2764 -0.0960
H4 H 0.1469 0.3225 -0.0471
H5 H 0.2343 0.3728 0.0445
H6 H 0.3042 0.3720 -0.0789
H7 H 0.2987 0.3912 0.3545
H8 H 0.2830 0.3461 0.4158
H9 H 0.3489 0.2911 0.4500
H10 H 0.4167 0.2977 0.5833
H11 H 0.0966 0.2220 0.0755
H12 H 0.0320 0.2159 0.2112
C6M C 0.4239(4) 0.2750(3) 0.2336(24)
C5M C 0.1070(4) 0.1999(3) 0.4251(24)
S1M S 0.4263(1) 0.2219(1) 0.3125
H11M H 0.4034 0.2780 0.0755
H12M H 0.4680 0.2841 0.2112
S3M S 0.1086(1) 0.1465(1) 0.3284(10)
H9M H 0.1511 0.2089 0.4500
H10M H 0.0833 0.2023 0.5833
C1M C 0.3346(7) 0.2080(3) 0.2567(27)
C4M C 0.1945(4) 0.1361(3) 0.3012(23)
C2M C 0.3283(7) 0.2009(4) 0.0001(25)
H1M H 0.3069 0.2300 0.3073
H2M H 0.3232 0.1844 0.3530
C3M C 0.2242(4) 0.1408(2) 0.0429(20)
H7M H 0.2013 0.1088 0.3545
H8M H 0.2170 0.1539 0.4158
S2M S 0.2381(1) 0.1921(1) -0.0649(8)
H3M H 0.3435 0.2236 -0.0960
H4M H 0.3531 0.1775 -0.0471
H5M H 0.2657 0.1272 0.0445
H6M H 0.1958 0.1280 -0.0789
loop_
_geom_bond_atom_site_label_1
_geom_bond_atom_site_label_2
_geom_bond_site_symmetry_1
_geom_bond_site_symmetry_2
S1 C1 1_555 1_555
S2 C2 1_555 1_555
S3 C4 1_555 1_555
C1 C2 1_555 1_555
C2 H3 1_555 1_555
C3 S2 1_555 1_555
C4 C3 1_555 1_555
C5 S3 1_555 1_555
C6 S1 1_555 1_555
H1 C1 1_555 1_555
H2 C1 1_555 1_555
H4 C2 1_555 1_555
H5 C3 1_555 1_555
H6 C3 1_555 1_555
H7 C4 1_555 1_555
H8 C4 1_555 1_555
H9 C5 1_555 1_555
H10 C5 1_555 1_555
H11 C6 1_555 1_555
H12 C6 1_555 1_555
C6M C5 1_555 1_555
C5M C6 1_555 1_555
S1M C6M 1_555 1_555
H11M C6M 1_555 1_555
H12M C6M 1_555 1_555
S3M C5M 1_555 1_555
H9M C5M 1_555 1_555
H10M C5M 1_555 1_555
C1M S1M 1_555 1_555
C4M S3M 1_555 1_555
C2M C1M 1_555 1_555
H1M C1M 1_555 1_555
H2M C1M 1_555 1_555
C3M C4M 1_555 1_555
H7M C4M 1_555 1_555
H8M C4M 1_555 1_555
S2M C2M 1_555 1_555
H3M C2M 1_555 1_555
H4M C2M 1_555 1_555
H5M C3M 1_555 1_555
H6M C3M 1_555 1_555
C3M S2M 1_555 1_555

#END
