
#######################################################################
#
#                 Cambridge Crystallographic Data Centre
#                                CCDC 
#
#######################################################################
#
# If this CIF has been generated from an entry in the Cambridge 
# Structural Database, then it will include bibliographic, chemical, 
# crystal, experimental, refinement or atomic coordinate data resulting 
# from the CCDC's data processing and validation procedures.
#
#######################################################################

data_BOXGAY01
_chemical_name_common            '(-) hopeaphenol'
_chemical_formula_moiety         'C56 H42 O12,H2 O1'
_chemical_name_systematic        
"1,1',7,7'-tetrakis(4-hydroxyphenyl)-1,1',6,6',7,7',11b,11b'-octahydro-6,6'-bi-2-oxadibenzo[cd,h]azulene-4,4',8,8',10,10'-hexol hydrate"
_symmetry_cell_setting           orthorhombic
_symmetry_space_group_name_H-M   'P 21 21 21'
_symmetry_Int_Tables_number      19
_space_group_name_Hall           'P 2ac 2ab'
loop_
_symmetry_equiv_pos_site_id
_symmetry_equiv_pos_as_xyz
1 x,y,z
2 1/2-x,-y,1/2+z
3 1/2+x,1/2-y,-z
4 -x,1/2+y,1/2-z
_cell_length_a                   18.7861(6)
_cell_length_b                   22.2885(7)
_cell_length_c                   11.0953(3)
_cell_angle_alpha                90
_cell_angle_beta                 90
_cell_angle_gamma                90
_cell_volume                     4645.76
_exptl_crystal_colour            colorless
_exptl_crystal_description       block
_cell_formula_units_Z            4
loop_
_atom_site_label
_atom_site_type_symbol
_atom_site_fract_x
_atom_site_fract_y
_atom_site_fract_z
O1 O 0.32552(18) 0.29874(11) 0.5660(2)
O2 O 0.50891(15) 0.55482(11) 0.2198(2)
O3 O 0.51707(15) 0.95181(12) 1.1031(2)
O4 O 0.31844(16) 1.21316(11) 0.7365(2)
O5 O 0.50516(15) 0.69810(12) 0.8255(2)
O6 O 0.19120(14) 0.55552(10) 0.5897(2)
O7 O 0.19826(14) 0.95264(10) 0.7421(2)
O8 O 0.48875(13) 0.78936(11) 0.4873(2)
O9 O 0.41255(15) 0.53201(11) 1.0437(2)
O10 O 0.11515(13) 0.74764(12) 0.4348(2)
O11 O 0.11005(14) 0.76822(11) 0.8996(2)
O12 O 0.39808(14) 0.95209(10) 0.2640(2)
C1 C 0.2701(2) 0.47486(17) 0.6449(4)
C2 C 0.43232(19) 0.64888(16) 0.5177(3)
C3 C 0.4357(2) 0.85630(16) 0.8090(3)
C4 C 0.2765(2) 1.03218(16) 0.6786(4)
C5 C 0.3004(2) 0.45892(17) 0.5361(4)
C6 C 0.3945(2) 0.64912(17) 0.4108(4)
C7 C 0.4869(2) 0.90107(17) 0.7963(3)
C8 C 0.3120(2) 1.05045(17) 0.7822(3)
C9 C 0.3186(3) 0.40033(18) 0.5106(4)
C10 C 0.4185(2) 0.61703(18) 0.3099(4)
C11 C 0.5121(2) 0.93323(18) 0.8937(4)
C12 C 0.3259(2) 1.11083(18) 0.8040(4)
C13 C 0.3063(2) 0.35660(16) 0.5956(4)
C14 C 0.4814(2) 0.58678(17) 0.3149(3)
C15 C 0.4876(2) 0.92061(17) 1.0093(4)
C16 C 0.3051(2) 1.15280(16) 0.7201(4)
C17 C 0.2764(2) 0.37025(17) 0.7055(4)
C18 C 0.5207(2) 0.58707(18) 0.4207(4)
C19 C 0.4368(2) 0.87698(19) 1.0238(4)
C20 C 0.2697(2) 1.13573(17) 0.6178(4)
C21 C 0.2584(2) 0.42914(18) 0.7284(4)
C22 C 0.4960(2) 0.61750(18) 0.5199(3)
C23 C 0.4109(2) 0.84499(18) 0.9244(4)
C24 C 0.2554(2) 1.07551(18) 0.5972(3)
C25 C 0.2508(2) 0.53821(17) 0.6708(3)
C26 C 0.41203(19) 0.68422(16) 0.6310(3)
C27 C 0.41456(19) 0.81909(15) 0.7007(3)
C28 C 0.2564(2) 0.96746(16) 0.6586(3)
C29 C 0.3072(2) 0.58665(16) 0.6505(3)
C30 C 0.34937(19) 0.72864(15) 0.6152(3)
C31 C 0.3515(2) 0.77519(15) 0.7218(3)
C32 C 0.3133(2) 0.91921(15) 0.6811(3)
C33 C 0.3581(2) 0.59733(15) 0.7532(3)
C34 C 0.2779(2) 0.69959(16) 0.5888(3)
C35 C 0.2815(2) 0.80654(16) 0.7518(3)
C36 C 0.3600(2) 0.90441(16) 0.5741(3)
C37 C 0.4074(2) 0.64454(15) 0.7417(3)
C38 C 0.2618(2) 0.63922(16) 0.6088(3)
C39 C 0.2674(2) 0.86732(16) 0.7293(3)
C40 C 0.40632(19) 0.85525(16) 0.5849(3)
C41 C 0.4557(2) 0.65232(17) 0.8358(3)
C42 C 0.1968(2) 0.61689(16) 0.5713(3)
C43 C 0.2032(2) 0.89119(16) 0.7649(4)
C44 C 0.4459(2) 0.84044(17) 0.4822(4)
C45 C 0.4568(2) 0.61483(18) 0.9359(4)
C46 C 0.1449(2) 0.64977(17) 0.5155(4)
C47 C 0.1498(2) 0.86042(17) 0.8213(3)
C48 C 0.4431(2) 0.87293(17) 0.3763(3)
C49 C 0.4083(2) 0.56928(17) 0.9444(4)
C50 C 0.1619(2) 0.70985(16) 0.4954(3)
C51 C 0.1645(2) 0.80030(17) 0.8434(3)
C52 C 0.3989(2) 0.92220(16) 0.3714(3)
C53 C 0.3594(2) 0.55984(16) 0.8536(3)
C54 C 0.2261(2) 0.73391(16) 0.5316(3)
C55 C 0.2282(2) 0.77387(16) 0.8107(3)
C56 C 0.3572(2) 0.93777(15) 0.4696(3)
H1 H 0.30870 0.48910 0.47710
H2 H 0.35160 0.67160 0.40530
H3 H 0.50500 0.90970 0.71830
H4 H 0.32690 1.02120 0.83930
H5 H 0.33930 0.39020 0.43530
H6 H 0.39070 0.61640 0.23820
H7 H 0.54630 0.96400 0.88180
H8 H 0.34930 1.12300 0.87580
H9 H 0.32050 0.27500 0.63130
H10 H 0.47540 0.54810 0.15940
H11 H 0.48840 0.94870 1.16830
H12 H 0.34240 1.21880 0.80530
H13 H 0.26820 0.34000 0.76410
H14 H 0.56480 0.56620 0.42460
H15 H 0.41890 0.86850 1.10210
H16 H 0.25520 1.16510 0.56080
H17 H 0.23740 0.43890 0.80370
H18 H 0.52320 0.61680 0.59210
H19 H 0.37570 0.81510 0.93630
H20 H 0.23060 1.06410 0.52640
H21 H 0.23460 0.54070 0.75190
H22 H 0.45210 0.70920 0.64600
H23 H 0.45430 0.79390 0.68620
H24 H 0.23930 0.96310 0.57860
H25 H 0.33480 0.57440 0.58330
H26 H 0.36070 0.75120 0.54490
H27 H 0.36370 0.75270 0.79150
H28 H 0.34300 0.93260 0.74450
H29 H 0.52100 0.70800 0.89980
H30 H 0.49240 0.77420 0.41230
H31 H 0.49100 0.62090 0.99800
H32 H 0.10060 0.63290 0.49200
H33 H 0.10600 0.87870 0.84350
H34 H 0.47110 0.86170 0.30860
H35 H 0.37540 0.50640 1.04300
H36 H 0.07180 0.73490 0.46150
H37 H 0.13210 0.74510 0.95560
H38 H 0.37240 0.98650 0.27330
H39 H 0.32650 0.52750 0.85940
H40 H 0.23510 0.77530 0.51750
H41 H 0.23600 0.73260 0.82850
H42 H 0.32670 0.97170 0.46490
O13 O 0.49999(18) 0.74477(12) 0.2675(3)
H43 H 0.53610 0.74810 0.21470
H44 H 0.49410 0.71110 0.31070
loop_
_geom_bond_atom_site_label_1
_geom_bond_atom_site_label_2
_geom_bond_site_symmetry_1
_geom_bond_site_symmetry_2
O1 C13 1_555 1_555
O2 C14 1_555 1_555
O3 C15 1_555 1_555
O4 C16 1_555 1_555
O5 C41 1_555 1_555
O6 C25 1_555 1_555
O7 C28 1_555 1_555
O8 C44 1_555 1_555
O9 C49 1_555 1_555
O10 C50 1_555 1_555
O11 C51 1_555 1_555
O12 C52 1_555 1_555
C1 C5 1_555 1_555
C2 C6 1_555 1_555
C3 C7 1_555 1_555
C4 C8 1_555 1_555
C5 C9 1_555 1_555
C6 C10 1_555 1_555
C7 C11 1_555 1_555
C8 C12 1_555 1_555
C9 C13 1_555 1_555
C10 C14 1_555 1_555
C11 C15 1_555 1_555
C12 C16 1_555 1_555
C13 C17 1_555 1_555
C14 C18 1_555 1_555
C15 C19 1_555 1_555
C16 C20 1_555 1_555
C17 C21 1_555 1_555
C18 C22 1_555 1_555
C19 C23 1_555 1_555
C20 C24 1_555 1_555
C21 C1 1_555 1_555
C22 C2 1_555 1_555
C23 C3 1_555 1_555
C24 C4 1_555 1_555
C25 C1 1_555 1_555
C26 C2 1_555 1_555
C27 C3 1_555 1_555
C28 C4 1_555 1_555
C29 C25 1_555 1_555
C30 C26 1_555 1_555
C31 C27 1_555 1_555
C32 C28 1_555 1_555
C33 C29 1_555 1_555
C34 C30 1_555 1_555
C35 C31 1_555 1_555
C36 C32 1_555 1_555
C37 C26 1_555 1_555
C38 C29 1_555 1_555
C39 C32 1_555 1_555
C40 C27 1_555 1_555
C41 C37 1_555 1_555
C42 O6 1_555 1_555
C43 O7 1_555 1_555
C44 C40 1_555 1_555
C45 C41 1_555 1_555
C46 C42 1_555 1_555
C47 C43 1_555 1_555
C48 C44 1_555 1_555
C49 C45 1_555 1_555
C50 C46 1_555 1_555
C51 C47 1_555 1_555
C52 C48 1_555 1_555
C53 C33 1_555 1_555
C54 C34 1_555 1_555
C55 C35 1_555 1_555
C56 C36 1_555 1_555
H1 C5 1_555 1_555
H2 C6 1_555 1_555
H3 C7 1_555 1_555
H4 C8 1_555 1_555
H5 C9 1_555 1_555
H6 C10 1_555 1_555
H7 C11 1_555 1_555
H8 C12 1_555 1_555
H9 O1 1_555 1_555
H10 O2 1_555 1_555
H11 O3 1_555 1_555
H12 O4 1_555 1_555
H13 C17 1_555 1_555
H14 C18 1_555 1_555
H15 C19 1_555 1_555
H16 C20 1_555 1_555
H17 C21 1_555 1_555
H18 C22 1_555 1_555
H19 C23 1_555 1_555
H20 C24 1_555 1_555
H21 C25 1_555 1_555
H22 C26 1_555 1_555
H23 C27 1_555 1_555
H24 C28 1_555 1_555
H25 C29 1_555 1_555
H26 C30 1_555 1_555
H27 C31 1_555 1_555
H28 C32 1_555 1_555
H29 O5 1_555 1_555
H30 O8 1_555 1_555
H31 C45 1_555 1_555
H32 C46 1_555 1_555
H33 C47 1_555 1_555
H34 C48 1_555 1_555
H35 O9 1_555 1_555
H36 O10 1_555 1_555
H37 O11 1_555 1_555
H38 O12 1_555 1_555
H39 C53 1_555 1_555
H40 C54 1_555 1_555
H41 C55 1_555 1_555
H42 C56 1_555 1_555
O13 H43 1_555 1_555
H44 O13 1_555 1_555
C30 C31 1_555 1_555
C33 C37 1_555 1_555
C34 C38 1_555 1_555
C35 C39 1_555 1_555
C36 C40 1_555 1_555
C38 C42 1_555 1_555
C39 C43 1_555 1_555
C49 C53 1_555 1_555
C50 C54 1_555 1_555
C51 C55 1_555 1_555
C52 C56 1_555 1_555

#END
