
#######################################################################
#
#                 Cambridge Crystallographic Data Centre
#                                CCDC 
#
#######################################################################
#
# If this CIF has been generated from an entry in the Cambridge 
# Structural Database, then it will include bibliographic, chemical, 
# crystal, experimental, refinement or atomic coordinate data resulting 
# from the CCDC's data processing and validation procedures.
#
#######################################################################

data_BOZJIK
_chemical_formula_moiety         'C21 H23 N3 O3'
_chemical_name_systematic        
N,N'-Diphenyl-2-(3,4,4-trimethyl-1,3-oxazolidin-2-ylidene)malonamide
_symmetry_cell_setting           monoclinic
_symmetry_space_group_name_H-M   'P 21/n'
_symmetry_Int_Tables_number      14
_space_group_name_Hall           '-P 2yn'
loop_
_symmetry_equiv_pos_site_id
_symmetry_equiv_pos_as_xyz
1 x,y,z
2 1/2-x,1/2+y,1/2-z
3 -x,-y,-z
4 1/2+x,1/2-y,1/2+z
_cell_length_a                   9.779(3)
_cell_length_b                   17.270(5)
_cell_length_c                   11.654(3)
_cell_angle_alpha                90
_cell_angle_beta                 106.239(4)
_cell_angle_gamma                90
_cell_volume                     1889.64
_exptl_crystal_colour            colorless
_exptl_crystal_description       block
_cell_formula_units_Z            4
loop_
_atom_site_label
_atom_site_type_symbol
_atom_site_fract_x
_atom_site_fract_y
_atom_site_fract_z
O1 O 0.53567(19) -0.13303(10) -0.06905(17)
O2 O 0.5370(2) 0.03087(11) -0.31292(16)
O3 O 0.7492(2) 0.07040(10) 0.04830(16)
N1 N 0.7542(2) -0.10546(12) 0.0366(2)
N2 N 0.3850(2) -0.04265(13) -0.24444(19)
H1 H 0.3684 -0.0601 -0.1796
N3 N 0.7063(2) 0.11519(12) -0.14242(19)
H2 H 0.6839 0.0995 -0.2163
C1 C 0.6858(4) -0.1667(2) 0.2041(3)
H3 H 0.7705 -0.1515 0.2660
H4 H 0.6475 -0.2139 0.2280
H5 H 0.6151 -0.1259 0.1926
C2 C 0.8448(3) -0.23801(18) 0.1040(4)
H6 H 0.8661 -0.2456 0.0283
H7 H 0.8172 -0.2870 0.1315
H8 H 0.9286 -0.2183 0.1625
C3 C 0.8954(3) -0.07129(18) 0.0660(3)
H9 H 0.8916 -0.0227 0.0234
H10 H 0.9603 -0.1065 0.0428
H11 H 0.9286 -0.0618 0.1513
C4 C 0.7240(3) -0.18055(15) 0.0878(3)
C5 C 0.5942(3) -0.20454(16) -0.0118(3)
H12 H 0.6216 -0.2389 -0.0686
H13 H 0.5249 -0.2313 0.0206
C6 C 0.6388(3) -0.07859(14) -0.0457(2)
C7 C 0.6170(3) -0.00968(14) -0.1099(2)
C8 C 0.5113(3) -0.00627(14) -0.2297(2)
C9 C 0.2772(3) -0.05580(14) -0.3512(2)
C10 C 0.2944(3) -0.04509(16) -0.4651(2)
H14 H 0.3806 -0.0258 -0.4742
C11 C 0.1834(3) -0.06315(17) -0.5647(3)
H15 H 0.1954 -0.0561 -0.6413
C12 C 0.0558(3) -0.09119(18) -0.5540(3)
H16 H -0.0187 -0.1031 -0.6224
C13 C 0.0387(3) -0.10165(18) -0.4413(3)
H17 H -0.0481 -0.1207 -0.4331
C14 C 0.1478(3) -0.08447(16) -0.3407(3)
H18 H 0.1349 -0.0921 -0.2646
C15 C 0.6975(3) 0.06035(14) -0.0602(2)
C16 C 0.7466(3) 0.19343(14) -0.1246(2)
C17 C 0.7174(4) 0.23918(17) -0.2265(3)
H19 H 0.6721 0.2172 -0.3013
C18 C 0.7542(4) 0.31669(18) -0.2195(3)
H20 H 0.7337 0.3468 -0.2894
C19 C 0.8205(3) 0.35001(17) -0.1113(3)
H21 H 0.8463 0.4026 -0.1067
C20 C 0.8488(3) 0.30508(17) -0.0097(3)
H22 H 0.8933 0.3277 0.0647
C21 C 0.8130(3) 0.22730(16) -0.0146(3)
H23 H 0.8335 0.1976 0.0557
loop_
_geom_bond_atom_site_label_1
_geom_bond_atom_site_label_2
_geom_bond_site_symmetry_1
_geom_bond_site_symmetry_2
O1 C5 1_555 1_555
O2 C8 1_555 1_555
O3 C15 1_555 1_555
N1 C3 1_555 1_555
N2 H1 1_555 1_555
N3 H2 1_555 1_555
C1 H3 1_555 1_555
H4 C1 1_555 1_555
H5 C1 1_555 1_555
C2 H6 1_555 1_555
H7 C2 1_555 1_555
H8 C2 1_555 1_555
C3 H9 1_555 1_555
H10 C3 1_555 1_555
H11 C3 1_555 1_555
C4 N1 1_555 1_555
C5 C4 1_555 1_555
H12 C5 1_555 1_555
H13 C5 1_555 1_555
C6 O1 1_555 1_555
C7 C6 1_555 1_555
C8 N2 1_555 1_555
C9 N2 1_555 1_555
C10 C9 1_555 1_555
H14 C10 1_555 1_555
C11 C10 1_555 1_555
H15 C11 1_555 1_555
C12 C11 1_555 1_555
H16 C12 1_555 1_555
C13 C12 1_555 1_555
H17 C13 1_555 1_555
C14 C9 1_555 1_555
H18 C14 1_555 1_555
C15 N3 1_555 1_555
C16 N3 1_555 1_555
C17 C16 1_555 1_555
H19 C17 1_555 1_555
C18 C17 1_555 1_555
H20 C18 1_555 1_555
C19 C18 1_555 1_555
H21 C19 1_555 1_555
C20 C19 1_555 1_555
H22 C20 1_555 1_555
C21 C16 1_555 1_555
H23 C21 1_555 1_555
N1 C6 1_555 1_555
C1 C4 1_555 1_555
C2 C4 1_555 1_555
C7 C8 1_555 1_555
C7 C15 1_555 1_555
C13 C14 1_555 1_555
C20 C21 1_555 1_555

#END
