
#######################################################################
#
#                 Cambridge Crystallographic Data Centre
#                                CCDC 
#
#######################################################################
#
# If this CIF has been generated from an entry in the Cambridge 
# Structural Database, then it will include bibliographic, chemical, 
# crystal, experimental, refinement or atomic coordinate data resulting 
# from the CCDC's data processing and validation procedures.
#
#######################################################################

data_BOZYUM
_chemical_formula_moiety         'C13 H10 N4 O3,H2 O1'
_chemical_name_systematic        
"N'-(2-Nitrobenzylidene)isonicotinohydrazide monohydrate"
_symmetry_cell_setting           orthorhombic
_symmetry_space_group_name_H-M   'P n a 21'
_symmetry_Int_Tables_number      33
_space_group_name_Hall           'P 2c -2n'
loop_
_symmetry_equiv_pos_site_id
_symmetry_equiv_pos_as_xyz
1 x,y,z
2 -x,-y,1/2+z
3 1/2-x,1/2+y,1/2+z
4 1/2+x,1/2-y,z
_cell_length_a                   15.699(4)
_cell_length_b                   7.1612(17)
_cell_length_c                   11.399(3)
_cell_angle_alpha                90
_cell_angle_beta                 90
_cell_angle_gamma                90
_cell_volume                     1281.52
_exptl_crystal_colour            yellow
_cell_formula_units_Z            4
loop_
_atom_site_label
_atom_site_type_symbol
_atom_site_fract_x
_atom_site_fract_y
_atom_site_fract_z
O1 O -0.32949(18) -0.5324(4) -0.7060(2)
O2 O -0.31648(16) -0.7612(5) -0.0295(2)
N1 N -0.33033(19) -0.6300(4) -0.6187(3)
N2 N -0.02667(19) -0.6054(4) 0.1066(3)
C1 C -0.4098(2) -0.6414(4) -0.5538(3)
N3 N -0.33581(17) -0.6618(4) -0.2543(2)
C2 C -0.3335(2) -0.6157(5) -0.3611(3)
H1 H -0.2836 -0.5691 -0.3939
O3 O -0.27000(17) -0.7197(4) -0.5834(2)
C3 C -0.0248(2) -0.6399(5) -0.0085(3)
H2 H 0.0278 -0.6482 -0.0459
C4 C -0.2590(2) -0.6873(5) -0.0803(3)
C5 C -0.4100(2) -0.6364(5) -0.4322(3)
N4 N -0.26173(17) -0.6319(4) -0.1930(2)
H3 H -0.2185 -0.5795 -0.2256
C6 C -0.1775(2) -0.6168(5) 0.0986(3)
H4 H -0.2291 -0.6098 0.1385
C7 C -0.0974(2) -0.6635(5) -0.0736(3)
H5 H -0.0937 -0.6868 -0.1537
C8 C -0.1757(2) -0.6525(4) -0.0199(3)
C9 C -0.4836(2) -0.6538(5) -0.6199(3)
H6 H -0.4811 -0.6572 -0.7014
C10 C -0.4893(2) -0.6422(5) -0.3775(3)
H7 H -0.4923 -0.6384 -0.2961
C11 C -0.5607(2) -0.6609(5) -0.5626(3)
H8 H -0.6109 -0.6707 -0.6054
C12 C -0.5635(2) -0.6535(6) -0.4417(3)
H9 H -0.6158 -0.6562 -0.4033
C13 C -0.1021(2) -0.5919(5) 0.1569(3)
H10 H -0.1042 -0.5638 0.2365
O4 O -0.35862(14) -0.9243(4) 0.1837(2)
H11 H -0.3359 -0.8735 0.1240
H12 H -0.4120 -0.9346 0.1728
loop_
_geom_bond_atom_site_label_1
_geom_bond_atom_site_label_2
_geom_bond_site_symmetry_1
_geom_bond_site_symmetry_2
O1 N1 1_555 1_555
O2 C4 1_555 1_555
N1 C1 1_555 1_555
N2 C3 1_555 1_555
C1 C5 1_555 1_555
N3 C2 1_555 1_555
C2 H1 1_555 1_555
O3 N1 1_555 1_555
C3 H2 1_555 1_555
C4 N4 1_555 1_555
C5 C2 1_555 1_555
N4 N3 1_555 1_555
H3 N4 1_555 1_555
C6 H4 1_555 1_555
C7 C3 1_555 1_555
H5 C7 1_555 1_555
C8 C4 1_555 1_555
C9 C1 1_555 1_555
H6 C9 1_555 1_555
C10 C5 1_555 1_555
H7 C10 1_555 1_555
C11 C9 1_555 1_555
H8 C11 1_555 1_555
C12 C10 1_555 1_555
H9 C12 1_555 1_555
C13 N2 1_555 1_555
H10 C13 1_555 1_555
O4 H11 1_555 1_555
H12 O4 1_555 1_555
C6 C8 1_555 1_555
C6 C13 1_555 1_555
C7 C8 1_555 1_555
C11 C12 1_555 1_555

#END
