
#######################################################################
#
#                 Cambridge Crystallographic Data Centre
#                                CCDC 
#
#######################################################################
#
# If this CIF has been generated from an entry in the Cambridge 
# Structural Database, then it will include bibliographic, chemical, 
# crystal, experimental, refinement or atomic coordinate data resulting 
# from the CCDC's data processing and validation procedures.
#
#######################################################################

data_BSETCN
_chemical_formula_moiety         'C12 H11 N1 O1 S3'
_chemical_name_systematic        
2-Benzylsulfinyl-2-(1',3'-dithiolan-2'-ylidene)-ethanonitrile
_symmetry_cell_setting           triclinic
_symmetry_space_group_name_H-M   'P -1'
_symmetry_Int_Tables_number      2
_space_group_name_Hall           '-P 1'
loop_
_symmetry_equiv_pos_site_id
_symmetry_equiv_pos_as_xyz
1 x,y,z
2 -x,-y,-z
_cell_length_a                   8.5577(8)
_cell_length_b                   8.7232(9)
_cell_length_c                   10.1999(10)
_cell_angle_alpha                96.17(1)
_cell_angle_beta                 90.55(1)
_cell_angle_gamma                118.90(1)
_cell_volume                     661.083
_exptl_crystal_colour            colorless
_chemical_melting_point          143-4deg.C
_cell_formula_units_Z            2
loop_
_atom_site_label
_atom_site_type_symbol
_atom_site_fract_x
_atom_site_fract_y
_atom_site_fract_z
S1 S 1.13799 0.27905 0.11624
S2 S 0.87816 0.23845 -0.08955
S3 S 0.91618 0.35933 0.33841
O1 O 0.93670 0.53840 0.36650
N1 N 0.52760 0.26000 0.11450
C1 C 1.20890 0.28030 -0.04920
C2 C 1.05870 0.20570 -0.14820
C3 C 0.93480 0.26420 0.07670
C4 C 0.82800 0.28030 0.17010
C5 C 0.65750 0.26190 0.13550
C6 C 0.71900 0.21720 0.41960
C7 C 0.68040 0.02850 0.40390
C8 C 0.55410 -0.09320 0.30870
C9 C 0.51490 -0.26750 0.29700
C10 C 0.60070 -0.32040 0.37960
C11 C 0.72670 -0.20230 0.47200
C12 C 0.76850 -0.02450 0.48650
H1 H 1.25500 0.39900 -0.03300
H2 H 1.25800 0.19700 -0.04900
H3 H 1.07600 0.26500 -0.21000
H4 H 1.00400 0.08100 -0.16900
H5 H 0.75400 0.26000 0.50500
H6 H 0.60800 0.21900 0.37500
H7 H 0.50300 -0.04800 0.24700
H8 H 0.42100 -0.36000 0.21700
H9 H 0.56800 -0.44200 0.35300
H10 H 0.78900 -0.22800 0.53100
H11 H 0.84100 0.05400 0.55500
loop_
_geom_bond_atom_site_label_1
_geom_bond_atom_site_label_2
_geom_bond_site_symmetry_1
_geom_bond_site_symmetry_2
S1 C1 1_555 1_555
S2 C2 1_555 1_555
S3 O1 1_555 1_555
N1 C5 1_555 1_555
C1 C2 1_555 1_555
C2 H3 1_555 1_555
C3 S1 1_555 1_555
C4 S3 1_555 1_555
C5 C4 1_555 1_555
C6 S3 1_555 1_555
C7 C6 1_555 1_555
C8 C7 1_555 1_555
C9 C8 1_555 1_555
C10 C9 1_555 1_555
C11 C10 1_555 1_555
C12 C7 1_555 1_555
H1 C1 1_555 1_555
H2 C1 1_555 1_555
H4 C2 1_555 1_555
H5 C6 1_555 1_555
H6 C6 1_555 1_555
H7 C8 1_555 1_555
H8 C9 1_555 1_555
H9 C10 1_555 1_555
H10 C11 1_555 1_555
H11 C12 1_555 1_555
S2 C3 1_555 1_555
C3 C4 1_555 1_555
C11 C12 1_555 1_555

#END
