
#######################################################################
#
#                 Cambridge Crystallographic Data Centre
#                                CCDC 
#
#######################################################################
#
# If this CIF has been generated from an entry in the Cambridge 
# Structural Database, then it will include bibliographic, chemical, 
# crystal, experimental, refinement or atomic coordinate data resulting 
# from the CCDC's data processing and validation procedures.
#
#######################################################################

data_BTTCDO10
_chemical_formula_moiety         'C26 H28 O2'
_chemical_name_systematic        
3,4:13,14-Dibenzo-6,6,11,11-tetramethyl-1,8,9-cis-tricyclo(7.5.0.0^2,8^)tetradecane-5,12-dione
_symmetry_cell_setting           orthorhombic
_symmetry_space_group_name_H-M   'P n a 21'
_symmetry_Int_Tables_number      33
_space_group_name_Hall           'P 2c -2n'
loop_
_symmetry_equiv_pos_site_id
_symmetry_equiv_pos_as_xyz
1 x,y,z
2 1/2-x,1/2+y,1/2+z
3 1/2+x,1/2-y,z
4 -x,-y,1/2+z
_cell_length_a                   26.648(8)
_cell_length_b                   9.517(3)
_cell_length_c                   7.992(3)
_cell_angle_alpha                90
_cell_angle_beta                 90
_cell_angle_gamma                90
_cell_volume                     2026.84
_cell_formula_units_Z            4
loop_
_atom_site_label
_atom_site_type_symbol
_atom_site_fract_x
_atom_site_fract_y
_atom_site_fract_z
O1 O 0.72400 0.02730 0.29080
O2 O 1.01080 0.34320 0.68360
C1 C 0.86270 0.21020 0.29070
C2 C 0.86040 0.07520 0.40090
C3 C 0.84900 -0.05940 0.30770
C4 C 0.80290 -0.06740 0.22540
C5 C 0.76500 0.05190 0.22890
C6 C 0.77680 0.19430 0.14890
C7 C 0.81400 0.28270 0.25570
C8 C 0.91240 0.11550 0.47140
C9 C 0.90170 0.27200 0.41820
C10 C 0.88370 0.36160 0.56010
C11 C 0.92580 0.42450 0.66900
C12 C 0.96700 0.31580 0.69550
C13 C 0.95170 0.17300 0.75240
C14 C 0.92450 0.07960 0.65110
C15 C 0.79740 0.16440 -0.02580
C16 C 0.72760 0.27770 0.13640
C17 C 0.94840 0.55420 0.58170
C18 C 0.90600 0.46510 0.84150
C19 C 0.88080 -0.17200 0.30310
C20 C 0.86760 -0.29230 0.21860
C21 C 0.82190 -0.30350 0.13680
C22 C 0.78940 -0.19010 0.14530
C23 C 0.96640 0.12820 0.91240
C24 C 0.95240 -0.00070 0.97390
C25 C 0.92430 -0.08870 0.87700
C26 C 0.91000 -0.04940 0.71450
H1 H 0.88500 0.17500 0.16700
H2 H 0.83500 0.09000 0.48300
H3 H 0.82300 0.38000 0.18300
H4 H 0.79800 0.29900 0.37600
H5 H 0.93800 0.08100 0.39900
H6 H 0.92800 0.32800 0.34500
H7 H 0.85800 0.30800 0.62800
H8 H 0.86300 0.43300 0.51700
H9 H 0.77400 0.11800 -0.09000
H10 H 0.83800 0.10900 -0.03200
H11 H 0.81000 0.24300 -0.08700
H12 H 0.71000 0.30500 0.23800
H13 H 0.70300 0.23000 0.07100
H14 H 0.73700 0.35900 0.07900
H15 H 0.96500 0.52200 0.47700
H16 H 0.97700 0.58600 0.65500
H17 H 0.92200 0.62000 0.59100
H18 H 0.93300 0.50400 0.91100
H19 H 0.89100 0.38000 0.89700
H20 H 0.88200 0.51900 0.81400
H21 H 0.91400 -0.16900 0.35700
H22 H 0.88800 -0.36200 0.20800
H23 H 0.81000 -0.37600 0.07100
H24 H 0.75600 -0.20300 0.09200
H25 H 0.98500 0.18200 0.98600
H26 H 0.96200 -0.02300 1.08800
H27 H 0.91100 -0.18200 0.91300
H28 H 0.88800 -0.12200 0.63600
loop_
_geom_bond_atom_site_label_1
_geom_bond_atom_site_label_2
_geom_bond_site_symmetry_1
_geom_bond_site_symmetry_2
O1 C5 1_555 1_555
O2 C12 1_555 1_555
C1 C2 1_555 1_555
C2 C3 1_555 1_555
C3 C4 1_555 1_555
C4 C5 1_555 1_555
C5 C6 1_555 1_555
C6 C7 1_555 1_555
C7 C1 1_555 1_555
C8 C2 1_555 1_555
C9 C1 1_555 1_555
C10 C9 1_555 1_555
C11 C10 1_555 1_555
C12 C11 1_555 1_555
C13 C12 1_555 1_555
C14 C8 1_555 1_555
C15 C6 1_555 1_555
C16 C6 1_555 1_555
C17 C11 1_555 1_555
C18 C11 1_555 1_555
C19 C3 1_555 1_555
C20 C19 1_555 1_555
C21 C20 1_555 1_555
C22 C4 1_555 1_555
C23 C13 1_555 1_555
C24 C23 1_555 1_555
C25 C24 1_555 1_555
C26 C14 1_555 1_555
H1 C1 1_555 1_555
H2 C2 1_555 1_555
H3 C7 1_555 1_555
H4 C7 1_555 1_555
H5 C8 1_555 1_555
H6 C9 1_555 1_555
H7 C10 1_555 1_555
H8 C10 1_555 1_555
H9 C15 1_555 1_555
H10 C15 1_555 1_555
H11 C15 1_555 1_555
H12 C16 1_555 1_555
H13 C16 1_555 1_555
H14 C16 1_555 1_555
H15 C17 1_555 1_555
H16 C17 1_555 1_555
H17 C17 1_555 1_555
H18 C18 1_555 1_555
H19 C18 1_555 1_555
H20 C18 1_555 1_555
H21 C19 1_555 1_555
H22 C20 1_555 1_555
H23 C21 1_555 1_555
H24 C22 1_555 1_555
H25 C23 1_555 1_555
H26 C24 1_555 1_555
H27 C25 1_555 1_555
H28 C26 1_555 1_555
C8 C9 1_555 1_555
C13 C14 1_555 1_555
C21 C22 1_555 1_555
C25 C26 1_555 1_555

#END
