
#######################################################################
#
#                 Cambridge Crystallographic Data Centre
#                                CCDC 
#
#######################################################################
#
# If this CIF has been generated from an entry in the Cambridge 
# Structural Database, then it will include bibliographic, chemical, 
# crystal, experimental, refinement or atomic coordinate data resulting 
# from the CCDC's data processing and validation procedures.
#
#######################################################################

data_BUBXUR
_chemical_formula_moiety         'C23 H30 O6'
_chemical_name_systematic        
3-Hydroxy-9,10-dimethyl-4,5,14,15,16-pentamethoxy-tricyclo(10.4.0.0^2,7^)hexadeca-2,4,6,12,14,16-hexaene
_symmetry_cell_setting           orthorhombic
_symmetry_space_group_name_H-M   'P 21 21 21'
_symmetry_Int_Tables_number      19
_space_group_name_Hall           'P 2ac 2ab'
loop_
_symmetry_equiv_pos_site_id
_symmetry_equiv_pos_as_xyz
1 x,y,z
2 1/2+x,1/2-y,-z
3 -x,1/2+y,1/2-z
4 1/2-x,-y,1/2+z
_cell_length_a                   14.673(7)
_cell_length_b                   12.865(6)
_cell_length_c                   11.480(5)
_cell_angle_alpha                90
_cell_angle_beta                 90
_cell_angle_gamma                90
_cell_volume                     2167.06
_cell_formula_units_Z            4
loop_
_atom_site_label
_atom_site_type_symbol
_atom_site_fract_x
_atom_site_fract_y
_atom_site_fract_z
O1 O 0.37540 0.19550 1.12380
O2 O 0.22460 0.09150 1.07080
O3 O 0.13090 0.12810 0.86270
O4 O 0.24950 0.10200 0.64960
O5 O 0.15070 0.09400 0.44800
O6 O 0.04610 0.26090 0.38380
C1 C 0.19540 0.18480 0.62170
C2 C 0.14270 0.18370 0.51760
C3 C 0.09300 0.27120 0.48740
C4 C 0.09500 0.35890 0.55770
C5 C 0.13170 0.45720 0.73520
C6 C 0.20220 0.49330 0.82420
C7 C 0.30410 0.50710 0.77810
C8 C 0.35160 0.39960 0.75400
C9 C 0.36870 0.29520 0.94010
C10 C 0.33520 0.21930 1.01770
C11 C 0.25630 0.16470 0.99390
C12 C 0.21090 0.18260 0.88890
C13 C 0.19080 0.27250 0.69770
C14 C 0.14320 0.35990 0.66420
C15 C 0.32030 0.31200 0.83680
C16 C 0.23910 0.25800 0.80920
C17 C 0.07060 0.02980 0.44940
C18 C -0.02750 0.33410 0.36450
C19 C 0.17150 0.59870 0.87430
C20 C 0.31490 0.57180 0.66890
C21 C 0.46210 0.24440 1.14580
C22 C 0.15890 0.12880 1.15720
C23 C 0.13750 0.01280 0.85940
H1 H 0.25860 0.05250 0.58190
H2 H 0.07250 0.45160 0.78050
H3 H 0.13320 0.50140 0.67330
H4 H 0.34500 0.52390 0.85280
H5 H 0.32360 0.37310 0.67070
H6 H 0.42220 0.41650 0.75780
H7 H 0.42700 0.33420 0.94950
H8 H 0.04650 0.00190 0.38680
H9 H 0.07310 -0.02610 0.51310
H10 H -0.06560 0.30340 0.29700
H11 H -0.05600 0.34670 0.42070
H12 H 0.00340 0.40110 0.32140
H13 H 0.14280 0.57130 0.94160
H14 H 0.12370 0.62880 0.81880
H15 H 0.22610 0.63730 0.89720
H16 H 0.26640 0.61800 0.64550
H17 H 0.36210 0.60630 0.69690
H18 H 0.45770 0.22150 1.21950
H19 H 0.51240 0.21760 1.10630
H20 H 0.19470 0.16320 1.21080
H21 H 0.12640 0.17100 1.09870
H22 H 0.12980 0.08160 1.18990
H23 H 0.20150 -0.01170 0.83100
H24 H 0.12300 -0.03500 0.93030
H25 H 0.11070 -0.01550 0.80310
loop_
_geom_bond_atom_site_label_1
_geom_bond_atom_site_label_2
_geom_bond_site_symmetry_1
_geom_bond_site_symmetry_2
O1 C10 1_555 1_555
O2 C11 1_555 1_555
O3 C12 1_555 1_555
O4 C1 1_555 1_555
O5 C2 1_555 1_555
O6 C3 1_555 1_555
C1 C2 1_555 1_555
C2 C3 1_555 1_555
C3 C4 1_555 1_555
C4 C14 1_555 1_555
C5 C6 1_555 1_555
C6 C7 1_555 1_555
C7 C8 1_555 1_555
C8 C15 1_555 1_555
C9 C10 1_555 1_555
C10 C11 1_555 1_555
C11 C12 1_555 1_555
C12 C16 1_555 1_555
C13 C1 1_555 1_555
C14 C5 1_555 1_555
C15 C9 1_555 1_555
C16 C13 1_555 1_555
C17 O5 1_555 1_555
C18 O6 1_555 1_555
C19 C6 1_555 1_555
C20 C7 1_555 1_555
C21 O1 1_555 1_555
C22 O2 1_555 1_555
C23 O3 1_555 1_555
H1 O4 1_555 1_555
H2 C5 1_555 1_555
H3 C5 1_555 1_555
H4 C7 1_555 1_555
H5 C8 1_555 1_555
H6 C8 1_555 1_555
H7 C9 1_555 1_555
H8 C17 1_555 1_555
H9 C17 1_555 1_555
H10 C18 1_555 1_555
H11 C18 1_555 1_555
H12 C18 1_555 1_555
H13 C19 1_555 1_555
H14 C19 1_555 1_555
H15 C19 1_555 1_555
H16 C20 1_555 1_555
H17 C20 1_555 1_555
H18 C21 1_555 1_555
H19 C21 1_555 1_555
H20 C22 1_555 1_555
H21 C22 1_555 1_555
H22 C22 1_555 1_555
H23 C23 1_555 1_555
H24 C23 1_555 1_555
H25 C23 1_555 1_555
C13 C14 1_555 1_555
C15 C16 1_555 1_555

#END
