
#######################################################################
#
#                 Cambridge Crystallographic Data Centre
#                                CCDC 
#
#######################################################################
#
# If this CIF has been generated from an entry in the Cambridge 
# Structural Database, then it will include bibliographic, chemical, 
# crystal, experimental, refinement or atomic coordinate data resulting 
# from the CCDC's data processing and validation procedures.
#
#######################################################################

data_BUBYEC
_chemical_formula_moiety         'C21 H21 N1 O1'
_chemical_name_systematic        
(3aR*,7R*,7aS*)-N-Benzyl-2-oxo-7-phenyl-2,3,3a,6,7,7a-hexahydroindole
_symmetry_cell_setting           triclinic
_symmetry_space_group_name_H-M   'P -1'
_symmetry_Int_Tables_number      2
_space_group_name_Hall           '-P 1'
loop_
_symmetry_equiv_pos_site_id
_symmetry_equiv_pos_as_xyz
1 x,y,z
2 -x,-y,-z
_cell_length_a                   9.415(4)
_cell_length_b                   11.815(4)
_cell_length_c                   8.858(2)
_cell_angle_alpha                96.85(2)
_cell_angle_beta                 107.55(3)
_cell_angle_gamma                114.66(2)
_cell_volume                     818.939
_exptl_crystal_colour            colorless
_chemical_melting_point          130-1deg.C
_cell_formula_units_Z            2
loop_
_atom_site_label
_atom_site_type_symbol
_atom_site_fract_x
_atom_site_fract_y
_atom_site_fract_z
N1 N 0.38440 0.23210 0.18350
C1 C 0.23130 0.14340 0.17990
C2 C 0.24520 0.02360 0.21100
C3 C 0.43640 0.07400 0.28190
C4 C 0.51410 -0.01300 0.27240
C5 C 0.66290 0.03160 0.25800
C6 C 0.76250 0.16670 0.24560
C7 C 0.68960 0.26080 0.27010
C8 C 0.49640 0.17440 0.18990
C9 C 0.75630 0.33890 0.44870
C10 C 0.78100 0.46530 0.48550
C11 C 0.83840 0.53780 0.64780
C12 C 0.87750 0.48570 0.77640
C13 C 0.85670 0.36110 0.74290
C14 C 0.79620 0.28810 0.58010
C15 C 0.39900 0.34050 0.11290
C16 C 0.34870 0.30230 -0.07250
C17 C 0.17810 0.22820 -0.17700
C18 C 0.12980 0.19110 -0.34680
C19 C 0.25090 0.22940 -0.41450
C20 C 0.42070 0.30250 -0.31240
C21 C 0.46960 0.33810 -0.14150
O1 O 0.10660 0.15950 0.15440
H1 H 0.18900 -0.01000 0.28500
H2 H 0.18900 -0.04000 0.10500
H3 H 0.47800 0.12200 0.39600
H4 H 0.45300 -0.10100 0.27900
H5 H 0.71200 -0.02400 0.24800
H6 H 0.88200 0.20800 0.32400
H7 H 0.77000 0.15900 0.13700
H8 H 0.72500 0.32500 0.20800
H9 H 0.47100 0.12700 0.07600
H10 H 0.75500 0.50500 0.39700
H11 H 0.85100 0.62000 0.67000
H12 H 0.91600 0.53500 0.88900
H13 H 0.88200 0.32100 0.83100
H14 H 0.78100 0.20000 0.55700
H15 H 0.51800 0.41100 0.16700
H16 H 0.32100 0.36900 0.13800
H17 H 0.09300 0.20300 -0.12900
H18 H 0.01100 0.14100 -0.41800
H19 H 0.21700 0.20600 -0.53200
H20 H 0.51200 0.33200 -0.35300
H21 H 0.58600 0.38800 -0.06900
loop_
_geom_bond_atom_site_label_1
_geom_bond_atom_site_label_2
_geom_bond_site_symmetry_1
_geom_bond_site_symmetry_2
N1 C1 1_555 1_555
C1 C2 1_555 1_555
C2 C3 1_555 1_555
C3 C4 1_555 1_555
C4 C5 1_555 1_555
C5 C6 1_555 1_555
C6 C7 1_555 1_555
C7 C8 1_555 1_555
C8 N1 1_555 1_555
C9 C7 1_555 1_555
C10 C9 1_555 1_555
C11 C10 1_555 1_555
C12 C11 1_555 1_555
C13 C12 1_555 1_555
C14 C9 1_555 1_555
C15 N1 1_555 1_555
C16 C15 1_555 1_555
C17 C16 1_555 1_555
C18 C17 1_555 1_555
C19 C18 1_555 1_555
C20 C19 1_555 1_555
C21 C16 1_555 1_555
O1 C1 1_555 1_555
H1 C2 1_555 1_555
H2 C2 1_555 1_555
H3 C3 1_555 1_555
H4 C4 1_555 1_555
H5 C5 1_555 1_555
H6 C6 1_555 1_555
H7 C6 1_555 1_555
H8 C7 1_555 1_555
H9 C8 1_555 1_555
H10 C10 1_555 1_555
H11 C11 1_555 1_555
H12 C12 1_555 1_555
H13 C13 1_555 1_555
H14 C14 1_555 1_555
H15 C15 1_555 1_555
H16 C15 1_555 1_555
H17 C17 1_555 1_555
H18 C18 1_555 1_555
H19 C19 1_555 1_555
H20 C20 1_555 1_555
H21 C21 1_555 1_555
C3 C8 1_555 1_555
C13 C14 1_555 1_555
C20 C21 1_555 1_555

#END
