
#######################################################################
#
#                 Cambridge Crystallographic Data Centre
#                                CCDC 
#
#######################################################################
#
# If this CIF has been generated from an entry in the Cambridge 
# Structural Database, then it will include bibliographic, chemical, 
# crystal, experimental, refinement or atomic coordinate data resulting 
# from the CCDC's data processing and validation procedures.
#
#######################################################################

data_BUCZOQ
_chemical_formula_moiety         'C16 H36 N1 1+,C20 H13 O2 1-'
_chemical_name_systematic        
"tetra-n-butylammonium 2'-hydroxy-1,1'-binaphthalen-2-olate"
_symmetry_cell_setting           trigonal
_symmetry_space_group_name_H-M   'P 32'
_symmetry_Int_Tables_number      145
_space_group_name_Hall           'P 32'
loop_
_symmetry_equiv_pos_site_id
_symmetry_equiv_pos_as_xyz
1 x,y,z
2 -y,x-y,2/3+z
3 -x+y,-x,1/3+z
_cell_length_a                   16.34060(10)
_cell_length_b                   16.34060(10)
_cell_length_c                   29.7811(2)
_cell_angle_alpha                90
_cell_angle_beta                 90
_cell_angle_gamma                120
_cell_volume                     6886.64
_exptl_crystal_colour            yellowish
_exptl_crystal_description       plate
_cell_formula_units_Z            9
loop_
_atom_site_label
_atom_site_type_symbol
_atom_site_fract_x
_atom_site_fract_y
_atom_site_fract_z
O1 O 0.0565(3) 0.3033(3) 0.43720(15)
O2 O 0.0349(3) 0.3779(3) 0.36890(15)
C1 C 0.1106(4) 0.3852(4) 0.4585(2)
C2 C 0.0993(5) 0.3884(5) 0.5063(2)
C3 C 0.1460(4) 0.4714(5) 0.5294(2)
C4 C 0.2073(4) 0.5583(4) 0.50692(18)
C5 C 0.2511(4) 0.6464(5) 0.5290(2)
C6 C 0.3025(4) 0.7279(5) 0.5069(2)
C7 C 0.3142(4) 0.7270(4) 0.4602(2)
C8 C 0.2759(3) 0.6418(4) 0.43751(17)
C9 C 0.2208(3) 0.5542(4) 0.45944(17)
C10 C 0.1772(3) 0.4663(3) 0.43594(17)
C11 C 0.1982(4) 0.4602(3) 0.38765(17)
C12 C 0.1249(4) 0.4192(3) 0.35675(18)
C13 C 0.1475(5) 0.4206(4) 0.30994(19)
C14 C 0.2344(5) 0.4501(4) 0.29607(19)
C15 C 0.3125(4) 0.4842(4) 0.32714(18)
C16 C 0.4039(4) 0.5095(4) 0.3130(2)
C17 C 0.4774(4) 0.5418(4) 0.3426(2)
C18 C 0.4600(4) 0.5465(4) 0.3893(2)
C19 C 0.3720(4) 0.5233(3) 0.40309(19)
C20 C 0.2936(4) 0.4903(3) 0.37337(17)
H1 H 0.0181 0.3341 0.3882
H2 H 0.0587 0.3326 0.5218
H3 H 0.1383 0.4730 0.5609
H4 H 0.2429 0.6478 0.5606
H5 H 0.3312 0.7861 0.5224
H6 H 0.3490 0.7841 0.4448
H7 H 0.2839 0.6413 0.4063
H8 H 0.0984 0.4000 0.2887
H9 H 0.2470 0.4500 0.2645
H10 H 0.4149 0.5053 0.2821
H11 H 0.5382 0.5595 0.3326
H12 H 0.5093 0.5668 0.4101
H13 H 0.3611 0.5287 0.4339
O3 O 0.4534(3) 0.9651(3) 0.47532(17)
O4 O 0.3789(3) 0.9874(3) 0.40790(18)
C21 C 0.4983(4) 1.0556(4) 0.4877(2)
C22 C 0.5031(4) 1.0747(5) 0.5339(2)
C23 C 0.5397(5) 1.1654(6) 0.5494(2)
C24 C 0.5726(4) 1.2413(5) 0.5187(2)
C25 C 0.6054(4) 1.3350(5) 0.5337(2)
C26 C 0.6334(4) 1.4086(5) 0.5035(2)
C27 C 0.6300(4) 1.3911(4) 0.4581(2)
C28 C 0.6019(3) 1.3013(4) 0.44230(18)
C29 C 0.5727(3) 1.2230(4) 0.47178(18)
C30 C 0.5387(3) 1.1290(4) 0.45643(17)
C31 C 0.5402(4) 1.1069(4) 0.40772(18)
C32 C 0.4581(4) 1.0399(4) 0.3859(2)
C33 C 0.4599(5) 1.0279(4) 0.3383(2)
C34 C 0.5389(5) 1.0733(5) 0.3144(2)
C35 C 0.6281(5) 1.1347(4) 0.3358(2)
C36 C 0.7155(5) 1.1765(4) 0.3118(2)
C37 C 0.7999(5) 1.2297(5) 0.3332(2)
C38 C 0.7997(4) 1.2406(4) 0.3802(2)
C39 C 0.7177(4) 1.2052(3) 0.40400(18)
C40 C 0.6276(4) 1.1497(4) 0.38288(19)
H14 H 0.4050 0.9562 0.4606
H15 H 0.4780 1.0228 0.5541
H16 H 0.5428 1.1765 0.5808
H17 H 0.6065 1.3460 0.5648
H18 H 0.6537 1.4702 0.5141
H19 H 0.6479 1.4409 0.4379
H20 H 0.6015 1.2910 0.4110
H21 H 0.4032 0.9862 0.3244
H22 H 0.5360 1.0647 0.2830
H23 H 0.7130 1.1664 0.2807
H24 H 0.8561 1.2591 0.3173
H25 H 0.8588 1.2733 0.3962
H26 H 0.7196 1.2167 0.4356
O5 O 0.7744(3) 0.6501(3) 0.44249(15)
O6 O 0.7245(3) 0.7076(3) 0.37847(17)
C41 C 0.8298(4) 0.7344(4) 0.4613(2)
C42 C 0.8330(4) 0.7402(4) 0.50858(19)
C43 C 0.8824(4) 0.8246(4) 0.53053(19)
C44 C 0.9299(4) 0.9104(4) 0.50590(18)
C45 C 0.9759(4) 0.9997(4) 0.5279(2)
C46 C 1.0142(4) 1.0808(4) 0.5044(2)
C47 C 1.0107(3) 1.0792(4) 0.45678(19)
C48 C 0.9709(3) 0.9930(3) 0.43462(18)
C49 C 0.9299(3) 0.9056(4) 0.45805(16)
C50 C 0.8846(3) 0.8162(3) 0.43561(18)
C51 C 0.8912(3) 0.8091(3) 0.38625(18)
C52 C 0.8090(4) 0.7570(4) 0.3602(2)
C53 C 0.8171(5) 0.7568(5) 0.3119(2)
C54 C 0.9005(6) 0.8005(5) 0.2917(2)
C55 C 0.9873(5) 0.8473(4) 0.31627(19)
C56 C 1.0766(5) 0.8862(4) 0.2949(2)
C57 C 1.1580(5) 0.9258(4) 0.3193(2)
C58 C 1.1545(4) 0.9272(4) 0.3664(2)
C59 C 1.0696(3) 0.8921(3) 0.38808(18)
C60 C 0.9821(4) 0.8512(3) 0.36441(16)
H27 H 0.7239 0.6657 0.3956
H28 H 0.7996 0.6834 0.5252
H29 H 0.8842 0.8277 0.5623
H30 H 0.9772 0.9992 0.5601
H31 H 1.0428 1.1395 0.5192
H32 H 1.0357 1.1356 0.4402
H33 H 0.9713 0.9926 0.4023
H34 H 0.7606 0.7245 0.2951
H35 H 0.9026 0.8000 0.2602
H36 H 1.0790 0.8853 0.2628
H37 H 1.2157 0.9513 0.3042
H38 H 1.2107 0.9519 0.3837
H39 H 1.0686 0.8956 0.4195
N1 N 0.3098(3) 0.2265(3) 0.42020(16)
C61 C 0.2435(4) 0.2470(4) 0.3944(2)
C62 C 0.1881(4) 0.1752(4) 0.3581(2)
C63 C 0.1132(5) 0.1938(5) 0.3371(2)
C64 C 0.0699(5) 0.1314(5) 0.2970(2)
C65 C 0.3721(4) 0.3099(4) 0.4498(2)
C66 C 0.3236(4) 0.3349(4) 0.4861(2)
C67 C 0.3971(5) 0.4124(5) 0.5161(2)
C68 C 0.3558(6) 0.4498(6) 0.5509(2)
C69 C 0.3723(4) 0.2078(4) 0.3893(2)
C70 C 0.4319(4) 0.2882(4) 0.3570(2)
C71 C 0.4764(4) 0.2572(4) 0.3205(2)
C72 C 0.4080(5) 0.1918(6) 0.2853(2)
C73 C 0.2512(4) 0.1381(4) 0.44938(19)
C74 C 0.3026(4) 0.1129(4) 0.4833(2)
C75 C 0.2302(5) 0.0246(5) 0.5082(2)
C76 C 0.2651(5) -0.0076(5) 0.5455(2)
H40 H 0.2799 0.3104 0.3805
H41 H 0.1969 0.2444 0.4159
H42 H 0.2318 0.1776 0.3343
H43 H 0.1567 0.1122 0.3713
H44 H 0.1434 0.2596 0.3275
H45 H 0.0635 0.1801 0.3595
H46 H 0.0200 0.1408 0.2845
H47 H 0.1178 0.1462 0.2741
H48 H 0.0428 0.0655 0.3059
H49 H 0.4041 0.3640 0.4300
H50 H 0.4174 0.2955 0.4645
H51 H 0.2854 0.3574 0.4719
H52 H 0.2823 0.2792 0.5035
H53 H 0.4428 0.4658 0.4978
H54 H 0.4300 0.3851 0.5325
H55 H 0.4052 0.5065 0.5653
H56 H 0.3114 0.4638 0.5352
H57 H 0.3222 0.4014 0.5736
H58 H 0.3296 0.1514 0.3715
H59 H 0.4144 0.1947 0.4084
H60 H 0.3893 0.3068 0.3429
H61 H 0.4819 0.3419 0.3736
H62 H 0.5234 0.3147 0.3054
H63 H 0.5070 0.2257 0.3356
H64 H 0.4399 0.1710 0.2642
H65 H 0.3849 0.2274 0.2689
H66 H 0.3562 0.1380 0.3004
H67 H 0.2237 0.0848 0.4281
H68 H 0.1996 0.1438 0.4647
H69 H 0.3481 0.1008 0.4682
H70 H 0.3358 0.1645 0.5046
H71 H 0.2054 -0.0261 0.4862
H72 H 0.1795 0.0356 0.5186
H73 H 0.2147 -0.0685 0.5575
H74 H 0.3198 -0.0121 0.5347
H75 H 0.2850 0.0425 0.5682
N2 N 0.6505(3) 0.8985(3) 0.42727(16)
C77 C 0.5633(4) 0.8841(4) 0.40214(19)
C78 C 0.5154(5) 0.7973(5) 0.3733(3)
C79 C 0.4467(5) 0.8083(5) 0.3399(2)
C80 C 0.4044(5) 0.7317(5) 0.3055(2)
C81 C 0.6826(4) 0.9862(4) 0.4558(2)
C82 C 0.7690(4) 1.0132(4) 0.4856(2)
C83 C 0.8102(5) 1.1127(5) 0.5039(2)
C84 C 0.7469(6) 1.1251(7) 0.5358(3)
C85 C 0.7273(4) 0.9122(4) 0.3933(2)
C86 C 0.6306(4) 0.8132(4) 0.4555(2)
C87 C 0.5561(5) 0.7909(5) 0.4922(3)
C88 C 0.5237(5) 0.6955(5) 0.5138(3)
C89 C 0.5976(6) 0.6916(8) 0.5408(4)
C90 C 0.7774(8) 1.0094(6) 0.3725(4)
C91 C 0.8314(8) 1.0109(9) 0.3316(4)
C92 C 0.7710(10) 0.9559(10) 0.2923(5)
H76 H 0.5846 0.9382 0.3824
H77 H 0.5191 0.8821 0.4245
H78 H 0.5631 0.7916 0.3560
H79 H 0.4804 0.7409 0.3917
H80 H 0.4821 0.8692 0.3243
H81 H 0.3950 0.8069 0.3577
H82 H 0.3687 0.7464 0.2832
H83 H 0.4557 0.7282 0.2906
H84 H 0.3636 0.6717 0.3206
H85 H 0.6983 1.0401 0.4359
H86 H 0.6306 0.9751 0.4764
H87 H 0.8165 1.0076 0.4673
H88 H 0.7483 0.9674 0.5102
H89 H 0.8213 1.1550 0.4785
H90 H 0.8705 1.1291 0.5194
H91 H 0.7776 1.1850 0.5516
H92 H 0.6917 1.1186 0.5206
H93 H 0.7253 1.0741 0.5582
H94 H 0.6083 0.7583 0.4362
H95 H 0.6897 0.8260 0.4704
H96 H 0.5019 0.7921 0.4787
H97 H 0.5845 0.8395 0.5146
H98 H 0.5097 0.6497 0.4894
H99 H 0.4677 0.6784 0.5325
H100 H 0.5693 0.6384 0.5611
H101 H 0.6403 0.6852 0.5205
H102 H 0.6306 0.7507 0.5577
H103 H 0.6977 0.8659 0.3692
H104 H 0.7741 0.9016 0.4088
H105 H 0.7312 1.0282 0.3646
H106 H 0.8220 1.0547 0.3948
H107 H 0.8704 1.0771 0.3224
H108 H 0.8717 0.9852 0.3399
H109 H 0.8126 0.9610 0.2673
H110 H 0.7309 0.9812 0.2834
H111 H 0.7322 0.8893 0.3009
N3 N 0.9718(3) 0.5777(3) 0.40662(15)
C96 C 0.8857(4) 0.5581(4) 0.37971(19)
C97 C 0.8531(4) 0.4788(4) 0.3451(2)
C98 C 0.7492(5) 0.4339(5) 0.3341(3)
C99 C 0.7215(7) 0.5018(6) 0.3177(3)
C100 C 0.9931(4) 0.6611(4) 0.43715(18)
C101 C 1.0858(4) 0.7049(4) 0.4622(2)
C102 C 1.0846(5) 0.7602(4) 0.5029(2)
C103 C 1.0258(5) 0.7012(5) 0.5410(2)
C104 C 1.0547(4) 0.5997(4) 0.37632(19)
C105 C 1.0877(6) 0.6858(5) 0.3465(3)
C106 C 1.1649(5) 0.6946(5) 0.3148(2)
C107 C 1.1273(6) 0.6262(5) 0.2756(3)
C108 C 0.9536(4) 0.4926(3) 0.43531(19)
C109 C 0.8598(4) 0.4450(4) 0.4596(2)
C110 C 0.8581(5) 0.3781(5) 0.4958(2)
C111 C 0.9029(6) 0.4277(5) 0.5394(2)
H121 H 0.8997 0.6172 0.3645
H122 H 0.8328 0.5364 0.4005
H123 H 0.8918 0.5047 0.3177
H124 H 0.8641 0.4300 0.3578
H125 H 0.7334 0.3876 0.3100
H126 H 0.7134 0.4033 0.3619
H127 H 0.6548 0.4685 0.3090
H128 H 0.7626 0.5357 0.2924
H129 H 0.7330 0.5450 0.3425
H130 H 0.9906 0.7095 0.4181
H131 H 0.9428 0.6389 0.4598
H132 H 1.1361 0.7486 0.4422
H133 H 1.0980 0.6546 0.4718
H134 H 1.0609 0.8021 0.4942
H135 H 1.1499 0.7974 0.5134
H136 H 1.0245 0.7432 0.5641
H137 H 0.9622 0.6588 0.5301
H138 H 1.0535 0.6656 0.5533
H139 H 1.0324 0.5443 0.3571
H140 H 1.1088 0.6100 0.3948
H141 H 1.0331 0.6770 0.3286
H142 H 1.1122 0.7438 0.3647
H143 H 1.2007 0.7594 0.3030
H144 H 1.2061 0.6794 0.3324
H145 H 1.1790 0.6303 0.2579
H146 H 1.0881 0.6398 0.2562
H147 H 1.0904 0.5631 0.2880
H148 H 0.9567 0.4464 0.4157
H149 H 1.0035 0.5159 0.4581
H150 H 0.8079 0.4121 0.4376
H151 H 0.8512 0.4933 0.4753
H152 H 0.8938 0.3484 0.4838
H153 H 0.7923 0.3290 0.5015
H154 H 0.8917 0.3835 0.5634
H155 H 0.9708 0.4686 0.5352
H156 H 0.8761 0.4653 0.5485
C93? C 0.7385(12) 0.9736(12) 0.3526(4)
C94? C 0.8052(14) 0.9706(15) 0.3187(6)
C95? C 0.8126(13) 1.0197(15) 0.2751(5)
H112? H 0.7119 0.8499 0.3821
H113? H 0.7878 0.9407 0.4094
H114? H 0.6777 0.9527 0.3390
H115? H 0.7654 1.0400 0.3631
H116? H 0.7835 0.9044 0.3122
H117? H 0.8687 1.0002 0.3321
H118? H 0.8574 1.0135 0.2552
H119? H 0.7507 0.9912 0.2607
H120? H 0.8359 1.0871 0.2806
loop_
_geom_bond_atom_site_label_1
_geom_bond_atom_site_label_2
_geom_bond_site_symmetry_1
_geom_bond_site_symmetry_2
O1 C1 1_555 1_555
O2 C12 1_555 1_555
C1 C2 1_555 1_555
C2 C3 1_555 1_555
C3 C4 1_555 1_555
C4 C5 1_555 1_555
C5 C6 1_555 1_555
C6 C7 1_555 1_555
C7 C8 1_555 1_555
C8 C9 1_555 1_555
C9 C4 1_555 1_555
C10 C1 1_555 1_555
C11 C10 1_555 1_555
C12 C11 1_555 1_555
C13 C12 1_555 1_555
C14 C13 1_555 1_555
C15 C14 1_555 1_555
C16 C15 1_555 1_555
C17 C16 1_555 1_555
C18 C17 1_555 1_555
C19 C18 1_555 1_555
C20 C11 1_555 1_555
H1 O2 1_555 1_555
H2 C2 1_555 1_555
H3 C3 1_555 1_555
H4 C5 1_555 1_555
H5 C6 1_555 1_555
H6 C7 1_555 1_555
H7 C8 1_555 1_555
H8 C13 1_555 1_555
H9 C14 1_555 1_555
H10 C16 1_555 1_555
H11 C17 1_555 1_555
H12 C18 1_555 1_555
H13 C19 1_555 1_555
O3 C21 1_555 1_555
O4 C32 1_555 1_555
C21 C22 1_555 1_555
C22 C23 1_555 1_555
C23 C24 1_555 1_555
C24 C25 1_555 1_555
C25 C26 1_555 1_555
C26 C27 1_555 1_555
C27 C28 1_555 1_555
C28 C29 1_555 1_555
C29 C24 1_555 1_555
C30 C21 1_555 1_555
C31 C30 1_555 1_555
C32 C31 1_555 1_555
C33 C32 1_555 1_555
C34 C33 1_555 1_555
C35 C34 1_555 1_555
C36 C35 1_555 1_555
C37 C36 1_555 1_555
C38 C37 1_555 1_555
C39 C38 1_555 1_555
C40 C31 1_555 1_555
H14 O3 1_555 1_555
H15 C22 1_555 1_555
H16 C23 1_555 1_555
H17 C25 1_555 1_555
H18 C26 1_555 1_555
H19 C27 1_555 1_555
H20 C28 1_555 1_555
H21 C33 1_555 1_555
H22 C34 1_555 1_555
H23 C36 1_555 1_555
H24 C37 1_555 1_555
H25 C38 1_555 1_555
H26 C39 1_555 1_555
O5 C41 1_555 1_555
O6 C52 1_555 1_555
C41 C42 1_555 1_555
C42 C43 1_555 1_555
C43 C44 1_555 1_555
C44 C45 1_555 1_555
C45 C46 1_555 1_555
C46 C47 1_555 1_555
C47 C48 1_555 1_555
C48 C49 1_555 1_555
C49 C44 1_555 1_555
C50 C41 1_555 1_555
C51 C50 1_555 1_555
C52 C51 1_555 1_555
C53 C52 1_555 1_555
C54 C53 1_555 1_555
C55 C54 1_555 1_555
C56 C55 1_555 1_555
C57 C56 1_555 1_555
C58 C57 1_555 1_555
C59 C58 1_555 1_555
C60 C51 1_555 1_555
H27 O6 1_555 1_555
H28 C42 1_555 1_555
H29 C43 1_555 1_555
H30 C45 1_555 1_555
H31 C46 1_555 1_555
H32 C47 1_555 1_555
H33 C48 1_555 1_555
H34 C53 1_555 1_555
H35 C54 1_555 1_555
H36 C56 1_555 1_555
H37 C57 1_555 1_555
H38 C58 1_555 1_555
H39 C59 1_555 1_555
N1 C61 1_555 1_555
C61 C62 1_555 1_555
C62 C63 1_555 1_555
C63 C64 1_555 1_555
C64 H46 1_555 1_555
C65 N1 1_555 1_555
C66 C65 1_555 1_555
C67 C66 1_555 1_555
C68 C67 1_555 1_555
C69 N1 1_555 1_555
C70 C69 1_555 1_555
C71 C70 1_555 1_555
C72 C71 1_555 1_555
C73 N1 1_555 1_555
C74 C73 1_555 1_555
C75 C74 1_555 1_555
C76 C75 1_555 1_555
H40 C61 1_555 1_555
H41 C61 1_555 1_555
H42 C62 1_555 1_555
H43 C62 1_555 1_555
H44 C63 1_555 1_555
H45 C63 1_555 1_555
H47 C64 1_555 1_555
H48 C64 1_555 1_555
H49 C65 1_555 1_555
H50 C65 1_555 1_555
H51 C66 1_555 1_555
H52 C66 1_555 1_555
H53 C67 1_555 1_555
H54 C67 1_555 1_555
H55 C68 1_555 1_555
H56 C68 1_555 1_555
H57 C68 1_555 1_555
H58 C69 1_555 1_555
H59 C69 1_555 1_555
H60 C70 1_555 1_555
H61 C70 1_555 1_555
H62 C71 1_555 1_555
H63 C71 1_555 1_555
H64 C72 1_555 1_555
H65 C72 1_555 1_555
H66 C72 1_555 1_555
H67 C73 1_555 1_555
H68 C73 1_555 1_555
H69 C74 1_555 1_555
H70 C74 1_555 1_555
H71 C75 1_555 1_555
H72 C75 1_555 1_555
H73 C76 1_555 1_555
H74 C76 1_555 1_555
H75 C76 1_555 1_555
N2 C77 1_555 1_555
C77 C78 1_555 1_555
C78 C79 1_555 1_555
C79 C80 1_555 1_555
C80 H82 1_555 1_555
C81 N2 1_555 1_555
C82 C81 1_555 1_555
C83 C82 1_555 1_555
C84 C83 1_555 1_555
C85 N2 1_555 1_555
C86 N2 1_555 1_555
C87 C86 1_555 1_555
C88 C87 1_555 1_555
C89 C88 1_555 1_555
C90 C85 1_555 1_555
C91 C90 1_555 1_555
C92 C91 1_555 1_555
H76 C77 1_555 1_555
H77 C77 1_555 1_555
H78 C78 1_555 1_555
H79 C78 1_555 1_555
H80 C79 1_555 1_555
H81 C79 1_555 1_555
H83 C80 1_555 1_555
H84 C80 1_555 1_555
H85 C81 1_555 1_555
H86 C81 1_555 1_555
H87 C82 1_555 1_555
H88 C82 1_555 1_555
H89 C83 1_555 1_555
H90 C83 1_555 1_555
H91 C84 1_555 1_555
H92 C84 1_555 1_555
H93 C84 1_555 1_555
H94 C86 1_555 1_555
H95 C86 1_555 1_555
H96 C87 1_555 1_555
H97 C87 1_555 1_555
H98 C88 1_555 1_555
H99 C88 1_555 1_555
H100 C89 1_555 1_555
H101 C89 1_555 1_555
H102 C89 1_555 1_555
H103 C85 1_555 1_555
H104 C85 1_555 1_555
H105 C90 1_555 1_555
H106 C90 1_555 1_555
H107 C91 1_555 1_555
H108 C91 1_555 1_555
H109 C92 1_555 1_555
H110 C92 1_555 1_555
H111 C92 1_555 1_555
N3 C96 1_555 1_555
C96 C97 1_555 1_555
C97 C98 1_555 1_555
C98 C99 1_555 1_555
C99 H127 1_555 1_555
C100 N3 1_555 1_555
C101 C100 1_555 1_555
C102 C101 1_555 1_555
C103 C102 1_555 1_555
C104 N3 1_555 1_555
C105 C104 1_555 1_555
C106 C105 1_555 1_555
C107 C106 1_555 1_555
C108 N3 1_555 1_555
C109 C108 1_555 1_555
C110 C109 1_555 1_555
C111 C110 1_555 1_555
H121 C96 1_555 1_555
H122 C96 1_555 1_555
H123 C97 1_555 1_555
H124 C97 1_555 1_555
H125 C98 1_555 1_555
H126 C98 1_555 1_555
H128 C99 1_555 1_555
H129 C99 1_555 1_555
H130 C100 1_555 1_555
H131 C100 1_555 1_555
H132 C101 1_555 1_555
H133 C101 1_555 1_555
H134 C102 1_555 1_555
H135 C102 1_555 1_555
H136 C103 1_555 1_555
H137 C103 1_555 1_555
H138 C103 1_555 1_555
H139 C104 1_555 1_555
H140 C104 1_555 1_555
H141 C105 1_555 1_555
H142 C105 1_555 1_555
H143 C106 1_555 1_555
H144 C106 1_555 1_555
H145 C107 1_555 1_555
H146 C107 1_555 1_555
H147 C107 1_555 1_555
H148 C108 1_555 1_555
H149 C108 1_555 1_555
H150 C109 1_555 1_555
H151 C109 1_555 1_555
H152 C110 1_555 1_555
H153 C110 1_555 1_555
H154 C111 1_555 1_555
H155 C111 1_555 1_555
H156 C111 1_555 1_555
C9 C10 1_555 1_555
C15 C20 1_555 1_555
C19 C20 1_555 1_555
C29 C30 1_555 1_555
C35 C40 1_555 1_555
C39 C40 1_555 1_555
C49 C50 1_555 1_555
C55 C60 1_555 1_555
C59 C60 1_555 1_555

#END
