
#######################################################################
#
#                 Cambridge Crystallographic Data Centre
#                                CCDC 
#
#######################################################################
#
# If this CIF has been generated from an entry in the Cambridge 
# Structural Database, then it will include bibliographic, chemical, 
# crystal, experimental, refinement or atomic coordinate data resulting 
# from the CCDC's data processing and validation procedures.
#
#######################################################################

data_BUDJEP01
_chemical_name_common            Benzo-13-crown-4
_chemical_formula_moiety         'C13 H18 O4'
_chemical_name_systematic        2,3-Benzo-1,4,7,11-tetraoxatridecane
_symmetry_cell_setting           orthorhombic
_symmetry_space_group_name_H-M   'P 21 21 21'
_symmetry_Int_Tables_number      19
_space_group_name_Hall           'P 2ac 2ab'
loop_
_symmetry_equiv_pos_site_id
_symmetry_equiv_pos_as_xyz
1 x,y,z
2 1/2+x,1/2-y,-z
3 -x,1/2+y,1/2-z
4 1/2-x,-y,1/2+z
_cell_length_a                   8.020(4)
_cell_length_b                   18.985(7)
_cell_length_c                   8.305(3)
_cell_angle_alpha                90
_cell_angle_beta                 90
_cell_angle_gamma                90
_cell_volume                     1264.52
_exptl_crystal_colour            colorless
_cell_formula_units_Z            4
loop_
_atom_site_label
_atom_site_type_symbol
_atom_site_fract_x
_atom_site_fract_y
_atom_site_fract_z
O1 O 0.4385(4) 0.1136(1) 0.5015(4)
O2 O 0.2041(5) 0.0835(2) 0.7579(4)
O3 O 0.5628(4) 0.1962(2) 0.8373(4)
O4 O 0.6501(3) 0.2208(1) 0.5023(4)
C1 C 0.6901(5) 0.1622(2) 0.4136(5)
C2 C 0.8353(6) 0.1596(2) 0.3239(6)
C3 C 0.8731(6) 0.0991(3) 0.2330(6)
C4 C 0.7652(7) 0.0434(2) 0.2343(6)
C5 C 0.6167(6) 0.0458(2) 0.3224(6)
C6 C 0.5778(6) 0.1053(2) 0.4126(5)
C7 C 0.3170(6) 0.0585(2) 0.4951(6)
C8 C 0.1677(6) 0.0815(3) 0.5902(6)
C9 C 0.2185(6) 0.1522(3) 0.8239(7)
C10 C 0.3223(8) 0.1517(3) 0.9710(7)
C11 C 0.5040(7) 0.1379(3) 0.9350(7)
C12 C 0.7221(6) 0.1816(2) 0.7736(6)
C13 C 0.7557(5) 0.2324(2) 0.6397(6)
loop_
_geom_bond_atom_site_label_1
_geom_bond_atom_site_label_2
_geom_bond_site_symmetry_1
_geom_bond_site_symmetry_2
O1 C6 1_555 1_555
O2 C8 1_555 1_555
O3 C11 1_555 1_555
O4 C1 1_555 1_555
C1 C2 1_555 1_555
C2 C3 1_555 1_555
C3 C4 1_555 1_555
C4 C5 1_555 1_555
C5 C6 1_555 1_555
C6 C1 1_555 1_555
C7 O1 1_555 1_555
C8 C7 1_555 1_555
C9 O2 1_555 1_555
C10 C9 1_555 1_555
C11 C10 1_555 1_555
C12 O3 1_555 1_555
C13 O4 1_555 1_555
C12 C13 1_555 1_555

#END
