
#######################################################################
#
#                 Cambridge Crystallographic Data Centre
#                                CCDC 
#
#######################################################################
#
# If this CIF has been generated from an entry in the Cambridge 
# Structural Database, then it will include bibliographic, chemical, 
# crystal, experimental, refinement or atomic coordinate data resulting 
# from the CCDC's data processing and validation procedures.
#
#######################################################################

data_BUDMEU
_chemical_formula_moiety         'C19 H16 F1 N1 O2'
_chemical_name_systematic        
1-(1,4-Dioxan-2-yl)-7-fluoro-3-phenylisoquinoline
_symmetry_cell_setting           triclinic
_symmetry_space_group_name_H-M   'P -1'
_symmetry_Int_Tables_number      2
_space_group_name_Hall           '-P 1'
loop_
_symmetry_equiv_pos_site_id
_symmetry_equiv_pos_as_xyz
1 x,y,z
2 -x,-y,-z
_cell_length_a                   7.860(6)
_cell_length_b                   9.917(8)
_cell_length_c                   10.882(9)
_cell_angle_alpha                110.872(16)
_cell_angle_beta                 98.319(16)
_cell_angle_gamma                101.73(2)
_cell_volume                     753.843
_exptl_crystal_colour            colorless
_exptl_crystal_description       prism
_cell_formula_units_Z            2
loop_
_atom_site_label
_atom_site_type_symbol
_atom_site_fract_x
_atom_site_fract_y
_atom_site_fract_z
F1 F 0.29953(15) 0.89714(12) 0.87352(9)
O1 O 0.13027(13) 0.65835(10) 0.37635(10)
O2 O -0.17060(14) 0.57680(11) 0.16257(10)
N1 N 0.18974(14) 0.99296(12) 0.35517(10)
C1 C 0.16728(17) 0.91901(15) 0.43299(13)
C2 C 0.26191(18) 0.97683(15) 0.57201(13)
C3 C 0.2307(2) 0.90215(17) 0.65936(14)
H1 H 0.1442 0.8106 0.6287
C4 C 0.3299(2) 0.96751(19) 0.78872(15)
C5 C 0.4624(2) 1.1036(2) 0.84095(15)
H2 H 0.5285 1.1430 0.9301
C6 C 0.4932(2) 1.17789(19) 0.75880(14)
H3 H 0.5808 1.2692 0.7923
C7 C 0.39242(18) 1.11680(16) 0.62214(14)
C8 C 0.41602(18) 1.19200(16) 0.53505(14)
H4 H 0.5025 1.2835 0.5657
C9 C 0.31200(18) 1.13085(15) 0.40504(13)
C10 C 0.03487(18) 0.76564(15) 0.36758(13)
H5 H -0.0582 0.7627 0.4183
C11 C -0.05287(19) 0.72444(16) 0.22029(14)
H6 H -0.1192 0.7953 0.2145
H7 H 0.0386 0.7302 0.1698
C12 C -0.0750(3) 0.47145(18) 0.17120(17)
H8 H 0.0150 0.4721 0.1189
H9 H -0.1569 0.3714 0.1330
C13 C 0.0139(2) 0.50952(17) 0.31611(16)
H10 H -0.0767 0.5009 0.3668
H11 H 0.0818 0.4389 0.3195
C14 C 0.32372(19) 1.20596(15) 0.30870(14)
C15 C 0.4631(2) 1.33075(17) 0.33280(16)
H12 H 0.5530 1.3699 0.4119
C16 C 0.4702(2) 1.39766(18) 0.24079(17)
H13 H 0.5646 1.4809 0.2586
C17 C 0.3382(3) 1.34179(19) 0.12298(17)
H14 H 0.3430 1.3870 0.0614
C18 C 0.2000(3) 1.21902(19) 0.09766(16)
H15 H 0.1107 1.1806 0.0183
C19 C 0.1916(2) 1.15151(17) 0.18901(15)
H16 H 0.0964 1.0685 0.1703
loop_
_geom_bond_atom_site_label_1
_geom_bond_atom_site_label_2
_geom_bond_site_symmetry_1
_geom_bond_site_symmetry_2
F1 C4 1_555 1_555
O1 C10 1_555 1_555
O2 C11 1_555 1_555
N1 C1 1_555 1_555
C1 C2 1_555 1_555
C2 C3 1_555 1_555
C3 H1 1_555 1_555
C4 C3 1_555 1_555
C5 C4 1_555 1_555
H2 C5 1_555 1_555
C6 C5 1_555 1_555
H3 C6 1_555 1_555
C7 C2 1_555 1_555
C8 C7 1_555 1_555
H4 C8 1_555 1_555
C9 N1 1_555 1_555
C10 C1 1_555 1_555
H5 C10 1_555 1_555
C11 C10 1_555 1_555
H6 C11 1_555 1_555
H7 C11 1_555 1_555
C12 O2 1_555 1_555
H8 C12 1_555 1_555
H9 C12 1_555 1_555
C13 O1 1_555 1_555
H10 C13 1_555 1_555
H11 C13 1_555 1_555
C14 C9 1_555 1_555
C15 C14 1_555 1_555
H12 C15 1_555 1_555
C16 C15 1_555 1_555
H13 C16 1_555 1_555
C17 C16 1_555 1_555
H14 C17 1_555 1_555
C18 C17 1_555 1_555
H15 C18 1_555 1_555
C19 C14 1_555 1_555
H16 C19 1_555 1_555
C6 C7 1_555 1_555
C8 C9 1_555 1_555
C12 C13 1_555 1_555
C18 C19 1_555 1_555

#END
