
#######################################################################
#
#                 Cambridge Crystallographic Data Centre
#                                CCDC 
#
#######################################################################
#
# If this CIF has been generated from an entry in the Cambridge 
# Structural Database, then it will include bibliographic, chemical, 
# crystal, experimental, refinement or atomic coordinate data resulting 
# from the CCDC's data processing and validation procedures.
#
#######################################################################

data_BUDMAP01
_chemical_formula_moiety         'C15 H12 N2 O1'
_chemical_name_systematic        1-methyl-3-phenylquinoxalin-2(1H)-one
_symmetry_cell_setting           monoclinic
_symmetry_space_group_name_H-M   'P 21/n'
_symmetry_Int_Tables_number      14
_space_group_name_Hall           '-P 2yn'
loop_
_symmetry_equiv_pos_site_id
_symmetry_equiv_pos_as_xyz
1 x,y,z
2 1/2-x,1/2+y,1/2-z
3 -x,-y,-z
4 1/2+x,1/2-y,1/2+z
_cell_length_a                   16.4017(15)
_cell_length_b                   7.1335(7)
_cell_length_c                   20.0858(18)
_cell_angle_alpha                90
_cell_angle_beta                 95.665(3)
_cell_angle_gamma                90
_cell_volume                     2338.59
_exptl_crystal_colour            colorless
_exptl_crystal_description       block
_cell_formula_units_Z            8
loop_
_atom_site_label
_atom_site_type_symbol
_atom_site_fract_x
_atom_site_fract_y
_atom_site_fract_z
O1 O 0.53451(7) 0.3451(2) 0.70091(6)
N1 N 0.33188(7) 0.22288(19) 0.73211(6)
N2 N 0.42171(8) 0.31690(18) 0.62680(6)
C1 C 0.44317(8) 0.2671(2) 0.81501(7)
C2 C 0.50387(9) 0.3917(2) 0.84030(8)
H1 H 0.526727 0.474914 0.811716
C3 C 0.53020(11) 0.3918(3) 0.90787(9)
H2 H 0.570576 0.475733 0.924536
C4 C 0.49732(11) 0.2695(3) 0.95042(9)
H3 H 0.515397 0.270550 0.995789
C5 C 0.43741(11) 0.1447(3) 0.92608(8)
H4 H 0.415224 0.061274 0.954955
C6 C 0.41044(9) 0.1439(2) 0.85873(8)
H5 H 0.369883 0.059906 0.842520
C7 C 0.40846(8) 0.2673(2) 0.74399(7)
C8 C 0.46098(9) 0.3137(2) 0.69041(8)
C9 C 0.33905(9) 0.2748(2) 0.61324(7)
C10 C 0.29599(9) 0.2236(2) 0.66707(7)
C11 C 0.21377(9) 0.1697(3) 0.65528(8)
H6 H 0.185411 0.132857 0.690963
C12 C 0.17474(11) 0.1705(3) 0.59206(9)
H7 H 0.120272 0.133287 0.584516
C13 C 0.21696(12) 0.2273(3) 0.53941(9)
H8 H 0.189889 0.230732 0.496507
C14 C 0.29794(11) 0.2787(2) 0.54885(8)
H9 H 0.325292 0.315938 0.512641
C15 C 0.47167(12) 0.3623(3) 0.57242(9)
H10 H 0.470154 0.259579 0.541458
H11 H 0.527216 0.384357 0.590530
H12 H 0.450378 0.472869 0.549624
O2 O 0.87233(9) 0.3370(3) 0.90441(6)
N3 N 0.80229(8) 0.36559(18) 0.80234(7)
N4 N 0.94986(7) 0.35752(18) 0.74572(6)
C16 C 1.04578(11) 0.3657(2) 0.91751(8)
H13 H 1.002922 0.405673 0.941066
C17 C 1.12360(13) 0.3443(3) 0.95042(9)
H14 H 1.132707 0.370942 0.995869
C18 C 1.18735(12) 0.2840(3) 0.91635(10)
H15 H 1.239116 0.267717 0.938993
C19 C 1.17484(11) 0.2475(3) 0.84879(10)
H16 H 1.218139 0.208040 0.825642
C20 C 1.09774(10) 0.2698(2) 0.81569(8)
H17 H 1.089639 0.245789 0.770003
C21 C 1.03148(9) 0.3277(2) 0.84936(7)
C22 C 0.95044(9) 0.34729(19) 0.80996(7)
C23 C 0.87354(10) 0.3499(2) 0.84374(8)
C24 C 0.80101(9) 0.3721(2) 0.73314(8)
C25 C 0.72867(10) 0.3788(2) 0.69021(10)
H18 H 0.678158 0.379829 0.707555
C26 C 0.73254(12) 0.3838(3) 0.62257(11)
H19 H 0.684181 0.387678 0.594212
C27 C 0.80677(12) 0.3834(3) 0.59537(9)
H20 H 0.808191 0.387650 0.549220
C28 C 0.87805(11) 0.3765(3) 0.63678(8)
H21 H 0.928031 0.376877 0.618580
C29 C 0.87657(9) 0.3690(2) 0.70603(8)
C30 C 0.72491(11) 0.3725(3) 0.83365(10)
H22 H 0.696412 0.486595 0.821009
H23 H 0.736417 0.368348 0.881429
H24 H 0.691429 0.267179 0.818945
loop_
_geom_bond_atom_site_label_1
_geom_bond_atom_site_label_2
_geom_bond_site_symmetry_1
_geom_bond_site_symmetry_2
O1 C8 1_555 1_555
N1 C7 1_555 1_555
N2 C8 1_555 1_555
C1 C2 1_555 1_555
C2 H1 1_555 1_555
C3 C2 1_555 1_555
H2 C3 1_555 1_555
C4 C3 1_555 1_555
H3 C4 1_555 1_555
C5 C4 1_555 1_555
H4 C5 1_555 1_555
C6 C1 1_555 1_555
H5 C6 1_555 1_555
C7 C1 1_555 1_555
C8 C7 1_555 1_555
C9 N2 1_555 1_555
C10 N1 1_555 1_555
C11 C10 1_555 1_555
H6 C11 1_555 1_555
C12 C11 1_555 1_555
H7 C12 1_555 1_555
C13 C12 1_555 1_555
H8 C13 1_555 1_555
C14 C9 1_555 1_555
H9 C14 1_555 1_555
C15 N2 1_555 1_555
H10 C15 1_555 1_555
H11 C15 1_555 1_555
H12 C15 1_555 1_555
O2 C23 1_555 1_555
N3 C23 1_555 1_555
N4 C22 1_555 1_555
C16 H13 1_555 1_555
C17 C16 1_555 1_555
H14 C17 1_555 1_555
C18 C17 1_555 1_555
H15 C18 1_555 1_555
C19 C18 1_555 1_555
H16 C19 1_555 1_555
C20 C19 1_555 1_555
H17 C20 1_555 1_555
C21 C16 1_555 1_555
C22 C21 1_555 1_555
C23 C22 1_555 1_555
C24 N3 1_555 1_555
C25 C24 1_555 1_555
H18 C25 1_555 1_555
C26 C25 1_555 1_555
H19 C26 1_555 1_555
C27 C26 1_555 1_555
H20 C27 1_555 1_555
C28 C27 1_555 1_555
H21 C28 1_555 1_555
C29 N4 1_555 1_555
C30 N3 1_555 1_555
H22 C30 1_555 1_555
H23 C30 1_555 1_555
H24 C30 1_555 1_555
C5 C6 1_555 1_555
C9 C10 1_555 1_555
C13 C14 1_555 1_555
C20 C21 1_555 1_555
C24 C29 1_555 1_555
C28 C29 1_555 1_555

#END
