
#######################################################################
#
#                 Cambridge Crystallographic Data Centre
#                                CCDC 
#
#######################################################################
#
# If this CIF has been generated from an entry in the Cambridge 
# Structural Database, then it will include bibliographic, chemical, 
# crystal, experimental, refinement or atomic coordinate data resulting 
# from the CCDC's data processing and validation procedures.
#
#######################################################################

data_BUFBOU
_chemical_formula_moiety         'C18 H18 N2 O4'
_chemical_name_systematic        
(RS)-3-Acetyl-2-methyl-4-(3-nitrophenyl)-1,4,5,6,7,8-hexahydroquinolin-5-one
_symmetry_cell_setting           monoclinic
_symmetry_space_group_name_H-M   'P 21/n'
_symmetry_Int_Tables_number      14
_space_group_name_Hall           '-P 2yn'
loop_
_symmetry_equiv_pos_site_id
_symmetry_equiv_pos_as_xyz
1 x,y,z
2 1/2-x,1/2+y,1/2-z
3 -x,-y,-z
4 1/2+x,1/2-y,1/2+z
_cell_length_a                   8.5368(5)
_cell_length_b                   17.0307(6)
_cell_length_c                   11.4759(5)
_cell_angle_alpha                90
_cell_angle_beta                 106.1430(10)
_cell_angle_gamma                90
_cell_volume                     1602.67
_exptl_crystal_colour            yellow
_exptl_crystal_description       block
_cell_formula_units_Z            4
_exptl_crystal_recrystallization_method 'ethyl acetate'
loop_
_atom_site_label
_atom_site_type_symbol
_atom_site_fract_x
_atom_site_fract_y
_atom_site_fract_z
C1 C 0.2737(3) 0.20273(14) 0.3479(2)
C2 C 0.3036(3) 0.18309(15) 0.4692(2)
H1 H 0.3974 0.2011 0.5255
C3 C 0.1941(4) 0.13684(16) 0.5063(2)
C4 C 0.0532(4) 0.10958(16) 0.4267(3)
H2 H -0.0197 0.0784 0.4532
C5 C 0.0234(3) 0.12982(17) 0.3068(3)
H3 H -0.0714 0.1123 0.2512
C6 C 0.1317(3) 0.17567(16) 0.2676(2)
H4 H 0.1089 0.1886 0.1858
C7 C 0.3954(3) 0.25236(15) 0.3038(2)
H5 H 0.4970 0.2547 0.3697
C8 C 0.4336(3) 0.21449(16) 0.1960(2)
C9 C 0.545(5) 0.151(2) 0.220(2)
C10 C 0.5914(19) 0.1135(11) 0.1123(15)
H6 H 0.6193 0.0587 0.1290
H7 H 0.6843 0.1402 0.0974
C11 C 0.4385(8) 0.1214(3) -0.0005(4)
H8 H 0.4659 0.0995 -0.0704
H9 H 0.3515 0.0896 0.0139
C12 C 0.3717(10) 0.2063(7) -0.0331(9)
H10 H 0.4451 0.2365 -0.0668
H11 H 0.2651 0.2049 -0.0918
O1 O 0.6237(12) 0.1317(7) 0.3215(8)
C13 C 0.356(2) 0.3899(17) 0.3823(18)
C14 C 0.2873(9) 0.4703(5) 0.3779(6)
H12 H 0.3114 0.4913 0.4586
H13 H 0.1712 0.4684 0.3432
H14 H 0.3349 0.5033 0.3290
C15 C 0.1732(18) 0.4344(7) 0.1111(9)
H15 H 0.0921 0.4436 0.1532
H16 H 0.1210 0.4288 0.0259
H17 H 0.2473 0.4780 0.1240
O2 O 0.439(3) 0.3647(9) 0.4817(13)
C23 C 0.3612(3) 0.24079(15) 0.0812(2)
C24 C 0.2679(3) 0.35884(16) 0.1597(2)
C25 C 0.3347(3) 0.33563(17) 0.2754(2)
N1 N 0.2306(5) 0.1151(2) 0.6349(3)
N2 N 0.2681(3) 0.30700(13) 0.06613(18)
H30 H 0.227(3) 0.3210(14) -0.0089(11)
O5 O 0.370(2) 0.1286(8) 0.7031(14)
O6 O 0.123(4) 0.0762(16) 0.668(3)
C16? C 0.368(3) 0.385(2) 0.378(2)
C17? C 0.3390(15) 0.4734(9) 0.3478(11)
H18? H 0.4315 0.4959 0.3262
H19? H 0.3224 0.5019 0.4165
C18? C 0.1799(10) 0.4766(5) 0.2359(8)
H20? H 0.0919 0.4480 0.2550
H21? H 0.1456 0.5307 0.2184
C19? C 0.220(3) 0.4386(9) 0.1223(14)
H22? H 0.1249 0.4391 0.0524
H23? H 0.3080 0.4665 0.1022
O3? O 0.414(3) 0.3620(10) 0.4820(15)
C20? C 0.549(7) 0.146(2) 0.219(3)
C21? C 0.566(2) 0.0938(13) 0.1187(17)
H24? H 0.6219 0.1213 0.0696
H25? H 0.4592 0.0788 0.0698
H26? H 0.6261 0.0477 0.1522
C22? C 0.379(2) 0.1953(11) -0.0320(13)
H27? H 0.4920 0.1827 -0.0213
H28? H 0.3405 0.2274 -0.1030
H29? H 0.3166 0.1477 -0.0416
O4? O 0.608(2) 0.1250(13) 0.3267(16)
O7? O 0.326(3) 0.1589(11) 0.7037(19)
O8? O 0.159(5) 0.0643(18) 0.665(3)
loop_
_geom_bond_atom_site_label_1
_geom_bond_atom_site_label_2
_geom_bond_site_symmetry_1
_geom_bond_site_symmetry_2
C1 C2 1_555 1_555
C2 H1 1_555 1_555
C3 C2 1_555 1_555
C4 C3 1_555 1_555
H2 C4 1_555 1_555
C5 C4 1_555 1_555
H3 C5 1_555 1_555
C6 C1 1_555 1_555
H4 C6 1_555 1_555
C7 C1 1_555 1_555
H5 C7 1_555 1_555
C8 C7 1_555 1_555
C9 C8 1_555 1_555
C10 C9 1_555 1_555
H6 C10 1_555 1_555
H7 C10 1_555 1_555
C11 C10 1_555 1_555
H8 C11 1_555 1_555
H9 C11 1_555 1_555
C12 C11 1_555 1_555
H10 C12 1_555 1_555
H11 C12 1_555 1_555
O1 C9 1_555 1_555
C13 C14 1_555 1_555
C14 H12 1_555 1_555
H13 C14 1_555 1_555
H14 C14 1_555 1_555
C15 H15 1_555 1_555
H16 C15 1_555 1_555
H17 C15 1_555 1_555
O2 C13 1_555 1_555
C23 C8 1_555 1_555
C24 C15 1_555 1_555
C25 C7 1_555 1_555
N1 C3 1_555 1_555
N2 C23 1_555 1_555
H30 N2 1_555 1_555
O5 N1 1_555 1_555
O6 N1 1_555 1_555
C5 C6 1_555 1_555
C12 C23 1_555 1_555
C13 C25 1_555 1_555
C24 C25 1_555 1_555
C24 N2 1_555 1_555

#END
