
#######################################################################
#
#                 Cambridge Crystallographic Data Centre
#                                CCDC 
#
#######################################################################
#
# If this CIF has been generated from an entry in the Cambridge 
# Structural Database, then it will include bibliographic, chemical, 
# crystal, experimental, refinement or atomic coordinate data resulting 
# from the CCDC's data processing and validation procedures.
#
#######################################################################

data_BUFFIS
_chemical_formula_moiety         'C15 H11 N1 O4'
_chemical_name_systematic        
'3-((3-Oxo-1,3-dihydroisobenzofuran-1-yl)amino)benzoic acid'
_symmetry_cell_setting           monoclinic
_symmetry_space_group_name_H-M   'P 21/n'
_symmetry_Int_Tables_number      14
_space_group_name_Hall           '-P 2yn'
loop_
_symmetry_equiv_pos_site_id
_symmetry_equiv_pos_as_xyz
1 x,y,z
2 1/2-x,1/2+y,1/2-z
3 -x,-y,-z
4 1/2+x,1/2-y,1/2+z
_cell_length_a                   10.9025(15)
_cell_length_b                   8.1595(12)
_cell_length_c                   14.2654(18)
_cell_angle_alpha                90
_cell_angle_beta                 103.4630(10)
_cell_angle_gamma                90
_cell_volume                     1234.16
_exptl_crystal_colour            colorless
_exptl_crystal_description       block
_cell_formula_units_Z            4
_exptl_crystal_recrystallization_method dichloromethane/methanol
loop_
_atom_site_label
_atom_site_type_symbol
_atom_site_fract_x
_atom_site_fract_y
_atom_site_fract_z
N1 N 0.77236(15) 0.2945(2) 0.94157(13)
H1 H 0.7596 0.2454 0.8868
O1 O 0.99795(14) 0.5570(2) 1.25378(11)
H2 H 1.0238 0.6014 1.3062
O2 O 1.19133(13) 0.45300(19) 1.28827(10)
O3 O 0.62455(14) 0.2734(2) 1.04292(10)
O4 O 0.44272(16) 0.1671(2) 1.06184(12)
C1 C 1.0886(2) 0.4649(3) 1.23355(15)
C2 C 1.05166(19) 0.3785(3) 1.14008(14)
C3 C 0.92786(18) 0.3817(3) 1.08532(15)
H3 H 0.8673 0.4427 1.1063
C4 C 0.89469(18) 0.2949(3) 1.00014(15)
C5 C 0.9866(2) 0.2051(3) 0.96999(16)
H4 H 0.9656 0.1478 0.9121
C6 C 1.1080(2) 0.2000(3) 1.02457(17)
H5 H 1.1682 0.1378 1.0039
C7 C 1.1418(2) 0.2860(3) 1.10972(17)
H6 H 1.2243 0.2821 1.1465
C8 C 0.5015(2) 0.2389(3) 1.01183(17)
C9 C 0.67070(19) 0.3691(3) 0.96714(15)
H7 H 0.6952 0.4794 0.9916
C10 C 0.55418(18) 0.3801(3) 0.88699(15)
C11 C 0.45572(18) 0.3033(3) 0.91465(15)
C12 C 0.3365(2) 0.2979(3) 0.85393(16)
H8 H 0.2700 0.2468 0.8729
C13 C 0.3193(2) 0.3700(3) 0.76518(16)
H9 H 0.2400 0.3681 0.7232
C14 C 0.4181(2) 0.4451(3) 0.73746(16)
H10 H 0.4042 0.4926 0.6766
C15 C 0.53674(19) 0.4520(3) 0.79711(16)
H11 H 0.6029 0.5032 0.7777
loop_
_geom_bond_atom_site_label_1
_geom_bond_atom_site_label_2
_geom_bond_site_symmetry_1
_geom_bond_site_symmetry_2
N1 H1 1_555 1_555
O1 H2 1_555 1_555
O2 C1 1_555 1_555
O3 C8 1_555 1_555
O4 C8 1_555 1_555
C1 O1 1_555 1_555
C2 C1 1_555 1_555
C3 C2 1_555 1_555
H3 C3 1_555 1_555
C4 N1 1_555 1_555
C5 C4 1_555 1_555
H4 C5 1_555 1_555
C6 C5 1_555 1_555
H5 C6 1_555 1_555
C7 C2 1_555 1_555
H6 C7 1_555 1_555
C8 C11 1_555 1_555
C9 N1 1_555 1_555
H7 C9 1_555 1_555
C10 C9 1_555 1_555
C11 C10 1_555 1_555
C12 C11 1_555 1_555
H8 C12 1_555 1_555
C13 C12 1_555 1_555
H9 C13 1_555 1_555
C14 C13 1_555 1_555
H10 C14 1_555 1_555
C15 C10 1_555 1_555
H11 C15 1_555 1_555
O3 C9 1_555 1_555
C3 C4 1_555 1_555
C6 C7 1_555 1_555
C14 C15 1_555 1_555

#END
