
#######################################################################
#
#                 Cambridge Crystallographic Data Centre
#                                CCDC 
#
#######################################################################
#
# If this CIF has been generated from an entry in the Cambridge 
# Structural Database, then it will include bibliographic, chemical, 
# crystal, experimental, refinement or atomic coordinate data resulting 
# from the CCDC's data processing and validation procedures.
#
#######################################################################

data_BUFSIF
_chemical_formula_moiety         'C24 H20 N4 O3'
_chemical_name_systematic        
10-benzoyl-2,4-dimethyl-6-phenyl-1,2,3,4,8,9-hexahydropyrimido[5,4-e]pyrrolo[1,2-c]pyrimidine-1,3-dione
_chemical_properties_biological  'moderate anti-HIV activity'
_symmetry_cell_setting           monoclinic
_symmetry_space_group_name_H-M   'C 2/c'
_symmetry_Int_Tables_number      15
_space_group_name_Hall           '-C 2yn'
loop_
_symmetry_equiv_pos_site_id
_symmetry_equiv_pos_as_xyz
1 x,y,z
2 -x,y,1/2-z
3 1/2+x,1/2+y,z
4 1/2-x,1/2+y,1/2-z
5 -x,-y,-z
6 x,-y,1/2+z
7 1/2-x,1/2-y,-z
8 1/2+x,1/2-y,1/2+z
_cell_length_a                   36.230(7)
_cell_length_b                   5.4187(11)
_cell_length_c                   21.741(4)
_cell_angle_alpha                90
_cell_angle_beta                 110.43(3)
_cell_angle_gamma                90
_cell_volume                     3999.71
_exptl_crystal_colour            colorless
_exptl_crystal_description       prism
_cell_formula_units_Z            8
loop_
_atom_site_label
_atom_site_type_symbol
_atom_site_fract_x
_atom_site_fract_y
_atom_site_fract_z
C1 C 0.13157(6) 0.5579(4) 0.07808(10)
N1 N 0.13851(5) 0.2623(4) -0.00113(9)
O1 O 0.12700(5) 0.9297(3) 0.13200(8)
N2 N 0.07954(5) 0.2791(4) 0.02026(9)
N3 N 0.18653(5) 0.8268(4) 0.12614(9)
N4 N 0.19008(5) 0.5242(4) 0.05150(9)
C2 C 0.15250(6) 0.4447(4) 0.04375(10)
C3 C 0.09413(6) 0.4491(4) 0.07285(10)
C4 C 0.10162(6) 0.1950(4) -0.01392(10)
C5 C 0.08458(6) 0.0202(4) -0.06876(10)
C6 C 0.14638(6) 0.7817(4) 0.11333(11)
C7 C 0.13881(7) 0.4519(5) 0.23169(12)
C8 C 0.11571(9) 0.8237(5) 0.26540(13)
C9 C 0.10953(7) 0.6262(4) 0.22170(11)
C10 C 0.07147(7) 0.6065(5) 0.16569(12)
O2 O 0.24295(5) 0.7633(5) 0.10522(11)
C11 C 0.10783(8) -0.1696(5) -0.07766(12)
C12 C 0.06892(6) 0.4665(5) 0.10644(11)
C13 C 0.20883(7) 0.7086(5) 0.09516(12)
O3 O 0.04131(5) 0.6877(5) 0.17120(10)
C14 C 0.04254(8) 0.1668(6) 0.02174(16)
C15 C 0.04669(7) 0.0481(6) -0.11367(12)
C16 C 0.03377(8) 0.3047(7) 0.07528(14)
C17 C 0.17403(8) 0.4743(6) 0.28357(13)
C18 C 0.09282(11) -0.3351(6) -0.12897(14)
C19 C 0.20541(8) 1.0233(5) 0.17307(14)
H1 H 0.2335 1.0021 0.1883
H2 H 0.1964 1.0153 0.2097
H3 H 0.1987 1.1809 0.1519
C20 C 0.15109(9) 0.8474(6) 0.31642(14)
C21 C 0.03193(9) -0.1167(7) -0.16474(13)
C22 C 0.21241(8) 0.4102(7) 0.01377(15)
H4 H 0.2263 0.2680 0.0369
H5 H 0.2310 0.5273 0.0085
H6 H 0.1946 0.3610 -0.0286
C23 C 0.18019(9) 0.6734(6) 0.32525(14)
C24 C 0.05473(10) -0.3083(6) -0.17190(14)
H7 H 0.1344(7) 0.313(5) 0.2029(12)
H8 H 0.0310(7) 0.182(5) -0.1087(12)
H9 H 0.1344(7) -0.177(4) -0.0469(12)
H10 H 0.1949(8) 0.348(5) 0.2915(13)
H11 H 0.0944(7) 0.942(5) 0.2568(11)
H12 H 0.0225(9) 0.191(6) -0.0195(16)
H13 H 0.1551(8) 0.986(5) 0.3449(14)
H14 H 0.0084(10) 0.402(6) 0.0584(16)
H15 H 0.2058(8) 0.696(5) 0.3601(14)
H16 H 0.0480(9) -0.021(7) 0.0343(16)
H17 H 0.0444(9) -0.423(6) -0.2082(16)
H18 H 0.0055(9) -0.100(6) -0.1945(15)
H19 H 0.0283(8) 0.193(6) 0.1069(15)
H20 H 0.1097(9) -0.465(6) -0.1328(14)
loop_
_geom_bond_atom_site_label_1
_geom_bond_atom_site_label_2
_geom_bond_site_symmetry_1
_geom_bond_site_symmetry_2
C1 C2 1_555 1_555
N1 C2 1_555 1_555
O1 C6 1_555 1_555
N2 C3 1_555 1_555
N3 C6 1_555 1_555
N4 C2 1_555 1_555
C3 C1 1_555 1_555
C4 N1 1_555 1_555
C5 C4 1_555 1_555
C6 C1 1_555 1_555
C7 C9 1_555 1_555
C8 C9 1_555 1_555
C9 C10 1_555 1_555
C10 C12 1_555 1_555
O2 C13 1_555 1_555
C11 C5 1_555 1_555
C12 C3 1_555 1_555
C13 N3 1_555 1_555
O3 C10 1_555 1_555
C14 N2 1_555 1_555
C15 C5 1_555 1_555
C16 C12 1_555 1_555
C17 C7 1_555 1_555
C18 C11 1_555 1_555
C19 N3 1_555 1_555
H1 C19 1_555 1_555
H2 C19 1_555 1_555
H3 C19 1_555 1_555
C20 C8 1_555 1_555
C21 C15 1_555 1_555
C22 N4 1_555 1_555
H4 C22 1_555 1_555
H5 C22 1_555 1_555
H6 C22 1_555 1_555
C23 C17 1_555 1_555
C24 C18 1_555 1_555
H7 C7 1_555 1_555
H8 C15 1_555 1_555
H9 C11 1_555 1_555
H10 C17 1_555 1_555
H11 C8 1_555 1_555
H12 C14 1_555 1_555
H13 C20 1_555 1_555
H14 C16 1_555 1_555
H15 C23 1_555 1_555
H16 C14 1_555 1_555
H17 C24 1_555 1_555
H18 C21 1_555 1_555
H19 C16 1_555 1_555
H20 C18 1_555 1_555
N2 C4 1_555 1_555
N4 C13 1_555 1_555
C14 C16 1_555 1_555
C20 C23 1_555 1_555
C21 C24 1_555 1_555

#END
