
#######################################################################
#
#                 Cambridge Crystallographic Data Centre
#                                CCDC 
#
#######################################################################
#
# If this CIF has been generated from an entry in the Cambridge 
# Structural Database, then it will include bibliographic, chemical, 
# crystal, experimental, refinement or atomic coordinate data resulting 
# from the CCDC's data processing and validation procedures.
#
#######################################################################

data_BUGLAR
_chemical_formula_moiety         'C78 H102 N8 O14'
_chemical_name_systematic        
1,2-bis(3,5-bis((2-(2-(octyloxy)benzoyl)hydrazino)carbonyl)phenoxy)ethane
_symmetry_cell_setting           triclinic
_symmetry_space_group_name_H-M   'P -1'
_symmetry_Int_Tables_number      2
_space_group_name_Hall           '-P 1'
loop_
_symmetry_equiv_pos_site_id
_symmetry_equiv_pos_as_xyz
1 x,y,z
2 -x,-y,-z
_cell_length_a                   15.6664(13)
_cell_length_b                   16.3017(14)
_cell_length_c                   17.1101(14)
_cell_angle_alpha                105.698(2)
_cell_angle_beta                 108.791(2)
_cell_angle_gamma                92.724(2)
_cell_volume                     3938.8
_exptl_crystal_colour            colorless
_exptl_crystal_description       prismatic
_cell_formula_units_Z            2
loop_
_atom_site_label
_atom_site_type_symbol
_atom_site_fract_x
_atom_site_fract_y
_atom_site_fract_z
O1 O 0.7661(3) 0.0234(3) 0.6540(2)
O2 O 0.6325(3) -0.0125(3) 0.8522(3)
O3 O 0.5993(3) 0.4265(3) 0.7301(2)
O4 O 0.6743(3) 0.3901(3) 1.0024(2)
O5 O 0.6245(3) 0.2194(2) 0.4684(2)
O6 O 0.6701(3) 0.1936(3) 0.3084(2)
O7 O 0.4392(3) 0.1293(3) -0.0056(2)
O8 O 0.5331(3) 0.1303(3) -0.2259(2)
O9 O 0.9126(3) 0.2887(2) 0.2000(2)
O10 O 0.8266(3) 0.3125(3) -0.0771(2)
O11 O 0.5588(3) 0.5842(2) 0.9123(2)
O12 O 0.8148(3) -0.1495(2) 0.7598(2)
O13 O 0.2816(3) 0.0333(3) -0.2352(2)
O14 O 1.0701(3) 0.4226(3) 0.1222(3)
N1 N 0.6861(3) 0.0465(3) 0.7434(3)
H1 H 0.6505 0.0760 0.7649
N2 N 0.7143(3) -0.0261(3) 0.7651(2)
H2 H 0.7496 -0.0547 0.7423
N3 N 0.6509(3) 0.3712(3) 0.8373(3)
H3 H 0.6710 0.3292 0.8558
N4 N 0.6357(3) 0.4440(3) 0.8913(3)
H4 H 0.6195 0.4865 0.8721
N5 N 0.5311(3) 0.1046(3) -0.0806(3)
H5 H 0.5853 0.1047 -0.0823
N6 N 0.4545(3) 0.0790(3) -0.1556(3)
H6 H 0.4055 0.0509 -0.1579
N7 N 0.8273(3) 0.3139(3) 0.0773(3)
H7 H 0.7739 0.3128 0.0414
N8 N 0.9024(3) 0.3470(3) 0.0655(3)
H8 H 0.9517 0.3700 0.1088
C1 C 0.6332(4) 0.3687(4) 0.7552(3)
C2 C 0.6489(3) 0.2900(3) 0.6962(3)
C3 C 0.6336(4) 0.2884(3) 0.6108(3)
H9 H 0.6161 0.3362 0.5935
C4 C 0.6442(4) 0.2164(4) 0.5515(3)
C5 C 0.6728(4) 0.1458(4) 0.5774(3)
H10 H 0.6826 0.0984 0.5384
C6 C 0.6868(4) 0.1461(3) 0.6627(3)
C7 C 0.6764(3) 0.2181(3) 0.7210(3)
H11 H 0.6879 0.2188 0.7780
C8 C 0.7184(4) 0.0678(3) 0.6862(3)
C9 C 0.6456(4) 0.4495(4) 0.9732(3)
C10 C 0.6249(4) 0.5274(4) 1.0273(3)
C11 C 0.6479(4) 0.5352(4) 1.1149(4)
H12 H 0.6760 0.4926 1.1357
C12 C 0.6303(5) 0.6039(5) 1.1715(4)
H13 H 0.6478 0.6085 1.2301
C13 C 0.5868(6) 0.6655(5) 1.1408(5)
H14 H 0.5727 0.7109 1.1786
C14 C 0.5638(5) 0.6613(4) 1.0556(4)
H15 H 0.5361 0.7049 1.0361
C15 C 0.5817(4) 0.5920(4) 0.9979(4)
C16 C 0.6861(4) -0.0510(4) 0.8213(3)
C17 C 0.7244(4) -0.1257(3) 0.8492(3)
C18 C 0.6971(4) -0.1463(3) 0.9107(3)
H16 H 0.6562 -0.1148 0.9304
C19 C 0.7277(4) -0.2122(4) 0.9451(3)
H17 H 0.7070 -0.2263 0.9856
C20 C 0.7902(4) -0.2552(4) 0.9160(4)
H18 H 0.8134 -0.2986 0.9386
C21 C 0.8193(4) -0.2363(4) 0.8551(3)
H19 H 0.8611 -0.2675 0.8366
C22 C 0.7880(4) -0.1719(3) 0.8203(3)
C23 C 0.6166(4) 0.1390(4) 0.4033(3)
H20 H 0.5691 0.0975 0.4017
H21 H 0.6736 0.1158 0.4170
C24 C 0.5935(5) 0.1550(4) 0.3163(3)
H22 H 0.5697 0.1008 0.2705
H23 H 0.5466 0.1921 0.3099
C25 C 0.5160(4) 0.1287(3) -0.0060(3)
C26 C 0.5982(3) 0.1627(3) 0.0741(3)
C27 C 0.5921(4) 0.1593(3) 0.1527(3)
H24 H 0.5388 0.1335 0.1545
C28 C 0.6658(4) 0.1946(4) 0.2275(3)
C29 C 0.7428(4) 0.2339(3) 0.2248(3)
H25 H 0.7920 0.2566 0.2762
C30 C 0.7513(4) 0.2418(3) 0.1466(3)
C31 C 0.6763(4) 0.2030(3) 0.0707(3)
H26 H 0.6791 0.2043 0.0176
C32 C 0.8360(4) 0.2827(3) 0.1455(3)
C33 C 0.4606(5) 0.1004(4) -0.2246(4)
C34 C 0.3752(5) 0.0815(4) -0.3016(3)
C35 C 0.3859(5) 0.0990(4) -0.3747(4)
H27 H 0.4428 0.1215 -0.3720
C36 C 0.3118(7) 0.0826(5) -0.4501(4)
H28 H 0.3186 0.0956 -0.4976
C37 C 0.2294(7) 0.0478(6) -0.4553(5)
H29 H 0.1813 0.0355 -0.5077
C38 C 0.2132(5) 0.0293(5) -0.3849(4)
H30 H 0.1558 0.0064 -0.3891
C39 C 0.2892(5) 0.0476(4) -0.3076(4)
C40 C 0.8972(4) 0.3427(3) -0.0157(4)
C41 C 0.9811(4) 0.3766(4) -0.0266(4)
C42 C 0.9741(5) 0.3674(4) -0.1118(4)
H31 H 0.9195 0.3407 -0.1561
C43 C 1.0465(7) 0.3969(6) -0.1337(6)
H32 H 1.0405 0.3886 -0.1912
C44 C 1.1238(7) 0.4368(6) -0.0700(7)
H33 H 1.1715 0.4581 -0.0837
C45 C 1.1353(5) 0.4475(4) 0.0152(6)
H34 H 1.1905 0.4749 0.0582
C46 C 1.0639(5) 0.4173(4) 0.0378(5)
C47 C 0.4980(4) 0.6394(4) 0.8760(4)
H35 H 0.5277 0.6987 0.8991
H36 H 0.4433 0.6362 0.8907
C48 C 0.4739(5) 0.6088(4) 0.7796(4)
H37 H 0.4600 0.5464 0.7594
H38 H 0.4197 0.6315 0.7527
C49 C 0.5478(5) 0.6355(4) 0.7525(4)
H39 H 0.6002 0.6092 0.7767
H40 H 0.5649 0.6974 0.7778
C50 C 0.5275(6) 0.6136(5) 0.6550(4)
H41 H 0.5207 0.5515 0.6310
H42 H 0.4695 0.6314 0.6291
C51 C 0.5984(6) 0.6541(7) 0.6289(5)
H43 H 0.6055 0.7159 0.6550
H44 H 0.6558 0.6358 0.6558
C52 C 0.5870(7) 0.6391(6) 0.5364(5)
H45 H 0.5900 0.5786 0.5122
H46 H 0.5259 0.6488 0.5072
C53 C 0.6489(7) 0.6881(8) 0.5140(6)
H47 H 0.7103 0.6778 0.5414
H48 H 0.6466 0.7489 0.5376
C54 C 0.6299(7) 0.6680(7) 0.4185(6)
H49 H 0.5666 0.6696 0.3895
H50 H 0.6441 0.6116 0.3966
H51 H 0.6668 0.7099 0.4084
C55 C 0.8736(4) -0.2002(4) 0.7246(3)
H52 H 0.8450 -0.2598 0.6976
H53 H 0.9307 -0.1981 0.7702
C56 C 0.8907(4) -0.1632(4) 0.6588(4)
H54 H 0.9189 -0.1035 0.6866
H55 H 0.8330 -0.1645 0.6144
C57 C 0.9528(5) -0.2137(5) 0.6168(4)
H56 H 1.0103 -0.2120 0.6616
H57 H 0.9247 -0.2735 0.5900
C58 C 0.9716(7) -0.1799(7) 0.5494(6)
H58 H 1.0000 -0.1202 0.5765
H59 H 0.9139 -0.1809 0.5052
C59 C 1.0340(9) -0.2306(8) 0.5047(8)
H60 H 1.0043 -0.2900 0.4783
H61 H 1.0902 -0.2306 0.5503
C60 C 1.0617(14) -0.2021(14) 0.4329(12)
H62 H 1.1172 -0.1607 0.4609
H63 H 1.0738 -0.2520 0.3942
C61 C 0.9898(19) -0.1636(18) 0.3827(17)
H67 H 0.9738 -0.1173 0.4222
C62 C 0.902(2) -0.229(2) 0.3234(19)
H68 H 0.8740 -0.2141 0.2715
H69 H 0.8597 -0.2283 0.3537
H70 H 0.9177 -0.2863 0.3085
C63 C 0.1972(4) -0.0048(4) -0.2365(4)
H71 H 0.1799 -0.0626 -0.2768
H72 H 0.1496 0.0291 -0.2548
C64 C 0.2095(4) -0.0075(4) -0.1478(4)
H73 H 0.2235 0.0511 -0.1094
H74 H 0.2617 -0.0362 -0.1287
C65 C 0.1266(4) -0.0536(4) -0.1389(4)
H75 H 0.0742 -0.0254 -0.1588
H76 H 0.1132 -0.1125 -0.1766
C66 C 0.1394(4) -0.0549(4) -0.0469(4)
H77 H 0.1931 -0.0814 -0.0270
H78 H 0.1519 0.0043 -0.0100
C67 C 0.0624(4) -0.1003(4) -0.0340(4)
H79 H 0.0498 -0.1600 -0.0697
H80 H 0.0083 -0.0740 -0.0529
C68 C 0.0826(5) -0.0973(4) 0.0586(4)
H81 H 0.1359 -0.1249 0.0765
H82 H 0.0977 -0.0374 0.0941
C69 C 0.0082(5) -0.1384(4) 0.0762(4)
H83 H -0.0064 -0.1983 0.0408
H84 H -0.0452 -0.1112 0.0573
C70 C 0.0254(5) -0.1360(5) 0.1701(5)
H85 H 0.0373 -0.0772 0.2060
H86 H 0.0770 -0.1642 0.1897
H87 H -0.0274 -0.1651 0.1736
C71 C 1.1496(4) 0.4727(4) 0.1942(5)
H88 H 1.1597 0.5309 0.1916
H89 H 1.2037 0.4461 0.1943
C72 C 1.1253(6) 0.4726(6) 0.2763(5)
H90 H 1.0688 0.4960 0.2718
H91 H 1.1147 0.4134 0.2760
C73 C 1.1940(7) 0.5211(7) 0.3585(7)
H92 H 1.2047 0.5806 0.3597
H93 H 1.2507 0.4978 0.3640
C74 C 1.1644(8) 0.5179(9) 0.4376(7)
H94 H 1.1592 0.4598 0.4419
C75 C 1.2414(15) 0.5757(15) 0.5119(13)
H96 H 1.2473 0.6351 0.5118
H97 H 1.2994 0.5541 0.5212
C76 C 1.190(3) 0.558(2) 0.570(2)
H98 H 1.1288 0.5686 0.5421
H99 H 1.2157 0.6053 0.6225
C77 C 1.1727(19) 0.4817(15) 0.6026(14)
H100 H 1.1149 0.4465 0.5649
H101 H 1.2206 0.4461 0.6028
C78 C 1.1715(18) 0.5169(16) 0.6915(13)
H102 H 1.2323 0.5414 0.7306
H103 H 1.1489 0.4714 0.7087
H104 H 1.1327 0.5606 0.6928
H64? H 1.0318 -0.1545 0.4208
H65? H 1.1237 -0.1782 0.4684
H66? H 1.0132 -0.1387 0.3468
H95? H 1.1343 0.4604 0.4239
C79? C 1.242(5) 0.497(6) 0.508(2)
C80? C 1.217(2) 0.548(3) 0.5860(13)
C81? C 1.1319(18) 0.5152(19) 0.6011(16)
C82? C 1.126(2) 0.4870(18) 0.6833(16)
H105? H 1.3015 0.5191 0.5103
H106? H 1.2378 0.4356 0.5008
H107? H 1.2688 0.5527 0.6378
H108? H 1.2113 0.6054 0.5818
H109? H 1.1009 0.4658 0.5510
H110? H 1.0932 0.5597 0.5967
H111? H 1.1620 0.4414 0.6902
H112? H 1.0642 0.4674 0.6739
H113? H 1.1501 0.5355 0.7347
loop_
_geom_bond_atom_site_label_1
_geom_bond_atom_site_label_2
_geom_bond_site_symmetry_1
_geom_bond_site_symmetry_2
O1 C8 1_555 1_555
O2 C16 1_555 1_555
O3 C1 1_555 1_555
O4 C9 1_555 1_555
O5 C4 1_555 1_555
O6 C24 1_555 1_555
O7 C25 1_555 1_555
O8 C33 1_555 1_555
O9 C32 1_555 1_555
O10 C40 1_555 1_555
O11 C15 1_555 1_555
O12 C22 1_555 1_555
O13 C39 1_555 1_555
O14 C46 1_555 1_555
N1 H1 1_555 1_555
N2 N1 1_555 1_555
H2 N2 1_555 1_555
N3 H3 1_555 1_555
N4 N3 1_555 1_555
H4 N4 1_555 1_555
N5 H5 1_555 1_555
N6 N5 1_555 1_555
H6 N6 1_555 1_555
N7 H7 1_555 1_555
N8 N7 1_555 1_555
H8 N8 1_555 1_555
C1 N3 1_555 1_555
C2 C1 1_555 1_555
C3 C2 1_555 1_555
H9 C3 1_555 1_555
C4 C3 1_555 1_555
C5 C4 1_555 1_555
H10 C5 1_555 1_555
C6 C5 1_555 1_555
C7 C2 1_555 1_555
H11 C7 1_555 1_555
C8 N1 1_555 1_555
C9 N4 1_555 1_555
C10 C9 1_555 1_555
C11 C10 1_555 1_555
H12 C11 1_555 1_555
C12 C11 1_555 1_555
H13 C12 1_555 1_555
C13 C12 1_555 1_555
H14 C13 1_555 1_555
C14 C13 1_555 1_555
H15 C14 1_555 1_555
C15 C10 1_555 1_555
C16 N2 1_555 1_555
C17 C16 1_555 1_555
C18 C17 1_555 1_555
H16 C18 1_555 1_555
C19 C18 1_555 1_555
H17 C19 1_555 1_555
C20 C19 1_555 1_555
H18 C20 1_555 1_555
C21 C20 1_555 1_555
H19 C21 1_555 1_555
C22 C17 1_555 1_555
C23 O5 1_555 1_555
H20 C23 1_555 1_555
H21 C23 1_555 1_555
C24 C23 1_555 1_555
H22 C24 1_555 1_555
H23 C24 1_555 1_555
C25 N5 1_555 1_555
C26 C25 1_555 1_555
C27 C26 1_555 1_555
H24 C27 1_555 1_555
C28 O6 1_555 1_555
C29 C28 1_555 1_555
H25 C29 1_555 1_555
C30 C29 1_555 1_555
C31 C26 1_555 1_555
H26 C31 1_555 1_555
C32 N7 1_555 1_555
C33 N6 1_555 1_555
C34 C33 1_555 1_555
C35 C34 1_555 1_555
H27 C35 1_555 1_555
C36 C35 1_555 1_555
H28 C36 1_555 1_555
C37 C36 1_555 1_555
H29 C37 1_555 1_555
C38 C37 1_555 1_555
H30 C38 1_555 1_555
C39 C34 1_555 1_555
C40 N8 1_555 1_555
C41 C40 1_555 1_555
C42 C41 1_555 1_555
H31 C42 1_555 1_555
C43 C42 1_555 1_555
H32 C43 1_555 1_555
C44 C43 1_555 1_555
H33 C44 1_555 1_555
C45 C44 1_555 1_555
H34 C45 1_555 1_555
C46 C41 1_555 1_555
C47 O11 1_555 1_555
H35 C47 1_555 1_555
H36 C47 1_555 1_555
C48 C47 1_555 1_555
H37 C48 1_555 1_555
H38 C48 1_555 1_555
C49 C48 1_555 1_555
H39 C49 1_555 1_555
H40 C49 1_555 1_555
C50 C49 1_555 1_555
H41 C50 1_555 1_555
H42 C50 1_555 1_555
C51 C50 1_555 1_555
H43 C51 1_555 1_555
H44 C51 1_555 1_555
C52 C51 1_555 1_555
H45 C52 1_555 1_555
H46 C52 1_555 1_555
C53 C52 1_555 1_555
H47 C53 1_555 1_555
H48 C53 1_555 1_555
C54 C53 1_555 1_555
H49 C54 1_555 1_555
H50 C54 1_555 1_555
H51 C54 1_555 1_555
C55 O12 1_555 1_555
H52 C55 1_555 1_555
H53 C55 1_555 1_555
C56 C55 1_555 1_555
H54 C56 1_555 1_555
H55 C56 1_555 1_555
C57 C56 1_555 1_555
H56 C57 1_555 1_555
H57 C57 1_555 1_555
C58 C57 1_555 1_555
H58 C58 1_555 1_555
H59 C58 1_555 1_555
C59 C58 1_555 1_555
H60 C59 1_555 1_555
H61 C59 1_555 1_555
C60 C59 1_555 1_555
H62 C60 1_555 1_555
H63 C60 1_555 1_555
C61 C60 1_555 1_555
H67 C61 1_555 1_555
C62 C61 1_555 1_555
H68 C62 1_555 1_555
H69 C62 1_555 1_555
H70 C62 1_555 1_555
C63 O13 1_555 1_555
H71 C63 1_555 1_555
H72 C63 1_555 1_555
C64 C63 1_555 1_555
H73 C64 1_555 1_555
H74 C64 1_555 1_555
C65 C64 1_555 1_555
H75 C65 1_555 1_555
H76 C65 1_555 1_555
C66 C65 1_555 1_555
H77 C66 1_555 1_555
H78 C66 1_555 1_555
C67 C66 1_555 1_555
H79 C67 1_555 1_555
H80 C67 1_555 1_555
C68 C67 1_555 1_555
H81 C68 1_555 1_555
H82 C68 1_555 1_555
C69 C68 1_555 1_555
H83 C69 1_555 1_555
H84 C69 1_555 1_555
C70 C69 1_555 1_555
H85 C70 1_555 1_555
H86 C70 1_555 1_555
H87 C70 1_555 1_555
C71 O14 1_555 1_555
H88 C71 1_555 1_555
H89 C71 1_555 1_555
C72 C71 1_555 1_555
H90 C72 1_555 1_555
H91 C72 1_555 1_555
C73 C72 1_555 1_555
H92 C73 1_555 1_555
H93 C73 1_555 1_555
C74 C73 1_555 1_555
H94 C74 1_555 1_555
C75 C74 1_555 1_555
H96 C75 1_555 1_555
H97 C75 1_555 1_555
C76 C75 1_555 1_555
H98 C76 1_555 1_555
H99 C76 1_555 1_555
C77 C76 1_555 1_555
H100 C77 1_555 1_555
H101 C77 1_555 1_555
C78 C77 1_555 1_555
H102 C78 1_555 1_555
H103 C78 1_555 1_555
H104 C78 1_555 1_555
C6 C7 1_555 1_555
C6 C8 1_555 1_555
C14 C15 1_555 1_555
C21 C22 1_555 1_555
C27 C28 1_555 1_555
C30 C31 1_555 1_555
C30 C32 1_555 1_555
C38 C39 1_555 1_555
C45 C46 1_555 1_555

#END
