
#######################################################################
#
#                 Cambridge Crystallographic Data Centre
#                                CCDC 
#
#######################################################################
#
# If this CIF has been generated from an entry in the Cambridge 
# Structural Database, then it will include bibliographic, chemical, 
# crystal, experimental, refinement or atomic coordinate data resulting 
# from the CCDC's data processing and validation procedures.
#
#######################################################################

data_BUGRUR
_chemical_formula_moiety         'C1 H1 Cl3,C8 H14 B1 N1 O2'
_chemical_name_systematic        
"(2,2'-imino-diethanolato-N,O,O')-(but-1,3-dien-2-yl)-boron chloroform solvate"
_symmetry_cell_setting           orthorhombic
_symmetry_space_group_name_H-M   'P n a 21'
_symmetry_Int_Tables_number      33
_space_group_name_Hall           'P 2c -2n'
loop_
_symmetry_equiv_pos_site_id
_symmetry_equiv_pos_as_xyz
1 x,y,z
2 -x,-y,1/2+z
3 1/2+x,1/2-y,z
4 1/2-x,1/2+y,1/2+z
_cell_length_a                   19.587(3)
_cell_length_b                   7.7421(10)
_cell_length_c                   9.1042(12)
_cell_angle_alpha                90
_cell_angle_beta                 90
_cell_angle_gamma                90
_cell_volume                     1380.6
_exptl_crystal_colour            colorless
_exptl_crystal_description       needle-plate
_cell_formula_units_Z            4
loop_
_atom_site_label
_atom_site_type_symbol
_atom_site_fract_x
_atom_site_fract_y
_atom_site_fract_z
Cl1 Cl 0.28824(6) 0.21583(17) 0.24491(12)
Cl2 Cl 0.22771(5) 0.22728(16) 0.53175(16)
Cl3 Cl 0.28445(6) -0.08748(13) 0.42342(14)
C1 C 0.29229(15) 0.1369(4) 0.4236(4)
H1 H 0.3371 0.1682 0.4663
B1 B 0.47442(16) 0.3757(5) 0.6048(4)
N1 N 0.46229(13) 0.5484(3) 0.7112(3)
H2 H 0.4632(13) 0.528(4) 0.801(4)
O1 O 0.53293(10) 0.4375(3) 0.5169(2)
O2 O 0.41187(9) 0.3711(3) 0.5208(2)
C2 C 0.5536(2) 0.1348(5) 0.6878(6)
H3 H 0.562(2) 0.036(6) 0.736(5)
H4 H 0.583(2) 0.182(6) 0.608(5)
C3 C 0.49101(16) 0.2020(4) 0.6950(3)
C4 C 0.4414(2) 0.1167(4) 0.7904(4)
H5 H 0.4543(19) 0.028(5) 0.848(5)
C5 C 0.3760(2) 0.1477(6) 0.8032(5)
H6 H 0.349(2) 0.080(5) 0.873(5)
H7 H 0.3523(16) 0.241(4) 0.750(4)
C6 C 0.57128(16) 0.5560(4) 0.6025(4)
H8 H 0.6019 0.6244 0.5402
H9 H 0.5986 0.4952 0.6764
C7 C 0.51890(16) 0.6688(4) 0.6739(4)
H10 H 0.5373 0.7234 0.7626
H11 H 0.5033 0.7591 0.6063
C8 C 0.38341(16) 0.5403(4) 0.5161(4)
H12 H 0.3348 0.5360 0.4905
H13 H 0.4073 0.6123 0.4440
C9 C 0.39324(16) 0.6101(4) 0.6696(4)
H14 H 0.3911 0.7366 0.6704
H15 H 0.3585 0.5645 0.7367
loop_
_geom_bond_atom_site_label_1
_geom_bond_atom_site_label_2
_geom_bond_site_symmetry_1
_geom_bond_site_symmetry_2
Cl1 C1 1_555 1_555
Cl2 C1 1_555 1_555
Cl3 C1 1_555 1_555
C1 H1 1_555 1_555
B1 N1 1_555 1_555
N1 H2 1_555 1_555
O1 B1 1_555 1_555
O2 B1 1_555 1_555
C2 H3 1_555 1_555
H4 C2 1_555 1_555
C3 B1 1_555 1_555
C4 C3 1_555 1_555
H5 C4 1_555 1_555
C5 C4 1_555 1_555
H6 C5 1_555 1_555
H7 C5 1_555 1_555
C6 O1 1_555 1_555
H8 C6 1_555 1_555
H9 C6 1_555 1_555
C7 N1 1_555 1_555
H10 C7 1_555 1_555
H11 C7 1_555 1_555
C8 O2 1_555 1_555
H12 C8 1_555 1_555
H13 C8 1_555 1_555
C9 N1 1_555 1_555
H14 C9 1_555 1_555
H15 C9 1_555 1_555
C2 C3 1_555 1_555
C6 C7 1_555 1_555
C8 C9 1_555 1_555

#END
