
#######################################################################
#
#                 Cambridge Crystallographic Data Centre
#                                CCDC 
#
#######################################################################
#
# If this CIF has been generated from an entry in the Cambridge 
# Structural Database, then it will include bibliographic, chemical, 
# crystal, experimental, refinement or atomic coordinate data resulting 
# from the CCDC's data processing and validation procedures.
#
#######################################################################

data_BUHWOQ
_chemical_formula_moiety         'C18 H28 N2 2+,C1 H3 I1,2(I1 1-)'
_chemical_name_systematic        
"N,N'-(1,3-Azulenylene-bis(methylene))-bis(trimethylammonium) di-iodide iodomethane clathrate"
_symmetry_cell_setting           orthorhombic
_symmetry_space_group_name_H-M   'P n m a'
_symmetry_Int_Tables_number      62
_space_group_name_Hall           '-P 2ac 2n'
loop_
_symmetry_equiv_pos_site_id
_symmetry_equiv_pos_as_xyz
1 x,y,z
2 1/2-x,-y,1/2+z
3 1/2+x,1/2-y,1/2-z
4 -x,1/2+y,-z
5 -x,-y,-z
6 1/2+x,y,1/2-z
7 1/2-x,1/2+y,1/2+z
8 x,1/2-y,z
_cell_length_a                   19.007(3)
_cell_length_b                   17.305(8)
_cell_length_c                   7.555(3)
_cell_angle_alpha                90
_cell_angle_beta                 90
_cell_angle_gamma                90
_cell_volume                     2484.96
_exptl_crystal_colour            violet
_cell_formula_units_Z            4
loop_
_atom_site_label
_atom_site_type_symbol
_atom_site_fract_x
_atom_site_fract_y
_atom_site_fract_z
I1 I 0.11423 0.43478 0.19260
I2 I 0.20386 0.25000 0.66225
C1 C 0.11720 0.25000 0.49470
H1 H 0.08580 0.19830 0.51110
H2 H 0.13460 0.25000 0.35440
H1G H 0.08580 0.30170 0.51110
N1 N 0.34550 0.43600 0.19080
C2 C 0.34070 0.31610 -0.00650
C3 C 0.30900 0.25000 0.05830
C4 C 0.50680 0.25000 -0.41240
C5 C 0.48670 0.32230 -0.35750
C6 C 0.43490 0.34110 -0.23050
C7 C 0.39380 0.29240 -0.12510
C8 C 0.31720 0.39720 0.02400
C9 C 0.42450 0.43930 0.18700
C10 C 0.31750 0.51610 0.19740
C11 C 0.32170 0.39280 0.35370
H3 H 0.26780 0.25000 0.15680
H4 H 0.54840 0.25000 -0.51010
H5 H 0.51340 0.37040 -0.41900
H6 H 0.42550 0.40210 -0.21170
H7 H 0.33340 0.43130 -0.08860
H8 H 0.26040 0.39700 0.03230
H9 H 0.44520 0.38110 0.18260
H10 H 0.44300 0.46780 0.30530
H11 H 0.44140 0.47080 0.07200
H12 H 0.26040 0.51390 0.19980
H13 H 0.33440 0.54750 0.08200
H14 H 0.33610 0.54450 0.31530
H15 H 0.34210 0.33470 0.35020
H16 H 0.26490 0.39120 0.35670
H17 H 0.34100 0.42210 0.47030
C2G C 0.34070 0.18390 -0.00650
C7G C 0.39380 0.20760 -0.12510
C5G C 0.48670 0.17770 -0.35750
C8G C 0.31720 0.10280 0.02400
C6G C 0.43490 0.15890 -0.23050
H5G H 0.51340 0.12960 -0.41900
N1G N 0.34550 0.06400 0.19080
H7G H 0.33340 0.06870 -0.08860
H8G H 0.26040 0.10300 0.03230
H6G H 0.42550 0.09790 -0.21170
C9G C 0.42450 0.06070 0.18700
C10G C 0.31750 -0.01610 0.19740
C11G C 0.32170 0.10720 0.35370
H9G H 0.44520 0.11890 0.18260
H10G H 0.44300 0.03220 0.30530
H11G H 0.44140 0.02920 0.07200
H12G H 0.26040 -0.01390 0.19980
H13G H 0.33440 -0.04750 0.08200
H14G H 0.33610 -0.04450 0.31530
H15G H 0.34210 0.16530 0.35020
H16G H 0.26490 0.10880 0.35670
H17G H 0.34100 0.07790 0.47030
loop_
_geom_bond_atom_site_label_1
_geom_bond_atom_site_label_2
_geom_bond_site_symmetry_1
_geom_bond_site_symmetry_2
I2 C1 1_555 1_555
C1 H1 1_555 1_555
H2 C1 1_555 1_555
N1 C8 1_555 1_555
C2 C3 1_555 1_555
C3 H3 1_555 1_555
C4 C5 1_555 1_555
C5 C6 1_555 1_555
C6 C7 1_555 1_555
C7 C2 1_555 1_555
C8 C2 1_555 1_555
C9 N1 1_555 1_555
C10 N1 1_555 1_555
C11 N1 1_555 1_555
H4 C4 1_555 1_555
H5 C5 1_555 1_555
H6 C6 1_555 1_555
H7 C8 1_555 1_555
H8 C8 1_555 1_555
H9 C9 1_555 1_555
H10 C9 1_555 1_555
H11 C9 1_555 1_555
H12 C10 1_555 1_555
H13 C10 1_555 1_555
H14 C10 1_555 1_555
H15 C11 1_555 1_555
H16 C11 1_555 1_555
H17 C11 1_555 1_555
H1G C1 1_555 1_555
C2G C3 1_555 1_555
C7G C7 1_555 1_555
C5G C4 1_555 1_555
C8G C2G 1_555 1_555
C6G C7G 1_555 1_555
H5G C5G 1_555 1_555
N1G C8G 1_555 1_555
H7G C8G 1_555 1_555
H8G C8G 1_555 1_555
H6G C6G 1_555 1_555
C9G N1G 1_555 1_555
C10G N1G 1_555 1_555
C11G N1G 1_555 1_555
H9G C9G 1_555 1_555
H10G C9G 1_555 1_555
H11G C9G 1_555 1_555
H12G C10G 1_555 1_555
H13G C10G 1_555 1_555
H14G C10G 1_555 1_555
H15G C11G 1_555 1_555
H16G C11G 1_555 1_555
H17G C11G 1_555 1_555
C2G C7G 1_555 1_555
C5G C6G 1_555 1_555

#END
