
#######################################################################
#
#                 Cambridge Crystallographic Data Centre
#                                CCDC 
#
#######################################################################
#
# If this CIF has been generated from an entry in the Cambridge 
# Structural Database, then it will include bibliographic, chemical, 
# crystal, experimental, refinement or atomic coordinate data resulting 
# from the CCDC's data processing and validation procedures.
#
#######################################################################

data_BUJPAY
_chemical_formula_moiety         'C32 H32 N4 O4 S2'
_chemical_name_systematic        
4-Methyl-N-((1-(2-(((4-methylphenyl)sulfonyl)amino)ethyl)-4,5-diphenyl-1H-imidazol-2-yl)methyl)benzenesulfonamide
_symmetry_cell_setting           triclinic
_symmetry_space_group_name_H-M   'P -1'
_symmetry_Int_Tables_number      2
_space_group_name_Hall           '-P 1'
loop_
_symmetry_equiv_pos_site_id
_symmetry_equiv_pos_as_xyz
1 x,y,z
2 -x,-y,-z
_cell_length_a                   10.2330(16)
_cell_length_b                   10.8187(17)
_cell_length_c                   15.153(3)
_cell_angle_alpha                94.647(2)
_cell_angle_beta                 101.098(2)
_cell_angle_gamma                112.845(2)
_cell_volume                     1494.39
_exptl_crystal_colour            colorless
_exptl_crystal_description       block
_cell_formula_units_Z            2
loop_
_atom_site_label
_atom_site_type_symbol
_atom_site_fract_x
_atom_site_fract_y
_atom_site_fract_z
C1 C 0.7314(3) 0.7590(3) 0.69948(19)
C2 C 0.8783(3) 0.7968(3) 0.70813(19)
C3 C 1.0038(3) 0.8945(3) 0.7794(2)
C4 C 1.0105(3) 0.8801(3) 0.8696(2)
H1 H 0.9343 0.8105 0.8845
C5 C 1.1288(4) 0.9675(4) 0.9382(2)
H2 H 1.1322 0.9567 0.9987
C6 C 1.2414(4) 1.0708(4) 0.9165(3)
H3 H 1.3220 1.1287 0.9625
C7 C 1.2359(4) 1.0889(4) 0.8284(3)
H4 H 1.3119 1.1600 0.8144
C8 C 1.1174(3) 1.0017(3) 0.7592(2)
H5 H 1.1138 1.0148 0.6990
C9 C 0.6593(3) 0.8189(3) 0.75344(19)
C10 C 0.5407(3) 0.7367(3) 0.7830(2)
H6 H 0.5054 0.6426 0.7680
C11 C 0.4736(4) 0.7934(5) 0.8348(3)
H7 H 0.3935 0.7371 0.8543
C12 C 0.5246(5) 0.9320(5) 0.8575(3)
H8 H 0.4801 0.9697 0.8929
C13 C 0.6423(5) 1.0155(4) 0.8274(3)
H9 H 0.6764 1.1096 0.8418
C14 C 0.7087(4) 0.9595(3) 0.7765(2)
H10 H 0.7884 1.0163 0.7569
N1 N 0.6525(2) 0.6481(2) 0.62935(16)
C15 C 0.7503(3) 0.6206(3) 0.59614(19)
C16 C 0.7124(3) 0.5055(3) 0.52080(19)
H11 H 0.8003 0.4922 0.5189
H12 H 0.6435 0.4233 0.5353
N2 N 0.6495(3) 0.5224(2) 0.43007(17)
S1 S 0.73378(8) 0.64076(7) 0.37893(5)
O1 O 0.6701(2) 0.5959(2) 0.28327(14)
O2 O 0.8875(2) 0.6771(2) 0.41318(14)
C17 C 0.7039(3) 0.7868(3) 0.4084(2)
C18 C 0.5807(3) 0.7986(4) 0.3596(2)
H13 H 0.5105 0.7265 0.3156
C19 C 0.5631(4) 0.9165(4) 0.3767(3)
H14 H 0.4817 0.9245 0.3426
C20 C 0.6629(4) 1.0238(4) 0.4431(3)
C21 C 0.7816(4) 1.0090(3) 0.4941(2)
H15 H 0.8485 1.0791 0.5406
C22 C 0.8022(3) 0.8917(3) 0.4770(2)
H16 H 0.8827 0.8832 0.5119
C23 C 0.6441(4) 1.1551(4) 0.4582(3)
H17 H 0.6726 1.2065 0.4111
H18 H 0.7043 1.2074 0.5166
H19 H 0.5435 1.1349 0.4564
N3 N 0.8888(2) 0.7080(2) 0.64109(16)
C24 C 1.0251(3) 0.7026(3) 0.6284(2)
H20 H 1.0989 0.7947 0.6361
H21 H 1.0086 0.6584 0.5664
C25 C 1.0820(3) 0.6271(3) 0.6942(2)
H22 H 1.1763 0.6343 0.6860
H23 H 1.0964 0.6698 0.7561
N4 N 0.9827(3) 0.4824(3) 0.68158(19)
S2 S 0.90296(9) 0.42661(10) 0.76189(7)
O3 O 0.8272(3) 0.5088(3) 0.77956(19)
O4 O 0.8252(3) 0.2829(3) 0.7326(2)
C26 C 1.0406(3) 0.4584(3) 0.8599(2)
C27 C 1.0960(4) 0.5796(4) 0.9215(3)
H24 H 1.0552 0.6423 0.9129
C28 C 1.2116(5) 0.6071(4) 0.9954(3)
H25 H 1.2480 0.6891 1.0356
C29 C 1.2739(4) 0.5183(5) 1.0113(3)
C30 C 1.2167(4) 0.3979(4) 0.9518(3)
H26 H 1.2560 0.3346 0.9627
C31 C 1.1025(4) 0.3669(4) 0.8758(3)
H27 H 1.0678 0.2850 0.8357
C32 C 1.4010(4) 0.5519(5) 1.0922(3)
H28 H 1.4824 0.5478 1.0714
H29 H 1.3733 0.4873 1.1324
H30 H 1.4284 0.6419 1.1243
H31 H 0.555(4) 0.475(3) 0.405(2)
H32 H 1.007(3) 0.421(3) 0.658(2)
loop_
_geom_bond_atom_site_label_1
_geom_bond_atom_site_label_2
_geom_bond_site_symmetry_1
_geom_bond_site_symmetry_2
C1 C2 1_555 1_555
C2 C3 1_555 1_555
C3 C4 1_555 1_555
C4 H1 1_555 1_555
C5 C4 1_555 1_555
H2 C5 1_555 1_555
C6 C5 1_555 1_555
H3 C6 1_555 1_555
C7 C6 1_555 1_555
H4 C7 1_555 1_555
C8 C3 1_555 1_555
H5 C8 1_555 1_555
C9 C1 1_555 1_555
C10 C9 1_555 1_555
H6 C10 1_555 1_555
C11 C10 1_555 1_555
H7 C11 1_555 1_555
C12 C11 1_555 1_555
H8 C12 1_555 1_555
C13 C12 1_555 1_555
H9 C13 1_555 1_555
C14 C9 1_555 1_555
H10 C14 1_555 1_555
N1 C1 1_555 1_555
C15 N1 1_555 1_555
C16 C15 1_555 1_555
H11 C16 1_555 1_555
H12 C16 1_555 1_555
N2 C16 1_555 1_555
S1 N2 1_555 1_555
O1 S1 1_555 1_555
O2 S1 1_555 1_555
C17 S1 1_555 1_555
C18 C17 1_555 1_555
H13 C18 1_555 1_555
C19 C18 1_555 1_555
H14 C19 1_555 1_555
C20 C19 1_555 1_555
C21 C20 1_555 1_555
H15 C21 1_555 1_555
C22 C17 1_555 1_555
H16 C22 1_555 1_555
C23 C20 1_555 1_555
H17 C23 1_555 1_555
H18 C23 1_555 1_555
H19 C23 1_555 1_555
N3 C2 1_555 1_555
C24 N3 1_555 1_555
H20 C24 1_555 1_555
H21 C24 1_555 1_555
C25 C24 1_555 1_555
H22 C25 1_555 1_555
H23 C25 1_555 1_555
N4 C25 1_555 1_555
S2 N4 1_555 1_555
O3 S2 1_555 1_555
O4 S2 1_555 1_555
C26 S2 1_555 1_555
C27 C26 1_555 1_555
H24 C27 1_555 1_555
C28 C27 1_555 1_555
H25 C28 1_555 1_555
C29 C28 1_555 1_555
C30 C29 1_555 1_555
H26 C30 1_555 1_555
C31 C26 1_555 1_555
H27 C31 1_555 1_555
C32 C29 1_555 1_555
H28 C32 1_555 1_555
H29 C32 1_555 1_555
H30 C32 1_555 1_555
H31 N2 1_555 1_555
H32 N4 1_555 1_555
C7 C8 1_555 1_555
C13 C14 1_555 1_555
C15 N3 1_555 1_555
C21 C22 1_555 1_555
C30 C31 1_555 1_555

#END
