
#######################################################################
#
#                 Cambridge Crystallographic Data Centre
#                                CCDC 
#
#######################################################################
#
# If this CIF has been generated from an entry in the Cambridge 
# Structural Database, then it will include bibliographic, chemical, 
# crystal, experimental, refinement or atomic coordinate data resulting 
# from the CCDC's data processing and validation procedures.
#
#######################################################################

data_BUKYOX
_chemical_name_common            'theophylline bis(acesulfame)'
_chemical_formula_moiety         'C7 H8 N4 O2,C4 H5 N1 O4 S1,C4 H5 N1 O4 S1'
_chemical_name_systematic        
'(1,3-dimethyl-3,7-dihydro-1H-purine-2,6-dione) (6-methyl-1,2,3-oxathiazin-4-ol 2,2-dioxide) (6-methyl-1,2,3-oxathiazin-4(3H)-one 2,2-dioxide)'
_symmetry_cell_setting           triclinic
_symmetry_space_group_name_H-M   'P -1'
_symmetry_Int_Tables_number      2
_space_group_name_Hall           '-P 1'
loop_
_symmetry_equiv_pos_site_id
_symmetry_equiv_pos_as_xyz
1 x,y,z
2 -x,-y,-z
_cell_length_a                   14.3618
_cell_length_b                   9.8964
_cell_length_c                   7.6483
_cell_angle_alpha                93.7732
_cell_angle_beta                 90.8168
_cell_angle_gamma                102.2360
_cell_volume                     1059.61
_cell_formula_units_Z            2
loop_
_atom_site_label
_atom_site_type_symbol
_atom_site_fract_x
_atom_site_fract_y
_atom_site_fract_z
S1 S 0.37210 0.83142 0.84751
O1 O 0.34900 0.90114 1.04692
C1 C 0.29587 1.00137 1.05459
C2 C 0.24114 1.02032 0.91506
C3 C 0.22629 0.92107 0.76843
N1 N 0.27569 0.82388 0.73394
C4 C 0.29915 1.07557 1.22938
O2 O 0.14928 0.92180 0.66670
O3 O 0.38418 0.69506 0.88294
O4 O 0.45265 0.93070 0.78709
H1 H 0.19586 1.09601 0.92534
H2 H 0.28530 1.17863 1.21438
H3 H 0.24210 1.02138 1.31061
H4 H 0.36716 1.08223 1.29963
H5 H 0.14382 0.85067 0.56808
N2 N 0.97765 0.32892 1.13022
C5 C 0.89946 0.39277 1.10118
C6 C 0.85849 0.35327 0.93124
C7 C 0.89113 0.26407 0.81114
N3 N 0.96241 0.19819 0.85448
C8 C 1.00902 0.23065 1.01734
N4 N 0.84400 0.25323 0.65351
C9 C 0.78327 0.33850 0.67816
N5 N 0.78899 0.40067 0.84249
C10 C 0.98970 0.09288 0.73559
O5 O 1.07474 0.17477 1.06080
C11 C 1.03197 0.37011 1.29431
O6 O 0.87479 0.47398 1.21422
H6 H 0.73621 0.36060 0.57703
H7 H 0.74984 0.47122 0.89281
H8 H 1.04777 0.13860 0.65225
H9 H 0.92758 0.04116 0.65416
H10 H 1.01539 0.01937 0.81526
H11 H 1.00145 0.45208 1.35898
H12 H 1.10727 0.40957 1.26677
H13 H 1.02536 0.28264 1.37743
S2 S 0.28724 0.36241 1.57759
O7 O 0.35942 0.25518 1.56693
C12 C 0.43413 0.27870 1.69078
C13 C 0.42766 0.34109 1.85150
C14 C 0.34456 0.38545 1.91481
N6 N 0.26945 0.37108 1.79046
O8 O 0.33561 0.43192 2.06749
C15 C 0.51864 0.22581 1.63179
O9 O 0.19886 0.29409 1.49102
O10 O 0.33982 0.49296 1.52652
H14 H 0.48812 0.35576 1.94295
H15 H 0.20110 0.36996 1.82976
H16 H 0.50802 0.11455 1.65200
H17 H 0.52858 0.23661 1.49086
H18 H 0.58201 0.28129 1.70854
loop_
_geom_bond_atom_site_label_1
_geom_bond_atom_site_label_2
_geom_bond_site_symmetry_1
_geom_bond_site_symmetry_2
S1 O1 1_555 1_555
O1 C1 1_555 1_555
C1 C2 1_555 1_555
C2 C3 1_555 1_555
C3 N1 1_555 1_555
N1 S1 1_555 1_555
C4 C1 1_555 1_555
O2 C3 1_555 1_555
O3 S1 1_555 1_555
O4 S1 1_555 1_555
H1 C2 1_555 1_555
H2 C4 1_555 1_555
H3 C4 1_555 1_555
H4 C4 1_555 1_555
H5 O2 1_555 1_555
N2 C5 1_555 1_555
C5 C6 1_555 1_555
C6 C7 1_555 1_555
C7 N3 1_555 1_555
N3 C8 1_555 1_555
C8 N2 1_555 1_555
N4 C7 1_555 1_555
C9 N4 1_555 1_555
N5 C6 1_555 1_555
C10 N3 1_555 1_555
O5 C8 1_555 1_555
C11 N2 1_555 1_555
O6 C5 1_555 1_555
H6 C9 1_555 1_555
H7 N5 1_555 1_555
H8 C10 1_555 1_555
H9 C10 1_555 1_555
H10 C10 1_555 1_555
H11 C11 1_555 1_555
H12 C11 1_555 1_555
H13 C11 1_555 1_555
S2 O7 1_555 1_555
O7 C12 1_555 1_555
C12 C13 1_555 1_555
C13 C14 1_555 1_555
C14 N6 1_555 1_555
N6 S2 1_555 1_555
O8 C14 1_555 1_555
C15 C12 1_555 1_555
O9 S2 1_555 1_555
O10 S2 1_555 1_555
H14 C13 1_555 1_555
H15 N6 1_555 1_555
H16 C15 1_555 1_555
H17 C15 1_555 1_555
H18 C15 1_555 1_555
C9 N5 1_555 1_555

#END
