
#######################################################################
#
#                 Cambridge Crystallographic Data Centre
#                                CCDC 
#
#######################################################################
#
# If this CIF has been generated from an entry in the Cambridge 
# Structural Database, then it will include bibliographic, chemical, 
# crystal, experimental, refinement or atomic coordinate data resulting 
# from the CCDC's data processing and validation procedures.
#
#######################################################################

data_BULFUL
_chemical_formula_moiety         'C35 H36 N6 2+,2(C8 H1 F4 O4 1-)'
_chemical_name_systematic        
'3,4,21,22-tetraethyl-29,31,32,33-tetraaza-28,30-diazoniaheptacyclo[22.3.1.12,5.16,10.111,14.115,19.120,23]tritriaconta-1(28),2,4,6(32),7,9,11,13,15(30),16,18,20,22,24,26-pentadecaene bis(hydrogen tetrafluoroterephthalate) unknown solvate'
_symmetry_cell_setting           monoclinic
_symmetry_space_group_name_H-M   'P 21/c'
_symmetry_Int_Tables_number      14
_space_group_name_Hall           '-P 2ybc'
loop_
_symmetry_equiv_pos_site_id
_symmetry_equiv_pos_as_xyz
1 x,y,z
2 -x,1/2+y,1/2-z
3 -x,-y,-z
4 x,1/2-y,1/2+z
_cell_length_a                   10.5098(5)
_cell_length_b                   36.1310(17)
_cell_length_c                   13.4223(6)
_cell_angle_alpha                90
_cell_angle_beta                 104.468(3)
_cell_angle_gamma                90
_cell_volume                     4935.21
_exptl_crystal_colour            red
_exptl_crystal_description       plate
_cell_formula_units_Z            4
_exptl_crystal_recrystallization_method chloroform/hexane/methanol
loop_
_atom_site_label
_atom_site_type_symbol
_atom_site_fract_x
_atom_site_fract_y
_atom_site_fract_z
C1 C 0.5484(5) 0.14662(14) 0.2877(4)
C2 C 0.6822(5) 0.14996(15) 0.3062(4)
H1 H 0.7363 0.1286 0.3196
C3 C 0.7378(5) 0.18431(15) 0.3055(4)
H2 H 0.8307 0.1866 0.3199
C4 C 0.6598(5) 0.21569(15) 0.2838(4)
H3 H 0.6991 0.2392 0.2814
C5 C 0.5237(5) 0.21264(14) 0.2656(4)
C6 C 0.4342(5) 0.24340(14) 0.2422(4)
C7 C 0.4537(5) 0.28129(14) 0.2583(4)
C8 C 0.3282(5) 0.29899(14) 0.2223(4)
C9 C 0.2371(5) 0.27096(14) 0.1867(4)
C10 C 0.0952(5) 0.27047(15) 0.1406(4)
C11 C 0.0165(6) 0.30237(17) 0.1112(4)
H4 H 0.0540 0.3264 0.1193
C12 C -0.1158(6) 0.29736(17) 0.0705(4)
H5 H -0.1714 0.3182 0.0506
C13 C -0.1679(6) 0.26236(18) 0.0586(4)
H6 H -0.2593 0.2589 0.0298
C14 C -0.0866(5) 0.23216(15) 0.0887(4)
C15 C -0.1323(5) 0.19390(16) 0.0821(4)
C16 C -0.2566(5) 0.17791(18) 0.0593(4)
H7 H -0.3381 0.1907 0.0414
C17 C -0.2401(5) 0.14003(18) 0.0674(4)
H8 H -0.3082 0.1220 0.0559
C18 C -0.1050(5) 0.13300(16) 0.0958(4)
C19 C -0.0375(5) 0.09851(16) 0.1157(4)
C20 C -0.0954(6) 0.06434(18) 0.0873(5)
H9 H -0.1862 0.0629 0.0534
C21 C -0.0204(6) 0.03228(19) 0.1084(5)
H10 H -0.0603 0.0088 0.0900
C22 C 0.1122(6) 0.03438(16) 0.1562(5)
H11 H 0.1639 0.0125 0.1691
C23 C 0.1684(5) 0.06836(15) 0.1848(4)
C24 C 0.3047(5) 0.07556(15) 0.2356(4)
C25 C 0.3951(5) 0.05657(15) 0.3120(4)
C26 C 0.5063(5) 0.07978(15) 0.3432(4)
C27 C 0.4783(5) 0.11197(14) 0.2846(4)
C28 C 0.5789(5) 0.30128(15) 0.3072(4)
H12 H 0.6371 0.2846 0.3568
H13 H 0.5585 0.3229 0.3458
C29 C 0.6517(6) 0.31458(19) 0.2279(6)
H14 H 0.6651 0.2937 0.1852
H15 H 0.7370 0.3250 0.2637
H16 H 0.5993 0.3336 0.1841
C30 C 0.3044(6) 0.33946(15) 0.2272(4)
H17 H 0.3747 0.3503 0.2827
H18 H 0.2199 0.3433 0.2456
C31 C 0.3003(6) 0.36027(17) 0.1254(5)
H19 H 0.3871 0.3592 0.1110
H20 H 0.2759 0.3862 0.1321
H21 H 0.2353 0.3486 0.0690
C32 C 0.3771(6) 0.01933(16) 0.3555(5)
H22 H 0.2821 0.0138 0.3421
H23 H 0.4139 0.0198 0.4310
C33 C 0.4448(9) -0.0112(2) 0.3084(9)
H24 H 0.4073 -0.0120 0.2338
H25 H 0.4311 -0.0352 0.3386
H26 H 0.5391 -0.0061 0.3226
C34 C 0.6224(6) 0.07378(17) 0.4318(5)
H27 H 0.7033 0.0793 0.4094
H28 H 0.6255 0.0474 0.4520
C35 C 0.6209(7) 0.0978(2) 0.5261(5)
H29 H 0.6296 0.1239 0.5094
H30 H 0.6944 0.0907 0.5837
H31 H 0.5379 0.0940 0.5455
N1 N 0.4743(4) 0.17817(11) 0.2698(3)
H32 H 0.3887 0.1759 0.2605
N2 N 0.3563(4) 0.10868(11) 0.2195(3)
H33 H 0.3174 0.1254 0.1744
N3 N 0.0913(4) 0.09884(12) 0.1666(3)
H34 H 0.1271 0.1202 0.1891
N4 N -0.0425(4) 0.16636(12) 0.1033(3)
H35 H 0.0433 0.1695 0.1195
N5 N 0.0434(4) 0.23631(12) 0.1287(3)
N6 N 0.3007(4) 0.23783(11) 0.2004(3)
H36 H 0.2629 0.2161 0.1851
C36 C 0.1396(5) 0.17538(14) 0.3424(4)
C37 C 0.1800(5) 0.21300(13) 0.3894(4)
C38 C 0.3089(5) 0.22076(14) 0.4398(4)
C39 C 0.3479(5) 0.25558(14) 0.4756(4)
C40 C 0.2619(5) 0.28403(14) 0.4686(4)
C41 C 0.1322(5) 0.27651(14) 0.4217(4)
C42 C 0.0922(5) 0.24183(14) 0.3813(4)
C43 C 0.3034(5) 0.32166(14) 0.5148(4)
O1 O 0.0450(3) 0.16023(9) 0.3672(3)
O2 O 0.2028(3) 0.16311(9) 0.2820(3)
O3 O 0.2471(3) 0.33468(9) 0.5789(3)
O4 O 0.3979(4) 0.33604(10) 0.4868(3)
F1 F 0.4007(3) 0.19385(8) 0.4525(2)
F2 F 0.4775(3) 0.26062(8) 0.5224(2)
F3 F -0.0357(3) 0.23729(8) 0.3330(2)
F4 F 0.0394(3) 0.30332(8) 0.4089(2)
C44 C 0.3825(5) 0.07322(15) -0.0063(4)
C45 C 0.4429(5) 0.03518(14) -0.0020(4)
C46 C 0.3890(5) 0.00874(15) -0.0730(4)
C47 C 0.4445(5) -0.02567(15) -0.0724(4)
O5 O 0.2638(4) 0.07722(10) -0.0182(3)
O6 O 0.4685(3) 0.09971(10) 0.0052(3)
F5 F 0.2825(3) 0.01649(9) -0.1491(2)
F6 F 0.3893(3) -0.04975(8) -0.1467(2)
C44B C 0.6175(5) -0.07322(15) 0.0063(4)
C45B C 0.5571(5) -0.03518(14) 0.0020(4)
C46B C 0.6110(5) -0.00874(15) 0.0730(4)
C47B C 0.5555(5) 0.02567(15) 0.0724(4)
O5B O 0.7362(4) -0.07722(10) 0.0182(3)
O6B O 0.5315(3) -0.09971(10) -0.0052(3)
F5B F 0.7175(3) -0.01649(9) 0.1491(2)
F6B F 0.6107(3) 0.04975(8) 0.1467(2)
C48 C 0.0086(8) 0.0799(2) 0.4630(7)
C49 C 0.0120(6) 0.03725(17) 0.4777(5)
C50 C -0.0796(6) 0.01524(15) 0.4139(4)
C51 C -0.0894(6) -0.02090(17) 0.4350(5)
O7 O 0.0223(5) 0.09033(13) 0.3824(4)
O8 O -0.0125(6) 0.10083(15) 0.5323(4)
F7 F -0.1587(3) 0.02973(9) 0.3278(2)
F8 F -0.1803(4) -0.04133(10) 0.3687(3)
C48B C -0.0086(8) -0.0799(2) 0.5370(7)
C49B C -0.0120(6) -0.03725(17) 0.5223(5)
C50B C 0.0796(6) -0.01524(15) 0.5861(4)
C51B C 0.0894(6) 0.02090(17) 0.5650(5)
O7B O -0.0223(5) -0.09033(13) 0.6176(4)
O8B O 0.0125(6) -0.10083(15) 0.4677(4)
F7B F 0.1587(3) -0.02973(9) 0.6722(2)
F8B F 0.1803(4) 0.04133(10) 0.6313(3)
loop_
_geom_bond_atom_site_label_1
_geom_bond_atom_site_label_2
_geom_bond_site_symmetry_1
_geom_bond_site_symmetry_2
C1 C2 1_555 1_555
C2 H1 1_555 1_555
C3 C2 1_555 1_555
H2 C3 1_555 1_555
C4 C3 1_555 1_555
H3 C4 1_555 1_555
C5 C4 1_555 1_555
C6 C5 1_555 1_555
C7 C6 1_555 1_555
C8 C7 1_555 1_555
C9 C8 1_555 1_555
C10 C9 1_555 1_555
C11 C10 1_555 1_555
H4 C11 1_555 1_555
C12 C11 1_555 1_555
H5 C12 1_555 1_555
C13 C12 1_555 1_555
H6 C13 1_555 1_555
C14 C13 1_555 1_555
C15 C14 1_555 1_555
C16 C15 1_555 1_555
H7 C16 1_555 1_555
C17 C16 1_555 1_555
H8 C17 1_555 1_555
C18 C17 1_555 1_555
C19 C18 1_555 1_555
C20 C19 1_555 1_555
H9 C20 1_555 1_555
C21 C20 1_555 1_555
H10 C21 1_555 1_555
C22 C21 1_555 1_555
H11 C22 1_555 1_555
C23 C22 1_555 1_555
C24 C23 1_555 1_555
C25 C24 1_555 1_555
C26 C25 1_555 1_555
C27 C1 1_555 1_555
C28 C7 1_555 1_555
H12 C28 1_555 1_555
H13 C28 1_555 1_555
C29 C28 1_555 1_555
H14 C29 1_555 1_555
H15 C29 1_555 1_555
H16 C29 1_555 1_555
C30 C8 1_555 1_555
H17 C30 1_555 1_555
H18 C30 1_555 1_555
C31 C30 1_555 1_555
H19 C31 1_555 1_555
H20 C31 1_555 1_555
H21 C31 1_555 1_555
C32 C25 1_555 1_555
H22 C32 1_555 1_555
H23 C32 1_555 1_555
C33 C32 1_555 1_555
H24 C33 1_555 1_555
H25 C33 1_555 1_555
H26 C33 1_555 1_555
C34 C26 1_555 1_555
H27 C34 1_555 1_555
H28 C34 1_555 1_555
C35 C34 1_555 1_555
H29 C35 1_555 1_555
H30 C35 1_555 1_555
H31 C35 1_555 1_555
N1 C1 1_555 1_555
H32 N1 1_555 1_555
N2 C24 1_555 1_555
H33 N2 1_555 1_555
N3 C19 1_555 1_555
H34 N3 1_555 1_555
N4 C15 1_555 1_555
H35 N4 1_555 1_555
N5 C10 1_555 1_555
N6 C6 1_555 1_555
H36 N6 1_555 1_555
C36 C37 1_555 1_555
C37 C38 1_555 1_555
C38 C39 1_555 1_555
C39 C40 1_555 1_555
C40 C41 1_555 1_555
C41 C42 1_555 1_555
C42 C37 1_555 1_555
C43 C40 1_555 1_555
O1 C36 1_555 1_555
O2 C36 1_555 1_555
O3 C43 1_555 1_555
O4 C43 1_555 1_555
F1 C38 1_555 1_555
F2 C39 1_555 1_555
F3 C42 1_555 1_555
F4 C41 1_555 1_555
C44 C45 1_555 1_555
C45 C46 1_555 1_555
C46 C47 1_555 1_555
C47 F6 1_555 1_555
O5 C44 1_555 1_555
O6 C44 1_555 1_555
F5 C46 1_555 1_555
C48 C49 1_555 1_555
C49 C50 1_555 1_555
C50 C51 1_555 1_555
C51 F8 1_555 1_555
O7 C48 1_555 1_555
O8 C48 1_555 1_555
F7 C50 1_555 1_555
C44B C45B 1_555 1_555
C45B C47 1_555 1_555
C46B C45B 1_555 1_555
C47B C45 1_555 1_555
O5B C44B 1_555 1_555
O6B C44B 1_555 1_555
F5B C46B 1_555 1_555
F6B C47B 1_555 1_555
C48B C49B 1_555 1_555
C49B C51 1_555 1_555
C50B C49B 1_555 1_555
C51B C49 1_555 1_555
O7B C48B 1_555 1_555
O8B C48B 1_555 1_555
F7B C50B 1_555 1_555
F8B C51B 1_555 1_555
C5 N1 1_555 1_555
C9 N6 1_555 1_555
C14 N5 1_555 1_555
C18 N4 1_555 1_555
C23 N3 1_555 1_555
C26 C27 1_555 1_555
C27 N2 1_555 1_555
C46B C47B 1_555 1_555
C50B C51B 1_555 1_555

#END
