
#######################################################################
#
#                 Cambridge Crystallographic Data Centre
#                                CCDC 
#
#######################################################################
#
# If this CIF has been generated from an entry in the Cambridge 
# Structural Database, then it will include bibliographic, chemical, 
# crystal, experimental, refinement or atomic coordinate data resulting 
# from the CCDC's data processing and validation procedures.
#
#######################################################################

data_BUNBOD
_chemical_formula_moiety         'C21 H24 O6'
_chemical_name_systematic        
'methyl 1,11-dimethyl-6,13-dioxo-5,16-dioxahexacyclo[12.5.0.0^2,7^.0^4,19^.0^7,12^.0^15,19^]nonadec-17-ene-11-carboxylate'
_symmetry_cell_setting           orthorhombic
_symmetry_space_group_name_H-M   'P 21 21 21'
_symmetry_Int_Tables_number      19
_space_group_name_Hall           'P 2ac 2ab'
loop_
_symmetry_equiv_pos_site_id
_symmetry_equiv_pos_as_xyz
1 x,y,z
2 1/2-x,-y,1/2+z
3 -x,1/2+y,1/2-z
4 1/2+x,1/2-y,-z
_cell_length_a                   6.4773(5)
_cell_length_b                   12.3883(9)
_cell_length_c                   22.3542(18)
_cell_angle_alpha                90
_cell_angle_beta                 90
_cell_angle_gamma                90
_cell_volume                     1793.76
_exptl_crystal_colour            colorless
_exptl_crystal_description       'needle crystal'
_cell_formula_units_Z            4
loop_
_atom_site_label
_atom_site_type_symbol
_atom_site_fract_x
_atom_site_fract_y
_atom_site_fract_z
O1 O 0.4812(4) 0.69229(18) 0.21596(11)
O2 O 0.4943(4) 0.6725(3) 0.12006(13)
O3 O 0.7765(4) 0.38209(18) 0.16012(10)
O4 O 0.5383(4) 0.42929(18) 0.32215(10)
O5 O 1.0836(4) 0.4082(2) 0.01247(11)
O6 O 1.2064(4) 0.4143(2) 0.10506(11)
C1 C 0.9146(6) 0.7624(3) 0.12740(15)
H1 H 0.8376 0.8280 0.1354
H2 H 1.0572 0.7755 0.1385
C2 C 0.9055(7) 0.7391(3) 0.06037(16)
H3 H 0.7628 0.7315 0.0479
H4 H 0.9656 0.7989 0.0384
C3 C 1.0223(6) 0.6366(3) 0.04633(14)
H5 H 1.1644 0.6446 0.0593
H6 H 1.0230 0.6255 0.0034
C4 C 0.9276(5) 0.5363(3) 0.07698(13)
C5 C 0.9154(5) 0.5602(2) 0.14532(12)
H7 H 1.0606 0.5627 0.1576
C6 C 0.8285(5) 0.4666(3) 0.18142(15)
C7 C 0.8159(5) 0.4832(2) 0.24859(14)
H8 H 0.8850 0.4239 0.2696
C8 C 0.8821(5) 0.5944(2) 0.27556(13)
C9 C 0.9085(5) 0.6896(2) 0.23183(14)
H9 H 1.0535 0.7121 0.2306
C10 C 0.8279(5) 0.6710(2) 0.16766(14)
C11 C 0.7780(5) 0.7768(2) 0.26243(16)
H10 H 0.8398 0.8008 0.2997
H11 H 0.7557 0.8385 0.2365
C12 C 0.5816(5) 0.7147(3) 0.27300(16)
H12 H 0.4891 0.7534 0.3002
C13 C 0.6575(5) 0.6096(3) 0.30071(14)
C14 C 0.6191(6) 0.5898(3) 0.36584(15)
H13 H 0.6365 0.6402 0.3963
C15 C 0.5572(6) 0.4900(3) 0.37302(15)
H14 H 0.5277 0.4618 0.4106
C16 C 0.5944(5) 0.4991(2) 0.27307(14)
H15 H 0.4885 0.5045 0.2419
C17 C 1.0584(5) 0.5886(3) 0.32047(15)
H16 H 1.1821 0.5656 0.3005
H17 H 1.0242 0.5379 0.3514
H18 H 1.0800 0.6585 0.3378
C18 C 1.0852(6) 0.4464(3) 0.06851(14)
C19 C 0.7217(6) 0.5056(3) 0.04672(15)
H19 H 0.7468 0.4861 0.0058
H20 H 0.6291 0.5660 0.0481
H21 H 0.6611 0.4455 0.0674
C20 C 0.5906(6) 0.6773(3) 0.16539(17)
C21 C 1.2408(8) 0.3314(4) -0.00278(19)
H22 H 1.3739 0.3652 -0.0001
H23 H 1.2190 0.3062 -0.0429
H24 H 1.2348 0.2715 0.0244
loop_
_geom_bond_atom_site_label_1
_geom_bond_atom_site_label_2
_geom_bond_site_symmetry_1
_geom_bond_site_symmetry_2
O1 C12 1_555 1_555
O2 C20 1_555 1_555
O3 C6 1_555 1_555
O4 C15 1_555 1_555
O5 C18 1_555 1_555
O6 C18 1_555 1_555
C1 H1 1_555 1_555
H2 C1 1_555 1_555
C2 C1 1_555 1_555
H3 C2 1_555 1_555
H4 C2 1_555 1_555
C3 C2 1_555 1_555
H5 C3 1_555 1_555
H6 C3 1_555 1_555
C4 C3 1_555 1_555
C5 C4 1_555 1_555
H7 C5 1_555 1_555
C6 C5 1_555 1_555
C7 C6 1_555 1_555
H8 C7 1_555 1_555
C8 C7 1_555 1_555
C9 C8 1_555 1_555
H9 C9 1_555 1_555
C10 C1 1_555 1_555
C11 C9 1_555 1_555
H10 C11 1_555 1_555
H11 C11 1_555 1_555
C12 C11 1_555 1_555
H12 C12 1_555 1_555
C13 C8 1_555 1_555
C14 C13 1_555 1_555
H13 C14 1_555 1_555
C15 C14 1_555 1_555
H14 C15 1_555 1_555
C16 O4 1_555 1_555
H15 C16 1_555 1_555
C17 C8 1_555 1_555
H16 C17 1_555 1_555
H17 C17 1_555 1_555
H18 C17 1_555 1_555
C18 C4 1_555 1_555
C19 C4 1_555 1_555
H19 C19 1_555 1_555
H20 C19 1_555 1_555
H21 C19 1_555 1_555
C20 O1 1_555 1_555
C21 O5 1_555 1_555
H22 C21 1_555 1_555
H23 C21 1_555 1_555
H24 C21 1_555 1_555
C5 C10 1_555 1_555
C7 C16 1_555 1_555
C9 C10 1_555 1_555
C10 C20 1_555 1_555
C12 C13 1_555 1_555
C13 C16 1_555 1_555

#END
