
#######################################################################
#
#                 Cambridge Crystallographic Data Centre
#                                CCDC 
#
#######################################################################
#
# If this CIF has been generated from an entry in the Cambridge 
# Structural Database, then it will include bibliographic, chemical, 
# crystal, experimental, refinement or atomic coordinate data resulting 
# from the CCDC's data processing and validation procedures.
#
#######################################################################

data_BUNYEQ
_chemical_compound_source        'Sophora tonkinensis'
_chemical_formula_moiety         'C15 H22 N2 O2'
_chemical_name_systematic        5-hydroxy-12,13-didehydromatridin-15-one
_chemical_properties_biological  'antiviral activity'
_symmetry_cell_setting           monoclinic
_symmetry_space_group_name_H-M   'P 21'
_symmetry_Int_Tables_number      4
_space_group_name_Hall           'P 2yb'
loop_
_symmetry_equiv_pos_site_id
_symmetry_equiv_pos_as_xyz
1 x,y,z
2 -x,1/2+y,-z
_cell_length_a                   6.62720(10)
_cell_length_b                   14.2719(2)
_cell_length_c                   7.24420(10)
_cell_angle_alpha                90
_cell_angle_beta                 103.27
_cell_angle_gamma                90
_cell_volume                     666.881
_exptl_crystal_description       25CUBA
_cell_formula_units_Z            2
loop_
_atom_site_label
_atom_site_type_symbol
_atom_site_fract_x
_atom_site_fract_y
_atom_site_fract_z
O1 O -0.19934(15) 1.02048(8) 0.49325(15)
O2 O 0.34943(13) 1.00892(7) 0.43938(11)
H1 H 0.4757 1.0129 0.4557
N1 N 0.26574(16) 0.86574(8) -0.00205(14)
N2 N -0.03400(14) 0.91530(7) 0.34764(14)
C1 C 0.3369(2) 0.77231(11) -0.0447(2)
H2 H 0.4873 0.7712 -0.0138
H3 H 0.2896 0.7602 -0.1795
C2 C 0.2579(2) 0.69597(10) 0.0647(2)
H4 H 0.3114 0.6358 0.0359
H5 H 0.1077 0.6936 0.0278
C3 C 0.3272(2) 0.71549(10) 0.2758(2)
H6 H 0.4770 0.7110 0.3146
H7 H 0.2685 0.6687 0.3454
C4 C 0.25851(17) 0.81285(8) 0.32348(17)
H8 H 0.3251 0.8257 0.4564
C5 C 0.33378(17) 0.88755(8) 0.20180(16)
H9 H 0.4857 0.8872 0.2351
C6 C 0.26095(18) 0.98613(8) 0.24576(16)
C7 C 0.3236(2) 1.05980(10) 0.11667(19)
H10 H 0.2572 1.1188 0.1333
H11 H 0.4724 1.0692 0.1539
C8 C 0.2643(2) 1.03225(11) -0.09117(19)
H12 H 0.1146 1.0335 -0.1356
H13 H 0.3227 1.0767 -0.1657
C9 C 0.3443(2) 0.93528(12) -0.11637(19)
H14 H 0.3028 0.9177 -0.2491
H15 H 0.4946 0.9357 -0.0804
C10 C 0.02622(18) 0.98691(9) 0.22704(18)
H16 H -0.0161 1.0480 0.2629
H17 H -0.0438 0.9755 0.0960
C11 C -0.13842(17) 0.93949(10) 0.47951(18)
C12 C -0.1805(2) 0.86530(11) 0.6126(2)
H18 H -0.0927 0.8770 0.7373
H19 H -0.3233 0.8712 0.6229
C13 C -0.1459(2) 0.76771(11) 0.5577(2)
H20 H -0.1896 0.7189 0.6241
C14 C -0.0560(2) 0.74745(10) 0.4188(2)
H21 H -0.0395 0.6846 0.3913
C15 C 0.02115(17) 0.81951(8) 0.30288(17)
H22 H -0.0453 0.8076 0.1696
loop_
_geom_bond_atom_site_label_1
_geom_bond_atom_site_label_2
_geom_bond_site_symmetry_1
_geom_bond_site_symmetry_2
O1 C11 1_555 1_555
O2 H1 1_555 1_555
N1 C1 1_555 1_555
N2 C10 1_555 1_555
C1 H2 1_555 1_555
H3 C1 1_555 1_555
C2 C1 1_555 1_555
H4 C2 1_555 1_555
H5 C2 1_555 1_555
C3 C2 1_555 1_555
H6 C3 1_555 1_555
H7 C3 1_555 1_555
C4 C3 1_555 1_555
H8 C4 1_555 1_555
C5 N1 1_555 1_555
H9 C5 1_555 1_555
C6 O2 1_555 1_555
C7 C6 1_555 1_555
H10 C7 1_555 1_555
H11 C7 1_555 1_555
C8 C7 1_555 1_555
H12 C8 1_555 1_555
H13 C8 1_555 1_555
C9 N1 1_555 1_555
H14 C9 1_555 1_555
H15 C9 1_555 1_555
C10 C6 1_555 1_555
H16 C10 1_555 1_555
H17 C10 1_555 1_555
C11 N2 1_555 1_555
C12 C11 1_555 1_555
H18 C12 1_555 1_555
H19 C12 1_555 1_555
C13 C12 1_555 1_555
H20 C13 1_555 1_555
C14 C13 1_555 1_555
H21 C14 1_555 1_555
C15 N2 1_555 1_555
H22 C15 1_555 1_555
C4 C5 1_555 1_555
C4 C15 1_555 1_555
C5 C6 1_555 1_555
C8 C9 1_555 1_555
C14 C15 1_555 1_555

#END
