
#######################################################################
#
#                 Cambridge Crystallographic Data Centre
#                                CCDC 
#
#######################################################################
#
# If this CIF has been generated from an entry in the Cambridge 
# Structural Database, then it will include bibliographic, chemical, 
# crystal, experimental, refinement or atomic coordinate data resulting 
# from the CCDC's data processing and validation procedures.
#
#######################################################################

data_BUPNOQ
_chemical_formula_moiety         'C3 H10 N1 1+,C6 H20 B11 O1 1-'
_chemical_name_systematic        
'Trimethylammonium 1,2-(3-methoxybutan-1,4-diyl)-1-carba-closo-dodecaborate(10)'
_symmetry_cell_setting           monoclinic
_symmetry_space_group_name_H-M   'P 21/n'
_symmetry_Int_Tables_number      14
_space_group_name_Hall           '-P 2yn'
loop_
_symmetry_equiv_pos_site_id
_symmetry_equiv_pos_as_xyz
1 x,y,z
2 1/2-x,1/2+y,1/2-z
3 -x,-y,-z
4 1/2+x,1/2-y,1/2+z
_cell_length_a                   11.706(3)
_cell_length_b                   12.298(3)
_cell_length_c                   13.143(3)
_cell_angle_alpha                90
_cell_angle_beta                 109.850(4)
_cell_angle_gamma                90
_cell_volume                     1779.65
_exptl_crystal_colour            colorless
_exptl_crystal_description       block
_cell_formula_units_Z            4
loop_
_atom_site_label
_atom_site_type_symbol
_atom_site_fract_x
_atom_site_fract_y
_atom_site_fract_z
O1 O 0.87639(18) 0.86820(13) 0.13469(14)
B1 B 0.7057(2) 1.13120(19) 0.0062(2)
B2 B 0.7987(2) 1.2091(2) -0.0488(2)
H1 H 0.8983 1.2047 -0.0141
B3 B 0.7234(3) 1.2221(2) -0.1896(2)
H2 H 0.7742 1.2257 -0.2462
B4 B 0.5821(3) 1.1541(2) -0.2236(2)
H3 H 0.5409 1.1138 -0.3024
B5 B 0.5708(2) 1.0985(2) -0.1031(2)
H4 H 0.5218 1.0220 -0.1039
B6 B 0.7116(3) 1.2756(2) 0.0185(2)
H5 H 0.7537 1.3157 0.0972
B7 B 0.7224(3) 1.3313(2) -0.1029(2)
H6 H 0.7716 1.4074 -0.1033
B8 B 0.5879(3) 1.2970(2) -0.2113(2)
H7 H 0.5497 1.3505 -0.2817
B9 B 0.4934(3) 1.2199(2) -0.1567(2)
H8 H 0.3937 1.2235 -0.1916
B10 B 0.5705(2) 1.2063(2) -0.0145(2)
H9 H 0.5208 1.2010 0.0430
B11 B 0.5808(3) 1.3299(2) -0.0817(2)
H10 H 0.5377 1.4053 -0.0678
C1 C 0.7081(2) 1.10719(17) -0.12185(17)
C2 C 0.7696(3) 1.00225(19) -0.13803(19)
H11 H 0.7214 0.9702 -0.2066
H12 H 0.8485 1.0202 -0.1424
C3 C 0.7868(3) 0.9180(2) -0.0494(2)
H13 H 0.7081 0.8878 -0.0556
H14 H 0.8366 0.8593 -0.0605
C4 C 0.8453(2) 0.96245(18) 0.06359(19)
H15 H 0.9205 0.9999 0.0672
C5 C 0.7650(2) 1.04173(18) 0.09648(18)
H16 H 0.8129 1.0778 0.1629
H17 H 0.7008 1.0017 0.1110
C6 C 0.9424(3) 0.8921(2) 0.2451(2)
H18 H 0.9590 0.8258 0.2861
H19 H 0.8951 0.9394 0.2732
H20 H 1.0175 0.9271 0.2504
N1 N 0.8304(2) 0.65286(17) 0.08532(17)
C7 C 0.8332(6) 0.6024(3) 0.1873(3)
H21 H 0.9104 0.6162 0.2420
H22 H 0.8213 0.5254 0.1771
H23 H 0.7698 0.6326 0.2094
C8 C 0.7119(3) 0.6332(3) 0.0001(4)
H24 H 0.7112 0.6668 -0.0661
H25 H 0.6483 0.6637 0.0219
H26 H 0.6991 0.5564 -0.0110
C9 C 0.9278(4) 0.6138(3) 0.0492(4)
H27 H 1.0047 0.6272 0.1045
H28 H 0.9246 0.6513 -0.0158
H29 H 0.9181 0.5371 0.0351
H30 H 0.840(2) 0.726(2) 0.0980(19)
loop_
_geom_bond_atom_site_label_1
_geom_bond_atom_site_label_2
_geom_bond_site_symmetry_1
_geom_bond_site_symmetry_2
O1 C4 1_555 1_555
N1 C7 1_555 1_555
B1 B2 1_555 1_555
B2 H1 1_555 1_555
B3 B2 1_555 1_555
H2 B3 1_555 1_555
B4 B3 1_555 1_555
H3 B4 1_555 1_555
B5 B1 1_555 1_555
H4 B5 1_555 1_555
B6 B1 1_555 1_555
H5 B6 1_555 1_555
B7 B2 1_555 1_555
H6 B7 1_555 1_555
B8 B3 1_555 1_555
H7 B8 1_555 1_555
B9 B4 1_555 1_555
H8 B9 1_555 1_555
B10 B1 1_555 1_555
H9 B10 1_555 1_555
B11 B6 1_555 1_555
H10 B11 1_555 1_555
C1 B1 1_555 1_555
C2 C1 1_555 1_555
H11 C2 1_555 1_555
H12 C2 1_555 1_555
C3 C2 1_555 1_555
H13 C3 1_555 1_555
H14 C3 1_555 1_555
C4 C3 1_555 1_555
H15 C4 1_555 1_555
C5 B1 1_555 1_555
H16 C5 1_555 1_555
H17 C5 1_555 1_555
C6 O1 1_555 1_555
H18 C6 1_555 1_555
H19 C6 1_555 1_555
H20 C6 1_555 1_555
C7 H21 1_555 1_555
H22 C7 1_555 1_555
H23 C7 1_555 1_555
C8 N1 1_555 1_555
H24 C8 1_555 1_555
H25 C8 1_555 1_555
H26 C8 1_555 1_555
C9 N1 1_555 1_555
H27 C9 1_555 1_555
H28 C9 1_555 1_555
H29 C9 1_555 1_555
H30 N1 1_555 1_555
B2 B6 1_555 1_555
B2 C1 1_555 1_555
B3 B7 1_555 1_555
B3 C1 1_555 1_555
B4 B5 1_555 1_555
B4 B8 1_555 1_555
B4 C1 1_555 1_555
B5 B9 1_555 1_555
B5 B10 1_555 1_555
B5 C1 1_555 1_555
B6 B7 1_555 1_555
B6 B10 1_555 1_555
B7 B8 1_555 1_555
B7 B11 1_555 1_555
B8 B9 1_555 1_555
B8 B11 1_555 1_555
B9 B10 1_555 1_555
B9 B11 1_555 1_555
B10 B11 1_555 1_555
C4 C5 1_555 1_555

#END
