
#######################################################################
#
#                 Cambridge Crystallographic Data Centre
#                                CCDC 
#
#######################################################################
#
# If this CIF has been generated from an entry in the Cambridge 
# Structural Database, then it will include bibliographic, chemical, 
# crystal, experimental, refinement or atomic coordinate data resulting 
# from the CCDC's data processing and validation procedures.
#
#######################################################################

data_BUPPIM
_chemical_formula_moiety         'C36 H30 N1 P2 1+,C5 H18 B11 1-'
_chemical_name_systematic        
'bis(triphenylphosphonium)iminium 8,9-(trimethylene)-8,9-dicarba-nido-dodecaborate(11)'
_symmetry_cell_setting           triclinic
_symmetry_space_group_name_H-M   'P -1'
_symmetry_Int_Tables_number      2
_space_group_name_Hall           '-P 1'
loop_
_symmetry_equiv_pos_site_id
_symmetry_equiv_pos_as_xyz
1 x,y,z
2 -x,-y,-z
_cell_length_a                   9.3701(14)
_cell_length_b                   14.283(2)
_cell_length_c                   15.939(2)
_cell_angle_alpha                93.984(3)
_cell_angle_beta                 102.220(3)
_cell_angle_gamma                90.320(3)
_cell_volume                     2079.34
_exptl_crystal_colour            yellow
_exptl_crystal_description       block
_cell_formula_units_Z            2
loop_
_atom_site_label
_atom_site_type_symbol
_atom_site_fract_x
_atom_site_fract_y
_atom_site_fract_z
N1 N 0.62990(19) 0.79218(13) 0.16269(11)
P1 P 0.68823(5) 0.79740(4) 0.26359(3)
P2 P 0.69115(6) 0.78083(4) 0.07730(3)
C1 C 0.6304(2) 0.90373(15) 0.31278(15)
C2 C 0.7003(3) 0.93949(18) 0.39455(17)
H1 H 0.7835 0.9110 0.4236
C3 C 0.6460(4) 1.0175(2) 0.4327(2)
H2 H 0.6925 1.0412 0.4875
C4 C 0.5249(5) 1.0597(2) 0.3902(3)
H3 H 0.4891 1.1122 0.4162
C5 C 0.4549(4) 1.0255(2) 0.3093(3)
H4 H 0.3724 1.0552 0.2807
C6 C 0.5065(3) 0.94726(17) 0.27022(19)
H5 H 0.4584 0.9238 0.2156
C7 C 0.6040(2) 0.70356(14) 0.30714(13)
C8 C 0.6156(3) 0.70272(18) 0.39484(15)
H6 H 0.6738 0.7478 0.4318
C9 C 0.5415(3) 0.6354(2) 0.42824(17)
H7 H 0.5502 0.6353 0.4875
C10 C 0.4556(3) 0.56903(18) 0.37469(18)
H8 H 0.4045 0.5245 0.3973
C11 C 0.4447(3) 0.56821(18) 0.28754(19)
H9 H 0.3872 0.5224 0.2512
C12 C 0.5186(3) 0.63508(16) 0.25318(16)
H10 H 0.5110 0.6340 0.1940
C13 C 0.8826(2) 0.79157(15) 0.29960(13)
C14 C 0.9484(2) 0.70594(16) 0.31661(14)
H11 H 0.8911 0.6518 0.3125
C15 C 1.0980(3) 0.70126(19) 0.33944(16)
H12 H 1.1416 0.6438 0.3505
C16 C 1.1832(3) 0.7807(2) 0.34599(18)
H13 H 1.2843 0.7772 0.3622
C17 C 1.1194(3) 0.8658(2) 0.3286(2)
H14 H 1.1778 0.9195 0.3328
C18 C 0.9697(3) 0.87212(17) 0.30511(17)
H15 H 0.9271 0.9297 0.2930
C19 C 0.5544(2) 0.71944(15) -0.00486(13)
C20 C 0.4174(2) 0.70187(17) 0.00979(15)
H16 H 0.3967 0.7197 0.0631
C21 C 0.3104(3) 0.6579(2) -0.05432(17)
H17 H 0.2179 0.6469 -0.0441
C22 C 0.3402(3) 0.6307(2) -0.13256(18)
H18 H 0.2685 0.6002 -0.1751
C23 C 0.4749(3) 0.6483(2) -0.14838(18)
H19 H 0.4940 0.6308 -0.2022
C24 C 0.5834(3) 0.6919(2) -0.08502(16)
H20 H 0.6755 0.7027 -0.0959
C25 C 0.8538(2) 0.71332(15) 0.08611(13)
C26 C 0.8432(3) 0.61563(17) 0.07989(16)
H21 H 0.7518 0.5860 0.0651
C27 C 0.9667(4) 0.5628(2) 0.09538(19)
H22 H 0.9591 0.4976 0.0911
C28 C 1.1012(3) 0.6065(2) 0.11710(18)
H23 H 1.1849 0.5706 0.1268
C29 C 1.1135(3) 0.7022(2) 0.12471(18)
H24 H 1.2055 0.7309 0.1409
C30 C 0.9908(2) 0.75659(18) 0.10862(15)
H25 H 0.9999 0.8217 0.1128
C31 C 0.7263(2) 0.89243(15) 0.03933(13)
C32 C 0.7904(3) 0.89817(18) -0.03115(16)
H26 H 0.8215 0.8440 -0.0572
C33 C 0.8081(3) 0.9839(2) -0.06247(19)
H27 H 0.8508 0.9877 -0.1098
C34 C 0.7626(3) 1.06372(19) -0.02377(18)
H28 H 0.7740 1.1215 -0.0454
C35 C 0.7005(3) 1.05946(17) 0.04638(18)
H29 H 0.6712 1.1142 0.0725
C36 C 0.6815(3) 0.97397(16) 0.07819(15)
H30 H 0.6387 0.9709 0.1255
C37 C 1.1201(3) 0.73094(17) 0.65399(16)
C38 C 1.0520(3) 0.63081(16) 0.65124(14)
C39 C 1.2598(3) 0.7183(2) 0.6186(2)
H31 H 1.2652 0.7644 0.5775
H32 H 1.3454 0.7261 0.6651
C40 C 1.2528(4) 0.6200(2) 0.5754(2)
H33 H 1.2127 0.6209 0.5142
H34 H 1.3497 0.5939 0.5834
C41 C 1.1555(3) 0.5621(2) 0.61704(18)
H35 H 1.2135 0.5300 0.6638
H36 H 1.1003 0.5156 0.5753
B1 B 0.9581(4) 0.5958(2) 0.7167(2)
H37 H 1.0122 0.5351 0.7477
B2 B 0.9227(3) 0.6794(2) 0.79829(18)
H38 H 0.9569 0.6505 0.8615
B3 B 1.0027(3) 0.7962(2) 0.8022(2)
H39 H 1.0690 0.8145 0.8670
B4 B 1.1089(3) 0.8162(2) 0.7235(2)
H40 H 1.2200 0.8390 0.7567
B5 B 0.9666(3) 0.7028(2) 0.57574(19)
H41 H 0.9578 0.6945 0.5057
B6 B 0.8667(3) 0.6241(2) 0.6155(2)
H42 H 0.8020 0.5732 0.5671
B7 B 0.7953(3) 0.6574(2) 0.7031(2)
H43 H 0.6890 0.6242 0.7027
B8 B 0.8214(3) 0.77098(18) 0.75071(17)
H44 H 0.7297 0.8010 0.7759
B9 B 0.9279(3) 0.8496(2) 0.7098(2)
H45 H 0.8960 0.9235 0.7133
B10 B 0.9976(4) 0.8158(2) 0.6213(2)
H46 H 0.9591 0.8632 0.5702
B11 B 0.8201(3) 0.7534(2) 0.63068(18)
H47 H 0.7520 0.7936 0.5813
H48 H 1.053(3) 0.7138(19) 0.7980(17)
loop_
_geom_bond_atom_site_label_1
_geom_bond_atom_site_label_2
_geom_bond_site_symmetry_1
_geom_bond_site_symmetry_2
N1 P1 1_555 1_555
P1 C1 1_555 1_555
P2 N1 1_555 1_555
C1 C2 1_555 1_555
C2 H1 1_555 1_555
C3 C2 1_555 1_555
H2 C3 1_555 1_555
C4 C3 1_555 1_555
H3 C4 1_555 1_555
C5 C4 1_555 1_555
H4 C5 1_555 1_555
C6 C1 1_555 1_555
H5 C6 1_555 1_555
C7 P1 1_555 1_555
C8 C7 1_555 1_555
H6 C8 1_555 1_555
C9 C8 1_555 1_555
H7 C9 1_555 1_555
C10 C9 1_555 1_555
H8 C10 1_555 1_555
C11 C10 1_555 1_555
H9 C11 1_555 1_555
C12 C7 1_555 1_555
H10 C12 1_555 1_555
C13 P1 1_555 1_555
C14 C13 1_555 1_555
H11 C14 1_555 1_555
C15 C14 1_555 1_555
H12 C15 1_555 1_555
C16 C15 1_555 1_555
H13 C16 1_555 1_555
C17 C16 1_555 1_555
H14 C17 1_555 1_555
C18 C13 1_555 1_555
H15 C18 1_555 1_555
C19 P2 1_555 1_555
C20 C19 1_555 1_555
H16 C20 1_555 1_555
C21 C20 1_555 1_555
H17 C21 1_555 1_555
C22 C21 1_555 1_555
H18 C22 1_555 1_555
C23 C22 1_555 1_555
H19 C23 1_555 1_555
C24 C19 1_555 1_555
H20 C24 1_555 1_555
C25 P2 1_555 1_555
C26 C25 1_555 1_555
H21 C26 1_555 1_555
C27 C26 1_555 1_555
H22 C27 1_555 1_555
C28 C27 1_555 1_555
H23 C28 1_555 1_555
C29 C28 1_555 1_555
H24 C29 1_555 1_555
C30 C25 1_555 1_555
H25 C30 1_555 1_555
C31 P2 1_555 1_555
C32 C31 1_555 1_555
H26 C32 1_555 1_555
C33 C32 1_555 1_555
H27 C33 1_555 1_555
C34 C33 1_555 1_555
H28 C34 1_555 1_555
C35 C34 1_555 1_555
H29 C35 1_555 1_555
C36 C31 1_555 1_555
H30 C36 1_555 1_555
C37 C38 1_555 1_555
C38 C41 1_555 1_555
C39 C37 1_555 1_555
H31 C39 1_555 1_555
H32 C39 1_555 1_555
C40 C39 1_555 1_555
H33 C40 1_555 1_555
H34 C40 1_555 1_555
C41 C40 1_555 1_555
H35 C41 1_555 1_555
H36 C41 1_555 1_555
B1 C38 1_555 1_555
H37 B1 1_555 1_555
B2 B1 1_555 1_555
H38 B2 1_555 1_555
B3 B2 1_555 1_555
H39 B3 1_555 1_555
B4 C37 1_555 1_555
H40 B4 1_555 1_555
B5 C37 1_555 1_555
H41 B5 1_555 1_555
B6 C38 1_555 1_555
H42 B6 1_555 1_555
B7 B1 1_555 1_555
H43 B7 1_555 1_555
B8 B2 1_555 1_555
H44 B8 1_555 1_555
B9 B3 1_555 1_555
H45 B9 1_555 1_555
B10 C37 1_555 1_555
H46 B10 1_555 1_555
B11 B5 1_555 1_555
H47 B11 1_555 1_555
H48 B2 1_555 1_555
C5 C6 1_555 1_555
C11 C12 1_555 1_555
C17 C18 1_555 1_555
C23 C24 1_555 1_555
C29 C30 1_555 1_555
C35 C36 1_555 1_555
C38 B5 1_555 1_555
B1 B6 1_555 1_555
B2 B7 1_555 1_555
B3 B4 1_555 1_555
B3 B8 1_555 1_555
B3 H48 1_555 1_555
B4 B9 1_555 1_555
B4 B10 1_555 1_555
B5 B6 1_555 1_555
B5 B10 1_555 1_555
B6 B7 1_555 1_555
B6 B11 1_555 1_555
B7 B8 1_555 1_555
B7 B11 1_555 1_555
B8 B9 1_555 1_555
B8 B11 1_555 1_555
B9 B10 1_555 1_555
B9 B11 1_555 1_555
B10 B11 1_555 1_555

#END
