
#######################################################################
#
#                 Cambridge Crystallographic Data Centre
#                                CCDC 
#
#######################################################################
#
# If this CIF has been generated from an entry in the Cambridge 
# Structural Database, then it will include bibliographic, chemical, 
# crystal, experimental, refinement or atomic coordinate data resulting 
# from the CCDC's data processing and validation procedures.
#
#######################################################################

data_BUPPUY
_chemical_formula_moiety         '3(C5 H18 B11 1-),6(C3 H10 N1 1+),3(Cl1 1-)'
_chemical_name_systematic        
'hexakis(dimethylammonium) trichloride tris(8,9-(trimethylene)-8,9-dicarba-nido-dodecaborate(11))'
_symmetry_cell_setting           orthorhombic
_symmetry_space_group_name_H-M   'P n m a'
_symmetry_Int_Tables_number      62
_space_group_name_Hall           '-P 2ac 2n'
loop_
_symmetry_equiv_pos_site_id
_symmetry_equiv_pos_as_xyz
1 x,y,z
2 1/2-x,-y,1/2+z
3 -x,1/2+y,-z
4 1/2+x,1/2-y,1/2-z
5 -x,-y,-z
6 1/2+x,y,1/2-z
7 x,1/2-y,z
8 1/2-x,1/2+y,1/2+z
_cell_length_a                   11.8388(15)
_cell_length_b                   34.882(4)
_cell_length_c                   16.429(2)
_cell_angle_alpha                90
_cell_angle_beta                 90
_cell_angle_gamma                90
_cell_volume                     6784.54
_exptl_crystal_colour            colorless
_exptl_crystal_description       block
_cell_formula_units_Z            4
loop_
_atom_site_label
_atom_site_type_symbol
_atom_site_fract_x
_atom_site_fract_y
_atom_site_fract_z
C1 C 0.9892(3) 0.05767(14) 0.6272(3)
C2 C 0.9904(4) 0.09873(15) 0.5880(3)
C3 C 1.0842(4) 0.03509(17) 0.5833(3)
H1 H 1.1495 0.0314 0.6201
H2 H 1.0564 0.0096 0.5659
C4 C 1.1177(7) 0.0584(2) 0.5110(5)
H3 H 1.0811 0.0481 0.4615
H4 H 1.2006 0.0571 0.5034
C5 C 1.0822(6) 0.0993(2) 0.5238(4)
H5 H 1.0530 0.1104 0.4725
H6 H 1.1470 0.1149 0.5425
B1 B 0.7688(5) 0.08560(18) 0.6395(5)
H7 H 0.6900 0.0701 0.6209
B2 B 0.8567(5) 0.03930(17) 0.6420(4)
H8 H 0.7942 0.0172 0.6213
B3 B 0.8798(5) 0.06876(17) 0.5621(4)
H9 H 0.8618 0.0559 0.5010
B4 B 0.8566(6) 0.11728(18) 0.5698(4)
H10 H 0.8233 0.1311 0.5131
B5 B 0.8147(5) 0.13668(17) 0.6597(4)
H11 H 0.7567 0.1618 0.6525
B6 B 0.7918(5) 0.10774(19) 0.7464(4)
H12 H 0.7219 0.1164 0.7885
B7 B 0.8165(6) 0.0588(2) 0.7358(5)
H13 H 0.7599 0.0397 0.7726
B8 B 0.9594(5) 0.13827(18) 0.6341(4)
H14 H 1.0336 0.1581 0.6303
B9 B 0.9144(5) 0.13485(18) 0.7371(4)
H15 H 0.9672 0.1549 0.7744
B10 B 0.9155(6) 0.08730(19) 0.7831(4)
H16 H 0.9697 0.0876 0.8390
B11 B 0.9577(6) 0.04803(18) 0.7191(4)
H17 H 1.0310 0.0330 0.7481
H55 H 0.984(4) 0.1072(15) 0.741(3)
C6 C -0.0352(4) 0.27167(14) 0.3940(4)
C7 C -0.1520(5) 0.2836(2) 0.4266(6)
H18 H -0.2017 0.2916 0.3812
H19 H -0.1444 0.3054 0.4650
C8 C -0.2001(9) 0.2500 0.4686(7)
H20 H -0.1786 0.2500 0.5269
H21 H -0.2835 0.2500 0.4646
B12 B 0.1909(6) 0.2500 0.4123(5)
H48 H 0.2420 0.2500 0.4696
B13 B 0.0904(6) 0.2914(2) 0.4253(8)
H49 H 0.1031 0.3151 0.4704
B14 B 0.0485(7) 0.2500 0.4639(5)
H50 H 0.0730 0.2500 0.5297
B15 B 0.2215(10) 0.2500 0.3026(7)
H51 H 0.3107 0.2500 0.2798
B16 B 0.1739(7) 0.2911(4) 0.3427(10)
H52 H 0.2340 0.3159 0.3405
B17 B 0.1098(7) 0.2718(7) 0.2552(6)
H53 H 0.0805 0.2802 0.1929
B18 B 0.0294(7) 0.2967(4) 0.3276(10)
H54 H -0.0332 0.3152 0.2948
C6F C -0.0352(4) 0.22833(14) 0.3940(4)
C7F C -0.1520(5) 0.2164(2) 0.4266(6)
H18F H -0.2017 0.2084 0.3812
H19F H -0.1444 0.1946 0.4650
B13F B 0.0904(6) 0.2086(2) 0.4253(8)
H49F H 0.1031 0.1849 0.4704
B16F B 0.1739(7) 0.2089(4) 0.3427(10)
H52F H 0.2340 0.1841 0.3405
B17F B 0.1098(7) 0.2282(7) 0.2552(6)
H53F H 0.0805 0.2198 0.1929
B18F B 0.0294(7) 0.2033(4) 0.3276(10)
H54F H -0.0332 0.1848 0.2948
N1 N 0.4637(3) 0.17514(14) 0.5108(3)
H22 H 0.4609 0.1971 0.5428
C9 C 0.4779(4) 0.18899(16) 0.4263(3)
H25 H 0.5521 0.2011 0.4206
H26 H 0.4186 0.2077 0.4138
H27 H 0.4723 0.1673 0.3886
C10 C 0.3561(4) 0.15538(15) 0.5249(3)
H28 H 0.3533 0.1461 0.5812
H29 H 0.3495 0.1336 0.4875
H30 H 0.2935 0.1732 0.5156
C11 C 0.5620(4) 0.15346(18) 0.5403(3)
H31 H 0.5471 0.1441 0.5955
H32 H 0.6285 0.1702 0.5409
H33 H 0.5760 0.1316 0.5041
N2 N 0.7099(4) 0.08569(13) 0.2775(3)
H23 H 0.6460 0.0860 0.3105
C12 C 0.6718(6) 0.0907(2) 0.1928(4)
H34 H 0.6282 0.0682 0.1759
H35 H 0.7377 0.0937 0.1572
H36 H 0.6243 0.1137 0.1890
C13 C 0.7838(7) 0.1177(2) 0.3039(4)
H37 H 0.7458 0.1422 0.2935
H38 H 0.8549 0.1168 0.2734
H39 H 0.7995 0.1153 0.3622
C14 C 0.7662(7) 0.04823(19) 0.2892(5)
H40 H 0.7165 0.0277 0.2698
H41 H 0.7822 0.0444 0.3472
H42 H 0.8370 0.0478 0.2584
N3 N 0.2440(4) 0.2500 0.7159(3)
H24 H 0.3068 0.2500 0.6819
C15 C 0.1773(4) 0.28506(14) 0.6975(3)
H43 H 0.1523 0.2844 0.6406
H44 H 0.1112 0.2861 0.7334
H45 H 0.2243 0.3078 0.7063
C16 C 0.2855(6) 0.2500 0.8016(4)
H46 H 0.3282 0.2264 0.8120
H47 H 0.2210 0.2487 0.8389
C15F C 0.1773(4) 0.21494(14) 0.6975(3)
H43F H 0.1523 0.2156 0.6406
H44F H 0.1112 0.2139 0.7334
H45F H 0.2243 0.1922 0.7063
H46F H 0.3282 0.2736 0.8120
Cl1 Cl 0.47126(13) 0.2500 0.61953(10)
Cl2 Cl 0.48519(13) 0.08240(4) 0.37291(9)
N4? N 0.5042(9) 0.0091(3) 0.4843(6)
C17? C 0.4896(12) 0.0205(4) 0.5688(7)
C18? C 0.4192(9) -0.0171(3) 0.4505(7)
C19? C 0.6238(8) -0.0065(4) 0.4692(8)
H56? H 0.3347 0.2278 0.8103
loop_
_geom_bond_atom_site_label_1
_geom_bond_atom_site_label_2
_geom_bond_site_symmetry_1
_geom_bond_site_symmetry_2
C1 C2 1_555 1_555
C2 C5 1_555 1_555
C3 C1 1_555 1_555
H1 C3 1_555 1_555
H2 C3 1_555 1_555
C4 C3 1_555 1_555
H3 C4 1_555 1_555
H4 C4 1_555 1_555
C5 C4 1_555 1_555
H5 C5 1_555 1_555
H6 C5 1_555 1_555
B1 H7 1_555 1_555
B2 C1 1_555 1_555
H8 B2 1_555 1_555
B3 C1 1_555 1_555
H9 B3 1_555 1_555
B4 C2 1_555 1_555
H10 B4 1_555 1_555
B5 B1 1_555 1_555
H11 B5 1_555 1_555
B6 B1 1_555 1_555
H12 B6 1_555 1_555
B7 B1 1_555 1_555
H13 B7 1_555 1_555
B8 C2 1_555 1_555
H14 B8 1_555 1_555
B9 B5 1_555 1_555
H15 B9 1_555 1_555
B10 B6 1_555 1_555
H16 B10 1_555 1_555
B11 C1 1_555 1_555
H17 B11 1_555 1_555
C6 C7 1_555 1_555
C7 H18 1_555 1_555
H19 C7 1_555 1_555
C8 C7 1_555 1_555
H20 C8 1_555 1_555
H21 C8 1_555 1_555
N1 H22 1_555 1_555
N2 H23 1_555 1_555
N3 H24 1_555 1_555
C9 N1 1_555 1_555
H25 C9 1_555 1_555
H26 C9 1_555 1_555
H27 C9 1_555 1_555
C10 N1 1_555 1_555
H28 C10 1_555 1_555
H29 C10 1_555 1_555
H30 C10 1_555 1_555
C11 N1 1_555 1_555
H31 C11 1_555 1_555
H32 C11 1_555 1_555
H33 C11 1_555 1_555
C12 N2 1_555 1_555
H34 C12 1_555 1_555
H35 C12 1_555 1_555
H36 C12 1_555 1_555
C13 N2 1_555 1_555
H37 C13 1_555 1_555
H38 C13 1_555 1_555
H39 C13 1_555 1_555
C14 N2 1_555 1_555
H40 C14 1_555 1_555
H41 C14 1_555 1_555
H42 C14 1_555 1_555
C15 N3 1_555 1_555
H43 C15 1_555 1_555
H44 C15 1_555 1_555
H45 C15 1_555 1_555
C16 N3 1_555 1_555
H46 C16 1_555 1_555
H47 C16 1_555 1_555
B12 H48 1_555 1_555
B13 C6 1_555 1_555
H49 B13 1_555 1_555
B14 C6 1_555 1_555
H50 B14 1_555 1_555
B15 B12 1_555 1_555
H51 B15 1_555 1_555
B16 B12 1_555 1_555
H52 B16 1_555 1_555
B17 B15 1_555 1_555
H53 B17 1_555 1_555
B18 C6 1_555 1_555
H54 B18 1_555 1_555
H55 B9 1_555 1_555
C6F C6 1_555 1_555
C7F C8 1_555 1_555
H18F C7F 1_555 1_555
H19F C7F 1_555 1_555
C15F N3 1_555 1_555
H43F C15F 1_555 1_555
H44F C15F 1_555 1_555
H45F C15F 1_555 1_555
H46F C16 1_555 1_555
B13F B12 1_555 1_555
H49F B13F 1_555 1_555
B16F B12 1_555 1_555
H52F B16F 1_555 1_555
B17F B15 1_555 1_555
H53F B17F 1_555 1_555
B18F C6F 1_555 1_555
H54F B18F 1_555 1_555
C2 B3 1_555 1_555
B1 B2 1_555 1_555
B1 B3 1_555 1_555
B1 B4 1_555 1_555
B2 B3 1_555 1_555
B2 B7 1_555 1_555
B2 B11 1_555 1_555
B3 B4 1_555 1_555
B4 B5 1_555 1_555
B4 B8 1_555 1_555
B5 B6 1_555 1_555
B5 B8 1_555 1_555
B6 B7 1_555 1_555
B6 B9 1_555 1_555
B7 B10 1_555 1_555
B7 B11 1_555 1_555
B8 B9 1_555 1_555
B9 B10 1_555 1_555
B10 B11 1_555 1_555
B10 H55 1_555 1_555
B12 B13 1_555 1_555
B12 B14 1_555 1_555
B13 B14 1_555 1_555
B13 B16 1_555 1_555
B13 B18 1_555 1_555
B14 C6F 1_555 1_555
B14 B13F 1_555 1_555
B15 B16 1_555 1_555
B15 B16F 1_555 1_555
B16 B17 1_555 1_555
B16 B18 1_555 1_555
B17 B18 1_555 1_555
B17 B17F 1_555 1_555
C6F C7F 1_555 1_555
C6F B13F 1_555 1_555
B13F B16F 1_555 1_555
B13F B18F 1_555 1_555
B16F B17F 1_555 1_555
B16F B18F 1_555 1_555
B17F B18F 1_555 1_555

#END
