
#######################################################################
#
#                 Cambridge Crystallographic Data Centre
#                                CCDC 
#
#######################################################################
#
# If this CIF has been generated from an entry in the Cambridge 
# Structural Database, then it will include bibliographic, chemical, 
# crystal, experimental, refinement or atomic coordinate data resulting 
# from the CCDC's data processing and validation procedures.
#
#######################################################################

data_BUPPEI
_chemical_formula_moiety         'C36 H30 N1 P2 1+,C7 H24 B12 N1 1-'
_chemical_name_systematic        
'bis(triphenylphosphonium)iminium 8,9-(trimethylene)-11,12-(\m~2~-dimethylaminoborane)-8,9-dicarbadodecaborate(11)'
_symmetry_cell_setting           monoclinic
_symmetry_space_group_name_H-M   'P 21'
_symmetry_Int_Tables_number      4
_space_group_name_Hall           'P 2yb'
loop_
_symmetry_equiv_pos_site_id
_symmetry_equiv_pos_as_xyz
1 x,y,z
2 -x,1/2+y,-z
_cell_length_a                   22.3618(9)
_cell_length_b                   9.2408(4)
_cell_length_c                   23.6618(9)
_cell_angle_alpha                90
_cell_angle_beta                 112.6820(10)
_cell_angle_gamma                90
_cell_volume                     4511.34
_exptl_crystal_colour            yellow
_exptl_crystal_description       block
_cell_formula_units_Z            4
loop_
_atom_site_label
_atom_site_type_symbol
_atom_site_fract_x
_atom_site_fract_y
_atom_site_fract_z
N1 N 0.93282(12) 0.4240(3) 0.05121(11)
C80 C 0.78331(13) 0.3529(3) 0.11828(12)
C81 C 0.84364(13) 0.3593(3) 0.18020(11)
C82 C 0.7625(2) 0.1951(5) 0.10908(19)
H84 H 0.7156 0.1881 0.0937
H85 H 0.7771 0.1500 0.0797
C83 C 0.7925(3) 0.1207(5) 0.1704(2)
H86 H 0.8023 0.0204 0.1654
H87 H 0.7636 0.1242 0.1922
C84 C 0.8544(2) 0.2055(4) 0.20451(18)
H88 H 0.8640 0.2051 0.2481
H89 H 0.8905 0.1621 0.1978
C85 C 0.9543(2) 0.2885(4) 0.0365(2)
H90 H 0.9373 0.2110 0.0530
H91 H 1.0008 0.2852 0.0539
H92 H 0.9391 0.2785 -0.0072
C86 C 0.95728(17) 0.5461(4) 0.02808(15)
H93 H 0.9840 0.5117 0.0074
H94 H 0.9825 0.6073 0.0616
H95 H 0.9216 0.6002 -0.0001
B13 B 0.89157(14) 0.4282(4) 0.08526(13)
B14 B 0.90531(14) 0.4628(4) 0.19011(12)
H96 H 0.9479 0.3939 0.1981
B15 B 0.90394(15) 0.5943(4) 0.13430(13)
H97 H 0.9522 0.6305 0.1381
B16 B 0.83601(15) 0.5878(4) 0.06481(13)
H98 H 0.8374 0.6202 0.0206
B17 B 0.77785(14) 0.4510(5) 0.05912(13)
H99 H 0.7761 0.3791 0.0215
B18 B 0.77362(16) 0.4349(5) 0.17909(15)
H100 H 0.7435 0.3985 0.2037
B19 B 0.84806(17) 0.5088(5) 0.22322(13)
H101 H 0.8592 0.5143 0.2727
B20 B 0.88050(18) 0.6436(5) 0.19523(14)
H102 H 0.9088 0.7220 0.2304
B21 B 0.83901(19) 0.7099(4) 0.12131(16)
H103 H 0.8432 0.8269 0.1151
B22 B 0.76481(17) 0.6310(5) 0.07696(15)
H104 H 0.7275 0.7028 0.0455
B23 B 0.73296(16) 0.4958(5) 0.10510(16)
H105 H 0.6841 0.5287 0.1009
B24 B 0.78786(18) 0.6308(4) 0.16380(15)
H106 H 0.7470 0.6871 0.1692
H107 H 0.8791(11) 0.316(3) 0.0957(10)
N2 N 0.37138(9) 0.6511(2) 0.12797(8)
P3 P 0.43021(3) 0.71639(6) 0.11522(2)
P4 P 0.31951(2) 0.68093(6) 0.15657(2)
C1 C 0.43863(11) 0.9104(3) 0.12274(10)
C2 C 0.48773(12) 0.9737(3) 0.17257(11)
H1 H 0.5185 0.9160 0.2016
C3 C 0.49070(13) 1.1229(3) 0.17876(12)
H2 H 0.5236 1.1654 0.2119
C4 C 0.44544(14) 1.2078(3) 0.13623(12)
H3 H 0.4476 1.3079 0.1406
C5 C 0.39649(15) 1.1457(3) 0.08686(13)
H4 H 0.3658 1.2041 0.0581
C6 C 0.39283(12) 0.9976(3) 0.08000(11)
H5 H 0.3597 0.9561 0.0468
C7 C 0.42162(11) 0.6668(3) 0.03884(9)
C8 C 0.44675(16) 0.7514(4) 0.00486(12)
H6 H 0.4652 0.8409 0.0196
C9 C 0.44417(18) 0.7013(6) -0.05145(14)
H7 H 0.4612 0.7575 -0.0743
C10 C 0.41696(19) 0.5705(5) -0.07353(14)
H8 H 0.4157 0.5382 -0.1112
C11 C 0.39177(18) 0.4871(4) -0.04110(13)
H9 H 0.3732 0.3982 -0.0567
C12 C 0.39363(14) 0.5344(3) 0.01619(12)
H10 H 0.3763 0.4773 0.0385
C13 C 0.50509(11) 0.6342(3) 0.16558(10)
C14 C 0.55163(14) 0.5889(4) 0.14499(14)
H11 H 0.5459 0.6033 0.1043
C15 C 0.60739(17) 0.5213(5) 0.18538(19)
H12 H 0.6392 0.4917 0.1717
C16 C 0.61567(16) 0.4983(4) 0.24453(18)
H13 H 0.6527 0.4510 0.2707
C17 C 0.57031(15) 0.5435(4) 0.26610(14)
H14 H 0.5769 0.5294 0.3070
C18 C 0.51472(12) 0.6102(3) 0.22681(11)
H15 H 0.4833 0.6396 0.2412
C19 C 0.30165(11) 0.8691(2) 0.16151(9)
C20 C 0.34498(13) 0.9533(3) 0.20752(11)
H16 H 0.3814 0.9110 0.2371
C21 C 0.33416(17) 1.1005(3) 0.20950(15)
H17 H 0.3632 1.1568 0.2406
C22 C 0.28085(17) 1.1632(3) 0.16586(16)
H18 H 0.2737 1.2619 0.1677
C23 C 0.23799(16) 1.0821(3) 0.11961(15)
H19 H 0.2021 1.1261 0.0901
C24 C 0.24786(13) 0.9330(3) 0.11645(11)
H20 H 0.2190 0.8777 0.0848
C25 C 0.24597(10) 0.5879(2) 0.11078(10)
C26 C 0.23581(14) 0.5438(4) 0.05215(11)
H21 H 0.2661 0.5663 0.0354
C27 C 0.18043(16) 0.4660(4) 0.01801(13)
H22 H 0.1736 0.4368 -0.0216
C28 C 0.13628(14) 0.4325(4) 0.04241(15)
H23 H 0.0994 0.3801 0.0194
C29 C 0.14563(14) 0.4749(4) 0.10026(14)
H24 H 0.1150 0.4516 0.1164
C30 C 0.20030(12) 0.5524(4) 0.13516(12)
H25 H 0.2065 0.5806 0.1748
C31 C 0.34450(10) 0.6053(2) 0.23227(9)
C32 C 0.32457(13) 0.6622(3) 0.27679(10)
H26 H 0.2975 0.7426 0.2682
C33 C 0.34576(17) 0.5970(4) 0.33435(12)
H27 H 0.3327 0.6345 0.3642
C34 C 0.38541(17) 0.4789(4) 0.34733(12)
H28 H 0.3996 0.4373 0.3861
C35 C 0.40453(14) 0.4212(3) 0.30337(12)
H29 H 0.4316 0.3408 0.3124
C36 C 0.38338(12) 0.4831(3) 0.24558(11)
H30 H 0.3953 0.4423 0.2156
N3 N 0.09706(9) 1.1284(2) 0.36304(9)
P1 P 0.06795(3) 1.19300(7) 0.40884(2)
P2 P 0.13254(2) 1.16701(6) 0.31856(2)
C37 C -0.01493(11) 1.1321(3) 0.38646(11)
C38 C -0.03266(13) 1.0003(3) 0.35675(13)
H31 H -0.0032 0.9489 0.3455
C39 C -0.09429(15) 0.9448(4) 0.34376(16)
H32 H -0.1060 0.8564 0.3237
C40 C -0.13800(15) 1.0199(4) 0.36031(16)
H33 H -0.1788 0.9815 0.3526
C41 C -0.12093(14) 1.1518(4) 0.38828(14)
H34 H -0.1509 1.2038 0.3985
C42 C -0.05975(13) 1.2090(4) 0.40158(12)
H35 H -0.0489 1.2988 0.4206
C43 C 0.06881(11) 1.3868(3) 0.41335(10)
C44 C 0.11454(13) 1.4597(3) 0.46276(11)
H36 H 0.1423 1.4077 0.4963
C45 C 0.11882(15) 1.6086(3) 0.46216(14)
H37 H 0.1503 1.6563 0.4947
C46 C 0.07686(15) 1.6869(3) 0.41364(14)
H38 H 0.0795 1.7873 0.4137
C47 C 0.03075(15) 1.6160(3) 0.36484(14)
H39 H 0.0020 1.6692 0.3323
C48 C 0.02696(12) 1.4668(3) 0.36396(11)
H40 H -0.0035 1.4197 0.3305
C49 C 0.11144(12) 1.1258(3) 0.48537(10)
C50 C 0.08299(15) 1.1262(4) 0.52864(12)
H41 H 0.0403 1.1564 0.5174
C51 C 0.11799(18) 1.0820(4) 0.58762(13)
H42 H 0.0989 1.0840 0.6163
C52 C 0.18092(17) 1.0349(4) 0.60486(14)
H43 H 0.2042 1.0059 0.6450
C53 C 0.20932(16) 1.0309(5) 0.56267(15)
H44 H 0.2514 0.9965 0.5739
C54 C 0.17472(13) 1.0785(4) 0.50286(12)
H45 H 0.1943 1.0784 0.4746
C55 C 0.09268(11) 1.0730(2) 0.24712(10)
C56 C 0.12526(14) 1.0391(3) 0.20948(11)
H46 H 0.1684 1.0661 0.2207
C57 C 0.09378(17) 0.9652(4) 0.15535(13)
H47 H 0.1162 0.9417 0.1307
C58 C 0.03092(18) 0.9265(4) 0.13761(13)
H48 H 0.0103 0.8777 0.1008
C59 C -0.00241(15) 0.9591(4) 0.17382(14)
H49 H -0.0456 0.9317 0.1618
C60 C 0.02831(13) 1.0334(4) 0.22872(13)
H50 H 0.0055 1.0563 0.2531
C61 C 0.13495(10) 1.3556(2) 0.30120(10)
C62 C 0.09402(12) 1.4128(3) 0.24505(11)
H51 H 0.0657 1.3528 0.2151
C63 C 0.09586(15) 1.5596(3) 0.23420(14)
H52 H 0.0688 1.5980 0.1967
C64 C 0.13701(15) 1.6485(3) 0.27812(15)
H53 H 0.1379 1.7469 0.2702
C65 C 0.17757(14) 1.5930(3) 0.33450(15)
H54 H 0.2053 1.6539 0.3645
C66 C 0.17625(11) 1.4476(3) 0.34543(11)
H55 H 0.2034 1.4101 0.3831
C67 C 0.21488(10) 1.1021(2) 0.34911(10)
C68 C 0.22738(12) 0.9745(3) 0.38277(11)
H56 H 0.1938 0.9273 0.3891
C69 C 0.28946(12) 0.9168(3) 0.40703(12)
H57 H 0.2975 0.8320 0.4299
C70 C 0.33889(12) 0.9854(3) 0.39703(12)
H58 H 0.3806 0.9474 0.4134
C71 C 0.32687(12) 1.1107(3) 0.36266(13)
H59 H 0.3604 1.1563 0.3556
C72 C 0.26475(11) 1.1691(3) 0.33862(11)
H60 H 0.2568 1.2535 0.3154
N4 N 0.33423(14) 0.5022(3) 0.70825(11)
C73 C 0.44459(12) 0.4088(3) 0.59813(10)
C74 C 0.37598(13) 0.3611(3) 0.55446(11)
C75 C 0.48504(16) 0.2710(4) 0.61753(15)
H61 H 0.5276 0.2859 0.6166
H62 H 0.4904 0.2438 0.6588
C76 C 0.4490(2) 0.1537(4) 0.5726(2)
H63 H 0.4565 0.0598 0.5924
H64 H 0.4627 0.1504 0.5384
C77 C 0.3781(2) 0.1955(4) 0.55118(16)
H65 H 0.3587 0.1523 0.5774
H66 H 0.3545 0.1627 0.5095
C78 C 0.3308(2) 0.3777(5) 0.74525(16)
H67 H 0.3476 0.2936 0.7327
H68 H 0.2865 0.3609 0.7397
H69 H 0.3561 0.3971 0.7877
C79 C 0.30940(19) 0.6332(5) 0.72552(16)
H70 H 0.3122 0.7121 0.7002
H71 H 0.3347 0.6553 0.7677
H72 H 0.2650 0.6188 0.7200
B1 B 0.35764(16) 0.4855(4) 0.66096(13)
B2 B 0.30967(14) 0.4405(4) 0.55096(12)
H73 H 0.2802 0.3633 0.5646
B3 B 0.31260(14) 0.6034(3) 0.59255(14)
H74 H 0.2682 0.6266 0.6005
B4 B 0.39168(15) 0.6586(4) 0.64286(14)
H75 H 0.4018 0.7198 0.6854
B5 B 0.45665(14) 0.5440(4) 0.64531(13)
H76 H 0.4793 0.5031 0.6925
B6 B 0.42355(15) 0.4442(4) 0.52248(12)
H77 H 0.4446 0.3973 0.4915
B7 B 0.34121(15) 0.4685(4) 0.49273(12)
H78 H 0.3165 0.4353 0.4446
B8 B 0.30741(14) 0.6091(4) 0.51553(14)
H79 H 0.2640 0.6521 0.4786
B9 B 0.35514(15) 0.7321(3) 0.56871(16)
H80 H 0.3389 0.8454 0.5612
B10 B 0.43899(14) 0.7031(4) 0.60022(16)
H81 H 0.4700 0.8000 0.6113
B11 B 0.47210(14) 0.5624(4) 0.57733(15)
H82 H 0.5085 0.6055 0.5612
B12 B 0.39270(14) 0.6367(4) 0.51875(14)
H83 H 0.4169 0.6934 0.4926
H108 H 0.3786(12) 0.377(3) 0.6588(11)
loop_
_geom_bond_atom_site_label_1
_geom_bond_atom_site_label_2
_geom_bond_site_symmetry_1
_geom_bond_site_symmetry_2
N1 C85 1_555 1_555
N2 P3 1_555 1_555
N3 P1 1_555 1_555
N4 C78 1_555 1_555
P1 C37 1_555 1_555
P2 N3 1_555 1_555
P3 C1 1_555 1_555
P4 N2 1_555 1_555
C1 C2 1_555 1_555
C2 H1 1_555 1_555
C3 C2 1_555 1_555
H2 C3 1_555 1_555
C4 C3 1_555 1_555
H3 C4 1_555 1_555
C5 C4 1_555 1_555
H4 C5 1_555 1_555
C6 C1 1_555 1_555
H5 C6 1_555 1_555
C7 P3 1_555 1_555
C8 C7 1_555 1_555
H6 C8 1_555 1_555
C9 C8 1_555 1_555
H7 C9 1_555 1_555
C10 C9 1_555 1_555
H8 C10 1_555 1_555
C11 C10 1_555 1_555
H9 C11 1_555 1_555
C12 C7 1_555 1_555
H10 C12 1_555 1_555
C13 P3 1_555 1_555
C14 C13 1_555 1_555
H11 C14 1_555 1_555
C15 C14 1_555 1_555
H12 C15 1_555 1_555
C16 C15 1_555 1_555
H13 C16 1_555 1_555
C17 C16 1_555 1_555
H14 C17 1_555 1_555
C18 C13 1_555 1_555
H15 C18 1_555 1_555
C19 P4 1_555 1_555
C20 C19 1_555 1_555
H16 C20 1_555 1_555
C21 C20 1_555 1_555
H17 C21 1_555 1_555
C22 C21 1_555 1_555
H18 C22 1_555 1_555
C23 C22 1_555 1_555
H19 C23 1_555 1_555
C24 C19 1_555 1_555
H20 C24 1_555 1_555
C25 P4 1_555 1_555
C26 C25 1_555 1_555
H21 C26 1_555 1_555
C27 C26 1_555 1_555
H22 C27 1_555 1_555
C28 C27 1_555 1_555
H23 C28 1_555 1_555
C29 C28 1_555 1_555
H24 C29 1_555 1_555
C30 C25 1_555 1_555
H25 C30 1_555 1_555
C31 P4 1_555 1_555
C32 C31 1_555 1_555
H26 C32 1_555 1_555
C33 C32 1_555 1_555
H27 C33 1_555 1_555
C34 C33 1_555 1_555
H28 C34 1_555 1_555
C35 C34 1_555 1_555
H29 C35 1_555 1_555
C36 C31 1_555 1_555
H30 C36 1_555 1_555
C37 C38 1_555 1_555
C38 H31 1_555 1_555
C39 C38 1_555 1_555
H32 C39 1_555 1_555
C40 C39 1_555 1_555
H33 C40 1_555 1_555
C41 C40 1_555 1_555
H34 C41 1_555 1_555
C42 C37 1_555 1_555
H35 C42 1_555 1_555
C43 P1 1_555 1_555
C44 C43 1_555 1_555
H36 C44 1_555 1_555
C45 C44 1_555 1_555
H37 C45 1_555 1_555
C46 C45 1_555 1_555
H38 C46 1_555 1_555
C47 C46 1_555 1_555
H39 C47 1_555 1_555
C48 C43 1_555 1_555
H40 C48 1_555 1_555
C49 P1 1_555 1_555
C50 C49 1_555 1_555
H41 C50 1_555 1_555
C51 C50 1_555 1_555
H42 C51 1_555 1_555
C52 C51 1_555 1_555
H43 C52 1_555 1_555
C53 C52 1_555 1_555
H44 C53 1_555 1_555
C54 C49 1_555 1_555
H45 C54 1_555 1_555
C55 P2 1_555 1_555
C56 C55 1_555 1_555
H46 C56 1_555 1_555
C57 C56 1_555 1_555
H47 C57 1_555 1_555
C58 C57 1_555 1_555
H48 C58 1_555 1_555
C59 C58 1_555 1_555
H49 C59 1_555 1_555
C60 C55 1_555 1_555
H50 C60 1_555 1_555
C61 P2 1_555 1_555
C62 C61 1_555 1_555
H51 C62 1_555 1_555
C63 C62 1_555 1_555
H52 C63 1_555 1_555
C64 C63 1_555 1_555
H53 C64 1_555 1_555
C65 C64 1_555 1_555
H54 C65 1_555 1_555
C66 C61 1_555 1_555
H55 C66 1_555 1_555
C67 P2 1_555 1_555
C68 C67 1_555 1_555
H56 C68 1_555 1_555
C69 C68 1_555 1_555
H57 C69 1_555 1_555
C70 C69 1_555 1_555
H58 C70 1_555 1_555
C71 C70 1_555 1_555
H59 C71 1_555 1_555
C72 C67 1_555 1_555
H60 C72 1_555 1_555
C73 C74 1_555 1_555
C74 C77 1_555 1_555
C75 C73 1_555 1_555
H61 C75 1_555 1_555
H62 C75 1_555 1_555
C76 C75 1_555 1_555
H63 C76 1_555 1_555
H64 C76 1_555 1_555
C77 C76 1_555 1_555
H65 C77 1_555 1_555
H66 C77 1_555 1_555
C78 H67 1_555 1_555
H68 C78 1_555 1_555
H69 C78 1_555 1_555
C79 N4 1_555 1_555
H70 C79 1_555 1_555
H71 C79 1_555 1_555
H72 C79 1_555 1_555
B1 N4 1_555 1_555
B2 C74 1_555 1_555
H73 B2 1_555 1_555
B3 B1 1_555 1_555
H74 B3 1_555 1_555
B4 B1 1_555 1_555
H75 B4 1_555 1_555
B5 C73 1_555 1_555
H76 B5 1_555 1_555
B6 C73 1_555 1_555
H77 B6 1_555 1_555
B7 C74 1_555 1_555
H78 B7 1_555 1_555
B8 B2 1_555 1_555
H79 B8 1_555 1_555
B9 B3 1_555 1_555
H80 B9 1_555 1_555
B10 B4 1_555 1_555
H81 B10 1_555 1_555
B11 C73 1_555 1_555
H82 B11 1_555 1_555
B12 B6 1_555 1_555
H83 B12 1_555 1_555
C80 C81 1_555 1_555
C81 C84 1_555 1_555
C82 C80 1_555 1_555
H84 C82 1_555 1_555
H85 C82 1_555 1_555
C83 C82 1_555 1_555
H86 C83 1_555 1_555
H87 C83 1_555 1_555
C84 C83 1_555 1_555
H88 C84 1_555 1_555
H89 C84 1_555 1_555
C85 H90 1_555 1_555
H91 C85 1_555 1_555
H92 C85 1_555 1_555
C86 N1 1_555 1_555
H93 C86 1_555 1_555
H94 C86 1_555 1_555
H95 C86 1_555 1_555
B13 N1 1_555 1_555
B14 C81 1_555 1_555
H96 B14 1_555 1_555
B15 B13 1_555 1_555
H97 B15 1_555 1_555
B16 B13 1_555 1_555
H98 B16 1_555 1_555
B17 C80 1_555 1_555
H99 B17 1_555 1_555
B18 C80 1_555 1_555
H100 B18 1_555 1_555
B19 C81 1_555 1_555
H101 B19 1_555 1_555
B20 B14 1_555 1_555
H102 B20 1_555 1_555
B21 B15 1_555 1_555
H103 B21 1_555 1_555
B22 B16 1_555 1_555
H104 B22 1_555 1_555
B23 C80 1_555 1_555
H105 B23 1_555 1_555
B24 B18 1_555 1_555
H106 B24 1_555 1_555
H107 B13 1_555 1_555
H108 B1 1_555 1_555
C5 C6 1_555 1_555
C11 C12 1_555 1_555
C17 C18 1_555 1_555
C23 C24 1_555 1_555
C29 C30 1_555 1_555
C35 C36 1_555 1_555
C41 C42 1_555 1_555
C47 C48 1_555 1_555
C53 C54 1_555 1_555
C59 C60 1_555 1_555
C65 C66 1_555 1_555
C71 C72 1_555 1_555
C74 B6 1_555 1_555
B2 B3 1_555 1_555
B2 B7 1_555 1_555
B3 B4 1_555 1_555
B3 B8 1_555 1_555
B4 B5 1_555 1_555
B4 B9 1_555 1_555
B5 B10 1_555 1_555
B5 B11 1_555 1_555
B6 B7 1_555 1_555
B6 B11 1_555 1_555
B7 B8 1_555 1_555
B7 B12 1_555 1_555
B8 B9 1_555 1_555
B8 B12 1_555 1_555
B9 B10 1_555 1_555
B9 B12 1_555 1_555
B10 B11 1_555 1_555
B10 B12 1_555 1_555
B11 B12 1_555 1_555
C81 B18 1_555 1_555
B14 B15 1_555 1_555
B14 B19 1_555 1_555
B15 B16 1_555 1_555
B15 B20 1_555 1_555
B16 B17 1_555 1_555
B16 B21 1_555 1_555
B17 B22 1_555 1_555
B17 B23 1_555 1_555
B18 B19 1_555 1_555
B18 B23 1_555 1_555
B19 B20 1_555 1_555
B19 B24 1_555 1_555
B20 B21 1_555 1_555
B20 B24 1_555 1_555
B21 B22 1_555 1_555
B21 B24 1_555 1_555
B22 B23 1_555 1_555
B22 B24 1_555 1_555
B23 B24 1_555 1_555

#END
