
#######################################################################
#
#                 Cambridge Crystallographic Data Centre
#                                CCDC 
#
#######################################################################
#
# If this CIF has been generated from an entry in the Cambridge 
# Structural Database, then it will include bibliographic, chemical, 
# crystal, experimental, refinement or atomic coordinate data resulting 
# from the CCDC's data processing and validation procedures.
#
#######################################################################

data_BUTHAA
_chemical_formula_moiety         'C23 H32 N2 O3'
_chemical_name_systematic        
5-((2-Hydroxy-4-methoxyphenyl)(pentylimino)methyl)-1-pentylpyridin-2(1H)-one
_symmetry_cell_setting           triclinic
_symmetry_space_group_name_H-M   'P -1'
_symmetry_Int_Tables_number      2
_space_group_name_Hall           '-P 1'
loop_
_symmetry_equiv_pos_site_id
_symmetry_equiv_pos_as_xyz
1 x,y,z
2 -x,-y,-z
_cell_length_a                   9.580(5)
_cell_length_b                   9.634(5)
_cell_length_c                   12.430(6)
_cell_angle_alpha                91.960(7)
_cell_angle_beta                 93.848(7)
_cell_angle_gamma                104.535(7)
_cell_volume                     1106.44
_exptl_crystal_colour            yellow
_exptl_crystal_description       block
_cell_formula_units_Z            2
loop_
_atom_site_label
_atom_site_type_symbol
_atom_site_fract_x
_atom_site_fract_y
_atom_site_fract_z
N1 N 0.2972(5) 0.9944(5) 1.1087(5)
N2 N 0.1175(5) 0.5998(5) 0.8733(4)
O1 O 0.4729(5) 1.3651(5) 0.7062(4)
O2 O 0.4488(4) 1.2369(4) 1.0699(4)
H1 H 0.5037 1.3175 1.0784
O3 O -0.1083(5) 0.4514(4) 0.8410(5)
C1 C 0.5801(8) 1.4955(7) 0.7333(7)
H2 H 0.6015 1.5472 0.6692
H3 H 0.6663 1.4743 0.7645
H4 H 0.5447 1.5529 0.7843
C2 C 0.4268(7) 1.2763(6) 0.7845(7)
C3 C 0.4691(6) 1.3050(6) 0.8931(6)
H5 H 0.5366 1.3902 0.9159
C4 C 0.4116(6) 1.2074(6) 0.9685(6)
C5 C 0.3159(6) 1.0720(6) 0.9316(6)
C6 C 0.2752(7) 1.0497(6) 0.8194(6)
H6 H 0.2085 0.9653 0.7939
C7 C 0.3299(8) 1.1465(7) 0.7501(6)
H7 H 0.3029 1.1271 0.6768
C8 C 0.2587(6) 0.9663(5) 1.0055(6)
C9 C 0.2555(8) 0.8952(7) 1.1937(6)
H8 H 0.3411 0.8930 1.2393
H9 H 0.2146 0.7994 1.1612
C10 C 0.1457(10) 0.9371(10) 1.2631(7)
H10 H 0.0590 0.9357 1.2175
H11 H 0.1193 0.8658 1.3164
C11 C 0.1998(13) 1.0830(10) 1.3204(8)
H12 H 0.2880 1.0851 1.3642
H13 H 0.2238 1.1543 1.2668
C12 C 0.099(2) 1.1222(16) 1.3881(12)
H14 H 0.0100 1.1131 1.3432
H15 H 0.0780 1.0499 1.4412
C13 C 0.1276(16) 1.2469(13) 1.4406(12)
H16 H 0.0447 1.2554 1.4772
H17 H 0.1506 1.3218 1.3908
H18 H 0.2085 1.2553 1.4925
C14 C 0.1568(6) 0.8270(6) 0.9643(5)
C15 C 0.0079(6) 0.7983(6) 0.9761(5)
H19 H -0.0291 0.8648 1.0132
C16 C -0.0816(6) 0.6745(6) 0.9338(5)
H20 H -0.1805 0.6596 0.9394
C17 C -0.0310(7) 0.5669(6) 0.8814(5)
C18 C 0.2070(6) 0.7267(6) 0.9146(5)
H21 H 0.3059 0.7437 0.9078
C19 C 0.1811(7) 0.4952(6) 0.8175(6)
H22 H 0.1303 0.3987 0.8337
H23 H 0.2816 0.5107 0.8441
C20 C 0.1720(10) 0.5089(8) 0.6982(7)
H24 H 0.0714 0.4956 0.6728
H25 H 0.2058 0.4322 0.6646
C21 C 0.2591(11) 0.6523(9) 0.6610(7)
H26 H 0.2123 0.7264 0.6817
H27 H 0.3545 0.6753 0.6990
C22 C 0.2762(15) 0.6568(12) 0.5441(9)
H28 H 0.1807 0.6320 0.5062
H29 H 0.3241 0.5833 0.5238
C23 C 0.3618(15) 0.8010(15) 0.5043(10)
H30 H 0.3639 0.7932 0.4273
H31 H 0.4588 0.8243 0.5374
H32 H 0.3158 0.8751 0.5235
loop_
_geom_bond_atom_site_label_1
_geom_bond_atom_site_label_2
_geom_bond_site_symmetry_1
_geom_bond_site_symmetry_2
N1 C8 1_555 1_555
N2 C17 1_555 1_555
O1 C1 1_555 1_555
O2 H1 1_555 1_555
O3 C17 1_555 1_555
C1 H2 1_555 1_555
H3 C1 1_555 1_555
H4 C1 1_555 1_555
C2 O1 1_555 1_555
C3 C2 1_555 1_555
H5 C3 1_555 1_555
C4 O2 1_555 1_555
C5 C4 1_555 1_555
C6 C5 1_555 1_555
H6 C6 1_555 1_555
C7 C2 1_555 1_555
H7 C7 1_555 1_555
C8 C5 1_555 1_555
C9 N1 1_555 1_555
H8 C9 1_555 1_555
H9 C9 1_555 1_555
C10 C9 1_555 1_555
H10 C10 1_555 1_555
H11 C10 1_555 1_555
C11 C10 1_555 1_555
H12 C11 1_555 1_555
H13 C11 1_555 1_555
C12 C11 1_555 1_555
H14 C12 1_555 1_555
H15 C12 1_555 1_555
C13 C12 1_555 1_555
H16 C13 1_555 1_555
H17 C13 1_555 1_555
H18 C13 1_555 1_555
C14 C8 1_555 1_555
C15 C14 1_555 1_555
H19 C15 1_555 1_555
C16 C15 1_555 1_555
H20 C16 1_555 1_555
C17 C16 1_555 1_555
C18 N2 1_555 1_555
H21 C18 1_555 1_555
C19 N2 1_555 1_555
H22 C19 1_555 1_555
H23 C19 1_555 1_555
C20 C19 1_555 1_555
H24 C20 1_555 1_555
H25 C20 1_555 1_555
C21 C20 1_555 1_555
H26 C21 1_555 1_555
H27 C21 1_555 1_555
C22 C21 1_555 1_555
H28 C22 1_555 1_555
H29 C22 1_555 1_555
C23 C22 1_555 1_555
H30 C23 1_555 1_555
H31 C23 1_555 1_555
H32 C23 1_555 1_555
C3 C4 1_555 1_555
C6 C7 1_555 1_555
C14 C18 1_555 1_555

#END
