
#######################################################################
#
#                 Cambridge Crystallographic Data Centre
#                                CCDC 
#
#######################################################################
#
# If this CIF has been generated from an entry in the Cambridge 
# Structural Database, then it will include bibliographic, chemical, 
# crystal, experimental, refinement or atomic coordinate data resulting 
# from the CCDC's data processing and validation procedures.
#
#######################################################################

data_BUTSEQ
_chemical_formula_moiety         'C57 H72 N2 O12,2(C1 H2 Cl2),H2 O1'
_chemical_name_systematic        
'18,25,28-trihydroxy-8,38-diisobutyl-10,11,15,23,31,35,36-heptamethyl-45-oxa-7,39-diazadecacyclo[23.18.1.1^2,21^.0^1,22^.0^3,20^.0^5,9^.0^5,13^.0^26,43^.0^33,41^.0^37,41^]pentatetraconta-11,14,22,31,34-pentaene-4,6,19,24,27,40,42,44-octone dichloromethane solvate monohydrate'
_symmetry_cell_setting           triclinic
_symmetry_space_group_name_H-M   'P 1'
_symmetry_Int_Tables_number      1
_space_group_name_Hall           'P 1'
loop_
_symmetry_equiv_pos_site_id
_symmetry_equiv_pos_as_xyz
1 x,y,z
_cell_length_a                   10.0089(4)
_cell_length_b                   10.7159(5)
_cell_length_c                   15.3919(6)
_cell_angle_alpha                104.982(2)
_cell_angle_beta                 105.613(2)
_cell_angle_gamma                94.038(2)
_cell_volume                     1518.4
_exptl_crystal_colour            colorless
_exptl_crystal_description       sheet
_cell_formula_units_Z            1
loop_
_atom_site_label
_atom_site_type_symbol
_atom_site_fract_x
_atom_site_fract_y
_atom_site_fract_z
Cl1 Cl 0.0426(5) 0.3434(3) 0.7759(3)
Cl2 Cl 0.1915(5) 0.4477(6) 0.6715(4)
C1 C 0.0468(16) 0.3402(13) 0.6675(8)
H1 H -0.0392 0.3650 0.6341
H2 H 0.0526 0.2521 0.6332
Cl3 Cl 0.0989(3) 0.3967(3) 0.03520(15)
Cl4 Cl 0.2402(2) 0.6624(2) 0.13344(15)
C2 C 0.1604(7) 0.5194(8) 0.1428(4)
H3 H 0.0823 0.5386 0.1676
H4 H 0.2272 0.4875 0.1874
O1 O 0.0625(3) 0.5339(3) 0.3808(2)
H5 H 0.0502 0.5837 0.4364
H6 H 0.0197 0.5860 0.3493
C3 C 0.5530(9) 0.1639(5) 0.0738(6)
H7 H 0.4781 0.1618 0.0189
H8 H 0.5494 0.0793 0.0841
H9 H 0.6414 0.1873 0.0645
O2 O 0.5818(3) 0.8544(3) 0.17157(19)
O3 O 0.9279(4) 1.0237(3) 0.5287(2)
O4 O 0.8911(4) 1.2352(3) 0.4540(2)
H10 H 0.8455 1.2952 0.4499
O5 O 0.6203(3) 0.6859(2) 0.33552(16)
O6 O 0.3695(3) 0.7125(3) 0.5271(2)
O7 O 0.9622(3) 0.6255(3) 0.52944(19)
O8 O 0.7497(4) 0.9414(3) 0.6292(2)
O9 O 0.3291(3) 0.4957(3) 0.3580(2)
H11 H 0.2577 0.5155 0.3711
O10 O 0.6189(5) 1.2426(3) 0.4007(3)
O11 O 1.0649(3) 1.0361(3) 0.3437(3)
O12 O 0.9435(3) 0.6632(2) 0.25482(19)
N1 N 1.1381(4) 0.7899(3) 0.6208(2)
H12 H 1.1985 0.7618 0.5929
O13 O 0.9057(4) 1.2977(4) 0.2885(3)
H13 H 0.9447 1.3729 0.3015
C4 C 0.4144(7) 0.2118(7) 0.1859(5)
H14 H 0.3303 0.1944 0.1339
H15 H 0.4033 0.2759 0.2390
H16 H 0.4318 0.1327 0.2023
C5 C 0.5374(5) 0.2632(5) 0.1581(4)
H17 H 0.6230 0.2758 0.2106
C6 C 0.5152(4) 0.3955(4) 0.1411(3)
H18 H 0.4253 0.3847 0.0939
H19 H 0.5100 0.4551 0.1990
C7 C 0.6268(4) 0.4580(4) 0.1092(3)
H20 H 0.6368 0.3952 0.0532
C8 C 0.5949(4) 0.5866(4) 0.0843(3)
H21 H 0.5130 0.6136 0.1033
C9 C 0.7259(4) 0.6906(3) 0.1439(2)
C10 C 0.6877(4) 0.8151(3) 0.2032(2)
C11 C 0.7960(3) 0.8958(3) 0.2966(2)
H22 H 0.8856 0.8626 0.3014
C12 C 0.7488(4) 0.8898(3) 0.3858(2)
C13 C 0.7472(4) 0.7567(3) 0.4060(2)
H23 H 0.8306 0.7162 0.4007
C14 C 0.7095(4) 0.7558(3) 0.4971(2)
H24 H 0.7120 0.6667 0.5023
C15 C 0.7939(4) 0.8474(4) 0.5938(2)
C16 C 0.9241(4) 0.8079(3) 0.6522(2)
C17 C 1.0328(4) 0.9270(4) 0.7202(2)
H25 H 1.0041 1.0062 0.7048
C18 C 1.1745(4) 0.9075(4) 0.7006(3)
H26 H 1.2377 0.8886 0.7548
C19 C 1.2469(5) 1.0239(4) 0.6827(3)
H27 H 1.2461 1.1019 0.7314
H28 H 1.1918 1.0330 0.6230
C20 C 1.3975(6) 1.0187(5) 0.6803(4)
H29 H 1.4010 0.9361 0.6356
C21 C 1.4965(7) 1.0271(8) 0.7770(7)
H30 H 1.5864 1.0082 0.7709
H31 H 1.4584 0.9648 0.8023
H32 H 1.5069 1.1135 0.8185
N2 N 0.7639(3) 0.4954(3) 0.1809(2)
H33 H 0.8030 0.4416 0.2087
C22 C 0.8243(4) 0.6181(3) 0.2001(2)
C23 C 0.8394(4) 1.0113(4) 0.4548(3)
C24 C 0.8042(5) 1.1162(4) 0.4053(2)
C25 C 0.6482(5) 1.1340(4) 0.3940(3)
C26 C 0.5464(4) 1.0170(4) 0.3765(3)
C27 C 0.5968(4) 0.9054(4) 0.3722(2)
C28 C 0.5274(4) 0.7717(4) 0.3666(3)
H34 H 0.4292 0.7480 0.3275
C29 C 0.5519(4) 0.7741(3) 0.4712(2)
H35 H 0.5440 0.8617 0.5073
C30 C 0.4509(4) 0.6743(4) 0.4865(2)
C31 C 0.4442(4) 0.5266(4) 0.4426(3)
H36 H 0.5311 0.5096 0.4270
C32 C 0.4202(5) 0.4481(4) 0.5089(3)
H37 H 0.3534 0.4862 0.5393
H38 H 0.3778 0.3596 0.4713
C33 C 0.5514(6) 0.4414(4) 0.5852(4)
H39 H 0.5232 0.3917 0.6235
H40 H 0.6125 0.3928 0.5546
C34 C 0.6354(5) 0.5696(4) 0.6499(3)
C35 C 0.7645(5) 0.6039(4) 0.6504(3)
H41 H 0.7992 0.5444 0.6095
C36 C 0.8622(5) 0.7271(4) 0.7091(3)
H42 H 0.8059 0.7836 0.7404
C37 C 1.0449(5) 0.9439(5) 0.8248(3)
H43 H 0.9532 0.9603 0.8328
C38 C 1.0707(6) 0.8146(6) 0.8450(3)
C39 C 0.9819(6) 0.7095(5) 0.7876(3)
H44 H 0.9928 0.6272 0.7954
C40 C 1.1954(10) 0.8078(9) 0.9254(5)
H45 H 1.1970 0.7186 0.9263
H46 H 1.1870 0.8596 0.9842
H47 H 1.2808 0.8407 0.9163
C41 C 1.1512(7) 1.0624(6) 0.8892(3)
H48 H 1.1482 1.0764 0.9528
H49 H 1.1289 1.1381 0.8691
H50 H 1.2436 1.0475 0.8864
C42 C 1.0092(4) 0.7289(4) 0.5937(3)
C43 C 1.4494(9) 1.1321(7) 0.6483(6)
H51 H 1.4664 1.2122 0.6981
H52 H 1.3795 1.1386 0.5937
H53 H 1.5349 1.1167 0.6330
C44 C 0.5653(6) 0.6508(6) 0.7160(4)
H54 H 0.5514 0.6053 0.7597
H55 H 0.4763 0.6653 0.6802
H56 H 0.6239 0.7333 0.7499
C45 C 0.3970(6) 1.0325(6) 0.3669(4)
H57 H 0.3440 1.0055 0.3014
H58 H 0.3909 1.1225 0.3940
H59 H 0.3598 0.9795 0.3991
C46 C 0.8200(4) 1.0451(3) 0.3067(2)
H60 H 0.7526 1.0671 0.2557
C47 C 0.9711(4) 1.0901(4) 0.3122(3)
C48 C 1.0052(5) 1.2107(4) 0.2818(4)
H61 H 1.0954 1.2579 0.3259
C49 C 1.0211(13) 1.1837(6) 0.1852(7)
H62 H 1.0895 1.2531 0.1859
H63 H 0.9322 1.1895 0.1426
C50 C 1.0661(7) 1.0516(5) 0.1431(5)
H64 H 1.1168 1.0617 0.0991
H65 H 1.1284 1.0252 0.1931
C51 C 0.9402(6) 0.9487(5) 0.0932(4)
C52 C 0.9179(4) 0.8446(4) 0.1211(3)
H66 H 0.9852 0.8343 0.1727
C53 C 0.7916(4) 0.7428(4) 0.0749(3)
H67 H 0.7194 0.7856 0.0418
C54 C 0.8076(5) 0.6278(4) 0.0005(3)
H68 H 0.8939 0.6185 -0.0104
C55 C 0.6937(6) 0.5391(5) -0.0496(3)
C56 C 0.5630(5) 0.5642(5) -0.0230(3)
H69 H 0.5396 0.6463 -0.0356
C57 C 0.4334(7) 0.4596(7) -0.0782(4)
H70 H 0.4083 0.4560 -0.1436
H71 H 0.3565 0.4816 -0.0540
H72 H 0.4547 0.3760 -0.0714
C58 C 0.7001(8) 0.4210(6) -0.1275(4)
H73 H 0.7952 0.4198 -0.1291
H74 H 0.6421 0.4260 -0.1870
H75 H 0.6669 0.3427 -0.1156
C59 C 0.8387(8) 0.9635(7) 0.0021(5)
H76 H 0.8382 0.8918 -0.0505
H77 H 0.8691 1.0441 -0.0080
H78 H 0.7457 0.9636 0.0082
loop_
_geom_bond_atom_site_label_1
_geom_bond_atom_site_label_2
_geom_bond_site_symmetry_1
_geom_bond_site_symmetry_2
Cl1 C1 1_555 1_555
Cl2 C1 1_555 1_555
C1 H1 1_555 1_555
H2 C1 1_555 1_555
Cl3 C2 1_555 1_555
Cl4 C2 1_555 1_555
C2 H3 1_555 1_555
H4 C2 1_555 1_555
O1 H5 1_555 1_555
H6 O1 1_555 1_555
C3 H7 1_555 1_555
H8 C3 1_555 1_555
H9 C3 1_555 1_555
O2 C10 1_555 1_555
O3 C23 1_555 1_555
O4 H10 1_555 1_555
O5 C13 1_555 1_555
O6 C30 1_555 1_555
O7 C42 1_555 1_555
O8 C15 1_555 1_555
O9 H11 1_555 1_555
O10 C25 1_555 1_555
O11 C47 1_555 1_555
O12 C22 1_555 1_555
N1 H12 1_555 1_555
O13 H13 1_555 1_555
C4 H14 1_555 1_555
H15 C4 1_555 1_555
H16 C4 1_555 1_555
C5 C3 1_555 1_555
H17 C5 1_555 1_555
C6 C5 1_555 1_555
H18 C6 1_555 1_555
H19 C6 1_555 1_555
C7 C6 1_555 1_555
H20 C7 1_555 1_555
C8 C7 1_555 1_555
H21 C8 1_555 1_555
C9 C8 1_555 1_555
C10 C9 1_555 1_555
C11 C10 1_555 1_555
H22 C11 1_555 1_555
C12 C11 1_555 1_555
C13 C12 1_555 1_555
H23 C13 1_555 1_555
C14 C13 1_555 1_555
H24 C14 1_555 1_555
C15 C14 1_555 1_555
C16 C15 1_555 1_555
C17 C16 1_555 1_555
H25 C17 1_555 1_555
C18 N1 1_555 1_555
H26 C18 1_555 1_555
C19 C18 1_555 1_555
H27 C19 1_555 1_555
H28 C19 1_555 1_555
C20 C19 1_555 1_555
H29 C20 1_555 1_555
C21 C20 1_555 1_555
H30 C21 1_555 1_555
H31 C21 1_555 1_555
H32 C21 1_555 1_555
N2 C7 1_555 1_555
H33 N2 1_555 1_555
C22 C9 1_555 1_555
C23 C12 1_555 1_555
C24 O4 1_555 1_555
C25 C24 1_555 1_555
C26 C25 1_555 1_555
C27 C12 1_555 1_555
C28 O5 1_555 1_555
H34 C28 1_555 1_555
C29 C14 1_555 1_555
H35 C29 1_555 1_555
C30 C29 1_555 1_555
C31 O9 1_555 1_555
H36 C31 1_555 1_555
C32 C31 1_555 1_555
H37 C32 1_555 1_555
H38 C32 1_555 1_555
C33 C32 1_555 1_555
H39 C33 1_555 1_555
H40 C33 1_555 1_555
C34 C33 1_555 1_555
C35 C34 1_555 1_555
H41 C35 1_555 1_555
C36 C16 1_555 1_555
H42 C36 1_555 1_555
C37 C17 1_555 1_555
H43 C37 1_555 1_555
C38 C37 1_555 1_555
C39 C36 1_555 1_555
H44 C39 1_555 1_555
C40 C38 1_555 1_555
H45 C40 1_555 1_555
H46 C40 1_555 1_555
H47 C40 1_555 1_555
C41 C37 1_555 1_555
H48 C41 1_555 1_555
H49 C41 1_555 1_555
H50 C41 1_555 1_555
C42 N1 1_555 1_555
C43 C20 1_555 1_555
H51 C43 1_555 1_555
H52 C43 1_555 1_555
H53 C43 1_555 1_555
C44 C34 1_555 1_555
H54 C44 1_555 1_555
H55 C44 1_555 1_555
H56 C44 1_555 1_555
C45 C26 1_555 1_555
H57 C45 1_555 1_555
H58 C45 1_555 1_555
H59 C45 1_555 1_555
C46 C11 1_555 1_555
H60 C46 1_555 1_555
C47 C46 1_555 1_555
C48 O13 1_555 1_555
H61 C48 1_555 1_555
C49 C48 1_555 1_555
H62 C49 1_555 1_555
H63 C49 1_555 1_555
C50 C49 1_555 1_555
H64 C50 1_555 1_555
H65 C50 1_555 1_555
C51 C50 1_555 1_555
C52 C51 1_555 1_555
H66 C52 1_555 1_555
C53 C9 1_555 1_555
H67 C53 1_555 1_555
C54 C53 1_555 1_555
H68 C54 1_555 1_555
C55 C54 1_555 1_555
C56 C8 1_555 1_555
H69 C56 1_555 1_555
C57 C56 1_555 1_555
H70 C57 1_555 1_555
H71 C57 1_555 1_555
H72 C57 1_555 1_555
C58 C55 1_555 1_555
H73 C58 1_555 1_555
H74 C58 1_555 1_555
H75 C58 1_555 1_555
C59 C51 1_555 1_555
H76 C59 1_555 1_555
H77 C59 1_555 1_555
H78 C59 1_555 1_555
C4 C5 1_555 1_555
C16 C42 1_555 1_555
C17 C18 1_555 1_555
N2 C22 1_555 1_555
C23 C24 1_555 1_555
C24 C46 1_555 1_555
C26 C27 1_555 1_555
C27 C28 1_555 1_555
C28 C29 1_555 1_555
C30 C31 1_555 1_555
C35 C36 1_555 1_555
C38 C39 1_555 1_555
C47 C48 1_555 1_555
C52 C53 1_555 1_555
C55 C56 1_555 1_555

#END
