
#######################################################################
#
#                 Cambridge Crystallographic Data Centre
#                                CCDC 
#
#######################################################################
#
# If this CIF has been generated from an entry in the Cambridge 
# Structural Database, then it will include bibliographic, chemical, 
# crystal, experimental, refinement or atomic coordinate data resulting 
# from the CCDC's data processing and validation procedures.
#
#######################################################################

data_BUVKOS01
_chemical_formula_moiety         'C40 H64 N4 O8,C8 H10'
_chemical_name_systematic        
'5,8,23,26,39,42,47,50-Octaoxa-2,11,20,29-tetra-aza(12.12.8^2,11^.8^20,29^)(1,4)benzeno(2)phane p-xylene clathrate'
_symmetry_cell_setting           monoclinic
_symmetry_space_group_name_H-M   'P 21/c'
_symmetry_Int_Tables_number      14
_space_group_name_Hall           '-P 2ybc'
loop_
_symmetry_equiv_pos_site_id
_symmetry_equiv_pos_as_xyz
1 x,y,z
2 -x,1/2+y,1/2-z
3 -x,-y,-z
4 x,1/2-y,1/2+z
_cell_length_a                   11.355(4)
_cell_length_b                   9.1721(4)
_cell_length_c                   24.4052(8)
_cell_angle_alpha                90
_cell_angle_beta                 108.61(3)
_cell_angle_gamma                90
_cell_volume                     2408.88
_cell_formula_units_Z            2
loop_
_atom_site_label
_atom_site_type_symbol
_atom_site_fract_x
_atom_site_fract_y
_atom_site_fract_z
C1 C 0.9022(2) -0.1744(2) 0.6804(1)
N1 N 0.8271(2) -0.1598(2) 0.7191(1)
C2 C 0.8588(2) -0.0219(3) 0.7513(1)
C3 C 0.7605(2) 0.0368(3) 0.7743(1)
O1 O 0.6567(1) 0.0830(2) 0.7280(1)
C4 C 0.5672(2) 0.1557(3) 0.7473(1)
C5 C 0.4623(2) 0.2111(3) 0.6981(1)
O2 O 0.3753(1) 0.1050(2) 0.6681(1)
C6 C 0.4153(2) 0.0183(3) 0.6295(1)
C7 C 0.3082(2) -0.0768(3) 0.5965(1)
N2 N 0.3481(2) -0.1867(2) 0.5624(1)
C8 C 0.2427(3) -0.2329(3) 0.5129(1)
C9 C 0.2054(2) -0.1220(2) 0.4653(1)
C10 C 0.0822(2) -0.0881(3) 0.4375(1)
C11 C 0.0480(2) 0.0060(3) 0.3907(1)
C12 C 0.8642(2) -0.0700(3) 0.6299(1)
C13 C 0.7402(2) -0.0383(2) 0.6015(1)
C14 C 0.2935(2) -0.0552(3) 0.4451(1)
C15 C 0.8457(2) -0.2855(3) 0.7581(1)
C16 C 0.7722(2) -0.4187(3) 0.7314(1)
O3 O 0.8239(1) -0.4861(2) 0.6919(1)
C17 C 0.7561(3) -0.6071(3) 0.6617(1)
C18 C 0.6584(3) -0.5654(4) 0.6064(1)
O4 O 0.5605(2) -0.4907(2) 0.6186(1)
C19 C 0.4947(2) -0.3931(3) 0.5756(1)
C20 C 0.4067(3) -0.3110(3) 0.5986(1)
C12B C 0.1358(2) 0.0700(3) 0.3701(1)
C11B C 0.9520(2) -0.0060(3) 0.6093(1)
C14B C 0.7065(2) 0.0552(3) 0.5549(1)
C13B C 0.2598(2) 0.0383(2) 0.3985(1)
C1B C 0.0978(2) 0.1744(2) 0.3196(1)
C10B C 0.9178(2) 0.0881(3) 0.5625(1)
C9B C 0.7946(2) 0.1220(2) 0.5347(1)
N1B N 0.1729(2) 0.1598(2) 0.2809(1)
C8B C 0.7573(3) 0.2329(3) 0.4871(1)
C2B C 0.1412(2) 0.0219(3) 0.2487(1)
C15B C 0.1543(2) 0.2855(3) 0.2419(1)
N2B N 0.6519(2) 0.1867(2) 0.4376(1)
C3B C 0.2395(2) -0.0368(3) 0.2257(1)
C16B C 0.2278(2) 0.4187(3) 0.2686(1)
C7B C 0.6918(2) 0.0768(3) 0.4035(1)
C20B C 0.5933(3) 0.3110(3) 0.4014(1)
O1B O 0.3433(1) -0.0830(2) 0.2720(1)
O3B O 0.1761(1) 0.4861(2) 0.3081(1)
C6B C 0.5847(2) -0.0183(3) 0.3705(1)
C19B C 0.5053(2) 0.3931(3) 0.4244(1)
C4B C 0.4328(2) -0.1557(3) 0.2527(1)
C17B C 0.2439(3) 0.6071(3) 0.3383(1)
O2B O 0.6247(1) -0.1050(2) 0.3319(1)
O4B O 0.4395(2) 0.4907(2) 0.3814(1)
C5B C 0.5377(2) -0.2111(3) 0.3019(1)
C18B C 0.3416(3) 0.5654(4) 0.3936(1)
C21 C 0.1009(3) 0.4043(3) 0.5105(2)
C22 C 0.0385(4) 0.4508(4) 0.4557(2)
C23 C 0.0607(3) 0.4561(4) 0.5544(1)
C24 C 0.2117(4) 0.3014(4) 0.5214(2)
C23B C -0.0607(3) 0.5439(4) 0.4456(1)
C22B C -0.0385(4) 0.5492(4) 0.5443(2)
C21B C -0.1009(3) 0.5957(3) 0.4895(2)
C24B C -0.2117(4) 0.6986(4) 0.4786(2)
loop_
_geom_bond_atom_site_label_1
_geom_bond_atom_site_label_2
_geom_bond_site_symmetry_1
_geom_bond_site_symmetry_2
C1 N1 1_555 1_555
N1 C2 1_555 1_555
C2 C3 1_555 1_555
C3 O1 1_555 1_555
O1 C4 1_555 1_555
C4 C5 1_555 1_555
C5 O2 1_555 1_555
O2 C6 1_555 1_555
C6 C7 1_555 1_555
C7 N2 1_555 1_555
N2 C8 1_555 1_555
C8 C9 1_555 1_555
C9 C10 1_555 1_555
C10 C11 1_555 1_555
C11 C12B 1_555 1_555
C12 C1 1_555 1_555
C13 C12 1_555 1_555
C14 C9 1_555 1_555
C15 N1 1_555 1_555
C16 C15 1_555 1_555
O3 C16 1_555 1_555
C17 O3 1_555 1_555
C18 C17 1_555 1_555
O4 C18 1_555 1_555
C19 O4 1_555 1_555
C20 N2 1_555 1_555
C21 C22 1_555 1_555
C22 C23B 1_555 1_555
C23 C21 1_555 1_555
C24 C21 1_555 1_555
C12B C13B 1_555 1_555
C11B C12 1_555 1_555
C14B C13 1_555 1_555
C13B C14 1_555 1_555
C1B C12B 1_555 1_555
C10B C11B 1_555 1_555
C9B C14B 1_555 1_555
N1B C1B 1_555 1_555
C8B C9B 1_555 1_555
C2B N1B 1_555 1_555
C15B N1B 1_555 1_555
N2B C8B 1_555 1_555
C3B C2B 1_555 1_555
C16B C15B 1_555 1_555
C7B N2B 1_555 1_555
C20B N2B 1_555 1_555
O1B C3B 1_555 1_555
O3B C16B 1_555 1_555
C6B C7B 1_555 1_555
C19B C20B 1_555 1_555
C4B O1B 1_555 1_555
C17B O3B 1_555 1_555
O2B C6B 1_555 1_555
O4B C19B 1_555 1_555
C5B C4B 1_555 1_555
C18B C17B 1_555 1_555
C23B C21B 1_555 1_555
C22B C23 1_555 1_555
C21B C22B 1_555 1_555
C24B C21B 1_555 1_555
C19 C20 1_555 1_555
C10B C9B 1_555 1_555
O2B C5B 1_555 1_555
O4B C18B 1_555 1_555

#END
