
#######################################################################
#
#                 Cambridge Crystallographic Data Centre
#                                CCDC 
#
#######################################################################
#
# If this CIF has been generated from an entry in the Cambridge 
# Structural Database, then it will include bibliographic, chemical, 
# crystal, experimental, refinement or atomic coordinate data resulting 
# from the CCDC's data processing and validation procedures.
#
#######################################################################

data_BUVMUC
_chemical_formula_moiety         'C54 H50 B2 F4 N4 O2,C1 H1 Cl3'
_chemical_name_systematic        
"10,10'-[(2,2-diphenylethene-1,1-diyl)bis(6-methoxy-3,1-phenylene)]bis(5,5-difluoro-1,3,7,9-tetramethyl-5-boradipyrrolo[1,2-c:2',1'-f]pyrimidin-4-ium) chloroform solvate"
_symmetry_cell_setting           monoclinic
_symmetry_space_group_name_H-M   'P 21/c'
_symmetry_Int_Tables_number      14
_space_group_name_Hall           '-P 2ybc'
loop_
_symmetry_equiv_pos_site_id
_symmetry_equiv_pos_as_xyz
1 x,y,z
2 -x,1/2+y,1/2-z
3 -x,-y,-z
4 x,1/2-y,1/2+z
_cell_length_a                   14.833(7)
_cell_length_b                   19.173(9)
_cell_length_c                   18.859(8)
_cell_angle_alpha                90
_cell_angle_beta                 110.363(9)
_cell_angle_gamma                90
_cell_volume                     5028.2
_exptl_crystal_colour            orange
_exptl_crystal_description       block
_cell_formula_units_Z            4
loop_
_atom_site_label
_atom_site_type_symbol
_atom_site_fract_x
_atom_site_fract_y
_atom_site_fract_z
F1 F 0.28929(15) 0.42547(11) 1.04627(10)
F2 F 0.35291(15) 0.40702(11) 0.95455(13)
F3 F 0.39608(18) 0.86770(12) 0.86729(12)
F4 F 0.50936(17) 0.86019(13) 0.81223(15)
N1 N 0.1790(2) 0.41032(14) 0.91854(14)
N2 N 0.2775(2) 0.51861(15) 0.95734(15)
N3 N 0.4149(2) 0.75797(16) 0.81119(16)
N4 N 0.3422(2) 0.86078(15) 0.73191(16)
O1 O -0.02556(18) 0.58167(14) 0.89288(13)
O2 O 0.33862(19) 0.68435(15) 0.58043(15)
B1 B 0.2772(3) 0.4385(2) 0.9706(2)
B2 B 0.4189(3) 0.8388(2) 0.8077(2)
C1 C 0.1482(3) 0.34379(18) 0.91559(18)
C2 C 0.0553(3) 0.33933(18) 0.86315(19)
H1 H 0.0172 0.2983 0.8510
C3 C 0.0276(2) 0.40482(18) 0.83141(18)
C4 C 0.1067(2) 0.44987(17) 0.86696(17)
C5 C 0.1214(2) 0.52183(17) 0.85798(17)
C6 C 0.2043(2) 0.55538(18) 0.90208(18)
C7 C 0.2330(3) 0.62756(19) 0.90703(19)
C8 C 0.3198(3) 0.6311(2) 0.9643(2)
H2 H 0.3565 0.6724 0.9810
C9 C 0.3463(3) 0.5642(2) 0.9948(2)
C10 C 0.2080(3) 0.28652(19) 0.9619(2)
H3 H 0.2601 0.2753 0.9431
H4 H 0.1679 0.2451 0.9583
H5 H 0.2354 0.3014 1.0148
C11 C -0.0662(3) 0.4204(2) 0.7705(2)
H6 H -0.0555 0.4287 0.7228
H7 H -0.0948 0.4621 0.7842
H8 H -0.1099 0.3808 0.7646
C12 C 0.1808(3) 0.68837(19) 0.8605(2)
H9 H 0.1194 0.6952 0.8684
H10 H 0.1686 0.6791 0.8069
H11 H 0.2201 0.7305 0.8760
C13 C 0.4343(3) 0.5446(2) 1.0584(2)
H12 H 0.4402 0.4937 1.0613
H13 H 0.4303 0.5627 1.1058
H14 H 0.4907 0.5646 1.0501
C14 C 0.0437(2) 0.56274(17) 0.80062(17)
C15 C 0.0439(2) 0.57062(16) 0.72734(17)
H15 H 0.0936 0.5495 0.7139
C16 C -0.0276(2) 0.60888(16) 0.67303(18)
C17 C -0.0984(2) 0.64114(16) 0.69508(18)
H16 H -0.1459 0.6689 0.6595
C18 C -0.1006(2) 0.63347(17) 0.76758(18)
H17 H -0.1498 0.6553 0.7811
C19 C -0.0303(2) 0.59345(17) 0.82054(18)
C20 C -0.1043(3) 0.6048(2) 0.9142(2)
H18 H -0.1055 0.6559 0.9149
H19 H -0.0966 0.5869 0.9647
H20 H -0.1648 0.5874 0.8776
C21 C -0.0271(2) 0.61396(16) 0.59393(18)
C22 C -0.1086(2) 0.60376(16) 0.53193(17)
C23 C -0.1976(2) 0.57439(17) 0.53906(17)
C24 C -0.1944(3) 0.52005(17) 0.58943(17)
H21 H -0.1339 0.5007 0.6188
C25 C -0.2777(3) 0.49369(18) 0.59757(19)
H22 H -0.2734 0.4574 0.6329
C26 C -0.3664(3) 0.5200(2) 0.5546(2)
H23 H -0.4230 0.5024 0.5609
C27 C -0.3728(3) 0.5727(2) 0.5018(2)
H24 H -0.4337 0.5905 0.4714
C28 C -0.2893(3) 0.59859(18) 0.49422(19)
H25 H -0.2942 0.6338 0.4576
C29 C -0.1127(3) 0.62172(18) 0.45363(18)
C30 C -0.0716(3) 0.68296(19) 0.4390(2)
H26 H -0.0409 0.7143 0.4792
C31 C -0.0752(3) 0.6985(2) 0.3662(2)
H27 H -0.0460 0.7399 0.3570
C32 C -0.1215(4) 0.6534(2) 0.3067(2)
H28 H -0.1235 0.6639 0.2569
C33 C -0.1642(4) 0.5940(2) 0.3202(2)
H29 H -0.1968 0.5638 0.2794
C34 C -0.1603(3) 0.5775(2) 0.39330(19)
H30 H -0.1902 0.5362 0.4020
C35 C 0.0692(2) 0.63052(16) 0.58887(18)
C36 C 0.1299(2) 0.67879(16) 0.63758(18)
H31 H 0.1091 0.7012 0.6741
C37 C 0.2194(2) 0.69556(17) 0.63500(18)
C38 C 0.2502(3) 0.66419(18) 0.5803(2)
C39 C 0.1913(3) 0.61468(18) 0.53163(19)
H32 H 0.2119 0.5924 0.4949
C40 C 0.1033(3) 0.59805(17) 0.53672(18)
H33 H 0.0647 0.5635 0.5039
C41 C 0.3725(3) 0.6541(3) 0.5249(3)
H34 H 0.3816 0.6038 0.5339
H35 H 0.4339 0.6756 0.5285
H36 H 0.3252 0.6622 0.4743
C42 C 0.4726(3) 0.7170(2) 0.8670(2)
C43 C 0.4521(3) 0.6472(2) 0.8477(2)
H37 H 0.4838 0.6083 0.8771
C44 C 0.3773(3) 0.64387(19) 0.7782(2)
C45 C 0.3544(2) 0.71453(18) 0.75499(19)
C46 C 0.2858(2) 0.74374(17) 0.69109(18)
C47 C 0.2786(2) 0.81544(17) 0.67978(18)
C48 C 0.2185(3) 0.85573(18) 0.6177(2)
C49 C 0.2480(3) 0.92418(19) 0.6341(2)
H38 H 0.2209 0.9633 0.6031
C50 C 0.3244(3) 0.92697(19) 0.7040(2)
C51 C 0.3785(4) 0.9886(2) 0.7427(2)
H39 H 0.3615 0.9992 0.7873
H40 H 0.3624 1.0285 0.7081
H41 H 0.4476 0.9791 0.7584
C52 C 0.1394(3) 0.8319(2) 0.5479(2)
H42 H 0.0838 0.8176 0.5611
H43 H 0.1618 0.7923 0.5257
H44 H 0.1208 0.8702 0.5113
C53 C 0.3352(3) 0.5773(2) 0.7392(3)
H45 H 0.3471 0.5738 0.6914
H46 H 0.2658 0.5770 0.7290
H47 H 0.3651 0.5377 0.7717
C54 C 0.5452(3) 0.7452(2) 0.9369(2)
H48 H 0.5962 0.7688 0.9241
H49 H 0.5729 0.7069 0.9722
H50 H 0.5143 0.7786 0.9605
C55 C 0.4045(4) 0.2671(3) 0.2838(3)
H51 H 0.4703 0.2700 0.2805
Cl1 Cl 0.31846(10) 0.26469(9) 0.19269(8)
Cl2 Cl 0.38458(13) 0.34044(8) 0.33340(10)
Cl3 Cl 0.3961(2) 0.19268(9) 0.33394(10)
loop_
_geom_bond_atom_site_label_1
_geom_bond_atom_site_label_2
_geom_bond_site_symmetry_1
_geom_bond_site_symmetry_2
F1 B1 1_555 1_555
F2 B1 1_555 1_555
F3 B2 1_555 1_555
F4 B2 1_555 1_555
N1 B1 1_555 1_555
N2 B1 1_555 1_555
N3 B2 1_555 1_555
N4 B2 1_555 1_555
O1 C19 1_555 1_555
O2 C38 1_555 1_555
C1 N1 1_555 1_555
C2 C1 1_555 1_555
H1 C2 1_555 1_555
C3 C2 1_555 1_555
C4 N1 1_555 1_555
C5 C4 1_555 1_555
C6 N2 1_555 1_555
C7 C6 1_555 1_555
C8 C7 1_555 1_555
H2 C8 1_555 1_555
C9 N2 1_555 1_555
C10 C1 1_555 1_555
H3 C10 1_555 1_555
H4 C10 1_555 1_555
H5 C10 1_555 1_555
C11 C3 1_555 1_555
H6 C11 1_555 1_555
H7 C11 1_555 1_555
H8 C11 1_555 1_555
C12 C7 1_555 1_555
H9 C12 1_555 1_555
H10 C12 1_555 1_555
H11 C12 1_555 1_555
C13 C9 1_555 1_555
H12 C13 1_555 1_555
H13 C13 1_555 1_555
H14 C13 1_555 1_555
C14 C5 1_555 1_555
C15 C14 1_555 1_555
H15 C15 1_555 1_555
C16 C15 1_555 1_555
C17 C16 1_555 1_555
H16 C17 1_555 1_555
C18 C17 1_555 1_555
H17 C18 1_555 1_555
C19 C14 1_555 1_555
C20 O1 1_555 1_555
H18 C20 1_555 1_555
H19 C20 1_555 1_555
H20 C20 1_555 1_555
C21 C16 1_555 1_555
C22 C21 1_555 1_555
C23 C22 1_555 1_555
C24 C23 1_555 1_555
H21 C24 1_555 1_555
C25 C24 1_555 1_555
H22 C25 1_555 1_555
C26 C25 1_555 1_555
H23 C26 1_555 1_555
C27 C26 1_555 1_555
H24 C27 1_555 1_555
C28 C23 1_555 1_555
H25 C28 1_555 1_555
C29 C22 1_555 1_555
C30 C29 1_555 1_555
H26 C30 1_555 1_555
C31 C30 1_555 1_555
H27 C31 1_555 1_555
C32 C31 1_555 1_555
H28 C32 1_555 1_555
C33 C32 1_555 1_555
H29 C33 1_555 1_555
C34 C29 1_555 1_555
H30 C34 1_555 1_555
C35 C21 1_555 1_555
C36 C35 1_555 1_555
H31 C36 1_555 1_555
C37 C36 1_555 1_555
C38 C37 1_555 1_555
C39 C38 1_555 1_555
H32 C39 1_555 1_555
C40 C35 1_555 1_555
H33 C40 1_555 1_555
C41 O2 1_555 1_555
H34 C41 1_555 1_555
H35 C41 1_555 1_555
H36 C41 1_555 1_555
C42 N3 1_555 1_555
C43 C42 1_555 1_555
H37 C43 1_555 1_555
C44 C43 1_555 1_555
C45 N3 1_555 1_555
C46 C37 1_555 1_555
C47 N4 1_555 1_555
C48 C47 1_555 1_555
C49 C48 1_555 1_555
H38 C49 1_555 1_555
C50 N4 1_555 1_555
C51 C50 1_555 1_555
H39 C51 1_555 1_555
H40 C51 1_555 1_555
H41 C51 1_555 1_555
C52 C48 1_555 1_555
H42 C52 1_555 1_555
H43 C52 1_555 1_555
H44 C52 1_555 1_555
C53 C44 1_555 1_555
H45 C53 1_555 1_555
H46 C53 1_555 1_555
H47 C53 1_555 1_555
C54 C42 1_555 1_555
H48 C54 1_555 1_555
H49 C54 1_555 1_555
H50 C54 1_555 1_555
C55 H51 1_555 1_555
Cl1 C55 1_555 1_555
Cl2 C55 1_555 1_555
Cl3 C55 1_555 1_555
C3 C4 1_555 1_555
C5 C6 1_555 1_555
C8 C9 1_555 1_555
C18 C19 1_555 1_555
C27 C28 1_555 1_555
C33 C34 1_555 1_555
C39 C40 1_555 1_555
C44 C45 1_555 1_555
C45 C46 1_555 1_555
C46 C47 1_555 1_555
C49 C50 1_555 1_555

#END
