
#######################################################################
#
#                 Cambridge Crystallographic Data Centre
#                                CCDC 
#
#######################################################################
#
# If this CIF has been generated from an entry in the Cambridge 
# Structural Database, then it will include bibliographic, chemical, 
# crystal, experimental, refinement or atomic coordinate data resulting 
# from the CCDC's data processing and validation procedures.
#
#######################################################################

data_BUVNUD
_chemical_formula_moiety         'C14 H15 N4 O1 1+,H2 O1,Br1 1-'
_chemical_name_systematic        
'2-((2-hydroxy-1-naphthyl)methylene)-1-(imidazolidin-2-ylidene)hydrazinium bromide monohydrate'
_symmetry_cell_setting           monoclinic
_symmetry_space_group_name_H-M   'P 21/c'
_symmetry_Int_Tables_number      14
_space_group_name_Hall           '-P 2ybc'
loop_
_symmetry_equiv_pos_site_id
_symmetry_equiv_pos_as_xyz
1 x,y,z
2 -x,1/2+y,1/2-z
3 -x,-y,-z
4 x,1/2-y,1/2+z
_cell_length_a                   8.3494(12)
_cell_length_b                   8.7032(6)
_cell_length_c                   20.886(2)
_cell_angle_alpha                90
_cell_angle_beta                 92.275(15)
_cell_angle_gamma                90
_cell_volume                     1516.52
_exptl_crystal_colour            'pale yellow'
_exptl_crystal_description       block
_cell_formula_units_Z            4
loop_
_atom_site_label
_atom_site_type_symbol
_atom_site_fract_x
_atom_site_fract_y
_atom_site_fract_z
O1 O 0.3074(3) 0.31290(19) -0.00353(10)
N1 N -0.0215(3) -0.2038(2) -0.12781(11)
N2 N 0.0099(3) 0.0440(2) -0.12626(11)
N3 N 0.1436(3) -0.1024(2) -0.04660(10)
N4 N 0.2173(2) 0.0240(2) -0.01866(10)
C1 C -0.1080(3) -0.1553(3) -0.18529(13)
C2 C -0.0889(3) 0.0189(3) -0.18395(13)
C3 C 0.0500(3) -0.0864(3) -0.09814(11)
C4 C 0.3104(3) -0.0066(3) 0.02987(13)
C5 C 0.3990(3) 0.1082(2) 0.06606(12)
C6 C 0.3927(3) 0.2622(3) 0.04854(13)
C7 C 0.4762(4) 0.3743(3) 0.08460(15)
C8 C 0.5636(4) 0.3346(3) 0.13746(15)
C9 C 0.5756(3) 0.1809(3) 0.15810(14)
C10 C 0.6663(3) 0.1400(4) 0.21441(15)
C11 C 0.6799(4) -0.0078(4) 0.23345(16)
C12 C 0.6061(4) -0.1216(3) 0.19684(15)
C13 C 0.5164(3) -0.0880(3) 0.14305(13)
C14 C 0.4958(3) 0.0657(3) 0.12169(12)
H1 H -0.22000 -0.18450 -0.18450
H2 H -0.06170 -0.19910 -0.22310
H3 H 0.009(3) -0.294(2) -0.1182(13)
H4 H 0.255(4) 0.253(3) -0.0245(15)
H5 H -0.03600 0.05540 -0.22160
H6 H -0.19180 0.06970 -0.18140
H7 H 0.049(3) 0.128(2) -0.1129(13)
H8 H 0.159(3) -0.189(2) -0.0284(10)
H9 H 0.32130 -0.10870 0.04250
H10 H 0.47120 0.47670 0.07190
H11 H 0.61740 0.41060 0.16100
H12 H 0.71730 0.21650 0.23870
H13 H 0.73850 -0.03270 0.27080
H14 H 0.61820 -0.22370 0.20940
H15 H 0.46740 -0.16730 0.11970
O2 O 0.1846(3) 0.6248(2) 0.01409(12)
H16 H 0.137(4) 0.610(4) 0.0477(13)
H17 H 0.206(5) 0.548(3) -0.0052(18)
Br1 Br 0.04646(4) 0.08021(3) 0.36342(1)
loop_
_geom_bond_atom_site_label_1
_geom_bond_atom_site_label_2
_geom_bond_site_symmetry_1
_geom_bond_site_symmetry_2
O1 C6 1_555 1_555
N1 C1 1_555 1_555
N2 C2 1_555 1_555
N3 N4 1_555 1_555
N4 C4 1_555 1_555
C1 C2 1_555 1_555
C2 H5 1_555 1_555
C3 N1 1_555 1_555
C4 C5 1_555 1_555
C5 C6 1_555 1_555
C6 C7 1_555 1_555
C7 C8 1_555 1_555
C8 C9 1_555 1_555
C9 C10 1_555 1_555
C10 C11 1_555 1_555
C11 C12 1_555 1_555
C12 C13 1_555 1_555
C13 C14 1_555 1_555
C14 C5 1_555 1_555
H1 C1 1_555 1_555
H2 C1 1_555 1_555
H3 N1 1_555 1_555
H4 O1 1_555 1_555
H6 C2 1_555 1_555
H7 N2 1_555 1_555
H8 N3 1_555 1_555
H9 C4 1_555 1_555
H10 C7 1_555 1_555
H11 C8 1_555 1_555
H12 C10 1_555 1_555
H13 C11 1_555 1_555
H14 C12 1_555 1_555
H15 C13 1_555 1_555
O2 H16 1_555 1_555
H17 O2 1_555 1_555
N2 C3 1_555 1_555
N3 C3 1_555 1_555
C9 C14 1_555 1_555

#END
