
#######################################################################
#
#                 Cambridge Crystallographic Data Centre
#                                CCDC 
#
#######################################################################
#
# If this CIF has been generated from an entry in the Cambridge 
# Structural Database, then it will include bibliographic, chemical, 
# crystal, experimental, refinement or atomic coordinate data resulting 
# from the CCDC's data processing and validation procedures.
#
#######################################################################

data_BUVXEX
_chemical_name_common            triazolopyrazine
_chemical_formula_moiety         'C16 H11 N5'
_chemical_name_systematic        
1-methylbenzimidazo[1,2-a][1,2,3]triazolo[5,1-c]quinoxaline
_symmetry_cell_setting           monoclinic
_symmetry_space_group_name_H-M   'P 21/c'
_symmetry_Int_Tables_number      14
_space_group_name_Hall           '-P 2ybc'
loop_
_symmetry_equiv_pos_site_id
_symmetry_equiv_pos_as_xyz
1 x,y,z
2 -x,1/2+y,1/2-z
3 -x,-y,-z
4 x,1/2-y,1/2+z
_cell_length_a                   8.249(2)
_cell_length_b                   5.6691(14)
_cell_length_c                   26.797(7)
_cell_angle_alpha                90
_cell_angle_beta                 96.319(3)
_cell_angle_gamma                90
_cell_volume                     1245.53
_exptl_crystal_colour            colorless
_exptl_crystal_description       column
_cell_formula_units_Z            4
_chemical_properties_physical    stable
_exptl_crystal_recrystallization_method 'ethyl acetate'
loop_
_atom_site_label
_atom_site_type_symbol
_atom_site_fract_x
_atom_site_fract_y
_atom_site_fract_z
N1 N 0.34162(15) -0.2121(2) 0.42175(4)
N2 N 0.30037(16) -0.4113(2) 0.44504(5)
N3 N 0.14897(16) -0.4612(2) 0.42674(5)
N4 N 0.13876(15) 0.1635(2) 0.32374(4)
N5 N 0.39146(14) 0.1824(2) 0.36695(4)
C1 C 0.09321(18) -0.2983(3) 0.39178(5)
C2 C 0.21618(17) -0.1360(3) 0.38838(5)
C3 C -0.07173(19) -0.3103(3) 0.36338(6)
H1 H -0.0892 -0.4677 0.3486
H2 H -0.0804 -0.1918 0.3366
H3 H -0.1544 -0.2792 0.3862
C4 C 0.24067(17) 0.0691(2) 0.35895(5)
C5 C 0.51791(17) 0.1049(3) 0.40300(5)
C6 C 0.49396(17) -0.0994(3) 0.43075(5)
C7 C 0.22457(17) 0.3520(2) 0.30646(5)
C8 C 0.38151(17) 0.3705(2) 0.33273(5)
C9 C 0.17139(18) 0.5127(3) 0.26849(5)
H4 H 0.0661 0.4996 0.2504
C10 C 0.27696(19) 0.6906(3) 0.25820(6)
H5 H 0.2437 0.8016 0.2326
C11 C 0.43208(19) 0.7104(3) 0.28484(5)
H6 H 0.5013 0.8361 0.2771
C12 C 0.48763(18) 0.5515(3) 0.32229(5)
H7 H 0.5934 0.5653 0.3401
C13 C 0.66644(18) 0.2223(3) 0.41266(6)
H8 H 0.6855 0.3616 0.3945
C14 C 0.7864(2) 0.1384(3) 0.44837(6)
H9 H 0.8869 0.2208 0.4547
C15 C 0.76066(19) -0.0658(3) 0.47505(6)
H10 H 0.8439 -0.1233 0.4993
C16 C 0.61481(19) -0.1851(3) 0.46642(5)
H11 H 0.5969 -0.3246 0.4847
loop_
_geom_bond_atom_site_label_1
_geom_bond_atom_site_label_2
_geom_bond_site_symmetry_1
_geom_bond_site_symmetry_2
N1 N2 1_555 1_555
N2 N3 1_555 1_555
N3 C1 1_555 1_555
N4 C4 1_555 1_555
N5 C4 1_555 1_555
C1 C2 1_555 1_555
C2 N1 1_555 1_555
C3 C1 1_555 1_555
H1 C3 1_555 1_555
H2 C3 1_555 1_555
H3 C3 1_555 1_555
C4 C2 1_555 1_555
C5 N5 1_555 1_555
C6 N1 1_555 1_555
C7 N4 1_555 1_555
C8 N5 1_555 1_555
C9 C7 1_555 1_555
H4 C9 1_555 1_555
C10 C9 1_555 1_555
H5 C10 1_555 1_555
C11 C10 1_555 1_555
H6 C11 1_555 1_555
C12 C8 1_555 1_555
H7 C12 1_555 1_555
C13 C5 1_555 1_555
H8 C13 1_555 1_555
C14 C13 1_555 1_555
H9 C14 1_555 1_555
C15 C14 1_555 1_555
H10 C15 1_555 1_555
C16 C6 1_555 1_555
H11 C16 1_555 1_555
C5 C6 1_555 1_555
C7 C8 1_555 1_555
C11 C12 1_555 1_555
C15 C16 1_555 1_555

#END
