
#######################################################################
#
#                 Cambridge Crystallographic Data Centre
#                                CCDC 
#
#######################################################################
#
# If this CIF has been generated from an entry in the Cambridge 
# Structural Database, then it will include bibliographic, chemical, 
# crystal, experimental, refinement or atomic coordinate data resulting 
# from the CCDC's data processing and validation procedures.
#
#######################################################################

data_BUWBOL
_chemical_formula_moiety         'C26 H20 Cl1 N1 O5'
_chemical_name_systematic        
"trans-Benzyl 3'-(4-chlorophenyl)-3'-ethyl-2,4'-dioxospiro[indole-3,2'-oxetane]-1(2H)-carboxylate"
_symmetry_cell_setting           orthorhombic
_symmetry_space_group_name_H-M   'P 21 21 21'
_symmetry_Int_Tables_number      19
_space_group_name_Hall           'P 2ac 2ab'
loop_
_symmetry_equiv_pos_site_id
_symmetry_equiv_pos_as_xyz
1 x,y,z
2 1/2-x,-y,1/2+z
3 -x,1/2+y,1/2-z
4 1/2+x,1/2-y,-z
_cell_length_a                   6.2355(12)
_cell_length_b                   14.850(3)
_cell_length_c                   23.600(5)
_cell_angle_alpha                90
_cell_angle_beta                 90
_cell_angle_gamma                90
_cell_volume                     2185.29
_exptl_crystal_colour            colorless
_exptl_crystal_description       rod
_cell_formula_units_Z            4
loop_
_atom_site_label
_atom_site_type_symbol
_atom_site_fract_x
_atom_site_fract_y
_atom_site_fract_z
Cl1 Cl 0.99613(16) 0.59092(6) 0.94461(4)
O1 O 1.4375(4) 0.76419(17) 1.20075(10)
O2 O 1.2197(4) 0.66288(17) 1.24529(10)
O3 O 0.9020(4) 0.75113(17) 1.31283(11)
O4 O 0.4431(4) 0.55938(16) 1.34433(10)
O5 O 0.5186(4) 0.70767(15) 1.35284(9)
N1 N 0.6908(4) 0.62834(18) 1.28657(11)
C1 C 1.0052(6) 0.6359(2) 1.01246(13)
C2 C 0.8235(5) 0.6379(2) 1.04623(15)
H1 H 0.6912 0.6157 1.0320
C3 C 0.8341(5) 0.6723(2) 1.10056(15)
H2 H 0.7083 0.6747 1.1232
C4 C 1.0277(5) 0.7032(2) 1.12226(14)
C5 C 1.2062(5) 0.7024(2) 1.08723(15)
H3 H 1.3387 0.7249 1.1012
C6 C 1.1960(5) 0.6694(2) 1.03245(16)
H4 H 1.3196 0.6700 1.0089
C7 C 1.0403(5) 0.7368(2) 1.18297(14)
C8 C 0.9360(5) 0.8301(2) 1.19028(15)
H5 H 0.7800 0.8246 1.1834
H6 H 0.9559 0.8501 1.2299
C9 C 1.0268(6) 0.9013(2) 1.15092(15)
H7 H 1.1803 0.9090 1.1585
H8 H 0.9525 0.9586 1.1574
H9 H 1.0062 0.8825 1.1115
C10 C 1.2653(6) 0.7297(3) 1.20732(15)
C11 C 0.9905(5) 0.6620(2) 1.22930(13)
C12 C 0.8594(5) 0.6900(2) 1.28102(15)
C13 C 0.7194(6) 0.5563(2) 1.24629(14)
C14 C 0.5912(6) 0.4819(2) 1.23811(16)
H10 H 0.4649 0.4724 1.2599
C15 C 0.6552(7) 0.4214(3) 1.19660(16)
H11 H 0.5687 0.3701 1.1891
C16 C 0.8423(6) 0.4338(3) 1.16574(16)
H12 H 0.8846 0.3903 1.1384
C17 C 0.9675(6) 0.5096(2) 1.17463(15)
H13 H 1.0961 0.5185 1.1538
C18 C 0.9015(5) 0.5722(2) 1.21461(15)
C19 C 0.5396(5) 0.6260(2) 1.33030(14)
C20 C 0.3711(5) 0.7151(2) 1.39991(15)
H14 H 0.3783 0.6602 1.4236
H15 H 0.2226 0.7216 1.3857
C21 C 0.4316(5) 0.7964(2) 1.43470(15)
C22 C 0.2903(6) 0.8254(3) 1.47578(15)
H16 H 0.1546 0.7970 1.4796
C23 C 0.3451(6) 0.8960(3) 1.51153(16)
H17 H 0.2468 0.9154 1.5398
C24 C 0.5409(7) 0.9382(3) 1.50630(16)
H18 H 0.5789 0.9859 1.5312
C25 C 0.6818(6) 0.9103(3) 1.46447(16)
H19 H 0.8155 0.9401 1.4599
C26 C 0.6283(5) 0.8393(2) 1.42924(15)
H20 H 0.7270 0.8197 1.4011
loop_
_geom_bond_atom_site_label_1
_geom_bond_atom_site_label_2
_geom_bond_site_symmetry_1
_geom_bond_site_symmetry_2
Cl1 C1 1_555 1_555
O1 C10 1_555 1_555
O2 C10 1_555 1_555
O3 C12 1_555 1_555
O4 C19 1_555 1_555
O5 C19 1_555 1_555
N1 C12 1_555 1_555
C1 C2 1_555 1_555
C2 H1 1_555 1_555
C3 C2 1_555 1_555
H2 C3 1_555 1_555
C4 C3 1_555 1_555
C5 C4 1_555 1_555
H3 C5 1_555 1_555
C6 C1 1_555 1_555
H4 C6 1_555 1_555
C7 C4 1_555 1_555
C8 C7 1_555 1_555
H5 C8 1_555 1_555
H6 C8 1_555 1_555
C9 C8 1_555 1_555
H7 C9 1_555 1_555
H8 C9 1_555 1_555
H9 C9 1_555 1_555
C10 C7 1_555 1_555
C11 O2 1_555 1_555
C12 C11 1_555 1_555
C13 N1 1_555 1_555
C14 C13 1_555 1_555
H10 C14 1_555 1_555
C15 C14 1_555 1_555
H11 C15 1_555 1_555
C16 C15 1_555 1_555
H12 C16 1_555 1_555
C17 C16 1_555 1_555
H13 C17 1_555 1_555
C18 C11 1_555 1_555
C19 N1 1_555 1_555
C20 O5 1_555 1_555
H14 C20 1_555 1_555
H15 C20 1_555 1_555
C21 C20 1_555 1_555
C22 C21 1_555 1_555
H16 C22 1_555 1_555
C23 C22 1_555 1_555
H17 C23 1_555 1_555
C24 C23 1_555 1_555
H18 C24 1_555 1_555
C25 C24 1_555 1_555
H19 C25 1_555 1_555
C26 C21 1_555 1_555
H20 C26 1_555 1_555
C5 C6 1_555 1_555
C7 C11 1_555 1_555
C13 C18 1_555 1_555
C17 C18 1_555 1_555
C25 C26 1_555 1_555

#END
