
#######################################################################
#
#                 Cambridge Crystallographic Data Centre
#                                CCDC 
#
#######################################################################
#
# If this CIF has been generated from an entry in the Cambridge 
# Structural Database, then it will include bibliographic, chemical, 
# crystal, experimental, refinement or atomic coordinate data resulting 
# from the CCDC's data processing and validation procedures.
#
#######################################################################

data_BUWCOM
_chemical_formula_moiety         'C16 H15 Br1 O5'
_chemical_name_systematic        
'Dimethyl 8-bromo-1,3a,4,9b-tetrahydrocyclopenta[c]chromene-1,3-dicarboxylate'
_symmetry_cell_setting           orthorhombic
_symmetry_space_group_name_H-M   'P 21 21 21'
_symmetry_Int_Tables_number      19
_space_group_name_Hall           'P 2ac 2ab'
loop_
_symmetry_equiv_pos_site_id
_symmetry_equiv_pos_as_xyz
1 x,y,z
2 1/2-x,-y,1/2+z
3 -x,1/2+y,1/2-z
4 1/2+x,1/2-y,-z
_cell_length_a                   7.5398(13)
_cell_length_b                   10.7224(18)
_cell_length_c                   18.503(3)
_cell_angle_alpha                90
_cell_angle_beta                 90
_cell_angle_gamma                90
_cell_volume                     1495.87
_exptl_crystal_colour            colorless
_exptl_crystal_description       prismatic
_cell_formula_units_Z            4
loop_
_atom_site_label
_atom_site_type_symbol
_atom_site_fract_x
_atom_site_fract_y
_atom_site_fract_z
Br1 Br 0.69085(9) 1.45014(6) 0.88313(3)
O1 O 0.8796(6) 0.9061(4) 0.8773(2)
O2 O 0.7360(7) 0.6029(4) 0.7239(2)
O3 O 0.6942(6) 0.6500(3) 0.60887(19)
O4 O 0.6531(6) 1.2026(4) 0.6384(2)
O5 O 0.8684(5) 1.1271(4) 0.5683(2)
C1 C 0.8265(7) 1.0248(5) 0.6777(2)
H1 H 0.9505 1.0386 0.6914
C2 C 0.8107(8) 0.8976(5) 0.6432(3)
H2 H 0.8390 0.8804 0.5953
C3 C 0.7521(7) 0.8146(5) 0.6894(3)
C4 C 0.7298(7) 0.8692(6) 0.7633(3)
H3 H 0.6211 0.8386 0.7863
C5 C 0.7163(7) 1.0094(5) 0.7463(2)
H4 H 0.5925 1.0284 0.7345
C6 C 0.7684(6) 1.0863(5) 0.8128(3)
C7 C 0.8369(7) 1.0296(6) 0.8742(3)
C8 C 0.8900(9) 0.8421(6) 0.8095(3)
H5 H 0.8981 0.7530 0.8180
H6 H 0.9963 0.8681 0.7841
C9 C 0.7262(6) 1.2123(6) 0.8165(3)
H7 H 0.6799 1.2526 0.7762
C10 C 0.7525(6) 1.2773(5) 0.8793(3)
C11 C 0.8200(9) 1.2197(6) 0.9407(3)
H8 H 0.8348 1.2642 0.9834
C12 C 0.8636(8) 1.0974(6) 0.9368(3)
H9 H 0.9125 1.0584 0.9770
C13 C 0.7288(7) 0.6778(5) 0.6759(3)
C14 C 0.6661(9) 0.5209(6) 0.5941(3)
H10 H 0.7784 0.4787 0.5922
H11 H 0.6068 0.5121 0.5485
H12 H 0.5944 0.4851 0.6316
C15 C 0.7690(7) 1.1286(5) 0.6275(3)
C16 C 0.8346(9) 1.2218(6) 0.5155(3)
H13 H 0.7093 1.2369 0.5126
H14 H 0.8776 1.1947 0.4693
H15 H 0.8942 1.2972 0.5293
loop_
_geom_bond_atom_site_label_1
_geom_bond_atom_site_label_2
_geom_bond_site_symmetry_1
_geom_bond_site_symmetry_2
Br1 C10 1_555 1_555
O1 C7 1_555 1_555
O2 C13 1_555 1_555
O3 C13 1_555 1_555
O4 C15 1_555 1_555
O5 C15 1_555 1_555
C1 H1 1_555 1_555
C2 C1 1_555 1_555
H2 C2 1_555 1_555
C3 C2 1_555 1_555
C4 C3 1_555 1_555
H3 C4 1_555 1_555
C5 C1 1_555 1_555
H4 C5 1_555 1_555
C6 C5 1_555 1_555
C7 C6 1_555 1_555
C8 O1 1_555 1_555
H5 C8 1_555 1_555
H6 C8 1_555 1_555
C9 C6 1_555 1_555
H7 C9 1_555 1_555
C10 C9 1_555 1_555
C11 C10 1_555 1_555
H8 C11 1_555 1_555
C12 C7 1_555 1_555
H9 C12 1_555 1_555
C13 C3 1_555 1_555
C14 O3 1_555 1_555
H10 C14 1_555 1_555
H11 C14 1_555 1_555
H12 C14 1_555 1_555
C15 C1 1_555 1_555
C16 O5 1_555 1_555
H13 C16 1_555 1_555
H14 C16 1_555 1_555
H15 C16 1_555 1_555
C4 C5 1_555 1_555
C4 C8 1_555 1_555
C11 C12 1_555 1_555

#END
