
#######################################################################
#
#                 Cambridge Crystallographic Data Centre
#                                CCDC 
#
#######################################################################
#
# If this CIF has been generated from an entry in the Cambridge 
# Structural Database, then it will include bibliographic, chemical, 
# crystal, experimental, refinement or atomic coordinate data resulting 
# from the CCDC's data processing and validation procedures.
#
#######################################################################

data_BUWFIJ
_chemical_formula_moiety         'C22 H15 B1 F2 N2 O2'
_chemical_name_systematic        
Difluoro-(4-benzoyl-5-oxy-1,3-diphenyl-1H-pyrazole)-boron
_symmetry_cell_setting           triclinic
_symmetry_space_group_name_H-M   'P -1'
_symmetry_Int_Tables_number      2
_space_group_name_Hall           '-P 1'
loop_
_symmetry_equiv_pos_site_id
_symmetry_equiv_pos_as_xyz
1 x,y,z
2 -x,-y,-z
_cell_length_a                   9.458(7)
_cell_length_b                   9.910(7)
_cell_length_c                   11.165(8)
_cell_angle_alpha                87.085(11)
_cell_angle_beta                 79.256(10)
_cell_angle_gamma                65.652(10)
_cell_volume                     936.297
_exptl_crystal_colour            yellow
_exptl_crystal_description       block
_chemical_melting_point          '186.6-187.5 deg.C'
_cell_formula_units_Z            2
_exptl_crystal_recrystallization_method benzene
loop_
_atom_site_label
_atom_site_type_symbol
_atom_site_fract_x
_atom_site_fract_y
_atom_site_fract_z
O1 O 0.72282(16) -0.09381(15) 0.05812(13)
O2 O 0.52443(16) -0.19753(15) 0.08916(13)
F1 F 0.73690(15) -0.27519(15) -0.07034(13)
N1 N 0.31308(19) -0.07199(18) 0.24489(15)
F2 F 0.78008(17) -0.33288(14) 0.12124(15)
N2 N 0.2715(2) 0.04300(19) 0.32998(15)
C1 C 0.6968(2) 0.1250(2) 0.14685(17)
C2 C 0.4524(2) -0.0975(2) 0.17640(18)
C3 C 0.6394(2) 0.0103(2) 0.14059(18)
C4 C 0.5062(2) 0.0036(2) 0.21079(18)
C5 C 0.3789(2) 0.2027(2) 0.39045(18)
C6 C 0.8571(3) 0.0843(2) 0.1330(2)
H1 H 0.9265 -0.0147 0.1189
C7 C 0.5936(3) 0.2730(2) 0.16336(18)
H2 H 0.4854 0.3010 0.1724
C8 C 0.3857(2) 0.0874(2) 0.30962(18)
C9 C 0.2385(3) -0.2547(2) 0.1679(2)
H3 H 0.3213 -0.2778 0.1018
C10 C 0.2131(2) -0.1489(2) 0.25382(19)
C11 C 0.8120(3) 0.3359(3) 0.1560(2)
H4 H 0.8509 0.4074 0.1600
C12 C 0.6526(3) 0.3778(2) 0.1663(2)
H5 H 0.5844 0.4777 0.1752
C13 C -0.0081(3) -0.1865(3) 0.3613(2)
H6 H -0.0919 -0.1629 0.4266
C14 C 0.9143(3) 0.1896(3) 0.1400(2)
H7 H 1.0221 0.1619 0.1339
C15 C 0.5054(3) 0.1814(3) 0.4447(2)
H8 H 0.5967 0.0945 0.4290
C16 C 0.1387(3) -0.3259(3) 0.1819(2)
H9 H 0.1553 -0.3985 0.1248
C17 C 0.0895(3) -0.1143(3) 0.3501(2)
H10 H 0.0721 -0.0420 0.4078
C18 C 0.2454(3) 0.3330(3) 0.4130(2)
H11 H 0.1602 0.3483 0.3756
C19 C 0.0164(3) -0.2921(3) 0.2776(2)
H12 H -0.0500 -0.3412 0.2857
C20 C 0.3623(4) 0.4175(3) 0.5447(2)
H13 H 0.3567 0.4899 0.5975
B1 B 0.6955(3) -0.2306(3) 0.0487(2)
C21 C 0.4963(4) 0.2890(3) 0.5223(2)
H14 H 0.5813 0.2746 0.5596
C22 C 0.2371(4) 0.4402(3) 0.4902(3)
H15 H 0.1466 0.5279 0.5053
loop_
_geom_bond_atom_site_label_1
_geom_bond_atom_site_label_2
_geom_bond_site_symmetry_1
_geom_bond_site_symmetry_2
O1 C3 1_555 1_555
O2 C2 1_555 1_555
F1 B1 1_555 1_555
N1 N2 1_555 1_555
F2 B1 1_555 1_555
N2 C8 1_555 1_555
C1 C3 1_555 1_555
C2 N1 1_555 1_555
C3 C4 1_555 1_555
C4 C2 1_555 1_555
C5 C8 1_555 1_555
C6 C1 1_555 1_555
H1 C6 1_555 1_555
C7 C1 1_555 1_555
H2 C7 1_555 1_555
C8 C4 1_555 1_555
C9 H3 1_555 1_555
C10 N1 1_555 1_555
C11 H4 1_555 1_555
C12 C7 1_555 1_555
H5 C12 1_555 1_555
C13 H6 1_555 1_555
C14 C6 1_555 1_555
H7 C14 1_555 1_555
C15 C5 1_555 1_555
H8 C15 1_555 1_555
C16 C9 1_555 1_555
H9 C16 1_555 1_555
C17 C10 1_555 1_555
H10 C17 1_555 1_555
C18 C5 1_555 1_555
H11 C18 1_555 1_555
C19 C13 1_555 1_555
H12 C19 1_555 1_555
C20 H13 1_555 1_555
B1 O1 1_555 1_555
C21 C15 1_555 1_555
H14 C21 1_555 1_555
C22 C18 1_555 1_555
H15 C22 1_555 1_555
O2 B1 1_555 1_555
C9 C10 1_555 1_555
C11 C12 1_555 1_555
C11 C14 1_555 1_555
C13 C17 1_555 1_555
C16 C19 1_555 1_555
C20 C21 1_555 1_555
C20 C22 1_555 1_555

#END
