
#######################################################################
#
#                 Cambridge Crystallographic Data Centre
#                                CCDC 
#
#######################################################################
#
# If this CIF has been generated from an entry in the Cambridge 
# Structural Database, then it will include bibliographic, chemical, 
# crystal, experimental, refinement or atomic coordinate data resulting 
# from the CCDC's data processing and validation procedures.
#
#######################################################################

data_BUWFUW
_chemical_name_common            
(S)-2-(2-(1H-pyrazol-1-yl)propyl)-5,6-dimethyl-1-tosyl-1H-benzo[d]imidazole
_chemical_formula_moiety         'C22 H24 N4 O2 S1'
_chemical_name_systematic        
5,6-dimethyl-1-((4-methylphenyl)sulfonyl)-2-(2-(1H-pyrazol-1-yl)propyl)-1H-benzimidazole
_symmetry_cell_setting           monoclinic
_symmetry_space_group_name_H-M   'P 21'
_symmetry_Int_Tables_number      4
_space_group_name_Hall           'P 2yb'
loop_
_symmetry_equiv_pos_site_id
_symmetry_equiv_pos_as_xyz
1 x,y,z
2 -x,1/2+y,-z
_cell_length_a                   7.0325(7)
_cell_length_b                   15.8030(17)
_cell_length_c                   9.6877(10)
_cell_angle_alpha                90
_cell_angle_beta                 109.053(3)
_cell_angle_gamma                90
_cell_volume                     1017.66
_exptl_crystal_colour            colorless
_exptl_crystal_description       platelet
_cell_formula_units_Z            2
_exptl_crystal_recrystallization_method dichloromethane/hexane
loop_
_atom_site_label
_atom_site_type_symbol
_atom_site_fract_x
_atom_site_fract_y
_atom_site_fract_z
S1 S 0.79966(5) 0.56059(2) 0.53264(4)
O1 O 0.99290(17) 0.52709(7) 0.54474(12)
O2 O 0.66973(17) 0.58997(8) 0.39497(12)
N1 N 1.1862(2) 0.51513(9) 1.05402(16)
N2 N 1.23708(19) 0.59827(9) 1.06251(14)
N3 N 0.84062(19) 0.64390(8) 0.64591(13)
N4 N 0.9740(2) 0.72577(8) 0.84332(14)
C1 C 1.0935(2) 0.50612(12) 1.15394(19)
H1 H 1.0411 0.4552 1.1737
C2 C 1.3365(2) 0.63357(11) 0.96389(17)
H2 H 1.3491 0.6949 0.9794
C3 C 1.2066(2) 0.61741(10) 0.80632(16)
H3 H 1.2779 0.6362 0.7414
H4 H 1.1825 0.5571 0.7916
C4 C 1.0087(2) 0.66291(10) 0.76880(17)
C5 C 0.6693(2) 0.48870(10) 0.60718(17)
C6 C 0.7663(2) 0.45202(10) 0.74259(17)
H5 H 0.8984 0.4664 0.7951
C7 C 0.6633(3) 0.39387(11) 0.79772(18)
H6 H 0.7270 0.3692 0.8882
C8 C 0.4648(2) 0.37143(10) 0.71988(18)
C9 C 0.3531(3) 0.30721(12) 0.7791(2)
H7 H 0.2155 0.3246 0.7566
H8 H 0.4146 0.3031 0.8831
H9 H 0.3581 0.2531 0.7354
C10 C 0.6868(2) 0.70003(9) 0.65088(17)
C11 C 0.7729(2) 0.74955(10) 0.77358(17)
C12 C 1.0850(2) 0.58210(11) 1.22469(18)
H10 H 1.0285 0.5915 1.2978
C13 C 1.1777(2) 0.63992(12) 1.16301(17)
H11 H 1.1964 0.6971 1.1860
C14 C 1.5463(2) 0.59672(12) 0.99531(19)
H12 H 1.6219 0.6044 1.0967
H13 H 1.6132 0.6251 0.9365
H14 H 1.5362 0.5374 0.9725
C15 C 0.6591(3) 0.81087(10) 0.81433(18)
H15 H 0.7164 0.8444 0.8963
C16 C 0.4585(2) 0.82101(10) 0.73032(18)
C17 C 0.3730(2) 0.77054(10) 0.60416(18)
C18 C 0.4870(2) 0.70960(10) 0.56302(17)
H16 H 0.4319 0.6765 0.4801
C19 C 0.1564(2) 0.78273(11) 0.51184(19)
H17 H 0.1390 0.8384 0.4699
H18 H 0.0720 0.7763 0.5715
H19 H 0.1202 0.7413 0.4352
C20 C 0.3309(3) 0.88434(11) 0.7771(2)
H20 H 0.4149 0.9175 0.8568
H21 H 0.2320 0.8550 0.8075
H22 H 0.2648 0.9209 0.6966
C21 C 0.4717(2) 0.46794(11) 0.52756(18)
H23 H 0.4076 0.4931 0.4375
C22 C 0.3722(2) 0.40912(10) 0.58495(19)
H24 H 0.2405 0.3945 0.5320
loop_
_geom_bond_atom_site_label_1
_geom_bond_atom_site_label_2
_geom_bond_site_symmetry_1
_geom_bond_site_symmetry_2
S1 O1 1_555 1_555
O2 S1 1_555 1_555
N1 N2 1_555 1_555
N2 C2 1_555 1_555
N3 S1 1_555 1_555
N4 C4 1_555 1_555
C1 N1 1_555 1_555
H1 C1 1_555 1_555
C2 H2 1_555 1_555
C3 C2 1_555 1_555
H3 C3 1_555 1_555
H4 C3 1_555 1_555
C4 N3 1_555 1_555
C5 S1 1_555 1_555
C6 C5 1_555 1_555
H5 C6 1_555 1_555
C7 C6 1_555 1_555
H6 C7 1_555 1_555
C8 C7 1_555 1_555
C9 C8 1_555 1_555
H7 C9 1_555 1_555
H8 C9 1_555 1_555
H9 C9 1_555 1_555
C10 N3 1_555 1_555
C11 N4 1_555 1_555
C12 C1 1_555 1_555
H10 C12 1_555 1_555
C13 N2 1_555 1_555
H11 C13 1_555 1_555
C14 C2 1_555 1_555
H12 C14 1_555 1_555
H13 C14 1_555 1_555
H14 C14 1_555 1_555
C15 C11 1_555 1_555
H15 C15 1_555 1_555
C16 C15 1_555 1_555
C17 C16 1_555 1_555
C18 C10 1_555 1_555
H16 C18 1_555 1_555
C19 C17 1_555 1_555
H17 C19 1_555 1_555
H18 C19 1_555 1_555
H19 C19 1_555 1_555
C20 C16 1_555 1_555
H20 C20 1_555 1_555
H21 C20 1_555 1_555
H22 C20 1_555 1_555
C21 C5 1_555 1_555
H23 C21 1_555 1_555
C22 C8 1_555 1_555
H24 C22 1_555 1_555
C3 C4 1_555 1_555
C10 C11 1_555 1_555
C12 C13 1_555 1_555
C17 C18 1_555 1_555
C21 C22 1_555 1_555

#END
