
#######################################################################
#
#                 Cambridge Crystallographic Data Centre
#                                CCDC 
#
#######################################################################
#
# If this CIF has been generated from an entry in the Cambridge 
# Structural Database, then it will include bibliographic, chemical, 
# crystal, experimental, refinement or atomic coordinate data resulting 
# from the CCDC's data processing and validation procedures.
#
#######################################################################

data_BUWQOA
_chemical_formula_moiety         'C60 H40 I10 O15 Si10,x(C4 H8 O2)'
_chemical_name_systematic        
'1,3,5,7,9,11,13,15,17,19-decakis(4-Iodophenyl)hexacyclo[9.9.1.1^3,9^.1^5,17^.1^7,15^.1^13,19^]decasiloxane ethyl acetate solvate'
_symmetry_cell_setting           monoclinic
_symmetry_space_group_name_H-M   'C 2/c'
_symmetry_Int_Tables_number      15
_space_group_name_Hall           '-C 2yn'
loop_
_symmetry_equiv_pos_site_id
_symmetry_equiv_pos_as_xyz
1 x,y,z
2 -x,y,1/2-z
3 1/2+x,1/2+y,z
4 1/2-x,1/2+y,1/2-z
5 -x,-y,-z
6 x,-y,1/2+z
7 1/2-x,1/2-y,-z
8 1/2+x,1/2-y,1/2+z
_cell_length_a                   28.054(2)
_cell_length_b                   15.6168(11)
_cell_length_c                   22.3246(16)
_cell_angle_alpha                90
_cell_angle_beta                 108.859(1)
_cell_angle_gamma                90
_cell_volume                     9255.65
_exptl_crystal_colour            colorless
_exptl_crystal_description       block
_cell_formula_units_Z            4
loop_
_atom_site_label
_atom_site_type_symbol
_atom_site_fract_x
_atom_site_fract_y
_atom_site_fract_z
I1 I 0.501286(12) -0.254880(19) 1.022374(14)
I2 I 0.205244(16) 0.14887(3) 0.88814(2)
I3 I 0.332014(17) 0.69843(3) 0.89325(2)
I4 I 0.664588(14) 0.68281(2) 1.053689(17)
I5 I 0.774237(13) 0.10651(2) 1.139966(14)
Si1 Si 0.49782(4) 0.06494(7) 0.81822(5)
Si2 Si 0.59627(4) 0.18019(6) 0.86063(5)
Si3 Si 0.55802(4) 0.37091(6) 0.84552(5)
Si4 Si 0.44212(4) 0.36932(6) 0.79476(5)
Si5 Si 0.39982(4) 0.17926(6) 0.77526(5)
O1 O 0.54459(11) 0.1282(2) 0.84999(13)
O2 O 0.58639(11) 0.28100(18) 0.86790(13)
O3 O 0.49955(10) 0.36172(18) 0.84149(13)
O4 O 0.41586(11) 0.27755(18) 0.79208(14)
O5 O 0.44617(10) 0.11659(19) 0.80962(14)
O6 O 0.44045(10) 0.39585(18) 0.72403(13)
O7 O 0.61648(10) 0.16670(19) 0.80097(13)
O8 O 0.5000 0.0339(2) 0.7500
C1 C 0.50082(18) -0.1604(3) 0.9551(2)
C2 C 0.5004(4) -0.0704(6) 0.9779(4)
H1 H 0.5005 -0.0583 1.0196
C3 C 0.5001(5) -0.0056(6) 0.9352(4)
H2 H 0.4998 0.0527 0.9474
C4 C 0.49998(15) -0.0272(3) 0.87081(19)
C5 C 0.5017(4) -0.1075(6) 0.8567(5)
H3 H 0.5029 -0.1221 0.8159
C6 C 0.5019(5) -0.1733(6) 0.8992(5)
H4 H 0.5029 -0.2308 0.8857
C7 C 0.34576(14) 0.1592(2) 0.80318(18)
C8 C 0.34906(17) 0.1110(3) 0.8571(2)
H5 H 0.3792 0.0807 0.8782
C9 C 0.30832(19) 0.1070(3) 0.8802(2)
H6 H 0.3108 0.0738 0.9167
C10 C 0.26475(19) 0.1510(3) 0.8500(2)
C11 C 0.26012(17) 0.1990(3) 0.7969(3)
H7 H 0.2299 0.2295 0.7764
C12 C 0.30044(16) 0.2022(3) 0.7736(2)
H8 H 0.2971 0.2346 0.7365
C13 C 0.41083(16) 0.4551(3) 0.82444(19)
C14 C 0.42882(19) 0.4843(3) 0.8869(2)
H9 H 0.4567 0.4561 0.9162
C15 C 0.4069(2) 0.5538(4) 0.9072(3)
H10 H 0.4200 0.5739 0.9495
C16 C 0.3656(2) 0.5929(3) 0.8644(3)
C17 C 0.3479(3) 0.5679(5) 0.8025(3)
H11 H 0.3201 0.5965 0.7733
C18 C 0.3713(2) 0.4996(5) 0.7829(3)
H12 H 0.3596 0.4831 0.7396
C19 C 0.58811(14) 0.4556(3) 0.90252(19)
C20 C 0.63187(18) 0.4413(3) 0.9530(2)
H13 H 0.6468 0.3860 0.9582
C21 C 0.6544(2) 0.5056(4) 0.9962(2)
H14 H 0.6844 0.4944 1.0303
C22 C 0.63255(18) 0.5856(3) 0.9885(2)
C23 C 0.5897(2) 0.6026(3) 0.9390(3)
H15 H 0.5748 0.6579 0.9342
C24 C 0.5682(2) 0.5376(3) 0.8955(3)
H16 H 0.5393 0.5500 0.8602
C25 C 0.64506(14) 0.1461(2) 0.93394(18)
C26 C 0.69592(16) 0.1570(3) 0.9413(2)
H17 H 0.7054 0.1740 0.9059
C27 C 0.73311(17) 0.1433(3) 0.9992(2)
H18 H 0.7676 0.1513 1.0035
C28 C 0.71899(17) 0.1178(3) 1.05062(19)
C29 C 0.66923(18) 0.1026(3) 1.0446(2)
H19 H 0.6602 0.0825 1.0796
C30 C 0.63257(16) 0.1170(3) 0.98650(19)
H20 H 0.5982 0.1070 0.9822
I1A I 0.498714(12) -0.254880(19) 0.477626(14)
I2A I 0.794756(16) 0.14887(3) 0.61186(2)
I3A I 0.667986(17) 0.69843(3) 0.60675(2)
I4A I 0.335412(14) 0.68281(2) 0.446311(17)
I5A I 0.225763(13) 0.10651(2) 0.360034(14)
Si1A Si 0.50218(4) 0.06494(7) 0.68178(5)
Si2A Si 0.40373(4) 0.18019(6) 0.63937(5)
Si3A Si 0.44198(4) 0.37091(6) 0.65448(5)
Si4A Si 0.55788(4) 0.36932(6) 0.70524(5)
Si5A Si 0.60018(4) 0.17926(6) 0.72474(5)
O1A O 0.45541(11) 0.1282(2) 0.65001(13)
O2A O 0.41361(11) 0.28100(18) 0.63210(13)
O3A O 0.50045(10) 0.36172(18) 0.65851(13)
O4A O 0.58414(11) 0.27755(18) 0.70792(14)
O5A O 0.55383(10) 0.11659(19) 0.69038(14)
O6A O 0.55955(10) 0.39585(18) 0.77597(13)
O7A O 0.38352(10) 0.16670(19) 0.69903(13)
C1A C 0.49918(18) -0.1604(3) 0.5449(2)
C2A C 0.4996(4) -0.0704(6) 0.5221(4)
H1A H 0.4995 -0.0583 0.4804
C3A C 0.4999(5) -0.0056(6) 0.5648(4)
H2A H 0.5002 0.0527 0.5526
C4A C 0.50002(15) -0.0272(3) 0.62919(19)
C5A C 0.4983(4) -0.1075(6) 0.6433(5)
H3A H 0.4971 -0.1221 0.6841
C6A C 0.4981(5) -0.1733(6) 0.6008(5)
H4A H 0.4971 -0.2308 0.6143
C7A C 0.65424(14) 0.1592(2) 0.69682(18)
C8A C 0.65094(17) 0.1110(3) 0.6429(2)
H5A H 0.6208 0.0807 0.6218
C9A C 0.69168(19) 0.1070(3) 0.6198(2)
H6A H 0.6892 0.0738 0.5833
C10A C 0.73525(19) 0.1510(3) 0.6500(2)
C11A C 0.73988(17) 0.1990(3) 0.7031(3)
H7A H 0.7701 0.2295 0.7236
C12A C 0.69956(16) 0.2022(3) 0.7264(2)
H8A H 0.7029 0.2346 0.7635
C13A C 0.58917(16) 0.4551(3) 0.67556(19)
C14A C 0.57118(19) 0.4843(3) 0.6131(2)
H9A H 0.5433 0.4561 0.5838
C15A C 0.5931(2) 0.5538(4) 0.5928(3)
H10A H 0.5800 0.5739 0.5505
C16A C 0.6344(2) 0.5929(3) 0.6356(3)
C17A C 0.6521(3) 0.5679(5) 0.6975(3)
H11A H 0.6799 0.5965 0.7267
C18A C 0.6287(2) 0.4996(5) 0.7171(3)
H12A H 0.6404 0.4831 0.7604
C19A C 0.41189(14) 0.4556(3) 0.59748(19)
C20A C 0.36813(18) 0.4413(3) 0.5470(2)
H13A H 0.3532 0.3860 0.5418
C21A C 0.3456(2) 0.5056(4) 0.5038(2)
H14A H 0.3156 0.4944 0.4697
C22A C 0.36745(18) 0.5856(3) 0.5115(2)
C23A C 0.4103(2) 0.6026(3) 0.5610(3)
H15A H 0.4252 0.6579 0.5658
C24A C 0.4318(2) 0.5376(3) 0.6045(3)
H16A H 0.4607 0.5500 0.6398
C25A C 0.35494(14) 0.1461(2) 0.56606(18)
C26A C 0.30408(16) 0.1570(3) 0.5587(2)
H17A H 0.2946 0.1740 0.5941
C27A C 0.26689(17) 0.1433(3) 0.5008(2)
H18A H 0.2324 0.1513 0.4965
C28A C 0.28101(17) 0.1178(3) 0.44938(19)
C29A C 0.33077(18) 0.1026(3) 0.4554(2)
H19A H 0.3398 0.0825 0.4204
C30A C 0.36743(16) 0.1170(3) 0.51350(19)
H20A H 0.4018 0.1070 0.5178
C31? C 0.5461(3) -0.1303(6) 0.9514(4)
C32? C 0.5451(3) -0.0638(5) 0.9090(4)
C33? C 0.4549(3) -0.0712(5) 0.8687(4)
C34? C 0.4553(3) -0.1383(5) 0.9102(4)
H21? H 0.5771 -0.1542 0.9770
H22? H 0.5761 -0.0428 0.9061
H23? H 0.4239 -0.0543 0.8385
H24? H 0.4252 -0.1681 0.9078
loop_
_geom_bond_atom_site_label_1
_geom_bond_atom_site_label_2
_geom_bond_site_symmetry_1
_geom_bond_site_symmetry_2
I1 C1 1_555 1_555
I2 C10 1_555 1_555
I3 C16 1_555 1_555
I4 C22 1_555 1_555
I5 C28 1_555 1_555
Si1 O1 1_555 1_555
Si2 O1 1_555 1_555
Si3 O2 1_555 1_555
Si4 O3 1_555 1_555
Si5 O4 1_555 1_555
O2 Si2 1_555 1_555
O3 Si3 1_555 1_555
O4 Si4 1_555 1_555
O5 Si1 1_555 1_555
O6 Si4 1_555 1_555
O7 Si2 1_555 1_555
O8 Si1 1_555 1_555
C1 C2 1_555 1_555
C2 H1 1_555 1_555
C3 C2 1_555 1_555
H2 C3 1_555 1_555
C4 Si1 1_555 1_555
C5 C4 1_555 1_555
H3 C5 1_555 1_555
C6 C1 1_555 1_555
H4 C6 1_555 1_555
C7 Si5 1_555 1_555
C8 C7 1_555 1_555
H5 C8 1_555 1_555
C9 C8 1_555 1_555
H6 C9 1_555 1_555
C10 C9 1_555 1_555
C11 C10 1_555 1_555
H7 C11 1_555 1_555
C12 C7 1_555 1_555
H8 C12 1_555 1_555
C13 Si4 1_555 1_555
C14 C13 1_555 1_555
H9 C14 1_555 1_555
C15 C14 1_555 1_555
H10 C15 1_555 1_555
C16 C15 1_555 1_555
C17 C16 1_555 1_555
H11 C17 1_555 1_555
C18 C13 1_555 1_555
H12 C18 1_555 1_555
C19 Si3 1_555 1_555
C20 C19 1_555 1_555
H13 C20 1_555 1_555
C21 C20 1_555 1_555
H14 C21 1_555 1_555
C22 C21 1_555 1_555
C23 C22 1_555 1_555
H15 C23 1_555 1_555
C24 C19 1_555 1_555
H16 C24 1_555 1_555
C25 Si2 1_555 1_555
C26 C25 1_555 1_555
H17 C26 1_555 1_555
C27 C26 1_555 1_555
H18 C27 1_555 1_555
C28 C27 1_555 1_555
C29 C28 1_555 1_555
H19 C29 1_555 1_555
C30 C25 1_555 1_555
H20 C30 1_555 1_555
I1A C1A 1_555 1_555
I2A C10A 1_555 1_555
I3A C16A 1_555 1_555
I4A C22A 1_555 1_555
I5A C28A 1_555 1_555
Si1A O8 1_555 1_555
Si2A O1A 1_555 1_555
Si3A O6 1_555 1_555
Si4A O3A 1_555 1_555
Si5A O7 1_555 1_555
O1A Si1A 1_555 1_555
O2A Si2A 1_555 1_555
O3A Si3A 1_555 1_555
O4A Si4A 1_555 1_555
O5A Si1A 1_555 1_555
O6A Si3 1_555 1_555
O7A Si5 1_555 1_555
C1A C2A 1_555 1_555
C2A H1A 1_555 1_555
C3A C2A 1_555 1_555
H2A C3A 1_555 1_555
C4A Si1A 1_555 1_555
C5A C4A 1_555 1_555
H3A C5A 1_555 1_555
C6A C1A 1_555 1_555
H4A C6A 1_555 1_555
C7A Si5A 1_555 1_555
C8A C7A 1_555 1_555
H5A C8A 1_555 1_555
C9A C8A 1_555 1_555
H6A C9A 1_555 1_555
C10A C9A 1_555 1_555
C11A C10A 1_555 1_555
H7A C11A 1_555 1_555
C12A C7A 1_555 1_555
H8A C12A 1_555 1_555
C13A Si4A 1_555 1_555
C14A C13A 1_555 1_555
H9A C14A 1_555 1_555
C15A C14A 1_555 1_555
H10A C15A 1_555 1_555
C16A C15A 1_555 1_555
C17A C16A 1_555 1_555
H11A C17A 1_555 1_555
C18A C13A 1_555 1_555
H12A C18A 1_555 1_555
C19A Si3A 1_555 1_555
C20A C19A 1_555 1_555
H13A C20A 1_555 1_555
C21A C20A 1_555 1_555
H14A C21A 1_555 1_555
C22A C21A 1_555 1_555
C23A C22A 1_555 1_555
H15A C23A 1_555 1_555
C24A C19A 1_555 1_555
H16A C24A 1_555 1_555
C25A Si2A 1_555 1_555
C26A C25A 1_555 1_555
H17A C26A 1_555 1_555
C27A C26A 1_555 1_555
H18A C27A 1_555 1_555
C28A C27A 1_555 1_555
C29A C28A 1_555 1_555
H19A C29A 1_555 1_555
C30A C25A 1_555 1_555
H20A C30A 1_555 1_555
Si5 O5 1_555 1_555
C3 C4 1_555 1_555
C5 C6 1_555 1_555
C11 C12 1_555 1_555
C17 C18 1_555 1_555
C23 C24 1_555 1_555
C29 C30 1_555 1_555
Si2A O7A 1_555 1_555
Si3A O2A 1_555 1_555
Si4A O6A 1_555 1_555
Si5A O4A 1_555 1_555
Si5A O5A 1_555 1_555
C3A C4A 1_555 1_555
C5A C6A 1_555 1_555
C11A C12A 1_555 1_555
C17A C18A 1_555 1_555
C23A C24A 1_555 1_555
C29A C30A 1_555 1_555

#END
