
#######################################################################
#
#                 Cambridge Crystallographic Data Centre
#                                CCDC 
#
#######################################################################
#
# If this CIF has been generated from an entry in the Cambridge 
# Structural Database, then it will include bibliographic, chemical, 
# crystal, experimental, refinement or atomic coordinate data resulting 
# from the CCDC's data processing and validation procedures.
#
#######################################################################

data_BUWRAO
_chemical_formula_moiety         'C14 H8 Br2 F1 N2 O2'
_chemical_name_systematic        
N'-(3,5-dibromo-2-hydroxybenzylidene)-2-fluorobenzohydrazide
_symmetry_cell_setting           monoclinic
_symmetry_space_group_name_H-M   'C 2/c'
_symmetry_Int_Tables_number      15
_space_group_name_Hall           '-C 2yn'
loop_
_symmetry_equiv_pos_site_id
_symmetry_equiv_pos_as_xyz
1 x,y,z
2 -x,y,1/2-z
3 1/2+x,1/2+y,z
4 1/2-x,1/2+y,1/2-z
5 -x,-y,-z
6 x,-y,1/2+z
7 1/2-x,1/2-y,-z
8 1/2+x,1/2-y,1/2+z
_cell_length_a                   36.0853(5)
_cell_length_b                   10.1711(2)
_cell_length_c                   17.3627(5)
_cell_angle_alpha                90
_cell_angle_beta                 109.973(2)
_cell_angle_gamma                90
_cell_volume                     5989.3
_cell_formula_units_Z            16
loop_
_atom_site_label
_atom_site_type_symbol
_atom_site_fract_x
_atom_site_fract_y
_atom_site_fract_z
Br1 Br 0.214732(18) 0.92684(7) 0.40190(6)
Br2 Br 0.20084(2) 0.37519(7) 0.40408(7)
O1 O 0.11933(10) 0.4421(3) 0.3991(3)
O2 O 0.02183(9) 0.3818(3) 0.3953(3)
N1 N 0.06086(10) 0.5906(3) 0.3848(3)
N2 N 0.02178(10) 0.6000(3) 0.3769(3)
F1 F -0.03396(11) 0.2991(4) 0.4502(2)
C1 C -0.05579(13) 0.3986(4) 0.4075(3)
C2 C -0.06385(13) 0.5894(4) 0.3269(3)
C3 C 0.12222(12) 0.6782(4) 0.3919(3)
C4 C 0.13918(13) 0.5525(5) 0.3981(3)
C5 C 0.17801(15) 0.5435(5) 0.4007(4)
C6 C 0.20033(15) 0.6527(6) 0.4007(4)
H1 H 0.2264 0.6444 0.4033
C7 C 0.18335(14) 0.7750(5) 0.3967(4)
C8 C 0.14461(13) 0.7891(5) 0.3917(3)
H2 H 0.1335 0.8724 0.3881
C9 C 0.08065(13) 0.6939(4) 0.3838(3)
H3 H 0.0691 0.7767 0.3780
C10 C 0.00376(12) 0.4853(4) 0.3836(3)
C11 C -0.03885(11) 0.4940(4) 0.3736(3)
C12 C -0.09554(14) 0.3974(5) 0.3964(3)
H4 H -0.1061 0.3323 0.4203
C13 C -0.11924(13) 0.4941(5) 0.3494(3)
H5 H -0.1461 0.4942 0.3409
C14 C -0.10331(14) 0.5908(5) 0.3149(4)
H6 H -0.1193 0.6568 0.2835
H7 H 0.0099(13) 0.677(3) 0.379(3)
H8 H 0.0962(6) 0.460(5) 0.397(3)
Br3 Br 0.22356(2) 0.34159(9) 0.65238(6)
Br4 Br 0.191352(17) -0.20233(8) 0.63013(5)
O3 O 0.11092(8) -0.1074(3) 0.5279(2)
O4 O 0.00473(9) -0.1177(3) 0.3797(2)
N3 N 0.05926(9) 0.0623(3) 0.4470(2)
N4 N 0.02126(10) 0.0948(3) 0.3996(2)
F3 F -0.03244(12) 0.2316(4) 0.2697(3)
C15 C -0.05706(16) 0.1472(5) 0.2730(3)
C16 C -0.07681(13) -0.0401(6) 0.3215(3)
C17 C 0.12416(12) 0.1242(4) 0.5266(3)
C18 C 0.13573(11) -0.0050(5) 0.5507(3)
C19 C 0.17458(12) -0.0281(5) 0.6011(3)
C20 C 0.20075(13) 0.0742(6) 0.6308(3)
H9 H 0.2265 0.0577 0.6650
C21 C 0.18837(14) 0.1989(6) 0.6091(4)
C22 C 0.15099(13) 0.2255(5) 0.5569(3)
H10 H 0.1436 0.3119 0.5417
C23 C 0.08423(12) 0.1542(4) 0.4748(3)
H11 H 0.0767 0.2411 0.4617
C24 C -0.00441(12) -0.0028(4) 0.3681(3)
C25 C -0.04574(12) 0.0394(4) 0.3206(3)
C26 C -0.0963(2) 0.1807(7) 0.2296(3)
H12 H -0.1027 0.2573 0.1986
C27 C -0.12464(19) 0.0962(9) 0.2346(4)
H13 H -0.1510 0.1146 0.2060
C28 C -0.11521(16) -0.0113(9) 0.2796(4)
H14 H -0.1349 -0.0677 0.2827
H15 H 0.0155(14) 0.1808(15) 0.394(3)
H16 H 0.0889(7) -0.078(5) 0.497(2)
F2? F -0.0510(3) 0.6736(9) 0.2845(6)
F4? F -0.0697(2) -0.1312(8) 0.3712(6)
loop_
_geom_bond_atom_site_label_1
_geom_bond_atom_site_label_2
_geom_bond_site_symmetry_1
_geom_bond_site_symmetry_2
Br1 C7 1_555 1_555
Br2 C5 1_555 1_555
O1 C4 1_555 1_555
O2 C10 1_555 1_555
N1 N2 1_555 1_555
N2 C10 1_555 1_555
F1 C1 1_555 1_555
C1 C11 1_555 1_555
C2 C11 1_555 1_555
C3 C4 1_555 1_555
C4 C5 1_555 1_555
C5 C6 1_555 1_555
C6 H1 1_555 1_555
C7 C6 1_555 1_555
C8 C3 1_555 1_555
H2 C8 1_555 1_555
C9 N1 1_555 1_555
H3 C9 1_555 1_555
C10 C11 1_555 1_555
C12 C1 1_555 1_555
H4 C12 1_555 1_555
C13 C12 1_555 1_555
H5 C13 1_555 1_555
C14 C2 1_555 1_555
H6 C14 1_555 1_555
H7 N2 1_555 1_555
H8 O1 1_555 1_555
Br3 C21 1_555 1_555
Br4 C19 1_555 1_555
O3 C18 1_555 1_555
O4 C24 1_555 1_555
N3 N4 1_555 1_555
N4 C24 1_555 1_555
F3 C15 1_555 1_555
C15 C25 1_555 1_555
C16 C25 1_555 1_555
C17 C18 1_555 1_555
C18 C19 1_555 1_555
C19 C20 1_555 1_555
C20 H9 1_555 1_555
C21 C20 1_555 1_555
C22 C17 1_555 1_555
H10 C22 1_555 1_555
C23 N3 1_555 1_555
H11 C23 1_555 1_555
C24 C25 1_555 1_555
C26 C15 1_555 1_555
H12 C26 1_555 1_555
C27 C26 1_555 1_555
H13 C27 1_555 1_555
C28 C16 1_555 1_555
H14 C28 1_555 1_555
H15 N4 1_555 1_555
H16 O3 1_555 1_555
C3 C9 1_555 1_555
C7 C8 1_555 1_555
C13 C14 1_555 1_555
C17 C23 1_555 1_555
C21 C22 1_555 1_555
C27 C28 1_555 1_555

#END
