
#######################################################################
#
#                 Cambridge Crystallographic Data Centre
#                                CCDC 
#
#######################################################################
#
# If this CIF has been generated from an entry in the Cambridge 
# Structural Database, then it will include bibliographic, chemical, 
# crystal, experimental, refinement or atomic coordinate data resulting 
# from the CCDC's data processing and validation procedures.
#
#######################################################################

data_BUYHUZ
_chemical_name_common            
"N,N'-bis(nonafluoropentyl)-2,6-dichloro-1,4,5,8-naphthalenetetracarboxylic acid diimide"
_chemical_formula_moiety         'C24 H6 Cl2 F18 N2 O4'
_chemical_name_systematic        
4,9-Dichloro-2,7-bis(2,2,3,3,4,4,5,5,5-nonafluoropentyl)benzo[lmn][3,8]phenanthroline-1,3,6,8(2H,7H)-tetrone
_symmetry_cell_setting           monoclinic
_symmetry_space_group_name_H-M   'P 21/c'
_symmetry_Int_Tables_number      14
_space_group_name_Hall           '-P 2ybc'
loop_
_symmetry_equiv_pos_site_id
_symmetry_equiv_pos_as_xyz
1 x,y,z
2 -x,1/2+y,1/2-z
3 -x,-y,-z
4 x,1/2-y,1/2+z
_cell_length_a                   11.703(5)
_cell_length_b                   16.842(6)
_cell_length_c                   6.531(3)
_cell_angle_alpha                90
_cell_angle_beta                 99.518(15)
_cell_angle_gamma                90
_cell_volume                     1269.55
_exptl_crystal_colour            yellow
_exptl_crystal_description       plate
_cell_formula_units_Z            2
loop_
_atom_site_label
_atom_site_type_symbol
_atom_site_fract_x
_atom_site_fract_y
_atom_site_fract_z
Cl1 Cl -0.07193(12) 0.16959(8) 0.0164(2)
F1 F 0.7852(3) 0.12604(18) 1.5259(5)
F2 F 0.6422(3) 0.13975(19) 1.6883(5)
F3 F 0.6797(3) 0.23015(19) 1.4793(5)
F4 F 0.6052(3) 0.03220(18) 1.3781(5)
F5 F 0.6477(3) 0.12054(17) 1.1597(5)
F6 F 0.4264(3) 0.12340(17) 1.4587(5)
F7 F 0.4704(3) 0.21648(17) 1.2542(5)
F8 F 0.4061(2) 0.01919(17) 1.1151(4)
F9 F 0.4308(3) 0.12134(17) 0.9244(5)
O1 O 0.1659(3) -0.0193(2) 1.1202(7)
O2 O 0.1940(3) 0.1991(2) 0.7311(6)
N1 N 0.1938(4) 0.0846(2) 0.9156(8)
C1 C 0.6777(6) 0.1531(3) 1.5109(10)
C2 C 0.5999(6) 0.1102(3) 1.3311(9)
C3 C 0.4714(5) 0.1380(3) 1.2853(9)
C4 C 0.3935(5) 0.0987(3) 1.1007(9)
C5 C 0.2680(5) 0.1211(3) 1.0950(9)
H1 H 0.2425 0.1033 1.2247
H2 H 0.2600 0.1795 1.0865
C6 C 0.1472(5) 0.0096(3) 0.9501(11)
C7 C 0.0744(5) -0.0285(3) 0.7694(10)
C8 C 0.0381(5) 0.0153(3) 0.5838(8)
C9 C 0.0793(5) 0.0940(3) 0.5693(10)
C10 C 0.1593(5) 0.1309(4) 0.7397(10)
C11 C 0.0417(5) 0.1374(3) 0.3923(10)
H3 H 0.0680 0.1905 0.3846
C12 C -0.0334(5) 0.1061(3) 0.2241(9)
Cl1B Cl 0.07193(12) -0.16959(8) 0.9836(2)
F1B F -0.7852(3) -0.12604(18) -0.5259(5)
F2B F -0.6422(3) -0.13975(19) -0.6883(5)
F3B F -0.6797(3) -0.23015(19) -0.4793(5)
F4B F -0.6052(3) -0.03220(18) -0.3781(5)
F5B F -0.6477(3) -0.12054(17) -0.1597(5)
F6B F -0.4264(3) -0.12340(17) -0.4587(5)
F7B F -0.4704(3) -0.21648(17) -0.2542(5)
F8B F -0.4061(2) -0.01919(17) -0.1151(4)
F9B F -0.4308(3) -0.12134(17) 0.0756(5)
O1B O -0.1659(3) 0.0193(2) -0.1202(7)
O2B O -0.1940(3) -0.1991(2) 0.2689(6)
N1B N -0.1938(4) -0.0846(2) 0.0844(8)
C1B C -0.6777(6) -0.1531(3) -0.5109(10)
C2B C -0.5999(6) -0.1102(3) -0.3311(9)
C3B C -0.4714(5) -0.1380(3) -0.2853(9)
C4B C -0.3935(5) -0.0987(3) -0.1007(9)
C5B C -0.2680(5) -0.1211(3) -0.0950(9)
H1B H -0.2425 -0.1033 -0.2247
H2B H -0.2600 -0.1795 -0.0865
C6B C -0.1472(5) -0.0096(3) 0.0499(11)
C7B C -0.0744(5) 0.0285(3) 0.2306(10)
C8B C -0.0381(5) -0.0153(3) 0.4162(8)
C9B C -0.0793(5) -0.0940(3) 0.4307(10)
C10B C -0.1593(5) -0.1309(4) 0.2603(10)
C11B C -0.0417(5) -0.1374(3) 0.6077(10)
H3B H -0.0680 -0.1905 0.6154
C12B C 0.0334(5) -0.1061(3) 0.7759(9)
loop_
_geom_bond_atom_site_label_1
_geom_bond_atom_site_label_2
_geom_bond_site_symmetry_1
_geom_bond_site_symmetry_2
Cl1 C12 1_555 1_555
F1 C1 1_555 1_555
F2 C1 1_555 1_555
F3 C1 1_555 1_555
F4 C2 1_555 1_555
F5 C2 1_555 1_555
F6 C3 1_555 1_555
F7 C3 1_555 1_555
F8 C4 1_555 1_555
F9 C4 1_555 1_555
O1 C6 1_555 1_555
O2 C10 1_555 1_555
N1 C5 1_555 1_555
C1 C2 1_555 1_555
C2 C3 1_555 1_555
C3 C4 1_555 1_555
C4 C5 1_555 1_555
C5 H1 1_555 1_555
H2 C5 1_555 1_555
C6 N1 1_555 1_555
C7 C6 1_555 1_555
C8 C7 1_555 1_555
C9 C8 1_555 1_555
C10 N1 1_555 1_555
C11 C9 1_555 1_555
H3 C11 1_555 1_555
C12 C11 1_555 1_555
Cl1B C12B 1_555 1_555
F1B C1B 1_555 1_555
F2B C1B 1_555 1_555
F3B C1B 1_555 1_555
F4B C2B 1_555 1_555
F5B C2B 1_555 1_555
F6B C3B 1_555 1_555
F7B C3B 1_555 1_555
F8B C4B 1_555 1_555
F9B C4B 1_555 1_555
O1B C6B 1_555 1_555
O2B C10B 1_555 1_555
N1B C5B 1_555 1_555
C1B C2B 1_555 1_555
C2B C3B 1_555 1_555
C3B C4B 1_555 1_555
C4B C5B 1_555 1_555
C5B H1B 1_555 1_555
H2B C5B 1_555 1_555
C6B N1B 1_555 1_555
C7B C12 1_555 1_555
C8B C8 1_555 1_555
C9B C8B 1_555 1_555
C10B N1B 1_555 1_555
C11B C9B 1_555 1_555
H3B C11B 1_555 1_555
C12B C7 1_555 1_555
C9 C10 1_555 1_555
C6B C7B 1_555 1_555
C7B C8B 1_555 1_555
C9B C10B 1_555 1_555
C11B C12B 1_555 1_555

#END
