
#######################################################################
#
#                 Cambridge Crystallographic Data Centre
#                                CCDC 
#
#######################################################################
#
# If this CIF has been generated from an entry in the Cambridge 
# Structural Database, then it will include bibliographic, chemical, 
# crystal, experimental, refinement or atomic coordinate data resulting 
# from the CCDC's data processing and validation procedures.
#
#######################################################################

data_BUYPER
_chemical_name_common            
'bis(5,11,17-trinitro-25,25,27,28-tetrabutoxycalix(4)arene) 5,11,17,23-tetranitro-25,25,27,28-tetrabutoxycalix(4)arene dihydrate'
_chemical_formula_moiety         'C44 H52 N4 O12,2(C44 H53 N3 O10),2(H2 O1)'
_chemical_name_systematic        
'25,26,27,28-Tetrabutoxy-5,11,17,23-tetranitropentacyclo[19.3.1.1^3,7^.1^9,13^.1^15,19^]octacosa-1(25),3(28),4,6,9(27),10,12,15(26),16,18,21,23-dodecaene 25,26,27,28-tetrabutoxy-5,11,17-trinitropentacyclo[19.3.1.1^3,7^.1^9,13^.1^15,19^]octacosa-1(25),3(28),4,6,9(27),10,12,15(26),16,18,21,23-dodecaene dihydrate'
_symmetry_cell_setting           triclinic
_symmetry_space_group_name_H-M   'P -1'
_symmetry_Int_Tables_number      2
_space_group_name_Hall           '-P 1'
loop_
_symmetry_equiv_pos_site_id
_symmetry_equiv_pos_as_xyz
1 x,y,z
2 -x,-y,-z
_cell_length_a                   16.979(11)
_cell_length_b                   18.535(11)
_cell_length_c                   23.93(2)
_cell_angle_alpha                94.465(11)
_cell_angle_beta                 91.639(11)
_cell_angle_gamma                115.571(8)
_cell_volume                     6756.43
_chemical_melting_point          '139-141 deg.C'
_cell_formula_units_Z            2
loop_
_atom_site_label
_atom_site_type_symbol
_atom_site_fract_x
_atom_site_fract_y
_atom_site_fract_z
C1 C 0.63947(14) 0.17361(13) 0.07725(9)
C2 C 0.55085(14) 0.12943(13) 0.06178(9)
C3 C 0.52407(14) 0.10749(13) 0.00497(9)
H1 H 0.4652 0.0761 -0.0058
C4 C 0.58426(13) 0.13193(11) -0.03587(8)
C5 C 0.67377(14) 0.17805(13) -0.01894(8)
H2 H 0.7147 0.1941 -0.0459
C6 C 0.70094(13) 0.19945(12) 0.03695(9)
C7 C 0.78170(13) 0.38156(13) 0.03550(8)
C8 C 0.82724(14) 0.33668(13) 0.02454(9)
C9 C 0.88972(14) 0.35886(14) -0.01476(9)
H3 H 0.9209 0.3287 -0.0217
C10 C 0.90669(15) 0.42519(13) -0.04396(10)
C11 C 0.85757(14) 0.47068(13) -0.03350(9)
H4 H 0.8675 0.5146 -0.0534
C12 C 0.79576(14) 0.44970(13) 0.00577(9)
C13 C 0.57009(14) 0.41227(12) 0.03306(9)
C14 C 0.63530(14) 0.42398(13) -0.00408(9)
C15 C 0.61286(15) 0.37475(11) -0.05458(9)
H5 H 0.6555 0.3818 -0.0799
C16 C 0.52952(13) 0.31627(11) -0.06780(8)
C17 C 0.46648(14) 0.30472(13) -0.02945(8)
H6 H 0.4104 0.2636 -0.0378
C18 C 0.48462(14) 0.35220(12) 0.02029(9)
C19 C 0.43701(14) 0.21473(12) 0.09486(8)
C20 C 0.38091(13) 0.24388(13) 0.07211(8)
C21 C 0.29656(14) 0.18824(13) 0.05098(8)
H7 H 0.2590 0.2062 0.0344
C22 C 0.26855(15) 0.10555(14) 0.05464(10)
H8 H 0.2115 0.0691 0.0428
C23 C 0.32759(15) 0.07887(13) 0.07630(9)
H9 H 0.3102 0.0241 0.0774
C24 C 0.41091(13) 0.13250(12) 0.09594(8)
C25 C 0.48454(14) 0.10845(13) 0.10687(9)
H10 H 0.4594 0.0509 0.1094
H11 H 0.5151 0.1349 0.1429
C26 C 0.79896(14) 0.26093(14) 0.05241(10)
H12 H 0.8074 0.2745 0.0928
H13 H 0.8362 0.2352 0.0420
C27 C 0.72908(15) 0.48895(13) 0.00967(10)
H14 H 0.7342 0.5150 0.0472
H15 H 0.7430 0.5294 -0.0166
C28 C 0.41471(13) 0.33251(13) 0.06376(9)
H16 H 0.4401 0.3652 0.0991
H17 H 0.3671 0.3437 0.0503
C29 C 0.68507(15) 0.13491(14) 0.15921(9)
H18 H 0.7311 0.1260 0.1413
H19 H 0.6318 0.0850 0.1558
C30 C 0.71261(14) 0.16988(14) 0.22150(9)
H20 H 0.7611 0.2230 0.2236
H21 H 0.6641 0.1742 0.2394
C31 C 0.73961(15) 0.11356(14) 0.25092(10)
H22 H 0.7685 0.1384 0.2876
H23 H 0.7793 0.1000 0.2289
C32 C 0.65260(15) 0.03652(14) 0.25677(9)
H24 H 0.6035 0.0455 0.2446
H25 H 0.6482 0.0253 0.2953
H26 H 0.6528 -0.0083 0.2340
C33 C 0.75192(14) 0.42619(13) 0.12887(8)
H27 H 0.7007 0.4248 0.1466
H28 H 0.7854 0.4797 0.1177
C34 C 0.80655(17) 0.40464(15) 0.16825(10)
H29 H 0.7744 0.3517 0.1807
H30 H 0.8600 0.4085 0.1524
C35 C 0.82291(18) 0.46925(16) 0.21288(10)
H31 H 0.7716 0.4598 0.2336
H32 H 0.8446 0.5216 0.1988
C36 C 0.89714(16) 0.45825(14) 0.24908(10)
H33 H 0.8810 0.4020 0.2503
H34 H 0.9030 0.4833 0.2866
H35 H 0.9518 0.4829 0.2320
C37 C 0.57659(15) 0.53521(14) 0.07657(10)
H36 H 0.5150 0.5213 0.0692
H37 H 0.6084 0.5631 0.0458
C38 C 0.61145(15) 0.58724(15) 0.13180(9)
H38 H 0.6179 0.6412 0.1280
H39 H 0.6682 0.5904 0.1433
C39 C 0.54556(18) 0.54842(16) 0.17536(11)
H40 H 0.4908 0.5514 0.1671
H41 H 0.5340 0.4926 0.1770
C40 C 0.59204(17) 0.59911(15) 0.22989(10)
H42 H 0.6502 0.6366 0.2229
H43 H 0.5949 0.5647 0.2571
H44 H 0.5603 0.6279 0.2440
C41 C 0.53559(14) 0.27583(13) 0.18364(8)
H45 H 0.4933 0.2263 0.1966
H46 H 0.5938 0.2803 0.1923
C42 C 0.52673(16) 0.34465(14) 0.21190(10)
H47 H 0.4670 0.3383 0.2083
H48 H 0.5657 0.3949 0.1981
C43 C 0.55419(18) 0.33880(16) 0.27214(9)
H49 H 0.5161 0.2869 0.2841
H50 H 0.6138 0.3446 0.2744
C44 C 0.54759(18) 0.40403(15) 0.30857(10)
H51 H 0.6052 0.4431 0.3223
H52 H 0.5138 0.3820 0.3397
H53 H 0.5195 0.4293 0.2873
N1 N 0.55796(13) 0.11044(11) -0.09287(8)
N2 N 0.97651(12) 0.44875(11) -0.08026(8)
N3 N 0.50734(12) 0.27070(10) -0.12064(7)
O1 O 0.49397(11) 0.11030(10) -0.11341(7)
O2 O 0.60678(10) 0.09796(9) -0.12363(7)
O3 O 1.01301(10) 0.40742(10) -0.09016(6)
O4 O 0.98880(11) 0.51109(10) -0.10165(7)
O5 O 0.56490(9) 0.27511(9) -0.14945(6)
O6 O 0.43227(10) 0.22781(8) -0.13524(6)
O7 O 0.67118(9) 0.19933(8) 0.13594(6)
O8 O 0.72564(10) 0.36501(9) 0.07915(6)
O9 O 0.58983(10) 0.46146(9) 0.08293(6)
O10 O 0.52018(9) 0.27456(8) 0.12118(6)
C45 C 0.40632(14) 0.68120(13) 0.30256(9)
C46 C 0.46478(13) 0.66120(12) 0.32969(8)
C47 C 0.55380(14) 0.72164(14) 0.34080(9)
H54 H 0.5949 0.7099 0.3597
C48 C 0.57727(14) 0.79598(14) 0.32347(9)
H55 H 0.6349 0.8346 0.3305
C49 C 0.51659(14) 0.81569(14) 0.29526(9)
H56 H 0.5330 0.8667 0.2837
C50 C 0.43047(13) 0.75585(11) 0.28515(8)
C51 C 0.44413(15) 0.63274(13) 0.45304(9)
C52 C 0.47170(15) 0.59148(14) 0.41450(9)
C53 C 0.54039(15) 0.57359(13) 0.42915(10)
H57 H 0.5614 0.5474 0.4031
C54 C 0.57705(15) 0.59638(14) 0.48463(9)
C55 C 0.55246(14) 0.63801(12) 0.52228(9)
H58 H 0.5808 0.6545 0.5580
C56 C 0.48517(16) 0.65616(14) 0.50779(10)
C57 C 0.41705(14) 0.81893(14) 0.50580(9)
C58 C 0.48090(15) 0.79242(14) 0.51730(8)
C59 C 0.56235(14) 0.83030(13) 0.49656(9)
H59 H 0.6052 0.8130 0.5036
C60 C 0.57978(14) 0.89561(12) 0.46451(8)
C61 C 0.51767(13) 0.91995(12) 0.45197(9)
H60 H 0.5301 0.9623 0.4300
C62 C 0.43543(14) 0.88173(12) 0.47185(9)
C63 C 0.34232(13) 0.84671(12) 0.35320(8)
C64 C 0.36559(14) 0.91540(13) 0.39078(9)
C65 C 0.39244(15) 0.98842(14) 0.37322(10)
H61 H 0.4040 1.0344 0.3971
C66 C 0.40196(14) 0.98911(13) 0.31280(9)
C67 C 0.39236(13) 0.92722(13) 0.27760(9)
H62 H 0.4072 0.9343 0.2406
C68 C 0.36091(14) 0.85353(13) 0.29559(9)
C69 C 0.36162(14) 0.77962(13) 0.25949(8)
H63 H 0.3042 0.7345 0.2580
H64 H 0.3750 0.7930 0.2214
C70 C 0.43792(16) 0.57929(13) 0.35302(9)
H65 H 0.3747 0.5497 0.3499
H66 H 0.4619 0.5481 0.3311
C71 C 0.45413(16) 0.71290(14) 0.54561(9)
H67 H 0.3912 0.6866 0.5480
H68 H 0.4820 0.7243 0.5833
C72 C 0.36052(13) 0.90421(11) 0.45345(8)
H69 H 0.3041 0.8618 0.4602
H70 H 0.3674 0.9535 0.4748
C73 C 0.31145(16) 0.57294(13) 0.23355(9)
H71 H 0.2926 0.5968 0.2044
H72 H 0.3687 0.5767 0.2255
C74 C 0.24670(15) 0.48494(13) 0.23365(9)
H73 H 0.2348 0.4577 0.1959
H74 H 0.2700 0.4578 0.2576
C75 C 0.16576(15) 0.48479(14) 0.25541(10)
H75 H 0.1442 0.5143 0.2325
H76 H 0.1771 0.5097 0.2938
C76 C 0.09765(17) 0.39539(13) 0.25280(11)
H77 H 0.0542 0.3839 0.2226
H78 H 0.0700 0.3857 0.2877
H79 H 0.1266 0.3613 0.2465
C77 C 0.28624(15) 0.59801(14) 0.46071(10)
H80 H 0.2579 0.6327 0.4697
H81 H 0.2937 0.5754 0.4946
C78 C 0.23312(15) 0.53275(14) 0.41573(11)
H82 H 0.2585 0.4958 0.4066
H83 H 0.2214 0.5532 0.3819
C79 C 0.15170(16) 0.49632(14) 0.45085(11)
H84 H 0.1668 0.4885 0.4886
H85 H 0.1185 0.5278 0.4524
C80 C 0.10449(17) 0.41627(15) 0.41294(10)
H86 H 0.0500 0.4123 0.3971
H87 H 0.0934 0.3721 0.4349
H88 H 0.1407 0.4147 0.3832
C81 C 0.33111(16) 0.81951(14) 0.57831(9)
H89 H 0.3443 0.8752 0.5745
H90 H 0.3704 0.8170 0.6075
C82 C 0.23434(17) 0.76977(16) 0.58941(11)
H91 H 0.2189 0.7974 0.6202
H92 H 0.1977 0.7656 0.5563
C83 C 0.21630(18) 0.68586(17) 0.60378(11)
H93 H 0.2474 0.6868 0.6387
H94 H 0.2296 0.6554 0.5738
C84 C 0.11493(16) 0.65392(15) 0.60960(11)
H95 H 0.1050 0.6772 0.6444
H96 H 0.0887 0.5965 0.6092
H97 H 0.0893 0.6687 0.5788
C85 C 0.21386(13) 0.71579(13) 0.35383(8)
H98 H 0.1970 0.7313 0.3193
H99 H 0.2077 0.6613 0.3466
C86 C 0.15644(15) 0.71933(16) 0.39837(10)
H100 H 0.1588 0.7726 0.4037
H101 H 0.1753 0.7072 0.4336
C87 C 0.06398(14) 0.65753(15) 0.37952(10)
H102 H 0.0599 0.6037 0.3797
H103 H 0.0488 0.6646 0.3416
C88 C -0.00007(17) 0.66926(17) 0.42081(12)
H104 H 0.0054 0.6492 0.4558
H105 H -0.0591 0.6404 0.4047
H106 H 0.0141 0.7254 0.4273
N4 N 0.64634(13) 0.57356(11) 0.49994(9)
N5 N 0.66288(13) 0.93411(12) 0.44508(9)
N6 N 0.43639(12) 1.07323(11) 0.29266(8)
O11 O 0.66469(11) 0.53992(9) 0.46219(8)
O12 O 0.66737(11) 0.59317(9) 0.54824(7)
O13 O 0.71716(10) 0.90366(9) 0.44401(7)
O14 O 0.68102(9) 0.99009(9) 0.41338(6)
O15 O 0.45493(10) 1.12742(9) 0.32855(6)
O16 O 0.43747(11) 1.07253(9) 0.24248(7)
O17 O 0.31725(9) 0.61871(8) 0.29070(6)
O18 O 0.37077(10) 0.64307(9) 0.43790(6)
O19 O 0.33459(10) 0.77686(9) 0.52460(6)
O20 O 0.30653(9) 0.77128(8) 0.37223(6)
C89 C 1.14305(14) 0.20912(14) 0.76187(9)
C90 C 1.10462(14) 0.25614(12) 0.78074(9)
C91 C 1.11341(15) 0.28452(13) 0.83755(9)
H107 H 1.0873 0.3172 0.8502
C92 C 1.16193(14) 0.26291(12) 0.87460(9)
C93 C 1.20402(14) 0.21666(13) 0.85530(9)
H108 H 1.2383 0.2045 0.8804
C94 C 1.19523(15) 0.18905(13) 0.79967(9)
C95 C 0.90232(13) 0.16725(13) 0.76559(8)
C96 C 0.95088(13) 0.24838(12) 0.76196(8)
C97 C 0.92532(14) 0.30370(12) 0.78758(8)
H109 H 0.9594 0.3584 0.7862
C98 C 0.84729(15) 0.27668(14) 0.81578(9)
C99 C 0.79954(14) 0.19609(13) 0.81959(9)
H110 H 0.7486 0.1784 0.8387
C100 C 0.82624(13) 0.13983(13) 0.79512(9)
C101 C 0.87152(13) -0.01933(12) 0.83493(9)
C102 C 0.84575(14) 0.04006(13) 0.84915(9)
C103 C 0.88619(15) 0.09240(13) 0.89757(9)
H111 H 0.8696 0.1328 0.9084
C104 C 0.94975(15) 0.08448(13) 0.92898(9)
C105 C 0.97321(15) 0.02364(12) 0.91573(9)
H112 H 1.0141 0.0170 0.9388
C106 C 0.93516(15) -0.02788(13) 0.86747(8)
C107 C 1.10675(13) 0.00723(11) 0.80912(8)
C108 C 1.06890(14) -0.05163(13) 0.84622(9)
C109 C 1.12090(14) -0.05835(12) 0.88987(8)
H113 H 1.0962 -0.0961 0.9154
C110 C 1.20903(15) -0.00860(14) 0.89469(9)
C111 C 1.24850(15) 0.05040(13) 0.85856(9)
H114 H 1.3081 0.0842 0.8628
C112 C 1.19425(13) 0.05685(12) 0.81504(9)
C113 C 1.23517(15) 0.13039(12) 0.77938(10)
H115 H 1.2984 0.1564 0.7858
H116 H 1.2202 0.1131 0.7396
C114 C 1.04260(13) 0.27439(12) 0.73911(9)
H117 H 1.0682 0.3314 0.7348
H118 H 1.0371 0.2456 0.7025
C115 C 0.78020(15) 0.05322(14) 0.80945(10)
H119 H 0.7647 0.0162 0.7756
H120 H 0.7272 0.0445 0.8280
C116 C 0.97072(14) -0.09345(12) 0.84898(8)
H121 H 0.9557 -0.1330 0.8760
H122 H 0.9435 -0.1211 0.8125
C117 C 1.19878(16) 0.23945(16) 0.67089(10)
H123 H 1.2574 0.2436 0.6768
H124 H 1.1998 0.2920 0.6788
C118 C 1.15794(17) 0.20088(14) 0.61246(10)
H125 H 1.1579 0.1486 0.6057
H126 H 1.0980 0.1939 0.6087
C119 C 1.21216(17) 0.25624(15) 0.57092(9)
H127 H 1.2706 0.2590 0.5725
H128 H 1.2172 0.3100 0.5804
C120 C 1.16714(17) 0.22347(16) 0.51003(10)
H129 H 1.1142 0.2300 0.5068
H130 H 1.1536 0.1675 0.5032
H131 H 1.2061 0.2529 0.4830
C121 C 0.87537(16) 0.06443(15) 0.68638(10)
H132 H 0.8411 0.0086 0.6927
H133 H 0.8354 0.0860 0.6746
C122 C 0.93612(16) 0.06947(14) 0.64136(10)
H134 H 0.9741 0.0448 0.6510
H135 H 0.9716 0.1248 0.6344
C123 C 0.87347(16) 0.02274(14) 0.59115(9)
H136 H 0.8858 -0.0216 0.5771
H137 H 0.8139 0.0006 0.6026
C124 C 0.88180(17) 0.07468(15) 0.54630(11)
H138 H 0.9422 0.1117 0.5448
H139 H 0.8479 0.1041 0.5538
H140 H 0.8608 0.0423 0.5110
C125 C 0.75331(15) -0.14908(12) 0.79933(9)
H141 H 0.7142 -0.1350 0.8216
H142 H 0.7711 -0.1838 0.8193
C126 C 0.71097(16) -0.18841(15) 0.74127(11)
H143 H 0.6513 -0.2288 0.7430
H144 H 0.7117 -0.1491 0.7165
C127 C 0.77101(16) -0.22569(14) 0.72327(11)
H145 H 0.7651 -0.2708 0.7436
H146 H 0.8319 -0.1871 0.7237
C128 C 0.72331(19) -0.25129(17) 0.66295(11)
H147 H 0.6619 -0.2670 0.6657
H148 H 0.7317 -0.2957 0.6457
H149 H 0.7471 -0.2069 0.6406
C129 C 1.02440(16) -0.06059(16) 0.72554(10)
H150 H 1.0333 -0.1034 0.7413
H151 H 0.9629 -0.0796 0.7142
C130 C 1.08116(17) -0.03036(14) 0.67705(9)
H152 H 1.1424 -0.0150 0.6873
H153 H 1.0749 0.0143 0.6622
C131 C 1.04051(18) -0.10664(16) 0.63636(11)
H154 H 1.0518 -0.1497 0.6496
H155 H 0.9780 -0.1250 0.6292
C132 C 1.08910(16) -0.07530(15) 0.58632(10)
H156 H 1.0507 -0.0986 0.5530
H157 H 1.1374 -0.0891 0.5844
H158 H 1.1106 -0.0179 0.5891
N7 N 1.17704(12) 0.29764(12) 0.93081(7)
N8 N 0.82353(14) 0.32210(13) 0.83221(9)
N9 N 0.98870(14) 0.14155(12) 0.98087(8)
N10 N 1.26025(14) -0.01966(12) 0.93753(8)
O21 O 1.23317(10) 0.29294(8) 0.96023(6)
O22 O 1.13286(10) 0.33049(8) 0.94829(6)
O23 O 0.83961(10) 0.38839(10) 0.81931(7)
O24 O 0.76586(10) 0.30639(9) 0.86356(7)
O25 O 0.96258(11) 0.18786(9) 0.99342(6)
O26 O 1.04295(11) 0.13228(9) 1.00594(7)
O27 O 1.21792(11) -0.07024(9) 0.96889(6)
O28 O 1.33646(12) 0.00959(13) 0.94566(8)
O29 O 1.13541(9) 0.17905(9) 0.70373(6)
O30 O 0.92654(9) 0.11128(8) 0.74037(6)
O31 O 0.83168(9) -0.07493(8) 0.78540(6)
O32 O 1.05724(9) 0.01459(9) 0.76679(6)
O33 O 0.1525(3) 0.2899(2) 0.17109(18)
H159 H 0.1952 0.2798 0.1628
H160 H 0.1182 0.2799 0.1420
O34 O 0.9678(3) 0.2323(3) 0.17887(16)
H161 H 0.9971 0.2549 0.2098
H162 H 0.9578 0.1831 0.1754
O35 O 0.1586(4) 0.2665(4) 0.0606(3)
H163 H 0.1473 0.2606 0.0252
H164 H 0.1625 0.3119 0.0739
O36 O 0.2972(4) 0.3979(4) 0.1281(2)
H165 H 0.2671 0.3924 0.0977
H166 H 0.3273 0.4476 0.1384
O37 O 0.2307(4) 0.4719(3) 0.6464(2)
H167 H 0.2378 0.4675 0.6115
H168 H 0.2196 0.4275 0.6596
O38 O 0.9221(4) 0.6318(3) 0.9061(2)
H169 H 0.8762 0.6005 0.8858
H170 H 0.9077 0.6475 0.9368
loop_
_geom_bond_atom_site_label_1
_geom_bond_atom_site_label_2
_geom_bond_site_symmetry_1
_geom_bond_site_symmetry_2
C1 C2 1_555 1_555
C2 C3 1_555 1_555
C3 H1 1_555 1_555
C4 C3 1_555 1_555
C5 C4 1_555 1_555
H2 C5 1_555 1_555
C6 C1 1_555 1_555
C7 C8 1_555 1_555
C8 C9 1_555 1_555
C9 H3 1_555 1_555
C10 C9 1_555 1_555
C11 C10 1_555 1_555
H4 C11 1_555 1_555
C12 C7 1_555 1_555
C13 C14 1_555 1_555
C14 C15 1_555 1_555
C15 H5 1_555 1_555
C16 C15 1_555 1_555
C17 C16 1_555 1_555
H6 C17 1_555 1_555
C18 C13 1_555 1_555
C19 C20 1_555 1_555
C20 C21 1_555 1_555
C21 H7 1_555 1_555
C22 C21 1_555 1_555
H8 C22 1_555 1_555
C23 C22 1_555 1_555
H9 C23 1_555 1_555
C24 C19 1_555 1_555
C25 C2 1_555 1_555
H10 C25 1_555 1_555
H11 C25 1_555 1_555
C26 C6 1_555 1_555
H12 C26 1_555 1_555
H13 C26 1_555 1_555
C27 C12 1_555 1_555
H14 C27 1_555 1_555
H15 C27 1_555 1_555
C28 C18 1_555 1_555
H16 C28 1_555 1_555
H17 C28 1_555 1_555
C29 H18 1_555 1_555
H19 C29 1_555 1_555
C30 C29 1_555 1_555
H20 C30 1_555 1_555
H21 C30 1_555 1_555
C31 C30 1_555 1_555
H22 C31 1_555 1_555
H23 C31 1_555 1_555
C32 C31 1_555 1_555
H24 C32 1_555 1_555
H25 C32 1_555 1_555
H26 C32 1_555 1_555
C33 H27 1_555 1_555
H28 C33 1_555 1_555
C34 C33 1_555 1_555
H29 C34 1_555 1_555
H30 C34 1_555 1_555
C35 C34 1_555 1_555
H31 C35 1_555 1_555
H32 C35 1_555 1_555
C36 C35 1_555 1_555
H33 C36 1_555 1_555
H34 C36 1_555 1_555
H35 C36 1_555 1_555
C37 H36 1_555 1_555
H37 C37 1_555 1_555
C38 C37 1_555 1_555
H38 C38 1_555 1_555
H39 C38 1_555 1_555
C39 C38 1_555 1_555
H40 C39 1_555 1_555
H41 C39 1_555 1_555
C40 C39 1_555 1_555
H42 C40 1_555 1_555
H43 C40 1_555 1_555
H44 C40 1_555 1_555
C41 H45 1_555 1_555
H46 C41 1_555 1_555
C42 C41 1_555 1_555
H47 C42 1_555 1_555
H48 C42 1_555 1_555
C43 C42 1_555 1_555
H49 C43 1_555 1_555
H50 C43 1_555 1_555
C44 C43 1_555 1_555
H51 C44 1_555 1_555
H52 C44 1_555 1_555
H53 C44 1_555 1_555
C45 C46 1_555 1_555
C46 C47 1_555 1_555
C47 H54 1_555 1_555
C48 C47 1_555 1_555
H55 C48 1_555 1_555
C49 C48 1_555 1_555
H56 C49 1_555 1_555
C50 C45 1_555 1_555
C51 C52 1_555 1_555
C52 C53 1_555 1_555
C53 H57 1_555 1_555
C54 C53 1_555 1_555
C55 C54 1_555 1_555
H58 C55 1_555 1_555
C56 C51 1_555 1_555
C57 C58 1_555 1_555
C58 C59 1_555 1_555
C59 H59 1_555 1_555
C60 C59 1_555 1_555
C61 C60 1_555 1_555
H60 C61 1_555 1_555
C62 C57 1_555 1_555
C63 C64 1_555 1_555
C64 C65 1_555 1_555
C65 H61 1_555 1_555
C66 C65 1_555 1_555
C67 C66 1_555 1_555
H62 C67 1_555 1_555
C68 C63 1_555 1_555
C69 C50 1_555 1_555
H63 C69 1_555 1_555
H64 C69 1_555 1_555
C70 C46 1_555 1_555
H65 C70 1_555 1_555
H66 C70 1_555 1_555
C71 C56 1_555 1_555
H67 C71 1_555 1_555
H68 C71 1_555 1_555
C72 C62 1_555 1_555
H69 C72 1_555 1_555
H70 C72 1_555 1_555
C73 H71 1_555 1_555
H72 C73 1_555 1_555
C74 C73 1_555 1_555
H73 C74 1_555 1_555
H74 C74 1_555 1_555
C75 C74 1_555 1_555
H75 C75 1_555 1_555
H76 C75 1_555 1_555
C76 C75 1_555 1_555
H77 C76 1_555 1_555
H78 C76 1_555 1_555
H79 C76 1_555 1_555
C77 H80 1_555 1_555
H81 C77 1_555 1_555
C78 C77 1_555 1_555
H82 C78 1_555 1_555
H83 C78 1_555 1_555
C79 C78 1_555 1_555
H84 C79 1_555 1_555
H85 C79 1_555 1_555
C80 C79 1_555 1_555
H86 C80 1_555 1_555
H87 C80 1_555 1_555
H88 C80 1_555 1_555
C81 H89 1_555 1_555
H90 C81 1_555 1_555
C82 C81 1_555 1_555
H91 C82 1_555 1_555
H92 C82 1_555 1_555
C83 C82 1_555 1_555
H93 C83 1_555 1_555
H94 C83 1_555 1_555
C84 C83 1_555 1_555
H95 C84 1_555 1_555
H96 C84 1_555 1_555
H97 C84 1_555 1_555
C85 H98 1_555 1_555
H99 C85 1_555 1_555
C86 C85 1_555 1_555
H100 C86 1_555 1_555
H101 C86 1_555 1_555
C87 C86 1_555 1_555
H102 C87 1_555 1_555
H103 C87 1_555 1_555
C88 C87 1_555 1_555
H104 C88 1_555 1_555
H105 C88 1_555 1_555
H106 C88 1_555 1_555
C89 C90 1_555 1_555
C90 C91 1_555 1_555
C91 H107 1_555 1_555
C92 C91 1_555 1_555
C93 C92 1_555 1_555
H108 C93 1_555 1_555
C94 C89 1_555 1_555
C95 C96 1_555 1_555
C96 C97 1_555 1_555
C97 H109 1_555 1_555
C98 C97 1_555 1_555
C99 C98 1_555 1_555
H110 C99 1_555 1_555
C100 C95 1_555 1_555
C101 C102 1_555 1_555
C102 C103 1_555 1_555
C103 H111 1_555 1_555
C104 C103 1_555 1_555
C105 C104 1_555 1_555
H112 C105 1_555 1_555
C106 C101 1_555 1_555
C107 C108 1_555 1_555
C108 C109 1_555 1_555
C109 H113 1_555 1_555
C110 C109 1_555 1_555
C111 C110 1_555 1_555
H114 C111 1_555 1_555
C112 C107 1_555 1_555
C113 C94 1_555 1_555
H115 C113 1_555 1_555
H116 C113 1_555 1_555
C114 C90 1_555 1_555
H117 C114 1_555 1_555
H118 C114 1_555 1_555
C115 C100 1_555 1_555
H119 C115 1_555 1_555
H120 C115 1_555 1_555
C116 C106 1_555 1_555
H121 C116 1_555 1_555
H122 C116 1_555 1_555
C117 H123 1_555 1_555
H124 C117 1_555 1_555
C118 C117 1_555 1_555
H125 C118 1_555 1_555
H126 C118 1_555 1_555
C119 C118 1_555 1_555
H127 C119 1_555 1_555
H128 C119 1_555 1_555
C120 C119 1_555 1_555
H129 C120 1_555 1_555
H130 C120 1_555 1_555
H131 C120 1_555 1_555
C121 H132 1_555 1_555
H133 C121 1_555 1_555
C122 C121 1_555 1_555
H134 C122 1_555 1_555
H135 C122 1_555 1_555
C123 C122 1_555 1_555
H136 C123 1_555 1_555
H137 C123 1_555 1_555
C124 C123 1_555 1_555
H138 C124 1_555 1_555
H139 C124 1_555 1_555
H140 C124 1_555 1_555
C125 H141 1_555 1_555
H142 C125 1_555 1_555
C126 C125 1_555 1_555
H143 C126 1_555 1_555
H144 C126 1_555 1_555
C127 C126 1_555 1_555
H145 C127 1_555 1_555
H146 C127 1_555 1_555
C128 C127 1_555 1_555
H147 C128 1_555 1_555
H148 C128 1_555 1_555
H149 C128 1_555 1_555
C129 H150 1_555 1_555
H151 C129 1_555 1_555
C130 C129 1_555 1_555
H152 C130 1_555 1_555
H153 C130 1_555 1_555
C131 C130 1_555 1_555
H154 C131 1_555 1_555
H155 C131 1_555 1_555
C132 C131 1_555 1_555
H156 C132 1_555 1_555
H157 C132 1_555 1_555
H158 C132 1_555 1_555
N1 C4 1_555 1_555
N2 C10 1_555 1_555
N3 C16 1_555 1_555
N4 C54 1_555 1_555
N5 C60 1_555 1_555
N6 C66 1_555 1_555
N7 C92 1_555 1_555
N8 C98 1_555 1_555
N9 C104 1_555 1_555
N10 C110 1_555 1_555
O1 N1 1_555 1_555
O2 N1 1_555 1_555
O3 N2 1_555 1_555
O4 N2 1_555 1_555
O5 N3 1_555 1_555
O6 N3 1_555 1_555
O7 C1 1_555 1_555
O8 C7 1_555 1_555
O9 C13 1_555 1_555
O10 C19 1_555 1_555
O11 N4 1_555 1_555
O12 N4 1_555 1_555
O13 N5 1_555 1_555
O14 N5 1_555 1_555
O15 N6 1_555 1_555
O16 N6 1_555 1_555
O17 C45 1_555 1_555
O18 C51 1_555 1_555
O19 C57 1_555 1_555
O20 C63 1_555 1_555
O21 N7 1_555 1_555
O22 N7 1_555 1_555
O23 N8 1_555 1_555
O24 N8 1_555 1_555
O25 N9 1_555 1_555
O26 N9 1_555 1_555
O27 N10 1_555 1_555
O28 N10 1_555 1_555
O29 C89 1_555 1_555
O30 C95 1_555 1_555
O31 C101 1_555 1_555
O32 C107 1_555 1_555
O33 H159 1_555 1_555
H160 O33 1_555 1_555
O34 H161 1_555 1_555
H162 O34 1_555 1_555
O35 H163 1_555 1_555
H164 O35 1_555 1_555
O36 H165 1_555 1_555
H166 O36 1_555 1_555
O37 H167 1_555 1_555
H168 O37 1_555 1_555
O38 H169 1_555 1_555
H170 O38 1_555 1_555
C5 C6 1_555 1_555
C8 C26 1_555 1_555
C11 C12 1_555 1_555
C14 C27 1_555 1_555
C17 C18 1_555 1_555
C20 C28 1_555 1_555
C23 C24 1_555 1_555
C24 C25 1_555 1_555
C29 O7 1_555 1_555
C33 O8 1_555 1_555
C37 O9 1_555 1_555
C41 O10 1_555 1_555
C49 C50 1_555 1_555
C52 C70 1_555 1_555
C55 C56 1_555 1_555
C58 C71 1_555 1_555
C61 C62 1_555 1_555
C64 C72 1_555 1_555
C67 C68 1_555 1_555
C68 C69 1_555 1_555
C73 O17 1_555 1_555
C77 O18 1_555 1_555
C81 O19 1_555 1_555
C85 O20 1_555 1_555
C93 C94 1_555 1_555
C96 C114 1_555 1_555
C99 C100 1_555 1_555
C102 C115 1_555 1_555
C105 C106 1_555 1_555
C108 C116 1_555 1_555
C111 C112 1_555 1_555
C112 C113 1_555 1_555
C117 O29 1_555 1_555
C121 O30 1_555 1_555
C125 O31 1_555 1_555
C129 O32 1_555 1_555

#END
