
#######################################################################
#
#                 Cambridge Crystallographic Data Centre
#                                CCDC 
#
#######################################################################
#
# If this CIF has been generated from an entry in the Cambridge 
# Structural Database, then it will include bibliographic, chemical, 
# crystal, experimental, refinement or atomic coordinate data resulting 
# from the CCDC's data processing and validation procedures.
#
#######################################################################

data_BUZQIY
_chemical_formula_moiety         'C33 H37 N1 O5'
_chemical_name_systematic        
'2,7-di-t-butyl-5-(2,6-diacetylpyridin-4-yl)-9,9-dimethyl-9H-xanthene-4-carboxylic acid'
_symmetry_cell_setting           monoclinic
_symmetry_space_group_name_H-M   'P 21/n'
_symmetry_Int_Tables_number      14
_space_group_name_Hall           '-P 2yn'
loop_
_symmetry_equiv_pos_site_id
_symmetry_equiv_pos_as_xyz
1 x,y,z
2 1/2-x,1/2+y,1/2-z
3 -x,-y,-z
4 1/2+x,1/2-y,1/2+z
_cell_length_a                   15.177(3)
_cell_length_b                   8.8007(17)
_cell_length_c                   21.417(4)
_cell_angle_alpha                90
_cell_angle_beta                 97.664(3)
_cell_angle_gamma                90
_cell_volume                     2835.08
_exptl_crystal_colour            colorless
_exptl_crystal_description       Rod
_cell_formula_units_Z            4
loop_
_atom_site_label
_atom_site_type_symbol
_atom_site_fract_x
_atom_site_fract_y
_atom_site_fract_z
N1 N 0.63160(7) 0.15817(12) 0.18470(5)
O1 O 0.77605(6) 0.56758(10) 0.07813(4)
O2 O 0.56289(10) 0.52209(15) 0.22391(7)
C1 C 0.47440(17) 0.2975(3) 0.21005(13)
H1 H 0.4281 0.3621 0.2238
H2 H 0.4868 0.2126 0.2395
H3 H 0.4540 0.2578 0.1678
O3 O 0.76554(9) -0.16167(15) 0.17038(7)
C2 C 0.60690(17) -0.1557(3) 0.16336(13)
H4 H 0.6119 -0.2667 0.1624
H5 H 0.5714 -0.1204 0.1245
H6 H 0.5779 -0.1252 0.1996
O4 O 0.54061(7) 0.64239(13) -0.03382(5)
O5 O 0.60168(7) 0.52610(12) 0.05354(5)
H7 H 0.5506(15) 0.466(3) 0.0453(10)
C3 C 0.86463(8) 0.39645(14) 0.14408(6)
C4 C 0.94821(8) 0.34144(14) 0.16895(6)
H8 H 0.9521 0.2498 0.1926
C5 C 1.02614(8) 0.41712(14) 0.16004(6)
C6 C 1.01713(8) 0.55278(14) 0.12631(6)
H9 H 1.0694 0.6081 0.1210
C7 C 1.17481(10) 0.3315(2) 0.13370(7)
H10 H 1.1460 0.2541 0.1051
H11 H 1.2341 0.2962 0.1515
H12 H 1.1802 0.4262 0.1104
C8 C 1.11472(10) 0.21349(17) 0.22458(9)
H13 H 1.0852 0.1342 0.1973
H14 H 1.0812 0.2316 0.2599
H15 H 1.1752 0.1807 0.2407
C9 C 0.60190(8) 0.62782(14) 0.00979(6)
C10 C 1.16530(10) 0.48063(17) 0.23105(7)
H16 H 1.1689 0.5759 0.2078
H17 H 1.2254 0.4460 0.2473
H18 H 1.1314 0.4974 0.2663
C11 C 0.74053(10) 1.26043(15) -0.00800(7)
H19 H 0.7047 1.2560 0.0268
H20 H 0.7304 1.3577 -0.0300
H21 H 0.8036 1.2510 0.0087
C12 C 0.77011(9) 1.13636(17) -0.10840(7)
H22 H 0.7528 1.0532 -0.1379
H23 H 0.8331 1.1262 -0.0916
H24 H 0.7604 1.2338 -0.1304
C13 C 0.70398(9) 0.08477(15) 0.17105(6)
C14 C 0.71039(8) 0.39287(15) 0.17533(6)
H25 H 0.7103 0.5007 0.1778
C15 C 0.61622(9) 1.15141(17) -0.08130(7)
H26 H 0.5979 1.0693 -0.1111
H27 H 0.6089 1.2494 -0.1031
H28 H 0.5793 1.1493 -0.0471
C16 C 0.63705(9) 0.30983(15) 0.18851(6)
C17 C 0.98693(8) 0.75596(15) 0.01149(6)
H29 H 0.9631 0.6774 -0.0185
H30 H 1.0485 0.7312 0.0282
H31 H 0.9851 0.8546 -0.0099
C18 C 0.69861(9) -0.08595(15) 0.16887(6)
C19 C 0.72991(8) 0.97712(14) -0.02037(6)
C20 C 0.66394(8) 0.86971(15) -0.01821(6)
H32 H 0.6059 0.8904 -0.0390
C21 C 0.71379(8) 1.12993(14) -0.05408(6)
C22 C 0.96650(8) 0.88665(15) 0.11396(6)
H33 H 0.9298 0.8905 0.1482
H34 H 0.9648 0.9856 0.0928
H35 H 1.0280 0.8623 0.1312
C23 C 0.78375(8) 0.31616(14) 0.15851(6)
C24 C 0.67967(8) 0.73180(14) 0.01354(6)
C25 C 0.78063(9) 0.15761(14) 0.15827(6)
H36 H 0.8305 0.1002 0.1494
C26 C 0.93027(8) 0.76337(14) 0.06618(6)
C27 C 0.55804(9) 0.38969(16) 0.20850(7)
C28 C 1.11878(8) 0.35975(15) 0.18695(6)
C29 C 0.93530(8) 0.61127(14) 0.09992(6)
C30 C 0.81506(8) 0.93703(14) 0.00810(6)
H37 H 0.8622 1.0071 0.0059
C31 C 0.85960(8) 0.52884(14) 0.10743(6)
C32 C 0.76491(8) 0.69971(14) 0.04447(6)
C33 C 0.83457(8) 0.80040(14) 0.03938(6)
O6? O 0.490(2) 0.324(5) 0.206(3)
C34? C 0.589(4) 0.541(6) 0.222(4)
H38? H 0.5411 0.6023 0.2356
H39? H 0.6070 0.5865 0.1835
H40? H 0.6399 0.5395 0.2550
O7? O 0.6279(14) -0.139(4) 0.1667(17)
C35? C 0.786(2) -0.137(6) 0.176(3)
H41? H 0.7861 -0.2488 0.1763
H42? H 0.8172 -0.0996 0.2159
H43? H 0.8152 -0.1004 0.1411
loop_
_geom_bond_atom_site_label_1
_geom_bond_atom_site_label_2
_geom_bond_site_symmetry_1
_geom_bond_site_symmetry_2
N1 C13 1_555 1_555
O1 C31 1_555 1_555
O2 C27 1_555 1_555
C1 H1 1_555 1_555
H2 C1 1_555 1_555
H3 C1 1_555 1_555
O3 C18 1_555 1_555
C2 H4 1_555 1_555
H5 C2 1_555 1_555
H6 C2 1_555 1_555
O4 C9 1_555 1_555
O5 H7 1_555 1_555
C3 C4 1_555 1_555
C4 H8 1_555 1_555
C5 C4 1_555 1_555
C6 C5 1_555 1_555
H9 C6 1_555 1_555
C7 H10 1_555 1_555
H11 C7 1_555 1_555
H12 C7 1_555 1_555
C8 H13 1_555 1_555
H14 C8 1_555 1_555
H15 C8 1_555 1_555
C9 O5 1_555 1_555
C10 H16 1_555 1_555
H17 C10 1_555 1_555
H18 C10 1_555 1_555
C11 H19 1_555 1_555
H20 C11 1_555 1_555
H21 C11 1_555 1_555
C12 H22 1_555 1_555
H23 C12 1_555 1_555
H24 C12 1_555 1_555
C13 C18 1_555 1_555
C14 H25 1_555 1_555
C15 H26 1_555 1_555
H27 C15 1_555 1_555
H28 C15 1_555 1_555
C16 N1 1_555 1_555
C17 H29 1_555 1_555
H30 C17 1_555 1_555
H31 C17 1_555 1_555
C18 C2 1_555 1_555
C19 C20 1_555 1_555
C20 H32 1_555 1_555
C21 C11 1_555 1_555
C22 H33 1_555 1_555
H34 C22 1_555 1_555
H35 C22 1_555 1_555
C23 C3 1_555 1_555
C24 C9 1_555 1_555
C25 C13 1_555 1_555
H36 C25 1_555 1_555
C26 C17 1_555 1_555
C27 C1 1_555 1_555
C28 C5 1_555 1_555
C29 C6 1_555 1_555
C30 C19 1_555 1_555
H37 C30 1_555 1_555
C31 C3 1_555 1_555
C32 O1 1_555 1_555
C33 C26 1_555 1_555
C7 C28 1_555 1_555
C8 C28 1_555 1_555
C10 C28 1_555 1_555
C12 C21 1_555 1_555
C14 C16 1_555 1_555
C14 C23 1_555 1_555
C15 C21 1_555 1_555
C16 C27 1_555 1_555
C19 C21 1_555 1_555
C20 C24 1_555 1_555
C22 C26 1_555 1_555
C23 C25 1_555 1_555
C24 C32 1_555 1_555
C26 C29 1_555 1_555
C29 C31 1_555 1_555
C30 C33 1_555 1_555
C32 C33 1_555 1_555

#END
