
#######################################################################
#
#                 Cambridge Crystallographic Data Centre
#                                CCDC 
#
#######################################################################
#
# If this CIF has been generated from an entry in the Cambridge 
# Structural Database, then it will include bibliographic, chemical, 
# crystal, experimental, refinement or atomic coordinate data resulting 
# from the CCDC's data processing and validation procedures.
#
#######################################################################

data_CACFAO
_chemical_formula_moiety         'C24 H18 N10 O1'
_chemical_name_systematic        
3,6-Di-2-pyridyl-4-(((2-pyridyl)carbonyldiazenyl)(2-pyridyl)methyl)-1H-1,2,4,5-tetrazine
_symmetry_cell_setting           triclinic
_symmetry_space_group_name_H-M   'P -1'
_symmetry_Int_Tables_number      2
_space_group_name_Hall           '-P 1'
loop_
_symmetry_equiv_pos_site_id
_symmetry_equiv_pos_as_xyz
1 x,y,z
2 -x,-y,-z
_cell_length_a                   7.949(5)
_cell_length_b                   11.540(7)
_cell_length_c                   12.118(7)
_cell_angle_alpha                83.200(11)
_cell_angle_beta                 85.971(12)
_cell_angle_gamma                77.557(11)
_cell_volume                     1076.71
_exptl_crystal_colour            orange
_exptl_crystal_description       prism
_cell_formula_units_Z            2
_exptl_crystal_recrystallization_method 'diethyl ether/acetonitrile'
loop_
_atom_site_label
_atom_site_type_symbol
_atom_site_fract_x
_atom_site_fract_y
_atom_site_fract_z
O1 O 0.2283(3) 0.8551(2) 0.36396(17)
N1 N 0.5403(4) 0.8270(3) 0.5674(2)
N2 N 0.7841(4) 0.5854(2) 0.0521(2)
N3 N 1.2522(4) 0.5890(3) 0.4852(2)
N4 N 0.7594(4) 0.9077(3) 0.0661(2)
N5 N 0.8204(4) 0.6993(2) 0.2322(2)
N6 N 0.8597(4) 0.6899(3) 0.3460(2)
N7 N 1.1443(4) 0.6330(3) 0.2762(2)
H1 H 1.2536(18) 0.629(3) 0.294(2)
N8 N 1.1060(4) 0.7091(3) 0.1759(2)
N9 N 0.5108(4) 0.7225(2) 0.2625(2)
N10 N 0.5166(4) 0.7678(3) 0.3631(2)
H2 H 0.614(2) 0.766(3) 0.397(2)
C1 C 1.3134(5) 0.5693(3) 0.5886(3)
H3 H 1.4303 0.5374 0.5964
C2 C 1.2123(6) 0.5938(3) 0.6822(3)
H4 H 1.2602 0.5812 0.7516
C3 C 1.0394(6) 0.6372(4) 0.6723(3)
H5 H 0.9676 0.6513 0.7354
C4 C 0.9712(5) 0.6603(3) 0.5676(3)
H6 H 0.8545 0.6916 0.5583
C5 C 1.0853(5) 0.6344(3) 0.4777(3)
C6 C 1.0189(5) 0.6554(3) 0.3626(3)
C7 C 0.9463(5) 0.7364(3) 0.1557(3)
C8 C 0.8946(5) 0.8195(3) 0.0548(3)
C9 C 0.9952(5) 0.8068(4) -0.0425(3)
H7 H 1.0897 0.7437 -0.0470
C10 C 0.9519(6) 0.8903(5) -0.1333(3)
H8 H 1.0149 0.8829 -0.2006
C11 C 0.8170(7) 0.9826(4) -0.1228(3)
H9 H 0.7885 1.0421 -0.1812
C12 C 0.7232(6) 0.9860(4) -0.0234(4)
H10 H 0.6270 1.0477 -0.0181
C13 C 0.7754(5) 0.5528(3) -0.0498(3)
H11 H 0.8716 0.5026 -0.0789
C14 C 0.6339(5) 0.5887(3) -0.1136(3)
H12 H 0.6360 0.5657 -0.1848
C15 C 0.4882(5) 0.6599(3) -0.0696(3)
H13 H 0.3894 0.6851 -0.1101
C16 C 0.4923(4) 0.6928(3) 0.0358(3)
H14 H 0.3953 0.7394 0.0680
C17 C 0.6416(5) 0.6559(3) 0.0926(3)
C18 C 0.6535(5) 0.6968(3) 0.2050(3)
C19 C 0.3687(5) 0.8305(3) 0.4076(3)
C20 C 0.3867(5) 0.8703(3) 0.5199(3)
C21 C 0.2542(5) 0.9475(3) 0.5661(3)
H15 H 0.1510 0.9749 0.5305
C22 C 0.2774(6) 0.9844(4) 0.6680(3)
H16 H 0.1898 1.0375 0.7019
C23 C 0.4312(7) 0.9414(4) 0.7178(3)
H17 H 0.4482 0.9638 0.7867
C24 C 0.5592(6) 0.8655(4) 0.6656(3)
H18 H 0.6641 0.8391 0.6993
loop_
_geom_bond_atom_site_label_1
_geom_bond_atom_site_label_2
_geom_bond_site_symmetry_1
_geom_bond_site_symmetry_2
O1 C19 1_555 1_555
N1 C20 1_555 1_555
N2 C13 1_555 1_555
N3 C1 1_555 1_555
N4 C8 1_555 1_555
N5 N6 1_555 1_555
N6 C6 1_555 1_555
N7 H1 1_555 1_555
N8 N7 1_555 1_555
N9 N10 1_555 1_555
N10 H2 1_555 1_555
C1 H3 1_555 1_555
C2 C1 1_555 1_555
H4 C2 1_555 1_555
C3 C2 1_555 1_555
H5 C3 1_555 1_555
C4 C3 1_555 1_555
H6 C4 1_555 1_555
C5 N3 1_555 1_555
C6 N7 1_555 1_555
C7 N5 1_555 1_555
C8 C7 1_555 1_555
C9 C8 1_555 1_555
H7 C9 1_555 1_555
C10 C9 1_555 1_555
H8 C10 1_555 1_555
C11 C10 1_555 1_555
H9 C11 1_555 1_555
C12 N4 1_555 1_555
H10 C12 1_555 1_555
C13 H11 1_555 1_555
C14 C13 1_555 1_555
H12 C14 1_555 1_555
C15 C14 1_555 1_555
H13 C15 1_555 1_555
C16 C15 1_555 1_555
H14 C16 1_555 1_555
C17 N2 1_555 1_555
C18 N5 1_555 1_555
C19 N10 1_555 1_555
C20 C19 1_555 1_555
C21 C20 1_555 1_555
H15 C21 1_555 1_555
C22 C21 1_555 1_555
H16 C22 1_555 1_555
C23 C22 1_555 1_555
H17 C23 1_555 1_555
C24 N1 1_555 1_555
H18 C24 1_555 1_555
N8 C7 1_555 1_555
N9 C18 1_555 1_555
C4 C5 1_555 1_555
C5 C6 1_555 1_555
C11 C12 1_555 1_555
C16 C17 1_555 1_555
C17 C18 1_555 1_555
C23 C24 1_555 1_555

#END
