
#######################################################################
#
#                 Cambridge Crystallographic Data Centre
#                                CCDC 
#
#######################################################################
#
# If this CIF has been generated from an entry in the Cambridge 
# Structural Database, then it will include bibliographic, chemical, 
# crystal, experimental, refinement or atomic coordinate data resulting 
# from the CCDC's data processing and validation procedures.
#
#######################################################################

data_CACGEU
_chemical_formula_moiety         'C14 H11 N5,2(H2 O1)'
_chemical_name_systematic        
'1-(1H-Benzimidazol-1-ylmethyl)-1H-benzotriazole dihydrate'
_symmetry_cell_setting           monoclinic
_symmetry_space_group_name_H-M   'P 21/n'
_symmetry_Int_Tables_number      14
_space_group_name_Hall           '-P 2yn'
loop_
_symmetry_equiv_pos_site_id
_symmetry_equiv_pos_as_xyz
1 x,y,z
2 1/2-x,1/2+y,1/2-z
3 -x,-y,-z
4 1/2+x,1/2-y,1/2+z
_cell_length_a                   12.437
_cell_length_b                   7.146
_cell_length_c                   15.922
_cell_angle_alpha                90
_cell_angle_beta                 97.03
_cell_angle_gamma                90
_cell_volume                     1404.43
_exptl_crystal_colour            brown
_exptl_crystal_description       block
_cell_formula_units_Z            4
_exptl_crystal_recrystallization_method ethanol/water
loop_
_atom_site_label
_atom_site_type_symbol
_atom_site_fract_x
_atom_site_fract_y
_atom_site_fract_z
O1 O 0.64651(11) -0.1998(2) 0.23105(9)
H1 H 0.6525(17) -0.3090(18) 0.2516(13)
H2 H 0.5931(16) -0.199(4) 0.1937(13)
N1 N 0.59899(11) 0.2187(2) 0.44680(9)
C1 C 0.90307(12) -0.2423(2) 0.45565(9)
N2 N 0.66264(9) -0.0626(2) 0.48980(7)
C2 C 0.64437(11) 0.0330(2) 0.56235(9)
N3 N 0.97117(12) -0.2753(2) 0.59189(8)
C3 C 1.09843(14) -0.2556(3) 0.48049(13)
C4 C 0.70648(14) -0.2478(3) 0.48533(12)
C5 C 0.99883(13) -0.2569(2) 0.51095(10)
C6 C 0.90341(14) -0.2238(3) 0.36840(10)
N4 N 0.86654(13) -0.2740(2) 0.58866(8)
C7 C 0.60466(12) 0.2067(3) 0.53487(10)
C8 C 0.63340(13) 0.0566(3) 0.42394(11)
C9 C 1.09945(15) -0.2397(3) 0.39527(14)
C10 C 0.65872(14) -0.0187(3) 0.64722(10)
C11 C 0.59265(16) 0.2878(3) 0.67785(14)
C12 C 0.57778(14) 0.3383(3) 0.59398(13)
C13 C 1.00202(15) -0.2238(3) 0.34034(13)
C14 C 0.63235(15) 0.1131(3) 0.70387(13)
N5 N 0.82330(10) -0.25418(19) 0.50677(8)
H3 H 0.6772(12) -0.327(2) 0.5248(10)
H4 H 0.6422(12) 0.014(2) 0.3684(11)
H5 H 1.1671(15) -0.240(2) 0.3702(10)
H6 H 0.6860(12) -0.141(3) 0.6650(10)
H7 H 0.8330(14) -0.215(2) 0.3308(10)
H8 H 0.6903(13) -0.301(2) 0.4287(11)
H9 H 0.5738(14) 0.372(3) 0.7205(11)
H10 H 0.5495(13) 0.458(3) 0.5738(10)
H11 H 1.0084(14) -0.207(2) 0.2830(12)
H12 H 1.1627(16) -0.265(3) 0.5164(12)
H13 H 0.6413(14) 0.084(3) 0.7635(12)
O2 O 0.67793(12) -0.52683(19) 0.32589(8)
H14 H 0.7318(11) -0.585(3) 0.3107(11)
H15 H 0.6479(17) -0.591(3) 0.3606(12)
loop_
_geom_bond_atom_site_label_1
_geom_bond_atom_site_label_2
_geom_bond_site_symmetry_1
_geom_bond_site_symmetry_2
O1 H1 1_555 1_555
H2 O1 1_555 1_555
N1 C7 1_555 1_555
C1 C5 1_555 1_555
N2 C2 1_555 1_555
C2 C7 1_555 1_555
N3 C5 1_555 1_555
C3 C5 1_555 1_555
C4 N2 1_555 1_555
C6 C1 1_555 1_555
N4 N3 1_555 1_555
C7 C12 1_555 1_555
C8 N1 1_555 1_555
C9 C3 1_555 1_555
C10 C2 1_555 1_555
C11 C12 1_555 1_555
C12 H10 1_555 1_555
C13 C6 1_555 1_555
C14 C10 1_555 1_555
N5 C1 1_555 1_555
H3 C4 1_555 1_555
H4 C8 1_555 1_555
H5 C9 1_555 1_555
H6 C10 1_555 1_555
H7 C6 1_555 1_555
H8 C4 1_555 1_555
H9 C11 1_555 1_555
H11 C13 1_555 1_555
H12 C3 1_555 1_555
H13 C14 1_555 1_555
O2 H14 1_555 1_555
H15 O2 1_555 1_555
N2 C8 1_555 1_555
C4 N5 1_555 1_555
N4 N5 1_555 1_555
C9 C13 1_555 1_555
C11 C14 1_555 1_555

#END
