
#######################################################################
#
#                 Cambridge Crystallographic Data Centre
#                                CCDC 
#
#######################################################################
#
# If this CIF has been generated from an entry in the Cambridge 
# Structural Database, then it will include bibliographic, chemical, 
# crystal, experimental, refinement or atomic coordinate data resulting 
# from the CCDC's data processing and validation procedures.
#
#######################################################################

data_CACNEB
_chemical_formula_moiety         'C20 H23 Cl1 N2 O4'
_chemical_name_systematic        
'Methyl 3-(4-(4-chlorophenyl)-7,7-dimethyl-2,5-dioxo-1,4,5,6,7,8-hexahydroquinazolin-3(2H)-yl)propanoate'
_symmetry_cell_setting           monoclinic
_symmetry_space_group_name_H-M   'P 21/c'
_symmetry_Int_Tables_number      14
_space_group_name_Hall           '-P 2ybc'
loop_
_symmetry_equiv_pos_site_id
_symmetry_equiv_pos_as_xyz
1 x,y,z
2 -x,1/2+y,1/2-z
3 -x,-y,-z
4 x,1/2-y,1/2+z
_cell_length_a                   14.42(2)
_cell_length_b                   9.916(16)
_cell_length_c                   14.43(2)
_cell_angle_alpha                90
_cell_angle_beta                 103.23(2)
_cell_angle_gamma                90
_cell_volume                     2008.56
_exptl_crystal_colour            colorless
_exptl_crystal_description       block
_cell_formula_units_Z            4
loop_
_atom_site_label
_atom_site_type_symbol
_atom_site_fract_x
_atom_site_fract_y
_atom_site_fract_z
C1 C 0.7829(2) 0.6144(3) 0.1694(2)
H1 H 0.8474 0.5770 0.1810
C2 C 0.7311(2) 0.5436(3) 0.2346(2)
C3 C 0.7816(2) 0.5219(3) 0.3328(2)
C4 C 0.7311(2) 0.4450(4) 0.3969(2)
H2 H 0.7530 0.4787 0.4613
H3 H 0.7496 0.3510 0.3970
C5 C 0.6220(2) 0.4528(4) 0.3700(2)
C6 C 0.5875(2) 0.4219(3) 0.2638(2)
H4 H 0.5939 0.3259 0.2539
H5 H 0.5205 0.4447 0.2438
C7 C 0.6417(2) 0.4977(3) 0.2031(2)
C8 C 0.6422(2) 0.5513(3) 0.0389(3)
C9 C 0.7857(2) 0.6255(3) -0.0050(2)
H6 H 0.8409 0.6790 0.0243
H7 H 0.7442 0.6814 -0.0520
C10 C 0.8178(2) 0.5055(4) -0.0545(2)
H8 H 0.7630 0.4490 -0.0799
H9 H 0.8421 0.5378 -0.1078
C11 C 0.8924(2) 0.4219(4) 0.0077(3)
C12 C 0.9707(3) 0.2081(4) 0.0186(3)
H10 H 1.0322 0.2492 0.0253
H11 H 0.9681 0.1264 -0.0176
H12 H 0.9603 0.1878 0.0804
C13 C 0.7918(2) 0.7671(3) 0.1844(2)
C14 C 0.8787(2) 0.8317(3) 0.1968(2)
H13 H 0.9336 0.7806 0.2013
C15 C 0.8858(3) 0.9721(4) 0.2028(3)
H14 H 0.9448 1.0141 0.2109
C16 C 0.8046(3) 1.0474(3) 0.1967(2)
C17 C 0.7179(3) 0.9860(4) 0.1880(3)
H15 H 0.6636 1.0375 0.1860
C18 C 0.7116(2) 0.8451(3) 0.1821(2)
H16 H 0.6529 0.8034 0.1765
C19 C 0.5897(3) 0.5961(4) 0.3905(3)
H17 H 0.6141 0.6603 0.3524
H18 H 0.6134 0.6169 0.4567
H19 H 0.5214 0.6002 0.3753
C20 C 0.5809(3) 0.3489(4) 0.4282(3)
H20 H 0.5126 0.3548 0.4124
H21 H 0.6043 0.3667 0.4948
H22 H 0.5999 0.2600 0.4138
Cl1 Cl 0.81166(10) 1.22227(10) 0.20243(9)
N1 N 0.5958(2) 0.5128(3) 0.1084(2)
N2 N 0.73502(17) 0.5862(2) 0.06822(17)
O1 O 0.86353(16) 0.5616(3) 0.36204(16)
O2 O 0.59976(15) 0.5497(2) -0.04624(16)
O3 O 0.94323(16) 0.4571(3) 0.08233(18)
O4 O 0.89782(17) 0.2999(3) -0.03021(18)
H23 H 0.532(2) 0.492(3) 0.090(2)
loop_
_geom_bond_atom_site_label_1
_geom_bond_atom_site_label_2
_geom_bond_site_symmetry_1
_geom_bond_site_symmetry_2
C1 H1 1_555 1_555
C2 C1 1_555 1_555
C3 C2 1_555 1_555
C4 C3 1_555 1_555
H2 C4 1_555 1_555
H3 C4 1_555 1_555
C5 C4 1_555 1_555
C6 C5 1_555 1_555
H4 C6 1_555 1_555
H5 C6 1_555 1_555
C7 C2 1_555 1_555
C8 N1 1_555 1_555
C9 H6 1_555 1_555
H7 C9 1_555 1_555
C10 C9 1_555 1_555
H8 C10 1_555 1_555
H9 C10 1_555 1_555
C11 C10 1_555 1_555
C12 H10 1_555 1_555
H11 C12 1_555 1_555
H12 C12 1_555 1_555
C13 C1 1_555 1_555
C14 C13 1_555 1_555
H13 C14 1_555 1_555
C15 C14 1_555 1_555
H14 C15 1_555 1_555
C16 C15 1_555 1_555
C17 C16 1_555 1_555
H15 C17 1_555 1_555
C18 C13 1_555 1_555
H16 C18 1_555 1_555
C19 C5 1_555 1_555
H17 C19 1_555 1_555
H18 C19 1_555 1_555
H19 C19 1_555 1_555
C20 C5 1_555 1_555
H20 C20 1_555 1_555
H21 C20 1_555 1_555
H22 C20 1_555 1_555
Cl1 C16 1_555 1_555
N1 C7 1_555 1_555
N2 C1 1_555 1_555
O1 C3 1_555 1_555
O2 C8 1_555 1_555
O3 C11 1_555 1_555
O4 C11 1_555 1_555
H23 N1 1_555 1_555
C6 C7 1_555 1_555
C8 N2 1_555 1_555
C9 N2 1_555 1_555
C12 O4 1_555 1_555
C17 C18 1_555 1_555

#END
