
#######################################################################
#
#                 Cambridge Crystallographic Data Centre
#                                CCDC 
#
#######################################################################
#
# If this CIF has been generated from an entry in the Cambridge 
# Structural Database, then it will include bibliographic, chemical, 
# crystal, experimental, refinement or atomic coordinate data resulting 
# from the CCDC's data processing and validation procedures.
#
#######################################################################

data_CADZAL
_chemical_formula_moiety         'C25 H15 Br1 O2 S1'
_chemical_name_systematic        
"2-bromospiro[fluorene-9,9'-thioxanthene] 10',10'-dioxide"
_symmetry_cell_setting           monoclinic
_symmetry_space_group_name_H-M   'P 21/n'
_symmetry_Int_Tables_number      14
_space_group_name_Hall           '-P 2yn'
loop_
_symmetry_equiv_pos_site_id
_symmetry_equiv_pos_as_xyz
1 x,y,z
2 1/2-x,1/2+y,1/2-z
3 -x,-y,-z
4 1/2+x,1/2-y,1/2+z
_cell_length_a                   10.4293(9)
_cell_length_b                   14.7994(14)
_cell_length_c                   12.7721(11)
_cell_angle_alpha                90
_cell_angle_beta                 91.843(2)
_cell_angle_gamma                90
_cell_volume                     1970.32
_exptl_crystal_colour            colorless
_exptl_crystal_description       plate
_cell_formula_units_Z            4
_chemical_properties_physical    Heat-sensitive
_exptl_crystal_recrystallization_method chloroform/methanol
_exptl_crystal_preparation       Luminescent
loop_
_atom_site_label
_atom_site_type_symbol
_atom_site_fract_x
_atom_site_fract_y
_atom_site_fract_z
Br1 Br 0.64170(3) 0.10589(2) 0.10336(2)
S1 S 0.53725(6) -0.22432(5) 0.35885(5)
O1 O 0.63927(18) -0.16414(17) 0.33114(18)
O2 O 0.5725(2) -0.30276(16) 0.41944(18)
C1 C 0.4554(2) -0.25833(17) 0.24391(19)
C2 C 0.3471(2) -0.21308(16) 0.20529(18)
C3 C 0.2945(2) -0.24387(18) 0.1100(2)
H1 H 0.222(3) -0.214(2) 0.079(3)
C4 C 0.3479(3) -0.3139(2) 0.0560(2)
H2 H 0.308(3) -0.332(2) -0.009(3)
C5 C 0.4562(3) -0.3576(2) 0.0961(3)
H3 H 0.492(4) -0.406(2) 0.054(3)
C6 C 0.5098(3) -0.3303(2) 0.1908(2)
H4 H 0.582(3) -0.361(2) 0.220(3)
C7 C 0.4242(2) -0.16082(19) 0.42498(19)
C8 C 0.3240(2) -0.11685(17) 0.37176(19)
C9 C 0.2523(3) -0.0566(2) 0.4306(2)
H5 H 0.179(4) -0.025(3) 0.395(3)
C10 C 0.2783(3) -0.0430(3) 0.5359(3)
H6 H 0.233(4) -0.004(3) 0.573(3)
C11 C 0.3746(4) -0.0905(3) 0.5870(3)
H7 H 0.393(4) -0.081(3) 0.659(3)
C12 C 0.4495(3) -0.1491(3) 0.5318(2)
H8 H 0.518(3) -0.184(2) 0.568(3)
C13 C 0.2909(2) -0.12879(16) 0.25544(18)
C14 C 0.3339(2) -0.04518(16) 0.19425(18)
C15 C 0.4576(2) -0.01532(17) 0.1807(2)
H9 H 0.533(3) -0.0456(19) 0.212(2)
C16 C 0.4731(3) 0.06166(18) 0.1205(2)
C17 C 0.3700(3) 0.10726(19) 0.0740(2)
H10 H 0.390(3) 0.161(2) 0.032(3)
C18 C 0.2465(3) 0.07672(19) 0.0884(2)
H11 H 0.175(3) 0.106(2) 0.056(3)
C19 C 0.2280(2) -0.00035(17) 0.14884(19)
C20 C 0.1114(2) -0.04918(18) 0.1751(2)
C21 C -0.0171(3) -0.0321(2) 0.1497(2)
H12 H -0.039(3) 0.018(2) 0.111(3)
C22 C -0.0740(3) -0.1653(2) 0.2458(3)
H13 H -0.141(4) -0.204(3) 0.271(3)
C23 C -0.1086(3) -0.0908(2) 0.1862(3)
H14 H -0.197(4) -0.078(3) 0.166(3)
C24 C 0.0540(3) -0.1826(2) 0.2712(2)
H15 H 0.081(3) -0.234(2) 0.307(2)
C25 C 0.1454(2) -0.12425(18) 0.23583(19)
loop_
_geom_bond_atom_site_label_1
_geom_bond_atom_site_label_2
_geom_bond_site_symmetry_1
_geom_bond_site_symmetry_2
Br1 C16 1_555 1_555
S1 O1 1_555 1_555
O2 S1 1_555 1_555
C1 S1 1_555 1_555
C2 C1 1_555 1_555
C3 C2 1_555 1_555
H1 C3 1_555 1_555
C4 C3 1_555 1_555
H2 C4 1_555 1_555
C5 C4 1_555 1_555
H3 C5 1_555 1_555
C6 C1 1_555 1_555
H4 C6 1_555 1_555
C7 S1 1_555 1_555
C8 C7 1_555 1_555
C9 C8 1_555 1_555
H5 C9 1_555 1_555
C10 C9 1_555 1_555
H6 C10 1_555 1_555
C11 C10 1_555 1_555
H7 C11 1_555 1_555
C12 C7 1_555 1_555
H8 C12 1_555 1_555
C13 C2 1_555 1_555
C14 C13 1_555 1_555
C15 C14 1_555 1_555
H9 C15 1_555 1_555
C16 C15 1_555 1_555
C17 C16 1_555 1_555
H10 C17 1_555 1_555
C18 C17 1_555 1_555
H11 C18 1_555 1_555
C19 C14 1_555 1_555
C20 C19 1_555 1_555
C21 C20 1_555 1_555
H12 C21 1_555 1_555
C22 H13 1_555 1_555
C23 C21 1_555 1_555
H14 C23 1_555 1_555
C24 C22 1_555 1_555
H15 C24 1_555 1_555
C25 C13 1_555 1_555
C5 C6 1_555 1_555
C8 C13 1_555 1_555
C11 C12 1_555 1_555
C18 C19 1_555 1_555
C20 C25 1_555 1_555
C22 C23 1_555 1_555
C24 C25 1_555 1_555

#END
