
#######################################################################
#
#                 Cambridge Crystallographic Data Centre
#                                CCDC 
#
#######################################################################
#
# If this CIF has been generated from an entry in the Cambridge 
# Structural Database, then it will include bibliographic, chemical, 
# crystal, experimental, refinement or atomic coordinate data resulting 
# from the CCDC's data processing and validation procedures.
#
#######################################################################

data_CAFSIN
_chemical_formula_moiety         'C26 H37 N3'
_chemical_name_systematic        
2,6-Diisopropyl-N-(2-(((2-(piperidin-1-yl)ethyl)imino)methyl)phenyl)aniline
_symmetry_cell_setting           triclinic
_symmetry_space_group_name_H-M   'P -1'
_symmetry_Int_Tables_number      2
_space_group_name_Hall           '-P 1'
loop_
_symmetry_equiv_pos_site_id
_symmetry_equiv_pos_as_xyz
1 x,y,z
2 -x,-y,-z
_cell_length_a                   8.7005(4)
_cell_length_b                   10.7112(5)
_cell_length_c                   13.4751(6)
_cell_angle_alpha                82.948(3)
_cell_angle_beta                 74.033(3)
_cell_angle_gamma                88.985(3)
_cell_volume                     1198.03
_exptl_crystal_colour            yellow
_exptl_crystal_description       block
_cell_formula_units_Z            2
loop_
_atom_site_label
_atom_site_type_symbol
_atom_site_fract_x
_atom_site_fract_y
_atom_site_fract_z
N1 N 0.4303(2) 0.39441(17) 0.23716(14)
H1 H 0.4614 0.3587 0.1814
N2 N 0.3550(3) 0.3526(2) 0.06124(16)
N3 N 0.2494(4) 0.0912(2) -0.0675(2)
C1 C 0.3515(2) 0.50619(19) 0.23125(17)
C2 C 0.2921(3) 0.5427(2) 0.14451(18)
C3 C 0.2188(3) 0.6595(2) 0.1382(2)
H2 H 0.1800 0.6846 0.0812
C4 C 0.2024(3) 0.7383(2) 0.2132(2)
H3 H 0.1549 0.8162 0.2065
C5 C 0.2571(3) 0.7003(2) 0.2985(2)
H4 H 0.2447 0.7525 0.3503
C6 C 0.3297(3) 0.5865(2) 0.30801(19)
H5 H 0.3651 0.5623 0.3666
C7 C 0.4645(3) 0.33296(19) 0.32830(17)
C8 C 0.6003(3) 0.3685(2) 0.35614(17)
C9 C 0.6320(3) 0.3012(2) 0.44231(19)
H6 H 0.7194 0.3246 0.4634
C10 C 0.5373(3) 0.2000(2) 0.4978(2)
H7 H 0.5637 0.1539 0.5538
C11 C 0.4049(3) 0.1679(2) 0.4704(2)
H8 H 0.3411 0.1002 0.5089
C12 C 0.3631(3) 0.2336(2) 0.38665(18)
C13 C 0.7119(3) 0.4737(2) 0.2926(2)
H9 H 0.6504 0.5292 0.2550
C14 C 0.8480(4) 0.4224(3) 0.2119(3)
H10 H 0.8052 0.3724 0.1710
H11 H 0.9144 0.3712 0.2463
H12 H 0.9105 0.4910 0.1675
C15 C 0.7767(4) 0.5538(3) 0.3593(3)
H13 H 0.6890 0.5861 0.4094
H14 H 0.8398 0.6226 0.3155
H15 H 0.8418 0.5029 0.3949
C16 C 0.2114(3) 0.1991(3) 0.3615(2)
H16 H 0.2023 0.2578 0.3016
C17 C 0.0689(4) 0.2154(5) 0.4489(4)
H17 H 0.0677 0.2999 0.4658
H18 H 0.0726 0.1574 0.5084
H19 H -0.0261 0.1993 0.4290
C18 C 0.2163(4) 0.0673(4) 0.3303(4)
H20 H 0.3067 0.0608 0.2714
H21 H 0.1199 0.0504 0.3125
H22 H 0.2255 0.0072 0.3874
C19 C 0.2996(3) 0.4631(3) 0.06320(19)
H23 H 0.2604 0.4960 0.0080
C20 C 0.3520(4) 0.2842(3) -0.0258(2)
H24 H 0.3164 0.3396 -0.0773
H25 H 0.4591 0.2573 -0.0583
C21 C 0.2448(5) 0.1744(3) 0.0098(2)
H26 H 0.2716 0.1267 0.0686
H27 H 0.1362 0.2034 0.0342
C22 C 0.3133(8) -0.0179(4) -0.0621(4)
H28 H 0.2682 -0.0584 0.0083
H29 H 0.4260 -0.0035 -0.0699
C23 C 0.3042(5) -0.1090(3) -0.1308(3)
H30 H 0.2265 -0.1738 -0.0925
H31 H 0.4072 -0.1489 -0.1511
C24 C 0.2596(7) -0.0581(4) -0.2267(3)
H32 H 0.3560 -0.0528 -0.2843
H33 H 0.1885 -0.1190 -0.2397
C25 C 0.1876(7) 0.0569(4) -0.2287(3)
H34 H 0.0746 0.0416 -0.2191
H35 H 0.2294 0.1009 -0.2982
C26 C 0.2008(4) 0.1431(3) -0.1552(2)
H36 H 0.2762 0.2099 -0.1926
H37 H 0.0976 0.1815 -0.1308
loop_
_geom_bond_atom_site_label_1
_geom_bond_atom_site_label_2
_geom_bond_site_symmetry_1
_geom_bond_site_symmetry_2
N1 H1 1_555 1_555
N2 C19 1_555 1_555
N3 C21 1_555 1_555
C1 N1 1_555 1_555
C2 C1 1_555 1_555
C3 C2 1_555 1_555
H2 C3 1_555 1_555
C4 C3 1_555 1_555
H3 C4 1_555 1_555
C5 C4 1_555 1_555
H4 C5 1_555 1_555
C6 C1 1_555 1_555
H5 C6 1_555 1_555
C7 N1 1_555 1_555
C8 C7 1_555 1_555
C9 C8 1_555 1_555
H6 C9 1_555 1_555
C10 C9 1_555 1_555
H7 C10 1_555 1_555
C11 C10 1_555 1_555
H8 C11 1_555 1_555
C12 C7 1_555 1_555
C13 C8 1_555 1_555
H9 C13 1_555 1_555
C14 C13 1_555 1_555
H10 C14 1_555 1_555
H11 C14 1_555 1_555
H12 C14 1_555 1_555
C15 C13 1_555 1_555
H13 C15 1_555 1_555
H14 C15 1_555 1_555
H15 C15 1_555 1_555
C16 C12 1_555 1_555
H16 C16 1_555 1_555
C17 C16 1_555 1_555
H17 C17 1_555 1_555
H18 C17 1_555 1_555
H19 C17 1_555 1_555
C18 C16 1_555 1_555
H20 C18 1_555 1_555
H21 C18 1_555 1_555
H22 C18 1_555 1_555
C19 C2 1_555 1_555
H23 C19 1_555 1_555
C20 N2 1_555 1_555
H24 C20 1_555 1_555
H25 C20 1_555 1_555
C21 C20 1_555 1_555
H26 C21 1_555 1_555
H27 C21 1_555 1_555
C22 N3 1_555 1_555
H28 C22 1_555 1_555
H29 C22 1_555 1_555
C23 C22 1_555 1_555
H30 C23 1_555 1_555
H31 C23 1_555 1_555
C24 C23 1_555 1_555
H32 C24 1_555 1_555
H33 C24 1_555 1_555
C25 C24 1_555 1_555
H34 C25 1_555 1_555
H35 C25 1_555 1_555
C26 N3 1_555 1_555
H36 C26 1_555 1_555
H37 C26 1_555 1_555
C5 C6 1_555 1_555
C11 C12 1_555 1_555
C25 C26 1_555 1_555

#END
