
#######################################################################
#
#                 Cambridge Crystallographic Data Centre
#                                CCDC 
#
#######################################################################
#
# If this CIF has been generated from an entry in the Cambridge 
# Structural Database, then it will include bibliographic, chemical, 
# crystal, experimental, refinement or atomic coordinate data resulting 
# from the CCDC's data processing and validation procedures.
#
#######################################################################

data_CAGDUL
_chemical_name_common            'Psilotachyin C'
_chemical_formula_moiety         'C15 H20 O4'
_chemical_name_systematic        
6,10a-Dimethyl-3-methylene-decahydrofuro[3',2':6,7]cyclohepta[1,2-b]pyran-2,9-dione
_chemical_properties_biological  'G2/M DNA damage checkpoint inhibitor'
_symmetry_cell_setting           monoclinic
_symmetry_space_group_name_H-M   'P 21/c'
_symmetry_Int_Tables_number      14
_space_group_name_Hall           '-P 2ybc'
loop_
_symmetry_equiv_pos_site_id
_symmetry_equiv_pos_as_xyz
1 x,y,z
2 -x,1/2+y,1/2-z
3 -x,-y,-z
4 x,1/2-y,1/2+z
_cell_length_a                   7.9416(16)
_cell_length_b                   7.0441(14)
_cell_length_c                   23.239(5)
_cell_angle_alpha                90
_cell_angle_beta                 92.42(3)
_cell_angle_gamma                90
_cell_volume                     1298.86
_exptl_crystal_colour            colorless
_exptl_crystal_description       block
_chemical_melting_point          '223-225 deg.C'
_cell_formula_units_Z            4
_exptl_crystal_recrystallization_method 'ethyl acetate'
loop_
_atom_site_label
_atom_site_type_symbol
_atom_site_fract_x
_atom_site_fract_y
_atom_site_fract_z
O1 O 0.6306(3) 0.2241(4) 0.51475(10)
O2 O 0.4758(3) 0.3082(4) 0.43926(9)
O3 O 0.5165(3) 0.4671(4) 0.34116(9)
O4 O 0.6323(3) 0.3977(4) 0.25742(11)
C1 C 0.4898(4) 0.2503(5) 0.49429(13)
C2 C 0.3346(4) 0.2363(5) 0.52872(14)
H1 H 0.3248 0.3532 0.5520
H2 H 0.3476 0.1280 0.5557
C3 C 0.1733(4) 0.2099(5) 0.49221(14)
H3 H 0.0748 0.2306 0.5162
H4 H 0.1677 0.0785 0.4772
C4 C 0.1679(4) 0.3506(5) 0.44196(13)
H5 H 0.1910 0.4778 0.4597
C5 C 0.3169(4) 0.3122(5) 0.40275(13)
C6 C 0.3166(4) 0.1254(5) 0.37044(14)
H6 H 0.4168 0.1181 0.3473
H7 H 0.2151 0.1171 0.3451
H8 H 0.3178 0.0201 0.3980
C7 C 0.3494(4) 0.4849(5) 0.36465(13)
H9 H 0.3488 0.6010 0.3894
C8 C 0.5080(4) 0.4280(5) 0.28355(14)
C9 C 0.3298(4) 0.4376(5) 0.26286(14)
C10 C 0.2786(5) 0.3715(6) 0.21213(15)
H10 H 0.3573 0.3155 0.1875
H11 H 0.1631 0.3798 0.2001
C11 C 0.2324(4) 0.5217(5) 0.31070(13)
H12 H 0.2331 0.6621 0.3044
C12 C 0.0473(4) 0.4638(6) 0.31099(14)
H13 H 0.0387 0.3252 0.3044
H14 H -0.0146 0.5279 0.2786
C13 C -0.0374(4) 0.5125(6) 0.36697(15)
H15 H -0.1597 0.5293 0.3584
H16 H 0.0078 0.6352 0.3815
C14 C -0.0131(4) 0.3635(5) 0.41459(14)
H17 H -0.0832 0.4102 0.4464
C15 C -0.0933(4) 0.1737(6) 0.39648(16)
H18 H -0.2071 0.1960 0.3799
H19 H -0.0995 0.0910 0.4302
H20 H -0.0246 0.1126 0.3677
loop_
_geom_bond_atom_site_label_1
_geom_bond_atom_site_label_2
_geom_bond_site_symmetry_1
_geom_bond_site_symmetry_2
O1 C1 1_555 1_555
O2 C1 1_555 1_555
O3 C7 1_555 1_555
O4 C8 1_555 1_555
C1 C2 1_555 1_555
C2 H1 1_555 1_555
H2 C2 1_555 1_555
C3 C2 1_555 1_555
H3 C3 1_555 1_555
H4 C3 1_555 1_555
C4 C3 1_555 1_555
H5 C4 1_555 1_555
C5 O2 1_555 1_555
C6 C5 1_555 1_555
H6 C6 1_555 1_555
H7 C6 1_555 1_555
H8 C6 1_555 1_555
C7 C5 1_555 1_555
H9 C7 1_555 1_555
C8 O3 1_555 1_555
C9 C8 1_555 1_555
C10 C9 1_555 1_555
H10 C10 1_555 1_555
H11 C10 1_555 1_555
C11 C7 1_555 1_555
H12 C11 1_555 1_555
C12 C11 1_555 1_555
H13 C12 1_555 1_555
H14 C12 1_555 1_555
C13 C12 1_555 1_555
H15 C13 1_555 1_555
H16 C13 1_555 1_555
C14 C4 1_555 1_555
H17 C14 1_555 1_555
C15 C14 1_555 1_555
H18 C15 1_555 1_555
H19 C15 1_555 1_555
H20 C15 1_555 1_555
C4 C5 1_555 1_555
C9 C11 1_555 1_555
C13 C14 1_555 1_555

#END
