
#######################################################################
#
#                 Cambridge Crystallographic Data Centre
#                                CCDC 
#
#######################################################################
#
# If this CIF has been generated from an entry in the Cambridge 
# Structural Database, then it will include bibliographic, chemical, 
# crystal, experimental, refinement or atomic coordinate data resulting 
# from the CCDC's data processing and validation procedures.
#
#######################################################################

data_CAGMII
_chemical_formula_moiety         'C32 H50 O7 Si1,0.42(H2 O1)'
_chemical_name_systematic        
'9-(Benzyloxy)-5-ethyl-4,8,12,14-tetramethyl-4-((triethylsilyl)oxy)-6,15-dioxabicyclo[10.2.1]pentadecane-3,7,11-trione hydrate'
_symmetry_cell_setting           monoclinic
_symmetry_space_group_name_H-M   'P 21'
_symmetry_Int_Tables_number      4
_space_group_name_Hall           'P 2yb'
loop_
_symmetry_equiv_pos_site_id
_symmetry_equiv_pos_as_xyz
1 x,y,z
2 -x,1/2+y,-z
_cell_length_a                   8.6244(6)
_cell_length_b                   16.3829(11)
_cell_length_c                   12.3896(8)
_cell_angle_alpha                90
_cell_angle_beta                 110.075(1)
_cell_angle_gamma                90
_cell_volume                     1644.2
_exptl_crystal_colour            colorless
_exptl_crystal_description       lath
_cell_formula_units_Z            2
loop_
_atom_site_label
_atom_site_type_symbol
_atom_site_fract_x
_atom_site_fract_y
_atom_site_fract_z
Si1 Si 0.53202(6) 0.00001(3) -0.42444(4)
O1 O 0.14378(15) 0.22543(7) -0.37267(10)
O2 O 0.20724(18) 0.34245(8) -0.44433(13)
O3 O 0.18242(15) 0.26220(8) -0.13246(11)
O4 O 0.4111(2) 0.39496(11) 0.04099(13)
O5 O 0.64622(15) 0.26788(8) -0.07869(10)
O6 O 0.55948(17) 0.18743(9) -0.30698(12)
O7 O 0.37053(16) 0.05908(8) -0.43809(11)
C1 C 0.1475(2) 0.30769(10) -0.38305(14)
C2 C 0.0686(2) 0.34935(10) -0.30557(15)
H1 H -0.0389 0.3216 -0.3160
C3 C 0.1781(2) 0.34211(10) -0.17776(15)
H2 H 0.1347 0.3803 -0.1320
C4 C 0.3583(2) 0.36304(10) -0.15615(14)
H3 H 0.4049 0.3244 -0.1984
H4 H 0.3666 0.4189 -0.1843
C5 C 0.4554(3) 0.35787(11) -0.02792(15)
C6 C 0.6115(2) 0.30541(10) 0.01568(14)
C7 C 0.64580(19) 0.17994(10) -0.06904(14)
H5 H 0.7391 0.1574 -0.0905
C8 C 0.4851(2) 0.14276(10) -0.14792(14)
H6 H 0.4825 0.0842 -0.1288
H7 H 0.3914 0.1699 -0.1336
C9 C 0.4626(2) 0.15059(10) -0.27400(14)
C10 C 0.31297(19) 0.10784(10) -0.36519(14)
C11 C 0.21148(19) 0.17625(10) -0.44420(13)
H8 H 0.2868 0.2108 -0.4710
C12 C 0.0326(3) 0.43874(11) -0.34051(17)
H9 H -0.0432 0.4417 -0.4201
H10 H 0.1359 0.4666 -0.3340
H11 H -0.0180 0.4652 -0.2898
C13 C 0.0339(3) 0.23409(17) -0.1175(2)
H12 H -0.0348 0.2038 -0.1866
H13 H -0.0308 0.2809 -0.1053
C14 C 0.0837(2) 0.17916(13) -0.01450(18)
C15 C 0.1625(3) 0.21132(17) 0.0932(2)
H14 H 0.1798 0.2686 0.1009
C16 C 0.2172(3) 0.1632(2) 0.1901(2)
H15 H 0.2739 0.1871 0.2629
C17 C 0.1898(4) 0.0820(2) 0.1811(3)
H16 H 0.2262 0.0493 0.2485
C18 C 0.1106(3) 0.04554(15) 0.0768(3)
H17 H 0.0920 -0.0117 0.0720
C19 C 0.0563(3) 0.09517(16) -0.0247(3)
H18 H 0.0025 0.0712 -0.0978
C20 C 0.7581(3) 0.35931(14) 0.08100(18)
H19 H 0.7807 0.3977 0.0275
H20 H 0.8555 0.3251 0.1166
H21 H 0.7323 0.3898 0.1408
C21 C 0.5856(2) 0.23468(11) 0.08881(14)
H22 H 0.6302 0.2481 0.1717
H23 H 0.4672 0.2206 0.0673
C22 C 0.6826(2) 0.16531(11) 0.05963(14)
H24 H 0.8028 0.1757 0.1006
C23 C 0.6420(3) 0.08057(12) 0.09363(17)
H25 H 0.6964 0.0391 0.0620
H26 H 0.5223 0.0721 0.0631
H27 H 0.6813 0.0761 0.1776
C24 C 0.2101(2) 0.05545(11) -0.31364(15)
H28 H 0.2802 0.0133 -0.2645
H29 H 0.1204 0.0295 -0.3755
H30 H 0.1635 0.0899 -0.2677
C25 C 0.0705(2) 0.14555(11) -0.54789(15)
H31 H -0.0095 0.1159 -0.5210
H32 H 0.1146 0.1064 -0.5909
C26 C -0.0194(3) 0.21407(13) -0.62870(17)
H33 H 0.0598 0.2449 -0.6536
H34 H -0.0712 0.2507 -0.5884
H35 H -0.1045 0.1906 -0.6960
C27 C 0.6488(5) -0.0222(3) -0.2695(2)
H36 H 0.6901 0.0298 -0.2290
H37 H 0.5727 -0.0469 -0.2343
C28 C 0.7963(7) -0.0804(4) -0.2524(6)
H38 H 0.8544 -0.0889 -0.1700
H39 H 0.8721 -0.0564 -0.2870
H40 H 0.7558 -0.1329 -0.2892
C29 C 0.4503(7) -0.0940(3) -0.5054(5)
H41 H 0.3726 -0.0789 -0.5823
H42 H 0.5428 -0.1244 -0.5166
C30 C 0.3610(6) -0.1507(3) -0.4469(5)
H43 H 0.3196 -0.1988 -0.4952
H44 H 0.2682 -0.1215 -0.4362
H45 H 0.4381 -0.1680 -0.3719
C31 C 0.6796(4) 0.0551(2) -0.4806(3)
H46 H 0.7367 0.0982 -0.4252
H47 H 0.7643 0.0161 -0.4861
C32 C 0.5955(6) 0.0936(3) -0.5974(4)
H48 H 0.6780 0.1215 -0.6222
H49 H 0.5130 0.1331 -0.5923
H50 H 0.5412 0.0511 -0.6532
O8 O 0.7099(5) 0.3673(3) -0.2384(3)
H51 H 0.694(9) 0.336(4) -0.190(4)
H52 H 0.659(9) 0.350(4) -0.305(2)
C33? C 0.6972(6) 0.0002(4) -0.2800(3)
C34? C 0.8277(10) -0.0669(7) -0.2732(9)
C35? C 0.4480(12) -0.1058(4) -0.4630(6)
C36? C 0.3937(9) -0.1481(4) -0.3706(7)
C37? C 0.6070(6) 0.0335(3) -0.5440(4)
C38? C 0.6423(8) 0.1248(4) -0.5420(6)
H53? H 0.7516 0.0543 -0.2653
H54? H 0.6475 -0.0099 -0.2200
H55? H 0.9055 -0.0707 -0.1943
H56? H 0.8879 -0.0527 -0.3249
H57? H 0.7722 -0.1195 -0.2963
H58? H 0.3522 -0.1031 -0.5354
H59? H 0.5336 -0.1398 -0.4777
H60? H 0.3511 -0.2027 -0.3973
H61? H 0.3069 -0.1157 -0.3567
H62? H 0.4884 -0.1527 -0.2992
H63? H 0.7090 0.0031 -0.5376
H64? H 0.5225 0.0193 -0.6188
H65? H 0.6817 0.1385 -0.6051
H66? H 0.7269 0.1393 -0.4686
H67? H 0.5409 0.1553 -0.5510
loop_
_geom_bond_atom_site_label_1
_geom_bond_atom_site_label_2
_geom_bond_site_symmetry_1
_geom_bond_site_symmetry_2
Si1 O7 1_555 1_555
O1 C1 1_555 1_555
O2 C1 1_555 1_555
O3 C3 1_555 1_555
O4 C5 1_555 1_555
O5 C6 1_555 1_555
O6 C9 1_555 1_555
O7 C10 1_555 1_555
C1 C2 1_555 1_555
C2 H1 1_555 1_555
C3 C2 1_555 1_555
H2 C3 1_555 1_555
C4 C3 1_555 1_555
H3 C4 1_555 1_555
H4 C4 1_555 1_555
C5 C4 1_555 1_555
C6 C5 1_555 1_555
C7 O5 1_555 1_555
H5 C7 1_555 1_555
C8 C7 1_555 1_555
H6 C8 1_555 1_555
H7 C8 1_555 1_555
C9 C8 1_555 1_555
C10 C9 1_555 1_555
C11 O1 1_555 1_555
H8 C11 1_555 1_555
C12 C2 1_555 1_555
H9 C12 1_555 1_555
H10 C12 1_555 1_555
H11 C12 1_555 1_555
C13 O3 1_555 1_555
H12 C13 1_555 1_555
H13 C13 1_555 1_555
C14 C13 1_555 1_555
C15 C14 1_555 1_555
H14 C15 1_555 1_555
C16 C15 1_555 1_555
H15 C16 1_555 1_555
C17 C16 1_555 1_555
H16 C17 1_555 1_555
C18 C17 1_555 1_555
H17 C18 1_555 1_555
C19 C14 1_555 1_555
H18 C19 1_555 1_555
C20 C6 1_555 1_555
H19 C20 1_555 1_555
H20 C20 1_555 1_555
H21 C20 1_555 1_555
C21 C6 1_555 1_555
H22 C21 1_555 1_555
H23 C21 1_555 1_555
C22 C7 1_555 1_555
H24 C22 1_555 1_555
C23 C22 1_555 1_555
H25 C23 1_555 1_555
H26 C23 1_555 1_555
H27 C23 1_555 1_555
C24 C10 1_555 1_555
H28 C24 1_555 1_555
H29 C24 1_555 1_555
H30 C24 1_555 1_555
C25 C11 1_555 1_555
H31 C25 1_555 1_555
H32 C25 1_555 1_555
C26 C25 1_555 1_555
H33 C26 1_555 1_555
H34 C26 1_555 1_555
H35 C26 1_555 1_555
C27 Si1 1_555 1_555
H36 C27 1_555 1_555
H37 C27 1_555 1_555
C28 C27 1_555 1_555
H38 C28 1_555 1_555
H39 C28 1_555 1_555
H40 C28 1_555 1_555
C29 Si1 1_555 1_555
H41 C29 1_555 1_555
H42 C29 1_555 1_555
C30 C29 1_555 1_555
H43 C30 1_555 1_555
H44 C30 1_555 1_555
H45 C30 1_555 1_555
C31 Si1 1_555 1_555
H46 C31 1_555 1_555
H47 C31 1_555 1_555
C32 C31 1_555 1_555
H48 C32 1_555 1_555
H49 C32 1_555 1_555
H50 C32 1_555 1_555
O8 H51 1_555 1_555
H52 O8 1_555 1_555
C10 C11 1_555 1_555
C18 C19 1_555 1_555
C21 C22 1_555 1_555

#END
