
#######################################################################
#
#                 Cambridge Crystallographic Data Centre
#                                CCDC 
#
#######################################################################
#
# If this CIF has been generated from an entry in the Cambridge 
# Structural Database, then it will include bibliographic, chemical, 
# crystal, experimental, refinement or atomic coordinate data resulting 
# from the CCDC's data processing and validation procedures.
#
#######################################################################

data_CAGNEG
_chemical_formula_moiety         'C12 H17 N1 O4'
_chemical_name_systematic        
'dimethyl 2,4,6-trimethyl-1,4-dihydropyridine-3,5-dicarboxylate'
_symmetry_cell_setting           triclinic
_symmetry_space_group_name_H-M   'P -1'
_symmetry_Int_Tables_number      2
_space_group_name_Hall           '-P 1'
loop_
_symmetry_equiv_pos_site_id
_symmetry_equiv_pos_as_xyz
1 x,y,z
2 -x,-y,-z
_cell_length_a                   7.462(7)
_cell_length_b                   7.524(7)
_cell_length_c                   11.643(11)
_cell_angle_alpha                98.794(13)
_cell_angle_beta                 90.593(14)
_cell_angle_gamma                103.259(13)
_cell_volume                     628.08
_exptl_crystal_colour            colorless
_exptl_crystal_description       block
_cell_formula_units_Z            2
loop_
_atom_site_label
_atom_site_type_symbol
_atom_site_fract_x
_atom_site_fract_y
_atom_site_fract_z
O1 O 1.0155(4) 0.2977(4) 0.0737(2)
O2 O 0.8004(4) 0.2113(4) -0.0716(2)
O3 O 0.9133(4) 0.6910(5) 0.4186(3)
O4 O 0.6432(4) 0.7586(4) 0.4558(3)
N1 N 0.4122(4) 0.3563(4) 0.1660(3)
H1 H 0.2955 0.3116 0.1544
C1 C 0.5293(5) 0.2987(5) 0.0830(3)
C2 C 0.7109(5) 0.3230(5) 0.1165(3)
C3 C 0.7737(5) 0.3901(5) 0.2431(3)
H2 H 0.9011 0.4632 0.2461
C4 C 0.6548(5) 0.5139(5) 0.3017(3)
C5 C 0.4753(5) 0.4826(5) 0.2665(3)
C6 C 0.4328(5) 0.2163(6) -0.0325(3)
H3 H 0.3063 0.1602 -0.0216
H4 H 0.4917 0.1241 -0.0708
H5 H 0.4384 0.3115 -0.0795
C7 C 0.7696(7) 0.2261(7) 0.3092(4)
H6 H 0.6460 0.1519 0.3065
H7 H 0.8112 0.2725 0.3888
H8 H 0.8492 0.1521 0.2735
C8 C 0.3252(6) 0.5702(7) 0.3197(4)
H9 H 0.3394 0.6912 0.2989
H10 H 0.3345 0.5802 0.4028
H11 H 0.2067 0.4948 0.2909
C9 C 0.8560(5) 0.2791(5) 0.0402(3)
C10 C 0.9397(6) 0.1583(7) -0.1471(4)
H12 H 0.8892 0.1220 -0.2256
H13 H 0.9779 0.0566 -0.1218
H14 H 1.0440 0.2613 -0.1438
C11 C 0.7504(5) 0.6592(6) 0.3960(3)
C12 C 0.7333(7) 0.9021(7) 0.5483(4)
H15 H 0.8190 0.9955 0.5162
H16 H 0.7981 0.8502 0.6012
H17 H 0.6428 0.9563 0.5890
loop_
_geom_bond_atom_site_label_1
_geom_bond_atom_site_label_2
_geom_bond_site_symmetry_1
_geom_bond_site_symmetry_2
O1 C9 1_555 1_555
O2 C9 1_555 1_555
O3 C11 1_555 1_555
O4 C11 1_555 1_555
N1 H1 1_555 1_555
C1 N1 1_555 1_555
C2 C1 1_555 1_555
C3 C2 1_555 1_555
H2 C3 1_555 1_555
C4 C3 1_555 1_555
C5 N1 1_555 1_555
C6 C1 1_555 1_555
H3 C6 1_555 1_555
H4 C6 1_555 1_555
H5 C6 1_555 1_555
C7 C3 1_555 1_555
H6 C7 1_555 1_555
H7 C7 1_555 1_555
H8 C7 1_555 1_555
C8 C5 1_555 1_555
H9 C8 1_555 1_555
H10 C8 1_555 1_555
H11 C8 1_555 1_555
C9 C2 1_555 1_555
C10 O2 1_555 1_555
H12 C10 1_555 1_555
H13 C10 1_555 1_555
H14 C10 1_555 1_555
C11 C4 1_555 1_555
C12 O4 1_555 1_555
H15 C12 1_555 1_555
H16 C12 1_555 1_555
H17 C12 1_555 1_555
C4 C5 1_555 1_555

#END
