
#######################################################################
#
#                 Cambridge Crystallographic Data Centre
#                                CCDC 
#
#######################################################################
#
# If this CIF has been generated from an entry in the Cambridge 
# Structural Database, then it will include bibliographic, chemical, 
# crystal, experimental, refinement or atomic coordinate data resulting 
# from the CCDC's data processing and validation procedures.
#
#######################################################################

data_CAHCAS
_chemical_formula_moiety         'C13 H15 N1 O4'
_chemical_name_systematic        
'(R)-2-(3-methyl-2,3-dihydro-4H-1,4-benzoxazin-4-yl)-2-oxoethyl acetate'
_symmetry_cell_setting           monoclinic
_symmetry_space_group_name_H-M   'P 21/c'
_symmetry_Int_Tables_number      14
_space_group_name_Hall           '-P 2ybc'
loop_
_symmetry_equiv_pos_site_id
_symmetry_equiv_pos_as_xyz
1 x,y,z
2 -x,1/2+y,1/2-z
3 -x,-y,-z
4 x,1/2-y,1/2+z
_cell_length_a                   11.867(2)
_cell_length_b                   8.4087(17)
_cell_length_c                   14.325(6)
_cell_angle_alpha                90
_cell_angle_beta                 117.59(2)
_cell_angle_gamma                90
_cell_volume                     1266.89
_exptl_crystal_colour            colorless
_exptl_crystal_description       block
_cell_formula_units_Z            4
loop_
_atom_site_label
_atom_site_type_symbol
_atom_site_fract_x
_atom_site_fract_y
_atom_site_fract_z
O1 O 0.10784(18) -0.0756(3) -0.62258(15)
O2 O 0.55974(19) -0.1529(3) -0.41300(14)
O3 O 0.66262(17) 0.0696(2) -0.26562(14)
O4 O 0.6392(2) -0.1355(3) -0.17832(15)
N1 N 0.3561(2) -0.0958(3) -0.45129(15)
C1 C 0.2995(3) -0.2283(4) -0.5194(2)
C2 C 0.3583(3) -0.3751(4) -0.5033(2)
H1 H 0.4393 -0.3886 -0.4475
C3 C 0.2986(3) -0.5012(4) -0.5687(2)
H2 H 0.3396 -0.5990 -0.5574
C4 C 0.1784(4) -0.4829(5) -0.6510(2)
H3 H 0.1380 -0.5679 -0.6955
C5 C 0.1187(3) -0.3393(5) -0.6669(2)
H4 H 0.0371 -0.3274 -0.7222
C6 C 0.1776(3) -0.2116(4) -0.6021(2)
C7 C 0.1765(3) 0.0596(4) -0.5662(2)
H5 H 0.1172 0.1419 -0.5700
H6 H 0.2264 0.1006 -0.5987
C8 C 0.2635(3) 0.0215(4) -0.4526(2)
H7 H 0.3095 0.1185 -0.4177
C9 C 0.1949(3) -0.0404(5) -0.3933(2)
H8 H 0.1476 -0.1341 -0.4275
H9 H 0.1377 0.0397 -0.3924
H10 H 0.2558 -0.0658 -0.3223
C10 C 0.4837(3) -0.0699(4) -0.40114(19)
C11 C 0.5281(2) 0.0724(4) -0.3285(2)
H11 H 0.5034 0.1693 -0.3699
H12 H 0.4876 0.0718 -0.2832
C12 C 0.7064(3) -0.0424(4) -0.1910(2)
C13 C 0.8472(3) -0.0324(5) -0.1262(2)
H13 H 0.8675 -0.0019 -0.0556
H14 H 0.8804 0.0453 -0.1561
H15 H 0.8843 -0.1342 -0.1252
loop_
_geom_bond_atom_site_label_1
_geom_bond_atom_site_label_2
_geom_bond_site_symmetry_1
_geom_bond_site_symmetry_2
O1 C6 1_555 1_555
O2 C10 1_555 1_555
O3 C11 1_555 1_555
O4 C12 1_555 1_555
N1 C1 1_555 1_555
C1 C2 1_555 1_555
C2 H1 1_555 1_555
C3 C2 1_555 1_555
H2 C3 1_555 1_555
C4 C3 1_555 1_555
H3 C4 1_555 1_555
C5 C4 1_555 1_555
H4 C5 1_555 1_555
C6 C1 1_555 1_555
C7 O1 1_555 1_555
H5 C7 1_555 1_555
H6 C7 1_555 1_555
C8 N1 1_555 1_555
H7 C8 1_555 1_555
C9 C8 1_555 1_555
H8 C9 1_555 1_555
H9 C9 1_555 1_555
H10 C9 1_555 1_555
C10 N1 1_555 1_555
C11 C10 1_555 1_555
H11 C11 1_555 1_555
H12 C11 1_555 1_555
C12 O3 1_555 1_555
C13 C12 1_555 1_555
H13 C13 1_555 1_555
H14 C13 1_555 1_555
H15 C13 1_555 1_555
C5 C6 1_555 1_555
C7 C8 1_555 1_555

#END
