
#######################################################################
#
#                 Cambridge Crystallographic Data Centre
#                                CCDC 
#
#######################################################################
#
# If this CIF has been generated from an entry in the Cambridge 
# Structural Database, then it will include bibliographic, chemical, 
# crystal, experimental, refinement or atomic coordinate data resulting 
# from the CCDC's data processing and validation procedures.
#
#######################################################################

data_CAHLIJ
_chemical_name_common            4,4'-dicyano-3-methylbiphenyl
_chemical_formula_moiety         'C15 H10 N2'
_chemical_name_systematic        3-methylbiphenyl-4,4'-dicarbonitrile
_symmetry_cell_setting           monoclinic
_symmetry_space_group_name_H-M   'P 21/c'
_symmetry_Int_Tables_number      14
_space_group_name_Hall           '-P 2ybc'
loop_
_symmetry_equiv_pos_site_id
_symmetry_equiv_pos_as_xyz
1 x,y,z
2 -x,1/2+y,1/2-z
3 -x,-y,-z
4 x,1/2-y,1/2+z
_cell_length_a                   11.7450(10)
_cell_length_b                   13.7328(12)
_cell_length_c                   7.4615(6)
_cell_angle_alpha                90
_cell_angle_beta                 106.836(3)
_cell_angle_gamma                90
_cell_volume                     1151.89
_exptl_crystal_colour            colorless
_exptl_crystal_description       needle
_chemical_melting_point          '439 K'
_cell_formula_units_Z            4
loop_
_atom_site_label
_atom_site_type_symbol
_atom_site_fract_x
_atom_site_fract_y
_atom_site_fract_z
N1 N 1.26388(14) 0.94683(12) 0.4036(2)
C1 C 0.83199(13) 0.82418(12) -0.0064(2)
C2 C 0.84728(14) 0.91499(13) 0.0800(2)
H1 H 0.7798 0.9555 0.0667
C3 C 0.95820(14) 0.94814(13) 0.1851(2)
C4 C 1.05655(13) 0.88686(13) 0.2055(2)
C5 C 1.04334(13) 0.79699(13) 0.1214(2)
H2 H 1.1106 0.7560 0.1362
C6 C 0.93237(13) 0.76624(13) 0.0154(2)
H3 H 0.9243 0.7043 -0.0437
C7 C 1.17200(15) 0.91994(13) 0.3151(2)
C8 C 0.9717(3) 1.0378(2) 0.2731(4)
H4 H 0.8943 1.0705 0.2444
H5 H 1.0270 1.0778 0.2285
H6 H 1.0032 1.0286 0.4088
H7 H 0.5592 0.5892 -0.2577
N2 N 0.28852(15) 0.66511(16) -0.5542(2)
C9 C 0.71260(13) 0.78999(13) -0.1203(2)
C10 C 0.62617(14) 0.85568(14) -0.2151(2)
H8 H 0.6428 0.9235 -0.2052
C11 C 0.51601(14) 0.82361(16) -0.3241(2)
H9 H 0.4575 0.8694 -0.3872
C12 C 0.49135(14) 0.72553(16) -0.3408(2)
C13 C 0.57622(15) 0.65771(15) -0.2466(2)
C14 C 0.68542(14) 0.69102(14) -0.1368(2)
H10 H 0.7432 0.6453 -0.0711
C15 C 0.37812(16) 0.69227(17) -0.4587(3)
C16? C 0.5463(3) 0.5664(3) -0.2696(5)
H11? H 0.6125 0.5259 -0.1972
H12? H 0.5278 0.5496 -0.4026
H13? H 0.4763 0.5548 -0.2264
H14? H 0.9673 1.0114 0.2423
loop_
_geom_bond_atom_site_label_1
_geom_bond_atom_site_label_2
_geom_bond_site_symmetry_1
_geom_bond_site_symmetry_2
N1 C7 1_555 1_555
C1 C2 1_555 1_555
C2 H1 1_555 1_555
C3 C2 1_555 1_555
C4 C3 1_555 1_555
C5 C4 1_555 1_555
H2 C5 1_555 1_555
C6 C1 1_555 1_555
H3 C6 1_555 1_555
C7 C4 1_555 1_555
C8 C3 1_555 1_555
H4 C8 1_555 1_555
H5 C8 1_555 1_555
H6 C8 1_555 1_555
H7 C13 1_555 1_555
N2 C15 1_555 1_555
C9 C1 1_555 1_555
C10 C9 1_555 1_555
H8 C10 1_555 1_555
C11 C10 1_555 1_555
H9 C11 1_555 1_555
C12 C11 1_555 1_555
C13 C12 1_555 1_555
C14 C9 1_555 1_555
H10 C14 1_555 1_555
C15 C12 1_555 1_555
C5 C6 1_555 1_555
C13 C14 1_555 1_555

#END
