
#######################################################################
#
#                 Cambridge Crystallographic Data Centre
#                                CCDC 
#
#######################################################################
#
# If this CIF has been generated from an entry in the Cambridge 
# Structural Database, then it will include bibliographic, chemical, 
# crystal, experimental, refinement or atomic coordinate data resulting 
# from the CCDC's data processing and validation procedures.
#
#######################################################################

data_CAHXUG
_chemical_name_common            (+)-(R)-2-Bromoconcentricolide
_chemical_formula_moiety         'C12 H9 Br1 O3'
_chemical_name_systematic        
2-Bromo-6-ethylfuro[2,3-e][2]benzofuran-8(6H)-one
_symmetry_cell_setting           orthorhombic
_symmetry_space_group_name_H-M   'P 21 21 21'
_symmetry_Int_Tables_number      19
_space_group_name_Hall           'P 2ac 2ab'
loop_
_symmetry_equiv_pos_site_id
_symmetry_equiv_pos_as_xyz
1 x,y,z
2 1/2-x,-y,1/2+z
3 1/2+x,1/2-y,-z
4 -x,1/2+y,1/2-z
_cell_length_a                   6.961
_cell_length_b                   8.318
_cell_length_c                   18.806
_cell_angle_alpha                90
_cell_angle_beta                 90
_cell_angle_gamma                90
_cell_volume                     1088.9
_exptl_crystal_colour            colorless
_exptl_crystal_description       prism
_cell_formula_units_Z            4
loop_
_atom_site_label
_atom_site_type_symbol
_atom_site_fract_x
_atom_site_fract_y
_atom_site_fract_z
Br1 Br 1.00371(5) 0.12329(3) 0.261956(11)
O1 O 0.9005(3) -0.3707(2) -0.04997(9)
O2 O 0.9355(3) -0.40219(19) 0.06799(9)
O3 O 0.9621(2) -0.04159(18) 0.13678(8)
C1 C 0.9216(4) -0.3139(3) 0.01716(13)
C2 C 0.9686(4) 0.1130(3) 0.16432(12)
C3 C 0.9497(4) 0.2265(3) 0.11476(14)
C4 C 0.9064(4) 0.1883(3) -0.02310(15)
C5 C 0.8916(4) 0.0720(3) -0.07518(15)
C6 C 0.8800(4) -0.2387(3) -0.10123(14)
C7 C 0.9212(4) -0.1377(3) 0.01400(12)
C8 C 0.9372(4) -0.0197(3) 0.06526(12)
C9 C 0.9286(4) 0.1431(3) 0.04808(13)
C10 C 0.8972(4) -0.0898(3) -0.05610(13)
C11 C 1.0304(4) -0.2548(3) -0.15893(13)
C12 C 1.0103(6) -0.4088(3) -0.20159(14)
H1 H 0.953(4) 0.340(3) 0.1224(15)
H2 H 0.902(4) 0.294(3) -0.0352(14)
H3 H 0.878(3) 0.108(3) -0.1215(15)
H4 H 0.758(4) -0.250(3) -0.1222(13)
H5 H 1.010(5) -0.164(3) -0.1890(15)
H6 H 1.151(4) -0.247(3) -0.1357(14)
H7 H 1.016(5) -0.507(3) -0.1702(14)
H8 H 0.887(5) -0.415(3) -0.2208(19)
H9 H 1.111(5) -0.415(4) -0.2386(18)
loop_
_geom_bond_atom_site_label_1
_geom_bond_atom_site_label_2
_geom_bond_site_symmetry_1
_geom_bond_site_symmetry_2
Br1 C2 1_555 1_555
O1 C1 1_555 1_555
O2 C1 1_555 1_555
O3 C2 1_555 1_555
C1 C7 1_555 1_555
C2 C3 1_555 1_555
C3 C9 1_555 1_555
C4 C5 1_555 1_555
C5 C10 1_555 1_555
C6 O1 1_555 1_555
C7 C8 1_555 1_555
C8 O3 1_555 1_555
C9 C4 1_555 1_555
C10 C6 1_555 1_555
C11 C6 1_555 1_555
C12 C11 1_555 1_555
H1 C3 1_555 1_555
H2 C4 1_555 1_555
H3 C5 1_555 1_555
H4 C6 1_555 1_555
H5 C11 1_555 1_555
H6 C11 1_555 1_555
H7 C12 1_555 1_555
H8 C12 1_555 1_555
H9 C12 1_555 1_555
C7 C10 1_555 1_555
C8 C9 1_555 1_555

#END
