
#######################################################################
#
#                 Cambridge Crystallographic Data Centre
#                                CCDC 
#
#######################################################################
#
# If this CIF has been generated from an entry in the Cambridge 
# Structural Database, then it will include bibliographic, chemical, 
# crystal, experimental, refinement or atomic coordinate data resulting 
# from the CCDC's data processing and validation procedures.
#
#######################################################################

data_CAJCEY
_chemical_formula_moiety         'C21 H14 O2'
_chemical_name_systematic        (R)-dinaphtho[2,1-d:1',2'-f][1,3]dioxepine
_symmetry_cell_setting           monoclinic
_symmetry_space_group_name_H-M   'P 21'
_symmetry_Int_Tables_number      4
_space_group_name_Hall           'P 2yb'
loop_
_symmetry_equiv_pos_site_id
_symmetry_equiv_pos_as_xyz
1 x,y,z
2 -x,1/2+y,-z
_cell_length_a                   9.3121(7)
_cell_length_b                   5.8080(4)
_cell_length_c                   14.0396(10)
_cell_angle_alpha                90
_cell_angle_beta                 96.090(7)
_cell_angle_gamma                90
_cell_volume                     755.042
_exptl_crystal_colour            colorless
_exptl_crystal_description       platelet
_cell_formula_units_Z            2
loop_
_atom_site_label
_atom_site_type_symbol
_atom_site_fract_x
_atom_site_fract_y
_atom_site_fract_z
O1 O 0.64044(18) 0.6163(3) 0.59633(12)
O2 O 0.62802(17) 0.2102(3) 0.60296(12)
C1 C 0.8565(3) 0.3332(5) 0.90466(18)
H1 H 0.9088 0.2222 0.8753
C2 C 0.8647(3) 0.3398(6) 1.0027(2)
H2 H 0.9216 0.2333 1.0390
C3 C 0.7881(4) 0.5054(6) 1.0482(2)
H3 H 0.7961 0.5121 1.1148
C4 C 0.7025(3) 0.6557(6) 0.9962(2)
H4 H 0.6510 0.7640 1.0276
C5 C 0.6887(3) 0.6533(5) 0.89457(18)
C6 C 0.7712(2) 0.4901(4) 0.84768(17)
C7 C 0.7594(2) 0.4890(4) 0.74542(17)
C8 C 0.6580(2) 0.6263(5) 0.69573(17)
C9 C 0.5768(3) 0.7869(5) 0.7415(2)
H5 H 0.5110 0.8816 0.7058
C10 C 0.5948(3) 0.8036(5) 0.8387(2)
H6 H 0.5445 0.9157 0.8689
C11 C 0.8478(2) 0.3360(4) 0.68971(16)
C12 C 0.7781(2) 0.1983(4) 0.62000(17)
C13 C 0.8514(3) 0.0367(5) 0.56911(19)
H7 H 0.8007 -0.0566 0.5234
C14 C 0.9967(3) 0.0172(5) 0.5870(2)
H8 H 1.0448 -0.0947 0.5552
C15 C 1.0764(3) 0.1641(5) 0.65303(17)
C16 C 1.0020(2) 0.3312(4) 0.70298(17)
C17 C 1.0845(3) 0.4918(5) 0.76118(18)
H9 H 1.0376 0.6070 0.7920
C18 C 1.2316(3) 0.4811(5) 0.77303(19)
H10 H 1.2839 0.5890 0.8114
C19 C 1.3042(3) 0.3079(6) 0.7276(2)
H11 H 1.4044 0.2978 0.7375
C20 C 1.2285(3) 0.1562(6) 0.66957(19)
H12 H 1.2779 0.0428 0.6395
C21 C 0.5743(3) 0.4138(6) 0.55793(18)
H13 H 0.4714 0.4232 0.5630
H14 H 0.5875 0.4054 0.4904
loop_
_geom_bond_atom_site_label_1
_geom_bond_atom_site_label_2
_geom_bond_site_symmetry_1
_geom_bond_site_symmetry_2
O1 C8 1_555 1_555
O2 C12 1_555 1_555
C1 H1 1_555 1_555
C2 C1 1_555 1_555
H2 C2 1_555 1_555
C3 C2 1_555 1_555
H3 C3 1_555 1_555
C4 C3 1_555 1_555
H4 C4 1_555 1_555
C5 C4 1_555 1_555
C6 C1 1_555 1_555
C7 C6 1_555 1_555
C8 C7 1_555 1_555
C9 C8 1_555 1_555
H5 C9 1_555 1_555
C10 C5 1_555 1_555
H6 C10 1_555 1_555
C11 C7 1_555 1_555
C12 C11 1_555 1_555
C13 C12 1_555 1_555
H7 C13 1_555 1_555
C14 C13 1_555 1_555
H8 C14 1_555 1_555
C15 C14 1_555 1_555
C16 C11 1_555 1_555
C17 C16 1_555 1_555
H9 C17 1_555 1_555
C18 C17 1_555 1_555
H10 C18 1_555 1_555
C19 C18 1_555 1_555
H11 C19 1_555 1_555
C20 C15 1_555 1_555
H12 C20 1_555 1_555
C21 O1 1_555 1_555
H13 C21 1_555 1_555
H14 C21 1_555 1_555
O2 C21 1_555 1_555
C5 C6 1_555 1_555
C9 C10 1_555 1_555
C15 C16 1_555 1_555
C19 C20 1_555 1_555

#END
