
#######################################################################
#
#                 Cambridge Crystallographic Data Centre
#                                CCDC 
#
#######################################################################
#
# If this CIF has been generated from an entry in the Cambridge 
# Structural Database, then it will include bibliographic, chemical, 
# crystal, experimental, refinement or atomic coordinate data resulting 
# from the CCDC's data processing and validation procedures.
#
#######################################################################

data_CALBOG
_chemical_formula_moiety         'C9 H5 Cl3'
_chemical_name_systematic        1,1,3-Trichloroindene
_symmetry_cell_setting           orthorhombic
_symmetry_space_group_name_H-M   'P n m a'
_symmetry_Int_Tables_number      62
_space_group_name_Hall           '-P 2ac 2n'
loop_
_symmetry_equiv_pos_site_id
_symmetry_equiv_pos_as_xyz
1 x,y,z
2 1/2-x,1/2+y,1/2+z
3 x,1/2-y,z
4 1/2+x,y,1/2-z
5 -x,-y,-z
6 1/2+x,1/2-y,1/2-z
7 -x,1/2+y,-z
8 1/2-x,-y,1/2+z
_cell_length_a                   13.085(2)
_cell_length_b                   6.921(2)
_cell_length_c                   9.833(3)
_cell_angle_alpha                90
_cell_angle_beta                 90
_cell_angle_gamma                90
_cell_volume                     890.489
_exptl_crystal_colour            colorless
_exptl_crystal_description       tablet
_cell_formula_units_Z            4
loop_
_atom_site_label
_atom_site_type_symbol
_atom_site_fract_x
_atom_site_fract_y
_atom_site_fract_z
Cl1 Cl 0.01679(6) 0.25000 0.82279(7)
Cl2 Cl 0.30291(4) 0.04087(8) 0.49036(5)
C1 C 0.0921(2) 0.25000 0.6793(3)
C2 C 0.1935(2) 0.25000 0.6748(3)
C3 C 0.2265(2) 0.25000 0.5287(3)
C4 C 0.1275(2) 0.25000 0.4499(3)
C5 C 0.1106(2) 0.25000 0.3117(3)
C6 C 0.0091(2) 0.25000 0.2667(3)
C7 C -0.0704(2) 0.25000 0.3578(3)
C8 C -0.0533(2) 0.25000 0.4976(3)
C9 C 0.0467(2) 0.25000 0.5421(3)
H1 H 0.239(2) 0.25000 0.75263
H2 H 0.166(2) 0.25000 0.248(3)
H3 H 0.000(2) 0.25000 0.171(3)
H4 H -0.135(2) 0.25000 0.326(3)
H5 H -0.105(2) 0.25000 0.561(3)
Cl2B Cl 0.30291(4) 0.45913(8) 0.49036(5)
loop_
_geom_bond_atom_site_label_1
_geom_bond_atom_site_label_2
_geom_bond_site_symmetry_1
_geom_bond_site_symmetry_2
Cl1 C1 1_555 1_555
Cl2 C3 1_555 1_555
C1 C2 1_555 1_555
C2 C3 1_555 1_555
C3 C4 1_555 1_555
C4 C5 1_555 1_555
C5 C6 1_555 1_555
C6 C7 1_555 1_555
C7 C8 1_555 1_555
C8 C9 1_555 1_555
C9 C1 1_555 1_555
H1 C2 1_555 1_555
H2 C5 1_555 1_555
H3 C6 1_555 1_555
H4 C7 1_555 1_555
H5 C8 1_555 1_555
Cl2B C3 1_555 1_555
C4 C9 1_555 1_555

#END
