
#######################################################################
#
#                 Cambridge Crystallographic Data Centre
#                                CCDC 
#
#######################################################################
#
# If this CIF has been generated from an entry in the Cambridge 
# Structural Database, then it will include bibliographic, chemical, 
# crystal, experimental, refinement or atomic coordinate data resulting 
# from the CCDC's data processing and validation procedures.
#
#######################################################################

data_CALCEA
_chemical_formula_moiety         'C24 H24 N4 O3 S1'
_chemical_name_systematic        
2-[(2E)-2-(methoxyimino)-2-(2-[(2-methylphenoxy)methyl]phenyl)acetyl]-N-phenyl-hydrazinecarbothioamide
_symmetry_cell_setting           monoclinic
_symmetry_space_group_name_H-M   'P 21/n'
_symmetry_Int_Tables_number      14
_space_group_name_Hall           '-P 2yn'
loop_
_symmetry_equiv_pos_site_id
_symmetry_equiv_pos_as_xyz
1 x,y,z
2 1/2-x,1/2+y,1/2-z
3 -x,-y,-z
4 1/2+x,1/2-y,1/2+z
_cell_length_a                   12.6304(10)
_cell_length_b                   7.5262(5)
_cell_length_c                   24.5372(17)
_cell_angle_alpha                90
_cell_angle_beta                 95.554(7)
_cell_angle_gamma                90
_cell_volume                     2321.53
_exptl_crystal_colour            white
_exptl_crystal_description       Block
_chemical_melting_point          '481 K'
_cell_formula_units_Z            4
loop_
_atom_site_label
_atom_site_type_symbol
_atom_site_fract_x
_atom_site_fract_y
_atom_site_fract_z
S1 S 0.64971(6) -0.00969(9) 0.09995(3)
O1 O 0.54655(15) -0.4111(2) -0.05926(7)
O2 O 0.70814(15) 0.0741(2) -0.12891(7)
N1 N 0.54639(17) -0.2545(3) 0.03905(8)
H1 H 0.5006 -0.3391 0.0347
N2 N 0.58410(16) -0.1737(3) -0.00555(8)
H2 H 0.6082 -0.0669 -0.0028
N3 N 0.66056(16) -0.0021(2) -0.08621(8)
O3 O 0.91093(15) -0.4254(2) -0.11549(8)
C1 C 0.58269(19) -0.1985(3) 0.09000(10)
C2 C 0.58337(18) -0.2597(3) -0.05244(9)
C3 C 0.63393(19) -0.1634(3) -0.09679(9)
C4 C 0.6496(2) -0.2595(3) -0.14817(10)
N4 N 0.55677(18) -0.3103(3) 0.12912(8)
H3 H 0.5178 -0.4006 0.1192
C5 C 0.5611(2) -0.2954(3) -0.18516(11)
H4 H 0.4935 -0.2644 -0.1764
C6 C 0.5897(2) -0.2892(3) 0.18628(10)
C7 C 0.7610(2) -0.3889(3) -0.21067(11)
H5 H 0.8281 -0.4215 -0.2198
C8 C 0.7512(2) -0.3078(3) -0.16084(11)
C9 C 0.5734(2) -0.3766(4) -0.23468(11)
H6 H 0.5144 -0.4000 -0.2593
C10 C 0.8482(2) -0.2693(3) -0.12194(12)
H7 H 0.8891 -0.1741 -0.1363
H8 H 0.8268 -0.2321 -0.0868
C11 C 0.6734(3) -0.4224(4) -0.24707(11)
H9 H 0.6821 -0.4767 -0.2804
C12 C 1.0092(2) -0.4115(4) -0.08610(12)
C13 C 0.5377(2) -0.1754(4) 0.21830(11)
H10 H 0.4824 -0.1047 0.2028
C14 C 0.6472(3) -0.2742(5) 0.29703(12)
H11 H 0.6656 -0.2705 0.3346
C15 C 1.0456(3) -0.2608(5) -0.05954(13)
H12 H 1.0024 -0.1607 -0.0598
C16 C 1.0723(3) -0.5650(5) -0.08574(13)
C17 C 0.5684(2) -0.1669(4) 0.27351(12)
H13 H 0.5350 -0.0870 0.2952
C18 C 0.6700(2) -0.3947(4) 0.20947(12)
H14 H 0.7052 -0.4720 0.1878
C19 C 0.7274(3) 0.2592(3) -0.11850(13)
H15 H 0.6614 0.3176 -0.1137
H16 H 0.7583 0.3113 -0.1489
H17 H 0.7753 0.2727 -0.0859
C20 C 0.6985(3) -0.3862(5) 0.26522(13)
H18 H 0.7532 -0.4576 0.2810
C21 C 1.2108(3) -0.4042(7) -0.03198(18)
H19 H 1.2794 -0.4013 -0.0144
C22 C 1.1473(3) -0.2568(6) -0.03210(15)
H20 H 1.1720 -0.1543 -0.0139
C23 C 1.0334(3) -0.7303(5) -0.11432(18)
H21 H 1.0918 -0.8110 -0.1164
H22 H 1.0031 -0.7017 -0.1506
H23 H 0.9803 -0.7850 -0.0944
C24 C 1.1731(3) -0.5554(6) -0.05779(18)
H24 H 1.2164 -0.6555 -0.0566
loop_
_geom_bond_atom_site_label_1
_geom_bond_atom_site_label_2
_geom_bond_site_symmetry_1
_geom_bond_site_symmetry_2
S1 C1 1_555 1_555
O1 C2 1_555 1_555
O2 N3 1_555 1_555
N1 H1 1_555 1_555
N2 N1 1_555 1_555
H2 N2 1_555 1_555
N3 C3 1_555 1_555
O3 C10 1_555 1_555
C1 N1 1_555 1_555
C2 N2 1_555 1_555
C3 C2 1_555 1_555
C4 C3 1_555 1_555
N4 C1 1_555 1_555
H3 N4 1_555 1_555
C5 C4 1_555 1_555
H4 C5 1_555 1_555
C6 N4 1_555 1_555
C7 H5 1_555 1_555
C8 C4 1_555 1_555
C9 C5 1_555 1_555
H6 C9 1_555 1_555
C10 C8 1_555 1_555
H7 C10 1_555 1_555
H8 C10 1_555 1_555
C11 C7 1_555 1_555
H9 C11 1_555 1_555
C12 O3 1_555 1_555
C13 C6 1_555 1_555
H10 C13 1_555 1_555
C14 H11 1_555 1_555
C15 C12 1_555 1_555
H12 C15 1_555 1_555
C16 C12 1_555 1_555
C17 C13 1_555 1_555
H13 C17 1_555 1_555
C18 C6 1_555 1_555
H14 C18 1_555 1_555
C19 O2 1_555 1_555
H15 C19 1_555 1_555
H16 C19 1_555 1_555
H17 C19 1_555 1_555
C20 C14 1_555 1_555
H18 C20 1_555 1_555
C21 H19 1_555 1_555
C22 C15 1_555 1_555
H20 C22 1_555 1_555
C23 C16 1_555 1_555
H21 C23 1_555 1_555
H22 C23 1_555 1_555
H23 C23 1_555 1_555
C24 C16 1_555 1_555
H24 C24 1_555 1_555
C7 C8 1_555 1_555
C9 C11 1_555 1_555
C14 C17 1_555 1_555
C18 C20 1_555 1_555
C21 C22 1_555 1_555
C21 C24 1_555 1_555

#END
