
#######################################################################
#
#                 Cambridge Crystallographic Data Centre
#                                CCDC 
#
#######################################################################
#
# If this CIF has been generated from an entry in the Cambridge 
# Structural Database, then it will include bibliographic, chemical, 
# crystal, experimental, refinement or atomic coordinate data resulting 
# from the CCDC's data processing and validation procedures.
#
#######################################################################

data_CALJUX
_chemical_name_common            
'5,11,17,23-tetrakis((cyclohexylazaniumyl)methyl)-C-methylcalix(4)resorcinarene tris(diiodine) tetrakis(chloride) 1,4-dioxane solvate'
_chemical_formula_moiety         
'C60 H88 N4 O8 4+,1.5(C4 H8 O2),3(I2),4(Cl1 1-)'
_chemical_name_systematic        
'5,11,17,23-tetrakis((cyclohexylazaniumyl)methyl)-2,8,14,20-tetramethyl-4,6,10,12,16,18,22,24-octahydroxycalix(4)arene tris(diiodine) tetrakis(chloride) 1,4-dioxane solvate'
_symmetry_cell_setting           monoclinic
_symmetry_space_group_name_H-M   'P 21/n'
_symmetry_Int_Tables_number      14
_space_group_name_Hall           '-P 2yn'
loop_
_symmetry_equiv_pos_site_id
_symmetry_equiv_pos_as_xyz
1 x,y,z
2 1/2-x,1/2+y,1/2-z
3 -x,-y,-z
4 1/2+x,1/2-y,1/2+z
_cell_length_a                   14.4912(5)
_cell_length_b                   25.1262(8)
_cell_length_c                   21.7492(8)
_cell_angle_alpha                90
_cell_angle_beta                 100.201(3)
_cell_angle_gamma                90
_cell_volume                     7793.89
_exptl_crystal_colour            brown
_cell_formula_units_Z            4
loop_
_atom_site_label
_atom_site_type_symbol
_atom_site_fract_x
_atom_site_fract_y
_atom_site_fract_z
O1 O 0.6815(3) 0.21612(17) 0.40171(19)
H1 H 0.6498 0.1946 0.3769
O2 O 0.6111(3) 0.24053(19) 0.6033(2)
H2 H 0.6354 0.2348 0.6407
O3 O 0.6716(3) 0.22611(18) 0.7332(2)
H3 H 0.6726 0.2595 0.7348
O4 O 0.9913(3) 0.22909(18) 0.83454(19)
H4 H 1.0411 0.2341 0.8206
O5 O 1.1531(3) 0.23563(17) 0.78276(19)
H5 H 1.1857 0.2158 0.8092
O6 O 1.2175(3) 0.24783(19) 0.5783(2)
H6 H 1.1989 0.2362 0.5420
O7 O 1.1610(3) 0.21688(18) 0.4498(2)
H7 H 1.1572 0.2492 0.4398
O8 O 0.8416(3) 0.20539(19) 0.34981(19)
H8 H 0.7913 0.2103 0.3631
N1 N 0.6629(4) 0.3225(2) 0.4844(2)
H9 H 0.7126 0.3185 0.5217
H10 H 0.6930 0.3196 0.4471
N2 N 0.8547(3) 0.3176(2) 0.8340(2)
H11 H 0.8179 0.3357 0.7972
H12 H 0.9203 0.3150 0.8272
N3 N 1.1705(3) 0.3373(2) 0.6952(2)
H13 H 1.1190 0.3327 0.6590
H14 H 1.1425 0.3359 0.7335
N4 N 0.9773(3) 0.2979(2) 0.3422(2)
H15 H 1.0138 0.3172 0.3781
H16 H 0.9113 0.2966 0.3483
C1 C 0.7424(4) 0.1518(2) 0.4816(3)
C2 C 0.6892(4) 0.1972(2) 0.4625(3)
C3 C 0.6461(4) 0.2265(2) 0.5037(3)
C4 C 0.6536(4) 0.2091(2) 0.5650(3)
C5 C 0.7002(4) 0.1625(2) 0.5858(3)
C6 C 0.7445(4) 0.1355(2) 0.5434(3)
H17 H 0.7781 0.1040 0.5572
C7 C 0.5944(4) 0.2771(2) 0.4834(3)
H18 H 0.5498 0.2851 0.5117
H19 H 0.5582 0.2727 0.4406
C8 C 0.6215(5) 0.3769(3) 0.4856(3)
H20 H 0.5880 0.3787 0.5220
C9 C 0.6998(5) 0.4178(3) 0.4958(4)
H21 H 0.7378 0.4146 0.4624
H22 H 0.7413 0.4111 0.5364
C10 C 0.6591(6) 0.4737(3) 0.4953(4)
H23 H 0.6273 0.4780 0.5318
H24 H 0.7107 0.5001 0.4993
C11 C 0.5895(6) 0.4847(3) 0.4357(4)
H25 H 0.5625 0.5207 0.4378
H26 H 0.6222 0.4835 0.3995
C12 C 0.5124(5) 0.4441(3) 0.4274(3)
H27 H 0.4692 0.4509 0.3875
H28 H 0.4762 0.4476 0.4618
C13 C 0.5511(5) 0.3876(3) 0.4271(3)
H29 H 0.4989 0.3617 0.4241
H30 H 0.5814 0.3828 0.3901
C14 C 0.7006(4) 0.1415(2) 0.6520(3)
H31 H 0.6404 0.1535 0.6640
C15 C 0.7012(5) 0.0810(3) 0.6559(3)
H32 H 0.6477 0.0667 0.6265
H33 H 0.6966 0.0699 0.6984
H34 H 0.7596 0.0673 0.6451
C16 C 0.7796(4) 0.1662(2) 0.6996(3)
C17 C 0.7624(4) 0.2070(2) 0.7402(3)
C18 C 0.8337(4) 0.2268(2) 0.7863(3)
C19 C 0.9244(4) 0.2070(2) 0.7883(3)
C20 C 0.9449(4) 0.1661(2) 0.7498(3)
C21 C 0.8700(4) 0.1471(2) 0.7051(3)
H35 H 0.8822 0.1198 0.6774
C22 C 0.8165(4) 0.2626(2) 0.8384(3)
H36 H 0.7481 0.2649 0.8378
H37 H 0.8458 0.2466 0.8788
C23 C 0.8525(5) 0.3517(3) 0.8916(3)
H38 H 0.7887 0.3490 0.9028
C24 C 0.8702(5) 0.4088(3) 0.8765(3)
H39 H 0.8212 0.4210 0.8417
H40 H 0.9317 0.4119 0.8630
C25 C 0.8693(6) 0.4439(3) 0.9335(4)
H41 H 0.8062 0.4429 0.9450
H42 H 0.8828 0.4811 0.9232
C26 C 0.9419(6) 0.4252(3) 0.9886(4)
H43 H 1.0055 0.4289 0.9785
H44 H 0.9383 0.4476 1.0256
C27 C 0.9244(6) 0.3676(3) 1.0035(3)
H45 H 0.8632 0.3646 1.0174
H46 H 0.9737 0.3554 1.0380
C28 C 0.9243(5) 0.3320(3) 0.9467(3)
H47 H 0.9874 0.3321 0.9352
H48 H 0.9091 0.2950 0.9570
C29 C 1.0414(4) 0.1415(2) 0.7567(3)
H49 H 1.0759 0.1517 0.7990
C30 C 1.0370(5) 0.0806(3) 0.7551(3)
H50 H 1.0043 0.0688 0.7140
H51 H 1.0033 0.0678 0.7875
H52 H 1.1009 0.0661 0.7627
C31 C 1.0945(4) 0.1659(2) 0.7094(3)
C32 C 1.1449(4) 0.2129(2) 0.7236(3)
C33 C 1.1850(4) 0.2401(2) 0.6797(3)
C34 C 1.1777(4) 0.2185(2) 0.6201(3)
C35 C 1.1361(4) 0.1696(2) 0.6054(3)
C36 C 1.0941(4) 0.1448(2) 0.6504(3)
H53 H 1.0635 0.1117 0.6403
C37 C 1.2375(4) 0.2917(2) 0.6964(3)
H54 H 1.2762 0.2887 0.7386
H55 H 1.2800 0.2985 0.6663
C38 C 1.2133(5) 0.3911(3) 0.6910(3)
H56 H 1.2488 0.3908 0.6555
C39 C 1.2807(5) 0.4050(3) 0.7504(3)
H57 H 1.3339 0.3797 0.7564
H58 H 1.2483 0.4016 0.7867
C40 C 1.3177(5) 0.4617(3) 0.7474(5)
H59 H 1.3583 0.4707 0.7876
H60 H 1.3561 0.4640 0.7141
C41 C 1.2381(6) 0.5011(3) 0.7342(5)
H61 H 1.2637 0.5374 0.7314
H62 H 1.2022 0.5006 0.7689
C42 C 1.1726(6) 0.4873(3) 0.6727(5)
H63 H 1.1208 0.5135 0.6648
H64 H 1.2078 0.4893 0.6377
C43 C 1.1327(5) 0.4320(3) 0.6760(4)
H65 H 1.0926 0.4230 0.6356
H66 H 1.0934 0.4308 0.7089
C44 C 1.1408(4) 0.1431(2) 0.5429(3)
H67 H 1.1985 0.1573 0.5295
C45 C 1.1539(5) 0.0828(3) 0.5481(3)
H68 H 1.0951 0.0661 0.5543
H69 H 1.2035 0.0745 0.5836
H70 H 1.1716 0.0691 0.5096
C46 C 1.0584(4) 0.1590(2) 0.4914(3)
C47 C 1.0722(4) 0.1961(2) 0.4465(3)
C48 C 0.9989(4) 0.2099(2) 0.3974(3)
C49 C 0.9101(4) 0.1882(2) 0.3982(3)
C50 C 0.8936(4) 0.1501(2) 0.4409(3)
C51 C 0.9700(4) 0.1371(2) 0.4882(3)
H71 H 0.9604 0.1122 0.5193
C52 C 1.0136(4) 0.2424(3) 0.3422(3)
H72 H 1.0815 0.2438 0.3411
H73 H 0.9823 0.2244 0.3036
C53 C 0.9819(4) 0.3285(3) 0.2836(3)
H74 H 1.0463 0.3245 0.2735
C54 C 0.9642(5) 0.3875(3) 0.2938(3)
H75 H 0.9015 0.3922 0.3052
H76 H 1.0118 0.4013 0.3285
C55 C 0.9694(5) 0.4181(3) 0.2345(4)
H77 H 1.0335 0.4151 0.2249
H78 H 0.9568 0.4562 0.2410
C56 C 0.8993(5) 0.3973(3) 0.1795(4)
H79 H 0.8349 0.4032 0.1875
H80 H 0.9062 0.4173 0.1414
C57 C 0.9139(5) 0.3390(3) 0.1694(3)
H81 H 0.9753 0.3336 0.1563
H82 H 0.8645 0.3259 0.1354
C58 C 0.9111(5) 0.3069(3) 0.2288(3)
H83 H 0.8473 0.3087 0.2392
H84 H 0.9254 0.2691 0.2217
C59 C 0.7974(4) 0.1244(2) 0.4378(3)
H85 H 0.7623 0.1313 0.3946
C60 C 0.8018(5) 0.0640(3) 0.4451(3)
H86 H 0.8317 0.0486 0.4122
H87 H 0.7382 0.0498 0.4418
H88 H 0.8385 0.0549 0.4861
O9 O 1.0036(4) 0.3245(3) 0.6125(3)
O10 O 0.8187(4) 0.2945(3) 0.5747(3)
C61 C 0.9720(6) 0.3076(4) 0.5504(4)
H89 H 1.0239 0.2905 0.5335
H90 H 0.9491 0.3383 0.5236
C62 C 0.8946(7) 0.2687(4) 0.5514(6)
H91 H 0.8720 0.2550 0.5088
H92 H 0.9179 0.2382 0.5787
C63 C 0.8512(6) 0.3107(4) 0.6362(4)
H93 H 0.8750 0.2796 0.6621
H94 H 0.7992 0.3267 0.6538
C64 C 0.9268(6) 0.3500(4) 0.6373(4)
H95 H 0.9034 0.3812 0.6114
H96 H 0.9493 0.3623 0.6806
O11 O 0.9981(6) 0.4531(3) 0.5331(4)
C65 C 1.0310(9) 0.4514(4) 0.4782(5)
H97 H 0.9808 0.4390 0.4443
H98 H 1.0839 0.4260 0.4818
C66 C 0.9379(8) 0.4964(5) 0.5366(6)
H99 H 0.9242 0.4976 0.5795
H100 H 0.8781 0.4890 0.5081
O11B O 1.0019(6) 0.5469(3) 0.4669(4)
C65B C 0.9690(9) 0.5486(4) 0.5218(5)
H97B H 1.0192 0.5610 0.5557
H98B H 0.9161 0.5740 0.5182
C66B C 1.0621(8) 0.5036(5) 0.4634(6)
H99B H 1.0758 0.5024 0.4205
H100B H 1.1219 0.5110 0.4919
I1 I 0.59422(3) 0.42015(2) 0.82548(2)
I2 I 0.54194(4) 0.49510(2) 0.90158(2)
I3 I 0.72430(5) 0.47110(3) 0.68726(3)
I4 I 0.76849(4) 0.56703(2) 0.64351(3)
I5 I 0.47691(4) 0.35794(2) 0.63280(2)
I6 I 0.33847(4) 0.35373(2) 0.53117(2)
Cl1 Cl 0.66595(13) 0.34711(7) 0.74291(9)
Cl2 Cl 1.17080(14) 0.33317(8) 0.41953(10)
Cl3 Cl 0.77929(11) 0.33478(7) 0.37333(8)
Cl4 Cl 1.06012(12) 0.35419(7) 0.80914(8)
loop_
_geom_bond_atom_site_label_1
_geom_bond_atom_site_label_2
_geom_bond_site_symmetry_1
_geom_bond_site_symmetry_2
O1 H1 1_555 1_555
O2 H2 1_555 1_555
O3 H3 1_555 1_555
O4 H4 1_555 1_555
O5 H5 1_555 1_555
O6 H6 1_555 1_555
O7 H7 1_555 1_555
O8 H8 1_555 1_555
N1 H9 1_555 1_555
H10 N1 1_555 1_555
N2 H11 1_555 1_555
H12 N2 1_555 1_555
N3 H13 1_555 1_555
H14 N3 1_555 1_555
N4 H15 1_555 1_555
H16 N4 1_555 1_555
C1 C2 1_555 1_555
C2 O1 1_555 1_555
C3 C2 1_555 1_555
C4 O2 1_555 1_555
C5 C4 1_555 1_555
C6 C1 1_555 1_555
H17 C6 1_555 1_555
C7 N1 1_555 1_555
H18 C7 1_555 1_555
H19 C7 1_555 1_555
C8 N1 1_555 1_555
H20 C8 1_555 1_555
C9 C8 1_555 1_555
H21 C9 1_555 1_555
H22 C9 1_555 1_555
C10 C9 1_555 1_555
H23 C10 1_555 1_555
H24 C10 1_555 1_555
C11 C10 1_555 1_555
H25 C11 1_555 1_555
H26 C11 1_555 1_555
C12 C11 1_555 1_555
H27 C12 1_555 1_555
H28 C12 1_555 1_555
C13 C8 1_555 1_555
H29 C13 1_555 1_555
H30 C13 1_555 1_555
C14 C5 1_555 1_555
H31 C14 1_555 1_555
C15 C14 1_555 1_555
H32 C15 1_555 1_555
H33 C15 1_555 1_555
H34 C15 1_555 1_555
C16 C14 1_555 1_555
C17 O3 1_555 1_555
C18 C17 1_555 1_555
C19 O4 1_555 1_555
C20 C19 1_555 1_555
C21 C16 1_555 1_555
H35 C21 1_555 1_555
C22 N2 1_555 1_555
H36 C22 1_555 1_555
H37 C22 1_555 1_555
C23 N2 1_555 1_555
H38 C23 1_555 1_555
C24 C23 1_555 1_555
H39 C24 1_555 1_555
H40 C24 1_555 1_555
C25 C24 1_555 1_555
H41 C25 1_555 1_555
H42 C25 1_555 1_555
C26 C25 1_555 1_555
H43 C26 1_555 1_555
H44 C26 1_555 1_555
C27 C26 1_555 1_555
H45 C27 1_555 1_555
H46 C27 1_555 1_555
C28 C23 1_555 1_555
H47 C28 1_555 1_555
H48 C28 1_555 1_555
C29 C20 1_555 1_555
H49 C29 1_555 1_555
C30 C29 1_555 1_555
H50 C30 1_555 1_555
H51 C30 1_555 1_555
H52 C30 1_555 1_555
C31 C29 1_555 1_555
C32 O5 1_555 1_555
C33 C32 1_555 1_555
C34 O6 1_555 1_555
C35 C34 1_555 1_555
C36 C31 1_555 1_555
H53 C36 1_555 1_555
C37 N3 1_555 1_555
H54 C37 1_555 1_555
H55 C37 1_555 1_555
C38 N3 1_555 1_555
H56 C38 1_555 1_555
C39 C38 1_555 1_555
H57 C39 1_555 1_555
H58 C39 1_555 1_555
C40 C39 1_555 1_555
H59 C40 1_555 1_555
H60 C40 1_555 1_555
C41 C40 1_555 1_555
H61 C41 1_555 1_555
H62 C41 1_555 1_555
C42 C41 1_555 1_555
H63 C42 1_555 1_555
H64 C42 1_555 1_555
C43 C38 1_555 1_555
H65 C43 1_555 1_555
H66 C43 1_555 1_555
C44 C35 1_555 1_555
H67 C44 1_555 1_555
C45 C44 1_555 1_555
H68 C45 1_555 1_555
H69 C45 1_555 1_555
H70 C45 1_555 1_555
C46 C44 1_555 1_555
C47 O7 1_555 1_555
C48 C47 1_555 1_555
C49 O8 1_555 1_555
C50 C49 1_555 1_555
C51 C46 1_555 1_555
H71 C51 1_555 1_555
C52 N4 1_555 1_555
H72 C52 1_555 1_555
H73 C52 1_555 1_555
C53 N4 1_555 1_555
H74 C53 1_555 1_555
C54 C53 1_555 1_555
H75 C54 1_555 1_555
H76 C54 1_555 1_555
C55 C54 1_555 1_555
H77 C55 1_555 1_555
H78 C55 1_555 1_555
C56 C55 1_555 1_555
H79 C56 1_555 1_555
H80 C56 1_555 1_555
C57 C56 1_555 1_555
H81 C57 1_555 1_555
H82 C57 1_555 1_555
C58 C53 1_555 1_555
H83 C58 1_555 1_555
H84 C58 1_555 1_555
C59 C1 1_555 1_555
H85 C59 1_555 1_555
C60 C59 1_555 1_555
H86 C60 1_555 1_555
H87 C60 1_555 1_555
H88 C60 1_555 1_555
O9 C61 1_555 1_555
O10 C62 1_555 1_555
C61 H89 1_555 1_555
H90 C61 1_555 1_555
C62 C61 1_555 1_555
H91 C62 1_555 1_555
H92 C62 1_555 1_555
C63 O10 1_555 1_555
H93 C63 1_555 1_555
H94 C63 1_555 1_555
C64 O9 1_555 1_555
H95 C64 1_555 1_555
H96 C64 1_555 1_555
O11 C65 1_555 1_555
C65 H97 1_555 1_555
H98 C65 1_555 1_555
C66 O11 1_555 1_555
H99 C66 1_555 1_555
H100 C66 1_555 1_555
I1 I2 1_555 1_555
I3 I4 1_555 1_555
I5 I6 1_555 1_555
O11B C65B 1_555 1_555
C65B C66 1_555 1_555
H97B C65B 1_555 1_555
H98B C65B 1_555 1_555
C66B C65 1_555 1_555
H99B C66B 1_555 1_555
H100B C66B 1_555 1_555
C3 C4 1_555 1_555
C3 C7 1_555 1_555
C5 C6 1_555 1_555
C12 C13 1_555 1_555
C16 C17 1_555 1_555
C18 C19 1_555 1_555
C18 C22 1_555 1_555
C20 C21 1_555 1_555
C27 C28 1_555 1_555
C31 C32 1_555 1_555
C33 C34 1_555 1_555
C33 C37 1_555 1_555
C35 C36 1_555 1_555
C42 C43 1_555 1_555
C46 C47 1_555 1_555
C48 C49 1_555 1_555
C48 C52 1_555 1_555
C50 C51 1_555 1_555
C50 C59 1_555 1_555
C57 C58 1_555 1_555
C63 C64 1_555 1_555
O11B C66B 1_555 1_555

#END
