
#######################################################################
#
#                 Cambridge Crystallographic Data Centre
#                                CCDC 
#
#######################################################################
#
# If this CIF has been generated from an entry in the Cambridge 
# Structural Database, then it will include bibliographic, chemical, 
# crystal, experimental, refinement or atomic coordinate data resulting 
# from the CCDC's data processing and validation procedures.
#
#######################################################################

data_CAMMIP
_chemical_formula_moiety         'C72 H80 N8 O16,3(C2 H3 N1)'
_chemical_name_systematic        
'2,8,14,20-Tetraethyl-4,10,16,22-tetramethoxy-6,12,18,24-tetrakis((2-(2-nitroanilino)ethyl)oxy)calix(4)arene acetonitrile solvate'
_symmetry_cell_setting           triclinic
_symmetry_space_group_name_H-M   'P -1'
_symmetry_Int_Tables_number      2
_space_group_name_Hall           '-P 1'
loop_
_symmetry_equiv_pos_site_id
_symmetry_equiv_pos_as_xyz
1 x,y,z
2 -x,-y,-z
_cell_length_a                   15.5983(4)
_cell_length_b                   15.6176(5)
_cell_length_c                   15.8349(4)
_cell_angle_alpha                94.2170(10)
_cell_angle_beta                 98.627(2)
_cell_angle_gamma                96.688(2)
_cell_volume                     3771.61
_exptl_crystal_colour            yellow
_exptl_crystal_description       block
_cell_formula_units_Z            2
loop_
_atom_site_label
_atom_site_type_symbol
_atom_site_fract_x
_atom_site_fract_y
_atom_site_fract_z
C1 C -0.04944(15) 0.66099(13) -0.32819(13)
C2 C 0.04188(15) 0.67105(14) -0.31800(14)
H1 H 0.0687 0.6404 -0.3588
C3 C 0.09529(15) 0.72326(13) -0.25162(14)
C4 C 0.05436(15) 0.76598(14) -0.19100(14)
C5 C -0.03605(16) 0.75709(14) -0.19775(14)
H2 H -0.0629 0.7858 -0.1557
C6 C -0.08676(15) 0.70564(14) -0.26679(14)
C7 C 0.19436(15) 0.73760(15) -0.24263(15)
H3 H 0.2133 0.8000 -0.2222
C8 C 0.23687(14) 0.68514(14) -0.17504(15)
C9 C 0.21429(14) 0.59579(14) -0.17747(14)
H4 H 0.1674 0.5688 -0.2198
C10 C 0.25650(13) 0.54450(14) -0.12166(14)
C11 C 0.32441(14) 0.58507(15) -0.05873(14)
C12 C 0.34793(15) 0.67457(16) -0.05278(15)
H5 H 0.3933 0.7020 -0.0091
C13 C 0.30458(14) 0.72300(14) -0.11105(16)
C14 C 0.23219(14) 0.44625(14) -0.13432(14)
H6 H 0.2659 0.4219 -0.0849
C15 C 0.13535(13) 0.41929(13) -0.13205(13)
C16 C 0.07464(13) 0.38753(13) -0.20436(13)
H7 H 0.0938 0.3853 -0.2586
C17 C -0.01284(14) 0.35880(13) -0.20149(13)
C18 C -0.04018(13) 0.36366(13) -0.12131(14)
C19 C 0.01834(14) 0.39547(14) -0.04766(14)
H8 H -0.0009 0.3986 0.0065
C20 C 0.10496(14) 0.42268(13) -0.05339(13)
C21 C -0.07751(14) 0.31966(14) -0.28010(14)
H9 H -0.1173 0.2731 -0.2603
C22 C -0.13526(14) 0.38335(14) -0.31878(13)
C23 C -0.10101(14) 0.46558(14) -0.33631(13)
H10 H -0.0404 0.4838 -0.3180
C24 C -0.15033(15) 0.52220(14) -0.37889(13)
C25 C -0.23956(15) 0.49527(15) -0.40462(14)
C26 C -0.27652(16) 0.41495(16) -0.38758(15)
H11 H -0.3374 0.3973 -0.4049
C27 C -0.22463(15) 0.35995(14) -0.34515(14)
C28 C -0.10857(16) 0.60805(14) -0.40349(13)
H12 H -0.1573 0.6424 -0.4217
C29 C 0.2308(2) 0.72018(19) -0.32625(18)
H13 H 0.2951 0.7223 -0.3123
H14 H 0.2069 0.6609 -0.3517
C30 C 0.2108(3) 0.7818(3) -0.3915(3)
H15 H 0.1475 0.7751 -0.4113
H16 H 0.2410 0.7698 -0.4402
H17 H 0.2306 0.8412 -0.3659
C31 C 0.26259(14) 0.41009(15) -0.21623(16)
H18 H 0.2440 0.3468 -0.2253
H19 H 0.2335 0.4365 -0.2659
C32 C 0.36084(17) 0.42717(18) -0.2128(2)
H20 H 0.3797 0.4897 -0.2043
H21 H 0.3763 0.4037 -0.2668
H22 H 0.3900 0.3992 -0.1651
C33 C -0.03463(17) 0.27584(16) -0.34996(17)
H23 H -0.0058 0.3216 -0.3800
H24 H 0.0116 0.2442 -0.3219
C34 C -0.0907(4) 0.2179(4) -0.4111(4)
H25 H -0.0567 0.1918 -0.4511
H26 H -0.1343 0.2490 -0.4428
H27 H -0.1203 0.1724 -0.3824
C35 C -0.06302(18) 0.59266(16) -0.48162(14)
H28 H -0.0362 0.6491 -0.4964
H29 H -0.0154 0.5572 -0.4662
C36 C -0.12432(19) 0.54753(18) -0.55974(15)
H30 H -0.1489 0.4903 -0.5466
H31 H -0.0919 0.5409 -0.6078
H32 H -0.1718 0.5822 -0.5754
C37 C 0.0730(2) 0.87441(19) -0.07270(19)
H33 H 0.0396 0.9115 -0.1087
H34 H 0.1200 0.9104 -0.0332
H35 H 0.0341 0.8419 -0.0397
C38 C 0.43740(18) 0.5710(2) 0.0575(2)
H36 H 0.4829 0.6005 0.0295
H37 H 0.4615 0.5260 0.0903
H38 H 0.4168 0.6130 0.0963
C39 C -0.15288(16) 0.32287(17) -0.03914(16)
H39 H -0.1150 0.2856 -0.0083
H40 H -0.2137 0.2953 -0.0479
H41 H -0.1479 0.3790 -0.0055
C40 C -0.3605(2) 0.5179(2) -0.5087(2)
H42 H -0.3410 0.4786 -0.5509
H43 H -0.3855 0.5649 -0.5376
H44 H -0.4050 0.4859 -0.4813
C41 C -0.22019(16) 0.76490(16) -0.25305(16)
H45 H -0.1835 0.8206 -0.2550
H46 H -0.2322 0.7607 -0.1938
C42 C -0.30459(17) 0.75931(18) -0.31492(17)
H47 H -0.3388 0.7020 -0.3140
H48 H -0.3393 0.8039 -0.2954
C43 C -0.2679(2) 0.84839(19) -0.43142(18)
C44 C -0.2682(3) 0.9261(2) -0.3802(2)
H49 H -0.2832 0.9234 -0.3244
C45 C -0.2475(4) 1.0054(2) -0.4086(3)
H50 H -0.2485 1.0565 -0.3726
C46 C -0.2251(4) 1.0118(3) -0.4894(3)
H51 H -0.2116 1.0671 -0.5090
C47 C -0.2224(3) 0.9377(3) -0.5414(3)
H52 H -0.2064 0.9418 -0.5967
C48 C -0.2431(2) 0.8573(2) -0.5130(2)
C49 C 0.37359(18) 0.86147(16) -0.03875(19)
H53 H 0.4345 0.8480 -0.0271
H54 H 0.3452 0.8505 0.0120
C50 C 0.3720(2) 0.95462(17) -0.0590(2)
H55 H 0.3115 0.9694 -0.0630
H56 H 0.4095 0.9937 -0.0125
C51 C 0.40412(18) 1.04255(18) -0.1760(2)
C52 C 0.3959(2) 1.11952(18) -0.1277(2)
H57 H 0.3879 1.1174 -0.0695
C53 C 0.3992(2) 1.1973(2) -0.1622(2)
H58 H 0.3929 1.2478 -0.1276
C54 C 0.4115(3) 1.2043(2) -0.2461(2)
H59 H 0.4135 1.2588 -0.2691
C55 C 0.4206(2) 1.1310(2) -0.2955(2)
H60 H 0.4290 1.1348 -0.3534
C56 C 0.4178(2) 1.0517(2) -0.2616(2)
C57 C 0.14791(16) 0.44208(15) 0.10059(14)
H61 H 0.1246 0.3810 0.1043
H62 H 0.1045 0.4796 0.1158
C58 C 0.23360(16) 0.46607(15) 0.15920(14)
H63 H 0.2563 0.5272 0.1548
H64 H 0.2254 0.4598 0.2193
C59 C 0.37223(15) 0.40168(15) 0.18320(14)
C60 C 0.39996(17) 0.45207(18) 0.26232(16)
H65 H 0.3654 0.4945 0.2794
C61 C 0.47508(19) 0.4416(2) 0.31507(19)
H66 H 0.4919 0.4773 0.3675
C62 C 0.5273(2) 0.3798(2) 0.2934(2)
H67 H 0.5781 0.3717 0.3317
C63 C 0.50468(17) 0.33091(19) 0.21679(19)
H68 H 0.5405 0.2892 0.2010
C64 C 0.42906(15) 0.34179(15) 0.16129(15)
C65 C -0.31800(17) 0.28310(17) -0.26477(18)
H69 H -0.3708 0.3099 -0.2856
H70 H -0.2856 0.3187 -0.2130
C66 C -0.34364(17) 0.19273(18) -0.2437(2)
H71 H -0.3850 0.1935 -0.2020
H72 H -0.3736 0.1570 -0.2964
C67 C -0.27208(17) 0.07560(16) -0.17879(17)
C68 C -0.35436(19) 0.02715(18) -0.17785(19)
H73 H -0.4060 0.0499 -0.2004
C69 C -0.3615(2) -0.05200(18) -0.1452(2)
H74 H -0.4179 -0.0828 -0.1459
C70 C -0.2884(2) -0.08772(18) -0.1115(2)
H75 H -0.2942 -0.1413 -0.0867
C71 C -0.20758(19) -0.04493(16) -0.11413(18)
H76 H -0.1568 -0.0698 -0.0927
C72 C -0.19878(17) 0.03528(15) -0.14823(17)
N1 N -0.29170(16) 0.77131(16) -0.40248(15)
H77 H -0.288(2) 0.726(2) -0.437(2)
N2 N -0.2372(2) 0.7836(2) -0.57143(17)
N3 N 0.40314(16) 0.96622(15) -0.13925(17)
H78 H 0.394(2) 0.918(2) -0.179(2)
N4 N 0.4300(3) 0.9787(2) -0.3174(2)
N5 N 0.29564(14) 0.40994(14) 0.13532(13)
H79 H 0.2872(18) 0.3874(18) 0.0882(19)
N6 N 0.41029(14) 0.28883(13) 0.08120(14)
N7 N -0.26780(16) 0.15495(14) -0.20802(17)
H80 H -0.214(2) 0.184(2) -0.206(2)
N8 N -0.11085(15) 0.07362(14) -0.15033(17)
O1 O 0.10952(11) 0.81568(10) -0.12559(10)
O2 O -0.17677(10) 0.69434(10) -0.27898(10)
O3 O 0.36660(10) 0.53254(11) -0.00558(11)
O4 O 0.32702(12) 0.81104(11) -0.11231(13)
O5 O -0.12660(9) 0.33558(10) -0.12050(10)
O6 O 0.16648(10) 0.45466(10) 0.01610(9)
O7 O -0.28808(11) 0.55332(11) -0.44530(11)
O8 O -0.26351(10) 0.27872(10) -0.33022(11)
O9 O -0.26546(18) 0.71105(16) -0.55570(14)
O10 O -0.2054(3) 0.7953(2) -0.63595(19)
O11 O 0.4234(2) 0.90503(18) -0.29296(18)
O12 O 0.4487(4) 0.9926(2) -0.3880(2)
O13 O 0.35219(15) 0.30417(14) 0.02455(12)
O14 O 0.45259(12) 0.22836(12) 0.07079(14)
O15 O -0.09793(14) 0.14778(14) -0.1696(2)
O16 O -0.05028(15) 0.03365(15) -0.1294(2)
C74 C 0.4924(2) 0.7386(3) 0.4720(3)
C75 C 0.4806(4) 0.8158(3) 0.5230(4)
H86 H 0.5286 0.8616 0.5207
H87 H 0.4803 0.8030 0.5826
H88 H 0.4248 0.8352 0.5002
N9 N 0.5022(2) 0.6810(2) 0.4307(3)
N10 N 0.1445(2) 0.2164(2) 0.0182(2)
C76 C 0.1443(2) 0.1982(2) -0.0521(3)
C77 C 0.1426(3) 0.1757(3) -0.1414(3)
H89 H 0.0849 0.1815 -0.1730
H90 H 0.1545 0.1157 -0.1503
H91 H 0.1873 0.2144 -0.1622
N12 N 0.1706(7) 0.9808(6) -0.2574(6)
C80 C 0.0861(9) 0.9550(6) -0.3036(7)
C81 C -0.0079(11) 0.9261(10) -0.3463(10)
H95 H -0.0214 0.8634 -0.3454
H96 H -0.0154 0.9409 -0.4058
H97 H -0.0475 0.9555 -0.3151
H81? H -0.0784 0.2665 -0.4030
H82? H 0.0138 0.3182 -0.3611
C73? C 0.0001(5) 0.1951(4) -0.3385(4)
H83? H -0.0450 0.1525 -0.3234
H84? H 0.0506 0.2043 -0.2924
H85? H 0.0182 0.1737 -0.3920
C78? C 0.1248(9) 0.9713(6) -0.2801(7)
H92? H 0.1230 0.9617 -0.2199
H93? H 0.1380 1.0335 -0.2852
H94? H 0.1704 0.9409 -0.3006
C79? C 0.0412(13) 0.9389(9) -0.3311(9)
N11? N -0.0162(12) 0.8911(12) -0.3864(12)
loop_
_geom_bond_atom_site_label_1
_geom_bond_atom_site_label_2
_geom_bond_site_symmetry_1
_geom_bond_site_symmetry_2
C1 C2 1_555 1_555
C2 H1 1_555 1_555
C3 C2 1_555 1_555
C4 C3 1_555 1_555
C5 C4 1_555 1_555
H2 C5 1_555 1_555
C6 C1 1_555 1_555
C7 C3 1_555 1_555
H3 C7 1_555 1_555
C8 C7 1_555 1_555
C9 C8 1_555 1_555
H4 C9 1_555 1_555
C10 C9 1_555 1_555
C11 C10 1_555 1_555
C12 C11 1_555 1_555
H5 C12 1_555 1_555
C13 C8 1_555 1_555
C14 C10 1_555 1_555
H6 C14 1_555 1_555
C15 C14 1_555 1_555
C16 C15 1_555 1_555
H7 C16 1_555 1_555
C17 C16 1_555 1_555
C18 C17 1_555 1_555
C19 C18 1_555 1_555
H8 C19 1_555 1_555
C20 C15 1_555 1_555
C21 C17 1_555 1_555
H9 C21 1_555 1_555
C22 C21 1_555 1_555
C23 C22 1_555 1_555
H10 C23 1_555 1_555
C24 C23 1_555 1_555
C25 C24 1_555 1_555
C26 C25 1_555 1_555
H11 C26 1_555 1_555
C27 C22 1_555 1_555
C28 C1 1_555 1_555
H12 C28 1_555 1_555
C29 C7 1_555 1_555
H13 C29 1_555 1_555
H14 C29 1_555 1_555
C30 C29 1_555 1_555
H15 C30 1_555 1_555
H16 C30 1_555 1_555
H17 C30 1_555 1_555
C31 C14 1_555 1_555
H18 C31 1_555 1_555
H19 C31 1_555 1_555
C32 C31 1_555 1_555
H20 C32 1_555 1_555
H21 C32 1_555 1_555
H22 C32 1_555 1_555
C33 C21 1_555 1_555
H23 C33 1_555 1_555
H24 C33 1_555 1_555
C34 C33 1_555 1_555
H25 C34 1_555 1_555
H26 C34 1_555 1_555
H27 C34 1_555 1_555
C35 C28 1_555 1_555
H28 C35 1_555 1_555
H29 C35 1_555 1_555
C36 C35 1_555 1_555
H30 C36 1_555 1_555
H31 C36 1_555 1_555
H32 C36 1_555 1_555
C37 H33 1_555 1_555
H34 C37 1_555 1_555
H35 C37 1_555 1_555
C38 H36 1_555 1_555
H37 C38 1_555 1_555
H38 C38 1_555 1_555
C39 H39 1_555 1_555
H40 C39 1_555 1_555
H41 C39 1_555 1_555
C40 H42 1_555 1_555
H43 C40 1_555 1_555
H44 C40 1_555 1_555
C41 H45 1_555 1_555
H46 C41 1_555 1_555
C42 C41 1_555 1_555
H47 C42 1_555 1_555
H48 C42 1_555 1_555
C43 C44 1_555 1_555
C44 H49 1_555 1_555
C45 C44 1_555 1_555
H50 C45 1_555 1_555
C46 C45 1_555 1_555
H51 C46 1_555 1_555
C47 C46 1_555 1_555
H52 C47 1_555 1_555
C48 C43 1_555 1_555
C49 H53 1_555 1_555
H54 C49 1_555 1_555
C50 C49 1_555 1_555
H55 C50 1_555 1_555
H56 C50 1_555 1_555
C51 C52 1_555 1_555
C52 H57 1_555 1_555
C53 C52 1_555 1_555
H58 C53 1_555 1_555
C54 C53 1_555 1_555
H59 C54 1_555 1_555
C55 C54 1_555 1_555
H60 C55 1_555 1_555
C56 C51 1_555 1_555
C57 H61 1_555 1_555
H62 C57 1_555 1_555
C58 C57 1_555 1_555
H63 C58 1_555 1_555
H64 C58 1_555 1_555
C59 C60 1_555 1_555
C60 H65 1_555 1_555
C61 C60 1_555 1_555
H66 C61 1_555 1_555
C62 C61 1_555 1_555
H67 C62 1_555 1_555
C63 C62 1_555 1_555
H68 C63 1_555 1_555
C64 C59 1_555 1_555
C65 H69 1_555 1_555
H70 C65 1_555 1_555
C66 C65 1_555 1_555
H71 C66 1_555 1_555
H72 C66 1_555 1_555
C67 C68 1_555 1_555
C68 H73 1_555 1_555
C69 C68 1_555 1_555
H74 C69 1_555 1_555
C70 C69 1_555 1_555
H75 C70 1_555 1_555
C71 C70 1_555 1_555
H76 C71 1_555 1_555
C72 C67 1_555 1_555
N1 C42 1_555 1_555
H77 N1 1_555 1_555
N2 C48 1_555 1_555
N3 C50 1_555 1_555
H78 N3 1_555 1_555
N4 C56 1_555 1_555
N5 C58 1_555 1_555
H79 N5 1_555 1_555
N6 C64 1_555 1_555
N7 C66 1_555 1_555
H80 N7 1_555 1_555
N8 C72 1_555 1_555
O1 C4 1_555 1_555
O2 C6 1_555 1_555
O3 C11 1_555 1_555
O4 C13 1_555 1_555
O5 C18 1_555 1_555
O6 C20 1_555 1_555
O7 C25 1_555 1_555
O8 C27 1_555 1_555
O9 N2 1_555 1_555
O10 N2 1_555 1_555
O11 N4 1_555 1_555
O12 N4 1_555 1_555
O13 N6 1_555 1_555
O14 N6 1_555 1_555
O15 N8 1_555 1_555
O16 N8 1_555 1_555
C74 C75 1_555 1_555
C75 H86 1_555 1_555
H87 C75 1_555 1_555
H88 C75 1_555 1_555
N9 C74 1_555 1_555
N10 C76 1_555 1_555
C76 C77 1_555 1_555
C77 H89 1_555 1_555
H90 C77 1_555 1_555
H91 C77 1_555 1_555
N12 C80 1_555 1_555
C80 C81 1_555 1_555
C81 H95 1_555 1_555
H96 C81 1_555 1_555
H97 C81 1_555 1_555
C5 C6 1_555 1_555
C12 C13 1_555 1_555
C19 C20 1_555 1_555
C24 C28 1_555 1_555
C26 C27 1_555 1_555
C37 O1 1_555 1_555
C38 O3 1_555 1_555
C39 O5 1_555 1_555
C40 O7 1_555 1_555
C41 O2 1_555 1_555
C43 N1 1_555 1_555
C47 C48 1_555 1_555
C49 O4 1_555 1_555
C51 N3 1_555 1_555
C55 C56 1_555 1_555
C57 O6 1_555 1_555
C59 N5 1_555 1_555
C63 C64 1_555 1_555
C65 O8 1_555 1_555
C67 N7 1_555 1_555
C71 C72 1_555 1_555

#END
