
#######################################################################
#
#                 Cambridge Crystallographic Data Centre
#                                CCDC 
#
#######################################################################
#
# If this CIF has been generated from an entry in the Cambridge 
# Structural Database, then it will include bibliographic, chemical, 
# crystal, experimental, refinement or atomic coordinate data resulting 
# from the CCDC's data processing and validation procedures.
#
#######################################################################

data_CAMSOZ
_chemical_formula_moiety         'C6 H5 I1 N2 O2'
_chemical_name_systematic        4-Iodo-2-nitroaniline
_symmetry_cell_setting           monoclinic
_symmetry_space_group_name_H-M   'C 2/c'
_symmetry_Int_Tables_number      15
_space_group_name_Hall           '-C 2yn'
loop_
_symmetry_equiv_pos_site_id
_symmetry_equiv_pos_as_xyz
1 x,y,z
2 x,-y,1/2+z
3 1/2+x,1/2+y,z
4 1/2+x,1/2-y,1/2+z
5 -x,-y,-z
6 -x,y,1/2-z
7 1/2-x,1/2-y,-z
8 1/2-x,1/2+y,1/2-z
_cell_length_a                   26.5541(9)
_cell_length_b                   7.0445(2)
_cell_length_c                   16.4416(5)
_cell_angle_alpha                90
_cell_angle_beta                 101.1548(16)
_cell_angle_gamma                90
_cell_volume                     3017.47
_exptl_crystal_colour            orange
_exptl_crystal_description       plate
_chemical_melting_point          '395-396 K'
_cell_formula_units_Z            16
_exptl_crystal_recrystallization_method ethanol
loop_
_atom_site_label
_atom_site_type_symbol
_atom_site_fract_x
_atom_site_fract_y
_atom_site_fract_z
N1 N 0.68796(13) 0.1809(5) -0.1364(2)
C1 C 0.68831(15) 0.0538(5) -0.0754(2)
C2 C 0.68395(15) -0.1455(5) -0.0880(2)
N2 N 0.67958(13) -0.2279(4) -0.16873(18)
O1 O 0.68253(14) -0.4017(4) -0.17493(18)
O2 O 0.67287(12) -0.1245(3) -0.23131(16)
C3 C 0.68352(15) -0.2708(5) -0.0221(2)
C4 C 0.68856(15) -0.2026(5) 0.0571(2)
I1 I 0.685502(10) -0.39196(3) 0.154272(15)
C5 C 0.69470(15) -0.0077(5) 0.0717(2)
C6 C 0.69464(16) 0.1149(5) 0.0072(2)
H1 H 0.6917 0.3025 -0.1245
H2 H 0.6840 0.1426 -0.1882
H3 H 0.6797 -0.4033 -0.0323
H4 H 0.6989 0.0398 0.1266
H5 H 0.6990 0.2466 0.0188
N3 N 0.56163(13) 0.1718(5) 0.71651(19)
C7 C 0.56160(16) 0.0452(6) 0.6553(2)
C8 C 0.56084(16) -0.1527(5) 0.6649(2)
N4 N 0.56014(13) -0.2378(4) 0.74340(18)
O3 O 0.56090(14) -0.4123(4) 0.74901(17)
O4 O 0.55858(12) -0.1370(4) 0.80485(16)
C9 C 0.56147(14) -0.2773(5) 0.5981(2)
C10 C 0.56281(15) -0.2051(5) 0.5220(2)
I2 I 0.562716(10) -0.39239(3) 0.422623(14)
C11 C 0.56393(15) -0.0091(5) 0.5095(2)
C12 C 0.56319(16) 0.1112(5) 0.5744(2)
H6 H 0.5621 0.2942 0.7060
H7 H 0.5611 0.1322 0.7671
H8 H 0.5610 -0.4108 0.6062
H9 H 0.5652 0.0403 0.4562
H10 H 0.5638 0.2442 0.5650
loop_
_geom_bond_atom_site_label_1
_geom_bond_atom_site_label_2
_geom_bond_site_symmetry_1
_geom_bond_site_symmetry_2
N1 C1 1_555 1_555
C1 C2 1_555 1_555
C2 N2 1_555 1_555
N2 O1 1_555 1_555
O2 N2 1_555 1_555
C3 C2 1_555 1_555
C4 C3 1_555 1_555
I1 C4 1_555 1_555
C5 C4 1_555 1_555
C6 C1 1_555 1_555
N3 C7 1_555 1_555
C7 C8 1_555 1_555
C8 N4 1_555 1_555
N4 O3 1_555 1_555
O4 N4 1_555 1_555
C9 C8 1_555 1_555
C10 C9 1_555 1_555
I2 C10 1_555 1_555
C11 C10 1_555 1_555
C12 C7 1_555 1_555
H1 N1 1_555 1_555
H2 N1 1_555 1_555
H3 C3 1_555 1_555
H4 C5 1_555 1_555
H5 C6 1_555 1_555
H6 N3 1_555 1_555
H7 N3 1_555 1_555
H8 C9 1_555 1_555
H9 C11 1_555 1_555
H10 C12 1_555 1_555
C5 C6 1_555 1_555
C11 C12 1_555 1_555

#END
