
#######################################################################
#
#                 Cambridge Crystallographic Data Centre
#                                CCDC 
#
#######################################################################
#
# If this CIF has been generated from an entry in the Cambridge 
# Structural Database, then it will include bibliographic, chemical, 
# crystal, experimental, refinement or atomic coordinate data resulting 
# from the CCDC's data processing and validation procedures.
#
#######################################################################

data_CAMVIY
_chemical_formula_moiety         'C28 H29 N2 O7 1+,Cl1 O4 1-'
_chemical_name_systematic        
'3-carbamoyl-1-(27-oxo-6,9,12,15,18-pentaoxatetracyclo[21.3.1.0^5,26^.0^19,24^]heptacosa-1(26),2,4,19,21,23-hexaen-25-yl)pyridinium perchlorate'
_symmetry_cell_setting           monoclinic
_symmetry_space_group_name_H-M   'P 21/c'
_symmetry_Int_Tables_number      14
_space_group_name_Hall           '-P 2ybc'
loop_
_symmetry_equiv_pos_site_id
_symmetry_equiv_pos_as_xyz
1 x,y,z
2 -x,1/2+y,1/2-z
3 -x,-y,-z
4 x,1/2-y,1/2+z
_cell_length_a                   9.2180(14)
_cell_length_b                   23.226(3)
_cell_length_c                   12.3431(18)
_cell_angle_alpha                90
_cell_angle_beta                 96.950(2)
_cell_angle_gamma                90
_cell_volume                     2623.21
_exptl_crystal_colour            colorless
_exptl_crystal_description       Block
_cell_formula_units_Z            4
loop_
_atom_site_label
_atom_site_type_symbol
_atom_site_fract_x
_atom_site_fract_y
_atom_site_fract_z
Cl1 Cl 0.90559(15) 0.31076(5) 0.21473(10)
O1 O 0.8095(4) 0.27843(16) 0.1378(3)
O2 O 0.9709(4) 0.27362(15) 0.2998(3)
O3 O 0.8234(5) 0.35516(16) 0.2624(3)
O4 O 1.0210(5) 0.33670(17) 0.1618(3)
N1 N 0.7829(4) 0.12439(15) 0.0925(3)
O5 O 0.6648(3) 0.04019(14) 0.4320(2)
O6 O 0.5657(3) 0.18035(13) 0.1953(2)
C1 C 0.8446(5) 0.12185(19) 0.1981(4)
H1 H 0.7946 0.1036 0.2516
O7 O 1.1934(3) 0.14644(14) 0.3528(3)
O8 O 0.8120(3) 0.00505(12) 0.1166(2)
C2 C 0.9989(5) -0.0164(2) 0.2587(4)
H2 H 1.0582 -0.0481 0.2948
H3 H 1.0673 0.0129 0.2360
O9 O 0.9168(3) 0.00872(13) 0.3353(2)
O10 O 0.4452(4) 0.10452(15) -0.2629(3)
C3 C 0.7665(5) -0.0017(2) 0.4776(4)
H4 H 0.7167 -0.0301 0.5201
H5 H 0.8446 0.0171 0.5275
C4 C 0.9095(5) -0.03985(19) 0.1581(4)
H6 H 0.9739 -0.0510 0.1029
H7 H 0.8538 -0.0742 0.1766
O11 O 0.6708(3) 0.15775(13) 0.4086(2)
C5 C 0.3072(5) 0.2225(2) -0.0415(4)
H8 H 0.2330 0.2500 -0.0630
C6 C 0.6190(5) 0.0777(2) 0.5128(4)
H9 H 0.7033 0.0876 0.5671
H10 H 0.5445 0.0583 0.5514
C7 C 0.5566(5) 0.1308(2) 0.4589(4)
H11 H 0.4735 0.1212 0.4034
H12 H 0.5212 0.1570 0.5134
C8 C 0.4888(5) 0.18382(19) 0.0951(4)
C9 C 0.5261(5) 0.2203(2) 0.2771(4)
H13 H 0.4291 0.2104 0.2985
H14 H 0.5224 0.2601 0.2483
C10 C 0.5809(5) 0.04899(19) -0.1264(4)
N2 N 0.9781(5) 0.14500(18) 0.4230(3)
C11 C 0.3416(5) 0.1815(2) -0.1149(4)
H15 H 0.2898 0.1804 -0.1862
C12 C 0.4526(4) 0.1416(2) -0.0848(3)
C13 C 1.0598(5) 0.1449(2) 0.3414(4)
C14 C 0.6372(5) 0.09633(19) 0.0602(4)
H16 H 0.6060 0.0783 0.1273
C15 C 0.7512(5) -0.0455(2) -0.0558(4)
H17 H 0.8089 -0.0780 -0.0318
C16 C 0.9796(5) 0.1458(2) 0.2268(4)
C17 C 0.8313(5) -0.0313(2) 0.3876(4)
H18 H 0.8934 -0.0637 0.4175
H19 H 0.7525 -0.0469 0.3341
C18 C 0.6537(5) 0.04869(19) -0.0201(3)
C19 C 0.6419(5) 0.2151(2) 0.3732(4)
H20 H 0.7334 0.2324 0.3538
H21 H 0.6111 0.2376 0.4346
C20 C 0.5245(4) 0.14122(18) 0.0208(3)
C21 C 0.6770(5) -0.0445(2) -0.1605(4)
H22 H 0.6843 -0.0763 -0.2080
C22 C 0.4893(5) 0.0989(2) -0.1668(4)
C23 C 0.8479(5) 0.15023(19) 0.0151(4)
H23 H 0.8006 0.1520 -0.0576
C24 C 0.9843(5) 0.1746(2) 0.0411(4)
H24 H 1.0314 0.1932 -0.0136
C25 C 0.7416(5) 0.00076(19) 0.0139(3)
C26 C 0.3797(5) 0.2239(2) 0.0625(4)
H25 H 0.3552 0.2523 0.1125
C27 C 0.5931(5) 0.0021(2) -0.1956(4)
H26 H 0.5428 0.0025 -0.2675
C28 C 1.0514(5) 0.1717(2) 0.1465(4)
H27 H 1.1465 0.1873 0.1646
H28 H 0.871(6) 0.140(2) 0.409(4)
H29 H 1.038(5) 0.1535(19) 0.490(4)
loop_
_geom_bond_atom_site_label_1
_geom_bond_atom_site_label_2
_geom_bond_site_symmetry_1
_geom_bond_site_symmetry_2
Cl1 O1 1_555 1_555
O2 Cl1 1_555 1_555
O3 Cl1 1_555 1_555
O4 Cl1 1_555 1_555
N1 C1 1_555 1_555
O5 C3 1_555 1_555
O6 C8 1_555 1_555
C1 H1 1_555 1_555
O7 C13 1_555 1_555
O8 C4 1_555 1_555
C2 H2 1_555 1_555
H3 C2 1_555 1_555
O9 C2 1_555 1_555
O10 C22 1_555 1_555
C3 H4 1_555 1_555
H5 C3 1_555 1_555
C4 C2 1_555 1_555
H6 C4 1_555 1_555
H7 C4 1_555 1_555
O11 C7 1_555 1_555
C5 H8 1_555 1_555
C6 O5 1_555 1_555
H9 C6 1_555 1_555
H10 C6 1_555 1_555
C7 C6 1_555 1_555
H11 C7 1_555 1_555
H12 C7 1_555 1_555
C8 C20 1_555 1_555
C9 O6 1_555 1_555
H13 C9 1_555 1_555
H14 C9 1_555 1_555
C10 C18 1_555 1_555
N2 C13 1_555 1_555
C11 C5 1_555 1_555
H15 C11 1_555 1_555
C12 C11 1_555 1_555
C13 C16 1_555 1_555
C14 N1 1_555 1_555
H16 C14 1_555 1_555
C15 H17 1_555 1_555
C16 C1 1_555 1_555
C17 O9 1_555 1_555
H18 C17 1_555 1_555
H19 C17 1_555 1_555
C18 C14 1_555 1_555
C19 O11 1_555 1_555
H20 C19 1_555 1_555
H21 C19 1_555 1_555
C20 C12 1_555 1_555
C21 C15 1_555 1_555
H22 C21 1_555 1_555
C22 C10 1_555 1_555
C23 N1 1_555 1_555
H23 C23 1_555 1_555
C24 C23 1_555 1_555
H24 C24 1_555 1_555
C25 O8 1_555 1_555
C26 C5 1_555 1_555
H25 C26 1_555 1_555
C27 C10 1_555 1_555
H26 C27 1_555 1_555
C28 C16 1_555 1_555
H27 C28 1_555 1_555
H28 N2 1_555 1_555
H29 N2 1_555 1_555
C3 C17 1_555 1_555
C8 C26 1_555 1_555
C9 C19 1_555 1_555
C12 C22 1_555 1_555
C14 C20 1_555 1_555
C15 C25 1_555 1_555
C18 C25 1_555 1_555
C21 C27 1_555 1_555
C24 C28 1_555 1_555

#END
