
#######################################################################
#
#                 Cambridge Crystallographic Data Centre
#                                CCDC 
#
#######################################################################
#
# If this CIF has been generated from an entry in the Cambridge 
# Structural Database, then it will include bibliographic, chemical, 
# crystal, experimental, refinement or atomic coordinate data resulting 
# from the CCDC's data processing and validation procedures.
#
#######################################################################

data_CAPFIL
_chemical_formula_moiety         'C19 H20 F1 N1 O2 S1'
_chemical_name_systematic        
N-(2-(4-fluorophenyl)cyclohex-2-en-1-yl)-4-methylbenzenesulfonamide
_symmetry_cell_setting           monoclinic
_symmetry_space_group_name_H-M   'P 21'
_symmetry_Int_Tables_number      4
_space_group_name_Hall           'P 2yb'
loop_
_symmetry_equiv_pos_site_id
_symmetry_equiv_pos_as_xyz
1 x,y,z
2 -x,1/2+y,-z
_cell_length_a                   8.7134(2)
_cell_length_b                   19.0666(5)
_cell_length_c                   10.8529(3)
_cell_angle_alpha                90
_cell_angle_beta                 95.3310(17)
_cell_angle_gamma                90
_cell_volume                     1795.25
_exptl_crystal_colour            colorless
_cell_formula_units_Z            4
loop_
_atom_site_label
_atom_site_type_symbol
_atom_site_fract_x
_atom_site_fract_y
_atom_site_fract_z
C1 C -0.0206(5) 0.0559(2) 0.3939(4)
H1 H 0.0196 0.0881 0.4595
C2 C -0.0236(7) 0.0934(3) 0.2719(5)
H2 H 0.0811 0.1002 0.2508
H3 H -0.0703 0.1392 0.2789
C3 C -0.1142(7) 0.0519(3) 0.1698(5)
H4 H -0.1119 0.0764 0.0917
H5 H -0.0669 0.0063 0.1619
C4 C -0.2796(7) 0.0428(4) 0.1989(6)
H6 H -0.3364 0.0856 0.1779
H7 H -0.3268 0.0052 0.1484
C5 C -0.2907(6) 0.0260(3) 0.3339(5)
H8 H -0.3860 0.0110 0.3560
C6 C -0.1780(5) 0.0306(2) 0.4232(5)
C7 C -0.2021(5) 0.0129(2) 0.5530(4)
C8 C -0.3015(5) -0.0408(3) 0.5801(5)
H9 H -0.3488 -0.0676 0.5158
C9 C -0.3319(6) -0.0553(3) 0.6999(6)
H10 H -0.4006 -0.0907 0.7162
C10 C -0.2603(7) -0.0173(3) 0.7929(5)
C11 C -0.1599(7) 0.0356(3) 0.7718(6)
H11 H -0.1122 0.0614 0.8373
C12 C -0.1306(6) 0.0502(3) 0.6518(5)
H12 H -0.0615 0.0857 0.6368
C13 C 0.2715(5) 0.0083(2) 0.6096(5)
C14 C 0.2323(6) -0.0476(3) 0.6815(7)
H13 H 0.2008 -0.0897 0.6442
C15 C 0.2400(7) -0.0409(4) 0.8080(8)
H14 H 0.2114 -0.0786 0.8552
C16 C 0.2892(7) 0.0204(4) 0.8667(7)
C17 C 0.3274(7) 0.0761(3) 0.7926(8)
H15 H 0.3592 0.1182 0.8298
C18 C 0.3195(6) 0.0706(3) 0.6671(6)
H16 H 0.3463 0.1086 0.6199
C19 C 0.2974(8) 0.0265(4) 1.0066(7)
H17 H 0.3711 0.0618 1.0342
H18 H 0.3283 -0.0178 1.0433
H19 H 0.1979 0.0391 1.0308
F1 F -0.2895(5) -0.0308(2) 0.9116(3)
N1 N 0.0829(4) -0.00707(18) 0.3959(4)
O1 O 0.3319(4) -0.06640(15) 0.4224(4)
O2 O 0.3218(4) 0.06245(16) 0.3993(4)
S1 S 0.26186(12) -0.00052(6) 0.44865(13)
H20 H 0.0388 -0.0473 0.4381
C20 C 0.3483(5) 0.7276(2) 0.4245(4)
H21 H 0.2923 0.6913 0.3746
C21 C 0.3998(6) 0.6970(3) 0.5510(6)
H22 H 0.3113 0.6921 0.5983
H23 H 0.4433 0.6508 0.5410
C22 C 0.5189(7) 0.7435(4) 0.6213(5)
H24 H 0.4754 0.7897 0.6320
H25 H 0.5470 0.7238 0.7026
C23 C 0.6601(6) 0.7498(3) 0.5527(5)
H26 H 0.7218 0.7890 0.5858
H27 H 0.7216 0.7076 0.5654
C24 C 0.6213(5) 0.7604(2) 0.4200(5)
H28 H 0.7007 0.7749 0.3744
C25 C 0.4836(5) 0.7513(2) 0.3579(5)
C26 C 0.450(4) 0.7604(15) 0.2214(16)
C27 C 0.503(2) 0.8201(11) 0.1625(16)
H29 H 0.5595 0.8534 0.2098
C28 C 0.473(3) 0.8313(10) 0.0370(17)
H30 H 0.5087 0.8710 -0.0010
C29 C 0.388(3) 0.7808(12) -0.0292(14)
C30 C 0.326(2) 0.7246(10) 0.0210(15)
H31 H 0.2635 0.6935 -0.0272
C31 C 0.358(3) 0.7142(10) 0.1491(16)
H32 H 0.3156 0.6756 0.1862
F2 F 0.348(2) 0.7927(11) -0.1548(10)
C32 C 0.0147(5) 0.7814(3) 0.2489(5)
C33 C 0.0417(7) 0.8406(3) 0.1800(6)
H33 H 0.0866 0.8802 0.2185
C34 C 0.0019(8) 0.8407(3) 0.0549(6)
H34 H 0.0199 0.8810 0.0102
C35 C -0.0633(8) 0.7840(4) -0.0072(6)
C36 C -0.0874(8) 0.7255(3) 0.0622(7)
H35 H -0.1303 0.6859 0.0226
C37 C -0.0504(6) 0.7233(3) 0.1888(7)
H36 H -0.0692 0.6829 0.2332
C38 C -0.1004(10) 0.7856(4) -0.1455(7)
H37 H -0.1844 0.7543 -0.1684
H38 H -0.0115 0.7713 -0.1851
H39 H -0.1289 0.8324 -0.1711
N2 N 0.2445(3) 0.78786(18) 0.4360(3)
O3 O 0.0137(3) 0.71583(15) 0.4542(3)
O4 O -0.0010(3) 0.84565(15) 0.4551(3)
S2 S 0.06072(11) 0.78172(6) 0.40851(12)
H40 H 0.2695 0.8344 0.3986
C39? C 0.467(8) 0.774(3) 0.233(3)
C40? C 0.551(5) 0.8305(19) 0.191(3)
H41? H 0.6130 0.8568 0.2481
C41? C 0.545(5) 0.8482(16) 0.067(3)
H42? H 0.5946 0.8878 0.0403
C42? C 0.461(5) 0.8043(16) -0.014(2)
C43? C 0.385(5) 0.7467(17) 0.015(3)
H43? H 0.3307 0.7189 -0.0443
C44? C 0.396(4) 0.7316(19) 0.143(3)
H44? H 0.3514 0.6902 0.1671
F3? F 0.452(5) 0.8201(12) -0.1402(18)
loop_
_geom_bond_atom_site_label_1
_geom_bond_atom_site_label_2
_geom_bond_site_symmetry_1
_geom_bond_site_symmetry_2
C1 H1 1_555 1_555
C2 C1 1_555 1_555
H2 C2 1_555 1_555
H3 C2 1_555 1_555
C3 C2 1_555 1_555
H4 C3 1_555 1_555
H5 C3 1_555 1_555
C4 C3 1_555 1_555
H6 C4 1_555 1_555
H7 C4 1_555 1_555
C5 C4 1_555 1_555
H8 C5 1_555 1_555
C6 C1 1_555 1_555
C7 C6 1_555 1_555
C8 C7 1_555 1_555
H9 C8 1_555 1_555
C9 C8 1_555 1_555
H10 C9 1_555 1_555
C10 C9 1_555 1_555
C11 C10 1_555 1_555
H11 C11 1_555 1_555
C12 C7 1_555 1_555
H12 C12 1_555 1_555
C13 C14 1_555 1_555
C14 H13 1_555 1_555
C15 C14 1_555 1_555
H14 C15 1_555 1_555
C16 C15 1_555 1_555
C17 C16 1_555 1_555
H15 C17 1_555 1_555
C18 C13 1_555 1_555
H16 C18 1_555 1_555
C19 C16 1_555 1_555
H17 C19 1_555 1_555
H18 C19 1_555 1_555
H19 C19 1_555 1_555
F1 C10 1_555 1_555
N1 C1 1_555 1_555
O1 S1 1_555 1_555
O2 S1 1_555 1_555
S1 C13 1_555 1_555
H20 N1 1_555 1_555
C20 H21 1_555 1_555
C21 C20 1_555 1_555
H22 C21 1_555 1_555
H23 C21 1_555 1_555
C22 C21 1_555 1_555
H24 C22 1_555 1_555
H25 C22 1_555 1_555
C23 C22 1_555 1_555
H26 C23 1_555 1_555
H27 C23 1_555 1_555
C24 C23 1_555 1_555
H28 C24 1_555 1_555
C25 C20 1_555 1_555
C26 C25 1_555 1_555
C27 C26 1_555 1_555
H29 C27 1_555 1_555
C28 C27 1_555 1_555
H30 C28 1_555 1_555
C29 C28 1_555 1_555
C30 C29 1_555 1_555
H31 C30 1_555 1_555
C31 C26 1_555 1_555
H32 C31 1_555 1_555
F2 C29 1_555 1_555
C32 C33 1_555 1_555
C33 H33 1_555 1_555
C34 C33 1_555 1_555
H34 C34 1_555 1_555
C35 C34 1_555 1_555
C36 C35 1_555 1_555
H35 C36 1_555 1_555
C37 C32 1_555 1_555
H36 C37 1_555 1_555
C38 C35 1_555 1_555
H37 C38 1_555 1_555
H38 C38 1_555 1_555
H39 C38 1_555 1_555
N2 C20 1_555 1_555
O3 S2 1_555 1_555
O4 S2 1_555 1_555
S2 C32 1_555 1_555
H40 N2 1_555 1_555
C5 C6 1_555 1_555
C11 C12 1_555 1_555
C17 C18 1_555 1_555
N1 S1 1_555 1_555
C24 C25 1_555 1_555
C30 C31 1_555 1_555
C36 C37 1_555 1_555
N2 S2 1_555 1_555

#END
