
#######################################################################
#
#                 Cambridge Crystallographic Data Centre
#                                CCDC 
#
#######################################################################
#
# If this CIF has been generated from an entry in the Cambridge 
# Structural Database, then it will include bibliographic, chemical, 
# crystal, experimental, refinement or atomic coordinate data resulting 
# from the CCDC's data processing and validation procedures.
#
#######################################################################

data_CAPHEI
_chemical_formula_moiety         'C11 H12 N2 O3'
_chemical_name_systematic        'Methyl 2-(benzoylhydrazono)propanoate'
_symmetry_cell_setting           orthorhombic
_symmetry_space_group_name_H-M   'P n a 21'
_symmetry_Int_Tables_number      33
_space_group_name_Hall           'P 2c -2n'
loop_
_symmetry_equiv_pos_site_id
_symmetry_equiv_pos_as_xyz
1 x,y,z
2 -x,-y,1/2+z
3 1/2+x,1/2-y,z
4 1/2-x,1/2+y,1/2+z
_cell_length_a                   8.0735(8)
_cell_length_b                   8.4887(8)
_cell_length_c                   16.0227(16)
_cell_angle_alpha                90
_cell_angle_beta                 90
_cell_angle_gamma                90
_cell_volume                     1098.09
_exptl_crystal_colour            colorless
_exptl_crystal_description       block
_cell_formula_units_Z            4
loop_
_atom_site_label
_atom_site_type_symbol
_atom_site_fract_x
_atom_site_fract_y
_atom_site_fract_z
C1 C 0.6356(2) 0.4395(2) 0.15812(14)
C2 C 0.7288(3) 0.3489(2) 0.10318(13)
H1 H 0.7062 0.2397 0.0971
C3 C 0.8556(3) 0.4187(3) 0.05696(14)
H2 H 0.9187 0.3570 0.0191
C4 C 0.8898(3) 0.5776(3) 0.06610(16)
H3 H 0.9775 0.6240 0.0351
C5 C 0.79637(19) 0.66989(18) 0.12056(11)
H4 H 0.8201 0.7789 0.1267
C6 C 0.66829(19) 0.60135(18) 0.16576(11)
H5 H 0.6026 0.6642 0.2020
C7 C 0.4947(3) 0.3735(2) 0.20791(15)
O1 O 0.36110(18) 0.44269(18) 0.21329(10)
N1 N 0.5238(2) 0.2313(2) 0.24619(11)
H6 H 0.623(3) 0.193(3) 0.2487(15)
N2 N 0.4015(2) 0.1743(2) 0.29734(11)
C8 C 0.4288(3) 0.0433(3) 0.33512(14)
C9 C 0.5811(3) -0.0566(3) 0.32801(17)
H7 H 0.6052 -0.0765 0.2690
H8 H 0.5629 -0.1570 0.3567
H9 H 0.6750 -0.0016 0.3536
C10 C 0.2913(2) -0.0153(3) 0.39101(15)
O2 O 0.29880(18) -0.13939(18) 0.42804(11)
O3 O 0.16133(17) 0.08260(18) 0.39459(10)
C11 C 0.0246(3) 0.0277(3) 0.44651(17)
H10 H 0.0631 0.0144 0.5041
H11 H -0.0159 -0.0734 0.4252
H12 H -0.0653 0.1053 0.4451
loop_
_geom_bond_atom_site_label_1
_geom_bond_atom_site_label_2
_geom_bond_site_symmetry_1
_geom_bond_site_symmetry_2
C1 C2 1_555 1_555
C2 H1 1_555 1_555
C3 C2 1_555 1_555
H2 C3 1_555 1_555
C4 C3 1_555 1_555
H3 C4 1_555 1_555
C5 C4 1_555 1_555
H4 C5 1_555 1_555
C6 C1 1_555 1_555
H5 C6 1_555 1_555
C7 C1 1_555 1_555
O1 C7 1_555 1_555
N1 C7 1_555 1_555
H6 N1 1_555 1_555
N2 N1 1_555 1_555
C8 N2 1_555 1_555
C9 C8 1_555 1_555
H7 C9 1_555 1_555
H8 C9 1_555 1_555
H9 C9 1_555 1_555
C10 C8 1_555 1_555
O2 C10 1_555 1_555
O3 C10 1_555 1_555
C11 O3 1_555 1_555
H10 C11 1_555 1_555
H11 C11 1_555 1_555
H12 C11 1_555 1_555
C5 C6 1_555 1_555

#END
