
#######################################################################
#
#                 Cambridge Crystallographic Data Centre
#                                CCDC 
#
#######################################################################
#
# If this CIF has been generated from an entry in the Cambridge 
# Structural Database, then it will include bibliographic, chemical, 
# crystal, experimental, refinement or atomic coordinate data resulting 
# from the CCDC's data processing and validation procedures.
#
#######################################################################

data_CAPHEJ
_chemical_formula_moiety         'C17 H13 F1 O3'
_chemical_name_systematic        4-(4-fluorobenzoyl)-7-methoxyindan-1-one
_symmetry_cell_setting           monoclinic
_symmetry_space_group_name_H-M   'P 21/c'
_symmetry_Int_Tables_number      14
_space_group_name_Hall           '-P 2ybc'
loop_
_symmetry_equiv_pos_site_id
_symmetry_equiv_pos_as_xyz
1 x,y,z
2 -x,1/2+y,1/2-z
3 -x,-y,-z
4 x,1/2-y,1/2+z
_cell_length_a                   8.3612(5)
_cell_length_b                   9.7501(5)
_cell_length_c                   17.0852(9)
_cell_angle_alpha                90
_cell_angle_beta                 95.7920(10)
_cell_angle_gamma                90
_cell_volume                     1385.72
_exptl_crystal_colour            colorless
_exptl_crystal_description       Tabullar
_cell_formula_units_Z            4
loop_
_atom_site_label
_atom_site_type_symbol
_atom_site_fract_x
_atom_site_fract_y
_atom_site_fract_z
F1 F 0.01442(18) 0.88618(19) 0.64745(7)
O1 O 0.38639(15) 0.35865(11) 1.12196(7)
O2 O 0.60768(18) 0.52653(15) 1.22117(8)
O3 O 0.2412(2) 0.96565(13) 1.00544(9)
C1 C 0.0721(3) 0.8810(2) 0.72487(13)
C2 C 0.1911(3) 0.7912(2) 0.74718(11)
H1 H 0.2356 0.7365 0.7104
C3 C 0.2450(2) 0.78269(18) 0.82661(10)
H2 H 0.3250 0.7200 0.8435
C4 C 0.1812(2) 0.86650(16) 0.88086(10)
C5 C 0.2378(2) 0.86114(17) 0.96630(11)
C6 C 0.2859(2) 0.72706(16) 1.00315(9)
C7 C 0.3982(2) 0.71893(16) 1.06980(9)
C8 C 0.4322(2) 0.59390(16) 1.10673(9)
C9 C 0.3513(2) 0.47373(16) 1.08012(9)
C10 C 0.3017(3) 0.2347(2) 1.09836(14)
H3 H 0.1885 0.2483 1.1004
H4 H 0.3383 0.1616 1.1333
H5 H 0.3219 0.2115 1.0456
C11 C 0.2415(2) 0.48102(16) 1.01396(9)
H6 H 0.1880 0.4024 0.9947
C12 C 0.2115(2) 0.60573(16) 0.97654(10)
H7 H 0.1385 0.6085 0.9317
C13 C 0.5555(2) 0.61246(19) 1.17412(11)
C14 C 0.6053(3) 0.7618(2) 1.17457(12)
H8 H 0.7168 0.7700 1.1641
H9 H 0.5936 0.8027 1.2254
C15 C 0.4964(2) 0.83339(18) 1.11073(11)
H10 H 0.4274 0.8993 1.1334
H11 H 0.5591 0.8806 1.0743
C16 C 0.0616(3) 0.9593(2) 0.85466(13)
H12 H 0.0191 1.0178 0.8903
C17 C 0.0058(3) 0.9650(2) 0.77590(15)
H13 H -0.0760 1.0255 0.7581
loop_
_geom_bond_atom_site_label_1
_geom_bond_atom_site_label_2
_geom_bond_site_symmetry_1
_geom_bond_site_symmetry_2
F1 C1 1_555 1_555
O1 C9 1_555 1_555
O2 C13 1_555 1_555
O3 C5 1_555 1_555
C1 C2 1_555 1_555
C2 H1 1_555 1_555
C3 C2 1_555 1_555
H2 C3 1_555 1_555
C4 C3 1_555 1_555
C5 C4 1_555 1_555
C6 C5 1_555 1_555
C7 C6 1_555 1_555
C8 C7 1_555 1_555
C9 C8 1_555 1_555
C10 O1 1_555 1_555
H3 C10 1_555 1_555
H4 C10 1_555 1_555
H5 C10 1_555 1_555
C11 C9 1_555 1_555
H6 C11 1_555 1_555
C12 C6 1_555 1_555
H7 C12 1_555 1_555
C13 C8 1_555 1_555
C14 C13 1_555 1_555
H8 C14 1_555 1_555
H9 C14 1_555 1_555
C15 C7 1_555 1_555
H10 C15 1_555 1_555
H11 C15 1_555 1_555
C16 C4 1_555 1_555
H12 C16 1_555 1_555
C17 C1 1_555 1_555
H13 C17 1_555 1_555
C11 C12 1_555 1_555
C14 C15 1_555 1_555
C16 C17 1_555 1_555

#END
