
#######################################################################
#
#                 Cambridge Crystallographic Data Centre
#                                CCDC 
#
#######################################################################
#
# If this CIF has been generated from an entry in the Cambridge 
# Structural Database, then it will include bibliographic, chemical, 
# crystal, experimental, refinement or atomic coordinate data resulting 
# from the CCDC's data processing and validation procedures.
#
#######################################################################

data_CAPPUH
_chemical_formula_moiety         'C25 H25 Br1 N2 O8'
_chemical_name_systematic        
'diethyl 4-(3-bromophenyl)-2-(3-nitrophenyl)-6-oxo-7-oxa-1-azaspiro[4.4]nonane-3,3-dicarboxylate'
_symmetry_cell_setting           orthorhombic
_symmetry_space_group_name_H-M   'P n a 21'
_symmetry_Int_Tables_number      33
_space_group_name_Hall           'P 2c -2n'
loop_
_symmetry_equiv_pos_site_id
_symmetry_equiv_pos_as_xyz
1 x,y,z
2 -x,-y,1/2+z
3 1/2+x,1/2-y,z
4 1/2-x,1/2+y,1/2+z
_cell_length_a                   11.092(2)
_cell_length_b                   24.251(4)
_cell_length_c                   9.3398(16)
_cell_angle_alpha                90
_cell_angle_beta                 90
_cell_angle_gamma                90
_cell_volume                     2512.33
_exptl_crystal_colour            colorless
_exptl_crystal_description       Prism
_cell_formula_units_Z            4
loop_
_atom_site_label
_atom_site_type_symbol
_atom_site_fract_x
_atom_site_fract_y
_atom_site_fract_z
Br1 Br 0.71493(2) 0.640107(10) 0.06242(3)
O1 O 0.44237(13) 0.79112(6) 0.68306(16)
O2 O 0.54482(13) 0.71242(6) 0.66284(16)
O3 O 0.17635(14) 0.54804(6) 0.41997(17)
O4 O 0.37719(14) 0.55794(6) 0.39745(19)
O5 O 0.14817(13) 0.63739(6) 0.23873(15)
O6 O 0.07891(13) 0.69382(6) 0.41031(17)
O7 O 0.23772(18) 0.41846(7) 0.9090(2)
O8 O 0.09088(18) 0.45262(8) 0.7861(3)
N1 N 0.26134(16) 0.69810(7) 0.6627(2)
N2 N 0.1916(2) 0.45569(9) 0.8394(3)
C1 C 0.3343(2) 0.81575(9) 0.6201(2)
H1 H 0.3516 0.8534 0.5845
H2 H 0.2686 0.8178 0.6917
C2 C 0.29933(19) 0.77786(9) 0.4973(2)
H3 H 0.3408 0.7884 0.4075
H4 H 0.2111 0.7780 0.4812
C3 C 0.34305(16) 0.72166(8) 0.5522(2)
C4 C 0.45555(19) 0.73968(9) 0.6346(2)
C5 C 0.36747(17) 0.67349(8) 0.4482(2)
H5 H 0.4332 0.6515 0.4943
C6 C 0.25280(19) 0.63661(8) 0.4598(2)
C7 C 0.22060(18) 0.64258(8) 0.6222(2)
H6 H 0.1309 0.6410 0.6325
C8 C 0.41289(18) 0.68584(8) 0.2982(2)
C9 C 0.3475(2) 0.71699(9) 0.1983(2)
H7 H 0.2732 0.7333 0.2256
C10 C 0.39053(18) 0.72419(8) 0.0593(3)
H8 H 0.3444 0.7447 -0.0078
C11 C 0.5000(2) 0.70164(10) 0.0185(2)
H9 H 0.5301 0.7066 -0.0759
C12 C 0.5637(2) 0.67186(9) 0.1182(2)
C13 C 0.52330(19) 0.66349(8) 0.2562(2)
H10 H 0.5702 0.6427 0.3220
C14 C 0.27579(18) 0.59689(9) 0.7131(2)
C15 C 0.3916(2) 0.60036(10) 0.7701(3)
H11 H 0.4372 0.6331 0.7560
C16 C 0.4415(2) 0.55722(10) 0.8467(3)
H12 H 0.5210 0.5606 0.8834
C17 C 0.3774(2) 0.50932(10) 0.8703(3)
H13 H 0.4112 0.4795 0.9227
C18 C 0.2621(2) 0.50647(9) 0.8148(2)
C19 C 0.2105(2) 0.54869(10) 0.7379(2)
H14 H 0.1308 0.5450 0.7019
C20 C 0.2786(2) 0.57714(9) 0.4193(2)
C21 C 0.1853(3) 0.48989(10) 0.3864(3)
H15 H 0.1145 0.4703 0.4263
H16 H 0.2585 0.4745 0.4319
C22 C 0.1909(3) 0.48032(14) 0.2288(4)
H17 H 0.1198 0.4966 0.1831
H18 H 0.1929 0.4406 0.2097
H19 H 0.2639 0.4975 0.1900
C23 C 0.14873(18) 0.65920(8) 0.3690(2)
C24 C 0.0563(2) 0.65830(10) 0.1432(2)
H20 H 0.0620 0.6990 0.1363
H21 H -0.0248 0.6487 0.1799
C25 C 0.0753(3) 0.63304(13) 0.0002(3)
H22 H 0.1566 0.6418 -0.0339
H23 H 0.0157 0.6477 -0.0673
H24 H 0.0661 0.5929 0.0074
H25 H 0.201(2) 0.7209(11) 0.678(3)
loop_
_geom_bond_atom_site_label_1
_geom_bond_atom_site_label_2
_geom_bond_site_symmetry_1
_geom_bond_site_symmetry_2
Br1 C12 1_555 1_555
O1 C1 1_555 1_555
O2 C4 1_555 1_555
O3 C20 1_555 1_555
O4 C20 1_555 1_555
O5 C23 1_555 1_555
O6 C23 1_555 1_555
O7 N2 1_555 1_555
O8 N2 1_555 1_555
N1 C3 1_555 1_555
N2 C18 1_555 1_555
C1 H1 1_555 1_555
H2 C1 1_555 1_555
C2 C1 1_555 1_555
H3 C2 1_555 1_555
H4 C2 1_555 1_555
C3 C2 1_555 1_555
C4 O1 1_555 1_555
C5 C3 1_555 1_555
H5 C5 1_555 1_555
C6 C5 1_555 1_555
C7 N1 1_555 1_555
H6 C7 1_555 1_555
C8 C5 1_555 1_555
C9 C8 1_555 1_555
H7 C9 1_555 1_555
C10 C9 1_555 1_555
H8 C10 1_555 1_555
C11 C10 1_555 1_555
H9 C11 1_555 1_555
C12 C11 1_555 1_555
C13 C8 1_555 1_555
H10 C13 1_555 1_555
C14 C7 1_555 1_555
C15 C14 1_555 1_555
H11 C15 1_555 1_555
C16 C15 1_555 1_555
H12 C16 1_555 1_555
C17 C16 1_555 1_555
H13 C17 1_555 1_555
C18 C17 1_555 1_555
C19 C14 1_555 1_555
H14 C19 1_555 1_555
C20 C6 1_555 1_555
C21 O3 1_555 1_555
H15 C21 1_555 1_555
H16 C21 1_555 1_555
C22 C21 1_555 1_555
H17 C22 1_555 1_555
H18 C22 1_555 1_555
H19 C22 1_555 1_555
C23 C6 1_555 1_555
C24 O5 1_555 1_555
H20 C24 1_555 1_555
H21 C24 1_555 1_555
C25 C24 1_555 1_555
H22 C25 1_555 1_555
H23 C25 1_555 1_555
H24 C25 1_555 1_555
H25 N1 1_555 1_555
C3 C4 1_555 1_555
C6 C7 1_555 1_555
C12 C13 1_555 1_555
C18 C19 1_555 1_555

#END
