
#######################################################################
#
#                 Cambridge Crystallographic Data Centre
#                                CCDC 
#
#######################################################################
#
# If this CIF has been generated from an entry in the Cambridge 
# Structural Database, then it will include bibliographic, chemical, 
# crystal, experimental, refinement or atomic coordinate data resulting 
# from the CCDC's data processing and validation procedures.
#
#######################################################################

data_CAPZOL
_chemical_formula_moiety         'C25 H27 Br1 N2 O4'
_chemical_name_systematic        
'ethyl [2-(benzyloxy)-6-bromo-4,4,9-trimethyl-3-oxo-2,3,4,9-tetrahydro-1H-\b-carbolin-1-yl]acetate'
_symmetry_cell_setting           monoclinic
_symmetry_space_group_name_H-M   'P 21/c'
_symmetry_Int_Tables_number      14
_space_group_name_Hall           '-P 2ybc'
loop_
_symmetry_equiv_pos_site_id
_symmetry_equiv_pos_as_xyz
1 x,y,z
2 -x,1/2+y,1/2-z
3 -x,-y,-z
4 x,1/2-y,1/2+z
_cell_length_a                   13.452(5)
_cell_length_b                   9.374(3)
_cell_length_c                   19.421(7)
_cell_angle_alpha                90
_cell_angle_beta                 104.972(4)
_cell_angle_gamma                90
_cell_volume                     2365.83
_exptl_crystal_colour            colorless
_exptl_crystal_description       block
_cell_formula_units_Z            4
loop_
_atom_site_label
_atom_site_type_symbol
_atom_site_fract_x
_atom_site_fract_y
_atom_site_fract_z
Br1 Br 1.37040(2) 0.52032(4) 0.02713(2)
C1 C 1.08402(19) 0.3608(2) -0.07216(11)
H1 H 1.0442 0.3503 -0.1187
C2 C 1.17986(19) 0.4187(3) -0.05835(12)
H2 H 1.2061 0.4493 -0.0957
C3 C 1.23871(18) 0.4321(3) 0.01174(13)
C4 C 1.20558(18) 0.3875(2) 0.06950(12)
H3 H 1.2477 0.3953 0.1156
C5 C 1.10636(16) 0.3297(2) 0.05691(10)
C6 C 1.04727(17) 0.3177(2) -0.01495(11)
C7 C 0.86855(19) 0.2381(3) -0.07826(12)
H4 H 0.8614 0.3205 -0.1085
H5 H 0.8059 0.2233 -0.0642
H6 H 0.8826 0.1559 -0.1037
C8 C 0.95144(17) 0.2378(2) 0.05499(10)
C9 C 1.04224(16) 0.2776(2) 0.10061(11)
C10 C 1.06151(17) 0.2624(2) 0.18076(11)
C11 C 1.1174(2) 0.3927(3) 0.22061(12)
H7 H 1.1848 0.3996 0.2127
H8 H 1.1235 0.3824 0.2707
H9 H 1.0790 0.4775 0.2034
C12 C 1.1252(2) 0.1263(3) 0.20677(13)
H10 H 1.0868 0.0438 0.1858
H11 H 1.1397 0.1202 0.2577
H12 H 1.1887 0.1303 0.1929
C13 C 0.96076(18) 0.2440(2) 0.20260(11)
C14 C 0.86020(17) 0.1843(2) 0.07561(11)
H13 H 0.8000 0.2361 0.0475
C15 C 0.8396(2) 0.0226(2) 0.06261(14)
H14 H 0.8650 -0.0079 0.0226
H15 H 0.8763 -0.0304 0.1044
C16 C 0.7266(2) -0.0089(3) 0.04745(16)
C17 C 0.5981(2) -0.1497(4) 0.07623(19)
H16 H 0.5710 -0.1956 0.0305
H17 H 0.5590 -0.0631 0.0774
C18 C 0.5893(3) -0.2454(4) 0.1339(2)
H18 H 0.6235 -0.3338 0.1300
H19 H 0.5179 -0.2635 0.1306
H20 H 0.6207 -0.2017 0.1790
C19 C 0.7228(2) 0.2838(3) 0.18424(16)
H21 H 0.7072 0.3472 0.1434
H22 H 0.7560 0.3384 0.2263
C20 C 0.62684(19) 0.2145(3) 0.19347(13)
C21 C 0.5367(2) 0.2228(4) 0.14093(15)
H23 H 0.5344 0.2763 0.1002
C22 C 0.4502(3) 0.1537(5) 0.14737(19)
H24 H 0.3890 0.1626 0.1119
C23 C 0.4537(3) 0.0712(4) 0.2062(2)
H25 H 0.3953 0.0220 0.2101
C24 C 0.5426(3) 0.0612(4) 0.25899(19)
H26 H 0.5452 0.0052 0.2989
C25 C 0.6281(2) 0.1341(3) 0.25292(14)
H27 H 0.6881 0.1291 0.2896
N1 N 0.95319(14) 0.2603(2) -0.01505(9)
N2 N 0.87266(14) 0.2199(2) 0.15045(9)
O1 O 0.95877(14) 0.2519(2) 0.26501(8)
O2 O 0.78791(12) 0.16955(17) 0.17354(8)
O3 O 0.66229(19) 0.0580(3) 0.00571(14)
O4 O 0.70603(14) -0.11584(19) 0.08601(11)
loop_
_geom_bond_atom_site_label_1
_geom_bond_atom_site_label_2
_geom_bond_site_symmetry_1
_geom_bond_site_symmetry_2
Br1 C3 1_555 1_555
C1 H1 1_555 1_555
C2 C1 1_555 1_555
H2 C2 1_555 1_555
C3 C2 1_555 1_555
C4 C3 1_555 1_555
H3 C4 1_555 1_555
C5 C4 1_555 1_555
C6 C1 1_555 1_555
C7 H4 1_555 1_555
H5 C7 1_555 1_555
H6 C7 1_555 1_555
C8 C9 1_555 1_555
C9 C5 1_555 1_555
C10 C9 1_555 1_555
C11 C10 1_555 1_555
H7 C11 1_555 1_555
H8 C11 1_555 1_555
H9 C11 1_555 1_555
C12 C10 1_555 1_555
H10 C12 1_555 1_555
H11 C12 1_555 1_555
H12 C12 1_555 1_555
C13 C10 1_555 1_555
C14 C8 1_555 1_555
H13 C14 1_555 1_555
C15 C14 1_555 1_555
H14 C15 1_555 1_555
H15 C15 1_555 1_555
C16 C15 1_555 1_555
C17 H16 1_555 1_555
H17 C17 1_555 1_555
C18 C17 1_555 1_555
H18 C18 1_555 1_555
H19 C18 1_555 1_555
H20 C18 1_555 1_555
C19 H21 1_555 1_555
H22 C19 1_555 1_555
C20 C19 1_555 1_555
C21 C20 1_555 1_555
H23 C21 1_555 1_555
C22 C21 1_555 1_555
H24 C22 1_555 1_555
C23 C22 1_555 1_555
H25 C23 1_555 1_555
C24 C23 1_555 1_555
H26 C24 1_555 1_555
C25 C20 1_555 1_555
H27 C25 1_555 1_555
N1 C6 1_555 1_555
N2 C13 1_555 1_555
O1 C13 1_555 1_555
O2 C19 1_555 1_555
O3 C16 1_555 1_555
O4 C16 1_555 1_555
C5 C6 1_555 1_555
C7 N1 1_555 1_555
C8 N1 1_555 1_555
C14 N2 1_555 1_555
C17 O4 1_555 1_555
C24 C25 1_555 1_555
N2 O2 1_555 1_555

#END
