
#######################################################################
#
#                 Cambridge Crystallographic Data Centre
#                                CCDC 
#
#######################################################################
#
# If this CIF has been generated from an entry in the Cambridge 
# Structural Database, then it will include bibliographic, chemical, 
# crystal, experimental, refinement or atomic coordinate data resulting 
# from the CCDC's data processing and validation procedures.
#
#######################################################################

data_CAQKOW
_chemical_formula_moiety         'C10 H16 N4 Se2 2+,2(C1 F3 O3 S1 1-)'
_chemical_name_systematic        
'bis(1,3-dimethyl-1,3-dihydro-2H-imidazol-2-ylidene)diselanediium bis(trifluoromethanesulfonate)'
_symmetry_cell_setting           monoclinic
_symmetry_space_group_name_H-M   'P 21/c'
_symmetry_Int_Tables_number      14
_space_group_name_Hall           '-P 2ybc'
loop_
_symmetry_equiv_pos_site_id
_symmetry_equiv_pos_as_xyz
1 x,y,z
2 -x,1/2+y,1/2-z
3 -x,-y,-z
4 x,1/2-y,1/2+z
_cell_length_a                   8.5501(17)
_cell_length_b                   20.249(4)
_cell_length_c                   13.002(3)
_cell_angle_alpha                90
_cell_angle_beta                 100.53(3)
_cell_angle_gamma                90
_cell_volume                     2213.14
_exptl_crystal_colour            yellow
_exptl_crystal_description       rod
_cell_formula_units_Z            4
loop_
_atom_site_label
_atom_site_type_symbol
_atom_site_fract_x
_atom_site_fract_y
_atom_site_fract_z
Se1 Se 0.41540(3) 0.404113(14) 0.59610(2)
Se2 Se 0.16871(3) 0.353351(15) 0.53111(2)
C1 C 0.3352(3) 0.46592(15) 0.6817(2)
C2 C 0.4209(5) 0.40779(19) 0.8525(3)
H1 H 0.5229 0.3981 0.8352
H2 H 0.3548 0.3692 0.8416
H3 H 0.4344 0.4209 0.9246
C3 C 0.2781(4) 0.51705(18) 0.8210(3)
H4 H 0.2704 0.5264 0.8900
C4 C 0.2253(4) 0.55530(18) 0.7368(3)
H5 H 0.1745 0.5959 0.7368
C5 C 0.2297(4) 0.54892(18) 0.5442(3)
H6 H 0.1732 0.5164 0.4979
H7 H 0.3288 0.5589 0.5229
H8 H 0.1667 0.5883 0.5416
C6 C 0.1613(3) 0.30287(15) 0.6527(2)
C7 C 0.3905(4) 0.22663(17) 0.6435(3)
H9 H 0.3602 0.2273 0.5687
H10 H 0.4131 0.1821 0.6667
H11 H 0.4836 0.2534 0.6643
C8 C 0.2204(4) 0.23083(17) 0.7823(3)
H12 H 0.2706 0.1972 0.8246
C9 C 0.0951(4) 0.26717(17) 0.7995(3)
H13 H 0.0423 0.2627 0.8556
C10 C -0.0706(4) 0.36038(19) 0.7076(3)
H14 H -0.0297 0.4036 0.6973
H15 H -0.1166 0.3603 0.7696
H16 H -0.1504 0.3488 0.6484
N1 N 0.3455(3) 0.46160(14) 0.7857(2)
N2 N 0.2607(3) 0.52304(13) 0.6511(2)
N3 N 0.2596(3) 0.25290(13) 0.6908(2)
N4 N 0.0598(3) 0.31187(13) 0.7191(2)
C11 C 0.8109(4) 0.5410(2) 0.8564(3)
S1 S 0.72755(9) 0.53983(4) 0.71717(6)
O1 O 0.6860(3) 0.47101(12) 0.69943(19)
O2 O 0.8572(3) 0.56218(14) 0.6693(2)
O4 O 0.5947(3) 0.58429(13) 0.7085(2)
F1 F 0.9335(3) 0.49999(15) 0.88135(19)
F2 F 0.7017(3) 0.52276(17) 0.91331(19)
F3 F 0.8599(4) 0.60102(15) 0.8891(2)
C12 C 0.7583(4) 0.3130(2) 0.0302(3)
S2 S 0.70859(10) 0.24247(4) -0.05551(7)
O3 O 0.6425(5) 0.27317(18) -0.1522(2)
O5 O 0.6030(4) 0.20476(15) -0.0063(3)
O6 O 0.8621(3) 0.21197(15) -0.0530(3)
F4 F 0.8485(4) 0.35557(16) -0.0104(3)
F5 F 0.6297(3) 0.34679(11) 0.04434(19)
F6 F 0.8342(4) 0.29595(16) 0.1240(2)
loop_
_geom_bond_atom_site_label_1
_geom_bond_atom_site_label_2
_geom_bond_site_symmetry_1
_geom_bond_site_symmetry_2
Se1 Se2 1_555 1_555
Se2 C6 1_555 1_555
C1 Se1 1_555 1_555
C2 H1 1_555 1_555
H2 C2 1_555 1_555
H3 C2 1_555 1_555
C3 H4 1_555 1_555
C4 C3 1_555 1_555
H5 C4 1_555 1_555
C5 H6 1_555 1_555
H7 C5 1_555 1_555
H8 C5 1_555 1_555
C6 N3 1_555 1_555
C7 H9 1_555 1_555
H10 C7 1_555 1_555
H11 C7 1_555 1_555
C8 H12 1_555 1_555
C9 C8 1_555 1_555
H13 C9 1_555 1_555
C10 H14 1_555 1_555
H15 C10 1_555 1_555
H16 C10 1_555 1_555
C11 S1 1_555 1_555
C12 S2 1_555 1_555
N1 C1 1_555 1_555
N2 C1 1_555 1_555
N3 C7 1_555 1_555
N4 C6 1_555 1_555
S1 O1 1_555 1_555
S2 O3 1_555 1_555
O2 S1 1_555 1_555
O4 S1 1_555 1_555
O5 S2 1_555 1_555
O6 S2 1_555 1_555
F1 C11 1_555 1_555
F2 C11 1_555 1_555
F3 C11 1_555 1_555
F4 C12 1_555 1_555
F5 C12 1_555 1_555
F6 C12 1_555 1_555
C2 N1 1_555 1_555
C3 N1 1_555 1_555
C4 N2 1_555 1_555
C5 N2 1_555 1_555
C8 N3 1_555 1_555
C9 N4 1_555 1_555
C10 N4 1_555 1_555

#END
