
#######################################################################
#
#                 Cambridge Crystallographic Data Centre
#                                CCDC 
#
#######################################################################
#
# If this CIF has been generated from an entry in the Cambridge 
# Structural Database, then it will include bibliographic, chemical, 
# crystal, experimental, refinement or atomic coordinate data resulting 
# from the CCDC's data processing and validation procedures.
#
#######################################################################

data_CAQYAX
_chemical_formula_moiety         'C34 H59 B1 K1 N5 Si2'
_chemical_name_systematic        
(N,N-bis(2-(dimethylamino)ethyl)-N',N'-dimethylethane-1,2-diamine)-(N-(dimethylsilyl)-1,1-dimethyl-N-(triphenylboranyl)silanamine)-potassium
_symmetry_cell_setting           monoclinic
_symmetry_space_group_name_H-M   'P 21/n'
_symmetry_Int_Tables_number      14
_space_group_name_Hall           '-P 2yn'
loop_
_symmetry_equiv_pos_site_id
_symmetry_equiv_pos_as_xyz
1 x,y,z
2 1/2-x,1/2+y,1/2-z
3 -x,-y,-z
4 1/2+x,1/2-y,1/2+z
_cell_length_a                   10.8965(6)
_cell_length_b                   23.2455(14)
_cell_length_c                   14.9578(9)
_cell_angle_alpha                90
_cell_angle_beta                 91.6063(10)
_cell_angle_gamma                90
_cell_volume                     3787.24
_exptl_crystal_colour            colorless
_exptl_crystal_description       block
_cell_formula_units_Z            4
_exptl_crystal_recrystallization_method tetrahydrofuran
loop_
_atom_site_label
_atom_site_type_symbol
_atom_site_fract_x
_atom_site_fract_y
_atom_site_fract_z
K1 K 0.43323(3) 0.76725(2) 0.76685(2)
Si1 Si 0.42831(4) 0.60993(2) 0.64689(3)
H1 H 0.4033(15) 0.6642(7) 0.6860(11)
Si2 Si 0.61159(4) 0.51974(2) 0.64861(3)
H2 H 0.5118(15) 0.4985(7) 0.5953(11)
N1 N 0.39961(13) 0.83208(6) 0.60690(9)
N2 N 0.18012(12) 0.73014(6) 0.78551(9)
N3 N 0.46793(13) 0.85300(6) 0.90434(10)
N4 N 0.24388(13) 0.85870(6) 0.77039(10)
N5 N 0.56341(11) 0.58377(5) 0.69314(8)
B1 B 0.62474(15) 0.61664(7) 0.77681(11)
C1 C 0.4046(2) 0.79179(10) 0.53136(13)
H3 H 0.341(2) 0.7650(10) 0.5346(16)
H4 H 0.489(2) 0.7700(10) 0.5345(16)
H5 H 0.393(2) 0.8133(10) 0.4761(16)
C2 C 0.4995(2) 0.87394(8) 0.59845(16)
H6 H 0.488(2) 0.8972(10) 0.5445(16)
H7 H 0.580(2) 0.8532(10) 0.5937(16)
H8 H 0.504(2) 0.8987(11) 0.6515(17)
C3 C 0.18553(18) 0.68226(8) 0.84900(13)
H9 H 0.229(2) 0.6944(9) 0.9041(15)
H10 H 0.233(2) 0.6493(9) 0.8233(14)
H11 H 0.100(2) 0.6683(9) 0.8593(14)
C4 C 0.11692(19) 0.71084(9) 0.70322(13)
H12 H 0.030(2) 0.6999(10) 0.7135(15)
H13 H 0.161(2) 0.6774(10) 0.6797(14)
H14 H 0.117(2) 0.7409(10) 0.6553(16)
C5 C 0.4241(2) 0.82983(10) 0.98883(15)
H15 H 0.478(2) 0.7961(11) 1.0062(16)
H16 H 0.342(2) 0.8168(10) 0.9813(16)
H17 H 0.431(2) 0.8611(11) 1.0341(17)
C6 C 0.59729(19) 0.86808(12) 0.91735(18)
H18 H 0.606(2) 0.9002(11) 0.9632(18)
H19 H 0.625(2) 0.8847(11) 0.8603(19)
H20 H 0.645(2) 0.8319(12) 0.9389(17)
C7 C 0.27975(18) 0.86112(9) 0.60584(13)
H21 H 0.213(2) 0.8303(9) 0.5955(14)
H22 H 0.2728(19) 0.8862(9) 0.5531(14)
C8 C 0.2561(2) 0.89520(8) 0.69030(14)
H23 H 0.324(2) 0.9223(9) 0.7017(14)
H24 H 0.181(2) 0.9202(9) 0.6814(14)
C9 C 0.11420(16) 0.77841(7) 0.82575(12)
H25 H 0.1540(18) 0.7864(8) 0.8874(13)
H26 H 0.0269(19) 0.7683(8) 0.8329(13)
C10 C 0.11949(16) 0.83342(8) 0.77163(14)
H27 H 0.0905(18) 0.8249(8) 0.7083(14)
H28 H 0.0615(19) 0.8602(9) 0.7993(13)
C11 C 0.39858(18) 0.90435(7) 0.87604(13)
H29 H 0.4401(18) 0.9220(9) 0.8237(14)
H30 H 0.4047(18) 0.9322(9) 0.9238(13)
C12 C 0.26442(17) 0.89321(7) 0.85222(13)
H31 H 0.2265(18) 0.8732(8) 0.9042(14)
H32 H 0.2227(18) 0.9305(9) 0.8433(13)
C13 C 0.67049(13) 0.68164(6) 0.74873(9)
C14 C 0.72614(13) 0.71897(6) 0.81206(10)
H33 H 0.7348(16) 0.7062(7) 0.8726(12)
C15 C 0.77272(14) 0.77273(7) 0.79012(11)
H34 H 0.8076(16) 0.7968(8) 0.8364(12)
C16 C 0.76898(15) 0.79138(7) 0.70171(11)
H35 H 0.7995(17) 0.8281(8) 0.6878(12)
C17 C 0.71923(15) 0.75499(7) 0.63677(11)
H36 H 0.7151(17) 0.7669(8) 0.5756(13)
C18 C 0.67108(14) 0.70158(6) 0.66039(10)
H37 H 0.6394(15) 0.6775(7) 0.6142(11)
C19 C 0.75199(13) 0.58334(6) 0.80990(9)
C20 C 0.85875(14) 0.58887(7) 0.75997(11)
H38 H 0.8570(16) 0.6122(7) 0.7061(12)
C21 C 0.96782(15) 0.56062(7) 0.78273(12)
H39 H 1.0378(18) 0.5671(8) 0.7465(12)
C22 C 0.97464(15) 0.52614(7) 0.85805(12)
H40 H 1.0483(18) 0.5077(8) 0.8745(12)
C23 C 0.87213(15) 0.51994(7) 0.90966(11)
H41 H 0.8747(17) 0.4950(8) 0.9630(12)
C24 C 0.76325(15) 0.54827(6) 0.88573(10)
H42 H 0.6923(17) 0.5439(7) 0.9222(12)
C25 C 0.52774(13) 0.61592(6) 0.86024(10)
C26 C 0.45817(14) 0.56565(7) 0.87391(11)
H43 H 0.4622(16) 0.5345(8) 0.8328(12)
C27 C 0.38403(16) 0.55791(7) 0.94705(11)
H44 H 0.3403(17) 0.5240(8) 0.9529(12)
C28 C 0.37503(16) 0.60073(8) 1.01093(11)
H45 H 0.3228(18) 0.5942(8) 1.0628(13)
C29 C 0.43989(15) 0.65109(8) 0.99984(11)
H46 H 0.4359(17) 0.6802(8) 1.0415(13)
C30 C 0.51376(14) 0.65847(7) 0.92578(10)
H47 H 0.5558(16) 0.6951(8) 0.9224(11)
C31 C 0.28941(15) 0.56427(7) 0.66518(12)
H48 H 0.2965(18) 0.5249(9) 0.6400(13)
H49 H 0.2140(19) 0.5819(8) 0.6358(13)
H50 H 0.2752(18) 0.5610(8) 0.7289(14)
C32 C 0.43235(17) 0.62263(7) 0.52273(11)
H51 H 0.4912(19) 0.6499(9) 0.5071(13)
H52 H 0.3542(19) 0.6361(8) 0.4994(13)
H53 H 0.4480(18) 0.5882(9) 0.4952(13)
C33 C 0.73956(18) 0.52573(8) 0.56878(12)
H54 H 0.7298(19) 0.5564(9) 0.5283(14)
H55 H 0.7418(19) 0.4903(9) 0.5296(14)
H56 H 0.813(2) 0.5327(9) 0.6003(14)
C34 C 0.65014(17) 0.45913(7) 0.72697(11)
H57 H 0.7329(19) 0.4633(8) 0.7554(13)
H58 H 0.6461(17) 0.4228(9) 0.6888(13)
H59 H 0.5906(18) 0.4551(8) 0.7747(13)
loop_
_geom_bond_atom_site_label_1
_geom_bond_atom_site_label_2
_geom_bond_site_symmetry_1
_geom_bond_site_symmetry_2
K1 H1 1_555 1_555
Si1 H1 1_555 1_555
Si2 H2 1_555 1_555
N1 K1 1_555 1_555
N2 K1 1_555 1_555
N3 K1 1_555 1_555
N4 K1 1_555 1_555
N5 Si1 1_555 1_555
B1 N5 1_555 1_555
C1 N1 1_555 1_555
H3 C1 1_555 1_555
H4 C1 1_555 1_555
H5 C1 1_555 1_555
C2 N1 1_555 1_555
H6 C2 1_555 1_555
H7 C2 1_555 1_555
H8 C2 1_555 1_555
C3 N2 1_555 1_555
H9 C3 1_555 1_555
H10 C3 1_555 1_555
H11 C3 1_555 1_555
C4 N2 1_555 1_555
H12 C4 1_555 1_555
H13 C4 1_555 1_555
H14 C4 1_555 1_555
C5 N3 1_555 1_555
H15 C5 1_555 1_555
H16 C5 1_555 1_555
H17 C5 1_555 1_555
C6 N3 1_555 1_555
H18 C6 1_555 1_555
H19 C6 1_555 1_555
H20 C6 1_555 1_555
C7 N1 1_555 1_555
H21 C7 1_555 1_555
H22 C7 1_555 1_555
C8 N4 1_555 1_555
H23 C8 1_555 1_555
H24 C8 1_555 1_555
C9 N2 1_555 1_555
H25 C9 1_555 1_555
H26 C9 1_555 1_555
C10 N4 1_555 1_555
H27 C10 1_555 1_555
H28 C10 1_555 1_555
C11 N3 1_555 1_555
H29 C11 1_555 1_555
H30 C11 1_555 1_555
C12 N4 1_555 1_555
H31 C12 1_555 1_555
H32 C12 1_555 1_555
C13 K1 1_555 1_555
C14 C13 1_555 1_555
H33 C14 1_555 1_555
C15 C14 1_555 1_555
H34 C15 1_555 1_555
C16 C15 1_555 1_555
H35 C16 1_555 1_555
C17 C16 1_555 1_555
H36 C17 1_555 1_555
C18 C13 1_555 1_555
H37 C18 1_555 1_555
C19 B1 1_555 1_555
C20 C19 1_555 1_555
H38 C20 1_555 1_555
C21 C20 1_555 1_555
H39 C21 1_555 1_555
C22 C21 1_555 1_555
H40 C22 1_555 1_555
C23 C22 1_555 1_555
H41 C23 1_555 1_555
C24 C19 1_555 1_555
H42 C24 1_555 1_555
C25 B1 1_555 1_555
C26 C25 1_555 1_555
H43 C26 1_555 1_555
C27 C26 1_555 1_555
H44 C27 1_555 1_555
C28 C27 1_555 1_555
H45 C28 1_555 1_555
C29 C28 1_555 1_555
H46 C29 1_555 1_555
C30 C25 1_555 1_555
H47 C30 1_555 1_555
C31 Si1 1_555 1_555
H48 C31 1_555 1_555
H49 C31 1_555 1_555
H50 C31 1_555 1_555
C32 Si1 1_555 1_555
H51 C32 1_555 1_555
H52 C32 1_555 1_555
H53 C32 1_555 1_555
C33 Si2 1_555 1_555
H54 C33 1_555 1_555
H55 C33 1_555 1_555
H56 C33 1_555 1_555
C34 Si2 1_555 1_555
H57 C34 1_555 1_555
H58 C34 1_555 1_555
H59 C34 1_555 1_555
Si2 N5 1_555 1_555
B1 C13 1_555 1_555
C7 C8 1_555 1_555
C9 C10 1_555 1_555
C11 C12 1_555 1_555
C17 C18 1_555 1_555
C23 C24 1_555 1_555
C29 C30 1_555 1_555

#END
