
#######################################################################
#
#                 Cambridge Crystallographic Data Centre
#                                CCDC 
#
#######################################################################
#
# If this CIF has been generated from an entry in the Cambridge 
# Structural Database, then it will include bibliographic, chemical, 
# crystal, experimental, refinement or atomic coordinate data resulting 
# from the CCDC's data processing and validation procedures.
#
#######################################################################

data_CARBOR
_chemical_formula_moiety         'C20 H25 B1 N2 O2'
_chemical_name_systematic        Condylocarpine-borine
_symmetry_cell_setting           orthorhombic
_symmetry_space_group_name_H-M   'P 21 21 21'
_symmetry_Int_Tables_number      19
_space_group_name_Hall           'P 2ac 2ab'
loop_
_symmetry_equiv_pos_site_id
_symmetry_equiv_pos_as_xyz
1 x,y,z
2 1/2+x,1/2-y,-z
3 -x,1/2+y,1/2-z
4 1/2-x,-y,1/2+z
_cell_length_a                   10.267(5)
_cell_length_b                   16.553(11)
_cell_length_c                   10.858(7)
_cell_angle_alpha                90
_cell_angle_beta                 90
_cell_angle_gamma                90
_cell_volume                     1845.31
_cell_formula_units_Z            4
loop_
_atom_site_label
_atom_site_type_symbol
_atom_site_fract_x
_atom_site_fract_y
_atom_site_fract_z
N1 N -0.03030 0.03970 0.20060
C1 C 0.07290 -0.00090 0.25260
C2 C 0.18820 0.02820 0.29270
C3 C 0.30350 -0.03030 0.30550
C4 C 0.28540 -0.09990 0.21710
C5 C 0.16250 -0.14420 0.24640
N2 N 0.16340 -0.17910 0.37630
C6 C 0.02350 -0.19420 0.39980
C7 C -0.04860 -0.12110 0.34990
C8 C 0.03970 -0.09030 0.24010
C9 C 0.20760 -0.11670 0.47180
C10 C 0.32380 -0.06710 0.43290
C11 C 0.36470 -0.12270 0.12790
C12 C 0.49020 -0.08430 0.09040
C13 C -0.04090 -0.08860 0.12350
C14 C -0.07920 -0.14930 0.04360
C15 C -0.16100 -0.12680 -0.05410
C16 C -0.20510 -0.04970 -0.06640
C17 C -0.17040 0.01130 0.01560
C18 C -0.08710 -0.01010 0.10930
C19 C 0.20570 0.11570 0.29530
O1 O 0.12040 0.16520 0.28530
O2 O 0.33280 0.13700 0.31020
C20 C 0.35900 0.22330 0.30780
B1 B 0.24810 -0.26150 0.38810
H1 H -0.03500 0.08600 0.19600
H2 H 0.37900 0.00100 0.28300
H3 H 0.15600 -0.19500 0.19300
H4 H 0.00000 -0.25100 0.34900
H5 H 0.00600 -0.21100 0.48900
H6 H -0.04700 -0.07800 0.40900
H7 H -0.13100 -0.13700 0.32100
H8 H 0.23600 -0.15300 0.54800
H9 H 0.12100 -0.07800 0.49900
H10 H 0.33300 -0.02200 0.50100
H11 H 0.40900 -0.10600 0.44000
H12 H 0.35000 -0.17100 0.06500
H13 H -0.04200 -0.20800 0.05700
H14 H -0.18700 -0.16800 -0.10200
H15 H -0.26400 -0.03400 -0.13400
H16 H -0.20300 0.06500 0.00600
H17 H 0.32800 0.24400 0.38700
H18 H 0.31600 0.24400 0.23100
H19 H 0.44300 0.23100 0.31600
H20 H 0.21000 -0.30500 0.31900
H21 H 0.23200 -0.28500 0.47900
H22 H 0.35400 -0.23600 0.37000
H23 H 0.50500 -0.02900 0.13600
H24 H 0.55600 -0.10800 0.14500
H25 H 0.50200 -0.08300 0.00200
loop_
_geom_bond_atom_site_label_1
_geom_bond_atom_site_label_2
_geom_bond_site_symmetry_1
_geom_bond_site_symmetry_2
N1 C1 1_555 1_555
C1 C2 1_555 1_555
C2 C3 1_555 1_555
C3 C4 1_555 1_555
C4 C5 1_555 1_555
C5 N2 1_555 1_555
N2 C6 1_555 1_555
C6 C7 1_555 1_555
C7 C8 1_555 1_555
C8 C1 1_555 1_555
C9 N2 1_555 1_555
C10 C3 1_555 1_555
C11 C4 1_555 1_555
C12 C11 1_555 1_555
C13 C8 1_555 1_555
C14 C13 1_555 1_555
C15 C14 1_555 1_555
C16 C15 1_555 1_555
C17 C16 1_555 1_555
C18 N1 1_555 1_555
C19 C2 1_555 1_555
O1 C19 1_555 1_555
O2 C19 1_555 1_555
C20 O2 1_555 1_555
B1 N2 1_555 1_555
H1 N1 1_555 1_555
H2 C3 1_555 1_555
H3 C5 1_555 1_555
H4 C6 1_555 1_555
H5 C6 1_555 1_555
H6 C7 1_555 1_555
H7 C7 1_555 1_555
H8 C9 1_555 1_555
H9 C9 1_555 1_555
H10 C10 1_555 1_555
H11 C10 1_555 1_555
H12 C11 1_555 1_555
H13 C14 1_555 1_555
H14 C15 1_555 1_555
H15 C16 1_555 1_555
H16 C17 1_555 1_555
H17 C20 1_555 1_555
H18 C20 1_555 1_555
H19 C20 1_555 1_555
H20 B1 1_555 1_555
H21 B1 1_555 1_555
H22 B1 1_555 1_555
H23 C12 1_555 1_555
H24 C12 1_555 1_555
H25 C12 1_555 1_555
C5 C8 1_555 1_555
C9 C10 1_555 1_555
C13 C18 1_555 1_555
C17 C18 1_555 1_555

#END
