
#######################################################################
#
#                 Cambridge Crystallographic Data Centre
#                                CCDC 
#
#######################################################################
#
# If this CIF has been generated from an entry in the Cambridge 
# Structural Database, then it will include bibliographic, chemical, 
# crystal, experimental, refinement or atomic coordinate data resulting 
# from the CCDC's data processing and validation procedures.
#
#######################################################################

data_CARBAB
_chemical_formula_moiety         'C16 H38 Li1 N4 O1 1+,C31 H26 B1 O1 1-'
_chemical_name_systematic        
'(N,N-tris[2-(dimethylamino)ethyl]amine)-(tetrahydrofuran)-lithium(i) (diphenylmethanolato)(triphenyl)borate'
_symmetry_cell_setting           monoclinic
_symmetry_space_group_name_H-M   'P 21/n'
_symmetry_Int_Tables_number      14
_space_group_name_Hall           '-P 2yn'
loop_
_symmetry_equiv_pos_site_id
_symmetry_equiv_pos_as_xyz
1 x,y,z
2 1/2-x,1/2+y,1/2-z
3 -x,-y,-z
4 1/2+x,1/2-y,1/2+z
_cell_length_a                   17.252(4)
_cell_length_b                   12.123(3)
_cell_length_c                   21.702(5)
_cell_angle_alpha                90
_cell_angle_beta                 109.739(4)
_cell_angle_gamma                90
_cell_volume                     4272.19
_exptl_crystal_colour            colorless
_exptl_crystal_description       plate
_cell_formula_units_Z            4
_chemical_properties_physical    
Air-sensitive,Moisture-sensitive,Oxygen-sensitive
_exptl_crystal_recrystallization_method 'tetrahydrofuran / pentane'
loop_
_atom_site_label
_atom_site_type_symbol
_atom_site_fract_x
_atom_site_fract_y
_atom_site_fract_z
O1 O 0.99957(13) 0.34198(16) 0.32917(9)
N1 N 0.89849(14) 0.25464(18) 0.18325(11)
N2 N 1.08305(14) 0.10469(18) 0.29830(11)
N3 N 1.10664(14) 0.39898(18) 0.22862(11)
N4 N 1.04970(13) 0.18674(18) 0.16576(11)
Li1 Li 1.0250(3) 0.2654(4) 0.2488(2)
C1 C 0.86112(18) 0.1594(2) 0.20431(16)
H1 H 0.8511 0.1775 0.2450
H2 H 0.8985 0.0961 0.2118
H3 H 0.8088 0.1410 0.1702
C2 C 0.84790(18) 0.3532(2) 0.18179(16)
H4 H 0.7925 0.3420 0.1501
H5 H 0.8733 0.4175 0.1689
H6 H 0.8443 0.3655 0.2254
C3 C 0.90281(18) 0.2350(3) 0.11751(14)
H7 H 0.9145 0.3055 0.0994
H8 H 0.8488 0.2077 0.0883
C4 C 0.96921(17) 0.1514(3) 0.11895(14)
H9 H 0.9544 0.0783 0.1321
H10 H 0.9731 0.1443 0.0746
C5 C 1.05199(19) 0.0399(2) 0.34287(15)
H11 H 1.0862 -0.0259 0.3576
H12 H 0.9949 0.0176 0.3197
H13 H 1.0542 0.0851 0.3809
C6 C 1.16753(18) 0.1398(3) 0.33505(14)
H14 H 1.2014 0.0748 0.3531
H15 H 1.1670 0.1887 0.3708
H16 H 1.1905 0.1791 0.3057
C7 C 1.08353(18) 0.0317(2) 0.24392(14)
H17 H 1.0287 -0.0031 0.2250
H18 H 1.1243 -0.0279 0.2615
C8 C 1.10399(18) 0.0913(2) 0.19047(14)
H19 H 1.1619 0.1167 0.2076
H20 H 1.0986 0.0396 0.1539
C9 C 1.0509(2) 0.4857(2) 0.19046(15)
H21 H 1.0824 0.5386 0.1742
H22 H 1.0254 0.5240 0.2185
H23 H 1.0080 0.4520 0.1534
C10 C 1.17091(19) 0.4510(3) 0.28353(15)
H24 H 1.2042 0.5000 0.2666
H25 H 1.2062 0.3938 0.3110
H26 H 1.1452 0.4939 0.3097
C11 C 1.14703(18) 0.3425(2) 0.18740(14)
H27 H 1.1930 0.2970 0.2157
H28 H 1.1706 0.3984 0.1656
C12 C 1.08860(18) 0.2693(2) 0.13575(13)
H29 H 1.0454 0.3153 0.1047
H30 H 1.1193 0.2312 0.1108
C13 C 0.9695(3) 0.2839(3) 0.37345(19)
H31 H 1.0159 0.2559 0.4110
H32 H 0.9353 0.2205 0.3512
C14 C 0.9215(4) 0.3599(4) 0.3953(3)
H33 H 0.9261 0.3433 0.4411
H34 H 0.8628 0.3545 0.3676
C15 C 0.9521(3) 0.4690(3) 0.3911(2)
H35 H 0.9887 0.4945 0.4345
H36 H 0.9061 0.5220 0.3741
C16 C 0.9992(2) 0.4573(3) 0.34410(17)
H37 H 0.9722 0.5001 0.3037
H38 H 1.0562 0.4847 0.3644
O2 O 0.69653(10) 0.16366(14) 0.46660(8)
B1 B 0.64543(19) 0.2556(2) 0.42497(15)
C17 C 0.78168(15) 0.1639(2) 0.47912(12)
H39 H 0.7937 0.2132 0.4465
C18 C 0.83049(16) 0.2050(2) 0.54790(13)
C19 C 0.91426(16) 0.2285(2) 0.56492(14)
H40 H 0.9400 0.2228 0.5327
C20 C 0.96043(18) 0.2601(2) 0.62773(14)
H41 H 1.0175 0.2753 0.6384
C21 C 0.92360(18) 0.2698(2) 0.67539(14)
H42 H 0.9552 0.2905 0.7188
C22 C 0.83996(19) 0.2487(2) 0.65863(14)
H43 H 0.8140 0.2565 0.6906
C23 C 0.79392(17) 0.2165(2) 0.59537(13)
H44 H 0.7367 0.2021 0.5846
C24 C 0.81055(16) 0.0472(2) 0.47115(12)
C25 C 0.87219(17) 0.0292(2) 0.44449(14)
H45 H 0.8955 0.0905 0.4299
C26 C 0.90047(19) -0.0756(3) 0.43862(15)
H46 H 0.9425 -0.0858 0.4200
C27 C 0.86702(18) -0.1655(2) 0.46002(14)
H47 H 0.8867 -0.2377 0.4569
C28 C 0.80494(18) -0.1497(2) 0.48600(13)
H48 H 0.7813 -0.2113 0.5001
C29 C 0.77690(17) -0.0438(2) 0.49160(12)
H49 H 0.7343 -0.0338 0.5096
C30 C 0.65666(16) 0.2562(2) 0.35310(13)
C31 C 0.67356(17) 0.1579(2) 0.32592(13)
H50 H 0.6791 0.0915 0.3502
C32 C 0.68248(18) 0.1544(3) 0.26445(14)
H51 H 0.6945 0.0865 0.2479
C33 C 0.67381(17) 0.2497(3) 0.22746(14)
H52 H 0.6796 0.2476 0.1855
C34 C 0.65673(17) 0.3474(3) 0.25247(14)
H53 H 0.6507 0.4134 0.2277
C35 C 0.64828(17) 0.3499(2) 0.31393(13)
H54 H 0.6363 0.4184 0.3300
C36 C 0.55087(16) 0.2270(2) 0.41840(12)
C37 C 0.53185(16) 0.1558(2) 0.46193(13)
H55 H 0.5755 0.1182 0.4938
C38 C 0.45161(17) 0.1379(2) 0.46052(13)
H56 H 0.4414 0.0890 0.4911
C39 C 0.38683(17) 0.1914(2) 0.41462(14)
H57 H 0.3320 0.1806 0.4139
C40 C 0.40265(17) 0.2609(2) 0.36958(14)
H58 H 0.3585 0.2969 0.3372
C41 C 0.48325(17) 0.2781(2) 0.37174(13)
H59 H 0.4929 0.3262 0.3405
C42 C 0.67238(17) 0.3752(2) 0.46245(13)
C43 C 0.74381(18) 0.4317(2) 0.46317(15)
H60 H 0.7747 0.4036 0.4377
C44 C 0.7711(2) 0.5272(3) 0.49962(16)
H61 H 0.8203 0.5622 0.4993
C45 C 0.7270(2) 0.5709(3) 0.53615(15)
H62 H 0.7457 0.6357 0.5614
C46 C 0.6557(2) 0.5197(2) 0.53563(14)
H63 H 0.6240 0.5502 0.5597
C47 C 0.63004(19) 0.4239(2) 0.50000(13)
H64 H 0.5811 0.3894 0.5011
loop_
_geom_bond_atom_site_label_1
_geom_bond_atom_site_label_2
_geom_bond_site_symmetry_1
_geom_bond_site_symmetry_2
O1 Li1 1_555 1_555
N1 Li1 1_555 1_555
N2 Li1 1_555 1_555
N3 Li1 1_555 1_555
N4 Li1 1_555 1_555
C1 N1 1_555 1_555
H1 C1 1_555 1_555
H2 C1 1_555 1_555
H3 C1 1_555 1_555
C2 N1 1_555 1_555
H4 C2 1_555 1_555
H5 C2 1_555 1_555
H6 C2 1_555 1_555
C3 N1 1_555 1_555
H7 C3 1_555 1_555
H8 C3 1_555 1_555
C4 N4 1_555 1_555
H9 C4 1_555 1_555
H10 C4 1_555 1_555
C5 N2 1_555 1_555
H11 C5 1_555 1_555
H12 C5 1_555 1_555
H13 C5 1_555 1_555
C6 N2 1_555 1_555
H14 C6 1_555 1_555
H15 C6 1_555 1_555
H16 C6 1_555 1_555
C7 N2 1_555 1_555
H17 C7 1_555 1_555
H18 C7 1_555 1_555
C8 N4 1_555 1_555
H19 C8 1_555 1_555
H20 C8 1_555 1_555
C9 N3 1_555 1_555
H21 C9 1_555 1_555
H22 C9 1_555 1_555
H23 C9 1_555 1_555
C10 N3 1_555 1_555
H24 C10 1_555 1_555
H25 C10 1_555 1_555
H26 C10 1_555 1_555
C11 N3 1_555 1_555
H27 C11 1_555 1_555
H28 C11 1_555 1_555
C12 N4 1_555 1_555
H29 C12 1_555 1_555
H30 C12 1_555 1_555
C13 O1 1_555 1_555
H31 C13 1_555 1_555
H32 C13 1_555 1_555
C14 C13 1_555 1_555
H33 C14 1_555 1_555
H34 C14 1_555 1_555
C15 C14 1_555 1_555
H35 C15 1_555 1_555
H36 C15 1_555 1_555
C16 O1 1_555 1_555
H37 C16 1_555 1_555
H38 C16 1_555 1_555
O2 B1 1_555 1_555
B1 C30 1_555 1_555
C17 O2 1_555 1_555
H39 C17 1_555 1_555
C18 C17 1_555 1_555
C19 C18 1_555 1_555
H40 C19 1_555 1_555
C20 C19 1_555 1_555
H41 C20 1_555 1_555
C21 C20 1_555 1_555
H42 C21 1_555 1_555
C22 C21 1_555 1_555
H43 C22 1_555 1_555
C23 C18 1_555 1_555
H44 C23 1_555 1_555
C24 C17 1_555 1_555
C25 C24 1_555 1_555
H45 C25 1_555 1_555
C26 C25 1_555 1_555
H46 C26 1_555 1_555
C27 C26 1_555 1_555
H47 C27 1_555 1_555
C28 C27 1_555 1_555
H48 C28 1_555 1_555
C29 C24 1_555 1_555
H49 C29 1_555 1_555
C30 C31 1_555 1_555
C31 H50 1_555 1_555
C32 C31 1_555 1_555
H51 C32 1_555 1_555
C33 C32 1_555 1_555
H52 C33 1_555 1_555
C34 C33 1_555 1_555
H53 C34 1_555 1_555
C35 C30 1_555 1_555
H54 C35 1_555 1_555
C36 B1 1_555 1_555
C37 C36 1_555 1_555
H55 C37 1_555 1_555
C38 C37 1_555 1_555
H56 C38 1_555 1_555
C39 C38 1_555 1_555
H57 C39 1_555 1_555
C40 C39 1_555 1_555
H58 C40 1_555 1_555
C41 C36 1_555 1_555
H59 C41 1_555 1_555
C42 B1 1_555 1_555
C43 C42 1_555 1_555
H60 C43 1_555 1_555
C44 C43 1_555 1_555
H61 C44 1_555 1_555
C45 C44 1_555 1_555
H62 C45 1_555 1_555
C46 C45 1_555 1_555
H63 C46 1_555 1_555
C47 C42 1_555 1_555
H64 C47 1_555 1_555
C3 C4 1_555 1_555
C7 C8 1_555 1_555
C11 C12 1_555 1_555
C15 C16 1_555 1_555
C22 C23 1_555 1_555
C28 C29 1_555 1_555
C34 C35 1_555 1_555
C40 C41 1_555 1_555
C46 C47 1_555 1_555

#END
