
#######################################################################
#
#                 Cambridge Crystallographic Data Centre
#                                CCDC 
#
#######################################################################
#
# If this CIF has been generated from an entry in the Cambridge 
# Structural Database, then it will include bibliographic, chemical, 
# crystal, experimental, refinement or atomic coordinate data resulting 
# from the CCDC's data processing and validation procedures.
#
#######################################################################

data_CARJOW01
_chemical_name_common            2,7-bis(trifluoromethanesulfonyl)pyrene
_chemical_formula_moiety         'C18 H8 F6 O6 S2'
_chemical_name_systematic        
'Pyrene-2,7-diyl bis(trifluoromethanesulfonate)'
_symmetry_cell_setting           monoclinic
_symmetry_space_group_name_H-M   'P 21/c'
_symmetry_Int_Tables_number      14
_space_group_name_Hall           '-P 2ybc'
loop_
_symmetry_equiv_pos_site_id
_symmetry_equiv_pos_as_xyz
1 x,y,z
2 -x,1/2+y,1/2-z
3 -x,-y,-z
4 x,1/2-y,1/2+z
_cell_length_a                   16.083(2)
_cell_length_b                   8.4858(10)
_cell_length_c                   6.8530(9)
_cell_angle_alpha                90
_cell_angle_beta                 92.828(9)
_cell_angle_gamma                90
_cell_volume                     934.139
_exptl_crystal_colour            colorless
_exptl_crystal_description       plate
_chemical_melting_point          '466 K'
_cell_formula_units_Z            2
loop_
_atom_site_label
_atom_site_type_symbol
_atom_site_fract_x
_atom_site_fract_y
_atom_site_fract_z
S1 S 0.18566(3) 0.48636(6) 0.89881(7)
F1 F 0.10230(13) 0.4476(4) 0.5706(3)
F2 F 0.05509(11) 0.6291(3) 0.7517(4)
F3 F 0.03652(10) 0.3909(3) 0.8259(4)
O1 O 0.23342(9) 0.61547(16) 0.7840(2)
O2 O 0.16749(13) 0.5462(3) 1.0830(3)
O3 O 0.22282(10) 0.3373(2) 0.8775(3)
C1 C 0.30910(11) 0.50557(19) 0.5187(3)
H1 H 0.2580 0.4789 0.4514
C2 C 0.31029(11) 0.5772(2) 0.7003(3)
C3 C 0.38188(11) 0.61995(19) 0.8056(2)
H2 H 0.3790 0.6691 0.9297
C4 C 0.53624(11) 0.63089(19) 0.8284(2)
H3 H 0.5353 0.6794 0.9532
C5 C 0.61016(11) 0.60212(19) 0.7501(2)
H4 H 0.6601 0.6323 0.8200
C6 C 0.45895(10) 0.58979(17) 0.7266(2)
C7 C 0.46114(10) 0.51601(17) 0.5405(2)
C8 C 0.38539(10) 0.47352(18) 0.4370(2)
C9 C 0.08823(15) 0.4895(3) 0.7495(5)
S1B S 0.81434(3) 0.51364(6) 0.10119(7)
F1B F 0.89770(13) 0.5524(4) 0.4294(3)
F2B F 0.94491(11) 0.3709(3) 0.2483(4)
F3B F 0.96348(10) 0.6091(3) 0.1741(4)
O1B O 0.76658(9) 0.38453(16) 0.2160(2)
O2B O 0.83251(13) 0.4538(3) -0.0830(3)
O3B O 0.77718(10) 0.6627(2) 0.1225(3)
C1B C 0.69090(11) 0.49443(19) 0.4813(3)
H1B H 0.7420 0.5211 0.5486
C2B C 0.68971(11) 0.4228(2) 0.2997(3)
C3B C 0.61812(11) 0.38005(19) 0.1944(2)
H2B H 0.6210 0.3309 0.0703
C4B C 0.46376(11) 0.36911(19) 0.1716(2)
H3B H 0.4647 0.3206 0.0468
C5B C 0.38984(11) 0.39788(19) 0.2499(2)
H4B H 0.3399 0.3677 0.1800
C6B C 0.54105(10) 0.41021(17) 0.2734(2)
C7B C 0.53886(10) 0.48399(17) 0.4595(2)
C8B C 0.61461(10) 0.52648(18) 0.5630(2)
C9B C 0.91177(15) 0.5105(3) 0.2505(5)
C10? C 0.1198(19) 0.415(3) 0.805(5)
F4? F 0.072(3) 0.407(7) 0.631(7)
F5? F 0.190(3) 0.320(6) 0.793(6)
F6? F 0.072(3) 0.364(6) 0.957(6)
O4? O 0.103(2) 0.709(5) 0.930(6)
O5? O 0.220(3) 0.555(5) 1.059(6)
S2? S 0.1664(7) 0.5923(17) 0.9092(18)
loop_
_geom_bond_atom_site_label_1
_geom_bond_atom_site_label_2
_geom_bond_site_symmetry_1
_geom_bond_site_symmetry_2
S1 O1 1_555 1_555
F1 C9 1_555 1_555
F2 C9 1_555 1_555
F3 C9 1_555 1_555
O1 C2 1_555 1_555
O2 S1 1_555 1_555
O3 S1 1_555 1_555
C1 H1 1_555 1_555
C2 C1 1_555 1_555
C3 C2 1_555 1_555
H2 C3 1_555 1_555
C4 H3 1_555 1_555
C5 C4 1_555 1_555
H4 C5 1_555 1_555
C6 C3 1_555 1_555
C7 C6 1_555 1_555
C8 C1 1_555 1_555
C9 S1 1_555 1_555
S1B O1B 1_555 1_555
F1B C9B 1_555 1_555
F2B C9B 1_555 1_555
F3B C9B 1_555 1_555
O1B C2B 1_555 1_555
O2B S1B 1_555 1_555
O3B S1B 1_555 1_555
C1B H1B 1_555 1_555
C2B C1B 1_555 1_555
C3B C2B 1_555 1_555
H2B C3B 1_555 1_555
C4B H3B 1_555 1_555
C5B C8 1_555 1_555
H4B C5B 1_555 1_555
C6B C3B 1_555 1_555
C7B C7 1_555 1_555
C8B C5 1_555 1_555
C9B S1B 1_555 1_555
C4 C6 1_555 1_555
C7 C8 1_555 1_555
C1B C8B 1_555 1_555
C4B C5B 1_555 1_555
C4B C6B 1_555 1_555
C6B C7B 1_555 1_555
C7B C8B 1_555 1_555

#END
