
#######################################################################
#
#                 Cambridge Crystallographic Data Centre
#                                CCDC 
#
#######################################################################
#
# If this CIF has been generated from an entry in the Cambridge 
# Structural Database, then it will include bibliographic, chemical, 
# crystal, experimental, refinement or atomic coordinate data resulting 
# from the CCDC's data processing and validation procedures.
#
#######################################################################

data_CARJOW
_chemical_formula_moiety         'C18 H8 F6 O6 S2'
_chemical_name_systematic        
'Pyrene-2,7-diyl bis(trifluoromethanesulfonate)'
_symmetry_cell_setting           monoclinic
_symmetry_space_group_name_H-M   'P 21/c'
_symmetry_Int_Tables_number      14
_space_group_name_Hall           '-P 2ybc'
loop_
_symmetry_equiv_pos_site_id
_symmetry_equiv_pos_as_xyz
1 x,y,z
2 -x,1/2+y,1/2-z
3 -x,-y,-z
4 x,1/2-y,1/2+z
_cell_length_a                   16.1937(10)
_cell_length_b                   8.4509(5)
_cell_length_c                   7.0509(4)
_cell_angle_alpha                90
_cell_angle_beta                 93.617(3)
_cell_angle_gamma                90
_cell_volume                     963.003
_exptl_crystal_colour            colorless
_exptl_crystal_description       plate
_chemical_melting_point          '466 K'
_cell_formula_units_Z            2
loop_
_atom_site_label
_atom_site_type_symbol
_atom_site_fract_x
_atom_site_fract_y
_atom_site_fract_z
S1 S 0.18922(6) 0.48716(16) 0.87956(16)
F1 F 0.1029(3) 0.4484(8) 0.5710(8)
F2 F 0.0588(2) 0.6258(7) 0.7438(9)
F3 F 0.0423(2) 0.3921(7) 0.8195(9)
O1 O 0.23422(15) 0.6137(3) 0.7615(5)
O2 O 0.1732(4) 0.5458(7) 1.0592(6)
O3 O 0.2242(2) 0.3363(4) 0.8595(6)
C1 C 0.3110(2) 0.5061(3) 0.5076(5)
H1 H 0.2599 0.4795 0.4404
C2 C 0.3111(2) 0.5759(4) 0.6845(5)
C3 C 0.3815(2) 0.6165(4) 0.7910(4)
H2 H 0.3787 0.6656 0.9151
C4 C 0.5347(2) 0.6264(3) 0.8225(4)
H3 H 0.5337 0.6750 0.9474
C5 C 0.6076(2) 0.5990(4) 0.7516(4)
H4 H 0.6576 0.6291 0.8215
C6 C 0.45797(18) 0.5871(3) 0.7198(4)
C7 C 0.46139(18) 0.5156(3) 0.5370(4)
C8 C 0.38658(19) 0.4744(3) 0.4319(4)
C9 C 0.0915(4) 0.4864(9) 0.7416(13)
S1B S 0.81078(6) 0.51284(16) 0.12044(16)
F1B F 0.8971(3) 0.5516(8) 0.4290(8)
F2B F 0.9412(2) 0.3742(7) 0.2562(9)
F3B F 0.9577(2) 0.6079(7) 0.1805(9)
O1B O 0.76578(15) 0.3863(3) 0.2385(5)
O2B O 0.8268(4) 0.4542(7) -0.0592(6)
O3B O 0.7758(2) 0.6637(4) 0.1405(6)
C1B C 0.6890(2) 0.4939(3) 0.4924(5)
H1B H 0.7401 0.5205 0.5596
C2B C 0.6889(2) 0.4241(4) 0.3155(5)
C3B C 0.6185(2) 0.3835(4) 0.2090(4)
H2B H 0.6213 0.3344 0.0849
C4B C 0.4653(2) 0.3736(3) 0.1775(4)
H3B H 0.4663 0.3250 0.0526
C5B C 0.3924(2) 0.4010(4) 0.2484(4)
H4B H 0.3424 0.3709 0.1785
C6B C 0.54203(18) 0.4129(3) 0.2802(4)
C7B C 0.53861(18) 0.4844(3) 0.4630(4)
C8B C 0.61342(19) 0.5256(3) 0.5681(4)
C9B C 0.9085(4) 0.5136(9) 0.2584(13)
S2? S 0.1700(7) 0.5906(17) 0.8818(15)
O4? O 0.107(2) 0.697(4) 0.915(4)
O5? O 0.2265(19) 0.561(4) 1.041(4)
C10? C 0.1634(18) 0.412(2) 0.754(4)
loop_
_geom_bond_atom_site_label_1
_geom_bond_atom_site_label_2
_geom_bond_site_symmetry_1
_geom_bond_site_symmetry_2
S1 O1 1_555 1_555
F1 C9 1_555 1_555
F2 C9 1_555 1_555
F3 C9 1_555 1_555
O1 C2 1_555 1_555
O2 S1 1_555 1_555
O3 S1 1_555 1_555
C1 H1 1_555 1_555
C2 C1 1_555 1_555
C3 C2 1_555 1_555
H2 C3 1_555 1_555
C4 H3 1_555 1_555
C5 C4 1_555 1_555
H4 C5 1_555 1_555
C6 C3 1_555 1_555
C7 C6 1_555 1_555
C8 C1 1_555 1_555
C9 S1 1_555 1_555
S1B O1B 1_555 1_555
F1B C9B 1_555 1_555
F2B C9B 1_555 1_555
F3B C9B 1_555 1_555
O1B C2B 1_555 1_555
O2B S1B 1_555 1_555
O3B S1B 1_555 1_555
C1B H1B 1_555 1_555
C2B C1B 1_555 1_555
C3B C2B 1_555 1_555
H2B C3B 1_555 1_555
C4B H3B 1_555 1_555
C5B C8 1_555 1_555
H4B C5B 1_555 1_555
C6B C3B 1_555 1_555
C7B C7 1_555 1_555
C8B C5 1_555 1_555
C9B S1B 1_555 1_555
C4 C6 1_555 1_555
C7 C8 1_555 1_555
C1B C8B 1_555 1_555
C4B C5B 1_555 1_555
C4B C6B 1_555 1_555
C6B C7B 1_555 1_555
C7B C8B 1_555 1_555

#END
