
#######################################################################
#
#                 Cambridge Crystallographic Data Centre
#                                CCDC 
#
#######################################################################
#
# If this CIF has been generated from an entry in the Cambridge 
# Structural Database, then it will include bibliographic, chemical, 
# crystal, experimental, refinement or atomic coordinate data resulting 
# from the CCDC's data processing and validation procedures.
#
#######################################################################

data_CARROC
_chemical_name_common            Hedychenone
_chemical_formula_moiety         'C20 H26 O2'
_chemical_name_systematic        
4-(2-(3-Furanyl)ethenyl)-4a,5,6,7,8,8a-hexahydro-3,4a,8,8-tetramethyl-1(4H)-naphthalenone
_symmetry_cell_setting           orthorhombic
_symmetry_space_group_name_H-M   'P 21 21 21'
_symmetry_Int_Tables_number      19
_space_group_name_Hall           'P 2ac 2ab'
loop_
_symmetry_equiv_pos_site_id
_symmetry_equiv_pos_as_xyz
1 x,y,z
2 1/2-x,-y,1/2+z
3 -x,1/2+y,1/2-z
4 1/2+x,1/2-y,-z
_cell_length_a                   7.4986(15)
_cell_length_b                   11.574(2)
_cell_length_c                   20.032(4)
_cell_angle_alpha                90
_cell_angle_beta                 90
_cell_angle_gamma                90
_cell_volume                     1738.55
_exptl_crystal_colour            colorless
_exptl_crystal_description       prismatic
_chemical_melting_point          134.5-135.5deg.C
_cell_formula_units_Z            4
loop_
_atom_site_label
_atom_site_type_symbol
_atom_site_fract_x
_atom_site_fract_y
_atom_site_fract_z
O1 O 0.7175(2) 0.34690(17) 0.80379(11)
O2 O -0.0496(3) -0.34214(15) 0.92767(9)
C1 C 0.3512(4) 0.4582(2) 0.81635(12)
H1 H 0.3042 0.5346 0.8226
H2 H 0.2611 0.4097 0.7970
H3 H 0.4524 0.4615 0.7871
C2 C 0.5489(4) 0.4908(2) 0.91476(17)
H4 H 0.5012 0.5677 0.9166
H5 H 0.6545 0.4904 0.8876
H6 H 0.5781 0.4654 0.9590
C3 C 0.4085(3) 0.40839(18) 0.88406(11)
C4 C 0.2463(4) 0.4058(2) 0.93186(13)
H7 H 0.2883 0.3911 0.9769
H8 H 0.1896 0.4811 0.9316
C5 C 0.1088(3) 0.3150(2) 0.91353(14)
H9 H 0.0096 0.3186 0.9445
H10 H 0.0635 0.3299 0.8690
C6 C 0.1925(3) 0.19590(19) 0.91592(12)
H11 H 0.1032 0.1391 0.9036
H12 H 0.2293 0.1798 0.9614
C7 C 0.3551(3) 0.18213(17) 0.86942(10)
C8 C 0.4870(3) 0.28447(18) 0.88138(10)
H13 H 0.5335 0.2712 0.9265
C9 C 0.6478(3) 0.2683(2) 0.83612(11)
C10 C 0.7226(3) 0.1523(2) 0.83484(13)
H14 H 0.8335 0.1420 0.8149
C11 C 0.6418(3) 0.0601(2) 0.86053(11)
C12 C 0.4542(3) 0.06899(17) 0.88971(10)
H15 H 0.4688 0.0722 0.9383
C13 C 0.2934(3) 0.17512(19) 0.79669(11)
H16 H 0.2126 0.1114 0.7915
H17 H 0.3949 0.1640 0.7682
H18 H 0.2340 0.2456 0.7847
C14 C 0.3450(3) -0.03822(18) 0.87543(11)
H19 H 0.3346 -0.0615 0.8312
C15 C 0.2635(3) -0.10115(17) 0.92108(11)
H20 H 0.2821 -0.0803 0.9654
C16 C 0.1475(3) -0.19969(17) 0.90924(11)
C17 C 0.0945(3) -0.2498(2) 0.84642(12)
H21 H 0.1337 -0.2280 0.8042
C18 C -0.0219(3) -0.3338(2) 0.86067(14)
H22 H -0.0767 -0.3805 0.8289
C19 C 0.0559(4) -0.2586(2) 0.95533(13)
H23 H 0.0631 -0.2444 1.0009
C20 C 0.7324(4) -0.0545(2) 0.86431(18)
H24 H 0.8486 -0.0490 0.8444
H25 H 0.6630 -0.1110 0.8407
H26 H 0.7439 -0.0773 0.9102
loop_
_geom_bond_atom_site_label_1
_geom_bond_atom_site_label_2
_geom_bond_site_symmetry_1
_geom_bond_site_symmetry_2
O1 C9 1_555 1_555
O2 C18 1_555 1_555
C1 H1 1_555 1_555
H2 C1 1_555 1_555
H3 C1 1_555 1_555
C2 H4 1_555 1_555
H5 C2 1_555 1_555
H6 C2 1_555 1_555
C3 C1 1_555 1_555
C4 C3 1_555 1_555
H7 C4 1_555 1_555
H8 C4 1_555 1_555
C5 C4 1_555 1_555
H9 C5 1_555 1_555
H10 C5 1_555 1_555
C6 C5 1_555 1_555
H11 C6 1_555 1_555
H12 C6 1_555 1_555
C7 C6 1_555 1_555
C8 C3 1_555 1_555
H13 C8 1_555 1_555
C9 C8 1_555 1_555
C10 C9 1_555 1_555
H14 C10 1_555 1_555
C11 C10 1_555 1_555
C12 C7 1_555 1_555
H15 C12 1_555 1_555
C13 C7 1_555 1_555
H16 C13 1_555 1_555
H17 C13 1_555 1_555
H18 C13 1_555 1_555
C14 C12 1_555 1_555
H19 C14 1_555 1_555
C15 C14 1_555 1_555
H20 C15 1_555 1_555
C16 C15 1_555 1_555
C17 C16 1_555 1_555
H21 C17 1_555 1_555
C18 C17 1_555 1_555
H22 C18 1_555 1_555
C19 O2 1_555 1_555
H23 C19 1_555 1_555
C20 C11 1_555 1_555
H24 C20 1_555 1_555
H25 C20 1_555 1_555
H26 C20 1_555 1_555
C2 C3 1_555 1_555
C7 C8 1_555 1_555
C11 C12 1_555 1_555
C16 C19 1_555 1_555

#END
