
#######################################################################
#
#                 Cambridge Crystallographic Data Centre
#                                CCDC 
#
#######################################################################
#
# If this CIF has been generated from an entry in the Cambridge 
# Structural Database, then it will include bibliographic, chemical, 
# crystal, experimental, refinement or atomic coordinate data resulting 
# from the CCDC's data processing and validation procedures.
#
#######################################################################

data_CASDEI
_chemical_formula_moiety         'C42 H29 N1 O2'
_chemical_name_systematic        
5-(4-methoxyphenyl)-2-(4-(triphenylvinyl)phenyl)-1-benzofuran-3-carbonitrile
_symmetry_cell_setting           monoclinic
_symmetry_space_group_name_H-M   'P 21/c'
_symmetry_Int_Tables_number      14
_space_group_name_Hall           '-P 2ybc'
loop_
_symmetry_equiv_pos_site_id
_symmetry_equiv_pos_as_xyz
1 x,y,z
2 -x,1/2+y,1/2-z
3 -x,-y,-z
4 x,1/2-y,1/2+z
_cell_length_a                   18.2932(10)
_cell_length_b                   19.3313(9)
_cell_length_c                   9.1613(6)
_cell_angle_alpha                90
_cell_angle_beta                 103.670(6)
_cell_angle_gamma                90
_cell_volume                     3147.95
_exptl_crystal_colour            'light yellow'
_exptl_crystal_description       plate
_cell_formula_units_Z            4
loop_
_atom_site_label
_atom_site_type_symbol
_atom_site_fract_x
_atom_site_fract_y
_atom_site_fract_z
O1 O 0.47852(12) 0.67163(11) -0.4294(3)
O2 O 0.05350(9) 0.69980(7) 0.04378(18)
N1 N 0.11791(14) 0.92882(12) -0.0686(3)
C1 C 0.35243(18) 0.72226(16) -0.2010(4)
H1 H 0.3508 0.7571 -0.1318
C2 C 0.41311(18) 0.71950(19) -0.2656(4)
H2 H 0.4515 0.7520 -0.2392
C3 C 0.41730(16) 0.66936(15) -0.3681(3)
C4 C 0.36083(18) 0.62241(15) -0.4040(3)
H3 H 0.3628 0.5880 -0.4739
C5 C 0.30040(16) 0.62509(13) -0.3377(3)
H4 H 0.2628 0.5918 -0.3633
C6 C 0.29409(14) 0.67555(12) -0.2348(3)
C7 C 0.22923(13) 0.68012(12) -0.1643(3)
C8 C 0.19550(15) 0.62000(13) -0.1242(3)
H5 H 0.2135 0.5772 -0.1465
C9 C 0.13691(15) 0.62155(12) -0.0531(3)
H6 H 0.1156 0.5813 -0.0262
C10 C 0.11182(13) 0.68574(11) -0.0244(3)
C11 C 0.14115(13) 0.74678(11) -0.0654(3)
C12 C 0.20101(13) 0.74406(11) -0.1349(3)
H7 H 0.2219 0.7846 -0.1614
C13 C 0.09672(13) 0.80111(11) -0.0214(3)
C14 C 0.04469(13) 0.77035(11) 0.0432(2)
C15 C -0.01639(12) 0.79656(11) 0.1053(2)
C16 C -0.05485(13) 0.75441(11) 0.1837(3)
H8 H -0.0427 0.7077 0.1957
C17 C -0.11114(13) 0.78111(12) 0.2444(3)
H9 H -0.1348 0.7525 0.3008
C18 C -0.13298(13) 0.84981(11) 0.2228(2)
C19 C -0.09569(14) 0.89083(12) 0.1397(3)
H10 H -0.1105 0.9366 0.1209
C20 C -0.03759(14) 0.86556(12) 0.0846(3)
H11 H -0.0121 0.8948 0.0329
C21 C -0.18942(13) 0.88259(11) 0.2952(3)
C22 C -0.25935(13) 0.89870(11) 0.2160(3)
C23 C -0.31221(14) 0.94300(13) 0.2775(3)
C24 C -0.38103(16) 0.91804(16) 0.2903(3)
H12 H -0.3942 0.8728 0.2610
C25 C -0.4307(2) 0.9580(3) 0.3449(4)
H13 H -0.4763 0.9396 0.3545
C26 C -0.4124(3) 1.0246(3) 0.3848(4)
H14 H -0.4457 1.0519 0.4222
C27 C -0.3454(2) 1.05214(19) 0.3706(4)
H15 H -0.3337 1.0980 0.3970
C28 C -0.29477(17) 1.01130(15) 0.3163(3)
H16 H -0.2494 1.0299 0.3062
C29 C 0.4848(2) 0.6213(2) -0.5361(5)
H17 H 0.4416 0.6235 -0.6191
H18 H 0.4878 0.5763 -0.4909
H19 H 0.5294 0.6297 -0.5714
C30 C 0.10711(14) 0.87230(13) -0.0458(3)
C31 C -0.15862(13) 0.90284(11) 0.4559(3)
C32 C -0.19995(16) 0.89839(14) 0.5635(3)
H20 H -0.2481 0.8797 0.5381
C33 C -0.17081(19) 0.92135(16) 0.7083(3)
H21 H -0.1994 0.9180 0.7795
C34 C -0.0997(2) 0.94913(14) 0.7474(3)
H22 H -0.0812 0.9669 0.8433
C35 C -0.05633(18) 0.95052(13) 0.6448(3)
H23 H -0.0073 0.9672 0.6725
C36 C -0.08498(14) 0.92725(12) 0.5006(3)
H24 H -0.0548 0.9278 0.4320
C37 C -0.28930(13) 0.87668(12) 0.0559(3)
C38 C -0.28796(16) 0.80875(14) 0.0104(3)
H25 H -0.2665 0.7750 0.0797
C39 C -0.31832(19) 0.79035(18) -0.1374(4)
H26 H -0.3167 0.7444 -0.1666
C40 C -0.35061(19) 0.8389(2) -0.2406(4)
H27 H -0.3718 0.8260 -0.3393
C41 C -0.35166(18) 0.9068(2) -0.1981(3)
H28 H -0.3726 0.9403 -0.2686
C42 C -0.32155(16) 0.92558(15) -0.0508(3)
H29 H -0.3229 0.9717 -0.0227
loop_
_geom_bond_atom_site_label_1
_geom_bond_atom_site_label_2
_geom_bond_site_symmetry_1
_geom_bond_site_symmetry_2
O1 C3 1_555 1_555
O2 C10 1_555 1_555
N1 C30 1_555 1_555
C1 H1 1_555 1_555
C2 C1 1_555 1_555
H2 C2 1_555 1_555
C3 C2 1_555 1_555
C4 C3 1_555 1_555
H3 C4 1_555 1_555
C5 C4 1_555 1_555
H4 C5 1_555 1_555
C6 C1 1_555 1_555
C7 C6 1_555 1_555
C8 C7 1_555 1_555
H5 C8 1_555 1_555
C9 C8 1_555 1_555
H6 C9 1_555 1_555
C10 C9 1_555 1_555
C11 C10 1_555 1_555
C12 C7 1_555 1_555
H7 C12 1_555 1_555
C13 C11 1_555 1_555
C14 O2 1_555 1_555
C15 C14 1_555 1_555
C16 C15 1_555 1_555
H8 C16 1_555 1_555
C17 C16 1_555 1_555
H9 C17 1_555 1_555
C18 C17 1_555 1_555
C19 C18 1_555 1_555
H10 C19 1_555 1_555
C20 C15 1_555 1_555
H11 C20 1_555 1_555
C21 C18 1_555 1_555
C22 C21 1_555 1_555
C23 C22 1_555 1_555
C24 C23 1_555 1_555
H12 C24 1_555 1_555
C25 C24 1_555 1_555
H13 C25 1_555 1_555
C26 C25 1_555 1_555
H14 C26 1_555 1_555
C27 C26 1_555 1_555
H15 C27 1_555 1_555
C28 C23 1_555 1_555
H16 C28 1_555 1_555
C29 O1 1_555 1_555
H17 C29 1_555 1_555
H18 C29 1_555 1_555
H19 C29 1_555 1_555
C30 C13 1_555 1_555
C31 C21 1_555 1_555
C32 C31 1_555 1_555
H20 C32 1_555 1_555
C33 C32 1_555 1_555
H21 C33 1_555 1_555
C34 C33 1_555 1_555
H22 C34 1_555 1_555
C35 C34 1_555 1_555
H23 C35 1_555 1_555
C36 C31 1_555 1_555
H24 C36 1_555 1_555
C37 C22 1_555 1_555
C38 C37 1_555 1_555
H25 C38 1_555 1_555
C39 C38 1_555 1_555
H26 C39 1_555 1_555
C40 C39 1_555 1_555
H27 C40 1_555 1_555
C41 C40 1_555 1_555
H28 C41 1_555 1_555
C42 C37 1_555 1_555
H29 C42 1_555 1_555
C5 C6 1_555 1_555
C11 C12 1_555 1_555
C13 C14 1_555 1_555
C19 C20 1_555 1_555
C27 C28 1_555 1_555
C35 C36 1_555 1_555
C41 C42 1_555 1_555

#END
