
#######################################################################
#
#                 Cambridge Crystallographic Data Centre
#                                CCDC 
#
#######################################################################
#
# If this CIF has been generated from an entry in the Cambridge 
# Structural Database, then it will include bibliographic, chemical, 
# crystal, experimental, refinement or atomic coordinate data resulting 
# from the CCDC's data processing and validation procedures.
#
#######################################################################

data_CASDIK01
_chemical_formula_moiety         'C26 H16 Be1 N2 O2 S2'
_chemical_name_systematic        
bis(2-(2-oxyphenyl)-1,3-benzothiazole)-beryllium(ii)
_symmetry_cell_setting           monoclinic
_symmetry_space_group_name_H-M   'C 2/c'
_symmetry_Int_Tables_number      15
_space_group_name_Hall           '-C 2yn'
loop_
_symmetry_equiv_pos_site_id
_symmetry_equiv_pos_as_xyz
1 x,y,z
2 1/2+x,1/2+y,z
3 -x,y,1/2-z
4 1/2-x,1/2+y,1/2-z
5 -x,-y,-z
6 1/2-x,1/2-y,-z
7 x,-y,1/2+z
8 1/2+x,1/2-y,1/2+z
_cell_length_a                   24.522(3)
_cell_length_b                   12.0546(14)
_cell_length_c                   14.7981(17)
_cell_angle_alpha                90.00
_cell_angle_beta                 93.476(2)
_cell_angle_gamma                90.00
_cell_volume                     4366.31
_cell_formula_units_Z            8
_exptl_crystal_recrystallization_method 'vacuum sublimation'
loop_
_atom_site_label
_atom_site_type_symbol
_atom_site_fract_x
_atom_site_fract_y
_atom_site_fract_z
S1 S 0.46034(3) 0.55948(6) 0.14275(5)
S2 S 0.72848(4) 0.84836(7) 0.16229(6)
O1 O 0.63244(7) 0.47958(15) 0.05547(13)
N1 N 0.55435(9) 0.62038(18) 0.09105(14)
O2 O 0.62066(8) 0.65903(16) -0.04863(13)
N2 N 0.66476(9) 0.68642(18) 0.11536(16)
C1 C 0.52576(11) 0.5319(2) 0.11063(17)
C2 C 0.54643(11) 0.4194(2) 0.10682(18)
C3 C 0.59947(12) 0.3996(2) 0.07836(18)
C4 C 0.68022(11) 0.6698(2) 0.2074(2)
C5 C 0.52437(12) 0.7178(2) 0.10303(18)
C6 C 0.61681(13) 0.2890(2) 0.0748(2)
H1 H 0.6514 0.2732 0.0558
C7 C 0.47216(12) 0.7001(2) 0.13265(19)
C8 C 0.68745(11) 0.7758(2) 0.0831(2)
C9 C 0.67858(12) 0.8131(2) -0.0096(2)
C10 C 0.64456(12) 0.7506(2) -0.0710(2)
C11 C 0.54208(13) 0.8247(2) 0.0876(2)
H2 H 0.5766 0.8375 0.0668
C12 C 0.66410(12) 0.5826(2) 0.2599(2)
H3 H 0.6411 0.5275 0.2355
C13 C 0.51409(13) 0.3302(2) 0.1310(2)
H4 H 0.4792 0.3441 0.1496
C14 C 0.53203(15) 0.2240(3) 0.1283(2)
H5 H 0.5101 0.1659 0.1460
C15 C 0.71805(15) 0.6602(3) 0.3855(2)
H6 H 0.7304 0.6561 0.4461
C16 C 0.68312(14) 0.5793(3) 0.3498(2)
H7 H 0.6723 0.5219 0.3866
C17 C 0.43761(13) 0.7885(3) 0.1484(2)
H8 H 0.4029 0.7766 0.1684
C18 C 0.58358(16) 0.2036(3) 0.0988(2)
H9 H 0.5959 0.1308 0.0951
C19 C 0.71502(12) 0.7513(2) 0.2438(2)
Be1 Be 0.61877(17) 0.6067(3) 0.0485(3)
C20 C 0.63747(13) 0.7892(3) -0.1607(2)
H10 H 0.6153 0.7498 -0.2026
C21 C 0.73470(13) 0.7458(3) 0.3339(2)
H11 H 0.7586 0.7993 0.3583
C22 C 0.66272(15) 0.8835(3) -0.1871(3)
H12 H 0.6571 0.9079 -0.2465
C23 C 0.50768(15) 0.9115(3) 0.1036(2)
H13 H 0.5193 0.9838 0.0939
C24 C 0.69655(16) 0.9435(3) -0.1270(3)
H14 H 0.7139 1.0071 -0.1461
C25 C 0.70425(15) 0.9084(3) -0.0392(3)
H15 H 0.7269 0.9488 0.0013
C26 C 0.45625(15) 0.8935(3) 0.1336(3)
H16 H 0.4339 0.9539 0.1440
loop_
_geom_bond_atom_site_label_1
_geom_bond_atom_site_label_2
_geom_bond_site_symmetry_1
_geom_bond_site_symmetry_2
S1 C1 1_555 1_555
S2 C8 1_555 1_555
O1 C3 1_555 1_555
N1 C1 1_555 1_555
O2 C10 1_555 1_555
N2 C4 1_555 1_555
C1 C2 1_555 1_555
C2 C3 1_555 1_555
C3 C6 1_555 1_555
C4 C12 1_555 1_555
C5 N1 1_555 1_555
C6 H1 1_555 1_555
C7 S1 1_555 1_555
C8 N2 1_555 1_555
C9 C8 1_555 1_555
C10 C9 1_555 1_555
C11 C5 1_555 1_555
H2 C11 1_555 1_555
C12 H3 1_555 1_555
C13 C2 1_555 1_555
H4 C13 1_555 1_555
C14 C13 1_555 1_555
H5 C14 1_555 1_555
C15 H6 1_555 1_555
C16 C12 1_555 1_555
H7 C16 1_555 1_555
C17 C7 1_555 1_555
H8 C17 1_555 1_555
C18 C6 1_555 1_555
H9 C18 1_555 1_555
C19 S2 1_555 1_555
Be1 O1 1_555 1_555
C20 C10 1_555 1_555
H10 C20 1_555 1_555
C21 C15 1_555 1_555
H11 C21 1_555 1_555
C22 C20 1_555 1_555
H12 C22 1_555 1_555
C23 C11 1_555 1_555
H13 C23 1_555 1_555
C24 C22 1_555 1_555
H14 C24 1_555 1_555
C25 C9 1_555 1_555
H15 C25 1_555 1_555
C26 C17 1_555 1_555
H16 C26 1_555 1_555
N1 Be1 1_555 1_555
O2 Be1 1_555 1_555
N2 Be1 1_555 1_555
C4 C19 1_555 1_555
C5 C7 1_555 1_555
C14 C18 1_555 1_555
C15 C16 1_555 1_555
C19 C21 1_555 1_555
C23 C26 1_555 1_555
C24 C25 1_555 1_555

#END
