
#######################################################################
#
#                 Cambridge Crystallographic Data Centre
#                                CCDC 
#
#######################################################################
#
# If this CIF has been generated from an entry in the Cambridge 
# Structural Database, then it will include bibliographic, chemical, 
# crystal, experimental, refinement or atomic coordinate data resulting 
# from the CCDC's data processing and validation procedures.
#
#######################################################################

data_CASNIV
_chemical_formula_moiety         'C7 H11 N3 S2'
_chemical_name_systematic        
'2-(Dimethylamino)propane-1,3-diyl bis(thiocyanate)'
_symmetry_cell_setting           monoclinic
_symmetry_space_group_name_H-M   'P 21/n'
_symmetry_Int_Tables_number      14
_space_group_name_Hall           '-P 2yn'
loop_
_symmetry_equiv_pos_site_id
_symmetry_equiv_pos_as_xyz
1 x,y,z
2 1/2-x,1/2+y,1/2-z
3 -x,-y,-z
4 1/2+x,1/2-y,1/2+z
_cell_length_a                   5.961(3)
_cell_length_b                   12.050(5)
_cell_length_c                   14.238(6)
_cell_angle_alpha                90
_cell_angle_beta                 94.686(6)
_cell_angle_gamma                90
_cell_volume                     1019.3
_exptl_crystal_colour            colorless
_exptl_crystal_description       prism
_cell_formula_units_Z            4
loop_
_atom_site_label
_atom_site_type_symbol
_atom_site_fract_x
_atom_site_fract_y
_atom_site_fract_z
S1 S 0.19714(6) 0.85444(3) 0.41323(3)
S2 S 0.85979(6) 0.59970(3) 0.41267(3)
N1 N 0.3173(2) 0.74517(11) 0.25797(9)
N2 N 0.6078(3) 0.40069(13) 0.42214(13)
N3 N 0.2388(3) 0.96090(12) 0.59292(11)
C1 C 0.4212(3) 0.83155(16) 0.20372(13)
H1 H 0.3158 0.8545 0.1508
H2 H 0.5588 0.8024 0.1795
H3 H 0.4586 0.8956 0.2445
C2 C 0.2237(3) 0.65706(15) 0.19628(12)
H4 H 0.1556 0.6002 0.2341
H5 H 0.3439 0.6237 0.1627
H6 H 0.1086 0.6882 0.1506
C3 C 0.4619(2) 0.70422(12) 0.33891(10)
H7 H 0.3864 0.6379 0.3644
C4 C 0.6976(2) 0.66783(14) 0.31443(12)
H8 H 0.7816 0.7338 0.2951
H9 H 0.6819 0.6162 0.2602
C5 C 0.7059(3) 0.48211(15) 0.41720(12)
C6 C 0.4779(2) 0.79254(12) 0.41595(11)
H10 H 0.5916 0.8493 0.4031
H11 H 0.5203 0.7587 0.4782
C7 C 0.2271(3) 0.91624(12) 0.52112(12)
loop_
_geom_bond_atom_site_label_1
_geom_bond_atom_site_label_2
_geom_bond_site_symmetry_1
_geom_bond_site_symmetry_2
S1 C6 1_555 1_555
S2 C4 1_555 1_555
N1 C1 1_555 1_555
N2 C5 1_555 1_555
N3 C7 1_555 1_555
C1 H1 1_555 1_555
H2 C1 1_555 1_555
H3 C1 1_555 1_555
C2 N1 1_555 1_555
H4 C2 1_555 1_555
H5 C2 1_555 1_555
H6 C2 1_555 1_555
C3 N1 1_555 1_555
H7 C3 1_555 1_555
C4 C3 1_555 1_555
H8 C4 1_555 1_555
H9 C4 1_555 1_555
C5 S2 1_555 1_555
C6 C3 1_555 1_555
H10 C6 1_555 1_555
H11 C6 1_555 1_555
C7 S1 1_555 1_555

#END
