
#######################################################################
#
#                 Cambridge Crystallographic Data Centre
#                                CCDC 
#
#######################################################################
#
# If this CIF has been generated from an entry in the Cambridge 
# Structural Database, then it will include bibliographic, chemical, 
# crystal, experimental, refinement or atomic coordinate data resulting 
# from the CCDC's data processing and validation procedures.
#
#######################################################################

data_CATHEL
_chemical_formula_moiety         'C30 H46 N2'
_chemical_name_systematic        (E)-4,4'-bis(N,N'-di-n-butylamino)stilbene
_symmetry_cell_setting           monoclinic
_symmetry_space_group_name_H-M   'P 21/n'
_symmetry_Int_Tables_number      14
_space_group_name_Hall           '-P 2yn'
loop_
_symmetry_equiv_pos_site_id
_symmetry_equiv_pos_as_xyz
1 x,y,z
2 1/2-x,1/2+y,1/2-z
3 -x,-y,-z
4 1/2+x,1/2-y,1/2+z
_cell_length_a                   9.7805(13)
_cell_length_b                   14.3249(16)
_cell_length_c                   10.0243(16)
_cell_angle_alpha                90
_cell_angle_beta                 98.639(11)
_cell_angle_gamma                90
_cell_volume                     1388.52
_exptl_crystal_colour            yellow
_exptl_crystal_description       prism
_cell_formula_units_Z            2
_exptl_crystal_recrystallization_method petroleum
loop_
_atom_site_label
_atom_site_type_symbol
_atom_site_fract_x
_atom_site_fract_y
_atom_site_fract_z
C1 C -0.0183(4) 0.0275(2) 0.4478(3)
H1 H -0.0990 0.0106 0.3916
C2 C 0.0503(4) 0.1111(3) 0.4083(4)
C3 C -0.0013(4) 0.1585(3) 0.2947(4)
H2 H -0.0808 0.1356 0.2423
C4 C 0.0576(4) 0.2393(3) 0.2520(4)
H3 H 0.0168 0.2686 0.1732
C5 C 0.1768(4) 0.2771(3) 0.3254(4)
C6 C 0.2302(4) 0.2293(3) 0.4421(4)
H4 H 0.3090 0.2521 0.4956
C7 C 0.1691(4) 0.1486(3) 0.4807(4)
H5 H 0.2095 0.1183 0.5589
C8 C 0.1686(5) 0.4137(3) 0.1727(4)
H6 H 0.1471 0.3731 0.0949
H7 H 0.2353 0.4592 0.1510
C9 C 0.0391(7) 0.4649(4) 0.1910(7)
H8 H 0.0019 0.4947 0.1064
H9 H -0.0288 0.4201 0.2121
C10 C 0.0588(7) 0.5369(5) 0.2986(6)
H10 H 0.1266 0.5819 0.2776
H11 H 0.0958 0.5073 0.3834
C11 C -0.0747(5) 0.5890(4) 0.3163(5)
H12 H -0.0544 0.6356 0.3852
H13 H -0.1407 0.5455 0.3420
H14 H -0.1123 0.6184 0.2328
C12 C 0.3653(4) 0.3915(3) 0.3600(4)
H15 H 0.3602 0.3877 0.4558
H16 H 0.3761 0.4568 0.3380
C13 C 0.4907(4) 0.3391(3) 0.3323(4)
H17 H 0.4953 0.3415 0.2364
H18 H 0.4819 0.2741 0.3569
C14 C 0.6234(4) 0.3779(3) 0.4089(5)
H19 H 0.6390 0.4396 0.3742
H20 H 0.6128 0.3846 0.5031
C15 C 0.7465(5) 0.3191(4) 0.3997(6)
H21 H 0.8269 0.3477 0.4501
H22 H 0.7591 0.3132 0.3070
H23 H 0.7332 0.2583 0.4362
N1 N 0.2353(3) 0.3574(2) 0.2849(4)
C1B C 0.0183(4) -0.0275(2) 0.5522(3)
H1B H 0.0990 -0.0106 0.6084
C2B C -0.0503(4) -0.1111(3) 0.5917(4)
C3B C 0.0013(4) -0.1585(3) 0.7053(4)
H2B H 0.0808 -0.1356 0.7577
C4B C -0.0576(4) -0.2393(3) 0.7480(4)
H3B H -0.0168 -0.2686 0.8268
C5B C -0.1768(4) -0.2771(3) 0.6746(4)
C6B C -0.2302(4) -0.2293(3) 0.5579(4)
H4B H -0.3090 -0.2521 0.5044
C7B C -0.1691(4) -0.1486(3) 0.5193(4)
H5B H -0.2095 -0.1183 0.4411
C8B C -0.1686(5) -0.4137(3) 0.8273(4)
H6B H -0.1471 -0.3731 0.9051
H7B H -0.2353 -0.4592 0.8490
C9B C -0.0391(7) -0.4649(4) 0.8090(7)
H8B H -0.0019 -0.4947 0.8936
H9B H 0.0288 -0.4201 0.7879
C10B C -0.0588(7) -0.5369(5) 0.7014(6)
H10B H -0.1266 -0.5819 0.7224
H11B H -0.0958 -0.5073 0.6166
C11B C 0.0747(5) -0.5890(4) 0.6837(5)
H12B H 0.0544 -0.6356 0.6148
H13B H 0.1407 -0.5455 0.6580
H14B H 0.1123 -0.6184 0.7672
C12B C -0.3653(4) -0.3915(3) 0.6400(4)
H15B H -0.3602 -0.3877 0.5442
H16B H -0.3761 -0.4568 0.6620
C13B C -0.4907(4) -0.3391(3) 0.6677(4)
H17B H -0.4953 -0.3415 0.7636
H18B H -0.4819 -0.2741 0.6431
C14B C -0.6234(4) -0.3779(3) 0.5911(5)
H19B H -0.6390 -0.4396 0.6258
H20B H -0.6128 -0.3846 0.4969
C15B C -0.7465(5) -0.3191(4) 0.6003(6)
H21B H -0.8269 -0.3477 0.5499
H22B H -0.7591 -0.3132 0.6930
H23B H -0.7332 -0.2583 0.5638
N1B N -0.2353(3) -0.3574(2) 0.7151(4)
loop_
_geom_bond_atom_site_label_1
_geom_bond_atom_site_label_2
_geom_bond_site_symmetry_1
_geom_bond_site_symmetry_2
C1 H1 1_555 1_555
C2 C1 1_555 1_555
C3 C2 1_555 1_555
H2 C3 1_555 1_555
C4 C3 1_555 1_555
H3 C4 1_555 1_555
C5 C4 1_555 1_555
C6 C5 1_555 1_555
H4 C6 1_555 1_555
C7 C2 1_555 1_555
H5 C7 1_555 1_555
C8 H6 1_555 1_555
H7 C8 1_555 1_555
C9 C8 1_555 1_555
H8 C9 1_555 1_555
H9 C9 1_555 1_555
C10 C9 1_555 1_555
H10 C10 1_555 1_555
H11 C10 1_555 1_555
C11 C10 1_555 1_555
H12 C11 1_555 1_555
H13 C11 1_555 1_555
H14 C11 1_555 1_555
C12 H15 1_555 1_555
H16 C12 1_555 1_555
C13 C12 1_555 1_555
H17 C13 1_555 1_555
H18 C13 1_555 1_555
C14 C13 1_555 1_555
H19 C14 1_555 1_555
H20 C14 1_555 1_555
C15 C14 1_555 1_555
H21 C15 1_555 1_555
H22 C15 1_555 1_555
H23 C15 1_555 1_555
N1 C5 1_555 1_555
C1B C1 1_555 1_555
H1B C1B 1_555 1_555
C2B C1B 1_555 1_555
C3B C2B 1_555 1_555
H2B C3B 1_555 1_555
C4B C3B 1_555 1_555
H3B C4B 1_555 1_555
C5B C4B 1_555 1_555
C6B C5B 1_555 1_555
H4B C6B 1_555 1_555
C7B C2B 1_555 1_555
H5B C7B 1_555 1_555
C8B H6B 1_555 1_555
H7B C8B 1_555 1_555
C9B C8B 1_555 1_555
H8B C9B 1_555 1_555
H9B C9B 1_555 1_555
C10B C9B 1_555 1_555
H10B C10B 1_555 1_555
H11B C10B 1_555 1_555
C11B C10B 1_555 1_555
H12B C11B 1_555 1_555
H13B C11B 1_555 1_555
H14B C11B 1_555 1_555
C12B H15B 1_555 1_555
H16B C12B 1_555 1_555
C13B C12B 1_555 1_555
H17B C13B 1_555 1_555
H18B C13B 1_555 1_555
C14B C13B 1_555 1_555
H19B C14B 1_555 1_555
H20B C14B 1_555 1_555
C15B C14B 1_555 1_555
H21B C15B 1_555 1_555
H22B C15B 1_555 1_555
H23B C15B 1_555 1_555
N1B C5B 1_555 1_555
C6 C7 1_555 1_555
C8 N1 1_555 1_555
C12 N1 1_555 1_555
C6B C7B 1_555 1_555
C8B N1B 1_555 1_555
C12B N1B 1_555 1_555

#END
