
#######################################################################
#
#                 Cambridge Crystallographic Data Centre
#                                CCDC 
#
#######################################################################
#
# If this CIF has been generated from an entry in the Cambridge 
# Structural Database, then it will include bibliographic, chemical, 
# crystal, experimental, refinement or atomic coordinate data resulting 
# from the CCDC's data processing and validation procedures.
#
#######################################################################

data_CAVDAG
_chemical_formula_moiety         'C55 H70 O10,C4 H8 Cl2'
_chemical_name_systematic        
'4,9,14,19,24,26,28,30,32,34-Decaethoxyhexacyclo[21.2.2.2^3,6^.2^8,11^.2^13,16^.2^18,21^]pentatriaconta-1(25),3,5,8,10,13,15,18,20,23,26,28,30,32,34-pentadecaene 1,4-dichlorobutane solvate'
_symmetry_cell_setting           orthorhombic
_symmetry_space_group_name_H-M   'P b c n'
_symmetry_Int_Tables_number      60
_space_group_name_Hall           '-P 2n 2ab'
loop_
_symmetry_equiv_pos_site_id
_symmetry_equiv_pos_as_xyz
1 x,y,z
2 1/2-x,1/2-y,1/2+z
3 -x,y,1/2-z
4 1/2+x,1/2-y,-z
5 -x,-y,-z
6 1/2+x,1/2+y,1/2-z
7 x,-y,1/2+z
8 1/2-x,1/2+y,z
_cell_length_a                   42.526(8)
_cell_length_b                   15.758(3)
_cell_length_c                   16.686(3)
_cell_angle_alpha                90
_cell_angle_beta                 90
_cell_angle_gamma                90
_cell_volume                     11181.7
_exptl_crystal_colour            colorless
_exptl_crystal_description       block
_cell_formula_units_Z            8
loop_
_atom_site_label
_atom_site_type_symbol
_atom_site_fract_x
_atom_site_fract_y
_atom_site_fract_z
O1 O 0.11790(10) 0.4522(3) 0.4668(2)
O2 O 0.05513(10) 0.7140(3) 0.3132(2)
O3 O 0.21910(9) 0.5677(3) 0.5881(2)
O4 O 0.17837(11) 0.6917(3) 0.2962(2)
O5 O 0.19093(9) 0.7876(2) 0.7922(2)
O6 O 0.23095(10) 0.8862(3) 0.4904(2)
O7 O 0.07048(8) 0.8048(3) 0.7959(2)
O8 O 0.13991(9) 1.0383(3) 0.6229(3)
O9 O 0.03597(10) 0.9359(3) 0.5197(2)
O10 O 0.02550(10) 0.5977(3) 0.6048(3)
C1 C 0.05622(12) 0.6080(4) 0.4129(3)
C2 C 0.07185(13) 0.5424(3) 0.4518(3)
H1 H 0.0614 0.5128 0.4936
C3 C 0.10211(13) 0.5191(4) 0.4315(3)
C4 C 0.11807(13) 0.5606(3) 0.3690(3)
C5 C 0.10196(14) 0.6264(3) 0.3297(3)
H2 H 0.1122 0.6556 0.2872
C6 C 0.07184(13) 0.6499(4) 0.3506(3)
C7 C 0.10819(16) 0.4281(4) 0.5453(4)
H3 H 0.0860 0.4089 0.5442
H4 H 0.1098 0.4773 0.5820
C8 C 0.12883(18) 0.3582(5) 0.5738(4)
H5 H 0.1248 0.3070 0.5421
H6 H 0.1244 0.3466 0.6304
H7 H 0.1509 0.3748 0.5676
C9 C 0.06900(16) 0.7532(5) 0.2448(4)
H8 H 0.0745 0.7098 0.2043
H9 H 0.0884 0.7838 0.2603
C10 C 0.04529(19) 0.8140(5) 0.2111(5)
H10 H 0.0249 0.7854 0.2057
H11 H 0.0523 0.8338 0.1584
H12 H 0.0431 0.8627 0.2472
C11 C 0.15118(13) 0.5375(4) 0.3462(3)
H13 H 0.1544 0.5503 0.2886
H14 H 0.1541 0.4757 0.3536
C12 C 0.17622(13) 0.5854(3) 0.3958(3)
C13 C 0.18604(13) 0.5532(4) 0.4685(3)
H15 H 0.1774 0.5014 0.4874
C14 C 0.20850(12) 0.5955(4) 0.5150(3)
C15 C 0.22173(12) 0.6708(4) 0.4874(3)
C16 C 0.21190(14) 0.7022(4) 0.4139(4)
H16 H 0.2209 0.7532 0.3941
C17 C 0.18917(14) 0.6607(4) 0.3685(3)
C18 C 0.20645(13) 0.4893(4) 0.6185(3)
H17 H 0.2118 0.4419 0.5821
H18 H 0.1833 0.4931 0.6227
C19 C 0.22057(15) 0.4751(4) 0.6990(3)
H19 H 0.2435 0.4708 0.6939
H20 H 0.2123 0.4223 0.7218
H21 H 0.2152 0.5226 0.7343
C20 C 0.1935(2) 0.7674(4) 0.2665(4)
H22 H 0.1895 0.8154 0.3034
H23 H 0.2165 0.7583 0.2632
C21 C 0.1811(2) 0.7863(5) 0.1885(5)
H24 H 0.1854 0.7388 0.1522
H25 H 0.1911 0.8378 0.1677
H26 H 0.1584 0.7952 0.1923
C22 C 0.24520(13) 0.7198(4) 0.5380(4)
H27 H 0.2576 0.6797 0.5710
H28 H 0.2599 0.7507 0.5025
C23 C 0.22845(12) 0.7821(3) 0.5918(3)
C24 C 0.21881(12) 0.7570(4) 0.6676(3)
H29 H 0.2243 0.7020 0.6862
C25 C 0.20127(11) 0.8105(4) 0.7172(3)
C26 C 0.19285(12) 0.8907(3) 0.6902(3)
C27 C 0.20270(12) 0.9168(4) 0.6149(3)
H30 H 0.1975 0.9722 0.5966
C28 C 0.22014(12) 0.8630(4) 0.5657(3)
C29 C 0.19967(13) 0.7057(4) 0.8213(3)
H31 H 0.2228 0.7019 0.8265
H32 H 0.1925 0.6612 0.7835
C30 C 0.18443(15) 0.6936(4) 0.9013(4)
H33 H 0.1910 0.7391 0.9376
H34 H 0.1907 0.6386 0.9236
H35 H 0.1615 0.6950 0.8951
C31 C 0.22213(14) 0.9676(4) 0.4606(3)
H36 H 0.2293 1.0126 0.4977
H37 H 0.1990 0.9713 0.4554
C32 C 0.23744(15) 0.9786(5) 0.3797(4)
H38 H 0.2603 0.9727 0.3852
H39 H 0.2325 1.0350 0.3585
H40 H 0.2295 0.9352 0.3428
C33 C 0.17223(13) 0.9483(4) 0.7419(3)
H41 H 0.1766 0.9366 0.7992
H42 H 0.1778 1.0082 0.7313
C34 C 0.13750(12) 0.9358(3) 0.7261(3)
C35 C 0.12021(12) 0.8768(3) 0.7703(3)
H43 H 0.1304 0.8446 0.8108
C36 C 0.08871(13) 0.8643(3) 0.7566(3)
C37 C 0.07269(12) 0.9122(3) 0.6994(3)
C38 C 0.08989(13) 0.9711(4) 0.6552(3)
H44 H 0.0794 1.0044 0.6159
C39 C 0.12186(12) 0.9824(3) 0.6672(3)
C40 C 0.08464(14) 0.7558(4) 0.8583(4)
H45 H 0.0936 0.7936 0.8998
H46 H 0.1017 0.7201 0.8363
C41 C 0.05927(16) 0.7013(5) 0.8934(5)
H47 H 0.0420 0.7373 0.9121
H48 H 0.0678 0.6690 0.9387
H49 H 0.0515 0.6620 0.8525
C42 C 0.12541(15) 1.0775(4) 0.5558(4)
H50 H 0.1095 1.1192 0.5741
H51 H 0.1147 1.0342 0.5226
C43 C 0.15054(17) 1.1216(5) 0.5072(4)
H52 H 0.1600 1.1670 0.5392
H53 H 0.1411 1.1457 0.4587
H54 H 0.1668 1.0805 0.4921
C44 C 0.03805(13) 0.8990(4) 0.6832(3)
H55 H 0.0274 0.8822 0.7335
H56 H 0.0286 0.9530 0.6647
C45 C 0.03292(11) 0.8316(4) 0.6207(3)
C46 C 0.03023(12) 0.7467(4) 0.6424(3)
H57 H 0.0302 0.7321 0.6977
C47 C 0.02751(12) 0.6827(4) 0.5853(3)
C48 C 0.02526(11) 0.7027(4) 0.5037(3)
C49 C 0.02780(12) 0.7882(4) 0.4817(3)
H58 H 0.0267 0.8032 0.4267
C50 C 0.03195(11) 0.8516(4) 0.5389(3)
C51 C 0.03546(15) 0.9587(4) 0.4366(4)
H59 H 0.0143 0.9487 0.4137
H60 H 0.0509 0.9244 0.4063
C52 C 0.04373(16) 1.0513(4) 0.4319(4)
H61 H 0.0311 1.0831 0.4707
H62 H 0.0394 1.0723 0.3777
H63 H 0.0661 1.0588 0.4442
C53 C 0.03751(19) 0.5732(5) 0.6814(4)
H64 H 0.0245 0.5984 0.7245
H65 H 0.0594 0.5938 0.6878
C54 C 0.0367(2) 0.4787(4) 0.6869(5)
H66 H 0.0148 0.4591 0.6837
H67 H 0.0459 0.4607 0.7381
H68 H 0.0488 0.4542 0.6426
C55 C 0.02367(13) 0.6353(4) 0.4402(4)
H69 H 0.0117 0.6573 0.3937
H70 H 0.0123 0.5855 0.4616
C56 C 0.1160(5) 0.3036(9) 0.1135(9)
H71 H 0.1058 0.2574 0.1443
H72 H 0.0990 0.3327 0.0836
C57 C 0.1345(3) 0.2652(7) 0.0576(8)
H73 H 0.1522 0.2376 0.0860
H74 H 0.1436 0.3101 0.0231
C58 C 0.1204(3) 0.2042(6) 0.0073(6)
H75 H 0.1118 0.1580 0.0411
H76 H 0.1025 0.2310 -0.0209
C59 C 0.1403(4) 0.1689(11) -0.0491(10)
H77 H 0.1582 0.1440 -0.0195
H78 H 0.1489 0.2164 -0.0813
Cl1 Cl 0.13039(5) 0.37871(15) 0.18608(14)
Cl2 Cl 0.12714(6) 0.09096(16) -0.11756(15)
loop_
_geom_bond_atom_site_label_1
_geom_bond_atom_site_label_2
_geom_bond_site_symmetry_1
_geom_bond_site_symmetry_2
O1 C3 1_555 1_555
O2 C6 1_555 1_555
O3 C14 1_555 1_555
O4 C17 1_555 1_555
O5 C25 1_555 1_555
O6 C28 1_555 1_555
O7 C36 1_555 1_555
O8 C39 1_555 1_555
O9 C50 1_555 1_555
O10 C47 1_555 1_555
C1 C2 1_555 1_555
C2 H1 1_555 1_555
C3 C2 1_555 1_555
C4 C3 1_555 1_555
C5 C4 1_555 1_555
H2 C5 1_555 1_555
C6 C1 1_555 1_555
C7 O1 1_555 1_555
H3 C7 1_555 1_555
H4 C7 1_555 1_555
C8 C7 1_555 1_555
H5 C8 1_555 1_555
H6 C8 1_555 1_555
H7 C8 1_555 1_555
C9 O2 1_555 1_555
H8 C9 1_555 1_555
H9 C9 1_555 1_555
C10 C9 1_555 1_555
H10 C10 1_555 1_555
H11 C10 1_555 1_555
H12 C10 1_555 1_555
C11 C4 1_555 1_555
H13 C11 1_555 1_555
H14 C11 1_555 1_555
C12 C11 1_555 1_555
C13 C12 1_555 1_555
H15 C13 1_555 1_555
C14 C13 1_555 1_555
C15 C14 1_555 1_555
C16 C15 1_555 1_555
H16 C16 1_555 1_555
C17 C12 1_555 1_555
C18 O3 1_555 1_555
H17 C18 1_555 1_555
H18 C18 1_555 1_555
C19 C18 1_555 1_555
H19 C19 1_555 1_555
H20 C19 1_555 1_555
H21 C19 1_555 1_555
C20 O4 1_555 1_555
H22 C20 1_555 1_555
H23 C20 1_555 1_555
C21 C20 1_555 1_555
H24 C21 1_555 1_555
H25 C21 1_555 1_555
H26 C21 1_555 1_555
C22 C15 1_555 1_555
H27 C22 1_555 1_555
H28 C22 1_555 1_555
C23 C22 1_555 1_555
C24 C23 1_555 1_555
H29 C24 1_555 1_555
C25 C24 1_555 1_555
C26 C25 1_555 1_555
C27 C26 1_555 1_555
H30 C27 1_555 1_555
C28 C23 1_555 1_555
C29 O5 1_555 1_555
H31 C29 1_555 1_555
H32 C29 1_555 1_555
C30 C29 1_555 1_555
H33 C30 1_555 1_555
H34 C30 1_555 1_555
H35 C30 1_555 1_555
C31 O6 1_555 1_555
H36 C31 1_555 1_555
H37 C31 1_555 1_555
C32 C31 1_555 1_555
H38 C32 1_555 1_555
H39 C32 1_555 1_555
H40 C32 1_555 1_555
C33 C26 1_555 1_555
H41 C33 1_555 1_555
H42 C33 1_555 1_555
C34 C33 1_555 1_555
C35 C34 1_555 1_555
H43 C35 1_555 1_555
C36 C35 1_555 1_555
C37 C36 1_555 1_555
C38 C37 1_555 1_555
H44 C38 1_555 1_555
C39 C34 1_555 1_555
C40 O7 1_555 1_555
H45 C40 1_555 1_555
H46 C40 1_555 1_555
C41 C40 1_555 1_555
H47 C41 1_555 1_555
H48 C41 1_555 1_555
H49 C41 1_555 1_555
C42 O8 1_555 1_555
H50 C42 1_555 1_555
H51 C42 1_555 1_555
C43 C42 1_555 1_555
H52 C43 1_555 1_555
H53 C43 1_555 1_555
H54 C43 1_555 1_555
C44 C37 1_555 1_555
H55 C44 1_555 1_555
H56 C44 1_555 1_555
C45 C44 1_555 1_555
C46 C45 1_555 1_555
H57 C46 1_555 1_555
C47 C46 1_555 1_555
C48 C47 1_555 1_555
C49 C48 1_555 1_555
H58 C49 1_555 1_555
C50 C45 1_555 1_555
C51 O9 1_555 1_555
H59 C51 1_555 1_555
H60 C51 1_555 1_555
C52 C51 1_555 1_555
H61 C52 1_555 1_555
H62 C52 1_555 1_555
H63 C52 1_555 1_555
C53 O10 1_555 1_555
H64 C53 1_555 1_555
H65 C53 1_555 1_555
C54 C53 1_555 1_555
H66 C54 1_555 1_555
H67 C54 1_555 1_555
H68 C54 1_555 1_555
C55 C1 1_555 1_555
H69 C55 1_555 1_555
H70 C55 1_555 1_555
C56 H71 1_555 1_555
H72 C56 1_555 1_555
C57 C56 1_555 1_555
H73 C57 1_555 1_555
H74 C57 1_555 1_555
C58 C57 1_555 1_555
H75 C58 1_555 1_555
H76 C58 1_555 1_555
C59 C58 1_555 1_555
H77 C59 1_555 1_555
H78 C59 1_555 1_555
Cl1 C56 1_555 1_555
Cl2 C59 1_555 1_555
C5 C6 1_555 1_555
C16 C17 1_555 1_555
C27 C28 1_555 1_555
C38 C39 1_555 1_555
C48 C55 1_555 1_555
C49 C50 1_555 1_555

#END
