
#######################################################################
#
#                 Cambridge Crystallographic Data Centre
#                                CCDC 
#
#######################################################################
#
# If this CIF has been generated from an entry in the Cambridge 
# Structural Database, then it will include bibliographic, chemical, 
# crystal, experimental, refinement or atomic coordinate data resulting 
# from the CCDC's data processing and validation procedures.
#
#######################################################################

data_CAVHOZ
_chemical_formula_moiety         'C20 H22 Br2 N2 O2'
_chemical_name_systematic        
6-(bis(2-bromoethyl)amino)-2-butyl-1H-benzo[de]isoquinoline-1,3(2H)-dione
_symmetry_cell_setting           triclinic
_symmetry_space_group_name_H-M   'P -1'
_symmetry_Int_Tables_number      2
_space_group_name_Hall           '-P 1'
loop_
_symmetry_equiv_pos_site_id
_symmetry_equiv_pos_as_xyz
1 x,y,z
2 -x,-y,-z
_cell_length_a                   9.0071(18)
_cell_length_b                   9.804(2)
_cell_length_c                   13.073(3)
_cell_angle_alpha                73.17(3)
_cell_angle_beta                 71.73(3)
_cell_angle_gamma                62.95(3)
_cell_volume                     961.454
_exptl_crystal_colour            yellow
_exptl_crystal_description       block
_cell_formula_units_Z            2
loop_
_atom_site_label
_atom_site_type_symbol
_atom_site_fract_x
_atom_site_fract_y
_atom_site_fract_z
C1 C -0.0421(8) 0.5629(6) 0.7923(5)
H1 H -0.1299 0.5480 0.7760
H2 H -0.0930 0.6371 0.8407
H3 H 0.0326 0.4657 0.8267
Br1 Br 0.02319(6) 0.19273(5) 0.00965(4)
Br2 Br 0.61888(7) -0.40186(6) 0.07895(5)
C2 C 0.2288(5) 0.1720(4) 0.5607(3)
C3 C 0.2740(4) 0.0806(4) 0.4748(3)
C4 C 0.2080(5) -0.0282(4) 0.4931(3)
H4 H 0.1446 -0.0511 0.5620
C5 C 0.2350(5) -0.1056(4) 0.4091(3)
H5 H 0.1892 -0.1790 0.4238
C6 C 0.3267(4) -0.0752(4) 0.3069(3)
C7 C 0.4153(4) 0.0226(4) 0.2885(3)
C8 C 0.5407(4) 0.0346(4) 0.1947(3)
H6 H 0.5700 -0.0236 0.1410
C9 C 0.6213(5) 0.1310(5) 0.1806(3)
H7 H 0.7044 0.1369 0.1177
C10 C 0.5803(5) 0.2192(5) 0.2586(3)
H8 H 0.6328 0.2867 0.2466
C11 C 0.4612(5) 0.2078(4) 0.3549(3)
C12 C 0.3813(4) 0.1046(4) 0.3733(3)
C13 C 0.4206(5) 0.2996(4) 0.4383(3)
C14 C 0.2642(5) 0.3710(4) 0.6187(4)
H9 H 0.3625 0.3894 0.6161
H10 H 0.2346 0.3150 0.6910
C15 C 0.1156(6) 0.5258(5) 0.5992(4)
H11 H 0.0208 0.5071 0.5952
H12 H 0.1490 0.5852 0.5295
C16 C 0.0570(6) 0.6214(5) 0.6895(4)
H13 H 0.1564 0.6199 0.7048
H14 H -0.0128 0.7285 0.6634
C17 C 0.2782(5) -0.0240(4) 0.1236(3)
H15 H 0.3307 -0.0736 0.0595
H16 H 0.3124 0.0613 0.1101
C18 C 0.0889(5) 0.0397(5) 0.1390(3)
H17 H 0.0343 0.0883 0.2035
H18 H 0.0530 -0.0435 0.1487
C19 C 0.3175(5) -0.2829(4) 0.2429(3)
H19 H 0.1969 -0.2604 0.2702
H20 H 0.3764 -0.3531 0.3005
C20 C 0.3814(6) -0.3627(5) 0.1460(4)
H21 H 0.3123 -0.2985 0.0921
H22 H 0.3683 -0.4607 0.1691
N1 N 0.3088(4) 0.2752(3) 0.5366(3)
N2 N 0.3420(4) -0.1369(3) 0.2179(3)
O1 O 0.1311(4) 0.1605(3) 0.6467(2)
O2 O 0.4796(4) 0.3957(3) 0.4234(3)
loop_
_geom_bond_atom_site_label_1
_geom_bond_atom_site_label_2
_geom_bond_site_symmetry_1
_geom_bond_site_symmetry_2
C1 H1 1_555 1_555
H2 C1 1_555 1_555
H3 C1 1_555 1_555
Br1 C18 1_555 1_555
Br2 C20 1_555 1_555
C2 C3 1_555 1_555
C3 C4 1_555 1_555
C4 H4 1_555 1_555
C5 C4 1_555 1_555
H5 C5 1_555 1_555
C6 C5 1_555 1_555
C7 C6 1_555 1_555
C8 C7 1_555 1_555
H6 C8 1_555 1_555
C9 C8 1_555 1_555
H7 C9 1_555 1_555
C10 C9 1_555 1_555
H8 C10 1_555 1_555
C11 C10 1_555 1_555
C12 C3 1_555 1_555
C13 C11 1_555 1_555
C14 H9 1_555 1_555
H10 C14 1_555 1_555
C15 C14 1_555 1_555
H11 C15 1_555 1_555
H12 C15 1_555 1_555
C16 C1 1_555 1_555
H13 C16 1_555 1_555
H14 C16 1_555 1_555
C17 H15 1_555 1_555
H16 C17 1_555 1_555
C18 C17 1_555 1_555
H17 C18 1_555 1_555
H18 C18 1_555 1_555
C19 H19 1_555 1_555
H20 C19 1_555 1_555
C20 C19 1_555 1_555
H21 C20 1_555 1_555
H22 C20 1_555 1_555
N1 C2 1_555 1_555
N2 C6 1_555 1_555
O1 C2 1_555 1_555
O2 C13 1_555 1_555
C7 C12 1_555 1_555
C11 C12 1_555 1_555
C13 N1 1_555 1_555
C14 N1 1_555 1_555
C15 C16 1_555 1_555
C17 N2 1_555 1_555
C19 N2 1_555 1_555

#END
