
#######################################################################
#
#                 Cambridge Crystallographic Data Centre
#                                CCDC 
#
#######################################################################
#
# If this CIF has been generated from an entry in the Cambridge 
# Structural Database, then it will include bibliographic, chemical, 
# crystal, experimental, refinement or atomic coordinate data resulting 
# from the CCDC's data processing and validation procedures.
#
#######################################################################

data_CAVLIX
_chemical_formula_moiety         'C41 H41 B1 O1 P3 1+,As1 F6 1-,0.4(H2 O1)'
_chemical_name_systematic        
'5-[(diphenylphosphoryl)methyl]-5-methyl-1,1,3,3-tetraphenyl-1,3,2-diphosphaborinan-2-ium hexafluoroarsenate hydrate'
_symmetry_cell_setting           monoclinic
_symmetry_space_group_name_H-M   'P 21/n'
_symmetry_Int_Tables_number      14
_space_group_name_Hall           '-P 2yn'
loop_
_symmetry_equiv_pos_site_id
_symmetry_equiv_pos_as_xyz
1 x,y,z
2 1/2-x,1/2+y,1/2-z
3 -x,-y,-z
4 1/2+x,1/2-y,1/2+z
_cell_length_a                   13.0162(3)
_cell_length_b                   21.4161(5)
_cell_length_c                   14.4005(2)
_cell_angle_alpha                90
_cell_angle_beta                 97.8708(13)
_cell_angle_gamma                90
_cell_volume                     3976.41
_exptl_crystal_colour            colorless
_exptl_crystal_description       prism
_cell_formula_units_Z            4
_exptl_crystal_recrystallization_method dichloromethane/pentane
loop_
_atom_site_label
_atom_site_type_symbol
_atom_site_fract_x
_atom_site_fract_y
_atom_site_fract_z
As1 As 0.37838(3) 0.607768(17) 0.70500(2)
F1 F 0.3981(3) 0.54295(14) 0.7731(2)
F2 F 0.3641(3) 0.67285(15) 0.6375(3)
F3 F 0.2588(3) 0.5860(2) 0.6633(3)
F4 F 0.5023(2) 0.62936(15) 0.7501(2)
F5 F 0.3349(3) 0.6445(2) 0.7947(2)
F6 F 0.4306(3) 0.57169(16) 0.6184(2)
B1 B 0.6159(3) 0.75686(18) 0.3168(3)
O1 O 0.2490(3) 0.64402(19) 0.3194(3)
P1 P 0.29427(7) 0.58134(4) 0.30855(6)
P2 P 0.62838(7) 0.67951(4) 0.25230(6)
P3 P 0.56206(7) 0.74282(4) 0.43312(6)
C1 C 0.4209(3) 0.56697(14) 0.3796(2)
C2 C 0.5257(3) 0.62659(15) 0.2764(2)
C3 C 0.4716(3) 0.67748(15) 0.4224(2)
C4 C 0.5075(3) 0.61645(14) 0.3787(2)
C5 C 0.6051(3) 0.59022(16) 0.4382(2)
C6 C 0.3098(2) 0.55880(16) 0.1896(2)
C7 C 0.3617(3) 0.50536(18) 0.1682(3)
C8 C 0.3764(3) 0.4932(2) 0.0767(3)
C9 C 0.3385(3) 0.5347(3) 0.0064(3)
C10 C 0.2854(3) 0.5871(2) 0.0266(3)
C11 C 0.2712(3) 0.59947(18) 0.1170(3)
C12 C 0.2146(2) 0.52064(16) 0.3499(2)
C13 C 0.1643(3) 0.47460(17) 0.2929(3)
C14 C 0.0975(3) 0.43328(19) 0.3275(4)
C15 C 0.0808(3) 0.4360(2) 0.4197(4)
C16 C 0.1312(3) 0.4812(2) 0.4779(3)
C17 C 0.1962(3) 0.5240(2) 0.4426(3)
C18 C 0.6035(2) 0.69606(15) 0.1281(2)
C19 C 0.5448(3) 0.65623(17) 0.0658(2)
C20 C 0.5263(3) 0.6706(2) -0.0285(3)
C21 C 0.5673(3) 0.7242(2) -0.0608(3)
C22 C 0.6269(3) 0.7637(2) 0.0001(3)
C23 C 0.6439(3) 0.75019(17) 0.0949(3)
C24 C 0.7531(3) 0.64097(17) 0.2684(2)
C25 C 0.8426(3) 0.6766(2) 0.2855(3)
C26 C 0.9387(4) 0.6481(3) 0.2872(3)
C27 C 0.9458(4) 0.5844(3) 0.2744(3)
C28 C 0.8571(4) 0.5493(2) 0.2574(2)
C29 C 0.7611(3) 0.57742(17) 0.2526(2)
C30 C 0.4879(3) 0.81127(16) 0.4566(2)
C31 C 0.4017(3) 0.80816(19) 0.5024(3)
C32 C 0.3478(3) 0.8621(2) 0.5181(3)
C33 C 0.3817(3) 0.9190(2) 0.4905(3)
C34 C 0.4666(3) 0.92223(19) 0.4438(3)
C35 C 0.5197(3) 0.86883(18) 0.4257(2)
C36 C 0.6589(3) 0.73185(15) 0.5344(2)
C37 C 0.6277(3) 0.71923(18) 0.6206(3)
C38 C 0.7013(4) 0.71156(18) 0.6991(3)
C39 C 0.8049(4) 0.71715(17) 0.6912(3)
C40 C 0.8362(3) 0.72963(16) 0.6062(3)
C41 C 0.7633(3) 0.73734(14) 0.5272(3)
H1 H 0.5481 0.7828 0.2732
H2 H 0.4475 0.5280 0.3613
H3 H 0.4074 0.5629 0.4435
H4 H 0.5376 0.5868 0.2490
H5 H 0.4627 0.6451 0.2425
H6 H 0.4534 0.6676 0.4837
H7 H 0.4094 0.6908 0.3828
H8 H 0.6246 0.5520 0.4116
H9 H 0.6621 0.6183 0.4400
H10 H 0.5906 0.5830 0.5006
H11 H 0.3866 0.4769 0.2156
H12 H 0.4108 0.4573 0.0642
H13 H 0.3499 0.5266 -0.0543
H14 H 0.2578 0.6134 -0.0212
H15 H 0.2357 0.6347 0.1303
H16 H 0.1745 0.4716 0.2303
H17 H 0.0629 0.4039 0.2877
H18 H 0.0353 0.4077 0.4425
H19 H 0.1227 0.4834 0.5401
H20 H 0.2277 0.5552 0.4811
H21 H 0.5176 0.6195 0.0876
H22 H 0.4858 0.6443 -0.0700
H23 H 0.5541 0.7337 -0.1248
H24 H 0.6568 0.7991 -0.0223
H25 H 0.6812 0.7772 0.1367
H26 H 0.8386 0.7191 0.2963
H27 H 0.9990 0.6724 0.2978
H28 H 1.0112 0.5653 0.2774
H29 H 0.8620 0.5078 0.2472
H30 H 0.7009 0.5537 0.2387
H31 H 0.3797 0.7704 0.5216
H32 H 0.2884 0.8599 0.5478
H33 H 0.3468 0.9560 0.5036
H34 H 0.4893 0.9614 0.4240
H35 H 0.5761 0.8716 0.3921
H36 H 0.5565 0.7155 0.6254
H37 H 0.6802 0.7015 0.7556
H38 H 0.8542 0.7117 0.7445
H39 H 0.9069 0.7338 0.6011
H40 H 0.7839 0.7463 0.4702
H41 H 0.6815 0.7832 0.3238
O2 O 0.1064(4) 0.6523(2) 0.2159(4)
H42 H 0.1389 0.6319 0.2584
H43 H 0.0791 0.6302 0.1712
loop_
_geom_bond_atom_site_label_1
_geom_bond_atom_site_label_2
_geom_bond_site_symmetry_1
_geom_bond_site_symmetry_2
As1 F1 1_555 1_555
F2 As1 1_555 1_555
F3 As1 1_555 1_555
F4 As1 1_555 1_555
F5 As1 1_555 1_555
F6 As1 1_555 1_555
B1 P2 1_555 1_555
O1 P1 1_555 1_555
P1 C1 1_555 1_555
P2 C2 1_555 1_555
P3 B1 1_555 1_555
C1 C4 1_555 1_555
C2 C4 1_555 1_555
C3 P3 1_555 1_555
C4 C3 1_555 1_555
C5 C4 1_555 1_555
C6 P1 1_555 1_555
C7 C6 1_555 1_555
C8 C7 1_555 1_555
C9 C8 1_555 1_555
C10 C9 1_555 1_555
C11 C6 1_555 1_555
C12 P1 1_555 1_555
C13 C12 1_555 1_555
C14 C13 1_555 1_555
C15 C14 1_555 1_555
C16 C15 1_555 1_555
C17 C12 1_555 1_555
C18 P2 1_555 1_555
C19 C18 1_555 1_555
C20 C19 1_555 1_555
C21 C20 1_555 1_555
C22 C21 1_555 1_555
C23 C18 1_555 1_555
C24 P2 1_555 1_555
C25 C24 1_555 1_555
C26 C25 1_555 1_555
C27 C26 1_555 1_555
C28 C27 1_555 1_555
C29 C24 1_555 1_555
C30 P3 1_555 1_555
C31 C30 1_555 1_555
C32 C31 1_555 1_555
C33 C32 1_555 1_555
C34 C33 1_555 1_555
C35 C30 1_555 1_555
C36 P3 1_555 1_555
C37 C36 1_555 1_555
C38 C37 1_555 1_555
C39 C38 1_555 1_555
C40 C39 1_555 1_555
C41 C36 1_555 1_555
H1 B1 1_555 1_555
H2 C1 1_555 1_555
H3 C1 1_555 1_555
H4 C2 1_555 1_555
H5 C2 1_555 1_555
H6 C3 1_555 1_555
H7 C3 1_555 1_555
H8 C5 1_555 1_555
H9 C5 1_555 1_555
H10 C5 1_555 1_555
H11 C7 1_555 1_555
H12 C8 1_555 1_555
H13 C9 1_555 1_555
H14 C10 1_555 1_555
H15 C11 1_555 1_555
H16 C13 1_555 1_555
H17 C14 1_555 1_555
H18 C15 1_555 1_555
H19 C16 1_555 1_555
H20 C17 1_555 1_555
H21 C19 1_555 1_555
H22 C20 1_555 1_555
H23 C21 1_555 1_555
H24 C22 1_555 1_555
H25 C23 1_555 1_555
H26 C25 1_555 1_555
H27 C26 1_555 1_555
H28 C27 1_555 1_555
H29 C28 1_555 1_555
H30 C29 1_555 1_555
H31 C31 1_555 1_555
H32 C32 1_555 1_555
H33 C33 1_555 1_555
H34 C34 1_555 1_555
H35 C35 1_555 1_555
H36 C37 1_555 1_555
H37 C38 1_555 1_555
H38 C39 1_555 1_555
H39 C40 1_555 1_555
H40 C41 1_555 1_555
H41 B1 1_555 1_555
O2 H42 1_555 1_555
H43 O2 1_555 1_555
C10 C11 1_555 1_555
C16 C17 1_555 1_555
C22 C23 1_555 1_555
C28 C29 1_555 1_555
C34 C35 1_555 1_555
C40 C41 1_555 1_555

#END
