
#######################################################################
#
#                 Cambridge Crystallographic Data Centre
#                                CCDC 
#
#######################################################################
#
# If this CIF has been generated from an entry in the Cambridge 
# Structural Database, then it will include bibliographic, chemical, 
# crystal, experimental, refinement or atomic coordinate data resulting 
# from the CCDC's data processing and validation procedures.
#
#######################################################################

data_CAVSOK
_chemical_formula_moiety         'C26 H26 B1 P2 1+,0.89(C1 H2 Cl2),Br1 1-'
_chemical_name_systematic        
'1,1,3,3-tetraphenyl-1,3,2-diphosphaborolan-1-ium bromide dichloromethane solvate'
_symmetry_cell_setting           monoclinic
_symmetry_space_group_name_H-M   'P 21/n'
_symmetry_Int_Tables_number      14
_space_group_name_Hall           '-P 2yn'
loop_
_symmetry_equiv_pos_site_id
_symmetry_equiv_pos_as_xyz
1 x,y,z
2 1/2-x,1/2+y,1/2-z
3 -x,-y,-z
4 1/2+x,1/2-y,1/2+z
_cell_length_a                   12.8454(2)
_cell_length_b                   15.8917(3)
_cell_length_c                   14.0831(3)
_cell_angle_alpha                90
_cell_angle_beta                 101.3055(11)
_cell_angle_gamma                90
_cell_volume                     2819.07
_exptl_crystal_colour            colorless
_exptl_crystal_description       block
_cell_formula_units_Z            4
loop_
_atom_site_label
_atom_site_type_symbol
_atom_site_fract_x
_atom_site_fract_y
_atom_site_fract_z
B1 B 0.5682(3) 0.7013(2) 0.7834(3)
P1 P 0.56104(6) 0.81657(5) 0.73397(6)
P2 P 0.51050(6) 0.72085(5) 0.89832(6)
C1 C 0.4993(3) 0.8758(2) 0.8197(3)
C2 C 0.5318(3) 0.83277(19) 0.9192(2)
C3 C 0.4823(3) 0.8329(2) 0.6139(2)
C4 C 0.4464(3) 0.9135(3) 0.5853(3)
C5 C 0.3924(4) 0.9258(4) 0.4908(4)
C6 C 0.3736(4) 0.8610(5) 0.4274(4)
C7 C 0.4073(4) 0.7813(4) 0.4555(4)
C8 C 0.4623(4) 0.7680(3) 0.5503(3)
C9 C 0.6916(2) 0.8587(2) 0.7340(2)
C10 C 0.7128(3) 0.9438(2) 0.7474(3)
C11 C 0.8123(3) 0.9752(2) 0.7435(3)
C12 C 0.8914(3) 0.9215(3) 0.7259(3)
C13 C 0.8711(3) 0.8363(2) 0.7122(3)
C14 C 0.7713(3) 0.8051(2) 0.7158(2)
C15 C 0.3697(2) 0.70048(19) 0.8823(2)
C16 C 0.3163(3) 0.7212(3) 0.9558(3)
C17 C 0.2091(3) 0.7028(3) 0.9451(3)
C18 C 0.1551(3) 0.6653(3) 0.8617(3)
C19 C 0.2075(3) 0.6454(2) 0.7885(3)
C20 C 0.3149(3) 0.6629(2) 0.7980(2)
C21 C 0.5777(2) 0.66286(19) 1.0027(2)
C22 C 0.6043(3) 0.6998(2) 1.0938(3)
C23 C 0.6563(3) 0.6517(2) 1.1712(3)
C24 C 0.6808(3) 0.5685(2) 1.1583(3)
C25 C 0.6537(3) 0.5322(2) 1.0683(3)
C26 C 0.6019(3) 0.5785(2) 0.9897(3)
H1 H 0.5257 0.6637 0.7397
H2 H 0.6391 0.6809 0.7984
H3 H 0.4243 0.8751 0.7996
H4 H 0.5238 0.9323 0.8235
H5 H 0.4889 0.8528 0.9622
H6 H 0.6044 0.8437 0.9459
H7 H 0.4594 0.9592 0.6296
H8 H 0.3680 0.9805 0.4703
H9 H 0.3373 0.8706 0.3628
H10 H 0.3924 0.7358 0.4111
H11 H 0.4856 0.7128 0.5700
H12 H 0.6585 0.9808 0.7589
H13 H 0.8265 1.0336 0.7531
H14 H 0.9598 0.9431 0.7234
H15 H 0.9254 0.7995 0.7002
H16 H 0.7571 0.7468 0.7056
H17 H 0.3530 0.7477 1.0132
H18 H 0.1726 0.7163 0.9956
H19 H 0.0817 0.6528 0.8551
H20 H 0.1699 0.6199 0.7309
H21 H 0.3508 0.6490 0.7472
H22 H 0.5873 0.7571 1.1028
H23 H 0.6755 0.6766 1.2335
H24 H 0.7156 0.5361 1.2119
H25 H 0.6710 0.4750 1.0595
H26 H 0.5829 0.5532 0.9275
Br1 Br 0.56949(3) 1.11132(2) 0.84833(3)
C27 C 0.8101(7) 1.0254(6) 1.0037(6)
Cl1 Cl 0.9034(3) 1.0822(3) 1.0651(3)
Cl2 Cl 0.8032(4) 0.9203(3) 1.0399(4)
H27 H 0.8146 1.0264 0.9372
H28 H 0.7454 1.0508 1.0117
Cl3? Cl 0.7106(9) 0.9825(5) 1.0759(4)
H29? H 0.7719 1.0583 0.9521
H30? H 0.8412 0.9785 0.9781
loop_
_geom_bond_atom_site_label_1
_geom_bond_atom_site_label_2
_geom_bond_site_symmetry_1
_geom_bond_site_symmetry_2
B1 P1 1_555 1_555
P1 C1 1_555 1_555
P2 B1 1_555 1_555
C1 C2 1_555 1_555
C2 P2 1_555 1_555
C3 P1 1_555 1_555
C4 C3 1_555 1_555
C5 C4 1_555 1_555
C6 C5 1_555 1_555
C7 C6 1_555 1_555
C8 C3 1_555 1_555
C9 P1 1_555 1_555
C10 C9 1_555 1_555
C11 C10 1_555 1_555
C12 C11 1_555 1_555
C13 C12 1_555 1_555
C14 C9 1_555 1_555
C15 P2 1_555 1_555
C16 C15 1_555 1_555
C17 C16 1_555 1_555
C18 C17 1_555 1_555
C19 C18 1_555 1_555
C20 C15 1_555 1_555
C21 P2 1_555 1_555
C22 C21 1_555 1_555
C23 C22 1_555 1_555
C24 C23 1_555 1_555
C25 C24 1_555 1_555
C26 C21 1_555 1_555
H1 B1 1_555 1_555
H2 B1 1_555 1_555
H3 C1 1_555 1_555
H4 C1 1_555 1_555
H5 C2 1_555 1_555
H6 C2 1_555 1_555
H7 C4 1_555 1_555
H8 C5 1_555 1_555
H9 C6 1_555 1_555
H10 C7 1_555 1_555
H11 C8 1_555 1_555
H12 C10 1_555 1_555
H13 C11 1_555 1_555
H14 C12 1_555 1_555
H15 C13 1_555 1_555
H16 C14 1_555 1_555
H17 C16 1_555 1_555
H18 C17 1_555 1_555
H19 C18 1_555 1_555
H20 C19 1_555 1_555
H21 C20 1_555 1_555
H22 C22 1_555 1_555
H23 C23 1_555 1_555
H24 C24 1_555 1_555
H25 C25 1_555 1_555
H26 C26 1_555 1_555
C27 Cl1 1_555 1_555
Cl2 C27 1_555 1_555
H27 C27 1_555 1_555
H28 C27 1_555 1_555
C7 C8 1_555 1_555
C13 C14 1_555 1_555
C19 C20 1_555 1_555
C25 C26 1_555 1_555

#END
