
#######################################################################
#
#                 Cambridge Crystallographic Data Centre
#                                CCDC 
#
#######################################################################
#
# If this CIF has been generated from an entry in the Cambridge 
# Structural Database, then it will include bibliographic, chemical, 
# crystal, experimental, refinement or atomic coordinate data resulting 
# from the CCDC's data processing and validation procedures.
#
#######################################################################

data_CAVVAX
_chemical_formula_moiety         'C34 H14 F12,0.2(C1 H2 Cl2)'
_chemical_name_systematic        
"6,13-Diethynyl-5,7,12,14-tetrahydro-5,7:12,14-bis(1',2'-bis(trifluoromethyl)etheno)pentacene dichloromethane solvate"
_symmetry_cell_setting           monoclinic
_symmetry_space_group_name_H-M   'P 21/n'
_symmetry_Int_Tables_number      14
_space_group_name_Hall           '-P 2yn'
loop_
_symmetry_equiv_pos_site_id
_symmetry_equiv_pos_as_xyz
1 x,y,z
2 1/2-x,1/2+y,1/2-z
3 -x,-y,-z
4 1/2+x,1/2-y,1/2+z
_cell_length_a                   8.4828(8)
_cell_length_b                   13.0644(13)
_cell_length_c                   13.703(2)
_cell_angle_alpha                90
_cell_angle_beta                 101.579(13)
_cell_angle_gamma                90
_cell_volume                     1487.7
_exptl_crystal_colour            colorless
_exptl_crystal_description       block
_chemical_melting_point          'above 300 deg.C'
_cell_formula_units_Z            2
_exptl_crystal_recrystallization_method dichloromethane/hexane
loop_
_atom_site_label
_atom_site_type_symbol
_atom_site_fract_x
_atom_site_fract_y
_atom_site_fract_z
C18 C 1.067(2) 0.4605(14) 0.4839(17)
H8 H 1.1248 0.4701 0.4286
H9 H 1.1062 0.3955 0.5171
Cl1 Cl 0.8716(4) 0.4431(2) 0.4320(3)
C18B C 0.933(2) 0.5395(14) 0.5161(17)
H8B H 0.8752 0.5299 0.5714
H9B H 0.8938 0.6045 0.4829
Cl1B Cl 1.1284(4) 0.5569(2) 0.5680(3)
C1 C 0.4850(2) -0.14462(15) 0.75946(14)
H1 H 0.4746 -0.1799 0.8185
C2 C 0.49791(18) -0.10062(12) 0.68576(11)
C3 C 0.50279(17) -0.05034(11) 0.59305(11)
C4 C 0.41271(18) -0.08855(11) 0.50338(11)
C5 C 0.59120(17) 0.03968(11) 0.58730(11)
C6 C 0.69992(18) 0.09416(11) 0.67430(11)
H2 H 0.7028 0.0597 0.7398
C7 C 0.63645(19) 0.20454(12) 0.67133(12)
C8 C 0.6295(2) 0.25099(12) 0.58417(12)
C9 C 0.30944(19) -0.18515(11) 0.49315(11)
H3 H 0.3136 -0.2213 0.5579
C10 C 0.14010(19) -0.15060(11) 0.44426(12)
C11 C 0.0024(2) -0.16257(14) 0.48243(14)
H4 H 0.0067 -0.1955 0.5447
C12 C -0.1432(2) -0.12551(17) 0.42788(16)
H5 H -0.2388 -0.1328 0.4533
C13 C -0.1489(2) -0.07827(15) 0.33711(16)
H6 H -0.2489 -0.0537 0.3005
C14 C -0.0102(2) -0.06616(13) 0.29833(13)
H7 H -0.0149 -0.0341 0.2356
C15 C 0.86533(18) 0.10179(11) 0.64695(11)
C16 C 0.5910(2) 0.24496(15) 0.76443(15)
C17 C 0.5657(3) 0.35627(15) 0.55484(17)
F1 F 0.4527(4) 0.2140(3) 0.7772(3)
F2 F 0.6025(4) 0.34509(16) 0.77460(19)
F3 F 0.6990(3) 0.21281(19) 0.84553(12)
F4 F 0.6577(5) 0.4296(3) 0.5968(4)
F5 F 0.5246(5) 0.3677(2) 0.4588(2)
F6 F 0.4264(4) 0.3744(2) 0.5884(3)
C1B C 0.5150(2) 0.14462(15) 0.24054(14)
H1B H 0.5254 0.1799 0.1815
C2B C 0.50209(18) 0.10062(12) 0.31424(11)
C3B C 0.49721(17) 0.05034(11) 0.40695(11)
C4B C 0.58729(18) 0.08855(11) 0.49662(11)
C5B C 0.40880(17) -0.03968(11) 0.41270(11)
C6B C 0.30008(18) -0.09416(11) 0.32570(11)
H2B H 0.2972 -0.0597 0.2602
C7B C 0.36355(19) -0.20454(12) 0.32867(12)
C8B C 0.3705(2) -0.25099(12) 0.41583(12)
C9B C 0.69056(19) 0.18515(11) 0.50685(11)
H3B H 0.6864 0.2213 0.4421
C10B C 0.85990(19) 0.15060(11) 0.55574(12)
C11B C 0.9976(2) 0.16257(14) 0.51757(14)
H4B H 0.9933 0.1955 0.4553
C12B C 1.1432(2) 0.12551(17) 0.57212(16)
H5B H 1.2388 0.1328 0.5467
C13B C 1.1489(2) 0.07827(15) 0.66289(16)
H6B H 1.2489 0.0537 0.6995
C14B C 1.0102(2) 0.06616(13) 0.70167(13)
H7B H 1.0149 0.0341 0.7644
C15B C 0.13467(18) -0.10179(11) 0.35305(11)
C16B C 0.4090(2) -0.24496(15) 0.23557(15)
C17B C 0.4343(3) -0.35627(15) 0.44516(17)
F1B F 0.5473(4) -0.2140(3) 0.2228(3)
F2B F 0.3975(4) -0.34509(16) 0.22540(19)
F3B F 0.3010(3) -0.21281(19) 0.15447(12)
F4B F 0.3423(5) -0.4296(3) 0.4032(4)
F5B F 0.4754(5) -0.3677(2) 0.5412(2)
F6B F 0.5736(4) -0.3744(2) 0.4116(3)
F7? F 0.6754(14) 0.3002(13) 0.8162(9)
F8? F 0.4541(14) 0.3126(7) 0.7325(8)
F9? F 0.5229(17) 0.1760(7) 0.8051(9)
F10? F 0.6836(16) 0.3977(6) 0.4954(10)
F11? F 0.446(3) 0.3603(11) 0.4967(18)
F12? F 0.597(3) 0.4246(11) 0.6079(10)
loop_
_geom_bond_atom_site_label_1
_geom_bond_atom_site_label_2
_geom_bond_site_symmetry_1
_geom_bond_site_symmetry_2
C1 H1 1_555 1_555
C2 C1 1_555 1_555
C3 C2 1_555 1_555
C4 C3 1_555 1_555
C5 C3 1_555 1_555
C6 C5 1_555 1_555
H2 C6 1_555 1_555
C7 C6 1_555 1_555
C8 C7 1_555 1_555
C9 C4 1_555 1_555
H3 C9 1_555 1_555
C10 C9 1_555 1_555
C11 C10 1_555 1_555
H4 C11 1_555 1_555
C12 C11 1_555 1_555
H5 C12 1_555 1_555
C13 C12 1_555 1_555
H6 C13 1_555 1_555
C14 C13 1_555 1_555
H7 C14 1_555 1_555
C15 C6 1_555 1_555
C16 C7 1_555 1_555
C17 C8 1_555 1_555
F1 C16 1_555 1_555
F2 C16 1_555 1_555
F3 C16 1_555 1_555
F4 C17 1_555 1_555
F5 C17 1_555 1_555
F6 C17 1_555 1_555
C18 H8 1_555 1_555
H9 C18 1_555 1_555
Cl1 C18 1_555 1_555
C1B H1B 1_555 1_555
C2B C1B 1_555 1_555
C3B C2B 1_555 1_555
C4B C5 1_555 1_555
C5B C4 1_555 1_555
C6B C5B 1_555 1_555
H2B C6B 1_555 1_555
C7B C6B 1_555 1_555
C8B C9 1_555 1_555
C9B C8 1_555 1_555
H3B C9B 1_555 1_555
C10B C15 1_555 1_555
C11B C10B 1_555 1_555
H4B C11B 1_555 1_555
C12B C11B 1_555 1_555
H5B C12B 1_555 1_555
C13B C12B 1_555 1_555
H6B C13B 1_555 1_555
C14B C15 1_555 1_555
H7B C14B 1_555 1_555
C15B C10 1_555 1_555
C16B C7B 1_555 1_555
C17B C8B 1_555 1_555
F1B C16B 1_555 1_555
F2B C16B 1_555 1_555
F3B C16B 1_555 1_555
F4B C17B 1_555 1_555
F5B C17B 1_555 1_555
F6B C17B 1_555 1_555
C18B C18 1_555 1_555
H8B C18B 1_555 1_555
H9B C18B 1_555 1_555
Cl1B C18 1_555 1_555
C14 C15B 1_555 1_555
Cl1 C18B 1_555 1_555
C3B C4B 1_555 1_555
C3B C5B 1_555 1_555
C4B C9B 1_555 1_555
C6B C15B 1_555 1_555
C7B C8B 1_555 1_555
C9B C10B 1_555 1_555
C13B C14B 1_555 1_555
C18B Cl1B 1_555 1_555

#END
