
#######################################################################
#
#                 Cambridge Crystallographic Data Centre
#                                CCDC 
#
#######################################################################
#
# If this CIF has been generated from an entry in the Cambridge 
# Structural Database, then it will include bibliographic, chemical, 
# crystal, experimental, refinement or atomic coordinate data resulting 
# from the CCDC's data processing and validation procedures.
#
#######################################################################

data_CAVVON
_chemical_formula_moiety         'C20 H22 B1 N1 P1 1+,Br1 1-'
_chemical_name_systematic        
'bromo(2-(diphenylphosphino)-N,N-dimethylaniline)hydridoborinium bromide'
_symmetry_cell_setting           monoclinic
_symmetry_space_group_name_H-M   'P 21/n'
_symmetry_Int_Tables_number      14
_space_group_name_Hall           '-P 2yn'
loop_
_symmetry_equiv_pos_site_id
_symmetry_equiv_pos_as_xyz
1 x,y,z
2 1/2-x,1/2+y,1/2-z
3 -x,-y,-z
4 1/2+x,1/2-y,1/2+z
_cell_length_a                   9.5770(2)
_cell_length_b                   7.34050(10)
_cell_length_c                   27.7205(5)
_cell_angle_alpha                90
_cell_angle_beta                 98.4547(10)
_cell_angle_gamma                90
_cell_volume                     1927.57
_exptl_crystal_colour            colorless
_exptl_crystal_description       plate
_cell_formula_units_Z            4
_exptl_crystal_recrystallization_method dichloromethane/pentane
loop_
_atom_site_label
_atom_site_type_symbol
_atom_site_fract_x
_atom_site_fract_y
_atom_site_fract_z
B1 B 0.5114(2) 0.9010(4) 0.62543(9)
N1 N 0.53836(16) 0.9047(2) 0.68455(6)
P1 P 0.33608(5) 0.76316(7) 0.613018(18)
C1 C 0.36305(19) 0.6584(3) 0.67233(7)
C2 C 0.46962(19) 0.7444(3) 0.70398(7)
C3 C 0.5038(2) 0.6869(3) 0.75171(7)
C4 C 0.4317(2) 0.5398(3) 0.76753(8)
C5 C 0.3266(2) 0.4522(3) 0.73647(8)
C6 C 0.2910(2) 0.5105(3) 0.68879(8)
C7 C 0.1697(2) 0.8813(3) 0.60479(7)
C8 C 0.0450(2) 0.7904(3) 0.61076(8)
C9 C -0.0820(2) 0.8829(4) 0.60357(8)
C10 C -0.0864(3) 1.0641(4) 0.59086(10)
C11 C 0.0355(3) 1.1545(4) 0.58499(12)
C12 C 0.1642(3) 1.0643(3) 0.59182(10)
C13 C 0.3288(2) 0.5902(3) 0.56653(7)
C14 C 0.2261(3) 0.5953(4) 0.52520(8)
C15 C 0.2289(3) 0.4657(4) 0.48896(9)
C16 C 0.3313(3) 0.3326(4) 0.49370(9)
C17 C 0.4331(3) 0.3280(3) 0.53431(8)
C18 C 0.4328(2) 0.4566(3) 0.57100(8)
C19 C 0.4781(3) 1.0752(3) 0.70352(10)
C20 C 0.6957(2) 0.9069(3) 0.70159(8)
H1 H 0.528(3) 1.049(3) 0.6029(9)
H2 H 0.586(2) 0.806(3) 0.6128(8)
H3 H 0.571(3) 0.747(3) 0.7731(9)
H4 H 0.460(2) 0.497(3) 0.8004(9)
H5 H 0.282(2) 0.357(3) 0.7479(8)
H6 H 0.219(3) 0.452(3) 0.6683(9)
H7 H 0.048(3) 0.663(4) 0.6209(9)
H8 H -0.165(3) 0.823(3) 0.6092(9)
H9 H -0.171(3) 1.126(4) 0.5876(10)
H10 H 0.035(3) 1.275(4) 0.5766(11)
H11 H 0.246(3) 1.123(4) 0.5873(10)
H12 H 0.155(3) 0.692(4) 0.5212(10)
H13 H 0.166(3) 0.470(5) 0.4619(13)
H14 H 0.335(3) 0.242(4) 0.4687(11)
H15 H 0.506(3) 0.237(4) 0.5376(9)
H16 H 0.507(3) 0.458(3) 0.5990(10)
H17 H 0.492(3) 1.073(3) 0.7376(10)
H18 H 0.525(2) 1.174(4) 0.6905(9)
H19 H 0.376(3) 1.077(3) 0.6907(9)
H20 H 0.733(2) 0.797(3) 0.6929(8)
H21 H 0.715(2) 0.925(3) 0.7369(9)
H22 H 0.732(2) 1.011(4) 0.6844(9)
Br1 Br 0.77871(3) 0.44246(3) 0.655128(9)
loop_
_geom_bond_atom_site_label_1
_geom_bond_atom_site_label_2
_geom_bond_site_symmetry_1
_geom_bond_site_symmetry_2
B1 N1 1_555 1_555
N1 C2 1_555 1_555
P1 B1 1_555 1_555
C1 P1 1_555 1_555
C2 C1 1_555 1_555
C3 C2 1_555 1_555
C4 C3 1_555 1_555
C5 C4 1_555 1_555
C6 C1 1_555 1_555
C7 P1 1_555 1_555
C8 C7 1_555 1_555
C9 C8 1_555 1_555
C10 C9 1_555 1_555
C11 C10 1_555 1_555
C12 C7 1_555 1_555
C13 P1 1_555 1_555
C14 C13 1_555 1_555
C15 C14 1_555 1_555
C16 C15 1_555 1_555
C17 C16 1_555 1_555
C18 C13 1_555 1_555
C19 N1 1_555 1_555
C20 N1 1_555 1_555
H1 B1 1_555 1_555
H2 B1 1_555 1_555
H3 C3 1_555 1_555
H4 C4 1_555 1_555
H5 C5 1_555 1_555
H6 C6 1_555 1_555
H7 C8 1_555 1_555
H8 C9 1_555 1_555
H9 C10 1_555 1_555
H10 C11 1_555 1_555
H11 C12 1_555 1_555
H12 C14 1_555 1_555
H13 C15 1_555 1_555
H14 C16 1_555 1_555
H15 C17 1_555 1_555
H16 C18 1_555 1_555
H17 C19 1_555 1_555
H18 C19 1_555 1_555
H19 C19 1_555 1_555
H20 C20 1_555 1_555
H21 C20 1_555 1_555
H22 C20 1_555 1_555
C5 C6 1_555 1_555
C11 C12 1_555 1_555
C17 C18 1_555 1_555

#END
