
#######################################################################
#
#                 Cambridge Crystallographic Data Centre
#                                CCDC 
#
#######################################################################
#
# If this CIF has been generated from an entry in the Cambridge 
# Structural Database, then it will include bibliographic, chemical, 
# crystal, experimental, refinement or atomic coordinate data resulting 
# from the CCDC's data processing and validation procedures.
#
#######################################################################

data_CAVVUT
_chemical_formula_moiety         'C41 H41 B1 P3 1+,As1 F6 1-,H2 O1'
_chemical_name_systematic        
'((2-((diphenylphosphanyl)methyl)-2-methylpropane-1,3-diyl)bis(diphenylphosphane))dihydridoboronium hexafluoroarsenate monohydrate'
_symmetry_cell_setting           monoclinic
_symmetry_space_group_name_H-M   'P 21/n'
_symmetry_Int_Tables_number      14
_space_group_name_Hall           '-P 2yn'
loop_
_symmetry_equiv_pos_site_id
_symmetry_equiv_pos_as_xyz
1 x,y,z
2 1/2-x,1/2+y,1/2-z
3 -x,-y,-z
4 1/2+x,1/2-y,1/2+z
_cell_length_a                   13.2239(6)
_cell_length_b                   21.5110(9)
_cell_length_c                   14.3499(4)
_cell_angle_alpha                90
_cell_angle_beta                 100.315(2)
_cell_angle_gamma                90
_cell_volume                     4015.99
_exptl_crystal_colour            colorless
_exptl_crystal_description       prism
_cell_formula_units_Z            4
_exptl_crystal_recrystallization_method dichloromethane/acetone/pentane
loop_
_atom_site_label
_atom_site_type_symbol
_atom_site_fract_x
_atom_site_fract_y
_atom_site_fract_z
As1 As 0.13019(6) 0.60927(3) -0.20490(4)
F1 F 0.0086(4) 0.6330(2) -0.2552(3)
F2 F 0.1102(4) 0.5496(3) -0.2823(4)
F3 F 0.2463(5) 0.5853(4) -0.1574(4)
F4 F 0.1769(5) 0.6507(3) -0.2857(4)
F5 F 0.1454(4) 0.6688(3) -0.1271(4)
F6 F 0.0739(5) 0.5710(3) -0.1269(3)
B1 B -0.1134(6) 0.7546(3) 0.1702(5)
P1 P 0.20616(13) 0.58268(8) 0.19758(11)
P2 P -0.12344(12) 0.67851(7) 0.23763(10)
P3 P -0.06056(12) 0.73921(7) 0.05555(10)
C1 C 0.0810(4) 0.5656(3) 0.1188(4)
C2 C -0.0219(4) 0.6257(3) 0.2182(4)
C3 C 0.0295(4) 0.6748(2) 0.0717(4)
C4 C -0.0056(4) 0.6145(3) 0.1157(4)
C5 C -0.1019(5) 0.5869(3) 0.0535(4)
C6 C 0.1890(4) 0.5549(3) 0.3145(4)
C7 C 0.1377(5) 0.5014(3) 0.3294(4)
C8 C 0.1202(6) 0.4853(4) 0.4192(5)
C9 C 0.1575(7) 0.5232(5) 0.4952(5)
C10 C 0.2092(6) 0.5752(4) 0.4817(5)
C11 C 0.2250(5) 0.5925(3) 0.3922(4)
C12 C 0.2866(5) 0.5226(3) 0.1578(4)
C13 C 0.3406(5) 0.4779(3) 0.2163(5)
C14 C 0.4077(6) 0.4374(4) 0.1842(7)
C15 C 0.4210(7) 0.4412(4) 0.0913(7)
C16 C 0.3694(6) 0.4854(4) 0.0317(6)
C17 C 0.3034(5) 0.5263(4) 0.0640(5)
C18 C -0.0970(4) 0.6960(3) 0.3627(4)
C19 C -0.0377(5) 0.6581(3) 0.4285(4)
C20 C -0.0186(6) 0.6735(3) 0.5226(5)
C21 C -0.0616(7) 0.7257(4) 0.5529(5)
C22 C -0.1217(6) 0.7634(4) 0.4888(5)
C23 C -0.1396(5) 0.7485(3) 0.3940(4)
C24 C -0.2462(5) 0.6390(3) 0.2191(4)
C25 C -0.2533(5) 0.5771(3) 0.2406(5)
C26 C -0.3471(6) 0.5486(4) 0.2343(5)
C27 C -0.4336(7) 0.5812(4) 0.2095(6)
C28 C -0.4286(7) 0.6428(5) 0.1887(7)
C29 C -0.3350(6) 0.6723(4) 0.1924(6)
C30 C 0.0122(5) 0.8071(3) 0.0318(4)
C31 C 0.0960(6) 0.8034(3) -0.0118(5)
C32 C 0.1495(7) 0.8568(4) -0.0277(6)
C33 C 0.1182(6) 0.9134(4) -0.0022(6)
C34 C 0.0365(6) 0.9175(3) 0.0431(5)
C35 C -0.0184(5) 0.8643(3) 0.0586(5)
C36 C -0.1573(5) 0.7273(3) -0.0493(4)
C37 C -0.1269(6) 0.7096(4) -0.1333(5)
C38 C -0.2008(6) 0.6997(5) -0.2143(5)
C39 C -0.3030(6) 0.7088(4) -0.2096(6)
C40 C -0.3320(6) 0.7255(4) -0.1283(6)
C41 C -0.2606(5) 0.7348(3) -0.0466(5)
H1 H -0.0551 0.7840 0.2164
H2 H -0.1826 0.7840 0.1488
H3 H 0.0953 0.5620 0.0554
H4 H 0.0559 0.5265 0.1368
H5 H 0.0413 0.6446 0.2511
H6 H -0.0304 0.5861 0.2478
H7 H 0.0911 0.6898 0.1139
H8 H 0.0482 0.6638 0.0117
H9 H -0.1186 0.5472 0.0766
H10 H -0.0889 0.5816 -0.0099
H11 H -0.1597 0.6139 0.0522
H12 H 0.1139 0.4748 0.2786
H13 H 0.0833 0.4495 0.4273
H14 H 0.1476 0.5125 0.5557
H15 H 0.2354 0.6003 0.5337
H16 H 0.2594 0.6287 0.3833
H17 H 0.3326 0.4753 0.2797
H18 H 0.4426 0.4080 0.2253
H19 H 0.4656 0.4135 0.0685
H20 H 0.3798 0.4878 -0.0301
H21 H 0.2696 0.5559 0.0243
H22 H -0.0100 0.6225 0.4089
H23 H 0.0241 0.6482 0.5659
H24 H -0.0501 0.7359 0.6169
H25 H -0.1511 0.7993 0.5094
H26 H -0.1804 0.7733 0.3513
H27 H -0.1938 0.5541 0.2597
H28 H -0.3502 0.5064 0.2481
H29 H -0.4974 0.5627 0.2070
H30 H -0.4884 0.6657 0.1716
H31 H -0.3326 0.7141 0.1764
H32 H 0.1172 0.7650 -0.0301
H33 H 0.2072 0.8535 -0.0560
H34 H 0.1518 0.9494 -0.0153
H35 H 0.0167 0.9558 0.0634
H36 H -0.0763 0.8675 0.0875
H37 H -0.0578 0.7042 -0.1358
H38 H -0.1811 0.6869 -0.2696
H39 H -0.3521 0.7032 -0.2642
H40 H -0.4007 0.7310 -0.1273
H41 H -0.2814 0.7454 0.0098
O1 O 0.4001(3) 0.6492(2) 0.2832(3)
H42 H 0.4296 0.6782 0.3228
H43 H 0.3369 0.6455 0.2465
loop_
_geom_bond_atom_site_label_1
_geom_bond_atom_site_label_2
_geom_bond_site_symmetry_1
_geom_bond_site_symmetry_2
As1 F1 1_555 1_555
F2 As1 1_555 1_555
F3 As1 1_555 1_555
F4 As1 1_555 1_555
F5 As1 1_555 1_555
F6 As1 1_555 1_555
B1 P2 1_555 1_555
P1 C1 1_555 1_555
P2 C2 1_555 1_555
P3 B1 1_555 1_555
C1 C4 1_555 1_555
C2 C4 1_555 1_555
C3 P3 1_555 1_555
C4 C3 1_555 1_555
C5 C4 1_555 1_555
C6 P1 1_555 1_555
C7 C6 1_555 1_555
C8 C7 1_555 1_555
C9 C8 1_555 1_555
C10 C9 1_555 1_555
C11 C6 1_555 1_555
C12 P1 1_555 1_555
C13 C12 1_555 1_555
C14 C13 1_555 1_555
C15 C14 1_555 1_555
C16 C15 1_555 1_555
C17 C12 1_555 1_555
C18 P2 1_555 1_555
C19 C18 1_555 1_555
C20 C19 1_555 1_555
C21 C20 1_555 1_555
C22 C21 1_555 1_555
C23 C18 1_555 1_555
C24 P2 1_555 1_555
C25 C24 1_555 1_555
C26 C25 1_555 1_555
C27 C26 1_555 1_555
C28 C27 1_555 1_555
C29 C24 1_555 1_555
C30 P3 1_555 1_555
C31 C30 1_555 1_555
C32 C31 1_555 1_555
C33 C32 1_555 1_555
C34 C33 1_555 1_555
C35 C30 1_555 1_555
C36 P3 1_555 1_555
C37 C36 1_555 1_555
C38 C37 1_555 1_555
C39 C38 1_555 1_555
C40 C39 1_555 1_555
C41 C36 1_555 1_555
H1 B1 1_555 1_555
H2 B1 1_555 1_555
H3 C1 1_555 1_555
H4 C1 1_555 1_555
H5 C2 1_555 1_555
H6 C2 1_555 1_555
H7 C3 1_555 1_555
H8 C3 1_555 1_555
H9 C5 1_555 1_555
H10 C5 1_555 1_555
H11 C5 1_555 1_555
H12 C7 1_555 1_555
H13 C8 1_555 1_555
H14 C9 1_555 1_555
H15 C10 1_555 1_555
H16 C11 1_555 1_555
H17 C13 1_555 1_555
H18 C14 1_555 1_555
H19 C15 1_555 1_555
H20 C16 1_555 1_555
H21 C17 1_555 1_555
H22 C19 1_555 1_555
H23 C20 1_555 1_555
H24 C21 1_555 1_555
H25 C22 1_555 1_555
H26 C23 1_555 1_555
H27 C25 1_555 1_555
H28 C26 1_555 1_555
H29 C27 1_555 1_555
H30 C28 1_555 1_555
H31 C29 1_555 1_555
H32 C31 1_555 1_555
H33 C32 1_555 1_555
H34 C33 1_555 1_555
H35 C34 1_555 1_555
H36 C35 1_555 1_555
H37 C37 1_555 1_555
H38 C38 1_555 1_555
H39 C39 1_555 1_555
H40 C40 1_555 1_555
H41 C41 1_555 1_555
O1 H42 1_555 1_555
H43 O1 1_555 1_555
C10 C11 1_555 1_555
C16 C17 1_555 1_555
C22 C23 1_555 1_555
C28 C29 1_555 1_555
C34 C35 1_555 1_555
C40 C41 1_555 1_555

#END
