
#######################################################################
#
#                 Cambridge Crystallographic Data Centre
#                                CCDC 
#
#######################################################################
#
# If this CIF has been generated from an entry in the Cambridge 
# Structural Database, then it will include bibliographic, chemical, 
# crystal, experimental, refinement or atomic coordinate data resulting 
# from the CCDC's data processing and validation procedures.
#
#######################################################################

data_CAWXEF
_chemical_formula_moiety         'C21 H17 O2 P1 S2'
_chemical_name_systematic        
(5'-(Diphenylphosphoryl)-2,2'-bithiophen-5-yl)methanol
_symmetry_cell_setting           monoclinic
_symmetry_space_group_name_H-M   'P 21/n'
_symmetry_Int_Tables_number      14
_space_group_name_Hall           '-P 2yn'
loop_
_symmetry_equiv_pos_site_id
_symmetry_equiv_pos_as_xyz
1 x,y,z
2 1/2-x,1/2+y,1/2-z
3 -x,-y,-z
4 1/2+x,1/2-y,1/2+z
_cell_length_a                   9.4366(19)
_cell_length_b                   11.474(2)
_cell_length_c                   17.698(4)
_cell_angle_alpha                90
_cell_angle_beta                 102.12(3)
_cell_angle_gamma                90
_cell_volume                     1873.55
_exptl_crystal_colour            colorless
_exptl_crystal_description       hexagonal
_cell_formula_units_Z            4
loop_
_atom_site_label
_atom_site_type_symbol
_atom_site_fract_x
_atom_site_fract_y
_atom_site_fract_z
C1 C 0.4876(3) 0.3167(2) 0.20532(14)
C2 C 0.3689(3) 0.3614(2) 0.22823(15)
H1 H 0.3230 0.3241 0.2631
C3 C 0.3232(3) 0.4690(2) 0.19397(14)
H2 H 0.2439 0.5101 0.2037
C4 C 0.4073(2) 0.5072(2) 0.14473(13)
C5 C 0.4002(3) 0.6172(2) 0.10414(13)
C6 C 0.4982(3) 0.6672(2) 0.06883(17)
H3 H 0.5827 0.6302 0.0627
C7 C 0.4602(3) 0.7814(3) 0.04198(18)
H4 H 0.5164 0.8265 0.0159
C8 C 0.3342(3) 0.8184(2) 0.05803(15)
C9 C 0.2619(4) 0.9348(3) 0.04159(18)
H5 H 0.3206 0.9834 0.0153
H6 H 0.1687 0.9238 0.0068
C10 C 0.5974(2) 0.1757(2) 0.33763(14)
C11 C 0.6149(3) 0.2739(2) 0.38428(15)
H7 H 0.6102 0.3475 0.3619
C12 C 0.6390(3) 0.2636(3) 0.46371(16)
H8 H 0.6500 0.3300 0.4945
C13 C 0.6468(3) 0.1559(3) 0.49712(17)
H9 H 0.6634 0.1493 0.5506
C14 C 0.6304(3) 0.0575(3) 0.45215(17)
H10 H 0.6359 -0.0157 0.4752
C15 C 0.6056(3) 0.0668(2) 0.37257(16)
H11 H 0.5943 -0.0002 0.3423
C16 C 0.7515(3) 0.1908(2) 0.21275(14)
C17 C 0.7974(3) 0.1047(2) 0.16819(15)
H12 H 0.7354 0.0441 0.1483
C18 C 0.9353(3) 0.1092(2) 0.15346(17)
H13 H 0.9659 0.0512 0.1239
C19 C 1.0278(3) 0.1990(2) 0.18225(16)
H14 H 1.1201 0.2020 0.1716
C20 C 0.9834(3) 0.2845(2) 0.22691(16)
H15 H 1.0460 0.3450 0.2465
C21 C 0.8467(3) 0.2803(2) 0.24247(15)
H16 H 0.8176 0.3377 0.2731
H17 H 0.334(6) 1.021(5) 0.134(3)
O1 O 0.4941(2) 0.07577(16) 0.19696(11)
O2 O 0.2403(2) 0.99358(19) 0.10771(13)
P1 P 0.57317(7) 0.18022(5) 0.23380(4)
S1 S 0.54273(7) 0.40855(5) 0.14049(4)
S2 S 0.25703(7) 0.71074(6) 0.10396(4)
loop_
_geom_bond_atom_site_label_1
_geom_bond_atom_site_label_2
_geom_bond_site_symmetry_1
_geom_bond_site_symmetry_2
C1 C2 1_555 1_555
C2 H1 1_555 1_555
C3 C2 1_555 1_555
H2 C3 1_555 1_555
C4 C3 1_555 1_555
C5 C4 1_555 1_555
C6 C5 1_555 1_555
H3 C6 1_555 1_555
C7 C6 1_555 1_555
H4 C7 1_555 1_555
C8 C7 1_555 1_555
C9 C8 1_555 1_555
H5 C9 1_555 1_555
H6 C9 1_555 1_555
C10 C11 1_555 1_555
C11 H7 1_555 1_555
C12 C11 1_555 1_555
H8 C12 1_555 1_555
C13 C12 1_555 1_555
H9 C13 1_555 1_555
C14 C13 1_555 1_555
H10 C14 1_555 1_555
C15 C10 1_555 1_555
H11 C15 1_555 1_555
C16 C17 1_555 1_555
C17 H12 1_555 1_555
C18 C17 1_555 1_555
H13 C18 1_555 1_555
C19 C18 1_555 1_555
H14 C19 1_555 1_555
C20 C19 1_555 1_555
H15 C20 1_555 1_555
C21 C16 1_555 1_555
H16 C21 1_555 1_555
H17 O2 1_555 1_555
O1 P1 1_555 1_555
O2 C9 1_555 1_555
P1 C1 1_555 1_555
S1 C1 1_555 1_555
S2 C5 1_555 1_555
C4 S1 1_555 1_555
C8 S2 1_555 1_555
C10 P1 1_555 1_555
C14 C15 1_555 1_555
C16 P1 1_555 1_555
C20 C21 1_555 1_555

#END
