
#######################################################################
#
#                 Cambridge Crystallographic Data Centre
#                                CCDC 
#
#######################################################################
#
# If this CIF has been generated from an entry in the Cambridge 
# Structural Database, then it will include bibliographic, chemical, 
# crystal, experimental, refinement or atomic coordinate data resulting 
# from the CCDC's data processing and validation procedures.
#
#######################################################################

data_CAWZIK
_chemical_formula_moiety         'C43 H35 Cl1 Si1'
_chemical_name_systematic        
2,3-Benzo-1,4,5,6-tetraphenyl-7-chloro-7-mesityl-7-silanorbornadiene
_symmetry_cell_setting           monoclinic
_symmetry_space_group_name_H-M   'P 21/n'
_symmetry_Int_Tables_number      14
_space_group_name_Hall           '-P 2yn'
loop_
_symmetry_equiv_pos_site_id
_symmetry_equiv_pos_as_xyz
1 x,y,z
2 1/2-x,1/2+y,1/2-z
3 -x,-y,-z
4 1/2+x,1/2-y,1/2+z
_cell_length_a                   12.8650(5)
_cell_length_b                   19.0810(8)
_cell_length_c                   14.0220(5)
_cell_angle_alpha                90
_cell_angle_beta                 107.946(4)
_cell_angle_gamma                90
_cell_volume                     3274.61
_exptl_crystal_colour            colorless
_exptl_crystal_description       cuboid
_chemical_melting_point          252-253deg.C.(dec.)
_cell_formula_units_Z            4
_exptl_crystal_recrystallization_method deuterochloroform/hexane
loop_
_atom_site_label
_atom_site_type_symbol
_atom_site_fract_x
_atom_site_fract_y
_atom_site_fract_z
Si1 Si 1.01221(5) 0.16662(3) 0.74811(4)
Cl1 Cl 1.12697(5) 0.24715(3) 0.78463(4)
C1 C 0.8966(2) 0.19476(10) 0.79966(15)
C2 C 0.8653(2) 0.26303(10) 0.73835(16)
C3 C 0.8640(2) 0.25400(10) 0.63832(16)
C4 C 0.9002(2) 0.18028(10) 0.62057(15)
C5 C 0.8165(2) 0.13155(9) 0.64526(15)
C6 C 0.8112(2) 0.14074(10) 0.73954(15)
C7 C 0.8402(2) 0.32780(11) 0.77091(18)
H1 H 0.8446 0.3346 0.8392
C8 C 0.8084(3) 0.38263(11) 0.7023(2)
H2 H 0.7928 0.4273 0.7244
C9 C 0.7995(3) 0.37257(12) 0.6022(2)
H3 H 0.7738 0.4096 0.5555
C10 C 0.8281(2) 0.30817(11) 0.56946(18)
H4 H 0.8231 0.3015 0.5010
C11 C 1.0940(2) 0.08245(10) 0.76928(15)
C12 C 1.0757(2) 0.02544(10) 0.82714(15)
C13 C 1.1469(3) -0.03140(11) 0.84675(18)
H5 H 1.1356 -0.0682 0.8880
C14 C 1.2336(3) -0.03623(12) 0.8083(2)
C15 C 1.2487(3) 0.01822(13) 0.74869(19)
H6 H 1.3071 0.0155 0.7207
C16 C 1.1810(2) 0.07688(11) 0.72856(17)
C17 C 0.9804(2) 0.02204(11) 0.86634(18)
H7 H 0.9851 -0.0207 0.9062
H8 H 0.9125 0.0215 0.8101
H9 H 0.9810 0.0631 0.9085
C18 C 1.3076(4) -0.09977(17) 0.8266(3)
H10 H 1.2976 -0.1272 0.8822
H11 H 1.3838 -0.0845 0.8434
H12 H 1.2891 -0.1287 0.7659
C19 C 1.2080(3) 0.13113(13) 0.6605(2)
H13 H 1.2624 0.1640 0.7010
H14 H 1.1415 0.1568 0.6244
H15 H 1.2374 0.1076 0.6123
C20 C 0.9110(2) 0.20325(10) 0.91022(16)
C21 C 0.8237(2) 0.22566(11) 0.94230(18)
H16 H 0.7553 0.2358 0.8940
C22 C 0.8352(3) 0.23335(12) 1.04320(19)
H17 H 0.7750 0.2486 1.0636
C23 C 0.9344(3) 0.21885(13) 1.11433(19)
H18 H 0.9421 0.2233 1.1836
C24 C 1.0222(3) 0.19790(12) 1.08439(18)
H19 H 1.0906 0.1886 1.1331
C25 C 1.0108(2) 0.19041(11) 0.98288(16)
H20 H 1.0719 0.1764 0.9629
C26 C 0.9365(2) 0.16664(10) 0.52942(15)
C27 C 0.9856(2) 0.21991(12) 0.48951(18)
H21 H 0.9896 0.2660 0.5161
C28 C 1.0285(3) 0.20654(13) 0.41189(19)
H22 H 1.0603 0.2436 0.3853
C29 C 1.0254(3) 0.13972(15) 0.37290(19)
H23 H 1.0550 0.1307 0.3199
C30 C 0.9785(3) 0.08622(13) 0.41233(18)
H24 H 0.9760 0.0401 0.3862
C31 C 0.9351(2) 0.09927(11) 0.48956(17)
H25 H 0.9038 0.0618 0.5160
C32 C 0.7376(2) 0.08934(10) 0.56775(15)
C33 C 0.6735(2) 0.12213(12) 0.48053(17)
H26 H 0.6833 0.1706 0.4705
C34 C 0.5953(3) 0.08435(15) 0.40833(19)
H27 H 0.5512 0.1072 0.3496
C35 C 0.5814(3) 0.01368(16) 0.4216(2)
H28 H 0.5274 -0.0120 0.3725
C36 C 0.6463(3) -0.01953(13) 0.5066(2)
H29 H 0.6378 -0.0684 0.5150
C37 C 0.7239(3) 0.01775(11) 0.57999(18)
H30 H 0.7677 -0.0055 0.6385
C38 C 0.7196(2) 0.11679(10) 0.77491(15)
C39 C 0.6138(2) 0.13841(11) 0.72074(17)
H31 H 0.6025 0.1639 0.6601
C40 C 0.5258(3) 0.12340(13) 0.7538(2)
H32 H 0.4549 0.1388 0.7159
C41 C 0.5396(3) 0.08611(13) 0.8419(2)
H33 H 0.4789 0.0762 0.8647
C42 C 0.6438(3) 0.06357(12) 0.8960(2)
H34 H 0.6541 0.0371 0.9556
C43 C 0.7325(2) 0.07926(12) 0.86390(18)
H35 H 0.8034 0.0644 0.9027
loop_
_geom_bond_atom_site_label_1
_geom_bond_atom_site_label_2
_geom_bond_site_symmetry_1
_geom_bond_site_symmetry_2
Si1 Cl1 1_555 1_555
C1 Si1 1_555 1_555
C2 C1 1_555 1_555
C3 C2 1_555 1_555
C4 Si1 1_555 1_555
C5 C4 1_555 1_555
C6 C1 1_555 1_555
C7 C2 1_555 1_555
H1 C7 1_555 1_555
C8 C7 1_555 1_555
H2 C8 1_555 1_555
C9 C8 1_555 1_555
H3 C9 1_555 1_555
C10 C3 1_555 1_555
H4 C10 1_555 1_555
C11 Si1 1_555 1_555
C12 C11 1_555 1_555
C13 C12 1_555 1_555
H5 C13 1_555 1_555
C14 C13 1_555 1_555
C15 C14 1_555 1_555
H6 C15 1_555 1_555
C16 C11 1_555 1_555
C17 C12 1_555 1_555
H7 C17 1_555 1_555
H8 C17 1_555 1_555
H9 C17 1_555 1_555
C18 C14 1_555 1_555
H10 C18 1_555 1_555
H11 C18 1_555 1_555
H12 C18 1_555 1_555
C19 C16 1_555 1_555
H13 C19 1_555 1_555
H14 C19 1_555 1_555
H15 C19 1_555 1_555
C20 C1 1_555 1_555
C21 C20 1_555 1_555
H16 C21 1_555 1_555
C22 C21 1_555 1_555
H17 C22 1_555 1_555
C23 C22 1_555 1_555
H18 C23 1_555 1_555
C24 C23 1_555 1_555
H19 C24 1_555 1_555
C25 C20 1_555 1_555
H20 C25 1_555 1_555
C26 C4 1_555 1_555
C27 C26 1_555 1_555
H21 C27 1_555 1_555
C28 C27 1_555 1_555
H22 C28 1_555 1_555
C29 C28 1_555 1_555
H23 C29 1_555 1_555
C30 C29 1_555 1_555
H24 C30 1_555 1_555
C31 C26 1_555 1_555
H25 C31 1_555 1_555
C32 C5 1_555 1_555
C33 C32 1_555 1_555
H26 C33 1_555 1_555
C34 C33 1_555 1_555
H27 C34 1_555 1_555
C35 C34 1_555 1_555
H28 C35 1_555 1_555
C36 C35 1_555 1_555
H29 C36 1_555 1_555
C37 C32 1_555 1_555
H30 C37 1_555 1_555
C38 C6 1_555 1_555
C39 C38 1_555 1_555
H31 C39 1_555 1_555
C40 C39 1_555 1_555
H32 C40 1_555 1_555
C41 C40 1_555 1_555
H33 C41 1_555 1_555
C42 C41 1_555 1_555
H34 C42 1_555 1_555
C43 C38 1_555 1_555
H35 C43 1_555 1_555
C3 C4 1_555 1_555
C5 C6 1_555 1_555
C9 C10 1_555 1_555
C15 C16 1_555 1_555
C24 C25 1_555 1_555
C30 C31 1_555 1_555
C36 C37 1_555 1_555
C42 C43 1_555 1_555

#END
