
#######################################################################
#
#                 Cambridge Crystallographic Data Centre
#                                CCDC 
#
#######################################################################
#
# If this CIF has been generated from an entry in the Cambridge 
# Structural Database, then it will include bibliographic, chemical, 
# crystal, experimental, refinement or atomic coordinate data resulting 
# from the CCDC's data processing and validation procedures.
#
#######################################################################

data_CAXMUM
_chemical_formula_moiety         'C25 H14 F2 N2 O1'
_chemical_name_systematic        
1,2-bis(4-fluorophenyl)-4-hydroxy-9H-carbazole-3-carbonitrile
_symmetry_cell_setting           triclinic
_symmetry_space_group_name_H-M   'P -1'
_symmetry_Int_Tables_number      2
_space_group_name_Hall           '-P 1'
loop_
_symmetry_equiv_pos_site_id
_symmetry_equiv_pos_as_xyz
1 x,y,z
2 -x,-y,-z
_cell_length_a                   9.2966(19)
_cell_length_b                   19.662(4)
_cell_length_c                   23.710(5)
_cell_angle_alpha                112.27(3)
_cell_angle_beta                 97.74(3)
_cell_angle_gamma                97.06(3)
_cell_volume                     3901.97
_exptl_crystal_colour            colorless
_exptl_crystal_description       prism
_cell_formula_units_Z            8
loop_
_atom_site_label
_atom_site_type_symbol
_atom_site_fract_x
_atom_site_fract_y
_atom_site_fract_z
F1 F 0.3094(3) -0.17273(15) 0.21745(10)
F2 F 0.3260(3) 0.22444(11) 0.39337(9)
O1 O 0.2007(3) -0.13010(12) 0.59216(10)
H1 H 0.2020 -0.1745 0.5690
N1 N 0.2389(3) 0.11005(16) 0.60418(13)
H2 H 0.243(4) 0.149(2) 0.5946(16)
N2 N 0.1893(4) -0.25475(16) 0.43621(13)
C1 C 0.2286(4) 0.10934(19) 0.66211(16)
C2 C 0.2286(4) 0.16883(19) 0.71792(16)
H3 H 0.2377 0.2188 0.7208
C3 C 0.2149(4) 0.1522(2) 0.76856(16)
H4 H 0.2142 0.1916 0.8071
C4 C 0.2018(4) 0.0781(2) 0.76478(17)
H5 H 0.1927 0.0686 0.8007
C5 C 0.2021(4) 0.01956(19) 0.70949(15)
H6 H 0.1921 -0.0303 0.7068
C6 C 0.2174(4) 0.03511(18) 0.65723(15)
C7 C 0.2216(4) -0.00994(18) 0.59313(15)
C8 C 0.2157(4) -0.08649(18) 0.56027(15)
C9 C 0.2244(4) -0.11187(17) 0.49728(15)
C10 C 0.2423(4) -0.06137(17) 0.46667(15)
C11 C 0.2484(4) 0.01435(18) 0.49952(15)
C12 C 0.2342(4) 0.03830(17) 0.56219(15)
C13 C 0.2078(4) -0.19064(19) 0.46252(15)
C14 C 0.2581(4) -0.09254(18) 0.39997(15)
C15 C 0.3670(4) -0.13495(19) 0.38103(16)
H7 H 0.4298 -0.1452 0.4107
C16 C 0.3845(5) -0.1622(2) 0.31984(17)
H8 H 0.4580 -0.1911 0.3071
C17 C 0.2920(5) -0.1460(2) 0.27780(17)
C18 C 0.1832(5) -0.1052(2) 0.29413(17)
H9 H 0.1204 -0.0957 0.2640
C19 C 0.1669(4) -0.07819(19) 0.35563(16)
H10 H 0.0926 -0.0495 0.3677
C20 C 0.2705(4) 0.07079(17) 0.47174(14)
C21 C 0.3983(4) 0.08176(18) 0.44900(15)
H11 H 0.4724 0.0531 0.4511
C22 C 0.4182(4) 0.13436(18) 0.42319(15)
H12 H 0.5057 0.1426 0.4083
C23 C 0.3086(4) 0.17358(18) 0.41995(15)
C24 C 0.1793(4) 0.16496(19) 0.44144(16)
H13 H 0.1049 0.1930 0.4380
C25 C 0.1630(4) 0.11357(19) 0.46822(16)
H14 H 0.0768 0.1073 0.4845
F3 F 0.6467(3) 0.32108(14) 0.20762(9)
F4 F 0.6472(3) 0.73682(11) 0.38356(10)
O2 O 0.8116(3) 0.40608(12) 0.60022(10)
H15 H 0.8131 0.3618 0.5768
N3 N 0.7690(3) 0.63835(15) 0.60595(12)
H16 H 0.755(4) 0.678(2) 0.5946(16)
N4 N 0.7745(4) 0.27742(17) 0.44486(14)
C26 C 0.7881(4) 0.64030(18) 0.66605(14)
C27 C 0.7973(4) 0.70115(19) 0.72228(15)
H17 H 0.7923 0.7498 0.7239
C28 C 0.8139(4) 0.68727(19) 0.77556(15)
H18 H 0.8219 0.7275 0.8147
C29 C 0.8191(4) 0.61538(19) 0.77309(15)
H19 H 0.8279 0.6075 0.8104
C30 C 0.8118(4) 0.55596(18) 0.71754(14)
H20 H 0.8169 0.5075 0.7163
C31 C 0.7967(4) 0.56849(17) 0.66296(14)
C32 C 0.7835(4) 0.52137(17) 0.59774(14)
C33 C 0.7901(4) 0.44620(17) 0.56588(15)
C34 C 0.7769(4) 0.41870(17) 0.50089(14)
C35 C 0.7531(4) 0.46471(18) 0.46701(14)
C36 C 0.7469(4) 0.53975(17) 0.49900(15)
C37 C 0.7639(4) 0.56656(17) 0.56432(14)
C38 C 0.7750(4) 0.34045(19) 0.46805(15)
C39 C 0.7295(4) 0.42900(17) 0.39806(14)
C40 C 0.8339(4) 0.39146(19) 0.36793(15)
H21 H 0.9237 0.3904 0.3918
C41 C 0.8075(4) 0.3558(2) 0.30364(16)
H22 H 0.8783 0.3305 0.2830
C42 C 0.6758(4) 0.3580(2) 0.27059(15)
C43 C 0.5706(4) 0.3950(2) 0.29824(16)
H23 H 0.4816 0.3961 0.2739
C44 C 0.5985(4) 0.43072(18) 0.36253(15)
H24 H 0.5277 0.4566 0.3826
C45 C 0.7218(4) 0.59179(17) 0.46790(14)
C46 C 0.8210(4) 0.60835(19) 0.43321(15)
H25 H 0.9059 0.5859 0.4289
C47 C 0.7958(4) 0.6575(2) 0.40510(16)
H26 H 0.8627 0.6692 0.3817
C48 C 0.6727(4) 0.68846(18) 0.41207(15)
C49 C 0.5716(4) 0.67425(19) 0.44492(16)
H27 H 0.4864 0.6966 0.4480
C50 C 0.5978(4) 0.62579(18) 0.47366(16)
H28 H 0.5305 0.6157 0.4975
F5 F 1.0135(3) 0.14756(13) 0.29607(10)
F6 F 0.7456(3) 0.36074(11) 0.11466(10)
O3 O 0.7197(3) -0.17840(12) -0.09313(11)
H29 H 0.7338 -0.2007 -0.0695
N5 N 0.6360(4) 0.04332(16) -0.09926(13)
H30 H 0.621(4) 0.0903(10) -0.0914(16)
N6 N 0.8500(4) -0.15454(17) 0.06065(14)
C51 C 0.5953(4) -0.0133(2) -0.15830(17)
C52 C 0.5401(5) -0.0085(2) -0.21415(17)
H31 H 0.5271 0.0379 -0.2158
C53 C 0.5053(5) -0.0744(2) -0.26671(18)
H32 H 0.4673 -0.0732 -0.3055
C54 C 0.5243(5) -0.1428(2) -0.26459(17)
H33 H 0.4987 -0.1869 -0.3019
C55 C 0.5795(4) -0.1478(2) -0.20946(16)
H34 H 0.5920 -0.1945 -0.2083
C56 C 0.6162(4) -0.08150(19) -0.15536(15)
C57 C 0.6764(4) -0.06339(18) -0.09053(15)
C58 C 0.7280(4) -0.10534(18) -0.05896(15)
C59 C 0.7829(4) -0.06893(18) 0.00528(15)
C60 C 0.7909(4) 0.01014(18) 0.03895(15)
C61 C 0.7410(4) 0.05242(18) 0.00674(16)
C62 C 0.6848(4) 0.01388(18) -0.05729(16)
C63 C 0.8237(4) -0.11388(19) 0.03785(16)
C64 C 0.8494(4) 0.04531(18) 0.10716(16)
C65 C 0.9847(4) 0.03583(19) 0.13266(16)
H35 H 1.0404 0.0055 0.1060
C66 C 1.0410(4) 0.0697(2) 0.19633(17)
H36 H 1.1336 0.0626 0.2134
C67 C 0.9588(5) 0.1135(2) 0.23356(16)
C68 C 0.8237(5) 0.1245(2) 0.21088(17)
H37 H 0.7693 0.1551 0.2381
C69 C 0.7687(4) 0.09026(19) 0.14770(16)
H38 H 0.6751 0.0971 0.1313
C70 C 0.7443(4) 0.13452(18) 0.03600(15)
C71 C 0.8773(4) 0.18530(19) 0.06605(16)
H39 H 0.9676 0.1676 0.0684
C72 C 0.8776(5) 0.2616(2) 0.09247(16)
H40 H 0.9671 0.2967 0.1132
C73 C 0.7444(5) 0.28476(18) 0.08780(16)
C74 C 0.6125(4) 0.2377(2) 0.05915(16)
H41 H 0.5229 0.2562 0.0573
C75 C 0.6135(4) 0.16161(19) 0.03272(16)
H42 H 0.5230 0.1273 0.0120
F7 F 0.5254(3) 0.57275(15) 1.28455(10)
F8 F 0.4401(3) 0.81597(10) 1.10698(9)
O4 O 0.1004(3) 0.27008(12) 0.90451(10)
H43 H 0.1214 0.2477 0.9276
N7 N 0.1581(3) 0.50076(15) 0.89452(12)
H44 H 0.191(4) 0.5496(7) 0.9046(15)
N8 N 0.2256(4) 0.29279(16) 1.05959(13)
C76 C 0.0961(4) 0.44509(19) 0.83566(15)
C77 C 0.0563(4) 0.4525(2) 0.78002(16)
H45 H 0.0721 0.4999 0.7776
C78 C -0.0074(4) 0.3878(2) 0.72824(17)
H46 H -0.0361 0.3909 0.6894
C79 C -0.0306(4) 0.3181(2) 0.73142(16)
H47 H -0.0757 0.2749 0.6950
C80 C 0.0113(4) 0.3109(2) 0.78724(15)
H48 H -0.0040 0.2633 0.7893
C81 C 0.0763(4) 0.37548(18) 0.84009(15)
C82 C 0.1328(4) 0.39032(17) 0.90443(15)
C83 C 0.1485(4) 0.34453(17) 0.93676(14)
C84 C 0.2132(4) 0.37866(17) 1.00019(14)
C85 C 0.2640(4) 0.45800(18) 1.03218(14)
C86 C 0.2485(4) 0.50412(18) 0.99990(14)
C87 C 0.1816(4) 0.46800(17) 0.93634(14)
C88 C 0.2225(4) 0.33302(18) 1.03448(15)
C89 C 0.3339(4) 0.48885(17) 1.09921(14)
C90 C 0.4569(4) 0.46390(19) 1.11953(15)
H49 H 0.4965 0.4270 1.0900
C91 C 0.5222(5) 0.4917(2) 1.18166(16)
H50 H 0.6052 0.4741 1.1953
C92 C 0.4632(5) 0.5459(2) 1.22339(16)
C93 C 0.3435(5) 0.5727(2) 1.20562(17)
H51 H 0.3060 0.6101 1.2356
C94 C 0.2781(4) 0.54442(19) 1.14328(16)
H52 H 0.1954 0.5626 1.1303
C95 C 0.2998(4) 0.58675(18) 1.02859(14)
C96 C 0.4481(4) 0.61857(19) 1.05566(15)
H53 H 0.5172 0.5868 1.0558
C97 C 0.4964(4) 0.69512(19) 1.08216(16)
H54 H 0.5974 0.7165 1.1005
C98 C 0.3930(4) 0.73954(18) 1.08118(15)
C99 C 0.2465(4) 0.71217(19) 1.05560(16)
H55 H 0.1785 0.7446 1.0561
C100 C 0.2005(4) 0.63409(18) 1.02855(15)
H56 H 0.0995 0.6132 1.0098
loop_
_geom_bond_atom_site_label_1
_geom_bond_atom_site_label_2
_geom_bond_site_symmetry_1
_geom_bond_site_symmetry_2
F1 C17 1_555 1_555
F2 C23 1_555 1_555
O1 H1 1_555 1_555
N1 H2 1_555 1_555
N2 C13 1_555 1_555
C1 N1 1_555 1_555
C2 C1 1_555 1_555
H3 C2 1_555 1_555
C3 C2 1_555 1_555
H4 C3 1_555 1_555
C4 C3 1_555 1_555
H5 C4 1_555 1_555
C5 C4 1_555 1_555
H6 C5 1_555 1_555
C6 C1 1_555 1_555
C7 C6 1_555 1_555
C8 O1 1_555 1_555
C9 C8 1_555 1_555
C10 C9 1_555 1_555
C11 C10 1_555 1_555
C12 N1 1_555 1_555
C13 C9 1_555 1_555
C14 C10 1_555 1_555
C15 C14 1_555 1_555
H7 C15 1_555 1_555
C16 C15 1_555 1_555
H8 C16 1_555 1_555
C17 C16 1_555 1_555
C18 C17 1_555 1_555
H9 C18 1_555 1_555
C19 C14 1_555 1_555
H10 C19 1_555 1_555
C20 C11 1_555 1_555
C21 C20 1_555 1_555
H11 C21 1_555 1_555
C22 C21 1_555 1_555
H12 C22 1_555 1_555
C23 C22 1_555 1_555
C24 C23 1_555 1_555
H13 C24 1_555 1_555
C25 C20 1_555 1_555
H14 C25 1_555 1_555
F3 C42 1_555 1_555
F4 C48 1_555 1_555
O2 H15 1_555 1_555
N3 H16 1_555 1_555
N4 C38 1_555 1_555
C26 N3 1_555 1_555
C27 C26 1_555 1_555
H17 C27 1_555 1_555
C28 C27 1_555 1_555
H18 C28 1_555 1_555
C29 C28 1_555 1_555
H19 C29 1_555 1_555
C30 C29 1_555 1_555
H20 C30 1_555 1_555
C31 C26 1_555 1_555
C32 C31 1_555 1_555
C33 O2 1_555 1_555
C34 C33 1_555 1_555
C35 C34 1_555 1_555
C36 C35 1_555 1_555
C37 N3 1_555 1_555
C38 C34 1_555 1_555
C39 C35 1_555 1_555
C40 C39 1_555 1_555
H21 C40 1_555 1_555
C41 C40 1_555 1_555
H22 C41 1_555 1_555
C42 C41 1_555 1_555
C43 C42 1_555 1_555
H23 C43 1_555 1_555
C44 C39 1_555 1_555
H24 C44 1_555 1_555
C45 C36 1_555 1_555
C46 C45 1_555 1_555
H25 C46 1_555 1_555
C47 C46 1_555 1_555
H26 C47 1_555 1_555
C48 C47 1_555 1_555
C49 C48 1_555 1_555
H27 C49 1_555 1_555
C50 C45 1_555 1_555
H28 C50 1_555 1_555
F5 C67 1_555 1_555
F6 C73 1_555 1_555
O3 H29 1_555 1_555
N5 H30 1_555 1_555
N6 C63 1_555 1_555
C51 N5 1_555 1_555
C52 C51 1_555 1_555
H31 C52 1_555 1_555
C53 C52 1_555 1_555
H32 C53 1_555 1_555
C54 C53 1_555 1_555
H33 C54 1_555 1_555
C55 C54 1_555 1_555
H34 C55 1_555 1_555
C56 C51 1_555 1_555
C57 C56 1_555 1_555
C58 O3 1_555 1_555
C59 C58 1_555 1_555
C60 C59 1_555 1_555
C61 C60 1_555 1_555
C62 N5 1_555 1_555
C63 C59 1_555 1_555
C64 C60 1_555 1_555
C65 C64 1_555 1_555
H35 C65 1_555 1_555
C66 C65 1_555 1_555
H36 C66 1_555 1_555
C67 C66 1_555 1_555
C68 C67 1_555 1_555
H37 C68 1_555 1_555
C69 C64 1_555 1_555
H38 C69 1_555 1_555
C70 C61 1_555 1_555
C71 C70 1_555 1_555
H39 C71 1_555 1_555
C72 C71 1_555 1_555
H40 C72 1_555 1_555
C73 C72 1_555 1_555
C74 C73 1_555 1_555
H41 C74 1_555 1_555
C75 C70 1_555 1_555
H42 C75 1_555 1_555
F7 C92 1_555 1_555
F8 C98 1_555 1_555
O4 H43 1_555 1_555
N7 H44 1_555 1_555
N8 C88 1_555 1_555
C76 N7 1_555 1_555
C77 C76 1_555 1_555
H45 C77 1_555 1_555
C78 C77 1_555 1_555
H46 C78 1_555 1_555
C79 C78 1_555 1_555
H47 C79 1_555 1_555
C80 C79 1_555 1_555
H48 C80 1_555 1_555
C81 C76 1_555 1_555
C82 C81 1_555 1_555
C83 O4 1_555 1_555
C84 C83 1_555 1_555
C85 C84 1_555 1_555
C86 C85 1_555 1_555
C87 N7 1_555 1_555
C88 C84 1_555 1_555
C89 C85 1_555 1_555
C90 C89 1_555 1_555
H49 C90 1_555 1_555
C91 C90 1_555 1_555
H50 C91 1_555 1_555
C92 C91 1_555 1_555
C93 C92 1_555 1_555
H51 C93 1_555 1_555
C94 C89 1_555 1_555
H52 C94 1_555 1_555
C95 C86 1_555 1_555
C96 C95 1_555 1_555
H53 C96 1_555 1_555
C97 C96 1_555 1_555
H54 C97 1_555 1_555
C98 C97 1_555 1_555
C99 C98 1_555 1_555
H55 C99 1_555 1_555
C100 C95 1_555 1_555
H56 C100 1_555 1_555
C5 C6 1_555 1_555
C7 C8 1_555 1_555
C7 C12 1_555 1_555
C11 C12 1_555 1_555
C18 C19 1_555 1_555
C24 C25 1_555 1_555
C30 C31 1_555 1_555
C32 C33 1_555 1_555
C32 C37 1_555 1_555
C36 C37 1_555 1_555
C43 C44 1_555 1_555
C49 C50 1_555 1_555
C55 C56 1_555 1_555
C57 C58 1_555 1_555
C57 C62 1_555 1_555
C61 C62 1_555 1_555
C68 C69 1_555 1_555
C74 C75 1_555 1_555
C80 C81 1_555 1_555
C82 C83 1_555 1_555
C82 C87 1_555 1_555
C86 C87 1_555 1_555
C93 C94 1_555 1_555
C99 C100 1_555 1_555

#END
