
#######################################################################
#
#                 Cambridge Crystallographic Data Centre
#                                CCDC 
#
#######################################################################
#
# If this CIF has been generated from an entry in the Cambridge 
# Structural Database, then it will include bibliographic, chemical, 
# crystal, experimental, refinement or atomic coordinate data resulting 
# from the CCDC's data processing and validation procedures.
#
#######################################################################

data_CAXQEY
_chemical_name_common            5-fluoro-6-methylcoumarin
_chemical_formula_moiety         'C10 H7 F1 O2'
_chemical_name_systematic        5-fluoro-6-methyl-2H-chromen-2-one
_symmetry_cell_setting           orthorhombic
_symmetry_space_group_name_H-M   'P n a 21'
_symmetry_Int_Tables_number      33
_space_group_name_Hall           'P 2c -2n'
loop_
_symmetry_equiv_pos_site_id
_symmetry_equiv_pos_as_xyz
1 x,y,z
2 -x,-y,1/2+z
3 1/2+x,1/2-y,z
4 1/2-x,1/2+y,1/2+z
_cell_length_a                   20.0846(5)
_cell_length_b                   3.7945(1)
_cell_length_c                   10.4322(3)
_cell_angle_alpha                90
_cell_angle_beta                 90
_cell_angle_gamma                90
_cell_volume                     795.049
_exptl_crystal_colour            colorless
_exptl_crystal_description       prism
_chemical_melting_point          '352 K'
_cell_formula_units_Z            4
loop_
_atom_site_label
_atom_site_type_symbol
_atom_site_fract_x
_atom_site_fract_y
_atom_site_fract_z
O1 O 0.21980(4) 0.6653(2) 0.43189(8)
O2 O 0.31652(5) 0.8534(3) 0.35767(10)
F1 F 0.05501(4) 0.1568(2) 0.16262(9)
C1 C 0.26460(6) 0.7116(3) 0.33212(12)
C2 C 0.24411(7) 0.5866(3) 0.20663(12)
C3 C 0.18408(6) 0.4429(3) 0.18626(11)
C4 C 0.07359(6) 0.2704(3) 0.28084(12)
C5 C 0.02901(6) 0.2474(3) 0.38069(14)
C6 C 0.05237(6) 0.3630(3) 0.50022(13)
C7 C 0.11579(6) 0.4967(3) 0.51796(12)
C8 C 0.15776(6) 0.5221(3) 0.41288(10)
C9 C 0.13819(6) 0.4077(3) 0.29158(11)
C10 C -0.04082(7) 0.1115(4) 0.36142(17)
H1 H 0.2763(11) 0.620(6) 0.142(2)
H2 H 0.1689(11) 0.357(5) 0.100(2)
H3 H 0.0233(10) 0.343(6) 0.575(2)
H4 H 0.1315(9) 0.592(5) 0.612(2)
H5 H -0.0506(14) -0.055(10) 0.429(3)
H6 H -0.0438(14) -0.080(9) 0.291(3)
H7 H -0.0731(18) 0.260(10) 0.338(3)
loop_
_geom_bond_atom_site_label_1
_geom_bond_atom_site_label_2
_geom_bond_site_symmetry_1
_geom_bond_site_symmetry_2
O1 C1 1_555 1_555
O2 C1 1_555 1_555
F1 C4 1_555 1_555
C1 C2 1_555 1_555
C2 C3 1_555 1_555
C3 C9 1_555 1_555
C4 C5 1_555 1_555
C5 C6 1_555 1_555
C6 C7 1_555 1_555
C7 C8 1_555 1_555
C8 O1 1_555 1_555
C9 C4 1_555 1_555
C10 C5 1_555 1_555
H1 C2 1_555 1_555
H2 C3 1_555 1_555
H3 C6 1_555 1_555
H4 C7 1_555 1_555
H5 C10 1_555 1_555
H6 C10 1_555 1_555
H7 C10 1_555 1_555
C8 C9 1_555 1_555

#END
