
#######################################################################
#
#                 Cambridge Crystallographic Data Centre
#                                CCDC 
#
#######################################################################
#
# If this CIF has been generated from an entry in the Cambridge 
# Structural Database, then it will include bibliographic, chemical, 
# crystal, experimental, refinement or atomic coordinate data resulting 
# from the CCDC's data processing and validation procedures.
#
#######################################################################

data_CAXXAA
_chemical_formula_moiety         'C48 H48 O6,C1 H3 O4 S1 1-,Na1 1+,C1 H2 Cl2'
_chemical_name_systematic        
'Sodium 31,32,33,34,35,36-hexamethoxy-4,9,14,19,24,29-hexamethyl-heptacyclo(25.3.1.1^2,6^.1^7,11^.1^12,16^.1^17,21^.1^22,26^)hexatriaconta-1(31),2,4,6(32),7,9,11(33),12,14,16(34),17,19,21(35),22,24,26(36),27,29-octadecaene methyl sulfate dichloromethane solvate'
_symmetry_cell_setting           monoclinic
_symmetry_space_group_name_H-M   'P 2/c'
_symmetry_Int_Tables_number      13
_space_group_name_Hall           '-P 2yc'
loop_
_symmetry_equiv_pos_site_id
_symmetry_equiv_pos_as_xyz
1 x,y,z
2 -x,y,1/2-z
3 -x,-y,-z
4 x,-y,1/2+z
_cell_length_a                   11.572(5)
_cell_length_b                   10.467(5)
_cell_length_c                   22.072(7)
_cell_angle_alpha                90
_cell_angle_beta                 108.97(3)
_cell_angle_gamma                90
_cell_volume                     2528.25
_cell_formula_units_Z            2
loop_
_atom_site_label
_atom_site_type_symbol
_atom_site_fract_x
_atom_site_fract_y
_atom_site_fract_z
C1 C 0.26200 0.15850 0.46230
C2 C 0.31820 0.16610 0.41610
C3 C 0.25120 0.21530 0.35630
C4 C 0.30760 0.23220 0.30220
C5 C 0.12430 0.25040 0.34220
C6 C 0.06940 0.23850 0.38920
C7 C 0.14030 0.19890 0.44940
O1 O 0.08840 0.19280 0.49740
C8 C 0.08910 0.31760 0.52910
C9 C -0.06100 0.26320 0.37380
C10 C -0.11720 0.37830 0.35510
C11 C -0.24390 0.39610 0.34520
C12 C -0.30300 0.52100 0.32010
C13 C -0.31220 0.29080 0.35770
C14 C -0.25920 0.17480 0.37700
C15 C -0.13380 0.15920 0.38140
O2 O -0.08350 0.03790 0.39490
C16 C -0.09410 -0.03780 0.33760
C17 C -0.32400 0.06310 0.39480
C18 C -0.42520 0.00750 0.35090
C19 C -0.47710 -0.09750 0.36860
C20 C -0.59110 -0.16150 0.31730
C21 C -0.42980 -0.15720 0.42870
C22 C 0.32590 0.09790 0.52690
C23 C -0.28010 0.01150 0.45590
O3 O -0.18490 0.07550 0.50190
C24 C -0.22510 0.15730 0.54160
C22B C -0.32590 -0.09790 0.47310
C21B C 0.42980 0.15720 0.57130
C23B C 0.28010 -0.01150 0.54410
C1B C -0.26200 -0.15850 0.53770
C19B C 0.47710 0.09750 0.63140
C17B C 0.32400 -0.06310 0.60520
O3B O 0.18490 -0.07550 0.49810
C2B C -0.31820 -0.16610 0.58390
C7B C -0.14030 -0.19890 0.55060
C18B C 0.42520 -0.00750 0.64910
C20B C 0.59110 0.16150 0.68270
C14B C 0.25920 -0.17480 0.62300
C24B C 0.22510 -0.15730 0.45840
C3B C -0.25120 -0.21530 0.64370
C6B C -0.06940 -0.23850 0.61080
O1B O -0.08840 -0.19280 0.50260
C13B C 0.31220 -0.29080 0.64230
C15B C 0.13380 -0.15920 0.61860
C4B C -0.30760 -0.23220 0.69780
C5B C -0.12430 -0.25040 0.65780
C9B C 0.06100 -0.26320 0.62620
C8B C -0.08910 -0.31760 0.47090
C11B C 0.24390 -0.39610 0.65480
O2B O 0.08350 -0.03790 0.60510
C10B C 0.11720 -0.37830 0.64490
C12B C 0.30300 -0.52100 0.67990
C16B C 0.09410 0.03780 0.66240
Na1 Na 0.00000 0.00000 0.50000
loop_
_geom_bond_atom_site_label_1
_geom_bond_atom_site_label_2
_geom_bond_site_symmetry_1
_geom_bond_site_symmetry_2
C1 C2 1_555 1_555
C2 C3 1_555 1_555
C3 C4 1_555 1_555
C5 C3 1_555 1_555
C6 C5 1_555 1_555
C7 C1 1_555 1_555
O1 C7 1_555 1_555
C8 O1 1_555 1_555
C9 C6 1_555 1_555
C10 C9 1_555 1_555
C11 C10 1_555 1_555
C12 C11 1_555 1_555
C13 C11 1_555 1_555
C14 C13 1_555 1_555
C15 C9 1_555 1_555
O2 C15 1_555 1_555
C16 O2 1_555 1_555
C17 C14 1_555 1_555
C18 C17 1_555 1_555
C19 C18 1_555 1_555
C20 C19 1_555 1_555
C21 C19 1_555 1_555
C22 C1 1_555 1_555
C23 C17 1_555 1_555
O3 C23 1_555 1_555
C24 O3 1_555 1_555
C22B C21 1_555 1_555
C21B C22 1_555 1_555
C23B C22 1_555 1_555
C1B C22B 1_555 1_555
C19B C21B 1_555 1_555
C17B C23B 1_555 1_555
O3B C23B 1_555 1_555
C2B C1B 1_555 1_555
C7B C1B 1_555 1_555
C18B C19B 1_555 1_555
C20B C19B 1_555 1_555
C14B C17B 1_555 1_555
C24B O3B 1_555 1_555
C3B C2B 1_555 1_555
C6B C7B 1_555 1_555
O1B C7B 1_555 1_555
C13B C14B 1_555 1_555
C15B C14B 1_555 1_555
C4B C3B 1_555 1_555
C5B C3B 1_555 1_555
C9B C6B 1_555 1_555
C8B O1B 1_555 1_555
C11B C13B 1_555 1_555
O2B C15B 1_555 1_555
C10B C9B 1_555 1_555
C12B C11B 1_555 1_555
C16B O2B 1_555 1_555
C6 C7 1_555 1_555
C14 C15 1_555 1_555
C23 C22B 1_555 1_555
C17B C18B 1_555 1_555
C6B C5B 1_555 1_555
C15B C9B 1_555 1_555
C11B C10B 1_555 1_555

#END
