
#######################################################################
#
#                 Cambridge Crystallographic Data Centre
#                                CCDC 
#
#######################################################################
#
# If this CIF has been generated from an entry in the Cambridge 
# Structural Database, then it will include bibliographic, chemical, 
# crystal, experimental, refinement or atomic coordinate data resulting 
# from the CCDC's data processing and validation procedures.
#
#######################################################################

data_CAYBUA
_chemical_compound_source        'soft coral Sinularia lochmodes'
_chemical_formula_moiety         'C20 H26 O7'
_chemical_name_systematic        'sinlochmodin B'
_symmetry_cell_setting           monoclinic
_symmetry_space_group_name_H-M   'C 2'
_symmetry_Int_Tables_number      5
_space_group_name_Hall           'C 2y'
loop_
_symmetry_equiv_pos_site_id
_symmetry_equiv_pos_as_xyz
1 x,y,z
2 1/2+x,1/2+y,z
3 -x,y,-z
4 1/2-x,1/2+y,-z
_cell_length_a                   16.3140(8)
_cell_length_b                   5.910(2)
_cell_length_c                   19.049(1)
_cell_angle_alpha                90
_cell_angle_beta                 93.442(5)
_cell_angle_gamma                90
_cell_volume                     1833.31
_exptl_crystal_colour            colorless
_exptl_crystal_description       prism
_chemical_melting_point          165-166deg.C
_cell_formula_units_Z            4
loop_
_atom_site_label
_atom_site_type_symbol
_atom_site_fract_x
_atom_site_fract_y
_atom_site_fract_z
O1 O 0.5114(2) -0.0747 0.3028(1)
O2 O 0.4529(2) -0.0858(6) 0.0788(1)
O3 O 0.4944(2) 0.4500(6) 0.0968(1)
O4 O 0.6114(1) -0.0193(5) 0.1548(1)
O5 O 0.7704(1) -0.1837 0.2040(1)
O6 O 0.7078(1) -0.3719(5) 0.2861(1)
O7 O 0.8992(1) 0.0690(5) 0.2947(1)
C1 C 0.5928(2) 0.0988(7) 0.4287(1)
C2 C 0.5597(2) 0.2481(7) 0.3673(1)
C3 C 0.5369(2) 0.1173(7) 0.3010(2)
C4 C 0.5447(2) 0.2489(7) 0.2338(1)
C5 C 0.5414(2) 0.1220(6) 0.1633(1)
C6 C 0.5443(2) 0.2996(7) 0.1061(1)
C7 C 0.6165(2) 0.2541(7) 0.0632(2)
C8 C 0.6681(2) 0.0785(7) 0.1067(1)
C9 C 0.7390(2) 0.1947(7) 0.1492(2)
C10 C 0.8011(2) 0.0460(6) 0.1923(1)
C11 C 0.8200(2) 0.1381(6) 0.2664(1)
C12 C 0.7572(1) 0.0145(6) 0.3069(1)
C13 C 0.7254(2) 0.0793(6) 0.3658(2)
C14 C 0.6653(2) -0.0506(7) 0.4059(1)
C15 C 0.6150(2) 0.2306(7) 0.4957(1)
C16 C 0.6079(2) 0.4535(7) 0.5009(2)
C17 C 0.6425(2) 0.0921(8) 0.5598(2)
C18 C 0.4636(2) -0.0211(7) 0.1496(2)
C19 C 0.6964(2) -0.1111(8) 0.0594(2)
C20 C 0.7400(2) -0.2000(6) 0.2682(1)
H1 H 0.5498 -0.0017 0.4391
H2 H 0.5121 0.3247 0.3813
H3 H 0.6006 0.3556 0.3573
H4 H 0.5014 0.3566 0.2310
H5 H 0.5960 0.3255 0.2380
H6 H 0.5991 0.1940 0.0185
H7 H 0.6471 0.3886 0.0570
H8 H 0.7691 0.2788 0.1169
H9 H 0.7153 0.2953 0.1811
H10 H 0.8507 0.0371 0.1687
H11 H 0.8132 0.2975 0.2684
H12 H 0.7425 0.2219 0.3844
H13 H 0.6931 -0.1120 0.4468
H14 H 0.6436 -0.1702 0.3771
H15 H 0.6228 0.5269 0.5442
H16 H 0.5880 0.5397 0.4614
H17 H 0.6045 0.1114 0.5952
H18 H 0.6449 -0.0632 0.5472
H19 H 0.6954 0.1412 0.5771
H20 H 0.4173 0.0650 0.1616
H21 H 0.4678 -0.1532 0.1780
H22 H 0.6501 -0.1735 0.0335
H23 H 0.7338 -0.0520 0.0277
H24 H 0.7227 -0.2257 0.0875
H25 H 0.4779 -0.2182 0.0749
H26 H 0.9331 0.1868 0.2970
loop_
_geom_bond_atom_site_label_1
_geom_bond_atom_site_label_2
_geom_bond_site_symmetry_1
_geom_bond_site_symmetry_2
O1 C3 1_555 1_555
O2 C18 1_555 1_555
O3 C6 1_555 1_555
O4 C5 1_555 1_555
O5 C10 1_555 1_555
O6 C20 1_555 1_555
O7 C11 1_555 1_555
C1 C2 1_555 1_555
C2 C3 1_555 1_555
C3 C4 1_555 1_555
C4 C5 1_555 1_555
C5 C6 1_555 1_555
C6 C7 1_555 1_555
C7 C8 1_555 1_555
C8 O4 1_555 1_555
C9 C8 1_555 1_555
C10 C9 1_555 1_555
C11 C10 1_555 1_555
C12 C11 1_555 1_555
C13 C12 1_555 1_555
C14 C1 1_555 1_555
C15 C1 1_555 1_555
C16 C15 1_555 1_555
C17 C15 1_555 1_555
C18 C5 1_555 1_555
C19 C8 1_555 1_555
C20 O5 1_555 1_555
H1 C1 1_555 1_555
H2 C2 1_555 1_555
H3 C2 1_555 1_555
H4 C4 1_555 1_555
H5 C4 1_555 1_555
H6 C7 1_555 1_555
H7 C7 1_555 1_555
H8 C9 1_555 1_555
H9 C9 1_555 1_555
H10 C10 1_555 1_555
H11 C11 1_555 1_555
H12 C13 1_555 1_555
H13 C14 1_555 1_555
H14 C14 1_555 1_555
H15 C16 1_555 1_555
H16 C16 1_555 1_555
H17 C17 1_555 1_555
H18 C17 1_555 1_555
H19 C17 1_555 1_555
H20 C18 1_555 1_555
H21 C18 1_555 1_555
H22 C19 1_555 1_555
H23 C19 1_555 1_555
H24 C19 1_555 1_555
H25 O2 1_555 1_555
H26 O7 1_555 1_555
C12 C20 1_555 1_555
C13 C14 1_555 1_555

#END
