
#######################################################################
#
#                 Cambridge Crystallographic Data Centre
#                                CCDC 
#
#######################################################################
#
# If this CIF has been generated from an entry in the Cambridge 
# Structural Database, then it will include bibliographic, chemical, 
# crystal, experimental, refinement or atomic coordinate data resulting 
# from the CCDC's data processing and validation procedures.
#
#######################################################################

data_CAYLUK
_chemical_name_common            
'N-(2,3,4-Trihydroxy-5-(hydroxymethyl)cyclohex-5-en-1-yl)validamine hydrochloride dihydrate'
_chemical_formula_moiety         'C14 H26 N1 O8 1+,Cl1 1-,2(H2 O1)'
_chemical_name_systematic        
"(+)-(Z)-(1S,2S,3S,4R,1'S,2'S,3'S,4'R,5'R)-2,3,4-Trihydroxy-5-(hydroxymethyl)-N-(2',3',4'-trihydroxy-5'-(hydroxymethyl)cyclohex-1'-yl)cyclohex-5-en-1-aminium chloride dihydrate"
_symmetry_cell_setting           tetragonal
_symmetry_space_group_name_H-M   'P 43 21 2'
_symmetry_Int_Tables_number      96
_space_group_name_Hall           'P 4nw 2abw'
loop_
_symmetry_equiv_pos_site_id
_symmetry_equiv_pos_as_xyz
1 x,y,z
2 -x,-y,1/2+z
3 1/2-y,1/2+x,3/4+z
4 1/2+y,1/2-x,1/4+z
5 1/2-x,1/2+y,3/4-z
6 1/2+x,1/2-y,1/4-z
7 y,x,-z
8 -y,-x,1/2-z
_cell_length_a                   7.9421(3)
_cell_length_b                   7.9421(3)
_cell_length_c                   29.0280(10)
_cell_angle_alpha                90
_cell_angle_beta                 90
_cell_angle_gamma                90
_cell_volume                     1831
_exptl_crystal_colour            colorless
_exptl_crystal_description       block
_chemical_melting_point          '385-386 K'
_cell_formula_units_Z            4
loop_
_atom_site_label
_atom_site_type_symbol
_atom_site_fract_x
_atom_site_fract_y
_atom_site_fract_z
Cl1 Cl 0.78520(6) 0.21480(6) 0.2500
O1 O 0.8202(2) 0.12795(19) 0.57110(4)
O2 O 0.5027(2) 0.2373(2) 0.53977(5)
O3 O 0.44967(18) 0.2363(2) 0.44334(5)
O4 O 0.8688(2) 0.2610(2) 0.35485(4)
N1 N 0.9918(2) -0.0082(2) 0.5000
C1 C 0.9488(2) 0.1762(2) 0.49673(7)
H1 H 1.0477 0.2447 0.5043
C2 C 0.8031(2) 0.2195(2) 0.52910(6)
H2 H 0.8086 0.3400 0.5362
C3 C 0.6305(2) 0.1815(2) 0.50903(6)
H3 H 0.6192 0.0601 0.5039
C4 C 0.6098(2) 0.2745(2) 0.46354(6)
H4 H 0.6103 0.3953 0.4705
C5 C 0.752(3) 0.242(3) 0.4295(7)
C6 C 0.9090(7) 0.1894(6) 0.44445(15)
H5 H 0.9913 0.1615 0.4230
C7 C 0.717(4) 0.276(3) 0.3789(8)
H6 H 0.6354 0.1959 0.3673
H7 H 0.6713 0.3887 0.3751
H13 H 0.865(3) 0.197(3) 0.5894(7)
H14 H 0.518(4) 0.198(3) 0.5667(5)
H15 H 0.380(3) 0.312(3) 0.4498(9)
H16 H 0.848(4) 0.243(4) 0.3266(5)
H19 H 0.942(4) -0.049(4) 0.5238(2)
O1F O 1.12795(19) -0.1798(2) 0.42890(4)
O2F O 1.2373(2) -0.4973(2) 0.46023(5)
O3F O 1.2363(2) -0.55033(18) 0.55666(5)
O4F O 1.2610(2) -0.1312(2) 0.64515(4)
C1F C 1.1762(2) -0.0512(2) 0.50327(7)
H1F H 1.2447 0.0477 0.4957
C2F C 1.2195(2) -0.1969(2) 0.47090(6)
H2F H 1.3400 -0.1914 0.4638
C3F C 1.1815(2) -0.3695(2) 0.49097(6)
H3F H 1.0601 -0.3808 0.4961
C4F C 1.2745(2) -0.3902(2) 0.53646(6)
H4F H 1.3953 -0.3897 0.5295
C5F C 1.242(3) -0.248(3) 0.5705(7)
C6F C 1.1894(6) -0.0910(7) 0.55555(15)
H5F H 1.1615 -0.0087 0.5770
C7F C 1.276(3) -0.283(4) 0.6211(8)
H6F H 1.1959 -0.3646 0.6327
H7F H 1.3887 -0.3287 0.6249
H13F H 1.197(3) -0.135(3) 0.4106(7)
H14F H 1.198(3) -0.482(4) 0.4333(5)
H15F H 1.312(3) -0.620(3) 0.5502(9)
H16F H 1.243(4) -0.152(4) 0.6734(5)
H19F H 0.951(4) -0.058(4) 0.4762(2)
O5 O 0.9804(2) 0.3727(2) 0.61949(5)
H17 H 1.069(2) 0.385(3) 0.6033(8)
H18 H 0.916(3) 0.458(3) 0.6156(11)
C8? C 0.750(2) 0.212(3) 0.4319(7)
H8? H 0.7438 0.0893 0.4287
C9? C 0.9147(7) 0.2621(6) 0.45112(15)
H9? H 0.9167 0.3832 0.4554
H10? H 1.0029 0.2330 0.4294
C10? C 0.726(4) 0.296(3) 0.3852(8)
H11? H 0.6235 0.2543 0.3710
H12? H 0.7148 0.4164 0.3893
loop_
_geom_bond_atom_site_label_1
_geom_bond_atom_site_label_2
_geom_bond_site_symmetry_1
_geom_bond_site_symmetry_2
O1 C2 1_555 1_555
O2 C3 1_555 1_555
O3 C4 1_555 1_555
O4 C7 1_555 1_555
O5 H17 1_555 1_555
N1 C1 1_555 1_555
C1 H1 1_555 1_555
C2 C1 1_555 1_555
H2 C2 1_555 1_555
C3 C2 1_555 1_555
H3 C3 1_555 1_555
C4 C3 1_555 1_555
H4 C4 1_555 1_555
C5 C4 1_555 1_555
C6 C1 1_555 1_555
H5 C6 1_555 1_555
C7 C5 1_555 1_555
H6 C7 1_555 1_555
H7 C7 1_555 1_555
H13 O1 1_555 1_555
H14 O2 1_555 1_555
H15 O3 1_555 1_555
H16 O4 1_555 1_555
H18 O5 1_555 1_555
H19 N1 1_555 1_555
O1F C2F 1_555 1_555
O2F C3F 1_555 1_555
O3F C4F 1_555 1_555
O4F C7F 1_555 1_555
C1F N1 1_555 1_555
H1F C1F 1_555 1_555
C2F C1F 1_555 1_555
H2F C2F 1_555 1_555
C3F C2F 1_555 1_555
H3F C3F 1_555 1_555
C4F C3F 1_555 1_555
H4F C4F 1_555 1_555
C5F C4F 1_555 1_555
C6F C1F 1_555 1_555
H5F C6F 1_555 1_555
C7F C5F 1_555 1_555
H6F C7F 1_555 1_555
H7F C7F 1_555 1_555
H13F O1F 1_555 1_555
H14F O2F 1_555 1_555
H15F O3F 1_555 1_555
H16F O4F 1_555 1_555
H19F N1 1_555 1_555
C5 C6 1_555 1_555
C5F C6F 1_555 1_555

#END
