
#######################################################################
#
#                 Cambridge Crystallographic Data Centre
#                                CCDC 
#
#######################################################################
#
# If this CIF has been generated from an entry in the Cambridge 
# Structural Database, then it will include bibliographic, chemical, 
# crystal, experimental, refinement or atomic coordinate data resulting 
# from the CCDC's data processing and validation procedures.
#
#######################################################################

data_CAYMUL
_chemical_formula_moiety         'C18 H19 N1 O3 S1'
_chemical_name_systematic        
4-(4-(Dimethylamino)phenyl)-1-phenylsulfonylbut-3-en-2-one
_symmetry_cell_setting           monoclinic
_symmetry_space_group_name_H-M   'P 21/n'
_symmetry_Int_Tables_number      14
_space_group_name_Hall           '-P 2yn'
loop_
_symmetry_equiv_pos_site_id
_symmetry_equiv_pos_as_xyz
1 x,y,z
2 1/2-x,1/2+y,1/2-z
3 -x,-y,-z
4 1/2+x,1/2-y,1/2+z
_cell_length_a                   7.224(2)
_cell_length_b                   19.712(6)
_cell_length_c                   12.177(5)
_cell_angle_alpha                90
_cell_angle_beta                 105.272(14)
_cell_angle_gamma                90
_cell_volume                     1672.76
_exptl_crystal_colour            yellow
_exptl_crystal_description       block
_chemical_melting_point          '157 deg.C'
_cell_formula_units_Z            4
_exptl_crystal_recrystallization_method ethanol
loop_
_atom_site_label
_atom_site_type_symbol
_atom_site_fract_x
_atom_site_fract_y
_atom_site_fract_z
S1 S 0.69928(8) 0.73854(3) 0.51017(5)
O1 O 0.49945(18) 0.75215(6) 0.46384(12)
O2 O 0.8166(2) 0.79161(8) 0.57297(13)
O3 O 0.5873(3) 0.58501(11) 0.4679(2)
N1 N -0.2433(2) 0.52054(11) 0.8601(2)
C1 C 0.7217(3) 0.66817(12) 0.6028(2)
C2 C 0.5802(4) 0.61366(16) 0.5524(3)
C3 C 0.1924(3) 0.56883(17) 0.7069(2)
C4 C 0.1680(3) 0.60453(12) 0.7985(2)
C5 C 0.0277(3) 0.58852(12) 0.8492(2)
C6 C -0.0994(3) 0.53487(11) 0.8108(2)
C7 C -0.0715(4) 0.49784(12) 0.7185(2)
C8 C 0.0728(5) 0.51408(17) 0.6692(2)
C9 C -0.2732(3) 0.56072(14) 0.9522(2)
C10 C -0.3664(3) 0.46175(13) 0.8262(2)
C11 C 0.7997(2) 0.71348(9) 0.39988(18)
C12 C 0.9966(2) 0.71161(12) 0.4187(2)
C13 C 1.0734(3) 0.69366(12) 0.3304(2)
C14 C 0.9557(3) 0.67883(12) 0.2256(2)
C15 C 0.7606(3) 0.68073(12) 0.2072(2)
C16 C 0.6817(2) 0.69792(10) 0.29441(19)
C17 C 0.4117(6) 0.5776(2) 0.5793(4)
C18 C 0.3610(6) 0.6022(2) 0.6746(4)
H1 H 0.323(4) 0.5379(15) 0.558(2)
H2 H 0.430(3) 0.6351(11) 0.6976(19)
H3 H 0.2543 0.6426 0.8275
H4 H 0.0149 0.6148 0.9151
H5 H -0.1568 0.4595 0.6900
H6 H 0.0898 0.4864 0.6058
H7 H 0.7035 0.6833 0.6750
H8 H 0.8495 0.6494 0.6147
H9 H 1.0797 0.7223 0.4943
H10 H 1.2130 0.6921 0.3429
H11 H 1.0116 0.6663 0.1634
H12 H 0.6770 0.6702 0.1317
H13 H 0.5422 0.6992 0.2827
H14 H -0.4048 0.5578 0.9544
H15 H -0.1917 0.5445 1.0228
H16 H -0.2419 0.6071 0.9408
H17 H -0.4922 0.4710 0.8349
H18 H -0.3120 0.4238 0.8731
H19 H -0.3752 0.4513 0.7480
C19? C 0.4563(7) 0.6192(2) 0.6359(4)
C20? C 0.3166(6) 0.5690(2) 0.6238(4)
loop_
_geom_bond_atom_site_label_1
_geom_bond_atom_site_label_2
_geom_bond_site_symmetry_1
_geom_bond_site_symmetry_2
S1 O1 1_555 1_555
O2 S1 1_555 1_555
O3 C2 1_555 1_555
N1 C6 1_555 1_555
C1 S1 1_555 1_555
C2 C1 1_555 1_555
C3 C4 1_555 1_555
C4 C5 1_555 1_555
C5 C6 1_555 1_555
C6 C7 1_555 1_555
C7 C8 1_555 1_555
C8 C3 1_555 1_555
C9 N1 1_555 1_555
C10 N1 1_555 1_555
C11 S1 1_555 1_555
C12 C11 1_555 1_555
C13 C12 1_555 1_555
C14 C13 1_555 1_555
C15 C14 1_555 1_555
C16 C11 1_555 1_555
C17 C2 1_555 1_555
C18 C3 1_555 1_555
H1 C17 1_555 1_555
H2 C18 1_555 1_555
H3 C4 1_555 1_555
H4 C5 1_555 1_555
H5 C7 1_555 1_555
H6 C8 1_555 1_555
H7 C1 1_555 1_555
H8 C1 1_555 1_555
H9 C12 1_555 1_555
H10 C13 1_555 1_555
H11 C14 1_555 1_555
H12 C15 1_555 1_555
H13 C16 1_555 1_555
H14 C9 1_555 1_555
H15 C9 1_555 1_555
H16 C9 1_555 1_555
H17 C10 1_555 1_555
H18 C10 1_555 1_555
H19 C10 1_555 1_555
C15 C16 1_555 1_555
C17 C18 1_555 1_555

#END
