
#######################################################################
#
#                 Cambridge Crystallographic Data Centre
#                                CCDC 
#
#######################################################################
#
# If this CIF has been generated from an entry in the Cambridge 
# Structural Database, then it will include bibliographic, chemical, 
# crystal, experimental, refinement or atomic coordinate data resulting 
# from the CCDC's data processing and validation procedures.
#
#######################################################################

data_CAYNAS
_chemical_formula_moiety         'C16 H20 O4 Si1'
_chemical_name_systematic        
2-Methyl-2-(trimethylsilyloxy)-3,4-dihydro-2H,5H-pyrano(3,2-c)(1)benzopyran-5-one
_symmetry_cell_setting           monoclinic
_symmetry_space_group_name_H-M   'P 21/c'
_symmetry_Int_Tables_number      14
_space_group_name_Hall           '-P 2ybc'
loop_
_symmetry_equiv_pos_site_id
_symmetry_equiv_pos_as_xyz
1 x,y,z
2 -x,1/2+y,1/2-z
3 -x,-y,-z
4 x,1/2-y,1/2+z
_cell_length_a                   11.960(2)
_cell_length_b                   10.456(2)
_cell_length_c                   13.039(3)
_cell_angle_alpha                90
_cell_angle_beta                 105.09(3)
_cell_angle_gamma                90
_cell_volume                     1574.35
_exptl_crystal_colour            colorless
_exptl_crystal_description       block
_chemical_melting_point          '425.2 K'
_cell_formula_units_Z            4
_exptl_crystal_recrystallization_method 'petroleum ether/ethyl acetate'
loop_
_atom_site_label
_atom_site_type_symbol
_atom_site_fract_x
_atom_site_fract_y
_atom_site_fract_z
Si1 Si 0.99023(8) 0.25482(9) 0.80234(8)
O1 O 1.12400(18) 0.2964(2) 0.80622(17)
O2 O 1.25967(18) 0.1936(2) 0.94009(16)
O3 O 1.4455(2) 0.0500(2) 0.6821(2)
O4 O 1.41823(19) -0.0834(2) 0.80345(18)
C1 C 0.9253(4) 0.2283(4) 0.6587(3)
H1 H 0.9663 0.1611 0.6340
H2 H 0.9305 0.3056 0.6204
H3 H 0.8455 0.2046 0.6473
C2 C 0.9878(4) 0.1083(4) 0.8812(4)
H4 H 1.0214 0.1261 0.9550
H5 H 1.0315 0.0423 0.8581
H6 H 0.9092 0.0804 0.8712
C3 C 0.9099(3) 0.3860(4) 0.8480(3)
H7 H 0.9421 0.4002 0.9226
H8 H 0.8298 0.3628 0.8352
H9 H 0.9163 0.4629 0.8096
C4 C 1.2246(3) 0.3160(3) 0.8869(2)
C5 C 1.2061(3) 0.4012(3) 0.9747(3)
H10 H 1.1458 0.3661 1.0025
H11 H 1.1842 0.4852 0.9470
H12 H 1.2765 0.4063 1.0304
C6 C 1.3175(3) 0.3626(3) 0.8370(3)
H13 H 1.3887 0.3761 0.8918
H14 H 1.2942 0.4437 0.8017
C7 C 1.3385(3) 0.2661(3) 0.7568(3)
H15 H 1.2740 0.2671 0.6938
H16 H 1.4082 0.2888 0.7361
C8 C 1.3515(3) 0.1357(3) 0.8048(2)
C9 C 1.4074(3) 0.0370(3) 0.7593(3)
C10 C 1.3147(2) 0.1090(3) 0.8924(2)
C11 C 1.3358(2) -0.0145(3) 0.9437(2)
C12 C 1.3868(3) -0.1077(3) 0.8960(3)
C13 C 1.4101(3) -0.2298(3) 0.9389(3)
H17 H 1.4438 -0.2916 0.9051
C14 C 1.3820(3) -0.2568(3) 1.0320(3)
H18 H 1.3961 -0.3380 1.0616
C15 C 1.3326(3) -0.1636(4) 1.0826(3)
H19 H 1.3155 -0.1824 1.1466
C16 C 1.3091(3) -0.0451(3) 1.0390(3)
H20 H 1.2751 0.0161 1.0730
loop_
_geom_bond_atom_site_label_1
_geom_bond_atom_site_label_2
_geom_bond_site_symmetry_1
_geom_bond_site_symmetry_2
Si1 O1 1_555 1_555
O1 C4 1_555 1_555
O2 C4 1_555 1_555
O3 C9 1_555 1_555
O4 C9 1_555 1_555
C1 Si1 1_555 1_555
H1 C1 1_555 1_555
H2 C1 1_555 1_555
H3 C1 1_555 1_555
C2 Si1 1_555 1_555
H4 C2 1_555 1_555
H5 C2 1_555 1_555
H6 C2 1_555 1_555
C3 Si1 1_555 1_555
H7 C3 1_555 1_555
H8 C3 1_555 1_555
H9 C3 1_555 1_555
C4 C5 1_555 1_555
C5 H10 1_555 1_555
H11 C5 1_555 1_555
H12 C5 1_555 1_555
C6 C4 1_555 1_555
H13 C6 1_555 1_555
H14 C6 1_555 1_555
C7 C6 1_555 1_555
H15 C7 1_555 1_555
H16 C7 1_555 1_555
C8 C7 1_555 1_555
C9 C8 1_555 1_555
C10 O2 1_555 1_555
C11 C10 1_555 1_555
C12 O4 1_555 1_555
C13 C12 1_555 1_555
H17 C13 1_555 1_555
C14 C13 1_555 1_555
H18 C14 1_555 1_555
C15 C14 1_555 1_555
H19 C15 1_555 1_555
C16 C11 1_555 1_555
H20 C16 1_555 1_555
C8 C10 1_555 1_555
C11 C12 1_555 1_555
C15 C16 1_555 1_555

#END
