
#######################################################################
#
#                 Cambridge Crystallographic Data Centre
#                                CCDC 
#
#######################################################################
#
# If this CIF has been generated from an entry in the Cambridge 
# Structural Database, then it will include bibliographic, chemical, 
# crystal, experimental, refinement or atomic coordinate data resulting 
# from the CCDC's data processing and validation procedures.
#
#######################################################################

data_CAYSUR02
_chemical_formula_moiety         'C56 H42'
_chemical_name_systematic        
1,1',1'',1''',1'''',1''''',1'''''',1'''''''-octa-1,3,5,7-tetraene-1,2,3,4,5,6,7,8-octayloctabenzene
_symmetry_cell_setting           monoclinic
_symmetry_space_group_name_H-M   'C 2/c'
_symmetry_Int_Tables_number      15
_space_group_name_Hall           '-C 2yn'
loop_
_symmetry_equiv_pos_site_id
_symmetry_equiv_pos_as_xyz
1 x,y,z
2 -x,y,1/2-z
3 1/2+x,1/2+y,z
4 1/2-x,1/2+y,1/2-z
5 -x,-y,-z
6 x,-y,1/2+z
7 1/2-x,1/2-y,-z
8 1/2+x,1/2-y,1/2+z
_cell_length_a                   23.491(3)
_cell_length_b                   10.5581(14)
_cell_length_c                   16.883(2)
_cell_angle_alpha                90
_cell_angle_beta                 99.210(2)
_cell_angle_gamma                90
_cell_volume                     4133.35
_exptl_crystal_colour            colorless
_exptl_crystal_description       block
_cell_formula_units_Z            4
loop_
_atom_site_label
_atom_site_type_symbol
_atom_site_fract_x
_atom_site_fract_y
_atom_site_fract_z
C1 C 0.06006(7) 0.08156(15) 0.21785(10)
C2 C 0.12465(7) 0.08837(15) 0.22911(10)
C3 C 0.15341(8) 0.10385(17) 0.30383(10)
H1 H 0.1306 0.1193 0.3430
C4 C 0.21587(8) 0.09988(18) 0.33270(10)
C5 C 0.24943(9) 0.0003(2) 0.31408(13)
H2 H 0.2328 -0.0628 0.2795
C6 C 0.30734(10) -0.0070(3) 0.34606(16)
H3 H 0.3291 -0.0752 0.3332
C7 C 0.33251(12) 0.0844(3) 0.39594(18)
H4 H 0.3715 0.0792 0.4172
C8 C 0.30042(13) 0.1840(4) 0.41478(18)
H5 H 0.3177 0.2472 0.4487
C9 C 0.24223(11) 0.1922(3) 0.38390(14)
H6 H 0.2207 0.2603 0.3978
C10 C 0.15130(7) 0.08373(15) 0.15541(10)
C11 C 0.20126(8) 0.1501(2) 0.14858(11)
H7 H 0.2191 0.1982 0.1917
C12 C 0.22490(10) 0.1461(2) 0.07889(13)
H8 H 0.2587 0.1904 0.0757
C13 C 0.19871(11) 0.0770(2) 0.01416(13)
H9 H 0.2148 0.0738 -0.0327
C14 C 0.12525(8) 0.01678(18) 0.08885(11)
H10 H 0.0911 -0.0266 0.0911
C15 C 0.14896(10) 0.0131(2) 0.01929(12)
H11 H 0.1309 -0.0332 -0.0245
C16 C 0.03054(7) 0.18801(16) 0.16935(11)
C17 C 0.04747(9) 0.31135(18) 0.18647(14)
H12 H 0.0773 0.3275 0.2285
C18 C 0.02082(12) 0.4119(2) 0.14213(16)
H13 H 0.0319 0.4947 0.1556
C19 C -0.02215(11) 0.3885(2) 0.07813(16)
H14 H -0.0399 0.4555 0.0481
C20 C -0.03869(11) 0.2671(2) 0.05881(15)
H15 H -0.0672 0.2512 0.0150
C21 C -0.01283(8) 0.16752(19) 0.10473(12)
H16 H -0.0249 0.0851 0.0918
C22 C 0.06122(7) -0.12430(16) 0.29366(10)
C23 C 0.10364(9) -0.19172(18) 0.26315(13)
H17 H 0.1152 -0.1659 0.2155
C24 C 0.12884(10) -0.2972(2) 0.30320(16)
H18 H 0.1575 -0.3409 0.2825
C25 C 0.11232(11) -0.3373(2) 0.37167(16)
H19 H 0.1294 -0.4085 0.3978
C26 C 0.07029(10) -0.2732(2) 0.40291(15)
H20 H 0.0594 -0.2996 0.4509
C27 C 0.04422(9) -0.16954(18) 0.36291(12)
H21 H 0.0144 -0.1290 0.3831
C28 C 0.03213(7) -0.01064(15) 0.25164(10)
C1A C -0.06006(7) 0.08156(15) 0.28215(10)
C2A C -0.12465(7) 0.08837(15) 0.27089(10)
C3A C -0.15341(8) 0.10385(17) 0.19617(10)
H1A H -0.1306 0.1193 0.1570
C4A C -0.21587(8) 0.09988(18) 0.16730(10)
C5A C -0.24943(9) 0.0003(2) 0.18592(13)
H2A H -0.2328 -0.0628 0.2205
C6A C -0.30734(10) -0.0070(3) 0.15394(16)
H3A H -0.3291 -0.0752 0.1668
C7A C -0.33251(12) 0.0844(3) 0.10406(18)
H4A H -0.3715 0.0792 0.0828
C8A C -0.30042(13) 0.1840(4) 0.08522(18)
H5A H -0.3177 0.2472 0.0513
C9A C -0.24223(11) 0.1922(3) 0.11610(14)
H6A H -0.2207 0.2603 0.1022
C10A C -0.15130(7) 0.08373(15) 0.34459(10)
C11A C -0.20126(8) 0.1501(2) 0.35142(11)
H7A H -0.2191 0.1982 0.3083
C12A C -0.22490(10) 0.1461(2) 0.42111(13)
H8A H -0.2587 0.1904 0.4243
C13A C -0.19871(11) 0.0770(2) 0.48584(13)
H9A H -0.2148 0.0738 0.5327
C14A C -0.12525(8) 0.01678(18) 0.41115(11)
H10A H -0.0911 -0.0266 0.4089
C15A C -0.14896(10) 0.0131(2) 0.48071(12)
H11A H -0.1309 -0.0332 0.5245
C16A C -0.03054(7) 0.18801(16) 0.33065(11)
C17A C -0.04747(9) 0.31135(18) 0.31353(14)
H12A H -0.0773 0.3275 0.2715
C18A C -0.02082(12) 0.4119(2) 0.35787(16)
H13A H -0.0319 0.4947 0.3444
C19A C 0.02215(11) 0.3885(2) 0.42187(16)
H14A H 0.0399 0.4555 0.4519
C20A C 0.03869(11) 0.2671(2) 0.44119(15)
H15A H 0.0672 0.2512 0.4850
C21A C 0.01283(8) 0.16752(19) 0.39527(12)
H16A H 0.0249 0.0851 0.4082
C22A C -0.06122(7) -0.12430(16) 0.20634(10)
C23A C -0.10364(9) -0.19172(18) 0.23685(13)
H17A H -0.1152 -0.1659 0.2845
C24A C -0.12884(10) -0.2972(2) 0.19680(16)
H18A H -0.1575 -0.3409 0.2175
C25A C -0.11232(11) -0.3373(2) 0.12833(16)
H19A H -0.1294 -0.4085 0.1022
C26A C -0.07029(10) -0.2732(2) 0.09709(15)
H20A H -0.0594 -0.2996 0.0491
C27A C -0.04422(9) -0.16954(18) 0.13709(12)
H21A H -0.0144 -0.1290 0.1169
C28A C -0.03213(7) -0.01064(15) 0.24836(10)
loop_
_geom_bond_atom_site_label_1
_geom_bond_atom_site_label_2
_geom_bond_site_symmetry_1
_geom_bond_site_symmetry_2
C1 C2 1_555 1_555
C2 C3 1_555 1_555
C3 H1 1_555 1_555
C4 C3 1_555 1_555
C5 C4 1_555 1_555
H2 C5 1_555 1_555
C6 C5 1_555 1_555
H3 C6 1_555 1_555
C7 C6 1_555 1_555
H4 C7 1_555 1_555
C8 C7 1_555 1_555
H5 C8 1_555 1_555
C9 C4 1_555 1_555
H6 C9 1_555 1_555
C10 C2 1_555 1_555
C11 C10 1_555 1_555
H7 C11 1_555 1_555
C12 C11 1_555 1_555
H8 C12 1_555 1_555
C13 C12 1_555 1_555
H9 C13 1_555 1_555
C14 C10 1_555 1_555
H10 C14 1_555 1_555
C15 C13 1_555 1_555
H11 C15 1_555 1_555
C16 C1 1_555 1_555
C17 C16 1_555 1_555
H12 C17 1_555 1_555
C18 C17 1_555 1_555
H13 C18 1_555 1_555
C19 C18 1_555 1_555
H14 C19 1_555 1_555
C20 C19 1_555 1_555
H15 C20 1_555 1_555
C21 C16 1_555 1_555
H16 C21 1_555 1_555
C22 C23 1_555 1_555
C23 H17 1_555 1_555
C24 C23 1_555 1_555
H18 C24 1_555 1_555
C25 C24 1_555 1_555
H19 C25 1_555 1_555
C26 C25 1_555 1_555
H20 C26 1_555 1_555
C27 C22 1_555 1_555
H21 C27 1_555 1_555
C28 C1 1_555 1_555
C1A C2A 1_555 1_555
C2A C3A 1_555 1_555
C3A H1A 1_555 1_555
C4A C3A 1_555 1_555
C5A C4A 1_555 1_555
H2A C5A 1_555 1_555
C6A C5A 1_555 1_555
H3A C6A 1_555 1_555
C7A C6A 1_555 1_555
H4A C7A 1_555 1_555
C8A C7A 1_555 1_555
H5A C8A 1_555 1_555
C9A C4A 1_555 1_555
H6A C9A 1_555 1_555
C10A C2A 1_555 1_555
C11A C10A 1_555 1_555
H7A C11A 1_555 1_555
C12A C11A 1_555 1_555
H8A C12A 1_555 1_555
C13A C12A 1_555 1_555
H9A C13A 1_555 1_555
C14A C10A 1_555 1_555
H10A C14A 1_555 1_555
C15A C13A 1_555 1_555
H11A C15A 1_555 1_555
C16A C1A 1_555 1_555
C17A C16A 1_555 1_555
H12A C17A 1_555 1_555
C18A C17A 1_555 1_555
H13A C18A 1_555 1_555
C19A C18A 1_555 1_555
H14A C19A 1_555 1_555
C20A C19A 1_555 1_555
H15A C20A 1_555 1_555
C21A C16A 1_555 1_555
H16A C21A 1_555 1_555
C22A C23A 1_555 1_555
C23A H17A 1_555 1_555
C24A C23A 1_555 1_555
H18A C24A 1_555 1_555
C25A C24A 1_555 1_555
H19A C25A 1_555 1_555
C26A C25A 1_555 1_555
H20A C26A 1_555 1_555
C27A C22A 1_555 1_555
H21A C27A 1_555 1_555
C28A C28 1_555 1_555
C8 C9 1_555 1_555
C14 C15 1_555 1_555
C20 C21 1_555 1_555
C22 C28 1_555 1_555
C26 C27 1_555 1_555
C1A C28A 1_555 1_555
C8A C9A 1_555 1_555
C14A C15A 1_555 1_555
C20A C21A 1_555 1_555
C22A C28A 1_555 1_555
C26A C27A 1_555 1_555

#END
