
#######################################################################
#
#                 Cambridge Crystallographic Data Centre
#                                CCDC 
#
#######################################################################
#
# If this CIF has been generated from an entry in the Cambridge 
# Structural Database, then it will include bibliographic, chemical, 
# crystal, experimental, refinement or atomic coordinate data resulting 
# from the CCDC's data processing and validation procedures.
#
#######################################################################

data_CAYWOR
_chemical_formula_moiety         'C28 H41 N1 O1 P1 1+,Cl1 1-'
_chemical_name_systematic        
'tributyl[(2-hydroxyphenyl)(1-methyl-1H-indol-3-yl)methyl]phosphanium chloride'
_symmetry_cell_setting           monoclinic
_symmetry_space_group_name_H-M   'C 2/c'
_symmetry_Int_Tables_number      15
_space_group_name_Hall           '-C 2yn'
loop_
_symmetry_equiv_pos_site_id
_symmetry_equiv_pos_as_xyz
1 x,y,z
2 -x,y,1/2-z
3 1/2+x,1/2+y,z
4 1/2-x,1/2+y,1/2-z
5 -x,-y,-z
6 x,-y,1/2+z
7 1/2-x,1/2-y,-z
8 1/2+x,1/2-y,1/2+z
_cell_length_a                   29.656(2)
_cell_length_b                   13.8885(12)
_cell_length_c                   28.155(2)
_cell_angle_alpha                90
_cell_angle_beta                 91.447(2)
_cell_angle_gamma                90
_cell_volume                     11592.7
_exptl_crystal_colour            colorless
_exptl_crystal_description       prism
_cell_formula_units_Z            16
loop_
_atom_site_label
_atom_site_type_symbol
_atom_site_fract_x
_atom_site_fract_y
_atom_site_fract_z
Cl1 Cl 0.64000(3) 0.63992(7) 0.57826(3)
Cl2 Cl 0.56724(3) 0.35229(7) 0.85641(3)
P1 P 0.83622(3) 0.69230(7) 0.56107(3)
O1 O 0.73673(7) 0.67709(16) 0.59767(8)
N1 N 0.81275(8) 0.46980(19) 0.68564(9)
C1 C 0.74587(10) 0.7536(2) 0.62649(11)
C2 C 0.71217(11) 0.8147(3) 0.64141(12)
H1 H 0.6816 0.8029 0.6325
C3 C 0.72361(13) 0.8930(3) 0.66944(14)
H2 H 0.7006 0.9351 0.6798
C4 C 0.76771(12) 0.9110(3) 0.68259(14)
H3 H 0.7751 0.9650 0.7019
C5 C 0.80111(11) 0.8502(2) 0.66754(12)
H4 H 0.8316 0.8634 0.6763
C6 C 0.79102(10) 0.7697(2) 0.63972(10)
C7 C 0.82939(10) 0.7043(2) 0.62551(10)
H5 H 0.8572 0.7393 0.6366
C8 C 0.83154(10) 0.6103(2) 0.65191(10)
C9 C 0.79784(11) 0.5441(2) 0.65777(11)
H6 H 0.7682 0.5493 0.6443
C10 C 0.78652(13) 0.3857(3) 0.69785(15)
H7 H 0.7558 0.3923 0.6846
H8 H 0.7854 0.3799 0.7325
H9 H 0.8006 0.3280 0.6847
C11 C 0.85710(11) 0.4851(2) 0.69775(11)
C12 C 0.88711(12) 0.4273(3) 0.72466(12)
H10 H 0.8778 0.3679 0.7380
C13 C 0.93017(13) 0.4604(3) 0.73081(13)
H11 H 0.9514 0.4229 0.7486
C14 C 0.94375(12) 0.5484(3) 0.71154(13)
H12 H 0.9741 0.5687 0.7164
C15 C 0.91464(11) 0.6060(3) 0.68592(12)
H13 H 0.9242 0.6664 0.6739
C16 C 0.87037(10) 0.5733(2) 0.67801(10)
C17 C 0.81563(12) 0.7990(3) 0.53339(12)
H14 H 0.8160 0.7909 0.4985
H15 H 0.7840 0.8096 0.5425
C18 C 0.84415(12) 0.8883(3) 0.54764(14)
H16 H 0.8511 0.8857 0.5822
H17 H 0.8731 0.8860 0.5309
C19 C 0.82118(15) 0.9809(3) 0.53637(17)
H18 H 0.7932 0.9856 0.5547
H19 H 0.8126 0.9823 0.5022
C20 C 0.85125(16) 1.0666(4) 0.5481(2)
H20 H 0.8351 1.1263 0.5402
H21 H 0.8787 1.0627 0.5295
H22 H 0.8593 1.0660 0.5820
C21 C 0.89579(11) 0.6838(3) 0.55085(12)
H23 H 0.9011 0.7013 0.5174
H24 H 0.9116 0.7320 0.5711
C22 C 0.91681(11) 0.5862(3) 0.56047(13)
H25 H 0.9073 0.5632 0.5919
H26 H 0.9053 0.5400 0.5363
C23 C 0.96783(13) 0.5870(4) 0.55972(19)
H27 H 0.9776 0.6101 0.5284
H28 H 0.9796 0.6322 0.5842
C24 C 0.98721(17) 0.4883(4) 0.5690(2)
H29 H 1.0202 0.4915 0.5686
H30 H 0.9763 0.4437 0.5443
H31 H 0.9778 0.4654 0.6001
C25 C 0.81068(11) 0.5869(3) 0.53534(11)
H32 H 0.8227 0.5294 0.5521
H33 H 0.7778 0.5894 0.5404
C26 C 0.81877(12) 0.5757(3) 0.48208(12)
H34 H 0.7996 0.6225 0.4644
H35 H 0.8506 0.5917 0.4759
C27 C 0.80881(13) 0.4755(3) 0.46330(13)
H36 H 0.7779 0.4574 0.4722
H37 H 0.8095 0.4771 0.4282
C28 C 0.84092(15) 0.3985(3) 0.48106(16)
H38 H 0.8320 0.3362 0.4674
H39 H 0.8400 0.3949 0.5158
H40 H 0.8716 0.4143 0.4716
H41 H 0.7023 0.6775 0.5882
P2 P 0.57106(3) 0.41454(6) 0.64945(3)
O2 O 0.59020(7) 0.40669(16) 0.75804(7)
H42 H 0.5809 0.3991 0.7857
N2 N 0.69430(9) 0.22752(19) 0.69273(9)
C29 C 0.61426(10) 0.4899(2) 0.75585(11)
C30 C 0.62081(12) 0.5497(3) 0.79536(12)
H43 H 0.6085 0.5327 0.8250
C31 C 0.64525(13) 0.6332(3) 0.79095(14)
H44 H 0.6496 0.6741 0.8177
C32 C 0.66347(13) 0.6583(3) 0.74806(14)
H45 H 0.6806 0.7157 0.7453
C33 C 0.65654(11) 0.5993(2) 0.70919(12)
H46 H 0.6686 0.6174 0.6795
C34 C 0.63245(10) 0.5144(2) 0.71239(11)
C35 C 0.62855(9) 0.4503(2) 0.66860(10)
H47 H 0.6398 0.4909 0.6420
C36 C 0.65906(10) 0.3642(2) 0.66992(11)
C37 C 0.66461(10) 0.2983(2) 0.70531(12)
H48 H 0.6499 0.3009 0.7349
C38 C 0.70860(13) 0.1479(3) 0.72272(13)
H49 H 0.6924 0.1502 0.7526
H50 H 0.7411 0.1526 0.7294
H51 H 0.7019 0.0870 0.7064
C39 C 0.70907(10) 0.2485(2) 0.64792(11)
C40 C 0.74113(11) 0.2015(3) 0.62067(13)
H52 H 0.7552 0.1435 0.6312
C41 C 0.75136(13) 0.2432(3) 0.57781(14)
H53 H 0.7729 0.2131 0.5584
C42 C 0.73101(13) 0.3284(3) 0.56218(13)
H54 H 0.7393 0.3555 0.5327
C43 C 0.69909(11) 0.3739(3) 0.58892(11)
H55 H 0.6849 0.4313 0.5778
C44 C 0.68802(10) 0.3341(2) 0.63262(11)
C45 C 0.55595(11) 0.2944(2) 0.66732(11)
H56 H 0.5648 0.2863 0.7012
H57 H 0.5227 0.2883 0.6648
C46 C 0.57683(11) 0.2118(2) 0.63911(11)
H58 H 0.5607 0.2057 0.6081
H59 H 0.6087 0.2272 0.6330
C47 C 0.57455(14) 0.1172(3) 0.66514(15)
H60 H 0.5426 0.0972 0.6671
H61 H 0.5866 0.1260 0.6980
C48 C 0.60102(16) 0.0378(3) 0.64102(17)
H62 H 0.5984 -0.0221 0.6592
H63 H 0.6328 0.0565 0.6397
H64 H 0.5888 0.0279 0.6087
C49 C 0.57156(10) 0.4169(3) 0.58568(11)
H65 H 0.5804 0.4822 0.5753
H66 H 0.5948 0.3713 0.5748
C50 C 0.52596(11) 0.3907(3) 0.56145(12)
H67 H 0.5142 0.3313 0.5761
H68 H 0.5041 0.4431 0.5670
C51 C 0.5299 0.3751 0.5080
H69 H 0.5389 0.4363 0.4929
H70 H 0.5538 0.3270 0.5023
C52 C 0.4873(3) 0.3417(7) 0.4857(3)
H71 H 0.4914 0.3325 0.4516
H72 H 0.4637 0.3898 0.4905
H73 H 0.4784 0.2805 0.5001
C53 C 0.53006(10) 0.4984(2) 0.67004(12)
H74 H 0.4997 0.4761 0.6594
H75 H 0.5309 0.4978 0.7052
C54 C 0.53633(12) 0.6012(3) 0.65334(14)
H76 H 0.5669 0.6234 0.6631
H77 H 0.5343 0.6027 0.6182
C55 C 0.5024(2) 0.6690(4) 0.6726(2)
H78 H 0.4719 0.6475 0.6619
H79 H 0.5038 0.6653 0.7077
C56 C 0.5082(3) 0.7707(4) 0.6583(3)
H80 H 0.4846 0.8101 0.6724
H81 H 0.5060 0.7758 0.6236
H82 H 0.5378 0.7937 0.6695
H83? H 0.4991 0.3732 0.4935
H84? H 0.5457 0.4311 0.4944
C57? C 0.5544(3) 0.2847(7) 0.4943(3)
H85? H 0.5554 0.2804 0.4596
H86? H 0.5386 0.2285 0.5066
H87? H 0.5852 0.2864 0.5077
loop_
_geom_bond_atom_site_label_1
_geom_bond_atom_site_label_2
_geom_bond_site_symmetry_1
_geom_bond_site_symmetry_2
P1 C7 1_555 1_555
O1 C1 1_555 1_555
N1 C9 1_555 1_555
C1 C2 1_555 1_555
C2 H1 1_555 1_555
C3 C2 1_555 1_555
H2 C3 1_555 1_555
C4 C3 1_555 1_555
H3 C4 1_555 1_555
C5 C4 1_555 1_555
H4 C5 1_555 1_555
C6 C1 1_555 1_555
C7 C6 1_555 1_555
H5 C7 1_555 1_555
C8 C7 1_555 1_555
C9 C8 1_555 1_555
H6 C9 1_555 1_555
C10 N1 1_555 1_555
H7 C10 1_555 1_555
H8 C10 1_555 1_555
H9 C10 1_555 1_555
C11 N1 1_555 1_555
C12 C11 1_555 1_555
H10 C12 1_555 1_555
C13 C12 1_555 1_555
H11 C13 1_555 1_555
C14 C13 1_555 1_555
H12 C14 1_555 1_555
C15 C14 1_555 1_555
H13 C15 1_555 1_555
C16 C8 1_555 1_555
C17 P1 1_555 1_555
H14 C17 1_555 1_555
H15 C17 1_555 1_555
C18 C17 1_555 1_555
H16 C18 1_555 1_555
H17 C18 1_555 1_555
C19 C18 1_555 1_555
H18 C19 1_555 1_555
H19 C19 1_555 1_555
C20 C19 1_555 1_555
H20 C20 1_555 1_555
H21 C20 1_555 1_555
H22 C20 1_555 1_555
C21 P1 1_555 1_555
H23 C21 1_555 1_555
H24 C21 1_555 1_555
C22 C21 1_555 1_555
H25 C22 1_555 1_555
H26 C22 1_555 1_555
C23 C22 1_555 1_555
H27 C23 1_555 1_555
H28 C23 1_555 1_555
C24 C23 1_555 1_555
H29 C24 1_555 1_555
H30 C24 1_555 1_555
H31 C24 1_555 1_555
C25 P1 1_555 1_555
H32 C25 1_555 1_555
H33 C25 1_555 1_555
C26 C25 1_555 1_555
H34 C26 1_555 1_555
H35 C26 1_555 1_555
C27 C26 1_555 1_555
H36 C27 1_555 1_555
H37 C27 1_555 1_555
C28 C27 1_555 1_555
H38 C28 1_555 1_555
H39 C28 1_555 1_555
H40 C28 1_555 1_555
H41 O1 1_555 1_555
P2 C35 1_555 1_555
O2 H42 1_555 1_555
N2 C37 1_555 1_555
C29 O2 1_555 1_555
C30 C29 1_555 1_555
H43 C30 1_555 1_555
C31 C30 1_555 1_555
H44 C31 1_555 1_555
C32 C31 1_555 1_555
H45 C32 1_555 1_555
C33 C32 1_555 1_555
H46 C33 1_555 1_555
C34 C29 1_555 1_555
C35 C34 1_555 1_555
H47 C35 1_555 1_555
C36 C35 1_555 1_555
C37 C36 1_555 1_555
H48 C37 1_555 1_555
C38 N2 1_555 1_555
H49 C38 1_555 1_555
H50 C38 1_555 1_555
H51 C38 1_555 1_555
C39 N2 1_555 1_555
C40 C39 1_555 1_555
H52 C40 1_555 1_555
C41 C40 1_555 1_555
H53 C41 1_555 1_555
C42 C41 1_555 1_555
H54 C42 1_555 1_555
C43 C42 1_555 1_555
H55 C43 1_555 1_555
C44 C36 1_555 1_555
C45 P2 1_555 1_555
H56 C45 1_555 1_555
H57 C45 1_555 1_555
C46 C45 1_555 1_555
H58 C46 1_555 1_555
H59 C46 1_555 1_555
C47 C46 1_555 1_555
H60 C47 1_555 1_555
H61 C47 1_555 1_555
C48 C47 1_555 1_555
H62 C48 1_555 1_555
H63 C48 1_555 1_555
H64 C48 1_555 1_555
C49 P2 1_555 1_555
H65 C49 1_555 1_555
H66 C49 1_555 1_555
C50 C49 1_555 1_555
H67 C50 1_555 1_555
H68 C50 1_555 1_555
C51 C50 1_555 1_555
H69 C51 1_555 1_555
H70 C51 1_555 1_555
C52 C51 1_555 1_555
H71 C52 1_555 1_555
H72 C52 1_555 1_555
H73 C52 1_555 1_555
C53 P2 1_555 1_555
H74 C53 1_555 1_555
H75 C53 1_555 1_555
C54 C53 1_555 1_555
H76 C54 1_555 1_555
H77 C54 1_555 1_555
C55 C54 1_555 1_555
H78 C55 1_555 1_555
H79 C55 1_555 1_555
C56 C55 1_555 1_555
H80 C56 1_555 1_555
H81 C56 1_555 1_555
H82 C56 1_555 1_555
C5 C6 1_555 1_555
C11 C16 1_555 1_555
C15 C16 1_555 1_555
C33 C34 1_555 1_555
C39 C44 1_555 1_555
C43 C44 1_555 1_555

#END
