
#######################################################################
#
#                 Cambridge Crystallographic Data Centre
#                                CCDC 
#
#######################################################################
#
# If this CIF has been generated from an entry in the Cambridge 
# Structural Database, then it will include bibliographic, chemical, 
# crystal, experimental, refinement or atomic coordinate data resulting 
# from the CCDC's data processing and validation procedures.
#
#######################################################################

data_CAYZIO
_chemical_formula_moiety         'C24 H19 N1 O3 S1'
_chemical_name_systematic        
4-ethynyl-1-[(4-methylphenyl)sulfonyl]-3-phenyl-3,4-dihydroquinolin-2(1H)-one
_symmetry_cell_setting           monoclinic
_symmetry_space_group_name_H-M   'P 21'
_symmetry_Int_Tables_number      4
_space_group_name_Hall           'P 2yb'
loop_
_symmetry_equiv_pos_site_id
_symmetry_equiv_pos_as_xyz
1 x,y,z
2 -x,1/2+y,-z
_cell_length_a                   10.34820(10)
_cell_length_b                   8.39820(10)
_cell_length_c                   12.53460(10)
_cell_angle_alpha                90
_cell_angle_beta                 111.4970(10)
_cell_angle_gamma                90
_cell_volume                     1013.56
_exptl_crystal_description       block
_cell_formula_units_Z            2
loop_
_atom_site_label
_atom_site_type_symbol
_atom_site_fract_x
_atom_site_fract_y
_atom_site_fract_z
S1 S 0.53894(7) 0.50150(9) 0.86804(6)
O1 O 0.3897(3) 0.3780(4) 0.6357(2)
O2 O 0.5544(3) 0.5414(3) 0.98281(18)
O3 O 0.6156(3) 0.3719(3) 0.8474(3)
N1 N 0.3679(3) 0.4548(3) 0.8029(2)
C1 C 0.5678(3) 0.6724(4) 0.7991(2)
C2 C 0.1916(3) 0.2079(4) 0.7871(2)
H1 H 0.2814 0.1564 0.8270
C3 C 0.2702(3) 0.4790(4) 0.8596(2)
C4 C 0.5985(3) 0.6560(4) 0.7009(3)
H2 H 0.6032 0.5559 0.6709
C5 C 0.1813(3) 0.3531(4) 0.8558(2)
C6 C 0.6218(4) 0.7926(5) 0.6483(3)
H3 H 0.6424 0.7833 0.5824
C7 C 0.3242(3) 0.3718(4) 0.6973(2)
C8 C 0.0815(4) 0.0906(4) 0.7728(3)
C9 C 0.1765(3) 0.1557(4) 0.5778(2)
C10 C 0.5634(3) 0.8202(4) 0.8463(3)
H4 H 0.5444 0.8291 0.9130
C11 C 0.1910(3) 0.2751(4) 0.6715(2)
H5 H 0.1127 0.3493 0.6424
C12 C 0.5877(4) 0.9546(4) 0.7925(3)
H6 H 0.5857 1.0545 0.8239
C13 C 0.6151(3) 0.9423(4) 0.6918(3)
C14 C 0.0921(4) 0.1921(5) 0.4660(3)
H7 H 0.0421 0.2868 0.4502
C15 C 0.0821(4) 0.0870(6) 0.3772(3)
H8 H 0.0258 0.1122 0.3023
C16 C 0.1599(4) 0.6392(6) 0.9587(3)
H9 H 0.1530 0.7346 0.9940
C17 C 0.2589(4) 0.6231(5) 0.9086(3)
H10 H 0.3165 0.7079 0.9080
C18 C 0.0814(4) 0.3730(5) 0.9045(3)
H11 H 0.0207 0.2903 0.9021
C19 C 0.0722(4) 0.5157(6) 0.9566(3)
H12 H 0.0062 0.5279 0.9902
C20 C 0.2469(4) 0.0126(6) 0.5997(3)
H13 H 0.3021 -0.0142 0.6746
C21 C -0.0046(4) -0.0050(6) 0.7646(4)
H14 H -0.0728 -0.0806 0.7581
C22 C 0.1550(4) -0.0539(6) 0.3997(4)
H15 H 0.1496 -0.1230 0.3402
C23 C 0.6356(5) 1.0900(6) 0.6315(4)
H16 H 0.6999 1.1598 0.6861
H17 H 0.5482 1.1433 0.5963
H18 H 0.6717 1.0608 0.5738
C24 C 0.2362(4) -0.0916(6) 0.5111(4)
H19 H 0.2842 -0.1877 0.5270
loop_
_geom_bond_atom_site_label_1
_geom_bond_atom_site_label_2
_geom_bond_site_symmetry_1
_geom_bond_site_symmetry_2
S1 O2 1_555 1_555
O1 C7 1_555 1_555
O3 S1 1_555 1_555
N1 S1 1_555 1_555
C1 S1 1_555 1_555
C2 H1 1_555 1_555
C3 N1 1_555 1_555
C4 C1 1_555 1_555
H2 C4 1_555 1_555
C5 C2 1_555 1_555
C6 C4 1_555 1_555
H3 C6 1_555 1_555
C7 N1 1_555 1_555
C8 C2 1_555 1_555
C9 C11 1_555 1_555
C10 C1 1_555 1_555
H4 C10 1_555 1_555
C11 C2 1_555 1_555
H5 C11 1_555 1_555
C12 C10 1_555 1_555
H6 C12 1_555 1_555
C13 C6 1_555 1_555
C14 C9 1_555 1_555
H7 C14 1_555 1_555
C15 C14 1_555 1_555
H8 C15 1_555 1_555
C16 H9 1_555 1_555
C17 C3 1_555 1_555
H10 C17 1_555 1_555
C18 C5 1_555 1_555
H11 C18 1_555 1_555
C19 C16 1_555 1_555
H12 C19 1_555 1_555
C20 C9 1_555 1_555
H13 C20 1_555 1_555
C21 C8 1_555 1_555
H14 C21 1_555 1_555
C22 C15 1_555 1_555
H15 C22 1_555 1_555
C23 C13 1_555 1_555
H16 C23 1_555 1_555
H17 C23 1_555 1_555
H18 C23 1_555 1_555
C24 C20 1_555 1_555
H19 C24 1_555 1_555
C3 C5 1_555 1_555
C7 C11 1_555 1_555
C12 C13 1_555 1_555
C16 C17 1_555 1_555
C18 C19 1_555 1_555
C22 C24 1_555 1_555

#END
