
#######################################################################
#
#                 Cambridge Crystallographic Data Centre
#                                CCDC 
#
#######################################################################
#
# If this CIF has been generated from an entry in the Cambridge 
# Structural Database, then it will include bibliographic, chemical, 
# crystal, experimental, refinement or atomic coordinate data resulting 
# from the CCDC's data processing and validation procedures.
#
#######################################################################

data_CAZHUH
_chemical_formula_moiety         'C24 H20 As1 1+,Cl1 1-,1.5(H2 O2)'
_chemical_name_systematic        
'Tetraphenylarsonium chloride hydrogen peroxide solvate'
_symmetry_cell_setting           monoclinic
_symmetry_space_group_name_H-M   'P 21/n'
_symmetry_Int_Tables_number      14
_space_group_name_Hall           '-P 2yn'
loop_
_symmetry_equiv_pos_site_id
_symmetry_equiv_pos_as_xyz
1 x,y,z
2 1/2-x,1/2+y,1/2-z
3 -x,-y,-z
4 1/2+x,1/2-y,1/2+z
_cell_length_a                   10.4668(3)
_cell_length_b                   15.9259(4)
_cell_length_c                   13.1947(3)
_cell_angle_alpha                90
_cell_angle_beta                 101.444(1)
_cell_angle_gamma                90
_cell_volume                     2155.74
_exptl_crystal_colour            colorless
_exptl_crystal_description       block
_cell_formula_units_Z            4
loop_
_atom_site_label
_atom_site_type_symbol
_atom_site_fract_x
_atom_site_fract_y
_atom_site_fract_z
As1 As 0.738270(16) 0.084316(10) 0.919147(13)
C1 C 0.74416(16) -0.02782(11) 0.86844(13)
C2 C 0.73083(17) -0.09423(11) 0.93458(15)
C3 C 0.72805(19) -0.17608(12) 0.89781(16)
C4 C 0.7420(2) -0.19103(13) 0.79714(17)
C5 C 0.7563(2) -0.12521(14) 0.73160(16)
C6 C 0.75628(18) -0.04258(12) 0.76651(15)
C7 C 0.88643(16) 0.14970(11) 0.90455(13)
C8 C 0.91000(18) 0.22263(12) 0.96435(15)
C9 C 1.0107(2) 0.27569(13) 0.95137(17)
C10 C 1.08623(18) 0.25572(13) 0.87966(15)
C11 C 1.06261(19) 0.18390(13) 0.82086(16)
C12 C 0.96183(17) 0.13027(12) 0.83284(15)
C13 C 0.58503(16) 0.14143(11) 0.84977(13)
C14 C 0.54730(18) 0.21438(12) 0.89428(15)
C15 C 0.43811(18) 0.25804(12) 0.84403(15)
C16 C 0.36863(18) 0.22915(12) 0.74975(15)
C17 C 0.40741(18) 0.15696(12) 0.70469(15)
C18 C 0.51652(18) 0.11286(12) 0.75471(14)
C19 C 0.73639(18) 0.07762(10) 1.06277(13)
C20 C 0.85329(19) 0.06010(12) 1.13178(14)
C21 C 0.8514(2) 0.04802(12) 1.23554(15)
C22 C 0.7349(2) 0.05505(13) 1.27052(15)
C23 C 0.6204(2) 0.07397(12) 1.20257(16)
C24 C 0.61975(18) 0.08444(11) 1.09792(15)
H4 H 0.721(2) -0.0828(12) 1.0011(17)
H5 H 0.718(2) -0.2259(15) 0.9375(17)
H6 H 0.742(2) -0.2454(17) 0.7733(18)
H7 H 0.764(2) -0.1328(16) 0.6652(19)
H8 H 0.764(2) 0.0012(14) 0.7220(16)
H9 H 0.855(2) 0.2395(14) 1.0113(17)
H10 H 1.028(2) 0.3233(15) 0.9858(17)
H11 H 1.155(2) 0.2934(14) 0.8725(16)
H12 H 1.116(2) 0.1722(16) 0.7774(19)
H13 H 0.944(2) 0.0843(15) 0.792(2)
H14 H 0.592(2) 0.2333(13) 0.9558(16)
H15 H 0.415(2) 0.3093(14) 0.8739(16)
H16 H 0.295(2) 0.2572(15) 0.7133(17)
H17 H 0.358(2) 0.1358(13) 0.6409(16)
H18 H 0.540(2) 0.0635(14) 0.7242(17)
H19 H 0.935(2) 0.0558(15) 1.1054(18)
H20 H 0.931(2) 0.0365(15) 1.2855(19)
H21 H 0.734(2) 0.0489(13) 1.3393(17)
H22 H 0.539(2) 0.0816(14) 1.2232(19)
H23 H 0.543(3) 0.0964(15) 1.053(2)
Cl1 Cl 0.80213(5) 0.08803(3) 0.55284(4)
O1 O 1.10013(16) 0.11788(12) 0.58267(13)
O2 O 1.12854(19) 0.10101(12) 0.48233(14)
H1 H 1.010(3) 0.107(2) 0.565(2)
H2 H 1.143(3) 0.048(2) 0.487(3)
O3 O 0.5422(2) -0.00934(15) 0.46603(18)
H3 H 0.6203 0.0240 0.5052
O3B O 0.4578(2) 0.00934(15) 0.53397(18)
H3B H 0.3797 -0.0240 0.4948
loop_
_geom_bond_atom_site_label_1
_geom_bond_atom_site_label_2
_geom_bond_site_symmetry_1
_geom_bond_site_symmetry_2
As1 C1 1_555 1_555
C1 C2 1_555 1_555
C2 C3 1_555 1_555
C3 C4 1_555 1_555
C4 C5 1_555 1_555
C5 C6 1_555 1_555
C6 C1 1_555 1_555
C7 As1 1_555 1_555
C8 C7 1_555 1_555
C9 C8 1_555 1_555
C10 C9 1_555 1_555
C11 C10 1_555 1_555
C12 C7 1_555 1_555
C13 As1 1_555 1_555
C14 C13 1_555 1_555
C15 C14 1_555 1_555
C16 C15 1_555 1_555
C17 C16 1_555 1_555
C18 C13 1_555 1_555
C19 As1 1_555 1_555
C20 C19 1_555 1_555
C21 C20 1_555 1_555
C22 C21 1_555 1_555
C23 C22 1_555 1_555
C24 C19 1_555 1_555
O1 O2 1_555 1_555
O2 H2 1_555 1_555
H1 O1 1_555 1_555
O3 H3 1_555 1_555
H4 C2 1_555 1_555
H5 C3 1_555 1_555
H6 C4 1_555 1_555
H7 C5 1_555 1_555
H8 C6 1_555 1_555
H9 C8 1_555 1_555
H10 C9 1_555 1_555
H11 C10 1_555 1_555
H12 C11 1_555 1_555
H13 C12 1_555 1_555
H14 C14 1_555 1_555
H15 C15 1_555 1_555
H16 C16 1_555 1_555
H17 C17 1_555 1_555
H18 C18 1_555 1_555
H19 C20 1_555 1_555
H20 C21 1_555 1_555
H21 C22 1_555 1_555
H22 C23 1_555 1_555
H23 C24 1_555 1_555
O3B O3 1_555 1_555
H3B O3B 1_555 1_555
C11 C12 1_555 1_555
C17 C18 1_555 1_555
C23 C24 1_555 1_555

#END
