
#######################################################################
#
#                 Cambridge Crystallographic Data Centre
#                                CCDC 
#
#######################################################################
#
# If this CIF has been generated from an entry in the Cambridge 
# Structural Database, then it will include bibliographic, chemical, 
# crystal, experimental, refinement or atomic coordinate data resulting 
# from the CCDC's data processing and validation procedures.
#
#######################################################################

data_CAZMOH
_chemical_formula_moiety         'C22 H18 Br2 O2'
_chemical_name_systematic        
7-(3,5-Dibromophenyl)-6,6a,7,7a,10,10a-hexahydrophenanthro[2,3-c]furan-8(5H)-one
_symmetry_cell_setting           orthorhombic
_symmetry_space_group_name_H-M   'P 21 21 21'
_symmetry_Int_Tables_number      19
_space_group_name_Hall           'P 2ac 2ab'
loop_
_symmetry_equiv_pos_site_id
_symmetry_equiv_pos_as_xyz
1 x,y,z
2 1/2-x,-y,1/2+z
3 1/2+x,1/2-y,-z
4 -x,1/2+y,1/2-z
_cell_length_a                   7.1515(13)
_cell_length_b                   10.698(2)
_cell_length_c                   24.150(4)
_cell_angle_alpha                90
_cell_angle_beta                 90
_cell_angle_gamma                90
_cell_volume                     1847.64
_exptl_crystal_colour            colorless
_exptl_crystal_description       prism
_cell_formula_units_Z            4
loop_
_atom_site_label
_atom_site_type_symbol
_atom_site_fract_x
_atom_site_fract_y
_atom_site_fract_z
Br1 Br -0.00798(3) 0.150492(17) 0.679302(7)
Br2 Br -0.52163(4) -0.19444(2) 0.773002(9)
O1 O 0.0937(2) -0.21524(13) 0.94216(6)
O2 O -0.2140(2) -0.17644(15) 0.94405(6)
C1 C 0.5455(3) 0.53830(18) 0.90651(8)
H1 H 0.6159 0.6135 0.9087
C2 C 0.6162(3) 0.43478(19) 0.87843(8)
H2 H 0.7336 0.4400 0.8602
C3 C 0.5151(3) 0.32421(15) 0.87710(7)
H3 H 0.5658 0.2533 0.8588
C4 C 0.3388(2) 0.31555(17) 0.90251(7)
C5 C 0.2296(2) 0.19778(17) 0.90084(7)
C6 C 0.3131(3) 0.08581(18) 0.89990(8)
H4 H 0.4457 0.0812 0.8990
C7 C 0.2010(3) -0.03177(18) 0.90024(8)
H5 H 0.1758 -0.0573 0.8611
C8 C 0.2671(3) -0.1456(2) 0.93260(9)
H6 H 0.3573 -0.1956 0.9108
H7 H 0.3261 -0.1208 0.9680
C9 C -0.0566(3) -0.13854(18) 0.93845(8)
C10 C 0.0154(3) -0.00701(15) 0.92910(7)
H8 H 0.0473 0.0267 0.9665
C11 C -0.0971(2) 0.09473(18) 0.90016(7)
H9 H -0.2161 0.1069 0.9212
C12 C 0.0189(3) 0.21668(15) 0.90485(6)
H10 H -0.0190 0.2721 0.8735
C13 C -0.0172(3) 0.28913(16) 0.95887(7)
H11 H -0.1536 0.2982 0.9647
H12 H 0.0348 0.2419 0.9906
C14 C 0.0734(3) 0.41838(17) 0.95620(8)
H13 H -0.0100 0.4750 0.9352
H14 H 0.0843 0.4517 0.9943
C15 C 0.2655(3) 0.42026(17) 0.92947(7)
C16 C 0.3708(3) 0.52993(18) 0.93121(8)
H15 H 0.3215 0.6009 0.9498
C17 C -0.1474(2) 0.05772(18) 0.84095(8)
C18 C -0.2843(3) -0.03373(18) 0.83324(8)
H16 H -0.3423 -0.0717 0.8644
C19 C -0.3356(3) -0.06907(19) 0.78027(8)
C20 C -0.2564(3) -0.0159(2) 0.73352(8)
H17 H -0.2943 -0.0397 0.6973
C21 C -0.1195(3) 0.07384(18) 0.74207(7)
C22 C -0.0623(2) 0.11098(17) 0.79463(7)
H18 H 0.0334 0.1718 0.7989
loop_
_geom_bond_atom_site_label_1
_geom_bond_atom_site_label_2
_geom_bond_site_symmetry_1
_geom_bond_site_symmetry_2
Br1 C21 1_555 1_555
Br2 C19 1_555 1_555
O1 C8 1_555 1_555
O2 C9 1_555 1_555
C1 H1 1_555 1_555
C2 C1 1_555 1_555
H2 C2 1_555 1_555
C3 C2 1_555 1_555
H3 C3 1_555 1_555
C4 C3 1_555 1_555
C5 C4 1_555 1_555
C6 C5 1_555 1_555
H4 C6 1_555 1_555
C7 C6 1_555 1_555
H5 C7 1_555 1_555
C8 C7 1_555 1_555
H6 C8 1_555 1_555
H7 C8 1_555 1_555
C9 O1 1_555 1_555
C10 C7 1_555 1_555
H8 C10 1_555 1_555
C11 C10 1_555 1_555
H9 C11 1_555 1_555
C12 C5 1_555 1_555
H10 C12 1_555 1_555
C13 C12 1_555 1_555
H11 C13 1_555 1_555
H12 C13 1_555 1_555
C14 C13 1_555 1_555
H13 C14 1_555 1_555
H14 C14 1_555 1_555
C15 C4 1_555 1_555
C16 C1 1_555 1_555
H15 C16 1_555 1_555
C17 C11 1_555 1_555
C18 C17 1_555 1_555
H16 C18 1_555 1_555
C19 C18 1_555 1_555
C20 C19 1_555 1_555
H17 C20 1_555 1_555
C21 C20 1_555 1_555
C22 C17 1_555 1_555
H18 C22 1_555 1_555
C9 C10 1_555 1_555
C11 C12 1_555 1_555
C14 C15 1_555 1_555
C15 C16 1_555 1_555
C21 C22 1_555 1_555

#END
