
#######################################################################
#
#                 Cambridge Crystallographic Data Centre
#                                CCDC 
#
#######################################################################
#
# If this CIF has been generated from an entry in the Cambridge 
# Structural Database, then it will include bibliographic, chemical, 
# crystal, experimental, refinement or atomic coordinate data resulting 
# from the CCDC's data processing and validation procedures.
#
#######################################################################

data_CAZRON
_chemical_name_common            
2,7-bis[2-(p-n-butylphenyl)-1-o-carboran-1-yl]fluorene
_chemical_formula_moiety         'C37 H54 B20'
_chemical_name_systematic        
1,1'-(9H-fluorene-2,7-diyl)-2,2'-bis(4-butylphenyl)-bis(1,2-dicarba-closo-dodecaborane(10))
_symmetry_cell_setting           monoclinic
_symmetry_space_group_name_H-M   'C 2/c'
_symmetry_Int_Tables_number      15
_space_group_name_Hall           '-C 2yn'
loop_
_symmetry_equiv_pos_site_id
_symmetry_equiv_pos_as_xyz
1 x,y,z
2 -x,y,1/2-z
3 1/2+x,1/2+y,z
4 1/2-x,1/2+y,1/2-z
5 -x,-y,-z
6 x,-y,1/2+z
7 1/2-x,1/2-y,-z
8 1/2+x,1/2-y,1/2+z
_cell_length_a                   28.0029(12)
_cell_length_b                   11.3685(5)
_cell_length_c                   30.7312(18)
_cell_angle_alpha                90
_cell_angle_beta                 116.030(2)
_cell_angle_gamma                90
_cell_volume                     8790.93
_exptl_crystal_colour            colorless
_exptl_crystal_description       Cubic
_cell_formula_units_Z            8
loop_
_atom_site_label
_atom_site_type_symbol
_atom_site_fract_x
_atom_site_fract_y
_atom_site_fract_z
C1 C 0.17399(15) 0.6629(3) 0.16724(12)
C2 C 0.14886(14) 0.7956(3) 0.13763(11)
C3 C 0.56124(14) 0.6414(3) 0.37122(12)
C4 C 0.56871(14) 0.6613(3) 0.43011(11)
C5 C 0.23338(14) 0.6437(3) 0.18997(11)
C6 C 0.25396(15) 0.5415(3) 0.17975(12)
H1 H 0.2308 0.4881 0.1576
C7 C 0.30724(15) 0.5174(3) 0.20134(12)
H2 H 0.3200 0.4480 0.1943
C8 C 0.34222(14) 0.5977(3) 0.23398(11)
C9 C 0.32263(15) 0.7029(3) 0.24341(12)
C10 C 0.26840(15) 0.7252(3) 0.22194(12)
H3 H 0.2555 0.7945 0.2289
C11 C 0.50489(14) 0.6302(3) 0.33210(12)
C12 C 0.48953(15) 0.5266(3) 0.30473(12)
H4 H 0.5147 0.4682 0.3097
C13 C 0.43776(14) 0.5096(3) 0.27047(12)
H5 H 0.4283 0.4413 0.2520
C14 C 0.40013(14) 0.5949(3) 0.26395(11)
C15 C 0.41512(15) 0.6992(3) 0.29081(12)
C16 C 0.46745(16) 0.7177(3) 0.32408(13)
H6 H 0.4774 0.7884 0.3409
C17 C 0.36740(15) 0.7764(3) 0.27912(15)
H7 H 0.3624 0.7927 0.3078
H8 H 0.3706 0.8501 0.2648
C18 C 0.18612(14) 0.8895(3) 0.13718(11)
C19 C 0.20978(14) 0.8857(3) 0.10604(13)
H9 H 0.2031 0.8224 0.0850
C20 C 0.24305(16) 0.9745(4) 0.10573(15)
H10 H 0.2579 0.9701 0.0840
C21 C 0.25514(16) 1.0703(3) 0.13674(15)
C22 C 0.23065(18) 1.0749(3) 0.16690(14)
H11 H 0.2370 1.1390 0.1875
C23 C 0.19714(17) 0.9874(3) 0.16749(13)
H12 H 0.1815 0.9934 0.1885
C24 C 0.52030(14) 0.6772(3) 0.43868(11)
C25 C 0.48856(16) 0.5843(3) 0.43850(15)
H13 H 0.4970 0.5085 0.4328
C26 C 0.44453(18) 0.6021(4) 0.4466(2)
H14 H 0.4237 0.5377 0.4460
C27 C 0.43025(18) 0.7118(4) 0.45565(19)
C28 C 0.46316(18) 0.8028(4) 0.45750(18)
H15 H 0.4555 0.8779 0.4647
C29 C 0.50694(17) 0.7871(3) 0.44914(15)
H16 H 0.5280 0.8515 0.4505
C30 C 0.2934(2) 1.1647(5) 0.1372(2)
H17 H 0.2900 1.2332 0.1545
H18 H 0.2849 1.1881 0.1043
C31 C 0.3521(3) 1.1163(8) 0.1627(3)
H19 H 0.3608 1.0940 0.1959
H20 H 0.3554 1.0473 0.1457
C32 C 0.3863(5) 1.2033(11) 0.1623(5)
H21 H 0.3889 1.2669 0.1842
H22 H 0.3754 1.2349 0.1300
C33 C 0.4394(5) 1.1348(14) 0.1798(6)
H23 H 0.4366 1.0619 0.1942
H24 H 0.4676 1.1811 0.2033
H25 H 0.4469 1.1192 0.1527
C34 C 0.3812(3) 0.7260(5) 0.4639(4)
H26 H 0.3511 0.7138 0.4326
H27 H 0.3813 0.6606 0.4842
C35 C 0.3701(4) 0.8203(9) 0.4825(4)
H28 H 0.3725 0.8878 0.4642
H29 H 0.3978 0.8290 0.5153
C36 C 0.3167(4) 0.8266(9) 0.4845(5)
H30 H 0.2883 0.8106 0.4526
H31 H 0.3154 0.7673 0.5066
C37 C 0.3097(4) 0.9323(11) 0.4991(5)
H32 H 0.3401 0.9523 0.5287
H33 H 0.2785 0.9315 0.5047
H34 H 0.3054 0.9894 0.4747
B1 B 0.09301(18) 0.8319(4) 0.14408(17)
H35 H 0.0814 0.9232 0.1465
B2 B 0.08877(18) 0.7722(4) 0.08900(16)
H36 H 0.0743 0.8241 0.0554
B3 B 0.0456(2) 0.7213(4) 0.1133(2)
H37 H 0.0027 0.7399 0.0954
B4 B 0.0818(2) 0.7173(4) 0.1775(2)
H38 H 0.0624 0.7336 0.2013
B5 B 0.14775(18) 0.7649(4) 0.19251(15)
H39 H 0.1722 0.8127 0.2261
B6 B 0.14136(18) 0.6677(3) 0.10434(14)
H40 H 0.1617 0.6523 0.0813
B7 B 0.07567(19) 0.6201(4) 0.08879(18)
H41 H 0.0523 0.5730 0.0547
B8 B 0.0713(2) 0.5849(4) 0.1433(2)
H42 H 0.0450 0.5148 0.1449
B9 B 0.1344(2) 0.6121(4) 0.19272(18)
H43 H 0.1496 0.5607 0.2265
B10 B 0.12956(18) 0.5524(4) 0.13760(16)
H44 H 0.1414 0.4612 0.1354
B11 B 0.62470(18) 0.7425(5) 0.46216(15)
H45 H 0.6288 0.8040 0.4912
B12 B 0.58336(18) 0.7751(4) 0.39974(15)
H46 H 0.5599 0.8565 0.3882
B13 B 0.6531(2) 0.7719(5) 0.42142(18)
H47 H 0.6759 0.8527 0.4242
B14 B 0.6790(2) 0.6556(5) 0.46521(19)
H48 H 0.7185 0.6602 0.4962
B15 B 0.62397(17) 0.5882(4) 0.46980(16)
H49 H 0.6275 0.5491 0.5038
B16 B 0.6123(2) 0.7089(5) 0.36469(18)
H50 H 0.6083 0.7480 0.3305
B17 B 0.6711(2) 0.6355(6) 0.40493(19)
H51 H 0.7057 0.6270 0.3971
B18 B 0.65225(19) 0.5205(5) 0.43426(17)
H52 H 0.6743 0.4371 0.4452
B19 B 0.58245(17) 0.5261(4) 0.41244(14)
H53 H 0.5582 0.4472 0.4089
B20 B 0.61172(18) 0.5551(5) 0.37282(17)
H54 H 0.6073 0.4935 0.3437
loop_
_geom_bond_atom_site_label_1
_geom_bond_atom_site_label_2
_geom_bond_site_symmetry_1
_geom_bond_site_symmetry_2
C1 C2 1_555 1_555
C2 C18 1_555 1_555
C3 C4 1_555 1_555
C4 C24 1_555 1_555
C5 C1 1_555 1_555
C6 C5 1_555 1_555
H1 C6 1_555 1_555
C7 C6 1_555 1_555
H2 C7 1_555 1_555
C8 C7 1_555 1_555
C9 C8 1_555 1_555
C10 C5 1_555 1_555
H3 C10 1_555 1_555
C11 C3 1_555 1_555
C12 C11 1_555 1_555
H4 C12 1_555 1_555
C13 C12 1_555 1_555
H5 C13 1_555 1_555
C14 C8 1_555 1_555
C15 C14 1_555 1_555
C16 C11 1_555 1_555
H6 C16 1_555 1_555
C17 C9 1_555 1_555
H7 C17 1_555 1_555
H8 C17 1_555 1_555
C18 C19 1_555 1_555
C19 H9 1_555 1_555
C20 C19 1_555 1_555
H10 C20 1_555 1_555
C21 C20 1_555 1_555
C22 C21 1_555 1_555
H11 C22 1_555 1_555
C23 C18 1_555 1_555
H12 C23 1_555 1_555
C24 C25 1_555 1_555
C25 H13 1_555 1_555
C26 C25 1_555 1_555
H14 C26 1_555 1_555
C27 C26 1_555 1_555
C28 C27 1_555 1_555
H15 C28 1_555 1_555
C29 C24 1_555 1_555
H16 C29 1_555 1_555
C30 C21 1_555 1_555
H17 C30 1_555 1_555
H18 C30 1_555 1_555
C31 C30 1_555 1_555
H19 C31 1_555 1_555
H20 C31 1_555 1_555
C32 C31 1_555 1_555
H21 C32 1_555 1_555
H22 C32 1_555 1_555
C33 C32 1_555 1_555
H23 C33 1_555 1_555
H24 C33 1_555 1_555
H25 C33 1_555 1_555
C34 C27 1_555 1_555
H26 C34 1_555 1_555
H27 C34 1_555 1_555
C35 C34 1_555 1_555
H28 C35 1_555 1_555
H29 C35 1_555 1_555
C36 C35 1_555 1_555
H30 C36 1_555 1_555
H31 C36 1_555 1_555
C37 C36 1_555 1_555
H32 C37 1_555 1_555
H33 C37 1_555 1_555
H34 C37 1_555 1_555
B1 C2 1_555 1_555
H35 B1 1_555 1_555
B2 C2 1_555 1_555
H36 B2 1_555 1_555
B3 B1 1_555 1_555
H37 B3 1_555 1_555
B4 B1 1_555 1_555
H38 B4 1_555 1_555
B5 C1 1_555 1_555
H39 B5 1_555 1_555
B6 C1 1_555 1_555
H40 B6 1_555 1_555
B7 B2 1_555 1_555
H41 B7 1_555 1_555
B8 B3 1_555 1_555
H42 B8 1_555 1_555
B9 C1 1_555 1_555
H43 B9 1_555 1_555
B10 C1 1_555 1_555
H44 B10 1_555 1_555
B11 C4 1_555 1_555
H45 B11 1_555 1_555
B12 C3 1_555 1_555
H46 B12 1_555 1_555
B13 B11 1_555 1_555
H47 B13 1_555 1_555
B14 B11 1_555 1_555
H48 B14 1_555 1_555
B15 C4 1_555 1_555
H49 B15 1_555 1_555
B16 C3 1_555 1_555
H50 B16 1_555 1_555
B17 B13 1_555 1_555
H51 B17 1_555 1_555
B18 B14 1_555 1_555
H52 B18 1_555 1_555
B19 C3 1_555 1_555
H53 B19 1_555 1_555
B20 C3 1_555 1_555
H54 B20 1_555 1_555
C2 B5 1_555 1_555
C2 B6 1_555 1_555
C4 B12 1_555 1_555
C4 B19 1_555 1_555
C9 C10 1_555 1_555
C13 C14 1_555 1_555
C15 C16 1_555 1_555
C15 C17 1_555 1_555
C22 C23 1_555 1_555
C28 C29 1_555 1_555
B1 B2 1_555 1_555
B1 B5 1_555 1_555
B2 B3 1_555 1_555
B2 B6 1_555 1_555
B3 B4 1_555 1_555
B3 B7 1_555 1_555
B4 B5 1_555 1_555
B4 B8 1_555 1_555
B4 B9 1_555 1_555
B5 B9 1_555 1_555
B6 B7 1_555 1_555
B6 B10 1_555 1_555
B7 B8 1_555 1_555
B7 B10 1_555 1_555
B8 B9 1_555 1_555
B8 B10 1_555 1_555
B9 B10 1_555 1_555
B11 B12 1_555 1_555
B11 B15 1_555 1_555
B12 B13 1_555 1_555
B12 B16 1_555 1_555
B13 B14 1_555 1_555
B13 B16 1_555 1_555
B14 B15 1_555 1_555
B14 B17 1_555 1_555
B15 B18 1_555 1_555
B15 B19 1_555 1_555
B16 B17 1_555 1_555
B16 B20 1_555 1_555
B17 B18 1_555 1_555
B17 B20 1_555 1_555
B18 B19 1_555 1_555
B18 B20 1_555 1_555
B19 B20 1_555 1_555

#END
