
#######################################################################
#
#                 Cambridge Crystallographic Data Centre
#                                CCDC 
#
#######################################################################
#
# If this CIF has been generated from an entry in the Cambridge 
# Structural Database, then it will include bibliographic, chemical, 
# crystal, experimental, refinement or atomic coordinate data resulting 
# from the CCDC's data processing and validation procedures.
#
#######################################################################

data_CAZWUW
_chemical_formula_moiety         'C20 H40 Cs1 O10 1+,C7 F13 1-'
_chemical_name_systematic        
'bis(15-Crown-5)-cesium 1,1,1,3,5,5,5-heptafluoro-2,4-bis(trifluoromethyl)pentenide'
_symmetry_cell_setting           triclinic
_symmetry_space_group_name_H-M   'P -1'
_symmetry_Int_Tables_number      2
_space_group_name_Hall           '-P 1'
loop_
_symmetry_equiv_pos_site_id
_symmetry_equiv_pos_as_xyz
1 x,y,z
2 -x,-y,-z
_cell_length_a                   8.8097(6)
_cell_length_b                   14.3371(10)
_cell_length_c                   14.4082(9)
_cell_angle_alpha                88.784(5)
_cell_angle_beta                 82.245(5)
_cell_angle_gamma                79.470(5)
_cell_volume                     1772.81
_exptl_crystal_colour            colorless
_exptl_crystal_description       plate
_chemical_melting_point          '123-125 deg.C'
_cell_formula_units_Z            2
loop_
_atom_site_label
_atom_site_type_symbol
_atom_site_fract_x
_atom_site_fract_y
_atom_site_fract_z
Cs1 Cs 1.058918(13) -0.305120(8) -0.214756(7)
O1 O 1.11019(16) -0.39143(10) -0.01382(9)
C1 C 1.2525(2) -0.38515(16) 0.01950(14)
H1 H 1.2713 -0.4311 0.0689
H2 H 1.2467 -0.3223 0.0450
C2 C 1.3834(2) -0.40448(16) -0.06053(15)
H3 H 1.4818 -0.4087 -0.0361
H4 H 1.3825 -0.4654 -0.0883
O2 O 1.37429(16) -0.33392(10) -0.13168(10)
C3 C 1.4313(2) -0.25175(16) -0.10870(16)
H5 H 1.5416 -0.2682 -0.1033
H6 H 1.3769 -0.2259 -0.0492
C4 C 1.4053(2) -0.17955(16) -0.18480(16)
H7 H 1.4568 -0.1271 -0.1745
H8 H 1.4518 -0.2082 -0.2448
O3 O 1.24384(16) -0.14422(10) -0.18780(10)
C5 C 1.1818(2) -0.06521(15) -0.12806(15)
H9 H 1.2219 -0.0097 -0.1527
H10 H 1.2120 -0.0781 -0.0661
C6 C 1.0078(2) -0.04738(14) -0.12243(15)
H11 H 0.9635 0.0138 -0.0935
H12 H 0.9772 -0.0477 -0.1846
O4 O 0.95409(16) -0.12176(11) -0.06713(10)
C7 C 0.7902(2) -0.11576(16) -0.05786(15)
H13 H 0.7573 -0.1223 -0.1186
H14 H 0.7377 -0.0549 -0.0312
C8 C 0.7509(2) -0.19509(16) 0.00580(14)
H15 H 0.7988 -0.1945 0.0625
H16 H 0.6390 -0.1871 0.0231
O5 O 0.80786(16) -0.28274(11) -0.04292(10)
C9 C 0.8327(2) -0.36328(16) 0.01673(15)
H17 H 0.8350 -0.4202 -0.0191
H18 H 0.7459 -0.3584 0.0667
C10 C 0.9818(2) -0.37262(17) 0.05912(14)
H19 H 0.9844 -0.3144 0.0915
H20 H 0.9880 -0.4240 0.1041
O6 O 0.89747(18) -0.46860(11) -0.26860(11)
C11 C 0.9661(3) -0.53637(16) -0.34007(18)
H21 H 0.9117 -0.5243 -0.3946
H22 H 0.9580 -0.5998 -0.3177
C12 C 1.1341(3) -0.52887(16) -0.36601(18)
H23 H 1.1855 -0.5328 -0.3102
H24 H 1.1864 -0.5805 -0.4077
O7 O 1.14144(18) -0.44018(11) -0.41128(11)
C13 C 1.2967(3) -0.42936(19) -0.44387(18)
H25 H 1.3406 -0.4737 -0.4946
H26 H 1.3604 -0.4425 -0.3936
C14 C 1.2955(3) -0.3300(2) -0.47752(16)
H27 H 1.3960 -0.3247 -0.5120
H28 H 1.2168 -0.3126 -0.5189
O8 O 1.26236(18) -0.26885(12) -0.39831(10)
C15 C 1.2267(3) -0.17033(18) -0.42073(16)
H29 H 1.2944 -0.1579 -0.4767
H30 H 1.2479 -0.1333 -0.3700
C16 C 1.0602(3) -0.13881(19) -0.43667(16)
H31 H 1.0444 -0.0739 -0.4588
H32 H 1.0348 -0.1787 -0.4837
O9 O 0.96248(18) -0.14554(11) -0.35064(10)
C17 C 0.8008(3) -0.12416(15) -0.35931(16)
H33 H 0.7832 -0.0740 -0.4050
H34 H 0.7432 -0.1009 -0.2996
C18 C 0.7389(3) -0.20889(16) -0.38903(15)
H35 H 0.6308 -0.1899 -0.3989
H36 H 0.7985 -0.2348 -0.4473
O10 O 0.75149(17) -0.27868(11) -0.31725(10)
C19 C 0.6989(3) -0.36181(17) -0.34103(18)
H37 H 0.7505 -0.3847 -0.4022
H38 H 0.5875 -0.3477 -0.3434
C20 C 0.7352(3) -0.43655(17) -0.26819(18)
H39 H 0.6903 -0.4109 -0.2068
H40 H 0.6869 -0.4902 -0.2793
C21 C 0.8606(2) -0.15295(15) 0.30140(14)
F1 F 0.92900(16) -0.21775(10) 0.36032(10)
F2 F 0.93684(14) -0.17753(11) 0.21547(8)
F3 F 0.90066(15) -0.07010(10) 0.32231(10)
C22 C 0.5935(2) -0.06973(14) 0.36803(14)
F4 F 0.58271(15) 0.01866(9) 0.33143(9)
F5 F 0.44704(14) -0.08300(9) 0.39120(9)
F6 F 0.65136(16) -0.06333(10) 0.44957(9)
C23 C 0.6904(2) -0.14563(14) 0.30739(13)
C24 C 0.6290(2) -0.21469(14) 0.26792(13)
F7 F 0.73576(14) -0.29735(8) 0.24907(9)
C25 C 0.4851(2) -0.21955(15) 0.24298(14)
C26 C 0.4368(2) -0.31231(16) 0.23951(15)
F8 F 0.48866(16) -0.36269(10) 0.15864(10)
F9 F 0.28102(15) -0.30491(11) 0.24858(11)
F10 F 0.48575(18) -0.37220(10) 0.30728(10)
C27 C 0.3785(3) -0.13741(17) 0.21086(16)
F11 F 0.44571(16) -0.06082(10) 0.19348(10)
F12 F 0.32735(17) -0.15650(11) 0.12964(10)
F13 F 0.24544(16) -0.10759(11) 0.26932(11)
loop_
_geom_bond_atom_site_label_1
_geom_bond_atom_site_label_2
_geom_bond_site_symmetry_1
_geom_bond_site_symmetry_2
Cs1 O1 1_555 1_555
O1 C1 1_555 1_555
C1 H1 1_555 1_555
H2 C1 1_555 1_555
C2 C1 1_555 1_555
H3 C2 1_555 1_555
H4 C2 1_555 1_555
O2 Cs1 1_555 1_555
C3 O2 1_555 1_555
H5 C3 1_555 1_555
H6 C3 1_555 1_555
C4 C3 1_555 1_555
H7 C4 1_555 1_555
H8 C4 1_555 1_555
O3 Cs1 1_555 1_555
C5 O3 1_555 1_555
H9 C5 1_555 1_555
H10 C5 1_555 1_555
C6 C5 1_555 1_555
H11 C6 1_555 1_555
H12 C6 1_555 1_555
O4 Cs1 1_555 1_555
C7 O4 1_555 1_555
H13 C7 1_555 1_555
H14 C7 1_555 1_555
C8 C7 1_555 1_555
H15 C8 1_555 1_555
H16 C8 1_555 1_555
O5 Cs1 1_555 1_555
C9 O5 1_555 1_555
H17 C9 1_555 1_555
H18 C9 1_555 1_555
C10 O1 1_555 1_555
H19 C10 1_555 1_555
H20 C10 1_555 1_555
O6 Cs1 1_555 1_555
C11 O6 1_555 1_555
H21 C11 1_555 1_555
H22 C11 1_555 1_555
C12 C11 1_555 1_555
H23 C12 1_555 1_555
H24 C12 1_555 1_555
O7 Cs1 1_555 1_555
C13 O7 1_555 1_555
H25 C13 1_555 1_555
H26 C13 1_555 1_555
C14 C13 1_555 1_555
H27 C14 1_555 1_555
H28 C14 1_555 1_555
O8 Cs1 1_555 1_555
C15 O8 1_555 1_555
H29 C15 1_555 1_555
H30 C15 1_555 1_555
C16 C15 1_555 1_555
H31 C16 1_555 1_555
H32 C16 1_555 1_555
O9 Cs1 1_555 1_555
C17 O9 1_555 1_555
H33 C17 1_555 1_555
H34 C17 1_555 1_555
C18 C17 1_555 1_555
H35 C18 1_555 1_555
H36 C18 1_555 1_555
O10 Cs1 1_555 1_555
C19 O10 1_555 1_555
H37 C19 1_555 1_555
H38 C19 1_555 1_555
C20 O6 1_555 1_555
H39 C20 1_555 1_555
H40 C20 1_555 1_555
C21 F1 1_555 1_555
F2 C21 1_555 1_555
F3 C21 1_555 1_555
C22 F4 1_555 1_555
F5 C22 1_555 1_555
F6 C22 1_555 1_555
C23 C21 1_555 1_555
C24 C23 1_555 1_555
F7 C24 1_555 1_555
C25 C24 1_555 1_555
C26 C25 1_555 1_555
F8 C26 1_555 1_555
F9 C26 1_555 1_555
F10 C26 1_555 1_555
C27 C25 1_555 1_555
F11 C27 1_555 1_555
F12 C27 1_555 1_555
F13 C27 1_555 1_555
C2 O2 1_555 1_555
C4 O3 1_555 1_555
C6 O4 1_555 1_555
C8 O5 1_555 1_555
C9 C10 1_555 1_555
C12 O7 1_555 1_555
C14 O8 1_555 1_555
C16 O9 1_555 1_555
C18 O10 1_555 1_555
C19 C20 1_555 1_555
C22 C23 1_555 1_555

#END
