
#######################################################################
#
#                 Cambridge Crystallographic Data Centre
#                                CCDC 
#
#######################################################################
#
# If this CIF has been generated from an entry in the Cambridge 
# Structural Database, then it will include bibliographic, chemical, 
# crystal, experimental, refinement or atomic coordinate data resulting 
# from the CCDC's data processing and validation procedures.
#
#######################################################################

data_CAZYOS
_chemical_formula_moiety         'C45 H28 F6 N2 S2,C1 H4 O1'
_chemical_name_systematic        
"2,2'-(4,4,5,5,6,6-Hexafluoro-9a,9b-dimethyl-5,6,9a,9b-tetrahydro-4H-thieno(2',3':6,7)indeno(5,4-b)thiene-2,8-diyl)bis(4-phenylquinoline) methanol solvate"
_symmetry_cell_setting           triclinic
_symmetry_space_group_name_H-M   'P -1'
_symmetry_Int_Tables_number      2
_space_group_name_Hall           '-P 1'
loop_
_symmetry_equiv_pos_site_id
_symmetry_equiv_pos_as_xyz
1 x,y,z
2 -x,-y,-z
_cell_length_a                   11.5153(8)
_cell_length_b                   13.6718(10)
_cell_length_c                   15.2276(11)
_cell_angle_alpha                109.7560(10)
_cell_angle_beta                 105.9810(10)
_cell_angle_gamma                102.121(2)
_cell_volume                     2043.77
_exptl_crystal_colour            violet
_exptl_crystal_description       plate
_cell_formula_units_Z            2
loop_
_atom_site_label
_atom_site_type_symbol
_atom_site_fract_x
_atom_site_fract_y
_atom_site_fract_z
S1 S 0.62511(13) 0.06850(12) 0.44698(12)
S2 S 0.31468(13) 0.05171(12) 0.28842(12)
F1 F 0.8438(4) 0.4443(3) 0.3910(4)
F2 F 0.8591(4) 0.5094(3) 0.5442(3)
F3 F 0.7497(4) 0.6008(3) 0.3950(4)
F4 F 0.6826(4) 0.5926(3) 0.5096(4)
F5 F 0.5549(4) 0.4350(3) 0.2544(3)
F6 F 0.4695(4) 0.4925(3) 0.3624(4)
N1 N 0.8403(4) 0.0154(3) 0.5451(3)
N2 N 0.0507(4) -0.0222(4) 0.1464(4)
C1 C 0.9294(5) -0.0230(4) 0.5896(4)
C2 C 0.8882(6) -0.1363(4) 0.5700(4)
H1 H 0.8034 -0.1813 0.5273
C3 C 0.9710(6) -0.1799(5) 0.6128(5)
H2 H 0.9435 -0.2551 0.5994
C4 C 1.0975(6) -0.1126(5) 0.6771(5)
H3 H 1.1534 -0.1438 0.7067
C5 C 1.1419(5) -0.0038(5) 0.6978(4)
H4 H 1.2271 0.0394 0.7412
C6 C 1.0584(5) 0.0440(4) 0.6533(4)
C7 C 1.0977(5) 0.1578(4) 0.6700(4)
C8 C 1.0060(5) 0.1939(4) 0.6246(4)
H5 H 1.0279 0.2681 0.6344
C9 C 0.8797(5) 0.1217(4) 0.5636(4)
C10 C 1.2307(5) 0.2336(4) 0.7292(4)
C11 C 1.3317(5) 0.2078(5) 0.7053(5)
H6 H 1.3159 0.1400 0.6524
C12 C 1.4552(6) 0.2812(6) 0.7589(5)
H7 H 1.5232 0.2633 0.7425
C13 C 1.4789(7) 0.3800(6) 0.8359(6)
H8 H 1.5633 0.4296 0.8723
C14 C 1.3811(7) 0.4070(6) 0.8601(5)
H9 H 1.3980 0.4753 0.9128
C15 C 1.2567(6) 0.3342(5) 0.8073(4)
H10 H 1.1895 0.3530 0.8245
C16 C 0.7825(5) 0.1588(4) 0.5137(5)
C17 C 0.8015(5) 0.2587(5) 0.5101(5)
H11 H 0.8820 0.3148 0.5420
C18 C 0.6885(5) 0.2709(4) 0.4535(5)
C19 C 0.6748(5) 0.3536(4) 0.4256(4)
C20 C 0.7717(6) 0.4586(5) 0.4495(5)
C21 C 0.6934(6) 0.5292(5) 0.4233(5)
C22 C 0.5619(6) 0.4500(5) 0.3497(5)
C23 C 0.5515(5) 0.3465(4) 0.3630(4)
C24 C 0.4498(5) 0.2539(5) 0.3216(5)
C25 C 0.3202(5) 0.2318(5) 0.2616(5)
H12 H 0.2928 0.2831 0.2405
C26 C 0.2394(5) 0.1302(5) 0.2372(5)
C27 C 0.4782(10) 0.1470(10) 0.3243(12)
C28 C 0.5672(7) 0.1798(8) 0.4333(13)
C31 C 0.1033(5) 0.0839(5) 0.1760(4)
C32 C 0.0329(5) 0.1510(5) 0.1519(5)
H13 H 0.0759 0.2267 0.1748
C33 C -0.0946(5) 0.1088(5) 0.0969(4)
C34 C -0.1552(6) -0.0058(5) 0.0638(4)
C35 C -0.2884(6) -0.0622(6) 0.0119(5)
H14 H -0.3421 -0.0220 -0.0027
C36 C -0.3418(7) -0.1722(7) -0.0176(6)
H15 H -0.4310 -0.2065 -0.0517
C37 C -0.2655(7) -0.2343(6) 0.0023(6)
H16 H -0.3021 -0.3110 -0.0208
C38 C -0.1333(7) -0.1818(6) 0.0573(5)
H17 H -0.0815 -0.2231 0.0727
C39 C -0.0779(6) -0.0677(5) 0.0896(4)
C40 C -0.1690(6) 0.1799(5) 0.0745(5)
C41 C -0.2352(7) 0.1597(6) -0.0247(5)
H18 H -0.2302 0.1024 -0.0776
C42 C -0.3078(8) 0.2226(7) -0.0461(7)
H19 H -0.3535 0.2070 -0.1135
C43 C -0.3139(9) 0.3059(9) 0.0282(8)
H20 H -0.3652 0.3475 0.0125
C44 C -0.2453(9) 0.3315(7) 0.1282(7)
H21 H -0.2485 0.3912 0.1801
C45 C -0.1723(7) 0.2685(6) 0.1514(6)
H22 H -0.1251 0.2858 0.2189
C46 C 0.5435(7) 0.1024(6) 0.2500(5)
H23 H 0.4867 0.0824 0.1818
H24 H 0.5617 0.0379 0.2551
H25 H 0.6229 0.1590 0.2668
C47 C 0.4953(7) 0.2193(6) 0.5060(5)
H26 H 0.5505 0.2397 0.5749
H27 H 0.4174 0.1599 0.4872
H28 H 0.4738 0.2825 0.5008
C48 C 0.060(3) 0.565(3) 0.200(3)
O1 O 0.173(4) 0.541(3) 0.250(2)
C29? C 0.457(3) 0.176(2) 0.372(3)
C30? C 0.581(2) 0.155(2) 0.370(3)
O2? O 0.168(5) 0.630(3) 0.187(4)
C49? C 0.150(3) 0.484(3) 0.099(2)
O3? O 0.170(2) 0.458(2) 0.181(2)
loop_
_geom_bond_atom_site_label_1
_geom_bond_atom_site_label_2
_geom_bond_site_symmetry_1
_geom_bond_site_symmetry_2
S1 C16 1_555 1_555
S2 C26 1_555 1_555
F1 C20 1_555 1_555
F2 C20 1_555 1_555
F3 C21 1_555 1_555
F4 C21 1_555 1_555
F5 C22 1_555 1_555
F6 C22 1_555 1_555
N1 C1 1_555 1_555
N2 C31 1_555 1_555
C1 C2 1_555 1_555
C2 H1 1_555 1_555
C3 C2 1_555 1_555
H2 C3 1_555 1_555
C4 C3 1_555 1_555
H3 C4 1_555 1_555
C5 C4 1_555 1_555
H4 C5 1_555 1_555
C6 C1 1_555 1_555
C7 C6 1_555 1_555
C8 C7 1_555 1_555
H5 C8 1_555 1_555
C9 N1 1_555 1_555
C10 C7 1_555 1_555
C11 C10 1_555 1_555
H6 C11 1_555 1_555
C12 C11 1_555 1_555
H7 C12 1_555 1_555
C13 C12 1_555 1_555
H8 C13 1_555 1_555
C14 C13 1_555 1_555
H9 C14 1_555 1_555
C15 C10 1_555 1_555
H10 C15 1_555 1_555
C16 C9 1_555 1_555
C17 C16 1_555 1_555
H11 C17 1_555 1_555
C18 C17 1_555 1_555
C19 C18 1_555 1_555
C20 C19 1_555 1_555
C21 C20 1_555 1_555
C22 C21 1_555 1_555
C23 C19 1_555 1_555
C24 C23 1_555 1_555
C25 C24 1_555 1_555
H12 C25 1_555 1_555
C26 C25 1_555 1_555
C27 S2 1_555 1_555
C28 S1 1_555 1_555
C31 C26 1_555 1_555
C32 C31 1_555 1_555
H13 C32 1_555 1_555
C33 C32 1_555 1_555
C34 C33 1_555 1_555
C35 C34 1_555 1_555
H14 C35 1_555 1_555
C36 C35 1_555 1_555
H15 C36 1_555 1_555
C37 C36 1_555 1_555
H16 C37 1_555 1_555
C38 C37 1_555 1_555
H17 C38 1_555 1_555
C39 N2 1_555 1_555
C40 C33 1_555 1_555
C41 C40 1_555 1_555
H18 C41 1_555 1_555
C42 C41 1_555 1_555
H19 C42 1_555 1_555
C43 C42 1_555 1_555
H20 C43 1_555 1_555
C44 C43 1_555 1_555
H21 C44 1_555 1_555
C45 C40 1_555 1_555
H22 C45 1_555 1_555
C46 C27 1_555 1_555
H23 C46 1_555 1_555
H24 C46 1_555 1_555
H25 C46 1_555 1_555
C47 C28 1_555 1_555
H26 C47 1_555 1_555
H27 C47 1_555 1_555
H28 C47 1_555 1_555
C48 O1 1_555 1_555
C5 C6 1_555 1_555
C8 C9 1_555 1_555
C14 C15 1_555 1_555
C18 C28 1_555 1_555
C22 C23 1_555 1_555
C24 C27 1_555 1_555
C27 C28 1_555 1_555
C34 C39 1_555 1_555
C38 C39 1_555 1_555
C44 C45 1_555 1_555

#END
