
#######################################################################
#
#                 Cambridge Crystallographic Data Centre
#                                CCDC 
#
#######################################################################
#
# If this CIF has been generated from an entry in the Cambridge 
# Structural Database, then it will include bibliographic, chemical, 
# crystal, experimental, refinement or atomic coordinate data resulting 
# from the CCDC's data processing and validation procedures.
#
#######################################################################

data_CEBKEB
_chemical_formula_moiety         'C28 H25 F1 N2 O5'
_chemical_name_systematic        
1-(4-Fluorophenyl)-6,7-dimethoxy-3-(3,4,5-trimethoxyphenyl)-1H-benzo[g]indazole
_symmetry_cell_setting           triclinic
_symmetry_space_group_name_H-M   'P -1'
_symmetry_Int_Tables_number      2
_space_group_name_Hall           '-P 1'
loop_
_symmetry_equiv_pos_site_id
_symmetry_equiv_pos_as_xyz
1 x,y,z
2 -x,-y,-z
_cell_length_a                   9.6671(4)
_cell_length_b                   11.4385(5)
_cell_length_c                   11.6125(5)
_cell_angle_alpha                75.8690(10)
_cell_angle_beta                 73.6910(10)
_cell_angle_gamma                85.7750(10)
_cell_volume                     1195.1
_exptl_crystal_colour            orange
_cell_formula_units_Z            2
loop_
_atom_site_label
_atom_site_type_symbol
_atom_site_fract_x
_atom_site_fract_y
_atom_site_fract_z
F1 F -0.01720(16) 0.09918(11) 1.08186(11)
O1 O 0.05258(14) 0.34874(11) 0.29374(11)
O2 O 0.66749(13) 1.05077(9) 0.71016(11)
O3 O 0.22857(12) 0.54084(10) 0.20979(9)
O4 O 0.74067(13) 0.98565(11) 0.49175(11)
O5 O 0.49496(15) 0.91547(11) 0.90992(11)
N1 N 0.34300(14) 0.56309(11) 0.77280(11)
N2 N 0.27489(13) 0.48357(10) 0.73655(11)
C1 C -0.0325(2) 0.24388(16) 0.33466(19)
H1 H 0.0239 0.1758 0.3623
H2 H -0.0654 0.2311 0.2680
H3 H -0.1141 0.2534 0.4016
C2 C 0.10922(16) 0.38148(14) 0.37696(14)
C3 C 0.07522(17) 0.32514(14) 0.50212(14)
H4 H 0.0127 0.2599 0.5326
C4 C 0.13278(16) 0.36477(13) 0.58074(14)
H5 H 0.1090 0.3258 0.6639
C5 C 0.22705(14) 0.46320(12) 0.53802(12)
C6 C 0.28900(15) 0.51510(12) 0.61264(12)
C7 C 0.37246(15) 0.61917(12) 0.56649(13)
C8 C 0.40211(15) 0.64516(12) 0.67090(13)
C9 C 0.47828(16) 0.74789(13) 0.68000(13)
C10 C 0.57712(16) 0.81453(13) 0.57817(14)
H6 H 0.5991 0.7923 0.5031
C11 C 0.64364(17) 0.91433(13) 0.58747(15)
C12 C 0.61322(17) 0.94657(13) 0.70021(15)
C13 C 0.8123(2) 1.04542(19) 0.7126(2)
H7 H 0.8254 0.9795 0.7780
H8 H 0.8376 1.1195 0.7263
H9 H 0.8729 1.0336 0.6352
C14 C 0.20172(16) 0.47867(13) 0.33145(13)
C15 C 0.3194(2) 0.4797(2) 0.12295(17)
H10 H 0.4156 0.4752 0.1317
H11 H 0.3200 0.5230 0.0408
H12 H 0.2837 0.3997 0.1379
C16 C 0.26065(15) 0.52281(12) 0.41050(13)
C17 C 0.39908(16) 0.67749(13) 0.43951(13)
H13 H 0.4522 0.7483 0.4078
C18 C 0.34675(16) 0.62940(13) 0.36528(13)
H14 H 0.3674 0.6668 0.2818
C19 C 0.20073(16) 0.38386(13) 0.82824(12)
C20 C 0.2674(2) 0.27350(16) 0.84753(18)
H15 H 0.3621 0.2639 0.8029
C21 C 0.1933(3) 0.17666(17) 0.9336(2)
H16 H 0.2368 0.1011 0.9471
C22 C 0.0562(2) 0.19416(17) 0.99767(16)
C23 C -0.0119(2) 0.30153(19) 0.98048(17)
H17 H -0.1064 0.3103 1.0259
C24 C 0.06171(18) 0.39862(16) 0.89374(16)
H18 H 0.0167 0.4735 0.8802
C25 C 0.44883(17) 0.77965(13) 0.79292(14)
H19 H 0.3830 0.7352 0.8616
C26 C 0.51745(18) 0.87735(13) 0.80315(14)
C27 C 0.7540(2) 0.97211(17) 0.37120(16)
H20 H 0.7953 0.8946 0.3632
H21 H 0.8152 1.0342 0.3121
H22 H 0.6605 0.9784 0.3565
C28 C 0.4086(3) 0.84274(19) 1.01886(17)
H23 H 0.3119 0.8418 1.0124
H24 H 0.4084 0.8748 1.0880
H25 H 0.4467 0.7621 1.0304
loop_
_geom_bond_atom_site_label_1
_geom_bond_atom_site_label_2
_geom_bond_site_symmetry_1
_geom_bond_site_symmetry_2
F1 C22 1_555 1_555
O1 C1 1_555 1_555
O2 C12 1_555 1_555
O3 C14 1_555 1_555
O4 C11 1_555 1_555
O5 C26 1_555 1_555
N1 N2 1_555 1_555
N2 C6 1_555 1_555
C1 H1 1_555 1_555
H2 C1 1_555 1_555
H3 C1 1_555 1_555
C2 O1 1_555 1_555
C3 C2 1_555 1_555
H4 C3 1_555 1_555
C4 C3 1_555 1_555
H5 C4 1_555 1_555
C5 C4 1_555 1_555
C6 C5 1_555 1_555
C7 C6 1_555 1_555
C8 N1 1_555 1_555
C9 C8 1_555 1_555
C10 C9 1_555 1_555
H6 C10 1_555 1_555
C11 C10 1_555 1_555
C12 C11 1_555 1_555
C13 O2 1_555 1_555
H7 C13 1_555 1_555
H8 C13 1_555 1_555
H9 C13 1_555 1_555
C14 C2 1_555 1_555
C15 O3 1_555 1_555
H10 C15 1_555 1_555
H11 C15 1_555 1_555
H12 C15 1_555 1_555
C16 C5 1_555 1_555
C17 C7 1_555 1_555
H13 C17 1_555 1_555
C18 C16 1_555 1_555
H14 C18 1_555 1_555
C19 N2 1_555 1_555
C20 C19 1_555 1_555
H15 C20 1_555 1_555
C21 C20 1_555 1_555
H16 C21 1_555 1_555
C22 C21 1_555 1_555
C23 C22 1_555 1_555
H17 C23 1_555 1_555
C24 C19 1_555 1_555
H18 C24 1_555 1_555
C25 C9 1_555 1_555
H19 C25 1_555 1_555
C26 C12 1_555 1_555
C27 O4 1_555 1_555
H20 C27 1_555 1_555
H21 C27 1_555 1_555
H22 C27 1_555 1_555
C28 O5 1_555 1_555
H23 C28 1_555 1_555
H24 C28 1_555 1_555
H25 C28 1_555 1_555
C7 C8 1_555 1_555
C14 C16 1_555 1_555
C17 C18 1_555 1_555
C23 C24 1_555 1_555
C25 C26 1_555 1_555

#END
