
#######################################################################
#
#                 Cambridge Crystallographic Data Centre
#                                CCDC 
#
#######################################################################
#
# If this CIF has been generated from an entry in the Cambridge 
# Structural Database, then it will include bibliographic, chemical, 
# crystal, experimental, refinement or atomic coordinate data resulting 
# from the CCDC's data processing and validation procedures.
#
#######################################################################

data_CEBVOX
_chemical_formula_moiety         'C19 H21 N3'
_chemical_name_systematic        
2-[5-methyl-2-(pyrimidin-2-yl)hex-3-en-3-yl]-1H-indole
_symmetry_cell_setting           monoclinic
_symmetry_space_group_name_H-M   'P 21/c'
_symmetry_Int_Tables_number      14
_space_group_name_Hall           '-P 2ybc'
loop_
_symmetry_equiv_pos_site_id
_symmetry_equiv_pos_as_xyz
1 x,y,z
2 -x,1/2+y,1/2-z
3 -x,-y,-z
4 x,1/2-y,1/2+z
_cell_length_a                   9.54132(16)
_cell_length_b                   16.8603(3)
_cell_length_c                   10.01850(16)
_cell_angle_alpha                90
_cell_angle_beta                 97.2667(16)
_cell_angle_gamma                90
_cell_volume                     1598.73
_exptl_crystal_colour            red
_exptl_crystal_description       block
_cell_formula_units_Z            4
loop_
_atom_site_label
_atom_site_type_symbol
_atom_site_fract_x
_atom_site_fract_y
_atom_site_fract_z
N1 N 0.07991(10) 0.11415(6) 0.58768(10)
N2 N -0.40456(10) 0.05494(6) 0.70152(10)
N3 N -0.25864(10) -0.04116(6) 0.61235(10)
C1 C -0.08972(12) 0.15871(7) 0.70382(12)
C2 C -0.06452(12) 0.12237(7) 0.58625(12)
C3 C 0.14807(12) 0.14586(7) 0.70410(12)
C4 C -0.32628(12) 0.02896(7) 0.60901(12)
C5 C 0.08796(14) 0.21206(7) 0.90433(12)
C6 C -0.27058(13) -0.08747(8) 0.71848(13)
C7 C 0.29256(12) 0.15127(7) 0.74831(12)
C8 C 0.04397(12) 0.17527(7) 0.78014(12)
C9 C 0.33214(13) 0.18815(7) 0.87031(13)
C10 C -0.31500(12) 0.08055(7) 0.48703(12)
C11 C -0.19604(13) 0.06923(8) 0.21321(12)
C12 C -0.09316(14) 0.03237(8) 0.12607(13)
C13 C -0.11718(12) 0.09486(7) 0.34639(12)
C14 C 0.23067(14) 0.21844(7) 0.94742(13)
C15 C -0.34770(13) -0.06565(8) 0.82036(13)
C16 C -0.41374(13) 0.00682(8) 0.80644(13)
C17 C -0.16187(12) 0.09752(7) 0.46743(12)
C18 C -0.40205(13) 0.15707(8) 0.48690(14)
C19 C -0.27305(15) 0.13933(9) 0.13850(14)
H1 H 0.02050(14) 0.23220(7) 0.95771(12)
H2 H 0.26112(14) 0.24376(7) 1.03077(13)
H3 H 0.42965(13) 0.19319(7) 0.90286(13)
H4 H 0.36084(12) 0.13043(7) 0.69654(12)
H5 H 0.12162(10) 0.09195(6) 0.52365(10)
H6 H -0.17980(12) 0.17066(7) 0.72965(12)
H7 H -0.22417(13) -0.13743(8) 0.72415(13)
H8 H -0.35649(12) 0.04926(7) 0.40684(12)
H9 H -0.26753(13) 0.02834(8) 0.23039(12)
H10 H -0.0280(7) 0.07318(14) 0.1013(8)
H11 H -0.0394(7) -0.0099(4) 0.1765(4)
H12 H -0.14601(16) 0.0101(5) 0.0444(5)
H13 H -0.02241(12) 0.11144(7) 0.34376(12)
H14 H -0.35466(13) -0.09888(8) 0.89581(13)
H15 H -0.46837(13) 0.02355(8) 0.87426(13)
H16 H -0.50184(19) 0.14370(8) 0.4881(10)
H17 H -0.3684(7) 0.1886(3) 0.5668(5)
H18 H -0.3915(8) 0.1878(3) 0.4058(5)
H19 H -0.2047(2) 0.1811(3) 0.1254(9)
H20 H -0.3193(9) 0.12140(16) 0.0508(5)
H21 H -0.3442(8) 0.1602(4) 0.1917(5)
loop_
_geom_bond_atom_site_label_1
_geom_bond_atom_site_label_2
_geom_bond_site_symmetry_1
_geom_bond_site_symmetry_2
N1 C2 1_555 1_555
N2 C4 1_555 1_555
N3 C4 1_555 1_555
C1 C2 1_555 1_555
C2 C17 1_555 1_555
C3 N1 1_555 1_555
C4 C10 1_555 1_555
C5 C8 1_555 1_555
C6 N3 1_555 1_555
C7 C3 1_555 1_555
C8 C1 1_555 1_555
C9 C7 1_555 1_555
C10 C17 1_555 1_555
C11 C12 1_555 1_555
C12 H10 1_555 1_555
C13 C11 1_555 1_555
C14 C5 1_555 1_555
C15 C6 1_555 1_555
C16 N2 1_555 1_555
C17 C13 1_555 1_555
C18 C10 1_555 1_555
C19 C11 1_555 1_555
H1 C5 1_555 1_555
H2 C14 1_555 1_555
H3 C9 1_555 1_555
H4 C7 1_555 1_555
H5 N1 1_555 1_555
H6 C1 1_555 1_555
H7 C6 1_555 1_555
H8 C10 1_555 1_555
H9 C11 1_555 1_555
H11 C12 1_555 1_555
H12 C12 1_555 1_555
H13 C13 1_555 1_555
H14 C15 1_555 1_555
H15 C16 1_555 1_555
H16 C18 1_555 1_555
H17 C18 1_555 1_555
H18 C18 1_555 1_555
H19 C19 1_555 1_555
H20 C19 1_555 1_555
H21 C19 1_555 1_555
C3 C8 1_555 1_555
C9 C14 1_555 1_555
C15 C16 1_555 1_555

#END
