
#######################################################################
#
#                 Cambridge Crystallographic Data Centre
#                                CCDC 
#
#######################################################################
#
# If this CIF has been generated from an entry in the Cambridge 
# Structural Database, then it will include bibliographic, chemical, 
# crystal, experimental, refinement or atomic coordinate data resulting 
# from the CCDC's data processing and validation procedures.
#
#######################################################################

data_CECLAX
_chemical_name_common            'Levoglucosenone trimer acetone solvate'
_chemical_formula_moiety         'C18 H18 O9,0.5(C3 H6 O1)'
_chemical_name_systematic        
'Cyclo-tris(1,6-anhydro-3,4-dideoxy-\b-D-glycero-hex-3-enopyranos-2-ulose) acetone solvate'
_symmetry_cell_setting           orthorhombic
_symmetry_space_group_name_H-M   'P 21 21 21'
_symmetry_Int_Tables_number      19
_space_group_name_Hall           'P 2ac 2ab'
loop_
_symmetry_equiv_pos_site_id
_symmetry_equiv_pos_as_xyz
1 x,y,z
2 1/2+x,1/2-y,-z
3 -x,1/2+y,1/2-z
4 1/2-x,-y,1/2+z
_cell_length_a                   7.9220(7)
_cell_length_b                   18.7435(15)
_cell_length_c                   23.8302(18)
_cell_angle_alpha                90
_cell_angle_beta                 90
_cell_angle_gamma                90
_cell_volume                     3538.45
_exptl_crystal_colour            colorless
_cell_formula_units_Z            8
loop_
_atom_site_label
_atom_site_type_symbol
_atom_site_fract_x
_atom_site_fract_y
_atom_site_fract_z
C19 C 0.63120 0.49710 0.25170
C20 C 0.76010 0.47880 0.29720
C21 C 0.74490 0.40310 0.31890
C22 C 0.55630 0.38570 0.32660
C23 C 0.44970 0.41450 0.27650
C24 C 0.36800 0.48700 0.28910
O10 O 0.50010 0.53750 0.27690
O11 O 0.85820 0.52240 0.31500
O12 O 0.55910 0.43420 0.23080
C25 C 1.09080 0.32910 0.44080
C26 C 0.91110 0.29990 0.44430
C27 C 0.81440 0.30830 0.38970
C28 C 0.83860 0.38800 0.37350
C29 C 1.02990 0.40570 0.37320
C30 C 1.07920 0.45040 0.42320
O13 O 1.08940 0.39810 0.46740
O14 O 0.85400 0.27700 0.48770
O15 O 1.12960 0.34250 0.38370
C31 C 0.57760 0.17670 0.30830
C32 C 0.56760 0.25550 0.29130
C33 C 0.53030 0.30580 0.33950
C34 C 0.63070 0.28310 0.39260
C35 C 0.62440 0.20130 0.39820
C36 C 0.44500 0.17110 0.39370
O16 O 0.42480 0.15610 0.33400
O17 O 0.58470 0.27320 0.24320
O18 O 0.70470 0.17010 0.34920
H19 H 0.68000 0.52500 0.22300
H20 H 0.78100 0.37700 0.29200
H21 H 0.51400 0.41300 0.36700
H22 H 0.36100 0.38100 0.26200
H23 H 0.32400 0.49000 0.32800
H24 H 0.26300 0.49900 0.26500
H25 H 1.18800 0.29400 0.46300
H26 H 0.87400 0.28100 0.36200
H27 H 0.78500 0.41700 0.40200
H28 H 1.07100 0.42600 0.33600
H29 H 0.98700 0.49000 0.43100
H30 H 1.19100 0.46900 0.41800
H31 H 0.60600 0.14100 0.27600
H32 H 0.39900 0.29900 0.35000
H33 H 0.56700 0.30300 0.42700
H34 H 0.68700 0.18300 0.43800
H35 H 0.35400 0.20800 0.40700
H36 H 0.42500 0.12300 0.41400
C1 C -0.05850 0.29710 0.18980
C2 C 0.07280 0.34720 0.16460
C3 C 0.19710 0.31090 0.12600
C4 C 0.25370 0.24320 0.15840
C5 C 0.09970 0.20080 0.18070
C6 C 0.07350 0.21160 0.24300
O1 O -0.00300 0.28190 0.24590
O2 O 0.08170 0.40930 0.17930
O3 O -0.05520 0.23230 0.16010
C7 C 0.55600 0.43760 0.04340
C8 C 0.62260 0.36740 0.06780
C9 C 0.48310 0.31440 0.07870
C10 C 0.34870 0.35720 0.11220
C11 C 0.30170 0.42610 0.07930
C12 C 0.37740 0.49260 0.10530
O4 O 0.55080 0.48920 0.08760
O5 O 0.77040 0.36050 0.07940
O6 O 0.38780 0.42770 0.02560
C13 C 0.46500 0.12470 0.04120
C14 C 0.32240 0.15840 0.07520
C15 C 0.38550 0.19950 0.12590
C16 C 0.54060 0.24560 0.10830
C17 C 0.65740 0.20190 0.07020
C18 C 0.70430 0.12950 0.09510
O7 O 0.57010 0.08310 0.07620
O8 O 0.17560 0.15280 0.06110
O9 O 0.56490 0.18100 0.02020
H1 H -0.17800 0.31800 0.18800
H2 H 0.12900 0.30100 0.09100
H3 H 0.31400 0.25700 0.18800
H4 H 0.11100 0.15200 0.16800
H5 H 0.18100 0.21100 0.26500
H6 H -0.00100 0.17800 0.25600
H7 H 0.63100 0.45600 0.00900
H8 H 0.42900 0.30300 0.04000
H9 H 0.40300 0.37000 0.15000
H10 H 0.17900 0.42900 0.07300
H11 H 0.37000 0.49100 0.14000
H12 H 0.32700 0.53600 0.08800
H13 H 0.41000 0.09200 0.00600
H14 H 0.42300 0.15700 0.15300
H15 H 0.61500 0.25600 0.14500
H16 H 0.75000 0.22600 0.05400
H17 H 0.71000 0.13200 0.13900
H18 H 0.81700 0.11400 0.08000
loop_
_geom_bond_atom_site_label_1
_geom_bond_atom_site_label_2
_geom_bond_site_symmetry_1
_geom_bond_site_symmetry_2
C1 C2 1_555 1_555
C2 C3 1_555 1_555
C3 C4 1_555 1_555
C4 C5 1_555 1_555
C5 C6 1_555 1_555
C6 O1 1_555 1_555
O1 C1 1_555 1_555
O2 C2 1_555 1_555
O3 C1 1_555 1_555
C7 C8 1_555 1_555
C8 C9 1_555 1_555
C9 C10 1_555 1_555
C10 C3 1_555 1_555
C11 C10 1_555 1_555
C12 C11 1_555 1_555
O4 C7 1_555 1_555
O5 C8 1_555 1_555
O6 C7 1_555 1_555
C13 C14 1_555 1_555
C14 C15 1_555 1_555
C15 C4 1_555 1_555
C16 C9 1_555 1_555
C17 C16 1_555 1_555
C18 C17 1_555 1_555
O7 C13 1_555 1_555
O8 C14 1_555 1_555
O9 C13 1_555 1_555
H1 C1 1_555 1_555
H2 C3 1_555 1_555
H3 C4 1_555 1_555
H4 C5 1_555 1_555
H5 C6 1_555 1_555
H6 C6 1_555 1_555
H7 C7 1_555 1_555
H8 C9 1_555 1_555
H9 C10 1_555 1_555
H10 C11 1_555 1_555
H11 C12 1_555 1_555
H12 C12 1_555 1_555
H13 C13 1_555 1_555
H14 C15 1_555 1_555
H15 C16 1_555 1_555
H16 C17 1_555 1_555
H17 C18 1_555 1_555
H18 C18 1_555 1_555
C19 C20 1_555 1_555
C20 C21 1_555 1_555
C21 C22 1_555 1_555
C22 C23 1_555 1_555
C23 C24 1_555 1_555
C24 O10 1_555 1_555
O10 C19 1_555 1_555
O11 C20 1_555 1_555
O12 C19 1_555 1_555
C25 C26 1_555 1_555
C26 C27 1_555 1_555
C27 C28 1_555 1_555
C28 C21 1_555 1_555
C29 C28 1_555 1_555
C30 C29 1_555 1_555
O13 C25 1_555 1_555
O14 C26 1_555 1_555
O15 C25 1_555 1_555
C31 C32 1_555 1_555
C32 C33 1_555 1_555
C33 C22 1_555 1_555
C34 C27 1_555 1_555
C35 C34 1_555 1_555
C36 C35 1_555 1_555
O16 C31 1_555 1_555
O17 C32 1_555 1_555
O18 C31 1_555 1_555
H19 C19 1_555 1_555
H20 C21 1_555 1_555
H21 C22 1_555 1_555
H22 C23 1_555 1_555
H23 C24 1_555 1_555
H24 C24 1_555 1_555
H25 C25 1_555 1_555
H26 C27 1_555 1_555
H27 C28 1_555 1_555
H28 C29 1_555 1_555
H29 C30 1_555 1_555
H30 C30 1_555 1_555
H31 C31 1_555 1_555
H32 C33 1_555 1_555
H33 C34 1_555 1_555
H34 C35 1_555 1_555
H35 C36 1_555 1_555
H36 C36 1_555 1_555
C5 O3 1_555 1_555
C11 O6 1_555 1_555
C12 O4 1_555 1_555
C15 C16 1_555 1_555
C17 O9 1_555 1_555
C18 O7 1_555 1_555
C23 O12 1_555 1_555
C29 O15 1_555 1_555
C30 O13 1_555 1_555
C33 C34 1_555 1_555
C35 O18 1_555 1_555
C36 O16 1_555 1_555

#END
