
#######################################################################
#
#                 Cambridge Crystallographic Data Centre
#                                CCDC 
#
#######################################################################
#
# If this CIF has been generated from an entry in the Cambridge 
# Structural Database, then it will include bibliographic, chemical, 
# crystal, experimental, refinement or atomic coordinate data resulting 
# from the CCDC's data processing and validation procedures.
#
#######################################################################

data_CEDGAT
_chemical_formula_moiety         'C31 H28 N2 O5 S2'
_chemical_name_systematic        
'p-Methoxybenzyl (5S,6R,8R,9R)-10-oxo-9-(phenylacetamido)-5-(phenylthio)-7-thia-1-azatricyclo(6.2.0.0^3,6^)dec-2-ene-2-carboxylate'
_symmetry_cell_setting           monoclinic
_symmetry_space_group_name_H-M   'P 21'
_symmetry_Int_Tables_number      4
_space_group_name_Hall           'P 2yb'
loop_
_symmetry_equiv_pos_site_id
_symmetry_equiv_pos_as_xyz
1 x,y,z
2 -x,1/2+y,-z
_cell_length_a                   5.0900(10)
_cell_length_b                   18.831(4)
_cell_length_c                   14.422(3)
_cell_angle_alpha                90
_cell_angle_beta                 98.13(3)
_cell_angle_gamma                90
_cell_volume                     1368.45
_exptl_crystal_colour            'light yellow'
_exptl_crystal_description       plates
_chemical_melting_point          '174-177 deg.C'
_cell_formula_units_Z            2
_exptl_crystal_recrystallization_method 'ethyl acetate/hexane'
loop_
_atom_site_label
_atom_site_type_symbol
_atom_site_fract_x
_atom_site_fract_y
_atom_site_fract_z
S1 S 0.0976(2) 0.24045(6) 0.37530(8)
S2 S 0.4541(2) 0.12673(6) 0.29816(8)
O1 O 0.6359(7) 0.3569(2) 0.5880(2)
O2 O -0.2112(6) 0.4228(2) 0.3728(3)
O3 O 0.8327(7) 0.1382(2) 0.6332(3)
O4 O 0.6895(7) 0.2314(2) 0.7080(2)
O5 O 0.7591(9) 0.2541(3) 1.1511(3)
N1 N 0.2198(7) 0.3975(2) 0.4147(3)
H1 H 0.3812(7) 0.4011(2) 0.4019(3)
N2 N 0.3184(7) 0.2635(2) 0.5585(3)
C1 C 0.1218(9) 0.1528(3) 0.4271(3)
H2 H -0.0519(9) 0.1376(3) 0.4437(3)
C2 C 0.2570(9) 0.0907(3) 0.3802(3)
H3 H 0.1322(9) 0.0532(3) 0.3537(3)
C3 C 0.4128(10) 0.0720(3) 0.4804(3)
H4 H 0.3344(10) 0.0331(3) 0.5124(3)
H5 H 0.6041(10) 0.0652(3) 0.4815(3)
C4 C 0.3359(8) 0.1452(3) 0.5099(3)
C5 C 0.4389(9) 0.1958(3) 0.5675(3)
C6 C 0.4225(9) 0.3317(3) 0.5568(3)
C7 C 0.1721(9) 0.3596(3) 0.4971(4)
H6 H 0.0598(9) 0.3872(3) 0.5348(4)
C8 C 0.0855(9) 0.2803(3) 0.4877(3)
H7 H -0.0851(9) 0.2715(3) 0.5112(3)
C9 C 0.0195(9) 0.4274(3) 0.3569(4)
C10 C 0.1058(10) 0.4678(3) 0.2764(4)
H8 H 0.2216(10) 0.4370(3) 0.2453(4)
H9 H 0.2122(10) 0.5086(3) 0.3017(4)
C11 C -0.1140(10) 0.4946(3) 0.2036(4)
C12 C -0.2865(10) 0.5464(3) 0.2267(4)
H10 H -0.2661(10) 0.5640(3) 0.2883(4)
C13 C -0.4859(11) 0.5725(3) 0.1622(4)
H11 H -0.5981(11) 0.6084(3) 0.1795(4)
C14 C -0.5228(11) 0.5465(3) 0.0720(4)
H12 H -0.6610(11) 0.5642(3) 0.0279(4)
C15 C -0.3567(12) 0.4947(4) 0.0470(4)
H13 H -0.3800(12) 0.4769(4) -0.0145(4)
C16 C -0.1556(12) 0.4689(3) 0.1124(4)
H14 H -0.0440(12) 0.4331(3) 0.0948(4)
C17 C 0.6094(9) 0.0515(3) 0.2570(3)
C18 C 0.7738(10) 0.0666(3) 0.1889(4)
H15 H 0.7887(10) 0.1134(3) 0.1674(4)
C19 C 0.9124(12) 0.0125(4) 0.1539(4)
H16 H 1.0231(12) 0.0226(4) 0.1086(4)
C20 C 0.8909(12) -0.0569(4) 0.1847(4)
H17 H 0.9843(12) -0.0938(4) 0.1600(4)
C21 C 0.7308(12) -0.0708(3) 0.2518(4)
H18 H 0.7176(12) -0.1176(3) 0.2734(4)
C22 C 0.5878(11) -0.0171(3) 0.2886(4)
H19 H 0.4785(11) -0.0275(3) 0.3342(4)
C23 C 0.6764(9) 0.1847(3) 0.6383(3)
C24 C 0.9371(10) 0.2336(4) 0.7730(4)
H20 H 1.0441(10) 0.2742(4) 0.7581(4)
H21 H 1.0392(10) 0.1902(4) 0.7667(4)
C25 C 0.8771(9) 0.2402(3) 0.8720(3)
C26 C 0.6869(11) 0.2865(3) 0.8963(4)
H22 H 0.5887(11) 0.3145(3) 0.8497(4)
C27 C 0.6389(11) 0.2924(3) 0.9882(4)
H23 H 0.5066(11) 0.3233(3) 1.0035(4)
C28 C 0.7859(10) 0.2527(3) 1.0571(3)
C29 C 0.9788(11) 0.2072(3) 1.0343(4)
H24 H 1.0809(11) 0.1805(3) 1.0813(4)
C30 C 1.0219(11) 0.2011(3) 0.9424(4)
H25 H 1.1527(11) 0.1695(3) 0.9274(4)
C31 C 0.5593(13) 0.2977(3) 1.1802(4)
H26 H 0.5635(13) 0.2935(3) 1.2475(4)
H27 H 0.3870(13) 0.2828(3) 1.1488(4)
H28 H 0.5905(13) 0.3467(3) 1.1644(4)
loop_
_geom_bond_atom_site_label_1
_geom_bond_atom_site_label_2
_geom_bond_site_symmetry_1
_geom_bond_site_symmetry_2
S1 C1 1_555 1_555
S2 C2 1_555 1_555
O1 C6 1_555 1_555
O2 C9 1_555 1_555
O3 C23 1_555 1_555
O4 C23 1_555 1_555
O5 C28 1_555 1_555
N1 H1 1_555 1_555
N2 C5 1_555 1_555
C1 H2 1_555 1_555
C2 C1 1_555 1_555
H3 C2 1_555 1_555
C3 C2 1_555 1_555
H4 C3 1_555 1_555
H5 C3 1_555 1_555
C4 C1 1_555 1_555
C5 C4 1_555 1_555
C6 N2 1_555 1_555
C7 N1 1_555 1_555
H6 C7 1_555 1_555
C8 S1 1_555 1_555
H7 C8 1_555 1_555
C9 N1 1_555 1_555
C10 C9 1_555 1_555
H8 C10 1_555 1_555
H9 C10 1_555 1_555
C11 C10 1_555 1_555
C12 C11 1_555 1_555
H10 C12 1_555 1_555
C13 C12 1_555 1_555
H11 C13 1_555 1_555
C14 C13 1_555 1_555
H12 C14 1_555 1_555
C15 C14 1_555 1_555
H13 C15 1_555 1_555
C16 C11 1_555 1_555
H14 C16 1_555 1_555
C17 S2 1_555 1_555
C18 C17 1_555 1_555
H15 C18 1_555 1_555
C19 C18 1_555 1_555
H16 C19 1_555 1_555
C20 C19 1_555 1_555
H17 C20 1_555 1_555
C21 C20 1_555 1_555
H18 C21 1_555 1_555
C22 C17 1_555 1_555
H19 C22 1_555 1_555
C23 C5 1_555 1_555
C24 O4 1_555 1_555
H20 C24 1_555 1_555
H21 C24 1_555 1_555
C25 C24 1_555 1_555
C26 C25 1_555 1_555
H22 C26 1_555 1_555
C27 C26 1_555 1_555
H23 C27 1_555 1_555
C28 C27 1_555 1_555
C29 C28 1_555 1_555
H24 C29 1_555 1_555
C30 C25 1_555 1_555
H25 C30 1_555 1_555
C31 O5 1_555 1_555
H26 C31 1_555 1_555
H27 C31 1_555 1_555
H28 C31 1_555 1_555
N2 C8 1_555 1_555
C3 C4 1_555 1_555
C6 C7 1_555 1_555
C7 C8 1_555 1_555
C15 C16 1_555 1_555
C21 C22 1_555 1_555
C29 C30 1_555 1_555

#END
