
#######################################################################
#
#                 Cambridge Crystallographic Data Centre
#                                CCDC 
#
#######################################################################
#
# If this CIF has been generated from an entry in the Cambridge 
# Structural Database, then it will include bibliographic, chemical, 
# crystal, experimental, refinement or atomic coordinate data resulting 
# from the CCDC's data processing and validation procedures.
#
#######################################################################

data_CEDKIH
_chemical_formula_moiety         'C14 H14 N4 O6,C3 H7 N1 O1,2(H2 O1)'
_chemical_name_systematic        
"2,2'-(1,4-Phenylenebis(carbonylhydrazin-2-yl-1-ylidene))dipropanoic acid N,N-dimethylformamide solvate dihydrate"
_symmetry_cell_setting           monoclinic
_symmetry_space_group_name_H-M   'P 21/c'
_symmetry_Int_Tables_number      14
_space_group_name_Hall           '-P 2ybc'
loop_
_symmetry_equiv_pos_site_id
_symmetry_equiv_pos_as_xyz
1 x,y,z
2 -x,1/2+y,1/2-z
3 -x,-y,-z
4 x,1/2-y,1/2+z
_cell_length_a                   17.498(5)
_cell_length_b                   7.0183(19)
_cell_length_c                   18.012(5)
_cell_angle_alpha                90
_cell_angle_beta                 107.976(5)
_cell_angle_gamma                90
_cell_volume                     2104.01
_cell_formula_units_Z            4
loop_
_atom_site_label
_atom_site_type_symbol
_atom_site_fract_x
_atom_site_fract_y
_atom_site_fract_z
N1 N 0.7604(2) 0.0100(5) 0.7454(2)
N2 N 0.71428(19) 0.1291(5) 0.7750(2)
H1 H 0.7217 0.2503 0.7769
N3 N 0.38914(19) 0.4616(5) 0.9331(2)
H2 H 0.3859 0.3404 0.9384
N4 N 0.33783(19) 0.5859(5) 0.9540(2)
O1 O 0.8418(2) -0.2472(5) 0.6922(2)
H3 H 0.8078 -0.2590 0.7146
O2 O 0.9128(2) -0.0195(5) 0.6635(3)
O3 O 0.64780(17) -0.1238(5) 0.80044(19)
O4 O 0.45072(16) 0.7121(5) 0.89746(19)
O5 O 0.23913(18) 0.8388(4) 0.9887(2)
O6 O 0.1949(2) 0.6079(4) 1.0491(2)
H4 H 0.1696 0.6966 1.0598
C1 C 0.8615(3) -0.0669(7) 0.6917(3)
C2 C 0.8192(3) 0.0777(6) 0.7247(3)
C3 C 0.8483(3) 0.2761(6) 0.7305(3)
H5 H 0.8205 0.3435 0.6836
H6 H 0.9049 0.2767 0.7375
H7 H 0.8383 0.3372 0.7743
C4 C 0.6563(2) 0.0483(7) 0.8011(3)
C5 C 0.6048(2) 0.1807(6) 0.8279(2)
C6 C 0.5960(2) 0.3736(6) 0.8087(3)
H8 H 0.6249 0.4279 0.7786
C7 C 0.5436(2) 0.4841(6) 0.8352(3)
H9 H 0.5382 0.6130 0.8225
C8 C 0.4987(2) 0.4071(6) 0.8803(3)
C9 C 0.5091(2) 0.2165(6) 0.8993(3)
H10 H 0.4810 0.1623 0.9303
C10 C 0.5611(2) 0.1035(6) 0.8729(3)
H11 H 0.5665 -0.0252 0.8857
C11 C 0.4452(2) 0.5402(7) 0.9037(3)
C12 C 0.2825(3) 0.3191(6) 1.0124(3)
H12 H 0.2354 0.2634 0.9765
H13 H 0.2777 0.3164 1.0641
H14 H 0.3291 0.2480 1.0116
C13 C 0.2906(2) 0.5198(6) 0.9894(3)
C14 C 0.2392(3) 0.6708(7) 1.0082(3)
N5 N 0.0456(2) 0.1086(7) 0.0983(2)
O7 O 0.0959(2) -0.1727(6) 0.0810(2)
C15 C 0.0989(3) 0.0037(9) 0.0794(3)
H15 H 0.1396 0.0627 0.0646
C16 C -0.0186(3) 0.0267(9) 0.1222(3)
H16 H -0.0160 -0.1098 0.1200
H17 H -0.0693 0.0696 0.0879
H18 H -0.0133 0.0655 0.1747
C17 C 0.0500(3) 0.3166(9) 0.0977(4)
H19 H 0.1030 0.3550 0.0988
H20 H 0.0385 0.3666 0.1427
H21 H 0.0114 0.3647 0.0512
O8 O 0.27926(18) 0.0954(4) 0.7643(2)
O9 O 0.35084(17) 0.9999(4) 0.9182(2)
loop_
_geom_bond_atom_site_label_1
_geom_bond_atom_site_label_2
_geom_bond_site_symmetry_1
_geom_bond_site_symmetry_2
N1 N2 1_555 1_555
N2 H1 1_555 1_555
N3 H2 1_555 1_555
N4 N3 1_555 1_555
O1 H3 1_555 1_555
O2 C1 1_555 1_555
O3 C4 1_555 1_555
O4 C11 1_555 1_555
O5 C14 1_555 1_555
O6 H4 1_555 1_555
C1 O1 1_555 1_555
C2 N1 1_555 1_555
C3 C2 1_555 1_555
H5 C3 1_555 1_555
H6 C3 1_555 1_555
H7 C3 1_555 1_555
C4 N2 1_555 1_555
C5 C4 1_555 1_555
C6 C5 1_555 1_555
H8 C6 1_555 1_555
C7 C6 1_555 1_555
H9 C7 1_555 1_555
C8 C7 1_555 1_555
C9 C8 1_555 1_555
H10 C9 1_555 1_555
C10 C5 1_555 1_555
H11 C10 1_555 1_555
C11 N3 1_555 1_555
C12 H12 1_555 1_555
H13 C12 1_555 1_555
H14 C12 1_555 1_555
C13 N4 1_555 1_555
C14 O6 1_555 1_555
N5 C15 1_555 1_555
O7 C15 1_555 1_555
C15 H15 1_555 1_555
C16 N5 1_555 1_555
H16 C16 1_555 1_555
H17 C16 1_555 1_555
H18 C16 1_555 1_555
C17 N5 1_555 1_555
H19 C17 1_555 1_555
H20 C17 1_555 1_555
H21 C17 1_555 1_555
C1 C2 1_555 1_555
C8 C11 1_555 1_555
C9 C10 1_555 1_555
C12 C13 1_555 1_555
C13 C14 1_555 1_555

#END
