
#######################################################################
#
#                 Cambridge Crystallographic Data Centre
#                                CCDC 
#
#######################################################################
#
# If this CIF has been generated from an entry in the Cambridge 
# Structural Database, then it will include bibliographic, chemical, 
# crystal, experimental, refinement or atomic coordinate data resulting 
# from the CCDC's data processing and validation procedures.
#
#######################################################################

data_CEDQUY
_chemical_formula_moiety         'C22 H18 O2'
_chemical_name_systematic        3-Benzyl-3-phenyl-3,4-dihydroisocoumarin
_symmetry_cell_setting           monoclinic
_symmetry_space_group_name_H-M   'P 21/a'
_symmetry_Int_Tables_number      14
_space_group_name_Hall           '-P 2yab'
loop_
_symmetry_equiv_pos_site_id
_symmetry_equiv_pos_as_xyz
1 x,y,z
2 1/2-x,1/2+y,-z
3 -x,-y,-z
4 1/2+x,1/2-y,z
_cell_length_a                   12.689(8)
_cell_length_b                   14.681(13)
_cell_length_c                   18.114(4)
_cell_angle_alpha                90
_cell_angle_beta                 91.37(3)
_cell_angle_gamma                90
_cell_volume                     3373.44
_exptl_crystal_colour            colorless
_exptl_crystal_description       Irregular
_chemical_melting_point          '378 K'
_cell_formula_units_Z            8
loop_
_atom_site_label
_atom_site_type_symbol
_atom_site_fract_x
_atom_site_fract_y
_atom_site_fract_z
O1 O 0.05414(13) 0.38216(11) 0.04343(10)
C1 C 0.13533(17) 0.35105(14) 0.02150(12)
O2 O 0.18252(10) 0.28533(9) 0.06326(7)
C2 C 0.27373(15) 0.23455(14) 0.03679(10)
C3 C 0.34686(17) 0.30125(16) -0.00070(13)
C4 C 0.28857(17) 0.35282(14) -0.06044(11)
C5 C 0.3323(2) 0.37757(18) -0.12706(14)
C6 C 0.2751(3) 0.42916(19) -0.17729(15)
C7 C 0.1749(3) 0.45756(19) -0.16224(15)
C8 C 0.1296(2) 0.43342(16) -0.09732(14)
C9 C 0.18619(17) 0.37955(13) -0.04643(11)
C10 C 0.3208(2) 0.19140(15) 0.10699(12)
C11 C 0.36059(16) 0.25698(14) 0.16604(11)
C12 C 0.46596(19) 0.27941(16) 0.17234(13)
C13 C 0.5026(2) 0.33678(18) 0.22751(14)
C14 C 0.4340(2) 0.37193(17) 0.27802(14)
C15 C 0.3297(2) 0.35091(17) 0.27243(13)
C16 C 0.2926(2) 0.29422(16) 0.21714(12)
C17 C 0.23547(16) 0.15915(14) -0.01564(11)
C18 C 0.3047(2) 0.11694(19) -0.06269(15)
C19 C 0.2716(3) 0.0467(2) -0.10834(17)
C20 C 0.1700(3) 0.01781(19) -0.10826(17)
C21 C 0.1012(3) 0.0574(2) -0.0619(2)
C22 C 0.1341(2) 0.12744(17) -0.01517(17)
H1 H 0.4070(16) 0.2684(14) -0.0212(10)
H2 H 0.3727(16) 0.3443(15) 0.0354(12)
H3 H 0.399(2) 0.3555(18) -0.1372(14)
H4 H 0.303(2) 0.442(2) -0.2262(17)
H5 H 0.135(2) 0.4942(18) -0.1981(15)
H6 H 0.061(2) 0.4520(17) -0.0869(13)
H7 H 0.3768(17) 0.1517(16) 0.0931(11)
H8 H 0.2650(18) 0.1524(16) 0.1272(12)
H9 H 0.5126(19) 0.2558(16) 0.1388(13)
H10 H 0.575(2) 0.3537(19) 0.2298(14)
H11 H 0.458(2) 0.4070(18) 0.3169(14)
H12 H 0.280(2) 0.3735(18) 0.3054(15)
H13 H 0.2189(19) 0.2788(16) 0.2127(12)
H14 H 0.377(2) 0.1368(19) -0.0667(14)
H15 H 0.319(2) 0.0242(19) -0.1373(15)
H16 H 0.145(2) -0.025(2) -0.1395(17)
H17 H 0.029(3) 0.039(2) -0.0611(17)
H18 H 0.084(2) 0.154(2) 0.0145(14)
O3 O 0.35217(12) 0.46505(10) 0.44170(9)
C23 C 0.28749(16) 0.52532(14) 0.44222(11)
O4 O 0.19629(11) 0.51168(9) 0.40415(8)
C24 C 0.11653(15) 0.58452(13) 0.39358(10)
C25 C 0.11136(16) 0.63976(14) 0.46374(12)
C26 C 0.21744(16) 0.67022(13) 0.49113(11)
C27 C 0.23372(19) 0.75190(14) 0.52889(12)
C28 C 0.3316(2) 0.77300(16) 0.55820(13)
C29 C 0.4150(2) 0.71365(17) 0.55175(13)
C30 C 0.40137(18) 0.63276(16) 0.51338(12)
C31 C 0.30277(16) 0.61213(12) 0.48247(11)
C32 C 0.15324(18) 0.64128(15) 0.32695(13)
C33 C 0.07993(17) 0.71891(15) 0.30656(11)
C34 C -0.0017(2) 0.7083(2) 0.25611(15)
C35 C -0.0704(2) 0.7799(3) 0.23923(19)
C36 C -0.0566(3) 0.8621(2) 0.2740(2)
C37 C 0.0234(3) 0.87386(19) 0.32393(18)
C38 C 0.0924(2) 0.80336(16) 0.33986(15)
C39 C 0.01491(16) 0.53343(13) 0.37620(11)
C40 C 0.0156(2) 0.45202(15) 0.33652(12)
C41 C -0.0766(2) 0.40420(17) 0.32259(14)
C42 C -0.1712(2) 0.43727(18) 0.34501(14)
C43 C -0.1740(2) 0.51912(18) 0.38215(14)
C44 C -0.08200(18) 0.56655(16) 0.39775(13)
H19 H 0.0781(16) 0.6041(15) 0.5023(11)
H20 H 0.0626(15) 0.6904(14) 0.4551(10)
H21 H 0.1758(16) 0.7921(15) 0.5341(11)
H22 H 0.342(2) 0.827(2) 0.5840(14)
H23 H 0.4834(19) 0.7267(16) 0.5768(13)
H24 H 0.4606(17) 0.5924(16) 0.5047(11)
H25 H 0.1619(17) 0.6003(15) 0.2843(13)
H26 H 0.2225(17) 0.6652(14) 0.3409(11)
H27 H -0.011(2) 0.654(2) 0.2317(14)
H28 H -0.125(2) 0.7663(18) 0.2046(15)
H29 H -0.108(2) 0.908(2) 0.2605(16)
H30 H 0.029(3) 0.930(3) 0.3541(17)
H31 H 0.152(2) 0.8108(18) 0.3774(14)
H32 H 0.0822(18) 0.4309(16) 0.3183(12)
H33 H -0.072(2) 0.347(2) 0.2950(15)
H34 H -0.237(2) 0.4039(18) 0.3347(13)
H35 H -0.238(2) 0.5404(17) 0.3997(13)
H36 H -0.0841(18) 0.6185(17) 0.4277(12)
loop_
_geom_bond_atom_site_label_1
_geom_bond_atom_site_label_2
_geom_bond_site_symmetry_1
_geom_bond_site_symmetry_2
O1 C1 1_555 1_555
C1 O2 1_555 1_555
O2 C2 1_555 1_555
C2 C3 1_555 1_555
C3 C4 1_555 1_555
C4 C5 1_555 1_555
C5 C6 1_555 1_555
C6 C7 1_555 1_555
C7 C8 1_555 1_555
C8 C9 1_555 1_555
C9 C1 1_555 1_555
C10 C2 1_555 1_555
C11 C10 1_555 1_555
C12 C11 1_555 1_555
C13 C12 1_555 1_555
C14 C13 1_555 1_555
C15 C14 1_555 1_555
C16 C11 1_555 1_555
C17 C2 1_555 1_555
C18 C17 1_555 1_555
C19 C18 1_555 1_555
C20 C19 1_555 1_555
C21 C20 1_555 1_555
C22 C17 1_555 1_555
O3 C23 1_555 1_555
C23 O4 1_555 1_555
O4 C24 1_555 1_555
C24 C25 1_555 1_555
C25 C26 1_555 1_555
C26 C27 1_555 1_555
C27 C28 1_555 1_555
C28 C29 1_555 1_555
C29 C30 1_555 1_555
C30 C31 1_555 1_555
C31 C23 1_555 1_555
C32 C24 1_555 1_555
C33 C32 1_555 1_555
C34 C33 1_555 1_555
C35 C34 1_555 1_555
C36 C35 1_555 1_555
C37 C36 1_555 1_555
C38 C33 1_555 1_555
C39 C24 1_555 1_555
C40 C39 1_555 1_555
C41 C40 1_555 1_555
C42 C41 1_555 1_555
C43 C42 1_555 1_555
C44 C39 1_555 1_555
H1 C3 1_555 1_555
H2 C3 1_555 1_555
H3 C5 1_555 1_555
H4 C6 1_555 1_555
H5 C7 1_555 1_555
H6 C8 1_555 1_555
H7 C10 1_555 1_555
H8 C10 1_555 1_555
H9 C12 1_555 1_555
H10 C13 1_555 1_555
H11 C14 1_555 1_555
H12 C15 1_555 1_555
H13 C16 1_555 1_555
H14 C18 1_555 1_555
H15 C19 1_555 1_555
H16 C20 1_555 1_555
H17 C21 1_555 1_555
H18 C22 1_555 1_555
H19 C25 1_555 1_555
H20 C25 1_555 1_555
H21 C27 1_555 1_555
H22 C28 1_555 1_555
H23 C29 1_555 1_555
H24 C30 1_555 1_555
H25 C32 1_555 1_555
H26 C32 1_555 1_555
H27 C34 1_555 1_555
H28 C35 1_555 1_555
H29 C36 1_555 1_555
H30 C37 1_555 1_555
H31 C38 1_555 1_555
H32 C40 1_555 1_555
H33 C41 1_555 1_555
H34 C42 1_555 1_555
H35 C43 1_555 1_555
H36 C44 1_555 1_555
C4 C9 1_555 1_555
C15 C16 1_555 1_555
C21 C22 1_555 1_555
C26 C31 1_555 1_555
C37 C38 1_555 1_555
C43 C44 1_555 1_555

#END
