
#######################################################################
#
#                 Cambridge Crystallographic Data Centre
#                                CCDC 
#
#######################################################################
#
# If this CIF has been generated from an entry in the Cambridge 
# Structural Database, then it will include bibliographic, chemical, 
# crystal, experimental, refinement or atomic coordinate data resulting 
# from the CCDC's data processing and validation procedures.
#
#######################################################################

data_CEGCEZ
_chemical_formula_moiety         'C22 H18 Cl1 N1 O2'
_chemical_name_systematic        
(+)-(4R,5S)-4-(4-chlorophenyl)-5-(2-hydroxyphenyl)-1-phenylpyrrolidin-2-one
_symmetry_cell_setting           monoclinic
_symmetry_space_group_name_H-M   'P 21'
_symmetry_Int_Tables_number      4
_space_group_name_Hall           'P 2yb'
loop_
_symmetry_equiv_pos_site_id
_symmetry_equiv_pos_as_xyz
1 x,y,z
2 -x,1/2+y,-z
_cell_length_a                   8.8604(9)
_cell_length_b                   10.2830(10)
_cell_length_c                   10.8926(11)
_cell_angle_alpha                90
_cell_angle_beta                 113.786(2)
_cell_angle_gamma                90
_cell_volume                     908.141
_exptl_crystal_colour            colorless
_exptl_crystal_description       block
_chemical_melting_point          '198-199 deg.C'
_cell_formula_units_Z            2
loop_
_atom_site_label
_atom_site_type_symbol
_atom_site_fract_x
_atom_site_fract_y
_atom_site_fract_z
Cl1 Cl 0.18832(8) 0.18687(7) -0.14572(6)
O1 O 1.1149(2) 0.52053(18) 0.51705(18)
O2 O 0.3937(2) 0.47144(19) 0.47155(18)
H1 H 0.3039 0.4795 0.4797
N1 N 0.8716(2) 0.4884(2) 0.5422(2)
C1 C 0.3502(3) 0.2262(3) 0.0071(2)
C2 C 0.4219(3) 0.1298(2) 0.1011(3)
H2 H 0.3854 0.0422 0.0836
C3 C 0.5491(3) 0.1645(2) 0.2222(3)
H3 H 0.5999 0.0994 0.2878
C4 C 0.6036(3) 0.2921(2) 0.2492(2)
C5 C 0.5281(3) 0.3865(2) 0.1521(2)
H4 H 0.5638 0.4743 0.1694
C6 C 0.4013(3) 0.3544(3) 0.0299(3)
H5 H 0.3509 0.4190 -0.0363
C7 C 0.7477(3) 0.3250(2) 0.3796(2)
H6 H 0.7856 0.2425 0.4317
C8 C 0.8959(3) 0.3852(2) 0.3611(2)
H7 H 0.9730 0.3168 0.3582
H8 H 0.8591 0.4365 0.2772
C9 C 0.9765(3) 0.4713(2) 0.4814(2)
C10 C 0.7084(3) 0.4245(2) 0.4706(2)
H9 H 0.6363 0.4912 0.4248
C11 C 0.9050(3) 0.5723(2) 0.6547(2)
C12 C 0.7852(3) 0.6589(2) 0.6560(2)
H10 H 0.6797 0.6609 0.5834
C13 C 0.8210(3) 0.7425(3) 0.7646(3)
H11 H 0.7401 0.8028 0.7652
C14 C 0.9743(3) 0.7386(3) 0.8722(3)
H12 H 0.9982 0.7958 0.9462
C15 C 1.0919(3) 0.6503(3) 0.8705(3)
H13 H 1.1966 0.6472 0.9438
C16 C 1.0580(3) 0.5668(3) 0.7627(2)
H14 H 1.1388 0.5061 0.7626
C17 C 0.6495(3) 0.3613(2) 0.5686(2)
C18 C 0.4936(3) 0.3874(2) 0.5667(2)
C19 C 0.4449(3) 0.3281(3) 0.6606(3)
H15 H 0.3389 0.3455 0.6593
C20 C 0.5508(3) 0.2444(3) 0.7552(3)
H16 H 0.5173 0.2053 0.8192
C21 C 0.7046(4) 0.2164(3) 0.7583(3)
H17 H 0.7764 0.1581 0.8233
C22 C 0.7530(3) 0.2748(3) 0.6650(3)
H18 H 0.8587 0.2557 0.6667
loop_
_geom_bond_atom_site_label_1
_geom_bond_atom_site_label_2
_geom_bond_site_symmetry_1
_geom_bond_site_symmetry_2
Cl1 C1 1_555 1_555
O1 C9 1_555 1_555
O2 H1 1_555 1_555
N1 C9 1_555 1_555
C1 C2 1_555 1_555
C2 H2 1_555 1_555
C3 C2 1_555 1_555
H3 C3 1_555 1_555
C4 C3 1_555 1_555
C5 C4 1_555 1_555
H4 C5 1_555 1_555
C6 C1 1_555 1_555
H5 C6 1_555 1_555
C7 C4 1_555 1_555
H6 C7 1_555 1_555
C8 C7 1_555 1_555
H7 C8 1_555 1_555
H8 C8 1_555 1_555
C9 C8 1_555 1_555
C10 N1 1_555 1_555
H9 C10 1_555 1_555
C11 N1 1_555 1_555
C12 C11 1_555 1_555
H10 C12 1_555 1_555
C13 C12 1_555 1_555
H11 C13 1_555 1_555
C14 C13 1_555 1_555
H12 C14 1_555 1_555
C15 C14 1_555 1_555
H13 C15 1_555 1_555
C16 C11 1_555 1_555
H14 C16 1_555 1_555
C17 C10 1_555 1_555
C18 O2 1_555 1_555
C19 C18 1_555 1_555
H15 C19 1_555 1_555
C20 C19 1_555 1_555
H16 C20 1_555 1_555
C21 C20 1_555 1_555
H17 C21 1_555 1_555
C22 C17 1_555 1_555
H18 C22 1_555 1_555
C5 C6 1_555 1_555
C7 C10 1_555 1_555
C15 C16 1_555 1_555
C17 C18 1_555 1_555
C21 C22 1_555 1_555

#END
