
#######################################################################
#
#                 Cambridge Crystallographic Data Centre
#                                CCDC 
#
#######################################################################
#
# If this CIF has been generated from an entry in the Cambridge 
# Structural Database, then it will include bibliographic, chemical, 
# crystal, experimental, refinement or atomic coordinate data resulting 
# from the CCDC's data processing and validation procedures.
#
#######################################################################

data_CEGCUO
_chemical_formula_moiety         'C18 H18 Cl1 N5 O3'
_chemical_name_systematic        
N-(2-(((1-(4-Chlorophenyl)-1H-pyrazol-3-yl)oxy)methyl)phenyl)-N-methoxyhydrazinecarboxamide
_symmetry_cell_setting           monoclinic
_symmetry_space_group_name_H-M   'P 21/n'
_symmetry_Int_Tables_number      14
_space_group_name_Hall           '-P 2yn'
loop_
_symmetry_equiv_pos_site_id
_symmetry_equiv_pos_as_xyz
1 x,y,z
2 1/2-x,1/2+y,1/2-z
3 -x,-y,-z
4 1/2+x,1/2-y,1/2+z
_cell_length_a                   7.6830(4)
_cell_length_b                   9.1597(4)
_cell_length_c                   26.1083(12)
_cell_angle_alpha                90
_cell_angle_beta                 91.683(4)
_cell_angle_gamma                90
_cell_volume                     1836.55
_exptl_crystal_colour            colorless
_exptl_crystal_description       plate
_cell_formula_units_Z            4
loop_
_atom_site_label
_atom_site_type_symbol
_atom_site_fract_x
_atom_site_fract_y
_atom_site_fract_z
Cl1 Cl 0.85943(10) 0.62565(8) 0.12909(3)
C1 C 0.2793(3) -0.0901(2) -0.06670(7)
O1 O 0.43612(17) -0.10159(17) -0.05818(5)
N1 N 0.2112(2) -0.0929(2) -0.11646(6)
O2 O 0.03330(18) -0.13060(17) -0.12029(6)
C2 C -0.0602(3) -0.0201(4) -0.14807(11)
H1 H -0.1812 -0.0459 -0.1506
H2 H -0.0148 -0.0116 -0.1818
H3 H -0.0474 0.0714 -0.1305
N2 N 0.1626(2) -0.0688(2) -0.03072(6)
N3 N 0.2138(2) -0.0411(2) 0.02087(7)
C3 C 0.3083(3) -0.1280(2) -0.16026(8)
C4 C 0.2614(3) -0.2474(3) -0.19022(9)
H4 H 0.1703 -0.3074 -0.1806
C5 C 0.3496(4) -0.2774(3) -0.23418(10)
H5 H 0.3177 -0.3571 -0.2544
C6 C 0.4843(4) -0.1895(4) -0.24800(9)
H6 H 0.5456 -0.2110 -0.2772
C7 C 0.5297(3) -0.0690(3) -0.21873(8)
H7 H 0.6205 -0.0094 -0.2289
C8 C 0.4424(3) -0.0350(3) -0.17444(7)
C9 C 0.4906(3) 0.0949(3) -0.14239(8)
H8 H 0.3875 0.1335 -0.1266
H9 H 0.5729 0.0662 -0.1154
O3 O 0.5663(2) 0.2046(2) -0.17350(6)
C10 C 0.6187(3) 0.3245(3) -0.14708(9)
N4 N 0.6511(2) 0.3234(2) -0.09724(7)
N5 N 0.7001(2) 0.4639(2) -0.08603(7)
C11 C 0.6965(4) 0.5466(3) -0.12880(11)
H10 H 0.7243 0.6453 -0.1305
C12 C 0.6457(4) 0.4619(3) -0.16864(11)
H11 H 0.6318 0.4889 -0.2029
C13 C 0.7379(3) 0.5041(2) -0.03455(9)
C14 C 0.6784(3) 0.4182(2) 0.00479(9)
H12 H 0.6131 0.3349 -0.0027
C15 C 0.7157(3) 0.4559(2) 0.05512(9)
H13 H 0.6777 0.3975 0.0817
C16 C 0.8103(3) 0.5816(3) 0.06560(10)
C17 C 0.8675(3) 0.6674(3) 0.02681(11)
H14 H 0.9305 0.7517 0.0344
C18 C 0.8325(3) 0.6298(3) -0.02355(11)
H15 H 0.8720 0.6882 -0.0499
H16 H 0.305(3) 0.013(3) 0.0208(8)
H17 H 0.251(3) -0.123(3) 0.0344(10)
H18 H 0.053(3) -0.051(3) -0.0385(9)
loop_
_geom_bond_atom_site_label_1
_geom_bond_atom_site_label_2
_geom_bond_site_symmetry_1
_geom_bond_site_symmetry_2
Cl1 C16 1_555 1_555
C1 O1 1_555 1_555
N1 C1 1_555 1_555
O2 N1 1_555 1_555
C2 O2 1_555 1_555
H1 C2 1_555 1_555
H2 C2 1_555 1_555
H3 C2 1_555 1_555
N2 C1 1_555 1_555
N3 N2 1_555 1_555
C3 N1 1_555 1_555
C4 C3 1_555 1_555
H4 C4 1_555 1_555
C5 C4 1_555 1_555
H5 C5 1_555 1_555
C6 C5 1_555 1_555
H6 C6 1_555 1_555
C7 C6 1_555 1_555
H7 C7 1_555 1_555
C8 C3 1_555 1_555
C9 C8 1_555 1_555
H8 C9 1_555 1_555
H9 C9 1_555 1_555
O3 C9 1_555 1_555
C10 O3 1_555 1_555
N4 C10 1_555 1_555
N5 N4 1_555 1_555
C11 N5 1_555 1_555
H10 C11 1_555 1_555
C12 C10 1_555 1_555
H11 C12 1_555 1_555
C13 N5 1_555 1_555
C14 C13 1_555 1_555
H12 C14 1_555 1_555
C15 C14 1_555 1_555
H13 C15 1_555 1_555
C16 C15 1_555 1_555
C17 C16 1_555 1_555
H14 C17 1_555 1_555
C18 C13 1_555 1_555
H15 C18 1_555 1_555
H16 N3 1_555 1_555
H17 N3 1_555 1_555
H18 N2 1_555 1_555
C7 C8 1_555 1_555
C11 C12 1_555 1_555
C17 C18 1_555 1_555

#END
