
#######################################################################
#
#                 Cambridge Crystallographic Data Centre
#                                CCDC 
#
#######################################################################
#
# If this CIF has been generated from an entry in the Cambridge 
# Structural Database, then it will include bibliographic, chemical, 
# crystal, experimental, refinement or atomic coordinate data resulting 
# from the CCDC's data processing and validation procedures.
#
#######################################################################

data_CEGSOY
_chemical_formula_moiety         'C24 H16 O2'
_chemical_name_systematic        (2-Benzoylphenyl)(naphthalen-1-yl)methanone
_symmetry_cell_setting           monoclinic
_symmetry_space_group_name_H-M   'P 21/n'
_symmetry_Int_Tables_number      14
_space_group_name_Hall           '-P 2yn'
loop_
_symmetry_equiv_pos_site_id
_symmetry_equiv_pos_as_xyz
1 x,y,z
2 1/2-x,1/2+y,1/2-z
3 -x,-y,-z
4 1/2+x,1/2-y,1/2+z
_cell_length_a                   10.4105(3)
_cell_length_b                   9.6218(3)
_cell_length_c                   17.8497(5)
_cell_angle_alpha                90
_cell_angle_beta                 106.113(2)
_cell_angle_gamma                90
_cell_volume                     1717.73
_exptl_crystal_colour            white
_exptl_crystal_description       block
_cell_formula_units_Z            4
_exptl_crystal_recrystallization_method methanol
loop_
_atom_site_label
_atom_site_type_symbol
_atom_site_fract_x
_atom_site_fract_y
_atom_site_fract_z
C1 C -0.12964(14) 0.43758(18) 0.19247(9)
H1 H -0.1978 0.4398 0.2168
C2 C -0.11530(16) 0.54645(18) 0.14567(10)
H2 H -0.1746 0.6209 0.1379
C3 C -0.01362(17) 0.54578(18) 0.11029(10)
H3 H -0.0030 0.6205 0.0795
C4 C 0.07240(15) 0.43421(16) 0.12060(9)
H4 H 0.1413 0.4341 0.0967
C5 C 0.05740(13) 0.32213(15) 0.16614(8)
C6 C -0.04434(13) 0.32506(15) 0.20384(8)
C7 C -0.06077(13) 0.21477(16) 0.25979(8)
C8 C 0.04444(13) 0.20243(14) 0.33523(8)
C9 C 0.14254(15) 0.30231(16) 0.35969(8)
H5 H 0.1457 0.3780 0.3278
C10 C 0.23568(17) 0.28980(18) 0.43124(10)
H6 H 0.3014 0.3574 0.4475
C11 C 0.23221(18) 0.1786(2) 0.47854(10)
H7 H 0.2953 0.1708 0.5268
C12 C 0.13550(18) 0.0788(2) 0.45457(10)
H8 H 0.1337 0.0028 0.4864
C13 C 0.04130(16) 0.09075(17) 0.38380(9)
H9 H -0.0250 0.0236 0.3683
C14 C 0.14196(13) 0.19692(15) 0.17171(8)
C15 C 0.26477(13) 0.20331(15) 0.14345(9)
C16 C 0.25771(14) 0.16839(14) 0.06570(9)
C17 C 0.13610(17) 0.13546(16) 0.00976(9)
H10 H 0.0561 0.1393 0.0233
C18 C 0.1356(2) 0.09810(19) -0.06394(10)
H11 H 0.0556 0.0751 -0.1004
C19 C 0.2565(3) 0.0944(2) -0.08489(13)
H12 H 0.2556 0.0689 -0.1353
C20 C 0.3734(3) 0.1272(2) -0.03286(14)
H13 H 0.4520 0.1247 -0.0480
C21 C 0.37831(17) 0.16475(16) 0.04334(11)
C22 C 0.49996(17) 0.1967(2) 0.10048(15)
H14 H 0.5797 0.1944 0.0867
C23 C 0.50251(17) 0.2301(2) 0.17366(14)
H15 H 0.5835 0.2503 0.2099
C24 C 0.38446(16) 0.2346(2) 0.19557(11)
H16 H 0.3870 0.2592 0.2463
O1 O -0.16245(11) 0.14676(16) 0.24595(7)
O2 O 0.11301(12) 0.08900(12) 0.19794(7)
loop_
_geom_bond_atom_site_label_1
_geom_bond_atom_site_label_2
_geom_bond_site_symmetry_1
_geom_bond_site_symmetry_2
C1 H1 1_555 1_555
C2 C1 1_555 1_555
H2 C2 1_555 1_555
C3 C2 1_555 1_555
H3 C3 1_555 1_555
C4 C3 1_555 1_555
H4 C4 1_555 1_555
C5 C4 1_555 1_555
C6 C1 1_555 1_555
C7 C6 1_555 1_555
C8 C7 1_555 1_555
C9 C8 1_555 1_555
H5 C9 1_555 1_555
C10 C9 1_555 1_555
H6 C10 1_555 1_555
C11 C10 1_555 1_555
H7 C11 1_555 1_555
C12 C11 1_555 1_555
H8 C12 1_555 1_555
C13 C8 1_555 1_555
H9 C13 1_555 1_555
C14 C5 1_555 1_555
C15 C14 1_555 1_555
C16 C15 1_555 1_555
C17 C16 1_555 1_555
H10 C17 1_555 1_555
C18 C17 1_555 1_555
H11 C18 1_555 1_555
C19 C18 1_555 1_555
H12 C19 1_555 1_555
C20 C19 1_555 1_555
H13 C20 1_555 1_555
C21 C16 1_555 1_555
C22 C21 1_555 1_555
H14 C22 1_555 1_555
C23 C22 1_555 1_555
H15 C23 1_555 1_555
C24 C15 1_555 1_555
H16 C24 1_555 1_555
O1 C7 1_555 1_555
O2 C14 1_555 1_555
C5 C6 1_555 1_555
C12 C13 1_555 1_555
C20 C21 1_555 1_555
C23 C24 1_555 1_555

#END
