
#######################################################################
#
#                 Cambridge Crystallographic Data Centre
#                                CCDC 
#
#######################################################################
#
# If this CIF has been generated from an entry in the Cambridge 
# Structural Database, then it will include bibliographic, chemical, 
# crystal, experimental, refinement or atomic coordinate data resulting 
# from the CCDC's data processing and validation procedures.
#
#######################################################################

data_CEHHAY
_chemical_formula_moiety         'C12 H24 O6,2(C7 H6 N2 O3),2(H2 O1)'
_chemical_name_systematic        
'18-Crown-6 bis(p-nitrobenzaldehyde oxime) dihydrate'
_symmetry_cell_setting           monoclinic
_symmetry_space_group_name_H-M   'P 21/c'
_symmetry_Int_Tables_number      14
_space_group_name_Hall           '-P 2ybc'
loop_
_symmetry_equiv_pos_site_id
_symmetry_equiv_pos_as_xyz
1 x,y,z
2 -x,1/2+y,1/2-z
3 -x,-y,-z
4 x,1/2-y,1/2+z
_cell_length_a                   7.570(5)
_cell_length_b                   7.875(3)
_cell_length_c                   27.46(2)
_cell_angle_alpha                90
_cell_angle_beta                 101.19(5)
_cell_angle_gamma                90
_cell_volume                     1605.87
_cell_formula_units_Z            2
loop_
_atom_site_label
_atom_site_type_symbol
_atom_site_fract_x
_atom_site_fract_y
_atom_site_fract_z
O1 O 0.48550 -0.30400 0.44770
C1 C 0.38180 -0.30110 0.39870
C2 C 0.19970 -0.23620 0.40160
O2 O 0.21410 -0.06260 0.41340
C3 C 0.05140 0.00510 0.42190
C4 C 0.08250 0.18640 0.43660
O3 O 0.19280 0.19340 0.48490
C5 C 0.23510 0.35910 0.50010
C6 C 0.66050 -0.36150 0.44820
H1 H 0.43850 -0.21990 0.37910
H2 H 0.37510 -0.41670 0.38210
H3 H 0.11450 -0.25860 0.36930
H4 H 0.15660 -0.29710 0.42840
H5 H -0.04260 -0.00470 0.39090
H6 H 0.00950 -0.05570 0.44890
H7 H 0.14280 0.24360 0.41230
H8 H -0.03490 0.24290 0.43780
H9 H 0.31130 0.40800 0.47810
H10 H 0.12150 0.42570 0.49760
H11 H 0.65310 -0.48100 0.43440
H12 H 0.72160 -0.28860 0.42740
C6B C 0.33950 0.36150 0.55180
C5B C 0.76490 -0.35910 0.49990
O1B O 0.51450 0.30400 0.55230
H11B H 0.34690 0.48100 0.56560
H12B H 0.27840 0.28860 0.57260
O3B O 0.80720 -0.19340 0.51510
H9B H 0.68870 -0.40800 0.52190
H10B H 0.87850 -0.42570 0.50240
C1B C 0.61820 0.30110 0.60130
C4B C 0.91750 -0.18640 0.56340
C2B C 0.80030 0.23620 0.59840
H1B H 0.56150 0.21990 0.62090
H2B H 0.62490 0.41670 0.61790
C3B C 0.94860 -0.00510 0.57810
H7B H 0.85720 -0.24360 0.58770
H8B H 1.03490 -0.24290 0.56220
O2B O 0.78590 0.06260 0.58660
H3B H 0.88550 0.25860 0.63070
H4B H 0.84340 0.29710 0.57160
H5B H 1.04260 0.00470 0.60910
H6B H 0.99050 0.05570 0.55110
O4 O 0.35990 -0.12720 0.52960
H13 H 0.40660 -0.19180 0.50280
H14 H 0.30420 -0.01910 0.51630
O5 O 0.38910 -0.11040 0.62850
N1 N 0.35520 -0.27040 0.64390
C7 C 0.32880 -0.26530 0.68960
C8 C 0.29530 -0.42090 0.71430
C9 C 0.26730 -0.41000 0.76300
C10 C 0.23630 -0.55470 0.78820
C11 C 0.22480 -0.70630 0.76460
C12 C 0.25190 -0.72280 0.71650
C13 C 0.28200 -0.57770 0.69180
N2 N 0.19600 -0.86080 0.79140
O6 O 0.14620 -0.84690 0.83070
O7 O 0.20940 -0.99810 0.77320
H15 H 0.37650 -0.11630 0.59160
H16 H 0.33530 -0.15340 0.70830
H17 H 0.27440 -0.29680 0.78110
H18 H 0.21950 -0.54320 0.82340
H19 H 0.24450 -0.83740 0.69920
H20 H 0.29850 -0.58920 0.65660
loop_
_geom_bond_atom_site_label_1
_geom_bond_atom_site_label_2
_geom_bond_site_symmetry_1
_geom_bond_site_symmetry_2
O1 C1 1_555 1_555
C1 C2 1_555 1_555
C2 O2 1_555 1_555
O2 C3 1_555 1_555
C3 C4 1_555 1_555
C4 O3 1_555 1_555
O3 C5 1_555 1_555
C5 H9 1_555 1_555
C6 O1 1_555 1_555
O4 H13 1_555 1_555
O5 N1 1_555 1_555
N1 C7 1_555 1_555
C7 C8 1_555 1_555
C8 C9 1_555 1_555
C9 C10 1_555 1_555
C10 C11 1_555 1_555
C11 C12 1_555 1_555
C12 C13 1_555 1_555
C13 C8 1_555 1_555
N2 C11 1_555 1_555
O6 N2 1_555 1_555
O7 N2 1_555 1_555
H1 C1 1_555 1_555
H2 C1 1_555 1_555
H3 C2 1_555 1_555
H4 C2 1_555 1_555
H5 C3 1_555 1_555
H6 C3 1_555 1_555
H7 C4 1_555 1_555
H8 C4 1_555 1_555
H10 C5 1_555 1_555
H11 C6 1_555 1_555
H12 C6 1_555 1_555
H14 O4 1_555 1_555
H15 O5 1_555 1_555
H16 C7 1_555 1_555
H17 C9 1_555 1_555
H18 C10 1_555 1_555
H19 C12 1_555 1_555
H20 C13 1_555 1_555
C6B C5 1_555 1_555
C5B C6 1_555 1_555
O1B C6B 1_555 1_555
H11B C6B 1_555 1_555
H12B C6B 1_555 1_555
O3B C5B 1_555 1_555
H9B C5B 1_555 1_555
H10B C5B 1_555 1_555
C1B O1B 1_555 1_555
C4B O3B 1_555 1_555
C2B C1B 1_555 1_555
H1B C1B 1_555 1_555
H2B C1B 1_555 1_555
C3B C4B 1_555 1_555
H7B C4B 1_555 1_555
H8B C4B 1_555 1_555
O2B C2B 1_555 1_555
H3B C2B 1_555 1_555
H4B C2B 1_555 1_555
H5B C3B 1_555 1_555
H6B C3B 1_555 1_555
C3B O2B 1_555 1_555

#END
