
#######################################################################
#
#                 Cambridge Crystallographic Data Centre
#                                CCDC 
#
#######################################################################
#
# If this CIF has been generated from an entry in the Cambridge 
# Structural Database, then it will include bibliographic, chemical, 
# crystal, experimental, refinement or atomic coordinate data resulting 
# from the CCDC's data processing and validation procedures.
#
#######################################################################

data_CEHLEJ
_chemical_formula_moiety         'C42 H53 B2 N1 O8'
_chemical_name_systematic        
'dimethyl 3-[bis(4,4,5,5-tetramethyl-1,3,2-dioxaborolan-2-yl)amino]-3-methyl-2,4-bis[(naphthalen-2-yl)methyl]pentanedioate'
_symmetry_cell_setting           orthorhombic
_symmetry_space_group_name_H-M   'P n a 21'
_symmetry_Int_Tables_number      33
_space_group_name_Hall           'P 2c -2n'
loop_
_symmetry_equiv_pos_site_id
_symmetry_equiv_pos_as_xyz
1 x,y,z
2 -x,-y,1/2+z
3 1/2+x,1/2-y,z
4 1/2-x,1/2+y,1/2+z
_cell_length_a                   13.029(5)
_cell_length_b                   31.240(11)
_cell_length_c                   9.883(2)
_cell_angle_alpha                90
_cell_angle_beta                 90
_cell_angle_gamma                90
_cell_volume                     4022.64
_exptl_crystal_colour            colorless
_exptl_crystal_description       block
_cell_formula_units_Z            4
loop_
_atom_site_label
_atom_site_type_symbol
_atom_site_fract_x
_atom_site_fract_y
_atom_site_fract_z
B1 B 0.7297(3) 0.28941(14) 0.7352(4)
B2 B 0.6545(3) 0.33224(14) 0.5558(4)
C1 C 0.8952(3) 0.37678(13) 0.2687(4)
H1 H 0.8232 0.3791 0.2817
C2 C 0.9375(3) 0.39169(13) 0.1526(4)
H2 H 0.8948 0.4045 0.086
C3 C 1.0449(3) 0.38842(12) 0.1291(4)
C4 C 1.0924(3) 0.40361(12) 0.0082(4)
H3 H 1.0514 0.4159 -0.0611
C5 C 1.1961(3) 0.40071(13) -0.0090(4)
H4 H 1.2269 0.4116 -0.089
C6 C 1.2584(3) 0.38134(14) 0.0926(4)
H5 H 1.3306 0.3794 0.0803
C7 C 1.2148(3) 0.36577(13) 0.2062(4)
H6 H 1.2567 0.3523 0.2723
C8 C 1.1074(3) 0.36920(12) 0.2291(4)
C9 C 1.0603(3) 0.35438(13) 0.3501(4)
H7 H 1.1019 0.3418 0.4183
C10 C 0.9566(3) 0.35775(12) 0.3713(4)
C11 C 0.9078(3) 0.34316(13) 0.5025(4)
H8 H 0.961 0.3304 0.5616
H9 H 0.8559 0.3208 0.4829
C12 C 0.8563(3) 0.38064(12) 0.5765(3)
H10 H 0.8057 0.3935 0.5121
C13 C 0.9375(3) 0.41439(13) 0.6031(4)
C14 C 0.9808(4) 0.48734(15) 0.5700(6)
H11 H 1.0044 0.4889 0.664
H12 H 0.9479 0.5144 0.545
H13 H 1.0395 0.4821 0.5103
C15 C 0.7945(3) 0.36669(12) 0.7056(3)
C16 C 0.8661(3) 0.35102(12) 0.8165(3)
H14 H 0.8255 0.342 0.895
H15 H 0.9124 0.3742 0.8431
H16 H 0.9063 0.3267 0.7829
C17 C 0.7228(3) 0.40431(12) 0.7532(3)
H17 H 0.6752 0.4106 0.6765
C18 C 0.7746(3) 0.44631(12) 0.7906(4)
C19 C 0.7526(4) 0.52183(14) 0.7808(5)
H18 H 0.7501 0.5234 0.8798
H19 H 0.7058 0.5431 0.7422
H20 H 0.8227 0.5276 0.7499
C20 C 0.6550(3) 0.39252(13) 0.8765(4)
H21 H 0.63 0.3628 0.8664
H22 H 0.6968 0.394 0.9601
C21 C 0.5641(3) 0.42265(13) 0.8891(4)
C22 C 0.5608(3) 0.45533(13) 0.9894(4)
H23 H 0.6143 0.4572 1.0544
C23 C 0.4816(3) 0.48409(13) 0.9932(4)
H24 H 0.4807 0.5054 1.0618
C24 C 0.4004(3) 0.48289(13) 0.8969(4)
C25 C 0.3185(3) 0.51250(15) 0.8969(4)
H25 H 0.3162 0.5342 0.9641
C26 C 0.2423(3) 0.51036(16) 0.8015(4)
H26 H 0.1874 0.5304 0.8032
C27 C 0.2454(3) 0.47859(17) 0.7013(4)
H27 H 0.193 0.4775 0.6346
C28 C 0.3235(3) 0.44902(16) 0.6989(4)
H28 H 0.3239 0.4274 0.6313
C29 C 0.4036(3) 0.45039(13) 0.7962(4)
C30 C 0.4856(3) 0.42067(13) 0.7967(4)
H29 H 0.4863 0.3986 0.7307
C31 C 0.7587(4) 0.21806(14) 0.7687(4)
C32 C 0.6765(4) 0.19421(16) 0.6815(5)
H30 H 0.6152 0.2122 0.673
H31 H 0.6582 0.1672 0.7256
H32 H 0.7046 0.1883 0.5915
C33 C 0.8520(4) 0.19071(15) 0.7884(5)
H33 H 0.8768 0.1807 0.7002
H34 H 0.8344 0.166 0.8449
H35 H 0.9058 0.2075 0.8329
C34 C 0.7093(3) 0.23784(14) 0.8967(4)
C35 C 0.7906(4) 0.24511(15) 1.0082(4)
H36 H 0.8511 0.259 0.9688
H37 H 0.8106 0.2175 1.0472
H38 H 0.7618 0.2634 1.0792
C36 C 0.6152(3) 0.21520(13) 0.9515(4)
H39 H 0.5922 0.2295 1.0344
H40 H 0.6323 0.1853 0.9717
H41 H 0.5602 0.2161 0.8838
C37 C 0.5612(3) 0.35253(15) 0.3719(4)
C38 C 0.5871(4) 0.36544(19) 0.2275(4)
H42 H 0.6019 0.3962 0.2244
H43 H 0.5287 0.3591 0.1684
H44 H 0.6474 0.3494 0.1968
C39 C 0.4696(4) 0.37922(16) 0.4218(5)
H45 H 0.4542 0.3717 0.5159
H46 H 0.4095 0.3732 0.3652
H47 H 0.4866 0.4097 0.4162
C40 C 0.5490(3) 0.30349(15) 0.3972(4)
C41 C 0.6203(4) 0.27656(19) 0.3103(5)
H48 H 0.6907 0.2873 0.3187
H49 H 0.5985 0.2783 0.2155
H50 H 0.6177 0.2467 0.3405
C42 C 0.4392(3) 0.28645(16) 0.3881(5)
H51 H 0.4392 0.2555 0.4044
H52 H 0.4115 0.2923 0.2978
H53 H 0.3965 0.3006 0.4563
N1 N 0.7238(2) 0.33085(9) 0.6654(3)
O1 O 1.0206(2) 0.40825(9) 0.6545(3)
O2 O 0.9072(2) 0.45256(9) 0.5560(3)
O3 O 0.8467(2) 0.45044(9) 0.8659(3)
O4 O 0.7219(2) 0.47932(9) 0.7371(3)
O5 O 0.7881(2) 0.25634(9) 0.6911(3)
O6 O 0.6760(2) 0.28036(9) 0.8493(3)
O7 O 0.6481(2) 0.36363(9) 0.4583(2)
O8 O 0.5850(2) 0.29915(9) 0.5355(3)
loop_
_geom_bond_atom_site_label_1
_geom_bond_atom_site_label_2
_geom_bond_site_symmetry_1
_geom_bond_site_symmetry_2
B1 N1 1_555 1_555
B2 N1 1_555 1_555
C1 H1 1_555 1_555
C2 C1 1_555 1_555
H2 C2 1_555 1_555
C3 C2 1_555 1_555
C4 C3 1_555 1_555
H3 C4 1_555 1_555
C5 C4 1_555 1_555
H4 C5 1_555 1_555
C6 C5 1_555 1_555
H5 C6 1_555 1_555
C7 C6 1_555 1_555
H6 C7 1_555 1_555
C8 C3 1_555 1_555
C9 C8 1_555 1_555
H7 C9 1_555 1_555
C10 C1 1_555 1_555
C11 C10 1_555 1_555
H8 C11 1_555 1_555
H9 C11 1_555 1_555
C12 C11 1_555 1_555
H10 C12 1_555 1_555
C13 C12 1_555 1_555
C14 H11 1_555 1_555
H12 C14 1_555 1_555
H13 C14 1_555 1_555
C15 C12 1_555 1_555
C16 C15 1_555 1_555
H14 C16 1_555 1_555
H15 C16 1_555 1_555
H16 C16 1_555 1_555
C17 C15 1_555 1_555
H17 C17 1_555 1_555
C18 C17 1_555 1_555
C19 H18 1_555 1_555
H19 C19 1_555 1_555
H20 C19 1_555 1_555
C20 C17 1_555 1_555
H21 C20 1_555 1_555
H22 C20 1_555 1_555
C21 C20 1_555 1_555
C22 C21 1_555 1_555
H23 C22 1_555 1_555
C23 C22 1_555 1_555
H24 C23 1_555 1_555
C24 C23 1_555 1_555
C25 C24 1_555 1_555
H25 C25 1_555 1_555
C26 C25 1_555 1_555
H26 C26 1_555 1_555
C27 C26 1_555 1_555
H27 C27 1_555 1_555
C28 C27 1_555 1_555
H28 C28 1_555 1_555
C29 C24 1_555 1_555
C30 C21 1_555 1_555
H29 C30 1_555 1_555
C31 C32 1_555 1_555
C32 H30 1_555 1_555
H31 C32 1_555 1_555
H32 C32 1_555 1_555
C33 C31 1_555 1_555
H33 C33 1_555 1_555
H34 C33 1_555 1_555
H35 C33 1_555 1_555
C34 C31 1_555 1_555
C35 C34 1_555 1_555
H36 C35 1_555 1_555
H37 C35 1_555 1_555
H38 C35 1_555 1_555
C36 C34 1_555 1_555
H39 C36 1_555 1_555
H40 C36 1_555 1_555
H41 C36 1_555 1_555
C37 C38 1_555 1_555
C38 H42 1_555 1_555
H43 C38 1_555 1_555
H44 C38 1_555 1_555
C39 C37 1_555 1_555
H45 C39 1_555 1_555
H46 C39 1_555 1_555
H47 C39 1_555 1_555
C40 C37 1_555 1_555
C41 C40 1_555 1_555
H48 C41 1_555 1_555
H49 C41 1_555 1_555
H50 C41 1_555 1_555
C42 C40 1_555 1_555
H51 C42 1_555 1_555
H52 C42 1_555 1_555
H53 C42 1_555 1_555
N1 C15 1_555 1_555
O1 C13 1_555 1_555
O2 C13 1_555 1_555
O3 C18 1_555 1_555
O4 C18 1_555 1_555
O5 B1 1_555 1_555
O6 B1 1_555 1_555
O7 B2 1_555 1_555
O8 B2 1_555 1_555
C7 C8 1_555 1_555
C9 C10 1_555 1_555
C14 O2 1_555 1_555
C19 O4 1_555 1_555
C28 C29 1_555 1_555
C29 C30 1_555 1_555
C31 O5 1_555 1_555
C34 O6 1_555 1_555
C37 O7 1_555 1_555
C40 O8 1_555 1_555

#END
