
#######################################################################
#
#                 Cambridge Crystallographic Data Centre
#                                CCDC 
#
#######################################################################
#
# If this CIF has been generated from an entry in the Cambridge 
# Structural Database, then it will include bibliographic, chemical, 
# crystal, experimental, refinement or atomic coordinate data resulting 
# from the CCDC's data processing and validation procedures.
#
#######################################################################

data_CEHYAS
_chemical_formula_moiety         'C18 H16 O2 S2'
_chemical_name_systematic        
(4-benzyl-2-(methylsulfanyl)-1,3-oxathiol-2-yl)(phenyl)methanone
_symmetry_cell_setting           monoclinic
_symmetry_space_group_name_H-M   'P 21/c'
_symmetry_Int_Tables_number      14
_space_group_name_Hall           '-P 2ybc'
loop_
_symmetry_equiv_pos_site_id
_symmetry_equiv_pos_as_xyz
1 x,y,z
2 -x,1/2+y,1/2-z
3 -x,-y,-z
4 x,1/2-y,1/2+z
_cell_length_a                   25.918(4)
_cell_length_b                   6.060(8)
_cell_length_c                   23.623(5)
_cell_angle_alpha                90
_cell_angle_beta                 117.01(3)
_cell_angle_gamma                90
_cell_volume                     3305.61
_exptl_crystal_colour            colorless
_exptl_crystal_description       needle
_cell_formula_units_Z            8
loop_
_atom_site_label
_atom_site_type_symbol
_atom_site_fract_x
_atom_site_fract_y
_atom_site_fract_z
S1 S 0.53619(6) 0.3903(2) 0.63415(6)
S2 S 0.45619(6) -0.0178(2) 0.60500(6)
O1 O 0.45271(17) 0.2790(7) 0.52141(17)
O2 O 0.43102(18) 0.4837(7) 0.65023(17)
C1 C 0.4631(2) 0.2762(9) 0.5865(3)
C2 C 0.5060(3) 0.2562(9) 0.5200(3)
H1 H 0.5077 0.2121 0.4831
C3 C 0.5540(2) 0.2996(9) 0.5729(3)
C4 C 0.4172(3) 0.4052(9) 0.5969(3)
C5 C 0.3568(3) 0.4321(10) 0.5431(3)
C6 C 0.3312(3) 0.2828(11) 0.4928(3)
H2 H 0.3516 0.1593 0.4908
C7 C 0.2747(3) 0.3204(12) 0.4456(3)
H3 H 0.2574 0.2196 0.4126
C8 C 0.2444(3) 0.5037(12) 0.4474(3)
H4 H 0.2072 0.5273 0.4152
C9 C 0.2693(3) 0.6562(13) 0.4975(4)
H5 H 0.2490 0.7812 0.4985
C10 C 0.3255(3) 0.6166(11) 0.5459(3)
H6 H 0.3420 0.7134 0.5801
C11 C 0.4903(3) -0.0161(11) 0.6911(3)
H7 H 0.4701 0.0843 0.7054
H8 H 0.5299 0.0301 0.7071
H9 H 0.4890 -0.1619 0.7063
C12 C 0.6159(3) 0.2881(10) 0.5824(3)
H10 H 0.6337 0.4321 0.5957
H11 H 0.6154 0.2534 0.5421
C13 C 0.6530(3) 0.1169(10) 0.6316(3)
C14 C 0.7137(3) 0.1475(12) 0.6658(3)
H12 H 0.7306 0.2726 0.6585
C15 C 0.7483(3) -0.0085(12) 0.7103(3)
H13 H 0.7880 0.0151 0.7328
C16 C 0.7242(3) -0.2001(12) 0.7217(3)
H14 H 0.7474 -0.3053 0.7508
C17 C 0.6643(3) -0.2287(12) 0.6881(3)
H15 H 0.6475 -0.3540 0.6954
C18 C 0.6297(3) -0.0753(10) 0.6444(3)
H16 H 0.5899 -0.0993 0.6229
S3 S 0.86724(7) 0.4396(3) 0.82039(7)
S4 S 0.89621(8) 0.0582(3) 0.91087(8)
O3 O 0.94395(18) 0.4699(7) 0.93980(19)
O4 O 0.8672(2) 0.5095(9) 0.9841(2)
C19 C 0.8895(3) 0.3628(11) 0.9040(3)
C20 C 0.9732(3) 0.4951(10) 0.9037(3)
H17 H 1.0132 0.5141 0.9224
C21 C 0.9412(3) 0.4908(10) 0.8404(3)
C22 C 0.8472(3) 0.4473(11) 0.9295(3)
C23 C 0.7824(3) 0.4424(11) 0.8875(3)
C24 C 0.7546(3) 0.2716(11) 0.8436(3)
H18 H 0.7761 0.1565 0.8389
C25 C 0.6944(3) 0.2770(14) 0.8070(3)
H19 H 0.6756 0.1633 0.7786
C26 C 0.6622(3) 0.4548(16) 0.8132(3)
H20 H 0.6224 0.4605 0.7878
C27 C 0.6891(4) 0.6182(15) 0.8562(4)
H21 H 0.6674 0.7338 0.8602
C28 C 0.7492(3) 0.6137(13) 0.8944(3)
H22 H 0.7671 0.7240 0.9244
C29 C 0.9259(4) 0.0177(15) 0.9960(4)
H23 H 0.9331 -0.1365 1.0056
H24 H 0.8988 0.0699 1.0102
H25 H 0.9615 0.0982 1.0172
C30 C 0.9629(3) 0.5075(11) 0.7911(3)
H26 H 0.9615 0.3619 0.7735
H27 H 1.0032 0.5528 0.8122
C31 C 0.9299(3) 0.6665(11) 0.7367(3)
C32 C 0.9099(3) 0.8714(12) 0.7465(3)
H28 H 0.9160 0.9117 0.7871
C33 C 0.8807(3) 1.0152(12) 0.6954(3)
H29 H 0.8661 1.1471 0.7023
C34 C 0.8731(3) 0.9669(13) 0.6354(3)
H30 H 0.8551 1.0673 0.6024
C35 C 0.8929(3) 0.7637(12) 0.6247(3)
H31 H 0.8868 0.7270 0.5839
C36 C 0.9215(3) 0.6153(12) 0.6746(3)
H32 H 0.9352 0.4823 0.6670
loop_
_geom_bond_atom_site_label_1
_geom_bond_atom_site_label_2
_geom_bond_site_symmetry_1
_geom_bond_site_symmetry_2
S1 C1 1_555 1_555
S2 C1 1_555 1_555
O1 C1 1_555 1_555
O2 C4 1_555 1_555
C1 C4 1_555 1_555
C2 O1 1_555 1_555
H1 C2 1_555 1_555
C3 S1 1_555 1_555
C4 C5 1_555 1_555
C5 C6 1_555 1_555
C6 H2 1_555 1_555
C7 C6 1_555 1_555
H3 C7 1_555 1_555
C8 C7 1_555 1_555
H4 C8 1_555 1_555
C9 C8 1_555 1_555
H5 C9 1_555 1_555
C10 C5 1_555 1_555
H6 C10 1_555 1_555
C11 S2 1_555 1_555
H7 C11 1_555 1_555
H8 C11 1_555 1_555
H9 C11 1_555 1_555
C12 C3 1_555 1_555
H10 C12 1_555 1_555
H11 C12 1_555 1_555
C13 C12 1_555 1_555
C14 C13 1_555 1_555
H12 C14 1_555 1_555
C15 C14 1_555 1_555
H13 C15 1_555 1_555
C16 C15 1_555 1_555
H14 C16 1_555 1_555
C17 C16 1_555 1_555
H15 C17 1_555 1_555
C18 C13 1_555 1_555
H16 C18 1_555 1_555
S3 C19 1_555 1_555
S4 C19 1_555 1_555
O3 C19 1_555 1_555
O4 C22 1_555 1_555
C19 C22 1_555 1_555
C20 O3 1_555 1_555
H17 C20 1_555 1_555
C21 S3 1_555 1_555
C22 C23 1_555 1_555
C23 C24 1_555 1_555
C24 H18 1_555 1_555
C25 C24 1_555 1_555
H19 C25 1_555 1_555
C26 C25 1_555 1_555
H20 C26 1_555 1_555
C27 C26 1_555 1_555
H21 C27 1_555 1_555
C28 C23 1_555 1_555
H22 C28 1_555 1_555
C29 S4 1_555 1_555
H23 C29 1_555 1_555
H24 C29 1_555 1_555
H25 C29 1_555 1_555
C30 C21 1_555 1_555
H26 C30 1_555 1_555
H27 C30 1_555 1_555
C31 C30 1_555 1_555
C32 C31 1_555 1_555
H28 C32 1_555 1_555
C33 C32 1_555 1_555
H29 C33 1_555 1_555
C34 C33 1_555 1_555
H30 C34 1_555 1_555
C35 C34 1_555 1_555
H31 C35 1_555 1_555
C36 C31 1_555 1_555
H32 C36 1_555 1_555
C2 C3 1_555 1_555
C9 C10 1_555 1_555
C17 C18 1_555 1_555
C20 C21 1_555 1_555
C27 C28 1_555 1_555
C35 C36 1_555 1_555

#END
