
#######################################################################
#
#                 Cambridge Crystallographic Data Centre
#                                CCDC 
#
#######################################################################
#
# If this CIF has been generated from an entry in the Cambridge 
# Structural Database, then it will include bibliographic, chemical, 
# crystal, experimental, refinement or atomic coordinate data resulting 
# from the CCDC's data processing and validation procedures.
#
#######################################################################

data_CEJVIW
_chemical_name_common            "18-Crown-6 N,N'-diformohydrazide"
_chemical_formula_moiety         'C12 H24 O6,2(C2 H4 N2 O2)'
_chemical_name_systematic        
"1,4,7,10,13,16-Hexaoxacyclo-octadecane N,N'-diformohydrazide"
_symmetry_cell_setting           monoclinic
_symmetry_space_group_name_H-M   'P 21/n'
_symmetry_Int_Tables_number      14
_space_group_name_Hall           '-P 2yn'
loop_
_symmetry_equiv_pos_site_id
_symmetry_equiv_pos_as_xyz
1 x,y,z
2 1/2-x,1/2+y,1/2-z
3 -x,-y,-z
4 1/2+x,1/2-y,1/2+z
_cell_length_a                   14.176(2)
_cell_length_b                   9.968(2)
_cell_length_c                   8.121(1)
_cell_angle_alpha                90
_cell_angle_beta                 103.34(1)
_cell_angle_gamma                90
_cell_volume                     1116.59
_exptl_crystal_colour            colorless
_cell_formula_units_Z            2
loop_
_atom_site_label
_atom_site_type_symbol
_atom_site_fract_x
_atom_site_fract_y
_atom_site_fract_z
O1 O 0.50990 0.25090 0.35870
C1 C 0.60580 0.20010 0.39550
C2 C 0.67250 0.30180 0.34760
O2 O 0.68510 0.40900 0.46470
C3 C 0.74640 0.51050 0.42710
C4 C 0.75140 0.62170 0.55260
O3 O 0.65910 0.68360 0.52550
C5 C 0.65600 0.78710 0.64600
C6 C 0.44330 0.15420 0.39350
H3 H 0.63000 0.18000 0.52900
H4 H 0.60800 0.10800 0.32500
H5 H 0.74200 0.25600 0.35100
H6 H 0.64100 0.33800 0.22100
H7 H 0.81800 0.46900 0.43700
H8 H 0.71800 0.54800 0.30000
H9 H 0.77200 0.58200 0.68000
H10 H 0.80500 0.69400 0.53400
H11 H 0.67300 0.74600 0.77200
H12 H 0.70800 0.86400 0.63600
H13 H 0.44500 0.06800 0.31400
H14 H 0.46400 0.12400 0.52500
C6B C 0.55670 0.84580 0.60650
C5B C 0.34400 0.21290 0.35400
O1B O 0.49010 0.74910 0.64130
H13B H 0.55500 0.93200 0.68600
H14B H 0.53600 0.87600 0.47500
O3B O 0.34090 0.31640 0.47450
H11B H 0.32700 0.25400 0.22800
H12B H 0.29200 0.13600 0.36400
C1B C 0.39420 0.79990 0.60450
C4B C 0.24860 0.37830 0.44740
C2B C 0.32750 0.69820 0.65240
H3B H 0.37000 0.82000 0.47100
H4B H 0.39200 0.89200 0.67500
C3B C 0.25360 0.48950 0.57290
H9B H 0.22800 0.41800 0.32000
H10B H 0.19500 0.30600 0.46600
O2B O 0.31490 0.59100 0.53530
H5B H 0.25800 0.74400 0.64900
H6B H 0.35900 0.66200 0.77900
H7B H 0.18200 0.53100 0.56300
H8B H 0.28200 0.45200 0.70000
N1 N 0.50500 0.61680 0.24380
C7 C 0.42750 0.54030 0.22470
O4 O 0.37600 0.50670 0.08850
N2 N 0.53390 0.67410 0.10600
C8 C 0.52080 0.80450 0.07080
O5 O 0.48690 0.88310 0.15290
H1 H 0.54500 0.63200 0.33900
H2 H 0.56100 0.61600 0.04700
H15 H 0.40900 0.50400 0.33800
H16 H 0.54300 0.84000 -0.04000
loop_
_geom_bond_atom_site_label_1
_geom_bond_atom_site_label_2
_geom_bond_site_symmetry_1
_geom_bond_site_symmetry_2
O1 C1 1_555 1_555
C1 C2 1_555 1_555
C2 O2 1_555 1_555
O2 C3 1_555 1_555
C3 C4 1_555 1_555
C4 O3 1_555 1_555
O3 C5 1_555 1_555
C5 H11 1_555 1_555
C6 O1 1_555 1_555
N1 C7 1_555 1_555
C7 O4 1_555 1_555
N2 N1 1_555 1_555
C8 N2 1_555 1_555
O5 C8 1_555 1_555
H1 N1 1_555 1_555
H2 N2 1_555 1_555
H3 C1 1_555 1_555
H4 C1 1_555 1_555
H5 C2 1_555 1_555
H6 C2 1_555 1_555
H7 C3 1_555 1_555
H8 C3 1_555 1_555
H9 C4 1_555 1_555
H10 C4 1_555 1_555
H12 C5 1_555 1_555
H13 C6 1_555 1_555
H14 C6 1_555 1_555
H15 C7 1_555 1_555
H16 C8 1_555 1_555
C6B C5 1_555 1_555
C5B C6 1_555 1_555
O1B C6B 1_555 1_555
H13B C6B 1_555 1_555
H14B C6B 1_555 1_555
O3B C5B 1_555 1_555
H11B C5B 1_555 1_555
H12B C5B 1_555 1_555
C1B O1B 1_555 1_555
C4B O3B 1_555 1_555
C2B C1B 1_555 1_555
H3B C1B 1_555 1_555
H4B C1B 1_555 1_555
C3B C4B 1_555 1_555
H9B C4B 1_555 1_555
H10B C4B 1_555 1_555
O2B C2B 1_555 1_555
H5B C2B 1_555 1_555
H6B C2B 1_555 1_555
H7B C3B 1_555 1_555
H8B C3B 1_555 1_555
C3B O2B 1_555 1_555

#END
