
#######################################################################
#
#                 Cambridge Crystallographic Data Centre
#                                CCDC 
#
#######################################################################
#
# If this CIF has been generated from an entry in the Cambridge 
# Structural Database, then it will include bibliographic, chemical, 
# crystal, experimental, refinement or atomic coordinate data resulting 
# from the CCDC's data processing and validation procedures.
#
#######################################################################

data_CEKBEB
_chemical_formula_moiety         '2(C6 H1 N12 O3 1-),C1 H8 N4 O1 2+,4(H2 O1)'
_chemical_name_systematic        
"2,2'-Carbonyldihydrazinium bis(5-(4-((4-(1H-tetrazol-5-yl)-1,2,5-oxadiazol-3-yl)oxy)-1,2,5-oxadiazol-3-yl)tetrazol-1-ide) tetrahydrate"
_symmetry_cell_setting           monoclinic
_symmetry_space_group_name_H-M   'P 21'
_symmetry_Int_Tables_number      4
_space_group_name_Hall           'P 2yb'
loop_
_symmetry_equiv_pos_site_id
_symmetry_equiv_pos_as_xyz
1 x,y,z
2 -x,1/2+y,-z
_cell_length_a                   12.2118(10)
_cell_length_b                   9.2324(5)
_cell_length_c                   13.7527(14)
_cell_angle_alpha                90
_cell_angle_beta                 114.505(4)
_cell_angle_gamma                90
_cell_volume                     1410.87
_exptl_crystal_colour            colorless
_exptl_crystal_description       block
_cell_formula_units_Z            2
loop_
_atom_site_label
_atom_site_type_symbol
_atom_site_fract_x
_atom_site_fract_y
_atom_site_fract_z
O1 O 1.40807(15) 0.2687(2) 0.66514(13)
O2 O 1.16498(14) 0.1432(2) 0.44684(12)
O3 O 1.15374(14) 0.27624(19) 0.20986(12)
N1 N 1.34787(18) 0.2641(2) 0.55408(15)
N2 N 1.34738(17) 0.1930(2) 0.71391(15)
N3 N 1.15568(17) 0.0257(2) 0.74194(15)
N4 N 1.05138(19) -0.0475(2) 0.71688(17)
N5 N 0.99262(18) -0.0580(2) 0.61398(16)
N6 N 1.05837(16) 0.0093(2) 0.57036(16)
N7 N 1.21657(17) 0.2673(2) 0.32056(15)
N8 N 1.04694(17) 0.1995(2) 0.17391(15)
N9 N 0.84572(17) 0.0235(2) 0.17409(15)
N10 N 0.77755(17) -0.0502(2) 0.21293(16)
N11 N 0.83074(17) -0.0545(2) 0.31784(16)
N12 N 0.93610(16) 0.0161(2) 0.35102(14)
C1 C 1.25455(19) 0.1863(3) 0.53869(17)
C2 C 1.25183(19) 0.1417(2) 0.63606(17)
C3 C 1.15775(19) 0.0596(2) 0.65005(17)
C4 C 1.1475(2) 0.1880(2) 0.34844(17)
C5 C 1.04171(19) 0.1459(2) 0.25941(17)
C6 C 0.94193(18) 0.0625(2) 0.26114(17)
H9 H 1.027(3) 0.013(4) 0.496(3)
O4 O 0.91416(15) 0.2551(2) 0.65366(13)
O5 O 0.65279(15) 0.1477(2) 0.44704(12)
O6 O 0.63719(15) 0.2569(2) 0.20329(13)
N13 N 0.84481(18) 0.2536(3) 0.54358(16)
N14 N 0.85706(18) 0.1861(2) 0.70854(16)
N15 N 0.66579(17) 0.0372(2) 0.75216(15)
N16 N 0.56283(19) -0.0372(2) 0.73249(16)
N17 N 0.49973(18) -0.0509(2) 0.63048(17)
N18 N 0.56123(17) 0.0146(2) 0.58155(15)
N19 N 0.70155(17) 0.2552(2) 0.31325(15)
N20 N 0.52921(18) 0.1830(2) 0.17235(15)
N21 N 0.32571(17) 0.0170(2) 0.18611(15)
N22 N 0.26271(17) -0.0532(2) 0.23239(16)
N23 N 0.32413(17) -0.0548(2) 0.33646(16)
N24 N 0.42868(16) 0.0146(2) 0.36195(14)
C7 C 0.74942(19) 0.1842(3) 0.53473(17)
C8 C 0.75437(19) 0.1422(2) 0.63532(17)
C9 C 0.66248(19) 0.0675(2) 0.65663(17)
C10 C 0.6332(2) 0.1826(2) 0.34579(17)
C11 C 0.52548(19) 0.1366(2) 0.26002(17)
C12 C 0.42697(19) 0.0565(2) 0.26827(17)
H10 H 0.527(3) 0.014(4) 0.503(3)
O7 O 0.42883(14) 0.60424(17) 0.03619(13)
N25 N 0.46590(17) 0.8479(2) 0.05298(16)
N26 N 0.57816(17) 0.8267(2) 0.04774(17)
N27 N 0.28232(17) 0.7644(2) 0.02733(16)
N28 N 0.21059(17) 0.6447(2) 0.03128(16)
C13 C 0.39612(19) 0.7282(2) 0.03856(17)
H11 H 0.428(3) 0.933(3) 0.024(2)
H12 H 0.284(3) 0.840(4) 0.059(2)
H13 H 0.641(2) 0.862(3) 0.116(2)
H14 H 0.578(3) 0.873(4) -0.012(2)
H15 H 0.245(2) 0.592(3) 0.097(2)
H16 H 0.595(2) 0.723(4) 0.045(2)
H17 H 0.131(3) 0.677(4) 0.030(3)
H18 H 0.197(2) 0.589(3) -0.034(2)
O8 O 0.04571(14) 0.83298(19) 0.06798(13)
H1 H 0.0336 0.8996 0.0226
H2 H 0.1028 0.8535 0.1249
O9 O 0.68898(13) 0.57202(19) 0.04567(13)
H3 H 0.7407 0.5531 0.1101
H4 H 0.7268 0.6238 0.0185
O10 O 0.22187(18) 0.3185(3) 0.02638(16)
H5 H 0.2292 0.3115 0.0918
H6 H 0.1460 0.3089 -0.0140
O11 O 0.96940(19) 0.5374(2) 0.07820(15)
H7 H 0.9859 0.6269 0.0839
H8 H 0.9833 0.5030 0.1388
loop_
_geom_bond_atom_site_label_1
_geom_bond_atom_site_label_2
_geom_bond_site_symmetry_1
_geom_bond_site_symmetry_2
O1 N1 1_555 1_555
O2 C1 1_555 1_555
O3 N7 1_555 1_555
O4 N13 1_555 1_555
O5 C7 1_555 1_555
O6 N19 1_555 1_555
O7 C13 1_555 1_555
O8 H1 1_555 1_555
H2 O8 1_555 1_555
O9 H3 1_555 1_555
H4 O9 1_555 1_555
O10 H5 1_555 1_555
H6 O10 1_555 1_555
O11 H7 1_555 1_555
H8 O11 1_555 1_555
N1 C1 1_555 1_555
N2 O1 1_555 1_555
N3 N4 1_555 1_555
N4 N5 1_555 1_555
N5 N6 1_555 1_555
N6 C3 1_555 1_555
N7 C4 1_555 1_555
N8 O3 1_555 1_555
N9 N10 1_555 1_555
N10 N11 1_555 1_555
N11 N12 1_555 1_555
N12 C6 1_555 1_555
N13 C7 1_555 1_555
N14 O4 1_555 1_555
N15 N16 1_555 1_555
N16 N17 1_555 1_555
N17 N18 1_555 1_555
N18 C9 1_555 1_555
N19 C10 1_555 1_555
N20 O6 1_555 1_555
N21 N22 1_555 1_555
N22 N23 1_555 1_555
N23 N24 1_555 1_555
N24 C12 1_555 1_555
N25 N26 1_555 1_555
N26 H13 1_555 1_555
N27 N28 1_555 1_555
N28 H15 1_555 1_555
C1 C2 1_555 1_555
C2 N2 1_555 1_555
C3 N3 1_555 1_555
C4 O2 1_555 1_555
C5 N8 1_555 1_555
C6 N9 1_555 1_555
C7 C8 1_555 1_555
C8 N14 1_555 1_555
C9 N15 1_555 1_555
C10 O5 1_555 1_555
C11 N20 1_555 1_555
C12 N21 1_555 1_555
C13 N25 1_555 1_555
H9 N6 1_555 1_555
H10 N18 1_555 1_555
H11 N25 1_555 1_555
H12 N27 1_555 1_555
H14 N26 1_555 1_555
H16 N26 1_555 1_555
H17 N28 1_555 1_555
H18 N28 1_555 1_555
N27 C13 1_555 1_555
C2 C3 1_555 1_555
C4 C5 1_555 1_555
C5 C6 1_555 1_555
C8 C9 1_555 1_555
C10 C11 1_555 1_555
C11 C12 1_555 1_555

#END
