
#######################################################################
#
#                 Cambridge Crystallographic Data Centre
#                                CCDC 
#
#######################################################################
#
# If this CIF has been generated from an entry in the Cambridge 
# Structural Database, then it will include bibliographic, chemical, 
# crystal, experimental, refinement or atomic coordinate data resulting 
# from the CCDC's data processing and validation procedures.
#
#######################################################################

data_CELPIT
_chemical_formula_moiety         'C15 H15 N3 O1,3(H2 O1)'
_chemical_name_systematic        
'2,4-Dimethylbenzaldehyde isonicotinoylhydrazone trihydrate'
_symmetry_cell_setting           triclinic
_symmetry_space_group_name_H-M   'P -1'
_symmetry_Int_Tables_number      2
_space_group_name_Hall           '-P 1'
loop_
_symmetry_equiv_pos_site_id
_symmetry_equiv_pos_as_xyz
1 x,y,z
2 -x,-y,-z
_cell_length_a                   8.6765(7)
_cell_length_b                   9.0833(6)
_cell_length_c                   11.2901(9)
_cell_angle_alpha                73.870(5)
_cell_angle_beta                 82.182(4)
_cell_angle_gamma                65.147(3)
_cell_volume                     775.41
_exptl_crystal_colour            colorless
_exptl_crystal_description       plate
_chemical_melting_point          '426-428 K'
_cell_formula_units_Z            2
_exptl_crystal_recrystallization_method ethanol
loop_
_atom_site_label
_atom_site_type_symbol
_atom_site_fract_x
_atom_site_fract_y
_atom_site_fract_z
N1 N 0.2169(3) 1.0095(3) 0.9871(2)
C1 C 0.1455(3) 1.0629(3) 0.8769(2)
C2 C 0.2313(3) 1.0178(3) 0.7707(2)
C3 C 0.4029(3) 0.9121(3) 0.7791(2)
C4 C 0.4785(3) 0.8564(3) 0.8929(2)
C5 C 0.3818(3) 0.9067(3) 0.9933(2)
C6 C 0.5127(3) 0.8535(3) 0.6724(2)
N2 N 0.4347(3) 0.8323(2) 0.58802(18)
N3 N 0.5332(3) 0.7642(2) 0.49314(18)
C7 C 0.4568(3) 0.7205(3) 0.4289(2)
O1 O 0.6657(2) 0.8211(2) 0.66977(17)
C8 C 0.5462(3) 0.6394(3) 0.3301(2)
C9 C 0.4641(3) 0.5826(3) 0.2649(2)
C10 C 0.2828(3) 0.6044(3) 0.2934(3)
C11 C 0.5569(4) 0.5033(3) 0.1726(2)
C12 C 0.7251(3) 0.4794(3) 0.1434(2)
C13 C 0.8202(4) 0.3953(3) 0.0420(3)
C14 C 0.7166(3) 0.6140(3) 0.3016(2)
C15 C 0.8039(4) 0.5363(3) 0.2088(2)
H1 H 0.0286 1.1363 0.8708
H2 H 0.1744 1.0580 0.6947
H3 H 0.5955 0.7843 0.9016
H4 H 0.4350 0.8663 1.0708
H5 H 0.3271 0.8485 0.5900
H6 H 0.3403 0.7411 0.4458
H7 H 0.2719 0.5465 0.3793
H8 H 0.2484 0.5572 0.2386
H9 H 0.2095 0.7238 0.2808
H10 H 0.5027 0.4643 0.1281
H11 H 0.8224 0.4804 -0.0331
H12 H 0.7632 0.3301 0.0256
H13 H 0.9368 0.3206 0.0675
H14 H 0.7727 0.6504 0.3467
H15 H 0.9186 0.5219 0.1897
O2 O 0.0930(2) 0.8565(2) 0.58856(16)
H16 H 0.0215 0.8802 0.6588
H17 H 0.0929 0.7533 0.5820
O3 O 0.9437(2) 0.6726(2) 0.50801(17)
H18 H 0.8230 0.7273 0.5356
H19 H 1.0007 0.6616 0.5776
O4 O 0.8536(2) 0.9476(2) 0.76581(17)
H20 H 0.7745 0.9075 0.7469
H21 H 0.8235 0.9592 0.8407
H22? H 0.0157 0.9501 0.5321
H23? H 0.9841 0.5482 0.5085
loop_
_geom_bond_atom_site_label_1
_geom_bond_atom_site_label_2
_geom_bond_site_symmetry_1
_geom_bond_site_symmetry_2
N1 C1 1_555 1_555
C1 C2 1_555 1_555
C2 C3 1_555 1_555
C3 C4 1_555 1_555
C4 C5 1_555 1_555
C5 N1 1_555 1_555
C6 C3 1_555 1_555
N2 C6 1_555 1_555
N3 N2 1_555 1_555
C7 N3 1_555 1_555
O1 C6 1_555 1_555
C8 C7 1_555 1_555
C9 C8 1_555 1_555
C10 C9 1_555 1_555
C11 C9 1_555 1_555
C12 C11 1_555 1_555
C13 C12 1_555 1_555
C14 C8 1_555 1_555
C15 C12 1_555 1_555
H1 C1 1_555 1_555
H2 C2 1_555 1_555
H3 C4 1_555 1_555
H4 C5 1_555 1_555
H5 N2 1_555 1_555
H6 C7 1_555 1_555
H7 C10 1_555 1_555
H8 C10 1_555 1_555
H9 C10 1_555 1_555
H10 C11 1_555 1_555
H11 C13 1_555 1_555
H12 C13 1_555 1_555
H13 C13 1_555 1_555
H14 C14 1_555 1_555
H15 C15 1_555 1_555
O2 H16 1_555 1_555
H17 O2 1_555 1_555
O3 H18 1_555 1_555
H19 O3 1_555 1_555
O4 H20 1_555 1_555
H21 O4 1_555 1_555
C14 C15 1_555 1_555

#END
