
#######################################################################
#
#                 Cambridge Crystallographic Data Centre
#                                CCDC 
#
#######################################################################
#
# If this CIF has been generated from an entry in the Cambridge 
# Structural Database, then it will include bibliographic, chemical, 
# crystal, experimental, refinement or atomic coordinate data resulting 
# from the CCDC's data processing and validation procedures.
#
#######################################################################

data_CELQUF
_chemical_formula_moiety         'C71 Cl2,0.45(C5 H12),0.055(C7 H8)'
_chemical_name_systematic        
'7,8-DichloromethanohomoC70fullerene n-pentane toluene solvate'
_symmetry_cell_setting           monoclinic
_symmetry_space_group_name_H-M   'P 21/c'
_symmetry_Int_Tables_number      14
_space_group_name_Hall           '-P 2ybc'
loop_
_symmetry_equiv_pos_site_id
_symmetry_equiv_pos_as_xyz
1 x,y,z
2 x,1/2-y,1/2+z
3 -x,-y,-z
4 -x,1/2+y,1/2-z
_cell_length_a                   17.876(1)
_cell_length_b                   10.730(1)
_cell_length_c                   37.935(2)
_cell_angle_alpha                90
_cell_angle_beta                 96.75(1)
_cell_angle_gamma                90
_cell_volume                     7225.86
_exptl_crystal_colour            black
_exptl_crystal_description       laths
_cell_formula_units_Z            8
loop_
_atom_site_label
_atom_site_type_symbol
_atom_site_fract_x
_atom_site_fract_y
_atom_site_fract_z
Cl3 Cl 0.37673(6) 0.42238(10) 0.47785(3)
Cl4 Cl 0.47594(6) 0.59047(10) 0.44841(3)
C72 C 0.3844(2) 0.5199(4) 0.44087(10)
C73 C 0.3810(2) 0.6672(4) 0.37775(11)
C74 C 0.3725(2) 0.7349(4) 0.34584(11)
C75 C 0.3712(2) 0.6744(5) 0.31212(11)
C76 C 0.3761(2) 0.5461(4) 0.31042(11)
C77 C 0.3844(2) 0.4750(4) 0.34264(11)
C78 C 0.3904(2) 0.5319(4) 0.37556(11)
C79 C 0.3694(2) 0.4599(4) 0.40527(11)
C80 C 0.3232(2) 0.6122(4) 0.43196(10)
C81 C 0.3379(2) 0.7071(4) 0.40638(11)
C82 C 0.2861(3) 0.8018(4) 0.40011(11)
C83 C 0.2784(3) 0.8722(4) 0.36743(12)
C84 C 0.3219(3) 0.8402(4) 0.34112(12)
C85 C 0.2870(3) 0.8421(4) 0.30412(12)
C86 C 0.3182(2) 0.7398(5) 0.28610(11)
C87 C 0.2722(3) 0.6715(5) 0.26098(11)
C88 C 0.2776(2) 0.5374(5) 0.26001(11)
C89 C 0.3289(2) 0.4755(5) 0.28406(11)
C90 C 0.3081(2) 0.3614(4) 0.30005(11)
C91 C 0.3430(2) 0.3609(4) 0.33655(11)
C92 C 0.3067(2) 0.3053(4) 0.36360(11)
C93 C 0.3147(2) 0.3633(4) 0.39862(11)
C94 C 0.2520(2) 0.3556(4) 0.41887(11)
C95 C 0.2209(2) 0.4600(4) 0.43705(10)
C96 C 0.2475(2) 0.5855(4) 0.43748(10)
C97 C 0.1924(2) 0.6850(4) 0.42994(11)
C98 C 0.2129(2) 0.7925(4) 0.41212(11)
C99 C 0.1595(3) 0.8549(4) 0.38703(12)
C100 C 0.1998(3) 0.9043(4) 0.35941(13)
C101 C 0.1670(3) 0.9045(4) 0.32436(12)
C102 C 0.2115(3) 0.8730(4) 0.29633(12)
C103 C 0.1642(3) 0.8020(4) 0.27032(11)
C104 C 0.1931(3) 0.7029(5) 0.25313(11)
C105 C 0.1508(3) 0.5895(4) 0.24708(10)
C106 C 0.2028(3) 0.4862(5) 0.25144(10)
C107 C 0.1820(3) 0.3701(4) 0.26514(10)
C108 C 0.2372(3) 0.3060(4) 0.29061(11)
C109 C 0.2093(3) 0.2285(4) 0.31667(12)
C110 C 0.2435(2) 0.2299(4) 0.35243(11)
C111 C 0.1861(3) 0.2083(4) 0.37560(12)
C112 C 0.1896(2) 0.2716(4) 0.40741(11)
C113 C 0.1210(3) 0.3196(4) 0.41886(11)
C114 C 0.1398(3) 0.4369(5) 0.43642(10)
C115 C 0.0889(3) 0.5337(5) 0.43230(11)
C116 C 0.1148(3) 0.6584(5) 0.42768(11)
C117 C 0.0608(3) 0.7215(5) 0.40304(12)
C118 C 0.0843(3) 0.8122(4) 0.37978(12)
C119 C 0.0490(3) 0.8117(4) 0.34243(12)
C120 C 0.0924(3) 0.8543(4) 0.31585(12)
C121 C 0.0903(3) 0.7901(4) 0.28262(12)
C122 C 0.0457(2) 0.6829(4) 0.27503(11)
C123 C 0.0770(2) 0.5778(4) 0.25648(10)
C124 C 0.0522(2) 0.4555(4) 0.26317(11)
C125 C 0.1041(2) 0.3529(4) 0.26759(11)
C126 C 0.0779(3) 0.2677(4) 0.29300(12)
C127 C 0.1300(3) 0.2068(4) 0.31686(11)
C128 C 0.1148(3) 0.1919(4) 0.35340(12)
C129 C 0.0495(3) 0.2400(4) 0.36449(12)
C130 C 0.0521(3) 0.3035(5) 0.39819(12)
C131 C -0.0005(2) 0.4060(5) 0.39385(12)
C132 C 0.0171(3) 0.5184(5) 0.41056(12)
C133 C 0.0005(2) 0.6349(5) 0.39208(12)
C134 C -0.0322(2) 0.6347(5) 0.35741(12)
C135 C -0.0066(2) 0.7208(5) 0.33199(12)
C136 C -0.0082(2) 0.6570(4) 0.29891(12)
C137 C -0.0358(2) 0.5319(5) 0.30312(11)
C138 C -0.0062(2) 0.4333(4) 0.28598(11)
C139 C 0.0095(2) 0.3162(4) 0.30414(11)
C140 C -0.0048(2) 0.3027(5) 0.33943(12)
C141 C -0.0358(2) 0.4061(5) 0.35725(13)
C142 C -0.0512(2) 0.5178(5) 0.33974(12)
C143 C 0.2412(3) 0.4454(5) 0.71547(14)
H1 H 0.2169(3) 0.5240(5) 0.71057(14)
H2 H 0.2342(3) 0.3944(5) 0.69466(14)
H3 H 0.2197(3) 0.4050(5) 0.73437(14)
C144 C 0.3272(4) 0.4508(7) 0.7190(2)
H4 H 0.3288(4) 0.5079(7) 0.7384(2)
H5 H 0.3430(4) 0.4977(7) 0.6998(2)
C145 C 0.3678(3) 0.3430(7) 0.7343(2)
H6 H 0.3564(3) 0.2719(7) 0.7194(2)
H7 H 0.3596(3) 0.3164(7) 0.7576(2)
C146 C 0.4534(4) 0.3506(9) 0.7367(3)
H8 H 0.4712(4) 0.4114(9) 0.7542(3)
H9 H 0.4674(4) 0.3769(9) 0.7143(3)
C147 C 0.4890(4) 0.2275(7) 0.7498(2)
H10 H 0.5428(4) 0.2345(7) 0.7512(2)
H11 H 0.4753(4) 0.2019(7) 0.7724(2)
H12 H 0.4715(4) 0.1672(7) 0.7322(2)
Cl1 Cl 0.11924(6) 0.98935(10) 0.02921(3)
Cl2 Cl 0.01318(6) 0.79864(11) 0.00551(3)
C1 C 0.1054(2) 0.8264(4) 0.02857(11)
C2 C 0.1003(2) 0.5603(4) 0.03160(12)
C3 C 0.1034(2) 0.4309(4) 0.03502(13)
C4 C 0.1544(3) 0.3576(4) 0.01590(13)
C5 C 0.2014(2) 0.4172(4) -0.00542(11)
C6 C 0.1983(2) 0.5510(4) -0.00876(11)
C7 C 0.1472(2) 0.6218(4) 0.00747(10)
C8 C 0.1661(2) 0.7512(4) 0.01488(10)
C9 C 0.1174(2) 0.7629(4) 0.06358(11)
C10 C 0.0912(2) 0.6343(4) 0.06339(11)
C11 C 0.0934(2) 0.5749(4) 0.09593(12)
C12 C 0.0969(2) 0.4411(4) 0.09895(13)
C13 C 0.1012(2) 0.3708(4) 0.06897(13)
C14 C 0.1511(3) 0.2633(4) 0.07096(14)
C15 C 0.1843(3) 0.2555(4) 0.03830(13)
C16 C 0.2600(3) 0.2202(4) 0.03862(13)
C17 C 0.3074(3) 0.2855(4) 0.01660(12)
C18 C 0.2790(3) 0.3811(4) -0.00505(11)
C19 C 0.3238(2) 0.4916(4) -0.00849(10)
C20 C 0.2737(2) 0.5959(4) -0.01079(10)
C21 C 0.2969(2) 0.7123(4) 0.00392(10)
C22 C 0.2426(2) 0.7886(4) 0.02044(10)
C23 C 0.2708(2) 0.8626(4) 0.05024(11)
C24 C 0.2373(2) 0.8708(4) 0.08345(11)
C25 C 0.1719(2) 0.8047(4) 0.09116(10)
C26 C 0.1756(2) 0.7393(4) 0.12531(11)
C27 C 0.1349(2) 0.6275(4) 0.12731(11)
C28 C 0.1648(2) 0.5268(4) 0.14946(11)
C29 C 0.1413(2) 0.4112(5) 0.13219(12)
C30 C 0.1894(3) 0.3109(4) 0.13400(13)
C31 C 0.1943(3) 0.2340(4) 0.10270(14)
C32 C 0.2723(3) 0.1998(4) 0.10333(13)
C33 C 0.3041(3) 0.1930(4) 0.07192(13)
C34 C 0.3796(2) 0.2395(4) 0.07037(12)
C35 C 0.3819(2) 0.2959(4) 0.03642(11)
C36 C 0.4289(2) 0.3991(4) 0.03191(11)
C37 C 0.3983(2) 0.5016(4) 0.00870(11)
C38 C 0.4249(2) 0.6237(4) 0.01628(11)
C39 C 0.3747(2) 0.7267(4) 0.01445(10)
C40 C 0.4026(2) 0.8164(4) 0.04095(11)
C41 C 0.3515(2) 0.8807(4) 0.05902(11)
C42 C 0.3690(2) 0.9024(4) 0.09640(11)
C43 C 0.2986(2) 0.8923(4) 0.11179(11)
C44 C 0.2979(2) 0.8402(4) 0.14489(11)
C45 C 0.2374(2) 0.7583(4) 0.15112(11)
C46 C 0.2673(3) 0.6588(4) 0.17359(11)
C47 C 0.2357(3) 0.5385(4) 0.17034(11)
C48 C 0.2870(3) 0.4315(4) 0.17263(11)
C49 C 0.2636(3) 0.3216(4) 0.15367(12)
C50 C 0.3147(3) 0.2525(4) 0.13445(12)
C51 C 0.3907(2) 0.2909(4) 0.13423(12)
C52 C 0.4241(2) 0.2842(4) 0.10084(12)
C53 C 0.4816(2) 0.3710(4) 0.09497(12)
C54 C 0.4833(2) 0.4271(4) 0.06096(11)
C55 C 0.5135(2) 0.5530(4) 0.06661(11)
C56 C 0.4848(2) 0.6486(4) 0.04462(11)
C57 C 0.4716(2) 0.7689(4) 0.05985(12)
C58 C 0.4881(2) 0.7878(4) 0.09615(12)
C59 C 0.4351(2) 0.8579(4) 0.11501(12)
C60 C 0.4345(3) 0.8005(4) 0.14960(11)
C61 C 0.3666(3) 0.7928(4) 0.16415(11)
C62 C 0.3478(3) 0.6797(5) 0.18161(11)
C63 C 0.3958(3) 0.5786(5) 0.18356(11)
C64 C 0.3657(3) 0.4539(4) 0.17827(11)
C65 C 0.4171(3) 0.3843(4) 0.15905(11)
C66 C 0.4784(2) 0.4661(4) 0.15325(11)
C67 C 0.5102(2) 0.4591(4) 0.12169(12)
C68 C 0.5311(2) 0.5718(4) 0.10428(11)
C69 C 0.5185(2) 0.6875(4) 0.11894(12)
C70 C 0.4854(2) 0.6950(4) 0.15178(11)
C71 C 0.4664(2) 0.5860(5) 0.16860(11)
C148? C 0.4167(15) 0.2504(23) 0.7396(6)
C149? C 0.3412(14) 0.2875(27) 0.7342(10)
C150? C 0.3230(16) 0.4139(29) 0.7320(11)
C151? C 0.3804(20) 0.5031(23) 0.7352(9)
C152? C 0.4558(18) 0.4660(25) 0.7407(11)
C153? C 0.4740(14) 0.3396(27) 0.7429(10)
C154? C 0.4362(22) 0.1150(23) 0.7420(10)
H13? H 0.3019(16) 0.2264(32) 0.7319(15)
H14? H 0.2713(17) 0.4393(38) 0.7282(16)
H15? H 0.3678(26) 0.5898(24) 0.7337(12)
H16? H 0.4951(21) 0.5271(30) 0.7430(16)
H17? H 0.5258(14) 0.3142(35) 0.7467(15)
H18? H 0.3908(25) 0.0667(23) 0.7392(13)
H19? H 0.4663(25) 0.0939(28) 0.7236(12)
H20? H 0.4640(26) 0.0978(28) 0.7647(12)
loop_
_geom_bond_atom_site_label_1
_geom_bond_atom_site_label_2
_geom_bond_site_symmetry_1
_geom_bond_site_symmetry_2
Cl1 C1 1_555 1_555
Cl2 C1 1_555 1_555
C1 C8 1_555 1_555
C2 C3 1_555 1_555
C3 C4 1_555 1_555
C4 C5 1_555 1_555
C5 C6 1_555 1_555
C6 C7 1_555 1_555
C7 C2 1_555 1_555
C8 C7 1_555 1_555
C9 C1 1_555 1_555
C10 C2 1_555 1_555
C11 C10 1_555 1_555
C12 C11 1_555 1_555
C13 C3 1_555 1_555
C14 C13 1_555 1_555
C15 C4 1_555 1_555
C16 C15 1_555 1_555
C17 C16 1_555 1_555
C18 C5 1_555 1_555
C19 C18 1_555 1_555
C20 C6 1_555 1_555
C21 C20 1_555 1_555
C22 C8 1_555 1_555
C23 C22 1_555 1_555
C24 C23 1_555 1_555
C25 C9 1_555 1_555
C26 C25 1_555 1_555
C27 C11 1_555 1_555
C28 C27 1_555 1_555
C29 C12 1_555 1_555
C30 C29 1_555 1_555
C31 C14 1_555 1_555
C32 C31 1_555 1_555
C33 C16 1_555 1_555
C34 C33 1_555 1_555
C35 C17 1_555 1_555
C36 C35 1_555 1_555
C37 C19 1_555 1_555
C38 C37 1_555 1_555
C39 C21 1_555 1_555
C40 C39 1_555 1_555
C41 C23 1_555 1_555
C42 C41 1_555 1_555
C43 C24 1_555 1_555
C44 C43 1_555 1_555
C45 C26 1_555 1_555
C46 C45 1_555 1_555
C47 C28 1_555 1_555
C48 C47 1_555 1_555
C49 C30 1_555 1_555
C50 C32 1_555 1_555
C51 C50 1_555 1_555
C52 C34 1_555 1_555
C53 C52 1_555 1_555
C54 C36 1_555 1_555
C55 C54 1_555 1_555
C56 C38 1_555 1_555
C57 C40 1_555 1_555
C58 C57 1_555 1_555
C59 C42 1_555 1_555
C60 C59 1_555 1_555
C61 C44 1_555 1_555
C62 C46 1_555 1_555
C63 C62 1_555 1_555
C64 C48 1_555 1_555
C65 C51 1_555 1_555
C66 C65 1_555 1_555
C67 C53 1_555 1_555
C68 C55 1_555 1_555
C69 C58 1_555 1_555
C70 C60 1_555 1_555
C71 C63 1_555 1_555
Cl3 C72 1_555 1_555
Cl4 C72 1_555 1_555
C72 C79 1_555 1_555
C73 C74 1_555 1_555
C74 C75 1_555 1_555
C75 C76 1_555 1_555
C76 C77 1_555 1_555
C77 C78 1_555 1_555
C78 C73 1_555 1_555
C79 C78 1_555 1_555
C80 C72 1_555 1_555
C81 C73 1_555 1_555
C82 C81 1_555 1_555
C83 C82 1_555 1_555
C84 C74 1_555 1_555
C85 C84 1_555 1_555
C86 C75 1_555 1_555
C87 C86 1_555 1_555
C88 C87 1_555 1_555
C89 C76 1_555 1_555
C90 C89 1_555 1_555
C91 C77 1_555 1_555
C92 C91 1_555 1_555
C93 C79 1_555 1_555
C94 C93 1_555 1_555
C95 C94 1_555 1_555
C96 C80 1_555 1_555
C97 C96 1_555 1_555
C98 C82 1_555 1_555
C99 C98 1_555 1_555
C100 C83 1_555 1_555
C101 C100 1_555 1_555
C102 C85 1_555 1_555
C103 C102 1_555 1_555
C104 C87 1_555 1_555
C105 C104 1_555 1_555
C106 C88 1_555 1_555
C107 C106 1_555 1_555
C108 C90 1_555 1_555
C109 C108 1_555 1_555
C110 C92 1_555 1_555
C111 C110 1_555 1_555
C112 C94 1_555 1_555
C113 C112 1_555 1_555
C114 C95 1_555 1_555
C115 C114 1_555 1_555
C116 C97 1_555 1_555
C117 C116 1_555 1_555
C118 C99 1_555 1_555
C119 C118 1_555 1_555
C120 C101 1_555 1_555
C121 C103 1_555 1_555
C122 C121 1_555 1_555
C123 C105 1_555 1_555
C124 C123 1_555 1_555
C125 C107 1_555 1_555
C126 C125 1_555 1_555
C127 C109 1_555 1_555
C128 C111 1_555 1_555
C129 C128 1_555 1_555
C130 C113 1_555 1_555
C131 C130 1_555 1_555
C132 C115 1_555 1_555
C133 C117 1_555 1_555
C134 C133 1_555 1_555
C135 C119 1_555 1_555
C136 C122 1_555 1_555
C137 C136 1_555 1_555
C138 C124 1_555 1_555
C139 C126 1_555 1_555
C140 C129 1_555 1_555
C141 C131 1_555 1_555
C142 C134 1_555 1_555
C143 H1 1_555 1_555
H2 C143 1_555 1_555
H3 C143 1_555 1_555
C144 C143 1_555 1_555
H4 C144 1_555 1_555
H5 C144 1_555 1_555
C145 C144 1_555 1_555
H6 C145 1_555 1_555
H7 C145 1_555 1_555
C146 C145 1_555 1_555
H8 C146 1_555 1_555
H9 C146 1_555 1_555
C147 C146 1_555 1_555
H10 C147 1_555 1_555
H11 C147 1_555 1_555
H12 C147 1_555 1_555
C9 C10 1_555 1_555
C12 C13 1_555 1_555
C14 C15 1_555 1_555
C17 C18 1_555 1_555
C19 C20 1_555 1_555
C21 C22 1_555 1_555
C24 C25 1_555 1_555
C26 C27 1_555 1_555
C28 C29 1_555 1_555
C30 C31 1_555 1_555
C32 C33 1_555 1_555
C34 C35 1_555 1_555
C36 C37 1_555 1_555
C38 C39 1_555 1_555
C40 C41 1_555 1_555
C42 C43 1_555 1_555
C44 C45 1_555 1_555
C46 C47 1_555 1_555
C48 C49 1_555 1_555
C49 C50 1_555 1_555
C51 C52 1_555 1_555
C53 C54 1_555 1_555
C55 C56 1_555 1_555
C56 C57 1_555 1_555
C58 C59 1_555 1_555
C60 C61 1_555 1_555
C61 C62 1_555 1_555
C63 C64 1_555 1_555
C64 C65 1_555 1_555
C66 C67 1_555 1_555
C66 C71 1_555 1_555
C67 C68 1_555 1_555
C68 C69 1_555 1_555
C69 C70 1_555 1_555
C70 C71 1_555 1_555
C80 C81 1_555 1_555
C83 C84 1_555 1_555
C85 C86 1_555 1_555
C88 C89 1_555 1_555
C90 C91 1_555 1_555
C92 C93 1_555 1_555
C95 C96 1_555 1_555
C97 C98 1_555 1_555
C99 C100 1_555 1_555
C101 C102 1_555 1_555
C103 C104 1_555 1_555
C105 C106 1_555 1_555
C107 C108 1_555 1_555
C109 C110 1_555 1_555
C111 C112 1_555 1_555
C113 C114 1_555 1_555
C115 C116 1_555 1_555
C117 C118 1_555 1_555
C119 C120 1_555 1_555
C120 C121 1_555 1_555
C122 C123 1_555 1_555
C124 C125 1_555 1_555
C126 C127 1_555 1_555
C127 C128 1_555 1_555
C129 C130 1_555 1_555
C131 C132 1_555 1_555
C132 C133 1_555 1_555
C134 C135 1_555 1_555
C135 C136 1_555 1_555
C137 C138 1_555 1_555
C137 C142 1_555 1_555
C138 C139 1_555 1_555
C139 C140 1_555 1_555
C140 C141 1_555 1_555
C141 C142 1_555 1_555

#END
