
#######################################################################
#
#                 Cambridge Crystallographic Data Centre
#                                CCDC 
#
#######################################################################
#
# If this CIF has been generated from an entry in the Cambridge 
# Structural Database, then it will include bibliographic, chemical, 
# crystal, experimental, refinement or atomic coordinate data resulting 
# from the CCDC's data processing and validation procedures.
#
#######################################################################

data_CEMJEL
_chemical_formula_moiety         'C37 H28 N2 O1'
_chemical_name_systematic        
(9-Methyl-1,2,4-triphenyl-2,9-dihydro-1H-\b-carbolin-3-yl)(phenyl)methanone
_symmetry_cell_setting           triclinic
_symmetry_space_group_name_H-M   'P -1'
_symmetry_Int_Tables_number      2
_space_group_name_Hall           '-P 1'
loop_
_symmetry_equiv_pos_site_id
_symmetry_equiv_pos_as_xyz
1 x,y,z
2 -x,-y,-z
_cell_length_a                   9.4671(15)
_cell_length_b                   11.5833(19)
_cell_length_c                   13.909(2)
_cell_angle_alpha                104.931(2)
_cell_angle_beta                 103.435(2)
_cell_angle_gamma                103.977(2)
_cell_volume                     1357.72
_exptl_crystal_colour            orange
_exptl_crystal_description       block
_cell_formula_units_Z            2
loop_
_atom_site_label
_atom_site_type_symbol
_atom_site_fract_x
_atom_site_fract_y
_atom_site_fract_z
N1 N 0.5987(3) 0.0996(2) 0.12296(18)
N2 N 0.3319(3) 0.2781(2) 0.15967(18)
O1 O 0.0375(2) 0.2186(2) 0.26932(18)
C1 C 0.5828(3) -0.0112(3) 0.1459(2)
C2 C 0.6600(4) -0.0989(3) 0.1256(2)
H1 H 0.7381 -0.0862 0.0935
C3 C 0.6188(4) -0.2044(3) 0.1540(3)
H2 H 0.6699 -0.2652 0.1415
C4 C 0.5032(4) -0.2245(3) 0.2012(2)
H3 H 0.4771 -0.2986 0.2195
C5 C 0.4265(3) -0.1372(3) 0.2213(2)
H4 H 0.3480 -0.1513 0.2529
C6 C 0.4667(3) -0.0281(3) 0.1944(2)
C7 C 0.4133(3) 0.0793(3) 0.1998(2)
C8 C 0.4973(3) 0.1526(3) 0.1560(2)
C9 C 0.7134(3) 0.1541(3) 0.0794(2)
H5 H 0.6850 0.2189 0.0534
H6 H 0.7189 0.0878 0.0215
H7 H 0.8136 0.1921 0.1340
C10 C 0.3012(3) 0.1197(3) 0.2438(2)
C11 C 0.2641(3) 0.2187(3) 0.2218(2)
C12 C 0.1595(3) 0.2793(3) 0.2662(2)
C13 C 0.2112(3) 0.4210(3) 0.3058(2)
C14 C 0.1033(3) 0.4834(3) 0.2908(2)
H8 H -0.0018 0.4364 0.2550
C15 C 0.1495(4) 0.6136(3) 0.3280(2)
H9 H 0.0767 0.6565 0.3160
C16 C 0.3030(4) 0.6821(3) 0.3832(3)
H10 H 0.3347 0.7716 0.4090
C17 C 0.4093(4) 0.6203(3) 0.4005(3)
H11 H 0.5133 0.6673 0.4397
C18 C 0.3644(3) 0.4899(3) 0.3610(2)
H12 H 0.4380 0.4476 0.3715
C19 C 0.2472(3) 0.0622(2) 0.3184(2)
C20 C 0.0951(4) -0.0079(3) 0.2970(3)
H13 H 0.0212 -0.0194 0.2331
C21 C 0.0502(4) -0.0611(3) 0.3681(3)
H14 H -0.0539 -0.1094 0.3522
C22 C 0.1560(5) -0.0443(3) 0.4620(3)
H15 H 0.1243 -0.0798 0.5110
C23 C 0.3080(4) 0.0245(3) 0.4843(3)
H16 H 0.3811 0.0365 0.5487
C24 C 0.3533(4) 0.0758(3) 0.4123(2)
H17 H 0.4583 0.1210 0.4272
C25 C 0.4876(3) 0.2796(3) 0.1569(2)
H18 H 0.4986 0.2911 0.0899
C26 C 0.6152(3) 0.3858(3) 0.2486(2)
C27 C 0.6821(3) 0.3659(3) 0.3403(2)
H19 H 0.6548 0.2835 0.3449
C28 C 0.7887(4) 0.4658(3) 0.4255(3)
H20 H 0.8348 0.4510 0.4876
C29 C 0.8279(4) 0.5858(3) 0.4204(3)
H21 H 0.8976 0.6544 0.4796
C30 C 0.7652(4) 0.6059(3) 0.3288(4)
H22 H 0.7936 0.6884 0.3244
C31 C 0.6610(4) 0.5064(3) 0.2429(3)
H23 H 0.6206 0.5209 0.1795
C32 C 0.2323(3) 0.3033(3) 0.0804(2)
C33 C 0.2795(4) 0.4114(3) 0.0536(3)
H24 H 0.3811 0.4682 0.0868
C34 C 0.1776(5) 0.4353(4) -0.0214(3)
H25 H 0.2100 0.5091 -0.0390
C35 C 0.0295(5) 0.3543(5) -0.0712(3)
H26 H -0.0394 0.3720 -0.1225
C36 C -0.0167(4) 0.2479(4) -0.0456(3)
H27 H -0.1186 0.1918 -0.0793
C37 C 0.0840(4) 0.2208(3) 0.0295(2)
H28 H 0.0511 0.1460 0.0457
loop_
_geom_bond_atom_site_label_1
_geom_bond_atom_site_label_2
_geom_bond_site_symmetry_1
_geom_bond_site_symmetry_2
N1 C1 1_555 1_555
N2 C11 1_555 1_555
O1 C12 1_555 1_555
C1 C2 1_555 1_555
C2 H1 1_555 1_555
C3 C2 1_555 1_555
H2 C3 1_555 1_555
C4 C3 1_555 1_555
H3 C4 1_555 1_555
C5 C4 1_555 1_555
H4 C5 1_555 1_555
C6 C1 1_555 1_555
C7 C6 1_555 1_555
C8 N1 1_555 1_555
C9 N1 1_555 1_555
H5 C9 1_555 1_555
H6 C9 1_555 1_555
H7 C9 1_555 1_555
C10 C7 1_555 1_555
C11 C10 1_555 1_555
C12 C11 1_555 1_555
C13 C12 1_555 1_555
C14 C13 1_555 1_555
H8 C14 1_555 1_555
C15 C14 1_555 1_555
H9 C15 1_555 1_555
C16 C15 1_555 1_555
H10 C16 1_555 1_555
C17 C16 1_555 1_555
H11 C17 1_555 1_555
C18 C13 1_555 1_555
H12 C18 1_555 1_555
C19 C10 1_555 1_555
C20 C19 1_555 1_555
H13 C20 1_555 1_555
C21 C20 1_555 1_555
H14 C21 1_555 1_555
C22 C21 1_555 1_555
H15 C22 1_555 1_555
C23 C22 1_555 1_555
H16 C23 1_555 1_555
C24 C19 1_555 1_555
H17 C24 1_555 1_555
C25 N2 1_555 1_555
H18 C25 1_555 1_555
C26 C25 1_555 1_555
C27 C26 1_555 1_555
H19 C27 1_555 1_555
C28 C27 1_555 1_555
H20 C28 1_555 1_555
C29 C28 1_555 1_555
H21 C29 1_555 1_555
C30 C29 1_555 1_555
H22 C30 1_555 1_555
C31 C26 1_555 1_555
H23 C31 1_555 1_555
C32 N2 1_555 1_555
C33 C32 1_555 1_555
H24 C33 1_555 1_555
C34 C33 1_555 1_555
H25 C34 1_555 1_555
C35 C34 1_555 1_555
H26 C35 1_555 1_555
C36 C35 1_555 1_555
H27 C36 1_555 1_555
C37 C32 1_555 1_555
H28 C37 1_555 1_555
C5 C6 1_555 1_555
C7 C8 1_555 1_555
C8 C25 1_555 1_555
C17 C18 1_555 1_555
C23 C24 1_555 1_555
C30 C31 1_555 1_555
C36 C37 1_555 1_555

#END
