
#######################################################################
#
#                 Cambridge Crystallographic Data Centre
#                                CCDC 
#
#######################################################################
#
# If this CIF has been generated from an entry in the Cambridge 
# Structural Database, then it will include bibliographic, chemical, 
# crystal, experimental, refinement or atomic coordinate data resulting 
# from the CCDC's data processing and validation procedures.
#
#######################################################################

data_CENQEU
_chemical_formula_moiety         'C18 H18 I1 N1 O1'
_chemical_name_systematic        
7-(iodomethyl)-3,7-diphenyl-4,5,6,7-tetrahydro-1,2-oxazepine
_symmetry_cell_setting           monoclinic
_symmetry_space_group_name_H-M   'P 21/n'
_symmetry_Int_Tables_number      14
_space_group_name_Hall           '-P 2yn'
loop_
_symmetry_equiv_pos_site_id
_symmetry_equiv_pos_as_xyz
1 x,y,z
2 1/2-x,1/2+y,1/2-z
3 -x,-y,-z
4 1/2+x,1/2-y,1/2+z
_cell_length_a                   15.8324(9)
_cell_length_b                   5.8598(3)
_cell_length_c                   17.2832(9)
_cell_angle_alpha                90
_cell_angle_beta                 92.381(2)
_cell_angle_gamma                90
_cell_volume                     1602.06
_exptl_crystal_colour            colorless
_exptl_crystal_description       Flake
_cell_formula_units_Z            4
_exptl_crystal_recrystallization_method n-heptane
loop_
_atom_site_label
_atom_site_type_symbol
_atom_site_fract_x
_atom_site_fract_y
_atom_site_fract_z
I1 I 0.40226(2) 0.52310(3) 0.16657(2)
O1 O 0.39541(12) 0.4362(3) 0.35767(11)
N1 N 0.31222(14) 0.4572(4) 0.38868(14)
C1 C 0.50263(17) 0.2013(4) 0.31213(15)
C2 C 0.36792(18) 0.0240(4) 0.35694(17)
H1 H 0.3069 0.0385 0.3529
H2 H 0.3829 -0.1153 0.3304
C3 C 0.38408(18) 0.2238(5) 0.48820(17)
H3 H 0.3743 0.1864 0.5418
H4 H 0.4354 0.3138 0.4871
C4 C 0.23220(18) 0.3877(5) 0.49708(16)
C5 C 0.40726(16) 0.2273(4) 0.31564(16)
C6 C 0.31123(17) 0.3615(5) 0.45540(16)
C7 C 0.36280(18) 0.2432(5) 0.23561(17)
H5 H 0.3024 0.2558 0.2421
H6 H 0.3727 0.1026 0.2078
C8 C 0.3955(2) 0.0026(5) 0.44208(18)
H7 H 0.4546 -0.0414 0.4458
H8 H 0.3631 -0.1179 0.4653
C9 C 0.5359(2) 0.0049(5) 0.2823(2)
H9 H 0.4997 -0.1095 0.2638
C10 C 0.55831(19) 0.3670(6) 0.33883(19)
H10 H 0.5376 0.5012 0.3596
C11 C 0.18345(19) 0.5797(6) 0.48764(18)
H11 H 0.2001 0.6939 0.4541
C12 C 0.6224(2) -0.0254(6) 0.2794(2)
H12 H 0.6437 -0.1602 0.2595
C13 C 0.2065(2) 0.2194(6) 0.54743(18)
H13 H 0.2389 0.0883 0.5548
C14 C 0.6761(2) 0.1396(7) 0.3051(2)
H14 H 0.7342 0.1195 0.3024
C15 C 0.6446(2) 0.3361(7) 0.3350(2)
H15 H 0.6814 0.4498 0.3530
C16 C 0.1326(2) 0.2462(7) 0.5867(2)
H16 H 0.1154 0.1328 0.6202
C17 C 0.0851(2) 0.4390(9) 0.5762(2)
H17 H 0.0354 0.4568 0.6025
C18 C 0.1104(2) 0.6060(8) 0.5269(2)
H18 H 0.0782 0.7376 0.5200
loop_
_geom_bond_atom_site_label_1
_geom_bond_atom_site_label_2
_geom_bond_site_symmetry_1
_geom_bond_site_symmetry_2
I1 C7 1_555 1_555
O1 N1 1_555 1_555
N1 C6 1_555 1_555
C1 C5 1_555 1_555
C2 H1 1_555 1_555
H2 C2 1_555 1_555
C3 H3 1_555 1_555
H4 C3 1_555 1_555
C4 C6 1_555 1_555
C5 O1 1_555 1_555
C6 C3 1_555 1_555
C7 C5 1_555 1_555
H5 C7 1_555 1_555
H6 C7 1_555 1_555
C8 C2 1_555 1_555
H7 C8 1_555 1_555
H8 C8 1_555 1_555
C9 C1 1_555 1_555
H9 C9 1_555 1_555
C10 C1 1_555 1_555
H10 C10 1_555 1_555
C11 C4 1_555 1_555
H11 C11 1_555 1_555
C12 C9 1_555 1_555
H12 C12 1_555 1_555
C13 C4 1_555 1_555
H13 C13 1_555 1_555
C14 C12 1_555 1_555
H14 C14 1_555 1_555
C15 C10 1_555 1_555
H15 C15 1_555 1_555
C16 C13 1_555 1_555
H16 C16 1_555 1_555
C17 C16 1_555 1_555
H17 C17 1_555 1_555
C18 C11 1_555 1_555
H18 C18 1_555 1_555
C2 C5 1_555 1_555
C3 C8 1_555 1_555
C14 C15 1_555 1_555
C17 C18 1_555 1_555

#END
