
#######################################################################
#
#                 Cambridge Crystallographic Data Centre
#                                CCDC 
#
#######################################################################
#
# If this CIF has been generated from an entry in the Cambridge 
# Structural Database, then it will include bibliographic, chemical, 
# crystal, experimental, refinement or atomic coordinate data resulting 
# from the CCDC's data processing and validation procedures.
#
#######################################################################

data_CENQOC
_chemical_compound_source        
'roots of Stemona tubersosa Lour. (Stemonaceae)'
_chemical_name_common            'bisdehydrostemoninine n-hexane solvate'
_chemical_formula_moiety         'C22 H27 N1 O5,0.5(C6 H14)'
_chemical_name_systematic        
"1'-ethyl-4-methyl-8'-(4-methyl-5-oxotetrahydrofuran-2-yl)-1',3a',4',5',6',10b'-hexahydro-5H-spiro[furan-2,2'-furo[3,2-c]pyrrolo[1,2-a]azepin]-5-one n-hexane solvate"
_chemical_properties_biological  
'Antitussive activity. The roots of Stemona tuberosa are used as an antitussive agent and insecticide in traditional Chinese medicine'
_symmetry_cell_setting           monoclinic
_symmetry_space_group_name_H-M   'P 21'
_symmetry_Int_Tables_number      4
_space_group_name_Hall           'P 2yb'
loop_
_symmetry_equiv_pos_site_id
_symmetry_equiv_pos_as_xyz
1 x,y,z
2 -x,1/2+y,-z
_cell_length_a                   12.3754(13)
_cell_length_b                   6.9456(7)
_cell_length_c                   13.9342(15)
_cell_angle_alpha                90
_cell_angle_beta                 109.172(2)
_cell_angle_gamma                90
_cell_volume                     1131.28
_exptl_crystal_colour            colorless
_exptl_crystal_description       cubic
_chemical_melting_point          '138-140 deg.C'
_cell_formula_units_Z            2
loop_
_atom_site_label
_atom_site_type_symbol
_atom_site_fract_x
_atom_site_fract_y
_atom_site_fract_z
O1 O -0.09121(16) 0.8006(3) 0.17897(17)
O2 O -0.23676(16) 0.6702(3) 0.04730(13)
O3 O -0.4149(2) 0.7367(4) -0.05166(17)
O4 O 0.45494(19) 0.4527(4) 0.31660(17)
O5 O 0.6278(3) 0.5579(6) 0.4035(2)
N1 N 0.19667(19) 0.3979(3) 0.21137(16)
C1 C 0.1030(2) 0.2508(5) 0.3010(2)
H1 H 0.0448 0.2101 0.3247
C2 C 0.2182(2) 0.1923(5) 0.3375(2)
H2 H 0.2497 0.1055 0.3901
C3 C 0.2755(2) 0.2839(5) 0.2828(2)
C4 C 0.2208(3) 0.5339(5) 0.1400(2)
H3 H 0.1691 0.5077 0.0721
H4 H 0.2982 0.5123 0.1398
C5 C 0.2086(3) 0.7428(5) 0.1654(2)
H5 H 0.2476 0.7606 0.2376
H6 H 0.2480 0.8210 0.1297
C6 C 0.0886(2) 0.8181(5) 0.1406(2)
H7 H 0.0917 0.9540 0.1574
H8 H 0.0496 0.8058 0.0680
C7 C 0.0207(2) 0.7147(4) 0.1962(2)
H9 H 0.0633 0.7200 0.2692
C8 C -0.0046(2) 0.5038(4) 0.16581(19)
H10 H -0.0166 0.4904 0.0930
C9 C -0.1171(2) 0.4663(4) 0.1846(2)
H11 H -0.1001 0.4476 0.2578
C10 C -0.1764(2) 0.6606(4) 0.15643(19)
C11 C -0.2682(2) 0.7053(4) 0.2013(2)
H12 H -0.2563 0.7125 0.2706
C12 C -0.3670(2) 0.7329(4) 0.1307(2)
C13 C -0.3487(2) 0.7153(4) 0.0314(2)
C14 C -0.4817(3) 0.7735(6) 0.1384(3)
H13 H -0.4806 0.7489 0.2065
H14 H -0.5375 0.6920 0.0921
H15 H -0.5011 0.9059 0.1216
C15 C -0.1822(3) 0.2904(5) 0.1306(3)
H16 H -0.2131 0.3171 0.0584
H17 H -0.1293 0.1835 0.1400
C16 C -0.2794(3) 0.2314(6) 0.1683(5)
H18 H -0.2498 0.2068 0.2401
H19 H -0.3151 0.1170 0.1335
H20 H -0.3348 0.3333 0.1553
C17 C 0.3963(2) 0.2661(5) 0.2886(2)
H21 H 0.3991 0.2276 0.2218
C18 C 0.4684(3) 0.1305(6) 0.3671(3)
H22 H 0.4658 0.0014 0.3399
H23 H 0.4437 0.1266 0.4263
C19 C 0.5873(3) 0.2158(7) 0.3932(3)
H24 H 0.6225 0.1669 0.3444
C20 C 0.5647(3) 0.4234(7) 0.3742(3)
C21 C 0.6669(4) 0.1725(12) 0.4996(3)
H25 H 0.7308 0.2594 0.5166
H26 H 0.6940 0.0424 0.5025
H27 H 0.6263 0.1882 0.5472
C25 C 0.0929(2) 0.3792(4) 0.2237(2)
C22? C 0.9615(13) 0.284(2) 0.4790(11)
C23? C 1.0132(11) 0.084(2) 0.5154(10)
C24? C 0.9345(11) -0.090(2) 0.4536(9)
loop_
_geom_bond_atom_site_label_1
_geom_bond_atom_site_label_2
_geom_bond_site_symmetry_1
_geom_bond_site_symmetry_2
O1 C7 1_555 1_555
O2 C10 1_555 1_555
O3 C13 1_555 1_555
O4 C17 1_555 1_555
O5 C20 1_555 1_555
N1 C3 1_555 1_555
C1 H1 1_555 1_555
C2 C1 1_555 1_555
H2 C2 1_555 1_555
C3 C2 1_555 1_555
C4 N1 1_555 1_555
H3 C4 1_555 1_555
H4 C4 1_555 1_555
C5 C4 1_555 1_555
H5 C5 1_555 1_555
H6 C5 1_555 1_555
C6 C5 1_555 1_555
H7 C6 1_555 1_555
H8 C6 1_555 1_555
C7 C6 1_555 1_555
H9 C7 1_555 1_555
C8 C7 1_555 1_555
H10 C8 1_555 1_555
C9 C8 1_555 1_555
H11 C9 1_555 1_555
C10 O1 1_555 1_555
C11 C10 1_555 1_555
H12 C11 1_555 1_555
C12 C11 1_555 1_555
C13 O2 1_555 1_555
C14 C12 1_555 1_555
H13 C14 1_555 1_555
H14 C14 1_555 1_555
H15 C14 1_555 1_555
C15 C9 1_555 1_555
H16 C15 1_555 1_555
H17 C15 1_555 1_555
C16 C15 1_555 1_555
H18 C16 1_555 1_555
H19 C16 1_555 1_555
H20 C16 1_555 1_555
C17 C3 1_555 1_555
H21 C17 1_555 1_555
C18 C17 1_555 1_555
H22 C18 1_555 1_555
H23 C18 1_555 1_555
C19 C18 1_555 1_555
H24 C19 1_555 1_555
C20 O4 1_555 1_555
C21 C19 1_555 1_555
H25 C21 1_555 1_555
H26 C21 1_555 1_555
H27 C21 1_555 1_555
C25 N1 1_555 1_555
C1 C25 1_555 1_555
C8 C25 1_555 1_555
C9 C10 1_555 1_555
C12 C13 1_555 1_555
C19 C20 1_555 1_555

#END
