
#######################################################################
#
#                 Cambridge Crystallographic Data Centre
#                                CCDC 
#
#######################################################################
#
# If this CIF has been generated from an entry in the Cambridge 
# Structural Database, then it will include bibliographic, chemical, 
# crystal, experimental, refinement or atomic coordinate data resulting 
# from the CCDC's data processing and validation procedures.
#
#######################################################################

data_CEPHOV
_chemical_formula_moiety         'C21 H26 N3 O2 1+,I1 1-,1.25(C2 H6 O1)'
_chemical_name_systematic        
'Aminoacetylcinchonidium iodide ethanol solvate'
_symmetry_cell_setting           orthorhombic
_symmetry_space_group_name_H-M   'P 21 21 2'
_symmetry_Int_Tables_number      18
_space_group_name_Hall           'P 2 2ab'
loop_
_symmetry_equiv_pos_site_id
_symmetry_equiv_pos_as_xyz
1 x,y,z
2 -x,-y,z
3 1/2-x,1/2+y,-z
4 1/2+x,1/2-y,-z
_cell_length_a                   10.642(3)
_cell_length_b                   28.422(8)
_cell_length_c                   8.817(3)
_cell_angle_alpha                90
_cell_angle_beta                 90
_cell_angle_gamma                90
_cell_volume                     2666.85
_exptl_crystal_colour            yellow
_exptl_crystal_description       block
_chemical_melting_point          190-193deg.C
_cell_formula_units_Z            4
loop_
_atom_site_label
_atom_site_type_symbol
_atom_site_fract_x
_atom_site_fract_y
_atom_site_fract_z
I1 I 0.60279(4) 0.794899(14) 0.33428(6)
N1 N 0.6602(5) 0.66253(16) 0.5690(6)
N2 N 0.8428(6) 0.4815(2) 0.9777(8)
N3 N 0.9446(6) 0.6456(2) 0.3423(8)
H1 H 0.9832 0.6265 0.2826
H2 H 0.9839 0.6692 0.3808
O1 O 0.8426(4) 0.65035(13) 0.8248(6)
H3 H 0.9150 0.6591 0.8106
O2 O 0.7630(5) 0.60608(17) 0.3244(6)
C1 C 0.6801(5) 0.61730(18) 0.6653(8)
H4 H 0.6652 0.5904 0.5983
C2 C 0.5778(6) 0.6165(2) 0.7859(7)
H5 H 0.5514 0.5843 0.8037
H6 H 0.6110 0.6289 0.8802
C3 C 0.4653(7) 0.6457(3) 0.7366(9)
H7 H 0.3920 0.6389 0.8001
C4 C 0.4378(7) 0.6347(3) 0.5694(9)
H8 H 0.3582 0.6486 0.5398
H9 H 0.4326 0.6010 0.5545
C5 C 0.5450(6) 0.6553(3) 0.4725(8)
H10 H 0.5643 0.6340 0.3898
H11 H 0.5188 0.6852 0.4294
C6 C 0.4999(6) 0.7002(3) 0.7437(8)
H12 H 0.4401 0.7174 0.6800
C7 C 0.6307(5) 0.7048(2) 0.6728(8)
H13 H 0.6933 0.7066 0.7526
H14 H 0.6349 0.7336 0.6141
C8 C 0.4965(9) 0.7212(3) 0.9011(10)
H15 H 0.5590 0.7121 0.9688
C9 C 0.4149(13) 0.7504(4) 0.9479(12)
H16 H 0.3510 0.7604 0.8834
H17 H 0.4190 0.7619 1.0465
C10 C 0.7719(6) 0.6771(2) 0.4758(7)
H18 H 0.8374 0.6880 0.5439
H19 H 0.7477 0.7035 0.4125
C11 C 0.8267(7) 0.6388(2) 0.3742(7)
C12 C 0.8156(6) 0.61226(19) 0.7281(6)
H20 H 0.8753 0.6123 0.6434
C13 C 0.8377(7) 0.5233(3) 1.0435(9)
H21 H 0.8406 0.5242 1.1488
C14 C 0.8284(6) 0.5657(2) 0.9672(8)
H22 H 0.8245 0.5938 1.0209
C15 C 0.8250(5) 0.5658(2) 0.8123(7)
C16 C 0.8312(6) 0.5214(2) 0.7337(8)
C17 C 0.8393(5) 0.4800(2) 0.8239(10)
C18 C 0.8462(6) 0.4364(2) 0.7504(11)
H23 H 0.8510 0.4091 0.8083
C19 C 0.8461(7) 0.4330(3) 0.5985(11)
H24 H 0.8511 0.4036 0.5522
C20 C 0.8382(7) 0.4742(2) 0.5096(10)
H25 H 0.8382 0.4719 0.4044
C21 C 0.8308(7) 0.5168(2) 0.5751(8)
H26 H 0.8254 0.5435 0.5146
O3 O 0.8733(6) 0.40232(19) 0.1639(8)
H27 H 0.8764 0.4248 0.1057
C22 C 0.7601(11) 0.3758(4) 0.1360(17)
H28 H 0.7470 0.3731 0.0275
H29 H 0.6890 0.3926 0.1785
C23 C 0.7662(17) 0.3278(5) 0.204(2)
H30 H 0.8078 0.3068 0.1347
H31 H 0.6826 0.3166 0.2229
H32 H 0.8121 0.3290 0.2974
O4? O 0.480(4) 0.4793(11) 0.331(3)
H33? H 0.4884 0.4900 0.4201
C24? C 0.512(4) 0.5158(9) 0.225(4)
H34? H 0.5971 0.5257 0.2421
H35? H 0.4582 0.5425 0.2406
C25? C 0.5000 0.5000 0.061(3)
H36? H 0.5219 0.5249 -0.0075
H37? H 0.5548 0.4737 0.0450
H38? H 0.4146 0.4906 0.0435
loop_
_geom_bond_atom_site_label_1
_geom_bond_atom_site_label_2
_geom_bond_site_symmetry_1
_geom_bond_site_symmetry_2
N1 C1 1_555 1_555
N2 C13 1_555 1_555
N3 H1 1_555 1_555
H2 N3 1_555 1_555
O1 H3 1_555 1_555
O2 C11 1_555 1_555
C1 H4 1_555 1_555
C2 C1 1_555 1_555
H5 C2 1_555 1_555
H6 C2 1_555 1_555
C3 C2 1_555 1_555
H7 C3 1_555 1_555
C4 C3 1_555 1_555
H8 C4 1_555 1_555
H9 C4 1_555 1_555
C5 N1 1_555 1_555
H10 C5 1_555 1_555
H11 C5 1_555 1_555
C6 C3 1_555 1_555
H12 C6 1_555 1_555
C7 N1 1_555 1_555
H13 C7 1_555 1_555
H14 C7 1_555 1_555
C8 C6 1_555 1_555
H15 C8 1_555 1_555
C9 C8 1_555 1_555
H16 C9 1_555 1_555
H17 C9 1_555 1_555
C10 N1 1_555 1_555
H18 C10 1_555 1_555
H19 C10 1_555 1_555
C11 N3 1_555 1_555
C12 O1 1_555 1_555
H20 C12 1_555 1_555
C13 H21 1_555 1_555
C14 C13 1_555 1_555
H22 C14 1_555 1_555
C15 C12 1_555 1_555
C16 C15 1_555 1_555
C17 N2 1_555 1_555
C18 C17 1_555 1_555
H23 C18 1_555 1_555
C19 C18 1_555 1_555
H24 C19 1_555 1_555
C20 C19 1_555 1_555
H25 C20 1_555 1_555
C21 C16 1_555 1_555
H26 C21 1_555 1_555
O3 H27 1_555 1_555
C22 O3 1_555 1_555
H28 C22 1_555 1_555
H29 C22 1_555 1_555
C23 C22 1_555 1_555
H30 C23 1_555 1_555
H31 C23 1_555 1_555
H32 C23 1_555 1_555
C1 C12 1_555 1_555
C4 C5 1_555 1_555
C6 C7 1_555 1_555
C10 C11 1_555 1_555
C14 C15 1_555 1_555
C16 C17 1_555 1_555
C20 C21 1_555 1_555

#END
