
#######################################################################
#
#                 Cambridge Crystallographic Data Centre
#                                CCDC 
#
#######################################################################
#
# If this CIF has been generated from an entry in the Cambridge 
# Structural Database, then it will include bibliographic, chemical, 
# crystal, experimental, refinement or atomic coordinate data resulting 
# from the CCDC's data processing and validation procedures.
#
#######################################################################

data_CERJOZ
_chemical_formula_moiety         'C10 H14 F6 N2 O2'
_chemical_name_systematic        
N,N'-bis(2,2,2-trifluoroacetyl)hexane-1,6-diamine
_symmetry_cell_setting           monoclinic
_symmetry_space_group_name_H-M   'P 21/c'
_symmetry_Int_Tables_number      14
_space_group_name_Hall           '-P 2ybc'
loop_
_symmetry_equiv_pos_site_id
_symmetry_equiv_pos_as_xyz
1 x,y,z
2 -x,1/2+y,1/2-z
3 -x,-y,-z
4 x,1/2-y,1/2+z
_cell_length_a                   7.2009(14)
_cell_length_b                   10.498(2)
_cell_length_c                   8.9607(18)
_cell_angle_alpha                90
_cell_angle_beta                 90.51(3)
_cell_angle_gamma                90
_cell_volume                     677.358
_exptl_crystal_colour            colorless
_exptl_crystal_description       block
_chemical_melting_point          '403.2 K'
_cell_formula_units_Z            2
_exptl_crystal_recrystallization_method acetone
loop_
_atom_site_label
_atom_site_type_symbol
_atom_site_fract_x
_atom_site_fract_y
_atom_site_fract_z
F1 F 1.4120(2) 0.1436(2) 0.5701(3)
F2 F 1.2537(4) 0.1375(3) 0.3734(2)
F3 F 1.2395(3) -0.01080(17) 0.5285(3)
O1 O 1.0702(2) 0.14462(17) 0.72761(17)
N1 N 1.0016(2) 0.26638(18) 0.52643(18)
H1 H 1.0312 0.2841 0.4360
C1 C 0.5659(3) 0.4697(2) 0.5555(2)
H2 H 0.4964 0.4122 0.6188
H3 H 0.6186 0.5357 0.6187
C2 C 0.7228(3) 0.3963(2) 0.4829(2)
H4 H 0.6708 0.3312 0.4180
H5 H 0.7950 0.4539 0.4219
C3 C 0.8479(3) 0.3347(2) 0.5965(2)
H6 H 0.8976 0.3996 0.6628
H7 H 0.7762 0.2756 0.6560
C4 C 1.0946(3) 0.1787(2) 0.5993(2)
C5 C 1.2507(3) 0.11244(18) 0.5144(2)
F1B F -0.4120(2) 0.8564(2) 0.4299(3)
F2B F -0.2537(4) 0.8625(3) 0.6266(2)
F3B F -0.2395(3) 1.01080(17) 0.4715(3)
O1B O -0.0702(2) 0.85538(17) 0.27239(17)
N1B N -0.0016(2) 0.73362(18) 0.47357(18)
H1B H -0.0312 0.7159 0.5640
C1B C 0.4341(3) 0.5303(2) 0.4445(2)
H2B H 0.5036 0.5878 0.3812
H3B H 0.3814 0.4643 0.3813
C2B C 0.2772(3) 0.6037(2) 0.5171(2)
H4B H 0.3292 0.6688 0.5820
H5B H 0.2050 0.5461 0.5781
C3B C 0.1521(3) 0.6653(2) 0.4035(2)
H6B H 0.1024 0.6004 0.3372
H7B H 0.2238 0.7244 0.3440
C4B C -0.0946(3) 0.8213(2) 0.4007(2)
C5B C -0.2507(3) 0.88756(18) 0.4856(2)
F4? F 1.3610(16) 0.0416(11) 0.5939(13)
F5? F 1.3534(17) 0.1975(10) 0.4499(15)
F6? F 1.1829(19) 0.0407(11) 0.4093(11)
loop_
_geom_bond_atom_site_label_1
_geom_bond_atom_site_label_2
_geom_bond_site_symmetry_1
_geom_bond_site_symmetry_2
F1 C5 1_555 1_555
F2 C5 1_555 1_555
F3 C5 1_555 1_555
O1 C4 1_555 1_555
N1 H1 1_555 1_555
C1 H2 1_555 1_555
H3 C1 1_555 1_555
C2 C1 1_555 1_555
H4 C2 1_555 1_555
H5 C2 1_555 1_555
C3 N1 1_555 1_555
H6 C3 1_555 1_555
H7 C3 1_555 1_555
C4 N1 1_555 1_555
C5 C4 1_555 1_555
F1B C5B 1_555 1_555
F2B C5B 1_555 1_555
F3B C5B 1_555 1_555
O1B C4B 1_555 1_555
N1B H1B 1_555 1_555
C1B C1 1_555 1_555
H2B C1B 1_555 1_555
H3B C1B 1_555 1_555
C2B C1B 1_555 1_555
H4B C2B 1_555 1_555
H5B C2B 1_555 1_555
C3B N1B 1_555 1_555
H6B C3B 1_555 1_555
H7B C3B 1_555 1_555
C4B N1B 1_555 1_555
C5B C4B 1_555 1_555
C2 C3 1_555 1_555
C2B C3B 1_555 1_555

#END
