
#######################################################################
#
#                 Cambridge Crystallographic Data Centre
#                                CCDC 
#
#######################################################################
#
# If this CIF has been generated from an entry in the Cambridge 
# Structural Database, then it will include bibliographic, chemical, 
# crystal, experimental, refinement or atomic coordinate data resulting 
# from the CCDC's data processing and validation procedures.
#
#######################################################################

data_CERJUF
_chemical_formula_moiety         'C14 H11 Br1 N2 O2'
_chemical_name_systematic        '5-bromosalicylaldehyde benzoylhydrazone'
_symmetry_cell_setting           orthorhombic
_symmetry_space_group_name_H-M   'P n a 21'
_symmetry_Int_Tables_number      33
_space_group_name_Hall           'P 2c -2n'
loop_
_symmetry_equiv_pos_site_id
_symmetry_equiv_pos_as_xyz
1 x,y,z
2 -x,-y,1/2+z
3 1/2+x,1/2-y,z
4 1/2-x,1/2+y,1/2+z
_cell_length_a                   9.534(3)
_cell_length_b                   9.970(2)
_cell_length_c                   13.783(3)
_cell_angle_alpha                90
_cell_angle_beta                 90
_cell_angle_gamma                90
_cell_volume                     1310.13
_exptl_crystal_colour            colorless
_exptl_crystal_description       block
_cell_formula_units_Z            4
_exptl_crystal_recrystallization_method ethanol
loop_
_atom_site_label
_atom_site_type_symbol
_atom_site_fract_x
_atom_site_fract_y
_atom_site_fract_z
Br1 Br 0.23149(4) 0.53528(4) 0.74755(6)
N1 N 0.4993(3) 0.6907(3) 0.3355(2)
N2 N 0.4589(2) 0.7205(2) 0.2432(3)
H1 H 0.3797 0.6931 0.2210
O1 O 0.6912(3) 0.6729(3) 0.4679(2)
H2 H 0.6626 0.6746 0.4118
O2 O 0.6599(3) 0.8345(3) 0.21775(17)
C1 C 0.4102(4) 0.6383(3) 0.3933(3)
H3 H 0.3216 0.6142 0.3712
C2 C 0.4494(4) 0.6167(3) 0.4941(3)
C3 C 0.5848(4) 0.6417(4) 0.5279(3)
C4 C 0.6121(4) 0.6342(4) 0.6267(3)
H4 H 0.7024 0.6509 0.6491
C5 C 0.5083(4) 0.6025(4) 0.6920(3)
H5 H 0.5272 0.5997 0.7582
C6 C 0.3759(4) 0.5750(3) 0.6576(3)
C7 C 0.3452(4) 0.5815(3) 0.5602(3)
H6 H 0.2550 0.5624 0.5385
C8 C 0.5470(4) 0.7948(4) 0.1868(3)
C9 C 0.4967(4) 0.8236(4) 0.0875(3)
C10 C 0.4017(5) 0.7434(4) 0.0391(3)
H7 H 0.3658 0.6672 0.0690
C11 C 0.3604(5) 0.7765(5) -0.0535(3)
H8 H 0.2971 0.7220 -0.0865
C12 C 0.4123(5) 0.8895(5) -0.0975(3)
H9 H 0.3832 0.9116 -0.1599
C13 C 0.5049(5) 0.9686(5) -0.0511(3)
H10 H 0.5390 1.0454 -0.0812
C14 C 0.5490(4) 0.9360(4) 0.0408(3)
H11 H 0.6147 0.9899 0.0720
loop_
_geom_bond_atom_site_label_1
_geom_bond_atom_site_label_2
_geom_bond_site_symmetry_1
_geom_bond_site_symmetry_2
Br1 C6 1_555 1_555
N1 N2 1_555 1_555
N2 H1 1_555 1_555
O1 H2 1_555 1_555
O2 C8 1_555 1_555
C1 N1 1_555 1_555
H3 C1 1_555 1_555
C2 C1 1_555 1_555
C3 O1 1_555 1_555
C4 C3 1_555 1_555
H4 C4 1_555 1_555
C5 C4 1_555 1_555
H5 C5 1_555 1_555
C6 C5 1_555 1_555
C7 C2 1_555 1_555
H6 C7 1_555 1_555
C8 N2 1_555 1_555
C9 C8 1_555 1_555
C10 C9 1_555 1_555
H7 C10 1_555 1_555
C11 C10 1_555 1_555
H8 C11 1_555 1_555
C12 C11 1_555 1_555
H9 C12 1_555 1_555
C13 C12 1_555 1_555
H10 C13 1_555 1_555
C14 C9 1_555 1_555
H11 C14 1_555 1_555
C2 C3 1_555 1_555
C6 C7 1_555 1_555
C13 C14 1_555 1_555

#END
