
#######################################################################
#
#                 Cambridge Crystallographic Data Centre
#                                CCDC 
#
#######################################################################
#
# If this CIF has been generated from an entry in the Cambridge 
# Structural Database, then it will include bibliographic, chemical, 
# crystal, experimental, refinement or atomic coordinate data resulting 
# from the CCDC's data processing and validation procedures.
#
#######################################################################

data_CERNOF
_chemical_formula_moiety         
'C36 H36 N24 O12,C6 H10 N2 2+,10(H2 O1),2(Br1 1-)'
_chemical_name_systematic        
'cucurbit(6)uril 1,4-phenylenediammonium dibromide decahydrate'
_symmetry_cell_setting           monoclinic
_symmetry_space_group_name_H-M   'P 21/n'
_symmetry_Int_Tables_number      14
_space_group_name_Hall           '-P 2yn'
loop_
_symmetry_equiv_pos_site_id
_symmetry_equiv_pos_as_xyz
1 x,y,z
2 1/2-x,1/2+y,1/2-z
3 -x,-y,-z
4 1/2+x,1/2-y,1/2+z
_cell_length_a                   11.8729(7)
_cell_length_b                   15.2837(9)
_cell_length_c                   15.0402(10)
_cell_angle_alpha                90
_cell_angle_beta                 90.672(2)
_cell_angle_gamma                90
_cell_volume                     2729.03
_cell_formula_units_Z            2
loop_
_atom_site_label
_atom_site_type_symbol
_atom_site_fract_x
_atom_site_fract_y
_atom_site_fract_z
Br1 Br 0.77621(3) 1.00168(3) 0.50030(3)
C1 C 0.5530(3) 0.7722(2) -0.1328(2)
C2 C 0.3620(3) 0.7339(2) -0.1198(2)
H1 H 0.3356 0.6723 -0.1282
C3 C 0.3808(3) 0.7804(2) -0.2095(2)
H2 H 0.3592 0.7422 -0.2609
C4 C 0.2491(3) 0.8601(2) -0.1265(2)
C5 C 0.5019(3) 0.6855(2) 0.0000(2)
H3 H 0.4653 0.6276 -0.0057
H4 H 0.5844 0.6759 0.0012
C6 C 0.2160(3) 0.7588(2) -0.0009(2)
H5 H 0.1991 0.6956 -0.0074
H6 H 0.1432 0.7905 -0.0001
C7 C 0.5476(3) 0.7486(2) 0.1472(2)
C8 C 0.3731(3) 0.7501(2) 0.2179(2)
H7 H 0.3499 0.7062 0.2635
C9 C 0.3576(3) 0.7144(2) 0.1217(2)
H8 H 0.3321 0.6521 0.1211
C10 C 0.2455(3) 0.8392(2) 0.1394(2)
C11 C 0.5504(3) 0.7936(2) 0.3058(2)
H9 H 0.5098 0.7676 0.3566
H10 H 0.6270 0.7681 0.3054
C12 C 0.2866(3) 0.8828(2) 0.2958(2)
H11 H 0.2111 0.9102 0.2929
H12 H 0.2904 0.8464 0.3502
C13 C 0.6471(3) 0.9340(2) 0.2840(2)
C14 C 0.5263(3) 1.0356(2) 0.3491(2)
H13 H 0.5500 1.0589 0.4086
C15 C 0.4737(3) 0.9434(2) 0.3564(2)
H14 H 0.4563 0.9279 0.4193
C16 C 0.3461(3) 1.0360(2) 0.2831(2)
C17 C 0.7118(3) 1.0853(2) 0.2781(2)
H15 H 0.7203 1.1209 0.3328
H16 H 0.7836 1.0539 0.2688
C18 C 0.4400(3) 1.1786(2) 0.2895(2)
H17 H 0.4761 1.2095 0.3401
H18 H 0.3622 1.2012 0.2832
N1 N 0.4990(2) 0.80057(18) -0.20928(19)
N2 N 0.4728(2) 0.73774(18) -0.07744(19)
N3 N 0.3083(2) 0.85672(18) -0.20362(19)
N4 N 0.2786(2) 0.78710(18) -0.07674(19)
N5 N 0.4691(2) 0.72454(19) 0.08374(19)
N6 N 0.4921(2) 0.76904(19) 0.22361(19)
N7 N 0.2737(2) 0.77266(19) 0.08361(19)
N8 N 0.3011(2) 0.82695(18) 0.21831(19)
N9 N 0.5597(2) 0.88671(18) 0.31983(19)
N10 N 0.6226(2) 1.02156(18) 0.29111(19)
N11 N 0.3712(2) 0.95071(18) 0.30179(19)
N12 N 0.4348(2) 1.08640(18) 0.31018(19)
O1 O 0.6542(2) 0.77796(16) -0.11665(17)
O2 O 0.1799(2) 0.91474(16) -0.10542(17)
O3 O 0.6497(2) 0.75000(16) 0.13651(17)
O4 O 0.1797(2) 0.89862(16) 0.12190(16)
O5 O 0.7317(2) 0.90275(16) 0.25155(17)
O6 O 0.2597(2) 1.06242(16) 0.24696(17)
C1B C 0.4470(3) 1.2278(2) 0.1328(2)
C2B C 0.6380(3) 1.2661(2) 0.1198(2)
H1B H 0.6644 1.3277 0.1282
C3B C 0.6192(3) 1.2196(2) 0.2095(2)
H2B H 0.6408 1.2578 0.2609
C4B C 0.7509(3) 1.1399(2) 0.1265(2)
C5B C 0.4981(3) 1.3145(2) 0.0000(2)
H3B H 0.5347 1.3724 0.0057
H4B H 0.4156 1.3241 -0.0012
C6B C 0.7840(3) 1.2412(2) 0.0009(2)
H5B H 0.8009 1.3044 0.0074
H6B H 0.8568 1.2095 0.0001
C7B C 0.4524(3) 1.2514(2) -0.1472(2)
C8B C 0.6269(3) 1.2499(2) -0.2179(2)
H7B H 0.6501 1.2938 -0.2635
C9B C 0.6424(3) 1.2856(2) -0.1217(2)
H8B H 0.6679 1.3479 -0.1211
C10B C 0.7545(3) 1.1608(2) -0.1394(2)
C11B C 0.4496(3) 1.2064(2) -0.3058(2)
H9B H 0.4902 1.2324 -0.3566
H10B H 0.3730 1.2319 -0.3054
C12B C 0.7134(3) 1.1172(2) -0.2958(2)
H11B H 0.7889 1.0898 -0.2929
H12B H 0.7096 1.1536 -0.3502
C13B C 0.3529(3) 1.0660(2) -0.2840(2)
C14B C 0.4737(3) 0.9644(2) -0.3491(2)
H13B H 0.4500 0.9411 -0.4086
C15B C 0.5263(3) 1.0566(2) -0.3564(2)
H14B H 0.5437 1.0721 -0.4193
C16B C 0.6539(3) 0.9640(2) -0.2831(2)
C17B C 0.2882(3) 0.9147(2) -0.2781(2)
H15B H 0.2797 0.8791 -0.3328
H16B H 0.2164 0.9461 -0.2688
C18B C 0.5600(3) 0.8214(2) -0.2895(2)
H17B H 0.5239 0.7905 -0.3401
H18B H 0.6378 0.7988 -0.2832
N1B N 0.5010(2) 1.19943(18) 0.20928(19)
N2B N 0.5272(2) 1.26226(18) 0.07744(19)
N3B N 0.6917(2) 1.14328(18) 0.20362(19)
N4B N 0.7214(2) 1.21290(18) 0.07674(19)
N5B N 0.5309(2) 1.27546(19) -0.08374(19)
N6B N 0.5079(2) 1.23096(19) -0.22361(19)
N7B N 0.7263(2) 1.22734(19) -0.08361(19)
N8B N 0.6989(2) 1.17305(18) -0.21831(19)
N9B N 0.4403(2) 1.11329(18) -0.31983(19)
N10B N 0.3774(2) 0.97844(18) -0.29111(19)
N11B N 0.6288(2) 1.04929(18) -0.30179(19)
N12B N 0.5652(2) 0.91360(18) -0.31018(19)
O1B O 0.3458(2) 1.22204(16) 0.11665(17)
O2B O 0.8201(2) 1.08526(16) 0.10542(17)
O3B O 0.3503(2) 1.25000(16) -0.13651(17)
O4B O 0.8203(2) 1.10138(16) -0.12190(16)
O5B O 0.2683(2) 1.09725(16) -0.25155(17)
O6B O 0.7403(2) 0.93758(16) -0.24696(17)
C19 C 0.3915(3) 0.0242(2) 1.0225(2)
C20 C 0.4300(3) 0.0391(3) 0.9381(3)
H19 H 0.3820 0.0654 0.8948
C21 C 0.5388(4) 0.0156(3) 0.9161(3)
H20 H 0.5656 0.0272 0.8580
N13 N 0.2779(2) 0.0509(2) 1.0462(2)
H21 H 0.2422 0.0734 0.9975
H22 H 0.2816 0.0922 1.0897
H23 H 0.2390 0.0036 1.0663
C19B C 0.6085(3) -0.0242(2) 0.9775(2)
C20B C 0.5700(3) -0.0391(3) 1.0619(3)
H19B H 0.6180 -0.0654 1.1052
C21B C 0.4612(4) -0.0156(3) 1.0839(3)
H20B H 0.4344 -0.0272 1.1420
N13B N 0.7221(2) -0.0509(2) 0.9538(2)
H21B H 0.7578 -0.0734 1.0025
H22B H 0.7184 -0.0922 0.9103
H23B H 0.7610 -0.0036 0.9337
O7 O 0.8278(3) 0.8558(2) 0.0844(2)
H24 H 0.880(3) 0.889(3) 0.103(3)
H25 H 0.783(3) 0.844(3) 0.122(2)
O8 O 0.9945(3) 0.0122(2) 0.3570(2)
H26 H 1.051(2) 0.002(3) 0.388(3)
H27 H 0.938(2) 0.001(3) 0.386(3)
O9 O 0.9814(3) 0.8943(2) 0.2137(2)
H28 H 1.042(3) 0.911(3) 0.184(3)
H29 H 0.968(4) 0.943(2) 0.243(3)
O10 O 0.9397(3) 0.9041(2) 0.8673(2)
H30 H 1.0085 0.9155 0.8576
H31 H 0.9003 0.9210 0.8230
O11 O 0.3902(3) 0.8026(2) 0.5065(2)
H32 H 0.381(4) 0.7525(15) 0.523(3)
H33 H 0.333(3) 0.832(2) 0.508(3)
loop_
_geom_bond_atom_site_label_1
_geom_bond_atom_site_label_2
_geom_bond_site_symmetry_1
_geom_bond_site_symmetry_2
C1 N1 1_555 1_555
C2 H1 1_555 1_555
C3 C2 1_555 1_555
H2 C3 1_555 1_555
C4 N3 1_555 1_555
C5 H3 1_555 1_555
H4 C5 1_555 1_555
C6 H5 1_555 1_555
H6 C6 1_555 1_555
C7 N5 1_555 1_555
C8 H7 1_555 1_555
C9 C8 1_555 1_555
H8 C9 1_555 1_555
C10 N7 1_555 1_555
C11 H9 1_555 1_555
H10 C11 1_555 1_555
C12 H11 1_555 1_555
H12 C12 1_555 1_555
C13 N9 1_555 1_555
C14 H13 1_555 1_555
C15 C14 1_555 1_555
H14 C15 1_555 1_555
C16 N11 1_555 1_555
C17 H15 1_555 1_555
H16 C17 1_555 1_555
C18 H17 1_555 1_555
H18 C18 1_555 1_555
N1 C3 1_555 1_555
N2 C1 1_555 1_555
N3 C3 1_555 1_555
N4 C2 1_555 1_555
N5 C5 1_555 1_555
N6 C7 1_555 1_555
N7 C6 1_555 1_555
N8 C8 1_555 1_555
N9 C11 1_555 1_555
N10 C13 1_555 1_555
N11 C12 1_555 1_555
N12 C14 1_555 1_555
O1 C1 1_555 1_555
O2 C4 1_555 1_555
O3 C7 1_555 1_555
O4 C10 1_555 1_555
O5 C13 1_555 1_555
O6 C16 1_555 1_555
C19 C20 1_555 1_555
C20 H19 1_555 1_555
C21 C20 1_555 1_555
H20 C21 1_555 1_555
N13 C19 1_555 1_555
H21 N13 1_555 1_555
H22 N13 1_555 1_555
H23 N13 1_555 1_555
O7 H24 1_555 1_555
H25 O7 1_555 1_555
O8 H26 1_555 1_555
H27 O8 1_555 1_555
O9 H28 1_555 1_555
H29 O9 1_555 1_555
O10 H30 1_555 1_555
H31 O10 1_555 1_555
O11 H32 1_555 1_555
H33 O11 1_555 1_555
C1B N1B 1_555 1_555
C2B H1B 1_555 1_555
C3B C2B 1_555 1_555
H2B C3B 1_555 1_555
C4B N3B 1_555 1_555
C5B H3B 1_555 1_555
H4B C5B 1_555 1_555
C6B H5B 1_555 1_555
H6B C6B 1_555 1_555
C7B N5B 1_555 1_555
C8B H7B 1_555 1_555
C9B C8B 1_555 1_555
H8B C9B 1_555 1_555
C10B N7B 1_555 1_555
C11B H9B 1_555 1_555
H10B C11B 1_555 1_555
C12B H11B 1_555 1_555
H12B C12B 1_555 1_555
C13B N9B 1_555 1_555
C14B H13B 1_555 1_555
C15B C14B 1_555 1_555
H14B C15B 1_555 1_555
C16B N11B 1_555 1_555
C17B N3 1_555 1_555
H15B C17B 1_555 1_555
H16B C17B 1_555 1_555
C18B N1 1_555 1_555
H17B C18B 1_555 1_555
H18B C18B 1_555 1_555
N1B C18 1_555 1_555
N2B C1B 1_555 1_555
N3B C17 1_555 1_555
N4B C2B 1_555 1_555
N5B C5B 1_555 1_555
N6B C7B 1_555 1_555
N7B C6B 1_555 1_555
N8B C8B 1_555 1_555
N9B C11B 1_555 1_555
N10B C13B 1_555 1_555
N11B C12B 1_555 1_555
N12B C14B 1_555 1_555
O1B C1B 1_555 1_555
O2B C4B 1_555 1_555
O3B C7B 1_555 1_555
O4B C10B 1_555 1_555
O5B C13B 1_555 1_555
O6B C16B 1_555 1_555
C19B C21 1_555 1_555
C20B C19B 1_555 1_555
H19B C20B 1_555 1_555
C21B C19 1_555 1_555
H20B C21B 1_555 1_555
N13B C19B 1_555 1_555
H21B N13B 1_555 1_555
H22B N13B 1_555 1_555
H23B N13B 1_555 1_555
C2 N2 1_555 1_555
C4 N4 1_555 1_555
C5 N2 1_555 1_555
C6 N4 1_555 1_555
C8 N6 1_555 1_555
C9 N5 1_555 1_555
C9 N7 1_555 1_555
C10 N8 1_555 1_555
C11 N6 1_555 1_555
C12 N8 1_555 1_555
C14 N10 1_555 1_555
C15 N9 1_555 1_555
C15 N11 1_555 1_555
C16 N12 1_555 1_555
C17 N10 1_555 1_555
C18 N12 1_555 1_555
C2B N2B 1_555 1_555
C3B N1B 1_555 1_555
C3B N3B 1_555 1_555
C4B N4B 1_555 1_555
C5B N2B 1_555 1_555
C6B N4B 1_555 1_555
C8B N6B 1_555 1_555
C9B N5B 1_555 1_555
C9B N7B 1_555 1_555
C10B N8B 1_555 1_555
C11B N6B 1_555 1_555
C12B N8B 1_555 1_555
C14B N10B 1_555 1_555
C15B N9B 1_555 1_555
C15B N11B 1_555 1_555
C16B N12B 1_555 1_555
C17B N10B 1_555 1_555
C18B N12B 1_555 1_555
C20B C21B 1_555 1_555

#END
