
#######################################################################
#
#                 Cambridge Crystallographic Data Centre
#                                CCDC 
#
#######################################################################
#
# If this CIF has been generated from an entry in the Cambridge 
# Structural Database, then it will include bibliographic, chemical, 
# crystal, experimental, refinement or atomic coordinate data resulting 
# from the CCDC's data processing and validation procedures.
#
#######################################################################

data_CESDOU
_chemical_formula_moiety         'C46 H70 N4 Na2 O4'
_chemical_name_systematic        
bis(\m~2~-1-Methyl-2-(3,5-di-t-butyl-2-oxybenzyl)imidazole-N,O,O)-bis(tetrahydrofuran)-di-sodium
_symmetry_cell_setting           triclinic
_symmetry_space_group_name_H-M   'P -1'
_symmetry_Int_Tables_number      2
_space_group_name_Hall           '-P 1'
loop_
_symmetry_equiv_pos_site_id
_symmetry_equiv_pos_as_xyz
1 x,y,z
2 -x,-y,-z
_cell_length_a                   12.712(2)
_cell_length_b                   14.622(3)
_cell_length_c                   15.029(4)
_cell_angle_alpha                80.204(13)
_cell_angle_beta                 65.035(9)
_cell_angle_gamma                64.229(11)
_cell_volume                     2280.31
_exptl_crystal_colour            colorless
_exptl_crystal_description       block
_cell_formula_units_Z            2
loop_
_atom_site_label
_atom_site_type_symbol
_atom_site_fract_x
_atom_site_fract_y
_atom_site_fract_z
Na1 Na 0.59657(9) 0.41774(7) 0.04440(7)
O1 O 0.3971(2) 0.53250(13) 0.10739(12)
O2 O 0.6638(2) 0.2427(1) 0.0562(2)
N1 N 0.6600(2) 0.4650(2) 0.1520(2)
N2 N 0.6364(2) 0.5671(2) 0.2582(2)
C1 C 0.3247(2) 0.5813(2) 0.1918(2)
C2 C 0.2053(2) 0.5769(2) 0.2545(2)
C3 C 0.1346(2) 0.6312(2) 0.3432(2)
C4 C 0.1714(2) 0.6916(2) 0.3750(2)
C5 C 0.2871(2) 0.6960(2) 0.3135(2)
C6 C 0.3635(2) 0.6423(2) 0.2251(2)
C7 C 0.4940(2) 0.6425(2) 0.1646(2)
C8 C 0.5966(2) 0.5582(2) 0.1904(2)
C9 C 0.7304(3) 0.4739(2) 0.2619(2)
C10 C 0.7430(2) 0.4131(2) 0.1973(2)
C11 C 0.1602(2) 0.5077(2) 0.2266(2)
C12 C 0.1592(3) 0.5309(2) 0.1235(2)
C13 C 0.2496(3) 0.3964(2) 0.2294(2)
C14 C 0.0256(3) 0.5206(2) 0.2978(2)
C15 C 0.0943(2) 0.7487(2) 0.4739(2)
C16 C -0.0256(3) 0.7304(2) 0.5335(2)
C17 C 0.0535(3) 0.8634(2) 0.4586(2)
C18 C 0.1762(3) 0.7134(2) 0.5344(2)
C19 C 0.5928(3) 0.6567(2) 0.3157(2)
C20 C 0.6188(3) 0.1918(2) 0.0174(2)
C21 C 0.6900(3) 0.0789(2) 0.0274(2)
C22 C 0.7552(4) 0.0728(3) 0.0919(3)
C23 C 0.7097(5) 0.1750(3) 0.1243(3)
H1 H 0.0544(2) 0.6268(2) 0.3851(2)
H2 H 0.3155(2) 0.7383(2) 0.3328(2)
H3 H 0.5131(2) 0.6359(2) 0.0958(2)
H4 H 0.4920(2) 0.7067(2) 0.1761(2)
H5 H 0.7773(3) 0.4565(2) 0.3036(2)
H6 H 0.8020(2) 0.3424(2) 0.1841(2)
H7 H 0.2434(3) 0.5230(2) 0.0765(2)
H8 H 0.1344(3) 0.4844(2) 0.1064(2)
H9 H 0.0991(3) 0.6001(2) 0.1223(2)
H10 H 0.2466(3) 0.3807(2) 0.2956(2)
H11 H 0.2233(3) 0.3523(2) 0.2104(2)
H12 H 0.3356(3) 0.3860(2) 0.1845(2)
H13 H -0.0340(3) 0.5898(2) 0.2959(2)
H14 H 0.0020(3) 0.4741(2) 0.2792(2)
H15 H 0.0237(3) 0.5058(2) 0.3637(2)
H16 H -0.0714(3) 0.7669(2) 0.5958(2)
H17 H -0.0790(3) 0.7543(2) 0.4964(2)
H18 H -0.0031(3) 0.6583(2) 0.5452(2)
H19 H 0.1285(3) 0.8772(2) 0.4218(2)
H20 H -0.0006(3) 0.8866(2) 0.4221(2)
H21 H 0.0073(3) 0.8988(2) 0.5215(2)
H22 H 0.2020(3) 0.6409(2) 0.5451(2)
H23 H 0.2510(3) 0.7278(2) 0.4985(2)
H24 H 0.1284(3) 0.7492(2) 0.5972(2)
H25 H 0.6632(3) 0.6749(2) 0.3011(2)
H26 H 0.5267(3) 0.7128(2) 0.2997(2)
H27 H 0.5592(3) 0.6420(2) 0.3850(2)
H28 H 0.5283(3) 0.2116(2) 0.0544(2)
H29 H 0.6349(3) 0.2090(2) -0.0510(2)
H30 H 0.6320(3) 0.0456(2) 0.0573(2)
H31 H 0.7514(3) 0.0478(2) -0.0363(2)
H32 H 0.7342(4) 0.0300(3) 0.1476(3)
H33 H 0.8465(4) 0.0453(3) 0.0554(3)
H34 H 0.7786(5) 0.1859(3) 0.1266(3)
H35 H 0.6418(5) 0.1869(3) 0.1891(3)
Na1A Na 0.40343(9) 0.58226(7) -0.04440(7)
O1A O 0.6029(2) 0.46750(13) -0.10739(12)
O2A O 0.3362(2) 0.7573(1) -0.0562(2)
N1A N 0.3400(2) 0.5350(2) -0.1520(2)
N2A N 0.3636(2) 0.4329(2) -0.2582(2)
C1A C 0.6753(2) 0.4187(2) -0.1918(2)
C2A C 0.7947(2) 0.4231(2) -0.2545(2)
C3A C 0.8654(2) 0.3688(2) -0.3432(2)
C4A C 0.8286(2) 0.3084(2) -0.3750(2)
C5A C 0.7129(2) 0.3040(2) -0.3135(2)
C6A C 0.6365(2) 0.3577(2) -0.2251(2)
C7A C 0.5060(2) 0.3575(2) -0.1646(2)
C8A C 0.4034(2) 0.4418(2) -0.1904(2)
C9A C 0.2696(3) 0.5261(2) -0.2619(2)
C10A C 0.2570(2) 0.5869(2) -0.1973(2)
C11A C 0.8398(2) 0.4923(2) -0.2266(2)
C12A C 0.8408(3) 0.4691(2) -0.1235(2)
C13A C 0.7504(3) 0.6036(2) -0.2294(2)
C14A C 0.9744(3) 0.4794(2) -0.2978(2)
C15A C 0.9057(2) 0.2513(2) -0.4739(2)
C16A C 1.0256(3) 0.2696(2) -0.5335(2)
C17A C 0.9465(3) 0.1366(2) -0.4586(2)
C18A C 0.8238(3) 0.2866(2) -0.5344(2)
C19A C 0.4072(3) 0.3433(2) -0.3157(2)
C20A C 0.3812(3) 0.8082(2) -0.0174(2)
C21A C 0.3100(3) 0.9211(2) -0.0274(2)
C22A C 0.2448(4) 0.9272(3) -0.0919(3)
C23A C 0.2903(5) 0.8250(3) -0.1243(3)
H1A H 0.9456(2) 0.3732(2) -0.3851(2)
H2A H 0.6845(2) 0.2617(2) -0.3328(2)
H3A H 0.4869(2) 0.3641(2) -0.0958(2)
H4A H 0.5080(2) 0.2933(2) -0.1761(2)
H5A H 0.2227(3) 0.5435(2) -0.3036(2)
H6A H 0.1980(2) 0.6576(2) -0.1841(2)
H7A H 0.7566(3) 0.4770(2) -0.0765(2)
H8A H 0.8656(3) 0.5156(2) -0.1064(2)
H9A H 0.9009(3) 0.3999(2) -0.1223(2)
H10A H 0.7534(3) 0.6193(2) -0.2956(2)
H11A H 0.7767(3) 0.6477(2) -0.2104(2)
H12A H 0.6644(3) 0.6140(2) -0.1845(2)
H13A H 1.0340(3) 0.4102(2) -0.2959(2)
H14A H 0.9980(3) 0.5259(2) -0.2792(2)
H15A H 0.9763(3) 0.4942(2) -0.3637(2)
H16A H 1.0714(3) 0.2331(2) -0.5958(2)
H17A H 1.0790(3) 0.2457(2) -0.4964(2)
H18A H 1.0031(3) 0.3417(2) -0.5452(2)
H19A H 0.8715(3) 0.1228(2) -0.4218(2)
H20A H 1.0006(3) 0.1134(2) -0.4221(2)
H21A H 0.9927(3) 0.1012(2) -0.5215(2)
H22A H 0.7980(3) 0.3591(2) -0.5451(2)
H23A H 0.7490(3) 0.2722(2) -0.4985(2)
H24A H 0.8716(3) 0.2508(2) -0.5972(2)
H25A H 0.3368(3) 0.3251(2) -0.3011(2)
H26A H 0.4733(3) 0.2872(2) -0.2997(2)
H27A H 0.4408(3) 0.3580(2) -0.3850(2)
H28A H 0.4717(3) 0.7884(2) -0.0544(2)
H29A H 0.3651(3) 0.7910(2) 0.0510(2)
H30A H 0.3680(3) 0.9544(2) -0.0573(2)
H31A H 0.2486(3) 0.9522(2) 0.0363(2)
H32A H 0.2658(4) 0.9700(3) -0.1476(3)
H33A H 0.1535(4) 0.9547(3) -0.0554(3)
H34A H 0.2214(5) 0.8141(3) -0.1266(3)
H35A H 0.3582(5) 0.8131(3) -0.1891(3)
Na2 Na 0.55891(9) 0.08225(7) 0.45558(7)
O3 O 0.5367(2) -0.03244(13) 0.39270(12)
O4 O 0.4628(2) 0.2572(1) 0.4438(2)
N3 N 0.7768(2) 0.0350(2) 0.3481(2)
N4 N 0.9616(2) -0.0669(2) 0.2419(2)
C24 C 0.5975(2) -0.0814(2) 0.3081(2)
C25 C 0.5361(2) -0.0763(2) 0.2460(2)
C26 C 0.6091(2) -0.1311(2) 0.1570(2)
C27 C 0.7382(2) -0.1916(2) 0.1247(2)
C28 C 0.7969(2) -0.1961(2) 0.1869(2)
C29 C 0.7309(2) -0.1419(2) 0.2746(2)
C30 C 0.8012(2) -0.1423(2) 0.3353(2)
C31 C 0.8453(2) -0.0581(2) 0.3094(2)
C32 C 0.8537(3) 0.0867(2) 0.3026(2)
C33 C 0.9667(3) 0.0262(2) 0.2382(2)
C34 C 0.3946(2) -0.0079(2) 0.2735(2)
C35 C 0.3135(3) -0.0309(2) 0.3760(2)
C36 C 0.3755(3) 0.1037(2) 0.2710(2)
C37 C 0.3434(3) -0.0209(2) 0.2027(2)
C38 C 0.8170(2) -0.2490(2) 0.0262(2)
C39 C 0.7379(3) -0.2300(2) -0.0333(2)
C40 C 0.9246(3) -0.2141(2) -0.0344(2)
C41 C 0.8761(3) -0.3633(2) 0.0414(2)
C42 C 1.0657(3) -0.1565(2) 0.1850(2)
C43 C 0.3281(3) 0.3080(2) 0.4825(2)
C44 C 0.2960(3) 0.4213(2) 0.4726(2)
C45 C 0.4202(4) 0.4273(3) 0.4082(3)
C46 C 0.5095(4) 0.3249(3) 0.3751(3)
H36 H 0.5665(2) -0.1269(2) 0.1150(2)
H37 H 0.8866(2) -0.2390(2) 0.1680(2)
H38 H 0.7442(2) -0.1350(2) 0.4040(2)
H39 H 0.8743(2) -0.2067(2) 0.3246(2)
H40 H 0.8291(3) 0.1573(2) 0.3160(2)
H41 H 1.0376(3) 0.0438(2) 0.1966(2)
H42 H 0.2255(3) 0.0164(2) 0.3931(2)
H43 H 0.3202(3) -0.0998(2) 0.3772(2)
H44 H 0.3436(3) -0.0239(2) 0.4229(2)
H45 H 0.4061(3) 0.1141(2) 0.3160(2)
H46 H 0.4227(3) 0.1197(2) 0.2049(2)
H47 H 0.2860(3) 0.1475(2) 0.2901(2)
H48 H 0.2552(3) 0.0262(2) 0.2208(2)
H49 H 0.3932(3) -0.0071(2) 0.1366(2)
H50 H 0.3501(3) -0.0899(2) 0.2054(2)
H51 H 0.7004(3) -0.1578(2) -0.0449(2)
H52 H 0.7910(3) -0.2664(2) -0.0957(2)
H53 H 0.6712(3) -0.2537(2) 0.0036(2)
H54 H 0.9777(3) -0.2288(2) 0.0017(2)
H55 H 0.9752(3) -0.2500(2) -0.0972(2)
H56 H 0.8891(3) -0.1416(2) -0.0453(2)
H57 H 0.8089(3) -0.3868(2) 0.0773(2)
H58 H 0.9288(3) -0.3984(2) -0.0216(2)
H59 H 0.9275(3) -0.3772(2) 0.0788(2)
H60 H 1.0393(3) -0.2123(2) 0.2008(2)
H61 H 1.0876(3) -0.1421(2) 0.1156(2)
H62 H 1.1390(3) -0.1748(2) 0.2005(2)
H63 H 0.2945(3) 0.2880(2) 0.4456(2)
H64 H 0.2931(3) 0.2910(2) 0.5510(2)
H65 H 0.2350(3) 0.4543(2) 0.4423(2)
H66 H 0.2622(3) 0.4527(2) 0.5363(2)
H67 H 0.4122(4) 0.4705(3) 0.3528(3)
H68 H 0.4474(4) 0.4543(3) 0.4453(3)
H69 H 0.5917(4) 0.3139(3) 0.3725(3)
H70 H 0.5176(4) 0.3132(3) 0.3105(3)
Na2A Na 0.44109(9) -0.08225(7) 0.54442(7)
O3A O 0.4633(2) 0.03244(13) 0.60730(12)
O4A O 0.5372(2) -0.2572(1) 0.5562(2)
N3A N 0.2232(2) -0.0350(2) 0.6519(2)
N4A N 0.0384(2) 0.0669(2) 0.7581(2)
C24A C 0.4025(2) 0.0814(2) 0.6919(2)
C25A C 0.4639(2) 0.0763(2) 0.7540(2)
C26A C 0.3909(2) 0.1311(2) 0.8430(2)
C27A C 0.2618(2) 0.1916(2) 0.8753(2)
C28A C 0.2031(2) 0.1961(2) 0.8131(2)
C29A C 0.2691(2) 0.1419(2) 0.7254(2)
C30A C 0.1988(2) 0.1423(2) 0.6647(2)
C31A C 0.1547(2) 0.0581(2) 0.6906(2)
C32A C 0.1463(3) -0.0867(2) 0.6974(2)
C33A C 0.0333(3) -0.0262(2) 0.7618(2)
C34A C 0.6054(2) 0.0079(2) 0.7265(2)
C35A C 0.6865(3) 0.0309(2) 0.6240(2)
C36A C 0.6245(3) -0.1037(2) 0.7290(2)
C37A C 0.6566(3) 0.0209(2) 0.7973(2)
C38A C 0.1830(2) 0.2490(2) 0.9738(2)
C39A C 0.2621(3) 0.2300(2) 1.0333(2)
C40A C 0.0754(3) 0.2141(2) 1.0344(2)
C41A C 0.1239(3) 0.3633(2) 0.9586(2)
C42A C -0.0657(3) 0.1565(2) 0.8150(2)
C43A C 0.6719(3) -0.3080(2) 0.5175(2)
C44A C 0.7040(3) -0.4213(2) 0.5274(2)
C45A C 0.5798(4) -0.4273(3) 0.5918(3)
C46A C 0.4905(4) -0.3249(3) 0.6249(3)
H36A H 0.4335(2) 0.1269(2) 0.8850(2)
H37A H 0.1134(2) 0.2390(2) 0.8320(2)
H38A H 0.2558(2) 0.1350(2) 0.5960(2)
H39A H 0.1257(2) 0.2067(2) 0.6754(2)
H40A H 0.1709(3) -0.1573(2) 0.6840(2)
H41A H -0.0376(3) -0.0438(2) 0.8034(2)
H42A H 0.7745(3) -0.0164(2) 0.6069(2)
H43A H 0.6798(3) 0.0998(2) 0.6228(2)
H44A H 0.6564(3) 0.0239(2) 0.5771(2)
H45A H 0.5939(3) -0.1141(2) 0.6840(2)
H46A H 0.5773(3) -0.1197(2) 0.7951(2)
H47A H 0.7140(3) -0.1475(2) 0.7099(2)
H48A H 0.7448(3) -0.0262(2) 0.7792(2)
H49A H 0.6068(3) 0.0071(2) 0.8634(2)
H50A H 0.6499(3) 0.0899(2) 0.7946(2)
H51A H 0.2996(3) 0.1578(2) 1.0449(2)
H52A H 0.2090(3) 0.2664(2) 1.0957(2)
H53A H 0.3288(3) 0.2537(2) 0.9964(2)
H54A H 0.0223(3) 0.2288(2) 0.9983(2)
H55A H 0.0248(3) 0.2500(2) 1.0972(2)
H56A H 0.1109(3) 0.1416(2) 1.0453(2)
H57A H 0.1911(3) 0.3868(2) 0.9227(2)
H58A H 0.0712(3) 0.3984(2) 1.0216(2)
H59A H 0.0725(3) 0.3772(2) 0.9212(2)
H60A H -0.0393(3) 0.2123(2) 0.7992(2)
H61A H -0.0876(3) 0.1421(2) 0.8844(2)
H62A H -0.1390(3) 0.1748(2) 0.7995(2)
H63A H 0.7055(3) -0.2880(2) 0.5544(2)
H64A H 0.7069(3) -0.2910(2) 0.4490(2)
H65A H 0.7650(3) -0.4543(2) 0.5577(2)
H66A H 0.7378(3) -0.4527(2) 0.4637(2)
H67A H 0.5878(4) -0.4705(3) 0.6472(3)
H68A H 0.5526(4) -0.4543(3) 0.5547(3)
H69A H 0.4083(4) -0.3139(3) 0.6275(3)
H70A H 0.4824(4) -0.3132(3) 0.6895(3)
loop_
_geom_bond_atom_site_label_1
_geom_bond_atom_site_label_2
_geom_bond_site_symmetry_1
_geom_bond_site_symmetry_2
Na1 O1 1_555 1_555
Na2 O3 1_555 1_555
O1 C1 1_555 1_555
O2 Na1 1_555 1_555
O3 C24 1_555 1_555
O4 Na2 1_555 1_555
N1 Na1 1_555 1_555
N2 C8 1_555 1_555
N3 Na2 1_555 1_555
N4 C31 1_555 1_555
C1 C2 1_555 1_555
C2 C3 1_555 1_555
C3 C4 1_555 1_555
C4 C5 1_555 1_555
C5 C6 1_555 1_555
C6 C1 1_555 1_555
C7 C6 1_555 1_555
C8 N1 1_555 1_555
C9 N2 1_555 1_555
C10 N1 1_555 1_555
C11 C2 1_555 1_555
C12 C11 1_555 1_555
C13 C11 1_555 1_555
C14 C11 1_555 1_555
C15 C4 1_555 1_555
C16 C15 1_555 1_555
C17 C15 1_555 1_555
C18 C15 1_555 1_555
C19 N2 1_555 1_555
C20 O2 1_555 1_555
C21 C20 1_555 1_555
C22 C21 1_555 1_555
C23 O2 1_555 1_555
C24 C25 1_555 1_555
C25 C26 1_555 1_555
C26 C27 1_555 1_555
C27 C28 1_555 1_555
C28 C29 1_555 1_555
C29 C24 1_555 1_555
C30 C29 1_555 1_555
C31 N3 1_555 1_555
C32 N3 1_555 1_555
C33 N4 1_555 1_555
C34 C25 1_555 1_555
C35 C34 1_555 1_555
C36 C34 1_555 1_555
C37 C34 1_555 1_555
C38 C27 1_555 1_555
C39 C38 1_555 1_555
C40 C38 1_555 1_555
C41 C38 1_555 1_555
C42 N4 1_555 1_555
C43 O4 1_555 1_555
C44 C43 1_555 1_555
C45 C44 1_555 1_555
C46 O4 1_555 1_555
H1 C3 1_555 1_555
H2 C5 1_555 1_555
H3 C7 1_555 1_555
H4 C7 1_555 1_555
H5 C9 1_555 1_555
H6 C10 1_555 1_555
H7 C12 1_555 1_555
H8 C12 1_555 1_555
H9 C12 1_555 1_555
H10 C13 1_555 1_555
H11 C13 1_555 1_555
H12 C13 1_555 1_555
H13 C14 1_555 1_555
H14 C14 1_555 1_555
H15 C14 1_555 1_555
H16 C16 1_555 1_555
H17 C16 1_555 1_555
H18 C16 1_555 1_555
H19 C17 1_555 1_555
H20 C17 1_555 1_555
H21 C17 1_555 1_555
H22 C18 1_555 1_555
H23 C18 1_555 1_555
H24 C18 1_555 1_555
H25 C19 1_555 1_555
H26 C19 1_555 1_555
H27 C19 1_555 1_555
H28 C20 1_555 1_555
H29 C20 1_555 1_555
H30 C21 1_555 1_555
H31 C21 1_555 1_555
H32 C22 1_555 1_555
H33 C22 1_555 1_555
H34 C23 1_555 1_555
H35 C23 1_555 1_555
H36 C26 1_555 1_555
H37 C28 1_555 1_555
H38 C30 1_555 1_555
H39 C30 1_555 1_555
H40 C32 1_555 1_555
H41 C33 1_555 1_555
H42 C35 1_555 1_555
H43 C35 1_555 1_555
H44 C35 1_555 1_555
H45 C36 1_555 1_555
H46 C36 1_555 1_555
H47 C36 1_555 1_555
H48 C37 1_555 1_555
H49 C37 1_555 1_555
H50 C37 1_555 1_555
H51 C39 1_555 1_555
H52 C39 1_555 1_555
H53 C39 1_555 1_555
H54 C40 1_555 1_555
H55 C40 1_555 1_555
H56 C40 1_555 1_555
H57 C41 1_555 1_555
H58 C41 1_555 1_555
H59 C41 1_555 1_555
H60 C42 1_555 1_555
H61 C42 1_555 1_555
H62 C42 1_555 1_555
H63 C43 1_555 1_555
H64 C43 1_555 1_555
H65 C44 1_555 1_555
H66 C44 1_555 1_555
H67 C45 1_555 1_555
H68 C45 1_555 1_555
H69 C46 1_555 1_555
H70 C46 1_555 1_555
Na1A O1 1_555 1_555
Na2A O3 1_555 1_555
O1A Na1 1_555 1_555
O2A Na1A 1_555 1_555
O3A Na2 1_555 1_555
O4A Na2A 1_555 1_555
N1A Na1A 1_555 1_555
N2A C8A 1_555 1_555
N3A Na2A 1_555 1_555
N4A C31A 1_555 1_555
C1A O1A 1_555 1_555
C2A C1A 1_555 1_555
C3A C2A 1_555 1_555
C4A C3A 1_555 1_555
C5A C4A 1_555 1_555
C6A C1A 1_555 1_555
C7A C6A 1_555 1_555
C8A N1A 1_555 1_555
C9A N2A 1_555 1_555
C10A N1A 1_555 1_555
C11A C2A 1_555 1_555
C12A C11A 1_555 1_555
C13A C11A 1_555 1_555
C14A C11A 1_555 1_555
C15A C4A 1_555 1_555
C16A C15A 1_555 1_555
C17A C15A 1_555 1_555
C18A C15A 1_555 1_555
C19A N2A 1_555 1_555
C20A O2A 1_555 1_555
C21A C20A 1_555 1_555
C22A C21A 1_555 1_555
C23A O2A 1_555 1_555
C24A O3A 1_555 1_555
C25A C24A 1_555 1_555
C26A C25A 1_555 1_555
C27A C26A 1_555 1_555
C28A C27A 1_555 1_555
C29A C24A 1_555 1_555
C30A C29A 1_555 1_555
C31A N3A 1_555 1_555
C32A N3A 1_555 1_555
C33A N4A 1_555 1_555
C34A C25A 1_555 1_555
C35A C34A 1_555 1_555
C36A C34A 1_555 1_555
C37A C34A 1_555 1_555
C38A C27A 1_555 1_555
C39A C38A 1_555 1_555
C40A C38A 1_555 1_555
C41A C38A 1_555 1_555
C42A N4A 1_555 1_555
C43A O4A 1_555 1_555
C44A C43A 1_555 1_555
C45A C44A 1_555 1_555
C46A O4A 1_555 1_555
H1A C3A 1_555 1_555
H2A C5A 1_555 1_555
H3A C7A 1_555 1_555
H4A C7A 1_555 1_555
H5A C9A 1_555 1_555
H6A C10A 1_555 1_555
H7A C12A 1_555 1_555
H8A C12A 1_555 1_555
H9A C12A 1_555 1_555
H10A C13A 1_555 1_555
H11A C13A 1_555 1_555
H12A C13A 1_555 1_555
H13A C14A 1_555 1_555
H14A C14A 1_555 1_555
H15A C14A 1_555 1_555
H16A C16A 1_555 1_555
H17A C16A 1_555 1_555
H18A C16A 1_555 1_555
H19A C17A 1_555 1_555
H20A C17A 1_555 1_555
H21A C17A 1_555 1_555
H22A C18A 1_555 1_555
H23A C18A 1_555 1_555
H24A C18A 1_555 1_555
H25A C19A 1_555 1_555
H26A C19A 1_555 1_555
H27A C19A 1_555 1_555
H28A C20A 1_555 1_555
H29A C20A 1_555 1_555
H30A C21A 1_555 1_555
H31A C21A 1_555 1_555
H32A C22A 1_555 1_555
H33A C22A 1_555 1_555
H34A C23A 1_555 1_555
H35A C23A 1_555 1_555
H36A C26A 1_555 1_555
H37A C28A 1_555 1_555
H38A C30A 1_555 1_555
H39A C30A 1_555 1_555
H40A C32A 1_555 1_555
H41A C33A 1_555 1_555
H42A C35A 1_555 1_555
H43A C35A 1_555 1_555
H44A C35A 1_555 1_555
H45A C36A 1_555 1_555
H46A C36A 1_555 1_555
H47A C36A 1_555 1_555
H48A C37A 1_555 1_555
H49A C37A 1_555 1_555
H50A C37A 1_555 1_555
H51A C39A 1_555 1_555
H52A C39A 1_555 1_555
H53A C39A 1_555 1_555
H54A C40A 1_555 1_555
H55A C40A 1_555 1_555
H56A C40A 1_555 1_555
H57A C41A 1_555 1_555
H58A C41A 1_555 1_555
H59A C41A 1_555 1_555
H60A C42A 1_555 1_555
H61A C42A 1_555 1_555
H62A C42A 1_555 1_555
H63A C43A 1_555 1_555
H64A C43A 1_555 1_555
H65A C44A 1_555 1_555
H66A C44A 1_555 1_555
H67A C45A 1_555 1_555
H68A C45A 1_555 1_555
H69A C46A 1_555 1_555
H70A C46A 1_555 1_555
C7 C8 1_555 1_555
C9 C10 1_555 1_555
C22 C23 1_555 1_555
C30 C31 1_555 1_555
C32 C33 1_555 1_555
C45 C46 1_555 1_555
Na1A O1A 1_555 1_555
Na2A O3A 1_555 1_555
C5A C6A 1_555 1_555
C7A C8A 1_555 1_555
C9A C10A 1_555 1_555
C22A C23A 1_555 1_555
C28A C29A 1_555 1_555
C30A C31A 1_555 1_555
C32A C33A 1_555 1_555
C45A C46A 1_555 1_555

#END
