
#######################################################################
#
#                 Cambridge Crystallographic Data Centre
#                                CCDC 
#
#######################################################################
#
# If this CIF has been generated from an entry in the Cambridge 
# Structural Database, then it will include bibliographic, chemical, 
# crystal, experimental, refinement or atomic coordinate data resulting 
# from the CCDC's data processing and validation procedures.
#
#######################################################################

data_CESYEG
_chemical_formula_moiety         'C14 H34 B20'
_chemical_name_systematic        
2,4:3,6-bis(1,2-Dicarba-closo-dodecaborane-1,2-diyl)-6-t-butylbicyclo(3.1.0)hexane
_symmetry_cell_setting           orthorhombic
_symmetry_space_group_name_H-M   'P b c a'
_symmetry_Int_Tables_number      61
_space_group_name_Hall           '-P 2ac 2ab'
loop_
_symmetry_equiv_pos_site_id
_symmetry_equiv_pos_as_xyz
1 x,y,z
2 1/2-x,-y,1/2+z
3 -x,1/2+y,1/2-z
4 1/2+x,1/2-y,-z
5 -x,-y,-z
6 1/2+x,y,1/2-z
7 x,1/2-y,1/2+z
8 1/2-x,1/2+y,z
_cell_length_a                   12.8235(4)
_cell_length_b                   19.0400(6)
_cell_length_c                   20.2987(6)
_cell_angle_alpha                90
_cell_angle_beta                 90
_cell_angle_gamma                90
_cell_volume                     4956.12
_exptl_crystal_colour            colorless
_exptl_crystal_description       block
_cell_formula_units_Z            8
loop_
_atom_site_label
_atom_site_type_symbol
_atom_site_fract_x
_atom_site_fract_y
_atom_site_fract_z
C1 C 0.12030(13) 0.12509(9) 0.45033(8)
C2 C 0.21844(13) 0.15375(9) 0.49187(8)
C3 C 0.17406(12) 0.08458(9) 0.39222(8)
H1 H 0.1295 0.0503 0.3697
C4 C 0.27267(13) 0.05319(9) 0.42566(8)
H2 H 0.2527 0.0230 0.4627
C5 C 0.31338(13) 0.12511(9) 0.45120(8)
H3 H 0.3792 0.1228 0.4756
C6 C 0.31852(12) 0.16639(9) 0.38655(8)
H4 H 0.3275 0.2174 0.3894
C7 C 0.22535(13) 0.13881(9) 0.34724(8)
H5 H 0.1796 0.1738 0.3267
C8 C 0.33587(12) 0.13175(9) 0.31933(8)
C9 C 0.35391(14) 0.18358(10) 0.26036(9)
C10 C 0.3255(2) 0.26010(11) 0.27764(12)
H6 H 0.3379 0.2896 0.2401
H7 H 0.3678 0.2757 0.3138
H8 H 0.2533 0.2626 0.2898
C11 C 0.46868(15) 0.18651(12) 0.23918(10)
H9 H 0.4918 0.1403 0.2273
H10 H 0.5103 0.2038 0.2750
H11 H 0.4758 0.2173 0.2020
C12 C 0.28675(17) 0.16041(13) 0.20164(10)
H12 H 0.3033 0.1127 0.1903
H13 H 0.3006 0.1904 0.1646
H14 H 0.2143 0.1636 0.2133
C13 C 0.34653(13) 0.01476(9) 0.38028(8)
C14 C 0.38749(13) 0.05905(9) 0.31754(8)
B1 B 0.14259(17) 0.21662(11) 0.44978(11)
H15 H 0.1680 0.2479 0.4071
B2 B 0.01573(17) 0.18208(12) 0.45426(11)
H16 H -0.0403 0.1894 0.4138
B3 B 0.01650(17) 0.10359(12) 0.50104(11)
H17 H -0.0390 0.0610 0.4903
B4 B 0.14394(17) 0.08607(12) 0.52772(10)
H18 H 0.1705 0.0318 0.5359
B5 B 0.19189(19) 0.23365(13) 0.52892(11)
H19 H 0.2510 0.2745 0.5373
B6 B 0.05861(19) 0.25207(12) 0.50715(12)
H20 H 0.0289 0.3060 0.5024
B7 B -0.02069(18) 0.18381(13) 0.53890(11)
H21 H -0.1018 0.1935 0.5541
B8 B 0.06007(19) 0.12503(14) 0.58271(11)
H22 H 0.0314 0.0970 0.6265
B9 B 0.19268(19) 0.15519(14) 0.57598(10)
H23 H 0.2522 0.1464 0.6141
B10 B 0.08834(19) 0.21593(14) 0.58514(11)
H24 H 0.0786 0.2467 0.6306
B11 B 0.47505(16) 0.04253(12) 0.38189(10)
H25 H 0.5073 0.0833 0.4145
B12 B 0.4376(2) -0.04144(12) 0.41126(12)
H26 H 0.4445 -0.0552 0.4637
B13 B 0.3322(2) -0.07297(12) 0.36343(12)
H27 H 0.2717 -0.1068 0.3851
B14 B 0.30103(17) -0.00925(11) 0.30274(10)
H28 H 0.2210 -0.0022 0.2844
B15 B 0.51668(16) 0.03401(12) 0.30007(11)
H29 H 0.5759 0.0695 0.2793
B16 B 0.54784(19) -0.03140(13) 0.35916(12)
H30 H 0.6279 -0.0394 0.3771
B17 B 0.4606(2) -0.10319(13) 0.34764(13)
H31 H 0.4842 -0.1576 0.3582
B18 B 0.3763(2) -0.08244(12) 0.28061(13)
H32 H 0.3455 -0.1234 0.2476
B19 B 0.41039(17) 0.00301(11) 0.25135(11)
H33 H 0.4019 0.0188 0.1995
B20 B 0.50912(19) -0.05609(12) 0.27833(12)
H34 H 0.5645 -0.0799 0.2435
loop_
_geom_bond_atom_site_label_1
_geom_bond_atom_site_label_2
_geom_bond_site_symmetry_1
_geom_bond_site_symmetry_2
C1 C2 1_555 1_555
C2 C5 1_555 1_555
C3 C1 1_555 1_555
H1 C3 1_555 1_555
C4 C3 1_555 1_555
H2 C4 1_555 1_555
C5 C4 1_555 1_555
H3 C5 1_555 1_555
C6 C5 1_555 1_555
H4 C6 1_555 1_555
C7 C3 1_555 1_555
H5 C7 1_555 1_555
C8 C6 1_555 1_555
C9 C8 1_555 1_555
C10 C9 1_555 1_555
H6 C10 1_555 1_555
H7 C10 1_555 1_555
H8 C10 1_555 1_555
C11 C9 1_555 1_555
H9 C11 1_555 1_555
H10 C11 1_555 1_555
H11 C11 1_555 1_555
C12 C9 1_555 1_555
H12 C12 1_555 1_555
H13 C12 1_555 1_555
H14 C12 1_555 1_555
C13 C4 1_555 1_555
C14 C8 1_555 1_555
B1 C1 1_555 1_555
H15 B1 1_555 1_555
B2 C1 1_555 1_555
H16 B2 1_555 1_555
B3 C1 1_555 1_555
H17 B3 1_555 1_555
B4 C1 1_555 1_555
H18 B4 1_555 1_555
B5 C2 1_555 1_555
H19 B5 1_555 1_555
B6 B1 1_555 1_555
H20 B6 1_555 1_555
B7 B2 1_555 1_555
H21 B7 1_555 1_555
B8 B3 1_555 1_555
H22 B8 1_555 1_555
B9 C2 1_555 1_555
H23 B9 1_555 1_555
B10 B5 1_555 1_555
H24 B10 1_555 1_555
B11 C13 1_555 1_555
H25 B11 1_555 1_555
B12 C13 1_555 1_555
H26 B12 1_555 1_555
B13 C13 1_555 1_555
H27 B13 1_555 1_555
B14 C13 1_555 1_555
H28 B14 1_555 1_555
B15 C14 1_555 1_555
H29 B15 1_555 1_555
B16 B11 1_555 1_555
H30 B16 1_555 1_555
B17 B12 1_555 1_555
H31 B17 1_555 1_555
B18 B13 1_555 1_555
H32 B18 1_555 1_555
B19 C14 1_555 1_555
H33 B19 1_555 1_555
B20 B15 1_555 1_555
H34 B20 1_555 1_555
C2 B1 1_555 1_555
C2 B4 1_555 1_555
C6 C7 1_555 1_555
C7 C8 1_555 1_555
C13 C14 1_555 1_555
C14 B11 1_555 1_555
C14 B14 1_555 1_555
B1 B2 1_555 1_555
B1 B5 1_555 1_555
B2 B3 1_555 1_555
B2 B6 1_555 1_555
B3 B4 1_555 1_555
B3 B7 1_555 1_555
B4 B8 1_555 1_555
B4 B9 1_555 1_555
B5 B6 1_555 1_555
B5 B9 1_555 1_555
B6 B7 1_555 1_555
B6 B10 1_555 1_555
B7 B8 1_555 1_555
B7 B10 1_555 1_555
B8 B9 1_555 1_555
B8 B10 1_555 1_555
B9 B10 1_555 1_555
B11 B12 1_555 1_555
B11 B15 1_555 1_555
B12 B13 1_555 1_555
B12 B16 1_555 1_555
B13 B14 1_555 1_555
B13 B17 1_555 1_555
B14 B18 1_555 1_555
B14 B19 1_555 1_555
B15 B16 1_555 1_555
B15 B19 1_555 1_555
B16 B17 1_555 1_555
B16 B20 1_555 1_555
B17 B18 1_555 1_555
B17 B20 1_555 1_555
B18 B19 1_555 1_555
B18 B20 1_555 1_555
B19 B20 1_555 1_555

#END
