
#######################################################################
#
#                 Cambridge Crystallographic Data Centre
#                                CCDC 
#
#######################################################################
#
# If this CIF has been generated from an entry in the Cambridge 
# Structural Database, then it will include bibliographic, chemical, 
# crystal, experimental, refinement or atomic coordinate data resulting 
# from the CCDC's data processing and validation procedures.
#
#######################################################################

data_CESYUW
_chemical_formula_moiety         'C16 H20 B10'
_chemical_name_systematic        
1,2-(1,4-Dihydroanthracene-1,4-diyl)-1,2-dicarba-closo-dodecaborane
_symmetry_cell_setting           orthorhombic
_symmetry_space_group_name_H-M   'P 21 21 21'
_symmetry_Int_Tables_number      19
_space_group_name_Hall           'P 2ac 2ab'
loop_
_symmetry_equiv_pos_site_id
_symmetry_equiv_pos_as_xyz
1 x,y,z
2 1/2-x,-y,1/2+z
3 -x,1/2+y,1/2-z
4 1/2+x,1/2-y,-z
_cell_length_a                   8.7491(7)
_cell_length_b                   11.0052(9)
_cell_length_c                   18.6504(15)
_cell_angle_alpha                90
_cell_angle_beta                 90
_cell_angle_gamma                90
_cell_volume                     1795.76
_exptl_crystal_colour            colorless
_exptl_crystal_description       block
_cell_formula_units_Z            4
loop_
_atom_site_label
_atom_site_type_symbol
_atom_site_fract_x
_atom_site_fract_y
_atom_site_fract_z
C1 C 0.4339(3) 0.3178(2) 0.18907(15)
C2 C 0.3025(3) 0.3194(3) 0.12952(15)
C3 C 0.5916(3) 0.2913(3) 0.15192(16)
H1 H 0.6760 0.2888 0.1864
C4 C 0.5766(4) 0.1737(3) 0.11013(17)
H2 H 0.6387 0.1067 0.1186
C5 C 0.4688(4) 0.1741(3) 0.06083(18)
H3 H 0.4497 0.1072 0.0317
C6 C 0.3780(4) 0.2913(3) 0.05479(15)
H4 H 0.3023 0.2880 0.0161
C7 C 0.6161(4) 0.3872(2) 0.09414(15)
C8 C 0.7324(4) 0.4690(3) 0.09097(15)
H5 H 0.8046 0.4720 0.1275
C9 C 0.7437(4) 0.5504(3) 0.03157(15)
C10 C 0.8645(4) 0.6353(3) 0.02497(18)
H6 H 0.9368 0.6422 0.0613
C11 C 0.8752(5) 0.7069(3) -0.03437(19)
H7 H 0.9558 0.7616 -0.0383
C12 C 0.7679(5) 0.6998(3) -0.0892(2)
H8 H 0.7777 0.7490 -0.1295
C13 C 0.6485(4) 0.6209(3) -0.08406(17)
H9 H 0.5765 0.6173 -0.1207
C14 C 0.6330(4) 0.5445(3) -0.02350(15)
C15 C 0.5087(4) 0.4615(3) -0.01629(16)
H10 H 0.4323 0.4595 -0.0510
C16 C 0.5012(3) 0.3856(3) 0.04057(15)
B1 B 0.2999(4) 0.1990(3) 0.1900(2)
H11 H 0.3233 0.1033 0.1769
B2 B 0.3669(5) 0.2641(3) 0.27002(19)
H12 H 0.4364 0.2117 0.3082
B3 B 0.4001(5) 0.4205(3) 0.25580(19)
H13 H 0.4915 0.4678 0.2852
B4 B 0.3554(4) 0.4594(3) 0.16738(17)
H14 H 0.4145 0.5338 0.1394
B5 B 0.1296(4) 0.2695(4) 0.1628(2)
H15 H 0.0435 0.2208 0.1308
B6 B 0.1671(4) 0.2364(4) 0.2551(2)
H16 H 0.1033 0.1664 0.2847
B7 B 0.2285(5) 0.3722(3) 0.2973(2)
H17 H 0.2055 0.3895 0.3544
B8 B 0.2227(5) 0.4906(4) 0.2330(2)
H18 H 0.1948 0.5844 0.2485
B9 B 0.1640(4) 0.4259(3) 0.1492(2)
H19 H 0.0997 0.4766 0.1083
B10 B 0.0807(5) 0.3762(4) 0.2306(2)
H20 H -0.0391 0.3964 0.2439
loop_
_geom_bond_atom_site_label_1
_geom_bond_atom_site_label_2
_geom_bond_site_symmetry_1
_geom_bond_site_symmetry_2
C1 C2 1_555 1_555
C2 C6 1_555 1_555
C3 C1 1_555 1_555
H1 C3 1_555 1_555
C4 C3 1_555 1_555
H2 C4 1_555 1_555
C5 C4 1_555 1_555
H3 C5 1_555 1_555
C6 C5 1_555 1_555
H4 C6 1_555 1_555
C7 C3 1_555 1_555
C8 C7 1_555 1_555
H5 C8 1_555 1_555
C9 C8 1_555 1_555
C10 C9 1_555 1_555
H6 C10 1_555 1_555
C11 C10 1_555 1_555
H7 C11 1_555 1_555
C12 C11 1_555 1_555
H8 C12 1_555 1_555
C13 C12 1_555 1_555
H9 C13 1_555 1_555
C14 C9 1_555 1_555
C15 C14 1_555 1_555
H10 C15 1_555 1_555
C16 C6 1_555 1_555
B1 C1 1_555 1_555
H11 B1 1_555 1_555
B2 C1 1_555 1_555
H12 B2 1_555 1_555
B3 C1 1_555 1_555
H13 B3 1_555 1_555
B4 C1 1_555 1_555
H14 B4 1_555 1_555
B5 C2 1_555 1_555
H15 B5 1_555 1_555
B6 B1 1_555 1_555
H16 B6 1_555 1_555
B7 B2 1_555 1_555
H17 B7 1_555 1_555
B8 B3 1_555 1_555
H18 B8 1_555 1_555
B9 C2 1_555 1_555
H19 B9 1_555 1_555
B10 B5 1_555 1_555
H20 B10 1_555 1_555
C2 B1 1_555 1_555
C2 B4 1_555 1_555
C7 C16 1_555 1_555
C13 C14 1_555 1_555
C15 C16 1_555 1_555
B1 B2 1_555 1_555
B1 B5 1_555 1_555
B2 B3 1_555 1_555
B2 B6 1_555 1_555
B3 B4 1_555 1_555
B3 B7 1_555 1_555
B4 B8 1_555 1_555
B4 B9 1_555 1_555
B5 B6 1_555 1_555
B5 B9 1_555 1_555
B6 B7 1_555 1_555
B6 B10 1_555 1_555
B7 B8 1_555 1_555
B7 B10 1_555 1_555
B8 B9 1_555 1_555
B8 B10 1_555 1_555
B9 B10 1_555 1_555

#END
