
#######################################################################
#
#                 Cambridge Crystallographic Data Centre
#                                CCDC 
#
#######################################################################
#
# If this CIF has been generated from an entry in the Cambridge 
# Structural Database, then it will include bibliographic, chemical, 
# crystal, experimental, refinement or atomic coordinate data resulting 
# from the CCDC's data processing and validation procedures.
#
#######################################################################

data_CESYAC
_chemical_formula_moiety         'C11 H28 B20'
_chemical_name_systematic        
1,2-(6-(1,2-Dicarba-closo-dodecaboranyl)cyclohexa-1,3-dien-5-methylene-5-yl)-1,2-dicarba-closo-dodecaborane
_symmetry_cell_setting           triclinic
_symmetry_space_group_name_H-M   'P -1'
_symmetry_Int_Tables_number      2
_space_group_name_Hall           '-P 1'
loop_
_symmetry_equiv_pos_site_id
_symmetry_equiv_pos_as_xyz
1 x,y,z
2 -x,-y,-z
_cell_length_a                   13.6925(7)
_cell_length_b                   13.7304(6)
_cell_length_c                   13.7522(6)
_cell_angle_alpha                61.8380(10)
_cell_angle_beta                 88.8330(10)
_cell_angle_gamma                77.7740(10)
_cell_volume                     2218.17
_exptl_crystal_colour            colorless
_exptl_crystal_description       block
_cell_formula_units_Z            4
loop_
_atom_site_label
_atom_site_type_symbol
_atom_site_fract_x
_atom_site_fract_y
_atom_site_fract_z
C1 C 0.8477(2) 0.2079(2) 0.2720(2)
C2 C 0.7971(2) 0.3342(2) 0.2519(2)
C3 C 0.9411(2) 0.2523(2) 0.2079(2)
C4 C 0.8902(2) 0.3739(2) 0.1943(2)
H1 H 0.9287 0.3976 0.2344
H2 H 0.8742 0.4323 0.1176
C5 C 0.9467(2) 0.2447(3) 0.1016(2)
H3 H 0.9228 0.3086 0.0338
C6 C 0.9864(2) 0.1451(3) 0.1069(3)
H4 H 0.9844 0.1370 0.0436
C7 C 1.0329(2) 0.0489(3) 0.2114(3)
H5 H 1.0436 -0.0244 0.2208
C8 C 1.0600(2) 0.0652(2) 0.2931(3)
H6 H 1.0922 0.0031 0.3587
C9 C 1.0400(2) 0.1830(2) 0.2827(2)
H7 H 1.0277 0.1742 0.3565
C10 C 1.1311(2) 0.2391(2) 0.2464(2)
C11 C 1.2455(2) 0.1516(3) 0.2706(3)
H8 H 1.2547 0.0593 0.3059
B1 B 0.7451(3) 0.2857(3) 0.1738(3)
H9 H 0.7467 0.3192 0.0837
B2 B 0.7616(3) 0.1384(3) 0.2644(3)
H10 H 0.7747 0.0761 0.2340
B3 B 0.8205(3) 0.1058(3) 0.3935(3)
H11 H 0.8711 0.0226 0.4455
B4 B 0.8425(3) 0.2318(3) 0.3847(2)
H12 H 0.9074 0.2302 0.4316
B5 B 0.6689(3) 0.3651(3) 0.2283(3)
H13 H 0.6219 0.4500 0.1742
B6 B 0.6436(3) 0.2373(3) 0.2402(3)
H14 H 0.5780 0.2382 0.1947
B7 B 0.6877(3) 0.1258(3) 0.3765(3)
H15 H 0.6507 0.0548 0.4192
B8 B 0.7390(3) 0.1842(3) 0.4492(3)
H16 H 0.7351 0.1508 0.5390
B9 B 0.7278(3) 0.3328(3) 0.3577(3)
H17 H 0.7181 0.3966 0.3861
B10 B 0.6313(3) 0.2663(3) 0.3534(3)
H18 H 0.5574 0.2864 0.3810
B11 B 1.1935(3) 0.2396(3) 0.1393(3)
H19 H 1.1676 0.2080 0.0866
B12 B 1.1274(3) 0.3666(3) 0.1320(3)
H20 H 1.0597 0.4199 0.0751
B13 B 1.1397(3) 0.3505(3) 0.2672(3)
H21 H 1.0801 0.3928 0.2985
B14 B 1.2138(3) 0.2130(3) 0.3545(3)
H22 H 1.2020 0.1651 0.4426
B15 B 1.3210(3) 0.2183(3) 0.1721(3)
H23 H 1.3795 0.1742 0.1414
B16 B 1.2488(3) 0.3544(3) 0.0846(3)
H24 H 1.2606 0.3998 -0.0037
B17 B 1.2160(3) 0.4250(3) 0.1646(3)
H25 H 1.2063 0.5173 0.1284
B18 B 1.2697(3) 0.3293(3) 0.3037(3)
H26 H 1.2950 0.3588 0.3585
B19 B 1.3340(3) 0.2026(3) 0.3066(3)
H27 H 1.4013 0.1483 0.3638
B20 B 1.3363(3) 0.3336(3) 0.1898(3)
H28 H 1.4049 0.3665 0.1704
C12 C 0.4348(2) 0.7901(2) 0.2296(2)
C13 C 0.4347(2) 0.6637(2) 0.2528(2)
C14 C 0.5450(2) 0.7439(2) 0.2947(2)
C15 C 0.5426(2) 0.6226(2) 0.3104(3)
H29 H 0.5923 0.5970 0.2711
H30 H 0.5477 0.5654 0.3876
C16 C 0.5435(2) 0.7535(3) 0.4000(2)
H31 H 0.5433 0.6903 0.4682
C17 C 0.5426(2) 0.8527(3) 0.3939(3)
H32 H 0.5352 0.8613 0.4570
C18 C 0.5531(2) 0.9475(3) 0.2897(3)
H33 H 0.5349 1.0209 0.2803
C19 C 0.5885(2) 0.9305(2) 0.2081(3)
H34 H 0.5960 0.9924 0.1419
C20 C 0.6174(2) 0.8126(2) 0.2188(2)
H35 H 0.6037 0.8212 0.1451
C21 C 0.7307(2) 0.7564(2) 0.2542(2)
C22 C 0.7901(2) 0.7540(3) 0.3606(3)
H36 H 0.7489 0.7865 0.4127
B21 B 0.3590(3) 0.7162(3) 0.3278(3)
H37 H 0.3702 0.6848 0.4176
B22 B 0.3194(3) 0.8624(3) 0.2344(3)
H38 H 0.3058 0.9264 0.2627
B23 B 0.3708(3) 0.8906(3) 0.1064(3)
H39 H 0.3897 0.9726 0.0528
B24 B 0.4439(3) 0.7618(3) 0.1192(3)
H40 H 0.5104 0.7600 0.0734
B25 B 0.3179(3) 0.6347(3) 0.2769(3)
H41 H 0.3036 0.5508 0.3326
B26 B 0.2405(3) 0.7654(3) 0.2606(3)
H42 H 0.1731 0.7673 0.3052
B27 B 0.2454(3) 0.8739(3) 0.1234(3)
H43 H 0.1812 0.9461 0.0791
B28 B 0.3238(3) 0.8108(4) 0.0536(3)
H44 H 0.3104 0.8420 -0.0359
B29 B 0.3688(3) 0.6633(3) 0.1479(3)
H45 H 0.3862 0.5977 0.1218
B30 B 0.2441(3) 0.7335(3) 0.1492(3)
H46 H 0.1789 0.7145 0.1217
B31 B 0.7743(3) 0.6279(3) 0.3709(3)
H47 H 0.7254 0.5767 0.4275
B32 B 0.7869(3) 0.6427(3) 0.2359(3)
H48 H 0.7463 0.6006 0.2046
B33 B 0.8078(3) 0.7797(3) 0.1490(3)
H49 H 0.7802 0.8272 0.0606
B34 B 0.8091(3) 0.8457(3) 0.2289(3)
H50 H 0.7815 0.9382 0.1923
B35 B 0.8890(3) 0.6373(3) 0.4195(3)
H51 H 0.9151 0.5915 0.5082
B36 B 0.8892(3) 0.5662(3) 0.3399(3)
H52 H 0.9161 0.4737 0.3763
B37 B 0.9093(3) 0.6612(3) 0.2014(3)
H53 H 0.9492 0.6304 0.1474
B38 B 0.9219(3) 0.7888(3) 0.1971(3)
H54 H 0.9701 0.8414 0.1407
B39 B 0.9090(3) 0.7750(3) 0.3313(3)
H55 H 0.9475 0.8188 0.3624
B40 B 0.9732(3) 0.6565(3) 0.3160(3)
H56 H 1.0546 0.6224 0.3371
loop_
_geom_bond_atom_site_label_1
_geom_bond_atom_site_label_2
_geom_bond_site_symmetry_1
_geom_bond_site_symmetry_2
C1 C2 1_555 1_555
C2 C4 1_555 1_555
C3 C1 1_555 1_555
C4 C3 1_555 1_555
H1 C4 1_555 1_555
H2 C4 1_555 1_555
C5 C3 1_555 1_555
H3 C5 1_555 1_555
C6 C5 1_555 1_555
H4 C6 1_555 1_555
C7 C6 1_555 1_555
H5 C7 1_555 1_555
C8 C7 1_555 1_555
H6 C8 1_555 1_555
C9 C3 1_555 1_555
H7 C9 1_555 1_555
C10 C9 1_555 1_555
C11 C10 1_555 1_555
H8 C11 1_555 1_555
B1 C1 1_555 1_555
H9 B1 1_555 1_555
B2 C1 1_555 1_555
H10 B2 1_555 1_555
B3 C1 1_555 1_555
H11 B3 1_555 1_555
B4 C1 1_555 1_555
H12 B4 1_555 1_555
B5 C2 1_555 1_555
H13 B5 1_555 1_555
B6 B1 1_555 1_555
H14 B6 1_555 1_555
B7 B2 1_555 1_555
H15 B7 1_555 1_555
B8 B3 1_555 1_555
H16 B8 1_555 1_555
B9 C2 1_555 1_555
H17 B9 1_555 1_555
B10 B5 1_555 1_555
H18 B10 1_555 1_555
B11 C10 1_555 1_555
H19 B11 1_555 1_555
B12 C10 1_555 1_555
H20 B12 1_555 1_555
B13 C10 1_555 1_555
H21 B13 1_555 1_555
B14 C10 1_555 1_555
H22 B14 1_555 1_555
B15 C11 1_555 1_555
H23 B15 1_555 1_555
B16 B11 1_555 1_555
H24 B16 1_555 1_555
B17 B12 1_555 1_555
H25 B17 1_555 1_555
B18 B13 1_555 1_555
H26 B18 1_555 1_555
B19 C11 1_555 1_555
H27 B19 1_555 1_555
B20 B15 1_555 1_555
H28 B20 1_555 1_555
C12 C13 1_555 1_555
C13 C15 1_555 1_555
C14 C12 1_555 1_555
C15 C14 1_555 1_555
H29 C15 1_555 1_555
H30 C15 1_555 1_555
C16 C14 1_555 1_555
H31 C16 1_555 1_555
C17 C16 1_555 1_555
H32 C17 1_555 1_555
C18 C17 1_555 1_555
H33 C18 1_555 1_555
C19 C18 1_555 1_555
H34 C19 1_555 1_555
C20 C14 1_555 1_555
H35 C20 1_555 1_555
C21 C20 1_555 1_555
C22 C21 1_555 1_555
H36 C22 1_555 1_555
B21 C12 1_555 1_555
H37 B21 1_555 1_555
B22 C12 1_555 1_555
H38 B22 1_555 1_555
B23 C12 1_555 1_555
H39 B23 1_555 1_555
B24 C12 1_555 1_555
H40 B24 1_555 1_555
B25 C13 1_555 1_555
H41 B25 1_555 1_555
B26 B21 1_555 1_555
H42 B26 1_555 1_555
B27 B22 1_555 1_555
H43 B27 1_555 1_555
B28 B23 1_555 1_555
H44 B28 1_555 1_555
B29 C13 1_555 1_555
H45 B29 1_555 1_555
B30 B25 1_555 1_555
H46 B30 1_555 1_555
B31 C21 1_555 1_555
H47 B31 1_555 1_555
B32 C21 1_555 1_555
H48 B32 1_555 1_555
B33 C21 1_555 1_555
H49 B33 1_555 1_555
B34 C21 1_555 1_555
H50 B34 1_555 1_555
B35 C22 1_555 1_555
H51 B35 1_555 1_555
B36 B31 1_555 1_555
H52 B36 1_555 1_555
B37 B32 1_555 1_555
H53 B37 1_555 1_555
B38 B33 1_555 1_555
H54 B38 1_555 1_555
B39 C22 1_555 1_555
H55 B39 1_555 1_555
B40 B35 1_555 1_555
H56 B40 1_555 1_555
C2 B1 1_555 1_555
C2 B4 1_555 1_555
C8 C9 1_555 1_555
C11 B11 1_555 1_555
C11 B14 1_555 1_555
B1 B2 1_555 1_555
B1 B5 1_555 1_555
B2 B3 1_555 1_555
B2 B6 1_555 1_555
B3 B4 1_555 1_555
B3 B7 1_555 1_555
B4 B8 1_555 1_555
B4 B9 1_555 1_555
B5 B6 1_555 1_555
B5 B9 1_555 1_555
B6 B7 1_555 1_555
B6 B10 1_555 1_555
B7 B8 1_555 1_555
B7 B10 1_555 1_555
B8 B9 1_555 1_555
B8 B10 1_555 1_555
B9 B10 1_555 1_555
B11 B12 1_555 1_555
B11 B15 1_555 1_555
B12 B13 1_555 1_555
B12 B16 1_555 1_555
B13 B14 1_555 1_555
B13 B17 1_555 1_555
B14 B18 1_555 1_555
B14 B19 1_555 1_555
B15 B16 1_555 1_555
B15 B19 1_555 1_555
B16 B17 1_555 1_555
B16 B20 1_555 1_555
B17 B18 1_555 1_555
B17 B20 1_555 1_555
B18 B19 1_555 1_555
B18 B20 1_555 1_555
B19 B20 1_555 1_555
C13 B21 1_555 1_555
C13 B24 1_555 1_555
C19 C20 1_555 1_555
C22 B31 1_555 1_555
C22 B34 1_555 1_555
B21 B22 1_555 1_555
B21 B25 1_555 1_555
B22 B23 1_555 1_555
B22 B26 1_555 1_555
B23 B24 1_555 1_555
B23 B27 1_555 1_555
B24 B28 1_555 1_555
B24 B29 1_555 1_555
B25 B26 1_555 1_555
B25 B29 1_555 1_555
B26 B27 1_555 1_555
B26 B30 1_555 1_555
B27 B28 1_555 1_555
B27 B30 1_555 1_555
B28 B29 1_555 1_555
B28 B30 1_555 1_555
B29 B30 1_555 1_555
B31 B32 1_555 1_555
B31 B35 1_555 1_555
B32 B33 1_555 1_555
B32 B36 1_555 1_555
B33 B34 1_555 1_555
B33 B37 1_555 1_555
B34 B38 1_555 1_555
B34 B39 1_555 1_555
B35 B36 1_555 1_555
B35 B39 1_555 1_555
B36 B37 1_555 1_555
B36 B40 1_555 1_555
B37 B38 1_555 1_555
B37 B40 1_555 1_555
B38 B39 1_555 1_555
B38 B40 1_555 1_555
B39 B40 1_555 1_555

#END
