
#######################################################################
#
#                 Cambridge Crystallographic Data Centre
#                                CCDC 
#
#######################################################################
#
# If this CIF has been generated from an entry in the Cambridge 
# Structural Database, then it will include bibliographic, chemical, 
# crystal, experimental, refinement or atomic coordinate data resulting 
# from the CCDC's data processing and validation procedures.
#
#######################################################################

data_CETJUI
_chemical_formula_moiety         'C6 H9 N2 O2 1+,Br1 1-'
_chemical_name_systematic        '3-(Carboxymethyl)-1-methylimidazolium bromide'
_symmetry_cell_setting           orthorhombic
_symmetry_space_group_name_H-M   'P c a 21'
_symmetry_Int_Tables_number      29
_space_group_name_Hall           'P 2c -2ac'
loop_
_symmetry_equiv_pos_site_id
_symmetry_equiv_pos_as_xyz
1 x,y,z
2 -x,-y,1/2+z
3 1/2-x,y,1/2+z
4 1/2+x,-y,z
_cell_length_a                   13.5224(15)
_cell_length_b                   6.5096(8)
_cell_length_c                   9.9467(12)
_cell_angle_alpha                90
_cell_angle_beta                 90
_cell_angle_gamma                90
_cell_volume                     875.562
_exptl_crystal_colour            colorless
_exptl_crystal_description       block
_cell_formula_units_Z            4
loop_
_atom_site_label
_atom_site_type_symbol
_atom_site_fract_x
_atom_site_fract_y
_atom_site_fract_z
Br1 Br 0.53333(3) 0.61191(5) 0.75274(8)
O1 O 0.3767(2) 1.1602(5) 0.6160(4)
C1 C 0.3415(3) 0.6667(6) 0.4797(4)
H1 H 0.3744 0.5839 0.5413
C2 C 0.2307(3) 0.7823(6) 0.3386(5)
H2 H 0.1738 0.7922 0.2866
N1 N 0.3735(2) 0.8423(4) 0.4333(4)
N2 N 0.2541(2) 0.6256(4) 0.4246(4)
C3 C 0.4680(2) 0.9386(6) 0.4674(5)
H3 H 0.4979 0.9939 0.3865
H4 H 0.5124 0.8357 0.5040
C4 C 0.1974(4) 0.4384(7) 0.4457(7)
H5 H 0.2387 0.3365 0.4870
H6 H 0.1739 0.3881 0.3608
H7 H 0.1421 0.4672 0.5033
C5 C 0.3060(3) 0.9212(6) 0.3429(5)
H8 H 0.3109 1.0435 0.2950
C6 C 0.4546(3) 1.1087(5) 0.5685(5)
O2 O 0.5397(2) 1.1947(5) 0.5950(4)
H9 H 0.5432 1.2198 0.6757
loop_
_geom_bond_atom_site_label_1
_geom_bond_atom_site_label_2
_geom_bond_site_symmetry_1
_geom_bond_site_symmetry_2
O1 C6 1_555 1_555
C1 H1 1_555 1_555
C2 H2 1_555 1_555
N1 C1 1_555 1_555
N2 C1 1_555 1_555
C3 N1 1_555 1_555
H3 C3 1_555 1_555
H4 C3 1_555 1_555
C4 N2 1_555 1_555
H5 C4 1_555 1_555
H6 C4 1_555 1_555
H7 C4 1_555 1_555
C5 C2 1_555 1_555
H8 C5 1_555 1_555
C6 C3 1_555 1_555
O2 C6 1_555 1_555
H9 O2 1_555 1_555
C2 N2 1_555 1_555
N1 C5 1_555 1_555

#END
