
#######################################################################
#
#                 Cambridge Crystallographic Data Centre
#                                CCDC 
#
#######################################################################
#
# If this CIF has been generated from an entry in the Cambridge 
# Structural Database, then it will include bibliographic, chemical, 
# crystal, experimental, refinement or atomic coordinate data resulting 
# from the CCDC's data processing and validation procedures.
#
#######################################################################

data_CEVHER
_chemical_formula_moiety         
'5(C12 H9 N2 1+),C24 H14 O16 S8 2-,C24 H13 O16 S8 3-,20(H2 O1)'
_chemical_name_systematic        
'(5-sulfo-11,17,23-tris(sulfonato)-25,26,27,28-tetrahydroxy-2,8,14,20-tetrathiacalix(4)arene 1,10-phenathrolinium clathrate) (5,11-disulfo-17,23-bis(sulfonato)-25,26,27,28-tetrahydroxy-2,8,14,20-tetrathiacalix(4)arene 1,10-phenathrolinium clathrate) tris(1,10-phenathrolinium) icosahydrate'
_symmetry_cell_setting           triclinic
_symmetry_space_group_name_H-M   'P -1'
_symmetry_Int_Tables_number      2
_space_group_name_Hall           '-P 1'
loop_
_symmetry_equiv_pos_site_id
_symmetry_equiv_pos_as_xyz
1 x,y,z
2 -x,-y,-z
_cell_length_a                   13.8138(10)
_cell_length_b                   15.0545(12)
_cell_length_c                   16.5097(13)
_cell_angle_alpha                74.8050(10)
_cell_angle_beta                 69.0100(10)
_cell_angle_gamma                83.4810(10)
_cell_volume                     3092.72
_cell_formula_units_Z            1
loop_
_atom_site_label
_atom_site_type_symbol
_atom_site_fract_x
_atom_site_fract_y
_atom_site_fract_z
N1 N 0.6053(3) 0.0737(3) 0.4609(2)
N2 N 0.4248(3) 0.1636(3) 0.5348(3)
C25 C 0.6916(4) 0.0250(3) 0.4312(3)
H13 H 0.7241 -0.0088 0.4705
C26 C 0.7329(4) 0.0248(4) 0.3414(4)
H14 H 0.7919 -0.0106 0.3203
C27 C 0.6864(4) 0.0766(4) 0.2846(3)
H15 H 0.7146 0.0768 0.2242
C28 C 0.5964(4) 0.1301(3) 0.3148(3)
C29 C 0.5445(5) 0.1881(4) 0.2585(3)
H16 H 0.5727 0.1947 0.1970
C30 C 0.4562(5) 0.2328(4) 0.2930(4)
H17 H 0.4239 0.2696 0.2548
C31 C 0.4092(4) 0.2256(3) 0.3880(4)
C32 C 0.3132(5) 0.2652(4) 0.4281(5)
H18 H 0.2755 0.2994 0.3932
C33 C 0.2753(4) 0.2536(4) 0.5180(5)
H19 H 0.2111 0.2790 0.5455
C34 C 0.3340(4) 0.2030(4) 0.5688(4)
H20 H 0.3075 0.1966 0.6303
C35 C 0.4606(4) 0.1737(3) 0.4449(3)
C36 C 0.5550(4) 0.1261(3) 0.4070(3)
H30 H 0.573(4) 0.075(4) 0.5185(15)
N3 N 0.5421(3) 0.5882(3) 0.5413(3)
N4 N 0.4344(3) 0.6874(3) 0.4361(3)
C37 C 0.5983(5) 0.5411(4) 0.5896(4)
H21 H 0.5729 0.5376 0.6507
C38 C 0.6923(5) 0.4967(4) 0.5553(5)
H22 H 0.7284 0.4654 0.5927
C39 C 0.7309(5) 0.4994(4) 0.4670(5)
H23 H 0.7935 0.4694 0.4432
C40 C 0.6755(4) 0.5480(3) 0.4113(4)
C41 C 0.7086(4) 0.5541(4) 0.3172(4)
H24 H 0.7700 0.5246 0.2901
C42 C 0.6531(5) 0.6015(4) 0.2676(4)
H25 H 0.6764 0.6037 0.2068
C43 C 0.5582(4) 0.6489(3) 0.3063(3)
C44 C 0.4966(5) 0.7009(4) 0.2581(4)
H26 H 0.5173 0.7061 0.1969
C45 C 0.4072(5) 0.7438(4) 0.2995(4)
H27 H 0.3668 0.7778 0.2670
C46 C 0.3771(4) 0.7361(4) 0.3904(4)
H28 H 0.3164 0.7654 0.4194
C47 C 0.5244(3) 0.6429(3) 0.3982(3)
C48 C 0.5820(4) 0.5917(3) 0.4524(3)
H29 H 0.417(4) 0.682(4) 0.4948(12)
O17 O 0.9895(7) 0.5768(8) 0.4467(6)
O18 O 0.1167(8) 0.6977(7) 0.4212(7)
O19 O 0.9318(5) 0.9321(5) 0.4258(5)
O20 O 0.0497(5) 0.3208(5) 0.3747(5)
O21 O 0.0262(5) 0.0592(5) 0.2917(5)
O22 O 0.1294(5) 0.1724(5) 0.3149(5)
O23 O 0.1992(6) 0.7404(5) 0.2489(7)
O24 O 0.9911(4) 0.5716(4) 0.2730(5)
O25 O 0.1710(6) 0.9509(5) 0.1963(4)
O26 O 0.8994(4) 0.1378(4) 0.5250(3)
S1 S 0.67796(8) -0.04661(8) 0.03104(8)
S2 S 0.34037(9) -0.00351(8) 0.32074(7)
S3 S 0.41924(9) 0.26046(8) 0.00606(7)
S4 S 0.26927(8) 0.50755(8) 0.21607(7)
S5 S 0.68834(8) 0.46712(7) 0.05993(7)
S6 S 0.79747(9) 0.28059(8) 0.34776(7)
S7 S 0.97065(7) 0.17645(7) 0.03025(7)
S8 S 0.93603(9) -0.18043(8) 0.22443(8)
O1 O 0.6007(2) 0.1408(2) -0.0559(2)
H1 H 0.6554 0.1114 -0.0697
O2 O 0.4110(3) -0.0531(3) 0.3647(2)
O3 O 0.2673(3) -0.0652(3) 0.3197(2)
O4 O 0.2898(3) 0.0749(3) 0.3545(2)
O5 O 0.6276(2) 0.3192(2) -0.0034(2)
H2 H 0.6095 0.2922 -0.0326
O6 O 0.1984(2) 0.5375(2) 0.1666(2)
O7 O 0.2235(3) 0.4386(3) 0.2977(2)
O8 O 0.3130(3) 0.5827(3) 0.2301(3)
O9 O 0.8422(2) 0.3284(2) -0.03087(18)
H3 H 0.8025 0.3682 -0.0465
O10 O 0.6900(3) 0.2925(4) 0.3982(2)
O11 O 0.8617(3) 0.3531(3) 0.3411(2)
O12 O 0.8386(4) 0.1902(3) 0.3765(3)
O13 O 0.7862(2) 0.1291(2) -0.0095(2)
H4 H 0.8309 0.1681 -0.0368
O14 O 0.9088(3) -0.1522(3) 0.3074(2)
O15 O 1.0477(3) -0.1853(3) 0.1815(2)
O16 O 0.8839(3) -0.2611(2) 0.2328(3)
C1 C 0.5693(3) 0.0216(3) 0.0809(3)
C2 C 0.5072(3) -0.0104(3) 0.1698(3)
H5 H 0.5252 -0.0651 0.2038
C3 C 0.4189(3) 0.0386(3) 0.2077(3)
C4 C 0.3916(3) 0.1199(3) 0.1567(3)
H6 H 0.3312 0.1520 0.1817
C5 C 0.4538(3) 0.1535(3) 0.0690(3)
C6 C 0.5434(3) 0.1045(3) 0.0299(3)
C7 C 0.4419(3) 0.3395(3) 0.0607(3)
C8 C 0.3592(3) 0.3851(3) 0.1118(3)
H7 H 0.2916 0.3709 0.1213
C9 C 0.3768(3) 0.4520(3) 0.1490(3)
C10 C 0.4774(3) 0.4725(3) 0.1355(3)
H8 H 0.4888 0.5171 0.1606
C11 C 0.5617(3) 0.4275(3) 0.0849(3)
C12 C 0.5443(3) 0.3606(3) 0.0464(3)
C13 C 0.7537(3) 0.3715(3) 0.1098(3)
C14 C 0.7436(3) 0.3572(3) 0.1995(3)
H9 H 0.6971 0.3935 0.2344
C15 C 0.8022(3) 0.2895(3) 0.2369(3)
C16 C 0.8698(3) 0.2340(3) 0.1857(3)
H10 H 0.9090 0.1883 0.2109
C17 C 0.8795(3) 0.2461(3) 0.0967(3)
C18 C 0.8238(3) 0.3166(3) 0.0568(3)
C19 C 0.9050(3) 0.0702(3) 0.0706(3)
C20 C 0.9391(3) -0.0038(3) 0.1244(3)
H11 H 0.9943 0.0032 0.1417
C21 C 0.8919(3) -0.0883(3) 0.1527(3)
C22 C 0.8086(3) -0.0992(3) 0.1274(3)
H12 H 0.7761 -0.1556 0.1476
C23 C 0.7741(3) -0.0263(3) 0.0724(3)
C24 C 0.8226(3) 0.0596(3) 0.0427(3)
N5? N 0.0160(6) 0.4412(7) 0.1330(7)
C49? C 0.0659(7) 0.3671(7) 0.1704(9)
C50? C 0.1228(7) 0.3106(8) 0.1146(9)
C51? C 0.1294(8) 0.3270(8) 0.0260(9)
C52? C 0.0788(7) 0.4015(7) -0.0099(7)
C53? C 0.0820(8) 0.4236(8) -0.0988(8)
C54? C 0.0303(7) 0.4982(8) -0.1316(8)
C55? C -0.0277(5) 0.5562(5) -0.0758(6)
C56? C -0.0801(6) 0.6330(6) -0.1096(5)
C57? C -0.1377(6) 0.6903(5) -0.0549(7)
C58? C -0.1430(5) 0.6708(5) 0.0337(7)
N6? N -0.0906(6) 0.5940(6) 0.0675(5)
C59? C -0.0330(5) 0.5367(4) 0.0127(6)
C60? C 0.0193(7) 0.4623(7) 0.0456(8)
loop_
_geom_bond_atom_site_label_1
_geom_bond_atom_site_label_2
_geom_bond_site_symmetry_1
_geom_bond_site_symmetry_2
S1 C1 1_555 1_555
S2 O2 1_555 1_555
S3 C5 1_555 1_555
S4 O6 1_555 1_555
S5 C11 1_555 1_555
S6 O10 1_555 1_555
S7 C17 1_555 1_555
S8 O14 1_555 1_555
O1 H1 1_555 1_555
O3 S2 1_555 1_555
O4 S2 1_555 1_555
O5 H2 1_555 1_555
O7 S4 1_555 1_555
O8 S4 1_555 1_555
O9 H3 1_555 1_555
O11 S6 1_555 1_555
O12 S6 1_555 1_555
O13 H4 1_555 1_555
O15 S8 1_555 1_555
O16 S8 1_555 1_555
C1 C2 1_555 1_555
C2 H5 1_555 1_555
C3 S2 1_555 1_555
C4 C3 1_555 1_555
H6 C4 1_555 1_555
C5 C4 1_555 1_555
C6 O1 1_555 1_555
C7 S3 1_555 1_555
C8 C7 1_555 1_555
H7 C8 1_555 1_555
C9 S4 1_555 1_555
C10 C9 1_555 1_555
H8 C10 1_555 1_555
C11 C10 1_555 1_555
C12 O5 1_555 1_555
C13 S5 1_555 1_555
C14 C13 1_555 1_555
H9 C14 1_555 1_555
C15 S6 1_555 1_555
C16 C15 1_555 1_555
H10 C16 1_555 1_555
C17 C16 1_555 1_555
C18 O9 1_555 1_555
C19 S7 1_555 1_555
C20 C19 1_555 1_555
H11 C20 1_555 1_555
C21 S8 1_555 1_555
C22 C21 1_555 1_555
H12 C22 1_555 1_555
C23 S1 1_555 1_555
C24 O13 1_555 1_555
N1 C25 1_555 1_555
N2 C34 1_555 1_555
N3 C37 1_555 1_555
N4 C46 1_555 1_555
C25 H13 1_555 1_555
C26 C25 1_555 1_555
H14 C26 1_555 1_555
C27 C26 1_555 1_555
H15 C27 1_555 1_555
C28 C27 1_555 1_555
C29 C28 1_555 1_555
H16 C29 1_555 1_555
C30 C29 1_555 1_555
H17 C30 1_555 1_555
C31 C30 1_555 1_555
C32 C31 1_555 1_555
H18 C32 1_555 1_555
C33 C32 1_555 1_555
H19 C33 1_555 1_555
C34 C33 1_555 1_555
H20 C34 1_555 1_555
C35 N2 1_555 1_555
C36 N1 1_555 1_555
C37 H21 1_555 1_555
C38 C37 1_555 1_555
H22 C38 1_555 1_555
C39 C38 1_555 1_555
H23 C39 1_555 1_555
C40 C39 1_555 1_555
C41 C40 1_555 1_555
H24 C41 1_555 1_555
C42 C41 1_555 1_555
H25 C42 1_555 1_555
C43 C42 1_555 1_555
C44 C43 1_555 1_555
H26 C44 1_555 1_555
C45 C44 1_555 1_555
H27 C45 1_555 1_555
C46 C45 1_555 1_555
H28 C46 1_555 1_555
C47 N4 1_555 1_555
C48 N3 1_555 1_555
H29 N4 1_555 1_555
H30 N1 1_555 1_555
C1 C6 1_555 1_555
C2 C3 1_555 1_555
C5 C6 1_555 1_555
C7 C12 1_555 1_555
C8 C9 1_555 1_555
C11 C12 1_555 1_555
C13 C18 1_555 1_555
C14 C15 1_555 1_555
C17 C18 1_555 1_555
C19 C24 1_555 1_555
C20 C21 1_555 1_555
C22 C23 1_555 1_555
C23 C24 1_555 1_555
C28 C36 1_555 1_555
C31 C35 1_555 1_555
C35 C36 1_555 1_555
C40 C48 1_555 1_555
C43 C47 1_555 1_555
C47 C48 1_555 1_555

#END
