
#######################################################################
#
#                 Cambridge Crystallographic Data Centre
#                                CCDC 
#
#######################################################################
#
# If this CIF has been generated from an entry in the Cambridge 
# Structural Database, then it will include bibliographic, chemical, 
# crystal, experimental, refinement or atomic coordinate data resulting 
# from the CCDC's data processing and validation procedures.
#
#######################################################################

data_CEVHAN
_chemical_formula_moiety         '5(C12 H9 N2 1+),C35 H25 O20 S5 5-,8.5(H2 O1)'
_chemical_name_systematic        
'5,11,17,23,29-pentakis(sulfonato)-31,32,33,34,35-pentahydroxycalix(5)arene 1,10-phenathrolinium clathrate tetrakis(1,10-phenathrolinium) hydrate'
_symmetry_cell_setting           triclinic
_symmetry_space_group_name_H-M   'P -1'
_symmetry_Int_Tables_number      2
_space_group_name_Hall           '-P 1'
loop_
_symmetry_equiv_pos_site_id
_symmetry_equiv_pos_as_xyz
1 x,y,z
2 -x,-y,-z
_cell_length_a                   16.725(2)
_cell_length_b                   16.967(2)
_cell_length_c                   17.348(2)
_cell_angle_alpha                68.604(2)
_cell_angle_beta                 82.553(2)
_cell_angle_gamma                84.779(2)
_cell_volume                     4539.86
_cell_formula_units_Z            2
loop_
_atom_site_label
_atom_site_type_symbol
_atom_site_fract_x
_atom_site_fract_y
_atom_site_fract_z
S1 S 0.20051(8) 0.88575(9) 0.30882(9)
S2 S 0.43796(10) 0.40094(10) 0.35098(9)
S3 S 0.85088(10) 0.31798(9) 0.24579(10)
S4 S 0.81521(9) 0.65329(10) -0.17646(9)
S5 S 0.37316(8) 0.85479(9) -0.04481(9)
O1 O 0.5470(2) 0.7819(2) 0.3020(2)
H1 H 0.5581 0.7436 0.3449
O2 O 0.1631(2) 0.8438(3) 0.2645(3)
O3 O 0.1991(2) 0.9768(3) 0.2691(3)
O4 O 0.1678(2) 0.8577(3) 0.3961(2)
O5 O 0.6059(2) 0.6524(2) 0.4253(2)
H2 H 0.6071 0.6387 0.4757
O6 O 0.4012(3) 0.4426(3) 0.2764(3)
O7 O 0.3773(3) 0.3699(3) 0.4219(3)
O8 O 0.4976(3) 0.3360(4) 0.3465(5)
O9 O 0.7533(2) 0.6587(2) 0.2536(2)
H3 H 0.7606 0.6956 0.2073
O10 O 0.7787(3) 0.2901(3) 0.2283(3)
O11 O 0.8711(3) 0.2659(2) 0.3291(3)
O12 O 0.9171(3) 0.3257(3) 0.1826(3)
O13 O 0.7674(2) 0.7926(2) 0.0939(2)
H4 H 0.7343 0.8327 0.0843
O14 O 0.8405(3) 0.5654(3) -0.1407(3)
O15 O 0.7398(3) 0.6660(3) -0.2124(3)
O16 O 0.8775(3) 0.7028(3) -0.2350(3)
O17 O 0.65898(19) 0.9190(2) 0.0873(2)
H5 H 0.6530 0.9664 0.0903
O18 O 0.3927(3) 0.7906(2) -0.0813(3)
O19 O 0.3592(2) 0.9369(2) -0.1091(2)
O20 O 0.3080(3) 0.8356(4) 0.0210(3)
C1 C 0.5019(3) 0.9281(3) 0.1797(3)
H6 H 0.5529 0.9214 0.2029
H7 H 0.4840 0.9873 0.1638
C2 C 0.4409(3) 0.8755(3) 0.2456(3)
C3 C 0.3597(3) 0.9010(3) 0.2481(3)
H8 H 0.3428 0.9520 0.2091
C4 C 0.3039(3) 0.8518(3) 0.3075(3)
C5 C 0.3291(3) 0.7762(3) 0.3655(3)
H9 H 0.2908 0.7426 0.4045
C6 C 0.4095(3) 0.7488(3) 0.3673(3)
C7 C 0.4654(3) 0.8005(3) 0.3067(3)
C8 C 0.4343(3) 0.6692(3) 0.4372(3)
H10 H 0.3858 0.6449 0.4718
H11 H 0.4662 0.6854 0.4715
C9 C 0.4822(3) 0.6005(3) 0.4116(3)
C10 C 0.4439(3) 0.5418(3) 0.3925(3)
H12 H 0.3879 0.5448 0.3944
C11 C 0.4885(3) 0.4784(3) 0.3706(3)
C12 C 0.5722(3) 0.4733(3) 0.3673(3)
H13 H 0.6016 0.4315 0.3514
C13 C 0.6124(3) 0.5305(3) 0.3876(3)
C14 C 0.5662(3) 0.5923(3) 0.4096(3)
C15 C 0.7028(3) 0.5202(3) 0.3918(3)
H14 H 0.7202 0.5694 0.4000
H15 H 0.7138 0.4711 0.4406
C16 C 0.7533(3) 0.5100(3) 0.3174(3)
C17 C 0.7775(3) 0.4299(3) 0.3146(3)
H16 H 0.7600 0.3819 0.3587
C18 C 0.8267(3) 0.4205(3) 0.2484(3)
C19 C 0.8567(3) 0.4910(3) 0.1841(3)
H17 H 0.8919 0.4840 0.1407
C20 C 0.8344(3) 0.5731(3) 0.1837(3)
C21 C 0.7801(3) 0.5807(3) 0.2492(3)
C22 C 0.8723(3) 0.6483(3) 0.1160(3)
H18 H 0.9258 0.6306 0.0977
H19 H 0.8786 0.6909 0.1395
C23 C 0.8257(3) 0.6890(3) 0.0402(3)
C24 C 0.8361(3) 0.6547(3) -0.0228(3)
H20 H 0.8689 0.6059 -0.0163
C25 C 0.7983(3) 0.6924(3) -0.0946(3)
C26 C 0.7498(3) 0.7651(3) -0.1033(3)
H21 H 0.7251 0.7907 -0.1521
C27 C 0.7362(3) 0.8020(3) -0.0428(3)
C28 C 0.7753(3) 0.7616(3) 0.0294(3)
C29 C 0.6860(3) 0.8843(3) -0.0595(3)
H22 H 0.7164 0.9238 -0.0475
H23 H 0.6795 0.9079 -0.1185
C30 C 0.6035(3) 0.8801(3) -0.0121(3)
C31 C 0.5364(3) 0.8610(3) -0.0405(3)
H24 H 0.5434 0.8449 -0.0869
C32 C 0.4599(3) 0.8653(3) -0.0013(3)
C33 C 0.4490(3) 0.8862(3) 0.0703(3)
H25 H 0.3973 0.8885 0.0969
C34 C 0.5150(3) 0.9038(3) 0.1023(3)
C35 C 0.5908(3) 0.9013(3) 0.0601(3)
N1 N 0.4087(5) 0.6262(4) 0.1227(4)
H26 H 0.3581 0.6167 0.1299
N2 N 0.3337(4) 0.5819(4) 0.0189(5)
C36 C 0.4363(11) 0.6440(8) 0.1748(8)
H31 H 0.4022 0.6459 0.2210
C37 C 0.5138(12) 0.6612(6) 0.1692(8)
H32 H 0.5325 0.6753 0.2105
C38 C 0.5680(7) 0.6578(5) 0.0985(8)
H33 H 0.6224 0.6687 0.0929
C39 C 0.5334(5) 0.6365(4) 0.0367(5)
C40 C 0.5751(5) 0.6319(5) -0.0388(6)
H34 H 0.6299 0.6419 -0.0502
C41 C 0.5379(5) 0.6136(4) -0.0940(5)
H35 H 0.5665 0.6123 -0.1432
C42 C 0.4543(5) 0.5962(4) -0.0764(4)
C43 C 0.4107(7) 0.5752(5) -0.1300(5)
H36 H 0.4354 0.5727 -0.1803
C44 C 0.3331(9) 0.5591(8) -0.1064(12)
H37 H 0.3040 0.5463 -0.1421
C45 C 0.2941(8) 0.5604(9) -0.0336(12)
H38 H 0.2402 0.5467 -0.0195
C46 C 0.4120(4) 0.5983(4) -0.0024(5)
C47 C 0.4522(5) 0.6202(4) 0.0542(4)
N3 N 0.6392(3) 0.1284(4) 0.4081(3)
H27 H 0.6637 0.1398 0.4459
N4 N 0.6598(3) 0.0105(3) 0.5612(3)
C48 C 0.6304(4) 0.1902(5) 0.3354(5)
H39 H 0.6478 0.2439 0.3255
C49 C 0.5957(5) 0.1748(6) 0.2745(5)
H40 H 0.5902 0.2176 0.2232
C50 C 0.5695(5) 0.0958(6) 0.2909(5)
H41 H 0.5467 0.0850 0.2498
C51 C 0.5761(4) 0.0303(5) 0.3686(5)
C52 C 0.5493(4) -0.0551(6) 0.3926(6)
H42 H 0.5242 -0.0692 0.3549
C53 C 0.5593(4) -0.1145(5) 0.4674(6)
H43 H 0.5423 -0.1689 0.4801
C54 C 0.5959(3) -0.0947(4) 0.5272(5)
C55 C 0.6072(4) -0.1546(5) 0.6062(5)
H44 H 0.5906 -0.2095 0.6214
C56 C 0.6431(4) -0.1309(5) 0.6610(5)
H45 H 0.6501 -0.1691 0.7142
C57 C 0.6688(4) -0.0485(5) 0.6351(5)
H46 H 0.6941 -0.0339 0.6724
C58 C 0.6235(3) -0.0139(4) 0.5087(4)
C59 C 0.6128(3) 0.0495(4) 0.4285(4)
N5 N -0.0024(3) 0.1944(3) 1.0069(3)
H28 H -0.0311 0.2216 0.9668
N6 N 0.0067(3) 0.1562(3) 0.8644(3)
C60 C -0.0084(4) 0.2202(5) 1.0723(4)
H47 H -0.0428 0.2659 1.0739
C61 C 0.0374(4) 0.1778(5) 1.1365(5)
H48 H 0.0355 0.1957 1.1814
C62 C 0.0864(4) 0.1081(5) 1.1343(4)
H49 H 0.1171 0.0792 1.1781
C63 C 0.0904(3) 0.0807(4) 1.0665(4)
C64 C 0.1370(4) 0.0078(4) 1.0632(5)
H50 H 0.1664 -0.0239 1.1073
C65 C 0.1392(4) -0.0164(4) 0.9973(5)
H51 H 0.1700 -0.0647 0.9966
C66 C 0.0945(4) 0.0317(4) 0.9270(4)
C67 C 0.0925(4) 0.0089(5) 0.8569(5)
H52 H 0.1206 -0.0399 0.8536
C68 C 0.0487(4) 0.0590(6) 0.7939(5)
H53 H 0.0467 0.0442 0.7476
C69 C 0.0077(4) 0.1315(5) 0.7988(4)
H54 H -0.0208 0.1650 0.7547
C70 C 0.0489(3) 0.1053(4) 0.9274(4)
C71 C 0.0462(3) 0.1280(4) 1.0003(4)
N7 N 0.7692(3) 0.8144(3) 0.4203(3)
N8 N 0.8282(3) 0.8554(3) 0.5391(3)
H29 H 0.8030 0.8066 0.5526
C72 C 0.7383(3) 0.7970(4) 0.3618(4)
H55 H 0.7272 0.7410 0.3726
C73 C 0.7215(4) 0.8569(5) 0.2862(4)
H56 H 0.6983 0.8411 0.2484
C74 C 0.7390(4) 0.9384(5) 0.2672(4)
H57 H 0.7274 0.9794 0.2167
C75 C 0.7753(3) 0.9607(4) 0.3257(4)
C76 C 0.8014(4) 1.0436(4) 0.3097(4)
H58 H 0.7929 1.0867 0.2594
C77 C 0.8381(4) 1.0605(4) 0.3662(5)
H59 H 0.8560 1.1146 0.3536
C78 C 0.8498(4) 0.9966(4) 0.4452(4)
C79 C 0.8841(4) 1.0123(5) 0.5064(5)
H60 H 0.9035 1.0653 0.4957
C80 C 0.8892(5) 0.9501(6) 0.5820(6)
H61 H 0.9126 0.9607 0.6228
C81 C 0.8597(4) 0.8702(5) 0.5992(4)
H62 H 0.8619 0.8282 0.6515
C82 C 0.8224(3) 0.9163(4) 0.4629(4)
C83 C 0.7880(3) 0.8955(3) 0.4010(3)
N9 N 0.9916(3) 0.4591(4) 0.3495(3)
H30 H 0.9864 0.4054 0.3728
N10 N 0.9021(3) 0.3909(3) 0.4994(4)
C84 C 1.0362(4) 0.4882(6) 0.2766(5)
H63 H 1.0613 0.4503 0.2526
C85 C 1.0454(5) 0.5723(6) 0.2370(5)
H64 H 1.0767 0.5922 0.1860
C86 C 1.0084(4) 0.6276(5) 0.2722(4)
H65 H 1.0142 0.6855 0.2446
C87 C 0.9610(4) 0.5983(4) 0.3508(4)
C88 C 0.9222(4) 0.6517(5) 0.3925(5)
H66 H 0.9276 0.7099 0.3683
C89 C 0.8776(4) 0.6194(4) 0.4669(5)
H67 H 0.8524 0.6561 0.4923
C90 C 0.8685(3) 0.5301(4) 0.5072(4)
C91 C 0.8236(4) 0.4942(5) 0.5843(4)
H68 H 0.7972 0.5282 0.6122
C92 C 0.8194(4) 0.4077(5) 0.6179(5)
H69 H 0.7905 0.3816 0.6693
C93 C 0.8599(4) 0.3598(5) 0.5727(5)
H70 H 0.8566 0.3012 0.5963
C94 C 0.9067(3) 0.4751(4) 0.4675(4)
C95 C 0.9533(3) 0.5116(4) 0.3894(4)
O21 O 0.7649(2) 0.6966(3) 0.6154(2)
O22 O 0.7468(3) 0.2046(3) 0.4599(3)
O23 O 1.0132(3) 0.2918(3) 0.3751(3)
O24 O 0.8671(3) 0.2837(4) 0.9340(3)
O25 O 0.2634(3) 0.5336(4) 0.2012(4)
O26 O 0.7872(3) 0.2213(4) 0.1012(3)
O27 O 0.2291(4) 0.7432(4) 0.1746(3)
O28 O -0.0017(3) 0.8312(4) 0.4404(4)
O29 O 0.9505(6) 0.4454(6) 0.9764(6)
loop_
_geom_bond_atom_site_label_1
_geom_bond_atom_site_label_2
_geom_bond_site_symmetry_1
_geom_bond_site_symmetry_2
S1 O2 1_555 1_555
S2 O6 1_555 1_555
S3 O10 1_555 1_555
S4 O14 1_555 1_555
S5 O18 1_555 1_555
O1 H1 1_555 1_555
O3 S1 1_555 1_555
O4 S1 1_555 1_555
O5 H2 1_555 1_555
O7 S2 1_555 1_555
O8 S2 1_555 1_555
O9 H3 1_555 1_555
O11 S3 1_555 1_555
O12 S3 1_555 1_555
O13 H4 1_555 1_555
O15 S4 1_555 1_555
O16 S4 1_555 1_555
O17 H5 1_555 1_555
O19 S5 1_555 1_555
O20 S5 1_555 1_555
C1 H6 1_555 1_555
H7 C1 1_555 1_555
C2 C1 1_555 1_555
C3 C2 1_555 1_555
H8 C3 1_555 1_555
C4 S1 1_555 1_555
C5 C4 1_555 1_555
H9 C5 1_555 1_555
C6 C5 1_555 1_555
C7 O1 1_555 1_555
C8 C6 1_555 1_555
H10 C8 1_555 1_555
H11 C8 1_555 1_555
C9 C8 1_555 1_555
C10 C9 1_555 1_555
H12 C10 1_555 1_555
C11 S2 1_555 1_555
C12 C11 1_555 1_555
H13 C12 1_555 1_555
C13 C12 1_555 1_555
C14 O5 1_555 1_555
C15 C13 1_555 1_555
H14 C15 1_555 1_555
H15 C15 1_555 1_555
C16 C15 1_555 1_555
C17 C16 1_555 1_555
H16 C17 1_555 1_555
C18 S3 1_555 1_555
C19 C18 1_555 1_555
H17 C19 1_555 1_555
C20 C19 1_555 1_555
C21 O9 1_555 1_555
C22 C20 1_555 1_555
H18 C22 1_555 1_555
H19 C22 1_555 1_555
C23 C22 1_555 1_555
C24 C23 1_555 1_555
H20 C24 1_555 1_555
C25 S4 1_555 1_555
C26 C25 1_555 1_555
H21 C26 1_555 1_555
C27 C26 1_555 1_555
C28 O13 1_555 1_555
C29 C27 1_555 1_555
H22 C29 1_555 1_555
H23 C29 1_555 1_555
C30 C29 1_555 1_555
C31 C30 1_555 1_555
H24 C31 1_555 1_555
C32 S5 1_555 1_555
C33 C32 1_555 1_555
H25 C33 1_555 1_555
C34 C1 1_555 1_555
N1 H26 1_555 1_555
N2 C45 1_555 1_555
N3 H27 1_555 1_555
N4 C57 1_555 1_555
N5 H28 1_555 1_555
N6 C69 1_555 1_555
N7 C72 1_555 1_555
N8 H29 1_555 1_555
N9 H30 1_555 1_555
N10 C93 1_555 1_555
C35 O17 1_555 1_555
C36 N1 1_555 1_555
H31 C36 1_555 1_555
C37 C36 1_555 1_555
H32 C37 1_555 1_555
C38 C37 1_555 1_555
H33 C38 1_555 1_555
C39 C38 1_555 1_555
C40 C39 1_555 1_555
H34 C40 1_555 1_555
C41 C40 1_555 1_555
H35 C41 1_555 1_555
C42 C41 1_555 1_555
C43 C42 1_555 1_555
H36 C43 1_555 1_555
C44 C43 1_555 1_555
H37 C44 1_555 1_555
C45 C44 1_555 1_555
H38 C45 1_555 1_555
C46 N2 1_555 1_555
C47 N1 1_555 1_555
C48 N3 1_555 1_555
H39 C48 1_555 1_555
C49 C48 1_555 1_555
H40 C49 1_555 1_555
C50 C49 1_555 1_555
H41 C50 1_555 1_555
C51 C50 1_555 1_555
C52 C51 1_555 1_555
H42 C52 1_555 1_555
C53 C52 1_555 1_555
H43 C53 1_555 1_555
C54 C53 1_555 1_555
C55 C54 1_555 1_555
H44 C55 1_555 1_555
C56 C55 1_555 1_555
H45 C56 1_555 1_555
C57 C56 1_555 1_555
H46 C57 1_555 1_555
C58 N4 1_555 1_555
C59 N3 1_555 1_555
C60 N5 1_555 1_555
H47 C60 1_555 1_555
C61 C60 1_555 1_555
H48 C61 1_555 1_555
C62 C61 1_555 1_555
H49 C62 1_555 1_555
C63 C62 1_555 1_555
C64 C63 1_555 1_555
H50 C64 1_555 1_555
C65 C64 1_555 1_555
H51 C65 1_555 1_555
C66 C65 1_555 1_555
C67 C66 1_555 1_555
H52 C67 1_555 1_555
C68 C67 1_555 1_555
H53 C68 1_555 1_555
C69 C68 1_555 1_555
H54 C69 1_555 1_555
C70 N6 1_555 1_555
C71 N5 1_555 1_555
C72 H55 1_555 1_555
C73 C72 1_555 1_555
H56 C73 1_555 1_555
C74 C73 1_555 1_555
H57 C74 1_555 1_555
C75 C74 1_555 1_555
C76 C75 1_555 1_555
H58 C76 1_555 1_555
C77 C76 1_555 1_555
H59 C77 1_555 1_555
C78 C77 1_555 1_555
C79 C78 1_555 1_555
H60 C79 1_555 1_555
C80 C79 1_555 1_555
H61 C80 1_555 1_555
C81 N8 1_555 1_555
H62 C81 1_555 1_555
C82 N8 1_555 1_555
C83 N7 1_555 1_555
C84 N9 1_555 1_555
H63 C84 1_555 1_555
C85 C84 1_555 1_555
H64 C85 1_555 1_555
C86 C85 1_555 1_555
H65 C86 1_555 1_555
C87 C86 1_555 1_555
C88 C87 1_555 1_555
H66 C88 1_555 1_555
C89 C88 1_555 1_555
H67 C89 1_555 1_555
C90 C89 1_555 1_555
C91 C90 1_555 1_555
H68 C91 1_555 1_555
C92 C91 1_555 1_555
H69 C92 1_555 1_555
C93 C92 1_555 1_555
H70 C93 1_555 1_555
C94 N10 1_555 1_555
C95 N9 1_555 1_555
C2 C7 1_555 1_555
C3 C4 1_555 1_555
C6 C7 1_555 1_555
C9 C14 1_555 1_555
C10 C11 1_555 1_555
C13 C14 1_555 1_555
C16 C21 1_555 1_555
C17 C18 1_555 1_555
C20 C21 1_555 1_555
C23 C28 1_555 1_555
C24 C25 1_555 1_555
C27 C28 1_555 1_555
C30 C35 1_555 1_555
C31 C32 1_555 1_555
C33 C34 1_555 1_555
C34 C35 1_555 1_555
C39 C47 1_555 1_555
C42 C46 1_555 1_555
C46 C47 1_555 1_555
C51 C59 1_555 1_555
C54 C58 1_555 1_555
C58 C59 1_555 1_555
C63 C71 1_555 1_555
C66 C70 1_555 1_555
C70 C71 1_555 1_555
C75 C83 1_555 1_555
C78 C82 1_555 1_555
C80 C81 1_555 1_555
C82 C83 1_555 1_555
C87 C95 1_555 1_555
C90 C94 1_555 1_555
C94 C95 1_555 1_555

#END
