
#######################################################################
#
#                 Cambridge Crystallographic Data Centre
#                                CCDC 
#
#######################################################################
#
# If this CIF has been generated from an entry in the Cambridge 
# Structural Database, then it will include bibliographic, chemical, 
# crystal, experimental, refinement or atomic coordinate data resulting 
# from the CCDC's data processing and validation procedures.
#
#######################################################################

data_CEVMAT
_chemical_formula_moiety         'C21 H27 I1 O2'
_chemical_name_systematic        
2,3,4,5-Tetraethyl-2-(4-iodobenzoyl)-5-methylcyclopent-3-en-1-one
_symmetry_cell_setting           monoclinic
_symmetry_space_group_name_H-M   'P 21/c'
_symmetry_Int_Tables_number      14
_space_group_name_Hall           '-P 2ybc'
loop_
_symmetry_equiv_pos_site_id
_symmetry_equiv_pos_as_xyz
1 x,y,z
2 -x,1/2+y,1/2-z
3 -x,-y,-z
4 x,1/2-y,1/2+z
_cell_length_a                   12.119(2)
_cell_length_b                   12.595(3)
_cell_length_c                   17.064(5)
_cell_angle_alpha                90
_cell_angle_beta                 131.633(18)
_cell_angle_gamma                90
_cell_volume                     1946.74
_exptl_crystal_colour            colorless
_exptl_crystal_description       block
_cell_formula_units_Z            4
loop_
_atom_site_label
_atom_site_type_symbol
_atom_site_fract_x
_atom_site_fract_y
_atom_site_fract_z
I1 I 0.68837(4) 0.84847(3) 0.29765(3)
O1 O 0.6653(4) 0.3638(2) 0.1017(2)
O2 O 1.0231(3) 0.3172(3) 0.4018(2)
C1 C 0.7150(5) 0.1708(3) 0.1914(3)
C2 C 0.8212(5) 0.1317(3) 0.1955(3)
C3 C 0.9651(5) 0.1929(3) 0.2699(4)
C4 C 0.9326(5) 0.2671(3) 0.3224(3)
C5 C 0.7639(4) 0.2697(3) 0.2580(3)
C6 C 0.5615(5) 0.1268(4) 0.1304(4)
H1 H 0.5533 0.0601 0.0961
H2 H 0.5492 0.1084 0.1806
C7 C 0.4364(5) 0.1988(4) 0.0478(4)
H3 H 0.3422 0.1627 0.0127
H4 H 0.4453 0.2162 -0.0038
H5 H 0.4405 0.2642 0.0807
C8 C 0.8061(5) 0.0401(4) 0.1323(4)
H6 H 0.7400 -0.0139 0.1245
H7 H 0.9041 0.0069 0.1710
C9 C 0.7449(7) 0.0731(4) 0.0242(4)
H8 H 0.7373 0.0106 -0.0134
H9 H 0.8110 0.1253 0.0314
H10 H 0.6468 0.1046 -0.0151
C10 C 1.1005(5) 0.1223(4) 0.3505(4)
H11 H 1.1248 0.0826 0.3135
H12 H 1.1855 0.1691 0.4025
C11 C 1.0841(6) 0.0441(4) 0.4085(4)
H13 H 1.1752 0.0026 0.4566
H14 H 1.0014 -0.0037 0.3583
H15 H 1.0650 0.0823 0.4485
C12 C 0.9988(6) 0.2626(4) 0.2137(4)
H16 H 0.9141 0.3087 0.1629
H17 H 1.0175 0.2170 0.1771
H18 H 1.0862 0.3062 0.2654
C13 C 0.7274(5) 0.2680(4) 0.3294(4)
H19 H 0.7644 0.3345 0.3707
H20 H 0.6188 0.2670 0.2845
C14 C 0.7924(6) 0.1744(4) 0.4044(4)
H21 H 0.7641 0.1790 0.4464
H22 H 0.9003 0.1759 0.4509
H23 H 0.7547 0.1080 0.3644
C15 C 0.7039(4) 0.3701(3) 0.1879(3)
C16 C 0.6958(5) 0.4768(3) 0.2232(3)
C17 C 0.8017(5) 0.5161(3) 0.3242(3)
H24 H 0.8785 0.4707 0.3782
C18 C 0.7970(5) 0.6212(4) 0.3475(4)
H25 H 0.8690 0.6477 0.4170
C19 C 0.6848(5) 0.6861(3) 0.2671(4)
C20 C 0.5753(5) 0.6473(4) 0.1666(4)
H26 H 0.4969 0.6919 0.1129
C21 C 0.5817(5) 0.5434(4) 0.1457(3)
H27 H 0.5068 0.5165 0.0768
loop_
_geom_bond_atom_site_label_1
_geom_bond_atom_site_label_2
_geom_bond_site_symmetry_1
_geom_bond_site_symmetry_2
I1 C19 1_555 1_555
O1 C15 1_555 1_555
O2 C4 1_555 1_555
C1 C2 1_555 1_555
C2 C3 1_555 1_555
C3 C4 1_555 1_555
C4 C5 1_555 1_555
C5 C1 1_555 1_555
C6 C1 1_555 1_555
H1 C6 1_555 1_555
H2 C6 1_555 1_555
C7 C6 1_555 1_555
H3 C7 1_555 1_555
H4 C7 1_555 1_555
H5 C7 1_555 1_555
C8 C2 1_555 1_555
H6 C8 1_555 1_555
H7 C8 1_555 1_555
C9 C8 1_555 1_555
H8 C9 1_555 1_555
H9 C9 1_555 1_555
H10 C9 1_555 1_555
C10 C3 1_555 1_555
H11 C10 1_555 1_555
H12 C10 1_555 1_555
C11 C10 1_555 1_555
H13 C11 1_555 1_555
H14 C11 1_555 1_555
H15 C11 1_555 1_555
C12 C3 1_555 1_555
H16 C12 1_555 1_555
H17 C12 1_555 1_555
H18 C12 1_555 1_555
C13 C5 1_555 1_555
H19 C13 1_555 1_555
H20 C13 1_555 1_555
C14 C13 1_555 1_555
H21 C14 1_555 1_555
H22 C14 1_555 1_555
H23 C14 1_555 1_555
C15 C5 1_555 1_555
C16 C15 1_555 1_555
C17 C16 1_555 1_555
H24 C17 1_555 1_555
C18 C17 1_555 1_555
H25 C18 1_555 1_555
C19 C18 1_555 1_555
C20 C19 1_555 1_555
H26 C20 1_555 1_555
C21 C16 1_555 1_555
H27 C21 1_555 1_555
C20 C21 1_555 1_555

#END
