
#######################################################################
#
#                 Cambridge Crystallographic Data Centre
#                                CCDC 
#
#######################################################################
#
# If this CIF has been generated from an entry in the Cambridge 
# Structural Database, then it will include bibliographic, chemical, 
# crystal, experimental, refinement or atomic coordinate data resulting 
# from the CCDC's data processing and validation procedures.
#
#######################################################################

data_CEVMEX
_chemical_formula_moiety         'C52 H62 Li2 O5'
_chemical_name_systematic        
bis(\m~2~-2,3,5-Trimethyl-4,5-diphenylcyclopenta-1,3-dien-1-olato)-tris(tetrahydrofuran)-di-lithium(i)
_symmetry_cell_setting           triclinic
_symmetry_space_group_name_H-M   'P -1'
_symmetry_Int_Tables_number      2
_space_group_name_Hall           '-P 1'
loop_
_symmetry_equiv_pos_site_id
_symmetry_equiv_pos_as_xyz
1 x,y,z
2 -x,-y,-z
_cell_length_a                   10.696(2)
_cell_length_b                   10.810(2)
_cell_length_c                   21.420(4)
_cell_angle_alpha                87.582(9)
_cell_angle_beta                 87.472(9)
_cell_angle_gamma                66.488(5)
_cell_volume                     2268.01
_exptl_crystal_colour            yellow
_exptl_crystal_description       block
_cell_formula_units_Z            2
loop_
_atom_site_label
_atom_site_type_symbol
_atom_site_fract_x
_atom_site_fract_y
_atom_site_fract_z
Li1 Li 0.8055(5) 0.0115(6) 0.2873(2)
Li2 Li 0.9495(5) 0.0550(5) 0.2034(2)
O1 O 0.76489(19) 0.0702(2) 0.20651(9)
O2 O 0.98583(19) -0.01368(19) 0.28711(8)
O3 O 0.6958(2) 0.0528(2) 0.36032(10)
O4 O 1.0733(2) -0.0722(2) 0.14406(9)
O5 O 0.9566(3) 0.2296(3) 0.19072(13)
C1 C 0.6642(3) 0.0635(3) 0.17559(12)
C2 C 0.5771(3) 0.1807(3) 0.13260(12)
C3 C 0.4787(3) 0.1255(3) 0.10663(12)
C4 C 0.5071(3) 0.0007(3) 0.13244(12)
C5 C 0.6204(3) -0.0375(3) 0.17462(13)
C6 C 0.6687(3) 0.2025(3) 0.07988(14)
H1 H 0.7061 0.1223 0.0541
H2 H 0.7436 0.2181 0.0979
H3 H 0.6149 0.2810 0.0539
C7 C 0.5056(3) 0.3046(3) 0.17291(12)
C8 C 0.5476(3) 0.4095(3) 0.17363(15)
H4 H 0.6216 0.4078 0.1469
C9 C 0.4837(4) 0.5182(3) 0.21274(17)
H5 H 0.5153 0.5888 0.2129
C10 C 0.3757(3) 0.5239(3) 0.25100(14)
H6 H 0.3316 0.5981 0.2775
C11 C 0.3321(3) 0.4205(3) 0.25039(14)
H7 H 0.2567 0.4237 0.2765
C12 C 0.3970(3) 0.3113(3) 0.21205(13)
H8 H 0.3662 0.2400 0.2127
C13 C 0.3788(3) 0.1991(3) 0.05903(13)
C14 C 0.3291(4) 0.3385(3) 0.05129(16)
H9 H 0.3609 0.3880 0.0774
C15 C 0.2345(5) 0.4074(4) 0.0066(2)
H10 H 0.2020 0.5029 0.0027
C16 C 0.1870(4) 0.3375(4) -0.03246(18)
H11 H 0.1200 0.3847 -0.0623
C17 C 0.2378(3) 0.2003(4) -0.02744(16)
H12 H 0.2079 0.1514 -0.0548
C18 C 0.3322(3) 0.1315(3) 0.01695(14)
H13 H 0.3667 0.0358 0.0192
C19 C 0.4377(3) -0.0934(3) 0.12271(15)
H14 H 0.4819 -0.1510 0.0873
H15 H 0.3414 -0.0406 0.1140
H16 H 0.4446 -0.1498 0.1605
C20 C 0.6815(4) -0.1696(3) 0.20950(16)
H17 H 0.6244 -0.1687 0.2467
H18 H 0.7733 -0.1840 0.2222
H19 H 0.6869 -0.2426 0.1825
C21 C 1.0790(3) -0.0979(3) 0.32332(11)
C22 C 1.2057(3) -0.0720(3) 0.34030(12)
C23 C 1.2837(3) -0.1971(3) 0.38098(12)
C24 C 1.2108(3) -0.2750(3) 0.38640(12)
C25 C 1.0856(3) -0.2148(3) 0.35183(12)
C26 C 1.2888(3) -0.0695(3) 0.28050(13)
H20 H 1.3204 -0.1573 0.2607
H21 H 1.3676 -0.0506 0.2909
H22 H 1.2315 0.0010 0.2516
C27 C 1.1558(3) 0.0601(3) 0.37583(12)
C28 C 1.1616(4) 0.1772(3) 0.35093(15)
H23 H 1.2023 0.1767 0.3106
C29 C 1.1092(4) 0.2956(3) 0.38363(16)
H24 H 1.1144 0.3751 0.3654
C30 C 1.0499(3) 0.3001(3) 0.44176(15)
H25 H 1.0129 0.3822 0.4637
C31 C 1.0447(3) 0.1846(3) 0.46797(14)
H26 H 1.0052 0.1858 0.5087
C32 C 1.0969(3) 0.0660(3) 0.43535(13)
H27 H 1.0923 -0.0133 0.4541
C33 C 1.4227(3) -0.2304(3) 0.40292(13)
C34 C 1.4609(3) -0.1356(3) 0.42930(16)
H28 H 1.3968 -0.0448 0.4325
C35 C 1.5913(4) -0.1721(4) 0.45086(19)
H29 H 1.6148 -0.1065 0.4696
C36 C 1.6873(4) -0.3016(4) 0.44560(17)
H30 H 1.7763 -0.3258 0.4609
C37 C 1.6534(3) -0.3958(4) 0.41810(19)
H31 H 1.7195 -0.4854 0.4135
C38 C 1.5228(3) -0.3602(3) 0.39695(16)
H32 H 1.5008 -0.4264 0.3778
C39 C 1.2466(3) -0.4055(3) 0.42286(14)
H33 H 1.1662 -0.4041 0.4472
H34 H 1.3201 -0.4173 0.4513
H35 H 1.2768 -0.4806 0.3940
C40 C 0.9824(3) -0.2760(3) 0.34576(15)
H36 H 0.8990 -0.2235 0.3696
H37 H 1.0200 -0.3693 0.3621
H38 H 0.9613 -0.2749 0.3016
C41 C 0.7606(8) 0.0760(7) 0.4138(3)
H39 H 0.8611 0.0378 0.4078
H40 H 0.7366 0.0358 0.4525
C42 C 0.7037(9) 0.2278(7) 0.4165(3)
H41 H 0.7623 0.2645 0.3918
H42 H 0.6958 0.2572 0.4601
C43 C 0.5638(9) 0.2735(7) 0.3882(4)
H43 H 0.4908 0.3108 0.4206
H44 H 0.5521 0.3436 0.3550
C44 C 0.5591(7) 0.1524(7) 0.3619(4)
H45 H 0.4995 0.1199 0.3883
H46 H 0.5229 0.1724 0.3192
C45 C 1.1320(5) -0.2094(3) 0.16460(17)
H47 H 1.2292 -0.2355 0.1740
H48 H 1.0838 -0.2228 0.2031
C46 C 1.1205(6) -0.2897(4) 0.11645(18)
H49 H 1.0351 -0.3045 0.1220
H50 H 1.1988 -0.3785 0.1162
C47 C 1.1198(5) -0.2112(4) 0.05736(17)
H51 H 1.0617 -0.2255 0.0261
H52 H 1.2132 -0.2368 0.0393
C48 C 1.0616(4) -0.0673(3) 0.07786(14)
H53 H 1.1130 -0.0173 0.0576
H54 H 0.9647 -0.0216 0.0664
C49 C 1.0259(16) 0.2981(13) 0.1562(7)
H55 H 0.9886 0.3241 0.1139
H56 H 1.1245 0.2407 0.1521
C50 C 1.0016(12) 0.4228(10) 0.1938(8)
H57 H 1.0819 0.4064 0.2193
H58 H 0.9892 0.5005 0.1649
C51 C 0.8893(12) 0.4515(9) 0.2316(7)
H59 H 0.8072 0.5171 0.2110
H60 H 0.9003 0.4889 0.2714
C52 C 0.8790(14) 0.3144(10) 0.2429(6)
H61 H 0.9187 0.2732 0.2834
H62 H 0.7826 0.3254 0.2433
C53? C 0.724(2) 0.1237(18) 0.4094(9)
H63? H 0.8082 0.1384 0.3991
H64? H 0.7361 0.0713 0.4493
C54? C 0.604(2) 0.2556(17) 0.4146(9)
H65? H 0.6168 0.3259 0.3870
H66? H 0.5883 0.2866 0.4582
C55? C 0.4892(17) 0.2210(18) 0.3933(8)
H67? H 0.4491 0.1869 0.4291
H68? H 0.4167 0.3017 0.3747
C56? C 0.5511(14) 0.1140(18) 0.3456(9)
H69? H 0.5100 0.0465 0.3493
H70? H 0.5382 0.1541 0.3027
C57? C 1.052(2) 0.2513(17) 0.1447(9)
H71? H 1.0309 0.2376 0.1017
H72? H 1.1475 0.1891 0.1531
C58? C 1.0323(16) 0.3956(14) 0.1530(10)
H73? H 1.1104 0.4000 0.1745
H74? H 1.0232 0.4438 0.1120
C59? C 0.9129(18) 0.4520(15) 0.1892(12)
H75? H 0.8337 0.4944 0.1619
H76? H 0.9180 0.5222 0.2159
C60? C 0.896(2) 0.3400(14) 0.2296(8)
H77? H 0.9452 0.3257 0.2692
H78? H 0.7992 0.3590 0.2390
loop_
_geom_bond_atom_site_label_1
_geom_bond_atom_site_label_2
_geom_bond_site_symmetry_1
_geom_bond_site_symmetry_2
Li1 O1 1_555 1_555
Li2 O1 1_555 1_555
O1 C1 1_555 1_555
O2 Li1 1_555 1_555
O3 Li1 1_555 1_555
O4 Li2 1_555 1_555
O5 Li2 1_555 1_555
C1 C2 1_555 1_555
C2 C3 1_555 1_555
C3 C4 1_555 1_555
C4 C5 1_555 1_555
C5 C1 1_555 1_555
C6 C2 1_555 1_555
H1 C6 1_555 1_555
H2 C6 1_555 1_555
H3 C6 1_555 1_555
C7 C2 1_555 1_555
C8 C7 1_555 1_555
H4 C8 1_555 1_555
C9 C8 1_555 1_555
H5 C9 1_555 1_555
C10 C9 1_555 1_555
H6 C10 1_555 1_555
C11 C10 1_555 1_555
H7 C11 1_555 1_555
C12 C7 1_555 1_555
H8 C12 1_555 1_555
C13 C3 1_555 1_555
C14 C13 1_555 1_555
H9 C14 1_555 1_555
C15 C14 1_555 1_555
H10 C15 1_555 1_555
C16 C15 1_555 1_555
H11 C16 1_555 1_555
C17 C16 1_555 1_555
H12 C17 1_555 1_555
C18 C13 1_555 1_555
H13 C18 1_555 1_555
C19 C4 1_555 1_555
H14 C19 1_555 1_555
H15 C19 1_555 1_555
H16 C19 1_555 1_555
C20 C5 1_555 1_555
H17 C20 1_555 1_555
H18 C20 1_555 1_555
H19 C20 1_555 1_555
C21 O2 1_555 1_555
C22 C21 1_555 1_555
C23 C22 1_555 1_555
C24 C23 1_555 1_555
C25 C21 1_555 1_555
C26 C22 1_555 1_555
H20 C26 1_555 1_555
H21 C26 1_555 1_555
H22 C26 1_555 1_555
C27 C22 1_555 1_555
C28 C27 1_555 1_555
H23 C28 1_555 1_555
C29 C28 1_555 1_555
H24 C29 1_555 1_555
C30 C29 1_555 1_555
H25 C30 1_555 1_555
C31 C30 1_555 1_555
H26 C31 1_555 1_555
C32 C27 1_555 1_555
H27 C32 1_555 1_555
C33 C23 1_555 1_555
C34 C33 1_555 1_555
H28 C34 1_555 1_555
C35 C34 1_555 1_555
H29 C35 1_555 1_555
C36 C35 1_555 1_555
H30 C36 1_555 1_555
C37 C36 1_555 1_555
H31 C37 1_555 1_555
C38 C33 1_555 1_555
H32 C38 1_555 1_555
C39 C24 1_555 1_555
H33 C39 1_555 1_555
H34 C39 1_555 1_555
H35 C39 1_555 1_555
C40 C25 1_555 1_555
H36 C40 1_555 1_555
H37 C40 1_555 1_555
H38 C40 1_555 1_555
C41 O3 1_555 1_555
H39 C41 1_555 1_555
H40 C41 1_555 1_555
C42 C41 1_555 1_555
H41 C42 1_555 1_555
H42 C42 1_555 1_555
C43 C42 1_555 1_555
H43 C43 1_555 1_555
H44 C43 1_555 1_555
C44 O3 1_555 1_555
H45 C44 1_555 1_555
H46 C44 1_555 1_555
C45 O4 1_555 1_555
H47 C45 1_555 1_555
H48 C45 1_555 1_555
C46 C45 1_555 1_555
H49 C46 1_555 1_555
H50 C46 1_555 1_555
C47 C46 1_555 1_555
H51 C47 1_555 1_555
H52 C47 1_555 1_555
C48 O4 1_555 1_555
H53 C48 1_555 1_555
H54 C48 1_555 1_555
C49 O5 1_555 1_555
H55 C49 1_555 1_555
H56 C49 1_555 1_555
C50 C49 1_555 1_555
H57 C50 1_555 1_555
H58 C50 1_555 1_555
C51 C50 1_555 1_555
H59 C51 1_555 1_555
H60 C51 1_555 1_555
C52 O5 1_555 1_555
H61 C52 1_555 1_555
H62 C52 1_555 1_555
Li2 O2 1_555 1_555
C11 C12 1_555 1_555
C17 C18 1_555 1_555
C24 C25 1_555 1_555
C31 C32 1_555 1_555
C37 C38 1_555 1_555
C43 C44 1_555 1_555
C47 C48 1_555 1_555
C51 C52 1_555 1_555

#END
