
#######################################################################
#
#                 Cambridge Crystallographic Data Centre
#                                CCDC 
#
#######################################################################
#
# If this CIF has been generated from an entry in the Cambridge 
# Structural Database, then it will include bibliographic, chemical, 
# crystal, experimental, refinement or atomic coordinate data resulting 
# from the CCDC's data processing and validation procedures.
#
#######################################################################

data_CEVQOM
_chemical_formula_moiety         'C32 H30 F1 N3 O3 S1'
_chemical_name_systematic        
9-benzyl-4-fluoro-13b-methyl-8-[(4-methylphenyl)sulfonyl]-5,8,8a,9,13b,14a-hexahydro-6H-indolo[2',3':5,6][1,3,4]oxadiazino[2,3-a]isoquinoline
_symmetry_cell_setting           monoclinic
_symmetry_space_group_name_H-M   'P 21'
_symmetry_Int_Tables_number      4
_space_group_name_Hall           'P 2yb'
loop_
_symmetry_equiv_pos_site_id
_symmetry_equiv_pos_as_xyz
1 x,y,z
2 -x,1/2+y,-z
_cell_length_a                   9.27904(5)
_cell_length_b                   18.37857(9)
_cell_length_c                   16.77742(8)
_cell_angle_alpha                90
_cell_angle_beta                 104.2756(5)
_cell_angle_gamma                90
_cell_volume                     2772.8
_exptl_crystal_colour            colorless
_exptl_crystal_description       block
_cell_formula_units_Z            4
loop_
_atom_site_label
_atom_site_type_symbol
_atom_site_fract_x
_atom_site_fract_y
_atom_site_fract_z
S1 S 0.81594(12) 0.26808(5) 0.87993(6)
O1 O 1.0139(4) 0.28413(17) 0.67777(18)
F1 F 1.2923(4) 0.54812(18) 0.77418(17)
O2 O 0.8554(4) 0.3278(2) 0.93481(19)
O3 O 0.8005(4) 0.1960(2) 0.91037(19)
N1 N 0.9482(4) 0.2614(2) 0.8286(2)
N2 N 1.0999(4) 0.1588(2) 0.8102(2)
N3 N 1.0000(5) 0.3295(2) 0.8091(2)
C1 C 1.0596(5) 0.1592(2) 0.6692(2)
C2 C 1.2061(6) 0.0935(3) 0.5933(3)
H1 H 1.231997 0.082269 0.543368
C3 C 1.2691(5) 0.1012(3) 0.9333(2)
C4 C 1.2482(5) 0.0768(3) 0.7415(3)
H2 H 1.299825 0.053571 0.790903
C5 C 0.9570(5) 0.1966(2) 0.7775(2)
H3 H 0.873931 0.162729 0.780082
C6 C 0.5514(5) 0.2349(3) 0.7704(2)
H4 H 0.565325 0.186564 0.791061
C7 C 0.9585(5) 0.4357(2) 0.6170(2)
H5 H 0.881247 0.409724 0.580368
C8 C 1.0153(5) 0.4099(2) 0.6954(3)
C9 C 1.0911(5) 0.1441(2) 0.5934(2)
H6 H 1.037571 0.166826 0.544163
C10 C 0.7929(5) 0.2082(3) 0.6312(2)
H7 H 0.727846 0.241181 0.652202
H8 H 0.756526 0.158162 0.631788
H9 H 0.792871 0.221955 0.574813
C11 C 1.1387(5) 0.1278(2) 0.7404(2)
C12 C 0.9581(4) 0.3398(3) 0.7199(2)
H10 H 0.847103 0.339985 0.700986
C13 C 1.1095(5) 0.1149(3) 0.8833(2)
H11 H 1.060878 0.067402 0.866557
H12 H 1.053767 0.139446 0.918840
C14 C 1.1621(5) 0.3383(3) 0.8437(2)
H13 H 1.218274 0.308570 0.812423
H14 H 1.190057 0.322645 0.901949
C15 C 0.4106(5) 0.3213(3) 0.6744(3)
C16 C 0.6250(5) 0.3612(3) 0.7786(3)
H15 H 0.689881 0.398787 0.804703
C17 C 1.1332(5) 0.4479(2) 0.7517(2)
C18 C 0.6488(5) 0.2894(3) 0.8057(2)
C19 C 0.9504(5) 0.2132(2) 0.6855(2)
C20 C 1.2795(5) 0.0609(3) 0.6647(3)
H16 H 1.354646 0.026259 0.662989
C21 C 1.0137(6) 0.4999(3) 0.5909(3)
H17 H 0.975573 0.516960 0.536277
C22 C 0.5064(5) 0.3769(3) 0.7135(3)
H18 H 0.489127 0.425651 0.694820
C23 C 0.4362(5) 0.2511(3) 0.7063(3)
H19 H 0.370140 0.213235 0.681886
C24 C 0.2893(5) 0.3380(3) 0.5992(3)
H20 H 0.257977 0.388710 0.601092
H21 H 0.204450 0.305728 0.597316
H22 H 0.326459 0.330308 0.549948
C25 C 1.2991(5) 0.0411(3) 0.9852(2)
H23 H 1.222420 0.007012 0.985791
C26 C 1.1963(6) 0.4186(3) 0.8368(3)
H24 H 1.154745 0.446442 0.876459
H25 H 1.305474 0.425631 0.851707
C27 C 1.3828(5) 0.1503(3) 0.9324(2)
H26 H 1.363168 0.191524 0.897185
C28 C 1.1236(6) 0.5383(3) 0.6447(3)
H27 H 1.159678 0.583109 0.629045
C29 C 1.5230(5) 0.1400(3) 0.9820(3)
H28 H 1.599275 0.174086 0.980721
C30 C 1.4390(6) 0.0306(3) 1.0358(3)
H29 H 1.457483 -0.010012 1.071923
C31 C 1.5545(5) 0.0798(4) 1.0342(3)
H30 H 1.651834 0.072164 1.067863
C32 C 1.1791(6) 0.5096(3) 0.7216(3)
S2 S 0.81609(12) 0.31015(5) 0.38005(6)
O4 O 1.0123(3) 0.29565(17) 0.17785(17)
F2 F 1.2922(4) 0.03070(19) 0.27444(17)
O5 O 0.8566(4) 0.2499(2) 0.43557(17)
O6 O 0.8017(4) 0.3816(2) 0.41063(18)
N4 N 0.9490(4) 0.3181(2) 0.3304(2)
N5 N 1.0984(4) 0.4212(2) 0.3092(2)
N6 N 1.0001(4) 0.2491(2) 0.3080(2)
C33 C 0.9596(5) 0.1419(3) 0.1161(2)
H31 H 0.882973 0.168342 0.079534
C34 C 1.2676(5) 0.4752(3) 0.4334(2)
C35 C 1.0575(5) 0.4191(2) 0.1675(3)
C36 C 0.7924(5) 0.3705(3) 0.1317(2)
H32 H 0.797347 0.363330 0.074535
H33 H 0.750767 0.418676 0.137461
H34 H 0.728910 0.332987 0.146738
C37 C 0.5552(5) 0.3437(3) 0.2715(3)
H35 H 0.571678 0.392243 0.291081
C38 C 0.4113(5) 0.2557(3) 0.1745(3)
C39 C 1.2500(5) 0.5029(3) 0.2396(3)
H36 H 1.301353 0.527249 0.288230
C40 C 0.9560(5) 0.2385(2) 0.2209(2)
H37 H 0.845034 0.237204 0.202398
C41 C 1.2043(6) 0.4830(3) 0.0927(3)
H38 H 1.230111 0.492600 0.042313
C42 C 1.1595(5) 0.2395(3) 0.3439(2)
H39 H 1.184575 0.254220 0.402487
H40 H 1.217232 0.270230 0.314507
C43 C 0.9580(5) 0.3822(3) 0.2808(2)
H41 H 0.874916 0.415910 0.283886
C44 C 0.6261(5) 0.2165(3) 0.2797(3)
H42 H 0.689381 0.178268 0.305672
C45 C 1.0921(5) 0.4345(3) 0.0944(3)
H43 H 1.038706 0.411799 0.045108
C46 C 1.1403(5) 0.4502(2) 0.2427(2)
C47 C 0.9480(5) 0.3652(2) 0.1880(2)
C48 C 1.1257(6) 0.0401(3) 0.1443(3)
H44 H 1.163185 -0.003709 0.127018
C49 C 0.6524(5) 0.2879(3) 0.3079(3)
C50 C 0.4317(5) 0.3268(3) 0.2051(3)
H45 H 0.362911 0.363827 0.181408
C51 C 1.0195(5) 0.1679(2) 0.1970(2)
C52 C 1.1982(5) 0.1594(2) 0.3365(3)
H46 H 1.307550 0.153552 0.349212
H47 H 1.160177 0.130223 0.376494
C53 C 1.1123(5) 0.4645(3) 0.3845(2)
H48 H 1.055286 0.440120 0.419581
H49 H 1.066548 0.512736 0.369118
C54 C 0.2884(5) 0.2406(3) 0.0994(3)
H50 H 0.193849 0.257844 0.108548
H51 H 0.282358 0.188159 0.088669
H52 H 0.308950 0.266025 0.052050
C55 C 1.0123(5) 0.0787(3) 0.0907(2)
H53 H 0.971760 0.061074 0.036604
C56 C 1.1295(5) 0.1326(2) 0.2498(2)
C57 C 0.5068(6) 0.2017(3) 0.2135(3)
H54 H 0.490346 0.153002 0.194372
C58 C 1.5519(5) 0.4990(3) 0.5341(3)
H55 H 1.647815 0.505953 0.569651
C59 C 1.3832(5) 0.4272(3) 0.4317(2)
H56 H 1.365479 0.386034 0.396382
C60 C 1.4417(6) 0.5474(3) 0.5349(3)
H57 H 1.461342 0.588914 0.569555
C61 C 1.5259(5) 0.4400(3) 0.4822(3)
H58 H 1.604861 0.407573 0.480550
C62 C 1.2817(5) 0.5186(3) 0.1656(3)
H59 H 1.356087 0.553493 0.163420
C63 C 1.2988(5) 0.5358(3) 0.4845(2)
H60 H 1.222131 0.569900 0.485215
C64 C 1.1823(6) 0.0665(2) 0.2228(2)
loop_
_geom_bond_atom_site_label_1
_geom_bond_atom_site_label_2
_geom_bond_site_symmetry_1
_geom_bond_site_symmetry_2
S1 O2 1_555 1_555
O1 C12 1_555 1_555
F1 C32 1_555 1_555
O3 S1 1_555 1_555
N1 S1 1_555 1_555
N2 C5 1_555 1_555
N3 N1 1_555 1_555
C1 C9 1_555 1_555
C2 H1 1_555 1_555
C3 C13 1_555 1_555
C4 H2 1_555 1_555
C5 N1 1_555 1_555
H3 C5 1_555 1_555
C6 H4 1_555 1_555
C7 H5 1_555 1_555
C8 C7 1_555 1_555
C9 C2 1_555 1_555
H6 C9 1_555 1_555
C10 H7 1_555 1_555
H8 C10 1_555 1_555
H9 C10 1_555 1_555
C11 N2 1_555 1_555
C12 N3 1_555 1_555
H10 C12 1_555 1_555
C13 N2 1_555 1_555
H11 C13 1_555 1_555
H12 C13 1_555 1_555
C14 N3 1_555 1_555
H13 C14 1_555 1_555
H14 C14 1_555 1_555
C15 C22 1_555 1_555
C16 H15 1_555 1_555
C17 C8 1_555 1_555
C18 S1 1_555 1_555
C19 O1 1_555 1_555
C20 C2 1_555 1_555
H16 C20 1_555 1_555
C21 C7 1_555 1_555
H17 C21 1_555 1_555
C22 C16 1_555 1_555
H18 C22 1_555 1_555
C23 C6 1_555 1_555
H19 C23 1_555 1_555
C24 C15 1_555 1_555
H20 C24 1_555 1_555
H21 C24 1_555 1_555
H22 C24 1_555 1_555
C25 C3 1_555 1_555
H23 C25 1_555 1_555
C26 C14 1_555 1_555
H24 C26 1_555 1_555
H25 C26 1_555 1_555
C27 C3 1_555 1_555
H26 C27 1_555 1_555
C28 C21 1_555 1_555
H27 C28 1_555 1_555
C29 C27 1_555 1_555
H28 C29 1_555 1_555
C30 C25 1_555 1_555
H29 C30 1_555 1_555
C31 C29 1_555 1_555
H30 C31 1_555 1_555
C32 C17 1_555 1_555
S2 O5 1_555 1_555
O4 C40 1_555 1_555
F2 C64 1_555 1_555
O6 S2 1_555 1_555
N4 S2 1_555 1_555
N5 C43 1_555 1_555
N6 N4 1_555 1_555
C33 H31 1_555 1_555
C34 C53 1_555 1_555
C35 C45 1_555 1_555
C36 H32 1_555 1_555
H33 C36 1_555 1_555
H34 C36 1_555 1_555
C37 H35 1_555 1_555
C38 C50 1_555 1_555
C39 H36 1_555 1_555
C40 N6 1_555 1_555
H37 C40 1_555 1_555
C41 H38 1_555 1_555
C42 N6 1_555 1_555
H39 C42 1_555 1_555
H40 C42 1_555 1_555
C43 N4 1_555 1_555
H41 C43 1_555 1_555
C44 H42 1_555 1_555
C45 C41 1_555 1_555
H43 C45 1_555 1_555
C46 N5 1_555 1_555
C47 O4 1_555 1_555
C48 H44 1_555 1_555
C49 S2 1_555 1_555
C50 C37 1_555 1_555
H45 C50 1_555 1_555
C51 C33 1_555 1_555
C52 C42 1_555 1_555
H46 C52 1_555 1_555
H47 C52 1_555 1_555
C53 N5 1_555 1_555
H48 C53 1_555 1_555
H49 C53 1_555 1_555
C54 C38 1_555 1_555
H50 C54 1_555 1_555
H51 C54 1_555 1_555
H52 C54 1_555 1_555
C55 C33 1_555 1_555
H53 C55 1_555 1_555
C56 C51 1_555 1_555
C57 C38 1_555 1_555
H54 C57 1_555 1_555
C58 H55 1_555 1_555
C59 C34 1_555 1_555
H56 C59 1_555 1_555
C60 C58 1_555 1_555
H57 C60 1_555 1_555
C61 C58 1_555 1_555
H58 C61 1_555 1_555
C62 C39 1_555 1_555
H59 C62 1_555 1_555
C63 C34 1_555 1_555
H60 C63 1_555 1_555
C64 C48 1_555 1_555
C1 C11 1_555 1_555
C1 C19 1_555 1_555
C4 C11 1_555 1_555
C4 C20 1_555 1_555
C5 C19 1_555 1_555
C6 C18 1_555 1_555
C8 C12 1_555 1_555
C10 C19 1_555 1_555
C15 C23 1_555 1_555
C16 C18 1_555 1_555
C17 C26 1_555 1_555
C28 C32 1_555 1_555
C30 C31 1_555 1_555
C35 C46 1_555 1_555
C35 C47 1_555 1_555
C36 C47 1_555 1_555
C37 C49 1_555 1_555
C39 C46 1_555 1_555
C40 C51 1_555 1_555
C41 C62 1_555 1_555
C43 C47 1_555 1_555
C44 C49 1_555 1_555
C44 C57 1_555 1_555
C48 C55 1_555 1_555
C52 C56 1_555 1_555
C56 C64 1_555 1_555
C59 C61 1_555 1_555
C60 C63 1_555 1_555

#END
