
#######################################################################
#
#                 Cambridge Crystallographic Data Centre
#                                CCDC 
#
#######################################################################
#
# If this CIF has been generated from an entry in the Cambridge 
# Structural Database, then it will include bibliographic, chemical, 
# crystal, experimental, refinement or atomic coordinate data resulting 
# from the CCDC's data processing and validation procedures.
#
#######################################################################

data_CEWGIW
_chemical_formula_moiety         'C22 H19 N1 O2 S1'
_chemical_name_systematic        
2-Benzyl-1-((4-methylphenyl)sulfonyl)-1H-indole
_symmetry_cell_setting           triclinic
_symmetry_space_group_name_H-M   'P -1'
_symmetry_Int_Tables_number      2
_space_group_name_Hall           '-P 1'
loop_
_symmetry_equiv_pos_site_id
_symmetry_equiv_pos_as_xyz
1 x,y,z
2 -x,-y,-z
_cell_length_a                   9.8549(10)
_cell_length_b                   12.8504(13)
_cell_length_c                   15.1652(15)
_cell_angle_alpha                88.796(5)
_cell_angle_beta                 74.623(5)
_cell_angle_gamma                86.501(5)
_cell_volume                     1848.29
_exptl_crystal_colour            colorless
_exptl_crystal_description       needle
_cell_formula_units_Z            4
loop_
_atom_site_label
_atom_site_type_symbol
_atom_site_fract_x
_atom_site_fract_y
_atom_site_fract_z
S1 S 0.27003(5) -0.09956(4) 0.24508(3)
C1 C 0.0909(2) -0.09492(15) 0.24782(13)
C2 C 0.26030(19) -0.16620(15) 0.41871(13)
C3 C 0.2549(2) 0.20408(15) 0.41916(14)
C4 C 0.2567(2) 0.01204(15) 0.40109(14)
C5 C 0.2439(2) -0.12029(17) 0.50372(14)
C6 C 0.2613(3) 0.11587(16) 0.35438(15)
H1 H 0.1825 0.1250 0.3273
H2 H 0.3475 0.1178 0.3055
C7 C 0.3754(2) 0.23257(19) 0.44060(16)
H3 H 0.4610 0.1964 0.4148
C8 C 0.2416(3) -0.00959(17) 0.49021(14)
H4 H 0.2313 0.0396 0.5360
C9 C 0.1296(2) 0.25949(18) 0.45820(16)
H5 H 0.0470 0.2413 0.4453
C10 C 0.0106(2) -0.17864(18) 0.28216(17)
H6 H 0.0521 -0.2389 0.3013
C11 C 0.2633(2) -0.27389(16) 0.40912(16)
H7 H 0.2727 -0.3041 0.3525
C12 C -0.1318(3) -0.17154(19) 0.28765(18)
H8 H -0.1861 -0.2274 0.3113
C13 C 0.2459(3) 0.36877(18) 0.53700(16)
H9 H 0.2430 0.4240 0.5762
C14 C 0.2349(3) -0.1839(2) 0.58069(16)
H10 H 0.2263 -0.1546 0.6376
C15 C 0.3708(3) 0.3135(2) 0.49934(16)
H11 H 0.4527 0.3308 0.5136
C16 C 0.0299(3) -0.00667(18) 0.21700(17)
H12 H 0.0840 0.0491 0.1928
C17 C -0.1951(3) -0.08380(19) 0.25895(17)
C18 C 0.1256(3) 0.34190(18) 0.51637(17)
H13 H 0.0407 0.3792 0.5416
C19 C 0.2387(2) -0.2898(2) 0.57134(18)
H14 H 0.2325 -0.3326 0.6223
C20 C 0.2517(2) -0.33391(18) 0.48693(18)
H15 H 0.2527 -0.4060 0.4825
C21 C -0.1126(3) -0.0025(2) 0.2226(2)
H16 H -0.1537 0.0566 0.2014
C22 C -0.3522(3) -0.0762(3) 0.2702(2)
H17 H -0.4004 -0.0656 0.3335
H18 H -0.3803 -0.1395 0.2495
H19 H -0.3759 -0.0186 0.2347
N1 N 0.27203(17) -0.08447(12) 0.35368(11)
O1 O 0.33058(17) -0.20174(12) 0.22080(11)
O2 O 0.33274(17) -0.01199(12) 0.19524(10)
S2 S 0.63655(6) 0.22090(4) 0.11806(4)
C23 C 0.6307(2) 0.42426(15) 0.17118(13)
C24 C 0.6597(2) 0.52016(16) 0.12712(14)
C25 C 0.4798(2) 0.21104(15) 0.08561(15)
C26 C 0.7231(2) 0.39680(16) 0.01698(13)
C27 C 0.5737(2) 0.41789(18) 0.26516(14)
H20 H 0.5536 0.3541 0.2944
C28 C 0.8357(2) 0.41109(17) -0.14942(14)
C29 C 0.7583(2) 0.45094(18) -0.20761(15)
H21 H 0.6650 0.4341 -0.1979
C30 C 0.3576(2) 0.26191(19) 0.13582(19)
H22 H 0.3577 0.3022 0.1861
C31 C 0.7165(2) 0.49990(16) 0.03157(14)
H23 H 0.7444 0.5503 -0.0134
C32 C 0.6324(2) 0.61146(18) 0.17795(16)
H24 H 0.6514 0.6757 0.1494
C33 C 0.9736(2) 0.4389(2) -0.16511(17)
H25 H 1.0272 0.4137 -0.1264
C34 C 0.5769(2) 0.60527(19) 0.27099(16)
H26 H 0.5587 0.6658 0.3057
C35 C 0.7735(3) 0.33933(18) -0.07130(15)
H27 H 0.6952 0.3058 -0.0840
H28 H 0.8441 0.2854 -0.0660
C36 C 0.5479(2) 0.5099(2) 0.31337(15)
H29 H 0.5099 0.5078 0.3764
C37 C 0.8174(2) 0.51522(19) -0.27980(16)
H30 H 0.7640 0.5409 -0.3186
C38 C 0.4795(3) 0.1495(2) 0.01216(17)
H31 H 0.5622 0.1148 -0.0211
C39 C 0.9548(3) 0.5414(2) -0.29465(17)
H32 H 0.9949 0.5847 -0.3433
C40 C 1.0327(3) 0.5030(2) -0.23675(18)
H33 H 1.1257 0.5205 -0.2462
C41 C 0.3550(4) 0.1401(3) -0.0112(2)
H34 H 0.3544 0.0982 -0.0604
C42 C 0.2316(3) 0.1913(3) 0.0364(2)
C43 C 0.2345(3) 0.2518(2) 0.1098(2)
H35 H 0.1517 0.2867 0.1427
C44 C 0.0964(5) 0.1821(5) 0.0085(3)
H36 H 0.0185 0.2118 0.0550
H37 H 0.0824 0.1099 0.0009
H38 H 0.1025 0.2186 -0.0482
N2 N 0.67316(18) 0.34603(13) 0.10295(11)
O3 O 0.61160(19) 0.20122(13) 0.21354(11)
O4 O 0.74539(17) 0.16216(13) 0.05625(13)
loop_
_geom_bond_atom_site_label_1
_geom_bond_atom_site_label_2
_geom_bond_site_symmetry_1
_geom_bond_site_symmetry_2
S1 C1 1_555 1_555
C1 C10 1_555 1_555
C2 C5 1_555 1_555
C3 C6 1_555 1_555
C4 C6 1_555 1_555
C5 C8 1_555 1_555
C6 H1 1_555 1_555
H2 C6 1_555 1_555
C7 C3 1_555 1_555
H3 C7 1_555 1_555
C8 C4 1_555 1_555
H4 C8 1_555 1_555
C9 C3 1_555 1_555
H5 C9 1_555 1_555
C10 H6 1_555 1_555
C11 C2 1_555 1_555
H7 C11 1_555 1_555
C12 C10 1_555 1_555
H8 C12 1_555 1_555
C13 H9 1_555 1_555
C14 C5 1_555 1_555
H10 C14 1_555 1_555
C15 C7 1_555 1_555
H11 C15 1_555 1_555
C16 C1 1_555 1_555
H12 C16 1_555 1_555
C17 C12 1_555 1_555
C18 C9 1_555 1_555
H13 C18 1_555 1_555
C19 C14 1_555 1_555
H14 C19 1_555 1_555
C20 C11 1_555 1_555
H15 C20 1_555 1_555
C21 C16 1_555 1_555
H16 C21 1_555 1_555
C22 C17 1_555 1_555
H17 C22 1_555 1_555
H18 C22 1_555 1_555
H19 C22 1_555 1_555
N1 S1 1_555 1_555
O1 S1 1_555 1_555
O2 S1 1_555 1_555
S2 C25 1_555 1_555
C23 C24 1_555 1_555
C24 C31 1_555 1_555
C25 C30 1_555 1_555
C26 C31 1_555 1_555
C27 C23 1_555 1_555
H20 C27 1_555 1_555
C28 C29 1_555 1_555
C29 H21 1_555 1_555
C30 H22 1_555 1_555
C31 H23 1_555 1_555
C32 C24 1_555 1_555
H24 C32 1_555 1_555
C33 C28 1_555 1_555
H25 C33 1_555 1_555
C34 C32 1_555 1_555
H26 C34 1_555 1_555
C35 C26 1_555 1_555
H27 C35 1_555 1_555
H28 C35 1_555 1_555
C36 C27 1_555 1_555
H29 C36 1_555 1_555
C37 C29 1_555 1_555
H30 C37 1_555 1_555
C38 C25 1_555 1_555
H31 C38 1_555 1_555
C39 C37 1_555 1_555
H32 C39 1_555 1_555
C40 C33 1_555 1_555
H33 C40 1_555 1_555
C41 C38 1_555 1_555
H34 C41 1_555 1_555
C42 C41 1_555 1_555
C43 C30 1_555 1_555
H35 C43 1_555 1_555
C44 C42 1_555 1_555
H36 C44 1_555 1_555
H37 C44 1_555 1_555
H38 C44 1_555 1_555
N2 S2 1_555 1_555
O3 S2 1_555 1_555
O4 S2 1_555 1_555
C2 N1 1_555 1_555
C4 N1 1_555 1_555
C13 C15 1_555 1_555
C13 C18 1_555 1_555
C17 C21 1_555 1_555
C19 C20 1_555 1_555
C23 N2 1_555 1_555
C26 N2 1_555 1_555
C28 C35 1_555 1_555
C34 C36 1_555 1_555
C39 C40 1_555 1_555
C42 C43 1_555 1_555

#END
