
#######################################################################
#
#                 Cambridge Crystallographic Data Centre
#                                CCDC 
#
#######################################################################
#
# If this CIF has been generated from an entry in the Cambridge 
# Structural Database, then it will include bibliographic, chemical, 
# crystal, experimental, refinement or atomic coordinate data resulting 
# from the CCDC's data processing and validation procedures.
#
#######################################################################

data_CEWJAQ
_chemical_formula_moiety         'C17 H25 N1 O10,H2 O1'
_chemical_name_systematic        
"(2R,3R,3aS,6R,6aR,3'R,3a'S,6'R,6'aR,4''S,5''R)-Spiro[6,3',6'-trihydroxyoctahydro[2,3']bi(furo[3,2-b]furan)]-3,2''-[4''-methoxycarbonyl-5''-methyl-1'',3''-oxazolidine] monohydrate"
_symmetry_cell_setting           orthorhombic
_symmetry_space_group_name_H-M   'P 21 21 21'
_symmetry_Int_Tables_number      19
_space_group_name_Hall           'P 2ac 2ab'
loop_
_symmetry_equiv_pos_site_id
_symmetry_equiv_pos_as_xyz
1 x,y,z
2 1/2-x,-y,1/2+z
3 -x,1/2+y,1/2-z
4 1/2+x,1/2-y,-z
_cell_length_a                   8.5062(17)
_cell_length_b                   12.876(3)
_cell_length_c                   17.683(4)
_cell_angle_alpha                90
_cell_angle_beta                 90
_cell_angle_gamma                90
_cell_volume                     1936.75
_exptl_crystal_colour            colorless
_exptl_crystal_description       prismatic
_chemical_melting_point          98-100deg.C
_cell_formula_units_Z            4
loop_
_atom_site_label
_atom_site_type_symbol
_atom_site_fract_x
_atom_site_fract_y
_atom_site_fract_z
N1 N 0.6370(2) 0.57949(15) 1.44453(11)
O1 O 0.80185(17) 0.64847(15) 1.15078(8)
O2 O 0.85891(19) 0.57143(12) 1.31524(10)
O3 O 1.0684(2) 0.53879(14) 1.19015(10)
O4 O 1.07812(16) 0.72054(13) 1.28565(9)
O5 O 0.64003(16) 0.81107(11) 1.32569(9)
O6 O 0.48250(17) 0.60403(12) 1.33669(9)
O7 O 0.6084(3) 1.00669(15) 1.37799(15)
O8 O 0.5414(3) 0.78136(14) 1.49431(10)
O9 O 0.74778(19) 0.37501(14) 1.44167(11)
O10 O 0.50767(18) 0.31612(12) 1.47094(10)
C1 C 0.6981(3) 0.6460(2) 1.21488(13)
H1 H 0.6465 0.5790 1.2181
H2 H 0.6182 0.6993 1.2100
C2 C 0.7966(2) 0.66517(17) 1.28539(12)
C3 C 0.9264(2) 0.73793(18) 1.25268(13)
H3 H 0.8956 0.8110 1.2577
C4 C 0.9381(2) 0.70703(19) 1.16945(13)
H4 H 0.9459 0.7688 1.1373
C5 C 1.0896(2) 0.64342(19) 1.16549(13)
H5 H 1.1382 0.6469 1.1153
C6 C 1.1861(3) 0.69936(19) 1.22414(13)
H6 H 1.2725 0.6562 1.2413
H7 H 1.2284 0.7635 1.2038
C7 C 0.7133(2) 0.71671(16) 1.35199(12)
H8 H 0.7923 0.7349 1.3901
C8 C 0.5809(2) 0.65658(17) 1.39081(12)
C9 C 0.4798(3) 0.74414(19) 1.42430(14)
H9 H 0.3697 0.7228 1.4294
C10 C 0.4977(3) 0.83177(18) 1.36740(13)
H10 H 0.4062 0.8372 1.3340
C11 C 0.5193(3) 0.92847(19) 1.41496(15)
H11 H 0.4153 0.9568 1.4270
C12 C 0.5901(4) 0.8855(2) 1.48615(18)
H12 H 0.7039 0.8890 1.4834
H13 H 0.5558 0.9260 1.5294
C13 C 0.5284(2) 0.49144(17) 1.43817(12)
H14 H 0.4400 0.5000 1.4731
C14 C 0.4707(2) 0.49600(17) 1.35564(13)
H15 H 0.5428 0.4562 1.3236
C15 C 0.3047(3) 0.4580(2) 1.34289(16)
H16 H 0.2793 0.4631 1.2901
H17 H 0.2329 0.4999 1.3716
H18 H 0.2964 0.3869 1.3588
C16 C 0.6101(3) 0.38927(19) 1.45208(13)
C17 C 0.5655(3) 0.21039(19) 1.47232(18)
H19 H 0.4820 0.1644 1.4868
H20 H 0.6500 0.2050 1.5081
H21 H 0.6029 0.1917 1.4229
H22 H 0.728(3) 0.5571(17) 1.4312(11)
H23 H 0.936(4) 0.553(3) 1.2867(18)
H24 H 1.004(4) 0.506(2) 1.1658(19)
H27 H 0.692(3) 0.977(3) 1.385(2)
O11 O 0.8957(3) 0.39428(17) 1.11048(13)
H25 H 0.882(4) 0.382(3) 1.062(2)
H26 H 0.914(5) 0.333(3) 1.140(3)
loop_
_geom_bond_atom_site_label_1
_geom_bond_atom_site_label_2
_geom_bond_site_symmetry_1
_geom_bond_site_symmetry_2
N1 C8 1_555 1_555
O1 C1 1_555 1_555
O2 C2 1_555 1_555
O3 C5 1_555 1_555
O4 C3 1_555 1_555
O5 C7 1_555 1_555
O6 C8 1_555 1_555
O7 C11 1_555 1_555
O8 C9 1_555 1_555
O9 C16 1_555 1_555
O10 C16 1_555 1_555
O11 H25 1_555 1_555
C1 H1 1_555 1_555
H2 C1 1_555 1_555
C2 C1 1_555 1_555
C3 C2 1_555 1_555
H3 C3 1_555 1_555
C4 O1 1_555 1_555
H4 C4 1_555 1_555
C5 C4 1_555 1_555
H5 C5 1_555 1_555
C6 O4 1_555 1_555
H6 C6 1_555 1_555
H7 C6 1_555 1_555
C7 C2 1_555 1_555
H8 C7 1_555 1_555
C8 C7 1_555 1_555
C9 C8 1_555 1_555
H9 C9 1_555 1_555
C10 O5 1_555 1_555
H10 C10 1_555 1_555
C11 C10 1_555 1_555
H11 C11 1_555 1_555
C12 O8 1_555 1_555
H12 C12 1_555 1_555
H13 C12 1_555 1_555
C13 N1 1_555 1_555
H14 C13 1_555 1_555
C14 O6 1_555 1_555
H15 C14 1_555 1_555
C15 C14 1_555 1_555
H16 C15 1_555 1_555
H17 C15 1_555 1_555
H18 C15 1_555 1_555
C16 C13 1_555 1_555
C17 O10 1_555 1_555
H19 C17 1_555 1_555
H20 C17 1_555 1_555
H21 C17 1_555 1_555
H22 N1 1_555 1_555
H23 O2 1_555 1_555
H24 O3 1_555 1_555
H26 O11 1_555 1_555
H27 O7 1_555 1_555
C3 C4 1_555 1_555
C5 C6 1_555 1_555
C9 C10 1_555 1_555
C11 C12 1_555 1_555
C13 C14 1_555 1_555

#END
