
#######################################################################
#
#                 Cambridge Crystallographic Data Centre
#                                CCDC 
#
#######################################################################
#
# If this CIF has been generated from an entry in the Cambridge 
# Structural Database, then it will include bibliographic, chemical, 
# crystal, experimental, refinement or atomic coordinate data resulting 
# from the CCDC's data processing and validation procedures.
#
#######################################################################

data_CEXKAT
_chemical_formula_moiety         'C22 H19 N1 O1'
_chemical_name_systematic        
2-Methyl-cis-3,4-diphenyl-3,4-dihydroisoquinolin-1(2H)-one
_symmetry_cell_setting           monoclinic
_symmetry_space_group_name_H-M   'P 21/c'
_symmetry_Int_Tables_number      14
_space_group_name_Hall           '-P 2ybc'
loop_
_symmetry_equiv_pos_site_id
_symmetry_equiv_pos_as_xyz
1 x,y,z
2 -x,1/2+y,1/2-z
3 -x,-y,-z
4 x,1/2-y,1/2+z
_cell_length_a                   8.775(2)
_cell_length_b                   19.559(4)
_cell_length_c                   10.284(3)
_cell_angle_alpha                90
_cell_angle_beta                 109.567(4)
_cell_angle_gamma                90
_cell_volume                     1663.11
_exptl_crystal_colour            colorless
_exptl_crystal_description       block
_chemical_melting_point          '174-175 deg.C'
_cell_formula_units_Z            4
loop_
_atom_site_label
_atom_site_type_symbol
_atom_site_fract_x
_atom_site_fract_y
_atom_site_fract_z
O1 O 0.4144(2) 0.33280(9) 0.71896(16)
N1 N 0.3637(2) 0.30535(9) 0.49481(17)
C1 C 0.3225(3) 0.33417(11) 0.5980(2)
C2 C 0.1598(3) 0.36645(11) 0.5608(2)
C3 C 0.0474(3) 0.36077(10) 0.4281(2)
C4 C 0.0888(3) 0.31692(11) 0.3233(2)
H1 H 0.0594 0.2691 0.3400
C5 C 0.2718(3) 0.31556(11) 0.3477(2)
H2 H 0.2914 0.2739 0.2992
C6 C 0.1202(3) 0.40116(12) 0.6636(2)
H3 H 0.1977 0.4054 0.7535
C7 C -0.0322(3) 0.42942(12) 0.6345(3)
H4 H -0.0597 0.4527 0.7046
C8 C -0.1444(3) 0.42367(12) 0.5034(3)
H5 H -0.2488 0.4432 0.4833
C9 C -0.1049(3) 0.38950(12) 0.4015(2)
H6 H -0.1830 0.3856 0.3119
C10 C -0.0082(3) 0.33237(11) 0.1739(2)
C11 C -0.0293(3) 0.39879(12) 0.1232(2)
H7 H 0.0182 0.4357 0.1833
C12 C -0.1182(3) 0.41218(13) -0.0132(2)
H8 H -0.1319 0.4580 -0.0457
C13 C -0.1870(3) 0.35930(13) -0.1022(2)
H9 H -0.2485 0.3685 -0.1958
C14 C -0.1658(3) 0.29306(12) -0.0540(2)
H10 H -0.2117 0.2563 -0.1150
C15 C -0.0779(3) 0.27972(11) 0.0830(2)
H11 H -0.0652 0.2338 0.1152
C16 C 0.3394(3) 0.37529(11) 0.2899(2)
C17 C 0.3629(3) 0.43961(12) 0.3512(2)
H12 H 0.3335 0.4475 0.4308
C18 C 0.4284(3) 0.49207(13) 0.2974(3)
H13 H 0.4424 0.5360 0.3393
C19 C 0.4736(3) 0.48111(17) 0.1830(3)
H14 H 0.5195 0.5172 0.1466
C20 C 0.4521(4) 0.41769(17) 0.1217(3)
H15 H 0.4838 0.4098 0.0433
C21 C 0.3841(3) 0.36553(14) 0.1745(3)
H16 H 0.3677 0.3221 0.1307
C22 C 0.5268(3) 0.27869(13) 0.5241(3)
H17 H 0.5238 0.2395 0.4640
H18 H 0.5701 0.2642 0.6208
H19 H 0.5961 0.3144 0.5071
loop_
_geom_bond_atom_site_label_1
_geom_bond_atom_site_label_2
_geom_bond_site_symmetry_1
_geom_bond_site_symmetry_2
O1 C1 1_555 1_555
N1 C1 1_555 1_555
C1 C2 1_555 1_555
C2 C3 1_555 1_555
C3 C4 1_555 1_555
C4 H1 1_555 1_555
C5 N1 1_555 1_555
H2 C5 1_555 1_555
C6 C2 1_555 1_555
H3 C6 1_555 1_555
C7 C6 1_555 1_555
H4 C7 1_555 1_555
C8 C7 1_555 1_555
H5 C8 1_555 1_555
C9 C3 1_555 1_555
H6 C9 1_555 1_555
C10 C4 1_555 1_555
C11 C10 1_555 1_555
H7 C11 1_555 1_555
C12 C11 1_555 1_555
H8 C12 1_555 1_555
C13 C12 1_555 1_555
H9 C13 1_555 1_555
C14 C13 1_555 1_555
H10 C14 1_555 1_555
C15 C10 1_555 1_555
H11 C15 1_555 1_555
C16 C5 1_555 1_555
C17 C16 1_555 1_555
H12 C17 1_555 1_555
C18 C17 1_555 1_555
H13 C18 1_555 1_555
C19 C18 1_555 1_555
H14 C19 1_555 1_555
C20 C19 1_555 1_555
H15 C20 1_555 1_555
C21 C16 1_555 1_555
H16 C21 1_555 1_555
C22 N1 1_555 1_555
H17 C22 1_555 1_555
H18 C22 1_555 1_555
H19 C22 1_555 1_555
C4 C5 1_555 1_555
C8 C9 1_555 1_555
C14 C15 1_555 1_555
C20 C21 1_555 1_555

#END
