
#######################################################################
#
#                 Cambridge Crystallographic Data Centre
#                                CCDC 
#
#######################################################################
#
# If this CIF has been generated from an entry in the Cambridge 
# Structural Database, then it will include bibliographic, chemical, 
# crystal, experimental, refinement or atomic coordinate data resulting 
# from the CCDC's data processing and validation procedures.
#
#######################################################################

data_CEXPEA
_chemical_formula_moiety         'C12 H15 N1 O3'
_chemical_name_systematic        N-Propionyl-(S)-phenylalanine
_symmetry_cell_setting           orthorhombic
_symmetry_space_group_name_H-M   'P 21 21 21'
_symmetry_Int_Tables_number      19
_space_group_name_Hall           'P 2ac 2ab'
loop_
_symmetry_equiv_pos_site_id
_symmetry_equiv_pos_as_xyz
1 x,y,z
2 1/2-x,-y,1/2+z
3 -x,1/2+y,1/2-z
4 1/2+x,1/2-y,-z
_cell_length_a                   5.754(2)
_cell_length_b                   8.139(2)
_cell_length_c                   24.873(2)
_cell_angle_alpha                90
_cell_angle_beta                 90
_cell_angle_gamma                90
_cell_volume                     1164.85
_exptl_crystal_colour            colorless
_exptl_crystal_description       plate
_cell_formula_units_Z            4
loop_
_atom_site_label
_atom_site_type_symbol
_atom_site_fract_x
_atom_site_fract_y
_atom_site_fract_z
O1 O 0.4160(3) -0.0077(2) 0.27516(6)
H1 H 0.5138(69) -0.0584(42) 0.2445(14)
O2 O 0.7475(3) 0.0019(2) 0.32228(6)
O3 O 0.4116(3) 0.3644(2) 0.31073(6)
N1 N 0.1885(3) 0.1733(2) 0.34940(7)
H2 H 0.0562(46) 0.1244(30) 0.3521(9)
C1 C 0.5392(4) 0.0232(3) 0.31828(8)
C2 C 0.3930(4) 0.0807(3) 0.36568(8)
H3 H 0.4896(4) 0.1517(3) 0.38833(8)
C3 C 0.3210(4) -0.0693(3) 0.39896(8)
H4 H 0.2014(4) -0.1287(3) 0.37957(8)
H5 H 0.4540(4) -0.1417(3) 0.40254(8)
C4 C 0.2143(4) 0.3112(3) 0.32034(8)
C5 C -0.0005(4) 0.3975(3) 0.30140(9)
H6 H -0.1362(4) 0.3437(3) 0.31643(9)
H7 H -0.0103(4) 0.3899(3) 0.26254(9)
C6 C -0.0006(5) 0.5779(3) 0.31799(11)
H8 H -0.1395(40) 0.6316(35) 0.3067(9)
H9 H 0.1289(41) 0.6296(36) 0.3035(9)
H10 H 0.0054(43) 0.5889(34) 0.3571(9)
C7 C 0.2304(4) -0.0283(3) 0.45469(8)
C8 C 0.3679(5) 0.0606(3) 0.49057(9)
H11 H 0.5103(5) 0.1022(3) 0.47928(9)
C9 C 0.2947(5) 0.0872(3) 0.54277(9)
H12 H 0.3875(5) 0.1476(3) 0.56616(9)
C10 C 0.0854(5) 0.0254(3) 0.56044(9)
H13 H 0.0386(5) 0.0411(3) 0.59585(9)
C11 C -0.0537(5) -0.0603(3) 0.52503(10)
H14 H -0.1969(5) -0.1002(3) 0.53643(10)
C12 C 0.0187(4) -0.0873(3) 0.47238(9)
H15 H -0.0764(4) -0.1455(3) 0.44889(9)
loop_
_geom_bond_atom_site_label_1
_geom_bond_atom_site_label_2
_geom_bond_site_symmetry_1
_geom_bond_site_symmetry_2
O1 H1 1_555 1_555
O2 C1 1_555 1_555
O3 C4 1_555 1_555
N1 H2 1_555 1_555
C1 O1 1_555 1_555
C2 N1 1_555 1_555
H3 C2 1_555 1_555
C3 C2 1_555 1_555
H4 C3 1_555 1_555
H5 C3 1_555 1_555
C4 N1 1_555 1_555
C5 C4 1_555 1_555
H6 C5 1_555 1_555
H7 C5 1_555 1_555
C6 C5 1_555 1_555
H8 C6 1_555 1_555
H9 C6 1_555 1_555
H10 C6 1_555 1_555
C7 C3 1_555 1_555
C8 C7 1_555 1_555
H11 C8 1_555 1_555
C9 C8 1_555 1_555
H12 C9 1_555 1_555
C10 C9 1_555 1_555
H13 C10 1_555 1_555
C11 C10 1_555 1_555
H14 C11 1_555 1_555
C12 C7 1_555 1_555
H15 C12 1_555 1_555
C1 C2 1_555 1_555
C11 C12 1_555 1_555

#END
