
#######################################################################
#
#                 Cambridge Crystallographic Data Centre
#                                CCDC 
#
#######################################################################
#
# If this CIF has been generated from an entry in the Cambridge 
# Structural Database, then it will include bibliographic, chemical, 
# crystal, experimental, refinement or atomic coordinate data resulting 
# from the CCDC's data processing and validation procedures.
#
#######################################################################

data_CEXQIF
_chemical_formula_moiety         'C19 H22 O5'
_chemical_name_systematic        
6-(Hydroxymethyl)-2,3:9,10-dibenzo-1,4,8,11-tetraoxacyclotetradeca-2,9-diene
_symmetry_cell_setting           monoclinic
_symmetry_space_group_name_H-M   'P 21'
_symmetry_Int_Tables_number      4
_space_group_name_Hall           'P 2yb'
loop_
_symmetry_equiv_pos_site_id
_symmetry_equiv_pos_as_xyz
1 x,y,z
2 -x,1/2+y,-z
_cell_length_a                   9.621(10)
_cell_length_b                   9.499(11)
_cell_length_c                   10.262(7)
_cell_angle_alpha                90
_cell_angle_beta                 115.39(6)
_cell_angle_gamma                90
_cell_volume                     847.257
_exptl_crystal_colour            colorless
_exptl_crystal_description       needle
_cell_formula_units_Z            2
_exptl_crystal_recrystallization_method acetonitrile
loop_
_atom_site_label
_atom_site_type_symbol
_atom_site_fract_x
_atom_site_fract_y
_atom_site_fract_z
O1 O 0.0707(8) -0.0655(11) 0.2210(8)
C1 C -0.0158(14) -0.1776(15) 0.1295(13)
H1 H -0.0523(14) -0.2403(15) 0.1815(13)
H2 H -0.1020(14) -0.1397(15) 0.0479(13)
C2 C 0.0891(16) -0.2529(17) 0.0764(15)
H3 H 0.1839(16) -0.2735(17) 0.1588(15)
H4 H 0.0399(16) -0.3396(17) 0.0318(15)
C3 C 0.1268(13) -0.1679(14) -0.0300(12)
H5 H 0.0335(13) -0.1307(14) -0.1043(12)
H6 H 0.1768(13) -0.2275(14) -0.0727(12)
O2 O 0.2231(8) -0.0573(11) 0.0444(7)
C4 C 0.2839(11) 0.0266(15) -0.0276(10)
C5 C 0.2622(13) 0.0027(16) -0.1690(10)
H7 H 0.2007(13) -0.0755(16) -0.2226(10)
C6 C 0.3297(14) 0.0883(17) -0.2307(11)
H8 H 0.3138(14) 0.0710(17) -0.3283(11)
C7 C 0.4208(13) 0.1978(17) -0.1566(11)
H9 H 0.4681(13) 0.2567(17) -0.2023(11)
C8 C 0.4399(11) 0.2251(17) -0.0146(11)
H10 H 0.5060(11) 0.3009(17) 0.0392(11)
C9 C 0.3682(10) 0.1389(14) 0.0473(10)
O3 O 0.3795(7) 0.1562 0.1831(6)
C10 C 0.4419(11) 0.2827(12) 0.2541(9)
H11 H 0.5444(11) 0.2932(12) 0.2611(9)
H12 H 0.3794(11) 0.3605(12) 0.2008(9)
C11 C 0.4508(10) 0.2798(14) 0.4104(9)
H13 H 0.4973(10) 0.1924(14) 0.4551(9)
C12 C 0.5456(12) 0.3978(14) 0.4928(10)
H14 H 0.4977(12) 0.4858(14) 0.4518(10)
H15 H 0.6448(12) 0.3926(14) 0.4919(10)
O4 O 0.5626(9) 0.3920(12) 0.6353(7)
H16 H 0.6159(9) 0.4938(12) 0.6739(7)
C13 C 0.2947(10) 0.2786(15) 0.4125(10)
H17 H 0.2335(10) 0.3554(15) 0.3556(10)
H18 H 0.3088(10) 0.2890(15) 0.5104(10)
O5 O 0.2179(7) 0.1517(11) 0.3570(7)
C14 C 0.0758(10) 0.1287(16) 0.3561(10)
C15 C 0.0176(13) 0.2177(16) 0.4327(12)
H19 H 0.0716(13) 0.2997(16) 0.4849(12)
C16 C -0.1287(12) 0.1782(18) 0.4250(13)
H20 H -0.1724(12) 0.2317(18) 0.4777(13)
C17 C -0.2069(12) 0.0708(17) 0.3506(14)
H21 H -0.3082(12) 0.0518(17) 0.3434(14)
C18 C -0.1463(12) -0.0137(16) 0.2763(12)
H22 H -0.2022(12) -0.0945(16) 0.2230(12)
C19 C -0.0027(11) 0.0167(14) 0.2846(10)
loop_
_geom_bond_atom_site_label_1
_geom_bond_atom_site_label_2
_geom_bond_site_symmetry_1
_geom_bond_site_symmetry_2
O1 C1 1_555 1_555
C1 H1 1_555 1_555
H2 C1 1_555 1_555
C2 C1 1_555 1_555
H3 C2 1_555 1_555
H4 C2 1_555 1_555
C3 C2 1_555 1_555
H5 C3 1_555 1_555
H6 C3 1_555 1_555
O2 C3 1_555 1_555
C4 O2 1_555 1_555
C5 C4 1_555 1_555
H7 C5 1_555 1_555
C6 C5 1_555 1_555
H8 C6 1_555 1_555
C7 C6 1_555 1_555
H9 C7 1_555 1_555
C8 C7 1_555 1_555
H10 C8 1_555 1_555
C9 C4 1_555 1_555
O3 C9 1_555 1_555
C10 O3 1_555 1_555
H11 C10 1_555 1_555
H12 C10 1_555 1_555
C11 C10 1_555 1_555
H13 C11 1_555 1_555
C12 C11 1_555 1_555
H14 C12 1_555 1_555
H15 C12 1_555 1_555
O4 C12 1_555 1_555
H16 O4 1_555 1_555
C13 C11 1_555 1_555
H17 C13 1_555 1_555
H18 C13 1_555 1_555
O5 C13 1_555 1_555
C14 O5 1_555 1_555
C15 C14 1_555 1_555
H19 C15 1_555 1_555
C16 C15 1_555 1_555
H20 C16 1_555 1_555
C17 C16 1_555 1_555
H21 C17 1_555 1_555
C18 C17 1_555 1_555
H22 C18 1_555 1_555
C19 O1 1_555 1_555
C8 C9 1_555 1_555
C14 C19 1_555 1_555
C18 C19 1_555 1_555

#END
