
#######################################################################
#
#                 Cambridge Crystallographic Data Centre
#                                CCDC 
#
#######################################################################
#
# If this CIF has been generated from an entry in the Cambridge 
# Structural Database, then it will include bibliographic, chemical, 
# crystal, experimental, refinement or atomic coordinate data resulting 
# from the CCDC's data processing and validation procedures.
#
#######################################################################

data_CEYMUQ
_chemical_formula_moiety         'C19 H18 Cl1 N1 O1,0.5(C1 H1 Cl3)'
_chemical_name_systematic        
"6'-Chloro-4'-(2-phenylethyl)-2'H-spiro[cyclopropane-1,3'-isoquinolin]-1'(4'H)-one chloroform solvate"
_symmetry_cell_setting           monoclinic
_symmetry_space_group_name_H-M   'P 21/c'
_symmetry_Int_Tables_number      14
_space_group_name_Hall           '-P 2ybc'
loop_
_symmetry_equiv_pos_site_id
_symmetry_equiv_pos_as_xyz
1 x,y,z
2 -x,1/2+y,1/2-z
3 -x,-y,-z
4 x,1/2-y,1/2+z
_cell_length_a                   23.2470(16)
_cell_length_b                   9.9836(7)
_cell_length_c                   16.0069(11)
_cell_angle_alpha                90
_cell_angle_beta                 90.649(6)
_cell_angle_gamma                90
_cell_volume                     3714.78
_exptl_crystal_colour            colorless
_exptl_crystal_description       block
_cell_formula_units_Z            8
loop_
_atom_site_label
_atom_site_type_symbol
_atom_site_fract_x
_atom_site_fract_y
_atom_site_fract_z
Cl1 Cl 0.38913(6) 0.22642(17) 0.45151(7)
O1 O 0.44577(12) -0.0464(2) 0.08019(16)
N1 N 0.51598(14) 0.1106(3) 0.08578(19)
H1 H 0.5315 0.0792 0.0414
C1 C 0.46999(16) 0.0488(3) 0.1163(2)
C2 C 0.45012(16) 0.0975(3) 0.1990(2)
C3 C 0.39563(17) 0.0593(4) 0.2267(3)
H2 H 0.3725 0.0052 0.1930
C4 C 0.37581(18) 0.1013(4) 0.3036(3)
H3 H 0.3394 0.0770 0.3217
C5 C 0.41154(18) 0.1806(4) 0.3529(2)
C6 C 0.46526(17) 0.2205(4) 0.3265(2)
H4 H 0.4881 0.2747 0.3605
C7 C 0.48491(16) 0.1792(3) 0.2490(2)
C8 C 0.54427(16) 0.2163(4) 0.2179(2)
H5 H 0.5544 0.3045 0.2407
C9 C 0.54075(17) 0.2280(3) 0.1242(2)
C10 C 0.5279(2) 0.3608(4) 0.0839(3)
H6 H 0.5242 0.4383 0.1201
H7 H 0.5030 0.3614 0.0349
C11 C 0.58671(19) 0.2981(4) 0.0761(3)
H8 H 0.5971 0.2612 0.0223
H9 H 0.6183 0.3381 0.1074
C12 C 0.59097(17) 0.1158(4) 0.2459(2)
H10 H 0.5800 0.0272 0.2265
H11 H 0.6268 0.1393 0.2190
C13 C 0.60141(18) 0.1098(4) 0.3398(2)
H12 H 0.6080 0.1999 0.3605
H13 H 0.5672 0.0754 0.3664
C14 C 0.65216(16) 0.0229(4) 0.3642(2)
C15 C 0.6995(2) 0.0734(5) 0.4056(3)
H14 H 0.7001 0.1633 0.4208
C16 C 0.7464(2) -0.0071(7) 0.4253(4)
H15 H 0.7783 0.0295 0.4526
C17 C 0.7460(2) -0.1393(6) 0.4049(3)
H16 H 0.7774 -0.1933 0.4182
C18 C 0.7000(2) -0.1910(5) 0.3655(3)
H17 H 0.6996 -0.2812 0.3510
C19 C 0.6532(2) -0.1112(4) 0.3461(3)
H18 H 0.6214 -0.1498 0.3199
Cl2 Cl 0.11564(8) 0.76811(19) 0.05981(10)
O2 O 0.05456(12) 0.4649(3) 0.42119(18)
N2 N -0.01315(16) 0.6271(3) 0.4196(3)
H19 H -0.0285 0.5959 0.4642
C20 C 0.03202(17) 0.5638(4) 0.3871(3)
C21 C 0.05224(17) 0.6162(4) 0.3055(3)
C22 C 0.10654(19) 0.5815(4) 0.2788(3)
H20 H 0.1296 0.5261 0.3117
C23 C 0.1269(2) 0.6288(5) 0.2030(3)
H21 H 0.1638 0.6075 0.1856
C24 C 0.0914(2) 0.7081(5) 0.1540(3)
C25 C 0.0369(2) 0.7421(4) 0.1802(3)
H22 H 0.0135 0.7951 0.1463
C26 C 0.01687(18) 0.6982(4) 0.2562(3)
C27 C -0.0425(2) 0.7323(4) 0.2879(3)
H23 H -0.0538 0.8192 0.2645
C28 C -0.0370(2) 0.7471(4) 0.3815(3)
C29 C -0.0196(2) 0.8780(5) 0.4188(4)
H24 H -0.0153 0.9537 0.3814
H25 H 0.0070 0.8765 0.4659
C30 C -0.0794(2) 0.8245(5) 0.4320(4)
H26 H -0.0887 0.7907 0.4871
H27 H -0.1110 0.8679 0.4025
C31 C -0.0848(8) 0.6218(17) 0.2511(9)
H28 H -0.0756 0.6081 0.1928
H29 H -0.0772 0.5382 0.2801
C32 C -0.1466(5) 0.6505(11) 0.2566(9)
H30 H -0.1558 0.7284 0.2228
H31 H -0.1562 0.6708 0.3141
C33 C -0.1825(3) 0.5308(7) 0.2263(5)
C34 C -0.1773(4) 0.4623(8) 0.1501(6)
H32 H -0.1505 0.4904 0.1111
C35 C -0.2131(4) 0.3496(8) 0.1324(6)
H33 H -0.2099 0.3025 0.0826
C36 C -0.2506(3) 0.3146(8) 0.1884(5)
H34 H -0.2778 0.2490 0.1761
C37 C -0.2498(3) 0.3726(8) 0.2624(5)
H35 H -0.2754 0.3432 0.3026
C38 C -0.2127(3) 0.4743(8) 0.2823(5)
H36 H -0.2094 0.5028 0.3374
Cl3 Cl 0.27027(8) 0.41188(19) 0.33523(10)
Cl4 Cl 0.18786(7) 0.42925(19) 0.46598(11)
Cl5 Cl 0.30223(10) 0.5346(2) 0.49000(14)
C41 C 0.2606(2) 0.4109(6) 0.4426(3)
H42 H 0.2735 0.3239 0.4641
H37? H -0.0561 0.8162 0.2629
C39? C -0.1216(11) 0.632(3) 0.205(2)
H38? H -0.1007 0.5979 0.1571
H39? H -0.1328 0.7240 0.1937
C40? C -0.0883(17) 0.623(4) 0.2781(19)
H40? H -0.0694 0.5363 0.2792
H41? H -0.1138 0.6269 0.3256
loop_
_geom_bond_atom_site_label_1
_geom_bond_atom_site_label_2
_geom_bond_site_symmetry_1
_geom_bond_site_symmetry_2
Cl1 C5 1_555 1_555
O1 C1 1_555 1_555
N1 H1 1_555 1_555
C1 N1 1_555 1_555
C2 C1 1_555 1_555
C3 C2 1_555 1_555
H2 C3 1_555 1_555
C4 C3 1_555 1_555
H3 C4 1_555 1_555
C5 C4 1_555 1_555
C6 C5 1_555 1_555
H4 C6 1_555 1_555
C7 C2 1_555 1_555
C8 C7 1_555 1_555
H5 C8 1_555 1_555
C9 N1 1_555 1_555
C10 C9 1_555 1_555
H6 C10 1_555 1_555
H7 C10 1_555 1_555
C11 C9 1_555 1_555
H8 C11 1_555 1_555
H9 C11 1_555 1_555
C12 C8 1_555 1_555
H10 C12 1_555 1_555
H11 C12 1_555 1_555
C13 C12 1_555 1_555
H12 C13 1_555 1_555
H13 C13 1_555 1_555
C14 C13 1_555 1_555
C15 C14 1_555 1_555
H14 C15 1_555 1_555
C16 C15 1_555 1_555
H15 C16 1_555 1_555
C17 C16 1_555 1_555
H16 C17 1_555 1_555
C18 C17 1_555 1_555
H17 C18 1_555 1_555
C19 C14 1_555 1_555
H18 C19 1_555 1_555
Cl2 C24 1_555 1_555
O2 C20 1_555 1_555
N2 H19 1_555 1_555
C20 N2 1_555 1_555
C21 C20 1_555 1_555
C22 C21 1_555 1_555
H20 C22 1_555 1_555
C23 C22 1_555 1_555
H21 C23 1_555 1_555
C24 C23 1_555 1_555
C25 C24 1_555 1_555
H22 C25 1_555 1_555
C26 C21 1_555 1_555
C27 C26 1_555 1_555
H23 C27 1_555 1_555
C28 N2 1_555 1_555
C29 C28 1_555 1_555
H24 C29 1_555 1_555
H25 C29 1_555 1_555
C30 C28 1_555 1_555
H26 C30 1_555 1_555
H27 C30 1_555 1_555
C31 C27 1_555 1_555
H28 C31 1_555 1_555
H29 C31 1_555 1_555
C32 C31 1_555 1_555
H30 C32 1_555 1_555
H31 C32 1_555 1_555
C33 C32 1_555 1_555
C34 C33 1_555 1_555
H32 C34 1_555 1_555
C35 C34 1_555 1_555
H33 C35 1_555 1_555
C36 C35 1_555 1_555
H34 C36 1_555 1_555
C37 C36 1_555 1_555
H35 C37 1_555 1_555
C38 C33 1_555 1_555
H36 C38 1_555 1_555
Cl3 C41 1_555 1_555
Cl4 C41 1_555 1_555
Cl5 C41 1_555 1_555
C41 H42 1_555 1_555
C6 C7 1_555 1_555
C8 C9 1_555 1_555
C10 C11 1_555 1_555
C18 C19 1_555 1_555
C25 C26 1_555 1_555
C27 C28 1_555 1_555
C29 C30 1_555 1_555
C37 C38 1_555 1_555

#END
