
#######################################################################
#
#                 Cambridge Crystallographic Data Centre
#                                CCDC 
#
#######################################################################
#
# If this CIF has been generated from an entry in the Cambridge 
# Structural Database, then it will include bibliographic, chemical, 
# crystal, experimental, refinement or atomic coordinate data resulting 
# from the CCDC's data processing and validation procedures.
#
#######################################################################

data_CEYQII
_chemical_formula_moiety         '2(C7 H7 N2 1+),C7 H4 O6 S1 2-'
_chemical_name_systematic        
'bis(1H-1,3-Benzimidazol-3-ium) 2-hydroxy-5-sulfonatobenzoate'
_symmetry_cell_setting           monoclinic
_symmetry_space_group_name_H-M   'P 21/c'
_symmetry_Int_Tables_number      14
_space_group_name_Hall           '-P 2ybc'
loop_
_symmetry_equiv_pos_site_id
_symmetry_equiv_pos_as_xyz
1 x,y,z
2 -x,1/2+y,1/2-z
3 -x,-y,-z
4 x,1/2-y,1/2+z
_cell_length_a                   21.4632(18)
_cell_length_b                   5.7527(5)
_cell_length_c                   18.1385(15)
_cell_angle_alpha                90
_cell_angle_beta                 114.205(6)
_cell_angle_gamma                90
_cell_volume                     2042.69
_cell_formula_units_Z            4
loop_
_atom_site_label
_atom_site_type_symbol
_atom_site_fract_x
_atom_site_fract_y
_atom_site_fract_z
S1 S 0.66463(5) 0.00361(18) 0.26457(6)
O1 O 0.89546(14) 0.0136(5) 0.58537(16)
H1 H 0.885(2) 0.146(7) 0.610(3)
O2 O 0.65477(13) -0.2363(4) 0.24064(16)
O3 O 0.68497(14) 0.1448(5) 0.21241(15)
O4 O 0.60672(12) 0.1027(4) 0.27569(14)
O5 O 0.74644(14) 0.5215(4) 0.53240(15)
O6 O 0.84529(14) 0.3778(5) 0.61832(16)
C1 C 0.8419(2) 0.0207(7) 0.5126(2)
C2 C 0.79247(18) 0.1925(6) 0.4915(2)
C3 C 0.73963(18) 0.1864(6) 0.4146(2)
H2 H 0.7077 0.3059 0.3989
C4 C 0.73306(18) 0.0083(6) 0.3606(2)
C5 C 0.7939(2) 0.3783(7) 0.5495(2)
C6 C 0.8360(2) -0.1596(7) 0.4592(2)
H3 H 0.8687 -0.2769 0.4741
C7 C 0.7821(2) -0.1657(7) 0.3845(2)
H4 H 0.7784 -0.2882 0.3495
N1 N 0.37226(15) 0.1880(6) 0.07828(18)
H5 H 0.3306 0.1442 0.0524
N2 N 0.47679(16) 0.1943(6) 0.16578(18)
H6 H 0.5140 0.1564 0.2060
C8 C 0.4877(2) 0.7236(7) 0.0572(3)
H7 H 0.5161 0.8433 0.0553
C9 C 0.4200(3) 0.7195(7) 0.0001(3)
H8 H 0.4049 0.8350 -0.0392
C10 C 0.3755(2) 0.5500(7) 0.0004(2)
H9 H 0.3303 0.5476 -0.0372
C11 C 0.4016(2) 0.3817(6) 0.0601(2)
C12 C 0.4186(2) 0.0804(7) 0.1420(2)
H10 H 0.4112 -0.0536 0.1660
C13 C 0.5137(2) 0.5568(7) 0.1162(3)
H11 H 0.5589 0.5598 0.1540
C14 C 0.4689(2) 0.3843(7) 0.1161(2)
N3 N 0.16450(19) 0.2565(7) 0.2967(2)
C15 C 0.2242(2) 0.1619(8) 0.3150(2)
H12 H 0.2652 0.2223 0.3523
C16 C 0.1151(2) 0.1200(7) 0.2388(2)
C17 C 0.0452(2) 0.1428(8) 0.1997(3)
H13 H 0.0222 0.2676 0.2096
C18 C 0.0114(3) -0.0287(9) 0.1453(3)
H14 H -0.0360 -0.0231 0.1189
C19 C 0.1503(2) -0.0638(7) 0.2241(2)
C20 C 0.1158(2) -0.2353(7) 0.1678(3)
H15 H 0.1388 -0.3593 0.1573
C21 C 0.0468(3) -0.2117(8) 0.1290(3)
H16 H 0.0223 -0.3211 0.0902
N4 N 0.21841(18) -0.0323(6) 0.2732(2)
H17 H 0.2513 -0.1225 0.2763
H18 H 0.161(2) 0.401(7) 0.323(3)
loop_
_geom_bond_atom_site_label_1
_geom_bond_atom_site_label_2
_geom_bond_site_symmetry_1
_geom_bond_site_symmetry_2
S1 O2 1_555 1_555
O1 H1 1_555 1_555
O3 S1 1_555 1_555
O4 S1 1_555 1_555
O5 C5 1_555 1_555
O6 C5 1_555 1_555
C1 O1 1_555 1_555
C2 C1 1_555 1_555
C3 C2 1_555 1_555
H2 C3 1_555 1_555
C4 S1 1_555 1_555
C5 C2 1_555 1_555
C6 C1 1_555 1_555
H3 C6 1_555 1_555
C7 C4 1_555 1_555
H4 C7 1_555 1_555
N1 H5 1_555 1_555
N2 H6 1_555 1_555
C8 H7 1_555 1_555
C9 C8 1_555 1_555
H8 C9 1_555 1_555
C10 C9 1_555 1_555
H9 C10 1_555 1_555
C11 N1 1_555 1_555
C12 N1 1_555 1_555
H10 C12 1_555 1_555
C13 C8 1_555 1_555
H11 C13 1_555 1_555
C14 N2 1_555 1_555
N3 C15 1_555 1_555
C15 H12 1_555 1_555
C16 N3 1_555 1_555
C17 C16 1_555 1_555
H13 C17 1_555 1_555
C18 C17 1_555 1_555
H14 C18 1_555 1_555
C19 C16 1_555 1_555
C20 C19 1_555 1_555
H15 C20 1_555 1_555
C21 C18 1_555 1_555
H16 C21 1_555 1_555
N4 C15 1_555 1_555
H17 N4 1_555 1_555
H18 N3 1_555 1_555
C3 C4 1_555 1_555
C6 C7 1_555 1_555
N2 C12 1_555 1_555
C10 C11 1_555 1_555
C11 C14 1_555 1_555
C13 C14 1_555 1_555
C19 N4 1_555 1_555
C20 C21 1_555 1_555

#END
