
#######################################################################
#
#                 Cambridge Crystallographic Data Centre
#                                CCDC 
#
#######################################################################
#
# If this CIF has been generated from an entry in the Cambridge 
# Structural Database, then it will include bibliographic, chemical, 
# crystal, experimental, refinement or atomic coordinate data resulting 
# from the CCDC's data processing and validation procedures.
#
#######################################################################

data_CEYTIM
_chemical_name_common            4-estrone-N-(quinolin-8-yl)butanamide
_chemical_formula_moiety         'C31 H34 N2 O2'
_chemical_name_systematic        
4-[17-oxoestra-1,3,5(10)-trien-3-yl]-N-(quinolin-8-yl)butanamide
_symmetry_cell_setting           monoclinic
_symmetry_space_group_name_H-M   'C 2'
_symmetry_Int_Tables_number      5
_space_group_name_Hall           'C 2y'
loop_
_symmetry_equiv_pos_site_id
_symmetry_equiv_pos_as_xyz
1 x,y,z
2 -x,y,-z
3 1/2+x,1/2+y,z
4 1/2-x,1/2+y,-z
_cell_length_a                   33.630(4)
_cell_length_b                   7.9364(9)
_cell_length_c                   20.078(3)
_cell_angle_alpha                90
_cell_angle_beta                 115.091(4)
_cell_angle_gamma                90
_cell_volume                     4853.16
_cell_formula_units_Z            8
loop_
_atom_site_label
_atom_site_type_symbol
_atom_site_fract_x
_atom_site_fract_y
_atom_site_fract_z
C1 C 1.04252(17) 0.9236(7) 1.2261(3)
H1 H 1.052053 0.814136 1.240858
C2 C 1.05868(19) 1.0530(8) 1.2787(3)
H2 H 1.077876 1.028376 1.326991
C3 C 1.04584(17) 1.2148(7) 1.2579(3)
H3 H 1.056135 1.301905 1.291982
C4 C 1.01666(16) 1.2491(6) 1.1839(3)
C5 C 1.00227(17) 1.4125(7) 1.1585(3)
H4 H 1.011589 1.503894 1.190398
C6 C 0.97427(18) 1.4355(7) 1.0860(3)
H5 H 0.965316 1.544287 1.069049
C7 C 0.95844(17) 1.2992(7) 1.0357(3)
H6 H 0.939626 1.318737 0.986687
C8 C 0.97117(15) 1.1395(6) 1.0603(3)
C9 C 1.00137(15) 1.1100(6) 1.1351(3)
C10 C 0.92655(16) 0.9727(7) 0.9473(3)
C11 C 0.92111(16) 0.7894(6) 0.9224(3)
H7 H 0.945376 0.759691 0.910675
H8 H 0.923227 0.719285 0.963380
C12 C 0.87878(16) 0.7478(7) 0.8570(3)
H9 H 0.854318 0.763955 0.869896
H10 H 0.874904 0.823637 0.816837
C13 C 0.87888(16) 0.5686(7) 0.8325(3)
H11 H 0.887164 0.496536 0.875278
H12 H 0.901673 0.558588 0.815150
C14 C 0.83683(16) 0.5004(6) 0.7733(3)
C15 C 0.83566(15) 0.3332(6) 0.7528(3)
H13 H 0.861042 0.268784 0.774766
C16 C 0.79760(15) 0.2571(6) 0.7002(3)
C17 C 0.79974(16) 0.0726(6) 0.6845(3)
H14 H 0.815239 0.013101 0.730541
H15 H 0.816288 0.058759 0.655325
C18 C 0.75438(16) -0.0055(6) 0.6435(3)
H16 H 0.757098 -0.116403 0.625531
H17 H 0.740281 -0.017796 0.676521
C19 C 0.72671(14) 0.1076(5) 0.5791(2)
H18 H 0.744185 0.136240 0.552171
C20 C 0.68347(14) 0.0315(6) 0.5249(3)
H19 H 0.665347 0.014838 0.551837
C21 C 0.68348(16) -0.1375(6) 0.4866(3)
H20 H 0.705675 -0.138358 0.467749
H21 H 0.688466 -0.231811 0.519978
C22 C 0.63676(15) -0.1430(7) 0.4235(3)
H22 H 0.637371 -0.190790 0.379462
H23 H 0.617457 -0.210727 0.437371
C23 C 0.62111(15) 0.0387(6) 0.4103(3)
C24 C 0.65789(14) 0.1514(6) 0.4607(3)
C25 C 0.68277(16) 0.1960(7) 0.4143(3)
H24 H 0.664293 0.263176 0.372975
H25 H 0.690805 0.094403 0.397146
H26 H 0.708776 0.258437 0.443810
C26 C 0.64580(16) 0.3090(6) 0.4915(3)
H27 H 0.626287 0.278712 0.513913
H28 H 0.630419 0.387440 0.451809
C27 C 0.68739(15) 0.3945(6) 0.5495(3)
H29 H 0.704309 0.441763 0.525072
H30 H 0.678663 0.486465 0.572215
C28 C 0.71662(14) 0.2711(5) 0.6098(3)
H31 H 0.699680 0.238327 0.637208
C29 C 0.75917(14) 0.3533(6) 0.6661(2)
C30 C 0.76031(15) 0.5200(6) 0.6869(3)
H32 H 0.735061 0.585162 0.665039
C31 C 0.79839(15) 0.5933(6) 0.7401(3)
H33 H 0.797963 0.705400 0.753267
N1 N 1.01425(14) 0.9487(5) 1.1560(3)
N2 N 0.95733(12) 0.9939(5) 1.0162(2)
H34 H 0.970908 0.903171 1.037018
O1 O 0.90541(11) 1.0872(5) 0.9071(2)
O2 O 0.58568(11) 0.0851(5) 0.3648(2)
C32 C 0.61161(15) 0.0631(7) 0.6344(3)
H35 H 0.618872 0.171859 0.652778
C33 C 0.63406(16) -0.0721(7) 0.6802(3)
H36 H 0.655521 -0.052114 0.727487
C34 C 0.62395(16) -0.2323(7) 0.6546(3)
H37 H 0.638272 -0.323113 0.684353
C35 C 0.59173(15) -0.2599(6) 0.5827(3)
C36 C 0.57982(16) -0.4222(6) 0.5517(3)
H38 H 0.593281 -0.517324 0.578994
C37 C 0.54853(17) -0.4381(7) 0.4816(3)
H39 H 0.541172 -0.545436 0.461559
C38 C 0.52685(15) -0.2985(6) 0.4383(3)
H40 H 0.505454 -0.313947 0.390671
C39 C 0.53753(14) -0.1389(6) 0.4671(3)
C40 C 0.57083(14) -0.1166(6) 0.5406(3)
C41 C 0.48956(15) 0.0347(6) 0.3583(3)
C42 C 0.48105(15) 0.2183(6) 0.3385(3)
H41 H 0.508769 0.271626 0.347160
H42 H 0.470339 0.270104 0.371500
C43 C 0.44872(16) 0.2556(6) 0.2603(3)
H43 H 0.421198 0.198357 0.249617
H44 H 0.460187 0.214375 0.226454
C44 C 0.44090(17) 0.4436(6) 0.2502(3)
H45 H 0.428450 0.480372 0.283399
H46 H 0.469238 0.498163 0.265834
C45 C 0.41165(14) 0.5079(6) 0.1743(3)
C46 C 0.39435(14) 0.4080(6) 0.1110(3)
H47 H 0.401188 0.293815 0.114333
C47 C 0.36703(14) 0.4769(5) 0.0431(2)
H48 H 0.355922 0.407510 0.001882
C48 C 0.35600(13) 0.6460(5) 0.0354(2)
C49 C 0.32533(13) 0.7204(5) -0.0387(2)
H49 H 0.343648 0.750143 -0.064062
C50 C 0.29028(14) 0.5936(6) -0.0893(2)
H50 H 0.305041 0.502983 -0.102238
H51 H 0.275217 0.544825 -0.062053
C51 C 0.25600(15) 0.6734(6) -0.1605(2)
H52 H 0.269772 0.701631 -0.192804
H53 H 0.232768 0.592762 -0.185723
C52 C 0.23659(13) 0.8310(6) -0.1435(2)
C53 C 0.20572(14) 0.9376(6) -0.2074(2)
C54 C 0.21192(16) 1.1228(6) -0.1830(3)
H54 H 0.185171 1.167898 -0.182817
H55 H 0.219941 1.190435 -0.215675
C55 C 0.24943(16) 1.1215(6) -0.1043(3)
H56 H 0.268821 1.217233 -0.096547
H57 H 0.237838 1.123170 -0.067556
C56 C 0.27339(14) 0.9556(5) -0.1016(2)
H58 H 0.290165 0.971858 -0.130838
C57 C 0.30488(14) 0.8858(5) -0.0277(2)
H59 H 0.288147 0.860583 0.000881
C58 C 0.34253(14) 1.0048(5) 0.0178(3)
H60 H 0.362811 1.014487 -0.004879
H61 H 0.330943 1.115987 0.019169
C59 C 0.36659(17) 0.9366(6) 0.0958(3)
H62 H 0.394558 0.994115 0.119815
H63 H 0.349464 0.961918 0.123124
C60 C 0.37471(14) 0.7480(6) 0.0985(2)
C61 C 0.40129(14) 0.6776(6) 0.1655(3)
H64 H 0.412777 0.747303 0.206539
C62 C 0.20807(15) 0.7860(6) -0.1034(3)
H65 H 0.184483 0.713861 -0.134013
H66 H 0.196208 0.887214 -0.092750
H67 H 0.225641 0.728849 -0.058266
N3 N 0.51848(12) 0.0094(5) 0.4303(2)
H68 H 0.526007 0.099085 0.456789
N4 N 0.58074(12) 0.0446(5) 0.5665(2)
O3 O 0.47293(11) -0.0800(4) 0.31502(19)
O4 O 0.17896(10) 0.8888(4) -0.26675(18)
loop_
_geom_bond_atom_site_label_1
_geom_bond_atom_site_label_2
_geom_bond_site_symmetry_1
_geom_bond_site_symmetry_2
C1 H1 1_555 1_555
C2 C1 1_555 1_555
H2 C2 1_555 1_555
C3 C2 1_555 1_555
H3 C3 1_555 1_555
C4 C3 1_555 1_555
C5 C4 1_555 1_555
H4 C5 1_555 1_555
C6 C5 1_555 1_555
H5 C6 1_555 1_555
C7 C6 1_555 1_555
H6 C7 1_555 1_555
C8 C7 1_555 1_555
C9 C4 1_555 1_555
C10 C11 1_555 1_555
C11 H7 1_555 1_555
H8 C11 1_555 1_555
C12 C11 1_555 1_555
H9 C12 1_555 1_555
H10 C12 1_555 1_555
C13 C12 1_555 1_555
H11 C13 1_555 1_555
H12 C13 1_555 1_555
C14 C13 1_555 1_555
C15 C14 1_555 1_555
H13 C15 1_555 1_555
C16 C15 1_555 1_555
C17 C16 1_555 1_555
H14 C17 1_555 1_555
H15 C17 1_555 1_555
C18 C17 1_555 1_555
H16 C18 1_555 1_555
H17 C18 1_555 1_555
C19 C18 1_555 1_555
H18 C19 1_555 1_555
C20 C19 1_555 1_555
H19 C20 1_555 1_555
C21 C20 1_555 1_555
H20 C21 1_555 1_555
H21 C21 1_555 1_555
C22 C21 1_555 1_555
H22 C22 1_555 1_555
H23 C22 1_555 1_555
C23 C22 1_555 1_555
C24 C20 1_555 1_555
C25 C24 1_555 1_555
H24 C25 1_555 1_555
H25 C25 1_555 1_555
H26 C25 1_555 1_555
C26 C24 1_555 1_555
H27 C26 1_555 1_555
H28 C26 1_555 1_555
C27 C26 1_555 1_555
H29 C27 1_555 1_555
H30 C27 1_555 1_555
C28 C19 1_555 1_555
H31 C28 1_555 1_555
C29 C16 1_555 1_555
C30 C29 1_555 1_555
H32 C30 1_555 1_555
C31 C14 1_555 1_555
H33 C31 1_555 1_555
N1 C1 1_555 1_555
N2 C8 1_555 1_555
H34 N2 1_555 1_555
O1 C10 1_555 1_555
O2 C23 1_555 1_555
C32 H35 1_555 1_555
C33 C32 1_555 1_555
H36 C33 1_555 1_555
C34 C33 1_555 1_555
H37 C34 1_555 1_555
C35 C34 1_555 1_555
C36 C35 1_555 1_555
H38 C36 1_555 1_555
C37 C36 1_555 1_555
H39 C37 1_555 1_555
C38 C37 1_555 1_555
H40 C38 1_555 1_555
C39 C38 1_555 1_555
C40 C35 1_555 1_555
C41 C42 1_555 1_555
C42 H41 1_555 1_555
H42 C42 1_555 1_555
C43 C42 1_555 1_555
H43 C43 1_555 1_555
H44 C43 1_555 1_555
C44 C43 1_555 1_555
H45 C44 1_555 1_555
H46 C44 1_555 1_555
C45 C44 1_555 1_555
C46 C45 1_555 1_555
H47 C46 1_555 1_555
C47 C46 1_555 1_555
H48 C47 1_555 1_555
C48 C47 1_555 1_555
C49 C48 1_555 1_555
H49 C49 1_555 1_555
C50 C49 1_555 1_555
H50 C50 1_555 1_555
H51 C50 1_555 1_555
C51 C50 1_555 1_555
H52 C51 1_555 1_555
H53 C51 1_555 1_555
C52 C51 1_555 1_555
C53 C52 1_555 1_555
C54 C53 1_555 1_555
H54 C54 1_555 1_555
H55 C54 1_555 1_555
C55 C54 1_555 1_555
H56 C55 1_555 1_555
H57 C55 1_555 1_555
C56 C52 1_555 1_555
H58 C56 1_555 1_555
C57 C49 1_555 1_555
H59 C57 1_555 1_555
C58 C57 1_555 1_555
H60 C58 1_555 1_555
H61 C58 1_555 1_555
C59 C58 1_555 1_555
H62 C59 1_555 1_555
H63 C59 1_555 1_555
C60 C48 1_555 1_555
C61 C45 1_555 1_555
H64 C61 1_555 1_555
C62 C52 1_555 1_555
H65 C62 1_555 1_555
H66 C62 1_555 1_555
H67 C62 1_555 1_555
N3 C39 1_555 1_555
H68 N3 1_555 1_555
N4 C32 1_555 1_555
O3 C41 1_555 1_555
O4 C53 1_555 1_555
C8 C9 1_555 1_555
C9 N1 1_555 1_555
C10 N2 1_555 1_555
C23 C24 1_555 1_555
C27 C28 1_555 1_555
C28 C29 1_555 1_555
C30 C31 1_555 1_555
C39 C40 1_555 1_555
C40 N4 1_555 1_555
C41 N3 1_555 1_555
C55 C56 1_555 1_555
C56 C57 1_555 1_555
C59 C60 1_555 1_555
C60 C61 1_555 1_555

#END
