
#######################################################################
#
#                 Cambridge Crystallographic Data Centre
#                                CCDC 
#
#######################################################################
#
# If this CIF has been generated from an entry in the Cambridge 
# Structural Database, then it will include bibliographic, chemical, 
# crystal, experimental, refinement or atomic coordinate data resulting 
# from the CCDC's data processing and validation procedures.
#
#######################################################################

data_CEZBIU
_chemical_formula_moiety         'C21 H34 N2 O3 S1'
_chemical_name_systematic        
'4-Methylphenyl (2-cyclohexyl-1-(diisopropylamino)ethylidene)sulfamate'
_symmetry_cell_setting           monoclinic
_symmetry_space_group_name_H-M   'P 21/c'
_symmetry_Int_Tables_number      14
_space_group_name_Hall           '-P 2ybc'
loop_
_symmetry_equiv_pos_site_id
_symmetry_equiv_pos_as_xyz
1 x,y,z
2 -x,1/2+y,1/2-z
3 -x,-y,-z
4 x,1/2-y,1/2+z
_cell_length_a                   20.3610(4)
_cell_length_b                   8.32460(10)
_cell_length_c                   13.5659(2)
_cell_angle_alpha                90
_cell_angle_beta                 103.986(2)
_cell_angle_gamma                90
_cell_volume                     2231.22
_exptl_crystal_colour            colorless
_exptl_crystal_description       block
_cell_formula_units_Z            4
loop_
_atom_site_label
_atom_site_type_symbol
_atom_site_fract_x
_atom_site_fract_y
_atom_site_fract_z
S1 S 0.24908(2) 0.59447(5) 0.83889(3)
C1 C 0.38686(8) 0.77205(18) 1.09458(12)
H1 H 0.3943 0.8883 1.1122
C2 C 0.52695(9) 0.6465(2) 1.15018(14)
H2 H 0.5195 0.5315 1.1324
H3 H 0.5762 0.6636 1.1770
C3 C 0.42553(8) 0.7307(2) 1.01420(13)
H4 H 0.4151 0.6188 0.9910
H5 H 0.4104 0.8025 0.9549
C4 C 0.50190(9) 0.7485(2) 1.05557(14)
H6 H 0.5253 0.7153 1.0028
H7 H 0.5130 0.8627 1.0722
O1 O 0.21031(8) 0.58898(17) 0.73587(10)
C5 C 0.25002(8) 1.09710(19) 0.87312(12)
H8 H 0.2523 1.2110 0.8971
C6 C 0.28407(8) 1.08882(18) 1.06348(11)
H9 H 0.2978 1.0105 1.1206
C7 C 0.14322(9) 0.5820(2) 0.91687(15)
C8 C 0.27795(7) 0.83882(17) 0.96156(11)
O2 O 0.20474(6) 0.51106(13) 0.90945(10)
N1 N 0.25615(7) 0.77689(16) 0.86935(10)
O3 O 0.30949(7) 0.50070(14) 0.86380(12)
C9 C 0.31003(8) 0.74354(18) 1.05615(11)
H10 H 0.3020 0.6277 1.0415
H11 H 0.2876 0.7726 1.1108
C10 C 0.41352(8) 0.6734(2) 1.19108(12)
H12 H 0.3908 0.7092 1.2441
H13 H 0.4021 0.5589 1.1765
N2 N 0.27242(6) 0.99732(14) 0.96665(9)
C11 C 0.17649(9) 1.0691(2) 0.81637(13)
H14 H 0.1614 1.1571 0.7682
H15 H 0.1480 1.0651 0.8651
H16 H 0.1729 0.9671 0.7793
C12 C 0.34142(9) 1.2099(2) 1.07208(13)
H17 H 0.3817 1.1551 1.0612
H18 H 0.3519 1.2584 1.1399
H19 H 0.3275 1.2940 1.0207
C13 C 0.13907(10) 0.6390(3) 1.00983(16)
H20 H 0.1774 0.6362 1.0659
C14 C 0.07810(11) 0.7009(3) 1.02097(19)
H21 H 0.0750 0.7411 1.0852
C15 C 0.08808(11) 0.5841(3) 0.83513(19)
H22 H 0.0912 0.5437 0.7709
C16 C 0.49003(9) 0.6898(2) 1.23133(13)
H23 H 0.5012 0.8017 1.2540
H24 H 0.5054 0.6183 1.2907
C17 C 0.21755(9) 1.1659(2) 1.07167(13)
H25 H 0.2050 1.2504 1.0202
H26 H 0.2230 1.2128 1.1395
H27 H 0.1819 1.0841 1.0606
C18 C 0.30003(10) 1.0851(2) 0.80591(13)
H28 H 0.2892 0.9908 0.7617
H29 H 0.3461 1.0747 0.8487
H30 H 0.2970 1.1821 0.7641
C19 C 0.02180(11) 0.7053(3) 0.9405(2)
C20 C 0.02805(12) 0.6463(4) 0.8486(2)
H31 H -0.0103 0.6485 0.7925
C21 C -0.04505(13) 0.7713(4) 0.9548(3)
H32 H -0.0637 0.8476 0.9002
H33 H -0.0374 0.8261 1.0206
H34 H -0.0770 0.6827 0.9529
loop_
_geom_bond_atom_site_label_1
_geom_bond_atom_site_label_2
_geom_bond_site_symmetry_1
_geom_bond_site_symmetry_2
S1 O1 1_555 1_555
C1 H1 1_555 1_555
C2 H2 1_555 1_555
H3 C2 1_555 1_555
C3 C1 1_555 1_555
H4 C3 1_555 1_555
H5 C3 1_555 1_555
C4 C2 1_555 1_555
H6 C4 1_555 1_555
H7 C4 1_555 1_555
C5 H8 1_555 1_555
C6 H9 1_555 1_555
C7 O2 1_555 1_555
C8 N1 1_555 1_555
O2 S1 1_555 1_555
N1 S1 1_555 1_555
O3 S1 1_555 1_555
C9 C1 1_555 1_555
H10 C9 1_555 1_555
H11 C9 1_555 1_555
C10 C1 1_555 1_555
H12 C10 1_555 1_555
H13 C10 1_555 1_555
N2 C5 1_555 1_555
C11 C5 1_555 1_555
H14 C11 1_555 1_555
H15 C11 1_555 1_555
H16 C11 1_555 1_555
C12 C6 1_555 1_555
H17 C12 1_555 1_555
H18 C12 1_555 1_555
H19 C12 1_555 1_555
C13 C7 1_555 1_555
H20 C13 1_555 1_555
C14 C13 1_555 1_555
H21 C14 1_555 1_555
C15 C7 1_555 1_555
H22 C15 1_555 1_555
C16 C2 1_555 1_555
H23 C16 1_555 1_555
H24 C16 1_555 1_555
C17 C6 1_555 1_555
H25 C17 1_555 1_555
H26 C17 1_555 1_555
H27 C17 1_555 1_555
C18 C5 1_555 1_555
H28 C18 1_555 1_555
H29 C18 1_555 1_555
H30 C18 1_555 1_555
C19 C14 1_555 1_555
C20 C15 1_555 1_555
H31 C20 1_555 1_555
C21 C19 1_555 1_555
H32 C21 1_555 1_555
H33 C21 1_555 1_555
H34 C21 1_555 1_555
C3 C4 1_555 1_555
C6 N2 1_555 1_555
C8 C9 1_555 1_555
C8 N2 1_555 1_555
C10 C16 1_555 1_555
C19 C20 1_555 1_555

#END
