
#######################################################################
#
#                 Cambridge Crystallographic Data Centre
#                                CCDC 
#
#######################################################################
#
# If this CIF has been generated from an entry in the Cambridge 
# Structural Database, then it will include bibliographic, chemical, 
# crystal, experimental, refinement or atomic coordinate data resulting 
# from the CCDC's data processing and validation procedures.
#
#######################################################################

data_CEZBOA
_chemical_formula_moiety         'C19 H32 N2 O3 S1'
_chemical_name_systematic        
'4-Methylphenyl (1-(diisopropylamino)-3,3-dimethylbutylidene)sulfamate'
_symmetry_cell_setting           monoclinic
_symmetry_space_group_name_H-M   'P 21/c'
_symmetry_Int_Tables_number      14
_space_group_name_Hall           '-P 2ybc'
loop_
_symmetry_equiv_pos_site_id
_symmetry_equiv_pos_as_xyz
1 x,y,z
2 -x,1/2+y,1/2-z
3 -x,-y,-z
4 x,1/2-y,1/2+z
_cell_length_a                   16.662(3)
_cell_length_b                   8.3137(2)
_cell_length_c                   14.9237(15)
_cell_angle_alpha                90
_cell_angle_beta                 93.375(17)
_cell_angle_gamma                90
_cell_volume                     2063.69
_exptl_crystal_colour            colorless
_exptl_crystal_description       block
_cell_formula_units_Z            4
loop_
_atom_site_label
_atom_site_type_symbol
_atom_site_fract_x
_atom_site_fract_y
_atom_site_fract_z
S1 S -0.24838(3) 0.31512(5) -0.57570(3)
O1 O -0.30214(8) 0.31658(17) -0.65410(8)
O2 O -0.22640(9) 0.16022(15) -0.54079(9)
O3 O -0.16602(8) 0.39937(15) -0.60350(8)
N1 N -0.27856(8) 0.56605(15) -0.37189(9)
N2 N -0.27045(9) 0.44658(16) -0.50662(9)
C1 C -0.43548(12) 0.2291(3) -0.49963(14)
H1 H -0.4927 0.2021 -0.5080
H2 H -0.4032 0.1410 -0.5222
H3 H -0.4247 0.3279 -0.5327
C2 C -0.46125(12) 0.3956(2) -0.36520(16)
H4 H -0.5188 0.3766 -0.3785
H5 H -0.4453 0.4949 -0.3947
H6 H -0.4505 0.4058 -0.3002
C3 C -0.43454(12) 0.1028(2) -0.34848(14)
H7 H -0.4921 0.0803 -0.3586
H8 H -0.4216 0.1188 -0.2842
H9 H -0.4035 0.0118 -0.3698
C4 C -0.41334(10) 0.2547(2) -0.39975(12)
C5 C -0.32066(10) 0.2797(2) -0.38290(12)
C6 C -0.28756(9) 0.43241(19) -0.42130(11)
C7 C -0.24830(11) 0.7187(2) -0.41142(12)
H10 H -0.2468 0.7994 -0.3617
C8 C -0.30642(13) 0.7858(2) -0.48410(13)
H11 H -0.3609 0.7861 -0.4628
H12 H -0.3051 0.7187 -0.5380
H13 H -0.2907 0.8960 -0.4985
C9 C -0.16217(12) 0.7063(3) -0.44010(15)
H14 H -0.1284 0.6552 -0.3922
H15 H -0.1416 0.8143 -0.4517
H16 H -0.1612 0.6415 -0.4949
C10 C -0.29007(11) 0.5737(2) -0.27364(11)
H17 H -0.3135 0.4686 -0.2556
C11 C -0.20906(13) 0.5925(2) -0.22190(12)
H18 H -0.1724 0.5082 -0.2403
H19 H -0.2163 0.5833 -0.1574
H20 H -0.1864 0.6983 -0.2347
C12 C -0.34867(12) 0.7059(2) -0.24978(13)
H21 H -0.3960 0.7028 -0.2919
H22 H -0.3223 0.8109 -0.2536
H23 H -0.3653 0.6890 -0.1886
C13 C -0.12890(11) 0.3368(2) -0.67842(12)
C14 C -0.15544(10) 0.3856(2) -0.76346(12)
H24 H -0.2007 0.4546 -0.7719
C15 C -0.11499(11) 0.3323(2) -0.83653(12)
H25 H -0.1332 0.3647 -0.8953
C16 C -0.04836(11) 0.2325(2) -0.82535(12)
C17 C -0.02369(12) 0.1851(2) -0.73884(13)
H26 H 0.0216 0.1162 -0.7300
C18 C -0.06357(11) 0.2361(2) -0.66522(12)
H27 H -0.0462 0.2022 -0.6065
C19 C -0.00413(14) 0.1778(3) -0.90515(14)
H28 H 0.0366 0.0982 -0.8858
H29 H 0.0220 0.2704 -0.9318
H30 H -0.0423 0.1294 -0.9498
H31 H -0.2945(10) 0.190(2) -0.4101(11)
H32 H -0.3081(11) 0.274(2) -0.3213(13)
loop_
_geom_bond_atom_site_label_1
_geom_bond_atom_site_label_2
_geom_bond_site_symmetry_1
_geom_bond_site_symmetry_2
S1 O1 1_555 1_555
O2 S1 1_555 1_555
O3 S1 1_555 1_555
N1 C6 1_555 1_555
N2 S1 1_555 1_555
C1 H1 1_555 1_555
H2 C1 1_555 1_555
H3 C1 1_555 1_555
C2 H4 1_555 1_555
H5 C2 1_555 1_555
H6 C2 1_555 1_555
C3 H7 1_555 1_555
H8 C3 1_555 1_555
H9 C3 1_555 1_555
C4 C1 1_555 1_555
C5 C4 1_555 1_555
C6 N2 1_555 1_555
C7 N1 1_555 1_555
H10 C7 1_555 1_555
C8 C7 1_555 1_555
H11 C8 1_555 1_555
H12 C8 1_555 1_555
H13 C8 1_555 1_555
C9 C7 1_555 1_555
H14 C9 1_555 1_555
H15 C9 1_555 1_555
H16 C9 1_555 1_555
C10 N1 1_555 1_555
H17 C10 1_555 1_555
C11 C10 1_555 1_555
H18 C11 1_555 1_555
H19 C11 1_555 1_555
H20 C11 1_555 1_555
C12 C10 1_555 1_555
H21 C12 1_555 1_555
H22 C12 1_555 1_555
H23 C12 1_555 1_555
C13 O3 1_555 1_555
C14 C13 1_555 1_555
H24 C14 1_555 1_555
C15 C14 1_555 1_555
H25 C15 1_555 1_555
C16 C15 1_555 1_555
C17 C16 1_555 1_555
H26 C17 1_555 1_555
C18 C13 1_555 1_555
H27 C18 1_555 1_555
C19 C16 1_555 1_555
H28 C19 1_555 1_555
H29 C19 1_555 1_555
H30 C19 1_555 1_555
H31 C5 1_555 1_555
H32 C5 1_555 1_555
C2 C4 1_555 1_555
C3 C4 1_555 1_555
C5 C6 1_555 1_555
C17 C18 1_555 1_555

#END
