
#######################################################################
#
#                 Cambridge Crystallographic Data Centre
#                                CCDC 
#
#######################################################################
#
# If this CIF has been generated from an entry in the Cambridge 
# Structural Database, then it will include bibliographic, chemical, 
# crystal, experimental, refinement or atomic coordinate data resulting 
# from the CCDC's data processing and validation procedures.
#
#######################################################################

data_CEZNUR
_chemical_formula_moiety         'C22 H21 N1 O1'
_chemical_name_systematic        
(2RS,3RS)-anti-3-Hydroxy-3-(mesityl)-2-(2-naphthyl)propanenitrile
_symmetry_cell_setting           orthorhombic
_symmetry_space_group_name_H-M   'P b c a'
_symmetry_Int_Tables_number      61
_space_group_name_Hall           '-P 2ac 2ab'
loop_
_symmetry_equiv_pos_site_id
_symmetry_equiv_pos_as_xyz
1 x,y,z
2 1/2-x,-y,1/2+z
3 -x,1/2+y,1/2-z
4 1/2+x,1/2-y,-z
5 -x,-y,-z
6 1/2+x,y,1/2-z
7 x,1/2-y,1/2+z
8 1/2-x,1/2+y,z
_cell_length_a                   7.5969(3)
_cell_length_b                   19.9937(8)
_cell_length_c                   22.450(7)
_cell_angle_alpha                90
_cell_angle_beta                 90
_cell_angle_gamma                90
_cell_volume                     3409.93
_exptl_crystal_colour            colorless
_exptl_crystal_description       plate
_chemical_melting_point          '148.3-150.8 deg.C'
_cell_formula_units_Z            8
_exptl_crystal_recrystallization_method dichloromethane/hexane
loop_
_atom_site_label
_atom_site_type_symbol
_atom_site_fract_x
_atom_site_fract_y
_atom_site_fract_z
O1 O -0.18104(18) 0.24167(6) 0.63907(5)
N1 N 0.0582(2) 0.26228(8) 0.77024(8)
C1 C -0.0784(2) 0.32148(9) 0.56515(7)
C2 C -0.0308(2) 0.27316(8) 0.52212(7)
C3 C -0.0099(2) 0.29351(9) 0.46333(7)
H1 H 0.0244 0.2612 0.4346
C4 C -0.0367(2) 0.35888(9) 0.44484(8)
C5 C -0.0883(2) 0.40508(9) 0.48758(7)
H2 H -0.1112 0.4499 0.4758
C6 C -0.1075(2) 0.38766(9) 0.54731(7)
C7 C -0.0017(2) 0.20028(8) 0.53580(7)
H3 H -0.1154 0.1784 0.5423
H4 H 0.0706 0.1961 0.5718
H5 H 0.0589 0.1790 0.5023
C8 C -0.0069(3) 0.37873(9) 0.38116(7)
H6 H 0.1194 0.3849 0.3742
H7 H -0.0691 0.4207 0.3729
H8 H -0.0517 0.3436 0.3548
C9 C -0.1551(2) 0.44265(9) 0.59077(7)
H9 H -0.0538 0.4522 0.6165
H10 H -0.2549 0.4283 0.6153
H11 H -0.1873 0.4831 0.5687
C10 C -0.0897(2) 0.30333(9) 0.63056(7)
H12 H -0.1561 0.3394 0.6517
C11 C 0.0997(2) 0.29795(9) 0.65921(7)
H13 H 0.1658 0.2621 0.6376
C12 C 0.0786(2) 0.27674(9) 0.72143(9)
C13 C 0.2051(2) 0.36258(9) 0.65442(8)
C14 C 0.2080(2) 0.40879(9) 0.69912(8)
H14 H 0.1509 0.3992 0.7358
C15 C 0.2958(2) 0.47158(9) 0.69160(7)
C16 C 0.2978(2) 0.52010(9) 0.73703(8)
H15 H 0.2428 0.5109 0.7742
C17 C 0.3786(3) 0.58044(10) 0.72788(8)
H16 H 0.3784 0.6130 0.7587
C18 C 0.4621(2) 0.59484(10) 0.67334(8)
H17 H 0.5187 0.6368 0.6678
C19 C 0.4621(2) 0.54896(9) 0.62856(8)
H18 H 0.5179 0.5592 0.5918
C20 C 0.3788(2) 0.48556(9) 0.63640(8)
C21 C 0.3756(2) 0.43643(9) 0.59132(8)
H19 H 0.4317 0.4451 0.5543
C22 C 0.2930(2) 0.37650(9) 0.60018(8)
H20 H 0.2946 0.3437 0.5695
H21 H -0.267(3) 0.2459(11) 0.6656(10)
loop_
_geom_bond_atom_site_label_1
_geom_bond_atom_site_label_2
_geom_bond_site_symmetry_1
_geom_bond_site_symmetry_2
O1 C10 1_555 1_555
N1 C12 1_555 1_555
C1 C2 1_555 1_555
C2 C3 1_555 1_555
C3 H1 1_555 1_555
C4 C3 1_555 1_555
C5 C4 1_555 1_555
H2 C5 1_555 1_555
C6 C1 1_555 1_555
C7 C2 1_555 1_555
H3 C7 1_555 1_555
H4 C7 1_555 1_555
H5 C7 1_555 1_555
C8 C4 1_555 1_555
H6 C8 1_555 1_555
H7 C8 1_555 1_555
H8 C8 1_555 1_555
C9 C6 1_555 1_555
H9 C9 1_555 1_555
H10 C9 1_555 1_555
H11 C9 1_555 1_555
C10 C1 1_555 1_555
H12 C10 1_555 1_555
C11 C10 1_555 1_555
H13 C11 1_555 1_555
C12 C11 1_555 1_555
C13 C11 1_555 1_555
C14 C13 1_555 1_555
H14 C14 1_555 1_555
C15 C14 1_555 1_555
C16 C15 1_555 1_555
H15 C16 1_555 1_555
C17 C16 1_555 1_555
H16 C17 1_555 1_555
C18 C17 1_555 1_555
H17 C18 1_555 1_555
C19 C18 1_555 1_555
H18 C19 1_555 1_555
C20 C15 1_555 1_555
C21 C20 1_555 1_555
H19 C21 1_555 1_555
C22 C13 1_555 1_555
H20 C22 1_555 1_555
H21 O1 1_555 1_555
C5 C6 1_555 1_555
C19 C20 1_555 1_555
C21 C22 1_555 1_555

#END
