
#######################################################################
#
#                 Cambridge Crystallographic Data Centre
#                                CCDC 
#
#######################################################################
#
# If this CIF has been generated from an entry in the Cambridge 
# Structural Database, then it will include bibliographic, chemical, 
# crystal, experimental, refinement or atomic coordinate data resulting 
# from the CCDC's data processing and validation procedures.
#
#######################################################################

data_CIBJOO
_chemical_formula_moiety         'C18 H16 O3'
_chemical_name_systematic        
5-(4-Hydroxyphenyl)-3-methylene-4-(4-methylphenyl)dihydrofuran-2(3H)-one
_symmetry_cell_setting           monoclinic
_symmetry_space_group_name_H-M   'P 21/n'
_symmetry_Int_Tables_number      14
_space_group_name_Hall           '-P 2yn'
loop_
_symmetry_equiv_pos_site_id
_symmetry_equiv_pos_as_xyz
1 x,y,z
2 1/2-x,1/2+y,1/2-z
3 -x,-y,-z
4 1/2+x,1/2-y,1/2+z
_cell_length_a                   11.2856(4)
_cell_length_b                   9.9567(3)
_cell_length_c                   13.2219(5)
_cell_angle_alpha                90
_cell_angle_beta                 97.7110(10)
_cell_angle_gamma                90
_cell_volume                     1472.28
_cell_formula_units_Z            4
loop_
_atom_site_label
_atom_site_type_symbol
_atom_site_fract_x
_atom_site_fract_y
_atom_site_fract_z
O1 O 0.52335(9) 0.31274(11) 0.52363(8)
O2 O 0.63220(10) 0.39943(11) 0.41079(8)
O3 O 0.36932(10) -0.20519(11) 0.75133(9)
H1 H 0.4037 -0.2658 0.7250
C1 C 0.61943(14) 0.37821(15) 0.49917(12)
C2 C 0.70073(13) 0.41426(15) 0.59309(11)
C3 C 0.65445(12) 0.34358(15) 0.68123(11)
H2 H 0.7001 0.2604 0.6955
C4 C 0.52435(13) 0.30570(15) 0.63506(11)
H3 H 0.4692 0.3733 0.6557
C5 C 0.79549(14) 0.49209(17) 0.59163(13)
H4 H 0.8134 0.5266 0.5301
H5 H 0.8442 0.5123 0.6521
C6 C 0.48382(12) 0.16927(15) 0.66367(11)
C7 C 0.39724(13) 0.15659(16) 0.72895(12)
H6 H 0.3630 0.2334 0.7527
C8 C 0.36132(13) 0.03152(17) 0.75906(12)
H7 H 0.3048 0.0247 0.8039
C9 C 0.41005(13) -0.08391(16) 0.72196(11)
C10 C 0.49667(13) -0.07260(16) 0.65680(12)
H8 H 0.5297 -0.1495 0.6321
C11 C 0.53363(13) 0.05278(15) 0.62882(11)
H9 H 0.5925 0.0595 0.5862
C12 C 0.65695(12) 0.42086(15) 0.78000(11)
C13 C 0.69951(13) 0.36136(16) 0.87305(12)
H10 H 0.7321 0.2755 0.8743
C14 C 0.69372(13) 0.42945(17) 0.96425(12)
H11 H 0.7233 0.3887 1.0258
C15 C 0.64446(13) 0.55732(17) 0.96464(12)
C16 C 0.60319(13) 0.61703(16) 0.87130(12)
H12 H 0.5709 0.7030 0.8700
C17 C 0.60959(13) 0.54991(16) 0.78012(12)
H13 H 0.5820 0.5916 0.7185
C18 C 0.63372(15) 0.63086(19) 1.06280(13)
H14 H 0.6471 0.5692 1.1190
H15 H 0.5551 0.6688 1.0596
H16 H 0.6922 0.7014 1.0722
loop_
_geom_bond_atom_site_label_1
_geom_bond_atom_site_label_2
_geom_bond_site_symmetry_1
_geom_bond_site_symmetry_2
O1 C1 1_555 1_555
O2 C1 1_555 1_555
O3 H1 1_555 1_555
C1 C2 1_555 1_555
C2 C3 1_555 1_555
C3 H2 1_555 1_555
C4 O1 1_555 1_555
H3 C4 1_555 1_555
C5 C2 1_555 1_555
H4 C5 1_555 1_555
H5 C5 1_555 1_555
C6 C4 1_555 1_555
C7 C6 1_555 1_555
H6 C7 1_555 1_555
C8 C7 1_555 1_555
H7 C8 1_555 1_555
C9 O3 1_555 1_555
C10 C9 1_555 1_555
H8 C10 1_555 1_555
C11 C6 1_555 1_555
H9 C11 1_555 1_555
C12 C3 1_555 1_555
C13 C12 1_555 1_555
H10 C13 1_555 1_555
C14 C13 1_555 1_555
H11 C14 1_555 1_555
C15 C14 1_555 1_555
C16 C15 1_555 1_555
H12 C16 1_555 1_555
C17 C12 1_555 1_555
H13 C17 1_555 1_555
C18 C15 1_555 1_555
H14 C18 1_555 1_555
H15 C18 1_555 1_555
H16 C18 1_555 1_555
C3 C4 1_555 1_555
C8 C9 1_555 1_555
C10 C11 1_555 1_555
C16 C17 1_555 1_555

#END
