
#######################################################################
#
#                 Cambridge Crystallographic Data Centre
#                                CCDC 
#
#######################################################################
#
# If this CIF has been generated from an entry in the Cambridge 
# Structural Database, then it will include bibliographic, chemical, 
# crystal, experimental, refinement or atomic coordinate data resulting 
# from the CCDC's data processing and validation procedures.
#
#######################################################################

data_CIBVOB
_chemical_formula_moiety         'C8 N12 O8 2-,2(C1 H9 N6 1+)'
_chemical_name_systematic        
"bis(1,2,3-Triaminoguanidin-2-ium) 4,4'-((5,5'-bi(1,2,4-oxadiazole))-3,3'-diyl)bis(1,2,5-oxadiazol-3-nitramide)"
_symmetry_cell_setting           monoclinic
_symmetry_space_group_name_H-M   'P 21/c'
_symmetry_Int_Tables_number      14
_space_group_name_Hall           '-P 2ybc'
loop_
_symmetry_equiv_pos_site_id
_symmetry_equiv_pos_as_xyz
1 x,y,z
2 -x,1/2+y,1/2-z
3 -x,-y,-z
4 x,1/2-y,1/2+z
_cell_length_a                   6.6771(5)
_cell_length_b                   7.9630(7)
_cell_length_c                   21.7734(19)
_cell_angle_alpha                90
_cell_angle_beta                 94.039(3)
_cell_angle_gamma                90
_cell_volume                     1154.81
_exptl_crystal_description       block
_chemical_melting_point          '182.7 deg.C (dec.)'
_cell_formula_units_Z            2
_chemical_properties_physical    explosive
loop_
_atom_site_label
_atom_site_type_symbol
_atom_site_fract_x
_atom_site_fract_y
_atom_site_fract_z
C1 C 0.3711(3) 0.8840(3) 0.04941(10)
C2 C 0.0947(3) 0.9774(3) 0.01669(10)
C3 C 0.7305(3) 0.7852(3) 0.09463(11)
C4 C 0.5573(3) 0.7866(3) 0.05042(10)
N1 N 0.3315(3) 0.9926(3) 0.09164(9)
N2 N 0.2264(3) 0.8703(3) 0.00080(8)
N3 N 0.8639(3) 0.6812(3) 0.07368(9)
N4 N 0.5882(3) 0.6875(3) 0.00481(9)
N5 N 0.7327(3) 0.8827(3) 0.14665(8)
N6 N 0.9009(3) 0.8746(3) 0.18358(9)
O1 O 0.1420(2) 1.0573(2) 0.06998(8)
O2 O 0.7745(2) 0.6194(2) 0.01764(8)
O3 O 1.0497(2) 0.7923(2) 0.17201(8)
O4 O 0.9013(3) 0.9610(3) 0.23210(8)
C1B C -0.3711(3) 1.1160(3) -0.04941(10)
C2B C -0.0947(3) 1.0226(3) -0.01669(10)
C3B C -0.7305(3) 1.2148(3) -0.09463(11)
C4B C -0.5573(3) 1.2134(3) -0.05042(10)
N1B N -0.3315(3) 1.0074(3) -0.09164(9)
N2B N -0.2264(3) 1.1297(3) -0.00080(8)
N3B N -0.8639(3) 1.3188(3) -0.07368(9)
N4B N -0.5882(3) 1.3125(3) -0.00481(9)
N5B N -0.7327(3) 1.1173(3) -0.14665(8)
N6B N -0.9009(3) 1.1254(3) -0.18358(9)
O1B O -0.1420(2) 0.9427(2) -0.06998(8)
O2B O -0.7745(2) 1.3806(2) -0.01764(8)
O3B O -1.0497(2) 1.2077(2) -0.17201(8)
O4B O -0.9013(3) 1.0390(3) -0.23210(8)
C5 C 0.5521(3) 0.4749(3) 0.17615(10)
N7 N 0.3709(3) 0.5454(3) 0.17179(10)
H1 H 0.342(4) 0.599(4) 0.2017(12)
N8 N 0.2255(3) 0.4727(3) 0.12928(11)
H2 H 0.133(4) 0.423(3) 0.1516(12)
H3 H 0.165(4) 0.553(4) 0.1117(13)
N9 N 0.6004(3) 0.3680(3) 0.13325(10)
H4 H 0.522(4) 0.345(3) 0.1045(12)
N10 N 0.7907(3) 0.2904(3) 0.13861(12)
H5 H 0.772(4) 0.186(4) 0.1499(13)
H6 H 0.829(4) 0.292(3) 0.1013(13)
N11 N 0.6833(3) 0.5166(3) 0.22201(9)
H7 H 0.793(4) 0.473(3) 0.2241(12)
N12 N 0.6182(3) 0.6239(3) 0.26815(10)
H8 H 0.618(4) 0.572(4) 0.3024(13)
H9 H 0.708(4) 0.707(4) 0.2714(13)
loop_
_geom_bond_atom_site_label_1
_geom_bond_atom_site_label_2
_geom_bond_site_symmetry_1
_geom_bond_site_symmetry_2
C1 C4 1_555 1_555
C2 N2 1_555 1_555
C3 C4 1_555 1_555
C4 N4 1_555 1_555
N1 C1 1_555 1_555
N2 C1 1_555 1_555
N3 C3 1_555 1_555
N4 O2 1_555 1_555
N5 C3 1_555 1_555
N6 N5 1_555 1_555
O1 C2 1_555 1_555
O2 N3 1_555 1_555
O3 N6 1_555 1_555
O4 N6 1_555 1_555
C5 N7 1_555 1_555
N7 H1 1_555 1_555
N8 N7 1_555 1_555
H2 N8 1_555 1_555
H3 N8 1_555 1_555
N9 C5 1_555 1_555
H4 N9 1_555 1_555
N10 N9 1_555 1_555
H5 N10 1_555 1_555
H6 N10 1_555 1_555
N11 C5 1_555 1_555
H7 N11 1_555 1_555
N12 N11 1_555 1_555
H8 N12 1_555 1_555
H9 N12 1_555 1_555
C1B C4B 1_555 1_555
C2B C2 1_555 1_555
C3B C4B 1_555 1_555
C4B N4B 1_555 1_555
N1B C1B 1_555 1_555
N2B C1B 1_555 1_555
N3B C3B 1_555 1_555
N4B O2B 1_555 1_555
N5B C3B 1_555 1_555
N6B N5B 1_555 1_555
O1B C2B 1_555 1_555
O2B N3B 1_555 1_555
O3B N6B 1_555 1_555
O4B N6B 1_555 1_555
N1 O1 1_555 1_555
C2B N2B 1_555 1_555
N1B O1B 1_555 1_555

#END
