
#######################################################################
#
#                 Cambridge Crystallographic Data Centre
#                                CCDC 
#
#######################################################################
#
# If this CIF has been generated from an entry in the Cambridge 
# Structural Database, then it will include bibliographic, chemical, 
# crystal, experimental, refinement or atomic coordinate data resulting 
# from the CCDC's data processing and validation procedures.
#
#######################################################################

data_CIBVIU
_chemical_formula_moiety         'C16 H14 S2'
_chemical_name_systematic        bis(benzylsulfanyl)ethyne
_symmetry_cell_setting           orthorhombic
_symmetry_space_group_name_H-M   'F d d 2'
_symmetry_Int_Tables_number      43
_space_group_name_Hall           'F 2 -2d'
loop_
_symmetry_equiv_pos_site_id
_symmetry_equiv_pos_as_xyz
1 x,y,z
2 -x,-y,z
3 1/4+x,1/4-y,1/4+z
4 1/4-x,1/4+y,1/4+z
5 x,1/2+y,1/2+z
6 -x,1/2-y,1/2+z
7 1/4+x,3/4-y,3/4+z
8 1/4-x,3/4+y,3/4+z
9 1/2+x,y,1/2+z
10 1/2-x,-y,1/2+z
11 3/4+x,1/4-y,3/4+z
12 3/4-x,1/4+y,3/4+z
13 1/2+x,1/2+y,z
14 1/2-x,1/2-y,z
15 3/4+x,3/4-y,1/4+z
16 3/4-x,3/4+y,1/4+z
_cell_length_a                   15.4912(6)
_cell_length_b                   32.2987(13)
_cell_length_c                   5.5092(2)
_cell_angle_alpha                90
_cell_angle_beta                 90
_cell_angle_gamma                90
_cell_volume                     2756.5
_exptl_crystal_colour            colorless
_exptl_crystal_description       block
_cell_formula_units_Z            8
loop_
_atom_site_label
_atom_site_type_symbol
_atom_site_fract_x
_atom_site_fract_y
_atom_site_fract_z
S1 S 1.254663(12) 1.180096(6) 1.97640(6)
C1 C 1.03820(5) 1.16158(3) 2.00747(14)
H1 H 1.0632 1.1434 2.1233
C2 C 1.08539(5) 1.17351(2) 1.80350(14)
C3 C 1.04787(6) 1.20022(3) 1.63556(14)
H2 H 1.0795 1.2084 1.4959
C4 C 0.95470(6) 1.17623(3) 2.04188(16)
H3 H 0.9228 1.1680 2.1810
C5 C 1.17569(5) 1.15801(3) 1.76466(17)
H4 H 1.1936 1.1647 1.5967
H5 H 1.1760 1.1275 1.7819
C6 C 1.24732(5) 1.23124(3) 1.92973(16)
C7 C 0.91776(6) 1.20293(3) 1.87320(17)
H6 H 0.8606 1.2128 1.8970
C8 C 0.96426(6) 1.21506(3) 1.67032(16)
H7 H 0.9393 1.2334 1.5554
S1M S 1.245337(12) 1.319904(6) 1.97640(6)
C1M C 1.46180(5) 1.33842(3) 2.00747(14)
H1M H 1.4368 1.3566 2.1233
C2M C 1.41461(5) 1.32649(2) 1.80350(14)
C3M C 1.45213(6) 1.29978(3) 1.63556(14)
H2M H 1.4205 1.2916 1.4959
C4M C 1.54530(6) 1.32377(3) 2.04188(16)
H3M H 1.5772 1.3320 2.1810
C5M C 1.32431(5) 1.34199(3) 1.76466(17)
H4M H 1.3064 1.3353 1.5967
H5M H 1.3240 1.3725 1.7819
C6M C 1.25268(5) 1.26876(3) 1.92973(16)
C7M C 1.58224(6) 1.29707(3) 1.87320(17)
H6M H 1.6394 1.2872 1.8970
C8M C 1.53574(6) 1.28494(3) 1.67032(16)
H7M H 1.5607 1.2666 1.5554
loop_
_geom_bond_atom_site_label_1
_geom_bond_atom_site_label_2
_geom_bond_site_symmetry_1
_geom_bond_site_symmetry_2
S1 C5 1_555 1_555
C1 H1 1_555 1_555
C2 C1 1_555 1_555
C3 C2 1_555 1_555
H2 C3 1_555 1_555
C4 C1 1_555 1_555
H3 C4 1_555 1_555
C5 C2 1_555 1_555
H4 C5 1_555 1_555
H5 C5 1_555 1_555
C6 S1 1_555 1_555
C7 C4 1_555 1_555
H6 C7 1_555 1_555
C8 C3 1_555 1_555
H7 C8 1_555 1_555
S1M C5M 1_555 1_555
C1M H1M 1_555 1_555
C2M C1M 1_555 1_555
C3M C2M 1_555 1_555
H2M C3M 1_555 1_555
C4M C1M 1_555 1_555
H3M C4M 1_555 1_555
C5M C2M 1_555 1_555
H4M C5M 1_555 1_555
H5M C5M 1_555 1_555
C6M C6 1_555 1_555
C7M C4M 1_555 1_555
H6M C7M 1_555 1_555
C8M C3M 1_555 1_555
H7M C8M 1_555 1_555
C7 C8 1_555 1_555
S1M C6M 1_555 1_555
C7M C8M 1_555 1_555

#END
