
#######################################################################
#
#                 Cambridge Crystallographic Data Centre
#                                CCDC 
#
#######################################################################
#
# If this CIF has been generated from an entry in the Cambridge 
# Structural Database, then it will include bibliographic, chemical, 
# crystal, experimental, refinement or atomic coordinate data resulting 
# from the CCDC's data processing and validation procedures.
#
#######################################################################

data_CICHUR
_chemical_formula_moiety         'C18 H34 N2 2+,C2 H6 O1,2(I1 1-)'
_chemical_name_systematic        
"N,N'-(5-t-Butyl-1,3-phenylene-bis(methylene))-bis(trimethylammonium) di-iodide ethanol clathrate"
_symmetry_cell_setting           monoclinic
_symmetry_space_group_name_H-M   'P 21/c'
_symmetry_Int_Tables_number      14
_space_group_name_Hall           '-P 2ybc'
loop_
_symmetry_equiv_pos_site_id
_symmetry_equiv_pos_as_xyz
1 x,y,z
2 -x,1/2+y,1/2-z
3 -x,-y,-z
4 x,1/2-y,1/2+z
_cell_length_a                   15.411(3)
_cell_length_b                   12.023(2)
_cell_length_c                   15.153(3)
_cell_angle_alpha                90
_cell_angle_beta                 111.20(2)
_cell_angle_gamma                90
_cell_volume                     2617.63
_exptl_crystal_colour            yellow
_cell_formula_units_Z            4
loop_
_atom_site_label
_atom_site_type_symbol
_atom_site_fract_x
_atom_site_fract_y
_atom_site_fract_z
I1 I 0.43030 -0.32642 0.35571
I2 I 0.01392 0.27657 0.49520
N1 N 0.33120 -0.02530 0.15900
N2 N -0.06340 0.08580 0.23210
C1 C 0.22270 -0.04170 0.25110
C2 C 0.14430 0.02500 0.22140
C3 C 0.11190 0.07160 0.28670
C4 C 0.16080 0.05500 0.38330
C5 C 0.24050 -0.01060 0.41570
C6 C 0.27020 -0.06010 0.34860
C7 C 0.25840 -0.09460 0.18110
C8 C 0.02700 0.14620 0.25630
C9 C 0.36030 -0.08880 0.08900
C10 C 0.29280 0.08630 0.11690
C11 C 0.41450 -0.00780 0.24620
C12 C -0.08240 0.00890 0.14840
C13 C -0.14000 0.17380 0.20940
C14 C -0.06780 0.01790 0.31180
C15 C 0.29120 -0.03000 0.52240
C16 C 0.23240 -0.10310 0.55750
C17 C 0.30270 0.07710 0.57690
C18 C 0.38710 -0.08430 0.54460
H1 H 0.10700 0.03800 0.14670
H2 H 0.13550 0.09230 0.43420
H3 H 0.33020 -0.11430 0.37100
H4 H 0.28900 -0.17380 0.20920
H5 H 0.20030 -0.10750 0.11760
H6 H 0.03320 0.20360 0.31310
H7 H 0.02660 0.19190 0.19480
H8 H 0.38980 -0.16800 0.11850
H9 H 0.41120 -0.04150 0.07100
H10 H 0.27230 0.13440 0.16630
H11 H 0.23280 0.07100 0.05380
H12 H 0.34440 0.13180 0.09860
H13 H 0.39520 0.03770 0.29770
H14 H 0.46630 0.03870 0.22890
H15 H 0.44280 -0.08770 0.27510
H16 H -0.08140 0.05680 0.08840
H17 H -0.14930 -0.03090 0.13100
H18 H -0.02850 -0.05360 0.16580
H19 H -0.20670 0.13320 0.19100
H20 H -0.13890 0.22340 0.15040
H21 H -0.12850 0.22670 0.27020
H22 H -0.05590 0.06990 0.37320
H23 H -0.01410 -0.04470 0.32770
H24 H -0.13490 -0.02200 0.29290
H25 H 0.16360 -0.06950 0.54260
H26 H 0.26640 -0.11490 0.63290
H27 H 0.23620 0.11720 0.56190
H28 H 0.34780 0.13110 0.55570
H29 H 0.33410 0.06060 0.65190
H30 H 0.43060 -0.03050 0.52120
H31 H 0.37960 -0.16370 0.50920
H32 H 0.41890 -0.09660 0.62020
C19 C 0.33110 0.16010 0.87580
C20 C 0.37390 0.21560 0.85540
O1 O 0.29510 0.05560 0.86130
loop_
_geom_bond_atom_site_label_1
_geom_bond_atom_site_label_2
_geom_bond_site_symmetry_1
_geom_bond_site_symmetry_2
N1 C7 1_555 1_555
N2 C8 1_555 1_555
C1 C2 1_555 1_555
C2 C3 1_555 1_555
C3 C4 1_555 1_555
C4 C5 1_555 1_555
C5 C6 1_555 1_555
C6 C1 1_555 1_555
C7 C1 1_555 1_555
C8 C3 1_555 1_555
C9 N1 1_555 1_555
C10 N1 1_555 1_555
C11 N1 1_555 1_555
C12 N2 1_555 1_555
C13 N2 1_555 1_555
C14 N2 1_555 1_555
C15 C5 1_555 1_555
C16 C15 1_555 1_555
C17 C15 1_555 1_555
C18 C15 1_555 1_555
H1 C2 1_555 1_555
H2 C4 1_555 1_555
H3 C6 1_555 1_555
H4 C7 1_555 1_555
H5 C7 1_555 1_555
H6 C8 1_555 1_555
H7 C8 1_555 1_555
H8 C9 1_555 1_555
H9 C9 1_555 1_555
H10 C10 1_555 1_555
H11 C10 1_555 1_555
H12 C10 1_555 1_555
H13 C11 1_555 1_555
H14 C11 1_555 1_555
H15 C11 1_555 1_555
H16 C12 1_555 1_555
H17 C12 1_555 1_555
H18 C12 1_555 1_555
H19 C13 1_555 1_555
H20 C13 1_555 1_555
H21 C13 1_555 1_555
H22 C14 1_555 1_555
H23 C14 1_555 1_555
H24 C14 1_555 1_555
H25 C16 1_555 1_555
H26 C16 1_555 1_555
H27 C17 1_555 1_555
H28 C17 1_555 1_555
H29 C17 1_555 1_555
H30 C18 1_555 1_555
H31 C18 1_555 1_555
H32 C18 1_555 1_555
C19 C20 1_555 1_555
O1 C19 1_555 1_555

#END
