
#######################################################################
#
#                 Cambridge Crystallographic Data Centre
#                                CCDC 
#
#######################################################################
#
# If this CIF has been generated from an entry in the Cambridge 
# Structural Database, then it will include bibliographic, chemical, 
# crystal, experimental, refinement or atomic coordinate data resulting 
# from the CCDC's data processing and validation procedures.
#
#######################################################################

data_CIDGUU
_chemical_formula_moiety         'C28 H18 S2'
_chemical_name_systematic        
1,1'-(buta-1,3-diyne-1,4-diyl)bis[2-(phenylsulfanyl)benzene]
_symmetry_cell_setting           monoclinic
_symmetry_space_group_name_H-M   'P 21/n'
_symmetry_Int_Tables_number      14
_space_group_name_Hall           '-P 2yn'
loop_
_symmetry_equiv_pos_site_id
_symmetry_equiv_pos_as_xyz
1 x,y,z
2 1/2-x,1/2+y,1/2-z
3 -x,-y,-z
4 1/2+x,1/2-y,1/2+z
_cell_length_a                   15.0631(7)
_cell_length_b                   9.5656(4)
_cell_length_c                   15.1377(7)
_cell_angle_alpha                90
_cell_angle_beta                 92.7400(10)
_cell_angle_gamma                90
_cell_volume                     2178.66
_exptl_crystal_colour            yellow
_exptl_crystal_description       block
_cell_formula_units_Z            4
loop_
_atom_site_label
_atom_site_type_symbol
_atom_site_fract_x
_atom_site_fract_y
_atom_site_fract_z
S1 S 1.24983(3) 0.88093(7) 0.22357(4)
S2 S 0.78017(4) 0.66608(9) 0.02232(5)
C1 C 1.21954(13) 0.8685(2) 0.04632(14)
C2 C 1.28659(13) 0.8756(2) 0.11447(13)
C3 C 0.68128(13) 0.6371(2) -0.04357(14)
C4 C 1.37520(13) 0.8781(2) 0.09230(14)
H1 H 1.4209 0.8845 0.1375
C5 C 1.38561(14) 0.7452(2) 0.31588(14)
H2 H 1.3582 0.6611 0.2954
C6 C 0.96614(13) 0.8582(2) 0.11532(14)
C7 C 1.12812(13) 0.8672(2) 0.06836(14)
C8 C 1.39020(14) 0.9962(2) 0.32075(14)
H3 H 1.3657 1.0844 0.3040
C9 C 1.35038(13) 0.8739(2) 0.28970(13)
C10 C 0.80128(13) 0.8378(2) 0.16450(14)
C11 C 0.73962(13) 0.7577(3) 0.11370(14)
C12 C 1.05235(13) 0.8646(2) 0.09018(14)
C13 C 1.50057(14) 0.8618(2) 0.40201(13)
H4 H 1.5521 0.8577 0.4406
C14 C 1.46097(15) 0.7403(2) 0.37206(15)
H5 H 1.4853 0.6525 0.3899
C15 C 0.89147(13) 0.8492(2) 0.13837(14)
C16 C 1.46593(15) 0.9892(2) 0.37636(14)
H6 H 1.4940 1.0728 0.3968
C17 C 1.39693(15) 0.8713(2) 0.00453(16)
H7 H 1.4576 0.8730 -0.0099
C18 C 1.24311(15) 0.8613(3) -0.04160(15)
H8 H 1.1981 0.8557 -0.0876
C19 C 1.33160(17) 0.8622(3) -0.06232(16)
H9 H 1.3473 0.8565 -0.1223
C20 C 0.65183(15) 0.7522(3) 0.13839(16)
H10 H 0.6095 0.6989 0.1042
C21 C 0.77348(15) 0.9077(3) 0.23917(15)
H11 H 0.8151 0.9609 0.2742
C22 C 0.64781(16) 0.5048(3) -0.05324(18)
H12 H 0.6761 0.4287 -0.0229
C23 C 0.62585(15) 0.8231(3) 0.21187(16)
H13 H 0.5656 0.8187 0.2277
C24 C 0.68621(16) 0.9006(3) 0.26286(16)
H14 H 0.6679 0.9486 0.3138
C25 C 0.64053(17) 0.7457(3) -0.08926(18)
H15 H 0.6644 0.8374 -0.0844
C26 C 0.56498(18) 0.7212(4) -0.14223(18)
H16 H 0.5363 0.7965 -0.1729
C27 C 0.53135(18) 0.5896(4) -0.15068(18)
H17 H 0.4791 0.5731 -0.1868
C28 C 0.57260(18) 0.4822(3) -0.1074(2)
H18 H 0.5496 0.3901 -0.1143
loop_
_geom_bond_atom_site_label_1
_geom_bond_atom_site_label_2
_geom_bond_site_symmetry_1
_geom_bond_site_symmetry_2
S1 C2 1_555 1_555
S2 C3 1_555 1_555
C1 C2 1_555 1_555
C2 C4 1_555 1_555
C3 C22 1_555 1_555
C4 H1 1_555 1_555
C5 H2 1_555 1_555
C6 C12 1_555 1_555
C7 C1 1_555 1_555
C8 H3 1_555 1_555
C9 S1 1_555 1_555
C10 C11 1_555 1_555
C11 S2 1_555 1_555
C12 C7 1_555 1_555
C13 H4 1_555 1_555
C14 C5 1_555 1_555
H5 C14 1_555 1_555
C15 C6 1_555 1_555
C16 C8 1_555 1_555
H6 C16 1_555 1_555
C17 C4 1_555 1_555
H7 C17 1_555 1_555
C18 C1 1_555 1_555
H8 C18 1_555 1_555
C19 C17 1_555 1_555
H9 C19 1_555 1_555
C20 C11 1_555 1_555
H10 C20 1_555 1_555
C21 C10 1_555 1_555
H11 C21 1_555 1_555
C22 H12 1_555 1_555
C23 C20 1_555 1_555
H13 C23 1_555 1_555
C24 C21 1_555 1_555
H14 C24 1_555 1_555
C25 C3 1_555 1_555
H15 C25 1_555 1_555
C26 C25 1_555 1_555
H16 C26 1_555 1_555
C27 C26 1_555 1_555
H17 C27 1_555 1_555
C28 C22 1_555 1_555
H18 C28 1_555 1_555
C5 C9 1_555 1_555
C8 C9 1_555 1_555
C10 C15 1_555 1_555
C13 C14 1_555 1_555
C13 C16 1_555 1_555
C18 C19 1_555 1_555
C23 C24 1_555 1_555
C27 C28 1_555 1_555

#END
