
#######################################################################
#
#                 Cambridge Crystallographic Data Centre
#                                CCDC 
#
#######################################################################
#
# If this CIF has been generated from an entry in the Cambridge 
# Structural Database, then it will include bibliographic, chemical, 
# crystal, experimental, refinement or atomic coordinate data resulting 
# from the CCDC's data processing and validation procedures.
#
#######################################################################

data_CIFNOX
_chemical_formula_moiety         'C21 H15 N1 O1'
_chemical_name_systematic        
([1,1'-biphenyl]-2-yl)(1H-indol-1-yl)methanone
_symmetry_cell_setting           monoclinic
_symmetry_space_group_name_H-M   'P 21/n'
_symmetry_Int_Tables_number      14
_space_group_name_Hall           '-P 2yn'
loop_
_symmetry_equiv_pos_site_id
_symmetry_equiv_pos_as_xyz
1 x,y,z
2 1/2-x,1/2+y,1/2-z
3 -x,-y,-z
4 1/2+x,1/2-y,1/2+z
_cell_length_a                   6.1377(2)
_cell_length_b                   13.3562(4)
_cell_length_c                   17.9907(6)
_cell_angle_alpha                90
_cell_angle_beta                 91.3660(10)
_cell_angle_gamma                90
_cell_volume                     1474.39
_exptl_crystal_colour            colorless
_exptl_crystal_description       block
_cell_formula_units_Z            4
loop_
_atom_site_label
_atom_site_type_symbol
_atom_site_fract_x
_atom_site_fract_y
_atom_site_fract_z
O1 O 0.42665(12) 0.95372(6) 0.42725(5)
N1 N 0.76367(14) 0.89372(7) 0.40084(5)
C1 C 0.96419(17) 0.89997(9) 0.36447(6)
H1 H 1.021110 0.958917 0.342643
C2 C 1.06306(18) 0.80987(8) 0.36528(6)
H2 H 1.199917 0.794712 0.344417
C3 C 0.92469(17) 0.74064(8) 0.40333(6)
C4 C 0.94676(18) 0.63950(9) 0.42247(6)
H3 H 1.069919 0.602113 0.407546
C5 C 0.78503(19) 0.59507(8) 0.46367(7)
H4 H 0.798265 0.526630 0.477424
C6 C 0.60214(19) 0.64980(9) 0.48532(7)
H5 H 0.494042 0.617456 0.513638
C7 C 0.57452(18) 0.75009(9) 0.46650(6)
H6 H 0.449972 0.786791 0.481027
C8 C 0.73850(17) 0.79416(8) 0.42528(6)
C9 C 0.60841(17) 0.96983(8) 0.40535(6)
C10 C 0.68149(17) 1.07276(8) 0.38351(6)
C11 C 0.84979(17) 1.11824(9) 0.42476(6)
H7 H 0.929289 1.080542 0.461044
C12 C 0.90187(18) 1.21808(9) 0.41318(6)
H8 H 1.017036 1.248659 0.441146
C13 C 0.78407(18) 1.27287(8) 0.36035(6)
H9 H 0.815846 1.341772 0.353256
C14 C 0.61986(17) 1.22742(8) 0.31777(6)
H10 H 0.542983 1.265415 0.281012
C15 C 0.56605(17) 1.12674(8) 0.32816(6)
C16 C 0.39706(17) 1.07995(8) 0.27843(6)
C17 C 0.20488(17) 1.13187(8) 0.26034(6)
H11 H 0.179350 1.195411 0.282209
C18 C 0.05076(18) 1.09178(9) 0.21084(6)
H12 H -0.078737 1.127937 0.198962
C19 C 0.08653(18) 0.99888(9) 0.17885(6)
H13 H -0.018393 0.971400 0.144954
C20 C 0.27604(18) 0.94601(8) 0.19642(6)
H14 H 0.300085 0.882225 0.174731
C21 C 0.43046(18) 0.98636(8) 0.24571(6)
H15 H 0.559893 0.949993 0.257277
loop_
_geom_bond_atom_site_label_1
_geom_bond_atom_site_label_2
_geom_bond_site_symmetry_1
_geom_bond_site_symmetry_2
O1 C9 1_555 1_555
N1 C1 1_555 1_555
C1 H1 1_555 1_555
C2 C1 1_555 1_555
H2 C2 1_555 1_555
C3 C2 1_555 1_555
C4 C3 1_555 1_555
H3 C4 1_555 1_555
C5 C4 1_555 1_555
H4 C5 1_555 1_555
C6 C5 1_555 1_555
H5 C6 1_555 1_555
C7 C6 1_555 1_555
H6 C7 1_555 1_555
C8 N1 1_555 1_555
C9 N1 1_555 1_555
C10 C9 1_555 1_555
C11 C10 1_555 1_555
H7 C11 1_555 1_555
C12 C11 1_555 1_555
H8 C12 1_555 1_555
C13 C12 1_555 1_555
H9 C13 1_555 1_555
C14 C13 1_555 1_555
H10 C14 1_555 1_555
C15 C10 1_555 1_555
C16 C15 1_555 1_555
C17 C16 1_555 1_555
H11 C17 1_555 1_555
C18 C17 1_555 1_555
H12 C18 1_555 1_555
C19 C18 1_555 1_555
H13 C19 1_555 1_555
C20 C19 1_555 1_555
H14 C20 1_555 1_555
C21 C16 1_555 1_555
H15 C21 1_555 1_555
C3 C8 1_555 1_555
C7 C8 1_555 1_555
C14 C15 1_555 1_555
C20 C21 1_555 1_555

#END
