
#######################################################################
#
#                 Cambridge Crystallographic Data Centre
#                                CCDC 
#
#######################################################################
#
# If this CIF has been generated from an entry in the Cambridge 
# Structural Database, then it will include bibliographic, chemical, 
# crystal, experimental, refinement or atomic coordinate data resulting 
# from the CCDC's data processing and validation procedures.
#
#######################################################################

data_CIFPUF
_chemical_formula_moiety         'C28 H24 Cl1 N1 O3 S1'
_chemical_name_systematic        
4-chloro-N-(2-methyl-3-oxo-2,3-diphenylpropyl)-N-phenylbenzene-1-sulfonamide
_symmetry_cell_setting           orthorhombic
_symmetry_space_group_name_H-M   'P 21 21 2'
_symmetry_Int_Tables_number      18
_space_group_name_Hall           'P 2 2ab'
loop_
_symmetry_equiv_pos_site_id
_symmetry_equiv_pos_as_xyz
1 x,y,z
2 -x,-y,z
3 1/2+x,1/2-y,-z
4 1/2-x,1/2+y,-z
_cell_length_a                   39.8968(8)
_cell_length_b                   19.0996(4)
_cell_length_c                   6.46063(11)
_cell_angle_alpha                90
_cell_angle_beta                 90
_cell_angle_gamma                90
_cell_volume                     4923.08
_cell_formula_units_Z            8
loop_
_atom_site_label
_atom_site_type_symbol
_atom_site_fract_x
_atom_site_fract_y
_atom_site_fract_z
C1 C 0.51807(15) 0.4185(4) 1.0929(8)
H1 H 0.4973 0.4277 1.1521
C2 C 0.54716(16) 0.4306(4) 1.2052(9)
H2 H 0.5461 0.4476 1.3399
C3 C 0.57729(16) 0.4170(3) 1.1144(12)
C4 C 0.57930(13) 0.3911(3) 0.9179(13)
H3 H 0.6001 0.3815 0.8591
C5 C 0.55028(11) 0.3792(3) 0.8071(10)
H4 H 0.5514 0.3616 0.6730
C6 C 0.51997(11) 0.3932(3) 0.8945(7)
C7 C 0.47168(10) 0.2556(3) 0.8932(8)
C8 C 0.48839(12) 0.2329(3) 1.0694(10)
H5 H 0.4920 0.2635 1.1792
C9 C 0.49969(15) 0.1645(3) 1.0809(15)
H6 H 0.5109 0.1494 1.1990
C10 C 0.49473(18) 0.1197(4) 0.9238(18)
H7 H 0.5022 0.0738 0.9355
C11 C 0.47848(16) 0.1410(3) 0.7427(15)
H8 H 0.4755 0.1098 0.6337
C12 C 0.46678(12) 0.2102(3) 0.7278(10)
H9 H 0.4559 0.2254 0.6088
C13 C 0.43774(10) 0.3532(2) 1.0440(6)
H10 H 0.4425 0.4025 1.0643
H11 H 0.4432 0.3288 1.1714
C14 C 0.39961(10) 0.3440(2) 0.9975(5)
C15 C 0.38104(11) 0.3656(3) 1.1944(6)
C16 C 0.34357(10) 0.3732(2) 1.1977(5)
C17 C 0.32162(10) 0.3422(2) 1.0553(7)
H12 H 0.3300 0.3139 0.9501
C18 C 0.28765(11) 0.3535(3) 1.0712(8)
H13 H 0.2732 0.3325 0.9764
C19 C 0.27467(11) 0.3952(3) 1.2246(8)
H14 H 0.2517 0.4027 1.2327
C20 C 0.29578(13) 0.4255(3) 1.3657(8)
H15 H 0.2871 0.4541 1.4693
C21 C 0.32989(12) 0.4138(3) 1.3540(7)
H16 H 0.3439 0.4335 1.4530
C22 C 0.39016(11) 0.3962(2) 0.8265(6)
H17 H 0.3670 0.3901 0.7904
H18 H 0.4039 0.3880 0.7068
H19 H 0.3937 0.4431 0.8752
C23 C 0.39234(9) 0.2677(2) 0.9496(6)
C24 C 0.39629(12) 0.2185(3) 1.1050(8)
H20 H 0.4029 0.2328 1.2365
C25 C 0.39054(15) 0.1480(3) 1.0662(11)
H21 H 0.3934 0.1153 1.1712
C26 C 0.38072(15) 0.1268(3) 0.8739(12)
H22 H 0.3769 0.0796 0.8481
C27 C 0.37644(13) 0.1747(3) 0.7187(10)
H23 H 0.3696 0.1599 0.5883
C28 C 0.38232(10) 0.2450(3) 0.7553(7)
H24 H 0.3795 0.2772 0.6488
Cl1 Cl 0.61417(5) 0.43317(11) 1.2475(4)
N1 N 0.45913(8) 0.3260(2) 0.8759(6)
O1 O 0.49232(9) 0.3486(2) 0.5574(5)
O2 O 0.46531(8) 0.44656(18) 0.7430(6)
O3 O 0.39654(9) 0.3794(3) 1.3496(5)
S1 S 0.48278(3) 0.38203(7) 0.74689(17)
C29 C 0.30954(12) 1.0974(2) 0.2049(8)
H25 H 0.3194 1.0948 0.0747
C30 C 0.30523(14) 1.1617(3) 0.2990(10)
H26 H 0.3120 1.2025 0.2326
C31 C 0.29097(12) 1.1646(3) 0.4896(9)
C32 C 0.28132(17) 1.1055(4) 0.5904(10)
H27 H 0.2722 1.1084 0.7227
C33 C 0.28506(16) 1.0412(3) 0.4959(9)
H28 H 0.2780 1.0007 0.5624
C34 C 0.29929(10) 1.0375(2) 0.3035(7)
C35 C 0.36588(11) 0.9388(2) 0.3183(7)
C36 C 0.38597(15) 0.9318(3) 0.1443(9)
H29 H 0.3777 0.9101 0.0260
C37 C 0.41849(16) 0.9574(3) 0.1476(12)
H30 H 0.4319 0.9534 0.0306
C38 C 0.43084(15) 0.9885(3) 0.3223(14)
H31 H 0.4528 1.0050 0.3247
C39 C 0.41098(15) 0.9954(3) 0.4930(13)
H32 H 0.4195 1.0163 0.6122
C40 C 0.37824(13) 0.9714(3) 0.4892(8)
H33 H 0.3646 0.9776 0.6045
C41 C 0.31935(11) 0.8715(2) 0.4958(6)
H34 H 0.2952 0.8766 0.5018
H35 H 0.3286 0.8921 0.6206
C42 C 0.32816(11) 0.7926(2) 0.4916(6)
C43 C 0.31012(11) 0.7602(2) 0.6804(6)
C44 C 0.31109(11) 0.6831(2) 0.7261(6)
C45 C 0.28690(12) 0.6569(3) 0.8592(8)
H36 H 0.2706 0.6868 0.9120
C46 C 0.28674(16) 0.5875(3) 0.9141(10)
H37 H 0.2702 0.5705 1.0023
C47 C 0.31083(16) 0.5431(3) 0.8393(9)
H38 H 0.3107 0.4961 0.8768
C48 C 0.33491(16) 0.5681(3) 0.7100(9)
H39 H 0.3515 0.5381 0.6610
C49 C 0.33507(13) 0.6375(2) 0.6508(8)
H40 H 0.3514 0.6537 0.5598
C50 C 0.31336(12) 0.7592(2) 0.2949(6)
H41 H 0.3191 0.7104 0.2907
H42 H 0.3223 0.7823 0.1750
H43 H 0.2894 0.7642 0.2962
C51 C 0.36611(11) 0.7837(2) 0.5106(7)
C52 C 0.38637(13) 0.7638(3) 0.3465(9)
H44 H 0.3769 0.7523 0.2195
C53 C 0.42104(14) 0.7611(3) 0.3726(13)
H45 H 0.4346 0.7474 0.2628
C54 C 0.43534(15) 0.7785(3) 0.5588(16)
H46 H 0.4585 0.7780 0.5739
C55 C 0.41533(16) 0.7964(3) 0.7213(13)
H47 H 0.4249 0.8068 0.8490
C56 C 0.38128(13) 0.7991(3) 0.6978(9)
H48 H 0.3680 0.8115 0.8103
Cl2 Cl 0.28562(5) 1.24535(10) 0.6088(4)
N2 N 0.33208(10) 0.91075(18) 0.3143(5)
O4 O 0.27345(10) 0.91876(19) 0.1949(7)
O5 O 0.31831(11) 0.9693(2) -0.0203(5)
O6 O 0.29358(10) 0.79734(19) 0.7941(6)
S2 S 0.30423(3) 0.95547(6) 0.17824(18)
loop_
_geom_bond_atom_site_label_1
_geom_bond_atom_site_label_2
_geom_bond_site_symmetry_1
_geom_bond_site_symmetry_2
C1 H1 1_555 1_555
C2 C1 1_555 1_555
H2 C2 1_555 1_555
C3 C2 1_555 1_555
C4 C3 1_555 1_555
H3 C4 1_555 1_555
C5 C4 1_555 1_555
H4 C5 1_555 1_555
C6 C1 1_555 1_555
C7 C8 1_555 1_555
C8 H5 1_555 1_555
C9 C8 1_555 1_555
H6 C9 1_555 1_555
C10 C9 1_555 1_555
H7 C10 1_555 1_555
C11 C10 1_555 1_555
H8 C11 1_555 1_555
C12 C7 1_555 1_555
H9 C12 1_555 1_555
C13 H10 1_555 1_555
H11 C13 1_555 1_555
C14 C13 1_555 1_555
C15 C14 1_555 1_555
C16 C15 1_555 1_555
C17 C16 1_555 1_555
H12 C17 1_555 1_555
C18 C17 1_555 1_555
H13 C18 1_555 1_555
C19 C18 1_555 1_555
H14 C19 1_555 1_555
C20 C19 1_555 1_555
H15 C20 1_555 1_555
C21 C16 1_555 1_555
H16 C21 1_555 1_555
C22 C14 1_555 1_555
H17 C22 1_555 1_555
H18 C22 1_555 1_555
H19 C22 1_555 1_555
C23 C14 1_555 1_555
C24 C23 1_555 1_555
H20 C24 1_555 1_555
C25 C24 1_555 1_555
H21 C25 1_555 1_555
C26 C25 1_555 1_555
H22 C26 1_555 1_555
C27 C26 1_555 1_555
H23 C27 1_555 1_555
C28 C23 1_555 1_555
H24 C28 1_555 1_555
Cl1 C3 1_555 1_555
N1 C7 1_555 1_555
O1 S1 1_555 1_555
O2 S1 1_555 1_555
O3 C15 1_555 1_555
S1 C6 1_555 1_555
C29 H25 1_555 1_555
C30 C29 1_555 1_555
H26 C30 1_555 1_555
C31 C30 1_555 1_555
C32 C31 1_555 1_555
H27 C32 1_555 1_555
C33 C32 1_555 1_555
H28 C33 1_555 1_555
C34 C29 1_555 1_555
C35 C36 1_555 1_555
C36 H29 1_555 1_555
C37 C36 1_555 1_555
H30 C37 1_555 1_555
C38 C37 1_555 1_555
H31 C38 1_555 1_555
C39 C38 1_555 1_555
H32 C39 1_555 1_555
C40 C35 1_555 1_555
H33 C40 1_555 1_555
C41 H34 1_555 1_555
H35 C41 1_555 1_555
C42 C41 1_555 1_555
C43 C42 1_555 1_555
C44 C43 1_555 1_555
C45 C44 1_555 1_555
H36 C45 1_555 1_555
C46 C45 1_555 1_555
H37 C46 1_555 1_555
C47 C46 1_555 1_555
H38 C47 1_555 1_555
C48 C47 1_555 1_555
H39 C48 1_555 1_555
C49 C44 1_555 1_555
H40 C49 1_555 1_555
C50 C42 1_555 1_555
H41 C50 1_555 1_555
H42 C50 1_555 1_555
H43 C50 1_555 1_555
C51 C42 1_555 1_555
C52 C51 1_555 1_555
H44 C52 1_555 1_555
C53 C52 1_555 1_555
H45 C53 1_555 1_555
C54 C53 1_555 1_555
H46 C54 1_555 1_555
C55 C54 1_555 1_555
H47 C55 1_555 1_555
C56 C51 1_555 1_555
H48 C56 1_555 1_555
Cl2 C31 1_555 1_555
N2 C35 1_555 1_555
O4 S2 1_555 1_555
O5 S2 1_555 1_555
O6 C43 1_555 1_555
S2 C34 1_555 1_555
C5 C6 1_555 1_555
C11 C12 1_555 1_555
C13 N1 1_555 1_555
C20 C21 1_555 1_555
C27 C28 1_555 1_555
N1 S1 1_555 1_555
C33 C34 1_555 1_555
C39 C40 1_555 1_555
C41 N2 1_555 1_555
C48 C49 1_555 1_555
C55 C56 1_555 1_555
N2 S2 1_555 1_555

#END
