
#######################################################################
#
#                 Cambridge Crystallographic Data Centre
#                                CCDC 
#
#######################################################################
#
# If this CIF has been generated from an entry in the Cambridge 
# Structural Database, then it will include bibliographic, chemical, 
# crystal, experimental, refinement or atomic coordinate data resulting 
# from the CCDC's data processing and validation procedures.
#
#######################################################################

data_CIFQEN01
_chemical_name_common            
"tetraethyl 2,2',2'',2'''-((5,11,17,23-tetra-t-butyl-2,8,14,20-tetrathiapentacyclo[19.3.1.1$3,7!.1$9,13!.1$15,19!]octacosa-1(25),3(28),4,6,9(27),10,12,15(26),16,18,21,23-dodecaene-25,26,27,28-tetrayl)tetrakis(oxy))tetraacetate"
_chemical_formula_moiety         'C56 H72 O12 S4'
_chemical_name_systematic        
5,11,17,23-Tetra-t-butyl-25,26,27,28-tetrakis((ethoxycarbonyl)methoxy)-2,8,14,20-tetrathiacalix(4)arene
_symmetry_cell_setting           monoclinic
_symmetry_space_group_name_H-M   'C 2/c'
_symmetry_Int_Tables_number      15
_space_group_name_Hall           '-C 2yn'
loop_
_symmetry_equiv_pos_site_id
_symmetry_equiv_pos_as_xyz
1 x,y,z
2 -x,y,1/2-z
3 1/2+x,1/2+y,z
4 1/2-x,1/2+y,1/2-z
5 -x,-y,-z
6 x,-y,1/2+z
7 1/2-x,1/2-y,-z
8 1/2+x,1/2-y,1/2+z
_cell_length_a                   24.858(3)
_cell_length_b                   13.8366(16)
_cell_length_c                   20.861(4)
_cell_angle_alpha                90
_cell_angle_beta                 126.353(2)
_cell_angle_gamma                90
_cell_volume                     5778.72
_exptl_crystal_colour            colorless
_exptl_crystal_description       block
_cell_formula_units_Z            4
loop_
_atom_site_label
_atom_site_type_symbol
_atom_site_fract_x
_atom_site_fract_y
_atom_site_fract_z
S1 S 1.19400(3) 0.23987(4) 0.89345(3)
S2 S 1.00631(3) 0.25118(4) 0.56695(3)
O1 O 1.09893(7) 0.33438(10) 0.73270(9)
O2 O 0.90840(7) 0.15676(10) 0.58943(8)
C1 C 1.09905(10) 0.23441(13) 0.73009(12)
C2 C 1.13918(10) 0.18136(13) 0.80006(12)
C3 C 1.14035(11) 0.08085(14) 0.79643(12)
H1 H 1.1670 0.0454 0.8440
C4 C 1.10287(11) 0.03134(14) 0.72381(13)
C5 C 1.06072(11) 0.08568(15) 0.65545(13)
H2 H 1.0332 0.0539 0.6062
C6 C 1.05816(11) 0.18615(15) 0.65790(12)
C7 C 0.90655(10) 0.25686(13) 0.58832(11)
C8 C 0.94923(11) 0.31013(15) 0.57920(11)
C9 C 0.94366(11) 0.41064(15) 0.57314(12)
H3 H 0.9727 0.4459 0.5671
C10 C 0.89638(12) 0.45998(14) 0.57578(12)
C11 C 0.85725(11) 0.40589(14) 0.58981(12)
H4 H 0.8268 0.4379 0.5952
C12 C 0.86190(10) 0.30591(14) 0.59609(11)
C13 C 1.14427(15) 0.37626(16) 0.72041(19)
H5 H 1.1392 0.3459 0.6747
H6 H 1.1903 0.3665 0.7675
C14 C 1.12916(15) 0.48224(16) 0.70538(16)
C15 C 1.19014(17) 0.6557(2) 0.63796(19)
H7 H 1.2350 0.6440 0.6854
H8 H 1.1841 0.7243 0.6262
H9 H 1.1835 0.6207 0.5935
C16 C 1.10889(14) -0.07876(16) 0.72043(16)
C17 C 1.0573(4) -0.1210(7) 0.6406(5)
H10 H 1.0687 -0.1876 0.6391
H11 H 1.0557 -0.0841 0.5999
H12 H 1.0140 -0.1186 0.6308
C18 C 1.1777(3) -0.0952(4) 0.7320(5)
H13 H 1.2142 -0.0691 0.7831
H14 H 1.1761 -0.0625 0.6898
H15 H 1.1847 -0.1638 0.7303
C19 C 1.1153(7) -0.1300(4) 0.7862(6)
H16 H 1.1548 -0.1076 0.8365
H17 H 1.1190 -0.1989 0.7809
H18 H 1.0761 -0.1175 0.7847
C20 C 0.9343(5) 0.6132(7) 0.5447(7)
H19 H 0.9258 0.6819 0.5344
H20 H 0.9254 0.5813 0.4980
H21 H 0.9806 0.6031 0.5894
C21 C 0.8163(3) 0.5889(3) 0.4910(5)
H22 H 0.7848 0.5628 0.4997
H23 H 0.8096 0.5577 0.4452
H24 H 0.8091 0.6579 0.4815
C22 C 0.9037(7) 0.6174(6) 0.6363(5)
H25 H 0.8714 0.5983 0.6458
H26 H 0.9021 0.6869 0.6295
H27 H 0.9481 0.5984 0.6813
C23 C 1.14130(18) 0.62240(19) 0.6514(2)
H28 H 1.1446 0.6610 0.6930
H29 H 1.0957 0.6278 0.6024
O3 O 1.1580(4) 0.5218(5) 0.6760(5)
O4 O 1.0906(4) 0.5266(2) 0.7115(5)
C24 C 0.8695(5) 0.1163(7) 0.5124(5)
H30 H 0.8880 0.1347 0.4837
H31 H 0.8236 0.1407 0.4826
C25 C 0.8697(5) 0.0102(6) 0.5191(6)
C26 C 0.8369(5) -0.1324(3) 0.4443(3)
H32 H 0.8826 -0.1570 0.4724
H33 H 0.8177 -0.1585 0.4704
C27 C 0.8010(3) -0.1603(3) 0.3697(3)
H34 H 0.8204 -0.1347 0.3443
H35 H 0.7557 -0.1363 0.3423
H36 H 0.8004 -0.2303 0.3673
O5 O 0.8379(5) -0.0277(3) 0.4481(3)
O6 O 0.8992(5) -0.0390(7) 0.5729(6)
C28 C 0.88777(14) 0.57027(15) 0.56477(16)
S1A S 0.80600(3) 0.23987(4) 0.60655(3)
S2A S 0.99369(3) 0.25118(4) 0.93305(3)
O1A O 0.90107(7) 0.33438(10) 0.76730(9)
O2A O 1.09160(7) 0.15676(10) 0.91057(8)
C1A C 0.90095(10) 0.23441(13) 0.76991(12)
C2A C 0.86082(10) 0.18136(13) 0.69994(12)
C3A C 0.85965(11) 0.08085(14) 0.70357(12)
H1A H 0.8330 0.0454 0.6560
C4A C 0.89713(11) 0.03134(14) 0.77619(13)
C5A C 0.93928(11) 0.08568(15) 0.84455(13)
H2A H 0.9668 0.0539 0.8938
C6A C 0.94184(11) 0.18615(15) 0.84210(12)
C7A C 1.09345(10) 0.25686(13) 0.91168(11)
C8A C 1.05077(11) 0.31013(15) 0.92080(11)
C9A C 1.05634(11) 0.41064(15) 0.92686(12)
H3A H 1.0273 0.4459 0.9329
C10A C 1.10362(12) 0.45998(14) 0.92422(12)
C11A C 1.14275(11) 0.40589(14) 0.91019(12)
H4A H 1.1732 0.4379 0.9048
C12A C 1.13810(10) 0.30591(14) 0.90391(11)
C13A C 0.85573(15) 0.37626(16) 0.77959(19)
H5A H 0.8608 0.3459 0.8253
H6A H 0.8097 0.3665 0.7325
C14A C 0.87084(15) 0.48224(16) 0.79462(16)
C15A C 0.80986(17) 0.6557(2) 0.86204(19)
H7A H 0.7650 0.6440 0.8146
H8A H 0.8159 0.7243 0.8738
H9A H 0.8165 0.6207 0.9065
C16A C 0.89111(14) -0.07876(16) 0.77957(16)
C17A C 0.9427(4) -0.1210(7) 0.8594(5)
H10A H 0.9313 -0.1876 0.8609
H11A H 0.9443 -0.0841 0.9001
H12A H 0.9860 -0.1186 0.8692
C18A C 0.8223(3) -0.0952(4) 0.7680(5)
H13A H 0.7858 -0.0691 0.7169
H14A H 0.8239 -0.0625 0.8102
H15A H 0.8153 -0.1638 0.7697
C19A C 0.8847(7) -0.1300(4) 0.7138(6)
H16A H 0.8452 -0.1076 0.6635
H17A H 0.8810 -0.1989 0.7191
H18A H 0.9239 -0.1175 0.7153
C20A C 1.0657(5) 0.6132(7) 0.9553(7)
H19A H 1.0742 0.6819 0.9656
H20A H 1.0746 0.5813 1.0020
H21A H 1.0194 0.6031 0.9106
C21A C 1.1837(3) 0.5889(3) 1.0090(5)
H22A H 1.2152 0.5628 1.0003
H23A H 1.1904 0.5577 1.0548
H24A H 1.1909 0.6579 1.0185
C22A C 1.0963(7) 0.6174(6) 0.8637(5)
H25A H 1.1286 0.5983 0.8542
H26A H 1.0979 0.6869 0.8705
H27A H 1.0519 0.5984 0.8187
C23A C 0.85870(18) 0.62240(19) 0.8486(2)
H28A H 0.8554 0.6610 0.8070
H29A H 0.9043 0.6278 0.8976
O3A O 0.8420(4) 0.5218(5) 0.8240(5)
O4A O 0.9094(4) 0.5266(2) 0.7885(5)
C24A C 1.1305(5) 0.1163(7) 0.9876(5)
H30A H 1.1120 0.1347 1.0163
H31A H 1.1764 0.1407 1.0174
C25A C 1.1303(5) 0.0102(6) 0.9809(6)
C26A C 1.1631(5) -0.1324(3) 1.0557(3)
H32A H 1.1174 -0.1570 1.0276
H33A H 1.1823 -0.1585 1.0296
C27A C 1.1990(3) -0.1603(3) 1.1303(3)
H34A H 1.1796 -0.1347 1.1557
H35A H 1.2443 -0.1363 1.1577
H36A H 1.1996 -0.2303 1.1327
O5A O 1.1621(5) -0.0277(3) 1.0519(3)
O6A O 1.1008(5) -0.0390(7) 0.9271(6)
C28A C 1.11223(14) 0.57027(15) 0.93523(16)
C29? C 1.0818(12) -0.1112(12) 0.6402(8)
H37? H 1.0431 -0.0724 0.6019
H38? H 1.0688 -0.1785 0.6344
H39? H 1.1155 -0.1042 0.6309
C30? C 1.1699(7) -0.1187(7) 0.7885(10)
H40? H 1.1626 -0.1855 0.7956
H41? H 1.1839 -0.0818 0.8356
H42? H 1.2044 -0.1156 0.7803
C31? C 1.0524(8) -0.1184(6) 0.7322(9)
H43? H 1.0594 -0.0876 0.7783
H44? H 1.0568 -0.1879 0.7400
H45? H 1.0081 -0.1030 0.6852
C32? C 0.8956(12) 0.6052(9) 0.5052(10)
H46? H 0.8592 0.5813 0.4532
H47? H 0.9378 0.5824 0.5177
H48? H 0.8952 0.6753 0.5048
C33? C 0.8242(6) 0.6080(6) 0.5542(11)
H49? H 0.8232 0.6780 0.5514
H50? H 0.8248 0.5876 0.5991
H51? H 0.7849 0.5821 0.5054
C34? C 0.9452(10) 0.6142(14) 0.6503(9)
H52? H 0.9467 0.6839 0.6461
H53? H 0.9880 0.5869 0.6684
H54? H 0.9358 0.5985 0.6880
H55? H 1.0975 0.6490 0.6092
H56? H 1.1538 0.6493 0.7020
O7? O 1.1346(16) 0.5138(19) 0.6535(16)
O8? O 1.139(2) 0.5280(10) 0.7590(16)
C35? C 0.8546(9) 0.1217(16) 0.5121(12)
H57? H 0.8607 0.1462 0.4728
H58? H 0.8125 0.1483 0.4987
C36? C 0.8485(10) 0.0126(16) 0.5049(13)
C37? C 0.7860(9) -0.1233(7) 0.4183(9)
H59? H 0.8111 -0.1594 0.4684
H60? H 0.7383 -0.1336 0.3929
H61? H 0.7672 -0.1403 0.3152
H62? H 0.8021 -0.2303 0.3728
H63? H 0.8443 -0.1364 0.3866
O9? O 0.8011(7) -0.0174(8) 0.4368(8)
O10? O 0.8781(13) -0.0321(12) 0.5703(10)
loop_
_geom_bond_atom_site_label_1
_geom_bond_atom_site_label_2
_geom_bond_site_symmetry_1
_geom_bond_site_symmetry_2
S1 C2 1_555 1_555
S2 C6 1_555 1_555
O1 C1 1_555 1_555
O2 C7 1_555 1_555
C1 C2 1_555 1_555
C2 C3 1_555 1_555
C3 H1 1_555 1_555
C4 C3 1_555 1_555
C5 C4 1_555 1_555
H2 C5 1_555 1_555
C6 C1 1_555 1_555
C7 C8 1_555 1_555
C8 S2 1_555 1_555
C9 C8 1_555 1_555
H3 C9 1_555 1_555
C10 C9 1_555 1_555
C11 C10 1_555 1_555
H4 C11 1_555 1_555
C12 C7 1_555 1_555
C13 O1 1_555 1_555
H5 C13 1_555 1_555
H6 C13 1_555 1_555
C14 C13 1_555 1_555
C15 H7 1_555 1_555
H8 C15 1_555 1_555
H9 C15 1_555 1_555
C16 C4 1_555 1_555
C17 C16 1_555 1_555
H10 C17 1_555 1_555
H11 C17 1_555 1_555
H12 C17 1_555 1_555
C18 C16 1_555 1_555
H13 C18 1_555 1_555
H14 C18 1_555 1_555
H15 C18 1_555 1_555
C19 C16 1_555 1_555
H16 C19 1_555 1_555
H17 C19 1_555 1_555
H18 C19 1_555 1_555
C20 H19 1_555 1_555
H20 C20 1_555 1_555
H21 C20 1_555 1_555
C21 H22 1_555 1_555
H23 C21 1_555 1_555
H24 C21 1_555 1_555
C22 H25 1_555 1_555
H26 C22 1_555 1_555
H27 C22 1_555 1_555
C23 C15 1_555 1_555
H28 C23 1_555 1_555
H29 C23 1_555 1_555
O3 C14 1_555 1_555
O4 C14 1_555 1_555
C24 O2 1_555 1_555
H30 C24 1_555 1_555
H31 C24 1_555 1_555
C25 C24 1_555 1_555
C26 H32 1_555 1_555
H33 C26 1_555 1_555
C27 C26 1_555 1_555
H34 C27 1_555 1_555
H35 C27 1_555 1_555
H36 C27 1_555 1_555
O5 C25 1_555 1_555
O6 C25 1_555 1_555
C28 C10 1_555 1_555
S1A C12 1_555 1_555
S2A C6A 1_555 1_555
O1A C1A 1_555 1_555
O2A C7A 1_555 1_555
C1A C2A 1_555 1_555
C2A S1A 1_555 1_555
C3A C2A 1_555 1_555
H1A C3A 1_555 1_555
C4A C3A 1_555 1_555
C5A C4A 1_555 1_555
H2A C5A 1_555 1_555
C6A C1A 1_555 1_555
C7A C8A 1_555 1_555
C8A S2A 1_555 1_555
C9A C8A 1_555 1_555
H3A C9A 1_555 1_555
C10A C9A 1_555 1_555
C11A C10A 1_555 1_555
H4A C11A 1_555 1_555
C12A S1 1_555 1_555
C13A O1A 1_555 1_555
H5A C13A 1_555 1_555
H6A C13A 1_555 1_555
C14A C13A 1_555 1_555
C15A H7A 1_555 1_555
H8A C15A 1_555 1_555
H9A C15A 1_555 1_555
C16A C4A 1_555 1_555
C17A C16A 1_555 1_555
H10A C17A 1_555 1_555
H11A C17A 1_555 1_555
H12A C17A 1_555 1_555
C18A C16A 1_555 1_555
H13A C18A 1_555 1_555
H14A C18A 1_555 1_555
H15A C18A 1_555 1_555
C19A C16A 1_555 1_555
H16A C19A 1_555 1_555
H17A C19A 1_555 1_555
H18A C19A 1_555 1_555
C20A H19A 1_555 1_555
H20A C20A 1_555 1_555
H21A C20A 1_555 1_555
C21A H22A 1_555 1_555
H23A C21A 1_555 1_555
H24A C21A 1_555 1_555
C22A H25A 1_555 1_555
H26A C22A 1_555 1_555
H27A C22A 1_555 1_555
C23A C15A 1_555 1_555
H28A C23A 1_555 1_555
H29A C23A 1_555 1_555
O3A C14A 1_555 1_555
O4A C14A 1_555 1_555
C24A O2A 1_555 1_555
H30A C24A 1_555 1_555
H31A C24A 1_555 1_555
C25A C24A 1_555 1_555
C26A H32A 1_555 1_555
H33A C26A 1_555 1_555
C27A C26A 1_555 1_555
H34A C27A 1_555 1_555
H35A C27A 1_555 1_555
H36A C27A 1_555 1_555
O5A C25A 1_555 1_555
O6A C25A 1_555 1_555
C28A C10A 1_555 1_555
C5 C6 1_555 1_555
C11 C12 1_555 1_555
C20 C28 1_555 1_555
C21 C28 1_555 1_555
C22 C28 1_555 1_555
C23 O3 1_555 1_555
C26 O5 1_555 1_555
C5A C6A 1_555 1_555
C7A C12A 1_555 1_555
C11A C12A 1_555 1_555
C20A C28A 1_555 1_555
C21A C28A 1_555 1_555
C22A C28A 1_555 1_555
C23A O3A 1_555 1_555
C26A O5A 1_555 1_555

#END
