
#######################################################################
#
#                 Cambridge Crystallographic Data Centre
#                                CCDC 
#
#######################################################################
#
# If this CIF has been generated from an entry in the Cambridge 
# Structural Database, then it will include bibliographic, chemical, 
# crystal, experimental, refinement or atomic coordinate data resulting 
# from the CCDC's data processing and validation procedures.
#
#######################################################################

data_CIGBEC
_chemical_formula_moiety         'C6 H12 N2,C1 Br1 Cl3'
_chemical_name_systematic        
'1,4-diazabicyclo[2.2.2]octane bromo(trichloro)methane'
_symmetry_cell_setting           monoclinic
_symmetry_space_group_name_H-M   'P 21/m'
_symmetry_Int_Tables_number      11
_space_group_name_Hall           '-P 2yb'
loop_
_symmetry_equiv_pos_site_id
_symmetry_equiv_pos_as_xyz
1 x,y,z
2 -x,1/2+y,-z
3 -x,-y,-z
4 x,1/2-y,z
_cell_length_a                   5.8771(3)
_cell_length_b                   16.4201(9)
_cell_length_c                   11.9239(6)
_cell_angle_alpha                90
_cell_angle_beta                 100.625(2)
_cell_angle_gamma                90
_cell_volume                     1130.96
_exptl_crystal_colour            colorless
_exptl_crystal_description       plate
_cell_formula_units_Z            4
loop_
_atom_site_label
_atom_site_type_symbol
_atom_site_fract_x
_atom_site_fract_y
_atom_site_fract_z
C7 C 0.4761(4) 0.250000 0.4561(2)
Br1 Br 0.6414(4) 0.15563(17) 0.52765(19)
Cl1 Cl 0.46069(12) 0.250000 0.30582(6)
Cl2 Cl 0.18989(11) 0.250000 0.48549(6)
Br1C Br 0.6414(4) 0.34437(17) 0.52765(19)
C8 C 0.5392(4) 0.250000 0.9472(2)
Br2 Br 0.7104(3) 0.15765(14) 1.01943(13)
Cl3 Cl 0.51679(12) 0.250000 0.79700(6)
Cl4 Cl 0.25563(11) 0.250000 0.98024(6)
Br2C Br 0.7104(3) 0.34235(14) 1.01943(13)
C1 C -0.1405(3) -0.04122(12) 0.15105(17)
H1 H -0.103335 -0.070366 0.084023
H2 H -0.311105 -0.038231 0.142511
C2 C -0.0392(3) -0.08867(12) 0.26152(17)
H3 H -0.166034 -0.105021 0.301069
H4 H 0.038754 -0.138679 0.241657
C3 C 0.2102(3) 0.03571(12) 0.16716(17)
H5 H 0.278977 0.090902 0.170858
H6 H 0.248716 0.007509 0.099697
C4 C 0.3125(3) -0.01231(13) 0.27685(18)
H7 H 0.394936 -0.061087 0.256280
H8 H 0.425715 0.022286 0.327344
C5 C -0.0953(3) 0.08380(12) 0.25695(17)
H9 H -0.265044 0.088734 0.250547
H10 H -0.028792 0.139366 0.261513
C6 C 0.0068(4) 0.03584(13) 0.36656(17)
H11 H 0.116183 0.070994 0.418256
H12 H -0.119418 0.019915 0.406789
N1 N -0.0432(3) 0.04212(10) 0.15562(14)
N2 N 0.1281(3) -0.03748(10) 0.33790(14)
Cl5? Cl 0.6237(11) 0.1599(4) 0.5122(5)
Cl6? Cl 0.6883(8) 0.1591(4) 1.0009(4)
loop_
_geom_bond_atom_site_label_1
_geom_bond_atom_site_label_2
_geom_bond_site_symmetry_1
_geom_bond_site_symmetry_2
C1 H1 1_555 1_555
H2 C1 1_555 1_555
C2 C1 1_555 1_555
H3 C2 1_555 1_555
H4 C2 1_555 1_555
C3 H5 1_555 1_555
H6 C3 1_555 1_555
C4 C3 1_555 1_555
H7 C4 1_555 1_555
H8 C4 1_555 1_555
C5 H9 1_555 1_555
H10 C5 1_555 1_555
C6 C5 1_555 1_555
H11 C6 1_555 1_555
H12 C6 1_555 1_555
N1 C1 1_555 1_555
N2 C2 1_555 1_555
C7 Br1 1_555 1_555
Cl1 C7 1_555 1_555
Cl2 C7 1_555 1_555
C8 Br2 1_555 1_555
Cl3 C8 1_555 1_555
Cl4 C8 1_555 1_555
Br1C C7 1_555 1_555
Br2C C8 1_555 1_555
C3 N1 1_555 1_555
C4 N2 1_555 1_555
C5 N1 1_555 1_555
C6 N2 1_555 1_555

#END
