
#######################################################################
#
#                 Cambridge Crystallographic Data Centre
#                                CCDC 
#
#######################################################################
#
# If this CIF has been generated from an entry in the Cambridge 
# Structural Database, then it will include bibliographic, chemical, 
# crystal, experimental, refinement or atomic coordinate data resulting 
# from the CCDC's data processing and validation procedures.
#
#######################################################################

data_CIGDAX
_chemical_compound_source        'Poronia punctata'
_chemical_formula_moiety         'C15 H24 O3'
_chemical_name_systematic        'Punctatin B'
_symmetry_cell_setting           orthorhombic
_symmetry_space_group_name_H-M   'P 21 21 21'
_symmetry_Int_Tables_number      19
_space_group_name_Hall           'P 2ac 2ab'
loop_
_symmetry_equiv_pos_site_id
_symmetry_equiv_pos_as_xyz
1 x,y,z
2 1/2+x,1/2-y,-z
3 -x,1/2+y,1/2-z
4 1/2-x,-y,1/2+z
_cell_length_a                   7.432(5)
_cell_length_b                   11.017(4)
_cell_length_c                   17.699(5)
_cell_angle_alpha                90
_cell_angle_beta                 90
_cell_angle_gamma                90
_cell_volume                     1449.16
_exptl_crystal_colour            colorless
_chemical_melting_point          187.5-188.5deg.C
_cell_formula_units_Z            4
loop_
_atom_site_label
_atom_site_type_symbol
_atom_site_fract_x
_atom_site_fract_y
_atom_site_fract_z
C1 C 1.10080 0.04893 0.56825
C2 C 0.96756 0.12204 0.52245
C3 C 1.03920 0.14997 0.44310
C4 C 0.92944 0.10069 0.37785
C5 C 0.91431 -0.03499 0.36969
C6 C 1.03255 -0.12335 0.37971
C7 C 1.22071 -0.11927 0.40706
C8 C 1.27465 -0.10183 0.47753
C9 C 1.14228 -0.08138 0.54005
C10 C 1.17186 -0.11733 0.62378
C11 C 1.05264 -0.00824 0.64656
C12 C 0.85470 -0.04554 0.65302
C13 C 1.10803 0.06293 0.71585
C14 C 1.47453 -0.09687 0.49303
C15 C 1.00175 0.15216 0.30395
O1 O 1.26724 0.11262 0.57381
O2 O 0.74603 0.14813 0.38259
O3 O 1.53742 0.02507 0.49167
H1 H 0.95886 0.19775 0.54243
H2 H 0.87026 0.07683 0.51864
H3 H 1.06088 0.24132 0.44060
H4 H 1.15380 0.12033 0.43879
H5 H 0.81312 -0.06626 0.34250
H6 H 0.98629 -0.21001 0.35853
H7 H 1.31393 -0.14166 0.36383
H8 H 1.02098 -0.11477 0.51736
H9 H 1.11620 -0.19616 0.64403
H10 H 1.30382 -0.12789 0.64175
H11 H 0.82246 -0.10050 0.61052
H12 H 0.85408 -0.11800 0.70103
H13 H 0.79408 0.02065 0.65817
H14 H 1.08749 0.01508 0.75980
H15 H 1.23282 0.07886 0.71581
H16 H 1.07590 0.15642 0.72274
H17 H 1.50065 -0.12545 0.54980
H18 H 1.53889 -0.13323 0.44635
H19 H 1.00840 0.23055 0.30306
H20 H 1.12567 0.11693 0.28924
H21 H 0.92977 0.11413 0.25351
H22 H 1.21984 0.19605 0.58447
H23 H 0.68578 0.11276 0.42491
H24 H 1.48465 0.08582 0.51429
loop_
_geom_bond_atom_site_label_1
_geom_bond_atom_site_label_2
_geom_bond_site_symmetry_1
_geom_bond_site_symmetry_2
C1 C2 1_555 1_555
C2 C3 1_555 1_555
C3 C4 1_555 1_555
C4 C5 1_555 1_555
C5 C6 1_555 1_555
C6 C7 1_555 1_555
C7 C8 1_555 1_555
C8 C9 1_555 1_555
C9 C1 1_555 1_555
C10 C9 1_555 1_555
C11 C1 1_555 1_555
C12 C11 1_555 1_555
C13 C11 1_555 1_555
C14 C8 1_555 1_555
C15 C4 1_555 1_555
O1 C1 1_555 1_555
O2 C4 1_555 1_555
O3 C14 1_555 1_555
H1 C2 1_555 1_555
H2 C2 1_555 1_555
H3 C3 1_555 1_555
H4 C3 1_555 1_555
H5 C5 1_555 1_555
H6 C6 1_555 1_555
H7 C7 1_555 1_555
H8 C9 1_555 1_555
H9 C10 1_555 1_555
H10 C10 1_555 1_555
H11 C12 1_555 1_555
H12 C12 1_555 1_555
H13 C12 1_555 1_555
H14 C13 1_555 1_555
H15 C13 1_555 1_555
H16 C13 1_555 1_555
H17 C14 1_555 1_555
H18 C14 1_555 1_555
H19 C15 1_555 1_555
H20 C15 1_555 1_555
H21 C15 1_555 1_555
H22 O1 1_555 1_555
H23 O2 1_555 1_555
H24 O3 1_555 1_555
C10 C11 1_555 1_555

#END
