
#######################################################################
#
#                 Cambridge Crystallographic Data Centre
#                                CCDC 
#
#######################################################################
#
# If this CIF has been generated from an entry in the Cambridge 
# Structural Database, then it will include bibliographic, chemical, 
# crystal, experimental, refinement or atomic coordinate data resulting 
# from the CCDC's data processing and validation procedures.
#
#######################################################################

data_CIGSIW
_chemical_formula_moiety         'C34 H29 N3 O3 S1'
_chemical_name_systematic        
4-Benzyl-4-((5-hydroxy-3-methyl-1-phenyl-1H-pyrazol-4-yl)(4-(methylsulfanyl)phenyl)methyl)-2-phenyl-1,3-oxazol-5(4H)-one
_symmetry_cell_setting           orthorhombic
_symmetry_space_group_name_H-M   'P 21 21 21'
_symmetry_Int_Tables_number      19
_space_group_name_Hall           'P 2ac 2ab'
loop_
_symmetry_equiv_pos_site_id
_symmetry_equiv_pos_as_xyz
1 x,y,z
2 1/2+x,1/2-y,-z
3 -x,1/2+y,1/2-z
4 1/2-x,-y,1/2+z
_cell_length_a                   7.4537(9)
_cell_length_b                   16.816(2)
_cell_length_c                   23.706(3)
_cell_angle_alpha                90
_cell_angle_beta                 90
_cell_angle_gamma                90
_cell_volume                     2971.34
_exptl_crystal_colour            colorless
_exptl_crystal_description       block
_cell_formula_units_Z            4
loop_
_atom_site_label
_atom_site_type_symbol
_atom_site_fract_x
_atom_site_fract_y
_atom_site_fract_z
S1 S 0.1897(3) 0.55944(13) 0.32244(7)
O1 O 0.3057(6) 0.4306(2) 0.63042(18)
H1 H 0.2398 0.4684 0.6235
O2 O -0.1538(5) 0.6033(2) 0.55453(16)
O3 O -0.3764(5) 0.5159(2) 0.53746(18)
N1 N 0.3150(6) 0.2931(2) 0.62119(16)
N2 N 0.2299(6) 0.2313(2) 0.59336(17)
N3 N 0.0544(5) 0.5277(2) 0.59725(17)
C1 C -0.0347(7) 0.4065(3) 0.5444(2)
H2 H -0.1422 0.3754 0.5355
C2 C 0.0304(7) 0.4419(3) 0.48846(19)
C3 C 0.2039(8) 0.4705(3) 0.4814(2)
H3 H 0.2859 0.4656 0.5107
C4 C 0.2569(8) 0.5059(3) 0.4317(2)
H4 H 0.3742 0.5239 0.4279
C5 C 0.1388(9) 0.5149(3) 0.3877(2)
C6 C -0.0326(9) 0.4849(3) 0.3942(2)
H5 H -0.1139 0.4895 0.3646
C7 C -0.0853(8) 0.4490(3) 0.4429(2)
H6 H -0.2012 0.4288 0.4456
C8 C 0.419(3) 0.6069(11) 0.3344(7)
C9 C 0.0952(6) 0.3500(3) 0.5716(2)
C10 C 0.2362(7) 0.3638(3) 0.6074(2)
C11 C 0.1002(6) 0.2671(3) 0.56462(19)
C12 C -0.0209(7) 0.2174(3) 0.5284(2)
H7 H 0.0010 0.2292 0.4894
H8 H -0.1437 0.2290 0.5374
H9 H 0.0025 0.1621 0.5352
C13 C 0.4686(7) 0.2785(3) 0.6548(2)
C14 C 0.4921(8) 0.3183(3) 0.7053(2)
H10 H 0.4078 0.3550 0.7179
C15 C 0.6437(9) 0.3020(4) 0.7366(3)
H11 H 0.6626 0.3290 0.7704
C16 C 0.7650(9) 0.2477(4) 0.7193(3)
H12 H 0.8648 0.2374 0.7417
C17 C 0.7441(8) 0.2074(4) 0.6694(3)
H13 H 0.8296 0.1708 0.6573
C18 C 0.5916(8) 0.2227(3) 0.6374(2)
H14 H 0.5727 0.1949 0.6040
C19 C -0.0959(6) 0.4734(3) 0.5851(2)
C20 C 0.0133(8) 0.5963(3) 0.5788(2)
C21 C -0.2312(8) 0.5280(3) 0.5565(2)
C22 C 0.1230(11) 0.6676(4) 0.5807(3)
C23 C 0.0670(11) 0.7377(4) 0.5557(3)
H15 H -0.0437 0.7397 0.5377
C24 C 0.1752(11) 0.8054(4) 0.5574(3)
H16 H 0.1377 0.8527 0.5409
C25 C 0.3341(11) 0.8006(4) 0.5834(3)
H17 H 0.4060 0.8458 0.5848
C26 C 0.3955(11) 0.7328(4) 0.6079(3)
H18 H 0.5077 0.7311 0.6250
C27 C 0.2856(11) 0.6662(4) 0.6067(3)
H19 H 0.3239 0.6196 0.6240
C28 C -0.1792(8) 0.4394(3) 0.6398(2)
H20 H -0.2953 0.4167 0.6310
H21 H -0.1031 0.3969 0.6537
C29 C -0.2025(7) 0.5000(3) 0.6859(2)
C30 C -0.3570(9) 0.5419(4) 0.6919(3)
H22 H -0.4522 0.5331 0.6673
C31 C -0.3735(14) 0.5983(5) 0.7348(4)
H23 H -0.4788 0.6276 0.7384
C32 C -0.2350(15) 0.6105(4) 0.7714(4)
H24 H -0.2441 0.6486 0.7996
C33 C -0.0850(13) 0.5667(5) 0.7660(3)
H25 H 0.0079 0.5737 0.7917
C34 C -0.0655(10) 0.5115(4) 0.7234(3)
H26 H 0.0400 0.4824 0.7202
C35? C 0.348(3) 0.6333(11) 0.3391(7)
loop_
_geom_bond_atom_site_label_1
_geom_bond_atom_site_label_2
_geom_bond_site_symmetry_1
_geom_bond_site_symmetry_2
S1 C5 1_555 1_555
O1 H1 1_555 1_555
O2 C20 1_555 1_555
O3 C21 1_555 1_555
N1 N2 1_555 1_555
N2 C11 1_555 1_555
N3 C19 1_555 1_555
C1 H2 1_555 1_555
C2 C1 1_555 1_555
C3 C2 1_555 1_555
H3 C3 1_555 1_555
C4 C3 1_555 1_555
H4 C4 1_555 1_555
C5 C4 1_555 1_555
C6 C5 1_555 1_555
H5 C6 1_555 1_555
C7 C2 1_555 1_555
H6 C7 1_555 1_555
C8 S1 1_555 1_555
C9 C1 1_555 1_555
C10 O1 1_555 1_555
C11 C9 1_555 1_555
C12 C11 1_555 1_555
H7 C12 1_555 1_555
H8 C12 1_555 1_555
H9 C12 1_555 1_555
C13 N1 1_555 1_555
C14 C13 1_555 1_555
H10 C14 1_555 1_555
C15 C14 1_555 1_555
H11 C15 1_555 1_555
C16 C15 1_555 1_555
H12 C16 1_555 1_555
C17 C16 1_555 1_555
H13 C17 1_555 1_555
C18 C13 1_555 1_555
H14 C18 1_555 1_555
C19 C1 1_555 1_555
C20 N3 1_555 1_555
C21 O2 1_555 1_555
C22 C20 1_555 1_555
C23 C22 1_555 1_555
H15 C23 1_555 1_555
C24 C23 1_555 1_555
H16 C24 1_555 1_555
C25 C24 1_555 1_555
H17 C25 1_555 1_555
C26 C25 1_555 1_555
H18 C26 1_555 1_555
C27 C22 1_555 1_555
H19 C27 1_555 1_555
C28 C19 1_555 1_555
H20 C28 1_555 1_555
H21 C28 1_555 1_555
C29 C28 1_555 1_555
C30 C29 1_555 1_555
H22 C30 1_555 1_555
C31 C30 1_555 1_555
H23 C31 1_555 1_555
C32 C31 1_555 1_555
H24 C32 1_555 1_555
C33 C32 1_555 1_555
H25 C33 1_555 1_555
C34 C29 1_555 1_555
H26 C34 1_555 1_555
N1 C10 1_555 1_555
C6 C7 1_555 1_555
C9 C10 1_555 1_555
C17 C18 1_555 1_555
C19 C21 1_555 1_555
C26 C27 1_555 1_555
C33 C34 1_555 1_555

#END
