
#######################################################################
#
#                 Cambridge Crystallographic Data Centre
#                                CCDC 
#
#######################################################################
#
# If this CIF has been generated from an entry in the Cambridge 
# Structural Database, then it will include bibliographic, chemical, 
# crystal, experimental, refinement or atomic coordinate data resulting 
# from the CCDC's data processing and validation procedures.
#
#######################################################################

data_CIHDEF
_chemical_formula_moiety         'C6 H7 N2 O1 1+,C4 H4 N1 O4 S1 1-,0.5(H2 O1)'
_chemical_name_systematic        
'3-carbamoylpyridin-1-ium 6-methyl-2,2,4-trioxo-2H,4H-1,2,3-oxathiazin-3-ide hemihydrate'
_symmetry_cell_setting           monoclinic
_symmetry_space_group_name_H-M   'C 2/c'
_symmetry_Int_Tables_number      15
_space_group_name_Hall           '-C 2yn'
loop_
_symmetry_equiv_pos_site_id
_symmetry_equiv_pos_as_xyz
1 x,y,z
2 -x,y,1/2-z
3 1/2+x,1/2+y,z
4 1/2-x,1/2+y,1/2-z
5 -x,-y,-z
6 x,-y,1/2+z
7 1/2-x,1/2-y,-z
8 1/2+x,1/2-y,1/2+z
_cell_length_a                   12.330(2)
_cell_length_b                   7.860(2)
_cell_length_c                   25.869(5)
_cell_angle_alpha                90
_cell_angle_beta                 93.699(3)
_cell_angle_gamma                90
_cell_volume                     2501.84
_exptl_crystal_colour            white
_exptl_crystal_description       Needles
_cell_formula_units_Z            8
loop_
_atom_site_label
_atom_site_type_symbol
_atom_site_fract_x
_atom_site_fract_y
_atom_site_fract_z
S1 S 0.46727(3) 0.18484(6) 0.347626(16)
O1 O 0.29505(10) -0.00414(17) 0.44244(5)
O2 O 0.44055(10) 0.03524(17) 0.30558(5)
O3 O 0.58242(11) 0.20118(19) 0.34904(5)
O4 O 0.40485(12) 0.32939(17) 0.32864(5)
C1 C 0.33674(13) 0.0246(2) 0.40105(6)
N1 N 0.43055(12) 0.11765(19) 0.40082(5)
C2 C 0.30678(19) -0.1311(3) 0.25915(8)
C3 C 0.34143(14) -0.0457(2) 0.30861(7)
C4 C 0.29035(14) -0.0478(2) 0.35240(7)
H1 H 0.2234(18) -0.105(3) 0.3533(8)
H2 H 0.358(2) -0.217(4) 0.2515(10)
H3 H 0.302(2) -0.049(4) 0.2297(11)
H4 H 0.236(3) -0.190(4) 0.2643(11)
N2 N 0.10605(13) -0.1822(2) 0.47345(6)
N3 N -0.15416(12) -0.36952(19) 0.55601(6)
O5 O 0.16437(11) -0.04681(19) 0.54673(5)
C5 C -0.07429(14) -0.3113(2) 0.52802(7)
C6 C 0.09891(13) -0.1413(2) 0.52264(6)
C7 C 0.00192(14) -0.1713(2) 0.60355(7)
C8 C 0.00648(13) -0.2105(2) 0.55131(6)
C9 C -0.08197(15) -0.2335(2) 0.63122(7)
C10 C -0.15987(15) -0.3348(2) 0.60632(7)
H5 H -0.0800(16) -0.343(3) 0.4927(8)
H6 H 0.0566(17) -0.101(3) 0.6195(8)
H7 H -0.0850(17) -0.210(3) 0.6657(9)
H8 H 0.057(2) -0.242(3) 0.4568(9)
H9 H -0.2176(19) -0.382(3) 0.6220(9)
H10 H 0.163(2) -0.145(3) 0.4578(10)
H11 H -0.206(2) -0.432(3) 0.5418(9)
O6 O 0.5000 0.5429(3) 0.2500
H12 H 0.470(2) 0.482(4) 0.2722(11)
H12A H 0.530(2) 0.482(4) 0.2278(11)
loop_
_geom_bond_atom_site_label_1
_geom_bond_atom_site_label_2
_geom_bond_site_symmetry_1
_geom_bond_site_symmetry_2
S1 O2 1_555 1_555
O1 C1 1_555 1_555
O2 C3 1_555 1_555
O3 S1 1_555 1_555
O4 S1 1_555 1_555
C1 N1 1_555 1_555
N1 S1 1_555 1_555
C2 C3 1_555 1_555
C3 C4 1_555 1_555
C4 C1 1_555 1_555
H1 C4 1_555 1_555
H2 C2 1_555 1_555
H3 C2 1_555 1_555
H4 C2 1_555 1_555
N2 C6 1_555 1_555
N3 C5 1_555 1_555
O5 C6 1_555 1_555
C5 C8 1_555 1_555
C6 C8 1_555 1_555
C7 C8 1_555 1_555
C9 C7 1_555 1_555
C10 N3 1_555 1_555
H5 C5 1_555 1_555
H6 C7 1_555 1_555
H7 C9 1_555 1_555
H8 N2 1_555 1_555
H9 C10 1_555 1_555
H10 N2 1_555 1_555
H11 N3 1_555 1_555
O6 H12 1_555 1_555
H12A O6 1_555 1_555
C9 C10 1_555 1_555

#END
