
#######################################################################
#
#                 Cambridge Crystallographic Data Centre
#                                CCDC 
#
#######################################################################
#
# If this CIF has been generated from an entry in the Cambridge 
# Structural Database, then it will include bibliographic, chemical, 
# crystal, experimental, refinement or atomic coordinate data resulting 
# from the CCDC's data processing and validation procedures.
#
#######################################################################

data_CIHFEH
_chemical_formula_moiety         'C4 H4 N1 O4 S1 1-,C4 H6 N3 O1 1+,C4 H5 N3 O1'
_chemical_name_systematic        
'6-amino-2-oxo-2,3-dihydropyrimidin-1-ium 6-methyl-2,2,4-trioxo-2H,4H-1,2,3-oxathiazin-3-ide 4-aminopyrimidin-2(1H)-one'
_symmetry_cell_setting           triclinic
_symmetry_space_group_name_H-M   'P -1'
_symmetry_Int_Tables_number      2
_space_group_name_Hall           '-P 1'
loop_
_symmetry_equiv_pos_site_id
_symmetry_equiv_pos_as_xyz
1 x,y,z
2 -x,-y,-z
_cell_length_a                   7.3700(16)
_cell_length_b                   7.4552(16)
_cell_length_c                   15.238(3)
_cell_angle_alpha                94.854(2)
_cell_angle_beta                 103.246(2)
_cell_angle_gamma                99.728(2)
_cell_volume                     796.591
_exptl_crystal_colour            white
_exptl_crystal_description       Blocks
_cell_formula_units_Z            2
loop_
_atom_site_label
_atom_site_type_symbol
_atom_site_fract_x
_atom_site_fract_y
_atom_site_fract_z
S1 S 0.30497(4) 0.78868(4) 0.10752(2)
O1 O 0.21058(13) 1.20340(13) 0.22357(7)
O2 O 0.08075(13) 0.68990(13) 0.07987(7)
O3 O 0.39673(15) 0.65322(14) 0.15040(7)
N1 N 0.32685(16) 0.96010(16) 0.17879(8)
O4 O 0.34677(15) 0.83461(15) 0.02439(7)
C1 C -0.00550(19) 0.97261(19) 0.11770(9)
C2 C 0.18320(19) 1.05212(18) 0.17525(9)
C3 C -0.2392(2) 0.7110(2) 0.01528(11)
C4 C -0.05134(18) 0.80318(19) 0.07376(9)
H1 H -0.102(2) 1.046(2) 0.1110(11)
H2 H -0.233(3) 0.670(3) -0.0474(14)
H3 H -0.288(3) 0.604(3) 0.0367(14)
H4 H -0.326(3) 0.798(2) 0.0123(12)
O5 O 0.30433(15) 0.84064(15) 0.43592(7)
N2 N 0.05814(16) 0.77485(16) 0.50189(8)
N3 N 0.34154(18) 0.97921(17) 0.57793(8)
C5 C 0.2350(2) 0.86285(19) 0.50288(9)
N4 N -0.18557(18) 0.71812(19) 0.57187(9)
C6 C 0.2725(2) 1.0113(2) 0.65187(9)
C7 C -0.0116(2) 0.80530(19) 0.57481(9)
C8 C 0.0976(2) 0.9279(2) 0.65328(10)
H5 H 0.357(3) 1.097(2) 0.7002(12)
H6 H 0.053(2) 0.946(2) 0.7031(13)
H7 H -0.230(3) 0.739(3) 0.6190(13)
H8 H 0.457(3) 1.034(3) 0.5743(13)
H9 H -0.256(3) 0.643(3) 0.5221(14)
O6 O 0.39803(15) 0.49554(16) 0.60595(8)
N5 N 0.13699(16) 0.44879(16) 0.66337(8)
N6 N -0.13276(17) 0.40382(17) 0.71588(9)
N7 N 0.41629(17) 0.63922(16) 0.74601(8)
C9 C 0.3334(2) 0.67072(19) 0.81534(9)
C10 C 0.04616(19) 0.48042(17) 0.72963(9)
C11 C 0.1519(2) 0.59539(18) 0.81046(9)
C12 C 0.32374(19) 0.52653(19) 0.66809(10)
H10 H 0.410(2) 0.753(2) 0.8659(12)
H11 H 0.096(2) 0.618(2) 0.8580(12)
H12 H -0.197(3) 0.428(2) 0.7536(13)
H13 H -0.190(3) 0.328(3) 0.6647(14)
H14 H 0.537(3) 0.691(3) 0.7518(13)
H15 H 0.078(3) 0.378(3) 0.6100(13)
loop_
_geom_bond_atom_site_label_1
_geom_bond_atom_site_label_2
_geom_bond_site_symmetry_1
_geom_bond_site_symmetry_2
S1 O2 1_555 1_555
O1 C2 1_555 1_555
O2 C4 1_555 1_555
O3 S1 1_555 1_555
N1 S1 1_555 1_555
O4 S1 1_555 1_555
C1 C2 1_555 1_555
C2 N1 1_555 1_555
C3 C4 1_555 1_555
C4 C1 1_555 1_555
H1 C1 1_555 1_555
H2 C3 1_555 1_555
H3 C3 1_555 1_555
H4 C3 1_555 1_555
O5 C5 1_555 1_555
N2 C5 1_555 1_555
N3 C5 1_555 1_555
N4 C7 1_555 1_555
C6 N3 1_555 1_555
C7 N2 1_555 1_555
C8 C6 1_555 1_555
H5 C6 1_555 1_555
H6 C8 1_555 1_555
H7 N4 1_555 1_555
H8 N3 1_555 1_555
H9 N4 1_555 1_555
O6 C12 1_555 1_555
N5 C10 1_555 1_555
N6 C10 1_555 1_555
N7 C9 1_555 1_555
C9 C11 1_555 1_555
C10 C11 1_555 1_555
C11 H11 1_555 1_555
C12 N5 1_555 1_555
H10 C9 1_555 1_555
H12 N6 1_555 1_555
H13 N6 1_555 1_555
H14 N7 1_555 1_555
H15 N5 1_555 1_555
C7 C8 1_555 1_555
N7 C12 1_555 1_555

#END
