
#######################################################################
#
#                 Cambridge Crystallographic Data Centre
#                                CCDC 
#
#######################################################################
#
# If this CIF has been generated from an entry in the Cambridge 
# Structural Database, then it will include bibliographic, chemical, 
# crystal, experimental, refinement or atomic coordinate data resulting 
# from the CCDC's data processing and validation procedures.
#
#######################################################################

data_CIHKIQ
_chemical_formula_moiety         
'3(C19 H34 Cl2 P1 1+),0.5(C6 H6),H5 O2 1+,H3 O1 1+,5(Cl1 1-)'
_chemical_name_systematic        
'tris(tricyclohexyl(dichloromethyl)phosphanium) hydronium oxonium pentakis(chloride) benzene solvate'
_symmetry_cell_setting           monoclinic
_symmetry_space_group_name_H-M   'C 2/c'
_symmetry_Int_Tables_number      15
_space_group_name_Hall           '-C 2yn'
loop_
_symmetry_equiv_pos_site_id
_symmetry_equiv_pos_as_xyz
1 x,y,z
2 -x,y,1/2-z
3 1/2+x,1/2+y,z
4 1/2-x,1/2+y,1/2-z
5 -x,-y,-z
6 x,-y,1/2+z
7 1/2-x,1/2-y,-z
8 1/2+x,1/2-y,1/2+z
_cell_length_a                   27.235(6)
_cell_length_b                   15.953(3)
_cell_length_c                   33.640(7)
_cell_angle_alpha                90
_cell_angle_beta                 106.17(3)
_cell_angle_gamma                90
_cell_volume                     14037.7
_exptl_crystal_colour            colorless
_exptl_crystal_description       block
_cell_formula_units_Z            8
_chemical_properties_physical    Air-sensitive,Moisture-sensitive,Hygroscopic
loop_
_atom_site_label
_atom_site_type_symbol
_atom_site_fract_x
_atom_site_fract_y
_atom_site_fract_z
Cl1 Cl 0.53998(4) 0.45396(6) 0.38940(4)
Cl2 Cl 0.48413(5) 0.49939(7) 0.30534(4)
P1 P 0.44079(4) 0.54342(6) 0.37552(3)
C1 C 0.47858(16) 0.4691(3) 0.35436(12)
H1 H 0.4605 0.4139 0.3509
C2 C 0.43711(14) 0.4960(2) 0.42332(11)
H2 H 0.4728 0.4963 0.4420
C3 C 0.40555(16) 0.5490(3) 0.44535(13)
H3 H 0.4192 0.6068 0.4492
H4 H 0.3696 0.5517 0.4281
C4 C 0.40743(18) 0.5113(2) 0.48710(13)
H5 H 0.4429 0.5141 0.5053
H6 H 0.3855 0.5447 0.5002
C5 C 0.38961(16) 0.4213(3) 0.48320(13)
H7 H 0.3533 0.4187 0.4669
H8 H 0.3924 0.3981 0.5110
C6 C 0.42181(18) 0.3689(2) 0.46207(12)
H9 H 0.4576 0.3677 0.4796
H10 H 0.4088 0.3106 0.4588
C7 C 0.42021(19) 0.4043(2) 0.42012(12)
H11 H 0.3850 0.3999 0.4016
H12 H 0.4429 0.3710 0.4078
C8 C 0.38090(16) 0.5532(2) 0.33533(13)
H13 H 0.3916 0.5644 0.3097
C9 C 0.34888(16) 0.6276(3) 0.33867(15)
H14 H 0.3700 0.6788 0.3408
H15 H 0.3383 0.6228 0.3645
C10 C 0.30177(16) 0.6371(3) 0.30263(13)
H16 H 0.2793 0.6802 0.3095
H17 H 0.3121 0.6572 0.2783
C11 C 0.27217(18) 0.5576(3) 0.29143(16)
H18 H 0.2528 0.5474 0.3119
H19 H 0.2470 0.5649 0.2640
C12 C 0.3034(2) 0.4834(3) 0.28982(19)
H20 H 0.3141 0.4857 0.2640
H21 H 0.2818 0.4329 0.2883
C13 C 0.34991(16) 0.4736(2) 0.32539(13)
H22 H 0.3716 0.4287 0.3189
H23 H 0.3395 0.4560 0.3501
C14 C 0.46915(14) 0.6467(2) 0.38736(11)
H24 H 0.4429 0.6810 0.3957
C15 C 0.47965(15) 0.6938(2) 0.35064(12)
H25 H 0.5080 0.6663 0.3426
H26 H 0.4489 0.6921 0.3266
C16 C 0.49368(16) 0.7843(2) 0.36277(13)
H27 H 0.4640 0.8130 0.3682
H28 H 0.5020 0.8135 0.3395
C17 C 0.53918(15) 0.7898(2) 0.40113(13)
H29 H 0.5700 0.7681 0.3944
H30 H 0.5455 0.8493 0.4093
C18 C 0.53064(16) 0.7406(2) 0.43710(12)
H31 H 0.5026 0.7666 0.4462
H32 H 0.5620 0.7422 0.4606
C19 C 0.51698(15) 0.6494(2) 0.42458(12)
H33 H 0.5105 0.6185 0.4481
H34 H 0.5459 0.6221 0.4172
Cl3 Cl 0.30342(4) 0.28955(6) 0.38158(3)
Cl4 Cl 0.27941(4) 0.22432(7) 0.29769(3)
P2 P 0.30351(4) 0.10513(6) 0.36975(3)
C20 C 0.31544(16) 0.2082(2) 0.34962(12)
H35 H 0.3525 0.2107 0.3506
C21 C 0.31427(14) 0.0296(2) 0.33273(11)
H36 H 0.2912 0.0467 0.3052
C22 C 0.29834(18) -0.0601(2) 0.34031(14)
H37 H 0.3208 -0.0812 0.3668
H38 H 0.2628 -0.0597 0.3424
C23 C 0.30191(18) -0.1179(3) 0.30549(14)
H39 H 0.2931 -0.1756 0.3118
H40 H 0.2767 -0.1000 0.2795
C24 C 0.35427(17) -0.1176(3) 0.29921(14)
H41 H 0.3543 -0.1529 0.2750
H42 H 0.3790 -0.1419 0.3239
C25 C 0.37034(19) -0.0300(3) 0.29228(16)
H43 H 0.3477 -0.0082 0.2660
H44 H 0.4057 -0.0311 0.2898
C26 C 0.36796(17) 0.0286(3) 0.32760(15)
H45 H 0.3925 0.0094 0.3536
H46 H 0.3778 0.0860 0.3216
C27 C 0.34691(14) 0.0990(2) 0.42143(11)
H47 H 0.3363 0.1441 0.4380
C28 C 0.40284(15) 0.1163(3) 0.42359(13)
H48 H 0.4151 0.0733 0.4075
H49 H 0.4056 0.1717 0.4111
C29 C 0.43621(17) 0.1154(3) 0.46824(13)
H50 H 0.4259 0.1618 0.4837
H51 H 0.4724 0.1242 0.4687
C30 C 0.43125(19) 0.0322(3) 0.48928(14)
H52 H 0.4441 -0.0140 0.4752
H53 H 0.4522 0.0338 0.5185
C31 C 0.37557(19) 0.0163(3) 0.48741(14)
H54 H 0.3637 0.0603 0.5033
H55 H 0.3726 -0.0385 0.5004
C32 C 0.34177(18) 0.0163(3) 0.44270(13)
H56 H 0.3519 -0.0306 0.4274
H57 H 0.3057 0.0078 0.4424
C33 C 0.23790(14) 0.0912(2) 0.37211(11)
H58 H 0.2368 0.0333 0.3831
C34 C 0.19779(15) 0.0915(3) 0.32963(12)
H59 H 0.1949 0.1486 0.3176
H60 H 0.2086 0.0530 0.3106
C35 C 0.14591(15) 0.0637(3) 0.33429(14)
H61 H 0.1202 0.0647 0.3069
H62 H 0.1485 0.0054 0.3448
C36 C 0.12873(16) 0.1204(3) 0.36379(13)
H63 H 0.0956 0.1003 0.3669
H64 H 0.1237 0.1779 0.3523
C37 C 0.16817(15) 0.1218(3) 0.40596(13)
H65 H 0.1709 0.0651 0.4184
H66 H 0.1567 0.1609 0.4244
C38 C 0.22075(15) 0.1491(2) 0.40267(12)
H67 H 0.2459 0.1463 0.4303
H68 H 0.2191 0.2078 0.3928
Cl5 Cl 0.49857(5) 0.07196(10) 0.29676(4)
Cl6 Cl 0.50463(4) 0.03367(7) 0.38246(4)
P3 P 0.58951(4) 0.12983(6) 0.36409(3)
C39 C 0.52052(16) 0.1065(3) 0.34811(12)
H69 H 0.5022 0.1600 0.3502
C40 C 0.59950(15) 0.2020(2) 0.32544(13)
H70 H 0.5870 0.1707 0.2988
C41 C 0.5684(2) 0.2821(3) 0.31837(17)
H71 H 0.5809 0.3199 0.3424
H72 H 0.5321 0.2689 0.3156
C42 C 0.5730(2) 0.3252(3) 0.27937(17)
H73 H 0.5567 0.2898 0.2551
H74 H 0.5543 0.3792 0.2761
C43 C 0.6280(2) 0.3415(3) 0.28037(16)
H75 H 0.6292 0.3646 0.2533
H76 H 0.6427 0.3839 0.3019
C44 C 0.6598(2) 0.2633(3) 0.28930(16)
H77 H 0.6960 0.2776 0.2922
H78 H 0.6483 0.2241 0.2657
C45 C 0.65568(17) 0.2203(3) 0.32873(15)
H79 H 0.6703 0.2569 0.3529
H80 H 0.6753 0.1672 0.3328
C46 C 0.60207(16) 0.1673(3) 0.41681(13)
H81 H 0.5955 0.1187 0.4334
C47 C 0.56588(18) 0.2360(3) 0.42190(13)
H82 H 0.5302 0.2158 0.4118
H83 H 0.5696 0.2851 0.4050
C48 C 0.57718(18) 0.2628(3) 0.46820(14)
H84 H 0.5549 0.3105 0.4705
H85 H 0.5695 0.2156 0.4846
C49 C 0.63237(18) 0.2878(3) 0.48513(14)
H86 H 0.6392 0.3379 0.4701
H87 H 0.6391 0.3029 0.5147
C50 C 0.66765(17) 0.2180(3) 0.48085(14)
H88 H 0.6625 0.1693 0.4975
H89 H 0.7035 0.2368 0.4917
C51 C 0.65790(17) 0.1914(3) 0.43572(14)
H90 H 0.6669 0.2381 0.4197
H91 H 0.6800 0.1430 0.4341
C52 C 0.62951(15) 0.0390(2) 0.36400(12)
H92 H 0.6655 0.0598 0.3736
C53 C 0.62590(18) -0.0315(3) 0.39373(14)
H93 H 0.5909 -0.0552 0.3855
H94 H 0.6324 -0.0086 0.4221
C54 C 0.66454(17) -0.1011(3) 0.39371(14)
H95 H 0.6996 -0.0786 0.4047
H96 H 0.6600 -0.1469 0.4122
C55 C 0.65849(18) -0.1357(3) 0.35129(14)
H97 H 0.6248 -0.1633 0.3412
H98 H 0.6853 -0.1781 0.3522
C56 C 0.6627(2) -0.0664(3) 0.32243(16)
H99 H 0.6576 -0.0897 0.2943
H100 H 0.6975 -0.0422 0.3315
C57 C 0.6237(2) 0.0022(3) 0.32095(14)
H101 H 0.5888 -0.0209 0.3099
H102 H 0.6283 0.0472 0.3020
Cl7 Cl 0.71781(4) 0.39197(6) 0.42066(4)
Cl8 Cl 0.88857(4) 0.30179(7) 0.41869(3)
H103 H 0.836(2) 0.273(3) 0.4065(16)
O1 O 0.78368(12) 0.2655(2) 0.39821(10)
H104 H 0.760(3) 0.315(4) 0.411(2)
H105 H 0.7787(19) 0.217(3) 0.4034(15)
Cl9 Cl 0.76674(4) 0.08728(7) 0.41284(4)
Cl10 Cl 0.82958(4) -0.26977(6) 0.50526(3)
Cl11 Cl 0.43287(4) 0.26297(6) 0.33795(3)
O2 O 0.7623(2) 0.0184(3) 0.49575(17)
O3 O 0.75684(16) -0.1312(3) 0.48295(11)
H106 H 0.763(2) 0.039(4) 0.468(2)
H107 H 0.767(3) 0.042(5) 0.517(2)
H108 H 0.761(3) -0.057(7) 0.487(2)
H109 H 0.7842(19) -0.175(3) 0.4919(14)
H110 H 0.732(3) -0.150(4) 0.486(2)
C58 C 0.47388(18) 0.6886(4) 0.24373(13)
H111 H 0.4557 0.6371 0.2389
C59 C 0.4478(2) 0.7627(4) 0.23812(15)
H112 H 0.4114 0.7626 0.2298
C60 C 0.4734(2) 0.8362(4) 0.24433(17)
H113 H 0.4552 0.8877 0.2410
C58A C 0.52612(18) 0.6886(4) 0.25627(13)
H111A H 0.5443 0.6371 0.2611
C59A C 0.5522(2) 0.7627(4) 0.26188(15)
H112A H 0.5886 0.7626 0.2702
C60A C 0.5266(2) 0.8362(4) 0.25567(17)
H113A H 0.5448 0.8877 0.2590
loop_
_geom_bond_atom_site_label_1
_geom_bond_atom_site_label_2
_geom_bond_site_symmetry_1
_geom_bond_site_symmetry_2
Cl1 C1 1_555 1_555
Cl2 C1 1_555 1_555
P1 C1 1_555 1_555
C1 H1 1_555 1_555
C2 P1 1_555 1_555
H2 C2 1_555 1_555
C3 C2 1_555 1_555
H3 C3 1_555 1_555
H4 C3 1_555 1_555
C4 C3 1_555 1_555
H5 C4 1_555 1_555
H6 C4 1_555 1_555
C5 C4 1_555 1_555
H7 C5 1_555 1_555
H8 C5 1_555 1_555
C6 C5 1_555 1_555
H9 C6 1_555 1_555
H10 C6 1_555 1_555
C7 C2 1_555 1_555
H11 C7 1_555 1_555
H12 C7 1_555 1_555
C8 P1 1_555 1_555
H13 C8 1_555 1_555
C9 C8 1_555 1_555
H14 C9 1_555 1_555
H15 C9 1_555 1_555
C10 C9 1_555 1_555
H16 C10 1_555 1_555
H17 C10 1_555 1_555
C11 C10 1_555 1_555
H18 C11 1_555 1_555
H19 C11 1_555 1_555
C12 C11 1_555 1_555
H20 C12 1_555 1_555
H21 C12 1_555 1_555
C13 C8 1_555 1_555
H22 C13 1_555 1_555
H23 C13 1_555 1_555
C14 P1 1_555 1_555
H24 C14 1_555 1_555
C15 C14 1_555 1_555
H25 C15 1_555 1_555
H26 C15 1_555 1_555
C16 C15 1_555 1_555
H27 C16 1_555 1_555
H28 C16 1_555 1_555
C17 C16 1_555 1_555
H29 C17 1_555 1_555
H30 C17 1_555 1_555
C18 C17 1_555 1_555
H31 C18 1_555 1_555
H32 C18 1_555 1_555
C19 C14 1_555 1_555
H33 C19 1_555 1_555
H34 C19 1_555 1_555
Cl3 C20 1_555 1_555
Cl4 C20 1_555 1_555
P2 C20 1_555 1_555
C20 H35 1_555 1_555
C21 P2 1_555 1_555
H36 C21 1_555 1_555
C22 C21 1_555 1_555
H37 C22 1_555 1_555
H38 C22 1_555 1_555
C23 C22 1_555 1_555
H39 C23 1_555 1_555
H40 C23 1_555 1_555
C24 C23 1_555 1_555
H41 C24 1_555 1_555
H42 C24 1_555 1_555
C25 C24 1_555 1_555
H43 C25 1_555 1_555
H44 C25 1_555 1_555
C26 C21 1_555 1_555
H45 C26 1_555 1_555
H46 C26 1_555 1_555
C27 P2 1_555 1_555
H47 C27 1_555 1_555
C28 C27 1_555 1_555
H48 C28 1_555 1_555
H49 C28 1_555 1_555
C29 C28 1_555 1_555
H50 C29 1_555 1_555
H51 C29 1_555 1_555
C30 C29 1_555 1_555
H52 C30 1_555 1_555
H53 C30 1_555 1_555
C31 C30 1_555 1_555
H54 C31 1_555 1_555
H55 C31 1_555 1_555
C32 C27 1_555 1_555
H56 C32 1_555 1_555
H57 C32 1_555 1_555
C33 P2 1_555 1_555
H58 C33 1_555 1_555
C34 C33 1_555 1_555
H59 C34 1_555 1_555
H60 C34 1_555 1_555
C35 C34 1_555 1_555
H61 C35 1_555 1_555
H62 C35 1_555 1_555
C36 C35 1_555 1_555
H63 C36 1_555 1_555
H64 C36 1_555 1_555
C37 C36 1_555 1_555
H65 C37 1_555 1_555
H66 C37 1_555 1_555
C38 C33 1_555 1_555
H67 C38 1_555 1_555
H68 C38 1_555 1_555
Cl5 C39 1_555 1_555
Cl6 C39 1_555 1_555
P3 C39 1_555 1_555
C39 H69 1_555 1_555
C40 P3 1_555 1_555
H70 C40 1_555 1_555
C41 C40 1_555 1_555
H71 C41 1_555 1_555
H72 C41 1_555 1_555
C42 C41 1_555 1_555
H73 C42 1_555 1_555
H74 C42 1_555 1_555
C43 C42 1_555 1_555
H75 C43 1_555 1_555
H76 C43 1_555 1_555
C44 C43 1_555 1_555
H77 C44 1_555 1_555
H78 C44 1_555 1_555
C45 C40 1_555 1_555
H79 C45 1_555 1_555
H80 C45 1_555 1_555
C46 P3 1_555 1_555
H81 C46 1_555 1_555
C47 C46 1_555 1_555
H82 C47 1_555 1_555
H83 C47 1_555 1_555
C48 C47 1_555 1_555
H84 C48 1_555 1_555
H85 C48 1_555 1_555
C49 C48 1_555 1_555
H86 C49 1_555 1_555
H87 C49 1_555 1_555
C50 C49 1_555 1_555
H88 C50 1_555 1_555
H89 C50 1_555 1_555
C51 C46 1_555 1_555
H90 C51 1_555 1_555
H91 C51 1_555 1_555
C52 P3 1_555 1_555
H92 C52 1_555 1_555
C53 C52 1_555 1_555
H93 C53 1_555 1_555
H94 C53 1_555 1_555
C54 C53 1_555 1_555
H95 C54 1_555 1_555
H96 C54 1_555 1_555
C55 C54 1_555 1_555
H97 C55 1_555 1_555
H98 C55 1_555 1_555
C56 C55 1_555 1_555
H99 C56 1_555 1_555
H100 C56 1_555 1_555
C57 C52 1_555 1_555
H101 C57 1_555 1_555
H102 C57 1_555 1_555
H103 O1 1_555 1_555
O1 H104 1_555 1_555
H105 O1 1_555 1_555
O2 H106 1_555 1_555
O3 H108 1_555 1_555
H107 O2 1_555 1_555
H108 O2 1_555 1_555
H109 O3 1_555 1_555
H110 O3 1_555 1_555
C58 H111 1_555 1_555
C59 C58 1_555 1_555
H112 C59 1_555 1_555
C60 C59 1_555 1_555
H113 C60 1_555 1_555
C58A C58 1_555 1_555
H111A C58A 1_555 1_555
C59A C58A 1_555 1_555
H112A C59A 1_555 1_555
C60A C60 1_555 1_555
H113A C60A 1_555 1_555
C6 C7 1_555 1_555
C12 C13 1_555 1_555
C18 C19 1_555 1_555
C25 C26 1_555 1_555
C31 C32 1_555 1_555
C37 C38 1_555 1_555
C44 C45 1_555 1_555
C50 C51 1_555 1_555
C56 C57 1_555 1_555
C59A C60A 1_555 1_555

#END
