
#######################################################################
#
#                 Cambridge Crystallographic Data Centre
#                                CCDC 
#
#######################################################################
#
# If this CIF has been generated from an entry in the Cambridge 
# Structural Database, then it will include bibliographic, chemical, 
# crystal, experimental, refinement or atomic coordinate data resulting 
# from the CCDC's data processing and validation procedures.
#
#######################################################################

data_CIHPUH
_chemical_formula_moiety         'C38 H16 B2 F18 O1 S2'
_chemical_name_systematic        
2,8-diphenyl-4,6-bis(2,4,6-tris(trifluoromethyl)phenyl)-4,6-dihydrobisthieno[3,2-c:2',3'-e][1,2,7]oxadiborepine
_symmetry_cell_setting           orthorhombic
_symmetry_space_group_name_H-M   'P b c a'
_symmetry_Int_Tables_number      61
_space_group_name_Hall           '-P 2ac 2ab'
loop_
_symmetry_equiv_pos_site_id
_symmetry_equiv_pos_as_xyz
1 x,y,z
2 1/2-x,-y,1/2+z
3 -x,1/2+y,1/2-z
4 1/2+x,1/2-y,-z
5 -x,-y,-z
6 1/2+x,y,1/2-z
7 x,1/2-y,1/2+z
8 1/2-x,1/2+y,z
_cell_length_a                   9.2316(3)
_cell_length_b                   24.6720(8)
_cell_length_c                   32.5936(10)
_cell_angle_alpha                90
_cell_angle_beta                 90
_cell_angle_gamma                90
_cell_volume                     7423.58
_exptl_crystal_colour            yellow
_exptl_crystal_description       prismatic
_cell_formula_units_Z            8
loop_
_atom_site_label
_atom_site_type_symbol
_atom_site_fract_x
_atom_site_fract_y
_atom_site_fract_z
S1 S 0.47435(7) 0.60740(2) 0.50149(2)
S2 S 0.28714(7) 0.50851(2) 0.52686(2)
O1 O 0.61101(19) 0.55217(7) 0.63885(5)
B1 B 0.6574(3) 0.59441(11) 0.61516(8)
B2 B 0.5111(3) 0.51159(12) 0.63479(8)
C1 C 0.5010(3) 0.57889(10) 0.54937(7)
C2 C 0.6078(3) 0.60655(10) 0.57108(7)
C3 C 0.6647(3) 0.65041(10) 0.54764(7)
H1 H 0.7392 0.6735 0.5576
C4 C 0.6041(3) 0.65680(10) 0.50973(7)
C5 C 0.6330(3) 0.69867(9) 0.47873(7)
C6 C 0.7687(3) 0.72304(10) 0.47694(7)
H2 H 0.8426 0.7120 0.4954
C7 C 0.7974(3) 0.76336(11) 0.44842(8)
H3 H 0.8905 0.7796 0.4474
C8 C 0.6905(3) 0.77991(12) 0.42146(8)
H4 H 0.7100 0.8077 0.4020
C9 C 0.5554(3) 0.75601(12) 0.42289(8)
H5 H 0.4817 0.7674 0.4045
C10 C 0.5269(3) 0.71544(11) 0.45112(8)
H6 H 0.4340 0.6989 0.4517
C11 C 0.4141(3) 0.53257(10) 0.56103(7)
C12 C 0.4128(3) 0.50266(10) 0.59750(7)
C13 C 0.3060(3) 0.46105(10) 0.59578(7)
H7 H 0.2892 0.4368 0.6179
C14 C 0.2295(3) 0.45848(10) 0.56005(7)
C15 C 0.1136(3) 0.42095(10) 0.54794(7)
C16 C 0.0622(3) 0.41947(11) 0.50763(8)
H8 H 0.1014 0.4435 0.4877
C17 C -0.0456(3) 0.38329(12) 0.49649(10)
H9 H -0.0800 0.3829 0.4690
C18 C -0.1032(3) 0.34798(12) 0.52462(10)
H10 H -0.1758 0.3228 0.5167
C19 C -0.0543(3) 0.34947(12) 0.56456(10)
H11 H -0.0948 0.3255 0.5843
C20 C 0.0530(3) 0.38549(12) 0.57628(8)
H12 H 0.0855 0.3860 0.6039
C21 C 0.7730(3) 0.63194(10) 0.63839(7)
C22 C 0.9177(3) 0.61597(10) 0.64328(7)
C23 C 1.0176(3) 0.64670(12) 0.66504(8)
H13 H 1.1149 0.6346 0.6676
C24 C 0.9754(3) 0.69472(13) 0.68285(8)
C25 C 0.8334(4) 0.71211(12) 0.67895(8)
H14 H 0.8036 0.7452 0.6912
C26 C 0.7349(3) 0.68111(11) 0.65707(8)
C27 C 0.5828(4) 0.70257(13) 0.65355(10)
C28 C 0.9716(3) 0.56371(12) 0.62579(9)
C29 C 1.0852(5) 0.72861(18) 0.70453(11)
C30 C 0.5109(3) 0.47361(10) 0.67479(7)
C31 C 0.5821(3) 0.42337(11) 0.67601(8)
C32 C 0.6009(4) 0.39457(12) 0.71207(9)
H15 H 0.6507 0.3609 0.7118
C33 C 0.5474(4) 0.41491(12) 0.74833(9)
C34 C 0.4721(3) 0.46308(12) 0.74863(8)
H16 H 0.4323 0.4765 0.7735
C35 C 0.4545(3) 0.49203(11) 0.71237(7)
C36 C 0.3782(3) 0.54505(13) 0.71546(8)
C37 C 0.6434(4) 0.39942(14) 0.63751(10)
C38 C 0.5749(5) 0.38484(16) 0.78775(10)
F1 F 0.5449(3) 0.73215(13) 0.68459(9)
F2 F 0.5701(3) 0.73432(10) 0.62006(9)
F3 F 0.4844(2) 0.66433(8) 0.64756(7)
F4 F 0.88967(18) 0.54503(7) 0.59506(5)
F5 F 0.9788(3) 0.52482(8) 0.65345(6)
F6 F 1.1056(2) 0.56916(9) 0.61025(7)
F7 F 1.1688(4) 0.70029(15) 0.72859(12)
F8 F 1.0297(3) 0.76527(11) 0.72839(9)
F9 F 1.1729(5) 0.7520(2) 0.67984(10)
F10 F 0.4649(3) 0.58437(8) 0.72869(8)
F11 F 0.3274(2) 0.56295(8) 0.67955(5)
F12 F 0.2688(3) 0.54353(11) 0.74143(8)
F13 F 0.7007(3) 0.43531(9) 0.61295(7)
F14 F 0.5387(3) 0.37678(11) 0.61408(7)
F15 F 0.7328(3) 0.35884(10) 0.64427(7)
F16 F 0.4768(8) 0.34636(18) 0.79313(14)
F17 F 0.7053(10) 0.3722(7) 0.7929(4)
F18 F 0.5229(17) 0.4145(3) 0.82116(17)
F19? F 0.4650(10) 0.3741(7) 0.8077(4)
F20? F 0.6582(11) 0.3401(3) 0.7823(2)
F21? F 0.6424(12) 0.4140(3) 0.8138(2)
loop_
_geom_bond_atom_site_label_1
_geom_bond_atom_site_label_2
_geom_bond_site_symmetry_1
_geom_bond_site_symmetry_2
S1 C1 1_555 1_555
S2 C11 1_555 1_555
O1 B1 1_555 1_555
B1 C2 1_555 1_555
B2 O1 1_555 1_555
C1 C2 1_555 1_555
C2 C3 1_555 1_555
C3 H1 1_555 1_555
C4 S1 1_555 1_555
C5 C4 1_555 1_555
C6 C5 1_555 1_555
H2 C6 1_555 1_555
C7 C6 1_555 1_555
H3 C7 1_555 1_555
C8 C7 1_555 1_555
H4 C8 1_555 1_555
C9 C8 1_555 1_555
H5 C9 1_555 1_555
C10 C5 1_555 1_555
H6 C10 1_555 1_555
C11 C1 1_555 1_555
C12 B2 1_555 1_555
C13 C12 1_555 1_555
H7 C13 1_555 1_555
C14 S2 1_555 1_555
C15 C14 1_555 1_555
C16 C15 1_555 1_555
H8 C16 1_555 1_555
C17 C16 1_555 1_555
H9 C17 1_555 1_555
C18 C17 1_555 1_555
H10 C18 1_555 1_555
C19 C18 1_555 1_555
H11 C19 1_555 1_555
C20 C15 1_555 1_555
H12 C20 1_555 1_555
C21 B1 1_555 1_555
C22 C21 1_555 1_555
C23 C22 1_555 1_555
H13 C23 1_555 1_555
C24 C23 1_555 1_555
C25 C24 1_555 1_555
H14 C25 1_555 1_555
C26 C21 1_555 1_555
C27 C26 1_555 1_555
C28 C22 1_555 1_555
C29 C24 1_555 1_555
C30 B2 1_555 1_555
C31 C30 1_555 1_555
C32 C31 1_555 1_555
H15 C32 1_555 1_555
C33 C32 1_555 1_555
C34 C33 1_555 1_555
H16 C34 1_555 1_555
C35 C30 1_555 1_555
C36 C35 1_555 1_555
C37 C31 1_555 1_555
C38 C33 1_555 1_555
F1 C27 1_555 1_555
F2 C27 1_555 1_555
F3 C27 1_555 1_555
F4 C28 1_555 1_555
F5 C28 1_555 1_555
F6 C28 1_555 1_555
F7 C29 1_555 1_555
F8 C29 1_555 1_555
F9 C29 1_555 1_555
F10 C36 1_555 1_555
F11 C36 1_555 1_555
F12 C36 1_555 1_555
F13 C37 1_555 1_555
F14 C37 1_555 1_555
F15 C37 1_555 1_555
F16 C38 1_555 1_555
F17 C38 1_555 1_555
F18 C38 1_555 1_555
C3 C4 1_555 1_555
C9 C10 1_555 1_555
C11 C12 1_555 1_555
C13 C14 1_555 1_555
C19 C20 1_555 1_555
C25 C26 1_555 1_555
C34 C35 1_555 1_555

#END
