
#######################################################################
#
#                 Cambridge Crystallographic Data Centre
#                                CCDC 
#
#######################################################################
#
# If this CIF has been generated from an entry in the Cambridge 
# Structural Database, then it will include bibliographic, chemical, 
# crystal, experimental, refinement or atomic coordinate data resulting 
# from the CCDC's data processing and validation procedures.
#
#######################################################################

data_CIHWUO
_chemical_formula_moiety         'C34 H12 B2 F18 O1 S4'
_chemical_name_systematic        
2,8-bis(thiophen-2-yl)-4,6-bis(2,4,6-tris(trifluoromethyl)phenyl)-4,6-dihydrobisthieno[3,2-c:2',3'-e][1,2,7]oxadiborepine
_symmetry_cell_setting           monoclinic
_symmetry_space_group_name_H-M   'P 21/c'
_symmetry_Int_Tables_number      14
_space_group_name_Hall           '-P 2ybc'
loop_
_symmetry_equiv_pos_site_id
_symmetry_equiv_pos_as_xyz
1 x,y,z
2 -x,1/2+y,1/2-z
3 -x,-y,-z
4 x,1/2-y,1/2+z
_cell_length_a                   15.4128(8)
_cell_length_b                   15.3848(8)
_cell_length_c                   16.3220(8)
_cell_angle_alpha                90
_cell_angle_beta                 111.557(2)
_cell_angle_gamma                90
_cell_volume                     3599.6
_exptl_crystal_colour            colorless
_exptl_crystal_description       prismatic
_cell_formula_units_Z            4
loop_
_atom_site_label
_atom_site_type_symbol
_atom_site_fract_x
_atom_site_fract_y
_atom_site_fract_z
S1 S 0.64826(4) 0.57093(5) 0.67395(4)
S2 S 0.34909(4) 0.52687(3) 0.54233(3)
S3 S 0.14131(3) 0.47240(3) 0.46897(3)
S4 S -0.12503(5) 0.33967(5) 0.35337(5)
O1 O 0.31393(9) 0.26969(9) 0.69905(9)
B1 B 0.38663(16) 0.32682(14) 0.71707(15)
B2 B 0.22616(16) 0.26455(14) 0.63653(15)
C1 C 0.68046(18) 0.64906(17) 0.61662(17)
H1 H 0.7424 0.6701 0.6324
C2 C 0.60817(17) 0.67744(15) 0.54656(16)
H2 H 0.6136 0.7209 0.5074
C3 C 0.52265(15) 0.63581(13) 0.53696(14)
H3 H 0.4648 0.6480 0.4909
C4 C 0.53375(14) 0.57540(13) 0.60281(13)
C5 C 0.46368(14) 0.51860(13) 0.61389(13)
C6 C 0.47305(14) 0.45320(13) 0.67318(13)
H4 H 0.5308 0.4399 0.7188
C7 C 0.38914(14) 0.40638(13) 0.66110(13)
C8 C 0.31483(14) 0.43992(12) 0.59046(13)
C9 C 0.21922(14) 0.41072(12) 0.55214(13)
C10 C 0.17790(14) 0.33519(13) 0.56783(13)
C11 C 0.08258(14) 0.33024(13) 0.50974(13)
H5 H 0.0434 0.2828 0.5104
C12 C 0.05199(14) 0.39863(13) 0.45316(13)
C13 C -0.03842(14) 0.41624(14) 0.38556(14)
C14 C -0.06818(15) 0.49182(14) 0.33795(15)
H6 H -0.0307 0.5424 0.3458
C15 C -0.16054(17) 0.48562(17) 0.27625(18)
H7 H -0.1917 0.5315 0.2377
C16 C -0.19931(17) 0.40848(19) 0.27791(18)
H8 H -0.2612 0.3935 0.2412
C17 C 0.47911(14) 0.30970(13) 0.80277(13)
C18 C 0.49486(14) 0.35143(13) 0.88362(13)
C19 C 0.57888(16) 0.34522(15) 0.95466(14)
H9 H 0.5870 0.3748 1.0080
C20 C 0.65058(15) 0.29584(15) 0.94747(15)
C21 C 0.63804(15) 0.25221(15) 0.86987(14)
H10 H 0.6867 0.2172 0.8650
C22 C 0.55381(14) 0.25988(14) 0.79886(14)
C23 C 0.54857(15) 0.21416(15) 0.71637(15)
C24 C 0.42053(16) 0.40786(14) 0.89462(14)
C25 C 0.74227(18) 0.28914(19) 1.02342(17)
C26 C 0.17269(14) 0.17457(13) 0.63772(13)
C27 C 0.19004(15) 0.09872(14) 0.59898(14)
C28 C 0.14734(17) 0.01991(14) 0.60183(16)
H11 H 0.1614 -0.0302 0.5751
C29 C 0.08416(18) 0.01481(15) 0.64392(17)
C30 C 0.06389(16) 0.08796(14) 0.68245(16)
H12 H 0.0203 0.0848 0.7111
C31 C 0.10741(14) 0.16625(13) 0.67919(14)
C32 C 0.08040(16) 0.24303(14) 0.72129(15)
C33 C 0.26003(18) 0.09712(15) 0.55434(16)
C34 C 0.0416(2) -0.07144(18) 0.6501(2)
F1 F 0.61274(13) 0.24419(14) 0.68630(11)
F2 F 0.46747(11) 0.22385(12) 0.65040(9)
F3 F 0.56602(14) 0.13040(10) 0.72860(11)
F4 F 0.42572(13) 0.48957(9) 0.86984(12)
F5 F 0.33484(9) 0.38017(10) 0.84709(10)
F6 F 0.42611(10) 0.41180(11) 0.97760(9)
F7 F 0.8117(2) 0.3166(4) 0.9994(2)
F8 F 0.7646(4) 0.2135(3) 1.0503(4)
F9 F 0.7477(3) 0.3450(4) 1.0879(2)
F10 F 0.00110(11) 0.27917(11) 0.66886(12)
F11 F 0.06997(12) 0.22232(10) 0.79612(11)
F12 F 0.14466(10) 0.30638(9) 0.74160(10)
F13 F 0.34195(13) 0.06535(14) 0.60757(13)
F14 F 0.27778(11) 0.17538(9) 0.53081(11)
F15 F 0.23360(15) 0.04733(13) 0.48380(13)
F16 F 0.02955(18) -0.12162(12) 0.58127(16)
F17 F -0.04107(19) -0.06426(14) 0.6550(2)
F18 F 0.0916(2) -0.11434(16) 0.71910(19)
F19? F 0.8025(3) 0.2335(6) 1.0090(3)
F20? F 0.7335(3) 0.2431(5) 1.0901(3)
F21? F 0.7815(5) 0.3595(5) 1.0510(6)
loop_
_geom_bond_atom_site_label_1
_geom_bond_atom_site_label_2
_geom_bond_site_symmetry_1
_geom_bond_site_symmetry_2
S1 C1 1_555 1_555
S2 C5 1_555 1_555
S3 C9 1_555 1_555
S4 C13 1_555 1_555
O1 B1 1_555 1_555
B1 C7 1_555 1_555
B2 O1 1_555 1_555
C1 H1 1_555 1_555
C2 C1 1_555 1_555
H2 C2 1_555 1_555
C3 C2 1_555 1_555
H3 C3 1_555 1_555
C4 S1 1_555 1_555
C5 C4 1_555 1_555
C6 C5 1_555 1_555
H4 C6 1_555 1_555
C7 C6 1_555 1_555
C8 S2 1_555 1_555
C9 C8 1_555 1_555
C10 B2 1_555 1_555
C11 C10 1_555 1_555
H5 C11 1_555 1_555
C12 S3 1_555 1_555
C13 C12 1_555 1_555
C14 C13 1_555 1_555
H6 C14 1_555 1_555
C15 C14 1_555 1_555
H7 C15 1_555 1_555
C16 S4 1_555 1_555
H8 C16 1_555 1_555
C17 B1 1_555 1_555
C18 C17 1_555 1_555
C19 C18 1_555 1_555
H9 C19 1_555 1_555
C20 C19 1_555 1_555
C21 C20 1_555 1_555
H10 C21 1_555 1_555
C22 C17 1_555 1_555
C23 C22 1_555 1_555
C24 C18 1_555 1_555
C25 C20 1_555 1_555
C26 B2 1_555 1_555
C27 C26 1_555 1_555
C28 C27 1_555 1_555
H11 C28 1_555 1_555
C29 C28 1_555 1_555
C30 C29 1_555 1_555
H12 C30 1_555 1_555
C31 C26 1_555 1_555
C32 C31 1_555 1_555
C33 C27 1_555 1_555
C34 C29 1_555 1_555
F1 C23 1_555 1_555
F2 C23 1_555 1_555
F3 C23 1_555 1_555
F4 C24 1_555 1_555
F5 C24 1_555 1_555
F6 C24 1_555 1_555
F7 C25 1_555 1_555
F8 C25 1_555 1_555
F9 C25 1_555 1_555
F10 C32 1_555 1_555
F11 C32 1_555 1_555
F12 C32 1_555 1_555
F13 C33 1_555 1_555
F14 C33 1_555 1_555
F15 C33 1_555 1_555
F16 C34 1_555 1_555
F17 C34 1_555 1_555
F18 C34 1_555 1_555
C3 C4 1_555 1_555
C7 C8 1_555 1_555
C9 C10 1_555 1_555
C11 C12 1_555 1_555
C15 C16 1_555 1_555
C21 C22 1_555 1_555
C30 C31 1_555 1_555

#END
