
#######################################################################
#
#                 Cambridge Crystallographic Data Centre
#                                CCDC 
#
#######################################################################
#
# If this CIF has been generated from an entry in the Cambridge 
# Structural Database, then it will include bibliographic, chemical, 
# crystal, experimental, refinement or atomic coordinate data resulting 
# from the CCDC's data processing and validation procedures.
#
#######################################################################

data_CIJMEQ
_chemical_name_common            'Thiacalix[4]-bis-crown-5 monohydrate'
_chemical_formula_moiety         'C40 H44 O10 S4,H2 O1'
_chemical_name_systematic        
'11,12,14,15,17,18,20,21,33,34,36,37,39,40,42,43-hexadecahydro-1,23:9,31-diepithiotetrabenzo-[n,q,f1,i1]-[1,4,7,10,13,19,22,25,28,31,16,34]-decaoxadithiacyclohexatriacontine monohydrate'
_symmetry_cell_setting           monoclinic
_symmetry_space_group_name_H-M   'P 21/n'
_symmetry_Int_Tables_number      14
_space_group_name_Hall           '-P 2yn'
loop_
_symmetry_equiv_pos_site_id
_symmetry_equiv_pos_as_xyz
1 x,y,z
2 1/2-x,1/2+y,1/2-z
3 -x,-y,-z
4 1/2+x,1/2-y,1/2+z
_cell_length_a                   17.178(5)
_cell_length_b                   11.151(3)
_cell_length_c                   22.805(6)
_cell_angle_alpha                90
_cell_angle_beta                 108.078(6)
_cell_angle_gamma                90
_cell_volume                     4152.7
_exptl_crystal_colour            colorless
_exptl_crystal_description       block
_cell_formula_units_Z            4
loop_
_atom_site_label
_atom_site_type_symbol
_atom_site_fract_x
_atom_site_fract_y
_atom_site_fract_z
O1 O 0.4453(3) 1.1823(4) 0.2742(2)
O2 O 0.3530(11) 1.3720(12) 0.1638(4)
O3 O 0.3399(8) 1.2499(10) 0.0425(4)
O4 O 0.3864(4) 1.0015(6) 0.0164(3)
O5 O 0.4885(2) 0.9116(4) 0.1702(2)
O6 O 0.6330(3) 1.0339(4) 0.30095(19)
O7 O 0.7725(4) 0.9171(6) 0.4380(3)
O8 O 0.6697(4) 0.7069(7) 0.4673(4)
O9 O 0.4915(4) 0.6321(6) 0.4196(3)
O10 O 0.4315(3) 0.8659(4) 0.3099(2)
S1 S 0.33678(13) 1.0689(2) 0.34577(10)
S2 S 0.38206(11) 0.70734(17) 0.19196(11)
S3 S 0.67483(10) 0.91811(15) 0.19223(9)
S4 S 0.61356(14) 1.30313(17) 0.32541(10)
C1 C 0.3186(4) 0.9999(7) 0.2732(3)
C2 C 0.2510(5) 1.0397(8) 0.2253(4)
H1 H 0.2224 1.1095 0.2310
C3 C 0.2261(5) 0.9811(8) 0.1718(4)
H2 H 0.1780 1.0060 0.1405
C4 C 0.2706(5) 0.8834(8) 0.1617(4)
H3 H 0.2538 0.8443 0.1228
C5 C 0.3389(4) 0.8422(6) 0.2071(3)
C6 C 0.3631(4) 0.9016(6) 0.2638(3)
C7 C 0.4895(4) 0.7222(5) 0.2188(3)
C8 C 0.5306(4) 0.8164(5) 0.2013(3)
C9 C 0.6162(4) 0.8139(5) 0.2190(3)
C10 C 0.6584(4) 0.7198(6) 0.2525(3)
H4 H 0.7165 0.7187 0.2643
C11 C 0.6175(5) 0.6272(7) 0.2692(4)
H5 H 0.6471 0.5624 0.2928
C12 C 0.5343(5) 0.6283(6) 0.2518(4)
H6 H 0.5063 0.5626 0.2628
C13 C 0.6376(4) 1.0627(5) 0.1989(3)
C14 C 0.6273(4) 1.1375(6) 0.1480(3)
H7 H 0.6328 1.1061 0.1107
C15 C 0.6092(5) 1.2572(7) 0.1519(4)
H8 H 0.6021 1.3084 0.1174
C16 C 0.6014(5) 1.3026(6) 0.2063(4)
H9 H 0.5890 1.3851 0.2090
C17 C 0.6114(4) 1.2290(6) 0.2565(3)
C18 C 0.6289(4) 1.1073(5) 0.2529(3)
C19 C 0.5587(5) 1.2167(6) 0.3643(3)
C20 C 0.5956(6) 1.2079(8) 0.4272(4)
H10 H 0.6493 1.2379 0.4461
C21 C 0.5525(6) 1.1545(10) 0.4619(4)
H11 H 0.5764 1.1503 0.5054
C22 C 0.4767(6) 1.1077(8) 0.4357(4)
H12 H 0.4492 1.0690 0.4607
C23 C 0.4390(4) 1.1163(6) 0.3718(3)
C24 C 0.4805(4) 1.1723(6) 0.3365(3)
C25 C 0.3947(6) 1.2854(8) 0.2551(4)
H13 H 0.4251 1.3593 0.2725
H14 H 0.3455 1.2799 0.2688
C26 C 0.3709(10) 1.2863(16) 0.1856(6)
H15 H 0.4177 1.2558 0.1734
H16 H 0.3249 1.2296 0.1693
C27 C 0.3352(10) 1.4145(13) 0.1072(6)
H17 H 0.3832 1.4626 0.1062
H18 H 0.2898 1.4720 0.1024
C28 C 0.3131(14) 1.3440(15) 0.0523(6)
H19 H 0.2535 1.3306 0.0423
H20 H 0.3198 1.3983 0.0198
C29 C 0.3318(11) 1.1913(14) -0.0110(5)
H21 H 0.2833 1.2270 -0.0417
H22 H 0.3797 1.2152 -0.0237
C30 C 0.3249(15) 1.0794(19) -0.0192(9)
H23 H 0.3191 1.0640 -0.0631
H24 H 0.2727 1.0551 -0.0128
C31 C 0.4165(6) 1.0118(8) 0.0797(4)
H25 H 0.3707 1.0218 0.0971
H26 H 0.4526 1.0829 0.0912
C32 C 0.4642(5) 0.8991(7) 0.1052(4)
H27 H 0.4294 0.8271 0.0920
H28 H 0.5127 0.8917 0.0907
C33 C 0.4186(5) 0.7705(8) 0.3464(4)
H29 H 0.3960 0.7001 0.3201
H30 H 0.3793 0.7947 0.3681
C34 C 0.5000(5) 0.7399(8) 0.3922(4)
H31 H 0.5422 0.7326 0.3711
H32 H 0.5170 0.8037 0.4238
C35 C 0.5612(9) 0.5711(11) 0.4478(8)
H33 H 0.5457 0.5117 0.4745
H34 H 0.5730 0.5243 0.4147
C36 C 0.6326(9) 0.6140(14) 0.4816(8)
H35 H 0.6268 0.6317 0.5226
H36 H 0.6718 0.5465 0.4878
C37 C 0.7455(15) 0.711(3) 0.4748(15)
H37 H 0.7556 0.6674 0.4400
H38 H 0.7737 0.6654 0.5129
C38 C 0.7835(8) 0.8247(13) 0.4794(6)
H39 H 0.7750 0.8617 0.5164
H40 H 0.8428 0.8066 0.4910
C39 C 0.6998(5) 0.9270(7) 0.3903(4)
H41 H 0.6552 0.9527 0.4065
H42 H 0.6847 0.8486 0.3695
C40 C 0.7117(5) 1.0179(7) 0.3456(3)
H43 H 0.7319 1.0944 0.3669
H44 H 0.7518 0.9887 0.3257
O11 O 0.9752(6) 0.0708(8) 0.4366(6)
H45? H 0.2768 1.1539 -0.0240
H46? H 0.3319 1.2527 -0.0424
C41? C 0.3834(17) 1.110(2) -0.0141(10)
H47? H 0.4387 1.1458 0.0011
H48? H 0.3731 1.0911 -0.0583
C42? C 0.7370(15) 0.763(3) 0.5032(15)
H49? H 0.7191 0.8176 0.5308
H50? H 0.7720 0.7010 0.5299
H51? H 0.8107 0.7624 0.4617
H52? H 0.8267 0.8554 0.5160
loop_
_geom_bond_atom_site_label_1
_geom_bond_atom_site_label_2
_geom_bond_site_symmetry_1
_geom_bond_site_symmetry_2
O1 C24 1_555 1_555
O2 C26 1_555 1_555
O3 C28 1_555 1_555
O4 C30 1_555 1_555
O5 C8 1_555 1_555
O6 C18 1_555 1_555
O7 C38 1_555 1_555
O8 C36 1_555 1_555
O9 C34 1_555 1_555
O10 C6 1_555 1_555
S1 C1 1_555 1_555
S2 C5 1_555 1_555
S3 C9 1_555 1_555
S4 C17 1_555 1_555
C1 C2 1_555 1_555
C2 H1 1_555 1_555
C3 C2 1_555 1_555
H2 C3 1_555 1_555
C4 C3 1_555 1_555
H3 C4 1_555 1_555
C5 C4 1_555 1_555
C6 C1 1_555 1_555
C7 S2 1_555 1_555
C8 C7 1_555 1_555
C9 C8 1_555 1_555
C10 C9 1_555 1_555
H4 C10 1_555 1_555
C11 C10 1_555 1_555
H5 C11 1_555 1_555
C12 C7 1_555 1_555
H6 C12 1_555 1_555
C13 S3 1_555 1_555
C14 C13 1_555 1_555
H7 C14 1_555 1_555
C15 C14 1_555 1_555
H8 C15 1_555 1_555
C16 C15 1_555 1_555
H9 C16 1_555 1_555
C17 C16 1_555 1_555
C18 C13 1_555 1_555
C19 S4 1_555 1_555
C20 C19 1_555 1_555
H10 C20 1_555 1_555
C21 C20 1_555 1_555
H11 C21 1_555 1_555
C22 C21 1_555 1_555
H12 C22 1_555 1_555
C23 S1 1_555 1_555
C24 C19 1_555 1_555
C25 O1 1_555 1_555
H13 C25 1_555 1_555
H14 C25 1_555 1_555
C26 C25 1_555 1_555
H15 C26 1_555 1_555
H16 C26 1_555 1_555
C27 O2 1_555 1_555
H17 C27 1_555 1_555
H18 C27 1_555 1_555
C28 C27 1_555 1_555
H19 C28 1_555 1_555
H20 C28 1_555 1_555
C29 O3 1_555 1_555
H21 C29 1_555 1_555
H22 C29 1_555 1_555
C30 C29 1_555 1_555
H23 C30 1_555 1_555
H24 C30 1_555 1_555
C31 O4 1_555 1_555
H25 C31 1_555 1_555
H26 C31 1_555 1_555
C32 O5 1_555 1_555
H27 C32 1_555 1_555
H28 C32 1_555 1_555
C33 O10 1_555 1_555
H29 C33 1_555 1_555
H30 C33 1_555 1_555
C34 C33 1_555 1_555
H31 C34 1_555 1_555
H32 C34 1_555 1_555
C35 O9 1_555 1_555
H33 C35 1_555 1_555
H34 C35 1_555 1_555
C36 C35 1_555 1_555
H35 C36 1_555 1_555
H36 C36 1_555 1_555
C37 O8 1_555 1_555
H37 C37 1_555 1_555
H38 C37 1_555 1_555
C38 C37 1_555 1_555
H39 C38 1_555 1_555
H40 C38 1_555 1_555
C39 O7 1_555 1_555
H41 C39 1_555 1_555
H42 C39 1_555 1_555
C40 O6 1_555 1_555
H43 C40 1_555 1_555
H44 C40 1_555 1_555
C5 C6 1_555 1_555
C11 C12 1_555 1_555
C17 C18 1_555 1_555
C22 C23 1_555 1_555
C23 C24 1_555 1_555
C31 C32 1_555 1_555
C39 C40 1_555 1_555

#END
