
#######################################################################
#
#                 Cambridge Crystallographic Data Centre
#                                CCDC 
#
#######################################################################
#
# If this CIF has been generated from an entry in the Cambridge 
# Structural Database, then it will include bibliographic, chemical, 
# crystal, experimental, refinement or atomic coordinate data resulting 
# from the CCDC's data processing and validation procedures.
#
#######################################################################

data_CIJNUG
_chemical_formula_moiety         'C17 H10 Br2 O3'
_chemical_name_systematic        
2,10-Dibromo-5a,6-dihydro-12H-chromeno[2,3-c][1]benzoxepin-12-one
_symmetry_cell_setting           monoclinic
_symmetry_space_group_name_H-M   'P 21/c'
_symmetry_Int_Tables_number      14
_space_group_name_Hall           '-P 2ybc'
loop_
_symmetry_equiv_pos_site_id
_symmetry_equiv_pos_as_xyz
1 x,y,z
2 -x,1/2+y,1/2-z
3 -x,-y,-z
4 x,1/2-y,1/2+z
_cell_length_a                   4.28210(10)
_cell_length_b                   13.1164(3)
_cell_length_c                   26.6831(6)
_cell_angle_alpha                90
_cell_angle_beta                 90.3650(10)
_cell_angle_gamma                90
_cell_volume                     1498.65
_exptl_crystal_colour            colorless
_exptl_crystal_description       Acicular
_cell_formula_units_Z            4
loop_
_atom_site_label
_atom_site_type_symbol
_atom_site_fract_x
_atom_site_fract_y
_atom_site_fract_z
Br1 Br 0.73767(12) 0.81694(4) 0.672078(17)
Br2 Br -0.04562(13) 1.01576(4) 0.228624(17)
O1 O 0.2857(6) 0.67875(19) 0.37194(10)
O2 O 0.2567(6) 0.63084(18) 0.48091(10)
O3 O -0.2156(9) 0.9368(3) 0.42180(12)
C1 C 0.2578(10) 0.8350(3) 0.26097(16)
H1 H 0.3375 0.8336 0.2286
C2 C 0.3310(9) 0.7587(3) 0.29428(15)
H2 H 0.4604 0.7055 0.2844
C3 C 0.2141(8) 0.7603(3) 0.34216(15)
C4 C 0.0326(8) 0.8432(3) 0.35890(14)
C5 C -0.0610(9) 0.8616(3) 0.41150(15)
C6 C 0.0559(9) 0.7959(3) 0.45301(15)
C7 C 0.1808(10) 0.8399(3) 0.49321(15)
H3 H 0.1862 0.9106 0.4954
C8 C 0.3098(9) 0.7783(3) 0.53391(14)
C9 C 0.4272(10) 0.8191(3) 0.57805(15)
H4 H 0.4114 0.8888 0.5839
C10 C 0.5666(9) 0.7575(3) 0.61328(14)
C11 C 0.0680(9) 0.9128(3) 0.27557(14)
C12 C 0.0324(9) 0.6384(3) 0.40003(14)
H5 H 0.0539 0.5649 0.4022
H6 H -0.1621 0.6531 0.3827
C13 C 0.0200(8) 0.6820(3) 0.45157(15)
H7 H -0.1838 0.6650 0.4658
C14 C 0.3409(9) 0.6737(3) 0.52598(14)
C15 C 0.4784(10) 0.6113(3) 0.56158(16)
H8 H 0.4940 0.5415 0.5560
C16 C 0.5922(10) 0.6536(3) 0.60541(16)
H9 H 0.6858 0.6124 0.6296
C17 C -0.0409(9) 0.9189(3) 0.32390(15)
H10 H -0.1645 0.9739 0.3333
loop_
_geom_bond_atom_site_label_1
_geom_bond_atom_site_label_2
_geom_bond_site_symmetry_1
_geom_bond_site_symmetry_2
Br1 C10 1_555 1_555
Br2 C11 1_555 1_555
O1 C3 1_555 1_555
O2 C13 1_555 1_555
O3 C5 1_555 1_555
C1 H1 1_555 1_555
C2 C1 1_555 1_555
H2 C2 1_555 1_555
C3 C2 1_555 1_555
C4 C3 1_555 1_555
C5 C4 1_555 1_555
C6 C5 1_555 1_555
C7 C6 1_555 1_555
H3 C7 1_555 1_555
C8 C7 1_555 1_555
C9 C8 1_555 1_555
H4 C9 1_555 1_555
C10 C9 1_555 1_555
C11 C1 1_555 1_555
C12 O1 1_555 1_555
H5 C12 1_555 1_555
H6 C12 1_555 1_555
C13 C6 1_555 1_555
H7 C13 1_555 1_555
C14 O2 1_555 1_555
C15 C14 1_555 1_555
H8 C15 1_555 1_555
C16 C10 1_555 1_555
H9 C16 1_555 1_555
C17 C4 1_555 1_555
H10 C17 1_555 1_555
C8 C14 1_555 1_555
C11 C17 1_555 1_555
C12 C13 1_555 1_555
C15 C16 1_555 1_555

#END
