
#######################################################################
#
#                 Cambridge Crystallographic Data Centre
#                                CCDC 
#
#######################################################################
#
# If this CIF has been generated from an entry in the Cambridge 
# Structural Database, then it will include bibliographic, chemical, 
# crystal, experimental, refinement or atomic coordinate data resulting 
# from the CCDC's data processing and validation procedures.
#
#######################################################################

data_CIKQET
_chemical_formula_moiety         'C26 H25 N1 O6,C7 H8'
_chemical_name_systematic        
'2,3,8,12,13-Pentamethoxy-5H-dibenzo(c,n)acridin-7(6H)-one toluene solvate'
_symmetry_cell_setting           monoclinic
_symmetry_space_group_name_H-M   'P 21/c'
_symmetry_Int_Tables_number      14
_space_group_name_Hall           '-P 2ybc'
loop_
_symmetry_equiv_pos_site_id
_symmetry_equiv_pos_as_xyz
1 x,y,z
2 -x,1/2+y,1/2-z
3 -x,-y,-z
4 x,1/2-y,1/2+z
_cell_length_a                   14.952(4)
_cell_length_b                   7.1736(18)
_cell_length_c                   25.787(6)
_cell_angle_alpha                90
_cell_angle_beta                 94.571(7)
_cell_angle_gamma                90
_cell_volume                     2757.11
_exptl_crystal_colour            red
_exptl_crystal_description       rod
_cell_formula_units_Z            4
_exptl_crystal_recrystallization_method dichloromethane/toluene
loop_
_atom_site_label
_atom_site_type_symbol
_atom_site_fract_x
_atom_site_fract_y
_atom_site_fract_z
C1 C 0.36910(14) 0.6758(3) 0.48902(8)
H1 H 0.3447 0.5551 0.4757
H2 H 0.4282 0.6947 0.4751
C2 C 0.38116(14) 0.6689(3) 0.54776(8)
C3 C 0.38050(14) 0.8509(3) 0.57581(8)
C4 C 0.36991(14) 1.0121(3) 0.54819(8)
H3 H 0.3771 1.1280 0.5659
C5 C 0.34790(13) 1.0112(3) 0.49225(7)
C6 C 0.30468(14) 0.8353(3) 0.46952(7)
C7 C 0.21107(14) 0.7989(3) 0.48916(8)
H4 H 0.2157 0.7918 0.5276
H5 H 0.1696 0.9016 0.4782
C8 C 0.17650(14) 0.6175(3) 0.46620(8)
C9 C 0.12927(14) 0.4885(3) 0.49419(8)
H6 H 0.1164 0.5165 0.5288
C10 C 0.10097(14) 0.3203(3) 0.47201(8)
C11 C 0.11910(14) 0.2807(3) 0.42046(8)
C12 C 0.16534(13) 0.4081(3) 0.39220(7)
H7 H 0.1769 0.3814 0.3573
C13 C 0.19494(13) 0.5765(3) 0.41539(7)
C14 C 0.28966(13) 0.8315(3) 0.40988(7)
C15 C 0.32871(13) 0.9817(3) 0.37944(7)
C16 C 0.32393(13) 0.9731(3) 0.32478(7)
H8 H 0.2972 0.8679 0.3074
C17 C 0.35782(13) 1.1168(3) 0.29594(8)
C18 C 0.39549(13) 1.2758(3) 0.32219(8)
C19 C 0.39815(13) 1.2865(3) 0.37567(8)
H9 H 0.4221 1.3948 0.3929
C20 C 0.36590(13) 1.1392(3) 0.40523(8)
C21 C 0.37340(14) 1.1502(3) 0.46147(8)
H10 H 0.3974 1.2606 0.4774
C22 C 0.41041(17) 1.0041(3) 0.65651(8)
H11 H 0.4633 1.0682 0.6452
H12 H 0.4197 0.9764 0.6938
H13 H 0.3576 1.0843 0.6501
C23 C 0.05158(16) 0.2025(3) 0.55146(8)
H14 H 0.1125 0.2149 0.5681
H15 H 0.0231 0.0913 0.5649
H16 H 0.0164 0.3131 0.5590
C24 C 0.09328(15) 0.0706(3) 0.34878(8)
H17 H 0.0601 0.1665 0.3281
H18 H 0.0664 -0.0517 0.3408
H19 H 0.1560 0.0701 0.3403
C25 C 0.32396(16) 0.9605(3) 0.21512(8)
H20 H 0.3573 0.8492 0.2274
H21 H 0.3303 0.9779 0.1779
H22 H 0.2604 0.9451 0.2208
C26 C 0.46204(15) 1.5756(3) 0.31657(8)
H23 H 0.4142 1.6355 0.3344
H24 H 0.4837 1.6616 0.2908
H25 H 0.5116 1.5426 0.3421
N1 N 0.24151(11) 0.7050(2) 0.38542(6)
O1 O 0.39663(10) 0.8337(2) 0.62800(5)
O2 O 0.35886(10) 1.1202(2) 0.24319(5)
O3 O 0.42770(10) 1.4094(2) 0.29075(5)
O4 O 0.08931(10) 0.1096(2) 0.40264(5)
O5 O 0.05546(10) 0.1852(2) 0.49660(5)
O6 O 0.39527(12) 0.5216(2) 0.57117(6)
C27 C 0.14872(15) 0.6018(3) 0.21337(8)
C28 C 0.14841(16) 0.6401(4) 0.16066(9)
H26 H 0.1748 0.5535 0.1385
C29 C 0.11040(18) 0.8023(4) 0.13957(9)
H27 H 0.1103 0.8252 0.1033
C30 C 0.07272(17) 0.9308(4) 0.17138(10)
H28 H 0.0471 1.0426 0.1571
C31 C 0.07257(16) 0.8953(3) 0.22406(9)
H29 H 0.0467 0.9829 0.2461
C32 C 0.11011(15) 0.7325(3) 0.24480(8)
H30 H 0.1095 0.7094 0.2810
C33 C 0.18935(19) 0.4249(4) 0.23630(10)
H31 H 0.2126 0.3497 0.2086
H32 H 0.1434 0.3541 0.2529
H33 H 0.2385 0.4561 0.2623
loop_
_geom_bond_atom_site_label_1
_geom_bond_atom_site_label_2
_geom_bond_site_symmetry_1
_geom_bond_site_symmetry_2
C1 H1 1_555 1_555
H2 C1 1_555 1_555
C2 C1 1_555 1_555
C3 C2 1_555 1_555
C4 C3 1_555 1_555
H3 C4 1_555 1_555
C5 C4 1_555 1_555
C6 C1 1_555 1_555
C7 C6 1_555 1_555
H4 C7 1_555 1_555
H5 C7 1_555 1_555
C8 C7 1_555 1_555
C9 C8 1_555 1_555
H6 C9 1_555 1_555
C10 C9 1_555 1_555
C11 C10 1_555 1_555
C12 C11 1_555 1_555
H7 C12 1_555 1_555
C13 C8 1_555 1_555
C14 C6 1_555 1_555
C15 C14 1_555 1_555
C16 C15 1_555 1_555
H8 C16 1_555 1_555
C17 C16 1_555 1_555
C18 C17 1_555 1_555
C19 C18 1_555 1_555
H9 C19 1_555 1_555
C20 C15 1_555 1_555
C21 C5 1_555 1_555
H10 C21 1_555 1_555
C22 H11 1_555 1_555
H12 C22 1_555 1_555
H13 C22 1_555 1_555
C23 H14 1_555 1_555
H15 C23 1_555 1_555
H16 C23 1_555 1_555
C24 H17 1_555 1_555
H18 C24 1_555 1_555
H19 C24 1_555 1_555
C25 H20 1_555 1_555
H21 C25 1_555 1_555
H22 C25 1_555 1_555
C26 H23 1_555 1_555
H24 C26 1_555 1_555
H25 C26 1_555 1_555
N1 C13 1_555 1_555
O1 C3 1_555 1_555
O2 C17 1_555 1_555
O3 C18 1_555 1_555
O4 C11 1_555 1_555
O5 C10 1_555 1_555
O6 C2 1_555 1_555
C27 C28 1_555 1_555
C28 H26 1_555 1_555
C29 C28 1_555 1_555
H27 C29 1_555 1_555
C30 C29 1_555 1_555
H28 C30 1_555 1_555
C31 C30 1_555 1_555
H29 C31 1_555 1_555
C32 C27 1_555 1_555
H30 C32 1_555 1_555
C33 C27 1_555 1_555
H31 C33 1_555 1_555
H32 C33 1_555 1_555
H33 C33 1_555 1_555
C5 C6 1_555 1_555
C12 C13 1_555 1_555
C14 N1 1_555 1_555
C19 C20 1_555 1_555
C20 C21 1_555 1_555
C22 O1 1_555 1_555
C23 O5 1_555 1_555
C24 O4 1_555 1_555
C25 O2 1_555 1_555
C26 O3 1_555 1_555
C31 C32 1_555 1_555

#END
