
#######################################################################
#
#                 Cambridge Crystallographic Data Centre
#                                CCDC 
#
#######################################################################
#
# If this CIF has been generated from an entry in the Cambridge 
# Structural Database, then it will include bibliographic, chemical, 
# crystal, experimental, refinement or atomic coordinate data resulting 
# from the CCDC's data processing and validation procedures.
#
#######################################################################

data_CILCAD
_chemical_formula_moiety         'C17 H13 Br1 N2 O1'
_chemical_name_systematic        
3-(2-Bromobenzyl)-2-oxo-1,2,3,4-tetrahydroquinoline-3-carbonitrile
_symmetry_cell_setting           monoclinic
_symmetry_space_group_name_H-M   'P 21'
_symmetry_Int_Tables_number      4
_space_group_name_Hall           'P 2yb'
loop_
_symmetry_equiv_pos_site_id
_symmetry_equiv_pos_as_xyz
1 x,y,z
2 -x,1/2+y,-z
_cell_length_a                   8.7814(18)
_cell_length_b                   17.107(4)
_cell_length_c                   9.975(2)
_cell_angle_alpha                90
_cell_angle_beta                 99.598(2)
_cell_angle_gamma                90
_cell_volume                     1477.5
_exptl_crystal_colour            colorless
_exptl_crystal_description       block
_cell_formula_units_Z            4
loop_
_atom_site_label
_atom_site_type_symbol
_atom_site_fract_x
_atom_site_fract_y
_atom_site_fract_z
Br1 Br 0.54252(4) 0.457373(19) 0.23959(4)
C1 C 0.0413(3) 0.51560(18) 0.1235(3)
C2 C 0.1428(3) 0.51928(18) 0.2463(3)
C3 C 0.2324(4) 0.5868(2) 0.2732(4)
H1 H 0.3020 0.5908 0.3541
C4 C 0.2187(4) 0.6472(2) 0.1814(4)
H2 H 0.2781 0.6920 0.2015
C5 C 0.1182(4) 0.6425(2) 0.0600(4)
H3 H 0.1100 0.6837 -0.0015
C6 C 0.0282(4) 0.5751(2) 0.0297(4)
H4 H -0.0391 0.5707 -0.0524
C7 C 0.1498(3) 0.4534(2) 0.3452(3)
H5 H 0.0777 0.4633 0.4071
H6 H 0.2528 0.4507 0.3983
C8 C 0.1102(3) 0.37457(18) 0.2727(3)
C9 C -0.0375(4) 0.38184(19) 0.1651(3)
C10 C 0.2400(3) 0.3434(2) 0.1976(3)
H7 H 0.1983 0.3006 0.1389
H8 H 0.2683 0.3847 0.1399
C11 C 0.3846(3) 0.31512(18) 0.2881(3)
C12 C 0.3858(4) 0.2389(2) 0.3432(4)
H9 H 0.2979 0.2079 0.3234
C13 C 0.5145(5) 0.2098(2) 0.4257(4)
H10 H 0.5115 0.1603 0.4636
C14 C 0.6476(5) 0.2535(3) 0.4524(4)
H11 H 0.7345 0.2333 0.5077
C15 C 0.6521(4) 0.3272(2) 0.3971(3)
H12 H 0.7422 0.3568 0.4141
C16 C 0.5215(4) 0.35686(19) 0.3161(3)
C17 C 0.0764(3) 0.31707(19) 0.3751(3)
N1 N -0.0558(3) 0.44880(17) 0.0980(2)
H13 H -0.1333 0.4523 0.0330
N2 N 0.0542(3) 0.27565(19) 0.4587(3)
O1 O -0.1261(2) 0.32574(14) 0.1409(2)
Br2 Br -0.00697(4) 0.337170(18) 0.79753(4)
C18 C 0.4958(4) 0.27233(18) 0.9226(3)
C19 C 0.3919(4) 0.2677(2) 0.8024(3)
C20 C 0.3010(4) 0.2014(2) 0.7768(4)
H14 H 0.2319 0.1970 0.6957
C21 C 0.3127(4) 0.1420(2) 0.8708(5)
H15 H 0.2518 0.0975 0.8523
C22 C 0.4136(5) 0.1474(2) 0.9924(5)
H16 H 0.4189 0.1073 1.0560
C23 C 0.5074(5) 0.2130(2) 1.0195(4)
H17 H 0.5764 0.2172 1.1007
C24 C 0.3876(3) 0.3336(2) 0.7008(3)
H18 H 0.2847 0.3374 0.6478
H19 H 0.4590 0.3223 0.6389
C25 C 0.4314(3) 0.41233(19) 0.7720(3)
C26 C 0.5786(3) 0.40500(19) 0.8788(3)
C27 C 0.3023(3) 0.4451(2) 0.8481(3)
H20 H 0.2695 0.4035 0.9029
H21 H 0.3469 0.4861 0.9096
C28 C 0.1619(4) 0.47751(18) 0.7580(3)
C29 C 0.0209(4) 0.4390(2) 0.7272(3)
C30 C -0.1060(4) 0.4725(3) 0.6480(4)
H22 H -0.1985 0.4450 0.6296
C31 C -0.0965(5) 0.5457(3) 0.5967(5)
H23 H -0.1818 0.5678 0.5421
C32 C 0.0402(5) 0.5873(3) 0.6257(5)
H24 H 0.0470 0.6377 0.5922
C33 C 0.1667(4) 0.5530(2) 0.7052(4)
H25 H 0.2584 0.5811 0.7242
C34 C 0.4659(3) 0.4685(2) 0.6685(3)
N3 N 0.5956(3) 0.33739(18) 0.9479(2)
H26 H 0.6732 0.3334 1.0126
N4 N 0.4928(4) 0.5094(2) 0.5857(3)
O2 O 0.6700(2) 0.45978(14) 0.9013(2)
loop_
_geom_bond_atom_site_label_1
_geom_bond_atom_site_label_2
_geom_bond_site_symmetry_1
_geom_bond_site_symmetry_2
Br1 C16 1_555 1_555
C1 C2 1_555 1_555
C2 C3 1_555 1_555
C3 H1 1_555 1_555
C4 C3 1_555 1_555
H2 C4 1_555 1_555
C5 C4 1_555 1_555
H3 C5 1_555 1_555
C6 C1 1_555 1_555
H4 C6 1_555 1_555
C7 C2 1_555 1_555
H5 C7 1_555 1_555
H6 C7 1_555 1_555
C8 C7 1_555 1_555
C9 C8 1_555 1_555
C10 C8 1_555 1_555
H7 C10 1_555 1_555
H8 C10 1_555 1_555
C11 C10 1_555 1_555
C12 C11 1_555 1_555
H9 C12 1_555 1_555
C13 C12 1_555 1_555
H10 C13 1_555 1_555
C14 C13 1_555 1_555
H11 C14 1_555 1_555
C15 C14 1_555 1_555
H12 C15 1_555 1_555
C16 C11 1_555 1_555
C17 C8 1_555 1_555
N1 C1 1_555 1_555
H13 N1 1_555 1_555
N2 C17 1_555 1_555
O1 C9 1_555 1_555
Br2 C29 1_555 1_555
C18 C19 1_555 1_555
C19 C20 1_555 1_555
C20 H14 1_555 1_555
C21 C20 1_555 1_555
H15 C21 1_555 1_555
C22 C21 1_555 1_555
H16 C22 1_555 1_555
C23 C18 1_555 1_555
H17 C23 1_555 1_555
C24 C19 1_555 1_555
H18 C24 1_555 1_555
H19 C24 1_555 1_555
C25 C24 1_555 1_555
C26 C25 1_555 1_555
C27 C25 1_555 1_555
H20 C27 1_555 1_555
H21 C27 1_555 1_555
C28 C27 1_555 1_555
C29 C28 1_555 1_555
C30 C29 1_555 1_555
H22 C30 1_555 1_555
C31 C30 1_555 1_555
H23 C31 1_555 1_555
C32 C31 1_555 1_555
H24 C32 1_555 1_555
C33 C28 1_555 1_555
H25 C33 1_555 1_555
C34 C25 1_555 1_555
N3 C18 1_555 1_555
H26 N3 1_555 1_555
N4 C34 1_555 1_555
O2 C26 1_555 1_555
C5 C6 1_555 1_555
C9 N1 1_555 1_555
C15 C16 1_555 1_555
C22 C23 1_555 1_555
C26 N3 1_555 1_555
C32 C33 1_555 1_555

#END
