
#######################################################################
#
#                 Cambridge Crystallographic Data Centre
#                                CCDC 
#
#######################################################################
#
# If this CIF has been generated from an entry in the Cambridge 
# Structural Database, then it will include bibliographic, chemical, 
# crystal, experimental, refinement or atomic coordinate data resulting 
# from the CCDC's data processing and validation procedures.
#
#######################################################################

data_CILTEZ
_chemical_formula_moiety         'C32 H35 N3 O2 S1'
_chemical_name_systematic        
{2-[2,6-di-isopropylphenyl]imidazo[1,5-a]quinolin-2-ium-9-yl}[(2,4,6-trimethylphenyl)sulfonyl]imide
_symmetry_cell_setting           triclinic
_symmetry_space_group_name_H-M   'P -1'
_symmetry_Int_Tables_number      2
_space_group_name_Hall           '-P 1'
loop_
_symmetry_equiv_pos_site_id
_symmetry_equiv_pos_as_xyz
1 x,y,z
2 -x,-y,-z
_cell_length_a                   8.5325(2)
_cell_length_b                   9.8368(2)
_cell_length_c                   18.5967(4)
_cell_angle_alpha                100.946(2)
_cell_angle_beta                 91.574(2)
_cell_angle_gamma                115.221(2)
_cell_volume                     1376.02
_exptl_crystal_colour            colorless
_exptl_crystal_description       block
_cell_formula_units_Z            2
_exptl_crystal_recrystallization_method 'Re-crystallisation from solvent'
loop_
_atom_site_label
_atom_site_type_symbol
_atom_site_fract_x
_atom_site_fract_y
_atom_site_fract_z
S1 S 0.55943(5) 0.85134(4) 0.30174(2)
O1 O 0.40901(16) 0.86290(13) 0.27057(6)
O2 O 0.67856(16) 0.99176(11) 0.35303(6)
N1 N 0.41838(14) 0.41450(12) 0.36446(6)
N2 N 0.50356(14) 0.28626(12) 0.27898(6)
N3 N 0.50892(17) 0.70001(13) 0.33096(7)
C1 C 0.50219(17) 0.42273(14) 0.30402(7)
H1 H 0.551797 0.510150 0.282789
C2 C 0.36764(17) 0.26633(15) 0.37814(7)
C3 C 0.57211(17) 0.24977(14) 0.21113(7)
C4 C 0.74052(18) 0.25888(14) 0.21590(8)
C5 C 0.42030(17) 0.18712(15) 0.32370(7)
H2 H 0.402905 0.083396 0.317737
C6 C 0.46664(18) 0.20895(15) 0.14457(8)
C7 C 0.37617(17) 0.52637(15) 0.40871(7)
C8 C 0.42242(18) 0.67218(15) 0.39150(7)
C9 C 0.53499(19) 0.17536(16) 0.07982(8)
H3 H 0.467350 0.148120 0.033418
C10 C 0.67683(19) 0.80785(15) 0.22916(8)
C11 C 0.23938(19) 0.58951(17) 0.51338(8)
H4 H 0.176557 0.562390 0.553887
C12 C 0.28470(18) 0.48328(16) 0.46855(7)
C13 C 0.37523(19) 0.77454(16) 0.43934(8)
H5 H 0.405547 0.874235 0.430545
C14 C 0.27779(18) 0.22781(15) 0.44048(8)
H6 H 0.246355 0.129624 0.451381
C15 C 0.8390(2) 0.80981(15) 0.24938(8)
C16 C 0.80039(19) 0.22165(16) 0.14951(8)
H7 H 0.912940 0.224091 0.150358
C17 C 0.23829(18) 0.33246(16) 0.48352(8)
H8 H 0.178320 0.306690 0.524869
C18 C 0.8488(2) 0.70395(17) 0.12114(9)
C19 C 0.85524(18) 0.31304(15) 0.28902(8)
H9 H 0.778479 0.277432 0.327864
C20 C 0.6041(2) 0.76008(16) 0.15463(8)
C21 C 0.28718(18) 0.20651(15) 0.14121(8)
H10 H 0.243475 0.193848 0.190004
C22 C 0.9214(2) 0.75847(16) 0.19462(9)
H11 H 1.030921 0.760735 0.207892
C23 C 0.6932(2) 0.70898(17) 0.10265(8)
H12 H 0.644944 0.676116 0.052253
C24 C 0.3023(2) 0.36145(17) 0.12845(9)
H13 H 0.375283 0.444429 0.170379
H14 H 0.185814 0.357759 0.123705
H15 H 0.355478 0.380852 0.083144
C25 C 0.7000(2) 0.18128(17) 0.08246(8)
H16 H 0.744498 0.157495 0.037988
C26 C 0.94919(19) 0.49001(15) 0.30941(8)
H17 H 1.024169 0.527455 0.271644
H18 H 1.020698 0.524313 0.357323
H19 H 0.862654 0.531140 0.312282
C27 C 0.2858(2) 0.73350(17) 0.49880(8)
H20 H 0.256146 0.805235 0.529918
C28 C 0.98961(19) 0.24871(17) 0.28871(8)
H21 H 0.933875 0.138939 0.264554
H22 H 1.036108 0.261560 0.339609
H23 H 1.085067 0.304354 0.261784
C29 C 0.9286(2) 0.86287(17) 0.32763(9)
H24 H 1.033902 0.846282 0.328819
H25 H 0.849117 0.803944 0.359348
H26 H 0.960721 0.972798 0.345450
C30 C 0.4346(2) 0.75660(19) 0.12609(9)
H27 H 0.407836 0.710815 0.073014
H28 H 0.445644 0.861934 0.134948
H29 H 0.340243 0.694805 0.151806
C31 C 0.1555(2) 0.07297(18) 0.08160(9)
H30 H 0.186160 0.091404 0.032783
H31 H 0.038272 0.065320 0.086856
H32 H 0.157804 -0.023409 0.086944
C32 C 0.9338(2) 0.6370(2) 0.06384(10)
H33 H 1.058250 0.677120 0.080855
H34 H 0.920229 0.666055 0.017301
H35 H 0.878117 0.524438 0.056136
loop_
_geom_bond_atom_site_label_1
_geom_bond_atom_site_label_2
_geom_bond_site_symmetry_1
_geom_bond_site_symmetry_2
S1 O1 1_555 1_555
O2 S1 1_555 1_555
N1 C1 1_555 1_555
N2 C1 1_555 1_555
N3 S1 1_555 1_555
C1 H1 1_555 1_555
C2 N1 1_555 1_555
C3 N2 1_555 1_555
C4 C3 1_555 1_555
C5 N2 1_555 1_555
H2 C5 1_555 1_555
C6 C3 1_555 1_555
C7 N1 1_555 1_555
C8 N3 1_555 1_555
C9 C6 1_555 1_555
H3 C9 1_555 1_555
C10 S1 1_555 1_555
C11 H4 1_555 1_555
C12 C7 1_555 1_555
C13 C8 1_555 1_555
H5 C13 1_555 1_555
C14 C2 1_555 1_555
H6 C14 1_555 1_555
C15 C10 1_555 1_555
C16 C4 1_555 1_555
H7 C16 1_555 1_555
C17 C12 1_555 1_555
H8 C17 1_555 1_555
C18 C22 1_555 1_555
C19 C4 1_555 1_555
H9 C19 1_555 1_555
C20 C10 1_555 1_555
C21 C6 1_555 1_555
H10 C21 1_555 1_555
C22 C15 1_555 1_555
H11 C22 1_555 1_555
C23 C18 1_555 1_555
H12 C23 1_555 1_555
C24 C21 1_555 1_555
H13 C24 1_555 1_555
H14 C24 1_555 1_555
H15 C24 1_555 1_555
C25 C9 1_555 1_555
H16 C25 1_555 1_555
C26 C19 1_555 1_555
H17 C26 1_555 1_555
H18 C26 1_555 1_555
H19 C26 1_555 1_555
C27 C11 1_555 1_555
H20 C27 1_555 1_555
C28 C19 1_555 1_555
H21 C28 1_555 1_555
H22 C28 1_555 1_555
H23 C28 1_555 1_555
C29 C15 1_555 1_555
H24 C29 1_555 1_555
H25 C29 1_555 1_555
H26 C29 1_555 1_555
C30 C20 1_555 1_555
H27 C30 1_555 1_555
H28 C30 1_555 1_555
H29 C30 1_555 1_555
C31 C21 1_555 1_555
H30 C31 1_555 1_555
H31 C31 1_555 1_555
H32 C31 1_555 1_555
C32 C18 1_555 1_555
H33 C32 1_555 1_555
H34 C32 1_555 1_555
H35 C32 1_555 1_555
C2 C5 1_555 1_555
C7 C8 1_555 1_555
C11 C12 1_555 1_555
C13 C27 1_555 1_555
C14 C17 1_555 1_555
C16 C25 1_555 1_555
C20 C23 1_555 1_555

#END
