
#######################################################################
#
#                 Cambridge Crystallographic Data Centre
#                                CCDC 
#
#######################################################################
#
# If this CIF has been generated from an entry in the Cambridge 
# Structural Database, then it will include bibliographic, chemical, 
# crystal, experimental, refinement or atomic coordinate data resulting 
# from the CCDC's data processing and validation procedures.
#
#######################################################################

data_CIMKAN
_chemical_formula_moiety         'C23 H24 N2 O2'
_chemical_name_systematic        
N-t-butyl-3'-methyl-2'-[(pyridin-2-yl)oxy][1,1'-biphenyl]-2-carboxamide
_symmetry_cell_setting           monoclinic
_symmetry_space_group_name_H-M   'P 21/c'
_symmetry_Int_Tables_number      14
_space_group_name_Hall           '-P 2ybc'
loop_
_symmetry_equiv_pos_site_id
_symmetry_equiv_pos_as_xyz
1 x,y,z
2 -x,1/2+y,1/2-z
3 -x,-y,-z
4 x,1/2-y,1/2+z
_cell_length_a                   8.295(7)
_cell_length_b                   11.086(10)
_cell_length_c                   21.615(16)
_cell_angle_alpha                90
_cell_angle_beta                 93.50(8)
_cell_angle_gamma                90
_cell_volume                     1983.97
_exptl_crystal_colour            colorless
_exptl_crystal_description       irregular
_cell_formula_units_Z            4
loop_
_atom_site_label
_atom_site_type_symbol
_atom_site_fract_x
_atom_site_fract_y
_atom_site_fract_z
O1 O 0.79722(19) 0.71126(16) 0.50111(7)
O2 O 0.7745(3) 0.82216(19) 0.77029(8)
N1 N 0.5702(2) 0.78569(17) 0.54544(8)
N2 N 0.6254(2) 0.74999(18) 0.68690(8)
H1 H 0.6125 0.7554 0.6472
C1 C 0.8994(3) 0.6834(2) 0.60760(10)
C2 C 0.9199(2) 0.8155(2) 0.61876(10)
C3 C 0.8571(3) 0.8726(2) 0.67004(10)
C4 C 0.8354(3) 0.6356(2) 0.55247(10)
C5 C 0.7487(3) 0.8109(2) 0.71401(10)
C6 C 0.8947(3) 0.9928(2) 0.68220(12)
H2 H 0.8561 1.0296 0.7170
C7 C 0.5953(3) 0.7969(3) 0.43566(12)
H3 H 0.6549 0.7791 0.4017
C8 C 0.6499(3) 0.7646(2) 0.49543(10)
C9 C 0.4305(3) 0.8439(2) 0.53702(12)
H4 H 0.3729 0.8602 0.5717
C10 C 1.0112(3) 0.8833(2) 0.57972(12)
H5 H 1.0507 0.8471 0.5449
C11 C 0.9488(3) 0.6026(2) 0.65450(11)
H6 H 0.9933 0.6317 0.6921
C12 C 0.5087(3) 0.6741(2) 0.71808(11)
C13 C 0.4506(4) 0.8558(3) 0.42877(13)
H7 H 0.4093 0.8787 0.3895
C14 C 0.3660(3) 0.8813(3) 0.48019(14)
H8 H 0.2683 0.9226 0.4765
C15 C 0.8146(3) 0.5127(2) 0.54244(12)
C16 C 0.5961(4) 0.5868(3) 0.76293(13)
H9 H 0.6690 0.5378 0.7409
H10 H 0.5186 0.5360 0.7814
H11 H 0.6559 0.6314 0.7947
C17 C 0.9883(3) 1.0589(2) 0.64365(14)
H12 H 1.0132 1.1391 0.6525
C18 C 0.4173(4) 0.6025(3) 0.66752(14)
H13 H 0.3566 0.6566 0.6404
H14 H 0.3448 0.5473 0.6859
H15 H 0.4924 0.5581 0.6443
C19 C 1.0445(3) 1.0036(3) 0.59151(14)
H16 H 1.1046 1.0476 0.5644
C20 C 0.8646(4) 0.4359(2) 0.59073(14)
H17 H 0.8519 0.3531 0.5857
C21 C 0.7424(4) 0.4648(3) 0.48206(13)
H18 H 0.6339 0.4942 0.4753
H19 H 0.7413 0.3783 0.4833
H20 H 0.8058 0.4913 0.4489
C22 C 0.9321(4) 0.4796(2) 0.64549(13)
H21 H 0.9670 0.4265 0.6768
C23 C 0.3948(4) 0.7540(3) 0.75234(16)
H22 H 0.4561 0.8028 0.7820
H23 H 0.3207 0.7045 0.7735
H24 H 0.3356 0.8052 0.7232
loop_
_geom_bond_atom_site_label_1
_geom_bond_atom_site_label_2
_geom_bond_site_symmetry_1
_geom_bond_site_symmetry_2
O1 C4 1_555 1_555
O2 C5 1_555 1_555
N1 C8 1_555 1_555
N2 H1 1_555 1_555
C1 C2 1_555 1_555
C2 C3 1_555 1_555
C3 C5 1_555 1_555
C4 C1 1_555 1_555
C5 N2 1_555 1_555
C6 C3 1_555 1_555
H2 C6 1_555 1_555
C7 H3 1_555 1_555
C8 O1 1_555 1_555
C9 N1 1_555 1_555
H4 C9 1_555 1_555
C10 C2 1_555 1_555
H5 C10 1_555 1_555
C11 C1 1_555 1_555
H6 C11 1_555 1_555
C12 N2 1_555 1_555
C13 C7 1_555 1_555
H7 C13 1_555 1_555
C14 C9 1_555 1_555
H8 C14 1_555 1_555
C15 C4 1_555 1_555
C16 C12 1_555 1_555
H9 C16 1_555 1_555
H10 C16 1_555 1_555
H11 C16 1_555 1_555
C17 C6 1_555 1_555
H12 C17 1_555 1_555
C18 C12 1_555 1_555
H13 C18 1_555 1_555
H14 C18 1_555 1_555
H15 C18 1_555 1_555
C19 C10 1_555 1_555
H16 C19 1_555 1_555
C20 C15 1_555 1_555
H17 C20 1_555 1_555
C21 C15 1_555 1_555
H18 C21 1_555 1_555
H19 C21 1_555 1_555
H20 C21 1_555 1_555
C22 C11 1_555 1_555
H21 C22 1_555 1_555
C23 C12 1_555 1_555
H22 C23 1_555 1_555
H23 C23 1_555 1_555
H24 C23 1_555 1_555
C7 C8 1_555 1_555
C13 C14 1_555 1_555
C17 C19 1_555 1_555
C20 C22 1_555 1_555

#END
