
#######################################################################
#
#                 Cambridge Crystallographic Data Centre
#                                CCDC 
#
#######################################################################
#
# If this CIF has been generated from an entry in the Cambridge 
# Structural Database, then it will include bibliographic, chemical, 
# crystal, experimental, refinement or atomic coordinate data resulting 
# from the CCDC's data processing and validation procedures.
#
#######################################################################

data_CIMREX
_chemical_formula_moiety         'C25 H21 N5 O10'
_chemical_name_systematic        
'2-(4-((2,4-Dinitrophenyl)hydrazono)-5-methoxy-1-nitro-5-oxopentan-2-yl)phenyl benzoate'
_symmetry_cell_setting           monoclinic
_symmetry_space_group_name_H-M   'P 21'
_symmetry_Int_Tables_number      4
_space_group_name_Hall           'P 2yb'
loop_
_symmetry_equiv_pos_site_id
_symmetry_equiv_pos_as_xyz
1 x,y,z
2 -x,1/2+y,-z
_cell_length_a                   7.2970(10)
_cell_length_b                   14.5260(16)
_cell_length_c                   12.1970(15)
_cell_angle_alpha                90
_cell_angle_beta                 103.506(9)
_cell_angle_gamma                90
_cell_volume                     1257.08
_exptl_crystal_colour            colorless
_exptl_crystal_description       prism
_cell_formula_units_Z            2
loop_
_atom_site_label
_atom_site_type_symbol
_atom_site_fract_x
_atom_site_fract_y
_atom_site_fract_z
O1 O 0.1567(3) 0.49419(19) -0.13538(18)
O2 O 0.2100(3) 0.34244(17) -0.12429(15)
O3 O 0.7622(2) 0.31691(12) 0.14848(14)
O4 O 0.5767(3) 0.19241(15) 0.10455(15)
N1 N 0.9182(4) 0.5734(3) 0.1760(3)
O5 O 0.9833(4) 0.5031(3) 0.2207(3)
O6 O 1.0191(5) 0.6353(3) 0.1630(6)
O7 O 0.4371(4) 0.44366(16) 0.40449(18)
O8 O 0.4324(5) 0.3762(2) 0.55987(18)
O9 O 0.2244(4) 0.0739(2) 0.5828(2)
O10 O 0.1236(4) -0.00685(19) 0.4335(3)
N2 N 0.2429(3) 0.35814(15) 0.09883(16)
N3 N 0.3043(3) 0.36193(17) 0.21249(17)
N4 N 0.4008(3) 0.37634(17) 0.45728(17)
N5 N 0.1854(4) 0.0643(2) 0.4805(2)
C1 C 0.2077(3) 0.4262(2) -0.0819(2)
C2 C 0.2800(3) 0.42884(19) 0.04421(19)
C3 C 0.3902(3) 0.51349(18) 0.0899(2)
H1 H 0.3561 0.5327 0.1587
H2 H 0.3584 0.5631 0.0356
C4 C 0.6064(3) 0.49480(17) 0.11495(17)
H3 H 0.6411 0.4583 0.1843
C5 C 0.7073(3) 0.5858(2) 0.1363(2)
H4 H 0.6804 0.6212 0.0680
H5 H 0.6613 0.6193 0.1921
C6 C 0.6582(3) 0.43989(17) 0.02067(18)
C7 C 0.7225(3) 0.35035(17) 0.03691(18)
C8 C 0.7587(4) 0.2969(2) -0.0493(2)
H6 H 0.8050 0.2373 -0.0351
C9 C 0.7254(4) 0.3329(2) -0.1565(2)
H7 H 0.7450 0.2970 -0.2159
C10 C 0.6624(4) 0.4227(2) -0.1757(2)
H8 H 0.6409 0.4472 -0.2480
C11 C 0.6312(3) 0.4761(2) -0.0880(2)
H9 H 0.5918 0.5368 -0.1014
C12 C 0.6772(3) 0.23926(17) 0.17264(19)
C13 C 0.7237(3) 0.22241(18) 0.2967(2)
C14 C 0.6880(4) 0.1354(2) 0.3343(2)
H10 H 0.6405 0.0892 0.2826
C15 C 0.7233(4) 0.1177(2) 0.4488(3)
H11 H 0.7001 0.0596 0.4745
C16 C 0.7930(4) 0.1866(3) 0.5247(2)
H12 H 0.8158 0.1747 0.6016
C17 C 0.8295(4) 0.2728(2) 0.4880(2)
H13 H 0.8764 0.3188 0.5401
C18 C 0.7963(3) 0.2913(2) 0.3735(2)
H14 H 0.8224 0.3492 0.3483
C19 C 0.1560(5) 0.3385(3) -0.2453(2)
H15 H 0.0399 0.3714 -0.2717
H16 H 0.1393 0.2755 -0.2692
H17 H 0.2528 0.3661 -0.2760
C20 C 0.2696(3) 0.29036(17) 0.27693(17)
C21 C 0.3192(3) 0.29468(18) 0.39680(18)
C22 C 0.2894(4) 0.2203(2) 0.46160(19)
H18 H 0.3211 0.2240 0.5399
C23 C 0.2132(3) 0.14178(19) 0.4096(2)
C24 C 0.1596(3) 0.13501(19) 0.2930(2)
H19 H 0.1044 0.0813 0.2590
C25 C 0.1887(3) 0.20800(18) 0.22848(19)
H20 H 0.1539 0.2029 0.1504
H21 H 0.347(4) 0.407(2) 0.241(3)
N6? N 0.9107(13) 0.5793(14) 0.1349(11)
O11? O 0.998(2) 0.5568(6) 0.2256(9)
O12? O 0.9767(14) 0.6112(9) 0.0645(11)
H22? H 0.6470 0.6289 0.0796
H23? H 0.6971 0.6091 0.2082
loop_
_geom_bond_atom_site_label_1
_geom_bond_atom_site_label_2
_geom_bond_site_symmetry_1
_geom_bond_site_symmetry_2
O1 C1 1_555 1_555
O2 C1 1_555 1_555
O3 C7 1_555 1_555
O4 C12 1_555 1_555
N1 O5 1_555 1_555
O6 N1 1_555 1_555
O7 N4 1_555 1_555
O8 N4 1_555 1_555
O9 N5 1_555 1_555
O10 N5 1_555 1_555
N2 N3 1_555 1_555
N3 C20 1_555 1_555
N4 C21 1_555 1_555
N5 C23 1_555 1_555
C1 C2 1_555 1_555
C2 N2 1_555 1_555
C3 C2 1_555 1_555
H1 C3 1_555 1_555
H2 C3 1_555 1_555
C4 C3 1_555 1_555
H3 C4 1_555 1_555
C5 N1 1_555 1_555
H4 C5 1_555 1_555
H5 C5 1_555 1_555
C6 C4 1_555 1_555
C7 C6 1_555 1_555
C8 C7 1_555 1_555
H6 C8 1_555 1_555
C9 C8 1_555 1_555
H7 C9 1_555 1_555
C10 C9 1_555 1_555
H8 C10 1_555 1_555
C11 C6 1_555 1_555
H9 C11 1_555 1_555
C12 O3 1_555 1_555
C13 C12 1_555 1_555
C14 C13 1_555 1_555
H10 C14 1_555 1_555
C15 C14 1_555 1_555
H11 C15 1_555 1_555
C16 C15 1_555 1_555
H12 C16 1_555 1_555
C17 C16 1_555 1_555
H13 C17 1_555 1_555
C18 C13 1_555 1_555
H14 C18 1_555 1_555
C19 O2 1_555 1_555
H15 C19 1_555 1_555
H16 C19 1_555 1_555
H17 C19 1_555 1_555
C20 C21 1_555 1_555
C21 C22 1_555 1_555
C22 H18 1_555 1_555
C23 C22 1_555 1_555
C24 C23 1_555 1_555
H19 C24 1_555 1_555
C25 C20 1_555 1_555
H20 C25 1_555 1_555
H21 N3 1_555 1_555
C4 C5 1_555 1_555
C10 C11 1_555 1_555
C17 C18 1_555 1_555
C24 C25 1_555 1_555

#END
