
#######################################################################
#
#                 Cambridge Crystallographic Data Centre
#                                CCDC 
#
#######################################################################
#
# If this CIF has been generated from an entry in the Cambridge 
# Structural Database, then it will include bibliographic, chemical, 
# crystal, experimental, refinement or atomic coordinate data resulting 
# from the CCDC's data processing and validation procedures.
#
#######################################################################

data_CINDUB
_chemical_formula_moiety         'C6 H10 O3'
_chemical_name_systematic        1-hydroxyhexane-2,5-dione
_symmetry_cell_setting           orthorhombic
_symmetry_space_group_name_H-M   'P c a 21'
_symmetry_Int_Tables_number      29
_space_group_name_Hall           'P 2c -2ac'
loop_
_symmetry_equiv_pos_site_id
_symmetry_equiv_pos_as_xyz
1 x,y,z
2 -x,-y,1/2+z
3 1/2-x,y,1/2+z
4 1/2+x,-y,z
_cell_length_a                   9.9247(11)
_cell_length_b                   5.4114(6)
_cell_length_c                   24.521(3)
_cell_angle_alpha                90
_cell_angle_beta                 90
_cell_angle_gamma                90
_cell_volume                     1316.94
_exptl_crystal_colour            colorless
_exptl_crystal_description       'part of a plate'
_cell_formula_units_Z            8
loop_
_atom_site_label
_atom_site_type_symbol
_atom_site_fract_x
_atom_site_fract_y
_atom_site_fract_z
C1 C 0.7169(4) 0.9941(4) 0.2758(2)
H1 H 0.6384 1.0402 0.2531
H2 H 0.7460 1.1422 0.2964
C2 C 0.6776(2) 0.7922(4) 0.31499(10)
C3 C 0.5606(2) 0.8507(4) 0.35204(10)
H3 H 0.4876 0.9271 0.3303
H4 H 0.5900 0.9727 0.3797
C4 C 0.5059(2) 0.6238(4) 0.38083(10)
H5 H 0.4812 0.4989 0.3531
H6 H 0.5781 0.5524 0.4038
C5 C 0.3849(2) 0.6747(4) 0.41605(10)
C6 C 0.3452(4) 0.4742(6) 0.4551(2)
H7 H 0.4124 0.4627 0.4843
H8 H 0.3403 0.3162 0.4357
H9 H 0.2569 0.5127 0.4709
O1 O 0.8232(2) 0.9108(3) 0.24207(9)
H10 H 0.856(4) 1.033(8) 0.226(2)
O2 O 0.73658(18) 0.5956(3) 0.31591(8)
O3 O 0.32311(19) 0.8685(3) 0.41328(8)
C7 C 0.0303(4) 0.4954(4) 0.1994(2)
H11 H 0.1085 0.5441 0.2221
H12 H -0.0001 0.6425 0.1788
C8 C 0.0714(2) 0.2954(4) 0.16040(10)
C9 C 0.1886(2) 0.3566(4) 0.12366(10)
H13 H 0.2611 0.4328 0.1457
H14 H 0.1592 0.4794 0.0962
C10 C 0.2444(2) 0.1317(4) 0.09453(10)
H15 H 0.2706 0.0068 0.1221
H16 H 0.1724 0.0588 0.0717
C11 C 0.3647(2) 0.1868(4) 0.05890(10)
C12 C 0.4059(4) -0.0138(5) 0.0205(2)
H17 H 0.3401 -0.0256 -0.0092
H18 H 0.4098 -0.1714 0.0401
H19 H 0.4949 0.0243 0.0053
O4 O -0.0751(2) 0.4102(4) 0.23329(9)
H20 H -0.112(4) 0.530(8) 0.242(2)
O5 O 0.01376(18) 0.0970(3) 0.15920(8)
O6 O 0.42385(19) 0.3829(3) 0.06147(8)
loop_
_geom_bond_atom_site_label_1
_geom_bond_atom_site_label_2
_geom_bond_site_symmetry_1
_geom_bond_site_symmetry_2
C1 H1 1_555 1_555
H2 C1 1_555 1_555
C2 C1 1_555 1_555
C3 C2 1_555 1_555
H3 C3 1_555 1_555
H4 C3 1_555 1_555
C4 C3 1_555 1_555
H5 C4 1_555 1_555
H6 C4 1_555 1_555
C5 C4 1_555 1_555
C6 C5 1_555 1_555
H7 C6 1_555 1_555
H8 C6 1_555 1_555
H9 C6 1_555 1_555
O1 C1 1_555 1_555
H10 O1 1_555 1_555
O2 C2 1_555 1_555
O3 C5 1_555 1_555
C7 H11 1_555 1_555
H12 C7 1_555 1_555
C8 C7 1_555 1_555
C9 C8 1_555 1_555
H13 C9 1_555 1_555
H14 C9 1_555 1_555
C10 C9 1_555 1_555
H15 C10 1_555 1_555
H16 C10 1_555 1_555
C11 C10 1_555 1_555
C12 C11 1_555 1_555
H17 C12 1_555 1_555
H18 C12 1_555 1_555
H19 C12 1_555 1_555
O4 C7 1_555 1_555
H20 O4 1_555 1_555
O5 C8 1_555 1_555
O6 C11 1_555 1_555

#END
