
#######################################################################
#
#                 Cambridge Crystallographic Data Centre
#                                CCDC 
#
#######################################################################
#
# If this CIF has been generated from an entry in the Cambridge 
# Structural Database, then it will include bibliographic, chemical, 
# crystal, experimental, refinement or atomic coordinate data resulting 
# from the CCDC's data processing and validation procedures.
#
#######################################################################

data_CINLOB
_chemical_formula_moiety         'C6 H22 N4 4+,4(C4 H3 O4 1-),3.3(H2 O1)'
_chemical_name_systematic        
'Triethylenetetraammonium tetrakis(hydrogen fumarate) hydrate'
_symmetry_cell_setting           orthorhombic
_symmetry_space_group_name_H-M   'P m n a'
_symmetry_Int_Tables_number      53
_space_group_name_Hall           '-P 2ac 2'
loop_
_symmetry_equiv_pos_site_id
_symmetry_equiv_pos_as_xyz
1 x,y,z
2 1/2-x,-y,1/2+z
3 x,-y,-z
4 1/2-x,y,1/2-z
5 -x,-y,-z
6 1/2+x,y,1/2-z
7 -x,y,z
8 1/2+x,-y,1/2+z
_cell_length_a                   13.903(5)
_cell_length_b                   7.959(5)
_cell_length_c                   14.655(5)
_cell_angle_alpha                90
_cell_angle_beta                 90
_cell_angle_gamma                90
_cell_volume                     1621.63
_exptl_crystal_colour            colorless
_exptl_crystal_description       needle
_cell_formula_units_Z            2
_exptl_crystal_recrystallization_method water/ethanol
loop_
_atom_site_label
_atom_site_type_symbol
_atom_site_fract_x
_atom_site_fract_y
_atom_site_fract_z
N1 N 0.0000 0.0906(3) 0.6176(2)
C1 C 0.0000 0.0204(4) 0.7117(3)
C2 C 0.0000 0.1631(4) 0.7797(3)
C3 C 0.0000 -0.0414(4) 0.5461(2)
N2 N 0.0000 0.0928(4) 0.8736(2)
H1 H -0.0553(19) -0.051(3) 0.7175(18)
H2 H -0.0563(19) 0.230(3) 0.7742(18)
H3 H -0.054(2) 0.162(4) 0.6120(18)
H4 H 0.0000 0.177(6) 0.918(3)
H5 H -0.054(2) -0.105(4) 0.5550(19)
H6 H -0.054(2) 0.025(4) 0.8781(18)
N1D N 0.0000 -0.0906(3) 0.3824(2)
C1D C 0.0000 -0.0204(4) 0.2883(3)
C2D C 0.0000 -0.1631(4) 0.2203(3)
C3D C 0.0000 0.0414(4) 0.4539(2)
N2D N 0.0000 -0.0928(4) 0.1264(2)
H1F H 0.0553(19) -0.051(3) 0.7175(18)
H1D H 0.0553(19) 0.051(3) 0.2825(18)
H1B H -0.0553(19) 0.051(3) 0.2825(18)
H2F H 0.0563(19) 0.230(3) 0.7742(18)
H2D H 0.0563(19) -0.230(3) 0.2258(18)
H2B H -0.0563(19) -0.230(3) 0.2258(18)
H3D H 0.054(2) -0.162(4) 0.3880(18)
H3B H -0.054(2) -0.162(4) 0.3880(18)
H3F H 0.054(2) 0.162(4) 0.6120(18)
H4D H 0.0000 -0.177(6) 0.082(3)
H5D H 0.054(2) 0.105(4) 0.4450(19)
H5B H -0.054(2) 0.105(4) 0.4450(19)
H5F H 0.054(2) -0.105(4) 0.5550(19)
H6F H 0.054(2) 0.025(4) 0.8781(18)
H6D H 0.054(2) -0.025(4) 0.1219(18)
H6B H -0.054(2) -0.025(4) 0.1219(18)
O1 O 0.0000 0.3283(3) 0.01217(19)
H8 H 0.050(4) 0.302(7) 0.046(3)
H8F H -0.050(4) 0.302(7) 0.046(3)
H7 H 0.252(4) 0.913(7) 0.383(3)
O2 O 0.29272(12) 0.7826(2) 0.37500(15)
O3 O 0.21439(12) 0.0596(2) 0.37606(16)
O4 O 0.14566(12) 0.6745(2) 0.38791(16)
C4 C 0.27919(16) 0.4908(3) 0.37708(17)
H9 H 0.3458 0.4842 0.3723
O5 O 0.36214(13) 0.1628(2) 0.37806(17)
C5 C 0.22979(17) 0.3517(3) 0.38067(18)
H10 H 0.1632 0.3594 0.3853
C6 C 0.23348(16) 0.6595(3) 0.38038(18)
C7 C 0.27364(16) 0.1813(3) 0.37772(19)
loop_
_geom_bond_atom_site_label_1
_geom_bond_atom_site_label_2
_geom_bond_site_symmetry_1
_geom_bond_site_symmetry_2
N1 C1 1_555 1_555
C1 C2 1_555 1_555
C2 N2 1_555 1_555
C3 N1 1_555 1_555
N2 H4 1_555 1_555
O1 H8 1_555 1_555
H1 C1 1_555 1_555
H2 C2 1_555 1_555
H3 N1 1_555 1_555
H5 C3 1_555 1_555
H6 N2 1_555 1_555
H7 O2 1_555 1_555
O2 C6 1_555 1_555
O3 C7 1_555 1_555
O4 C6 1_555 1_555
C4 H9 1_555 1_555
O5 C7 1_555 1_555
C5 C4 1_555 1_555
H10 C5 1_555 1_555
C6 C4 1_555 1_555
C7 C5 1_555 1_555
N1D C1D 1_555 1_555
C1D C2D 1_555 1_555
C2D N2D 1_555 1_555
C3D C3 1_555 1_555
N2D H4D 1_555 1_555
H1F C1 1_555 1_555
H1D C1D 1_555 1_555
H1B C1D 1_555 1_555
H2F C2 1_555 1_555
H2D C2D 1_555 1_555
H2B C2D 1_555 1_555
H3D N1D 1_555 1_555
H3B N1D 1_555 1_555
H3F N1 1_555 1_555
H5D C3D 1_555 1_555
H5B C3D 1_555 1_555
H5F C3 1_555 1_555
H6F N2 1_555 1_555
H6D N2D 1_555 1_555
H6B N2D 1_555 1_555
H8F O1 1_555 1_555
N1D C3D 1_555 1_555

#END
