
#######################################################################
#
#                 Cambridge Crystallographic Data Centre
#                                CCDC 
#
#######################################################################
#
# If this CIF has been generated from an entry in the Cambridge 
# Structural Database, then it will include bibliographic, chemical, 
# crystal, experimental, refinement or atomic coordinate data resulting 
# from the CCDC's data processing and validation procedures.
#
#######################################################################

data_CINMAC07
_chemical_name_common            '3-Phenylacrylic acid'
_chemical_formula_moiety         'C9 H8 O2'
_chemical_name_systematic        'trans-Cinnamic acid'
_symmetry_cell_setting           monoclinic
_symmetry_space_group_name_H-M   'P 21/n'
_symmetry_Int_Tables_number      14
_space_group_name_Hall           '-P 2yn'
loop_
_symmetry_equiv_pos_site_id
_symmetry_equiv_pos_as_xyz
1 x,y,z
2 1/2-x,1/2+y,1/2-z
3 -x,-y,-z
4 1/2+x,1/2-y,1/2+z
_cell_length_a                   5.55040(10)
_cell_length_b                   17.54270(10)
_cell_length_c                   7.71610(10)
_cell_angle_alpha                90
_cell_angle_beta                 96.2960(10)
_cell_angle_gamma                90
_cell_volume                     746.778
_exptl_crystal_colour            colorless
_exptl_crystal_description       block
_cell_formula_units_Z            4
_exptl_crystal_recrystallization_method methanol
loop_
_atom_site_label
_atom_site_type_symbol
_atom_site_fract_x
_atom_site_fract_y
_atom_site_fract_z
O1 O 0.26803(7) 0.04975(2) 0.58236(4)
O2 O -0.05071(7) 0.00677(2) 0.71005(4)
C1 C 0.53321(5) 0.119200(14) 1.22626(3)
C2 C 0.66266(6) 0.148390(16) 1.37622(3)
C3 C 0.87407(6) 0.190256(16) 1.36564(4)
C4 C 0.95498(5) 0.203295(15) 1.20338(4)
C5 C 0.82592(5) 0.174013(14) 1.05311(3)
C6 C 0.61359(4) 0.131561(12) 1.06228(3)
C7 C 0.48321(5) 0.102155(13) 0.90102(3)
C8 C 0.27040(5) 0.064820(14) 0.88698(3)
C9 C 0.15126(5) 0.038215(14) 0.71843(3)
H1 H 0.174598 0.027214 0.47475
H2 H 0.373282 0.085046 1.235688
H3 H 0.598173 0.138129 1.501213
H4 H 0.975137 0.212849 1.481918
H5 H 1.117938 0.23573 1.192203
H6 H 0.89459 0.184165 0.929506
H7 H 0.570981 0.113595 0.785568
H8 H 0.179864 0.054076 1.001513
loop_
_geom_bond_atom_site_label_1
_geom_bond_atom_site_label_2
_geom_bond_site_symmetry_1
_geom_bond_site_symmetry_2
O1 C9 1_555 1_555
O2 C9 1_555 1_555
C1 C2 1_555 1_555
C2 C3 1_555 1_555
C3 C4 1_555 1_555
C4 C5 1_555 1_555
C5 C6 1_555 1_555
C6 C1 1_555 1_555
C7 C6 1_555 1_555
C8 C7 1_555 1_555
C9 C8 1_555 1_555
H1 O1 1_555 1_555
H2 C1 1_555 1_555
H3 C2 1_555 1_555
H4 C3 1_555 1_555
H5 C4 1_555 1_555
H6 C5 1_555 1_555
H7 C7 1_555 1_555
H8 C8 1_555 1_555

#END
