
#######################################################################
#
#                 Cambridge Crystallographic Data Centre
#                                CCDC 
#
#######################################################################
#
# If this CIF has been generated from an entry in the Cambridge 
# Structural Database, then it will include bibliographic, chemical, 
# crystal, experimental, refinement or atomic coordinate data resulting 
# from the CCDC's data processing and validation procedures.
#
#######################################################################

data_CINNOC
_chemical_formula_moiety         'C20 H24 N1 O1 S1 1+,Cl1 O4 1-'
_chemical_name_systematic        
'7-Benzyl-9-phenyl-3-thia-7-azabicyclo(3.3.1)nonan-9-ol hydroperchlorate'
_chemical_properties_biological  'antiarrhythmic activity'
_symmetry_cell_setting           orthorhombic
_symmetry_space_group_name_H-M   'P n a 21'
_symmetry_Int_Tables_number      33
_space_group_name_Hall           'P 2c -2n'
loop_
_symmetry_equiv_pos_site_id
_symmetry_equiv_pos_as_xyz
1 x,y,z
2 1/2-x,1/2+y,1/2+z
3 1/2+x,1/2-y,z
4 -x,-y,1/2+z
_cell_length_a                   10.046(3)
_cell_length_b                   14.858(6)
_cell_length_c                   13.084(5)
_cell_angle_alpha                90
_cell_angle_beta                 90
_cell_angle_gamma                90
_cell_volume                     1952.96
_chemical_melting_point          249-50deg.C
_cell_formula_units_Z            4
loop_
_atom_site_label
_atom_site_type_symbol
_atom_site_fract_x
_atom_site_fract_y
_atom_site_fract_z
S1 S 0.65925(9) 0.53781(5) 0.2500
C1 C 0.6800(3) 0.6636(2) 0.4123(3)
C2 C 0.7108(4) 0.6467(2) 0.2992(3)
C3 C 0.4934(3) 0.5304(2) 0.3063(3)
C4 C 0.4883(3) 0.5580(2) 0.4184(3)
C5 C 0.5691(3) 0.4956(2) 0.4884(3)
N1 N 0.7169(3) 0.5066(2) 0.4758(3)
C6 C 0.7567(3) 0.6041(2) 0.4860(3)
C7 C 0.5285(3) 0.6575(2) 0.4346(3)
O1 O 0.4547(3) 0.7072(2) 0.3598(2)
C8 C 0.7958(4) 0.4484(2) 0.5498(3)
C9 C 0.7743(3) 0.3491(2) 0.5281(3)
C10 C 0.8441(4) 0.3083(3) 0.4495(3)
C11 C 0.8262(5) 0.2175(3) 0.4301(4)
C12 C 0.7403(5) 0.1678(3) 0.4880(4)
C13 C 0.6695(5) 0.2076(3) 0.5668(3)
C14 C 0.6870(4) 0.2987(3) 0.5875(3)
C15 C 0.4926(3) 0.6946(2) 0.5411(3)
C16 C 0.5494(4) 0.7763(2) 0.5720(3)
C17 C 0.5128(4) 0.8168(2) 0.6633(3)
C18 C 0.4196(4) 0.7774(3) 0.7252(3)
C19 C 0.3626(4) 0.6970(3) 0.6958(3)
C20 C 0.3977(4) 0.6570(2) 0.6036(3)
H1 H 0.709(3) 0.723(2) 0.422(3)
H2 H 0.802(4) 0.648(3) 0.288(3)
H3 H 0.676(3) 0.695(2) 0.256(3)
H4 H 0.465(3) 0.465(2) 0.300(2)
H5 H 0.449(4) 0.565(3) 0.262(3)
H6 H 0.397(3) 0.554(2) 0.439(3)
H7 H 0.550(3) 0.435(2) 0.472(2)
H8 H 0.552(3) 0.508(2) 0.557(3)
H9 H 0.737(3) 0.492(2) 0.413(3)
H10 H 0.846(3) 0.604(2) 0.473(3)
H11 H 0.741(3) 0.622(2) 0.550(3)
H12 H 0.481(4) 0.750(3) 0.353(4)
H13 H 0.764(3) 0.466(2) 0.621(3)
H14 H 0.908(5) 0.469(3) 0.538(5)
H15 H 0.910(4) 0.348(3) 0.404(3)
H16 H 0.876(4) 0.193(3) 0.375(3)
H17 H 0.735(4) 0.107(3) 0.480(4)
H18 H 0.609(4) 0.174(3) 0.604(4)
H19 H 0.639(3) 0.327(2) 0.648(3)
H20 H 0.605(3) 0.806(2) 0.528(3)
H21 H 0.550(4) 0.878(3) 0.679(3)
H22 H 0.382(4) 0.808(3) 0.793(4)
H23 H 0.302(3) 0.670(2) 0.733(3)
H24 H 0.361(4) 0.604(3) 0.592(3)
Cl1 Cl 0.58811(8) 0.96114(5) 0.34097(10)
O2 O 0.6890(2) 1.0132(2) 0.2911(2)
O3 O 0.4623(2) 1.0040(2) 0.3312(3)
O4 O 0.6191(3) 0.9551(2) 0.4493(3)
O5 O 0.5829(3) 0.8728(2) 0.2981(3)
loop_
_geom_bond_atom_site_label_1
_geom_bond_atom_site_label_2
_geom_bond_site_symmetry_1
_geom_bond_site_symmetry_2
S1 C2 1_555 1_555
C1 C2 1_555 1_555
C2 H2 1_555 1_555
C3 S1 1_555 1_555
C4 C3 1_555 1_555
C5 C4 1_555 1_555
N1 C5 1_555 1_555
C6 C1 1_555 1_555
C7 C1 1_555 1_555
O1 C7 1_555 1_555
C8 N1 1_555 1_555
C9 C8 1_555 1_555
C10 C9 1_555 1_555
C11 C10 1_555 1_555
C12 C11 1_555 1_555
C13 C12 1_555 1_555
C14 C9 1_555 1_555
C15 C7 1_555 1_555
C16 C15 1_555 1_555
C17 C16 1_555 1_555
C18 C17 1_555 1_555
C19 C18 1_555 1_555
C20 C15 1_555 1_555
H1 C1 1_555 1_555
H3 C2 1_555 1_555
H4 C3 1_555 1_555
H5 C3 1_555 1_555
H6 C4 1_555 1_555
H7 C5 1_555 1_555
H8 C5 1_555 1_555
H9 N1 1_555 1_555
H10 C6 1_555 1_555
H11 C6 1_555 1_555
H12 O1 1_555 1_555
H13 C8 1_555 1_555
H14 C8 1_555 1_555
H15 C10 1_555 1_555
H16 C11 1_555 1_555
H17 C12 1_555 1_555
H18 C13 1_555 1_555
H19 C14 1_555 1_555
H20 C16 1_555 1_555
H21 C17 1_555 1_555
H22 C18 1_555 1_555
H23 C19 1_555 1_555
H24 C20 1_555 1_555
Cl1 O2 1_555 1_555
O3 Cl1 1_555 1_555
O4 Cl1 1_555 1_555
O5 Cl1 1_555 1_555
C4 C7 1_555 1_555
N1 C6 1_555 1_555
C13 C14 1_555 1_555
C19 C20 1_555 1_555

#END
