
#######################################################################
#
#                 Cambridge Crystallographic Data Centre
#                                CCDC 
#
#######################################################################
#
# If this CIF has been generated from an entry in the Cambridge 
# Structural Database, then it will include bibliographic, chemical, 
# crystal, experimental, refinement or atomic coordinate data resulting 
# from the CCDC's data processing and validation procedures.
#
#######################################################################

data_CINVAY
_chemical_formula_moiety         'C22 H27 Cl1 O7,2(C1 H4 O1)'
_chemical_name_systematic        
'2-(4-Chloro-3-(4-ethoxybenzyl)phenyl)-6-(hydroxymethyl)-2-methoxytetrahydro-2H-pyran-3,4,5-triol methanol solvate'
_symmetry_cell_setting           monoclinic
_symmetry_space_group_name_H-M   'C 2'
_symmetry_Int_Tables_number      5
_space_group_name_Hall           'C 2y'
loop_
_symmetry_equiv_pos_site_id
_symmetry_equiv_pos_as_xyz
1 x,y,z
2 1/2+x,1/2+y,z
3 -x,y,-z
4 1/2-x,1/2+y,-z
_cell_length_a                   20.948(3)
_cell_length_b                   6.794(2)
_cell_length_c                   18.333(2)
_cell_angle_alpha                90
_cell_angle_beta                 102.91(2)
_cell_angle_gamma                90
_cell_volume                     2543.21
_cell_formula_units_Z            4
loop_
_atom_site_label
_atom_site_type_symbol
_atom_site_fract_x
_atom_site_fract_y
_atom_site_fract_z
Cl1 Cl 0.4845 0.0519 0.0975
O1 O 0.3999 0.0334 0.4222
O2 O 0.2438 0.0327 0.2837
O3 O 0.2919 -0.0365 0.5534
O4 O 0.2111 -0.1509 0.4115
O5 O 0.1409 0.7749 0.0877
O6 O 0.3348 0.2998 0.3692
C1 C 0.3785 0.0495 0.4912
O7 O 0.4528 -0.2193 0.5428
C2 C 0.4372 -0.0463 0.2932
C3 C 0.3958 0.2046 0.1690
C4 C 0.3540 0.1054 0.3588
C5 C 0.2917 -0.0207 0.3471
C6 C 0.2638 -0.0141 0.4180
C7 C 0.4666 -0.0556 0.2324
C8 C 0.4348 -0.0197 0.5521
C9 C 0.3871 0.0889 0.2923
C10 C 0.3148 0.4622 0.1014
C11 C 0.3669 0.2102 0.2310
C12 C 0.1971 0.4955 0.0616
C13 C 0.3756 0.3437 0.1035
C14 C 0.3159 -0.0680 0.4873
C15 C 0.2003 0.6811 0.0949
C16 C 0.2533 0.3883 0.0643
C17 C 0.4459 0.0675 0.1722
C18 C 0.3162 0.6471 0.1342
C19 C 0.2592 0.7551 0.1318
C20 C 0.3858 0.4414 0.3857
C21 C 0.0747 1.0555 0.0906
C22 C 0.1419 0.9708 0.1140
H1 H 0.3698 0.1882 0.5000
H2 H 0.4508 -0.1297 0.3339
H3 H 0.2477 0.1190 0.4240
H4 H 0.5002 -0.1450 0.2324
H5 H 0.4724 0.0642 0.5527
H6 H 0.4230 -0.0062 0.6000
H7 H 0.3330 0.2987 0.2309
H8 H 0.1568 0.4439 0.0375
H9 H 0.4115 0.4344 0.1041
H10 H 0.3694 0.2681 0.0576
H11 H 0.3262 -0.2083 0.4845
H12 H 0.2507 0.2654 0.0414
H13 H 0.3563 0.7000 0.1585
H14 H 0.2614 0.8773 0.1551
H15 H 0.4247 0.3814 0.4147
H16 H 0.3726 0.5474 0.4136
H17 H 0.3943 0.4912 0.3398
H18 H 0.0589 1.0375 0.0377
H19 H 0.0760 1.1934 0.1022
H20 H 0.0460 0.9899 0.1168
H21 H 0.1725 1.0486 0.0933
H22 H 0.1560 0.9729 0.1681
H23 H 0.2910 0.0922 0.5653
H24 H 0.1707 -0.0975 0.3970
H25 H 0.4393 -0.3086 0.5727
H26 H 0.2166 0.1321 0.2895
O8 O 0.1606 0.3410 0.3030
C23 C 0.1681 0.4908 0.2528
H27 H 0.1613 0.6164 0.2738
H28 H 0.1368 0.4726 0.2064
H29 H 0.2199 0.4855 0.2441
H30 H 0.1761 0.3807 0.3503
O9 O 0.0905 1.0537 0.3488
C24 C 0.0506 0.9411 0.3047
H31 H 0.1139 1.1530 0.3322
H32 H 0.0293 0.8376 0.3371
H33 H 0.0122 1.0286 0.2705
H34 H 0.0765 0.8620 0.2691
O10? O 0.0871 0.9637 0.3888
H35? H 0.0718 0.8698 0.4154
H36? H 0.0679 1.0520 0.2715
H37? H 0.0601 0.7968 0.2848
H38? H -0.0015 0.9590 0.2996
H39? H 0.3403 -0.1573 0.3401
loop_
_geom_bond_atom_site_label_1
_geom_bond_atom_site_label_2
_geom_bond_site_symmetry_1
_geom_bond_site_symmetry_2
Cl1 C17 1_555 1_555
O1 C1 1_555 1_555
O2 C5 1_555 1_555
O3 C14 1_555 1_555
O4 C6 1_555 1_555
O5 C15 1_555 1_555
O6 C4 1_555 1_555
C1 C8 1_555 1_555
O7 C8 1_555 1_555
C2 C7 1_555 1_555
C3 C11 1_555 1_555
C4 O1 1_555 1_555
C5 C4 1_555 1_555
C6 C5 1_555 1_555
C7 C17 1_555 1_555
C8 H5 1_555 1_555
C9 C2 1_555 1_555
C10 C13 1_555 1_555
C11 C9 1_555 1_555
C12 C15 1_555 1_555
C13 C3 1_555 1_555
C14 C1 1_555 1_555
C15 C19 1_555 1_555
C16 C10 1_555 1_555
C17 C3 1_555 1_555
C18 C10 1_555 1_555
C19 C18 1_555 1_555
C20 O6 1_555 1_555
C21 C22 1_555 1_555
C22 O5 1_555 1_555
H1 C1 1_555 1_555
H2 C2 1_555 1_555
H3 C6 1_555 1_555
H4 C7 1_555 1_555
H6 C8 1_555 1_555
H7 C11 1_555 1_555
H8 C12 1_555 1_555
H9 C13 1_555 1_555
H10 C13 1_555 1_555
H11 C14 1_555 1_555
H12 C16 1_555 1_555
H13 C18 1_555 1_555
H14 C19 1_555 1_555
H15 C20 1_555 1_555
H16 C20 1_555 1_555
H17 C20 1_555 1_555
H18 C21 1_555 1_555
H19 C21 1_555 1_555
H20 C21 1_555 1_555
H21 C22 1_555 1_555
H22 C22 1_555 1_555
H23 O3 1_555 1_555
H24 O4 1_555 1_555
H25 O7 1_555 1_555
H26 O2 1_555 1_555
O8 C23 1_555 1_555
C23 H27 1_555 1_555
H28 C23 1_555 1_555
H29 C23 1_555 1_555
H30 O8 1_555 1_555
O9 C24 1_555 1_555
C24 H32 1_555 1_555
H31 O9 1_555 1_555
H33 C24 1_555 1_555
H34 C24 1_555 1_555
C4 C9 1_555 1_555
C6 C14 1_555 1_555
C12 C16 1_555 1_555

#END
