
#######################################################################
#
#                 Cambridge Crystallographic Data Centre
#                                CCDC 
#
#######################################################################
#
# If this CIF has been generated from an entry in the Cambridge 
# Structural Database, then it will include bibliographic, chemical, 
# crystal, experimental, refinement or atomic coordinate data resulting 
# from the CCDC's data processing and validation procedures.
#
#######################################################################

data_CIPMOE01
_chemical_formula_moiety         'C19 H20 N2 O2'
_chemical_name_systematic        't-butyl cyano(phenyl)(phenylamino)acetate'
_symmetry_cell_setting           monoclinic
_symmetry_space_group_name_H-M   'P 21'
_symmetry_Int_Tables_number      4
_space_group_name_Hall           'P 2yb'
loop_
_symmetry_equiv_pos_site_id
_symmetry_equiv_pos_as_xyz
1 x,y,z
2 -x,1/2+y,-z
_cell_length_a                   6.1957(2)
_cell_length_b                   15.8787(5)
_cell_length_c                   8.8089(3)
_cell_angle_alpha                90
_cell_angle_beta                 104.150(3)
_cell_angle_gamma                90
_cell_volume                     840.323
_exptl_crystal_colour            colorless
_exptl_crystal_description       plate
_cell_formula_units_Z            2
loop_
_atom_site_label
_atom_site_type_symbol
_atom_site_fract_x
_atom_site_fract_y
_atom_site_fract_z
O1 O 0.6029(3) 0.34068(10) 0.2698(2)
O2 O 0.9423(3) 0.37758(13) 0.2411(3)
N1 N 0.8326(4) 0.54032(14) 0.2182(3)
H1 H 0.9539 0.5188 0.2045
N2 N 0.2832(4) 0.49987(16) 0.0674(3)
C1 C 0.6619(4) 0.49478(13) 0.4346(3)
C2 C 0.7595(4) 0.39271(14) 0.2540(3)
C3 C 0.4509(4) 0.49263(15) 0.1539(3)
C4 C 0.8004(4) 0.62654(15) 0.1952(3)
C5 C 0.8544(4) 0.51479(17) 0.5461(3)
H2 H 0.9827 0.5295 0.5154
C6 C 0.9411(5) 0.67082(18) 0.1219(3)
H3 H 1.0509 0.6421 0.0873
C7 C 0.4701(4) 0.47480(16) 0.4811(3)
H4 H 0.3399 0.4617 0.4068
C8 C 0.6760(4) 0.48489(14) 0.2635(3)
C9 C 0.6653(6) 0.4930(2) 0.7496(3)
H5 H 0.6662 0.4921 0.8554
C10 C 0.8556(5) 0.5128(2) 0.7044(4)
H6 H 0.9857 0.5250 0.7796
C11 C 0.6161(6) 0.75716(18) 0.2219(4)
H7 H 0.5053 0.7864 0.2545
C12 C 0.6461(4) 0.25108(14) 0.3174(3)
C13 C 0.6376(5) 0.67098(16) 0.2459(3)
H8 H 0.5430 0.6428 0.2960
C14 C 0.4733(5) 0.4745(2) 0.6390(4)
H9 H 0.3442 0.4616 0.6703
C15 C 0.7583(6) 0.80010(18) 0.1498(4)
H10 H 0.7448 0.8580 0.1351
C16 C 0.7123(7) 0.20209(19) 0.1895(4)
H11 H 0.6022 0.2098 0.0928
H12 H 0.7231 0.1434 0.2162
H13 H 0.8538 0.2219 0.1779
C17 C 0.4227(6) 0.2238(2) 0.3391(5)
H14 H 0.3794 0.2602 0.4136
H15 H 0.4323 0.1669 0.3768
H16 H 0.3141 0.2271 0.2407
C18 C 0.9192(6) 0.75636(19) 0.1002(4)
H17 H 1.0146 0.7849 0.0514
C19 C 0.8243(6) 0.2491(3) 0.4699(4)
H18 H 0.9659 0.2626 0.4500
H19 H 0.8306 0.1938 0.5150
H20 H 0.7891 0.2895 0.5412
loop_
_geom_bond_atom_site_label_1
_geom_bond_atom_site_label_2
_geom_bond_site_symmetry_1
_geom_bond_site_symmetry_2
O1 C2 1_555 1_555
O2 C2 1_555 1_555
N1 H1 1_555 1_555
N2 C3 1_555 1_555
C1 C5 1_555 1_555
C2 C8 1_555 1_555
C3 C8 1_555 1_555
C4 N1 1_555 1_555
C5 H2 1_555 1_555
C6 C4 1_555 1_555
H3 C6 1_555 1_555
C7 C1 1_555 1_555
H4 C7 1_555 1_555
C8 N1 1_555 1_555
C9 H5 1_555 1_555
C10 C5 1_555 1_555
H6 C10 1_555 1_555
C11 H7 1_555 1_555
C12 O1 1_555 1_555
C13 C4 1_555 1_555
H8 C13 1_555 1_555
C14 C7 1_555 1_555
H9 C14 1_555 1_555
C15 C11 1_555 1_555
H10 C15 1_555 1_555
C16 C12 1_555 1_555
H11 C16 1_555 1_555
H12 C16 1_555 1_555
H13 C16 1_555 1_555
C17 C12 1_555 1_555
H14 C17 1_555 1_555
H15 C17 1_555 1_555
H16 C17 1_555 1_555
C18 C6 1_555 1_555
H17 C18 1_555 1_555
C19 C12 1_555 1_555
H18 C19 1_555 1_555
H19 C19 1_555 1_555
H20 C19 1_555 1_555
C1 C8 1_555 1_555
C9 C10 1_555 1_555
C9 C14 1_555 1_555
C11 C13 1_555 1_555
C15 C18 1_555 1_555

#END
