
#######################################################################
#
#                 Cambridge Crystallographic Data Centre
#                                CCDC 
#
#######################################################################
#
# If this CIF has been generated from an entry in the Cambridge 
# Structural Database, then it will include bibliographic, chemical, 
# crystal, experimental, refinement or atomic coordinate data resulting 
# from the CCDC's data processing and validation procedures.
#
#######################################################################

data_CIPPEX
_chemical_formula_moiety         'C26 H22 B1 N1 O3,C1 H1 Cl3'
_chemical_name_systematic        
'2,6-bis(5-Methyl-2-hydroxyphenyl)pyridyl-(4-methoxyphenyl)borane chloroform solvate'
_symmetry_cell_setting           monoclinic
_symmetry_space_group_name_H-M   'P 21/c'
_symmetry_Int_Tables_number      14
_space_group_name_Hall           '-P 2ybc'
loop_
_symmetry_equiv_pos_site_id
_symmetry_equiv_pos_as_xyz
1 x,y,z
2 -x,1/2+y,1/2-z
3 -x,-y,-z
4 x,1/2-y,1/2+z
_cell_length_a                   9.802(2)
_cell_length_b                   22.740(5)
_cell_length_c                   11.474(2)
_cell_angle_alpha                90
_cell_angle_beta                 92.32(3)
_cell_angle_gamma                90
_cell_volume                     2555.43
_exptl_crystal_colour            yellow
_exptl_crystal_description       prism
_cell_formula_units_Z            4
_exptl_crystal_recrystallization_method 'chloroform/diethyl ether'
_exptl_crystal_preparation       photoluminescent
loop_
_atom_site_label
_atom_site_type_symbol
_atom_site_fract_x
_atom_site_fract_y
_atom_site_fract_z
B1 B 0.3090(6) 0.3556(2) 0.1668(4)
O1 O 0.3114(3) 0.38453(12) 0.2806(2)
O2 O 0.4415(3) 0.36874(12) 0.1215(2)
O3 O -0.1404(4) 0.43131(15) -0.1359(3)
N1 N 0.3030(3) 0.28605(14) 0.1921(2)
C1 C 0.2171(5) 0.36809(19) 0.3548(3)
C2 C 0.1672(5) 0.4090(2) 0.4329(4)
H1 H 0.2024 0.4470 0.4353
C3 C 0.0658(6) 0.3931(3) 0.5064(4)
H2 H 0.0326 0.4210 0.5574
C4 C 0.0125(6) 0.3373(2) 0.5066(4)
C5 C 0.0628(5) 0.2961(2) 0.4309(3)
H3 H 0.0273 0.2582 0.4300
C6 C 0.1671(5) 0.31081(19) 0.3551(3)
C7 C 0.2278(4) 0.26625(18) 0.2808(3)
C8 C 0.2152(5) 0.20660(19) 0.2983(3)
H4 H 0.1617 0.1927 0.3575
C9 C 0.2823(6) 0.1672(2) 0.2279(4)
H5 H 0.2744 0.1269 0.2401
C10 C 0.3594(5) 0.18782(19) 0.1414(3)
H6 H 0.4051 0.1616 0.0946
C11 C 0.3703(5) 0.24815(18) 0.1223(3)
C12 C 0.4558(5) 0.27363(19) 0.0324(3)
C13 C 0.5140(5) 0.2391(2) -0.0531(3)
H7 H 0.4903 0.1996 -0.0586
C14 C 0.6058(5) 0.2617(2) -0.1300(3)
C15 C 0.6315(5) 0.3218(2) -0.1244(4)
H8 H 0.6885 0.3386 -0.1780
C16 C 0.5752(5) 0.3569(2) -0.0425(4)
H9 H 0.5953 0.3969 -0.0405
C17 C 0.4899(5) 0.33374(19) 0.0363(3)
C18 C 0.1861(5) 0.37407(17) 0.0808(3)
C19 C 0.0565(5) 0.35118(19) 0.0825(3)
H10 H 0.0399 0.3209 0.1344
C20 C -0.0504(5) 0.3710(2) 0.0108(4)
H11 H -0.1370 0.3547 0.0163
C21 C -0.0281(5) 0.4148(2) -0.0689(4)
C22 C 0.0985(6) 0.43874(19) -0.0758(4)
H12 H 0.1145 0.4685 -0.1292
C23 C 0.2029(5) 0.41829(18) -0.0023(3)
H13 H 0.2892 0.4348 -0.0083
C24 C -0.1261(6) 0.4780(2) -0.2162(4)
H14 H -0.0899 0.5119 -0.1760
H15 H -0.2137 0.4874 -0.2519
H16 H -0.0650 0.4663 -0.2753
C25 C -0.0978(6) 0.3204(3) 0.5868(4)
H17 H -0.0700 0.3304 0.6655
H18 H -0.1140 0.2789 0.5814
H19 H -0.1801 0.3413 0.5649
C26 C 0.6774(6) 0.2226(2) -0.2148(4)
H20 H 0.6805 0.2419 -0.2890
H21 H 0.6285 0.1862 -0.2237
H22 H 0.7687 0.2148 -0.1855
C27 C 0.3855(7) 0.5515(2) 0.6956(4)
H23 H 0.4496 0.5797 0.7321
Cl1 Cl 0.2280(3) 0.56579(11) 0.7466(3)
Cl2 Cl 0.3889(3) 0.56137(10) 0.54620(17)
Cl3 Cl 0.4409(3) 0.48137(8) 0.7348(2)
loop_
_geom_bond_atom_site_label_1
_geom_bond_atom_site_label_2
_geom_bond_site_symmetry_1
_geom_bond_site_symmetry_2
B1 O1 1_555 1_555
O1 C1 1_555 1_555
O2 B1 1_555 1_555
O3 C21 1_555 1_555
N1 B1 1_555 1_555
C1 C2 1_555 1_555
C2 H1 1_555 1_555
C3 C2 1_555 1_555
H2 C3 1_555 1_555
C4 C3 1_555 1_555
C5 C4 1_555 1_555
H3 C5 1_555 1_555
C6 C1 1_555 1_555
C7 N1 1_555 1_555
C8 C7 1_555 1_555
H4 C8 1_555 1_555
C9 C8 1_555 1_555
H5 C9 1_555 1_555
C10 C9 1_555 1_555
H6 C10 1_555 1_555
C11 N1 1_555 1_555
C12 C11 1_555 1_555
C13 C12 1_555 1_555
H7 C13 1_555 1_555
C14 C13 1_555 1_555
C15 C14 1_555 1_555
H8 C15 1_555 1_555
C16 C15 1_555 1_555
H9 C16 1_555 1_555
C17 O2 1_555 1_555
C18 B1 1_555 1_555
C19 C18 1_555 1_555
H10 C19 1_555 1_555
C20 C19 1_555 1_555
H11 C20 1_555 1_555
C21 C20 1_555 1_555
C22 C21 1_555 1_555
H12 C22 1_555 1_555
C23 C18 1_555 1_555
H13 C23 1_555 1_555
C24 O3 1_555 1_555
H14 C24 1_555 1_555
H15 C24 1_555 1_555
H16 C24 1_555 1_555
C25 C4 1_555 1_555
H17 C25 1_555 1_555
H18 C25 1_555 1_555
H19 C25 1_555 1_555
C26 C14 1_555 1_555
H20 C26 1_555 1_555
H21 C26 1_555 1_555
H22 C26 1_555 1_555
C27 H23 1_555 1_555
Cl1 C27 1_555 1_555
Cl2 C27 1_555 1_555
Cl3 C27 1_555 1_555
C5 C6 1_555 1_555
C6 C7 1_555 1_555
C10 C11 1_555 1_555
C12 C17 1_555 1_555
C16 C17 1_555 1_555
C22 C23 1_555 1_555

#END
