
#######################################################################
#
#                 Cambridge Crystallographic Data Centre
#                                CCDC 
#
#######################################################################
#
# If this CIF has been generated from an entry in the Cambridge 
# Structural Database, then it will include bibliographic, chemical, 
# crystal, experimental, refinement or atomic coordinate data resulting 
# from the CCDC's data processing and validation procedures.
#
#######################################################################

data_CIPSAX
_chemical_formula_moiety         'C17 H18 O4'
_chemical_name_systematic        
'Dimethyl 12-methylenetricyclo[7.2.1.0^2,7^]dodeca-2,4,6-triene-11,11-dicarboxylate'
_symmetry_cell_setting           monoclinic
_symmetry_space_group_name_H-M   'P 21/c'
_symmetry_Int_Tables_number      14
_space_group_name_Hall           '-P 2ybc'
loop_
_symmetry_equiv_pos_site_id
_symmetry_equiv_pos_as_xyz
1 x,y,z
2 -x,1/2+y,1/2-z
3 -x,-y,-z
4 x,1/2-y,1/2+z
_cell_length_a                   22.456(3)
_cell_length_b                   7.8540(10)
_cell_length_c                   17.884(2)
_cell_angle_alpha                90
_cell_angle_beta                 111.823(9)
_cell_angle_gamma                90
_cell_volume                     2928.15
_exptl_crystal_colour            colorless
_exptl_crystal_description       prism
_cell_formula_units_Z            8
loop_
_atom_site_label
_atom_site_type_symbol
_atom_site_fract_x
_atom_site_fract_y
_atom_site_fract_z
O1 O 0.04035(4) 0.56140(10) 0.20059(5)
O2 O 0.12212(3) 0.38550(10) 0.26391(4)
O3 O 0.18609(3) 0.35442(10) 0.10387(5)
O4 O 0.07931(3) 0.33927(9) 0.06900(4)
C1 C 0.09833(5) 0.71146(13) 0.10593(6)
H1 H 0.0506 0.7043 0.0880
C2 C 0.13243(5) 0.55752(13) 0.16022(6)
C3 C 0.19970(5) 0.62867(13) 0.21373(6)
H2 H 0.2087 0.6064 0.2714
H3 H 0.2338 0.5750 0.1991
C4 C 0.19658(5) 0.82251(14) 0.19702(7)
H4 H 0.2190 0.8887 0.2475
C5 C 0.22239(5) 0.86753(14) 0.13091(7)
H5 H 0.2255 0.9929 0.1279
H6 H 0.2661 0.8200 0.1458
C6 C 0.18035(5) 0.79985(13) 0.04853(6)
C7 C 0.11999(5) 0.72982(13) 0.03519(6)
C8 C 0.08158(5) 0.67233(14) -0.04124(7)
H7 H 0.0404 0.6263 -0.0499
C9 C 0.10256(6) 0.68125(15) -0.10499(7)
H8 H 0.0760 0.6419 -0.1570
C10 C 0.16271(6) 0.74835(15) -0.09184(7)
H9 H 0.1779 0.7536 -0.1348
C11 C 0.20082(6) 0.80791(14) -0.01598(7)
H10 H 0.2417 0.8551 -0.0079
C12 C 0.12569(5) 0.85643(13) 0.16420(7)
C13 C 0.09430(6) 0.97903(15) 0.18450(8)
H11 H 0.1171 1.0595 0.2246
H12 H 0.0490 0.9867 0.1590
C14 C 0.09226(5) 0.50504(13) 0.20938(6)
C15 C 0.08755(6) 0.32976(15) 0.31350(7)
H13 H 0.0816 0.4263 0.3447
H14 H 0.1121 0.2403 0.3503
H15 H 0.0456 0.2849 0.2790
C16 C 0.13748(5) 0.40567(13) 0.10928(6)
C17 C 0.07687(6) 0.20627(15) 0.01170(7)
H16 H 0.0779 0.2577 -0.0378
H17 H 0.0372 0.1407 -0.0009
H18 H 0.1139 0.1306 0.0350
O5 O 0.45742(4) 0.02752(10) 0.66217(5)
O6 O 0.37962(4) -0.16209(10) 0.64811(5)
O7 O 0.31709(4) -0.18889(10) 0.42470(5)
O8 O 0.42311(4) -0.19997(9) 0.49589(4)
C18 C 0.39561(5) 0.17267(13) 0.51098(6)
H19 H 0.4433 0.1767 0.5388
C19 C 0.36609(5) 0.01068(13) 0.53490(6)
C20 C 0.29800(5) 0.06843(14) 0.52754(7)
H20 H 0.2647 0.0037 0.4846
H21 H 0.2919 0.0499 0.5790
C21 C 0.29371(5) 0.25863(14) 0.50675(6)
H22 H 0.2684 0.3218 0.5335
C22 C 0.26637(6) 0.28816(17) 0.41481(7)
H23 H 0.2264 0.2215 0.3906
H24 H 0.2552 0.4101 0.4041
C23 C 0.31225(5) 0.23866(14) 0.37446(6)
C24 C 0.37489(5) 0.18801(13) 0.41987(6)
C25 C 0.41701(5) 0.15146(14) 0.38156(7)
H25 H 0.4596 0.1168 0.4125
C26 C 0.39740(6) 0.16512(15) 0.29815(7)
H26 H 0.4267 0.1420 0.2725
C27 C 0.33497(6) 0.21249(14) 0.25289(7)
H27 H 0.3211 0.2207 0.1959
C28 C 0.29289(6) 0.24777(14) 0.29072(7)
H28 H 0.2500 0.2788 0.2593
C29 C 0.36299(6) 0.31114(14) 0.54014(6)
C30 C 0.39003(6) 0.44126(15) 0.58747(7)
H29 H 0.3646 0.5164 0.6048
H30 H 0.4349 0.4596 0.6042
C31 C 0.40738(5) -0.03712(13) 0.62165(6)
C32 C 0.41409(8) -0.21188(19) 0.73129(7)
H31 H 0.4560 -0.2591 0.7370
H32 H 0.3893 -0.2981 0.7468
H33 H 0.4203 -0.1121 0.7663
C33 C 0.36394(5) -0.13760(13) 0.47876(6)
C34 C 0.42781(6) -0.32985(15) 0.44099(7)
H34 H 0.3968 -0.4206 0.4370
H35 H 0.4713 -0.3773 0.4611
H36 H 0.4185 -0.2796 0.3877
loop_
_geom_bond_atom_site_label_1
_geom_bond_atom_site_label_2
_geom_bond_site_symmetry_1
_geom_bond_site_symmetry_2
O1 C14 1_555 1_555
O2 C14 1_555 1_555
O3 C16 1_555 1_555
O4 C16 1_555 1_555
C1 H1 1_555 1_555
C2 C1 1_555 1_555
C3 C2 1_555 1_555
H2 C3 1_555 1_555
H3 C3 1_555 1_555
C4 C3 1_555 1_555
H4 C4 1_555 1_555
C5 C4 1_555 1_555
H5 C5 1_555 1_555
H6 C5 1_555 1_555
C6 C5 1_555 1_555
C7 C1 1_555 1_555
C8 C7 1_555 1_555
H7 C8 1_555 1_555
C9 C8 1_555 1_555
H8 C9 1_555 1_555
C10 C9 1_555 1_555
H9 C10 1_555 1_555
C11 C6 1_555 1_555
H10 C11 1_555 1_555
C12 C1 1_555 1_555
C13 C12 1_555 1_555
H11 C13 1_555 1_555
H12 C13 1_555 1_555
C14 C2 1_555 1_555
C15 O2 1_555 1_555
H13 C15 1_555 1_555
H14 C15 1_555 1_555
H15 C15 1_555 1_555
C16 C2 1_555 1_555
C17 O4 1_555 1_555
H16 C17 1_555 1_555
H17 C17 1_555 1_555
H18 C17 1_555 1_555
O5 C31 1_555 1_555
O6 C31 1_555 1_555
O7 C33 1_555 1_555
O8 C33 1_555 1_555
C18 H19 1_555 1_555
C19 C18 1_555 1_555
C20 C19 1_555 1_555
H20 C20 1_555 1_555
H21 C20 1_555 1_555
C21 C20 1_555 1_555
H22 C21 1_555 1_555
C22 C21 1_555 1_555
H23 C22 1_555 1_555
H24 C22 1_555 1_555
C23 C22 1_555 1_555
C24 C18 1_555 1_555
C25 C24 1_555 1_555
H25 C25 1_555 1_555
C26 C25 1_555 1_555
H26 C26 1_555 1_555
C27 C26 1_555 1_555
H27 C27 1_555 1_555
C28 C23 1_555 1_555
H28 C28 1_555 1_555
C29 C18 1_555 1_555
C30 C29 1_555 1_555
H29 C30 1_555 1_555
H30 C30 1_555 1_555
C31 C19 1_555 1_555
C32 O6 1_555 1_555
H31 C32 1_555 1_555
H32 C32 1_555 1_555
H33 C32 1_555 1_555
C33 C19 1_555 1_555
C34 O8 1_555 1_555
H34 C34 1_555 1_555
H35 C34 1_555 1_555
H36 C34 1_555 1_555
C4 C12 1_555 1_555
C6 C7 1_555 1_555
C10 C11 1_555 1_555
C21 C29 1_555 1_555
C23 C24 1_555 1_555
C27 C28 1_555 1_555

#END
