
#######################################################################
#
#                 Cambridge Crystallographic Data Centre
#                                CCDC 
#
#######################################################################
#
# If this CIF has been generated from an entry in the Cambridge 
# Structural Database, then it will include bibliographic, chemical, 
# crystal, experimental, refinement or atomic coordinate data resulting 
# from the CCDC's data processing and validation procedures.
#
#######################################################################

data_CIPSAW
_chemical_formula_moiety         'C21 H16 N4 O1 S1'
_chemical_name_systematic        
5-Amino-8-benzoyl-2-methyl-7-phenyl-7H-(1,3,4)thiadiazolo(3,2-a)pyridine-6-carbonitrile
_symmetry_cell_setting           triclinic
_symmetry_space_group_name_H-M   'P -1'
_symmetry_Int_Tables_number      2
_space_group_name_Hall           '-P 1'
loop_
_symmetry_equiv_pos_site_id
_symmetry_equiv_pos_as_xyz
1 x,y,z
2 -x,-y,-z
_cell_length_a                   11.6762(9)
_cell_length_b                   12.5076(6)
_cell_length_c                   13.6080(10)
_cell_angle_alpha                98.419(6)
_cell_angle_beta                 103.528(6)
_cell_angle_gamma                101.321(6)
_cell_volume                     1855.64
_exptl_crystal_colour            yellow
_exptl_crystal_description       needle
_chemical_melting_point          '213 deg.C'
_cell_formula_units_Z            4
loop_
_atom_site_label
_atom_site_type_symbol
_atom_site_fract_x
_atom_site_fract_y
_atom_site_fract_z
S1 S 0.23772(15) 0.11184(13) -0.12965(12)
O1 O 0.2302(4) 0.3179(4) -0.0616(3)
N1 N 0.3267(4) -0.0387(4) -0.0472(4)
C1 C 0.2596(5) -0.0222(5) -0.1311(5)
N2 N 0.3676(4) 0.0613(4) 0.0248(3)
C2 C 0.3286(5) 0.1526(5) -0.0044(4)
N3 N 0.4332(5) -0.0387(4) 0.1483(5)
H1 H 0.479(4) -0.048(4) 0.214(4)
H2 H 0.415(7) -0.090(6) 0.095(6)
C3 C 0.3620(5) 0.2530(4) 0.0599(4)
N4 N 0.5448(5) 0.1716(4) 0.3895(4)
C4 C 0.4532(5) 0.2706(4) 0.1634(4)
H3 H 0.4271 0.3177 0.2138
C5 C 0.4527(5) 0.1604(5) 0.1970(4)
C6 C 0.4213(5) 0.0605(5) 0.1282(4)
C7 C 0.2043(6) -0.1136(5) -0.2233(5)
H4 H 0.1573 -0.0862 -0.2775
H5 H 0.1527 -0.1733 -0.2058
H6 H 0.2673 -0.1403 -0.2462
C8 C 0.5024(5) 0.1637(5) 0.3022(5)
C9 C 0.3046(6) 0.3389(5) 0.0252(5)
C10 C 0.3285(6) 0.4509(5) 0.0932(4)
C11 C 0.4417(7) 0.5243(5) 0.1214(5)
H7 H 0.5063 0.5023 0.1023
C12 C 0.4587(7) 0.6309(5) 0.1780(5)
H8 H 0.5343 0.6807 0.1965
C13 C 0.3631(9) 0.6616(6) 0.2061(5)
H9 H 0.3747 0.7333 0.2432
C14 C 0.2505(8) 0.5902(6) 0.1815(5)
H10 H 0.1873 0.6121 0.2032
C15 C 0.2328(7) 0.4832(5) 0.1227(5)
H11 H 0.1567 0.4342 0.1036
C16 C 0.5812(5) 0.3279(4) 0.1666(5)
C17 C 0.6612(6) 0.3882(5) 0.2593(5)
H12 H 0.6337 0.3975 0.3181
C18 C 0.7824(7) 0.4353(6) 0.2658(7)
H13 H 0.8354 0.4731 0.3291
C19 C 0.8227(7) 0.4258(7) 0.1796(8)
H14 H 0.9024 0.4591 0.1829
C20 C 0.7442(7) 0.3666(6) 0.0879(6)
H15 H 0.7722 0.3594 0.0292
C21 C 0.6249(6) 0.3171(5) 0.0797(5)
H16 H 0.5739 0.2768 0.0165
S2 S 0.89635(15) 0.97475(13) 0.86278(11)
O2 O 0.8902(4) 0.7653(3) 0.8048(3)
N5 N 0.7867(4) 1.0294(4) 0.7016(3)
C22 C 0.8816(5) 1.1111(5) 0.8615(4)
N6 N 0.8234(4) 1.1301(4) 0.7746(4)
C23 C 0.8174(5) 0.9374(5) 0.7342(4)
N7 N 0.6932(5) 1.1225(5) 0.5825(5)
H17 H 0.710(7) 1.178(7) 0.639(6)
H18 H 0.641(5) 1.123(4) 0.511(5)
C24 C 0.7898(5) 0.8364(5) 0.6695(4)
C25 C 0.7321(5) 0.8232(5) 0.5544(4)
H19 H 0.6603 0.7607 0.5334
N8 N 0.5740(5) 0.9192(5) 0.3462(4)
C26 C 0.6923(5) 0.9287(5) 0.5320(4)
C27 C 0.7198(5) 1.0266(5) 0.6010(4)
C28 C 0.9346(7) 1.2014(6) 0.9550(5)
H20 H 0.9742 1.1717 1.0112
H21 H 0.8712 1.2318 0.9731
H22 H 0.9925 1.2590 0.9410
C29 C 0.6261(6) 0.9232(5) 0.4301(5)
C30 C 0.8306(5) 0.7476(5) 0.7141(4)
C31 C 0.8013(6) 0.6326(5) 0.6493(4)
C32 C 0.8961(7) 0.5866(6) 0.6367(5)
H23 H 0.9755 0.6285 0.6645
C33 C 0.8735(8) 0.4774(6) 0.5824(6)
H24 H 0.9376 0.4463 0.5740
C34 C 0.7566(8) 0.4166(6) 0.5419(5)
H25 H 0.7410 0.3445 0.5044
C35 C 0.6619(7) 0.4615(6) 0.5562(5)
H26 H 0.5826 0.4187 0.5299
C36 C 0.6836(6) 0.5698(5) 0.6095(4)
H27 H 0.6191 0.6001 0.6183
C37 C 0.8184(6) 0.7998(5) 0.4897(4)
C38 C 0.9412(7) 0.8526(6) 0.5226(6)
H28 H 0.9732 0.8999 0.5869
C39 C 1.0162(8) 0.8344(8) 0.4589(8)
H29 H 1.0987 0.8678 0.4830
C40 C 0.9733(10) 0.7706(8) 0.3643(8)
H30 H 1.0246 0.7619 0.3223
C41 C 0.8512(10) 0.7175(7) 0.3299(6)
H31 H 0.8206 0.6727 0.2642
C42 C 0.7732(7) 0.7302(5) 0.3924(5)
H32 H 0.6919 0.6924 0.3693
loop_
_geom_bond_atom_site_label_1
_geom_bond_atom_site_label_2
_geom_bond_site_symmetry_1
_geom_bond_site_symmetry_2
S1 C1 1_555 1_555
O1 C9 1_555 1_555
N1 C1 1_555 1_555
C1 C7 1_555 1_555
N2 N1 1_555 1_555
C2 S1 1_555 1_555
N3 H1 1_555 1_555
H2 N3 1_555 1_555
C3 C2 1_555 1_555
N4 C8 1_555 1_555
C4 C3 1_555 1_555
H3 C4 1_555 1_555
C5 C4 1_555 1_555
C6 N2 1_555 1_555
C7 H4 1_555 1_555
H5 C7 1_555 1_555
H6 C7 1_555 1_555
C8 C5 1_555 1_555
C9 C3 1_555 1_555
C10 C9 1_555 1_555
C11 C10 1_555 1_555
H7 C11 1_555 1_555
C12 C11 1_555 1_555
H8 C12 1_555 1_555
C13 C12 1_555 1_555
H9 C13 1_555 1_555
C14 C13 1_555 1_555
H10 C14 1_555 1_555
C15 C10 1_555 1_555
H11 C15 1_555 1_555
C16 C4 1_555 1_555
C17 C16 1_555 1_555
H12 C17 1_555 1_555
C18 C17 1_555 1_555
H13 C18 1_555 1_555
C19 C18 1_555 1_555
H14 C19 1_555 1_555
C20 C19 1_555 1_555
H15 C20 1_555 1_555
C21 C16 1_555 1_555
H16 C21 1_555 1_555
S2 C22 1_555 1_555
O2 C30 1_555 1_555
N5 N6 1_555 1_555
C22 N6 1_555 1_555
C23 S2 1_555 1_555
N7 H17 1_555 1_555
H18 N7 1_555 1_555
C24 C23 1_555 1_555
C25 C24 1_555 1_555
H19 C25 1_555 1_555
N8 C29 1_555 1_555
C26 C25 1_555 1_555
C27 N5 1_555 1_555
C28 C22 1_555 1_555
H20 C28 1_555 1_555
H21 C28 1_555 1_555
H22 C28 1_555 1_555
C29 C26 1_555 1_555
C30 C24 1_555 1_555
C31 C30 1_555 1_555
C32 C31 1_555 1_555
H23 C32 1_555 1_555
C33 C32 1_555 1_555
H24 C33 1_555 1_555
C34 C33 1_555 1_555
H25 C34 1_555 1_555
C35 C34 1_555 1_555
H26 C35 1_555 1_555
C36 C31 1_555 1_555
H27 C36 1_555 1_555
C37 C25 1_555 1_555
C38 C37 1_555 1_555
H28 C38 1_555 1_555
C39 C38 1_555 1_555
H29 C39 1_555 1_555
C40 C39 1_555 1_555
H30 C40 1_555 1_555
C41 C40 1_555 1_555
H31 C41 1_555 1_555
C42 C37 1_555 1_555
H32 C42 1_555 1_555
N2 C2 1_555 1_555
N3 C6 1_555 1_555
C5 C6 1_555 1_555
C14 C15 1_555 1_555
C20 C21 1_555 1_555
N5 C23 1_555 1_555
N7 C27 1_555 1_555
C26 C27 1_555 1_555
C35 C36 1_555 1_555
C41 C42 1_555 1_555

#END
