
#######################################################################
#
#                 Cambridge Crystallographic Data Centre
#                                CCDC 
#
#######################################################################
#
# If this CIF has been generated from an entry in the Cambridge 
# Structural Database, then it will include bibliographic, chemical, 
# crystal, experimental, refinement or atomic coordinate data resulting 
# from the CCDC's data processing and validation procedures.
#
#######################################################################

data_CIPVUU
_chemical_name_common            'dapagliflozin bis(proline)'
_chemical_formula_moiety         'C21 H25 Cl1 O6,2(C5 H9 N1 O2)'
_chemical_name_systematic        
'bis(2-carboxypyrrolidinium) 2-(4-chloro-3-(4-ethoxybenzyl)phenyl)-6-(hydroxymethyl)tetrahydro-2H-pyran-3,4,5-triol'
_chemical_properties_biological  'Dapagliflozin is a SGLT2 inhibitor.'
_symmetry_cell_setting           triclinic
_symmetry_space_group_name_H-M   'P 1'
_symmetry_Int_Tables_number      1
_space_group_name_Hall           'P 1'
loop_
_symmetry_equiv_pos_site_id
_symmetry_equiv_pos_as_xyz
1 x,y,z
_cell_length_a                   10.311(1)
_cell_length_b                   11.334(1)
_cell_length_c                   27.497(1)
_cell_angle_alpha                95.94
_cell_angle_beta                 99.22
_cell_angle_gamma                90
_cell_volume                     3154.44
_cell_formula_units_Z            4
loop_
_atom_site_label
_atom_site_type_symbol
_atom_site_fract_x
_atom_site_fract_y
_atom_site_fract_z
Cl1 Cl 0.8511 0.3142 0.4683
O1 O 0.1890 0.4635 0.4796
O2 O 0.7564 0.4104 0.2284
O3 O 0.4729 0.5010 0.2885
O4 O 0.4376 0.6313 0.2067
O5 O 0.8989 0.3300 0.1500
C1 C 0.2926 0.3792 0.4153
C2 C 0.6818 0.2711 0.3799
C3 C 0.5724 0.5066 0.2584
C4 C 0.7120 0.3675 0.3085
C5 C 0.6191 0.5325 0.1740
O6 O 0.5675 0.5324 0.1226
C6 C 0.8659 0.4113 0.3834
C7 C 0.6573 0.3919 0.2567
C8 C 0.7888 0.3318 0.4049
C9 C 0.3975 0.3524 0.4995
C10 C 0.5114 0.5240 0.2053
C11 C 0.7053 0.4187 0.1784
C12 C 0.2907 0.3910 0.4630
C13 C 0.4894 0.2664 0.4264
C14 C 0.4996 0.2842 0.4793
C15 C 0.8273 0.4301 0.3341
C16 C 0.2056 0.4854 0.5344
C17 C 0.8279 0.4316 0.1519
C18 C 0.3898 0.3142 0.3967
C19 C 0.5990 0.1967 0.4055
C20 C 0.6395 0.2861 0.3305
C21 C 0.0776 0.5599 0.5411
H1 H 0.4098 0.4245 0.2757
H2 H 0.5933 0.3154 0.2391
H3 H 0.6757 0.6123 0.1863
H4 H 0.3866 0.3009 0.3571
H5 H 0.2181 0.4202 0.3906
H6 H 0.4003 0.3732 0.5389
H7 H 0.5801 0.2482 0.5031
H8 H 0.2065 0.4036 0.5514
H9 H 0.2944 0.5361 0.5495
H10 H 0.5550 0.1248 0.3793
H11 H 0.6617 0.1611 0.4357
H12 H 0.8817 0.4891 0.3161
H13 H 0.5549 0.2379 0.3095
H14 H 0.9521 0.4556 0.4051
H15 H 0.8905 0.5029 0.1720
H16 H 0.7945 0.4527 0.1146
H17 H 0.6455 0.3409 0.1637
H18 H 0.6364 0.5818 0.2730
H19 H 0.4471 0.4497 0.1897
H20 H 0.9902 0.3430 0.1754
H21 H 0.3733 0.6344 0.1718
H22 H 0.5145 0.6132 0.1167
Cl2 Cl 0.8615 0.7651 0.4622
O7 O 0.4735 1.0020 0.2917
O8 O 0.4387 1.1337 0.2094
O9 O 0.7479 0.9028 0.2288
O10 O 0.8902 0.8251 0.1497
C22 C 0.8261 0.9016 0.3336
C23 C 0.6485 0.8878 0.2580
O11 O 0.5610 1.0347 0.1249
C24 C 0.6759 0.7507 0.3797
C25 C 0.5079 1.0262 0.2062
C26 C 0.4780 0.7554 0.4220
C27 C 0.6312 0.7804 0.3315
O12 O 0.1584 0.9450 0.4656
C28 C 0.7041 0.8583 0.3076
C29 C 0.3624 0.6994 0.4359
C30 C 0.8678 0.8769 0.3809
C31 C 0.5696 1.0064 0.2602
C32 C 0.6975 0.9154 0.1787
C33 C 0.3635 0.9472 0.4341
C34 C 0.6156 1.0330 0.1758
C35 C 0.2666 0.7602 0.4513
C36 C 0.2689 0.8865 0.4494
C37 C 0.4642 0.8736 0.4176
C38 C 0.8214 0.9316 0.1526
C39 C 0.5864 0.6836 0.4051
C40 C 0.7948 0.8027 0.4039
C41 C 0.1465 1.0758 0.4752
C42 C 0.2078 1.0792 0.5264
H23 H 0.4058 0.9277 0.2777
H24 H 0.5824 0.8169 0.2387
H25 H 0.8870 0.9544 0.3141
H26 H 0.6718 1.1140 0.1882
H27 H 0.3564 0.6038 0.4332
H28 H 0.1884 0.7171 0.4650
H29 H 0.5357 0.9155 0.4000
H30 H 0.3640 1.0426 0.4342
H31 H 0.2010 1.1248 0.4533
H32 H 0.0459 1.1049 0.4708
H33 H 0.5434 0.6098 0.3796
H34 H 0.6443 0.6506 0.4370
H35 H 0.9590 0.9156 0.4010
H36 H 0.5387 0.7432 0.3119
H37 H 0.6347 0.8402 0.1631
H38 H 0.6370 1.0795 0.2743
H39 H 0.8851 1.0006 0.1739
H40 H 0.7895 0.9562 0.1157
H41 H 0.4415 0.9538 0.1901
H42 H 0.9838 0.8359 0.1739
H43 H 0.5133 1.1183 0.1197
H44 H 0.3740 1.1406 0.1748
C43 C 0.7131 0.5906 0.5918
C44 C 0.6549 0.5814 0.5389
Cl3 Cl 0.0092 0.3008 0.6072
O13 O 0.1209 0.5563 0.8403
O14 O 0.3970 0.6243 0.7788
C45 C 0.2253 0.5273 0.81211
C46 C 0.3613 0.6922 0.8623
C47 C 0.1934 0.3303 0.6884
C48 C 0.1674 0.4723 0.7614
C49 C 0.2412 0.3835 0.7390
C50 C -0.0019 0.4492 0.6892
O15 O 0.4278 0.7982 0.8605
O16 O -0.0213 0.5180 0.9192
C51 C 0.0441 0.5055 0.7380
O17 O 0.7087 0.4793 0.6025
C52 C 0.1729 0.5956 0.8909
C53 C 0.4982 0.4992 0.6339
C54 C 0.5097 0.2528 0.6324
C55 C 0.3008 0.6402 0.8083
C56 C 0.3983 0.4301 0.6518
O18 O 0.3078 0.7393 0.9449
C57 C 0.2809 0.2490 0.6650
C58 C 0.3930 0.3137 0.6470
C59 C 0.0746 0.3688 0.6663
C60 C 0.6122 0.3067 0.6180
C61 C 0.2545 0.7117 0.8934
C62 C 0.6095 0.4314 0.6189
C63 C 0.0478 0.6254 0.9173
H45 H 0.2893 0.4626 0.8307
H46 H 0.2300 0.7037 0.7933
H47 H 0.4290 0.6296 0.8786
H48 H 0.8131 0.6240 0.5975
H49 H 0.6558 0.6475 0.6139
H50 H 0.6926 0.2563 0.6062
H51 H 0.5135 0.1579 0.6334
H52 H 0.3254 0.4776 0.6699
H53 H 0.4904 0.5936 0.6319
H54 H 0.3235 0.1904 0.6915
H55 H 0.2237 0.1976 0.6335
H56 H -0.0976 0.4703 0.6701
H57 H -0.0138 0.5707 0.7560
H58 H 0.3324 0.3549 0.7591
H59 H 0.1908 0.7806 0.8796
H60 H 0.2352 0.5280 0.9067
H61 H -0.0156 0.6845 0.8964
H62 H 0.0795 0.6672 0.9544
H63 H 0.4635 0.5569 0.7921
H64 H 0.4937 0.8202 0.8949
H65 H 0.3569 0.8249 0.9503
H66 H -0.1149 0.5173 0.8950
Cl4 Cl 0.0184 0.8459 0.6019
O19 O 0.3952 1.1247 0.7804
O20 O 0.1147 1.0661 0.8415
O21 O 0.6781 0.9872 0.5898
O22 O 0.4317 1.2935 0.8633
C64 C 0.5806 0.9279 0.6059
C65 C 0.4768 0.8827 0.6738
C66 C 0.1859 0.8490 0.6890
C67 C 0.5840 0.9396 0.6532
C68 C 0.3778 0.8134 0.5924
C69 C 0.2988 1.1454 0.8102
O23 O 0.3053 1.2394 0.9473
O24 O -0.0298 1.0236 0.9198
C70 C 0.1616 0.9797 0.7616
C71 C 0.4712 0.8729 0.5711
C72 C 0.1655 1.0994 0.8923
C73 C 0.2173 1.0311 0.8129
C74 C 0.2502 1.2127 0.8951
C75 C 0.3763 0.8179 0.6434
C76 C 0.0002 0.9826 0.6866
C77 C 0.6693 0.9881 0.5388
C78 C 0.2312 0.8864 0.7377
C79 C 0.3605 1.1913 0.8637
C80 C 0.0428 1.0292 0.7357
C81 C 0.7936 1.0536 0.5306
C82 C 0.0458 1.1266 0.9182
C83 C 0.0732 0.8975 0.6629
C84 C 0.2697 0.7610 0.6655
H67 H 0.2800 0.9658 0.8316
H68 H 0.4233 1.1238 0.8797
H69 H 0.2317 1.2108 0.7948
H70 H 0.3143 0.7048 0.6931
H71 H 0.2074 0.7050 0.6363
H72 H 0.6658 0.8985 0.5209
H73 H 0.5824 1.0343 0.5241
H74 H 0.4621 0.8772 0.5316
H75 H 0.6624 0.9895 0.6775
H76 H 0.4780 0.8924 0.7134
H77 H 0.3024 0.7608 0.5678
H78 H -0.0101 1.0987 0.7537
H79 H -0.0905 1.0129 0.6667
H80 H 0.3164 0.8472 0.7576
H81 H 0.2250 1.0292 0.9073
H82 H -0.0153 1.1891 0.8983
H83 H 0.0798 1.1653 0.9557
H84 H 0.1903 1.2849 0.8822
H85 H 0.4593 1.0560 0.7941
H86 H 0.4954 1.3127 0.8984
H87 H 0.3566 1.3240 0.9528
H88 H -0.1207 1.0256 0.8942
O25 O 0.1176 0.8835 0.2145
N1 N 0.2152 0.6016 0.2596
C85 C 0.1172 0.6843 0.2345
O26 O 0.2914 0.8241 0.2651
C86 C 0.1853 0.8095 0.2384
C87 C 0.1980 0.6021 0.3121
C88 C 0.0814 0.6857 0.3187
C89 C 0.0075 0.6839 0.2657
H89 H 0.0880 0.6513 0.1960
H90 H 0.1989 0.5128 0.2411
H91 H 0.3065 0.6289 0.2579
H92 H -0.0527 0.7614 0.2616
H93 H -0.0535 0.6049 0.2555
H94 H 0.0202 0.6522 0.3427
H95 H 0.1160 0.7743 0.3334
H96 H 0.1753 0.5137 0.3200
H97 H 0.2861 0.6352 0.3365
O27 O 0.5811 0.9560 0.8015
O28 O 0.7490 1.0434 0.8543
C90 C 0.7527 0.8332 0.8327
C91 C 0.6889 0.9523 0.8297
N2 N 0.6668 0.7335 0.8097
C92 C 0.6961 0.7064 0.7572
C93 C 0.8711 0.8236 0.8064
C94 C 0.8046 0.7903 0.7522
H98 H 0.9296 0.9035 0.8114
H99 H 0.9361 0.7508 0.8190
H100 H 0.8750 0.7504 0.7303
H101 H 0.7682 0.8708 0.7360
H102 H 0.7802 0.8212 0.8719
H103 H 0.7271 0.6158 0.7513
H104 H 0.6099 0.7203 0.7306
H105 H 0.6871 0.6572 0.8300
H106 H 0.5726 0.7555 0.8089
O29 O 0.2901 0.3199 0.2689
N3 N 0.2077 0.0992 0.2607
C95 C 0.1849 0.3081 0.2401
O30 O 0.1224 0.3825 0.2158
C96 C 0.1134 0.1822 0.2345
C97 C -0.0001 0.1822 0.2639
C98 C 0.1765 0.0951 0.3122
C99 C 0.0624 0.1788 0.3149
H107 H 0.0994 0.2669 0.3315
H108 H -0.0039 0.1476 0.3381
H109 H -0.0603 0.2607 0.2596
H110 H -0.0651 0.1051 0.2518
H111 H 0.1486 0.0063 0.3177
H112 H 0.2600 0.1251 0.3397
H113 H 0.1968 0.0115 0.2409
H114 H 0.3000 0.1287 0.2626
H115 H 0.0881 0.1498 0.1958
C100 C 0.7503 0.3375 0.8345
O31 O 0.7509 0.5453 0.8549
O32 O 0.5797 0.4581 0.8039
N4 N 0.6576 0.2389 0.8101
C101 C 0.6884 0.4556 0.8306
C102 C 0.8656 0.3215 0.8057
C103 C 0.7926 0.2957 0.7527
C104 C 0.6813 0.2179 0.7580
H116 H 0.7059 0.1256 0.7481
H117 H 0.5948 0.2388 0.7319
H118 H 0.7564 0.3753 0.7372
H119 H 0.8547 0.2500 0.7286
H120 H 0.7784 0.3252 0.8732
H121 H 0.9256 0.4012 0.8101
H122 H 0.9261 0.2471 0.8168
H123 H 0.6775 0.1597 0.8286
H124 H 0.5646 0.2627 0.8110
O33 O 0.2706 0.6596 0.1242
O34 O 0.4116 0.7306 0.0823
N5 N 0.2962 0.9340 0.0695
C105 C 0.3243 0.7268 0.1018
C106 C 0.2366 0.8510 0.0985
C107 C 0.2021 0.9562 0.0266
C108 C 0.0946 0.8269 0.0685
C109 C 0.0736 0.9268 0.0393
H125 H 0.2066 1.0481 0.0198
H126 H 0.2205 0.9003 -0.0057
H127 H 0.0377 1.0016 0.0609
H128 H 0.0037 0.9030 0.0061
H129 H 0.0897 0.7441 0.0449
H130 H 0.0231 0.8249 0.0931
H131 H 0.2352 0.8932 0.1354
H132 H 0.3226 1.0165 0.0923
H133 H 0.3766 0.8979 0.0586
O35 O 0.2708 0.1591 0.1241
O36 O 0.4177 0.2319 0.0834
N6 N 0.2949 0.4330 0.0684
C110 C 0.2341 0.3504 0.0971
C111 C 0.3311 0.2307 0.1033
C112 C 0.0690 0.4256 0.0394
C113 C 0.1944 0.4576 0.0266
C114 C 0.0916 0.3239 0.0659
H134 H 0.2264 0.3961 0.1333
H135 H 0.1967 0.5506 0.0213
H136 H 0.2110 0.4051 -0.0068
H137 H 0.0336 0.4977 0.0623
H138 H -0.0021 0.4046 0.0062
H139 H 0.0901 0.2437 0.0409
H140 H 0.0195 0.3163 0.0900
H141 H 0.3256 0.5143 0.0915
H142 H 0.3726 0.3954 0.0559
C115 C 0.5540 0.4526 0.9706
O37 O 0.4543 0.4603 0.9840
O38 O 0.6026 0.3671 0.9467
N7 N 0.5722 0.6674 0.9975
C116 C 0.7962 0.6796 1.0284
C117 C 0.7705 0.5623 1.0029
C118 C 0.6633 0.7048 1.0426
C119 C 0.6369 0.5668 0.9718
H143 H 0.8439 0.5395 0.9797
H144 H 0.7706 0.4978 1.0292
H145 H 0.8720 0.6797 1.0604
H146 H 0.8229 0.7417 1.0042
H147 H 0.6538 0.7982 1.0537
H148 H 0.6468 0.6543 1.0723
H149 H 0.6429 0.5849 0.9344
H150 H 0.4798 0.6384 1.0063
H151 H 0.5568 0.7339 0.9761
N8 N 0.5736 1.1664 0.9988
C120 C 0.6413 1.0706 0.9734
C121 C 0.6566 1.2036 1.0440
C122 C 0.7913 1.1762 1.0303
C123 C 0.7728 1.0572 1.0049
O39 O 0.5984 0.8670 0.9446
O40 O 0.4528 0.9612 0.9826
C124 C 0.5532 0.9542 0.9687
H152 H 0.6545 1.0931 0.9372
H153 H 0.7695 0.9914 1.0304
H154 H 0.8485 1.0349 0.9826
H155 H 0.8184 1.2380 1.0061
H156 H 0.8655 1.1783 1.0629
H157 H 0.6469 1.2971 1.0548
H158 H 0.6369 1.1536 1.0734
H159 H 0.5570 1.2393 0.9763
H160 H 0.4876 1.1366 1.0054
loop_
_geom_bond_atom_site_label_1
_geom_bond_atom_site_label_2
_geom_bond_site_symmetry_1
_geom_bond_site_symmetry_2
Cl1 C8 1_555 1_555
O1 C12 1_555 1_555
O2 C7 1_555 1_555
O3 C3 1_555 1_555
O4 C10 1_555 1_555
O5 C17 1_555 1_555
C1 C12 1_555 1_555
C2 C8 1_555 1_555
C3 C7 1_555 1_555
C4 C7 1_555 1_555
C5 O6 1_555 1_555
O6 H22 1_555 1_555
C6 C8 1_555 1_555
C7 H2 1_555 1_555
C9 C12 1_555 1_555
C10 C3 1_555 1_555
C11 O2 1_555 1_555
C13 C14 1_555 1_555
C14 C9 1_555 1_555
C15 C4 1_555 1_555
C16 O1 1_555 1_555
C17 C11 1_555 1_555
C18 C1 1_555 1_555
C19 C2 1_555 1_555
C20 C2 1_555 1_555
C21 C16 1_555 1_555
H1 O3 1_555 1_555
H3 C5 1_555 1_555
H4 C18 1_555 1_555
H5 C1 1_555 1_555
H6 C9 1_555 1_555
H7 C14 1_555 1_555
H8 C16 1_555 1_555
H9 C16 1_555 1_555
H10 C19 1_555 1_555
H11 C19 1_555 1_555
H12 C15 1_555 1_555
H13 C20 1_555 1_555
H14 C6 1_555 1_555
H15 C17 1_555 1_555
H16 C17 1_555 1_555
H17 C11 1_555 1_555
H18 C3 1_555 1_555
H19 C10 1_555 1_555
H20 O5 1_555 1_555
H21 O4 1_555 1_555
Cl2 C40 1_555 1_555
O7 C31 1_555 1_555
O8 C25 1_555 1_555
O9 C23 1_555 1_555
O10 C38 1_555 1_555
C22 C28 1_555 1_555
C23 C28 1_555 1_555
O11 C34 1_555 1_555
C24 C27 1_555 1_555
C25 C31 1_555 1_555
C26 C29 1_555 1_555
C27 C28 1_555 1_555
O12 C36 1_555 1_555
C29 C35 1_555 1_555
C30 C22 1_555 1_555
C31 C23 1_555 1_555
C32 O9 1_555 1_555
C33 C36 1_555 1_555
C34 C25 1_555 1_555
C35 C36 1_555 1_555
C37 C26 1_555 1_555
C38 C32 1_555 1_555
C39 C24 1_555 1_555
C40 C24 1_555 1_555
C41 O12 1_555 1_555
C42 C41 1_555 1_555
H23 O7 1_555 1_555
H24 C23 1_555 1_555
H25 C22 1_555 1_555
H26 C34 1_555 1_555
H27 C29 1_555 1_555
H28 C35 1_555 1_555
H29 C37 1_555 1_555
H30 C33 1_555 1_555
H31 C41 1_555 1_555
H32 C41 1_555 1_555
H33 C39 1_555 1_555
H34 C39 1_555 1_555
H35 C30 1_555 1_555
H36 C27 1_555 1_555
H37 C32 1_555 1_555
H38 C31 1_555 1_555
H39 C38 1_555 1_555
H40 C38 1_555 1_555
H41 C25 1_555 1_555
H42 O10 1_555 1_555
H43 O11 1_555 1_555
H44 O8 1_555 1_555
C43 C44 1_555 1_555
Cl3 C59 1_555 1_555
O13 C45 1_555 1_555
O14 C55 1_555 1_555
C45 C48 1_555 1_555
C46 O15 1_555 1_555
C47 C49 1_555 1_555
C48 C49 1_555 1_555
C49 H58 1_555 1_555
C50 C51 1_555 1_555
O15 H64 1_555 1_555
O16 C63 1_555 1_555
C51 C48 1_555 1_555
O17 C43 1_555 1_555
C52 O13 1_555 1_555
C53 C56 1_555 1_555
C54 C58 1_555 1_555
C55 C45 1_555 1_555
C56 C58 1_555 1_555
O18 C61 1_555 1_555
C57 C47 1_555 1_555
C58 C57 1_555 1_555
C59 C47 1_555 1_555
C60 C54 1_555 1_555
C61 C46 1_555 1_555
C62 O17 1_555 1_555
C63 C52 1_555 1_555
H45 C45 1_555 1_555
H46 C55 1_555 1_555
H47 C46 1_555 1_555
H48 C43 1_555 1_555
H49 C43 1_555 1_555
H50 C60 1_555 1_555
H51 C54 1_555 1_555
H52 C56 1_555 1_555
H53 C53 1_555 1_555
H54 C57 1_555 1_555
H55 C57 1_555 1_555
H56 C50 1_555 1_555
H57 C51 1_555 1_555
H59 C61 1_555 1_555
H60 C52 1_555 1_555
H61 C63 1_555 1_555
H62 C63 1_555 1_555
H63 O14 1_555 1_555
H65 O18 1_555 1_555
H66 O16 1_555 1_555
Cl4 C83 1_555 1_555
O19 C69 1_555 1_555
O20 C72 1_555 1_555
O21 C64 1_555 1_555
O22 C79 1_555 1_555
C64 C67 1_555 1_555
C65 C67 1_555 1_555
C66 C78 1_555 1_555
C67 H75 1_555 1_555
C68 C71 1_555 1_555
C69 C73 1_555 1_555
O23 C74 1_555 1_555
O24 C82 1_555 1_555
C70 C73 1_555 1_555
C71 C64 1_555 1_555
C72 C74 1_555 1_555
C73 O20 1_555 1_555
C74 C79 1_555 1_555
C75 C65 1_555 1_555
C76 C80 1_555 1_555
C77 O21 1_555 1_555
C78 C70 1_555 1_555
C79 C69 1_555 1_555
C80 C70 1_555 1_555
C81 C77 1_555 1_555
C82 C72 1_555 1_555
C83 C66 1_555 1_555
C84 C66 1_555 1_555
H67 C73 1_555 1_555
H68 C79 1_555 1_555
H69 C69 1_555 1_555
H70 C84 1_555 1_555
H71 C84 1_555 1_555
H72 C77 1_555 1_555
H73 C77 1_555 1_555
H74 C71 1_555 1_555
H76 C65 1_555 1_555
H77 C68 1_555 1_555
H78 C80 1_555 1_555
H79 C76 1_555 1_555
H80 C78 1_555 1_555
H81 C72 1_555 1_555
H82 C82 1_555 1_555
H83 C82 1_555 1_555
H84 C74 1_555 1_555
H85 O19 1_555 1_555
H86 O22 1_555 1_555
H87 O23 1_555 1_555
H88 O24 1_555 1_555
O25 C86 1_555 1_555
N1 C85 1_555 1_555
C85 C86 1_555 1_555
O26 C86 1_555 1_555
C87 N1 1_555 1_555
C88 C87 1_555 1_555
C89 C85 1_555 1_555
H89 C85 1_555 1_555
H90 N1 1_555 1_555
H91 N1 1_555 1_555
H92 C89 1_555 1_555
H93 C89 1_555 1_555
H94 C88 1_555 1_555
H95 C88 1_555 1_555
H96 C87 1_555 1_555
H97 C87 1_555 1_555
O27 C91 1_555 1_555
O28 C91 1_555 1_555
C90 C91 1_555 1_555
N2 C90 1_555 1_555
C92 N2 1_555 1_555
C93 C90 1_555 1_555
C94 C92 1_555 1_555
H98 C93 1_555 1_555
H99 C93 1_555 1_555
H100 C94 1_555 1_555
H101 C94 1_555 1_555
H102 C90 1_555 1_555
H103 C92 1_555 1_555
H104 C92 1_555 1_555
H105 N2 1_555 1_555
H106 N2 1_555 1_555
O29 C95 1_555 1_555
N3 C96 1_555 1_555
C95 O30 1_555 1_555
C96 C95 1_555 1_555
C97 C96 1_555 1_555
C98 N3 1_555 1_555
C99 C97 1_555 1_555
H107 C99 1_555 1_555
H108 C99 1_555 1_555
H109 C97 1_555 1_555
H110 C97 1_555 1_555
H111 C98 1_555 1_555
H112 C98 1_555 1_555
H113 N3 1_555 1_555
H114 N3 1_555 1_555
H115 C96 1_555 1_555
C100 N4 1_555 1_555
O31 C101 1_555 1_555
O32 C101 1_555 1_555
N4 C104 1_555 1_555
C101 C100 1_555 1_555
C102 C100 1_555 1_555
C103 C102 1_555 1_555
C104 C103 1_555 1_555
H116 C104 1_555 1_555
H117 C104 1_555 1_555
H118 C103 1_555 1_555
H119 C103 1_555 1_555
H120 C100 1_555 1_555
H121 C102 1_555 1_555
H122 C102 1_555 1_555
H123 N4 1_555 1_555
H124 N4 1_555 1_555
O33 C105 1_555 1_555
O34 C105 1_555 1_555
N5 C106 1_555 1_555
C105 C106 1_555 1_555
C106 C108 1_555 1_555
C107 N5 1_555 1_555
C108 C109 1_555 1_555
C109 C107 1_555 1_555
H125 C107 1_555 1_555
H126 C107 1_555 1_555
H127 C109 1_555 1_555
H128 C109 1_555 1_555
H129 C108 1_555 1_555
H130 C108 1_555 1_555
H131 C106 1_555 1_555
H132 N5 1_555 1_555
H133 N5 1_555 1_555
O35 C111 1_555 1_555
O36 C111 1_555 1_555
N6 C110 1_555 1_555
C110 C111 1_555 1_555
C112 C113 1_555 1_555
C113 N6 1_555 1_555
C114 C110 1_555 1_555
H134 C110 1_555 1_555
H135 C113 1_555 1_555
H136 C113 1_555 1_555
H137 C112 1_555 1_555
H138 C112 1_555 1_555
H139 C114 1_555 1_555
H140 C114 1_555 1_555
H141 N6 1_555 1_555
H142 N6 1_555 1_555
C115 O37 1_555 1_555
O38 C115 1_555 1_555
N7 C118 1_555 1_555
C116 C117 1_555 1_555
C117 C119 1_555 1_555
C118 C116 1_555 1_555
C119 C115 1_555 1_555
H143 C117 1_555 1_555
H144 C117 1_555 1_555
H145 C116 1_555 1_555
H146 C116 1_555 1_555
H147 C118 1_555 1_555
H148 C118 1_555 1_555
H149 C119 1_555 1_555
H150 N7 1_555 1_555
H151 N7 1_555 1_555
N8 C120 1_555 1_555
C120 C123 1_555 1_555
C121 N8 1_555 1_555
C122 C121 1_555 1_555
C123 C122 1_555 1_555
O39 C124 1_555 1_555
O40 C124 1_555 1_555
C124 C120 1_555 1_555
H152 C120 1_555 1_555
H153 C123 1_555 1_555
H154 C123 1_555 1_555
H155 C122 1_555 1_555
H156 C122 1_555 1_555
H157 C121 1_555 1_555
H158 C121 1_555 1_555
H159 N8 1_555 1_555
H160 N8 1_555 1_555
C4 C20 1_555 1_555
C5 C10 1_555 1_555
C5 C11 1_555 1_555
C6 C15 1_555 1_555
C13 C18 1_555 1_555
C13 C19 1_555 1_555
C26 C39 1_555 1_555
C30 C40 1_555 1_555
C32 C34 1_555 1_555
C33 C37 1_555 1_555
C46 C55 1_555 1_555
C50 C59 1_555 1_555
C52 C61 1_555 1_555
C53 C62 1_555 1_555
C60 C62 1_555 1_555
C68 C75 1_555 1_555
C75 C84 1_555 1_555
C76 C83 1_555 1_555
C88 C89 1_555 1_555
C93 C94 1_555 1_555
C98 C99 1_555 1_555
C112 C114 1_555 1_555
N7 C119 1_555 1_555

#END
