
#######################################################################
#
#                 Cambridge Crystallographic Data Centre
#                                CCDC 
#
#######################################################################
#
# If this CIF has been generated from an entry in the Cambridge 
# Structural Database, then it will include bibliographic, chemical, 
# crystal, experimental, refinement or atomic coordinate data resulting 
# from the CCDC's data processing and validation procedures.
#
#######################################################################

data_CIPXII
_chemical_compound_source        'Sassafras randaiense (Hay.) Rehd. (Lauraceae)'
_chemical_name_common            Magnolol
_chemical_formula_moiety         'C18 H18 O2'
_chemical_name_systematic        2,2'-Dihydroxy-5,5'-diallyl-biphenyl
_chemical_properties_biological  'antibacterial, antifungal agent'
_symmetry_cell_setting           monoclinic
_symmetry_space_group_name_H-M   'P 21/c'
_symmetry_Int_Tables_number      14
_space_group_name_Hall           '-P 2ybc'
loop_
_symmetry_equiv_pos_site_id
_symmetry_equiv_pos_as_xyz
1 x,y,z
2 -x,1/2+y,1/2-z
3 -x,-y,-z
4 x,1/2-y,1/2+z
_cell_length_a                   10.905(3)
_cell_length_b                   8.834(4)
_cell_length_c                   16.103(9)
_cell_angle_alpha                90
_cell_angle_beta                 106.76(3)
_cell_angle_gamma                90
_cell_volume                     1485.38
_chemical_melting_point          101deg.C
_cell_formula_units_Z            4
loop_
_atom_site_label
_atom_site_type_symbol
_atom_site_fract_x
_atom_site_fract_y
_atom_site_fract_z
C1 C 0.2295(4) 0.0273(6) 0.2555(3)
C2 C 0.2741(5) 0.0408(6) 0.4162(3)
C3 C 0.3040(4) 0.0884(6) 0.3417
C4 C 0.2835(5) -0.0234(6) 0.1925(3)
O1 O 0.4306(3) 0.2456(4) 0.2803(2)
O2 O 0.4148(3) -0.0154(4) 0.2031(2)
C5 C 0.2096(3) -0.0905(6) 0.1172(3)
C6 C 0.3991(5) 0.1995(6) 0.3532(3)
C7 C 0.4577(5) 0.2596(7) 0.4335(3)
C8 C 0.0974(5) 0.0134(6) 0.2379(3)
C9 C 0.3318(5) 0.0994(7) 0.4978(3)
C10 C -0.1230(6) -0.0674(7) 0.1465(4)
C11 C 0.0802(6) -0.1072(7) 0.1030(4)
C12 C 0.4235(5) 0.2102(7) 0.5050(3)
C13 C 0.2944(6) 0.0435(7) 0.5760(3)
C14 C 0.0211(5) -0.0537(6) 0.1630(3)
C15 C 0.1916(6) 0.1388(7) 0.5934(3)
C16 C -0.1907(6) 0.0793(8) 0.1432(4)
C17 C -0.2640(7) 0.1208(8) 0.1830(5)
C18 C 0.0856(7) 0.0992(9) 0.6008(4)
H1 H 0.052 0.056 0.285
H2 H 0.025 -0.165 0.045
H3 H 0.255 -0.129 0.069
H4 H 0.203 -0.047 0.409
H5 H 0.470 0.259 0.568
H6 H 0.530 0.347 0.441
H7 H -0.141 -0.136 0.198
H8 H -0.163 -0.129 0.086
H9 H -0.169 0.162 0.098
H10 H -0.305 0.232 0.173
H11 H -0.288 0.043 0.228
H12 H 0.378 0.044 0.633
H13 H 0.263 -0.073 0.565
H14 H 0.210 0.259 0.600
H15 H 0.018 0.178 0.614
H16 H 0.059 -0.023 0.596
H17 H 0.441 0.066 0.229
H18 H 0.480 0.322 0.294
loop_
_geom_bond_atom_site_label_1
_geom_bond_atom_site_label_2
_geom_bond_site_symmetry_1
_geom_bond_site_symmetry_2
C1 C3 1_555 1_555
C2 C3 1_555 1_555
C3 C6 1_555 1_555
C4 C1 1_555 1_555
O1 C6 1_555 1_555
O2 C4 1_555 1_555
C5 C4 1_555 1_555
C6 C7 1_555 1_555
C7 C12 1_555 1_555
C8 C1 1_555 1_555
C9 C2 1_555 1_555
C10 C14 1_555 1_555
C11 C5 1_555 1_555
C12 C9 1_555 1_555
C13 C9 1_555 1_555
C14 C8 1_555 1_555
C15 C13 1_555 1_555
C16 C10 1_555 1_555
C17 C16 1_555 1_555
C18 C15 1_555 1_555
H1 C8 1_555 1_555
H2 C11 1_555 1_555
H3 C5 1_555 1_555
H4 C2 1_555 1_555
H5 C12 1_555 1_555
H6 C7 1_555 1_555
H7 C10 1_555 1_555
H8 C10 1_555 1_555
H9 C16 1_555 1_555
H10 C17 1_555 1_555
H11 C17 1_555 1_555
H12 C13 1_555 1_555
H13 C13 1_555 1_555
H14 C15 1_555 1_555
H15 C18 1_555 1_555
H16 C18 1_555 1_555
H17 O2 1_555 1_555
H18 O1 1_555 1_555
C11 C14 1_555 1_555

#END
