
#######################################################################
#
#                 Cambridge Crystallographic Data Centre
#                                CCDC 
#
#######################################################################
#
# If this CIF has been generated from an entry in the Cambridge 
# Structural Database, then it will include bibliographic, chemical, 
# crystal, experimental, refinement or atomic coordinate data resulting 
# from the CCDC's data processing and validation procedures.
#
#######################################################################

data_CIQCUC
_chemical_formula_moiety         'C16 H15 N3 O2'
_chemical_name_systematic        
'Ethyl 6-methyl-8-phenyl[1,2,4]triazolo[1,5-a]pyridine-7-carboxylate'
_symmetry_cell_setting           monoclinic
_symmetry_space_group_name_H-M   'P 21/n'
_symmetry_Int_Tables_number      14
_space_group_name_Hall           '-P 2yn'
loop_
_symmetry_equiv_pos_site_id
_symmetry_equiv_pos_as_xyz
1 x,y,z
2 1/2-x,1/2+y,1/2-z
3 -x,-y,-z
4 1/2+x,1/2-y,1/2+z
_cell_length_a                   13.401(3)
_cell_length_b                   7.4825(19)
_cell_length_c                   15.068(4)
_cell_angle_alpha                90
_cell_angle_beta                 98.986(4)
_cell_angle_gamma                90
_cell_volume                     1492.37
_exptl_crystal_colour            colorless
_exptl_crystal_description       block
_cell_formula_units_Z            4
loop_
_atom_site_label
_atom_site_type_symbol
_atom_site_fract_x
_atom_site_fract_y
_atom_site_fract_z
N1 N 0.10885(12) 0.7854(2) 0.55820(10)
N2 N 0.09507(14) 0.9165(2) 0.61803(11)
N3 N 0.23653(13) 0.7566(2) 0.66890(10)
O1 O 0.25306(14) 0.4080(2) 0.34386(12)
O2 O 0.14672(10) 0.22579(18) 0.39941(9)
C1 C 0.2563(2) -0.0255(4) 0.3838(2)
H1 H 0.3166 0.0453 0.3874
H2 H 0.2629 -0.1306 0.3486
H3 H 0.2463 -0.0598 0.4432
C2 C 0.16849(19) 0.0806(3) 0.34085(16)
H4 H 0.1827 0.1295 0.2845
H5 H 0.1098 0.0035 0.3278
C3 C 0.19373(14) 0.3795(3) 0.39345(12)
C4 C 0.16236(13) 0.5171(2) 0.45608(12)
C5 C 0.07336(14) 0.6198(3) 0.42544(13)
C6 C 0.04891(14) 0.7524(3) 0.47858(13)
H6 H -0.0087 0.8208 0.4609
C7 C 0.17325(18) 0.8910(3) 0.68132(14)
H7 H 0.1843 0.9626 0.7324
C8 C 0.19436(14) 0.6907(2) 0.58965(12)
C9 C 0.22271(13) 0.5487(2) 0.53631(12)
C10 C 0.31516(14) 0.4442(3) 0.57064(12)
C11 C 0.40784(15) 0.5273(4) 0.58803(16)
H8 H 0.4132 0.6496 0.5789
C12 C 0.3930(2) 0.1653(4) 0.62015(18)
H9 H 0.3876 0.0438 0.6315
C13 C 0.30836(17) 0.2630(3) 0.58754(14)
H10 H 0.2457 0.2068 0.5767
C14 C 0.01047(17) 0.5868(3) 0.33544(15)
H11 H -0.0466 0.6659 0.3276
H12 H -0.0127 0.4652 0.3322
H13 H 0.0505 0.6081 0.2889
C15 C 0.49383(18) 0.4263(5) 0.61947(19)
H14 H 0.5571 0.4802 0.6294
C16 C 0.4843(2) 0.2469(5) 0.6356(2)
H15 H 0.5414 0.1804 0.6575
loop_
_geom_bond_atom_site_label_1
_geom_bond_atom_site_label_2
_geom_bond_site_symmetry_1
_geom_bond_site_symmetry_2
N1 N2 1_555 1_555
N2 C7 1_555 1_555
N3 C7 1_555 1_555
O1 C3 1_555 1_555
O2 C2 1_555 1_555
C1 H1 1_555 1_555
H2 C1 1_555 1_555
H3 C1 1_555 1_555
C2 C1 1_555 1_555
H4 C2 1_555 1_555
H5 C2 1_555 1_555
C3 O2 1_555 1_555
C4 C3 1_555 1_555
C5 C4 1_555 1_555
C6 N1 1_555 1_555
H6 C6 1_555 1_555
C7 H7 1_555 1_555
C8 N1 1_555 1_555
C9 C4 1_555 1_555
C10 C9 1_555 1_555
C11 C10 1_555 1_555
H8 C11 1_555 1_555
C12 H9 1_555 1_555
C13 C10 1_555 1_555
H10 C13 1_555 1_555
C14 C5 1_555 1_555
H11 C14 1_555 1_555
H12 C14 1_555 1_555
H13 C14 1_555 1_555
C15 C11 1_555 1_555
H14 C15 1_555 1_555
C16 C12 1_555 1_555
H15 C16 1_555 1_555
N3 C8 1_555 1_555
C5 C6 1_555 1_555
C8 C9 1_555 1_555
C12 C13 1_555 1_555
C15 C16 1_555 1_555

#END
