
#######################################################################
#
#                 Cambridge Crystallographic Data Centre
#                                CCDC 
#
#######################################################################
#
# If this CIF has been generated from an entry in the Cambridge 
# Structural Database, then it will include bibliographic, chemical, 
# crystal, experimental, refinement or atomic coordinate data resulting 
# from the CCDC's data processing and validation procedures.
#
#######################################################################

data_CIQREB
_chemical_formula_moiety         'C26 H19 N3'
_chemical_name_systematic        
1-(2-(1,2-Diphenylvinyl)phenyl)-1H-benzotriazole
_symmetry_cell_setting           monoclinic
_symmetry_space_group_name_H-M   'P 21/c'
_symmetry_Int_Tables_number      14
_space_group_name_Hall           '-P 2ybc'
loop_
_symmetry_equiv_pos_site_id
_symmetry_equiv_pos_as_xyz
1 x,y,z
2 -x,1/2+y,1/2-z
3 -x,-y,-z
4 x,1/2-y,1/2+z
_cell_length_a                   9.8460(5)
_cell_length_b                   26.3882(14)
_cell_length_c                   7.7624(4)
_cell_angle_alpha                90
_cell_angle_beta                 105.6800(10)
_cell_angle_gamma                90
_cell_volume                     1941.76
_exptl_crystal_colour            colorless
_exptl_crystal_description       Block
_cell_formula_units_Z            4
loop_
_atom_site_label
_atom_site_type_symbol
_atom_site_fract_x
_atom_site_fract_y
_atom_site_fract_z
N1 N 1.02477(11) 0.17737(4) 0.11627(15)
N2 N 0.88933(11) 0.18249(4) 0.05008(14)
N3 N 0.82880(11) 0.18817(4) 0.18777(13)
C1 C 1.05507(14) 0.17919(5) 0.30073(17)
C2 C 1.18327(15) 0.17408(5) 0.4338(2)
H1 H 1.2681 0.1690 0.4052
C3 C 1.17734(16) 0.17695(6) 0.6082(2)
H2 H 1.2602 0.1731 0.6994
C4 C 1.05016(16) 0.18555(5) 0.65434(18)
H3 H 1.0519 0.1882 0.7744
C5 C 0.92345(15) 0.19017(5) 0.52557(17)
H4 H 0.8390 0.1954 0.5548
C6 C 0.92961(13) 0.18652(4) 0.34819(17)
C7 C 0.67953(13) 0.19247(5) 0.15819(16)
C8 C 0.62950(14) 0.23590(5) 0.22150(17)
H5 H 0.6921 0.2609 0.2789
C9 C 0.48599(15) 0.24180(6) 0.19879(18)
H6 H 0.4519 0.2706 0.2420
C10 C 0.39319(14) 0.20452(6) 0.11135(17)
H7 H 0.2966 0.2086 0.0943
C11 C 0.44435(13) 0.16125(5) 0.04945(16)
H8 H 0.3810 0.1367 -0.0098
C12 C 0.58923(13) 0.15357(5) 0.07392(15)
C13 C 0.63961(13) 0.10498(5) 0.01375(16)
C14 C 0.72835(13) 0.07505(5) 0.13248(16)
H9 H 0.7544 0.0876 0.2487
C15 C 0.79152(13) 0.02579(5) 0.11053(17)
C16 C 0.86039(14) -0.00036(5) 0.26675(18)
H10 H 0.8660 0.0143 0.3774
C17 C 0.92026(16) -0.04754(6) 0.2599(2)
H11 H 0.9638 -0.0645 0.3653
C18 C 0.91527(15) -0.06937(5) 0.0965(2)
H12 H 0.9553 -0.1011 0.0913
C19 C 0.85022(15) -0.04369(5) -0.05952(19)
H13 H 0.8479 -0.0581 -0.1696
C20 C 0.78856(14) 0.00317(5) -0.05386(18)
H14 H 0.7448 0.0198 -0.1600
C21 C 0.58020(13) 0.09441(5) -0.18110(16)
C22 C 0.47147(14) 0.05982(5) -0.24418(18)
H15 H 0.4347 0.0419 -0.1639
C23 C 0.41760(15) 0.05197(6) -0.42721(19)
H16 H 0.3458 0.0285 -0.4685
C24 C 0.46994(15) 0.07880(6) -0.54800(18)
H17 H 0.4338 0.0733 -0.6702
C25 C 0.57624(16) 0.11382(6) -0.48617(18)
H18 H 0.6110 0.1323 -0.5671
C26 C 0.63125(15) 0.12159(5) -0.30386(17)
H19 H 0.7029 0.1452 -0.2633
loop_
_geom_bond_atom_site_label_1
_geom_bond_atom_site_label_2
_geom_bond_site_symmetry_1
_geom_bond_site_symmetry_2
N1 N2 1_555 1_555
N2 N3 1_555 1_555
N3 C6 1_555 1_555
C1 N1 1_555 1_555
C2 C1 1_555 1_555
H1 C2 1_555 1_555
C3 C2 1_555 1_555
H2 C3 1_555 1_555
C4 C3 1_555 1_555
H3 C4 1_555 1_555
C5 C4 1_555 1_555
H4 C5 1_555 1_555
C6 C1 1_555 1_555
C7 N3 1_555 1_555
C8 C7 1_555 1_555
H5 C8 1_555 1_555
C9 C8 1_555 1_555
H6 C9 1_555 1_555
C10 C9 1_555 1_555
H7 C10 1_555 1_555
C11 C10 1_555 1_555
H8 C11 1_555 1_555
C12 C7 1_555 1_555
C13 C12 1_555 1_555
C14 C13 1_555 1_555
H9 C14 1_555 1_555
C15 C14 1_555 1_555
C16 C15 1_555 1_555
H10 C16 1_555 1_555
C17 C16 1_555 1_555
H11 C17 1_555 1_555
C18 C17 1_555 1_555
H12 C18 1_555 1_555
C19 C18 1_555 1_555
H13 C19 1_555 1_555
C20 C15 1_555 1_555
H14 C20 1_555 1_555
C21 C13 1_555 1_555
C22 C21 1_555 1_555
H15 C22 1_555 1_555
C23 C22 1_555 1_555
H16 C23 1_555 1_555
C24 C23 1_555 1_555
H17 C24 1_555 1_555
C25 C24 1_555 1_555
H18 C25 1_555 1_555
C26 C21 1_555 1_555
H19 C26 1_555 1_555
C5 C6 1_555 1_555
C11 C12 1_555 1_555
C19 C20 1_555 1_555
C25 C26 1_555 1_555

#END
