
#######################################################################
#
#                 Cambridge Crystallographic Data Centre
#                                CCDC 
#
#######################################################################
#
# If this CIF has been generated from an entry in the Cambridge 
# Structural Database, then it will include bibliographic, chemical, 
# crystal, experimental, refinement or atomic coordinate data resulting 
# from the CCDC's data processing and validation procedures.
#
#######################################################################

data_CIRTEC
_chemical_formula_moiety         'C12 H24 O6,2(C6 Cl2 N3 O7 1-),2(H3 O1 1+)'
_chemical_name_systematic        
'1,4,7,10,13,16-Hexaoxacyclo-octadecane bis(dichloropicrate) dioxonium'
_symmetry_cell_setting           monoclinic
_symmetry_space_group_name_H-M   'P 21/a'
_symmetry_Int_Tables_number      14
_space_group_name_Hall           '-P 2yab'
loop_
_symmetry_equiv_pos_site_id
_symmetry_equiv_pos_as_xyz
1 x,y,z
2 1/2-x,1/2+y,-z
3 -x,-y,-z
4 1/2+x,1/2-y,z
_cell_length_a                   8.369(3)
_cell_length_b                   25.538(6)
_cell_length_c                   9.562(2)
_cell_angle_alpha                90
_cell_angle_beta                 110.12(2)
_cell_angle_gamma                90
_cell_volume                     1918.95
_cell_formula_units_Z            2
loop_
_atom_site_label
_atom_site_type_symbol
_atom_site_fract_x
_atom_site_fract_y
_atom_site_fract_z
Cl1 Cl 0.1597(2) 0.29586(7) 0.4398(1)
Cl2 Cl 0.1904(2) 0.19082(5) 0.9346(2)
O1 O 0.2551(5) 0.3865(1) 0.9393(3)
O2 O 0.3218(6) 0.4075(2) 0.6090(6)
O3 O 0.0784(7) 0.4179(2) 0.5982(7)
O4 O 0.3149(5) 0.1822(2) 0.6182(5)
O5 O 0.0508(5) 0.1784(2) 0.5687(5)
O6 O 0.1109(5) 0.3017(2) 1.1078(4)
O7 O 0.3778(5) 0.2918(2) 1.1714(4)
N1 N 0.2039(6) 0.3919(2) 0.6262(5)
N2 N 0.1837(5) 0.1997(2) 0.6211(5)
N3 N 0.2389(5) 0.2963(2) 1.0808(4)
C1 C 0.2327(6) 0.3436(2) 0.8578(5)
C2 C 0.2106(6) 0.3419(2) 0.7061(5)
C3 C 0.1926(6) 0.2961(2) 0.6267(5)
C4 C 0.1924(6) 0.2495(2) 0.7000(5)
C5 C 0.2031(6) 0.2485(2) 0.8482(5)
C6 C 0.2243(6) 0.2954(2) 0.9220(5)
O8 O 0.0768(5) 0.0523(1) 0.2635(4)
O9 O 0.2556(4) 0.0808(1) 0.0667(4)
O10 O -0.2347(4) -0.0064(1) 0.1565(4)
C7 C -0.1555(8) 0.0114(2) 0.3043(6)
C8 C -0.0663(8) 0.0611(2) 0.3060(6)
C9 C 0.1754(8) 0.0989(2) 0.2765(7)
C10 C 0.3180(8) 0.0887(3) 0.2203(7)
C11 C 0.3898(7) 0.0703(2) 0.0107(8)
C12 C -0.3154(7) -0.0555(2) 0.1474(7)
H1 H -0.2399 0.0162 0.3495
H2 H -0.0758 -0.0142 0.3593
H3 H -0.0311 0.0755 0.4041
H4 H -0.1420 0.0850 0.2309
H5 H 0.1048 0.1260 0.2191
H6 H 0.2197 0.1094 0.3779
H7 H 0.3790 0.0586 0.2679
H8 H 0.3930 0.1181 0.2426
H9 H 0.4600 0.1010 0.0212
H10 H 0.4600 0.0426 0.0662
H11 H -0.4027 -0.0534 0.1904
H12 H -0.2349 -0.0814 0.1993
C12B C 0.3154(7) 0.0555(2) -0.1474(7)
C11B C -0.3898(7) -0.0703(2) -0.0107(8)
O10B O 0.2347(4) 0.0064(1) -0.1565(4)
H11B H 0.4027 0.0534 -0.1904
H12B H 0.2349 0.0814 -0.1993
O9B O -0.2556(4) -0.0808(1) -0.0667(4)
H9B H -0.4600 -0.1010 -0.0212
H10B H -0.4600 -0.0426 -0.0662
C7B C 0.1555(8) -0.0114(2) -0.3043(6)
C10B C -0.3180(8) -0.0887(3) -0.2203(7)
C8B C 0.0663(8) -0.0611(2) -0.3060(6)
H1B H 0.2399 -0.0162 -0.3495
H2B H 0.0758 0.0142 -0.3593
C9B C -0.1754(8) -0.0989(2) -0.2765(7)
H7B H -0.3790 -0.0586 -0.2679
H8B H -0.3930 -0.1181 -0.2426
O8B O -0.0768(5) -0.0523(1) -0.2635(4)
H3B H 0.0311 -0.0755 -0.4041
H4B H 0.1420 -0.0850 -0.2309
H5B H -0.1048 -0.1260 -0.2191
H6B H -0.2197 -0.1094 -0.3779
O11 O 0.3183(9) 0.4741(2) 0.8915(7)
loop_
_geom_bond_atom_site_label_1
_geom_bond_atom_site_label_2
_geom_bond_site_symmetry_1
_geom_bond_site_symmetry_2
Cl1 C3 1_555 1_555
Cl2 C5 1_555 1_555
O1 C1 1_555 1_555
O2 N1 1_555 1_555
O3 N1 1_555 1_555
O4 N2 1_555 1_555
O5 N2 1_555 1_555
O6 N3 1_555 1_555
O7 N3 1_555 1_555
N1 C2 1_555 1_555
N2 C4 1_555 1_555
N3 C6 1_555 1_555
C1 C2 1_555 1_555
C2 C3 1_555 1_555
C3 C4 1_555 1_555
C4 C5 1_555 1_555
C5 C6 1_555 1_555
C6 C1 1_555 1_555
O8 C8 1_555 1_555
O9 C10 1_555 1_555
O10 C7 1_555 1_555
C7 C8 1_555 1_555
C8 H3 1_555 1_555
C9 O8 1_555 1_555
C10 C9 1_555 1_555
C11 O9 1_555 1_555
C12 O10 1_555 1_555
H1 C7 1_555 1_555
H2 C7 1_555 1_555
H4 C8 1_555 1_555
H5 C9 1_555 1_555
H6 C9 1_555 1_555
H7 C10 1_555 1_555
H8 C10 1_555 1_555
H9 C11 1_555 1_555
H10 C11 1_555 1_555
H11 C12 1_555 1_555
H12 C12 1_555 1_555
C12B C11 1_555 1_555
C11B C12 1_555 1_555
O10B C12B 1_555 1_555
H11B C12B 1_555 1_555
H12B C12B 1_555 1_555
O9B C11B 1_555 1_555
H9B C11B 1_555 1_555
H10B C11B 1_555 1_555
C7B O10B 1_555 1_555
C10B O9B 1_555 1_555
C8B C7B 1_555 1_555
H1B C7B 1_555 1_555
H2B C7B 1_555 1_555
C9B C10B 1_555 1_555
H7B C10B 1_555 1_555
H8B C10B 1_555 1_555
O8B C8B 1_555 1_555
H3B C8B 1_555 1_555
H4B C8B 1_555 1_555
H5B C9B 1_555 1_555
H6B C9B 1_555 1_555
C9B O8B 1_555 1_555

#END
