
#######################################################################
#
#                 Cambridge Crystallographic Data Centre
#                                CCDC 
#
#######################################################################
#
# If this CIF has been generated from an entry in the Cambridge 
# Structural Database, then it will include bibliographic, chemical, 
# crystal, experimental, refinement or atomic coordinate data resulting 
# from the CCDC's data processing and validation procedures.
#
#######################################################################

data_CISBEN
_chemical_formula_moiety         'C31 H36 N6,1.5(H2 O1)'
_chemical_name_systematic        
"4,4'-((2-(1H-Imidazol-1-yl)pyrimidine-4,6-diyl)diethene-2,1-diyl)bis(N,N-diethylaniline) sesquihydrate"
_symmetry_cell_setting           orthorhombic
_symmetry_space_group_name_H-M   'P 21 21 21'
_symmetry_Int_Tables_number      19
_space_group_name_Hall           'P 2ac 2ab'
loop_
_symmetry_equiv_pos_site_id
_symmetry_equiv_pos_as_xyz
1 x,y,z
2 1/2-x,-y,1/2+z
3 1/2+x,1/2-y,-z
4 -x,1/2+y,1/2-z
_cell_length_a                   8.4244(19)
_cell_length_b                   17.326(4)
_cell_length_c                   22.944(5)
_cell_angle_alpha                90
_cell_angle_beta                 90
_cell_angle_gamma                90
_cell_volume                     3348.93
_cell_formula_units_Z            4
loop_
_atom_site_label
_atom_site_type_symbol
_atom_site_fract_x
_atom_site_fract_y
_atom_site_fract_z
N1 N 0.2240(5) 0.3873(2) 0.50277(17)
N2 N -0.0038(5) 0.3707(3) 0.44870(19)
N3 N 0.2115(5) 0.2913(3) 0.42699(17)
N4 N 0.6718(6) -0.0220(3) 0.1957(2)
C1 C 0.1552(6) 0.3478(3) 0.4601(3)
C2 C 0.4488(6) 0.1269(3) 0.3164(2)
C3 C 0.4366(6) 0.2131(3) 0.4024(2)
H1 H 0.5366 0.1955 0.4132
C4 C 0.3636(7) 0.2716(3) 0.4391(2)
C5 C 0.3766(6) 0.3670(3) 0.5135(2)
C6 C 0.4181(6) 0.4798(3) 0.5753(2)
H2 H 0.3170 0.4952 0.5639
N5 N 0.7467(6) 0.6962(3) 0.7157(2)
C7 C 0.5892(7) 0.0895(3) 0.3293(2)
H3 H 0.6355 0.0977 0.3656
C8 C 0.3731(6) 0.1825(3) 0.3546(2)
H4 H 0.2709 0.1982 0.3449
C9 C 0.5020(7) 0.5333(3) 0.6129(2)
C10 C 0.6642(6) 0.0400(3) 0.2902(3)
H5 H 0.7588 0.0161 0.3006
C11 C 0.4450(6) 0.3077(3) 0.4823(2)
H6 H 0.5481 0.2922 0.4910
C12 C 0.3832(6) 0.1098(3) 0.2617(2)
H7 H 0.2869 0.1323 0.2515
C13 C 0.6500(7) 0.5183(3) 0.6372(3)
H8 H 0.6972 0.4707 0.6299
C14 C 0.4555(7) 0.0615(3) 0.2229(2)
H9 H 0.4074 0.0521 0.1871
C15 C 0.4648(6) 0.4125(3) 0.5551(2)
H10 H 0.5610 0.3930 0.5684
C16 C 0.5983(7) 0.0261(3) 0.2355(3)
C17 C 0.6654(7) 0.6435(3) 0.6826(2)
C18 C -0.0863(8) 0.4296(4) 0.4745(3)
H11 H -0.0512 0.4625 0.5038
C19 C 0.4401(7) 0.6057(3) 0.6252(2)
H12 H 0.3415 0.6187 0.6099
C20 C 0.7288(7) 0.5701(4) 0.6711(3)
H13 H 0.8266 0.5567 0.6869
N6 N -0.2389(7) 0.3748(5) 0.4065(3)
C21 C 0.6093(8) -0.0314(4) 0.1377(3)
H14 H 0.4949 -0.0371 0.1401
H15 H 0.6519 -0.0786 0.1211
C22 C -0.1010(9) 0.3395(4) 0.4079(3)
H16 H -0.0735 0.2983 0.3840
C23 C 0.5181(8) 0.6591(3) 0.6589(3)
H17 H 0.4708 0.7066 0.6660
C24 C 0.6890(7) 0.7758(3) 0.7215(3)
H18 H 0.6345 0.7905 0.6859
H19 H 0.7790 0.8101 0.7264
C25 C 0.8251(8) -0.0590(4) 0.2075(3)
H20 H 0.8332 -0.1054 0.1840
H21 H 0.8279 -0.0746 0.2481
C26 C 0.8931(10) 0.6776(4) 0.7448(4)
H22 H 0.8899 0.6241 0.7571
H23 H 0.9028 0.7094 0.7794
C27 C -0.2310(8) 0.4297(5) 0.4479(4)
H24 H -0.3133 0.4633 0.4572
C28 C 0.5778(8) 0.7855(4) 0.7724(3)
H25 H 0.4853 0.7541 0.7666
H26 H 0.5468 0.8387 0.7754
H27 H 0.6304 0.7700 0.8076
C29 C 0.9673(8) -0.0087(5) 0.1953(4)
H28 H 0.9676 0.0059 0.1550
H29 H 1.0627 -0.0368 0.2041
H30 H 0.9623 0.0367 0.2192
C30 C 0.6480(10) 0.0358(5) 0.0971(3)
H31 H 0.6109 0.0831 0.1142
H32 H 0.5967 0.0279 0.0603
H33 H 0.7607 0.0387 0.0915
C31 C 1.0336(11) 0.6896(6) 0.7077(5)
H34 H 1.0343 0.6520 0.6770
H35 H 1.1280 0.6841 0.7308
H36 H 1.0302 0.7404 0.6911
O1 O 0.357(8) 0.8417(12) 0.524(3)
H37 H 0.2693 0.8648 0.5178
H38 H 0.3915 0.8528 0.5573
O2 O 0.186(14) 0.769(3) 0.507(2)
H39 H 0.1824 0.7197 0.5057
H40 H 0.1180 0.7851 0.5314
loop_
_geom_bond_atom_site_label_1
_geom_bond_atom_site_label_2
_geom_bond_site_symmetry_1
_geom_bond_site_symmetry_2
N1 C1 1_555 1_555
N2 C1 1_555 1_555
N3 C1 1_555 1_555
N4 C16 1_555 1_555
C2 C7 1_555 1_555
C3 H1 1_555 1_555
C4 N3 1_555 1_555
C5 N1 1_555 1_555
C6 H2 1_555 1_555
N5 C17 1_555 1_555
C7 H3 1_555 1_555
C8 C2 1_555 1_555
H4 C8 1_555 1_555
C9 C6 1_555 1_555
C10 C7 1_555 1_555
H5 C10 1_555 1_555
C11 C4 1_555 1_555
H6 C11 1_555 1_555
C12 C2 1_555 1_555
H7 C12 1_555 1_555
C13 C9 1_555 1_555
H8 C13 1_555 1_555
C14 C12 1_555 1_555
H9 C14 1_555 1_555
C15 C5 1_555 1_555
H10 C15 1_555 1_555
C16 C10 1_555 1_555
C17 C20 1_555 1_555
C18 N2 1_555 1_555
H11 C18 1_555 1_555
C19 C9 1_555 1_555
H12 C19 1_555 1_555
C20 C13 1_555 1_555
H13 C20 1_555 1_555
N6 C22 1_555 1_555
C21 N4 1_555 1_555
H14 C21 1_555 1_555
H15 C21 1_555 1_555
C22 N2 1_555 1_555
H16 C22 1_555 1_555
C23 C17 1_555 1_555
H17 C23 1_555 1_555
C24 N5 1_555 1_555
H18 C24 1_555 1_555
H19 C24 1_555 1_555
C25 N4 1_555 1_555
H20 C25 1_555 1_555
H21 C25 1_555 1_555
C26 N5 1_555 1_555
H22 C26 1_555 1_555
H23 C26 1_555 1_555
C27 C18 1_555 1_555
H24 C27 1_555 1_555
C28 C24 1_555 1_555
H25 C28 1_555 1_555
H26 C28 1_555 1_555
H27 C28 1_555 1_555
C29 C25 1_555 1_555
H28 C29 1_555 1_555
H29 C29 1_555 1_555
H30 C29 1_555 1_555
C30 C21 1_555 1_555
H31 C30 1_555 1_555
H32 C30 1_555 1_555
H33 C30 1_555 1_555
C31 C26 1_555 1_555
H34 C31 1_555 1_555
H35 C31 1_555 1_555
H36 C31 1_555 1_555
O1 H37 1_555 1_555
H38 O1 1_555 1_555
O2 H39 1_555 1_555
H40 O2 1_555 1_555
C3 C4 1_555 1_555
C3 C8 1_555 1_555
C5 C11 1_555 1_555
C6 C15 1_555 1_555
C14 C16 1_555 1_555
C19 C23 1_555 1_555
N6 C27 1_555 1_555

#END
