
#######################################################################
#
#                 Cambridge Crystallographic Data Centre
#                                CCDC 
#
#######################################################################
#
# If this CIF has been generated from an entry in the Cambridge 
# Structural Database, then it will include bibliographic, chemical, 
# crystal, experimental, refinement or atomic coordinate data resulting 
# from the CCDC's data processing and validation procedures.
#
#######################################################################

data_CISBIR
_chemical_formula_moiety         'C31 H36 N6,1.5(H2 O1)'
_chemical_name_systematic        
"4,4'-((2-(1H-Pyrazol-1-yl)pyrimidine-4,6-diyl)diethene-2,1-diyl)bis(N,N-diethylaniline) sesquihydrate"
_symmetry_cell_setting           orthorhombic
_symmetry_space_group_name_H-M   'P 21 21 21'
_symmetry_Int_Tables_number      19
_space_group_name_Hall           'P 2ac 2ab'
loop_
_symmetry_equiv_pos_site_id
_symmetry_equiv_pos_as_xyz
1 x,y,z
2 1/2-x,-y,1/2+z
3 1/2+x,1/2-y,-z
4 -x,1/2+y,1/2-z
_cell_length_a                   8.3409(15)
_cell_length_b                   16.999(3)
_cell_length_c                   23.547(4)
_cell_angle_alpha                90
_cell_angle_beta                 90
_cell_angle_gamma                90
_cell_volume                     3338.66
_cell_formula_units_Z            4
loop_
_atom_site_label
_atom_site_type_symbol
_atom_site_fract_x
_atom_site_fract_y
_atom_site_fract_z
N1 N 0.7777(6) 0.1143(3) 0.5012(2)
N2 N 1.0043(5) 0.1308(3) 0.5555(2)
N3 N 0.7872(6) 0.2108(3) 0.57568(19)
C1 C 0.8459(6) 0.1545(4) 0.5436(3)
C2 C 0.5592(6) 0.2917(3) 0.5977(3)
H1 H 0.4620 0.3123 0.5854
N4 N 0.3152(6) 0.5200(3) 0.8057(3)
N5 N 0.2588(6) -0.1934(3) 0.2843(3)
C3 C 0.5434(6) 0.3736(3) 0.6853(2)
C4 C 0.5847(7) 0.0218(4) 0.4278(2)
H2 H 0.6844 0.0045 0.4403
C5 C 0.6263(7) 0.1366(4) 0.4892(2)
C6 C 0.3264(7) 0.4616(3) 0.7116(3)
H3 H 0.2318 0.4869 0.7014
C7 C 0.6188(6) 0.3189(3) 0.6467(3)
H4 H 0.7197 0.3005 0.6570
C8 C 0.3373(7) -0.1406(4) 0.3190(3)
N6 N 1.0936(7) 0.1661(4) 0.5964(2)
C9 C 0.6353(7) 0.2322(3) 0.5624(3)
C10 C 0.3892(8) 0.4732(3) 0.7658(3)
C11 C 0.5328(7) 0.4351(4) 0.7776(3)
H5 H 0.5806 0.4423 0.8130
C12 C 0.5399(7) 0.0913(4) 0.4467(2)
H6 H 0.4464 0.1130 0.4319
C13 C 0.5008(7) -0.0314(4) 0.3903(2)
C14 C 0.5556(7) 0.1976(3) 0.5189(2)
H7 H 0.4536 0.2149 0.5090
C15 C 0.3193(8) -0.2725(4) 0.2751(3)
H8 H 0.2299 -0.3072 0.2672
H9 H 0.3706 -0.2907 0.3097
C16 C 1.0853(8) 0.0728(4) 0.5302(3)
H10 H 1.0482 0.0408 0.5010
C17 C 0.5645(7) -0.1047(4) 0.3768(3)
H11 H 0.6639 -0.1183 0.3917
C18 C 0.3540(7) -0.0143(4) 0.3652(3)
H12 H 0.3068 0.0342 0.3725
C19 C 0.4009(7) 0.4138(3) 0.6731(3)
H13 H 0.3551 0.4078 0.6373
C20 C 0.6052(7) 0.3877(3) 0.7388(3)
H14 H 0.7013 0.3636 0.7487
C21 C 0.1603(9) 0.5580(4) 0.7934(3)
H15 H 0.1611 0.5767 0.7545
H16 H 0.1481 0.6034 0.8180
C22 C 0.4869(8) -0.1578(4) 0.3424(3)
H17 H 0.5348 -0.2061 0.3347
C23 C 0.2770(8) -0.0653(4) 0.3305(3)
H18 H 0.1810 -0.0500 0.3137
C24 C 1.2337(8) 0.1289(5) 0.5949(3)
H19 H 1.3217 0.1410 0.6176
C25 C 0.1081(9) -0.1737(4) 0.2582(4)
H20 H 0.0942 -0.2054 0.2243
H21 H 0.1101 -0.1189 0.2468
C26 C 0.3766(9) 0.5267(5) 0.8630(4)
H22 H 0.3361 0.5748 0.8799
H23 H 0.4925 0.5305 0.8616
C27 C 0.4376(9) -0.2771(4) 0.2270(3)
H24 H 0.3870 -0.2601 0.1925
H25 H 0.4736 -0.3304 0.2227
H26 H 0.5277 -0.2438 0.2350
C28 C 1.2295(8) 0.0693(5) 0.5548(4)
H27 H 1.3111 0.0339 0.5465
C29 C -0.0318(10) -0.1870(5) 0.2972(4)
H28 H -0.0326 -0.2409 0.3095
H29 H -0.1296 -0.1756 0.2774
H30 H -0.0226 -0.1531 0.3296
C30 C 0.0162(9) 0.5037(6) 0.8016(4)
H31 H 0.0295 0.4573 0.7788
H32 H -0.0799 0.5306 0.7903
H33 H 0.0083 0.4889 0.8409
C31 C 0.3306(12) 0.4583(6) 0.9001(4)
H34 H 0.2164 0.4579 0.9054
H35 H 0.3824 0.4633 0.9363
H36 H 0.3635 0.4101 0.8823
O1 O 0.244(7) 0.819(3) 0.549(4)
H37 H 0.3152 0.8536 0.5566
H38 H 0.1674 0.8234 0.5727
O2 O -0.080(13) 0.340(6) 1.0191(16)
H39 H -0.1134 0.3875 1.0192
H40 H -0.1597 0.3090 1.0194
loop_
_geom_bond_atom_site_label_1
_geom_bond_atom_site_label_2
_geom_bond_site_symmetry_1
_geom_bond_site_symmetry_2
N1 C1 1_555 1_555
N2 C1 1_555 1_555
N3 C1 1_555 1_555
C2 H1 1_555 1_555
N4 C10 1_555 1_555
N5 C8 1_555 1_555
C3 C7 1_555 1_555
C4 H2 1_555 1_555
C5 N1 1_555 1_555
C6 H3 1_555 1_555
C7 C2 1_555 1_555
H4 C7 1_555 1_555
C8 C22 1_555 1_555
N6 N2 1_555 1_555
C9 N3 1_555 1_555
C10 C6 1_555 1_555
C11 C10 1_555 1_555
H5 C11 1_555 1_555
C12 C4 1_555 1_555
H6 C12 1_555 1_555
C13 C4 1_555 1_555
C14 C5 1_555 1_555
H7 C14 1_555 1_555
C15 N5 1_555 1_555
H8 C15 1_555 1_555
H9 C15 1_555 1_555
C16 N2 1_555 1_555
H10 C16 1_555 1_555
C17 C13 1_555 1_555
H11 C17 1_555 1_555
C18 C13 1_555 1_555
H12 C18 1_555 1_555
C19 C3 1_555 1_555
H13 C19 1_555 1_555
C20 C3 1_555 1_555
H14 C20 1_555 1_555
C21 N4 1_555 1_555
H15 C21 1_555 1_555
H16 C21 1_555 1_555
C22 C17 1_555 1_555
H17 C22 1_555 1_555
C23 C8 1_555 1_555
H18 C23 1_555 1_555
C24 N6 1_555 1_555
H19 C24 1_555 1_555
C25 N5 1_555 1_555
H20 C25 1_555 1_555
H21 C25 1_555 1_555
C26 N4 1_555 1_555
H22 C26 1_555 1_555
H23 C26 1_555 1_555
C27 C15 1_555 1_555
H24 C27 1_555 1_555
H25 C27 1_555 1_555
H26 C27 1_555 1_555
C28 C16 1_555 1_555
H27 C28 1_555 1_555
C29 C25 1_555 1_555
H28 C29 1_555 1_555
H29 C29 1_555 1_555
H30 C29 1_555 1_555
C30 C21 1_555 1_555
H31 C30 1_555 1_555
H32 C30 1_555 1_555
H33 C30 1_555 1_555
C31 C26 1_555 1_555
H34 C31 1_555 1_555
H35 C31 1_555 1_555
H36 C31 1_555 1_555
O1 H37 1_555 1_555
H38 O1 1_555 1_555
O2 H39 1_555 1_555
H40 O2 1_555 1_555
C2 C9 1_555 1_555
C5 C12 1_555 1_555
C6 C19 1_555 1_555
C9 C14 1_555 1_555
C11 C20 1_555 1_555
C18 C23 1_555 1_555
C24 C28 1_555 1_555

#END
