
#######################################################################
#
#                 Cambridge Crystallographic Data Centre
#                                CCDC 
#
#######################################################################
#
# If this CIF has been generated from an entry in the Cambridge 
# Structural Database, then it will include bibliographic, chemical, 
# crystal, experimental, refinement or atomic coordinate data resulting 
# from the CCDC's data processing and validation procedures.
#
#######################################################################

data_CISFEP
_chemical_name_common            'Ancaolan II'
_chemical_formula_moiety         'C12 H19 N2 O4 P1 S1'
_chemical_name_systematic        
'Ethyl O-(2-nitro-6-methylphenyl)-N-isopropyl-phosphoramidothioate'
_chemical_properties_biological  'weed killer'
_symmetry_cell_setting           monoclinic
_symmetry_space_group_name_H-M   'P 21/c'
_symmetry_Int_Tables_number      14
_space_group_name_Hall           '-P 2ybc'
loop_
_symmetry_equiv_pos_site_id
_symmetry_equiv_pos_as_xyz
1 x,y,z
2 -x,1/2+y,1/2-z
3 -x,-y,-z
4 x,1/2-y,1/2+z
_cell_length_a                   8.575
_cell_length_b                   26.538
_cell_length_c                   7.073
_cell_angle_alpha                90
_cell_angle_beta                 93.819
_cell_angle_gamma                90
_cell_volume                     1605.98
_exptl_crystal_colour            colorless
_chemical_melting_point          71-72deg.C
_cell_formula_units_Z            4
loop_
_atom_site_label
_atom_site_type_symbol
_atom_site_fract_x
_atom_site_fract_y
_atom_site_fract_z
P1 P 0.5467(2) 0.9047(1) 0.3723(3)
C1 C 0.1578(11) 0.8725(4) 0.1181(19)
S1 S 0.3886(3) 0.9163(1) 0.5485(4)
O1 O 0.4911(6) 0.8790(2) 0.1728(8)
O2 O 0.7712(7) 0.7622(3) 0.2612(12)
O3 O 0.6769(8) 0.8650(2) 0.4398(9)
O4 O 0.7503(7) 0.8257(2) 0.0619(10)
N1 N 0.6357(8) 0.9559(3) 0.3084(12)
N2 N 0.6938(2) 0.7930(3) 0.1598(11)
C2 C 0.4266(9) 0.8304(3) 0.1557(12)
C3 C 0.5238(10) 0.7885(3) 0.1555(12)
C4 C 0.4601(12) 0.7396(3) 0.1403(15)
C5 C 0.2955(13) 0.7350(3) 0.1215(16)
C6 C 0.2015(12) 0.7764(4) 0.1146(15)
C7 C 0.2641(10) 0.8257(3) 0.1336(14)
C8 C 0.7702(14) 0.8739(4) 0.6239(15)
C9 C 0.9282(14) 0.8489(5) 0.6042(21)
C10 C 0.7612(10) 0.9550(5) 0.1694(17)
C11 C 0.9055(12) 0.9823(5) 0.2704(21)
C12 C 0.7032(15) 0.9778(5) -0.0203(18)
loop_
_geom_bond_atom_site_label_1
_geom_bond_atom_site_label_2
_geom_bond_site_symmetry_1
_geom_bond_site_symmetry_2
P1 S1 1_555 1_555
C1 C7 1_555 1_555
O1 P1 1_555 1_555
O2 N2 1_555 1_555
O3 P1 1_555 1_555
O4 N2 1_555 1_555
N1 P1 1_555 1_555
N2 C3 1_555 1_555
C2 O1 1_555 1_555
C3 C2 1_555 1_555
C4 C3 1_555 1_555
C5 C4 1_555 1_555
C6 C5 1_555 1_555
C7 C2 1_555 1_555
C8 O3 1_555 1_555
C9 C8 1_555 1_555
C10 N1 1_555 1_555
C11 C10 1_555 1_555
C12 C10 1_555 1_555
C6 C7 1_555 1_555

#END
