
#######################################################################
#
#                 Cambridge Crystallographic Data Centre
#                                CCDC 
#
#######################################################################
#
# If this CIF has been generated from an entry in the Cambridge 
# Structural Database, then it will include bibliographic, chemical, 
# crystal, experimental, refinement or atomic coordinate data resulting 
# from the CCDC's data processing and validation procedures.
#
#######################################################################

data_CISFUH
_chemical_formula_moiety         'C24 H25 N2 S1 1+,I1 1-'
_chemical_name_systematic        
'1-Butyl-4-(2-(10-methyl-10H-phenothiazin-3-yl)vinyl)pyridinium iodide'
_symmetry_cell_setting           monoclinic
_symmetry_space_group_name_H-M   'C 2/c'
_symmetry_Int_Tables_number      15
_space_group_name_Hall           '-C 2yn'
loop_
_symmetry_equiv_pos_site_id
_symmetry_equiv_pos_as_xyz
1 x,y,z
2 -x,y,1/2-z
3 1/2+x,1/2+y,z
4 1/2-x,1/2+y,1/2-z
5 -x,-y,-z
6 x,-y,1/2+z
7 1/2-x,1/2-y,-z
8 1/2+x,1/2-y,1/2+z
_cell_length_a                   32.2540(9)
_cell_length_b                   7.47540(10)
_cell_length_c                   20.8792(6)
_cell_angle_alpha                90
_cell_angle_beta                 117.908(4)
_cell_angle_gamma                90
_cell_volume                     4448.74
_exptl_crystal_colour            'deep red'
_exptl_crystal_description       prism
_cell_formula_units_Z            8
loop_
_atom_site_label
_atom_site_type_symbol
_atom_site_fract_x
_atom_site_fract_y
_atom_site_fract_z
I1 I 0.422105(4) 0.335824(15) 1.083739(6)
S1 S 0.35246(3) 0.14630(9) 0.79864(5)
N1 N 0.33285(18) -0.2036(8) 0.7195(3)
N2 N 0.56991(14) -0.1520(5) 1.29289(18)
C1 C 0.29312(14) -0.0906(6) 0.6972(3)
C2 C 0.29725(13) 0.0753(4) 0.7298(2)
C3 C 0.25912(11) 0.1897(4) 0.70682(16)
H1 H 0.2624 0.3015 0.7303
C4 C 0.21586(10) 0.1412(5) 0.64913(15)
H2 H 0.1901 0.2218 0.6318
C5 C 0.21093(9) -0.0252(6) 0.61757(15)
H3 H 0.1815 -0.0611 0.5793
C6 C 0.24901(11) -0.1394(5) 0.64197(18)
H4 H 0.2451 -0.2544 0.6206
C7 C 0.36497(10) -0.2158(5) 0.79351(16)
C8 C 0.37605(8) -0.0635(3) 0.83831(12)
C9 C 0.40736(7) -0.0716(3) 0.91137(11)
H5 H 0.4131 0.0321 0.9406
C10 C 0.43092(6) -0.2324(3) 0.94292(10)
C11 C 0.41952(7) -0.3836(3) 0.89881(12)
H6 H 0.434 -0.4946 0.9192
C12 C 0.38748(9) -0.3751(4) 0.82601(16)
H7 H 0.3806 -0.4805 0.7974
C13 C 0.46493(6) -0.2483(3) 1.01925(10)
H8 H 0.4741 -0.3657 1.038
C14 C 0.48451(6) -0.1116(3) 1.06543(10)
H9 H 0.478 0.0062 1.0462
C15 C 0.51507(6) -0.1316(3) 1.14321(10)
C16 C 0.53231(7) 0.0224(4) 1.18582(11)
H10 H 0.5253 0.1371 1.1636
C17 C 0.55935(12) 0.0083(5) 1.25955(16)
H11 H 0.5709 0.114 1.2877
C18 C 0.55387(10) -0.3025(4) 1.25336(15)
H12 H 0.5615 -0.4152 1.2772
C19 C 0.52677(7) -0.2970(3) 1.17930(12)
H13 H 0.516 -0.4049 1.1526
C20 C 0.59878(14) -0.1588(11) 1.3729(2)
H14 H 0.5978 -0.2814 1.3901
H15 H 0.5853 -0.0764 1.3954
C21 C 0.64915(7) -0.1073(3) 1.39647(10)
H16 H 0.6504 0.0157 1.3798
H17 H 0.6628 -0.1895 1.3742
C22 C 0.67744(8) -0.1166(3) 1.47854(11)
H18 H 0.6802 -0.2429 1.4942
H19 H 0.6607 -0.0502 1.5005
C23 C 0.72629(9) -0.0379(4) 1.50535(13)
H20 H 0.7413 -0.0916 1.4785
H21 H 0.7452 -0.0632 1.5572
H22 H 0.7239 0.0918 1.4976
C24 C 0.3292(2) -0.3579(8) 0.6744(3)
H23 H 0.3606 -0.4044 0.6879
H24 H 0.314 -0.3217 0.6233
H25 H 0.3104 -0.4511 0.6815
S2? S 0.34025(18) 0.1703(7) 0.7801(3)
N3? N 0.3323(12) -0.206(5) 0.7252(14)
N4? N 0.5689(8) -0.174(2) 1.2921(10)
C25? C 0.2894(6) -0.107(3) 0.6930(13)
C26? C 0.2885(5) 0.066(2) 0.7173(11)
C27? C 0.2462(5) 0.1643(19) 0.6872(8)
H26? H 0.2449 0.2825 0.7029
C28? C 0.2074(6) 0.083(2) 0.6349(9)
H27? H 0.1786 0.1473 0.6144
C29? C 0.2075(6) -0.084(2) 0.6106(10)
H28? H 0.1792 -0.1333 0.5737
C30? C 0.2485(5) -0.1846(18) 0.6388(9)
H29? H 0.2487 -0.3024 0.6219
C31? C 0.3644(7) -0.183(2) 0.7990(9)
C32? C 0.3695(4) -0.0163(15) 0.8314(6)
C33? C 0.4014(4) 0.0002(18) 0.9051(6)
H30? H 0.4045 0.1113 0.9291
C34? C 0.4285(3) -0.1447(17) 0.9434(5)
C35? C 0.4227(4) -0.3082(18) 0.9104(6)
H31? H 0.4409 -0.4068 0.9379
C36? C 0.3904(6) -0.334(2) 0.8366(9)
H32? H 0.3865 -0.447 0.8137
C37? C 0.4621(3) -0.1164(14) 1.0204(5)
H33? H 0.4659 0.0029 1.0378
C38? C 0.4875(3) -0.2411(12) 1.0677(4)
H34? H 0.4864 -0.3583 1.0493
C39? C 0.5176(3) -0.2147(17) 1.1468(5)
C40? C 0.5273(4) -0.0451(16) 1.1774(6)
H35? H 0.5159 0.0574 1.1473
C41? C 0.5536(7) -0.024(3) 1.2519(9)
H36? H 0.5605 0.0909 1.2736
C42? C 0.5601(5) -0.3397(18) 1.2640(7)
H37? H 0.5721 -0.4405 1.295
C43? C 0.5341(4) -0.3637(16) 1.1915(6)
H38? H 0.5271 -0.4809 1.1716
C44? C 0.5993(6) -0.163(5) 1.3723(11)
H39? H 0.5899 -0.2568 1.3964
H40? H 0.5949 -0.0451 1.39
C45? C 0.6506(5) -0.187(2) 1.3919(7)
H41? H 0.6614 -0.0818 1.3749
H42? H 0.654 -0.294 1.3668
C46? C 0.6814(5) -0.208(2) 1.4733(7)
H43? H 0.6646 -0.2805 1.4935
H44? H 0.7104 -0.2734 1.4825
C47? C 0.6941(7) -0.033(2) 1.5104(10)
H45? H 0.7133 0.0345 1.4938
H46? H 0.7118 -0.0512 1.5629
H47? H 0.6654 0.0347 1.4991
C48? C 0.3356(15) -0.359(6) 0.684(2)
H48? H 0.3103 -0.3528 0.6345
H49? H 0.3329 -0.4698 0.7071
H50? H 0.366 -0.3563 0.6844
loop_
_geom_bond_atom_site_label_1
_geom_bond_atom_site_label_2
_geom_bond_site_symmetry_1
_geom_bond_site_symmetry_2
S1 C2 1_555 1_555
N1 C1 1_555 1_555
N2 C17 1_555 1_555
C1 C2 1_555 1_555
C2 C3 1_555 1_555
C3 H1 1_555 1_555
C4 C3 1_555 1_555
H2 C4 1_555 1_555
C5 C4 1_555 1_555
H3 C5 1_555 1_555
C6 C1 1_555 1_555
H4 C6 1_555 1_555
C7 N1 1_555 1_555
C8 S1 1_555 1_555
C9 C8 1_555 1_555
H5 C9 1_555 1_555
C10 C9 1_555 1_555
C11 C10 1_555 1_555
H6 C11 1_555 1_555
C12 C7 1_555 1_555
H7 C12 1_555 1_555
C13 C10 1_555 1_555
H8 C13 1_555 1_555
C14 C13 1_555 1_555
H9 C14 1_555 1_555
C15 C14 1_555 1_555
C16 C15 1_555 1_555
H10 C16 1_555 1_555
C17 C16 1_555 1_555
H11 C17 1_555 1_555
C18 N2 1_555 1_555
H12 C18 1_555 1_555
C19 C15 1_555 1_555
H13 C19 1_555 1_555
C20 N2 1_555 1_555
H14 C20 1_555 1_555
H15 C20 1_555 1_555
C21 C20 1_555 1_555
H16 C21 1_555 1_555
H17 C21 1_555 1_555
C22 C21 1_555 1_555
H18 C22 1_555 1_555
H19 C22 1_555 1_555
C23 C22 1_555 1_555
H20 C23 1_555 1_555
H21 C23 1_555 1_555
H22 C23 1_555 1_555
C24 N1 1_555 1_555
H23 C24 1_555 1_555
H24 C24 1_555 1_555
H25 C24 1_555 1_555
C5 C6 1_555 1_555
C7 C8 1_555 1_555
C11 C12 1_555 1_555
C18 C19 1_555 1_555

#END
