
#######################################################################
#
#                 Cambridge Crystallographic Data Centre
#                                CCDC 
#
#######################################################################
#
# If this CIF has been generated from an entry in the Cambridge 
# Structural Database, then it will include bibliographic, chemical, 
# crystal, experimental, refinement or atomic coordinate data resulting 
# from the CCDC's data processing and validation procedures.
#
#######################################################################

data_CISRAA
_chemical_formula_moiety         'C21 H20 N6 O2 S1'
_chemical_name_systematic        
N'',N'''-bis((5-methoxy-1H-indol-3-yl)methylene)thiocarbonohydrazide
_symmetry_cell_setting           monoclinic
_symmetry_space_group_name_H-M   'P 21/c'
_symmetry_Int_Tables_number      14
_space_group_name_Hall           '-P 2ybc'
loop_
_symmetry_equiv_pos_site_id
_symmetry_equiv_pos_as_xyz
1 x,y,z
2 -x,1/2+y,1/2-z
3 -x,-y,-z
4 x,1/2-y,1/2+z
_cell_length_a                   16.5484(7)
_cell_length_b                   10.0632(4)
_cell_length_c                   13.0789(6)
_cell_angle_alpha                90
_cell_angle_beta                 112.057(5)
_cell_angle_gamma                90
_cell_volume                     2018.62
_cell_formula_units_Z            4
loop_
_atom_site_label
_atom_site_type_symbol
_atom_site_fract_x
_atom_site_fract_y
_atom_site_fract_z
C1 C 0.77838(13) 0.3284(2) 0.48196(17)
H1 H 0.7212 0.3497 0.4718
C2 C 0.82171(14) 0.2279(2) 0.55237(19)
C3 C 0.90856(15) 0.1962(3) 0.5695(2)
H2 H 0.9367 0.1285 0.6183
C4 C 0.95271(15) 0.2642(3) 0.51486(19)
H3 H 1.0104 0.2440 0.5266
C5 C 0.90859(13) 0.3633(2) 0.44208(18)
C6 C 0.82241(12) 0.3981(2) 0.42581(16)
C7 C 0.79933(13) 0.5085(2) 0.35071(17)
C8 C 0.87089(14) 0.5342(3) 0.32456(19)
H4 H 0.8740 0.6008 0.2769
C9 C 0.71789(13) 0.5774(2) 0.30510(16)
H5 H 0.7140 0.6526 0.2622
C10 C 0.50029(13) 0.5775(2) 0.28271(16)
C11 C 0.46078(13) 0.3278(2) 0.44158(17)
H6 H 0.5197 0.3090 0.4777
C12 C 0.41967(16) 0.1514(2) 0.54545(19)
H7 H 0.4757 0.1183 0.5815
C13 C 0.39860(13) 0.2559(2) 0.47266(16)
C14 C 0.30560(13) 0.2747(2) 0.43794(17)
C15 C 0.27623(15) 0.1761(2) 0.49182(19)
C16 C 0.18872(18) 0.1627(3) 0.4744(2)
H8 H 0.1695 0.0958 0.5089
C17 C 0.13159(16) 0.2514(3) 0.4049(2)
H9 H 0.0725 0.2441 0.3916
C18 C 0.15986(15) 0.3525(3) 0.3535(2)
C19 C 0.24653(13) 0.3656(2) 0.36768(17)
H10 H 0.2649 0.4321 0.3320
C20 C 0.70258(16) 0.1875(3) 0.6082(2)
H11 H 0.6612 0.1757 0.5342
H12 H 0.7020 0.2786 0.6298
H13 H 0.6872 0.1312 0.6572
C21 C 0.11405(18) 0.5317(3) 0.2243(3)
H14 H 0.1394 0.4887 0.1779
H15 H 0.1547 0.5948 0.2711
H16 H 0.0617 0.5769 0.1792
N1 N 0.93576(12) 0.4490(2) 0.37790(16)
H17 H 0.9862 0.4478 0.3731
N2 N 0.65007(10) 0.53827(18) 0.32177(14)
N3 N 0.57506(11) 0.61134(18) 0.27050(14)
H18 H 0.5760 0.6788 0.2306
N4 N 0.50797(10) 0.46985(18) 0.34596(14)
H19 H 0.5581 0.4323 0.3751
N5 N 0.43829(10) 0.41690(18) 0.36618(14)
N6 N 0.34773(14) 0.1035(2) 0.55720(16)
H20 H 0.3465 0.0380 0.5989
O1 O 0.78680(11) 0.15396(19) 0.61301(15)
O2 O 0.09403(10) 0.4362(2) 0.28966(16)
S1 S 0.40891(4) 0.66615(6) 0.22184(5)
loop_
_geom_bond_atom_site_label_1
_geom_bond_atom_site_label_2
_geom_bond_site_symmetry_1
_geom_bond_site_symmetry_2
C1 H1 1_555 1_555
C2 C1 1_555 1_555
C3 C2 1_555 1_555
H2 C3 1_555 1_555
C4 C3 1_555 1_555
H3 C4 1_555 1_555
C5 C4 1_555 1_555
C6 C1 1_555 1_555
C7 C6 1_555 1_555
C8 C7 1_555 1_555
H4 C8 1_555 1_555
C9 C7 1_555 1_555
H5 C9 1_555 1_555
C10 N3 1_555 1_555
C11 H6 1_555 1_555
C12 H7 1_555 1_555
C13 C11 1_555 1_555
C14 C13 1_555 1_555
C15 C14 1_555 1_555
C16 C15 1_555 1_555
H8 C16 1_555 1_555
C17 C16 1_555 1_555
H9 C17 1_555 1_555
C18 C17 1_555 1_555
C19 C14 1_555 1_555
H10 C19 1_555 1_555
C20 H11 1_555 1_555
H12 C20 1_555 1_555
H13 C20 1_555 1_555
C21 H14 1_555 1_555
H15 C21 1_555 1_555
H16 C21 1_555 1_555
N1 C5 1_555 1_555
H17 N1 1_555 1_555
N2 C9 1_555 1_555
N3 N2 1_555 1_555
H18 N3 1_555 1_555
N4 C10 1_555 1_555
H19 N4 1_555 1_555
N5 C11 1_555 1_555
N6 C12 1_555 1_555
H20 N6 1_555 1_555
O1 C2 1_555 1_555
O2 C18 1_555 1_555
S1 C10 1_555 1_555
C5 C6 1_555 1_555
C8 N1 1_555 1_555
C12 C13 1_555 1_555
C15 N6 1_555 1_555
C18 C19 1_555 1_555
C20 O1 1_555 1_555
C21 O2 1_555 1_555
N4 N5 1_555 1_555

#END
