
#######################################################################
#
#                 Cambridge Crystallographic Data Centre
#                                CCDC 
#
#######################################################################
#
# If this CIF has been generated from an entry in the Cambridge 
# Structural Database, then it will include bibliographic, chemical, 
# crystal, experimental, refinement or atomic coordinate data resulting 
# from the CCDC's data processing and validation procedures.
#
#######################################################################

data_CISYOU
_chemical_formula_moiety         'C50 H54 Si2'
_chemical_name_systematic        
(Phenanthro[1,10,9,8-opqra]perylene-7,14-diyldiethyne-2,1-diyl)bis(triisopropylsilane)
_symmetry_cell_setting           triclinic
_symmetry_space_group_name_H-M   'P -1'
_symmetry_Int_Tables_number      2
_space_group_name_Hall           '-P 1'
loop_
_symmetry_equiv_pos_site_id
_symmetry_equiv_pos_as_xyz
1 x,y,z
2 -x,-y,-z
_cell_length_a                   13.7170(7)
_cell_length_b                   16.3568(8)
_cell_length_c                   21.3921(8)
_cell_angle_alpha                72.456(3)
_cell_angle_beta                 76.756(3)
_cell_angle_gamma                73.143(3)
_cell_volume                     4326.65
_exptl_crystal_colour            'dark brown'
_exptl_crystal_description       'extremely thin lath'
_cell_formula_units_Z            4
loop_
_atom_site_label
_atom_site_type_symbol
_atom_site_fract_x
_atom_site_fract_y
_atom_site_fract_z
Si1 Si 0.54527(19) 0.16569(17) 0.83709(12)
Si2 Si 0.93738(19) -0.15743(17) 0.16711(12)
C1 C 0.6519(6) 0.0763(6) 0.6495(4)
C2 C 0.6437(6) 0.1376(6) 0.5883(4)
C3 C 0.5974(7) 0.2290(7) 0.5842(5)
H1 H 0.5721 0.2487 0.6237
C4 C 0.5895(7) 0.2877(7) 0.5244(5)
H2 H 0.5589 0.3484 0.5223
C5 C 0.6265(7) 0.2595(6) 0.4646(5)
H3 H 0.6193 0.3015 0.4232
C6 C 0.6719(7) 0.1739(6) 0.4658(4)
C7 C 0.6808(6) 0.1087(6) 0.5281(4)
C8 C 0.7282(6) 0.0177(6) 0.5327(4)
C9 C 0.7370(6) -0.0439(6) 0.5941(4)
C10 C 0.7812(6) -0.1346(6) 0.5990(4)
C11 C 0.7837(7) -0.1912(6) 0.6620(4)
H4 H 0.8129 -0.2524 0.6659
C12 C 0.7454(7) -0.1623(6) 0.7198(4)
H5 H 0.7473 -0.2037 0.7619
C13 C 0.7057(6) -0.0759(6) 0.7162(4)
H6 H 0.6842 -0.0559 0.7556
C14 C 0.6958(6) -0.0152(6) 0.6545(4)
C15 C 0.6158(7) 0.1048(6) 0.7099(4)
C16 C 0.5873(7) 0.1298(6) 0.7610(4)
C17 C 0.5395(6) 0.0659(6) 0.9060(4)
H7 H 0.5054 0.0865 0.9470
C18 C 0.4713(7) 0.0136(7) 0.8950(4)
H8 H 0.5082 -0.0171 0.8604
H9 H 0.4074 0.0541 0.8811
H10 H 0.4549 -0.0297 0.9364
C19 C 0.6429(7) 0.0053(7) 0.9200(5)
H11 H 0.6324 -0.0488 0.9534
H12 H 0.6804 0.0350 0.9366
H13 H 0.6829 -0.0096 0.8790
C20 C 0.6457(7) 0.2188(6) 0.8436(5)
H14 H 0.7085 0.1697 0.8514
C21 C 0.6175(8) 0.2568(8) 0.9045(6)
H15 H 0.6754 0.2778 0.9084
H16 H 0.6028 0.2107 0.9445
H17 H 0.5565 0.3061 0.8995
C22 C 0.6801(9) 0.2869(7) 0.7797(6)
H18 H 0.6279 0.3430 0.7754
H19 H 0.6880 0.2644 0.7408
H20 H 0.7461 0.2964 0.7826
C23 C 0.4126(7) 0.2405(6) 0.8317(4)
H21 H 0.3720 0.2060 0.8210
C24 C 0.3542(8) 0.2641(8) 0.8937(5)
H22 H 0.3809 0.3088 0.9018
H23 H 0.3620 0.2113 0.9309
H24 H 0.2811 0.2877 0.8893
C25 C 0.4125(9) 0.3209(7) 0.7742(6)
H25 H 0.3413 0.3513 0.7676
H26 H 0.4508 0.3028 0.7340
H27 H 0.4453 0.3607 0.7836
C26 C 0.8399(6) -0.0675(5) 0.3541(4)
C27 C 0.8510(6) -0.1311(6) 0.4170(4)
C28 C 0.8976(7) -0.2203(6) 0.4208(4)
H28 H 0.9220 -0.2397 0.3812
C29 C 0.9085(8) -0.2797(7) 0.4806(4)
H29 H 0.9428 -0.3397 0.4825
C30 C 0.8683(8) -0.2516(6) 0.5398(5)
H30 H 0.8737 -0.2938 0.5813
C31 C 0.8219(6) -0.1650(6) 0.5387(4)
C32 C 0.8121(6) -0.1019(6) 0.4764(4)
C33 C 0.7676(6) -0.0111(6) 0.4712(4)
C34 C 0.7578(7) 0.0515(6) 0.4093(4)
C35 C 0.7119(7) 0.1439(6) 0.4047(4)
C36 C 0.7082(6) 0.2011(6) 0.3408(4)
H31 H 0.6791 0.2624 0.3368
C37 C 0.7449(7) 0.1722(6) 0.2846(4)
H32 H 0.7402 0.2133 0.2425
C38 C 0.7888(7) 0.0839(6) 0.2881(4)
H33 H 0.8127 0.0645 0.2485
C39 C 0.7982(6) 0.0231(6) 0.3492(4)
C40 C 0.8739(6) -0.0971(6) 0.2941(4)
C41 C 0.9013(6) -0.1225(6) 0.2440(4)
C42 C 0.9499(8) -0.2779(6) 0.1906(6)
H34 H 0.9623 -0.2976 0.1489
C43 C 0.8513(9) -0.3024(7) 0.2328(7)
H35 H 0.8634 -0.3667 0.2487
H36 H 0.7956 -0.2797 0.2060
H37 H 0.8319 -0.2763 0.2709
C44 C 1.0400(8) -0.3287(7) 0.2280(6)
H38 H 1.0284 -0.3121 0.2699
H39 H 1.1038 -0.3146 0.2009
H40 H 1.0457 -0.3922 0.2372
C45 C 1.0632(7) -0.1282(7) 0.1271(4)
H41 H 1.1107 -0.1605 0.1605
C46 C 1.1137(9) -0.1649(10) 0.0651(5)
H42 H 1.0840 -0.1248 0.0263
H43 H 1.1009 -0.2233 0.0727
H44 H 1.1882 -0.1699 0.0574
C47 C 1.0618(8) -0.0316(7) 0.1150(5)
H45 H 1.1326 -0.0250 0.1077
H46 H 1.0225 -0.0102 0.1538
H47 H 1.0293 0.0029 0.0758
C48 C 0.8272(6) -0.0992(6) 0.1197(4)
H48 H 0.7663 -0.1203 0.1485
C49 C 0.7962(8) 0.0006(6) 0.1077(5)
H49 H 0.8479 0.0264 0.0738
H50 H 0.7918 0.0165 0.1491
H51 H 0.7290 0.0233 0.0925
C50 C 0.8406(8) -0.1273(8) 0.0544(4)
H52 H 0.7795 -0.0969 0.0327
H53 H 0.8488 -0.1912 0.0646
H54 H 0.9018 -0.1113 0.0247
Si3 Si 1.00775(19) -0.32686(16) 0.86454(11)
C51 C 1.0118(7) -0.1497(6) 0.6581(4)
C52 C 0.9678(6) -0.0579(6) 0.6544(4)
C53 C 0.9276(7) -0.0263(7) 0.7111(4)
H55 H 0.9300 -0.0660 0.7539
C54 C 0.8848(7) 0.0620(7) 0.7051(4)
H56 H 0.8582 0.0836 0.7437
C55 C 0.8802(7) 0.1195(6) 0.6433(4)
H57 H 0.8509 0.1805 0.6405
C56 C 0.9163(6) 0.0926(6) 0.5852(4)
C57 C 0.9621(6) 0.0021(6) 0.5908(4)
C58 C 1.0029(6) -0.0278(6) 0.5320(4)
C59 C 1.0485(6) -0.1204(6) 0.5381(4)
C60 C 1.0908(7) -0.1557(6) 0.4804(4)
C61 C 1.1355(7) -0.2440(6) 0.4889(5)
H58 H 1.1641 -0.2671 0.4511
C62 C 1.1395(8) -0.2990(7) 0.5507(5)
H59 H 1.1721 -0.3598 0.5550
C63 C 1.0991(7) -0.2703(6) 0.6055(5)
H60 H 1.1018 -0.3115 0.6476
C64 C 1.0537(6) -0.1823(6) 0.6026(4)
C65 C 1.0129(6) -0.2105(6) 0.7236(4)
C66 C 1.0122(6) -0.2584(6) 0.7779(4)
C67 C 1.0494(8) -0.4459(7) 0.8628(5)
H61 H 1.0444 -0.4811 0.9101
C68 C 1.1591(8) -0.4723(8) 0.8319(7)
H62 H 1.1823 -0.5368 0.8435
H63 H 1.2021 -0.4474 0.8484
H64 H 1.1648 -0.4501 0.7836
C69 C 0.9769(9) -0.4697(8) 0.8318(7)
H65 H 0.9723 -0.4310 0.7870
H66 H 0.9085 -0.4623 0.8589
H67 H 1.0029 -0.5312 0.8292
C70 C 0.8666(7) -0.3012(6) 0.9048(4)
H68 H 0.8276 -0.3164 0.8774
C71 C 0.8468(8) -0.3598(7) 0.9747(4)
H69 H 0.8768 -0.3431 1.0051
H70 H 0.8785 -0.4217 0.9745
H71 H 0.7723 -0.3522 0.9894
C72 C 0.8209(7) -0.2049(6) 0.9022(5)
H72 H 0.7457 -0.1943 0.9135
H73 H 0.8394 -0.1692 0.8574
H74 H 0.8481 -0.1884 0.9341
C73 C 1.1030(7) -0.2996(6) 0.9032(4)
H75 H 1.1724 -0.3177 0.8769
C74 C 1.1108(9) -0.3528(7) 0.9744(4)
H76 H 1.1667 -0.3412 0.9894
H77 H 1.1252 -0.4159 0.9767
H78 H 1.0455 -0.3356 1.0029
C75 C 1.0842(8) -0.1998(6) 0.8949(5)
H79 H 1.0203 -0.1795 0.9234
H80 H 1.0784 -0.1685 0.8485
H81 H 1.1421 -0.1878 0.9075
Si3A Si 0.99225(19) 0.32686(16) 0.13546(11)
C51A C 0.9882(7) 0.1497(6) 0.3419(4)
C52A C 1.0322(6) 0.0579(6) 0.3456(4)
C53A C 1.0724(7) 0.0263(7) 0.2889(4)
H55A H 1.0700 0.0660 0.2461
C54A C 1.1152(7) -0.0620(7) 0.2949(4)
H56A H 1.1418 -0.0836 0.2563
C55A C 1.1198(7) -0.1195(6) 0.3567(4)
H57A H 1.1491 -0.1805 0.3595
C56A C 1.0837(6) -0.0926(6) 0.4148(4)
C57A C 1.0379(6) -0.0021(6) 0.4092(4)
C58A C 0.9971(6) 0.0278(6) 0.4680(4)
C59A C 0.9515(6) 0.1204(6) 0.4619(4)
C60A C 0.9092(7) 0.1557(6) 0.5196(4)
C61A C 0.8645(7) 0.2440(6) 0.5111(5)
H58A H 0.8359 0.2671 0.5489
C62A C 0.8605(8) 0.2990(7) 0.4493(5)
H59A H 0.8279 0.3598 0.4450
C63A C 0.9009(7) 0.2703(6) 0.3945(5)
H60A H 0.8982 0.3115 0.3524
C64A C 0.9463(6) 0.1823(6) 0.3974(4)
C65A C 0.9871(6) 0.2105(6) 0.2764(4)
C66A C 0.9878(6) 0.2584(6) 0.2221(4)
C67A C 0.9506(8) 0.4459(7) 0.1372(5)
H61A H 0.9556 0.4811 0.0899
C68A C 0.8409(8) 0.4723(8) 0.1681(7)
H62A H 0.8177 0.5368 0.1565
H63A H 0.7979 0.4474 0.1516
H64A H 0.8352 0.4501 0.2164
C69A C 1.0231(9) 0.4697(8) 0.1682(7)
H65A H 1.0277 0.4310 0.2130
H66A H 1.0915 0.4623 0.1411
H67A H 0.9971 0.5312 0.1708
C70A C 1.1334(7) 0.3012(6) 0.0952(4)
H68A H 1.1724 0.3164 0.1226
C71A C 1.1532(8) 0.3598(7) 0.0253(4)
H69A H 1.1232 0.3431 -0.0051
H70A H 1.1215 0.4217 0.0255
H71A H 1.2277 0.3522 0.0106
C72A C 1.1791(7) 0.2049(6) 0.0978(5)
H72A H 1.2543 0.1943 0.0865
H73A H 1.1606 0.1692 0.1426
H74A H 1.1519 0.1884 0.0659
C73A C 0.8970(7) 0.2996(6) 0.0968(4)
H75A H 0.8276 0.3177 0.1231
C74A C 0.8892(9) 0.3528(7) 0.0256(4)
H76A H 0.8333 0.3412 0.0106
H77A H 0.8748 0.4159 0.0233
H78A H 0.9545 0.3356 -0.0029
C75A C 0.9158(8) 0.1998(6) 0.1051(5)
H79A H 0.9797 0.1795 0.0766
H80A H 0.9216 0.1685 0.1515
H81A H 0.8579 0.1878 0.0925
Si4 Si 0.5364(2) -0.36956(19) 0.84294(12)
C76 C 0.5196(7) -0.1624(6) 0.6545(4)
C77 C 0.4740(7) -0.0707(6) 0.6533(4)
C78 C 0.4346(7) -0.0478(7) 0.7135(4)
H82 H 0.4366 -0.0922 0.7541
C79 C 0.3931(7) 0.0388(7) 0.7137(4)
H83 H 0.3708 0.0554 0.7545
C80 C 0.3834(7) 0.1048(6) 0.6519(4)
H84 H 0.3514 0.1645 0.6527
C81 C 0.4200(7) 0.0837(6) 0.5907(4)
C82 C 0.4671(6) -0.0082(6) 0.5918(4)
C83 C 0.5032(6) -0.0316(6) 0.5307(4)
C84 C 0.5498(6) -0.1221(6) 0.5318(4)
C85 C 0.5903(6) -0.1499(6) 0.4723(4)
C86 C 0.6348(8) -0.2375(6) 0.4737(5)
H85 H 0.6588 -0.2558 0.4336
C87 C 0.6442(8) -0.2984(7) 0.5344(5)
H86 H 0.6787 -0.3581 0.5352
C88 C 0.6053(7) -0.2753(6) 0.5931(5)
H87 H 0.6094 -0.3193 0.6339
C89 C 0.5590(6) -0.1862(6) 0.5933(4)
C90 C 0.5271(7) -0.2263(7) 0.7154(4)
C91 C 0.5309(7) -0.2813(7) 0.7664(4)
C92 C 0.6751(8) -0.4334(7) 0.8418(5)
H88 H 0.7127 -0.3906 0.8442
C93 C 0.7231(9) -0.4574(9) 0.7779(6)
H89 H 0.7980 -0.4777 0.7763
H90 H 0.7072 -0.4056 0.7408
H91 H 0.6957 -0.5046 0.7744
C94 C 0.6923(10) -0.5084(9) 0.9038(7)
H92 H 0.6531 -0.5513 0.9067
H93 H 0.6689 -0.4848 0.9431
H94 H 0.7658 -0.5376 0.9015
C95 C 0.4690(19) -0.4565(14) 0.8378(9)
H95 H 0.5287 -0.5028 0.8237
C96 C 0.405(3) -0.428(3) 0.7806(15)
H96 H 0.3979 -0.4805 0.7709
H97 H 0.4406 -0.3931 0.7410
H98 H 0.3368 -0.3923 0.7938
C97 C 0.4185(17) -0.5083(14) 0.9022(9)
H99 H 0.3780 -0.5421 0.8924
H100 H 0.3731 -0.4674 0.9279
H101 H 0.4718 -0.5488 0.9279
C98 C 0.4893(7) -0.3121(7) 0.9123(5)
H102 H 0.4888 -0.3592 0.9548
C99 C 0.3779(7) -0.2565(8) 0.9103(5)
H103 H 0.3505 -0.2390 0.9521
H104 H 0.3352 -0.2914 0.9042
H105 H 0.3770 -0.2036 0.8733
C100 C 0.5633(8) -0.2594(8) 0.9129(5)
H106 H 0.5690 -0.2146 0.8707
H107 H 0.6313 -0.2991 0.9188
H108 H 0.5375 -0.2305 0.9495
Si4A Si 0.4636(2) 0.36956(19) 0.15706(12)
C76A C 0.4804(7) 0.1624(6) 0.3455(4)
C77A C 0.5260(7) 0.0707(6) 0.3467(4)
C78A C 0.5654(7) 0.0478(7) 0.2865(4)
H82A H 0.5634 0.0922 0.2459
C79A C 0.6069(7) -0.0388(7) 0.2863(4)
H83A H 0.6292 -0.0554 0.2455
C80A C 0.6166(7) -0.1048(6) 0.3481(4)
H84A H 0.6486 -0.1645 0.3473
C81A C 0.5800(7) -0.0837(6) 0.4093(4)
C82A C 0.5329(6) 0.0082(6) 0.4082(4)
C83A C 0.4968(6) 0.0316(6) 0.4693(4)
C84A C 0.4502(6) 0.1221(6) 0.4682(4)
C85A C 0.4097(6) 0.1499(6) 0.5277(4)
C86A C 0.3652(8) 0.2375(6) 0.5263(5)
H85A H 0.3412 0.2558 0.5664
C87A C 0.3558(8) 0.2984(7) 0.4656(5)
H86A H 0.3213 0.3581 0.4648
C88A C 0.3947(7) 0.2753(6) 0.4069(5)
H87A H 0.3906 0.3193 0.3661
C89A C 0.4410(6) 0.1862(6) 0.4067(4)
C90A C 0.4729(7) 0.2263(7) 0.2846(4)
C91A C 0.4691(7) 0.2813(7) 0.2336(4)
C92A C 0.3249(8) 0.4334(7) 0.1582(5)
H88A H 0.2873 0.3906 0.1558
C93A C 0.2769(9) 0.4574(9) 0.2221(6)
H89A H 0.2020 0.4777 0.2237
H90A H 0.2928 0.4056 0.2592
H91A H 0.3043 0.5046 0.2256
C94A C 0.3077(10) 0.5084(9) 0.0962(7)
H92A H 0.3469 0.5513 0.0933
H93A H 0.3311 0.4848 0.0569
H94A H 0.2342 0.5376 0.0985
C95A C 0.5310(19) 0.4565(14) 0.1622(9)
H95A H 0.4713 0.5028 0.1763
C96A C 0.595(3) 0.428(3) 0.2194(15)
H96A H 0.6021 0.4805 0.2291
H97A H 0.5594 0.3931 0.2590
H98A H 0.6632 0.3923 0.2062
C97A C 0.5815(17) 0.5083(14) 0.0978(9)
H99A H 0.6220 0.5421 0.1076
H100A H 0.6269 0.4674 0.0721
H101A H 0.5282 0.5488 0.0721
C98A C 0.5107(7) 0.3121(7) 0.0877(5)
H102A H 0.5112 0.3592 0.0452
C99A C 0.6221(7) 0.2565(8) 0.0897(5)
H103A H 0.6495 0.2390 0.0479
H104A H 0.6648 0.2914 0.0958
H105A H 0.6230 0.2036 0.1267
C100A C 0.4367(8) 0.2594(8) 0.0871(5)
H106A H 0.4310 0.2146 0.1293
H107A H 0.3687 0.2991 0.0812
H108A H 0.4625 0.2305 0.0505
C101? C 0.4257(19) -0.4223(19) 0.8486(11)
H109? H 0.3610 -0.3745 0.8438
C102? C 0.412(2) -0.4859(17) 0.9175(11)
H110? H 0.3808 -0.5318 0.9153
H111? H 0.3663 -0.4532 0.9491
H112? H 0.4790 -0.5134 0.9323
C103? C 0.449(3) -0.464(2) 0.7913(11)
H113? H 0.5082 -0.5151 0.7977
H114? H 0.4663 -0.4208 0.7499
H115? H 0.3891 -0.4830 0.7890
loop_
_geom_bond_atom_site_label_1
_geom_bond_atom_site_label_2
_geom_bond_site_symmetry_1
_geom_bond_site_symmetry_2
Si1 C16 1_555 1_555
Si2 C41 1_555 1_555
C1 C2 1_555 1_555
C2 C3 1_555 1_555
C3 H1 1_555 1_555
C4 C3 1_555 1_555
H2 C4 1_555 1_555
C5 C4 1_555 1_555
H3 C5 1_555 1_555
C6 C5 1_555 1_555
C7 C2 1_555 1_555
C8 C7 1_555 1_555
C9 C8 1_555 1_555
C10 C9 1_555 1_555
C11 C10 1_555 1_555
H4 C11 1_555 1_555
C12 C11 1_555 1_555
H5 C12 1_555 1_555
C13 C12 1_555 1_555
H6 C13 1_555 1_555
C14 C1 1_555 1_555
C15 C1 1_555 1_555
C16 C15 1_555 1_555
C17 Si1 1_555 1_555
H7 C17 1_555 1_555
C18 C17 1_555 1_555
H8 C18 1_555 1_555
H9 C18 1_555 1_555
H10 C18 1_555 1_555
C19 C17 1_555 1_555
H11 C19 1_555 1_555
H12 C19 1_555 1_555
H13 C19 1_555 1_555
C20 Si1 1_555 1_555
H14 C20 1_555 1_555
C21 C20 1_555 1_555
H15 C21 1_555 1_555
H16 C21 1_555 1_555
H17 C21 1_555 1_555
C22 C20 1_555 1_555
H18 C22 1_555 1_555
H19 C22 1_555 1_555
H20 C22 1_555 1_555
C23 Si1 1_555 1_555
H21 C23 1_555 1_555
C24 C23 1_555 1_555
H22 C24 1_555 1_555
H23 C24 1_555 1_555
H24 C24 1_555 1_555
C25 C23 1_555 1_555
H25 C25 1_555 1_555
H26 C25 1_555 1_555
H27 C25 1_555 1_555
C26 C27 1_555 1_555
C27 C28 1_555 1_555
C28 H28 1_555 1_555
C29 C28 1_555 1_555
H29 C29 1_555 1_555
C30 C29 1_555 1_555
H30 C30 1_555 1_555
C31 C10 1_555 1_555
C32 C27 1_555 1_555
C33 C8 1_555 1_555
C34 C33 1_555 1_555
C35 C6 1_555 1_555
C36 C35 1_555 1_555
H31 C36 1_555 1_555
C37 C36 1_555 1_555
H32 C37 1_555 1_555
C38 C37 1_555 1_555
H33 C38 1_555 1_555
C39 C26 1_555 1_555
C40 C26 1_555 1_555
C41 C40 1_555 1_555
C42 Si2 1_555 1_555
H34 C42 1_555 1_555
C43 C42 1_555 1_555
H35 C43 1_555 1_555
H36 C43 1_555 1_555
H37 C43 1_555 1_555
C44 C42 1_555 1_555
H38 C44 1_555 1_555
H39 C44 1_555 1_555
H40 C44 1_555 1_555
C45 Si2 1_555 1_555
H41 C45 1_555 1_555
C46 C45 1_555 1_555
H42 C46 1_555 1_555
H43 C46 1_555 1_555
H44 C46 1_555 1_555
C47 C45 1_555 1_555
H45 C47 1_555 1_555
H46 C47 1_555 1_555
H47 C47 1_555 1_555
C48 Si2 1_555 1_555
H48 C48 1_555 1_555
C49 C48 1_555 1_555
H49 C49 1_555 1_555
H50 C49 1_555 1_555
H51 C49 1_555 1_555
C50 C48 1_555 1_555
H52 C50 1_555 1_555
H53 C50 1_555 1_555
H54 C50 1_555 1_555
Si3 C66 1_555 1_555
C51 C52 1_555 1_555
C52 C53 1_555 1_555
C53 H55 1_555 1_555
C54 C53 1_555 1_555
H56 C54 1_555 1_555
C55 C54 1_555 1_555
H57 C55 1_555 1_555
C56 C55 1_555 1_555
C57 C52 1_555 1_555
C58 C57 1_555 1_555
C59 C58 1_555 1_555
C60 C59 1_555 1_555
C61 C60 1_555 1_555
H58 C61 1_555 1_555
C62 C61 1_555 1_555
H59 C62 1_555 1_555
C63 C62 1_555 1_555
H60 C63 1_555 1_555
C64 C51 1_555 1_555
C65 C51 1_555 1_555
C66 C65 1_555 1_555
C67 Si3 1_555 1_555
H61 C67 1_555 1_555
C68 C67 1_555 1_555
H62 C68 1_555 1_555
H63 C68 1_555 1_555
H64 C68 1_555 1_555
C69 C67 1_555 1_555
H65 C69 1_555 1_555
H66 C69 1_555 1_555
H67 C69 1_555 1_555
C70 Si3 1_555 1_555
H68 C70 1_555 1_555
C71 C70 1_555 1_555
H69 C71 1_555 1_555
H70 C71 1_555 1_555
H71 C71 1_555 1_555
C72 C70 1_555 1_555
H72 C72 1_555 1_555
H73 C72 1_555 1_555
H74 C72 1_555 1_555
C73 Si3 1_555 1_555
H75 C73 1_555 1_555
C74 C73 1_555 1_555
H76 C74 1_555 1_555
H77 C74 1_555 1_555
H78 C74 1_555 1_555
C75 C73 1_555 1_555
H79 C75 1_555 1_555
H80 C75 1_555 1_555
H81 C75 1_555 1_555
Si4 C91 1_555 1_555
C76 C77 1_555 1_555
C77 C78 1_555 1_555
C78 H82 1_555 1_555
C79 C78 1_555 1_555
H83 C79 1_555 1_555
C80 C79 1_555 1_555
H84 C80 1_555 1_555
C81 C80 1_555 1_555
C82 C77 1_555 1_555
C83 C82 1_555 1_555
C84 C83 1_555 1_555
C85 C84 1_555 1_555
C86 C85 1_555 1_555
H85 C86 1_555 1_555
C87 C86 1_555 1_555
H86 C87 1_555 1_555
C88 C87 1_555 1_555
H87 C88 1_555 1_555
C89 C76 1_555 1_555
C90 C76 1_555 1_555
C91 C90 1_555 1_555
C92 Si4 1_555 1_555
H88 C92 1_555 1_555
C93 C92 1_555 1_555
H89 C93 1_555 1_555
H90 C93 1_555 1_555
H91 C93 1_555 1_555
C94 C92 1_555 1_555
H92 C94 1_555 1_555
H93 C94 1_555 1_555
H94 C94 1_555 1_555
C95 Si4 1_555 1_555
H95 C95 1_555 1_555
C96 C95 1_555 1_555
H96 C96 1_555 1_555
H97 C96 1_555 1_555
H98 C96 1_555 1_555
C97 C95 1_555 1_555
H99 C97 1_555 1_555
H100 C97 1_555 1_555
H101 C97 1_555 1_555
C98 Si4 1_555 1_555
H102 C98 1_555 1_555
C99 C98 1_555 1_555
H103 C99 1_555 1_555
H104 C99 1_555 1_555
H105 C99 1_555 1_555
C100 C98 1_555 1_555
H106 C100 1_555 1_555
H107 C100 1_555 1_555
H108 C100 1_555 1_555
Si3A C66A 1_555 1_555
C51A C52A 1_555 1_555
C52A C53A 1_555 1_555
C53A H55A 1_555 1_555
C54A C53A 1_555 1_555
H56A C54A 1_555 1_555
C55A C54A 1_555 1_555
H57A C55A 1_555 1_555
C56A C60 1_555 1_555
C57A C52A 1_555 1_555
C58A C58 1_555 1_555
C59A C58A 1_555 1_555
C60A C56 1_555 1_555
C61A C60A 1_555 1_555
H58A C61A 1_555 1_555
C62A C61A 1_555 1_555
H59A C62A 1_555 1_555
C63A C62A 1_555 1_555
H60A C63A 1_555 1_555
C64A C51A 1_555 1_555
C65A C51A 1_555 1_555
C66A C65A 1_555 1_555
C67A Si3A 1_555 1_555
H61A C67A 1_555 1_555
C68A C67A 1_555 1_555
H62A C68A 1_555 1_555
H63A C68A 1_555 1_555
H64A C68A 1_555 1_555
C69A C67A 1_555 1_555
H65A C69A 1_555 1_555
H66A C69A 1_555 1_555
H67A C69A 1_555 1_555
C70A Si3A 1_555 1_555
H68A C70A 1_555 1_555
C71A C70A 1_555 1_555
H69A C71A 1_555 1_555
H70A C71A 1_555 1_555
H71A C71A 1_555 1_555
C72A C70A 1_555 1_555
H72A C72A 1_555 1_555
H73A C72A 1_555 1_555
H74A C72A 1_555 1_555
C73A Si3A 1_555 1_555
H75A C73A 1_555 1_555
C74A C73A 1_555 1_555
H76A C74A 1_555 1_555
H77A C74A 1_555 1_555
H78A C74A 1_555 1_555
C75A C73A 1_555 1_555
H79A C75A 1_555 1_555
H80A C75A 1_555 1_555
H81A C75A 1_555 1_555
Si4A C91A 1_555 1_555
C76A C77A 1_555 1_555
C77A C78A 1_555 1_555
C78A H82A 1_555 1_555
C79A C78A 1_555 1_555
H83A C79A 1_555 1_555
C80A C79A 1_555 1_555
H84A C80A 1_555 1_555
C81A C85 1_555 1_555
C82A C77A 1_555 1_555
C83A C83 1_555 1_555
C84A C83A 1_555 1_555
C85A C81 1_555 1_555
C86A C85A 1_555 1_555
H85A C86A 1_555 1_555
C87A C86A 1_555 1_555
H86A C87A 1_555 1_555
C88A C87A 1_555 1_555
H87A C88A 1_555 1_555
C89A C76A 1_555 1_555
C90A C76A 1_555 1_555
C91A C90A 1_555 1_555
C92A Si4A 1_555 1_555
H88A C92A 1_555 1_555
C93A C92A 1_555 1_555
H89A C93A 1_555 1_555
H90A C93A 1_555 1_555
H91A C93A 1_555 1_555
C94A C92A 1_555 1_555
H92A C94A 1_555 1_555
H93A C94A 1_555 1_555
H94A C94A 1_555 1_555
C95A Si4A 1_555 1_555
H95A C95A 1_555 1_555
C96A C95A 1_555 1_555
H96A C96A 1_555 1_555
H97A C96A 1_555 1_555
H98A C96A 1_555 1_555
C97A C95A 1_555 1_555
H99A C97A 1_555 1_555
H100A C97A 1_555 1_555
H101A C97A 1_555 1_555
C98A Si4A 1_555 1_555
H102A C98A 1_555 1_555
C99A C98A 1_555 1_555
H103A C99A 1_555 1_555
H104A C99A 1_555 1_555
H105A C99A 1_555 1_555
C100A C98A 1_555 1_555
H106A C100A 1_555 1_555
H107A C100A 1_555 1_555
H108A C100A 1_555 1_555
C6 C7 1_555 1_555
C9 C14 1_555 1_555
C13 C14 1_555 1_555
C30 C31 1_555 1_555
C31 C32 1_555 1_555
C32 C33 1_555 1_555
C34 C35 1_555 1_555
C34 C39 1_555 1_555
C38 C39 1_555 1_555
C56 C57 1_555 1_555
C59 C64 1_555 1_555
C63 C64 1_555 1_555
C81 C82 1_555 1_555
C84 C89 1_555 1_555
C88 C89 1_555 1_555
C55A C56A 1_555 1_555
C56A C57A 1_555 1_555
C57A C58A 1_555 1_555
C59A C60A 1_555 1_555
C59A C64A 1_555 1_555
C63A C64A 1_555 1_555
C80A C81A 1_555 1_555
C81A C82A 1_555 1_555
C82A C83A 1_555 1_555
C84A C85A 1_555 1_555
C84A C89A 1_555 1_555
C88A C89A 1_555 1_555

#END
