
#######################################################################
#
#                 Cambridge Crystallographic Data Centre
#                                CCDC 
#
#######################################################################
#
# If this CIF has been generated from an entry in the Cambridge 
# Structural Database, then it will include bibliographic, chemical, 
# crystal, experimental, refinement or atomic coordinate data resulting 
# from the CCDC's data processing and validation procedures.
#
#######################################################################

data_CITDUG
_chemical_formula_moiety         'C22 H29 N1 O2'
_chemical_name_systematic        
2,4-Di-t-butyl-6-(((4-methoxyphenyl)imino)methyl)phenol
_symmetry_cell_setting           monoclinic
_symmetry_space_group_name_H-M   'P 21/c'
_symmetry_Int_Tables_number      14
_space_group_name_Hall           '-P 2ybc'
loop_
_symmetry_equiv_pos_site_id
_symmetry_equiv_pos_as_xyz
1 x,y,z
2 -x,1/2+y,1/2-z
3 -x,-y,-z
4 x,1/2-y,1/2+z
_cell_length_a                   18.421(6)
_cell_length_b                   10.324(3)
_cell_length_c                   10.622(4)
_cell_angle_alpha                90
_cell_angle_beta                 95.027(10)
_cell_angle_gamma                90
_cell_volume                     2012.3
_exptl_crystal_colour            gold
_exptl_crystal_description       Block
_cell_formula_units_Z            4
loop_
_atom_site_label
_atom_site_type_symbol
_atom_site_fract_x
_atom_site_fract_y
_atom_site_fract_z
C1 C 0.21027(11) 0.4532(2) 0.72086(19)
C2 C 0.26882(12) 0.2700(2) 0.8349(2)
C3 C 0.26819(11) 0.4024(2) 0.80076(19)
C4 C 0.15622(12) 0.3663(2) 0.6760(2)
H1 H 0.1181 0.3981 0.6214
C5 C 0.21219(12) 0.1893(2) 0.7877(2)
H2 H 0.2130 0.1025 0.8111
C6 C 0.32874(13) 0.2137(2) 0.9150(2)
H3 H 0.3261 0.1271 0.9383
C7 C 0.15504(12) 0.2346(2) 0.7073(2)
C8 C 0.20641(13) 0.5978(2) 0.6856(2)
C9 C 0.44414(12) 0.2214(2) 1.0279(2)
C10 C 0.56777(13) 0.1220(3) 1.1633(2)
C11 C 0.09449(13) 0.1447(2) 0.6506(2)
C12 C 0.43882(13) 0.1180(3) 1.1082(2)
H4 H 0.3935 0.0812 1.1171
C13 C 0.50053(15) 0.0676(3) 1.1763(2)
H5 H 0.4963 -0.0024 1.2303
C14 C 0.13849(16) 0.6308(3) 0.5985(3)
H6 H 0.1403 0.5863 0.5194
H7 H 0.1366 0.7225 0.5839
H8 H 0.0958 0.6042 0.6375
C15 C 0.51204(14) 0.2759(3) 1.0188(3)
H9 H 0.5163 0.3478 0.9671
C16 C 0.27350(16) 0.6375(3) 0.6176(3)
H10 H 0.3170 0.6211 0.6719
H11 H 0.2706 0.7281 0.5973
H12 H 0.2747 0.5881 0.5413
C17 C 0.57334(15) 0.2263(3) 1.0844(3)
H13 H 0.6186 0.2633 1.0754
C18 C 0.20385(17) 0.6786(3) 0.8065(3)
H14 H 0.1601 0.6586 0.8456
H15 H 0.2043 0.7690 0.7856
H16 H 0.2455 0.6586 0.8640
C19 C 0.62934(19) -0.0100(4) 1.3228(3)
H17 H 0.6010 0.0257 1.3860
H18 H 0.6778 -0.0279 1.3595
H19 H 0.6072 -0.0888 1.2906
C20 C 0.0256(3) 0.2162(5) 0.6158(9)
H20 H 0.0309 0.2679 0.5421
H21 H 0.0149 0.2713 0.6846
H22 H -0.0134 0.1555 0.5984
C21 C 0.0753(3) 0.0431(5) 0.7412(5)
H23 H 0.0343 -0.0056 0.7049
H24 H 0.0631 0.0832 0.8181
H25 H 0.1161 -0.0138 0.7590
C22 C 0.1186(3) 0.0844(8) 0.5365(5)
H26 H 0.1651 0.0439 0.5563
H27 H 0.1228 0.1494 0.4729
H28 H 0.0837 0.0203 0.5056
N1 N 0.38462(10) 0.27912(19) 0.95419(19)
O1 O 0.32347(9) 0.47979(15) 0.84495(16)
H29 H 0.3533 0.4374 0.8895
O2 O 0.63244(10) 0.0795(2) 1.2234(2)
loop_
_geom_bond_atom_site_label_1
_geom_bond_atom_site_label_2
_geom_bond_site_symmetry_1
_geom_bond_site_symmetry_2
C1 C3 1_555 1_555
C2 C3 1_555 1_555
C3 O1 1_555 1_555
C4 C1 1_555 1_555
H1 C4 1_555 1_555
C5 C2 1_555 1_555
H2 C5 1_555 1_555
C6 C2 1_555 1_555
H3 C6 1_555 1_555
C7 C4 1_555 1_555
C8 C1 1_555 1_555
C9 C12 1_555 1_555
C10 C13 1_555 1_555
C11 C7 1_555 1_555
C12 H4 1_555 1_555
C13 C12 1_555 1_555
H5 C13 1_555 1_555
C14 C8 1_555 1_555
H6 C14 1_555 1_555
H7 C14 1_555 1_555
H8 C14 1_555 1_555
C15 C9 1_555 1_555
H9 C15 1_555 1_555
C16 C8 1_555 1_555
H10 C16 1_555 1_555
H11 C16 1_555 1_555
H12 C16 1_555 1_555
C17 C10 1_555 1_555
H13 C17 1_555 1_555
C18 C8 1_555 1_555
H14 C18 1_555 1_555
H15 C18 1_555 1_555
H16 C18 1_555 1_555
C19 H17 1_555 1_555
H18 C19 1_555 1_555
H19 C19 1_555 1_555
C20 C11 1_555 1_555
H20 C20 1_555 1_555
H21 C20 1_555 1_555
H22 C20 1_555 1_555
C21 C11 1_555 1_555
H23 C21 1_555 1_555
H24 C21 1_555 1_555
H25 C21 1_555 1_555
C22 C11 1_555 1_555
H26 C22 1_555 1_555
H27 C22 1_555 1_555
H28 C22 1_555 1_555
N1 C6 1_555 1_555
O1 H29 1_555 1_555
O2 C10 1_555 1_555
C5 C7 1_555 1_555
C9 N1 1_555 1_555
C15 C17 1_555 1_555
C19 O2 1_555 1_555

#END
