
#######################################################################
#
#                 Cambridge Crystallographic Data Centre
#                                CCDC 
#
#######################################################################
#
# If this CIF has been generated from an entry in the Cambridge 
# Structural Database, then it will include bibliographic, chemical, 
# crystal, experimental, refinement or atomic coordinate data resulting 
# from the CCDC's data processing and validation procedures.
#
#######################################################################

data_CITNID
_chemical_formula_moiety         'C29 H40 O7 Si1'
_chemical_name_systematic        
5-(4-(2,2-Dimethyl-5-(t-butyldimethylsiloxymethyl)-1,3-dioxolan-4-yl)-2-phenyl-1,3-dioxan-5-yl)-1,3-benzodioxole
_symmetry_cell_setting           monoclinic
_symmetry_space_group_name_H-M   'P 21'
_symmetry_Int_Tables_number      4
_space_group_name_Hall           'P 2yb'
loop_
_symmetry_equiv_pos_site_id
_symmetry_equiv_pos_as_xyz
1 x,y,z
2 -x,1/2+y,-z
_cell_length_a                   7.1265(2)
_cell_length_b                   12.9266(4)
_cell_length_c                   15.8924(5)
_cell_angle_alpha                90
_cell_angle_beta                 97.577(2)
_cell_angle_gamma                90
_cell_volume                     1451.25
_exptl_crystal_colour            colorless
_exptl_crystal_description       plate
_cell_formula_units_Z            2
loop_
_atom_site_label
_atom_site_type_symbol
_atom_site_fract_x
_atom_site_fract_y
_atom_site_fract_z
Si1 Si 0.4773(2) 0.68365(13) 0.29998(8)
O1 O 0.5963(5) 0.5735(3) 0.2999(2)
C1 C 0.2958(8) 0.6748(5) 0.2019(3)
O2 O 0.9665(5) 0.4276(3) 0.4223(2)
C2 C 0.1983(11) 0.5700(6) 0.2037(5)
H1 H 0.1033 0.5631 0.1535
H2 H 0.1363 0.5648 0.2551
H3 H 0.2925 0.5148 0.2038
O3 O 1.0003(4) 0.3243(3) 0.30908(19)
C3 C 0.3933(14) 0.6801(9) 0.1217(4)
H4 H 0.2979 0.6754 0.0715
H5 H 0.4828 0.6226 0.1217
H6 H 0.4615 0.7458 0.1207
O4 O 0.6122(4) 0.2552(2) 0.27818(18)
C4 C 0.1544(14) 0.7638(9) 0.2008(7)
H7 H 0.0610 0.7587 0.1499
H8 H 0.2217 0.8299 0.2004
H9 H 0.0897 0.7600 0.2515
O5 O 0.5021(5) 0.1540(3) 0.1602(2)
C5 C 0.6377(10) 0.7978(5) 0.2936(5)
H10 H 0.7301 0.8008 0.3450
H11 H 0.5623 0.8614 0.2887
H12 H 0.7043 0.7907 0.2437
O6 O 1.2444(6) 0.3887(4) -0.0267(3)
C6 C 0.3589(9) 0.6899(6) 0.3975(3)
H13 H 0.4549 0.6945 0.4475
H14 H 0.2825 0.6275 0.4014
H15 H 0.2769 0.7510 0.3949
O7 O 1.0861(5) 0.5361(3) -0.0779(2)
C7 C 0.7549(7) 0.5538(4) 0.3597(3)
H16 H 0.7312 0.5794 0.4160
H17 H 0.8658 0.5912 0.3434
C8 C 0.7963(6) 0.4402(4) 0.3648(3)
H18 H 0.6897 0.4020 0.3858
C9 C 0.8457(6) 0.3911(4) 0.2819(3)
H19 H 0.8913 0.4470 0.2462
C10 C 1.0592(7) 0.3364(4) 0.3990(3)
C11 C 1.2697(7) 0.3536(5) 0.4155(4)
H20 H 1.3032 0.4142 0.3835
H21 H 1.3353 0.2925 0.3973
H22 H 1.3077 0.3652 0.4763
C12 C 0.9950(9) 0.2451(5) 0.4454(4)
H23 H 0.8573 0.2379 0.4323
H24 H 1.0292 0.2550 0.5066
H25 H 1.0564 0.1824 0.4275
C13 C 0.6867(6) 0.3340(4) 0.2294(3)
H26 H 0.5832 0.3847 0.2113
C14 C 0.4556(7) 0.2055(4) 0.2335(3)
H27 H 0.3557 0.2583 0.2157
C15 C 0.3762(7) 0.1259(4) 0.2882(3)
C16 C 0.1917(8) 0.0912(5) 0.2650(3)
H28 H 0.1200 0.1176 0.2150
C17 C 0.1098(10) 0.0180(5) 0.3138(4)
H29 H -0.0146 -0.0069 0.2963
C18 C 0.2140(10) -0.0177(4) 0.3889(4)
H30 H 0.1586 -0.0659 0.4234
C19 C 0.3945(11) 0.0160(5) 0.4131(4)
H31 H 0.4648 -0.0091 0.4639
C20 C 0.4762(8) 0.0880(4) 0.3623(3)
H32 H 0.6022 0.1110 0.3792
C21 C 0.5740(8) 0.2260(4) 0.1049(3)
H33 H 0.4741 0.2768 0.0850
H34 H 0.6085 0.1889 0.0547
C22 C 0.7465(7) 0.2828(4) 0.1485(3)
H35 H 0.8453 0.2298 0.1674
C23 C 0.8290(6) 0.3562(4) 0.0887(3)
C24 C 1.0063(7) 0.3317(4) 0.0636(3)
H36 H 1.0753 0.2723 0.0850
C25 C 1.0739(7) 0.3961(4) 0.0078(3)
C26 C 1.2299(10) 0.4635(5) -0.0928(4)
H37 H 1.1962 0.4295 -0.1485
H38 H 1.3525 0.4995 -0.0930
C27 C 0.9779(7) 0.4823(4) -0.0240(3)
C28 C 0.8066(8) 0.5093(5) -0.0019(4)
H39 H 0.7403 0.5692 -0.0242
C29 C 0.7341(7) 0.4429(5) 0.0559(3)
H40 H 0.6146 0.4585 0.0731
loop_
_geom_bond_atom_site_label_1
_geom_bond_atom_site_label_2
_geom_bond_site_symmetry_1
_geom_bond_site_symmetry_2
Si1 O1 1_555 1_555
O1 C7 1_555 1_555
C1 Si1 1_555 1_555
O2 C8 1_555 1_555
C2 C1 1_555 1_555
H1 C2 1_555 1_555
H2 C2 1_555 1_555
H3 C2 1_555 1_555
O3 C9 1_555 1_555
C3 C1 1_555 1_555
H4 C3 1_555 1_555
H5 C3 1_555 1_555
H6 C3 1_555 1_555
O4 C13 1_555 1_555
C4 C1 1_555 1_555
H7 C4 1_555 1_555
H8 C4 1_555 1_555
H9 C4 1_555 1_555
O5 C14 1_555 1_555
C5 Si1 1_555 1_555
H10 C5 1_555 1_555
H11 C5 1_555 1_555
H12 C5 1_555 1_555
O6 C25 1_555 1_555
C6 Si1 1_555 1_555
H13 C6 1_555 1_555
H14 C6 1_555 1_555
H15 C6 1_555 1_555
O7 C26 1_555 1_555
C7 H16 1_555 1_555
H17 C7 1_555 1_555
C8 C7 1_555 1_555
H18 C8 1_555 1_555
C9 C8 1_555 1_555
H19 C9 1_555 1_555
C10 O2 1_555 1_555
C11 C10 1_555 1_555
H20 C11 1_555 1_555
H21 C11 1_555 1_555
H22 C11 1_555 1_555
C12 C10 1_555 1_555
H23 C12 1_555 1_555
H24 C12 1_555 1_555
H25 C12 1_555 1_555
C13 C9 1_555 1_555
H26 C13 1_555 1_555
C14 O4 1_555 1_555
H27 C14 1_555 1_555
C15 C14 1_555 1_555
C16 C15 1_555 1_555
H28 C16 1_555 1_555
C17 C16 1_555 1_555
H29 C17 1_555 1_555
C18 C17 1_555 1_555
H30 C18 1_555 1_555
C19 C18 1_555 1_555
H31 C19 1_555 1_555
C20 C15 1_555 1_555
H32 C20 1_555 1_555
C21 O5 1_555 1_555
H33 C21 1_555 1_555
H34 C21 1_555 1_555
C22 C13 1_555 1_555
H35 C22 1_555 1_555
C23 C22 1_555 1_555
C24 C23 1_555 1_555
H36 C24 1_555 1_555
C25 C24 1_555 1_555
C26 O6 1_555 1_555
H37 C26 1_555 1_555
H38 C26 1_555 1_555
C27 O7 1_555 1_555
C28 C27 1_555 1_555
H39 C28 1_555 1_555
C29 C23 1_555 1_555
H40 C29 1_555 1_555
O3 C10 1_555 1_555
C19 C20 1_555 1_555
C21 C22 1_555 1_555
C25 C27 1_555 1_555
C28 C29 1_555 1_555

#END
