
#######################################################################
#
#                 Cambridge Crystallographic Data Centre
#                                CCDC 
#
#######################################################################
#
# If this CIF has been generated from an entry in the Cambridge 
# Structural Database, then it will include bibliographic, chemical, 
# crystal, experimental, refinement or atomic coordinate data resulting 
# from the CCDC's data processing and validation procedures.
#
#######################################################################

data_CIVLOK
_chemical_formula_moiety         'C27 H21 F6 N1 O1 S1'
_chemical_name_systematic        
3-(3,3,4,4,5,5-Hexafluoro-2-(5-(4-methoxyphenyl)-2-methyl-3-thienyl)cyclopent-1-en-1-yl)-1,2-dimethyl-1H-indole
_symmetry_cell_setting           triclinic
_symmetry_space_group_name_H-M   'P -1'
_symmetry_Int_Tables_number      2
_space_group_name_Hall           '-P 1'
loop_
_symmetry_equiv_pos_site_id
_symmetry_equiv_pos_as_xyz
1 x,y,z
2 -x,-y,-z
_cell_length_a                   9.3846(9)
_cell_length_b                   11.7086(11)
_cell_length_c                   11.7682(11)
_cell_angle_alpha                82.5700(10)
_cell_angle_beta                 81.7930(10)
_cell_angle_gamma                71.3460(10)
_cell_volume                     1207.78
_exptl_crystal_colour            colorless
_exptl_crystal_description       block
_cell_formula_units_Z            2
loop_
_atom_site_label
_atom_site_type_symbol
_atom_site_fract_x
_atom_site_fract_y
_atom_site_fract_z
S1 S 0.14994(11) 0.49890(8) 0.62869(8)
F1 F -0.1865(3) 0.9651(3) 0.5055(2)
F2 F -0.2947(3) 0.8279(2) 0.5216(2)
F3 F -0.4394(4) 1.0861(2) 0.6056(2)
F4 F -0.4963(3) 0.9286(4) 0.6713(3)
F5 F -0.3090(3) 1.0827(2) 0.7787(3)
F6 F -0.4261(3) 0.9613(3) 0.8565(2)
O1 O 0.6162(4) 0.4294(3) 0.1443(3)
N1 N 0.1217(3) 0.8357(2) 0.9485(2)
C1 C 0.0644(3) 0.8553(3) 0.8444(3)
C2 C -0.0830(3) 0.8526(3) 0.8621(2)
C3 C -0.1195(3) 0.8308(2) 0.9843(2)
C4 C 0.0119(4) 0.8205(3) 1.0350(3)
C5 C 0.0196(5) 0.7968(3) 1.1534(3)
H1 H 0.1075 0.7895 1.1855
C6 C -0.1071(5) 0.7846(4) 1.2208(3)
H2 H -0.1054 0.7695 1.3002
C7 C -0.2380(5) 0.7945(3) 1.1734(3)
H3 H -0.3223 0.7860 1.2216
C8 C -0.2458(4) 0.8165(3) 1.0562(3)
H4 H -0.3338 0.8218 1.0254
C9 C 0.1556(4) 0.8808(4) 0.7359(3)
H5 H 0.2060 0.9371 0.7479
H6 H 0.0902 0.9149 0.6762
H7 H 0.2293 0.8069 0.7134
C10 C 0.2715(4) 0.8374(4) 0.9665(4)
H8 H 0.2715 0.9197 0.9640
H9 H 0.3446 0.7974 0.9071
H10 H 0.2970 0.7962 1.0403
C11 C -0.1781(3) 0.8755(3) 0.7686(2)
C12 C -0.1430(3) 0.8247(3) 0.6675(2)
C13 C -0.2512(4) 0.8953(3) 0.5832(3)
C14 C -0.3827(4) 0.9778(3) 0.6540(3)
C15 C -0.3254(4) 0.9743(3) 0.7691(3)
C16 C -0.0202(3) 0.7166(3) 0.6341(2)
C17 C 0.0763(3) 0.7108(3) 0.5283(2)
H11 H 0.0713 0.7774 0.4748
C18 C 0.1761(4) 0.5994(3) 0.5130(3)
C19 C 0.0066(4) 0.6072(3) 0.6981(3)
C20 C -0.0727(5) 0.5733(4) 0.8108(3)
H12 H -0.0296 0.5915 0.8729
H13 H -0.0610 0.4882 0.8176
H14 H -0.1783 0.6183 0.8144
C21 C 0.2925(4) 0.5575(3) 0.4168(3)
C22 C 0.3513(4) 0.6361(3) 0.3433(3)
H15 H 0.3179 0.7178 0.3557
C23 C 0.4588(4) 0.5979(3) 0.2512(3)
H16 H 0.4961 0.6535 0.2027
C24 C 0.5099(4) 0.4783(3) 0.2318(3)
C25 C 0.4526(6) 0.3989(4) 0.3040(4)
H17 H 0.4865 0.3173 0.2913
C26 C 0.3456(5) 0.4375(4) 0.3951(4)
H18 H 0.3083 0.3815 0.4430
C27 C 0.6795(5) 0.5066(5) 0.0673(4)
H19 H 0.6007 0.5677 0.0302
H20 H 0.7505 0.4606 0.0103
H21 H 0.7304 0.5444 0.1089
loop_
_geom_bond_atom_site_label_1
_geom_bond_atom_site_label_2
_geom_bond_site_symmetry_1
_geom_bond_site_symmetry_2
S1 C18 1_555 1_555
F1 C13 1_555 1_555
F2 C13 1_555 1_555
F3 C14 1_555 1_555
F4 C14 1_555 1_555
F5 C15 1_555 1_555
F6 C15 1_555 1_555
O1 C24 1_555 1_555
N1 C1 1_555 1_555
C1 C2 1_555 1_555
C2 C3 1_555 1_555
C3 C4 1_555 1_555
C4 N1 1_555 1_555
C5 C4 1_555 1_555
H1 C5 1_555 1_555
C6 C5 1_555 1_555
H2 C6 1_555 1_555
C7 C6 1_555 1_555
H3 C7 1_555 1_555
C8 C3 1_555 1_555
H4 C8 1_555 1_555
C9 C1 1_555 1_555
H5 C9 1_555 1_555
H6 C9 1_555 1_555
H7 C9 1_555 1_555
C10 N1 1_555 1_555
H8 C10 1_555 1_555
H9 C10 1_555 1_555
H10 C10 1_555 1_555
C11 C2 1_555 1_555
C12 C11 1_555 1_555
C13 C12 1_555 1_555
C14 C13 1_555 1_555
C15 C11 1_555 1_555
C16 C12 1_555 1_555
C17 C16 1_555 1_555
H11 C17 1_555 1_555
C18 C17 1_555 1_555
C19 S1 1_555 1_555
C20 C19 1_555 1_555
H12 C20 1_555 1_555
H13 C20 1_555 1_555
H14 C20 1_555 1_555
C21 C18 1_555 1_555
C22 C21 1_555 1_555
H15 C22 1_555 1_555
C23 C22 1_555 1_555
H16 C23 1_555 1_555
C24 C23 1_555 1_555
C25 C24 1_555 1_555
H17 C25 1_555 1_555
C26 C21 1_555 1_555
H18 C26 1_555 1_555
C27 O1 1_555 1_555
H19 C27 1_555 1_555
H20 C27 1_555 1_555
H21 C27 1_555 1_555
C7 C8 1_555 1_555
C14 C15 1_555 1_555
C16 C19 1_555 1_555
C25 C26 1_555 1_555

#END
