
#######################################################################
#
#                 Cambridge Crystallographic Data Centre
#                                CCDC 
#
#######################################################################
#
# If this CIF has been generated from an entry in the Cambridge 
# Structural Database, then it will include bibliographic, chemical, 
# crystal, experimental, refinement or atomic coordinate data resulting 
# from the CCDC's data processing and validation procedures.
#
#######################################################################

data_CIVNED
_chemical_formula_moiety         'C21 H19 B1 N4 S2'
_chemical_name_systematic        
5,5-di-isothiocyanato-1,3,7,9-tetramethyl-10-phenyl-5H-6\l^5^,5\l^5^-dipyrrolo[1,2-c:2',1'-f][1,3,2]diazaborinine
_symmetry_cell_setting           monoclinic
_symmetry_space_group_name_H-M   'P 21/n'
_symmetry_Int_Tables_number      14
_space_group_name_Hall           '-P 2yn'
loop_
_symmetry_equiv_pos_site_id
_symmetry_equiv_pos_as_xyz
1 x,y,z
2 1/2-x,1/2+y,1/2-z
3 -x,-y,-z
4 1/2+x,1/2-y,1/2+z
_cell_length_a                   7.2173(2)
_cell_length_b                   13.3866(4)
_cell_length_c                   20.3134(6)
_cell_angle_alpha                90
_cell_angle_beta                 93.4992(18)
_cell_angle_gamma                90
_cell_volume                     1958.92
_exptl_crystal_colour            orange
_exptl_crystal_description       lath
_cell_formula_units_Z            4
_exptl_crystal_recrystallization_method 
'Re-crystallisation from solvent: dichloromethane/hexane'
loop_
_atom_site_label
_atom_site_type_symbol
_atom_site_fract_x
_atom_site_fract_y
_atom_site_fract_z
S1 S 0.62467(3) 0.09742(2) 0.71301(2)
S2 S 1.04203(3) 0.55466(2) 0.60257(2)
N1 N 0.67035(8) 0.27809(4) 0.49123(3)
N2 N 0.97370(8) 0.21232(5) 0.53574(3)
N3 N 0.70666(9) 0.21986(5) 0.60874(3)
N4 N 0.85732(9) 0.37616(5) 0.57663(3)
C1 C 0.51049(9) 0.33112(5) 0.48441(3)
C2 C 0.44327(10) 0.32826(6) 0.41814(4)
H1 H 0.3331 0.3595 0.4004
C3 C 0.56483(9) 0.27211(5) 0.38285(3)
C4 C 0.70821(9) 0.23899(5) 0.42927(3)
C5 C 0.86793(8) 0.18202(5) 0.42138(3)
C6 C 0.99775(9) 0.16689(5) 0.47459(3)
C7 C 1.16552(9) 0.11048(5) 0.48040(3)
C8 C 1.24018(10) 0.12578(6) 0.54429(3)
H2 H 1.3538 0.0987 0.5624
C9 C 1.12045(9) 0.18760(6) 0.57747(3)
C10 C 0.42583(11) 0.38406(6) 0.53966(4)
H3 H 0.4250 0.3397 0.5780
H4 H 0.2982 0.4033 0.5260
H5 H 0.4985 0.4440 0.5513
C11 C 0.54571(11) 0.25653(7) 0.30989(3)
H6 H 0.5034 0.1882 0.3004
H7 H 0.6662 0.2672 0.2912
H8 H 0.4551 0.3040 0.2902
C12 C 0.90192(9) 0.13902(5) 0.35563(3)
C13 C 0.79121(10) 0.06099(6) 0.32971(3)
H9 H 0.6945 0.0349 0.3543
C14 C 0.82220(11) 0.02143(6) 0.26801(4)
H10 H 0.7463 -0.0314 0.2506
C15 C 0.96411(11) 0.05910(6) 0.23179(3)
H11 H 0.9858 0.0317 0.1898
C16 C 1.07399(11) 0.13701(6) 0.25718(3)
H12 H 1.1706 0.1630 0.2324
C17 C 1.04299(10) 0.17717(5) 0.31884(3)
H13 H 1.1180 0.2306 0.3359
C18 C 1.24942(11) 0.04404(6) 0.43115(4)
H14 H 1.3165 0.0847 0.4003
H15 H 1.1510 0.0064 0.4068
H16 H 1.3358 -0.0026 0.4541
C19 C 1.14267(11) 0.22055(7) 0.64753(3)
H17 H 1.1247 0.2930 0.6499
H18 H 1.2676 0.2035 0.6657
H19 H 1.0503 0.1868 0.6731
C20 C 0.67297(9) 0.16718(5) 0.65283(3)
C21 C 0.93613(10) 0.45170(5) 0.58722(3)
B1 B 0.80188(10) 0.27184(6) 0.55311(4)
loop_
_geom_bond_atom_site_label_1
_geom_bond_atom_site_label_2
_geom_bond_site_symmetry_1
_geom_bond_site_symmetry_2
S1 C20 1_555 1_555
S2 C21 1_555 1_555
N1 C1 1_555 1_555
N2 C6 1_555 1_555
N3 C20 1_555 1_555
N4 C21 1_555 1_555
C1 C2 1_555 1_555
C2 H1 1_555 1_555
C3 C2 1_555 1_555
C4 N1 1_555 1_555
C5 C4 1_555 1_555
C6 C5 1_555 1_555
C7 C6 1_555 1_555
C8 C7 1_555 1_555
H2 C8 1_555 1_555
C9 N2 1_555 1_555
C10 C1 1_555 1_555
H3 C10 1_555 1_555
H4 C10 1_555 1_555
H5 C10 1_555 1_555
C11 C3 1_555 1_555
H6 C11 1_555 1_555
H7 C11 1_555 1_555
H8 C11 1_555 1_555
C12 C5 1_555 1_555
C13 C12 1_555 1_555
H9 C13 1_555 1_555
C14 C13 1_555 1_555
H10 C14 1_555 1_555
C15 C14 1_555 1_555
H11 C15 1_555 1_555
C16 C15 1_555 1_555
H12 C16 1_555 1_555
C17 C12 1_555 1_555
H13 C17 1_555 1_555
C18 C7 1_555 1_555
H14 C18 1_555 1_555
H15 C18 1_555 1_555
H16 C18 1_555 1_555
C19 C9 1_555 1_555
H17 C19 1_555 1_555
H18 C19 1_555 1_555
H19 C19 1_555 1_555
B1 N1 1_555 1_555
N2 B1 1_555 1_555
N3 B1 1_555 1_555
N4 B1 1_555 1_555
C3 C4 1_555 1_555
C8 C9 1_555 1_555
C16 C17 1_555 1_555

#END
