
#######################################################################
#
#                 Cambridge Crystallographic Data Centre
#                                CCDC 
#
#######################################################################
#
# If this CIF has been generated from an entry in the Cambridge 
# Structural Database, then it will include bibliographic, chemical, 
# crystal, experimental, refinement or atomic coordinate data resulting 
# from the CCDC's data processing and validation procedures.
#
#######################################################################

data_CIVTUY
_chemical_formula_moiety         'C46 H50 O12,2(C1 H2 Cl2)'
_chemical_name_systematic        
'6,7,9,10,12,13,22,29,30,32,33,35,36,45-tetradecahydro-20H,43H-dibenzo[c,o]dibenzo[14,15:2,3][1,4,7,10,13,16]hexaoxacycloicosino[18,19-u][2,5,8,11,14,17]benzohexaoxacycloicosine dichloromethane solvate'
_symmetry_cell_setting           orthorhombic
_symmetry_space_group_name_H-M   'P c c n'
_symmetry_Int_Tables_number      56
_space_group_name_Hall           '-P 2ab 2ac'
loop_
_symmetry_equiv_pos_site_id
_symmetry_equiv_pos_as_xyz
1 x,y,z
2 1/2-x,1/2-y,z
3 -x,1/2+y,1/2-z
4 1/2+x,-y,1/2-z
5 -x,-y,-z
6 1/2+x,1/2+y,-z
7 x,1/2-y,1/2+z
8 1/2-x,y,1/2+z
_cell_length_a                   23.0916(11)
_cell_length_b                   23.9520(11)
_cell_length_c                   8.6426(4)
_cell_angle_alpha                90
_cell_angle_beta                 90
_cell_angle_gamma                90
_cell_volume                     4780.14
_exptl_crystal_colour            colorless
_exptl_crystal_description       block
_cell_formula_units_Z            4
loop_
_atom_site_label
_atom_site_type_symbol
_atom_site_fract_x
_atom_site_fract_y
_atom_site_fract_z
O1 O 0.54545(8) 0.54550(8) 0.1042(2)
O2 O 0.63386(9) 0.52751(8) -0.0718(2)
O3 O 0.65434(10) 0.42923(8) -0.2639(2)
O4 O 0.58731(10) 0.32856(8) -0.2708(2)
O5 O 0.51826(10) 0.31134(8) -0.0013(2)
O6 O 0.52007(9) 0.37487(7) 0.2487(2)
C1 C 0.48858(12) 0.55573(11) 0.4876(3)
H1 H 0.4806 0.5945 0.4790
C2 C 0.49824(11) 0.52536(11) 0.3538(3)
C3 C 0.49439(12) 0.55343(12) 0.1976(3)
H2 H 0.4604 0.5385 0.1413
H3 H 0.4881 0.5939 0.2131
C4 C 0.59462(13) 0.57372(11) 0.1441(3)
C5 C 0.59937(14) 0.61083(12) 0.2657(3)
H4 H 0.5667 0.6184 0.3290
C6 C 0.65181(16) 0.63729(13) 0.2960(4)
H5 H 0.6548 0.6628 0.3799
C7 C 0.69873(15) 0.62667(13) 0.2057(4)
H6 H 0.7345 0.6446 0.2275
C8 C 0.69505(14) 0.58999(13) 0.0822(4)
H7 H 0.7281 0.5830 0.0198
C9 C 0.64311(13) 0.56349(11) 0.0498(3)
C10 C 0.68141(14) 0.52010(13) -0.1761(4)
H8 H 0.7139 0.5015 -0.1219
H9 H 0.6951 0.5569 -0.2133
C11 C 0.66245(15) 0.48529(13) -0.3103(4)
H10 H 0.6257 0.5003 -0.3525
H11 H 0.6921 0.4870 -0.3929
C12 C 0.65282(15) 0.39212(13) -0.3923(4)
H12 H 0.6898 0.3944 -0.4502
H13 H 0.6210 0.4028 -0.4631
C13 C 0.64360(15) 0.33379(14) -0.3356(4)
H14 H 0.6480 0.3072 -0.4226
H15 H 0.6731 0.3246 -0.2563
C14 C 0.57832(16) 0.27550(12) -0.2012(4)
H16 H 0.6080 0.2690 -0.1205
H17 H 0.5820 0.2458 -0.2802
C15 C 0.51951(16) 0.27369(13) -0.1309(4)
H18 H 0.4901 0.2849 -0.2083
H19 H 0.5106 0.2353 -0.0961
C16 C 0.46768(14) 0.31477(12) 0.0792(3)
C17 C 0.41664(16) 0.28668(12) 0.0421(4)
H20 H 0.4157 0.2623 -0.0446
C18 C 0.36749(16) 0.29396(13) 0.1303(4)
H21 H 0.3328 0.2751 0.1032
C19 C 0.36849(15) 0.32842(14) 0.2573(4)
H22 H 0.3347 0.3331 0.3185
C20 C 0.41895(14) 0.35637(13) 0.2958(4)
H23 H 0.4195 0.3805 0.3831
C21 C 0.46838(13) 0.34958(11) 0.2089(3)
C22 C 0.52138(13) 0.43413(11) 0.2221(3)
H24 H 0.4919 0.4437 0.1431
H25 H 0.5598 0.4444 0.1801
C23 C 0.50998(12) 0.46813(11) 0.3662(3)
O1D O 0.45455(8) 0.45450(8) 0.8958(2)
O2D O 0.36614(9) 0.47249(8) 1.0718(2)
O3D O 0.34566(10) 0.57077(8) 1.2639(2)
O4D O 0.41269(10) 0.67144(8) 1.2708(2)
O5D O 0.48174(10) 0.68866(8) 1.0013(2)
O6D O 0.47993(9) 0.62513(7) 0.7513(2)
C1D C 0.51142(12) 0.44427(11) 0.5124(3)
H1D H 0.5194 0.4055 0.5210
C2D C 0.50176(11) 0.47464(11) 0.6462(3)
C3D C 0.50561(12) 0.44657(12) 0.8024(3)
H2D H 0.5396 0.4615 0.8587
H3D H 0.5119 0.4061 0.7869
C4D C 0.40538(13) 0.42628(11) 0.8559(3)
C5D C 0.40063(14) 0.38917(12) 0.7343(3)
H4D H 0.4333 0.3816 0.6710
C6D C 0.34819(16) 0.36271(13) 0.7040(4)
H5D H 0.3452 0.3372 0.6201
C7D C 0.30127(15) 0.37333(13) 0.7943(4)
H6D H 0.2655 0.3554 0.7725
C8D C 0.30495(14) 0.41001(13) 0.9178(4)
H7D H 0.2719 0.4170 0.9802
C9D C 0.35689(13) 0.43651(11) 0.9502(3)
C10D C 0.31859(14) 0.47990(13) 1.1761(4)
H8D H 0.2861 0.4985 1.1219
H9D H 0.3049 0.4431 1.2133
C11D C 0.33755(15) 0.51471(13) 1.3103(4)
H10D H 0.3743 0.4997 1.3525
H11D H 0.3079 0.5130 1.3929
C12D C 0.34718(15) 0.60788(13) 1.3923(4)
H12D H 0.3102 0.6056 1.4502
H13D H 0.3790 0.5972 1.4631
C13D C 0.35640(15) 0.66621(14) 1.3356(4)
H14D H 0.3520 0.6928 1.4226
H15D H 0.3269 0.6754 1.2563
C14D C 0.42168(16) 0.72450(12) 1.2012(4)
H16D H 0.3920 0.7310 1.1205
H17D H 0.4180 0.7542 1.2802
C15D C 0.48049(16) 0.72631(13) 1.1309(4)
H18D H 0.5099 0.7151 1.2083
H19D H 0.4894 0.7647 1.0961
C16D C 0.53232(14) 0.68523(12) 0.9208(3)
C17D C 0.58336(16) 0.71332(12) 0.9579(4)
H20D H 0.5843 0.7377 1.0446
C18D C 0.63251(16) 0.70604(13) 0.8697(4)
H21D H 0.6672 0.7249 0.8968
C19D C 0.63151(15) 0.67158(14) 0.7427(4)
H22D H 0.6653 0.6669 0.6815
C20D C 0.58105(14) 0.64363(13) 0.7042(4)
H23D H 0.5805 0.6195 0.6169
C21D C 0.53162(13) 0.65042(11) 0.7911(3)
C22D C 0.47862(13) 0.56587(11) 0.7779(3)
H24D H 0.5081 0.5563 0.8569
H25D H 0.4402 0.5556 0.8199
C23D C 0.49002(12) 0.53187(11) 0.6338(3)
C24 C 0.65709(16) 0.37292(13) 0.0881(4)
H26 H 0.6180 0.3635 0.1271
H27 H 0.6532 0.3846 -0.0213
Cl1 Cl 0.68538(5) 0.42883(4) 0.19717(12)
Cl2 Cl 0.70129(5) 0.31375(4) 0.09828(17)
loop_
_geom_bond_atom_site_label_1
_geom_bond_atom_site_label_2
_geom_bond_site_symmetry_1
_geom_bond_site_symmetry_2
O1 C3 1_555 1_555
O2 C9 1_555 1_555
O3 C11 1_555 1_555
O4 C13 1_555 1_555
O5 C15 1_555 1_555
O6 C21 1_555 1_555
C1 H1 1_555 1_555
C2 C1 1_555 1_555
C3 C2 1_555 1_555
H2 C3 1_555 1_555
H3 C3 1_555 1_555
C4 O1 1_555 1_555
C5 C4 1_555 1_555
H4 C5 1_555 1_555
C6 C5 1_555 1_555
H5 C6 1_555 1_555
C7 C6 1_555 1_555
H6 C7 1_555 1_555
C8 C7 1_555 1_555
H7 C8 1_555 1_555
C9 C4 1_555 1_555
C10 O2 1_555 1_555
H8 C10 1_555 1_555
H9 C10 1_555 1_555
C11 C10 1_555 1_555
H10 C11 1_555 1_555
H11 C11 1_555 1_555
C12 O3 1_555 1_555
H12 C12 1_555 1_555
H13 C12 1_555 1_555
C13 C12 1_555 1_555
H14 C13 1_555 1_555
H15 C13 1_555 1_555
C14 O4 1_555 1_555
H16 C14 1_555 1_555
H17 C14 1_555 1_555
C15 C14 1_555 1_555
H18 C15 1_555 1_555
H19 C15 1_555 1_555
C16 O5 1_555 1_555
C17 C16 1_555 1_555
H20 C17 1_555 1_555
C18 C17 1_555 1_555
H21 C18 1_555 1_555
C19 C18 1_555 1_555
H22 C19 1_555 1_555
C20 C19 1_555 1_555
H23 C20 1_555 1_555
C21 C16 1_555 1_555
C22 O6 1_555 1_555
H24 C22 1_555 1_555
H25 C22 1_555 1_555
C23 C2 1_555 1_555
C24 H26 1_555 1_555
H27 C24 1_555 1_555
Cl1 C24 1_555 1_555
Cl2 C24 1_555 1_555
O1D C3D 1_555 1_555
O2D C9D 1_555 1_555
O3D C11D 1_555 1_555
O4D C13D 1_555 1_555
O5D C15D 1_555 1_555
O6D C21D 1_555 1_555
C1D C23 1_555 1_555
H1D C1D 1_555 1_555
C2D C1D 1_555 1_555
C3D C2D 1_555 1_555
H2D C3D 1_555 1_555
H3D C3D 1_555 1_555
C4D O1D 1_555 1_555
C5D C4D 1_555 1_555
H4D C5D 1_555 1_555
C6D C5D 1_555 1_555
H5D C6D 1_555 1_555
C7D C6D 1_555 1_555
H6D C7D 1_555 1_555
C8D C7D 1_555 1_555
H7D C8D 1_555 1_555
C9D C4D 1_555 1_555
C10D O2D 1_555 1_555
H8D C10D 1_555 1_555
H9D C10D 1_555 1_555
C11D C10D 1_555 1_555
H10D C11D 1_555 1_555
H11D C11D 1_555 1_555
C12D O3D 1_555 1_555
H12D C12D 1_555 1_555
H13D C12D 1_555 1_555
C13D C12D 1_555 1_555
H14D C13D 1_555 1_555
H15D C13D 1_555 1_555
C14D O4D 1_555 1_555
H16D C14D 1_555 1_555
H17D C14D 1_555 1_555
C15D C14D 1_555 1_555
H18D C15D 1_555 1_555
H19D C15D 1_555 1_555
C16D O5D 1_555 1_555
C17D C16D 1_555 1_555
H20D C17D 1_555 1_555
C18D C17D 1_555 1_555
H21D C18D 1_555 1_555
C19D C18D 1_555 1_555
H22D C19D 1_555 1_555
C20D C19D 1_555 1_555
H23D C20D 1_555 1_555
C21D C16D 1_555 1_555
C22D O6D 1_555 1_555
H24D C22D 1_555 1_555
H25D C22D 1_555 1_555
C23D C1 1_555 1_555
C8 C9 1_555 1_555
C20 C21 1_555 1_555
C22 C23 1_555 1_555
C2D C23D 1_555 1_555
C8D C9D 1_555 1_555
C20D C21D 1_555 1_555
C22D C23D 1_555 1_555

#END
