
#######################################################################
#
#                 Cambridge Crystallographic Data Centre
#                                CCDC 
#
#######################################################################
#
# If this CIF has been generated from an entry in the Cambridge 
# Structural Database, then it will include bibliographic, chemical, 
# crystal, experimental, refinement or atomic coordinate data resulting 
# from the CCDC's data processing and validation procedures.
#
#######################################################################

data_CIVYAK
_chemical_formula_moiety         'C32 H32 B2 F4 N4'
_chemical_name_systematic        
10,10'-(1,4-phenylene)bis(5,5-difluoro-1,3,7,9-tetramethyl-5H-dipyrrolo[1,2-c:2',1'-f][1,3,2]diazaborinin-4-ium-5-ide)
_symmetry_cell_setting           triclinic
_symmetry_space_group_name_H-M   'P -1'
_symmetry_Int_Tables_number      2
_space_group_name_Hall           '-P 1'
loop_
_symmetry_equiv_pos_site_id
_symmetry_equiv_pos_as_xyz
1 x,y,z
2 -x,-y,-z
_cell_length_a                   12.4054(8)
_cell_length_b                   12.7469(14)
_cell_length_c                   14.5317(11)
_cell_angle_alpha                103.459(8)
_cell_angle_beta                 105.134(6)
_cell_angle_gamma                93.274(7)
_cell_volume                     2140.22
_exptl_crystal_colour            yellow
_exptl_crystal_description       block
_cell_formula_units_Z            3
loop_
_atom_site_label
_atom_site_type_symbol
_atom_site_fract_x
_atom_site_fract_y
_atom_site_fract_z
F1 F 0.9409(2) 0.4201(3) 0.2067(2)
N1 N 1.0914(3) 0.5599(3) 0.3077(3)
N2 N 1.1300(3) 0.3879(3) 0.2058(2)
N3 N 1.8026(3) 0.9451(3) 0.2854(3)
F2 F 1.9910(2) 0.9214(3) 0.2774(3)
F3 F 1.8664(3) 0.9464(3) 0.1426(2)
N4 N 1.8432(3) 0.7768(3) 0.1826(3)
F4 F 1.0543(3) 0.3890(3) 0.3435(2)
C1 C 1.7432(3) 0.7211(4) 0.1866(3)
C2 C 1.1890(3) 0.6142(4) 0.2988(3)
C3 C 1.2573(3) 0.5556(3) 0.2478(3)
C4 C 1.5649(3) 0.6650(4) 0.3125(3)
H1 H 1.6312 0.6646 0.3604
C5 C 1.6751(3) 0.7777(4) 0.2394(3)
C6 C 1.4648(3) 0.6117(4) 0.3141(3)
H2 H 1.4648 0.5747 0.3622
C7 C 1.3643(3) 0.6133(3) 0.2438(3)
C8 C 1.2286(3) 0.4439(4) 0.2012(3)
C9 C 1.4673(3) 0.7180(4) 0.1694(3)
H3 H 1.4675 0.7531 0.1201
C10 C 1.1970(3) 0.7255(4) 0.3475(3)
C11 C 1.5670(3) 0.7187(3) 0.2402(3)
C12 C 1.7043(3) 0.8881(4) 0.2896(3)
C13 C 1.3670(3) 0.6655(4) 0.1714(3)
H4 H 1.3009 0.6655 0.1231
C14 C 1.6522(3) 0.9621(4) 0.3487(3)
C15 C 1.2792(3) 0.3700(4) 0.1422(3)
C16 C 1.1055(4) 0.7367(4) 0.3843(3)
H5 H 1.0883 0.8013 0.4193
C17 C 1.2102(3) 0.2723(4) 0.1119(3)
H6 H 1.2221 0.2084 0.0716
C18 C 1.5451(4) 0.9439(4) 0.3758(4)
H7 H 1.5328 1.0102 0.4169
H8 H 1.5509 0.8883 0.4109
H9 H 1.4832 0.9214 0.3169
C19 C 1.1192(3) 0.2856(4) 0.1523(3)
C20 C 1.7189(4) 1.0618(4) 0.3775(3)
H10 H 1.7053 1.1259 0.4162
C21 C 1.8105(4) 1.0489(4) 0.3377(3)
C22 C 1.3875(4) 0.3872(4) 0.1163(4)
H11 H 1.3990 0.3209 0.0746
H12 H 1.4489 0.4080 0.1756
H13 H 1.3836 0.4436 0.0822
C23 C 1.2836(4) 0.8180(4) 0.3584(3)
H14 H 1.2657 0.8839 0.3957
H15 H 1.2840 0.8256 0.2943
H16 H 1.3565 0.8035 0.3921
C24 C 1.7366(4) 0.6100(4) 0.1355(3)
C25 C 1.0426(4) 0.6343(4) 0.3603(3)
C26 C 1.6476(4) 0.5186(4) 0.1186(4)
H17 H 1.6665 0.4529 0.0817
H18 H 1.5767 0.5346 0.0822
H19 H 1.6420 0.5092 0.1809
C27 C 1.0239(4) 0.2010(4) 0.1390(4)
H20 H 0.9734 0.2321 0.1747
H21 H 1.0529 0.1416 0.1637
H22 H 0.9844 0.1751 0.0702
B1 B 1.8795(4) 0.8998(5) 0.2216(4)
B2 B 1.0513(4) 0.4369(5) 0.2670(4)
C28 C 1.8318(4) 0.6021(5) 0.1033(3)
H23 H 1.8508 0.5386 0.0681
C29 C 1.8949(4) 0.7040(5) 0.1318(3)
C30 C 2.0038(4) 0.7302(6) 0.1101(4)
H24 H 2.0303 0.8061 0.1381
H25 H 1.9919 0.7132 0.0400
H26 H 2.0588 0.6879 0.1383
C31 C 1.9051(5) 1.1355(5) 0.3509(5)
H27 H 1.9567 1.1052 0.3162
H28 H 1.9438 1.1627 0.4198
H29 H 1.8750 1.1939 0.3252
C32 C 0.9373(4) 0.6082(5) 0.3874(4)
H30 H 0.9112 0.5320 0.3612
H31 H 0.8803 0.6494 0.3604
H32 H 0.9530 0.6266 0.4579
F5 F 0.5100(2) 0.2438(3) 0.46714(17)
N5 N 0.3778(3) 0.1770(3) 0.3079(2)
N6 N 0.5602(3) 0.2835(3) 0.3289(2)
F6 F 0.4197(2) 0.3669(3) 0.3964(2)
C33 C 0.4873(3) 0.0641(3) 0.0888(3)
C34 C 0.4781(3) 0.1342(3) 0.1839(3)
C35 C 0.4383(3) 0.0143(3) -0.0896(3)
C36 C 0.6538(4) 0.3575(4) 0.3657(3)
C37 C 0.2828(4) 0.1400(4) 0.3242(3)
C38 C 0.6623(3) 0.2588(4) 0.2174(3)
C39 C 0.2911(3) 0.0296(4) 0.1805(3)
C40 C 0.7044(4) 0.2229(4) 0.1290(3)
H33 H 0.7746 0.2658 0.1389
H34 H 0.6503 0.2323 0.0717
H35 H 0.7154 0.1477 0.1198
C41 C 0.2284(3) 0.0491(4) 0.2472(3)
H36 H 0.1612 0.0086 0.2419
C42 C 0.6791(4) 0.4381(4) 0.4636(3)
H37 H 0.6201 0.4282 0.4935
H38 H 0.6842 0.5104 0.4548
H39 H 0.7493 0.4276 0.5054
C43 C 0.2598(4) -0.0603(4) 0.0873(3)
H40 H 0.1903 -0.1018 0.0817
H41 H 0.3181 -0.1069 0.0888
H42 H 0.2512 -0.0299 0.0316
B3 B 0.4665(4) 0.2705(4) 0.3785(3)
C44 C 0.7161(4) 0.3437(4) 0.2979(3)
H43 H 0.7836 0.3851 0.3056
C45 C 0.2447(4) 0.1908(5) 0.4122(3)
H44 H 0.2981 0.2520 0.4532
H45 H 0.2389 0.1383 0.4491
H46 H 0.1724 0.2146 0.3907
C46 C 0.5635(3) 0.2197(3) 0.2377(3)
C47 C 0.3869(3) 0.1120(3) 0.2190(3)
C48 C 0.4259(3) 0.0782(3) -0.0022(3)
F5A F 0.4900(2) -0.2438(3) -0.46714(17)
N5A N 0.6222(3) -0.1770(3) -0.3079(2)
N6A N 0.4398(3) -0.2835(3) -0.3289(2)
F6A F 0.5803(2) -0.3669(3) -0.3964(2)
C33A C 0.5127(3) -0.0641(3) -0.0888(3)
C34A C 0.5219(3) -0.1342(3) -0.1839(3)
C35A C 0.5617(3) -0.0143(3) 0.0896(3)
C36A C 0.3462(4) -0.3575(4) -0.3657(3)
C37A C 0.7172(4) -0.1400(4) -0.3242(3)
C38A C 0.3377(3) -0.2588(4) -0.2174(3)
C39A C 0.7089(3) -0.0296(4) -0.1805(3)
C40A C 0.2956(4) -0.2229(4) -0.1290(3)
H33A H 0.2254 -0.2658 -0.1389
H34A H 0.3497 -0.2323 -0.0717
H35A H 0.2846 -0.1477 -0.1198
C41A C 0.7716(3) -0.0491(4) -0.2472(3)
H36A H 0.8388 -0.0086 -0.2419
C42A C 0.3209(4) -0.4381(4) -0.4636(3)
H37A H 0.3799 -0.4282 -0.4935
H38A H 0.3158 -0.5104 -0.4548
H39A H 0.2507 -0.4276 -0.5054
C43A C 0.7402(4) 0.0603(4) -0.0873(3)
H40A H 0.8097 0.1018 -0.0817
H41A H 0.6819 0.1069 -0.0888
H42A H 0.7488 0.0299 -0.0316
B3A B 0.5335(4) -0.2705(4) -0.3785(3)
C44A C 0.2839(4) -0.3437(4) -0.2979(3)
H43A H 0.2164 -0.3851 -0.3056
C45A C 0.7553(4) -0.1908(5) -0.4122(3)
H44A H 0.7019 -0.2520 -0.4532
H45A H 0.7611 -0.1383 -0.4491
H46A H 0.8276 -0.2146 -0.3907
C46A C 0.4365(3) -0.2197(3) -0.2377(3)
C47A C 0.6131(3) -0.1120(3) -0.2190(3)
C48A C 0.5741(3) -0.0782(3) 0.0022(3)
loop_
_geom_bond_atom_site_label_1
_geom_bond_atom_site_label_2
_geom_bond_site_symmetry_1
_geom_bond_site_symmetry_2
F1 B2 1_555 1_555
N1 C2 1_555 1_555
N2 C8 1_555 1_555
N3 C12 1_555 1_555
F2 B1 1_555 1_555
F3 B1 1_555 1_555
N4 C1 1_555 1_555
F4 B2 1_555 1_555
C1 C5 1_555 1_555
C2 C3 1_555 1_555
C3 C7 1_555 1_555
C4 H1 1_555 1_555
C5 C11 1_555 1_555
C6 C4 1_555 1_555
H2 C6 1_555 1_555
C7 C6 1_555 1_555
C8 C3 1_555 1_555
C9 H3 1_555 1_555
C10 C2 1_555 1_555
C11 C4 1_555 1_555
C12 C5 1_555 1_555
C13 C7 1_555 1_555
H4 C13 1_555 1_555
C14 C12 1_555 1_555
C15 C8 1_555 1_555
C16 C10 1_555 1_555
H5 C16 1_555 1_555
C17 C15 1_555 1_555
H6 C17 1_555 1_555
C18 C14 1_555 1_555
H7 C18 1_555 1_555
H8 C18 1_555 1_555
H9 C18 1_555 1_555
C19 N2 1_555 1_555
C20 C14 1_555 1_555
H10 C20 1_555 1_555
C21 N3 1_555 1_555
C22 C15 1_555 1_555
H11 C22 1_555 1_555
H12 C22 1_555 1_555
H13 C22 1_555 1_555
C23 C10 1_555 1_555
H14 C23 1_555 1_555
H15 C23 1_555 1_555
H16 C23 1_555 1_555
C24 C1 1_555 1_555
C25 N1 1_555 1_555
C26 C24 1_555 1_555
H17 C26 1_555 1_555
H18 C26 1_555 1_555
H19 C26 1_555 1_555
C27 C19 1_555 1_555
H20 C27 1_555 1_555
H21 C27 1_555 1_555
H22 C27 1_555 1_555
B1 N3 1_555 1_555
B2 N1 1_555 1_555
C28 C24 1_555 1_555
H23 C28 1_555 1_555
C29 N4 1_555 1_555
C30 C29 1_555 1_555
H24 C30 1_555 1_555
H25 C30 1_555 1_555
H26 C30 1_555 1_555
C31 C21 1_555 1_555
H27 C31 1_555 1_555
H28 C31 1_555 1_555
H29 C31 1_555 1_555
C32 C25 1_555 1_555
H30 C32 1_555 1_555
H31 C32 1_555 1_555
H32 C32 1_555 1_555
F5 B3 1_555 1_555
N5 C37 1_555 1_555
N6 C36 1_555 1_555
F6 B3 1_555 1_555
C33 C34 1_555 1_555
C34 C46 1_555 1_555
C35 C48 1_555 1_555
C36 C42 1_555 1_555
C37 C41 1_555 1_555
C38 C40 1_555 1_555
C39 C41 1_555 1_555
C40 H33 1_555 1_555
H34 C40 1_555 1_555
H35 C40 1_555 1_555
C41 H36 1_555 1_555
C42 H37 1_555 1_555
H38 C42 1_555 1_555
H39 C42 1_555 1_555
C43 C39 1_555 1_555
H40 C43 1_555 1_555
H41 C43 1_555 1_555
H42 C43 1_555 1_555
B3 N5 1_555 1_555
C44 C36 1_555 1_555
H43 C44 1_555 1_555
C45 C37 1_555 1_555
H44 C45 1_555 1_555
H45 C45 1_555 1_555
H46 C45 1_555 1_555
C46 N6 1_555 1_555
C47 N5 1_555 1_555
C48 C33 1_555 1_555
F5A B3A 1_555 1_555
N5A C37A 1_555 1_555
N6A C36A 1_555 1_555
F6A B3A 1_555 1_555
C33A C35 1_555 1_555
C34A C33A 1_555 1_555
C35A C33 1_555 1_555
C36A C42A 1_555 1_555
C37A C41A 1_555 1_555
C38A C40A 1_555 1_555
C39A C41A 1_555 1_555
C40A H33A 1_555 1_555
H34A C40A 1_555 1_555
H35A C40A 1_555 1_555
C41A H36A 1_555 1_555
C42A H37A 1_555 1_555
H38A C42A 1_555 1_555
H39A C42A 1_555 1_555
C43A C39A 1_555 1_555
H40A C43A 1_555 1_555
H41A C43A 1_555 1_555
H42A C43A 1_555 1_555
B3A N5A 1_555 1_555
C44A C36A 1_555 1_555
H43A C44A 1_555 1_555
C45A C37A 1_555 1_555
H44A C45A 1_555 1_555
H45A C45A 1_555 1_555
H46A C45A 1_555 1_555
C46A N6A 1_555 1_555
C47A N5A 1_555 1_555
C48A C33A 1_555 1_555
N2 B2 1_555 1_555
N4 B1 1_555 1_555
C9 C11 1_555 1_555
C9 C13 1_555 1_555
C16 C25 1_555 1_555
C17 C19 1_555 1_555
C20 C21 1_555 1_555
C28 C29 1_555 1_555
N6 B3 1_555 1_555
C34 C47 1_555 1_555
C38 C44 1_555 1_555
C38 C46 1_555 1_555
C39 C47 1_555 1_555
N6A B3A 1_555 1_555
C34A C46A 1_555 1_555
C34A C47A 1_555 1_555
C35A C48A 1_555 1_555
C38A C44A 1_555 1_555
C38A C46A 1_555 1_555
C39A C47A 1_555 1_555

#END
