
#######################################################################
#
#                 Cambridge Crystallographic Data Centre
#                                CCDC 
#
#######################################################################
#
# If this CIF has been generated from an entry in the Cambridge 
# Structural Database, then it will include bibliographic, chemical, 
# crystal, experimental, refinement or atomic coordinate data resulting 
# from the CCDC's data processing and validation procedures.
#
#######################################################################

data_CIWLAW
_chemical_formula_moiety         'C19 H18 O5'
_chemical_name_systematic        4',7-Diethoxy-5-hydroxyflavone
_symmetry_cell_setting           monoclinic
_symmetry_space_group_name_H-M   'P 21/c'
_symmetry_Int_Tables_number      14
_space_group_name_Hall           '-P 2ybc'
loop_
_symmetry_equiv_pos_site_id
_symmetry_equiv_pos_as_xyz
1 x,y,z
2 -x,1/2+y,1/2-z
3 -x,-y,-z
4 x,1/2-y,1/2+z
_cell_length_a                   16.309(4)
_cell_length_b                   7.303(2)
_cell_length_c                   15.185(4)
_cell_angle_alpha                90
_cell_angle_beta                 115.70(2)
_cell_angle_gamma                90
_cell_volume                     1629.69
_exptl_crystal_colour            brown
_exptl_crystal_description       needle-like
_chemical_melting_point          452K
_cell_formula_units_Z            4
loop_
_atom_site_label
_atom_site_type_symbol
_atom_site_fract_x
_atom_site_fract_y
_atom_site_fract_z
O1 O 0.65207(9) 0.3509(2) 0.31357(10)
O2 O 0.97268(9) 0.2614(3) 0.44796(12)
O3 O 0.80950(14) 0.3570(3) 0.11089(14)
O4 O 0.63747(11) 0.4139(3) 0.04067(11)
O5 O 0.27179(10) 0.3690(3) 0.32702(12)
C1 C 0.73015(14) 0.3393(3) 0.29987(16)
C2 C 0.80976(14) 0.3058(3) 0.38341(16)
H1 H 0.8094 0.2931 0.4442
C3 C 0.88993(15) 0.2918(4) 0.37273(18)
C4 C 0.88994(16) 0.3092(4) 0.28110(18)
H2 H 0.9441 0.2990 0.2750
C5 C 0.81027(17) 0.3413(4) 0.20064(18)
C6 C 0.72720(15) 0.3585(3) 0.20805(16)
C7 C 0.64173(16) 0.3919(4) 0.12509(16)
C8 C 0.56426(15) 0.4006(4) 0.14492(16)
H3 H 0.5075 0.4227 0.0935
C9 C 0.57014(14) 0.3782(4) 0.23478(16)
C10 C 0.49435(14) 0.3785(3) 0.26228(16)
C11 C 0.50782(15) 0.3674(4) 0.35803(17)
H4 H 0.5670 0.3606 0.4071
C12 C 0.43564(15) 0.3661(4) 0.38363(17)
H5 H 0.4467 0.3602 0.4490
C13 C 0.34847(15) 0.3735(4) 0.31211(18)
C14 C 0.33379(15) 0.3854(4) 0.21605(18)
H6 H 0.2745 0.3905 0.1671
C15 C 0.40507(15) 0.3897(4) 0.19137(17)
H7 H 0.3935 0.4003 0.1260
C16 C 0.97857(15) 0.2453(4) 0.54483(17)
H8 H 0.9411 0.1445 0.5478
H9 H 0.9575 0.3570 0.5629
C17 C 1.07687(14) 0.2112(4) 0.61340(18)
H10 H 1.0974 0.1021 0.5939
H11 H 1.0828 0.1963 0.6787
H12 H 1.1130 0.3134 0.6113
C18 C 0.28137(16) 0.3681(4) 0.42429(19)
H13 H 0.3099 0.4806 0.4573
H14 H 0.3190 0.2658 0.4601
C19 C 0.18754(18) 0.3509(4) 0.4194(2)
H15 H 0.1501 0.4493 0.3809
H16 H 0.1914 0.3564 0.4842
H17 H 0.1613 0.2360 0.3898
H18 H 0.750(2) 0.382(5) 0.071(2)
loop_
_geom_bond_atom_site_label_1
_geom_bond_atom_site_label_2
_geom_bond_site_symmetry_1
_geom_bond_site_symmetry_2
O1 C1 1_555 1_555
O2 C3 1_555 1_555
O3 C5 1_555 1_555
O4 C7 1_555 1_555
O5 C13 1_555 1_555
C1 C2 1_555 1_555
C2 H1 1_555 1_555
C3 C2 1_555 1_555
C4 C3 1_555 1_555
H2 C4 1_555 1_555
C5 C4 1_555 1_555
C6 C1 1_555 1_555
C7 C6 1_555 1_555
C8 C7 1_555 1_555
H3 C8 1_555 1_555
C9 O1 1_555 1_555
C10 C9 1_555 1_555
C11 C10 1_555 1_555
H4 C11 1_555 1_555
C12 C11 1_555 1_555
H5 C12 1_555 1_555
C13 C12 1_555 1_555
C14 C13 1_555 1_555
H6 C14 1_555 1_555
C15 C10 1_555 1_555
H7 C15 1_555 1_555
C16 O2 1_555 1_555
H8 C16 1_555 1_555
H9 C16 1_555 1_555
C17 C16 1_555 1_555
H10 C17 1_555 1_555
H11 C17 1_555 1_555
H12 C17 1_555 1_555
C18 O5 1_555 1_555
H13 C18 1_555 1_555
H14 C18 1_555 1_555
C19 C18 1_555 1_555
H15 C19 1_555 1_555
H16 C19 1_555 1_555
H17 C19 1_555 1_555
H18 O3 1_555 1_555
C5 C6 1_555 1_555
C8 C9 1_555 1_555
C14 C15 1_555 1_555

#END
