
#######################################################################
#
#                 Cambridge Crystallographic Data Centre
#                                CCDC 
#
#######################################################################
#
# If this CIF has been generated from an entry in the Cambridge 
# Structural Database, then it will include bibliographic, chemical, 
# crystal, experimental, refinement or atomic coordinate data resulting 
# from the CCDC's data processing and validation procedures.
#
#######################################################################

data_CIXJOJ
_chemical_name_common            
anti-9,18-Dicyano-2,11-dithia[3.3]metacyclophane
_chemical_formula_moiety         'C18 H14 N2 S2'
_chemical_name_systematic        
anti-1^2^,5^2^-Dicyano-3,7-dithia-1,5(1,3)-dibenzenacyclooctaphane
_symmetry_cell_setting           triclinic
_symmetry_space_group_name_H-M   'P -1'
_symmetry_Int_Tables_number      2
_space_group_name_Hall           '-P 1'
loop_
_symmetry_equiv_pos_site_id
_symmetry_equiv_pos_as_xyz
1 x,y,z
2 -x,-y,-z
_cell_length_a                   6.8155(10)
_cell_length_b                   7.8620(12)
_cell_length_c                   14.322(2)
_cell_angle_alpha                99.458(2)
_cell_angle_beta                 96.368(2)
_cell_angle_gamma                106.897(2)
_cell_volume                     714.001
_exptl_crystal_colour            colorless
_exptl_crystal_description       plate
_chemical_melting_point          '220 deg.C (dec.)'
_cell_formula_units_Z            2
loop_
_atom_site_label
_atom_site_type_symbol
_atom_site_fract_x
_atom_site_fract_y
_atom_site_fract_z
C1 C 0.1243(2) -0.2342(2) 0.4019(1)
C2 C 0.1828(2) -0.0448(2) 0.4483(1)
C3 C 0.2772(2) 0.0082(2) 0.5454(1)
C4 C 0.3513(2) 0.1931(2) 0.5861(1)
C5 C 0.3265(3) 0.3195(2) 0.5325(1)
C6 C 0.2207(2) 0.2646(2) 0.4387(1)
C7 C 0.1448(2) 0.0811(2) 0.3952(1)
C8 C 0.0185(3) 0.0169(2) 0.2958(1)
C9 C 0.2834(3) -0.1334(2) 0.6042(1)
N1 N 0.0857(2) -0.3832(2) 0.3639(1)
S1 S -0.2155(1) 0.0872(1) 0.2770(1)
H1 H 0.4194 0.2331 0.6510
H2 H 0.3827 0.4454 0.5604
H3 H 0.1999 0.3528 0.4040
H4 H -0.0247 -0.1175 0.2801
H5 H 0.1092 0.0617 0.2499
H6 H 0.1865 -0.2522 0.5683
H7 H 0.4252 -0.1441 0.6115
C1A C -0.1243(2) 0.2342(2) 0.5981(1)
C2A C -0.1828(2) 0.0448(2) 0.5517(1)
C3A C -0.2772(2) -0.0082(2) 0.4546(1)
C4A C -0.3513(2) -0.1931(2) 0.4139(1)
C5A C -0.3265(3) -0.3195(2) 0.4675(1)
C6A C -0.2207(2) -0.2646(2) 0.5613(1)
C7A C -0.1448(2) -0.0811(2) 0.6048(1)
C8A C -0.0185(3) -0.0169(2) 0.7042(1)
C9A C -0.2834(3) 0.1334(2) 0.3958(1)
N1A N -0.0857(2) 0.3832(2) 0.6361(1)
S1A S 0.2155(1) -0.0872(1) 0.7230(1)
H1A H -0.4194 -0.2331 0.3490
H2A H -0.3827 -0.4454 0.4396
H3A H -0.1999 -0.3528 0.5960
H4A H 0.0247 0.1175 0.7199
H5A H -0.1092 -0.0617 0.7501
H6A H -0.1865 0.2522 0.4317
H7A H -0.4252 0.1441 0.3885
C10 C 0.2082(2) 0.2578(2) -0.0442(1)
C11 C 0.2542(2) 0.4504(2) -0.0072(1)
C12 C 0.2982(2) 0.5726(2) -0.0690(1)
C13 C 0.3174(2) 0.7535(2) -0.0332(1)
C14 C 0.3029(3) 0.8115(2) 0.0618(1)
C15 C 0.2748(2) 0.6919(2) 0.1238(1)
C16 C 0.2481(2) 0.5085(2) 0.0904(1)
C17 C 0.2170(3) 0.3778(2) 0.1570(1)
C18 C 0.3239(3) 0.5094(2) -0.1711(1)
N2 N 0.1618(2) 0.1039(2) -0.0732(1)
S2 S 0.4577(1) 0.3440(1) 0.2127(1)
H8 H 0.3405 0.8380 -0.0743
H9 H 0.3125 0.9346 0.0846
H10 H 0.2736 0.7352 0.1897
H11 H 0.1217 0.2587 0.1208
H12 H 0.1478 0.4218 0.2087
H13 H 0.3401 0.3871 -0.1772
H14 H 0.1944 0.4971 -0.2143
C10A C 0.7918(2) 0.7422(2) 0.0442(1)
C11A C 0.7458(2) 0.5496(2) 0.0072(1)
C12A C 0.7018(2) 0.4274(2) 0.0690(1)
C13A C 0.6826(2) 0.2465(2) 0.0332(1)
C14A C 0.6971(3) 0.1885(2) -0.0618(1)
C15A C 0.7252(2) 0.3081(2) -0.1238(1)
C16A C 0.7519(2) 0.4915(2) -0.0904(1)
C17A C 0.7830(3) 0.6222(2) -0.1570(1)
C18A C 0.6761(3) 0.4906(2) 0.1711(1)
N2A N 0.8382(2) 0.8961(2) 0.0732(1)
S2A S 0.5423(1) 0.6560(1) -0.2127(1)
H8A H 0.6595 0.1620 0.0743
H9A H 0.6875 0.0654 -0.0846
H10A H 0.7264 0.2648 -0.1897
H11A H 0.8783 0.7413 -0.1208
H12A H 0.8522 0.5782 -0.2087
H13A H 0.6599 0.6129 0.1772
H14A H 0.8056 0.5029 0.2143
loop_
_geom_bond_atom_site_label_1
_geom_bond_atom_site_label_2
_geom_bond_site_symmetry_1
_geom_bond_site_symmetry_2
C1 C2 1_555 1_555
C2 C3 1_555 1_555
C3 C4 1_555 1_555
C4 C5 1_555 1_555
C5 C6 1_555 1_555
C6 C7 1_555 1_555
C7 C2 1_555 1_555
C8 C7 1_555 1_555
C9 C3 1_555 1_555
C10 C11 1_555 1_555
C11 C12 1_555 1_555
C12 C13 1_555 1_555
C13 C14 1_555 1_555
C14 C15 1_555 1_555
C15 C16 1_555 1_555
C16 C11 1_555 1_555
C17 C16 1_555 1_555
C18 C12 1_555 1_555
N1 C1 1_555 1_555
N2 C10 1_555 1_555
S1 C8 1_555 1_555
S2 C17 1_555 1_555
H1 C4 1_555 1_555
H2 C5 1_555 1_555
H3 C6 1_555 1_555
H4 C8 1_555 1_555
H5 C8 1_555 1_555
H6 C9 1_555 1_555
H7 C9 1_555 1_555
H8 C13 1_555 1_555
H9 C14 1_555 1_555
H10 C15 1_555 1_555
H11 C17 1_555 1_555
H12 C17 1_555 1_555
H13 C18 1_555 1_555
H14 C18 1_555 1_555
C1A C2A 1_555 1_555
C2A C3A 1_555 1_555
C3A C4A 1_555 1_555
C4A C5A 1_555 1_555
C5A C6A 1_555 1_555
C6A C7A 1_555 1_555
C7A C2A 1_555 1_555
C8A C7A 1_555 1_555
C9A S1 1_555 1_555
C10A C11A 1_555 1_555
C11A C12A 1_555 1_555
C12A C13A 1_555 1_555
C13A C14A 1_555 1_555
C14A C15A 1_555 1_555
C15A C16A 1_555 1_555
C16A C11A 1_555 1_555
C17A C16A 1_555 1_555
C18A S2 1_555 1_555
N1A C1A 1_555 1_555
N2A C10A 1_555 1_555
S1A C9 1_555 1_555
S2A C18 1_555 1_555
H1A C4A 1_555 1_555
H2A C5A 1_555 1_555
H3A C6A 1_555 1_555
H4A C8A 1_555 1_555
H5A C8A 1_555 1_555
H6A C9A 1_555 1_555
H7A C9A 1_555 1_555
H8A C13A 1_555 1_555
H9A C14A 1_555 1_555
H10A C15A 1_555 1_555
H11A C17A 1_555 1_555
H12A C17A 1_555 1_555
H13A C18A 1_555 1_555
H14A C18A 1_555 1_555
C3A C9A 1_555 1_555
C8A S1A 1_555 1_555
C12A C18A 1_555 1_555
C17A S2A 1_555 1_555

#END
