
#######################################################################
#
#                 Cambridge Crystallographic Data Centre
#                                CCDC 
#
#######################################################################
#
# If this CIF has been generated from an entry in the Cambridge 
# Structural Database, then it will include bibliographic, chemical, 
# crystal, experimental, refinement or atomic coordinate data resulting 
# from the CCDC's data processing and validation procedures.
#
#######################################################################

data_CIXTOS
_chemical_formula_moiety         'C13 H17 N8 O1 1+,Cl1 1-,H2 O1'
_chemical_name_systematic        
'3-(Adenin-9-yl)-propionohistamide hydrochloride monohydrate'
_symmetry_cell_setting           monoclinic
_symmetry_space_group_name_H-M   'P 21/n'
_symmetry_Int_Tables_number      14
_space_group_name_Hall           '-P 2yn'
loop_
_symmetry_equiv_pos_site_id
_symmetry_equiv_pos_as_xyz
1 x,y,z
2 1/2-x,1/2+y,1/2-z
3 -x,-y,-z
4 1/2+x,1/2-y,1/2+z
_cell_length_a                   10.314(1)
_cell_length_b                   7.854(1)
_cell_length_c                   20.780(1)
_cell_angle_alpha                90
_cell_angle_beta                 92.77(1)
_cell_angle_gamma                90
_cell_volume                     1681.34
_exptl_crystal_colour            'light yellow'
_cell_formula_units_Z            4
loop_
_atom_site_label
_atom_site_type_symbol
_atom_site_fract_x
_atom_site_fract_y
_atom_site_fract_z
N1 N 0.1733(5) 0.4101(7) -0.0015(2)
C1 C 0.2862(7) 0.356(1) -0.0254(3)
N2 N 0.3879(5) 0.2911(9) 0.0039(2)
C2 C 0.3739(6) 0.280(1) 0.0682(3)
C3 C 0.2687(5) 0.3323(8) 0.1001(3)
C4 C 0.1622(6) 0.3975(8) 0.0634(3)
N3 N 0.0510(6) 0.4457(9) 0.0876(3)
N4 N 0.2865(5) 0.3029(8) 0.1657(2)
C5 C 0.4021(7) 0.239(1) 0.1726(3)
N5 N 0.4589(6) 0.216(1) 0.1143(3)
C6 C 0.564(1) 0.094(2) 0.1031(5)
C7 C 0.690(1) 0.192(2) 0.1055(5)
C8 C 0.8039(7) 0.075(1) 0.0900(4)
O1 O 0.8350(5) 0.0706(8) 0.0357(2)
N6 N 1.3905(5) -0.2735(8) 0.1518(3)
C9 C 1.3688(6) -0.2521(9) 0.0886(3)
N7 N 1.2573(5) -0.1739(8) 0.0789(3)
C10 C 1.2092(7) -0.137(1) 0.1378(3)
C11 C 1.2910(7) -0.203(1) 0.1829(4)
C12 C 1.0912(9) -0.025(2) 0.1436(5)
C13 C 0.9679(9) -0.125(2) 0.1288(5)
N8 N 0.8552(6) -0.013(1) 0.1384(3)
H1 H 0.287(8) 0.376(11) -0.075(4)
H2 H -0.016(8) 0.469(10) 0.067(4)
H3 H 0.040(8) 0.446(11) 0.126(4)
H4 H 0.456(8) 0.200(11) 0.210(4)
H5 H 0.549(7) 0.035(10) 0.056(4)
H6 H 0.567(7) -0.003(11) 0.140(4)
H7 H 0.707(7) 0.245(10) 0.153(4)
H8 H 0.683(8) 0.294(11) 0.071(4)
H9 H 1.474(10) -0.320(13) 0.169(5)
H10 H 1.423(9) -0.308(12) 0.054(5)
H11 H 1.220(11) -0.176(15) 0.026(6)
H12 H 1.315(10) -0.214(13) 0.228(5)
H13 H 1.090(7) 0.025(10) 0.192(4)
H14 H 1.096(8) 0.080(11) 0.110(4)
H15 H 0.966(7) -0.169(10) 0.079(4)
H16 H 0.964(7) -0.233(11) 0.161(4)
H17 H 0.818(7) -0.004(10) 0.182(4)
O2 O 0.9384(5) 0.455(1) 0.2175(3)
H18 H 0.853(17) 0.508(23) 0.212(8)
H19 H 0.921(12) 0.341(17) 0.226(6)
Cl1 Cl 0.8430(2) 0.1148(3) 0.29035(8)
loop_
_geom_bond_atom_site_label_1
_geom_bond_atom_site_label_2
_geom_bond_site_symmetry_1
_geom_bond_site_symmetry_2
N1 C1 1_555 1_555
C1 N2 1_555 1_555
N2 C2 1_555 1_555
C2 C3 1_555 1_555
C3 C4 1_555 1_555
C4 N1 1_555 1_555
N3 C4 1_555 1_555
N4 C3 1_555 1_555
C5 N4 1_555 1_555
N5 C2 1_555 1_555
C6 N5 1_555 1_555
C7 C6 1_555 1_555
C8 C7 1_555 1_555
O1 C8 1_555 1_555
N6 C9 1_555 1_555
C9 N7 1_555 1_555
N7 C10 1_555 1_555
C10 C11 1_555 1_555
C11 N6 1_555 1_555
C12 C10 1_555 1_555
C13 C12 1_555 1_555
N8 C8 1_555 1_555
H1 C1 1_555 1_555
H2 N3 1_555 1_555
H3 N3 1_555 1_555
H4 C5 1_555 1_555
H5 C6 1_555 1_555
H6 C6 1_555 1_555
H7 C7 1_555 1_555
H8 C7 1_555 1_555
H9 N6 1_555 1_555
H10 C9 1_555 1_555
H11 N7 1_555 1_555
H12 C11 1_555 1_555
H13 C12 1_555 1_555
H14 C12 1_555 1_555
H15 C13 1_555 1_555
H16 C13 1_555 1_555
H17 N8 1_555 1_555
O2 H18 1_555 1_555
H19 O2 1_555 1_555
C5 N5 1_555 1_555
C13 N8 1_555 1_555

#END
