
#######################################################################
#
#                 Cambridge Crystallographic Data Centre
#                                CCDC 
#
#######################################################################
#
# If this CIF has been generated from an entry in the Cambridge 
# Structural Database, then it will include bibliographic, chemical, 
# crystal, experimental, refinement or atomic coordinate data resulting 
# from the CCDC's data processing and validation procedures.
#
#######################################################################

data_CIZBIX
_chemical_name_common            
'Pyridine-2,6-dicarbaldehyde (6-formylpyridin-2-yl)(methyl)hydrazone'
_chemical_formula_moiety         'C14 H12 N4 O2'
_chemical_name_systematic        
(E)-6-((2-(6-Formylpyridin-2-yl)-2-methylhydrazono)methyl)picolinaldehyde
_symmetry_cell_setting           orthorhombic
_symmetry_space_group_name_H-M   'P 21 21 21'
_symmetry_Int_Tables_number      19
_space_group_name_Hall           'P 2ac 2ab'
loop_
_symmetry_equiv_pos_site_id
_symmetry_equiv_pos_as_xyz
1 x,y,z
2 1/2-x,-y,1/2+z
3 1/2+x,1/2-y,-z
4 -x,1/2+y,1/2-z
_cell_length_a                   3.8912(4)
_cell_length_b                   17.965(2)
_cell_length_c                   18.182(2)
_cell_angle_alpha                90
_cell_angle_beta                 90
_cell_angle_gamma                90
_cell_volume                     1271.02
_exptl_crystal_colour            colorless
_exptl_crystal_description       needle
_cell_formula_units_Z            4
loop_
_atom_site_label
_atom_site_type_symbol
_atom_site_fract_x
_atom_site_fract_y
_atom_site_fract_z
N1 N 0.0869(9) 0.61626(18) 0.18015(16)
N2 N 0.0598(8) 0.55479(18) 0.55753(17)
C1 C 0.1519(10) 0.6574(2) 0.1206(2)
N3 N 0.1645(9) 0.61712(18) 0.37382(16)
N4 N 0.0865(9) 0.57108(18) 0.43021(16)
C2 C 0.1695(10) 0.5964(2) 0.5011(2)
C3 C 0.1253(10) 0.5803(2) 0.6258(2)
C4 C 0.1716(9) 0.6445(2) 0.2463(2)
C5 C 0.0925(10) 0.5960(2) 0.30835(18)
H1 H -0.0121 0.5489 0.3002
C6 C 0.2956(11) 0.7280(2) 0.1233(2)
H2 H 0.3358 0.7555 0.0796
C7 C -0.0696(11) 0.4982(2) 0.4173(2)
H3 H -0.2938 0.5047 0.3936
H4 H -0.0997 0.4723 0.4643
H5 H 0.0802 0.4686 0.3852
C8 C 0.3018(10) 0.6450(2) 0.6407(2)
H6 H 0.3431 0.6603 0.6899
C9 C 0.3264(10) 0.7148(2) 0.2527(2)
H7 H 0.3946 0.7328 0.2996
C10 C 0.3594(10) 0.6620(2) 0.5115(2)
H8 H 0.4465 0.6887 0.4704
C11 C 0.0556(12) 0.6220(3) 0.0508(2)
H9 H -0.0577 0.5753 0.0535
C12 C -0.0223(11) 0.5349(2) 0.6862(2)
H10 H -0.1382 0.4902 0.6734
C13 C 0.4177(10) 0.6871(2) 0.5818(2)
H11 H 0.5355 0.7327 0.5899
O1 O -0.0043(10) 0.55118(17) 0.75058(15)
O2 O 0.1085(9) 0.64740(17) -0.00998(15)
C14 C 0.3789(11) 0.7573(2) 0.1911(2)
H12 H 0.4711 0.8061 0.1950
loop_
_geom_bond_atom_site_label_1
_geom_bond_atom_site_label_2
_geom_bond_site_symmetry_1
_geom_bond_site_symmetry_2
N1 C1 1_555 1_555
N2 C2 1_555 1_555
C1 C6 1_555 1_555
N3 N4 1_555 1_555
N4 C2 1_555 1_555
C2 C10 1_555 1_555
C3 N2 1_555 1_555
C4 N1 1_555 1_555
C5 N3 1_555 1_555
H1 C5 1_555 1_555
C6 H2 1_555 1_555
C7 N4 1_555 1_555
H3 C7 1_555 1_555
H4 C7 1_555 1_555
H5 C7 1_555 1_555
C8 C3 1_555 1_555
H6 C8 1_555 1_555
C9 C4 1_555 1_555
H7 C9 1_555 1_555
C10 H8 1_555 1_555
C11 C1 1_555 1_555
H9 C11 1_555 1_555
C12 C3 1_555 1_555
H10 C12 1_555 1_555
C13 C8 1_555 1_555
H11 C13 1_555 1_555
O1 C12 1_555 1_555
O2 C11 1_555 1_555
C14 C6 1_555 1_555
H12 C14 1_555 1_555
C4 C5 1_555 1_555
C9 C14 1_555 1_555
C10 C13 1_555 1_555

#END
