
#######################################################################
#
#                 Cambridge Crystallographic Data Centre
#                                CCDC 
#
#######################################################################
#
# If this CIF has been generated from an entry in the Cambridge 
# Structural Database, then it will include bibliographic, chemical, 
# crystal, experimental, refinement or atomic coordinate data resulting 
# from the CCDC's data processing and validation procedures.
#
#######################################################################

data_CIZXAL
_chemical_formula_moiety         'C12 H9 Br2 N1 O2'
_chemical_name_systematic        
1,3-dibromo-8,9-dihydro-7H-10-oxa-6a-azacyclohepta[de]naphthalen-6-one
_symmetry_cell_setting           triclinic
_symmetry_space_group_name_H-M   'P -1'
_symmetry_Int_Tables_number      2
_space_group_name_Hall           '-P 1'
loop_
_symmetry_equiv_pos_site_id
_symmetry_equiv_pos_as_xyz
1 x,y,z
2 -x,-y,-z
_cell_length_a                   7.8242(3)
_cell_length_b                   9.2246(3)
_cell_length_c                   9.4567(3)
_cell_angle_alpha                60.7090(10)
_cell_angle_beta                 87.4300(10)
_cell_angle_gamma                83.0990(10)
_cell_volume                     590.884
_exptl_crystal_colour            'light yellow'
_exptl_crystal_description       rod
_chemical_melting_point          '170-172 deg.C'
_cell_formula_units_Z            2
_exptl_crystal_recrystallization_method 'chloroform/petroleum ether'
loop_
_atom_site_label
_atom_site_type_symbol
_atom_site_fract_x
_atom_site_fract_y
_atom_site_fract_z
O1 O 0.6180(2) 0.7933(2) 0.02985(18)
C1 C 0.4978(3) 0.7796(3) 0.1570(3)
C2 C 0.5885(3) 0.7917(3) 0.2873(3)
C3 C 0.7681(3) 0.7001(3) 0.3171(3)
N1 N 0.7712(2) 0.5308(2) 0.3374(2)
C4 C 0.8070(3) 0.3973(3) 0.4922(2)
O2 O 0.8104(2) 0.4197(3) 0.6102(2)
C5 C 0.8433(3) 0.2344(3) 0.5057(3)
C6 C 0.8564(3) 0.2139(3) 0.3731(3)
C7 C 0.8196(2) 0.3530(2) 0.2142(2)
C8 C 0.8319(3) 0.3404(2) 0.0713(2)
Br1 Br 0.91847(3) 0.13336(3) 0.08304(3)
C9 C 0.7868(3) 0.4737(3) -0.0783(2)
C10 C 0.7164(3) 0.6231(3) -0.0859(2)
Br2 Br 0.63896(4) 0.80260(3) -0.29031(3)
C11 C 0.6978(2) 0.6450(2) 0.0497(2)
C12 C 0.7633(2) 0.5109(2) 0.2000(2)
H1 H 0.451(3) 0.676(3) 0.203(3)
H2 H 0.404(4) 0.879(4) 0.105(3)
H3 H 0.596(4) 0.907(4) 0.268(4)
H4 H 0.528(4) 0.743(4) 0.377(4)
H5 H 0.817(3) 0.686(3) 0.417(3)
H6 H 0.840(3) 0.757(4) 0.231(3)
H7 H 0.865(3) 0.146(3) 0.616(3)
H8 H 0.888(3) 0.110(4) 0.385(3)
H9 H 0.804(3) 0.466(3) -0.180(3)
loop_
_geom_bond_atom_site_label_1
_geom_bond_atom_site_label_2
_geom_bond_site_symmetry_1
_geom_bond_site_symmetry_2
O1 C1 1_555 1_555
C1 C2 1_555 1_555
C2 C3 1_555 1_555
C3 N1 1_555 1_555
N1 C4 1_555 1_555
C4 O2 1_555 1_555
C5 C4 1_555 1_555
C6 C5 1_555 1_555
C7 C6 1_555 1_555
C8 C7 1_555 1_555
Br1 C8 1_555 1_555
C9 C8 1_555 1_555
C10 C9 1_555 1_555
Br2 C10 1_555 1_555
C11 O1 1_555 1_555
C12 N1 1_555 1_555
H1 C1 1_555 1_555
H2 C1 1_555 1_555
H3 C2 1_555 1_555
H4 C2 1_555 1_555
H5 C3 1_555 1_555
H6 C3 1_555 1_555
H7 C5 1_555 1_555
H8 C6 1_555 1_555
H9 C9 1_555 1_555
C7 C12 1_555 1_555
C10 C11 1_555 1_555
C11 C12 1_555 1_555

#END
