
#######################################################################
#
#                 Cambridge Crystallographic Data Centre
#                                CCDC 
#
#######################################################################
#
# If this CIF has been generated from an entry in the Cambridge 
# Structural Database, then it will include bibliographic, chemical, 
# crystal, experimental, refinement or atomic coordinate data resulting 
# from the CCDC's data processing and validation procedures.
#
#######################################################################

data_CLPMCY01
_chemical_formula_moiety         'C18 H10 Cl2 O2'
_chemical_name_systematic        
trans-2,4-bis(Chloro(phenyl)methylene)cyclobutane-1,3-dione
_symmetry_cell_setting           triclinic
_symmetry_space_group_name_H-M   'P -1'
_symmetry_Int_Tables_number      2
_space_group_name_Hall           '-P 1'
loop_
_symmetry_equiv_pos_site_id
_symmetry_equiv_pos_as_xyz
1 x,y,z
2 -x,-y,-z
_cell_length_a                   3.7994(5)
_cell_length_b                   9.1730(13)
_cell_length_c                   10.623(2)
_cell_angle_alpha                79.774(12)
_cell_angle_beta                 80.865(12)
_cell_angle_gamma                87.596(7)
_cell_volume                     359.693
_exptl_crystal_colour            red
_exptl_crystal_description       plate
_chemical_melting_point          '175-175.5 deg.C'
_cell_formula_units_Z            1
_exptl_crystal_recrystallization_method sublimation
loop_
_atom_site_label
_atom_site_type_symbol
_atom_site_fract_x
_atom_site_fract_y
_atom_site_fract_z
O1 O 0.2203(4) 0.70411(13) 0.40838(12)
C1 C 0.3751(4) 0.59669(16) 0.45714(14)
Cl1 Cl 0.48978(11) 0.55603(4) 0.16493(4)
C2 C 0.5377(4) 0.46162(15) 0.40954(14)
C3 C 0.6016(4) 0.42309(15) 0.29121(14)
C4 C 0.7558(4) 0.28410(16) 0.25634(14)
C5 C 0.9186(4) 0.27453(18) 0.13029(15)
H1 H 0.9243 0.3591 0.0639
C6 C 1.0715(5) 0.1419(2) 0.10213(18)
H2 H 1.1852 0.1367 0.0167
C7 C 1.0601(5) 0.0177(2) 0.19707(19)
H3 H 1.1663 -0.0727 0.1772
C8 C 0.8926(5) 0.02525(18) 0.32192(18)
H4 H 0.8814 -0.0607 0.3871
C9 C 0.7418(4) 0.15732(17) 0.35188(16)
H5 H 0.6286 0.1618 0.4376
O1A O 0.7797(4) 0.29589(13) 0.59162(12)
C1A C 0.6249(4) 0.40331(16) 0.54286(14)
Cl1A Cl 0.51022(11) 0.44397(4) 0.83507(4)
C2A C 0.4623(4) 0.53838(15) 0.59046(14)
C3A C 0.3984(4) 0.57691(15) 0.70879(14)
C4A C 0.2442(4) 0.71590(16) 0.74366(14)
C5A C 0.0814(4) 0.72547(18) 0.86971(15)
H1A H 0.0757 0.6409 0.9361
C6A C -0.0715(5) 0.8581(2) 0.89787(18)
H2A H -0.1852 0.8633 0.9833
C7A C -0.0601(5) 0.9823(2) 0.80293(19)
H3A H -0.1663 1.0727 0.8228
C8A C 0.1074(5) 0.97475(18) 0.67808(18)
H4A H 0.1186 1.0607 0.6129
C9A C 0.2582(4) 0.84268(17) 0.64812(16)
H5A H 0.3714 0.8382 0.5624
loop_
_geom_bond_atom_site_label_1
_geom_bond_atom_site_label_2
_geom_bond_site_symmetry_1
_geom_bond_site_symmetry_2
O1 C1 1_555 1_555
C1 C2 1_555 1_555
Cl1 C3 1_555 1_555
C2 C3 1_555 1_555
C3 C4 1_555 1_555
C4 C5 1_555 1_555
C5 H1 1_555 1_555
C6 C5 1_555 1_555
H2 C6 1_555 1_555
C7 C6 1_555 1_555
H3 C7 1_555 1_555
C8 C7 1_555 1_555
H4 C8 1_555 1_555
C9 C4 1_555 1_555
H5 C9 1_555 1_555
O1A C1A 1_555 1_555
C1A C2 1_555 1_555
Cl1A C3A 1_555 1_555
C2A C1 1_555 1_555
C3A C2A 1_555 1_555
C4A C3A 1_555 1_555
C5A C4A 1_555 1_555
H1A C5A 1_555 1_555
C6A C5A 1_555 1_555
H2A C6A 1_555 1_555
C7A C6A 1_555 1_555
H3A C7A 1_555 1_555
C8A C7A 1_555 1_555
H4A C8A 1_555 1_555
C9A C4A 1_555 1_555
H5A C9A 1_555 1_555
C8 C9 1_555 1_555
C1A C2A 1_555 1_555
C8A C9A 1_555 1_555

#END
