
#######################################################################
#
#                 Cambridge Crystallographic Data Centre
#                                CCDC 
#
#######################################################################
#
# If this CIF has been generated from an entry in the Cambridge 
# Structural Database, then it will include bibliographic, chemical, 
# crystal, experimental, refinement or atomic coordinate data resulting 
# from the CCDC's data processing and validation procedures.
#
#######################################################################

data_COBXUO
_chemical_formula_moiety         'C8 H11 N1 O2'
_chemical_name_systematic        'methyl 3,5-dimethyl-1H-pyrrole-2-carboxylate'
_symmetry_cell_setting           monoclinic
_symmetry_space_group_name_H-M   'C 2/m'
_symmetry_Int_Tables_number      12
_space_group_name_Hall           '-C 2y'
loop_
_symmetry_equiv_pos_site_id
_symmetry_equiv_pos_as_xyz
1 x,y,z
2 -x,y,-z
3 1/2+x,1/2+y,z
4 1/2-x,1/2+y,-z
5 -x,-y,-z
6 x,-y,z
7 1/2-x,1/2-y,-z
8 1/2+x,1/2-y,z
_cell_length_a                   12.578(3)
_cell_length_b                   6.7966(16)
_cell_length_c                   10.143(2)
_cell_angle_alpha                90
_cell_angle_beta                 108.220(13)
_cell_angle_gamma                90
_cell_volume                     823.627
_exptl_crystal_colour            colorless
_exptl_crystal_description       plate
_chemical_melting_point          '371-372 K'
_cell_formula_units_Z            4
_exptl_crystal_recrystallization_method 'dichloromethane, methanol'
loop_
_atom_site_label
_atom_site_type_symbol
_atom_site_fract_x
_atom_site_fract_y
_atom_site_fract_z
O1 O 0.79099(6) 0.5000 0.44873(8)
O2 O 0.60400(6) 0.5000 0.40330(8)
N1 N 0.63495(8) 0.5000 0.68985(9)
H1 H 0.5620(13) 0.5000 0.6416(16)
C1 C 0.67498(10) 0.5000 0.83022(11)
C2 C 0.79107(10) 0.5000 0.86725(11)
H2 H 0.8411 0.5000 0.9594
C3 C 0.82210(9) 0.5000 0.74550(12)
C4 C 0.72259(8) 0.5000 0.63548(10)
C5 C 0.59918(12) 0.5000 0.91701(12)
C6 C 0.93907(9) 0.5000 0.73786(15)
C7 C 0.69796(8) 0.5000 0.48677(11)
C8 C 0.77352(11) 0.5000 0.30149(12)
H3? H 0.6308 0.5837 0.9985
H4? H 0.5911 0.3654 0.9471
H5? H 0.5257 0.5509 0.8626
H6? H 0.9473 0.6063 0.6765
H7? H 0.9544 0.3735 0.7012
H8? H 0.9920 0.5202 0.8309
H9? H 0.7174 0.4006 0.2569
H10? H 0.8441 0.4694 0.2841
H11? H 0.7472 0.6300 0.2633
loop_
_geom_bond_atom_site_label_1
_geom_bond_atom_site_label_2
_geom_bond_site_symmetry_1
_geom_bond_site_symmetry_2
O1 C7 1_555 1_555
O2 C7 1_555 1_555
N1 H1 1_555 1_555
C1 N1 1_555 1_555
C2 C1 1_555 1_555
H2 C2 1_555 1_555
C3 C2 1_555 1_555
C4 N1 1_555 1_555
C5 C1 1_555 1_555
C6 C3 1_555 1_555
C7 C4 1_555 1_555
C8 O1 1_555 1_555
C3 C4 1_555 1_555

#END
