
#######################################################################
#
#                 Cambridge Crystallographic Data Centre
#                                CCDC 
#
#######################################################################
#
# If this CIF has been generated from an entry in the Cambridge 
# Structural Database, then it will include bibliographic, chemical, 
# crystal, experimental, refinement or atomic coordinate data resulting 
# from the CCDC's data processing and validation procedures.
#
#######################################################################

data_COBYUP
_chemical_formula_moiety         'C24 H42 I1 Li2 N5'
_chemical_name_systematic        
(\m~2~-Iodo)-(\m~2~-diphenylamido)-bis(1,2-bis(dimethylamino)ethane)-di-lithium
_symmetry_cell_setting           triclinic
_symmetry_space_group_name_H-M   'P -1'
_symmetry_Int_Tables_number      2
_space_group_name_Hall           '-P 1'
loop_
_symmetry_equiv_pos_site_id
_symmetry_equiv_pos_as_xyz
1 x,y,z
2 -x,-y,-z
_cell_length_a                   8.9204(4)
_cell_length_b                   16.5561(8)
_cell_length_c                   19.7066(10)
_cell_angle_alpha                101.225(1)
_cell_angle_beta                 90.835(1)
_cell_angle_gamma                97.498(1)
_cell_volume                     2827.93
_exptl_crystal_colour            colorless
_exptl_crystal_description       block
_cell_formula_units_Z            4
_exptl_crystal_recrystallization_method toluene
loop_
_atom_site_label
_atom_site_type_symbol
_atom_site_fract_x
_atom_site_fract_y
_atom_site_fract_z
I1 I 0.36105(2) 0.69658(2) 0.95860(2)
Li1 Li 0.6845(4) 0.7071(2) 0.93348(19)
Li2 Li 0.4646(4) 0.7765(2) 0.8485(2)
N1 N 0.68694(19) 0.75199(10) 0.84391(9)
N2 N 0.7995(3) 0.76588(14) 1.03073(11)
N3 N 0.7788(2) 0.59705(13) 0.94678(11)
N4 N 0.3625(2) 0.88926(13) 0.86751(11)
N5 N 0.3421(2) 0.74848(13) 0.74873(10)
C1 C 0.7582(2) 0.83005(13) 0.83746(11)
C2 C 0.7847(3) 0.89270(14) 0.89744(12)
H1 H 0.7577 0.8795 0.9408
C3 C 0.8486(3) 0.97270(15) 0.89537(13)
H2 H 0.8658 1.0129 0.9372
C4 C 0.8878(3) 0.99526(15) 0.83362(14)
H3 H 0.9327 1.0502 0.8324
C5 C 0.8599(3) 0.93546(14) 0.77325(13)
H4 H 0.8851 0.9500 0.7301
C6 C 0.7959(2) 0.85487(14) 0.77458(12)
H5 H 0.7771 0.8155 0.7323
C7 C 0.7032(2) 0.68177(13) 0.79365(11)
C8 C 0.5924(2) 0.61150(13) 0.78842(12)
H6 H 0.5090 0.6144 0.8178
C9 C 0.6019(3) 0.53839(14) 0.74154(12)
H7 H 0.5252 0.4923 0.7395
C10 C 0.7212(3) 0.53124(14) 0.69760(12)
H8 H 0.7260 0.4816 0.6645
C11 C 0.8333(3) 0.59854(14) 0.70335(12)
H9 H 0.9171 0.5943 0.6743
C12 C 0.8269(2) 0.67217(13) 0.75045(11)
H10 H 0.9070 0.7167 0.7536
C13 C 0.7183(4) 0.8271(2) 1.07622(15)
H11 H 0.6150 0.8015 1.0819
H12 H 0.7147 0.8758 1.0552
H13 H 0.7718 0.8442 1.1216
C14 C 0.9542(3) 0.80484(19) 1.02403(17)
H14 H 1.0107 0.8131 1.0684
H15 H 0.9514 0.8587 1.0108
H16 H 1.0039 0.7688 0.9884
C15 C 0.7976(4) 0.69281(19) 1.06099(14)
H17 H 0.6918 0.6726 1.0700
H18 H 0.8553 0.7083 1.1060
C16 C 0.8630(4) 0.6249(2) 1.01619(15)
H19 H 0.8599 0.5771 1.0397
H20 H 0.9704 0.6440 1.0089
C17 C 0.8837(3) 0.56398(17) 0.89629(14)
H21 H 0.9181 0.5149 0.9090
H22 H 0.9710 0.6064 0.8955
H23 H 0.8327 0.5484 0.8503
C18 C 0.6512(3) 0.53336(18) 0.9488(2)
H24 H 0.6017 0.5155 0.9026
H25 H 0.5786 0.5560 0.9817
H26 H 0.6871 0.4857 0.9634
C19 C 0.4524(3) 0.95903(17) 0.84449(17)
H27 H 0.3884 1.0021 0.8413
H28 H 0.4917 0.9394 0.7989
H29 H 0.5370 0.9822 0.8778
C20 C 0.3186(4) 0.91741(19) 0.93900(16)
H30 H 0.4097 0.9380 0.9690
H31 H 0.2608 0.8708 0.9552
H32 H 0.2561 0.9621 0.9404
C21 C 0.2236(3) 0.85833(17) 0.82381(15)
H33 H 0.1653 0.9050 0.8226
H34 H 0.1601 0.8166 0.8445
C22 C 0.2576(3) 0.81964(17) 0.75111(15)
H35 H 0.1614 0.8008 0.7235
H36 H 0.3175 0.8621 0.7298
C23 C 0.4287(3) 0.7366(2) 0.68547(14)
H37 H 0.4845 0.6891 0.6842
H38 H 0.5003 0.7868 0.6853
H39 H 0.3592 0.7260 0.6448
C24 C 0.2370(3) 0.67258(17) 0.74825(15)
H40 H 0.1780 0.6797 0.7900
H41 H 0.2942 0.6257 0.7472
H42 H 0.1685 0.6615 0.7072
I2 I 0.75888(2) 0.30859(2) 0.54382(2)
Li3 Li 0.8254(4) 0.2259(2) 0.6517(2)
Li4 Li 1.0782(5) 0.2998(2) 0.5679(2)
N6 N 1.0627(2) 0.24943(11) 0.65651(9)
N7 N 0.7257(2) 0.25092(13) 0.75291(11)
N8 N 0.6663(2) 0.11195(14) 0.63310(13)
N9 N 1.2071(3) 0.41603(13) 0.56123(11)
N10 N 1.1789(3) 0.25167(13) 0.46929(11)
C25 C 1.1173(2) 0.31735(13) 0.70857(11)
C26 C 1.2488(2) 0.32642(14) 0.75084(12)
H43 H 1.3086 0.2823 0.7458
C27 C 1.2936(3) 0.39840(14) 0.79989(12)
H44 H 1.3823 0.4019 0.8282
C28 C 1.2122(3) 0.46522(14) 0.80861(12)
H45 H 1.2428 0.5139 0.8427
C29 C 1.0846(3) 0.45854(14) 0.76584(12)
H46 H 1.0280 0.5039 0.7700
C30 C 1.0383(2) 0.38702(14) 0.71730(12)
H47 H 0.9504 0.3846 0.6888
C31 C 1.1016(2) 0.17077(13) 0.65742(11)
C32 C 1.0886(3) 0.11261(14) 0.59445(12)
H48 H 1.0591 0.1296 0.5534
C33 C 1.1171(3) 0.03172(15) 0.59018(13)
H49 H 1.1075 -0.0054 0.5466
C34 C 1.1596(3) 0.00411(15) 0.64866(14)
H50 H 1.1817 -0.0510 0.6457
C35 C 1.1688(3) 0.05927(14) 0.71142(13)
H51 H 1.1953 0.0410 0.7522
C36 C 1.1406(2) 0.14041(14) 0.71652(12)
H52 H 1.1477 0.1764 0.7607
C37 C 0.8298(3) 0.2483(2) 0.81044(15)
H53 H 0.9087 0.2966 0.8168
H54 H 0.8766 0.1972 0.8001
H55 H 0.7738 0.2495 0.8529
C38 C 0.6675(3) 0.33060(18) 0.7664(2)
H56 H 0.5999 0.3338 0.7277
H57 H 0.7521 0.3758 0.7716
H58 H 0.6115 0.3358 0.8091
C39 C 0.5975(3) 0.18345(18) 0.74716(16)
H59 H 0.5703 0.1768 0.7945
H60 H 0.5094 0.2009 0.7256
C40 C 0.6223(5) 0.1030(3) 0.7079(2)
H61 H 0.5290 0.0628 0.7059
H62 H 0.7044 0.0819 0.7307
C41 C 0.5313(6) 0.1174(4) 0.5954(4)
H63 H 0.4951 0.1705 0.6136
H64 H 0.5526 0.1140 0.5463
H65 H 0.4535 0.0716 0.6003
C42 C 0.7228(8) 0.0310(4) 0.6057(4)
H66 H 0.8154 0.0278 0.6318
H67 H 0.6455 -0.0150 0.6106
H68 H 0.7446 0.0274 0.5566
C43 C 1.1190(4) 0.48629(18) 0.57826(17)
H69 H 1.1748 0.5357 0.5654
H70 H 1.1025 0.4976 0.6281
H71 H 1.0211 0.4722 0.5526
C44 C 1.3456(3) 0.4368(2) 0.60493(17)
H72 H 1.4051 0.3904 0.5959
H73 H 1.3196 0.4472 0.6537
H74 H 1.4049 0.4867 0.5945
C45 C 1.2327(5) 0.4043(2) 0.48740(16)
H75 H 1.1397 0.4134 0.4636
H76 H 1.3145 0.4479 0.4801
C46 C 1.2714(6) 0.3270(2) 0.45525(18)
H77 H 1.3778 0.3251 0.4691
H78 H 1.2673 0.3242 0.4046
C47 C 1.0562(5) 0.2214(3) 0.41852(17)
H79 H 1.0964 0.2126 0.3720
H80 H 0.9851 0.2623 0.4221
H81 H 1.0036 0.1687 0.4270
C48 C 1.2846(5) 0.1914(3) 0.4652(2)
H82 H 1.3262 0.1823 0.4190
H83 H 1.2318 0.1388 0.4736
H84 H 1.3670 0.2123 0.5001
H85? H 0.5108 0.2055 0.7717
H86? H 0.6271 0.1392 0.7698
C49? C 0.5500(6) 0.1473(4) 0.6735(3)
H87? H 0.4623 0.1037 0.6722
H88? H 0.5163 0.1914 0.6518
C50? C 0.6069(9) 0.0905(5) 0.5571(4)
H89? H 0.5632 0.1378 0.5457
H90? H 0.6905 0.0783 0.5268
H91? H 0.5290 0.0418 0.5505
C51? C 0.7273(9) 0.0453(5) 0.6486(6)
H92? H 0.8046 0.0300 0.6155
H93? H 0.7734 0.0603 0.6956
H94? H 0.6473 -0.0020 0.6458
loop_
_geom_bond_atom_site_label_1
_geom_bond_atom_site_label_2
_geom_bond_site_symmetry_1
_geom_bond_site_symmetry_2
I1 Li1 1_555 1_555
Li1 N1 1_555 1_555
Li2 I1 1_555 1_555
N1 Li2 1_555 1_555
N2 Li1 1_555 1_555
N3 Li1 1_555 1_555
N4 Li2 1_555 1_555
N5 Li2 1_555 1_555
C1 N1 1_555 1_555
C2 C1 1_555 1_555
H1 C2 1_555 1_555
C3 C2 1_555 1_555
H2 C3 1_555 1_555
C4 C3 1_555 1_555
H3 C4 1_555 1_555
C5 C4 1_555 1_555
H4 C5 1_555 1_555
C6 C1 1_555 1_555
H5 C6 1_555 1_555
C7 N1 1_555 1_555
C8 C7 1_555 1_555
H6 C8 1_555 1_555
C9 C8 1_555 1_555
H7 C9 1_555 1_555
C10 C9 1_555 1_555
H8 C10 1_555 1_555
C11 C10 1_555 1_555
H9 C11 1_555 1_555
C12 C7 1_555 1_555
H10 C12 1_555 1_555
C13 N2 1_555 1_555
H11 C13 1_555 1_555
H12 C13 1_555 1_555
H13 C13 1_555 1_555
C14 N2 1_555 1_555
H14 C14 1_555 1_555
H15 C14 1_555 1_555
H16 C14 1_555 1_555
C15 N2 1_555 1_555
H17 C15 1_555 1_555
H18 C15 1_555 1_555
C16 N3 1_555 1_555
H19 C16 1_555 1_555
H20 C16 1_555 1_555
C17 N3 1_555 1_555
H21 C17 1_555 1_555
H22 C17 1_555 1_555
H23 C17 1_555 1_555
C18 N3 1_555 1_555
H24 C18 1_555 1_555
H25 C18 1_555 1_555
H26 C18 1_555 1_555
C19 N4 1_555 1_555
H27 C19 1_555 1_555
H28 C19 1_555 1_555
H29 C19 1_555 1_555
C20 N4 1_555 1_555
H30 C20 1_555 1_555
H31 C20 1_555 1_555
H32 C20 1_555 1_555
C21 N4 1_555 1_555
H33 C21 1_555 1_555
H34 C21 1_555 1_555
C22 N5 1_555 1_555
H35 C22 1_555 1_555
H36 C22 1_555 1_555
C23 N5 1_555 1_555
H37 C23 1_555 1_555
H38 C23 1_555 1_555
H39 C23 1_555 1_555
C24 N5 1_555 1_555
H40 C24 1_555 1_555
H41 C24 1_555 1_555
H42 C24 1_555 1_555
I2 Li3 1_555 1_555
Li3 N6 1_555 1_555
Li4 I2 1_555 1_555
N6 Li4 1_555 1_555
N7 Li3 1_555 1_555
N8 Li3 1_555 1_555
N9 Li4 1_555 1_555
N10 Li4 1_555 1_555
C25 N6 1_555 1_555
C26 C25 1_555 1_555
H43 C26 1_555 1_555
C27 C26 1_555 1_555
H44 C27 1_555 1_555
C28 C27 1_555 1_555
H45 C28 1_555 1_555
C29 C28 1_555 1_555
H46 C29 1_555 1_555
C30 C25 1_555 1_555
H47 C30 1_555 1_555
C31 N6 1_555 1_555
C32 C31 1_555 1_555
H48 C32 1_555 1_555
C33 C32 1_555 1_555
H49 C33 1_555 1_555
C34 C33 1_555 1_555
H50 C34 1_555 1_555
C35 C34 1_555 1_555
H51 C35 1_555 1_555
C36 C31 1_555 1_555
H52 C36 1_555 1_555
C37 N7 1_555 1_555
H53 C37 1_555 1_555
H54 C37 1_555 1_555
H55 C37 1_555 1_555
C38 N7 1_555 1_555
H56 C38 1_555 1_555
H57 C38 1_555 1_555
H58 C38 1_555 1_555
C39 N7 1_555 1_555
H59 C39 1_555 1_555
H60 C39 1_555 1_555
C40 N8 1_555 1_555
H61 C40 1_555 1_555
H62 C40 1_555 1_555
C41 N8 1_555 1_555
H63 C41 1_555 1_555
H64 C41 1_555 1_555
H65 C41 1_555 1_555
C42 N8 1_555 1_555
H66 C42 1_555 1_555
H67 C42 1_555 1_555
H68 C42 1_555 1_555
C43 N9 1_555 1_555
H69 C43 1_555 1_555
H70 C43 1_555 1_555
H71 C43 1_555 1_555
C44 N9 1_555 1_555
H72 C44 1_555 1_555
H73 C44 1_555 1_555
H74 C44 1_555 1_555
C45 N9 1_555 1_555
H75 C45 1_555 1_555
H76 C45 1_555 1_555
C46 N10 1_555 1_555
H77 C46 1_555 1_555
H78 C46 1_555 1_555
C47 N10 1_555 1_555
H79 C47 1_555 1_555
H80 C47 1_555 1_555
H81 C47 1_555 1_555
C48 N10 1_555 1_555
H82 C48 1_555 1_555
H83 C48 1_555 1_555
H84 C48 1_555 1_555
C5 C6 1_555 1_555
C11 C12 1_555 1_555
C15 C16 1_555 1_555
C21 C22 1_555 1_555
C29 C30 1_555 1_555
C35 C36 1_555 1_555
C39 C40 1_555 1_555
C45 C46 1_555 1_555

#END
