
#######################################################################
#
#                 Cambridge Crystallographic Data Centre
#                                CCDC 
#
#######################################################################
#
# If this CIF has been generated from an entry in the Cambridge 
# Structural Database, then it will include bibliographic, chemical, 
# crystal, experimental, refinement or atomic coordinate data resulting 
# from the CCDC's data processing and validation procedures.
#
#######################################################################

data_COCCED
_chemical_formula_moiety         'C21 H32 O4'
_chemical_name_systematic        
(1S*,5R*,8R*,10R*,11S*,14R*,17R*)-6,11-Dihydroxy-17-methoxy-5-methyl-16-oxa-11-(2-propenyl)pentacyclo(8.4.3.0^1,5^.0^8,14^.0^14,17^)heptadecane
_symmetry_cell_setting           monoclinic
_symmetry_space_group_name_H-M   'P 21/c'
_symmetry_Int_Tables_number      14
_space_group_name_Hall           '-P 2ybc'
loop_
_symmetry_equiv_pos_site_id
_symmetry_equiv_pos_as_xyz
1 x,y,z
2 -x,1/2+y,1/2-z
3 -x,-y,-z
4 x,1/2-y,1/2+z
_cell_length_a                   7.651(5)
_cell_length_b                   12.277(4)
_cell_length_c                   19.937(5)
_cell_angle_alpha                90
_cell_angle_beta                 90.869(15)
_cell_angle_gamma                90
_cell_volume                     1872.49
_exptl_crystal_colour            colorless
_exptl_crystal_description       plate
_cell_formula_units_Z            4
_exptl_crystal_recrystallization_method 'diethyl ether'
loop_
_atom_site_label
_atom_site_type_symbol
_atom_site_fract_x
_atom_site_fract_y
_atom_site_fract_z
O1 O 0.7455(2) 0.42617(13) 0.46421(8)
O2 O 0.8645(2) 0.33826(14) 0.37355(9)
O3 O 0.6589(3) 0.28917(17) 0.27009(9)
H1 H 0.7535 0.2893 0.2900
O4 O 0.6359(3) 0.34239(16) 0.65315(9)
H2 H 0.6551 0.3133 0.6895
C1 C 0.9806(4) 0.1809(2) 0.49894(15)
H3 H 1.0634 0.2236 0.4736
H4 H 0.9576 0.1133 0.4752
C2 C 1.0524(4) 0.1580(3) 0.57090(16)
H5 H 1.0767 0.0810 0.5767
H6 H 1.1594 0.1986 0.5792
C3 C 0.9103(4) 0.1945(2) 0.61869(15)
H7 H 0.9362 0.2663 0.6366
H8 H 0.8999 0.1438 0.6557
C4 C 0.7412(3) 0.1966(2) 0.57583(12)
C5 C 0.8102(3) 0.24501(19) 0.50931(12)
C6 C 0.6779(4) 0.0785(2) 0.56621(14)
H9 H 0.5721 0.0782 0.5397
H10 H 0.6560 0.0465 0.6092
H11 H 0.7661 0.0372 0.5437
C7 C 0.8507(3) 0.3697(2) 0.51500(13)
H12 H 0.8219 0.3960 0.5594
H13 H 0.9740 0.3829 0.5077
C8 C 0.7117(3) 0.34909(19) 0.41335(11)
C9 C 0.6729(3) 0.24504(18) 0.45212(11)
C10 C 0.4862(3) 0.27136(19) 0.47926(12)
H14 H 0.4163 0.2045 0.4788
C11 C 0.4836(3) 0.3205(2) 0.54994(12)
H15 H 0.5278 0.3944 0.5473
H16 H 0.3628 0.3250 0.5637
C12 C 0.5868(4) 0.2611(2) 0.60476(12)
H17 H 0.5081 0.2094 0.6264
C13 C 0.4050(3) 0.3534(2) 0.42815(12)
H18 H 0.2981 0.3241 0.4085
H19 H 0.3780 0.4217 0.4501
C14 C 0.5425(3) 0.37100(19) 0.37377(12)
H20 H 0.5386 0.4450 0.3554
C15 C 0.5196(3) 0.2827(2) 0.31813(12)
C16 C 0.5194(4) 0.1691(2) 0.35013(13)
H21 H 0.4081 0.1579 0.3718
H22 H 0.5293 0.1151 0.3149
C17 C 0.6667(3) 0.1507(2) 0.40188(12)
H23 H 0.7777 0.1454 0.3792
H24 H 0.6471 0.0828 0.4255
C18 C 0.9306(4) 0.4410(3) 0.34938(16)
H25 H 1.0324 0.4283 0.3229
H26 H 0.9610 0.4867 0.3868
H27 H 0.8424 0.4762 0.3224
C19 C 0.3549(4) 0.3052(2) 0.27619(13)
C20 C 0.2298(5) 0.2328(3) 0.2664(2)
C21 C 0.3447(4) 0.4144(3) 0.24349(15)
H28 H 0.2530 0.4141 0.2101
H29 H 0.4540 0.4304 0.2227
H30 H 0.3205 0.4688 0.2767
H31 H 0.128(5) 0.254(3) 0.233(2)
H32 H 0.228(5) 0.162(3) 0.2876(19)
loop_
_geom_bond_atom_site_label_1
_geom_bond_atom_site_label_2
_geom_bond_site_symmetry_1
_geom_bond_site_symmetry_2
O1 C7 1_555 1_555
O2 C8 1_555 1_555
O3 H1 1_555 1_555
O4 H2 1_555 1_555
C1 H3 1_555 1_555
H4 C1 1_555 1_555
C2 C1 1_555 1_555
H5 C2 1_555 1_555
H6 C2 1_555 1_555
C3 C2 1_555 1_555
H7 C3 1_555 1_555
H8 C3 1_555 1_555
C4 C3 1_555 1_555
C5 C1 1_555 1_555
C6 C4 1_555 1_555
H9 C6 1_555 1_555
H10 C6 1_555 1_555
H11 C6 1_555 1_555
C7 C5 1_555 1_555
H12 C7 1_555 1_555
H13 C7 1_555 1_555
C8 O1 1_555 1_555
C9 C5 1_555 1_555
C10 C9 1_555 1_555
H14 C10 1_555 1_555
C11 C10 1_555 1_555
H15 C11 1_555 1_555
H16 C11 1_555 1_555
C12 O4 1_555 1_555
H17 C12 1_555 1_555
C13 C10 1_555 1_555
H18 C13 1_555 1_555
H19 C13 1_555 1_555
C14 C8 1_555 1_555
H20 C14 1_555 1_555
C15 O3 1_555 1_555
C16 C15 1_555 1_555
H21 C16 1_555 1_555
H22 C16 1_555 1_555
C17 C9 1_555 1_555
H23 C17 1_555 1_555
H24 C17 1_555 1_555
C18 O2 1_555 1_555
H25 C18 1_555 1_555
H26 C18 1_555 1_555
H27 C18 1_555 1_555
C19 C15 1_555 1_555
C20 C19 1_555 1_555
C21 C19 1_555 1_555
H28 C21 1_555 1_555
H29 C21 1_555 1_555
H30 C21 1_555 1_555
H31 C20 1_555 1_555
H32 C20 1_555 1_555
C4 C5 1_555 1_555
C4 C12 1_555 1_555
C8 C9 1_555 1_555
C11 C12 1_555 1_555
C13 C14 1_555 1_555
C14 C15 1_555 1_555
C16 C17 1_555 1_555

#END
