
#######################################################################
#
#                 Cambridge Crystallographic Data Centre
#                                CCDC 
#
#######################################################################
#
# If this CIF has been generated from an entry in the Cambridge 
# Structural Database, then it will include bibliographic, chemical, 
# crystal, experimental, refinement or atomic coordinate data resulting 
# from the CCDC's data processing and validation procedures.
#
#######################################################################

data_COCGIL
_chemical_formula_moiety         'C20 H13 Br1 N2 O1'
_chemical_name_systematic        
(S)-3-Amino-1-(4-bromophenyl)-1H-benzo(f)chromene-2-carbonitrile
_symmetry_cell_setting           monoclinic
_symmetry_space_group_name_H-M   'P 21'
_symmetry_Int_Tables_number      4
_space_group_name_Hall           'P 2yb'
loop_
_symmetry_equiv_pos_site_id
_symmetry_equiv_pos_as_xyz
1 x,y,z
2 -x,1/2+y,-z
_cell_length_a                   10.303(2)
_cell_length_b                   6.1937(12)
_cell_length_c                   12.804(3)
_cell_angle_alpha                90
_cell_angle_beta                 98.378(3)
_cell_angle_gamma                90
_cell_volume                     808.351
_exptl_crystal_colour            colorless
_exptl_crystal_description       prismatic
_chemical_melting_point          221-222deg.C
_cell_formula_units_Z            2
loop_
_atom_site_label
_atom_site_type_symbol
_atom_site_fract_x
_atom_site_fract_y
_atom_site_fract_z
Br1 Br 0.73665(6) 1.21108(17) 0.46766(5)
O1 O 0.0477(4) 0.6386(6) 0.2052(3)
N1 N -0.0548(5) 0.7202(12) 0.3403(4)
N2 N 0.0494(5) 1.2526(10) 0.4224(4)
C1 C 0.0328(5) 0.7885(9) 0.2790(4)
C2 C 0.0939(5) 0.9818(9) 0.2822(3)
C3 C 0.1906(5) 1.0438(9) 0.2098(4)
H1 H 0.1616 1.1820 0.1772
C4 C 0.1880(5) 0.8801(9) 0.1219(4)
C5 C 0.1169(4) 0.6922(10) 0.1231(3)
C6 C 0.1024(6) 0.5443(9) 0.0409(4)
H2 H 0.0522 0.4205 0.0445
C7 C 0.1618(6) 0.5822(11) -0.0440(4)
H3 H 0.1517 0.4836 -0.0994
C8 C 0.2384(5) 0.7661(9) -0.0510(4)
C9 C 0.2516(5) 0.9183(10) 0.0335(3)
C10 C 0.3299(6) 1.1030(10) 0.0244(4)
H4 H 0.3411 1.2030 0.0792
C11 C 0.3898(6) 1.1388(11) -0.0628(5)
H5 H 0.4395 1.2629 -0.0674
C12 C 0.3756(7) 0.9851(15) -0.1463(5)
H6 H 0.4166 1.0079 -0.2054
C13 C 0.3020(7) 0.8050(12) -0.1395(5)
H7 H 0.2933 0.7053 -0.1944
C14 C 0.3273(5) 1.0797(9) 0.2727(4)
C15 C 0.4223(5) 0.9199(9) 0.2856(4)
H8 H 0.4039 0.7853 0.2548
C16 C 0.5446(6) 0.9577(11) 0.3440(4)
H9 H 0.6088 0.8511 0.3517
C17 C 0.5680(5) 1.1566(11) 0.3900(4)
C18 C 0.4767(6) 1.3154(11) 0.3796(4)
H10 H 0.4952 1.4486 0.4120
C19 C 0.3557(6) 1.2771(9) 0.3201(4)
H11 H 0.2928 1.3858 0.3121
C20 C 0.0688(5) 1.1291(10) 0.3599(4)
H12 H -0.084(8) 0.599(6) 0.354(4)
H13 H -0.051(5) 0.778(7) 0.401(2)
loop_
_geom_bond_atom_site_label_1
_geom_bond_atom_site_label_2
_geom_bond_site_symmetry_1
_geom_bond_site_symmetry_2
Br1 C17 1_555 1_555
O1 C1 1_555 1_555
N1 C1 1_555 1_555
N2 C20 1_555 1_555
C1 C2 1_555 1_555
C2 C3 1_555 1_555
C3 H1 1_555 1_555
C4 C3 1_555 1_555
C5 O1 1_555 1_555
C6 C5 1_555 1_555
H2 C6 1_555 1_555
C7 C6 1_555 1_555
H3 C7 1_555 1_555
C8 C7 1_555 1_555
C9 C4 1_555 1_555
C10 C9 1_555 1_555
H4 C10 1_555 1_555
C11 C10 1_555 1_555
H5 C11 1_555 1_555
C12 C11 1_555 1_555
H6 C12 1_555 1_555
C13 C8 1_555 1_555
H7 C13 1_555 1_555
C14 C3 1_555 1_555
C15 C14 1_555 1_555
H8 C15 1_555 1_555
C16 C15 1_555 1_555
H9 C16 1_555 1_555
C17 C16 1_555 1_555
C18 C17 1_555 1_555
H10 C18 1_555 1_555
C19 C14 1_555 1_555
H11 C19 1_555 1_555
C20 C2 1_555 1_555
H12 N1 1_555 1_555
H13 N1 1_555 1_555
C4 C5 1_555 1_555
C8 C9 1_555 1_555
C12 C13 1_555 1_555
C18 C19 1_555 1_555

#END
