
#######################################################################
#
#                 Cambridge Crystallographic Data Centre
#                                CCDC 
#
#######################################################################
#
# If this CIF has been generated from an entry in the Cambridge 
# Structural Database, then it will include bibliographic, chemical, 
# crystal, experimental, refinement or atomic coordinate data resulting 
# from the CCDC's data processing and validation procedures.
#
#######################################################################

data_COCLOX
_chemical_formula_moiety         'C26 H14 N2 S8'
_chemical_name_systematic        
4,4'-(2,5-bis(1,3-Dithiol-2-ylidene)dihydro[1,3]dithiolo[3,4]cyclobuta[1,2-d][1,3]dithiole-3a,3b-diyl)dibenzonitrile
_symmetry_cell_setting           monoclinic
_symmetry_space_group_name_H-M   'P 21/n'
_symmetry_Int_Tables_number      14
_space_group_name_Hall           '-P 2yn'
loop_
_symmetry_equiv_pos_site_id
_symmetry_equiv_pos_as_xyz
1 x,y,z
2 1/2-x,1/2+y,1/2-z
3 -x,-y,-z
4 1/2+x,1/2-y,1/2+z
_cell_length_a                   11.274(2)
_cell_length_b                   8.2761(17)
_cell_length_c                   27.958(6)
_cell_angle_alpha                90
_cell_angle_beta                 95.47(3)
_cell_angle_gamma                90
_cell_volume                     2596.74
_exptl_crystal_colour            orange
_exptl_crystal_description       block
_cell_formula_units_Z            4
loop_
_atom_site_label
_atom_site_type_symbol
_atom_site_fract_x
_atom_site_fract_y
_atom_site_fract_z
C1 C 0.6636(11) 0.2325(16) 0.0687(4)
H1 H 0.6480 0.1507 0.0451
C2 C 0.7479(11) 0.336(2) 0.0652(4)
H2 H 0.7969 0.3310 0.0394
S1 S 0.5789(3) 0.2451(4) 0.11740(10)
S2 S 0.7692(3) 0.4858(4) 0.10927(12)
C3 C 0.6582(8) 0.4129(11) 0.1449(4)
C4 C 0.6396(8) 0.4711(10) 0.1877(3)
S3 S 0.5352(4) 0.3849(5) 0.22214(15)
S4 S 0.7329(3) 0.6187(4) 0.21563(11)
C5 C 0.5482(7) 0.5256(10) 0.2726(3)
C6 C 0.6481(8) 0.6522(10) 0.2664(3)
H3 H 0.7029 0.6599 0.2966
C7 C 0.4646(10) 0.3173(15) 0.3221(4)
H4 H 0.4110 0.2950 0.2946
C8 C 0.4499(9) 0.2391(16) 0.3645(3)
H5 H 0.3908 0.1578 0.3657
C9 C 0.5218(9) 0.2799(14) 0.4055(3)
C10 C 0.6132(9) 0.3902(15) 0.4015(3)
H6 H 0.6658 0.4154 0.4291
C11 C 0.6293(9) 0.4644(14) 0.3579(3)
H7 H 0.6914 0.5407 0.3555
C12 C 0.5534(8) 0.4248(11) 0.3185(3)
C13 C 0.4964(11) 0.2127(18) 0.4513(4)
N1 N 0.4774(13) 0.163(2) 0.4869(3)
C14 C 0.4870(8) 0.6847(11) 0.0494(3)
H8 H 0.5219 0.6922 0.0198
C15 C 0.4016(8) 0.5800(12) 0.0556(3)
H9 H 0.3714 0.5116 0.0299
S5 S 0.53220(18) 0.8081(3) 0.09788(7)
S6 S 0.34518(19) 0.5686(3) 0.11090(7)
C16 C 0.4381(6) 0.7217(9) 0.1368(2)
C17 C 0.4360(6) 0.7647(8) 0.1833(2)
S7 S 0.3395(9) 0.6776(12) 0.2201(3)
C18 C 0.4506(7) 0.6748(10) 0.2715(3)
C19 C 0.5547(8) 0.7944(10) 0.2641(3)
H10 H 0.5703 0.8659 0.2928
S8 S 0.5280(9) 0.9104(9) 0.2125(3)
C20 C 0.3859(7) 0.6882(11) 0.3168(3)
C21 C 0.2799(8) 0.6090(12) 0.3207(3)
H11 H 0.2405 0.5594 0.2930
C22 C 0.2289(9) 0.5994(13) 0.3637(3)
H12 H 0.1560 0.5432 0.3656
C23 C 0.2868(10) 0.6739(15) 0.4040(4)
C24 C 0.3895(9) 0.7578(16) 0.4015(4)
H13 H 0.4260 0.8130 0.4288
C25 C 0.4402(9) 0.7610(14) 0.3581(3)
H14 H 0.5142 0.8147 0.3565
C26 C 0.2345(12) 0.662(2) 0.4500(4)
N2 N 0.1950(13) 0.643(2) 0.4854(4)
C27? C 0.672(4) 0.180(5) 0.0571(14)
H15? H 0.6616 0.0845 0.0382
C28? C 0.751(3) 0.286(4) 0.0487(12)
H16? H 0.8008 0.2694 0.0236
S9? S 0.5865(16) 0.218(2) 0.1038(5)
S10? S 0.7653(10) 0.4597(18) 0.0842(5)
C29? C 0.669(3) 0.390(4) 0.1273(9)
C30? C 0.663(3) 0.445(3) 0.1716(8)
S11? S 0.5666(14) 0.3649(19) 0.2100(5)
S12? S 0.7459(10) 0.6140(14) 0.1934(4)
C31? C 0.624(3) 0.472(4) 0.2610(10)
C32? C 0.705(4) 0.584(5) 0.2542(14)
H17? H 0.7401 0.6465 0.2802
C33? C 0.484(3) 0.343(5) 0.3118(11)
H18? H 0.4432 0.2974 0.2836
C34? C 0.445(3) 0.307(5) 0.3555(9)
H19? H 0.3768 0.2400 0.3571
C35? C 0.503(3) 0.367(5) 0.3973(10)
C36? C 0.602(3) 0.464(5) 0.3932(11)
H20? H 0.6467 0.5025 0.4215
C37? C 0.637(4) 0.505(5) 0.3484(13)
H21? H 0.7023 0.5766 0.3460
C38? C 0.578(3) 0.441(4) 0.3075(11)
C39? C 0.462(3) 0.328(5) 0.4434(10)
N3? N 0.432(4) 0.302(6) 0.4797(11)
C40? C 0.269(3) 0.690(5) 0.4145(10)
C41? C 0.369(3) 0.780(5) 0.4140(10)
H22? H 0.4072 0.8238 0.4430
C42? C 0.415(3) 0.809(4) 0.3706(10)
H23? H 0.4878 0.8661 0.3704
C43? C 0.218(5) 0.655(8) 0.4597(14)
N4? N 0.181(5) 0.625(7) 0.4947(12)
S13? S 0.350(4) 0.680(6) 0.2313(11)
C44? C 0.402(3) 0.789(4) 0.2806(12)
C45? C 0.482(3) 0.906(4) 0.2720(10)
H24? H 0.5122 0.9753 0.2975
S14? S 0.535(4) 0.935(5) 0.2076(16)
C46? C 0.357(2) 0.755(3) 0.3272(8)
C47? C 0.255(2) 0.666(3) 0.3288(10)
H25? H 0.2150 0.6268 0.2997
C48? C 0.210(3) 0.633(4) 0.3717(9)
H26? H 0.1387 0.5718 0.3722
loop_
_geom_bond_atom_site_label_1
_geom_bond_atom_site_label_2
_geom_bond_site_symmetry_1
_geom_bond_site_symmetry_2
C1 H1 1_555 1_555
C2 C1 1_555 1_555
H2 C2 1_555 1_555
S1 C1 1_555 1_555
S2 C2 1_555 1_555
C3 S1 1_555 1_555
C4 C3 1_555 1_555
S3 C4 1_555 1_555
S4 C4 1_555 1_555
C5 S3 1_555 1_555
C6 S4 1_555 1_555
H3 C6 1_555 1_555
C7 H4 1_555 1_555
C8 C7 1_555 1_555
H5 C8 1_555 1_555
C9 C8 1_555 1_555
C10 C9 1_555 1_555
H6 C10 1_555 1_555
C11 C10 1_555 1_555
H7 C11 1_555 1_555
C12 C5 1_555 1_555
C13 C9 1_555 1_555
N1 C13 1_555 1_555
C14 H8 1_555 1_555
C15 C14 1_555 1_555
H9 C15 1_555 1_555
S5 C14 1_555 1_555
S6 C15 1_555 1_555
C16 S5 1_555 1_555
C17 C16 1_555 1_555
S7 C17 1_555 1_555
C18 C5 1_555 1_555
C19 C6 1_555 1_555
H10 C19 1_555 1_555
S8 C17 1_555 1_555
C20 C18 1_555 1_555
C21 C20 1_555 1_555
H11 C21 1_555 1_555
C22 C21 1_555 1_555
H12 C22 1_555 1_555
C23 C22 1_555 1_555
C24 C23 1_555 1_555
H13 C24 1_555 1_555
C25 C20 1_555 1_555
H14 C25 1_555 1_555
C26 C23 1_555 1_555
N2 C26 1_555 1_555
S2 C3 1_555 1_555
C5 C6 1_555 1_555
C7 C12 1_555 1_555
C11 C12 1_555 1_555
S6 C16 1_555 1_555
S7 C18 1_555 1_555
C18 C19 1_555 1_555
C19 S8 1_555 1_555
C24 C25 1_555 1_555

#END
