
#######################################################################
#
#                 Cambridge Crystallographic Data Centre
#                                CCDC 
#
#######################################################################
#
# If this CIF has been generated from an entry in the Cambridge 
# Structural Database, then it will include bibliographic, chemical, 
# crystal, experimental, refinement or atomic coordinate data resulting 
# from the CCDC's data processing and validation procedures.
#
#######################################################################

data_COCXID
_chemical_formula_moiety         'C22 H28 O4 Si1'
_chemical_name_systematic        
6,6'-di-t-butyl-4H,4'H-2,2'-spirobi[[1,3,2]benzodioxasiline]
_symmetry_cell_setting           monoclinic
_symmetry_space_group_name_H-M   'P 21/c'
_symmetry_Int_Tables_number      14
_space_group_name_Hall           '-P 2ybc'
loop_
_symmetry_equiv_pos_site_id
_symmetry_equiv_pos_as_xyz
1 x,y,z
2 -x,1/2+y,1/2-z
3 -x,-y,-z
4 x,1/2-y,1/2+z
_cell_length_a                   6.1078(3)
_cell_length_b                   18.7764(9)
_cell_length_c                   17.6146(7)
_cell_angle_alpha                90
_cell_angle_beta                 94.832(4)
_cell_angle_gamma                90
_cell_volume                     2012.91
_exptl_crystal_colour            colorless
_exptl_crystal_description       needle
_cell_formula_units_Z            4
loop_
_atom_site_label
_atom_site_type_symbol
_atom_site_fract_x
_atom_site_fract_y
_atom_site_fract_z
C1 C 0.3397(4) 0.03602(14) -0.14007(15)
H1 H 0.2156 0.0480 -0.1758
H2 H 0.2834 0.0181 -0.0939
C2 C 0.4768(4) -0.02016(13) -0.17384(14)
C3 C 0.6836(4) -0.03485(14) -0.13734(14)
C4 C 0.8193(4) -0.08478(13) -0.16611(14)
H3 H 0.9575 -0.0938 -0.1418
C5 C 0.7475(4) -0.12145(14) -0.23177(15)
H4 H 0.8387 -0.1557 -0.2505
C6 C 0.5436(4) -0.10873(14) -0.27070(14)
C7 C 0.4118(4) -0.05721(13) -0.23981(14)
H5 H 0.2747 -0.0474 -0.2647
C8 C 0.4696(4) -0.14586(15) -0.34575(15)
C9 C 0.5354(7) -0.0991(2) -0.41101(17)
H6 H 0.4659 -0.0534 -0.4085
H7 H 0.4896 -0.1214 -0.4588
H8 H 0.6921 -0.0931 -0.4068
C10 C 0.2244(5) -0.1582(2) -0.35424(19)
H9 H 0.1836 -0.1881 -0.3135
H10 H 0.1843 -0.1811 -0.4022
H11 H 0.1494 -0.1134 -0.3525
C11 C 0.5791(6) -0.2185(2) -0.3518(2)
H12 H 0.5388 -0.2486 -0.3112
H13 H 0.7358 -0.2126 -0.3481
H14 H 0.5316 -0.2398 -0.3999
C12 C 1.0440(4) 0.16618(15) -0.03915(15)
H15 H 1.1435 0.1984 -0.0621
H16 H 1.1298 0.1270 -0.0163
C13 C 0.9315(4) 0.20474(14) 0.02127(14)
C14 C 0.7486(4) 0.17303(14) 0.04949(14)
C15 C 0.6416(4) 0.20501(14) 0.10615(14)
H17 H 0.5196 0.1834 0.1246
C16 C 0.7184(4) 0.27036(14) 0.13565(14)
H18 H 0.6476 0.2915 0.1746
C17 C 0.8974(4) 0.30456(14) 0.10847(14)
C18 C 1.0013(4) 0.26978(14) 0.05130(14)
H19 H 1.1229 0.2913 0.0326
C19 C 0.9808(5) 0.37701(15) 0.13798(15)
C20 C 1.2148(5) 0.3715(2) 0.1691(2)
H20 H 1.3004 0.3513 0.1311
H21 H 1.2250 0.3416 0.2134
H22 H 1.2699 0.4181 0.1826
C21 C 0.9626(7) 0.43103(19) 0.0713(2)
H23 H 1.0461 0.4141 0.0311
H24 H 1.0190 0.4763 0.0889
H25 H 0.8113 0.4361 0.0524
C22 C 0.8425(5) 0.40818(17) 0.19767(19)
H26 H 0.6922 0.4114 0.1771
H27 H 0.8960 0.4548 0.2118
H28 H 0.8520 0.3780 0.2418
O1 O 0.7530(3) 0.00253(9) -0.07121(10)
O2 O 0.4715(3) 0.09904(9) -0.12279(10)
O3 O 0.6756(3) 0.10701(9) 0.02092(10)
O4 O 0.8836(3) 0.13892(10) -0.09736(9)
Si1 Si 0.69559(12) 0.08770(4) -0.06852(4)
loop_
_geom_bond_atom_site_label_1
_geom_bond_atom_site_label_2
_geom_bond_site_symmetry_1
_geom_bond_site_symmetry_2
C1 H1 1_555 1_555
H2 C1 1_555 1_555
C2 C1 1_555 1_555
C3 C2 1_555 1_555
C4 C3 1_555 1_555
H3 C4 1_555 1_555
C5 C4 1_555 1_555
H4 C5 1_555 1_555
C6 C5 1_555 1_555
C7 C2 1_555 1_555
H5 C7 1_555 1_555
C8 C6 1_555 1_555
C9 C8 1_555 1_555
H6 C9 1_555 1_555
H7 C9 1_555 1_555
H8 C9 1_555 1_555
C10 C8 1_555 1_555
H9 C10 1_555 1_555
H10 C10 1_555 1_555
H11 C10 1_555 1_555
C11 C8 1_555 1_555
H12 C11 1_555 1_555
H13 C11 1_555 1_555
H14 C11 1_555 1_555
C12 H15 1_555 1_555
H16 C12 1_555 1_555
C13 C12 1_555 1_555
C14 C13 1_555 1_555
C15 C14 1_555 1_555
H17 C15 1_555 1_555
C16 C15 1_555 1_555
H18 C16 1_555 1_555
C17 C16 1_555 1_555
C18 C13 1_555 1_555
H19 C18 1_555 1_555
C19 C17 1_555 1_555
C20 C19 1_555 1_555
H20 C20 1_555 1_555
H21 C20 1_555 1_555
H22 C20 1_555 1_555
C21 C19 1_555 1_555
H23 C21 1_555 1_555
H24 C21 1_555 1_555
H25 C21 1_555 1_555
C22 C19 1_555 1_555
H26 C22 1_555 1_555
H27 C22 1_555 1_555
H28 C22 1_555 1_555
O1 C3 1_555 1_555
O2 C1 1_555 1_555
O3 C14 1_555 1_555
O4 C12 1_555 1_555
Si1 O1 1_555 1_555
C6 C7 1_555 1_555
C17 C18 1_555 1_555
O2 Si1 1_555 1_555
O3 Si1 1_555 1_555
O4 Si1 1_555 1_555

#END
