
#######################################################################
#
#                 Cambridge Crystallographic Data Centre
#                                CCDC 
#
#######################################################################
#
# If this CIF has been generated from an entry in the Cambridge 
# Structural Database, then it will include bibliographic, chemical, 
# crystal, experimental, refinement or atomic coordinate data resulting 
# from the CCDC's data processing and validation procedures.
#
#######################################################################

data_COCZIF
_chemical_formula_moiety         'C29 H27 Cl1 N6 O5 S2'
_chemical_name_systematic        
((3-Chlorophenyl)(5-((2-methyl-1,3-dithian-2-yl)methyl)-2-furyl)methyl)(3-((2,4-dinitrophenyl)hydrazono)propyl)malononitrile
_symmetry_cell_setting           monoclinic
_symmetry_space_group_name_H-M   'C 2'
_symmetry_Int_Tables_number      5
_space_group_name_Hall           'C 2y'
loop_
_symmetry_equiv_pos_site_id
_symmetry_equiv_pos_as_xyz
1 x,y,z
2 -x,y,-z
3 1/2+x,1/2+y,z
4 1/2-x,1/2+y,-z
_cell_length_a                   37.1283(19)
_cell_length_b                   7.9035(4)
_cell_length_c                   10.3537(7)
_cell_angle_alpha                90
_cell_angle_beta                 93.769(5)
_cell_angle_gamma                90
_cell_volume                     3031.66
_cell_formula_units_Z            4
loop_
_atom_site_label
_atom_site_type_symbol
_atom_site_fract_x
_atom_site_fract_y
_atom_site_fract_z
Cl1 Cl 0.24556(2) 0.22889(10) 0.82151(8)
S1 S 0.32275(3) -0.33676(12) 0.40929(9)
S2 S 0.28440(2) -0.20170(11) 0.63552(9)
O1 O 0.36237(6) -0.1473(3) 0.8391(2)
C1 C 0.31775(9) -0.3513(4) 0.5827(3)
N1 N 0.38214(8) 0.2294(4) 0.7380(3)
C2 C 0.43060(11) -0.0077(5) 0.9608(3)
C3 C 0.27350(10) 0.3265(4) 1.0572(3)
H1 H 0.2522 0.3919 1.0629
N2 N 0.49154(8) 0.6681(4) 1.2098(3)
H2 H 0.4806 0.7613 1.1822
C4 C 0.35512(9) -0.3104(4) 0.7981(3)
C5 C 0.33567(9) 0.1315(4) 1.0399(3)
N3 N 0.48406(8) 0.5148(4) 1.1502(3)
C6 C 0.40066(9) 0.1136(4) 0.9714(3)
C7 C 0.38996(9) 0.1736(4) 0.8385(3)
C8 C 0.35549(9) -0.3314(4) 0.6556(3)
H3 H 0.3701 -0.4324 0.6377
H4 H 0.3676 -0.2320 0.6198
C9 C 0.36896(9) 0.0215(4) 1.0347(3)
H5 H 0.3775 -0.0022 1.1265
C10 C 0.33095(9) 0.2299(4) 1.1484(3)
H6 H 0.3491 0.2317 1.2176
O2 O 0.59116(8) 0.7879(6) 1.7140(3)
C11 C 0.30924(9) 0.1312(4) 0.9391(3)
H7 H 0.3121 0.0644 0.8642
C12 C 0.27871(9) 0.2291(4) 0.9485(3)
C13 C 0.36145(9) -0.1472(4) 0.9720(3)
N4 N 0.45426(9) -0.1005(4) 0.9577(3)
N5 N 0.58508(10) 0.6534(7) 1.6607(4)
C14 C 0.30469(10) 0.0045(4) 0.4339(3)
H8 H 0.3113 0.1212 0.4098
H9 H 0.2811 -0.0222 0.3885
C15 C 0.29986(10) 0.3258(4) 1.1562(4)
H10 H 0.2968 0.3919 1.2313
C16 C 0.30082(11) -0.0022(4) 0.5773(4)
H11 H 0.2841 0.0885 0.6007
H12 H 0.3246 0.0216 0.6224
C17 C 0.55213(11) 0.8116(7) 1.4887(4)
H13 H 0.5600 0.9121 1.5322
C18 C 0.30277(11) -0.5267(5) 0.6061(4)
H14 H 0.2804 -0.5429 0.5520
H15 H 0.2978 -0.5384 0.6975
H16 H 0.3205 -0.6122 0.5839
C19 C 0.34921(10) -0.4074(4) 0.8998(4)
H17 H 0.3432 -0.5243 0.8974
C20 C 0.45671(10) 0.5126(4) 1.0716(3)
H18 H 0.4424 0.6114 1.0583
C21 C 0.35351(9) -0.3033(4) 1.0136(3)
H19 H 0.3512 -0.3377 1.1006
O3 O 0.59488(10) 0.5107(6) 1.7011(3)
C22 C 0.51633(10) 0.6709(5) 1.3122(4)
C23 C 0.41425(9) 0.2683(4) 1.0528(3)
H20 H 0.3945 0.3519 1.0554
H21 H 0.4206 0.2311 1.1427
C24 C 0.56283(12) 0.6574(7) 1.5329(4)
C25 C 0.33258(11) -0.1156(4) 0.3881(4)
H22 H 0.3560 -0.0900 0.4352
H23 H 0.3353 -0.0945 0.2950
O4 O 0.49071(9) 0.9977(4) 1.2511(3)
C26 C 0.52875(11) 0.8181(5) 1.3752(4)
N6 N 0.51679(12) 0.9824(5) 1.3326(4)
C27 C 0.44698(10) 0.3536(5) 0.9994(4)
H24 H 0.4678 0.2749 1.0062
H25 H 0.4416 0.3804 0.9067
C28 C 0.55335(11) 0.5120(7) 1.4734(4)
H26 H 0.5621 0.4067 1.5067
C29 C 0.53078(12) 0.5185(6) 1.3640(4)
H27 H 0.5245 0.4156 1.3207
O5 O 0.53187(13) 1.1073(5) 1.3781(5)
loop_
_geom_bond_atom_site_label_1
_geom_bond_atom_site_label_2
_geom_bond_site_symmetry_1
_geom_bond_site_symmetry_2
Cl1 C12 1_555 1_555
S1 C1 1_555 1_555
S2 C1 1_555 1_555
O1 C4 1_555 1_555
C1 C8 1_555 1_555
N1 C7 1_555 1_555
C2 C6 1_555 1_555
C3 H1 1_555 1_555
N2 H2 1_555 1_555
C4 C8 1_555 1_555
C5 C9 1_555 1_555
N3 N2 1_555 1_555
C6 C7 1_555 1_555
C8 H3 1_555 1_555
H4 C8 1_555 1_555
C9 C6 1_555 1_555
H5 C9 1_555 1_555
C10 C5 1_555 1_555
H6 C10 1_555 1_555
O2 N5 1_555 1_555
C11 C5 1_555 1_555
H7 C11 1_555 1_555
C12 C3 1_555 1_555
C13 O1 1_555 1_555
N4 C2 1_555 1_555
N5 O3 1_555 1_555
C14 H8 1_555 1_555
H9 C14 1_555 1_555
C15 C3 1_555 1_555
H10 C15 1_555 1_555
C16 S2 1_555 1_555
H11 C16 1_555 1_555
H12 C16 1_555 1_555
C17 H13 1_555 1_555
C18 C1 1_555 1_555
H14 C18 1_555 1_555
H15 C18 1_555 1_555
H16 C18 1_555 1_555
C19 C4 1_555 1_555
H17 C19 1_555 1_555
C20 N3 1_555 1_555
H18 C20 1_555 1_555
C21 C13 1_555 1_555
H19 C21 1_555 1_555
C22 N2 1_555 1_555
C23 C6 1_555 1_555
H20 C23 1_555 1_555
H21 C23 1_555 1_555
C24 N5 1_555 1_555
C25 S1 1_555 1_555
H22 C25 1_555 1_555
H23 C25 1_555 1_555
O4 N6 1_555 1_555
C26 C17 1_555 1_555
N6 C26 1_555 1_555
C27 C20 1_555 1_555
H24 C27 1_555 1_555
H25 C27 1_555 1_555
C28 C24 1_555 1_555
H26 C28 1_555 1_555
C29 C22 1_555 1_555
H27 C29 1_555 1_555
O5 N6 1_555 1_555
C9 C13 1_555 1_555
C10 C15 1_555 1_555
C11 C12 1_555 1_555
C14 C16 1_555 1_555
C14 C25 1_555 1_555
C17 C24 1_555 1_555
C19 C21 1_555 1_555
C22 C26 1_555 1_555
C23 C27 1_555 1_555
C28 C29 1_555 1_555

#END
