
#######################################################################
#
#                 Cambridge Crystallographic Data Centre
#                                CCDC 
#
#######################################################################
#
# If this CIF has been generated from an entry in the Cambridge 
# Structural Database, then it will include bibliographic, chemical, 
# crystal, experimental, refinement or atomic coordinate data resulting 
# from the CCDC's data processing and validation procedures.
#
#######################################################################

data_COFDUY
_chemical_formula_moiety         'C41 H29 O2 P1,H2 O1'
_chemical_name_systematic        
'(6,12-Diphenyl-6H-naphtho[2,3-c]chromen-7-yl)(diphenyl)phosphine oxide monohydrate'
_symmetry_cell_setting           monoclinic
_symmetry_space_group_name_H-M   'P 21/n'
_symmetry_Int_Tables_number      14
_space_group_name_Hall           '-P 2yn'
loop_
_symmetry_equiv_pos_site_id
_symmetry_equiv_pos_as_xyz
1 x,y,z
2 1/2-x,1/2+y,1/2-z
3 -x,-y,-z
4 1/2+x,1/2-y,1/2+z
_cell_length_a                   16.0608(16)
_cell_length_b                   11.8250(12)
_cell_length_c                   17.8998(18)
_cell_angle_alpha                90
_cell_angle_beta                 112.165(2)
_cell_angle_gamma                90
_cell_volume                     3148.29
_exptl_crystal_colour            colorless
_exptl_crystal_description       block
_cell_formula_units_Z            4
loop_
_atom_site_label
_atom_site_type_symbol
_atom_site_fract_x
_atom_site_fract_y
_atom_site_fract_z
P1 P 0.51533(3) 0.24991(3) 0.16378(2)
O1 O 0.59339(8) 0.20496(10) 0.23254(7)
O2 O 0.42550(9) 0.06538(11) 0.33361(7)
C1 C 0.41423(10) 0.16282(13) 0.13846(9)
C2 C 0.40808(10) 0.08528(12) 0.19419(9)
C3 C 0.47486(11) 0.08160(14) 0.28121(9)
H1 H 0.5040 0.1568 0.2938
C4 C 0.37792(12) -0.03387(15) 0.31833(11)
C5 C 0.37452(14) -0.0936(2) 0.38399(13)
H2 H 0.4032 -0.0656 0.4367
C6 C 0.32811(14) -0.1950(2) 0.37042(15)
H3 H 0.3246 -0.2359 0.4142
C7 C 0.28698(13) -0.23643(17) 0.29299(15)
H4 H 0.2567 -0.3062 0.2844
C8 C 0.29008(12) -0.17577(15) 0.22817(13)
H5 H 0.2626 -0.2055 0.1758
C9 C 0.33368(11) -0.07037(14) 0.23900(11)
C10 C 0.33447(10) 0.00699(13) 0.17383(9)
C11 C 0.26651(10) 0.01127(13) 0.09774(10)
C12 C 0.26992(11) 0.09312(14) 0.04028(10)
C13 C 0.19876(12) 0.10266(16) -0.03659(11)
H6 H 0.1512 0.0504 -0.0512
C14 C 0.19815(13) 0.18565(18) -0.08925(12)
H7 H 0.1505 0.1901 -0.1398
C15 C 0.26835(13) 0.26479(17) -0.06850(12)
H8 H 0.2674 0.3227 -0.1048
C16 C 0.33799(12) 0.25770(15) 0.00440(11)
H9 H 0.3842 0.3118 0.0177
C17 C 0.34277(10) 0.17112(13) 0.06078(10)
C18 C 0.48743(11) 0.39053(13) 0.18567(10)
C19 C 0.55915(13) 0.46341(15) 0.22366(11)
H10 H 0.6179 0.4412 0.2311
C20 C 0.54424(15) 0.56848(16) 0.25054(13)
H11 H 0.5929 0.6171 0.2765
C21 C 0.45817(15) 0.60166(16) 0.23919(12)
H12 H 0.4483 0.6727 0.2579
C22 C 0.38644(14) 0.53119(16) 0.20057(12)
H13 H 0.3277 0.5550 0.1919
C23 C 0.40090(12) 0.42490(15) 0.17442(11)
H14 H 0.3520 0.3763 0.1491
C24 C 0.54399(11) 0.25209(13) 0.07541(10)
C25 C 0.55413(12) 0.35076(15) 0.03773(11)
H15 H 0.5436 0.4213 0.0566
C26 C 0.58002(13) 0.34492(17) -0.02817(12)
H16 H 0.5862 0.4116 -0.0542
C27 C 0.59663(14) 0.24168(18) -0.05533(13)
H17 H 0.6137 0.2381 -0.1000
C28 C 0.58828(15) 0.14344(18) -0.01711(13)
H18 H 0.6004 0.0732 -0.0354
C29 C 0.56203(13) 0.14818(16) 0.04809(11)
H19 H 0.5564 0.0811 0.0740
C30 C 0.54890(11) -0.00568(14) 0.29941(11)
C31 C 0.55804(13) -0.07652(16) 0.24204(14)
H20 H 0.5154 -0.0743 0.1889
C32 C 0.63017(15) -0.15171(18) 0.26228(18)
H21 H 0.6363 -0.1993 0.2226
C33 C 0.69242(15) -0.1564(2) 0.3403(2)
H22 H 0.7408 -0.2075 0.3540
C34 C 0.68363(16) -0.0866(2) 0.39762(18)
H23 H 0.7261 -0.0897 0.4508
C35 C 0.61264(13) -0.0114(2) 0.37801(13)
H24 H 0.6073 0.0362 0.4180
C36 C 0.18348(11) -0.05989(14) 0.07597(10)
C37 C 0.12307(11) -0.03734(15) 0.11249(11)
H25 H 0.1335 0.0243 0.1481
C38 C 0.04781(12) -0.10390(18) 0.09748(12)
H26 H 0.0082 -0.0888 0.1238
C39 C 0.03097(14) -0.19253(19) 0.04381(15)
H27 H -0.0196 -0.2389 0.0342
C40 C 0.08798(15) -0.2132(2) 0.00434(15)
H28 H 0.0751 -0.2721 -0.0336
C41 C 0.16456(13) -0.14773(17) 0.02008(13)
H29 H 0.2035 -0.1626 -0.0069
O3 O 0.75152(14) 0.5909(2) 0.25406(18)
H30 H 0.800(2) 0.634(3) 0.264(3)
H31 H 0.771(3) 0.521(2) 0.248(3)
loop_
_geom_bond_atom_site_label_1
_geom_bond_atom_site_label_2
_geom_bond_site_symmetry_1
_geom_bond_site_symmetry_2
P1 O1 1_555 1_555
O2 C3 1_555 1_555
C1 P1 1_555 1_555
C2 C1 1_555 1_555
C3 C2 1_555 1_555
H1 C3 1_555 1_555
C4 O2 1_555 1_555
C5 C4 1_555 1_555
H2 C5 1_555 1_555
C6 C5 1_555 1_555
H3 C6 1_555 1_555
C7 C6 1_555 1_555
H4 C7 1_555 1_555
C8 C7 1_555 1_555
H5 C8 1_555 1_555
C9 C4 1_555 1_555
C10 C2 1_555 1_555
C11 C10 1_555 1_555
C12 C11 1_555 1_555
C13 C12 1_555 1_555
H6 C13 1_555 1_555
C14 C13 1_555 1_555
H7 C14 1_555 1_555
C15 C14 1_555 1_555
H8 C15 1_555 1_555
C16 C15 1_555 1_555
H9 C16 1_555 1_555
C17 C1 1_555 1_555
C18 P1 1_555 1_555
C19 C18 1_555 1_555
H10 C19 1_555 1_555
C20 C19 1_555 1_555
H11 C20 1_555 1_555
C21 C20 1_555 1_555
H12 C21 1_555 1_555
C22 C21 1_555 1_555
H13 C22 1_555 1_555
C23 C18 1_555 1_555
H14 C23 1_555 1_555
C24 P1 1_555 1_555
C25 C24 1_555 1_555
H15 C25 1_555 1_555
C26 C25 1_555 1_555
H16 C26 1_555 1_555
C27 C26 1_555 1_555
H17 C27 1_555 1_555
C28 C27 1_555 1_555
H18 C28 1_555 1_555
C29 C24 1_555 1_555
H19 C29 1_555 1_555
C30 C3 1_555 1_555
C31 C30 1_555 1_555
H20 C31 1_555 1_555
C32 C31 1_555 1_555
H21 C32 1_555 1_555
C33 C32 1_555 1_555
H22 C33 1_555 1_555
C34 C33 1_555 1_555
H23 C34 1_555 1_555
C35 C30 1_555 1_555
H24 C35 1_555 1_555
C36 C11 1_555 1_555
C37 C36 1_555 1_555
H25 C37 1_555 1_555
C38 C37 1_555 1_555
H26 C38 1_555 1_555
C39 C38 1_555 1_555
H27 C39 1_555 1_555
C40 C39 1_555 1_555
H28 C40 1_555 1_555
C41 C36 1_555 1_555
H29 C41 1_555 1_555
O3 H30 1_555 1_555
H31 O3 1_555 1_555
C8 C9 1_555 1_555
C9 C10 1_555 1_555
C12 C17 1_555 1_555
C16 C17 1_555 1_555
C22 C23 1_555 1_555
C28 C29 1_555 1_555
C34 C35 1_555 1_555
C40 C41 1_555 1_555

#END
