
#######################################################################
#
#                 Cambridge Crystallographic Data Centre
#                                CCDC 
#
#######################################################################
#
# If this CIF has been generated from an entry in the Cambridge 
# Structural Database, then it will include bibliographic, chemical, 
# crystal, experimental, refinement or atomic coordinate data resulting 
# from the CCDC's data processing and validation procedures.
#
#######################################################################

data_COFLUE
_chemical_compound_source        'Leaves of Taiwania cryptomerioides'
_chemical_formula_moiety         'C36 H50 O13'
_chemical_name_systematic        
'12-Acetoxybeyer-15-ene-18-carboxy \b-D-glucopyranoside'
_symmetry_cell_setting           triclinic
_symmetry_space_group_name_H-M   'P 1'
_symmetry_Int_Tables_number      1
_space_group_name_Hall           'P 1'
loop_
_symmetry_equiv_pos_site_id
_symmetry_equiv_pos_as_xyz
1 x,y,z
_cell_length_a                   6.1132(13)
_cell_length_b                   10.245(4)
_cell_length_c                   15.216(4)
_cell_angle_alpha                82.40(3)
_cell_angle_beta                 82.188(21)
_cell_angle_gamma                76.620(24)
_cell_volume                     913.466
_chemical_melting_point          192-194deg.C
_cell_formula_units_Z            1
loop_
_atom_site_label
_atom_site_type_symbol
_atom_site_fract_x
_atom_site_fract_y
_atom_site_fract_z
O1 O 0.37161 0.77670 0.50321
O2 O 0.2925(5) 0.6004(3) 0.45178(18)
O3 O 0.5888(5) 0.4669(3) 0.38371(18)
O4 O -0.4122(5) 1.0878(3) 0.97227(19)
O5 O -0.1312(7) 1.0092(5) 1.05820(24)
O6 O 0.2546(4) 0.7806(3) 0.28785(19)
O7 O -0.0943(5) 0.7418(3) 0.3020(3)
O8 O 0.3930(5) 0.6326(3) 0.13868(18)
O9 O 0.6391(8) 0.7288(6) 0.0478(3)
O10 O 0.8543(5) 0.4549(3) 0.15501(19)
O11 O 0.6854(10) 0.3447(7) 0.0789(3)
O12 O 1.0076(5) 0.2783(4) 0.40564(22)
O13 O 1.3321(7) 0.2312(7) 0.3222(3)
C1 C 0.0132(7) 0.6791(5) 0.7856(3)
C2 C 0.0733(8) 0.5455(5) 0.7452(3)
C3 C 0.2098(7) 0.5581(5) 0.6537(3)
C4 C 0.0818(6) 0.6682(4) 0.5887(3)
C5 C 0.0007(6) 0.8023(4) 0.63123(24)
C6 C -0.1264(7) 0.9165(5) 0.57145(25)
C7 C -0.1341(7) 1.0516(5) 0.6049(3)
C8 C -0.2285(6) 1.0596(4) 0.70238(25)
C9 C -0.1256(6) 0.9314(4) 0.76252(23)
C10 C -0.1243(6) 0.7949(4) 0.72806(23)
C11 C -0.2269(7) 0.9419(5) 0.86054(24)
C12 C -0.2542(7) 1.0805(5) 0.8918(3)
C13 C -0.3454(7) 1.1976(4) 0.8243(3)
C14 C -0.1772(7) 1.1805(5) 0.7395(3)
C15 C -0.4864(7) 1.0950(5) 0.7213(3)
C16 C -0.5499(7) 1.1700(5) 0.7889(3)
C17 C -0.3821(9) 1.3343(6) 0.8589(4)
C18 C 0.2641(6) 0.6914(5) 0.5112(3)
C19 C -0.1070(8) 0.6189(6) 0.5532(3)
C20 C -0.3664(7) 0.7709(5) 0.7320(3)
C21 C 0.4665(6) 0.6020(4) 0.37903(24)
C22 C 0.3554(6) 0.6393(4) 0.29398(25)
C23 C 0.5261(6) 0.6132(4) 0.21236(24)
C24 C 0.6653(6) 0.4715(4) 0.22358(25)
C25 C 0.7676(6) 0.4444(4) 0.3125(3)
C26 C -0.3284(9) 1.0449(6) 1.0505(3)
C27 C -0.5142(11) 1.0507(7) 1.1261(3)
C28 C 0.0261(7) 0.8187(4) 0.2928(3)
C29 C -0.0459(9) 0.9678(5) 0.2860(4)
C30 C 0.4620(9) 0.6969(5) 0.0613(3)
C31 C 0.2894(12) 0.7207(8) -0.0026(4)
C32 C 0.8481(10) 0.3853(6) 0.0883(4)
C33 C 1.0581(11) 0.3743(8) 0.0253(4)
C34 C 0.8880(8) 0.2996(5) 0.3283(3)
C35 C 1.2317(8) 0.2403(6) 0.3946(4)
C36 C 1.3321(10) 0.2183(7) 0.4792(4)
H1 H 0.149 0.703 0.794
H2 H -0.074 0.669 0.843
H3 H -0.064 0.517 0.739
H4 H 0.158 0.477 0.785
H5 H 0.349 0.579 0.662
H6 H 0.242 0.473 0.630
H7 H 0.137 0.830 0.638
H8 H -0.056 0.914 0.512
H9 H -0.279 0.905 0.572
H10 H 0.016 1.066 0.596
H11 H -0.226 1.121 0.569
H12 H 0.031 0.935 0.763
H13 H -0.379 0.921 0.866
H14 H -0.140 0.874 0.898
H15 H -0.110 1.090 0.904
H16 H -0.025 1.164 0.753
H17 H -0.203 1.261 0.698
H18 H -0.588 1.067 0.689
H19 H -0.704 1.204 0.814
H20 H -0.441 1.406 0.816
H21 H -0.486 1.341 0.912
H22 H -0.242 1.350 0.873
H23 H -0.047 0.537 0.528
H24 H -0.222 0.608 0.600
H25 H -0.172 0.686 0.508
H26 H -0.455 0.842 0.696
H27 H -0.362 0.687 0.710
H28 H -0.437 0.770 0.792
H29 H 0.560 0.664 0.384
H30 H 0.242 0.587 0.295
H31 H 0.623 0.676 0.205
H32 H 0.571 0.409 0.222
H33 H 0.871 0.502 0.312
H34 H -0.458 1.020 1.183
H35 H -0.602 1.142 1.129
H36 H -0.618 0.996 1.119
H37 H -0.209 0.996 0.289
H38 H 0.002 1.006 0.332
H39 H 0.013 1.007 0.229
H40 H 0.341 0.767 -0.058
H41 H 0.258 0.639 -0.016
H42 H 0.148 0.776 0.020
H43 H 1.047 0.327 -0.025
H44 H 1.072 0.466 -0.003
H45 H 1.189 0.335 0.050
H46 H 0.992 0.274 0.277
H47 H 0.779 0.243 0.336
H48 H 1.495 0.193 0.469
H49 H 1.298 0.303 0.508
H50 H 1.280 0.153 0.521
loop_
_geom_bond_atom_site_label_1
_geom_bond_atom_site_label_2
_geom_bond_site_symmetry_1
_geom_bond_site_symmetry_2
O1 C18 1_555 1_555
O2 C18 1_555 1_555
O3 C21 1_555 1_555
O4 C12 1_555 1_555
O5 C26 1_555 1_555
O6 C22 1_555 1_555
O7 C28 1_555 1_555
O8 C23 1_555 1_555
O9 C30 1_555 1_555
O10 C24 1_555 1_555
O11 C32 1_555 1_555
O12 C34 1_555 1_555
O13 C35 1_555 1_555
C1 C2 1_555 1_555
C2 C3 1_555 1_555
C3 C4 1_555 1_555
C4 C5 1_555 1_555
C5 C6 1_555 1_555
C6 C7 1_555 1_555
C7 C8 1_555 1_555
C8 C9 1_555 1_555
C9 C10 1_555 1_555
C10 C1 1_555 1_555
C11 C9 1_555 1_555
C12 C11 1_555 1_555
C13 C12 1_555 1_555
C14 C8 1_555 1_555
C15 C8 1_555 1_555
C16 C13 1_555 1_555
C17 C13 1_555 1_555
C18 C4 1_555 1_555
C19 C4 1_555 1_555
C20 C10 1_555 1_555
C21 O2 1_555 1_555
C22 C21 1_555 1_555
C23 C22 1_555 1_555
C24 C23 1_555 1_555
C25 O3 1_555 1_555
C26 O4 1_555 1_555
C27 C26 1_555 1_555
C28 O6 1_555 1_555
C29 C28 1_555 1_555
C30 O8 1_555 1_555
C31 C30 1_555 1_555
C32 O10 1_555 1_555
C33 C32 1_555 1_555
C34 C25 1_555 1_555
C35 O12 1_555 1_555
C36 C35 1_555 1_555
H1 C1 1_555 1_555
H2 C1 1_555 1_555
H3 C2 1_555 1_555
H4 C2 1_555 1_555
H5 C3 1_555 1_555
H6 C3 1_555 1_555
H7 C5 1_555 1_555
H8 C6 1_555 1_555
H9 C6 1_555 1_555
H10 C7 1_555 1_555
H11 C7 1_555 1_555
H12 C9 1_555 1_555
H13 C11 1_555 1_555
H14 C11 1_555 1_555
H15 C12 1_555 1_555
H16 C14 1_555 1_555
H17 C14 1_555 1_555
H18 C15 1_555 1_555
H19 C16 1_555 1_555
H20 C17 1_555 1_555
H21 C17 1_555 1_555
H22 C17 1_555 1_555
H23 C19 1_555 1_555
H24 C19 1_555 1_555
H25 C19 1_555 1_555
H26 C20 1_555 1_555
H27 C20 1_555 1_555
H28 C20 1_555 1_555
H29 C21 1_555 1_555
H30 C22 1_555 1_555
H31 C23 1_555 1_555
H32 C24 1_555 1_555
H33 C25 1_555 1_555
H34 C27 1_555 1_555
H35 C27 1_555 1_555
H36 C27 1_555 1_555
H37 C29 1_555 1_555
H38 C29 1_555 1_555
H39 C29 1_555 1_555
H40 C31 1_555 1_555
H41 C31 1_555 1_555
H42 C31 1_555 1_555
H43 C33 1_555 1_555
H44 C33 1_555 1_555
H45 C33 1_555 1_555
H46 C34 1_555 1_555
H47 C34 1_555 1_555
H48 C36 1_555 1_555
H49 C36 1_555 1_555
H50 C36 1_555 1_555
C5 C10 1_555 1_555
C13 C14 1_555 1_555
C15 C16 1_555 1_555
C24 C25 1_555 1_555

#END
