
#######################################################################
#
#                 Cambridge Crystallographic Data Centre
#                                CCDC 
#
#######################################################################
#
# If this CIF has been generated from an entry in the Cambridge 
# Structural Database, then it will include bibliographic, chemical, 
# crystal, experimental, refinement or atomic coordinate data resulting 
# from the CCDC's data processing and validation procedures.
#
#######################################################################

data_COFZEE
_chemical_formula_moiety         'C34 H18 N4'
_chemical_name_systematic        
6,12-Diphenyltetracene-5,5,11,11-tetracarbonitrile
_symmetry_cell_setting           triclinic
_symmetry_space_group_name_H-M   'P -1'
_symmetry_Int_Tables_number      2
_space_group_name_Hall           '-P 1'
loop_
_symmetry_equiv_pos_site_id
_symmetry_equiv_pos_as_xyz
1 x,y,z
2 -x,-y,-z
_cell_length_a                   9.0249(7)
_cell_length_b                   10.7554(8)
_cell_length_c                   13.2401(11)
_cell_angle_alpha                105.920(3)
_cell_angle_beta                 106.257(3)
_cell_angle_gamma                91.949(3)
_cell_volume                     1177.89
_exptl_crystal_colour            'dull light yellow'
_exptl_crystal_description       irregular
_chemical_melting_point          '568 K'
_cell_formula_units_Z            2
_chemical_properties_physical    Heat-sensitive
_exptl_crystal_preparation       Luminescent
loop_
_atom_site_label
_atom_site_type_symbol
_atom_site_fract_x
_atom_site_fract_y
_atom_site_fract_z
N1 N 0.62855(18) 1.18692(15) 0.76779(13)
N2 N 1.02870(18) 1.40044(14) 0.78070(12)
N3 N 0.86120(18) 0.57189(15) 0.57285(13)
N4 N 0.66744(19) 0.81935(16) 0.79954(13)
C1 C 1.2802(2) 1.43162(17) 1.04395(15)
H1 H 1.3282 1.5151 1.0917
C2 C 1.1388(2) 1.38166(18) 1.04709(15)
H2 H 1.0903 1.4305 1.0977
C3 C 1.0679(2) 1.26071(16) 0.97673(14)
H3 H 0.9718 1.2257 0.9799
C4 C 1.13744(19) 1.19066(16) 0.90157(14)
C5 C 1.06053(19) 1.06220(16) 0.82332(14)
C6 C 0.94659(19) 1.04987(15) 0.72824(14)
C7 C 0.86920(19) 0.92329(15) 0.65136(14)
C8 C 0.77814(19) 0.90960(16) 0.54754(14)
C9 C 0.68955(19) 0.78295(16) 0.47243(14)
C10 C 0.55795(19) 0.73213(17) 0.48922(15)
H4 H 0.5201 0.7806 0.5465
C11 C 0.4815(2) 0.61057(17) 0.42250(15)
H5 H 0.3924 0.5756 0.4349
C12 C 0.5347(2) 0.54043(17) 0.33818(15)
H6 H 0.4835 0.4566 0.2935
C13 C 1.11926(19) 0.94659(16) 0.85186(14)
C14 C 1.04431(19) 0.82223(16) 0.79000(14)
C15 C 1.1053(2) 0.71273(17) 0.81221(15)
H7 H 1.0541 0.6284 0.7689
C16 C 1.2405(2) 0.72615(17) 0.89727(15)
H8 H 1.2835 0.6509 0.9111
C17 C 1.3136(2) 0.84829(17) 0.96223(15)
H9 H 1.4047 0.8572 1.0221
C18 C 1.2532(2) 0.95817(16) 0.93976(14)
H10 H 1.3035 1.0422 0.9846
C19 C 0.88572(19) 0.80945(16) 0.70159(14)
C20 C 0.87484(19) 1.16728(16) 0.69716(14)
C21 C 0.7332(2) 1.17888(16) 0.73498(14)
C22 C 0.82712(19) 1.14726(16) 0.57225(14)
C23 C 0.76823(19) 1.02155(16) 0.50296(14)
C24 C 0.7020(2) 1.00553(17) 0.39057(14)
H11 H 0.6561 0.9217 0.3423
C25 C 0.7024(2) 1.11060(17) 0.34859(15)
H12 H 0.6560 1.0985 0.2722
C26 C 0.7700(2) 1.23263(18) 0.41777(15)
H13 H 0.7748 1.3036 0.3886
C27 C 0.8309(2) 1.25092(17) 0.52985(15)
H14 H 0.8755 1.3351 0.5778
C28 C 0.6623(2) 0.59234(18) 0.31897(15)
H15 H 0.6974 0.5449 0.2599
C29 C 0.7395(2) 0.71284(16) 0.38512(14)
H16 H 0.8270 0.7481 0.3711
C30 C 0.9706(2) 1.29570(16) 0.75151(14)
C31 C 0.8650(2) 0.67833(17) 0.62155(15)
C32 C 0.7626(2) 0.81266(16) 0.75703(14)
C33 C 1.2812(2) 1.23995(17) 0.90028(15)
H17 H 1.3307 1.1909 0.8505
C34 C 1.3514(2) 1.35998(17) 0.97128(16)
H18 H 1.4495 1.3937 0.9702
loop_
_geom_bond_atom_site_label_1
_geom_bond_atom_site_label_2
_geom_bond_site_symmetry_1
_geom_bond_site_symmetry_2
N1 C21 1_555 1_555
N2 C30 1_555 1_555
N3 C31 1_555 1_555
N4 C32 1_555 1_555
C1 H1 1_555 1_555
C2 C1 1_555 1_555
H2 C2 1_555 1_555
C3 C2 1_555 1_555
H3 C3 1_555 1_555
C4 C3 1_555 1_555
C5 C4 1_555 1_555
C6 C5 1_555 1_555
C7 C6 1_555 1_555
C8 C7 1_555 1_555
C9 C8 1_555 1_555
C10 C9 1_555 1_555
H4 C10 1_555 1_555
C11 C10 1_555 1_555
H5 C11 1_555 1_555
C12 C11 1_555 1_555
H6 C12 1_555 1_555
C13 C5 1_555 1_555
C14 C13 1_555 1_555
C15 C14 1_555 1_555
H7 C15 1_555 1_555
C16 C15 1_555 1_555
H8 C16 1_555 1_555
C17 C16 1_555 1_555
H9 C17 1_555 1_555
C18 C13 1_555 1_555
H10 C18 1_555 1_555
C19 C7 1_555 1_555
C20 C6 1_555 1_555
C21 C20 1_555 1_555
C22 C20 1_555 1_555
C23 C8 1_555 1_555
C24 C23 1_555 1_555
H11 C24 1_555 1_555
C25 C24 1_555 1_555
H12 C25 1_555 1_555
C26 C25 1_555 1_555
H13 C26 1_555 1_555
C27 C22 1_555 1_555
H14 C27 1_555 1_555
C28 C12 1_555 1_555
H15 C28 1_555 1_555
C29 C9 1_555 1_555
H16 C29 1_555 1_555
C30 C20 1_555 1_555
C31 C19 1_555 1_555
C32 C19 1_555 1_555
C33 C4 1_555 1_555
H17 C33 1_555 1_555
C34 C1 1_555 1_555
H18 C34 1_555 1_555
C14 C19 1_555 1_555
C17 C18 1_555 1_555
C22 C23 1_555 1_555
C26 C27 1_555 1_555
C28 C29 1_555 1_555
C33 C34 1_555 1_555

#END
