
#######################################################################
#
#                 Cambridge Crystallographic Data Centre
#                                CCDC 
#
#######################################################################
#
# If this CIF has been generated from an entry in the Cambridge 
# Structural Database, then it will include bibliographic, chemical, 
# crystal, experimental, refinement or atomic coordinate data resulting 
# from the CCDC's data processing and validation procedures.
#
#######################################################################

data_COGVUR
_chemical_formula_moiety         'C23 H19 N3 O2'
_chemical_name_systematic        
4'-(3,4-Dimethoxyphenyl)-4,2':6',4''-terpyridine
_symmetry_cell_setting           triclinic
_symmetry_space_group_name_H-M   'P -1'
_symmetry_Int_Tables_number      2
_space_group_name_Hall           '-P 1'
loop_
_symmetry_equiv_pos_site_id
_symmetry_equiv_pos_as_xyz
1 x,y,z
2 -x,-y,-z
_cell_length_a                   9.4682(14)
_cell_length_b                   10.4331(17)
_cell_length_c                   10.7425(17)
_cell_angle_alpha                67.349(9)
_cell_angle_beta                 73.251(9)
_cell_angle_gamma                85.916(9)
_cell_volume                     936.826
_exptl_crystal_colour            white
_exptl_crystal_description       Cubic
_cell_formula_units_Z            2
loop_
_atom_site_label
_atom_site_type_symbol
_atom_site_fract_x
_atom_site_fract_y
_atom_site_fract_z
N1 N 1.11301(15) 0.84593(16) 0.67577(16)
C1 C 0.88566(18) 0.71334(19) 0.92135(19)
C2 C 1.00602(19) 0.7798(2) 0.9241(2)
H1 H 1.0123 0.7814 1.0083
O1 O 0.46848(15) 0.37715(15) 1.41974(14)
C3 C 0.99665(18) 0.79192(19) 0.52995(19)
O2 O 0.37708(14) 0.52756(15) 1.20551(15)
C4 C 0.99359(18) 0.78729(19) 0.67122(19)
C5 C 0.77506(18) 0.62842(19) 1.05415(19)
C6 C 1.25311(19) 0.90501(19) 0.80147(19)
C7 C 0.62496(19) 0.62271(19) 1.0638(2)
H2 H 0.5918 0.6760 0.9867
C8 C 0.87858(18) 0.72070(19) 0.79140(19)
H3 H 0.7974 0.6814 0.7846
C9 C 1.11680(18) 0.84376(19) 0.8004(2)
C10 C 0.5750(2) 0.45699(19) 1.30343(19)
C11 C 0.52540(19) 0.53887(19) 1.1866(2)
C12 C 1.1087(2) 0.8647(2) 0.4121(2)
H4 H 1.1819 0.9133 0.4202
C13 C 0.7226(2) 0.4629(2) 1.2942(2)
H5 H 0.7562 0.4095 1.3710
C14 C 0.8210(2) 0.5477(2) 1.1711(2)
H6 H 0.9203 0.5509 1.1665
N2 N 1.51603(19) 1.00026(19) 0.81583(19)
C15 C 0.8914(2) 0.7238(3) 0.5079(2)
H7 H 0.8124 0.6736 0.5827
C16 C 1.1125(2) 0.8657(3) 0.2834(2)
H8 H 1.1896 0.9161 0.2065
C17 C 0.9052(3) 0.7314(3) 0.3745(3)
H9 H 0.8326 0.6850 0.3629
N3 N 1.01354(19) 0.7994(2) 0.26075(19)
C18 C 1.2512(2) 0.9767(2) 0.8863(2)
H10 H 1.1621 0.9939 0.9412
C19 C 1.3905(2) 0.8850(2) 0.7220(2)
H11 H 1.3978 0.8396 0.6611
C20 C 1.3837(2) 1.0226(2) 0.8888(2)
H12 H 1.3799 1.0724 0.9451
C21 C 1.5161(2) 0.9326(2) 0.7337(2)
H13 H 1.6068 0.9163 0.6805
C22 C 0.5143(3) 0.2966(2) 1.5423(2)
H14 H 0.5836 0.2306 1.5220
H15 H 0.4298 0.2481 1.6179
H16 H 0.5600 0.3571 1.5692
C23 C 0.3162(2) 0.6304(2) 1.1055(3)
H17 H 0.3454 0.7211 1.0949
H18 H 0.2104 0.6191 1.1374
H19 H 0.3515 0.6204 1.0166
loop_
_geom_bond_atom_site_label_1
_geom_bond_atom_site_label_2
_geom_bond_site_symmetry_1
_geom_bond_site_symmetry_2
N1 C4 1_555 1_555
C1 C2 1_555 1_555
C2 H1 1_555 1_555
O1 C10 1_555 1_555
C3 C4 1_555 1_555
O2 C11 1_555 1_555
C4 C8 1_555 1_555
C5 C1 1_555 1_555
C6 C9 1_555 1_555
C7 C5 1_555 1_555
H2 C7 1_555 1_555
C8 C1 1_555 1_555
H3 C8 1_555 1_555
C9 N1 1_555 1_555
C10 C11 1_555 1_555
C11 C7 1_555 1_555
C12 C3 1_555 1_555
H4 C12 1_555 1_555
C13 C10 1_555 1_555
H5 C13 1_555 1_555
C14 C5 1_555 1_555
H6 C14 1_555 1_555
N2 C20 1_555 1_555
C15 C3 1_555 1_555
H7 C15 1_555 1_555
C16 C12 1_555 1_555
H8 C16 1_555 1_555
C17 C15 1_555 1_555
H9 C17 1_555 1_555
N3 C16 1_555 1_555
C18 C6 1_555 1_555
H10 C18 1_555 1_555
C19 C6 1_555 1_555
H11 C19 1_555 1_555
C20 C18 1_555 1_555
H12 C20 1_555 1_555
C21 N2 1_555 1_555
H13 C21 1_555 1_555
C22 O1 1_555 1_555
H14 C22 1_555 1_555
H15 C22 1_555 1_555
H16 C22 1_555 1_555
C23 O2 1_555 1_555
H17 C23 1_555 1_555
H18 C23 1_555 1_555
H19 C23 1_555 1_555
C2 C9 1_555 1_555
C13 C14 1_555 1_555
C17 N3 1_555 1_555
C19 C21 1_555 1_555

#END
