
#######################################################################
#
#                 Cambridge Crystallographic Data Centre
#                                CCDC 
#
#######################################################################
#
# If this CIF has been generated from an entry in the Cambridge 
# Structural Database, then it will include bibliographic, chemical, 
# crystal, experimental, refinement or atomic coordinate data resulting 
# from the CCDC's data processing and validation procedures.
#
#######################################################################

data_COHLIW
_chemical_formula_moiety         'C40 H8 Cl4 F30 N2 O4'
_chemical_name_systematic        
5,6,12,13-tetrachloro-2,9-bis(2,2,3,3,4,4,5,5,6,6,7,7,8,8,8-pentadecafluorooctyl)isoquinolino[4',5',6':6,5,10]anthra[2,1,9-def]isoquinoline-1,3,8,10(2H,9H)-tetrone
_symmetry_cell_setting           monoclinic
_symmetry_space_group_name_H-M   'P 21/c'
_symmetry_Int_Tables_number      14
_space_group_name_Hall           '-P 2ybc'
loop_
_symmetry_equiv_pos_site_id
_symmetry_equiv_pos_as_xyz
1 x,y,z
2 -x,1/2+y,1/2-z
3 -x,-y,-z
4 x,1/2-y,1/2+z
_cell_length_a                   20.971(9)
_cell_length_b                   20.210(9)
_cell_length_c                   10.319(5)
_cell_angle_alpha                90
_cell_angle_beta                 95.733(7)
_cell_angle_gamma                90
_cell_volume                     4351.56
_exptl_crystal_colour            orange
_exptl_crystal_description       plate
_cell_formula_units_Z            4
loop_
_atom_site_label
_atom_site_type_symbol
_atom_site_fract_x
_atom_site_fract_y
_atom_site_fract_z
Cl1 Cl 0.08081(7) 0.58281(6) 0.49294(14)
Cl2 Cl 0.10573(6) 0.59480(6) 0.20412(14)
Cl3 Cl -0.08116(7) 0.26247(7) 0.28927(17)
Cl4 Cl 0.04097(7) 0.23361(7) 0.15170(15)
F1 F 0.35602(18) 0.38364(18) 0.6475(5)
F2 F 0.36162(18) 0.2909(2) 0.5458(4)
F3 F 0.41586(18) 0.3334(3) 0.8653(4)
F4 F 0.41080(18) 0.2345(2) 0.7846(5)
F5 F 0.48303(19) 0.3696(2) 0.6494(5)
F6 F 0.4854(2) 0.2658(3) 0.6031(4)
F7 F 0.54425(18) 0.3505(2) 0.8807(5)
F8 F 0.53484(18) 0.2444(2) 0.8650(4)
F9 F 0.60989(19) 0.3486(2) 0.6557(5)
F10 F 0.60679(18) 0.2417(2) 0.6633(4)
F11 F 0.67075(19) 0.3536(3) 0.8968(6)
F12 F 0.6614(2) 0.2472(3) 0.9165(5)
F13 F 0.7388(2) 0.3300(3) 0.6833(7)
F14 F 0.7785(2) 0.2936(3) 0.8666(5)
F15 F 0.7350(2) 0.2282(2) 0.7227(6)
F16 F -0.21056(16) 0.56060(19) -0.2716(4)
F17 F -0.25696(16) 0.47029(16) -0.2182(3)
F18 F -0.31544(17) 0.62930(16) -0.2831(4)
F19 F -0.32829(16) 0.53690(19) -0.3917(3)
F20 F -0.38325(17) 0.59109(19) -0.1009(3)
F21 F -0.37773(16) 0.48740(17) -0.1525(4)
F22 F -0.44452(17) 0.60849(18) -0.3647(4)
F23 F -0.45048(17) 0.50107(18) -0.3679(4)
F24 F -0.50700(18) 0.6137(2) -0.1486(4)
F25 F -0.50530(17) 0.5061(2) -0.1322(4)
F26 F -0.57567(18) 0.6052(2) -0.3853(4)
F27 F -0.57488(18) 0.4977(2) -0.3717(4)
F28 F -0.6352(2) 0.6083(2) -0.1562(6)
F29 F -0.68425(18) 0.5531(3) -0.3104(4)
F30 F -0.63465(19) 0.5027(2) -0.1511(4)
O1 O 0.2333(2) 0.4113(2) 0.7575(4)
O2 O -0.12705(19) 0.61901(18) -0.0412(4)
O3 O -0.24080(17) 0.43492(19) 0.0520(4)
O4 O 0.23801(19) 0.22324(19) 0.5137(4)
N1 N 0.2392(2) 0.3188(2) 0.6323(5)
N2 N -0.1835(2) 0.5256(2) -0.0013(4)
C1 C 0.2153(3) 0.3830(3) 0.6583(6)
C2 C 0.1666(3) 0.4092(3) 0.5582(5)
C3 C 0.1475(3) 0.4747(3) 0.5661(5)
H1 H 0.1643 0.5008 0.6354
C4 C 0.1032(3) 0.5014(2) 0.4703(5)
C5 C 0.0753(2) 0.4635(2) 0.3670(5)
C6 C 0.0332(2) 0.4873(2) 0.2566(5)
C7 C 0.0359(2) 0.5489(2) 0.1933(5)
C8 C -0.0164(2) 0.5734(2) 0.1116(5)
H2 H -0.0137 0.6147 0.0728
C9 C -0.0720(2) 0.5362(2) 0.0884(5)
C10 C -0.1280(2) 0.5651(3) 0.0108(5)
C11 C -0.1890(3) 0.4613(3) 0.0553(6)
C12 C -0.1295(2) 0.4323(3) 0.1155(5)
C13 C -0.1294(3) 0.3683(3) 0.1613(5)
H3 H -0.1671 0.3438 0.1525
C14 C -0.0731(3) 0.3400(2) 0.2209(6)
C15 C -0.0149(3) 0.3747(2) 0.2388(5)
C16 C 0.0474(2) 0.3484(2) 0.2930(5)
C17 C 0.0729(2) 0.2858(3) 0.2751(5)
C18 C 0.1279(3) 0.2626(3) 0.3511(6)
H4 H 0.1441 0.2207 0.3365
C19 C 0.1575(3) 0.3025(2) 0.4468(5)
C20 C 0.2143(3) 0.2774(3) 0.5299(6)
C21 C 0.1371(3) 0.3686(2) 0.4597(5)
C22 C 0.0868(2) 0.3928(2) 0.3719(5)
C23 C -0.0184(2) 0.4442(2) 0.2087(5)
C24 C -0.0726(2) 0.4713(2) 0.1372(5)
C25 C 0.2939(3) 0.2951(3) 0.7166(6)
H5 H 0.2926 0.2472 0.7213
H6 H 0.2922 0.3125 0.8038
C26 C 0.3562(3) 0.3171(3) 0.6641(6)
C27 C 0.4164(3) 0.2989(3) 0.7539(6)
C28 C 0.4808(3) 0.3090(3) 0.6989(6)
C29 C 0.5415(3) 0.3003(3) 0.7971(6)
C30 C 0.6060(3) 0.2960(3) 0.7371(6)
C31 C 0.6664(3) 0.2967(3) 0.8320(7)
C32 C 0.7312(3) 0.2856(4) 0.7762(8)
C33 C -0.2435(3) 0.5558(3) -0.0579(6)
H7 H -0.2404 0.6036 -0.0505
H8 H -0.2785 0.5413 -0.0101
C34 C -0.2575(3) 0.5367(3) -0.2005(6)
C35 C -0.3210(3) 0.5634(3) -0.2711(6)
C36 C -0.3824(3) 0.5486(3) -0.2022(6)
C37 C -0.4462(3) 0.5541(3) -0.2900(5)
C38 C -0.5078(3) 0.5570(3) -0.2165(5)
C39 C -0.5716(3) 0.5536(3) -0.3023(6)
C40 C -0.6330(3) 0.5554(3) -0.2277(6)
loop_
_geom_bond_atom_site_label_1
_geom_bond_atom_site_label_2
_geom_bond_site_symmetry_1
_geom_bond_site_symmetry_2
Cl1 C4 1_555 1_555
Cl2 C7 1_555 1_555
Cl3 C14 1_555 1_555
Cl4 C17 1_555 1_555
F1 C26 1_555 1_555
F2 C26 1_555 1_555
F3 C27 1_555 1_555
F4 C27 1_555 1_555
F5 C28 1_555 1_555
F6 C28 1_555 1_555
F7 C29 1_555 1_555
F8 C29 1_555 1_555
F9 C30 1_555 1_555
F10 C30 1_555 1_555
F11 C31 1_555 1_555
F12 C31 1_555 1_555
F13 C32 1_555 1_555
F14 C32 1_555 1_555
F15 C32 1_555 1_555
F16 C34 1_555 1_555
F17 C34 1_555 1_555
F18 C35 1_555 1_555
F19 C35 1_555 1_555
F20 C36 1_555 1_555
F21 C36 1_555 1_555
F22 C37 1_555 1_555
F23 C37 1_555 1_555
F24 C38 1_555 1_555
F25 C38 1_555 1_555
F26 C39 1_555 1_555
F27 C39 1_555 1_555
F28 C40 1_555 1_555
F29 C40 1_555 1_555
F30 C40 1_555 1_555
O1 C1 1_555 1_555
O2 C10 1_555 1_555
O3 C11 1_555 1_555
O4 C20 1_555 1_555
N1 C1 1_555 1_555
N2 C10 1_555 1_555
C1 C2 1_555 1_555
C2 C3 1_555 1_555
C3 H1 1_555 1_555
C4 C3 1_555 1_555
C5 C4 1_555 1_555
C6 C5 1_555 1_555
C7 C6 1_555 1_555
C8 C7 1_555 1_555
H2 C8 1_555 1_555
C9 C8 1_555 1_555
C10 C9 1_555 1_555
C11 N2 1_555 1_555
C12 C11 1_555 1_555
C13 C12 1_555 1_555
H3 C13 1_555 1_555
C14 C13 1_555 1_555
C15 C14 1_555 1_555
C16 C15 1_555 1_555
C17 C16 1_555 1_555
C18 C17 1_555 1_555
H4 C18 1_555 1_555
C19 C18 1_555 1_555
C20 N1 1_555 1_555
C21 C2 1_555 1_555
C22 C5 1_555 1_555
C23 C6 1_555 1_555
C24 C9 1_555 1_555
C25 N1 1_555 1_555
H5 C25 1_555 1_555
H6 C25 1_555 1_555
C26 C25 1_555 1_555
C27 C26 1_555 1_555
C28 C27 1_555 1_555
C29 C28 1_555 1_555
C30 C29 1_555 1_555
C31 C30 1_555 1_555
C32 C31 1_555 1_555
C33 N2 1_555 1_555
H7 C33 1_555 1_555
H8 C33 1_555 1_555
C34 C33 1_555 1_555
C35 C34 1_555 1_555
C36 C35 1_555 1_555
C37 C36 1_555 1_555
C38 C37 1_555 1_555
C39 C38 1_555 1_555
C40 C39 1_555 1_555
C12 C24 1_555 1_555
C15 C23 1_555 1_555
C16 C22 1_555 1_555
C19 C20 1_555 1_555
C19 C21 1_555 1_555
C21 C22 1_555 1_555
C23 C24 1_555 1_555

#END
