
#######################################################################
#
#                 Cambridge Crystallographic Data Centre
#                                CCDC 
#
#######################################################################
#
# If this CIF has been generated from an entry in the Cambridge 
# Structural Database, then it will include bibliographic, chemical, 
# crystal, experimental, refinement or atomic coordinate data resulting 
# from the CCDC's data processing and validation procedures.
#
#######################################################################

data_COHSAV
_chemical_formula_moiety         'C10 H9 Cl2 N1 O2'
_chemical_name_systematic        
2,2-Dichloro-1-(2,3-dihydro-4H-1,4-benzoxazin-4-yl)ethanone
_symmetry_cell_setting           monoclinic
_symmetry_space_group_name_H-M   'P 21/c'
_symmetry_Int_Tables_number      14
_space_group_name_Hall           '-P 2ybc'
loop_
_symmetry_equiv_pos_site_id
_symmetry_equiv_pos_as_xyz
1 x,y,z
2 -x,1/2+y,1/2-z
3 -x,-y,-z
4 x,1/2-y,1/2+z
_cell_length_a                   8.422(4)
_cell_length_b                   13.054(6)
_cell_length_c                   9.918(5)
_cell_angle_alpha                90
_cell_angle_beta                 97.776(5)
_cell_angle_gamma                90
_cell_volume                     1080.37
_exptl_crystal_description       block
_cell_formula_units_Z            4
loop_
_atom_site_label
_atom_site_type_symbol
_atom_site_fract_x
_atom_site_fract_y
_atom_site_fract_z
C1 C -0.1667(3) 0.6532(2) 0.5423(4)
H1 H -0.2212 0.6992 0.4810
C2 C 0.1848(3) 0.4498(2) 0.8896(4)
H2 H 0.2699 0.4330 0.8366
H3 H 0.1971 0.4060 0.9693
C3 C -0.2205(3) 0.5569(2) 0.5592(4)
H4 H -0.3153 0.5377 0.5059
C4 C -0.1466(3) 0.4840(2) 0.6493(3)
H5 H -0.1925 0.4196 0.6547
C5 C 0.2044(3) 0.56098(19) 0.9359(3)
H6 H 0.3110 0.5737 0.9834
H7 H 0.1256 0.5797 0.9943
C6 C -0.0366(3) 0.6763(2) 0.6162(4)
H8 H 0.0076 0.7412 0.6108
O1 O 0.0480(2) 0.43013(14) 0.8174(2)
C7 C -0.0150(2) 0.50585(18) 0.7249(3)
C8 C 0.0409(2) 0.60243(17) 0.7069(3)
C9 C 0.4028(2) 0.69904(17) 0.8328(3)
H9 H 0.3757 0.6977 0.9258
O2 O 0.24180(18) 0.72580(15) 0.5984(2)
C10 C 0.2643(2) 0.68378(16) 0.7276(3)
N1 N 0.17448(18) 0.62267(14) 0.7909(2)
Cl1 Cl 0.47530(8) 0.81695(7) 0.78575(10)
Cl2 Cl 0.51095(8) 0.59613(7) 0.79364(11)
loop_
_geom_bond_atom_site_label_1
_geom_bond_atom_site_label_2
_geom_bond_site_symmetry_1
_geom_bond_site_symmetry_2
C1 H1 1_555 1_555
C2 H2 1_555 1_555
H3 C2 1_555 1_555
C3 C1 1_555 1_555
H4 C3 1_555 1_555
C4 C3 1_555 1_555
H5 C4 1_555 1_555
C5 C2 1_555 1_555
H6 C5 1_555 1_555
H7 C5 1_555 1_555
C6 C1 1_555 1_555
H8 C6 1_555 1_555
O1 C2 1_555 1_555
C7 C4 1_555 1_555
C8 C6 1_555 1_555
C9 H9 1_555 1_555
O2 C10 1_555 1_555
C10 C9 1_555 1_555
N1 C5 1_555 1_555
Cl1 C9 1_555 1_555
Cl2 C9 1_555 1_555
O1 C7 1_555 1_555
C7 C8 1_555 1_555
C8 N1 1_555 1_555
C10 N1 1_555 1_555

#END
