
#######################################################################
#
#                 Cambridge Crystallographic Data Centre
#                                CCDC 
#
#######################################################################
#
# If this CIF has been generated from an entry in the Cambridge 
# Structural Database, then it will include bibliographic, chemical, 
# crystal, experimental, refinement or atomic coordinate data resulting 
# from the CCDC's data processing and validation procedures.
#
#######################################################################

data_COKQOJ
_chemical_formula_moiety         'C14 H14 N2 O5'
_chemical_name_systematic        
'6-Nitro-11-oxo-13-aza-tricyclo(7.3.1.0^2,7^)trideca-2(7),3,5-triene-13-carboxylic acid methyl ester'
_symmetry_cell_setting           triclinic
_symmetry_space_group_name_H-M   'P -1'
_symmetry_Int_Tables_number      2
_space_group_name_Hall           '-P 1'
loop_
_symmetry_equiv_pos_site_id
_symmetry_equiv_pos_as_xyz
1 x,y,z
2 -x,-y,-z
_cell_length_a                   8.6268(2)
_cell_length_b                   11.8442(2)
_cell_length_c                   14.4040(3)
_cell_angle_alpha                74.4020(10)
_cell_angle_beta                 84.7070(10)
_cell_angle_gamma                69.8680(10)
_cell_volume                     1330.95
_exptl_crystal_colour            colorless
_exptl_crystal_description       prism
_chemical_melting_point          '377 K'
_cell_formula_units_Z            4
loop_
_atom_site_label
_atom_site_type_symbol
_atom_site_fract_x
_atom_site_fract_y
_atom_site_fract_z
O1 O 1.11314(12) 0.08743(10) 0.36992(7)
O2 O 0.89728(11) 0.25160(8) 0.39319(6)
O3 O 0.93390(13) 0.40176(10) -0.01610(7)
O4 O 0.75675(13) -0.06202(8) 0.07538(7)
O5 O 0.63607(13) 0.04841(10) -0.05986(7)
N1 N 0.91660(11) 0.19510(9) 0.25445(7)
N2 N 0.67800(12) 0.03780(9) 0.02214(7)
C1 C 0.77913(13) 0.30630(10) 0.21192(8)
H1 H 0.7101 0.3401 0.2643
C2 C 0.67350(13) 0.27410(10) 0.15067(7)
C3 C 0.51688(13) 0.36030(10) 0.12320(8)
H2 H 0.4781 0.4333 0.1462
C4 C 0.41706(14) 0.34098(11) 0.06291(8)
H3 H 0.3107 0.4001 0.0451
C5 C 0.47337(14) 0.23529(11) 0.02895(8)
H4 H 0.4076 0.2214 -0.0134
C6 C 0.62769(13) 0.15008(10) 0.05792(8)
C7 C 0.73405(13) 0.16622(10) 0.11767(7)
C8 C 0.90677(13) 0.07607(10) 0.14337(8)
H5 H 0.9603 0.0500 0.0852
H6 H 0.8998 0.0010 0.1921
C9 C 1.01315(13) 0.13211(11) 0.18301(9)
H7 H 1.1104 0.0626 0.2165
C10 C 1.07793(15) 0.22389(12) 0.10623(10)
H8 H 1.1713 0.2344 0.1340
H9 H 1.1211 0.1871 0.0511
C11 C 0.95126(15) 0.35032(11) 0.06918(9)
C12 C 0.84713(14) 0.40569(10) 0.14662(8)
H10 H 0.7549 0.4811 0.1171
H11 H 0.9149 0.4293 0.1850
C13 C 0.98595(14) 0.17217(11) 0.34141(8)
C14 C 0.96185(18) 0.22484(14) 0.48911(9)
H12 H 0.8911 0.2864 0.5224
H13 H 1.0741 0.2286 0.4843
H14 H 0.9639 0.1415 0.5255
O6 O 0.45630(12) 0.57800(10) 0.22230(8)
O7 O 0.24700(10) 0.74949(8) 0.23799(6)
O8 O 0.77270(13) 0.88365(10) 0.31517(7)
O9 O 0.86576(17) 0.58802(13) 0.70641(11)
O10 O 0.84231(14) 0.46923(11) 0.62228(8)
N3 N 0.47466(12) 0.68399(9) 0.32880(7)
N4 N 0.79794(14) 0.56940(12) 0.64403(8)
C15 C 0.41980(13) 0.80078(10) 0.35735(8)
H15 H 0.2967 0.8373 0.3529
C16 C 0.47331(13) 0.77850(10) 0.46023(8)
C17 C 0.39034(14) 0.86883(11) 0.50925(8)
H16 H 0.2982 0.9371 0.4797
C18 C 0.43965(16) 0.86104(13) 0.60037(9)
H17 H 0.3809 0.9224 0.6335
C19 C 0.57567(16) 0.76258(13) 0.64217(8)
H18 H 0.6140 0.7572 0.7035
C20 C 0.65544(14) 0.67203(12) 0.59392(8)
C21 C 0.60889(13) 0.67543(10) 0.50193(8)
C22 C 0.69491(15) 0.57755(11) 0.44770(9)
H19 H 0.6641 0.5025 0.4772
H20 H 0.8157 0.5541 0.4550
C23 C 0.65319(14) 0.61945(11) 0.34078(9)
H21 H 0.6828 0.5438 0.3156
C24 C 0.74700(15) 0.70429(13) 0.28107(9)
H22 H 0.8654 0.6666 0.2988
H23 H 0.7379 0.7097 0.2119
C25 C 0.68265(15) 0.83330(12) 0.29623(8)
C26 C 0.49698(15) 0.89289(11) 0.28999(8)
H24 H 0.4597 0.9117 0.2228
H25 H 0.4625 0.9716 0.3101
C27 C 0.39691(15) 0.66451(11) 0.25916(9)
C28 C 0.15663(16) 0.72979(12) 0.16729(9)
H26 H 0.0488 0.7956 0.1559
H27 H 0.1409 0.6488 0.1914
H28 H 0.2191 0.7316 0.1068
loop_
_geom_bond_atom_site_label_1
_geom_bond_atom_site_label_2
_geom_bond_site_symmetry_1
_geom_bond_site_symmetry_2
O1 C13 1_555 1_555
O2 C13 1_555 1_555
O3 C11 1_555 1_555
O4 N2 1_555 1_555
O5 N2 1_555 1_555
N1 C1 1_555 1_555
N2 C6 1_555 1_555
C1 H1 1_555 1_555
C2 C1 1_555 1_555
C3 C2 1_555 1_555
H2 C3 1_555 1_555
C4 C3 1_555 1_555
H3 C4 1_555 1_555
C5 C4 1_555 1_555
H4 C5 1_555 1_555
C6 C5 1_555 1_555
C7 C2 1_555 1_555
C8 C7 1_555 1_555
H5 C8 1_555 1_555
H6 C8 1_555 1_555
C9 N1 1_555 1_555
H7 C9 1_555 1_555
C10 C9 1_555 1_555
H8 C10 1_555 1_555
H9 C10 1_555 1_555
C11 C10 1_555 1_555
C12 C1 1_555 1_555
H10 C12 1_555 1_555
H11 C12 1_555 1_555
C13 N1 1_555 1_555
C14 O2 1_555 1_555
H12 C14 1_555 1_555
H13 C14 1_555 1_555
H14 C14 1_555 1_555
O6 C27 1_555 1_555
O7 C27 1_555 1_555
O8 C25 1_555 1_555
O9 N4 1_555 1_555
O10 N4 1_555 1_555
N3 C15 1_555 1_555
N4 C20 1_555 1_555
C15 H15 1_555 1_555
C16 C15 1_555 1_555
C17 C16 1_555 1_555
H16 C17 1_555 1_555
C18 C17 1_555 1_555
H17 C18 1_555 1_555
C19 C18 1_555 1_555
H18 C19 1_555 1_555
C20 C19 1_555 1_555
C21 C16 1_555 1_555
C22 C21 1_555 1_555
H19 C22 1_555 1_555
H20 C22 1_555 1_555
C23 N3 1_555 1_555
H21 C23 1_555 1_555
C24 C23 1_555 1_555
H22 C24 1_555 1_555
H23 C24 1_555 1_555
C25 C24 1_555 1_555
C26 C15 1_555 1_555
H24 C26 1_555 1_555
H25 C26 1_555 1_555
C27 N3 1_555 1_555
C28 O7 1_555 1_555
H26 C28 1_555 1_555
H27 C28 1_555 1_555
H28 C28 1_555 1_555
C6 C7 1_555 1_555
C8 C9 1_555 1_555
C11 C12 1_555 1_555
C20 C21 1_555 1_555
C22 C23 1_555 1_555
C25 C26 1_555 1_555

#END
