
#######################################################################
#
#                 Cambridge Crystallographic Data Centre
#                                CCDC 
#
#######################################################################
#
# If this CIF has been generated from an entry in the Cambridge 
# Structural Database, then it will include bibliographic, chemical, 
# crystal, experimental, refinement or atomic coordinate data resulting 
# from the CCDC's data processing and validation procedures.
#
#######################################################################

data_COKRAW
_chemical_formula_moiety         'C23 H23 N1 O4'
_chemical_name_systematic        
'10-Acetyl-11-(4-methoxyphenyl)-13-aza-tricyclo(7.3.1.0^2,7^)trideca-2(7),3,5,10-tetraene-13-carboxylic acid methyl ester'
_symmetry_cell_setting           monoclinic
_symmetry_space_group_name_H-M   'P 21/c'
_symmetry_Int_Tables_number      14
_space_group_name_Hall           '-P 2ybc'
loop_
_symmetry_equiv_pos_site_id
_symmetry_equiv_pos_as_xyz
1 x,y,z
2 -x,1/2+y,1/2-z
3 -x,-y,-z
4 x,1/2-y,1/2+z
_cell_length_a                   10.4851(2)
_cell_length_b                   18.7905(4)
_cell_length_c                   10.5289(2)
_cell_angle_alpha                90
_cell_angle_beta                 109.2280(10)
_cell_angle_gamma                90
_cell_volume                     1958.69
_exptl_crystal_colour            colorless
_exptl_crystal_description       prism
_chemical_melting_point          '425 K'
_cell_formula_units_Z            4
loop_
_atom_site_label
_atom_site_type_symbol
_atom_site_fract_x
_atom_site_fract_y
_atom_site_fract_z
O1 O 0.00395(10) 0.29094(6) 0.67053(14)
O2 O 0.11195(10) 0.20058(5) 0.80464(13)
O3 O 0.14979(10) 0.50737(5) 0.74851(9)
O4 O 0.27981(9) 0.51736(5) 1.46462(8)
N1 N 0.23274(10) 0.29208(5) 0.77075(10)
C1 C 0.34752(12) 0.26721(6) 0.88432(11)
H1 H 0.3418 0.2143 0.8910
C2 C 0.47848(11) 0.28600(5) 0.86058(11)
C3 C 0.59637(13) 0.25078(7) 0.93487(13)
H2 H 0.5928 0.2160 0.9991
C4 C 0.71882(13) 0.26551(7) 0.91676(14)
H3 H 0.7985 0.2412 0.9683
C5 C 0.72390(13) 0.31609(7) 0.82262(14)
H4 H 0.8070 0.3261 0.8084
C6 C 0.60764(12) 0.35200(6) 0.74940(12)
H5 H 0.6121 0.3869 0.6856
C7 C 0.48384(11) 0.33794(6) 0.76750(11)
C8 C 0.35797(12) 0.37747(6) 0.68610(11)
H6 H 0.3279 0.3597 0.5924
H7 H 0.3790 0.4287 0.6842
C9 C 0.24390(11) 0.36801(6) 0.74511(11)
H8 H 0.1574 0.3842 0.6770
C10 C 0.26679(10) 0.41048(6) 0.87444(11)
C11 C 0.30137(11) 0.37894(6) 0.99586(11)
C12 C 0.33699(13) 0.30066(6) 1.01315(12)
H9 H 0.2671 0.2752 1.0398
H10 H 0.4243 0.2949 1.0865
C13 C 0.10676(13) 0.26387(7) 0.74305(15)
C14 C -0.01543(18) 0.16422(9) 0.7763(3)
H11 H -0.0787 0.1945 0.8025
H12 H -0.0017 0.1196 0.8273
H13 H -0.0525 0.1538 0.6799
C15 C 0.29431(11) 0.41544(6) 1.11820(11)
C16 C 0.17991(11) 0.45389(6) 1.11512(11)
H14 H 0.1064 0.4566 1.0332
C17 C 0.16964(11) 0.48849(6) 1.22807(12)
H15 H 0.0907 0.5147 1.2231
C18 C 0.27649(12) 0.48418(6) 1.34829(11)
C19 C 0.39091(12) 0.44443(6) 1.35463(11)
H16 H 0.4634 0.4409 1.4372
C20 C 0.39925(12) 0.41034(6) 1.24178(11)
H17 H 0.4772 0.3830 1.2477
C21 C 0.16791(15) 0.56183(8) 1.46087(14)
H18 H 0.1589 0.6000 1.3950
H19 H 0.1831 0.5827 1.5500
H20 H 0.0850 0.5334 1.4351
C22 C 0.23962(11) 0.48849(6) 0.84947(11)
C23 C 0.32938(14) 0.54331(7) 0.93959(14)
H21 H 0.3919 0.5624 0.8964
H22 H 0.3809 0.5213 1.0255
H23 H 0.2739 0.5820 0.9555
loop_
_geom_bond_atom_site_label_1
_geom_bond_atom_site_label_2
_geom_bond_site_symmetry_1
_geom_bond_site_symmetry_2
O1 C13 1_555 1_555
O2 C13 1_555 1_555
O3 C22 1_555 1_555
O4 C18 1_555 1_555
N1 C1 1_555 1_555
C1 H1 1_555 1_555
C2 C1 1_555 1_555
C3 C2 1_555 1_555
H2 C3 1_555 1_555
C4 C3 1_555 1_555
H3 C4 1_555 1_555
C5 C4 1_555 1_555
H4 C5 1_555 1_555
C6 C5 1_555 1_555
H5 C6 1_555 1_555
C7 C2 1_555 1_555
C8 C7 1_555 1_555
H6 C8 1_555 1_555
H7 C8 1_555 1_555
C9 N1 1_555 1_555
H8 C9 1_555 1_555
C10 C9 1_555 1_555
C11 C10 1_555 1_555
C12 C1 1_555 1_555
H9 C12 1_555 1_555
H10 C12 1_555 1_555
C13 N1 1_555 1_555
C14 O2 1_555 1_555
H11 C14 1_555 1_555
H12 C14 1_555 1_555
H13 C14 1_555 1_555
C15 C11 1_555 1_555
C16 C15 1_555 1_555
H14 C16 1_555 1_555
C17 C16 1_555 1_555
H15 C17 1_555 1_555
C18 C17 1_555 1_555
C19 C18 1_555 1_555
H16 C19 1_555 1_555
C20 C15 1_555 1_555
H17 C20 1_555 1_555
C21 O4 1_555 1_555
H18 C21 1_555 1_555
H19 C21 1_555 1_555
H20 C21 1_555 1_555
C22 C10 1_555 1_555
C23 C22 1_555 1_555
H21 C23 1_555 1_555
H22 C23 1_555 1_555
H23 C23 1_555 1_555
C6 C7 1_555 1_555
C8 C9 1_555 1_555
C11 C12 1_555 1_555
C19 C20 1_555 1_555

#END
