
#######################################################################
#
#                 Cambridge Crystallographic Data Centre
#                                CCDC 
#
#######################################################################
#
# If this CIF has been generated from an entry in the Cambridge 
# Structural Database, then it will include bibliographic, chemical, 
# crystal, experimental, refinement or atomic coordinate data resulting 
# from the CCDC's data processing and validation procedures.
#
#######################################################################

data_COMBOX
_chemical_formula_moiety         'C28 H24 N2 O1'
_chemical_name_systematic        
2-(((9-anthrylmethyl)(pyridin-2-ylmethyl)amino)methyl)phenol
_symmetry_cell_setting           monoclinic
_symmetry_space_group_name_H-M   'P 21/n'
_symmetry_Int_Tables_number      14
_space_group_name_Hall           '-P 2yn'
loop_
_symmetry_equiv_pos_site_id
_symmetry_equiv_pos_as_xyz
1 x,y,z
2 1/2-x,1/2+y,1/2-z
3 -x,-y,-z
4 1/2+x,1/2-y,1/2+z
_cell_length_a                   13.918(18)
_cell_length_b                   11.138(14)
_cell_length_c                   14.314(17)
_cell_angle_alpha                90
_cell_angle_beta                 110.04(2)
_cell_angle_gamma                90
_cell_volume                     2084.59
_exptl_crystal_colour            colorless
_exptl_crystal_description       prism
_cell_formula_units_Z            4
loop_
_atom_site_label
_atom_site_type_symbol
_atom_site_fract_x
_atom_site_fract_y
_atom_site_fract_z
C1 C 0.0666(3) 0.2753(3) 0.7329(3)
C2 C -0.0297(4) 0.2561(4) 0.6654(3)
H1 H -0.0421 0.1889 0.6243
C3 C -0.1081(4) 0.3352(5) 0.6581(4)
H2 H -0.1726 0.3228 0.6109
C4 C -0.0910(4) 0.4307(5) 0.7195(5)
H3 H -0.1444 0.4831 0.7154
C5 C 0.0014(4) 0.4508(4) 0.7861(4)
H4 H 0.0123 0.5162 0.8289
C6 C 0.0802(3) 0.3750(3) 0.7914(3)
C7 C 0.1532(3) 0.1908(3) 0.7452(2)
H5 H 0.1316 0.1283 0.6952
H6 H 0.2096 0.2337 0.7355
C8 C 0.2858(3) 0.0799(3) 0.8663(3)
H7 H 0.2848 0.0298 0.8105
H8 H 0.2969 0.0277 0.9233
C9 C 0.3739(3) 0.1651(3) 0.8884(2)
C10 C 0.4364(4) 0.3569(4) 0.9146(3)
H9 H 0.4242 0.4385 0.9182
C11 C 0.5338(4) 0.3212(5) 0.9314(3)
H10 H 0.5872 0.3763 0.9465
C12 C 0.5508(4) 0.2007(5) 0.9253(3)
H11 H 0.6164 0.1719 0.9359
C13 C 0.4695(3) 0.1236(4) 0.9034(3)
H12 H 0.4801 0.0417 0.8986
C14 C 0.1102(3) 0.0546(3) 0.8524(2)
H13 H 0.1035 -0.0111 0.8061
H14 H 0.0452 0.0964 0.8324
C15 C 0.1304(3) 0.0035(3) 0.9533(2)
C16 C 0.1215(2) 0.0764(3) 1.0288(2)
C17 C 0.1016(3) 0.2024(3) 1.0163(3)
H15 H 0.0935 0.2377 0.9552
C18 C 0.0946(3) 0.2704(4) 1.0903(3)
H16 H 0.0821 0.3522 1.0798
C19 C 0.1056(3) 0.2218(4) 1.1823(3)
H17 H 0.0999 0.2706 1.2329
C20 C 0.1242(3) 0.1051(4) 1.1983(3)
H18 H 0.1318 0.0734 1.2606
C21 C 0.1326(3) 0.0282(3) 1.1232(2)
C22 C 0.1516(3) -0.0928(4) 1.1382(3)
H19 H 0.1587 -0.1249 1.2002
C23 C 0.1604(3) -0.1681(3) 1.0659(3)
C24 C 0.1784(3) -0.2927(4) 1.0818(3)
H20 H 0.1836 -0.3249 1.1432
C25 C 0.1881(3) -0.3658(4) 1.0113(3)
H21 H 0.1993 -0.4475 1.0235
C26 C 0.1813(3) -0.3181(4) 0.9202(3)
H22 H 0.1889 -0.3685 0.8714
C27 C 0.1638(3) -0.1998(3) 0.9001(3)
H23 H 0.1600 -0.1706 0.8380
C28 C 0.1513(3) -0.1203(3) 0.9712(2)
N1 N 0.1872(2) 0.1366(2) 0.84325(18)
N2 N 0.3560(3) 0.2812(3) 0.8929(3)
O1 O 0.1759(3) 0.4036(2) 0.8598(2)
H24 H 0.2200 0.3908 0.8351
loop_
_geom_bond_atom_site_label_1
_geom_bond_atom_site_label_2
_geom_bond_site_symmetry_1
_geom_bond_site_symmetry_2
C1 C2 1_555 1_555
C2 H1 1_555 1_555
C3 C2 1_555 1_555
H2 C3 1_555 1_555
C4 C3 1_555 1_555
H3 C4 1_555 1_555
C5 C4 1_555 1_555
H4 C5 1_555 1_555
C6 C1 1_555 1_555
C7 C1 1_555 1_555
H5 C7 1_555 1_555
H6 C7 1_555 1_555
C8 H7 1_555 1_555
H8 C8 1_555 1_555
C9 C8 1_555 1_555
C10 H9 1_555 1_555
C11 C10 1_555 1_555
H10 C11 1_555 1_555
C12 C11 1_555 1_555
H11 C12 1_555 1_555
C13 C9 1_555 1_555
H12 C13 1_555 1_555
C14 H13 1_555 1_555
H14 C14 1_555 1_555
C15 C14 1_555 1_555
C16 C15 1_555 1_555
C17 C16 1_555 1_555
H15 C17 1_555 1_555
C18 C17 1_555 1_555
H16 C18 1_555 1_555
C19 C18 1_555 1_555
H17 C19 1_555 1_555
C20 C19 1_555 1_555
H18 C20 1_555 1_555
C21 C16 1_555 1_555
C22 C21 1_555 1_555
H19 C22 1_555 1_555
C23 C22 1_555 1_555
C24 C23 1_555 1_555
H20 C24 1_555 1_555
C25 C24 1_555 1_555
H21 C25 1_555 1_555
C26 C25 1_555 1_555
H22 C26 1_555 1_555
C27 C26 1_555 1_555
H23 C27 1_555 1_555
C28 C15 1_555 1_555
N1 C7 1_555 1_555
N2 C9 1_555 1_555
O1 C6 1_555 1_555
H24 O1 1_555 1_555
C5 C6 1_555 1_555
C8 N1 1_555 1_555
C10 N2 1_555 1_555
C12 C13 1_555 1_555
C14 N1 1_555 1_555
C20 C21 1_555 1_555
C23 C28 1_555 1_555
C27 C28 1_555 1_555

#END
