
#######################################################################
#
#                 Cambridge Crystallographic Data Centre
#                                CCDC 
#
#######################################################################
#
# If this CIF has been generated from an entry in the Cambridge 
# Structural Database, then it will include bibliographic, chemical, 
# crystal, experimental, refinement or atomic coordinate data resulting 
# from the CCDC's data processing and validation procedures.
#
#######################################################################

data_COMCOY
_chemical_formula_moiety         'C21 H19 N1 O3'
_chemical_name_systematic        
'methyl 2-(acetamidomethyl)-3-(2-(phenylethynyl)phenyl)acrylate'
_symmetry_cell_setting           orthorhombic
_symmetry_space_group_name_H-M   'P c a 21'
_symmetry_Int_Tables_number      29
_space_group_name_Hall           'P 2c -2ac'
loop_
_symmetry_equiv_pos_site_id
_symmetry_equiv_pos_as_xyz
1 x,y,z
2 -x,-y,1/2+z
3 1/2+x,-y,z
4 1/2-x,y,1/2+z
_cell_length_a                   9.5269(6)
_cell_length_b                   10.7294(7)
_cell_length_c                   17.4823(13)
_cell_angle_alpha                90
_cell_angle_beta                 90
_cell_angle_gamma                90
_cell_volume                     1787
_exptl_crystal_colour            'pale yellow'
_exptl_crystal_description       prism
_cell_formula_units_Z            4
loop_
_atom_site_label
_atom_site_type_symbol
_atom_site_fract_x
_atom_site_fract_y
_atom_site_fract_z
C1 C 0.99175(19) 1.14980(17) 1.05843(12)
C2 C 1.0872(2) 1.06176(18) 1.08517(12)
H1 H 1.0798 0.9775 1.0691
C3 C 1.1919(2) 1.0963(2) 1.13476(14)
H2 H 1.2573 1.0359 1.1524
C4 C 1.2029(2) 1.2182(2) 1.15904(14)
H3 H 1.2758 1.2419 1.1931
C5 C 1.1077(2) 1.3050(2) 1.13366(14)
H4 H 1.1145 1.3886 1.1512
C6 C 1.0029(2) 1.27316(17) 1.08339(13)
H5 H 0.9386 1.3344 1.0657
C7 C 0.8877(2) 1.11493(17) 1.00385(14)
C8 C 0.8046(2) 1.07983(18) 0.95699(13)
C9 C 0.71039(19) 1.03140(18) 0.90052(12)
C10 C 0.6280(2) 1.1123(2) 0.85797(14)
H6 H 0.6329 1.1994 0.8674
C11 C 0.5392(2) 1.0677(2) 0.80235(14)
H7 H 0.4833 1.1239 0.7734
C12 C 0.5314(2) 0.9412(2) 0.78868(13)
H8 H 0.4709 0.9104 0.7498
C13 C 0.61133(19) 0.8591(2) 0.83123(13)
H9 H 0.6045 0.7722 0.8214
C14 C 0.70168(19) 0.90134(18) 0.88817(12)
C15 C 0.79027(19) 0.82084(17) 0.93565(12)
H10 H 0.8684 0.8620 0.9580
C16 C 0.7808(2) 0.69951(16) 0.95316(11)
C17 C 0.8840(2) 0.64582(17) 1.00781(13)
C18 C 1.0846(2) 0.6794(2) 1.08350(17)
H11 H 1.1559 0.7434 1.0931
H12 H 1.1303 0.6033 1.0649
H13 H 1.0341 0.6612 1.1310
C19 C 0.6709(2) 0.60958(18) 0.92576(13)
H14 H 0.6509 0.5479 0.9664
H15 H 0.5830 0.6553 0.9145
C20 C 0.6328(2) 0.4861(2) 0.81035(14)
C21 C 0.6990(2) 0.4215(2) 0.74313(16)
H16 H 0.8012 0.4309 0.7457
H17 H 0.6643 0.4588 0.6956
H18 H 0.6747 0.3328 0.7442
O1 O 0.98731(15) 0.72370(12) 1.02685(10)
O2 O 0.87480(16) 0.54247(13) 1.03378(11)
N1 N 0.71862(16) 0.54524(15) 0.85702(12)
H19 H 0.8088 0.5459 0.8462
O3 O 0.50724(18) 0.4850(3) 0.81979(14)
loop_
_geom_bond_atom_site_label_1
_geom_bond_atom_site_label_2
_geom_bond_site_symmetry_1
_geom_bond_site_symmetry_2
C1 C2 1_555 1_555
C2 H1 1_555 1_555
C3 C2 1_555 1_555
H2 C3 1_555 1_555
C4 C3 1_555 1_555
H3 C4 1_555 1_555
C5 C4 1_555 1_555
H4 C5 1_555 1_555
C6 C1 1_555 1_555
H5 C6 1_555 1_555
C7 C1 1_555 1_555
C8 C7 1_555 1_555
C9 C8 1_555 1_555
C10 C9 1_555 1_555
H6 C10 1_555 1_555
C11 C10 1_555 1_555
H7 C11 1_555 1_555
C12 C11 1_555 1_555
H8 C12 1_555 1_555
C13 C12 1_555 1_555
H9 C13 1_555 1_555
C14 C9 1_555 1_555
C15 C14 1_555 1_555
H10 C15 1_555 1_555
C16 C15 1_555 1_555
C17 C16 1_555 1_555
C18 H11 1_555 1_555
H12 C18 1_555 1_555
H13 C18 1_555 1_555
C19 C16 1_555 1_555
H14 C19 1_555 1_555
H15 C19 1_555 1_555
C20 C21 1_555 1_555
C21 H16 1_555 1_555
H17 C21 1_555 1_555
H18 C21 1_555 1_555
O1 C17 1_555 1_555
O2 C17 1_555 1_555
N1 C19 1_555 1_555
H19 N1 1_555 1_555
O3 C20 1_555 1_555
C5 C6 1_555 1_555
C13 C14 1_555 1_555
C18 O1 1_555 1_555
C20 N1 1_555 1_555

#END
