
#######################################################################
#
#                 Cambridge Crystallographic Data Centre
#                                CCDC 
#
#######################################################################
#
# If this CIF has been generated from an entry in the Cambridge 
# Structural Database, then it will include bibliographic, chemical, 
# crystal, experimental, refinement or atomic coordinate data resulting 
# from the CCDC's data processing and validation procedures.
#
#######################################################################

data_COMXAD05
_chemical_formula_moiety         'C2 H10 N2 2+,H1 O4 P1 2-'
_chemical_name_systematic        'Ethylenediammonium hydrogen phosphate'
_symmetry_cell_setting           monoclinic
_symmetry_space_group_name_H-M   'P 21/c'
_symmetry_Int_Tables_number      14
_space_group_name_Hall           '-P 2ybc'
loop_
_symmetry_equiv_pos_site_id
_symmetry_equiv_pos_as_xyz
1 x,y,z
2 -x,1/2+y,1/2-z
3 -x,-y,-z
4 x,1/2-y,1/2+z
_cell_length_a                   10.209(1)
_cell_length_b                   7.892(1)
_cell_length_c                   8.039(1)
_cell_angle_alpha                90
_cell_angle_beta                 92.138(9)
_cell_angle_gamma                90
_cell_volume                     647.247
_exptl_crystal_colour            colorless
_exptl_crystal_description       block
_cell_formula_units_Z            4
loop_
_atom_site_label
_atom_site_type_symbol
_atom_site_fract_x
_atom_site_fract_y
_atom_site_fract_z
P1 P 0.7527(1) 0.0697(1) 0.3998(1)
O1 O 0.7678(1) -0.1152(2) 0.3465(2)
O2 O 0.6108(1) 0.1248(2) 0.3895(2)
O3 O 0.8395(1) 0.1867(2) 0.3033(2)
O4 O 0.8030(2) 0.0655(2) 0.5892(2)
N1 N 0.4680(2) 0.2944(2) 0.6100(2)
C1 C 0.4372(2) 0.4563(2) 0.5246(2)
N1B N 0.5320(2) 0.7056(2) 0.3900(2)
C1B C 0.5628(2) 0.5437(2) 0.4754(2)
N2 N 0.0793(2) 0.3019(2) 0.4221(2)
C2 C 0.0559(2) 0.4473(2) 0.5335(2)
N2B N -0.0793(2) 0.6981(2) 0.5779(2)
C2B C -0.0559(2) 0.5527(2) 0.4665(2)
loop_
_geom_bond_atom_site_label_1
_geom_bond_atom_site_label_2
_geom_bond_site_symmetry_1
_geom_bond_site_symmetry_2
P1 O1 1_555 1_555
O2 P1 1_555 1_555
O3 P1 1_555 1_555
O4 P1 1_555 1_555
N1 C1 1_555 1_555
C1 C1B 1_555 1_555
N2 C2 1_555 1_555
C2 C2B 1_555 1_555
N1B C1B 1_555 1_555
N2B C2B 1_555 1_555

#END
