
#######################################################################
#
#                 Cambridge Crystallographic Data Centre
#                                CCDC 
#
#######################################################################
#
# If this CIF has been generated from an entry in the Cambridge 
# Structural Database, then it will include bibliographic, chemical, 
# crystal, experimental, refinement or atomic coordinate data resulting 
# from the CCDC's data processing and validation procedures.
#
#######################################################################

data_CONJUM
_chemical_formula_moiety         'C17 H14 N2 O2 2+,C10 H4 O8 2-'
_chemical_name_systematic        
"1-(3-carboxyphenyl)-4,4'-bipyridinium 2,5-dicarboxyterephthalate"
_symmetry_cell_setting           monoclinic
_symmetry_space_group_name_H-M   'C 2/c'
_symmetry_Int_Tables_number      15
_space_group_name_Hall           '-C 2yn'
loop_
_symmetry_equiv_pos_site_id
_symmetry_equiv_pos_as_xyz
1 x,y,z
2 -x,y,1/2-z
3 1/2+x,1/2+y,z
4 1/2-x,1/2+y,1/2-z
5 -x,-y,-z
6 x,-y,1/2+z
7 1/2-x,1/2-y,-z
8 1/2+x,1/2-y,1/2+z
_cell_length_a                   26.032(7)
_cell_length_b                   8.8150(15)
_cell_length_c                   21.444(8)
_cell_angle_alpha                90
_cell_angle_beta                 110.25(3)
_cell_angle_gamma                90
_cell_volume                     4616.65
_exptl_crystal_colour            yellow
_exptl_crystal_description       block
_cell_formula_units_Z            8
loop_
_atom_site_label
_atom_site_type_symbol
_atom_site_fract_x
_atom_site_fract_y
_atom_site_fract_z
O1 O 0.18916(7) 1.25066(19) 0.28417(7)
O2 O 0.22806(7) 1.09986(19) 0.37073(7)
N1 N 0.06310(7) 1.0890(2) -0.25364(9)
H1 H 0.0527(12) 1.120(3) -0.2950(16)
N2 N 0.14493(6) 0.91287(17) 0.08162(7)
C1 C 0.06921(8) 0.9433(3) -0.23796(10)
H2 H 0.0619 0.8708 -0.2714
C2 C 0.08643(8) 0.8980(2) -0.17206(9)
H3 H 0.0916 0.7958 -0.1608
C3 C 0.07260(9) 1.1965(3) -0.20793(10)
H4 H 0.0682 1.2979 -0.2206
C4 C 0.08884(9) 1.1588(2) -0.14203(10)
H5 H 0.0952 1.2343 -0.1100
C5 C 0.09576(8) 1.0080(2) -0.12328(9)
C6 C 0.11246(8) 0.9685(2) -0.05184(9)
C7 C 0.08602(8) 1.0363(2) -0.01290(9)
H6 H 0.0569 1.1020 -0.0322
C8 C 0.10267(8) 1.0070(2) 0.05342(9)
H7 H 0.0847 1.0523 0.0793
C9 C 0.15462(8) 0.8687(2) -0.02215(9)
H8 H 0.1721 0.8195 -0.0476
C10 C 0.17076(8) 0.8420(2) 0.04502(9)
H9 H 0.1994 0.7754 0.0652
C11 C 0.16415(8) 0.8895(2) 0.15309(9)
C12 C 0.17026(8) 0.7425(2) 0.17707(10)
H10 H 0.1618 0.6602 0.1481
C13 C 0.18921(9) 0.7207(3) 0.24502(10)
H11 H 0.1938 0.6229 0.2624
C14 C 0.20133(9) 0.8439(3) 0.28711(10)
H12 H 0.2147 0.8280 0.3328
C15 C 0.17510(8) 1.0143(2) 0.19439(9)
H13 H 0.1699 1.1121 0.1770
C16 C 0.19413(8) 0.9903(2) 0.26295(9)
C17 C 0.20594(8) 1.1186(3) 0.31142(10)
H14 H 0.1991(14) 1.330(4) 0.3188(17)
O3 O 0.03612(6) 0.80025(16) 0.12260(6)
O4 O 0.01723(11) 0.60950(18) 0.17519(8)
O5 O 0.00840(11) 0.33995(19) 0.16784(8)
H15 H 0.0141(16) 0.505(2) 0.173(2)
O6 O 0.01485(7) 0.16271(16) 0.10118(7)
C18 C 0.01088(9) 0.2961(2) 0.11152(9)
C19 C 0.00569(8) 0.4118(2) 0.05725(9)
C20 C 0.01255(8) 0.5702(2) 0.06258(9)
C21 C 0.00718(8) 0.6516(2) 0.00546(9)
H16 H 0.0126 0.7559 0.0094
C22 C 0.02405(9) 0.6652(2) 0.12454(9)
O3D O -0.03612(6) 0.19975(16) -0.12260(6)
O4D O -0.01723(11) 0.39050(18) -0.17519(8)
O5D O -0.00840(11) 0.66005(19) -0.16784(8)
H15D H -0.0141(16) 0.495(2) -0.173(2)
O6D O -0.01485(7) 0.83729(16) -0.10118(7)
C18D C -0.01088(9) 0.7039(2) -0.11152(9)
C19D C -0.00569(8) 0.5882(2) -0.05725(9)
C20D C -0.01255(8) 0.4298(2) -0.06258(9)
C21D C -0.00718(8) 0.3484(2) -0.00546(9)
H16D H -0.0126 0.2441 -0.0094
C22D C -0.02405(9) 0.3348(2) -0.12454(9)
O7 O 0.28283(8) -0.03170(19) 0.12940(8)
O8 O 0.35270(8) -0.0443(2) 0.09423(9)
O9 O 0.37124(9) 0.0165(3) -0.00601(13)
H17 H 0.3698(14) -0.007(4) 0.0348(11)
O10 O 0.34070(8) 0.1673(2) -0.09063(10)
C23 C 0.30684(10) 0.0074(2) 0.09140(10)
C24 C 0.27953(9) 0.1296(2) 0.04049(9)
C25 C 0.29444(8) 0.1805(2) -0.01348(9)
C26 C 0.26412(8) 0.2990(2) -0.05116(9)
H18 H 0.2739 0.3334 -0.0865
C27 C 0.33771(10) 0.1190(3) -0.03928(12)
O7F O 0.21717(8) 0.53170(19) -0.12940(8)
O8F O 0.14730(8) 0.5443(2) -0.09423(9)
O9F O 0.12876(9) 0.4835(3) 0.00601(13)
H17F H 0.1302(14) 0.507(4) -0.0348(11)
O10F O 0.15930(8) 0.3327(2) 0.09063(10)
C23F C 0.19316(10) 0.4926(2) -0.09140(10)
C24F C 0.22047(9) 0.3704(2) -0.04049(9)
C25F C 0.20556(8) 0.3195(2) 0.01348(9)
C26F C 0.23588(8) 0.2010(2) 0.05116(9)
H18F H 0.2261 0.1666 0.0865
C27F C 0.16229(10) 0.3810(3) 0.03928(12)
loop_
_geom_bond_atom_site_label_1
_geom_bond_atom_site_label_2
_geom_bond_site_symmetry_1
_geom_bond_site_symmetry_2
O1 C17 1_555 1_555
O2 C17 1_555 1_555
N1 H1 1_555 1_555
N2 C8 1_555 1_555
C1 N1 1_555 1_555
H2 C1 1_555 1_555
C2 C1 1_555 1_555
H3 C2 1_555 1_555
C3 N1 1_555 1_555
H4 C3 1_555 1_555
C4 C3 1_555 1_555
H5 C4 1_555 1_555
C5 C2 1_555 1_555
C6 C5 1_555 1_555
C7 C6 1_555 1_555
H6 C7 1_555 1_555
C8 C7 1_555 1_555
H7 C8 1_555 1_555
C9 C6 1_555 1_555
H8 C9 1_555 1_555
C10 N2 1_555 1_555
H9 C10 1_555 1_555
C11 N2 1_555 1_555
C12 C11 1_555 1_555
H10 C12 1_555 1_555
C13 C12 1_555 1_555
H11 C13 1_555 1_555
C14 C13 1_555 1_555
H12 C14 1_555 1_555
C15 C11 1_555 1_555
H13 C15 1_555 1_555
C16 C14 1_555 1_555
C17 C16 1_555 1_555
H14 O1 1_555 1_555
O3 C22 1_555 1_555
O4 H15 1_555 1_555
O5 C18 1_555 1_555
O6 C18 1_555 1_555
C18 C19 1_555 1_555
C19 C20 1_555 1_555
C20 C21 1_555 1_555
C21 H16 1_555 1_555
C22 O4 1_555 1_555
O7 C23 1_555 1_555
O8 C23 1_555 1_555
O9 H17 1_555 1_555
O10 C27 1_555 1_555
C23 C24 1_555 1_555
C24 C25 1_555 1_555
C25 C26 1_555 1_555
C26 H18 1_555 1_555
C27 O9 1_555 1_555
O3D C22D 1_555 1_555
O4D H15D 1_555 1_555
O5D C18D 1_555 1_555
O6D C18D 1_555 1_555
C18D C19D 1_555 1_555
C19D C21 1_555 1_555
C20D C19D 1_555 1_555
C21D C19 1_555 1_555
H16D C21D 1_555 1_555
C22D O4D 1_555 1_555
O7F C23F 1_555 1_555
O8F C23F 1_555 1_555
O9F H17F 1_555 1_555
O10F C27F 1_555 1_555
C23F C24F 1_555 1_555
C24F C26 1_555 1_555
C25F C24F 1_555 1_555
C26F C24 1_555 1_555
H18F C26F 1_555 1_555
C27F O9F 1_555 1_555
C4 C5 1_555 1_555
C9 C10 1_555 1_555
C15 C16 1_555 1_555
C20 C22 1_555 1_555
C25 C27 1_555 1_555
C20D C21D 1_555 1_555
C20D C22D 1_555 1_555
C25F C26F 1_555 1_555
C25F C27F 1_555 1_555

#END
