
#######################################################################
#
#                 Cambridge Crystallographic Data Centre
#                                CCDC 
#
#######################################################################
#
# If this CIF has been generated from an entry in the Cambridge 
# Structural Database, then it will include bibliographic, chemical, 
# crystal, experimental, refinement or atomic coordinate data resulting 
# from the CCDC's data processing and validation procedures.
#
#######################################################################

data_COPFOE01
_chemical_formula_moiety         'C6 H7 F3 N2 O2'
_chemical_name_systematic        
'methyl 5-(trifluoromethyl)-4,5-dihydro-1H-pyrazole-3-carboxylate'
_symmetry_cell_setting           monoclinic
_symmetry_space_group_name_H-M   'P 21/c'
_symmetry_Int_Tables_number      14
_space_group_name_Hall           '-P 2ybc'
loop_
_symmetry_equiv_pos_site_id
_symmetry_equiv_pos_as_xyz
1 x,y,z
2 -x,1/2+y,1/2-z
3 -x,-y,-z
4 x,1/2-y,1/2+z
_cell_length_a                   8.719(2)
_cell_length_b                   7.7876(17)
_cell_length_c                   12.388(3)
_cell_angle_alpha                90
_cell_angle_beta                 104.29(2)
_cell_angle_gamma                90
_cell_volume                     815.12
_cell_formula_units_Z            4
loop_
_atom_site_label
_atom_site_type_symbol
_atom_site_fract_x
_atom_site_fract_y
_atom_site_fract_z
F1 F 0.3973(6) 0.3136(7) 0.8305(4)
F2 F 0.3018(5) 0.0632(6) 0.8369(3)
F3 F 0.4514(6) 0.1137(7) 0.7290(4)
O1 O 0.0989(6) 0.8151(7) 0.6009(4)
O2 O 0.2618(5) 0.6927(6) 0.5095(4)
N1 N 0.0732(6) 0.4908(8) 0.6915(4)
N2 N 0.0819(7) 0.3241(8) 0.7221(5)
H1 H 0.0264 0.2797 0.7635
C1 C 0.1965(8) 0.2266(9) 0.6769(5)
H2 H 0.1471 0.1249 0.6362
C2 C 0.2398(8) 0.3616(8) 0.5961(5)
H3 H 0.3534 0.3776 0.6108
H4 H 0.1988 0.3285 0.5189
C3 C 0.1617(7) 0.5157(9) 0.6230(5)
C4 C 0.1685(8) 0.6905(9) 0.5788(5)
C5 C 0.2780(8) 0.8536(10) 0.4571(5)
H5 H 0.3234 0.8344 0.3950
H6 H 0.3457 0.9281 0.5098
H7 H 0.1758 0.9059 0.4315
C6 C 0.3354(9) 0.1786(10) 0.7676(7)
loop_
_geom_bond_atom_site_label_1
_geom_bond_atom_site_label_2
_geom_bond_site_symmetry_1
_geom_bond_site_symmetry_2
F1 C6 1_555 1_555
F2 C6 1_555 1_555
F3 C6 1_555 1_555
O1 C4 1_555 1_555
O2 C4 1_555 1_555
N1 N2 1_555 1_555
N2 H1 1_555 1_555
C1 N2 1_555 1_555
H2 C1 1_555 1_555
C2 C1 1_555 1_555
H3 C2 1_555 1_555
H4 C2 1_555 1_555
C3 N1 1_555 1_555
C4 C3 1_555 1_555
C5 O2 1_555 1_555
H5 C5 1_555 1_555
H6 C5 1_555 1_555
H7 C5 1_555 1_555
C6 C1 1_555 1_555
C2 C3 1_555 1_555

#END
