
#######################################################################
#
#                 Cambridge Crystallographic Data Centre
#                                CCDC 
#
#######################################################################
#
# If this CIF has been generated from an entry in the Cambridge 
# Structural Database, then it will include bibliographic, chemical, 
# crystal, experimental, refinement or atomic coordinate data resulting 
# from the CCDC's data processing and validation procedures.
#
#######################################################################

data_COPKOH
_chemical_formula_moiety         'C20 H40 Si5'
_chemical_name_systematic        
Pentaspiro(cyclotetramethylene)-cyclopentasilane
_symmetry_cell_setting           monoclinic
_symmetry_space_group_name_H-M   'P 21/c'
_symmetry_Int_Tables_number      14
_space_group_name_Hall           '-P 2ybc'
loop_
_symmetry_equiv_pos_site_id
_symmetry_equiv_pos_as_xyz
1 x,y,z
2 -x,1/2+y,1/2-z
3 -x,-y,-z
4 x,1/2-y,1/2+z
_cell_length_a                   15.246(2)
_cell_length_b                   9.133(1)
_cell_length_c                   18.452(3)
_cell_angle_alpha                90
_cell_angle_beta                 107.59(1)
_cell_angle_gamma                90
_cell_volume                     2449.16
_exptl_crystal_colour            colorless
_chemical_melting_point          89.5-90deg.C
_cell_formula_units_Z            4
loop_
_atom_site_label
_atom_site_type_symbol
_atom_site_fract_x
_atom_site_fract_y
_atom_site_fract_z
Si1 Si 0.33344(3) 0.8185(5) 0.086387(24)
Si2 Si 0.324787(29) 0.81717(5) 0.211011(24)
Si3 Si 0.180804(29) 0.92168(5) 0.199912(24)
Si4 Si 0.177098(29) 1.11392(5) 0.114811(25)
Si5 Si 0.251262(29) 1.02669(5) 0.028698(24)
C1 C 0.45197(12) 0.80261(20) 0.07195(11)
C2 C 0.45051(13) 0.65236(20) 0.03424(11)
C3 C 0.35275(13) 0.61835(20) -0.01545(10)
C4 C 0.28659(13) 0.64351(20) 0.03186(10)
C5 C 0.42175(12) 0.92771(20) 0.27773(10)
C6 C 0.49467(12) 0.81003(21) 0.31092(11)
C7 C 0.44607(13) 0.67621(10) 0.33118(10)
C8 C 0.36176(13) 0.63626(19) 0.26345(10)
C9 C 0.16287(14) 0.97779(27) 0.29377(11)
C10 C 0.07520(27) 0.8964(4) 0.29415(24)
C11 C 0.0536(4) 0.7734(7) 0.24221(21)
C12 C 0.07792(13) 0.79342(22) 0.17202(14)
C13 C 0.06297(12) 1.21036(21) 0.06961(11)
C14 C 0.09130(14) 1.37290(22) 0.07396(12)
C15 C 0.16083(14) 1.40001(21) 0.15108(12)
C16 C 0.23786(12) 1.28449(20) 0.16597(10)
C17 C 0.17365(14) 0.99147(23) -0.07207(10)
C18 C 0.19525(17) 1.1186(3) -0.11791(12)
C19 C 0.29657(16) 1.1556(3) -0.08835(11)
C20 C 0.32400(13) 1.17118(20) -0.00128(10)
H1 H 0.5025(17) 0.8129(24) 0.1164(13)
H2 H 0.4581(15) 0.8803(24) 0.0354(12)
H3 H 0.4675(15) 0.5717(25) 0.0727(13)
H4 H 0.4988(20) 0.638(3) 0.0107(17)
H5 H 0.3490(15) 0.5192(25) -0.0344(12)
H6 H 0.3339(10) 0.6874(24) -0.0595(13)
H7 H 0.2891(15) 0.5605(26) 0.0674(13)
H8 H 0.2250(18) 0.6471(27) 0.0029(14)
H9 H 0.3987(15) 0.9745(24) 0.3151(13)
H10 H 0.4436(17) 1.0095(28) 0.2546(14)
H11 H 0.5437(16) 0.8469(25) 0.3540(13)
H12 H 0.5260(16) 0.7833(26) 0.2717(13)
H13 H 0.4274(18) 0.7028(28) 0.3770(15)
H14 H 0.4919(17) 0.5929(28) 0.3484(14)
H15 H 0.3770(16) 0.5733(26) 0.2283(13)
H16 H 0.3123(18) 0.5871(28) 0.2782(14)
H17 H 0.2170(28) 0.938(4) 0.3324(23)
H18 H 0.1568(20) 1.080(3) 0.2947(16)
H19 H 0.0616(24) 0.895(4) 0.3328(21)
H20 H 0.003(4) 0.952(6) 0.234(3)
H21 H -0.0052(25) 0.726(4) 0.2367(19)
H22 H 0.122(6) 0.706(9) 0.285(5)
H23 H 0.0284(23) 0.846(3) 0.1348(18)
H24 H 0.0870(25) 0.705(4) 0.1431(21)
H25 H 0.0300(17) 1.1722(26) 0.0161(14)
H26 H 0.0244(16) 1.1960(24) 0.1001(13)
H27 H 0.0396(19) 1.439(3) 0.0629(15)
H28 H 0.1174(19) 1.4004(29) 0.0344(16)
H29 H 0.1230(16) 1.3926(25) 0.1906(13)
H30 H 0.1844(16) 1.5047(25) 0.1561(13)
H31 H 0.2654(17) 1.2717(26) 0.2153(14)
H32 H 0.2869(17) 1.3143(23) 0.1483(13)
H33 H 0.1098(20) 0.986(3) -0.0781(15)
H34 H 0.1897(21) 0.909(3) -0.0863(17)
H35 H 0.1609(26) 1.217(4) -0.1025(20)
H36 H 0.3112(16) 1.240(3) -0.1146(13)
H37 H 0.1761(21) 1.099(3) -0.1707(19)
H38 H 0.3231(20) 1.060(3) -0.1015(16)
H39 H 0.3838(17) 1.1607(24) 0.0201(12)
H40 H 0.3063(15) 1.2662(27) 0.0106(12)
loop_
_geom_bond_atom_site_label_1
_geom_bond_atom_site_label_2
_geom_bond_site_symmetry_1
_geom_bond_site_symmetry_2
Si1 Si2 1_555 1_555
Si2 Si3 1_555 1_555
Si3 Si4 1_555 1_555
Si4 Si5 1_555 1_555
Si5 Si1 1_555 1_555
C1 Si1 1_555 1_555
C2 C1 1_555 1_555
C3 C2 1_555 1_555
C4 Si1 1_555 1_555
C5 Si2 1_555 1_555
C6 C5 1_555 1_555
C7 C6 1_555 1_555
C8 Si2 1_555 1_555
C9 Si3 1_555 1_555
C10 C9 1_555 1_555
C11 C10 1_555 1_555
C12 Si3 1_555 1_555
C13 Si4 1_555 1_555
C14 C13 1_555 1_555
C15 C14 1_555 1_555
C16 Si4 1_555 1_555
C17 Si5 1_555 1_555
C18 C17 1_555 1_555
C19 C18 1_555 1_555
C20 Si5 1_555 1_555
H1 C1 1_555 1_555
H2 C1 1_555 1_555
H3 C2 1_555 1_555
H4 C2 1_555 1_555
H5 C3 1_555 1_555
H6 C3 1_555 1_555
H7 C4 1_555 1_555
H8 C4 1_555 1_555
H9 C5 1_555 1_555
H10 C5 1_555 1_555
H11 C6 1_555 1_555
H12 C6 1_555 1_555
H13 C7 1_555 1_555
H14 C7 1_555 1_555
H15 C8 1_555 1_555
H16 C8 1_555 1_555
H17 C9 1_555 1_555
H18 C9 1_555 1_555
H19 C10 1_555 1_555
H20 C10 1_555 1_555
H21 C11 1_555 1_555
H22 C11 1_555 1_555
H23 C12 1_555 1_555
H24 C12 1_555 1_555
H25 C13 1_555 1_555
H26 C13 1_555 1_555
H27 C14 1_555 1_555
H28 C14 1_555 1_555
H29 C15 1_555 1_555
H30 C15 1_555 1_555
H31 C16 1_555 1_555
H32 C16 1_555 1_555
H33 C17 1_555 1_555
H34 C17 1_555 1_555
H35 C18 1_555 1_555
H36 C19 1_555 1_555
H37 C18 1_555 1_555
H38 C19 1_555 1_555
H39 C20 1_555 1_555
H40 C20 1_555 1_555
C3 C4 1_555 1_555
C7 C8 1_555 1_555
C11 C12 1_555 1_555
C15 C16 1_555 1_555
C19 C20 1_555 1_555

#END
