
#######################################################################
#
#                 Cambridge Crystallographic Data Centre
#                                CCDC 
#
#######################################################################
#
# If this CIF has been generated from an entry in the Cambridge 
# Structural Database, then it will include bibliographic, chemical, 
# crystal, experimental, refinement or atomic coordinate data resulting 
# from the CCDC's data processing and validation procedures.
#
#######################################################################

data_COPTEI
_chemical_formula_moiety         'C26 H18 N2 O1'
_chemical_name_systematic        
3,4-Diphenyl-1-(pyridin-2-yl)quinolin-2(1H)-one
_symmetry_cell_setting           triclinic
_symmetry_space_group_name_H-M   'P -1'
_symmetry_Int_Tables_number      2
_space_group_name_Hall           '-P 1'
loop_
_symmetry_equiv_pos_site_id
_symmetry_equiv_pos_as_xyz
1 x,y,z
2 -x,-y,-z
_cell_length_a                   9.4051(2)
_cell_length_b                   9.7585(3)
_cell_length_c                   11.4350(3)
_cell_angle_alpha                73.339(1)
_cell_angle_beta                 85.427(1)
_cell_angle_gamma                73.497(1)
_cell_volume                     964.019
_exptl_crystal_colour            colorless
_exptl_crystal_description       prism
_cell_formula_units_Z            2
loop_
_atom_site_label
_atom_site_type_symbol
_atom_site_fract_x
_atom_site_fract_y
_atom_site_fract_z
C1 C 0.91806(11) 0.28025(12) 0.86944(9)
C2 C 0.88351(11) 0.24614(11) 1.00018(9)
C3 C 0.74668(11) 0.23504(11) 1.04141(10)
C4 C 0.63105(11) 0.25589(12) 0.95636(10)
C5 C 0.49017(13) 0.23895(16) 0.99544(12)
H1 H 0.4683 0.2157 1.0802
C6 C 0.38328(14) 0.25532(17) 0.91347(14)
H2 H 0.2883 0.2439 0.9413
C7 C 0.41531(14) 0.28864(15) 0.78988(13)
H3 H 0.3418 0.2987 0.7333
C8 C 0.55170(13) 0.30749(13) 0.74741(11)
H4 H 0.5714 0.3319 0.6622
C9 C 0.66133(11) 0.29033(12) 0.83080(10)
C10 C 0.83147(12) 0.34485(12) 0.66239(9)
C11 C 0.89769(13) 0.23828(13) 0.60290(11)
H5 H 0.9294 0.1359 0.6461
C12 C 0.91627(15) 0.28615(15) 0.47761(11)
H6 H 0.9603 0.2167 0.4326
C13 C 0.86975(14) 0.43622(15) 0.41937(11)
H7 H 0.8812 0.4721 0.3337
C14 C 0.80647(15) 0.53263(14) 0.48820(11)
H8 H 0.7760 0.6360 0.4478
C15 C 1.00591(11) 0.22749(12) 1.08348(9)
C16 C 1.01099(13) 0.34277(14) 1.12948(11)
H9 H 0.9354 0.4342 1.1085
C17 C 1.12605(14) 0.32556(15) 1.20624(11)
H10 H 1.1294 0.4057 1.2365
C18 C 1.23495(13) 0.19330(14) 1.23863(10)
H11 H 1.3122 0.1811 1.2925
C19 C 1.23145(15) 0.07847(14) 1.19251(13)
H12 H 1.3069 -0.0130 1.2143
C20 C 1.11790(13) 0.09595(13) 1.11426(12)
H13 H 1.1172 0.0169 1.0816
C21 C 0.71094(11) 0.19795(12) 1.17439(10)
C22 C 0.62674(13) 0.30794(13) 1.22580(11)
H14 H 0.5958 0.4080 1.1768
C23 C 0.58751(14) 0.27274(15) 1.34824(12)
H15 H 0.5299 0.3487 1.3827
C24 C 0.63193(15) 0.12781(16) 1.41998(11)
H16 H 0.6047 0.1036 1.5037
C25 C 0.71599(17) 0.01824(15) 1.36968(13)
H17 H 0.7473 -0.0815 1.4192
C26 C 0.75540(14) 0.05231(14) 1.24712(12)
H18 H 0.8128 -0.0241 1.2131
N1 N 0.80276(10) 0.30200(10) 0.79166(8)
N2 N 0.78520(12) 0.48934(11) 0.60907(9)
O1 O 1.04011(8) 0.29089(10) 0.82774(7)
loop_
_geom_bond_atom_site_label_1
_geom_bond_atom_site_label_2
_geom_bond_site_symmetry_1
_geom_bond_site_symmetry_2
C1 C2 1_555 1_555
C2 C3 1_555 1_555
C3 C4 1_555 1_555
C4 C5 1_555 1_555
C5 H1 1_555 1_555
C6 C5 1_555 1_555
H2 C6 1_555 1_555
C7 C6 1_555 1_555
H3 C7 1_555 1_555
C8 C7 1_555 1_555
H4 C8 1_555 1_555
C9 C4 1_555 1_555
C10 C11 1_555 1_555
C11 H5 1_555 1_555
C12 C11 1_555 1_555
H6 C12 1_555 1_555
C13 C12 1_555 1_555
H7 C13 1_555 1_555
C14 C13 1_555 1_555
H8 C14 1_555 1_555
C15 C2 1_555 1_555
C16 C15 1_555 1_555
H9 C16 1_555 1_555
C17 C16 1_555 1_555
H10 C17 1_555 1_555
C18 C17 1_555 1_555
H11 C18 1_555 1_555
C19 C18 1_555 1_555
H12 C19 1_555 1_555
C20 C15 1_555 1_555
H13 C20 1_555 1_555
C21 C3 1_555 1_555
C22 C21 1_555 1_555
H14 C22 1_555 1_555
C23 C22 1_555 1_555
H15 C23 1_555 1_555
C24 C23 1_555 1_555
H16 C24 1_555 1_555
C25 C24 1_555 1_555
H17 C25 1_555 1_555
C26 C21 1_555 1_555
H18 C26 1_555 1_555
N1 C1 1_555 1_555
N2 C10 1_555 1_555
O1 C1 1_555 1_555
C8 C9 1_555 1_555
C9 N1 1_555 1_555
C10 N1 1_555 1_555
C14 N2 1_555 1_555
C19 C20 1_555 1_555
C25 C26 1_555 1_555

#END
