
#######################################################################
#
#                 Cambridge Crystallographic Data Centre
#                                CCDC 
#
#######################################################################
#
# If this CIF has been generated from an entry in the Cambridge 
# Structural Database, then it will include bibliographic, chemical, 
# crystal, experimental, refinement or atomic coordinate data resulting 
# from the CCDC's data processing and validation procedures.
#
#######################################################################

data_COQFAR
_chemical_formula_moiety         'C41 H51 N7 O2,Cs1 1+,Cl1 1-'
_chemical_name_systematic        
'cesium 1,19,24,24,33,33-hexamethyl-6,14,38,39,40,41,42-heptaazaheptacyclo[17.9.9.1^8,12^.1^20,23^.1^25,28^.1^29,32^.1^34,37^]dotetraconta-8(42),9,11,20,22,25,27,29,31,34,36-undecaene-7,13-dione chloride'
_symmetry_cell_setting           monoclinic
_symmetry_space_group_name_H-M   'C c'
_symmetry_Int_Tables_number      9
_space_group_name_Hall           'C -2yc'
loop_
_symmetry_equiv_pos_site_id
_symmetry_equiv_pos_as_xyz
1 x,y,z
2 x,-y,1/2+z
3 1/2+x,1/2+y,z
4 1/2+x,1/2-y,1/2+z
_cell_length_a                   21.1790(14)
_cell_length_b                   9.0172(6)
_cell_length_c                   20.4471(13)
_cell_angle_alpha                90
_cell_angle_beta                 94.011(2)
_cell_angle_gamma                90
_cell_volume                     3895.33
_exptl_crystal_colour            colorless
_exptl_crystal_description       plates
_cell_formula_units_Z            4
loop_
_atom_site_label
_atom_site_type_symbol
_atom_site_fract_x
_atom_site_fract_y
_atom_site_fract_z
C1 C 0.45763(19) 0.5503(5) 0.15713(19)
C2 C 0.44369(19) 0.4028(5) 0.1518(2)
H1 H 0.4045 0.3618 0.1352
C3 C 0.4979(2) 0.3215(4) 0.1753(2)
H2 H 0.5013 0.2166 0.1773
C4 C 0.54434(19) 0.4211(4) 0.19473(19)
C5 C 0.61106(19) 0.3962(4) 0.22498(19)
C6 C 0.61015(18) 0.4032(4) 0.2986(2)
C7 C 0.6103(2) 0.2926(5) 0.3450(2)
H3 H 0.6115 0.1890 0.3367
C8 C 0.6081(2) 0.3602(5) 0.4071(2)
H4 H 0.6080 0.3101 0.4479
C9 C 0.6064(2) 0.5099(4) 0.3982(2)
C10 C 0.60184(19) 0.6354(4) 0.44748(19)
C11 C 0.53393(19) 0.6910(4) 0.44573(19)
C12 C 0.4858(2) 0.6532(5) 0.4840(2)
H5 H 0.4886 0.5862 0.5199
C13 C 0.4306(2) 0.7328(5) 0.4599(2)
H6 H 0.3902 0.7288 0.4773
C14 C 0.44638(19) 0.8159(4) 0.40737(19)
C15 C 0.40743(18) 0.9227(5) 0.3639(2)
C16 C 0.38191(18) 0.8440(4) 0.3025(2)
C17 C 0.3228(2) 0.7910(5) 0.2838(2)
H7 H 0.2864 0.7982 0.3082
C18 C 0.3258(2) 0.7229(6) 0.2211(2)
H8 H 0.2916 0.6752 0.1970
C19 C 0.38575(19) 0.7377(5) 0.2016(2)
C20 C 0.41594(19) 0.6848(5) 0.1411(2)
C21 C 0.6334(2) 0.2413(5) 0.2055(2)
H9 H 0.6032 0.1667 0.2189
H10 H 0.6752 0.2214 0.2272
H11 H 0.6359 0.2371 0.1578
C22 C 0.6566(2) 0.5116(4) 0.2002(2)
H12 H 0.6538 0.5112 0.1521
H13 H 0.7000 0.4874 0.2166
H14 H 0.6454 0.6101 0.2159
C23 C 0.6197(2) 0.5740(5) 0.5166(2)
H15 H 0.6177 0.6541 0.5489
H16 H 0.6628 0.5338 0.5183
H17 H 0.5901 0.4953 0.5267
C24 C 0.3512(2) 0.9775(6) 0.4013(3)
H18 H 0.3237 0.8934 0.4102
H19 H 0.3270 1.0511 0.3746
H20 H 0.3670 1.0228 0.4428
C25 C 0.4476(2) 1.0592(4) 0.3463(2)
H21 H 0.4639 1.1089 0.3866
H22 H 0.4211 1.1284 0.3195
H23 H 0.4831 1.0265 0.3216
C26 C 0.3620(2) 0.6371(6) 0.0901(2)
H24 H 0.3350 0.7228 0.0785
H25 H 0.3366 0.5591 0.1088
H26 H 0.3804 0.5994 0.0506
C27 C 0.64650(18) 0.7649(4) 0.43194(19)
H27 H 0.6311 0.8097 0.3896
H28 H 0.6439 0.8419 0.4662
C28 C 0.71626(19) 0.7215(5) 0.4280(2)
H29 H 0.7301 0.6618 0.4671
H30 H 0.7204 0.6590 0.3887
C29 C 0.7592(2) 0.8557(5) 0.4245(2)
H31 H 0.8032 0.8204 0.4215
H32 H 0.7580 0.9121 0.4659
C30 C 0.7429(2) 0.9605(5) 0.3676(3)
H33 H 0.7024 1.0107 0.3751
H34 H 0.7760 1.0378 0.3673
C31 C 0.7853(2) 0.8289(5) 0.2760(2)
C32 C 0.77455(19) 0.7766(5) 0.2058(2)
C33 C 0.8144(2) 0.6737(5) 0.1806(3)
H35 H 0.8469 0.6281 0.2080
C34 C 0.8062(2) 0.6383(5) 0.1150(3)
H36 H 0.8330 0.5678 0.0963
C35 C 0.7583(2) 0.7070(5) 0.0769(2)
H37 H 0.7525 0.6877 0.0312
C36 C 0.71894(19) 0.8049(5) 0.1071(2)
C37 C 0.6653(2) 0.8787(5) 0.0671(2)
C38 C 0.5634(2) 1.0046(4) 0.0713(2)
H38 H 0.5800 1.0896 0.0472
H39 H 0.5386 1.0451 0.1065
C39 C 0.5191(2) 0.9150(5) 0.0242(2)
H40 H 0.4841 0.9803 0.0073
H41 H 0.5428 0.8843 -0.0136
C40 C 0.4908(2) 0.7780(5) 0.0536(2)
H42 H 0.5253 0.7074 0.0664
H43 H 0.4621 0.7294 0.0198
C41 C 0.45403(19) 0.8126(5) 0.11339(19)
H44 H 0.4244 0.8948 0.1017
H45 H 0.4844 0.8490 0.1488
N1 N 0.51857(16) 0.5602(3) 0.18417(16)
H46 H 0.5385 0.6440 0.1935
N2 N 0.60735(16) 0.5366(4) 0.33228(17)
H47 H 0.6064 0.6250 0.3140
N3 N 0.50952(16) 0.7886(4) 0.39909(17)
H48 H 0.5311 0.8282 0.3682
N4 N 0.42047(16) 0.8108(4) 0.25236(17)
H49 H 0.4610 0.8327 0.2525
N5 N 0.73685(16) 0.8896(4) 0.30324(18)
H50 H 0.6994 0.8873 0.2817
N6 N 0.72572(15) 0.8392(4) 0.17048(17)
N7 N 0.61660(16) 0.9204(4) 0.10122(17)
H51 H 0.6167 0.8962 0.1429
O1 O 0.83820(13) 0.8161(4) 0.30431(17)
O2 O 0.66756(16) 0.8951(4) 0.00780(16)
Cs1 Cs 0.45322(2) 1.47838(3) 0.32659(2)
Cl1 Cl 0.57715(4) 0.86417(10) 0.25880(4)
loop_
_geom_bond_atom_site_label_1
_geom_bond_atom_site_label_2
_geom_bond_site_symmetry_1
_geom_bond_site_symmetry_2
C1 C2 1_555 1_555
C2 H1 1_555 1_555
C3 C2 1_555 1_555
H2 C3 1_555 1_555
C4 C3 1_555 1_555
C5 C4 1_555 1_555
C6 C5 1_555 1_555
C7 C6 1_555 1_555
H3 C7 1_555 1_555
C8 C7 1_555 1_555
H4 C8 1_555 1_555
C9 C8 1_555 1_555
C10 C9 1_555 1_555
C11 C10 1_555 1_555
C12 C11 1_555 1_555
H5 C12 1_555 1_555
C13 C12 1_555 1_555
H6 C13 1_555 1_555
C14 C13 1_555 1_555
C15 C14 1_555 1_555
C16 C15 1_555 1_555
C17 C16 1_555 1_555
H7 C17 1_555 1_555
C18 C17 1_555 1_555
H8 C18 1_555 1_555
C19 C18 1_555 1_555
C20 C1 1_555 1_555
C21 C5 1_555 1_555
H9 C21 1_555 1_555
H10 C21 1_555 1_555
H11 C21 1_555 1_555
C22 C5 1_555 1_555
H12 C22 1_555 1_555
H13 C22 1_555 1_555
H14 C22 1_555 1_555
C23 C10 1_555 1_555
H15 C23 1_555 1_555
H16 C23 1_555 1_555
H17 C23 1_555 1_555
C24 C15 1_555 1_555
H18 C24 1_555 1_555
H19 C24 1_555 1_555
H20 C24 1_555 1_555
C25 C15 1_555 1_555
H21 C25 1_555 1_555
H22 C25 1_555 1_555
H23 C25 1_555 1_555
C26 C20 1_555 1_555
H24 C26 1_555 1_555
H25 C26 1_555 1_555
H26 C26 1_555 1_555
C27 C10 1_555 1_555
H27 C27 1_555 1_555
H28 C27 1_555 1_555
C28 C27 1_555 1_555
H29 C28 1_555 1_555
H30 C28 1_555 1_555
C29 C28 1_555 1_555
H31 C29 1_555 1_555
H32 C29 1_555 1_555
C30 C29 1_555 1_555
H33 C30 1_555 1_555
H34 C30 1_555 1_555
C31 C32 1_555 1_555
C32 C33 1_555 1_555
C33 H35 1_555 1_555
C34 C33 1_555 1_555
H36 C34 1_555 1_555
C35 C34 1_555 1_555
H37 C35 1_555 1_555
C36 C35 1_555 1_555
C37 C36 1_555 1_555
C38 H38 1_555 1_555
H39 C38 1_555 1_555
C39 C38 1_555 1_555
H40 C39 1_555 1_555
H41 C39 1_555 1_555
C40 C39 1_555 1_555
H42 C40 1_555 1_555
H43 C40 1_555 1_555
C41 C20 1_555 1_555
H44 C41 1_555 1_555
H45 C41 1_555 1_555
N1 C1 1_555 1_555
H46 N1 1_555 1_555
N2 C6 1_555 1_555
H47 N2 1_555 1_555
N3 C11 1_555 1_555
H48 N3 1_555 1_555
N4 C16 1_555 1_555
H49 N4 1_555 1_555
N5 C30 1_555 1_555
H50 N5 1_555 1_555
N6 C32 1_555 1_555
N7 C37 1_555 1_555
H51 N7 1_555 1_555
O1 C31 1_555 1_555
O2 C37 1_555 1_555
C4 N1 1_555 1_555
C9 N2 1_555 1_555
C14 N3 1_555 1_555
C19 C20 1_555 1_555
C19 N4 1_555 1_555
C31 N5 1_555 1_555
C36 N6 1_555 1_555
C38 N7 1_555 1_555
C40 C41 1_555 1_555

#END
