
#######################################################################
#
#                 Cambridge Crystallographic Data Centre
#                                CCDC 
#
#######################################################################
#
# If this CIF has been generated from an entry in the Cambridge 
# Structural Database, then it will include bibliographic, chemical, 
# crystal, experimental, refinement or atomic coordinate data resulting 
# from the CCDC's data processing and validation procedures.
#
#######################################################################

data_COQKEA
_chemical_formula_moiety         'C32 H33 N5 O2 S1'
_chemical_name_systematic        
2-butyl-6-(4-((6-((pyridin-2-ylsulfanyl)methyl)pyridin-2-yl)methyl)piperazin-1-yl)-1H-benzo[de]isoquinoline-1,3(2H)-dione
_symmetry_cell_setting           triclinic
_symmetry_space_group_name_H-M   'P -1'
_symmetry_Int_Tables_number      2
_space_group_name_Hall           '-P 1'
loop_
_symmetry_equiv_pos_site_id
_symmetry_equiv_pos_as_xyz
1 x,y,z
2 -x,-y,-z
_cell_length_a                   9.9100(3)
_cell_length_b                   12.6331(4)
_cell_length_c                   13.0734(4)
_cell_angle_alpha                90.2300(10)
_cell_angle_beta                 111.2170(10)
_cell_angle_gamma                111.6420(10)
_cell_volume                     1400.25
_exptl_crystal_colour            yellow
_exptl_crystal_description       block
_cell_formula_units_Z            2
loop_
_atom_site_label
_atom_site_type_symbol
_atom_site_fract_x
_atom_site_fract_y
_atom_site_fract_z
S1 S 0.13062(7) 0.83252(5) 0.39835(5)
N1 N 0.1829(2) -0.28141(13) -0.10145(14)
N2 N 0.32980(19) 0.20709(13) 0.16050(13)
N3 N 0.2824(2) 0.40023(13) 0.23350(13)
N4 N 0.31039(19) 0.65983(13) 0.38417(14)
N5 N 0.3026(2) 1.03662(14) 0.53124(15)
O1 O 0.2189(2) -0.22754(14) -0.25765(13)
O2 O 0.1597(2) -0.33556(12) 0.05821(14)
C1 C 0.2778(3) -0.6283(2) -0.1880(2)
H1 H 0.2208 -0.7073 -0.2236
H2 H 0.3428 -0.6249 -0.1119
H3 H 0.3431 -0.5866 -0.2258
C2 C 0.1638(3) -0.57548(18) -0.1923(2)
H4 H 0.0962 -0.6197 -0.1561
H5 H 0.0975 -0.5806 -0.2694
C3 C 0.2423(3) -0.45012(17) -0.13733(19)
H6 H 0.3038 -0.4443 -0.0589
H7 H 0.3132 -0.4053 -0.1710
C4 C 0.1191(3) -0.40317(17) -0.15080(19)
H8 H 0.0568 -0.4116 -0.2295
H9 H 0.0490 -0.4491 -0.1170
C5 C 0.2278(3) -0.19847(18) -0.16574(17)
C6 C 0.2820(2) -0.07662(16) -0.11893(16)
C7 C 0.3347(3) 0.00875(18) -0.17625(17)
H10 H 0.3366 -0.0100 -0.2445
C8 C 0.3858(3) 0.12441(18) -0.13210(18)
H11 H 0.4262 0.1824 -0.1696
C9 C 0.3771(2) 0.15293(17) -0.03444(17)
H12 H 0.4098 0.2301 -0.0071
C10 C 0.3193(2) 0.06727(16) 0.02553(15)
C11 C 0.3080(2) 0.09348(16) 0.12839(16)
C12 C 0.2789(3) 0.00695(17) 0.19100(18)
H13 H 0.2818 0.0245 0.2611
C13 C 0.2452(3) -0.10687(17) 0.15158(18)
H14 H 0.2267 -0.1634 0.1960
C14 C 0.2389(2) -0.13614(16) 0.04872(16)
C15 C 0.2779(2) -0.04932(16) -0.01543(15)
C16 C 0.1928(2) -0.25728(17) 0.00587(18)
C17 C 0.2023(2) 0.24063(17) 0.09004(17)
H15 H 0.1069 0.1989 0.1024
H16 H 0.1804 0.2205 0.0124
C18 C 0.2496(3) 0.36864(17) 0.11700(16)
H17 H 0.3428 0.4104 0.1021
H18 H 0.1653 0.3898 0.0702
C19 C 0.4098(3) 0.36780(17) 0.30266(17)
H19 H 0.4331 0.3889 0.3804
H20 H 0.5042 0.4095 0.2891
C20 C 0.3642(3) 0.23979(17) 0.27735(16)
H21 H 0.4497 0.2198 0.3241
H22 H 0.2720 0.1979 0.2933
C21 C 0.3169(3) 0.52184(16) 0.26092(18)
H23 H 0.2565 0.5464 0.1963
H24 H 0.4278 0.5665 0.2779
C22 C 0.2796(2) 0.54814(16) 0.35818(16)
C23 C 0.2751(2) 0.68914(17) 0.46712(17)
C24 C 0.2108(2) 0.60997(19) 0.52688(18)
H25 H 0.1889 0.6333 0.5845
C25 C 0.1801(3) 0.49605(19) 0.49916(18)
H26 H 0.1370 0.4410 0.5380
C26 C 0.2138(2) 0.46402(17) 0.41301(17)
H27 H 0.1924 0.3872 0.3924
C27 C 0.3045(2) 0.81415(18) 0.49048(19)
H28 H 0.3962 0.8629 0.4770
H29 H 0.3230 0.8349 0.5673
C28 C 0.1694(2) 0.97581(17) 0.44469(18)
C29 C 0.0567(3) 1.01896(19) 0.3886(2)
H30 H -0.0330 0.9744 0.3270
C30 C 0.0811(3) 1.1281(2) 0.4261(2)
H31 H 0.0074 1.1590 0.3912
C31 C 0.2170(3) 1.19180(19) 0.5167(2)
H32 H 0.2357 1.2660 0.5445
C32 C 0.3238(3) 1.14407(18) 0.5649(2)
H33 H 0.4166 1.1887 0.6244
loop_
_geom_bond_atom_site_label_1
_geom_bond_atom_site_label_2
_geom_bond_site_symmetry_1
_geom_bond_site_symmetry_2
S1 C27 1_555 1_555
N1 C4 1_555 1_555
N2 C11 1_555 1_555
N3 C18 1_555 1_555
N4 C22 1_555 1_555
N5 C28 1_555 1_555
O1 C5 1_555 1_555
O2 C16 1_555 1_555
C1 H1 1_555 1_555
H2 C1 1_555 1_555
H3 C1 1_555 1_555
C2 C1 1_555 1_555
H4 C2 1_555 1_555
H5 C2 1_555 1_555
C3 C2 1_555 1_555
H6 C3 1_555 1_555
H7 C3 1_555 1_555
C4 C3 1_555 1_555
H8 C4 1_555 1_555
H9 C4 1_555 1_555
C5 N1 1_555 1_555
C6 C5 1_555 1_555
C7 C6 1_555 1_555
H10 C7 1_555 1_555
C8 C7 1_555 1_555
H11 C8 1_555 1_555
C9 C8 1_555 1_555
H12 C9 1_555 1_555
C10 C9 1_555 1_555
C11 C10 1_555 1_555
C12 C11 1_555 1_555
H13 C12 1_555 1_555
C13 C12 1_555 1_555
H14 C13 1_555 1_555
C14 C13 1_555 1_555
C15 C6 1_555 1_555
C16 N1 1_555 1_555
C17 N2 1_555 1_555
H15 C17 1_555 1_555
H16 C17 1_555 1_555
C18 C17 1_555 1_555
H17 C18 1_555 1_555
H18 C18 1_555 1_555
C19 N3 1_555 1_555
H19 C19 1_555 1_555
H20 C19 1_555 1_555
C20 N2 1_555 1_555
H21 C20 1_555 1_555
H22 C20 1_555 1_555
C21 N3 1_555 1_555
H23 C21 1_555 1_555
H24 C21 1_555 1_555
C22 C21 1_555 1_555
C23 N4 1_555 1_555
C24 C23 1_555 1_555
H25 C24 1_555 1_555
C25 C24 1_555 1_555
H26 C25 1_555 1_555
C26 C22 1_555 1_555
H27 C26 1_555 1_555
C27 C23 1_555 1_555
H28 C27 1_555 1_555
H29 C27 1_555 1_555
C28 S1 1_555 1_555
C29 C28 1_555 1_555
H30 C29 1_555 1_555
C30 C29 1_555 1_555
H31 C30 1_555 1_555
C31 C30 1_555 1_555
H32 C31 1_555 1_555
C32 N5 1_555 1_555
H33 C32 1_555 1_555
C10 C15 1_555 1_555
C14 C15 1_555 1_555
C14 C16 1_555 1_555
C19 C20 1_555 1_555
C25 C26 1_555 1_555
C31 C32 1_555 1_555

#END
