
#######################################################################
#
#                 Cambridge Crystallographic Data Centre
#                                CCDC 
#
#######################################################################
#
# If this CIF has been generated from an entry in the Cambridge 
# Structural Database, then it will include bibliographic, chemical, 
# crystal, experimental, refinement or atomic coordinate data resulting 
# from the CCDC's data processing and validation procedures.
#
#######################################################################

data_COQPED
_chemical_formula_moiety         'C23 H25 N3 O8 P2'
_chemical_name_systematic        
bis(2,8-Dioxa-3,7-dioxo-5-aza-1-phenyl-1-phosphabicyclo(3.3.0)oct-1-yl)methyl-dimethylamine
_symmetry_cell_setting           monoclinic
_symmetry_space_group_name_H-M   'P 21/n'
_symmetry_Int_Tables_number      14
_space_group_name_Hall           '-P 2yn'
loop_
_symmetry_equiv_pos_site_id
_symmetry_equiv_pos_as_xyz
1 x,y,z
2 1/2-x,1/2+y,1/2-z
3 -x,-y,-z
4 1/2+x,1/2-y,1/2+z
_cell_length_a                   10.017(6)
_cell_length_b                   16.949(4)
_cell_length_c                   14.464(3)
_cell_angle_alpha                90
_cell_angle_beta                 92.65(3)
_cell_angle_gamma                90
_cell_volume                     2453.04
_exptl_crystal_colour            colorless
_chemical_melting_point          211-212deg.C
_cell_formula_units_Z            4
_exptl_crystal_recrystallization_method 'dichloromethane/diethyl ether'
loop_
_atom_site_label
_atom_site_type_symbol
_atom_site_fract_x
_atom_site_fract_y
_atom_site_fract_z
P1 P 0.25170(8) 0.20435(5) 0.38317(6)
P2 P 0.19248(8) 0.05690(4) 0.25120(6)
O1 O 0.3133(2) 0.2879(1) 0.3257(2)
O2 O 0.4792(3) 0.3756(2) 0.3309(3)
O3 O 0.2408(4) 0.0599(2) 0.5826(2)
O4 O 0.2097(3) 0.1198(2) 0.4462(2)
O5 O 0.0710(2) 0.1246(1) 0.2041(2)
O6 O -0.1470(3) 0.1505(2) 0.1905(2)
O7 O 0.3091(4) -0.1118(2) 0.4046(3)
O8 O 0.3004(3) -0.0083(2) 0.3101(2)
N1 N 0.4405(3) 0.1350(3) 0.2770(3)
N2 N 0.3557(3) 0.2278(2) 0.4708(2)
N3 N 0.0684(3) 0.0169(2) 0.3070(2)
C1 C 0.2989(3) 0.1449(2) 0.2807(2)
C2 C 0.4165(3) 0.3249(2) 0.3670(3)
C3 C 0.4423(4) 0.2945(3) 0.4633(3)
C4 C 0.3612(5) 0.1792(3) 0.5535(3)
C5 C 0.2662(4) 0.1129(3) 0.5320(3)
C6 C -0.0555(3) 0.1120(2) 0.2233(2)
C7 C -0.0664(4) 0.0450(3) 0.2899(3)
C8 C 0.0977(4) -0.0477(3) 0.3690(3)
C9 C 0.2451(5) -0.0608(3) 0.3649(3)
C10 C 0.0802(3) 0.2411(2) 0.3770(2)
C11 C 0.0372(4) 0.2921(2) 0.3060(3)
C12 C -0.0929(4) 0.3229(3) 0.3042(3)
C13 C -0.1782(4) 0.3025(4) 0.3725(4)
C14 C -0.1369(5) 0.2521(4) 0.4414(4)
C15 C -0.0079(4) 0.2211(3) 0.4443(3)
C16 C 0.2370(3) 0.0221(2) 0.1371(2)
C17 C 0.3478(4) -0.0260(2) 0.1274(3)
C18 C 0.3784(4) -0.0548(3) 0.0414(3)
C19 C 0.3002(4) -0.0350(3) -0.0362(3)
C20 C 0.1917(5) 0.0124(3) -0.0274(3)
C21 C 0.1597(4) 0.0408(3) 0.0578(3)
C22 C 0.5213(5) 0.0981(4) 0.3512(5)
C23 C 0.5056(5) 0.1731(4) 0.2042(5)
loop_
_geom_bond_atom_site_label_1
_geom_bond_atom_site_label_2
_geom_bond_site_symmetry_1
_geom_bond_site_symmetry_2
P1 O1 1_555 1_555
P2 O5 1_555 1_555
O1 C2 1_555 1_555
O2 C2 1_555 1_555
O3 C5 1_555 1_555
O4 P1 1_555 1_555
O5 C6 1_555 1_555
O6 C6 1_555 1_555
O7 C9 1_555 1_555
O8 P2 1_555 1_555
N1 C1 1_555 1_555
N2 P1 1_555 1_555
N3 P2 1_555 1_555
C1 P1 1_555 1_555
C2 C3 1_555 1_555
C3 N2 1_555 1_555
C4 N2 1_555 1_555
C5 O4 1_555 1_555
C6 C7 1_555 1_555
C7 N3 1_555 1_555
C8 N3 1_555 1_555
C9 O8 1_555 1_555
C10 P1 1_555 1_555
C11 C10 1_555 1_555
C12 C11 1_555 1_555
C13 C12 1_555 1_555
C14 C13 1_555 1_555
C15 C10 1_555 1_555
C16 P2 1_555 1_555
C17 C16 1_555 1_555
C18 C17 1_555 1_555
C19 C18 1_555 1_555
C20 C19 1_555 1_555
C21 C16 1_555 1_555
C22 N1 1_555 1_555
C23 N1 1_555 1_555
P2 C1 1_555 1_555
C4 C5 1_555 1_555
C8 C9 1_555 1_555
C14 C15 1_555 1_555
C20 C21 1_555 1_555

#END
