
#######################################################################
#
#                 Cambridge Crystallographic Data Centre
#                                CCDC 
#
#######################################################################
#
# If this CIF has been generated from an entry in the Cambridge 
# Structural Database, then it will include bibliographic, chemical, 
# crystal, experimental, refinement or atomic coordinate data resulting 
# from the CCDC's data processing and validation procedures.
#
#######################################################################

data_CORDOE
_chemical_compound_source        'Nigella sativa L.'
_chemical_name_common            
4b,8b-dimethyl-3,7-bis(propan-2-yl)-4a,8a-dihydrobiphenylene-1,4,5,8-tetrone
_chemical_formula_moiety         'C20 H24 O4'
_chemical_name_systematic        
2,6-diisopropyl-4a,8a-dimethyl-4a,4b,8a,8b-tetrahydrobiphenylene-1,4,5,8-tetrone
_symmetry_cell_setting           monoclinic
_symmetry_space_group_name_H-M   'P 21/c'
_symmetry_Int_Tables_number      14
_space_group_name_Hall           '-P 2ybc'
loop_
_symmetry_equiv_pos_site_id
_symmetry_equiv_pos_as_xyz
1 x,y,z
2 -x,1/2+y,1/2-z
3 -x,-y,-z
4 x,1/2-y,1/2+z
_cell_length_a                   10.648(2)
_cell_length_b                   6.3625(13)
_cell_length_c                   12.747(2)
_cell_angle_alpha                90
_cell_angle_beta                 98.295(5)
_cell_angle_gamma                90
_cell_volume                     854.548
_exptl_crystal_colour            yellow
_exptl_crystal_description       'hexagonal prisms'
_chemical_melting_point          '473.85 K'
_cell_formula_units_Z            2
_exptl_crystal_recrystallization_method 2-propanol
loop_
_atom_site_label
_atom_site_type_symbol
_atom_site_fract_x
_atom_site_fract_y
_atom_site_fract_z
C1 C 0.46097(18) 0.0919(3) 0.42803(15)
C2 C 0.5178(2) 0.0845(3) 0.32569(15)
C3 C 0.65613(19) 0.1092(3) 0.32936(16)
C4 C 0.73736(18) 0.1649(3) 0.41552(15)
C5 C 0.69031(19) 0.1954(3) 0.51908(15)
C6 C 0.55562(18) 0.1399(3) 0.52916(16)
C7 C 0.3428(2) 0.2303(3) 0.41409(17)
H1 H 0.3663 0.3744 0.3980
H2 H 0.3047 0.2294 0.4797
H3 H 0.2814 0.1759 0.3557
C8 C 0.87596(19) 0.2123(4) 0.41224(16)
H4 H 0.9237 0.1865 0.4846
C9 C 0.8876(2) 0.4457(4) 0.38668(19)
H5 H 0.8403 0.4751 0.3164
H6 H 0.9772 0.4816 0.3872
H7 H 0.8528 0.5300 0.4400
C10 C 0.9345(2) 0.0756(4) 0.33379(17)
H8 H 0.9207 -0.0729 0.3489
H9 H 1.0259 0.1036 0.3405
H10 H 0.8947 0.1083 0.2615
O1 O 0.45058(14) 0.0597(2) 0.24001(11)
O2 O 0.76190(14) 0.2610(2) 0.59596(11)
H11 H 0.5280(19) 0.243(3) 0.5754(16)
H12 H 0.6854(19) 0.101(3) 0.2577(16)
C1B C 0.53903(18) -0.0919(3) 0.57197(15)
C2B C 0.4822(2) -0.0845(3) 0.67431(15)
C3B C 0.34387(19) -0.1092(3) 0.67064(16)
C4B C 0.26264(18) -0.1649(3) 0.58448(15)
C5B C 0.30969(19) -0.1954(3) 0.48092(15)
C6B C 0.44438(18) -0.1399(3) 0.47084(16)
C7B C 0.6572(2) -0.2303(3) 0.58591(17)
H1B H 0.6337 -0.3744 0.6020
H2B H 0.6953 -0.2294 0.5203
H3B H 0.7186 -0.1759 0.6443
C8B C 0.12404(19) -0.2123(4) 0.58776(16)
H4B H 0.0763 -0.1865 0.5154
C9B C 0.1124(2) -0.4457(4) 0.61332(19)
H5B H 0.1597 -0.4751 0.6836
H6B H 0.0228 -0.4816 0.6128
H7B H 0.1472 -0.5300 0.5600
C10B C 0.0655(2) -0.0756(4) 0.66621(17)
H8B H 0.0793 0.0729 0.6511
H9B H -0.0259 -0.1036 0.6595
H10B H 0.1053 -0.1083 0.7385
O1B O 0.54942(14) -0.0597(2) 0.75999(11)
O2B O 0.23810(14) -0.2610(2) 0.40404(11)
H11B H 0.4720(19) -0.243(3) 0.4246(16)
H12B H 0.3146(19) -0.101(3) 0.7423(16)
loop_
_geom_bond_atom_site_label_1
_geom_bond_atom_site_label_2
_geom_bond_site_symmetry_1
_geom_bond_site_symmetry_2
C1 C2 1_555 1_555
C2 C3 1_555 1_555
C3 C4 1_555 1_555
C4 C5 1_555 1_555
C5 C6 1_555 1_555
C6 C1 1_555 1_555
C7 C1 1_555 1_555
H1 C7 1_555 1_555
H2 C7 1_555 1_555
H3 C7 1_555 1_555
C8 C4 1_555 1_555
H4 C8 1_555 1_555
C9 C8 1_555 1_555
H5 C9 1_555 1_555
H6 C9 1_555 1_555
H7 C9 1_555 1_555
C10 C8 1_555 1_555
H8 C10 1_555 1_555
H9 C10 1_555 1_555
H10 C10 1_555 1_555
O1 C2 1_555 1_555
O2 C5 1_555 1_555
H11 C6 1_555 1_555
H12 C3 1_555 1_555
C1B C6 1_555 1_555
C2B C1B 1_555 1_555
C3B C2B 1_555 1_555
C4B C3B 1_555 1_555
C5B C4B 1_555 1_555
C6B C1 1_555 1_555
C7B C1B 1_555 1_555
H1B C7B 1_555 1_555
H2B C7B 1_555 1_555
H3B C7B 1_555 1_555
C8B C4B 1_555 1_555
H4B C8B 1_555 1_555
C9B C8B 1_555 1_555
H5B C9B 1_555 1_555
H6B C9B 1_555 1_555
H7B C9B 1_555 1_555
C10B C8B 1_555 1_555
H8B C10B 1_555 1_555
H9B C10B 1_555 1_555
H10B C10B 1_555 1_555
O1B C2B 1_555 1_555
O2B C5B 1_555 1_555
H11B C6B 1_555 1_555
H12B C3B 1_555 1_555
C1B C6B 1_555 1_555
C5B C6B 1_555 1_555

#END
