
#######################################################################
#
#                 Cambridge Crystallographic Data Centre
#                                CCDC 
#
#######################################################################
#
# If this CIF has been generated from an entry in the Cambridge 
# Structural Database, then it will include bibliographic, chemical, 
# crystal, experimental, refinement or atomic coordinate data resulting 
# from the CCDC's data processing and validation procedures.
#
#######################################################################

data_CORNUT
_chemical_formula_moiety         'C27 H27 N1'
_chemical_name_systematic        
4,4,8,8,12,12-Hexamethyl-3a,4a,8a,13a,13b,13c-hexahydro-4H,8H,12H-benzo(1,9)quinolizino(3,4,5,6,7-defg)acridine
_symmetry_cell_setting           monoclinic
_symmetry_space_group_name_H-M   'P 21/c'
_symmetry_Int_Tables_number      14
_space_group_name_Hall           '-P 2ybc'
loop_
_symmetry_equiv_pos_site_id
_symmetry_equiv_pos_as_xyz
1 x,y,z
2 -x,1/2+y,1/2-z
3 -x,-y,-z
4 x,1/2-y,1/2+z
_cell_length_a                   9.8160(5)
_cell_length_b                   18.6778(9)
_cell_length_c                   21.7184(10)
_cell_angle_alpha                90
_cell_angle_beta                 90.0680(10)
_cell_angle_gamma                90
_cell_volume                     3981.88
_exptl_crystal_colour            colorless
_exptl_crystal_description       Block
_cell_formula_units_Z            8
loop_
_atom_site_label
_atom_site_type_symbol
_atom_site_fract_x
_atom_site_fract_y
_atom_site_fract_z
N1 N 0.7348(4) 0.7484(2) 0.23866(18)
C1 C 0.7401(5) 0.8253(3) 0.2460(2)
C2 C 0.6596(5) 0.8694(3) 0.2075(2)
C3 C 0.6729(7) 0.9424(3) 0.2118(3)
H1 H 0.6203 0.9719 0.1860
C4 C 0.7601(8) 0.9731(3) 0.2526(3)
H2 H 0.7722 1.0230 0.2532
C5 C 0.8304(7) 0.9302(3) 0.2928(3)
H3 H 0.8850 0.9515 0.3233
C6 C 0.8228(5) 0.8565(3) 0.2897(2)
C7 C 0.9014(6) 0.8142(3) 0.3378(2)
C8 C 0.8918(5) 0.7350(3) 0.3255(2)
C9 C 0.9614(7) 0.6881(4) 0.3633(3)
H4 H 1.0120 0.7075 0.3961
C10 C 0.9617(9) 0.6152(4) 0.3562(4)
H5 H 1.0063 0.5851 0.3845
C11 C 0.8935(8) 0.5877(3) 0.3057(4)
H6 H 0.8952 0.5380 0.2987
C12 C 0.8235(6) 0.6307(3) 0.2655(3)
C13 C 0.8164(5) 0.7047(3) 0.2761(2)
C14 C 0.7516(6) 0.5964(3) 0.2111(3)
C15 C 0.7190(6) 0.6523(3) 0.1620(3)
C16 C 0.6950(8) 0.6333(5) 0.1011(4)
H7 H 0.7180 0.5869 0.0879
C17 C 0.6388(9) 0.6800(5) 0.0598(3)
H8 H 0.6316 0.6677 0.0180
C18 C 0.5929(7) 0.7456(4) 0.0805(3)
H9 H 0.5440 0.7755 0.0536
C19 C 0.6175(6) 0.7680(3) 0.1403(2)
C20 C 0.6912(5) 0.7230(3) 0.1799(2)
C21 C 0.5547(6) 0.8355(3) 0.1658(3)
C22 C 0.8449(7) 0.8310(4) 0.4014(3)
H10 H 0.7497 0.8172 0.4032
H11 H 0.8532 0.8819 0.4094
H12 H 0.8958 0.8046 0.4322
C23 C 1.0544(6) 0.8352(4) 0.3360(3)
H13 H 1.1023 0.8112 0.3693
H14 H 1.0633 0.8866 0.3408
H15 H 1.0933 0.8207 0.2969
C24 C 0.8404(9) 0.5353(5) 0.1843(4)
H16 H 0.9256 0.5549 0.1694
H17 H 0.7922 0.5125 0.1506
H18 H 0.8588 0.5003 0.2162
C25 C 0.6146(8) 0.5649(4) 0.2341(4)
H19 H 0.6321 0.5302 0.2664
H20 H 0.5679 0.5417 0.2002
H21 H 0.5581 0.6032 0.2502
C26 C 0.4311(6) 0.8122(4) 0.2055(3)
H22 H 0.3698 0.7833 0.1808
H23 H 0.3834 0.8544 0.2201
H24 H 0.4629 0.7844 0.2404
C27 C 0.5016(8) 0.8870(4) 0.1159(3)
H25 H 0.5780 0.9064 0.0930
H26 H 0.4517 0.9258 0.1352
H27 H 0.4417 0.8613 0.0880
N2 N 0.2356(4) 0.7584(2) 0.00774(18)
C28 C 0.2430(5) 0.8340(3) -0.0009(2)
C29 C 0.3290(6) 0.8649(3) -0.0443(2)
C30 C 0.3434(7) 0.9375(3) -0.0461(3)
H28 H 0.4039 0.9581 -0.0746
C31 C 0.2697(8) 0.9817(3) -0.0065(3)
H29 H 0.2822 1.0316 -0.0074
C32 C 0.1797(7) 0.9519(3) 0.0334(3)
H30 H 0.1268 0.9818 0.0586
C33 C 0.1639(5) 0.8785(3) 0.0378(3)
C34 C 0.0540(6) 0.8453(3) 0.0775(3)
C35 C 0.1122(5) 0.7765(3) 0.1039(2)
C36 C 0.0836(6) 0.7539(4) 0.1635(3)
H31 H 0.0372 0.7847 0.1905
C37 C 0.1223(8) 0.6874(4) 0.1832(3)
H32 H 0.1085 0.6737 0.2244
C38 C 0.1822(7) 0.6404(4) 0.1418(3)
H33 H 0.2035 0.5938 0.1548
C39 C 0.2115(5) 0.6607(3) 0.0815(3)
C40 C 0.1876(5) 0.7316(3) 0.0651(2)
C41 C 0.2521(6) 0.6049(3) 0.0342(3)
C42 C 0.3199(5) 0.6393(3) -0.0208(3)
C43 C 0.3863(7) 0.5957(3) -0.0626(3)
H34 H 0.3838 0.5458 -0.0566
C44 C 0.4553(7) 0.6220(4) -0.1123(3)
H35 H 0.4985 0.5914 -0.1406
C45 C 0.4589(7) 0.6951(3) -0.1191(3)
H36 H 0.5093 0.7145 -0.1519
C46 C 0.3916(5) 0.7417(3) -0.0799(2)
C47 C 0.3155(5) 0.7129(3) -0.0311(2)
C48 C 0.4078(6) 0.8212(3) -0.0921(2)
C49 C 0.0058(8) 0.8969(4) 0.1287(3)
H37 H -0.0688 0.8751 0.1512
H38 H -0.0247 0.9414 0.1103
H39 H 0.0807 0.9064 0.1567
C50 C -0.0695(6) 0.8256(4) 0.0377(3)
H40 H -0.0422 0.7913 0.0066
H41 H -0.1048 0.8683 0.0180
H42 H -0.1396 0.8046 0.0635
C51 C 0.1176(7) 0.5686(4) 0.0138(4)
H43 H 0.0560 0.6045 -0.0026
H44 H 0.0756 0.5454 0.0489
H45 H 0.1368 0.5333 -0.0178
C52 C 0.3436(9) 0.5469(4) 0.0628(4)
H46 H 0.3596 0.5094 0.0328
H47 H 0.2990 0.5268 0.0987
H48 H 0.4299 0.5680 0.0749
C53 C 0.5605(6) 0.8410(4) -0.0889(3)
H49 H 0.5970 0.8272 -0.0491
H50 H 0.5709 0.8922 -0.0944
H51 H 0.6094 0.8160 -0.1211
C54 C 0.3493(8) 0.8401(4) -0.1557(3)
H52 H 0.3979 0.8136 -0.1872
H53 H 0.3596 0.8910 -0.1629
H54 H 0.2534 0.8275 -0.1570
loop_
_geom_bond_atom_site_label_1
_geom_bond_atom_site_label_2
_geom_bond_site_symmetry_1
_geom_bond_site_symmetry_2
N1 C1 1_555 1_555
N2 C28 1_555 1_555
C1 C2 1_555 1_555
C2 C3 1_555 1_555
C3 H1 1_555 1_555
C4 C3 1_555 1_555
H2 C4 1_555 1_555
C5 C4 1_555 1_555
H3 C5 1_555 1_555
C6 C1 1_555 1_555
C7 C6 1_555 1_555
C8 C7 1_555 1_555
C9 C8 1_555 1_555
H4 C9 1_555 1_555
C10 C9 1_555 1_555
H5 C10 1_555 1_555
C11 C10 1_555 1_555
H6 C11 1_555 1_555
C12 C11 1_555 1_555
C13 N1 1_555 1_555
C14 C12 1_555 1_555
C15 C14 1_555 1_555
C16 C15 1_555 1_555
H7 C16 1_555 1_555
C17 C16 1_555 1_555
H8 C17 1_555 1_555
C18 C17 1_555 1_555
H9 C18 1_555 1_555
C19 C18 1_555 1_555
C20 N1 1_555 1_555
C21 C2 1_555 1_555
C22 C7 1_555 1_555
H10 C22 1_555 1_555
H11 C22 1_555 1_555
H12 C22 1_555 1_555
C23 C7 1_555 1_555
H13 C23 1_555 1_555
H14 C23 1_555 1_555
H15 C23 1_555 1_555
C24 C14 1_555 1_555
H16 C24 1_555 1_555
H17 C24 1_555 1_555
H18 C24 1_555 1_555
C25 C14 1_555 1_555
H19 C25 1_555 1_555
H20 C25 1_555 1_555
H21 C25 1_555 1_555
C26 C21 1_555 1_555
H22 C26 1_555 1_555
H23 C26 1_555 1_555
H24 C26 1_555 1_555
C27 C21 1_555 1_555
H25 C27 1_555 1_555
H26 C27 1_555 1_555
H27 C27 1_555 1_555
C28 C29 1_555 1_555
C29 C30 1_555 1_555
C30 H28 1_555 1_555
C31 C30 1_555 1_555
H29 C31 1_555 1_555
C32 C31 1_555 1_555
H30 C32 1_555 1_555
C33 C28 1_555 1_555
C34 C33 1_555 1_555
C35 C34 1_555 1_555
C36 C35 1_555 1_555
H31 C36 1_555 1_555
C37 C36 1_555 1_555
H32 C37 1_555 1_555
C38 C37 1_555 1_555
H33 C38 1_555 1_555
C39 C38 1_555 1_555
C40 N2 1_555 1_555
C41 C39 1_555 1_555
C42 C41 1_555 1_555
C43 C42 1_555 1_555
H34 C43 1_555 1_555
C44 C43 1_555 1_555
H35 C44 1_555 1_555
C45 C44 1_555 1_555
H36 C45 1_555 1_555
C46 C45 1_555 1_555
C47 N2 1_555 1_555
C48 C29 1_555 1_555
C49 C34 1_555 1_555
H37 C49 1_555 1_555
H38 C49 1_555 1_555
H39 C49 1_555 1_555
C50 C34 1_555 1_555
H40 C50 1_555 1_555
H41 C50 1_555 1_555
H42 C50 1_555 1_555
C51 C41 1_555 1_555
H43 C51 1_555 1_555
H44 C51 1_555 1_555
H45 C51 1_555 1_555
C52 C41 1_555 1_555
H46 C52 1_555 1_555
H47 C52 1_555 1_555
H48 C52 1_555 1_555
C53 C48 1_555 1_555
H49 C53 1_555 1_555
H50 C53 1_555 1_555
H51 C53 1_555 1_555
C54 C48 1_555 1_555
H52 C54 1_555 1_555
H53 C54 1_555 1_555
H54 C54 1_555 1_555
C5 C6 1_555 1_555
C8 C13 1_555 1_555
C12 C13 1_555 1_555
C15 C20 1_555 1_555
C19 C20 1_555 1_555
C19 C21 1_555 1_555
C32 C33 1_555 1_555
C35 C40 1_555 1_555
C39 C40 1_555 1_555
C42 C47 1_555 1_555
C46 C47 1_555 1_555
C46 C48 1_555 1_555

#END
