
#######################################################################
#
#                 Cambridge Crystallographic Data Centre
#                                CCDC 
#
#######################################################################
#
# If this CIF has been generated from an entry in the Cambridge 
# Structural Database, then it will include bibliographic, chemical, 
# crystal, experimental, refinement or atomic coordinate data resulting 
# from the CCDC's data processing and validation procedures.
#
#######################################################################

data_CORXIS
_chemical_formula_moiety         'C19 H21 N2 O2 S2 1+,H2 O1,I1 1-'
_chemical_name_systematic        
'2-(2-(5-((2-acetoxyethyl)(methyl)amino)-2-thienyl)vinyl)-3-methyl-1,3-benzothiazol-3-ium iodide monohydrate'
_symmetry_cell_setting           triclinic
_symmetry_space_group_name_H-M   'P -1'
_symmetry_Int_Tables_number      2
_space_group_name_Hall           '-P 1'
loop_
_symmetry_equiv_pos_site_id
_symmetry_equiv_pos_as_xyz
1 x,y,z
2 -x,-y,-z
_cell_length_a                   9.6689(9)
_cell_length_b                   11.1237(11)
_cell_length_c                   11.1693(11)
_cell_angle_alpha                94.4200(10)
_cell_angle_beta                 110.0670(10)
_cell_angle_gamma                99.9190(10)
_cell_volume                     1099.4
_exptl_crystal_colour            red
_exptl_crystal_description       block
_cell_formula_units_Z            2
loop_
_atom_site_label
_atom_site_type_symbol
_atom_site_fract_x
_atom_site_fract_y
_atom_site_fract_z
C1 C 0.8392(4) 1.1137(3) 1.1880(3)
H1 H 0.9151 1.1225 1.1540
C2 C 0.8380(4) 1.2036(3) 1.2804(4)
H2 H 0.9138 1.2747 1.3076
C3 C 0.7274(4) 1.1903(3) 1.3330(3)
H3 H 0.7318 1.2513 1.3968
C4 C 0.6105(4) 1.0881(3) 1.2926(3)
H4 H 0.5353 1.0797 1.3274
C5 C 0.6088(3) 0.9985(2) 1.1986(3)
C6 C 0.7227(3) 1.0101(3) 1.1481(3)
C7 C 0.8124(4) 0.8983(3) 0.9953(3)
H5 H 0.7863 0.8181 0.9452
H6 H 0.9112 0.9100 1.0600
H7 H 0.8113 0.9604 0.9401
C8 C 0.5782(3) 0.8216(2) 1.0354(2)
C9 C 0.5304(3) 0.7106(3) 0.9491(3)
H8 H 0.5890 0.6925 0.9021
C10 C 0.4006(3) 0.6289(3) 0.9325(3)
H9 H 0.3468 0.6512 0.9824
C11 C 0.3379(3) 0.5172(3) 0.8514(3)
C12 C 0.2052(3) 0.4370(3) 0.8388(3)
H10 H 0.1471 0.4533 0.8869
C13 C 0.1650(3) 0.3322(3) 0.7507(3)
H11 H 0.0780 0.2720 0.7329
C14 C 0.2699(3) 0.3259(3) 0.6907(3)
C15 C 0.1367(4) 0.1291(3) 0.5589(3)
H12 H 0.1256 0.0933 0.6314
H13 H 0.1532 0.0685 0.5022
H14 H 0.0469 0.1569 0.5134
C16 C 0.3834(4) 0.2325(3) 0.5509(3)
H15 H 0.4097 0.1522 0.5533
H16 H 0.4725 0.2934 0.6045
C17 C 0.3371(4) 0.2598(3) 0.4147(3)
H17 H 0.4175 0.2563 0.3821
H18 H 0.2482 0.1996 0.3597
C18 C 0.2295(4) 0.4128(3) 0.3042(4)
C19 C 0.1969(5) 0.5379(4) 0.3189(5)
H19 H 0.1788 0.5703 0.2390
H20 H 0.2815 0.5915 0.3852
H21 H 0.1093 0.5326 0.3420
N1 N 0.7029(3) 0.9082(2) 1.0575(2)
N2 N 0.2650(3) 0.2336(2) 0.6039(2)
O1 O 0.3053(3) 0.38152(19) 0.4157(2)
O2 O 0.1931(4) 0.3467(3) 0.2039(3)
S1 S 0.47604(8) 0.86129(6) 1.12820(7)
S2 S 0.41617(9) 0.45592(7) 0.74660(7)
I1 I 0.77902(2) 0.097609(18) 0.70194(2)
O3 O 0.0975(4) 0.6590(3) 0.0227(3)
H22 H 0.0901 0.7284 0.0548
H23 H 0.0115 0.6207 -0.0300
loop_
_geom_bond_atom_site_label_1
_geom_bond_atom_site_label_2
_geom_bond_site_symmetry_1
_geom_bond_site_symmetry_2
C1 H1 1_555 1_555
C2 C1 1_555 1_555
H2 C2 1_555 1_555
C3 C2 1_555 1_555
H3 C3 1_555 1_555
C4 C3 1_555 1_555
H4 C4 1_555 1_555
C5 C4 1_555 1_555
C6 C1 1_555 1_555
C7 H5 1_555 1_555
H6 C7 1_555 1_555
H7 C7 1_555 1_555
C8 C9 1_555 1_555
C9 H8 1_555 1_555
C10 C9 1_555 1_555
H9 C10 1_555 1_555
C11 C10 1_555 1_555
C12 C11 1_555 1_555
H10 C12 1_555 1_555
C13 C12 1_555 1_555
H11 C13 1_555 1_555
C14 C13 1_555 1_555
C15 H12 1_555 1_555
H13 C15 1_555 1_555
H14 C15 1_555 1_555
C16 H15 1_555 1_555
H16 C16 1_555 1_555
C17 C16 1_555 1_555
H17 C17 1_555 1_555
H18 C17 1_555 1_555
C18 C19 1_555 1_555
C19 H19 1_555 1_555
H20 C19 1_555 1_555
H21 C19 1_555 1_555
N1 C6 1_555 1_555
N2 C14 1_555 1_555
O1 C17 1_555 1_555
O2 C18 1_555 1_555
S1 C5 1_555 1_555
S2 C11 1_555 1_555
O3 H22 1_555 1_555
H23 O3 1_555 1_555
C5 C6 1_555 1_555
C7 N1 1_555 1_555
C8 N1 1_555 1_555
C8 S1 1_555 1_555
C14 S2 1_555 1_555
C15 N2 1_555 1_555
C16 N2 1_555 1_555
C18 O1 1_555 1_555

#END
