
#######################################################################
#
#                 Cambridge Crystallographic Data Centre
#                                CCDC 
#
#######################################################################
#
# If this CIF has been generated from an entry in the Cambridge 
# Structural Database, then it will include bibliographic, chemical, 
# crystal, experimental, refinement or atomic coordinate data resulting 
# from the CCDC's data processing and validation procedures.
#
#######################################################################

data_COSBAP
_chemical_formula_moiety         'C42 H52 O13,C1 H4 O1,2(H2 O1)'
_chemical_name_systematic        
"9',10',11,12,18',22-hexahydroxy-9,9,12',12'-tetramethyl-6',15-bis(methylene)-3,17',21,23-tetraoxaspiro[heptacyclo[10.7.2.1^2,7^.1^13,16^.0^1,10^.0^2,7^.0^13,19^]tricosane-4,14'-pentacyclo[7.6.2.1^5,8^.0^1,11^.0^2,8^]octadecane]-7',14,15'-trione methanol solvate dihydrate"
_symmetry_cell_setting           orthorhombic
_symmetry_space_group_name_H-M   'P 21 21 21'
_symmetry_Int_Tables_number      19
_space_group_name_Hall           'P 2ac 2ab'
loop_
_symmetry_equiv_pos_site_id
_symmetry_equiv_pos_as_xyz
1 x,y,z
2 1/2+x,1/2-y,-z
3 -x,1/2+y,1/2-z
4 1/2-x,-y,1/2+z
_cell_length_a                   10.0540(15)
_cell_length_b                   16.853(2)
_cell_length_c                   23.794(3)
_cell_angle_alpha                90
_cell_angle_beta                 90
_cell_angle_gamma                90
_cell_volume                     4031.66
_exptl_crystal_colour            colorless
_exptl_crystal_description       rod
_cell_formula_units_Z            4
_exptl_crystal_recrystallization_method water
loop_
_atom_site_label
_atom_site_type_symbol
_atom_site_fract_x
_atom_site_fract_y
_atom_site_fract_z
O1 O -0.79162(11) -0.51251(5) -0.36108(4)
C1 C -0.78922(14) -0.57775(8) -0.39720(6)
O2 O -0.67965(11) -0.63105(6) -0.38869(4)
C2 C -0.81504(16) -0.65913(8) -0.37651(7)
C3 C -0.84186(19) -0.67245(9) -0.31509(7)
C4 C -0.79728(19) -0.60290(9) -0.27931(6)
C5 C -0.84586(15) -0.52484(9) -0.30430(6)
C6 C -0.78831(15) -0.45447(9) -0.27074(6)
O3 O -0.71704(14) -0.46555(7) -0.23047(5)
C7 C -0.82826(15) -0.37104(8) -0.28801(6)
C8 C -0.96423(15) -0.37254(8) -0.31878(6)
C9 C -1.01848(16) -0.28725(9) -0.32119(6)
O4 O -1.08558(13) -0.26970(7) -0.37204(5)
C10 C -0.90380(16) -0.22973(9) -0.30894(6)
O5 O -0.95097(13) -0.15312(6) -0.31605(5)
O6 O -0.87125(13) -0.23851(6) -0.25060(4)
C11 C -0.83149(18) -0.31771(9) -0.23560(6)
H1 H -0.8975 -0.3374 -0.2093
H2 H -0.7441 -0.3163 -0.2192
C12 C -0.77258(15) -0.24594(8) -0.34128(5)
C13 C -0.72476(15) -0.33462(8) -0.32932(6)
C14 C -0.57833(17) -0.33758(10) -0.31118(8)
C15 C -0.48712(18) -0.28820(11) -0.34846(9)
C16 C -0.55309(18) -0.20964(10) -0.36904(8)
C17 C -0.66121(17) -0.18691(9) -0.32660(7)
O7 O -0.71130(13) -0.10890(6) -0.33789(6)
H3 H -0.6352 -0.1933 -0.2882
C18 C -0.6336(2) -0.21977(10) -0.42178(7)
C19 C -0.77101(17) -0.24133(8) -0.40537(6)
O8 O -0.86210(14) -0.25672(7) -0.43726(4)
C20 C -0.5988(3) -0.20795(15) -0.47503(10)
H4 H -0.6616 -0.2157 -0.5048
H5 H -0.5115 -0.1919 -0.4824
H6 H -0.4867 -0.1674 -0.3715
H7 H -0.4575 -0.3196 -0.3816
H8 H -0.4105 -0.2743 -0.3264
H9 H -0.5495 -0.3926 -0.3106
H10 H -0.5740 -0.3174 -0.2732
H11 H -0.7328 -0.3644 -0.3648
H12 H -1.0819 -0.2811 -0.2915
C21 C -1.06215(16) -0.43673(9) -0.29694(7)
C22 C -0.99941(16) -0.51946(9) -0.30692(7)
H13 H -1.0262 -0.5363 -0.3436
H14 H -1.0333 -0.5552 -0.2804
C23 C -1.1920(2) -0.43257(12) -0.32987(10)
H15 H -1.2495 -0.4782 -0.3186
H16 H -1.1767 -0.4378 -0.3689
H17 H -1.2402 -0.3840 -0.3213
C24 C -1.0938(2) -0.42935(12) -0.23370(8)
H18 H -1.1595 -0.4681 -0.2240
H19 H -1.1315 -0.3780 -0.2246
H20 H -1.0138 -0.4373 -0.2097
H21 H -0.9460 -0.3875 -0.3585
H22 H -0.8369 -0.6072 -0.2423
H23 H -0.6973 -0.6004 -0.2751
H24 H -0.9376 -0.6819 -0.3113
H25 H -0.7908 -0.7198 -0.3026
C25 C -0.86447(19) -0.72256(9) -0.41607(7)
C26 C -0.94017(17) -0.68992(9) -0.46715(7)
C27 C -0.84879(16) -0.62739(9) -0.49564(6)
C28 C -0.80628(15) -0.55418(8) -0.45901(6)
C29 C -0.67113(15) -0.52618(8) -0.48404(5)
C30 C -0.69472(16) -0.50375(8) -0.54835(6)
C31 C -0.63829(19) -0.42028(9) -0.56025(7)
O9 O -0.66074(16) -0.40616(8) -0.61868(6)
C32 C -0.49112(19) -0.43182(10) -0.54687(7)
C33 C -0.46272(18) -0.51141(10) -0.57412(6)
C34 C -0.59189(17) -0.55302(9) -0.58040(6)
O10 O -0.60881(13) -0.61618(7) -0.60485(5)
C35 C -0.3465(2) -0.54142(13) -0.58973(8)
H26 H -0.3416 -0.5908 -0.6083
H27 H -0.2661 -0.5149 -0.5824
C36 C -0.47177(19) -0.43314(11) -0.48251(7)
C37 C -0.60003(18) -0.45911(9) -0.45240(6)
H28 H -0.6616 -0.4131 -0.4499
H29 H -0.5764 -0.4759 -0.4140
H30 H -0.3963 -0.4660 -0.4728
H31 H -0.4454 -0.3784 -0.4686
H32 H -0.4360 -0.3902 -0.5632
H33 H -0.6772 -0.3786 -0.5392
C38 C -0.84453(18) -0.51266(9) -0.56194(6)
C39 C -0.90015(17) -0.59621(10) -0.55210(6)
O11 O -0.87425(14) -0.64923(8) -0.59759(5)
H34 H -0.9945 -0.5880 -0.5505
O12 O -0.91270(12) -0.46086(7) -0.52358(4)
C40 C -0.90712(17) -0.48653(9) -0.46614(6)
H35 H -0.9918 -0.5030 -0.4547
H36 H -0.8789 -0.4414 -0.4442
O13 O -0.87821(14) -0.48799(8) -0.61564(5)
H37 H -0.6125 -0.5717 -0.4814
H38 H -0.7619 -0.6552 -0.5050
C41 C -0.9647(2) -0.75959(11) -0.50754(9)
H39 H -1.0065 -0.8001 -0.4864
H40 H -1.0224 -0.7454 -0.5379
H41 H -0.8801 -0.7775 -0.5231
C42 C -1.07515(19) -0.65797(12) -0.44811(8)
H42 H -1.1304 -0.7010 -0.4347
H43 H -1.1254 -0.6292 -0.4770
H44 H -1.0668 -0.6229 -0.4147
H45 H -0.7868 -0.7531 -0.4294
H46 H -0.9207 -0.7577 -0.3965
H47 H -0.8176 -0.4552 -0.6207
H48 H -0.6172 -0.3682 -0.6294
H49 H -1.0196 -0.2678 -0.3947
H50 H -0.8824 -0.1247 -0.3176
H51 H -0.7930 -0.6453 -0.6034
H52 H -0.6567 -0.0824 -0.3186
O14 O -0.44043(16) -0.50415(11) -0.21396(9)
H53 H -0.4585 -0.5214 -0.2475
H54 H -0.5210 -0.4956 -0.2087
O15 O -1.1016(3) -0.66804(16) -0.67134(12)
H55 H -1.0274 -0.6751 -0.6544
H56 H -1.1003 -0.6213 -0.6850
O16 O -0.4587(2) -0.58539(19) -0.32087(10)
C43 C -0.3623(4) -0.6403(2) -0.34094(17)
H57 H -0.3397 -0.6252 -0.3785
H58 H -0.5294 -0.5990 -0.3385
H59 H -0.4048 -0.6917 -0.3426
H60 H -0.2831 -0.6399 -0.3169
loop_
_geom_bond_atom_site_label_1
_geom_bond_atom_site_label_2
_geom_bond_site_symmetry_1
_geom_bond_site_symmetry_2
O1 C1 1_555 1_555
C1 O2 1_555 1_555
O2 C2 1_555 1_555
C2 C1 1_555 1_555
C3 C2 1_555 1_555
C4 C3 1_555 1_555
C5 O1 1_555 1_555
C6 C5 1_555 1_555
O3 C6 1_555 1_555
C7 C6 1_555 1_555
C8 C7 1_555 1_555
C9 C8 1_555 1_555
O4 C9 1_555 1_555
C10 C9 1_555 1_555
O5 C10 1_555 1_555
O6 C10 1_555 1_555
C11 C7 1_555 1_555
H1 C11 1_555 1_555
H2 C11 1_555 1_555
C12 C10 1_555 1_555
C13 C7 1_555 1_555
C14 C13 1_555 1_555
C15 C14 1_555 1_555
C16 C15 1_555 1_555
C17 C12 1_555 1_555
O7 C17 1_555 1_555
H3 C17 1_555 1_555
C18 C16 1_555 1_555
C19 C12 1_555 1_555
O8 C19 1_555 1_555
C20 C18 1_555 1_555
H4 C20 1_555 1_555
H5 C20 1_555 1_555
H6 C16 1_555 1_555
H7 C15 1_555 1_555
H8 C15 1_555 1_555
H9 C14 1_555 1_555
H10 C14 1_555 1_555
H11 C13 1_555 1_555
H12 C9 1_555 1_555
C21 C8 1_555 1_555
C22 C5 1_555 1_555
H13 C22 1_555 1_555
H14 C22 1_555 1_555
C23 C21 1_555 1_555
H15 C23 1_555 1_555
H16 C23 1_555 1_555
H17 C23 1_555 1_555
C24 C21 1_555 1_555
H18 C24 1_555 1_555
H19 C24 1_555 1_555
H20 C24 1_555 1_555
H21 C8 1_555 1_555
H22 C4 1_555 1_555
H23 C4 1_555 1_555
H24 C3 1_555 1_555
H25 C3 1_555 1_555
C25 C2 1_555 1_555
C26 C25 1_555 1_555
C27 C26 1_555 1_555
C28 C1 1_555 1_555
C29 C28 1_555 1_555
C30 C29 1_555 1_555
C31 C30 1_555 1_555
O9 C31 1_555 1_555
C32 C31 1_555 1_555
C33 C32 1_555 1_555
C34 C30 1_555 1_555
O10 C34 1_555 1_555
C35 C33 1_555 1_555
H26 C35 1_555 1_555
H27 C35 1_555 1_555
C36 C32 1_555 1_555
C37 C29 1_555 1_555
H28 C37 1_555 1_555
H29 C37 1_555 1_555
H30 C36 1_555 1_555
H31 C36 1_555 1_555
H32 C32 1_555 1_555
H33 C31 1_555 1_555
C38 C30 1_555 1_555
C39 C27 1_555 1_555
O11 C39 1_555 1_555
H34 C39 1_555 1_555
O12 C38 1_555 1_555
C40 C28 1_555 1_555
H35 C40 1_555 1_555
H36 C40 1_555 1_555
O13 C38 1_555 1_555
H37 C29 1_555 1_555
H38 C27 1_555 1_555
C41 C26 1_555 1_555
H39 C41 1_555 1_555
H40 C41 1_555 1_555
H41 C41 1_555 1_555
C42 C26 1_555 1_555
H42 C42 1_555 1_555
H43 C42 1_555 1_555
H44 C42 1_555 1_555
H45 C25 1_555 1_555
H46 C25 1_555 1_555
H47 O13 1_555 1_555
H48 O9 1_555 1_555
H49 O4 1_555 1_555
H50 O5 1_555 1_555
H51 O11 1_555 1_555
H52 O7 1_555 1_555
O14 H53 1_555 1_555
H54 O14 1_555 1_555
O15 H55 1_555 1_555
H56 O15 1_555 1_555
O16 C43 1_555 1_555
C43 H57 1_555 1_555
H58 O16 1_555 1_555
H59 C43 1_555 1_555
H60 C43 1_555 1_555
C4 C5 1_555 1_555
O6 C11 1_555 1_555
C12 C13 1_555 1_555
C16 C17 1_555 1_555
C18 C19 1_555 1_555
C21 C22 1_555 1_555
C27 C28 1_555 1_555
C33 C34 1_555 1_555
C36 C37 1_555 1_555
C38 C39 1_555 1_555
O12 C40 1_555 1_555

#END
