
#######################################################################
#
#                 Cambridge Crystallographic Data Centre
#                                CCDC 
#
#######################################################################
#
# If this CIF has been generated from an entry in the Cambridge 
# Structural Database, then it will include bibliographic, chemical, 
# crystal, experimental, refinement or atomic coordinate data resulting 
# from the CCDC's data processing and validation procedures.
#
#######################################################################

data_COSCUK
_chemical_formula_moiety         'C52 H40 O3 Si3'
_chemical_name_systematic        
1,2,3,4,7,7,9,9-Octaphenyl-6,8,10-trioxa-5,7,9-trisilaspiro[4.5]deca-1,3-diene
_symmetry_cell_setting           triclinic
_symmetry_space_group_name_H-M   'P -1'
_symmetry_Int_Tables_number      2
_space_group_name_Hall           '-P 1'
loop_
_symmetry_equiv_pos_site_id
_symmetry_equiv_pos_as_xyz
1 x,y,z
2 -x,-y,-z
_cell_length_a                   10.688(4)
_cell_length_b                   14.471(8)
_cell_length_c                   17.002(6)
_cell_angle_alpha                104.62(5)
_cell_angle_beta                 103.75(4)
_cell_angle_gamma                103.50(4)
_cell_volume                     2348.03
_exptl_crystal_colour            yellow
_exptl_crystal_description       block
_cell_formula_units_Z            2
loop_
_atom_site_label
_atom_site_type_symbol
_atom_site_fract_x
_atom_site_fract_y
_atom_site_fract_z
Si1 Si 0.10996(5) 0.81021(3) 0.31720(3)
Si2 Si 0.13379(4) 0.62255(3) 0.20461(3)
Si3 Si -0.13853(4) 0.65149(3) 0.18721(3)
O1 O 0.18594(11) 0.72989(8) 0.28378(7)
O2 O -0.03145(11) 0.59233(8) 0.16653(7)
O3 O -0.05037(11) 0.76113(8) 0.26019(7)
C1 C 0.14649(16) 0.85114(12) 0.43515(10)
C2 C 0.20941(16) 0.95202(12) 0.46424(11)
C3 C 0.22757(18) 1.00138(12) 0.39723(11)
C4 C 0.18231(19) 0.93895(12) 0.31487(11)
C5 C 0.12024(16) 0.78328(12) 0.48514(11)
C6 C 0.01090(18) 0.69437(12) 0.44696(11)
H1 H -0.0451 0.6802 0.3901
C7 C -0.01776(19) 0.62670(13) 0.48963(12)
H2 H -0.0926 0.5669 0.4621
C8 C 0.0624(2) 0.64601(14) 0.57234(13)
H3 H 0.0427 0.5999 0.6021
C9 C 0.1716(2) 0.73316(14) 0.61147(13)
H4 H 0.2267 0.7468 0.6684
C10 C 0.20142(18) 0.80059(13) 0.56863(12)
H5 H 0.2778 0.8594 0.5961
C11 C 0.26016(17) 1.01467(12) 0.55635(11)
C12 C 0.39875(18) 1.06272(12) 0.59828(12)
H6 H 0.4611 1.0603 0.5668
C13 C 0.4458(2) 1.11392(14) 0.68573(12)
H7 H 0.5402 1.1455 0.7141
C14 C 0.3555(2) 1.11893(14) 0.73138(12)
H8 H 0.3879 1.1534 0.7913
C15 C 0.2172(2) 1.07380(14) 0.69000(12)
H9 H 0.1549 1.0784 0.7214
C16 C 0.17032(18) 1.02202(12) 0.60288(11)
H10 H 0.0757 0.9912 0.5747
C17 C 0.29530(18) 1.11207(12) 0.42586(11)
C18 C 0.24080(19) 1.18006(13) 0.46851(12)
H11 H 0.1567 1.1561 0.4778
C19 C 0.30842(19) 1.28267(13) 0.49759(12)
H12 H 0.2699 1.3285 0.5259
C20 C 0.4310(2) 1.31795(13) 0.48546(14)
H13 H 0.4778 1.3881 0.5063
C21 C 0.4862(2) 1.25163(14) 0.44303(15)
H14 H 0.5706 1.2761 0.4343
C22 C 0.4178(2) 1.14862(14) 0.41303(14)
H15 H 0.4557 1.1032 0.3835
C23 C 0.1765(9) 0.9623(6) 0.2329(3)
C24 C 0.1946(10) 0.8919(5) 0.1676(4)
H16 H 0.2143 0.8340 0.1769
C25 C 0.1840(8) 0.9061(4) 0.0887(3)
H17 H 0.1964 0.8580 0.0441
C26 C 0.1553(7) 0.9907(4) 0.0751(2)
H18 H 0.1481 1.0005 0.0212
C27 C 0.1372(7) 1.0612(3) 0.1404(3)
H19 H 0.1175 1.1190 0.1312
C28 C 0.1478(7) 1.0469(5) 0.2193(2)
H20 H 0.1354 1.0951 0.2639
C29 C -0.23016(16) 0.67395(12) 0.09042(10)
C30 C -0.20965(19) 0.76945(13) 0.08288(11)
H21 H -0.1467 0.8259 0.1289
C31 C -0.2796(2) 0.78343(16) 0.00948(13)
H22 H -0.2659 0.8493 0.0058
C32 C -0.3699(2) 0.70125(16) -0.05887(12)
H23 H -0.4172 0.7109 -0.1095
C33 C -0.39077(19) 0.60619(15) -0.05331(11)
H24 H -0.4522 0.5499 -0.1001
C34 C -0.32199(18) 0.59247(13) 0.02078(11)
H25 H -0.3375 0.5265 0.0244
C35 C -0.25271(16) 0.57510(12) 0.22972(10)
C36 C -0.34898(17) 0.60975(14) 0.26086(11)
H26 H -0.3565 0.6736 0.2600
C37 C -0.43353(19) 0.55222(16) 0.29302(12)
H27 H -0.4988 0.5765 0.3137
C38 C -0.4226(2) 0.45956(17) 0.29498(13)
H28 H -0.4802 0.4203 0.3173
C39 C -0.3287(2) 0.42394(16) 0.26482(14)
H29 H -0.3216 0.3601 0.2662
C40 C -0.24431(18) 0.48111(13) 0.23238(12)
H30 H -0.1797 0.4559 0.2116
C41 C 0.20259(17) 0.63857(12) 0.11729(11)
C42 C 0.34188(17) 0.66240(12) 0.12899(10)
H31 H 0.4013 0.6646 0.1813
C43 C 0.39494(18) 0.68273(13) 0.06667(11)
H32 H 0.4900 0.6996 0.0764
C44 C 0.30889(19) 0.67845(14) -0.01044(12)
H33 H 0.3451 0.6933 -0.0533
C45 C 0.1712(2) 0.65267(15) -0.02464(12)
H34 H 0.1123 0.6482 -0.0779
C46 C 0.11829(18) 0.63318(14) 0.03843(12)
H35 H 0.0231 0.6158 0.0280
C47 C 0.18062(16) 0.52559(12) 0.24752(11)
C48 C 0.18346(18) 0.43740(13) 0.19181(12)
H36 H 0.1691 0.4305 0.1330
C49 C 0.2069(2) 0.35969(14) 0.22075(13)
H37 H 0.2080 0.3000 0.1819
C50 C 0.2286(2) 0.36924(15) 0.30607(14)
H38 H 0.2431 0.3156 0.3259
C51 C 0.2293(2) 0.45681(16) 0.36289(13)
H39 H 0.2464 0.4640 0.4219
C52 C 0.20514(18) 0.53416(14) 0.33360(12)
H40 H 0.2053 0.5940 0.3729
C53? C 0.1638(10) 0.9634(6) 0.2336(3)
C54? C 0.1902(11) 0.9047(6) 0.1649(4)
H41? H 0.2268 0.8521 0.1711
C55? C 0.1631(9) 0.9230(5) 0.0871(3)
H42? H 0.1812 0.8829 0.0402
C56? C 0.1096(7) 0.9999(5) 0.0781(3)
H43? H 0.0911 1.0124 0.0249
C57? C 0.0832(6) 1.0585(5) 0.1467(3)
H44? H 0.0466 1.1111 0.1405
C58? C 0.1103(7) 1.0403(6) 0.2245(3)
H45? H 0.0922 1.0804 0.2714
C59? C 0.2041(19) 0.9661(12) 0.2382(7)
C60? C 0.1945(15) 1.0563(11) 0.2269(6)
H46? H 0.1817 1.1054 0.2705
C61? C 0.2038(16) 1.0747(9) 0.1518(6)
H47? H 0.1972 1.1364 0.1440
C62? C 0.2226(16) 1.0028(9) 0.0879(5)
H48? H 0.2289 1.0154 0.0366
C63? C 0.2322(16) 0.9126(9) 0.0992(7)
H49? H 0.2450 0.8635 0.0556
C64? C 0.2229(19) 0.8942(10) 0.1744(9)
H50? H 0.2294 0.8325 0.1821
C65? C 0.1414(18) 0.9820(10) 0.2459(6)
C66? C 0.1578(17) 0.9270(9) 0.1713(7)
H51? H 0.1882 0.8702 0.1703
C67? C 0.1297(16) 0.9552(10) 0.0983(6)
H52? H 0.1410 0.9176 0.0474
C68? C 0.0853(15) 1.0384(10) 0.0999(6)
H53? H 0.0661 1.0576 0.0500
C69? C 0.0689(15) 1.0934(8) 0.1744(7)
H54? H 0.0385 1.1502 0.1755
C70? C 0.0969(17) 1.0652(9) 0.2474(6)
H55? H 0.0857 1.1028 0.2984
loop_
_geom_bond_atom_site_label_1
_geom_bond_atom_site_label_2
_geom_bond_site_symmetry_1
_geom_bond_site_symmetry_2
Si1 O1 1_555 1_555
Si2 O1 1_555 1_555
Si3 O2 1_555 1_555
O2 Si2 1_555 1_555
O3 Si1 1_555 1_555
C1 Si1 1_555 1_555
C2 C1 1_555 1_555
C3 C2 1_555 1_555
C4 Si1 1_555 1_555
C5 C1 1_555 1_555
C6 C5 1_555 1_555
H1 C6 1_555 1_555
C7 C6 1_555 1_555
H2 C7 1_555 1_555
C8 C7 1_555 1_555
H3 C8 1_555 1_555
C9 C8 1_555 1_555
H4 C9 1_555 1_555
C10 C5 1_555 1_555
H5 C10 1_555 1_555
C11 C2 1_555 1_555
C12 C11 1_555 1_555
H6 C12 1_555 1_555
C13 C12 1_555 1_555
H7 C13 1_555 1_555
C14 C13 1_555 1_555
H8 C14 1_555 1_555
C15 C14 1_555 1_555
H9 C15 1_555 1_555
C16 C11 1_555 1_555
H10 C16 1_555 1_555
C17 C3 1_555 1_555
C18 C17 1_555 1_555
H11 C18 1_555 1_555
C19 C18 1_555 1_555
H12 C19 1_555 1_555
C20 C19 1_555 1_555
H13 C20 1_555 1_555
C21 C20 1_555 1_555
H14 C21 1_555 1_555
C22 C17 1_555 1_555
H15 C22 1_555 1_555
C23 C4 1_555 1_555
C24 C23 1_555 1_555
H16 C24 1_555 1_555
C25 C24 1_555 1_555
H17 C25 1_555 1_555
C26 C25 1_555 1_555
H18 C26 1_555 1_555
C27 C26 1_555 1_555
H19 C27 1_555 1_555
C28 C23 1_555 1_555
H20 C28 1_555 1_555
C29 Si3 1_555 1_555
C30 C29 1_555 1_555
H21 C30 1_555 1_555
C31 C30 1_555 1_555
H22 C31 1_555 1_555
C32 C31 1_555 1_555
H23 C32 1_555 1_555
C33 C32 1_555 1_555
H24 C33 1_555 1_555
C34 C29 1_555 1_555
H25 C34 1_555 1_555
C35 Si3 1_555 1_555
C36 C35 1_555 1_555
H26 C36 1_555 1_555
C37 C36 1_555 1_555
H27 C37 1_555 1_555
C38 C37 1_555 1_555
H28 C38 1_555 1_555
C39 C38 1_555 1_555
H29 C39 1_555 1_555
C40 C35 1_555 1_555
H30 C40 1_555 1_555
C41 Si2 1_555 1_555
C42 C41 1_555 1_555
H31 C42 1_555 1_555
C43 C42 1_555 1_555
H32 C43 1_555 1_555
C44 C43 1_555 1_555
H33 C44 1_555 1_555
C45 C44 1_555 1_555
H34 C45 1_555 1_555
C46 C41 1_555 1_555
H35 C46 1_555 1_555
C47 Si2 1_555 1_555
C48 C47 1_555 1_555
H36 C48 1_555 1_555
C49 C48 1_555 1_555
H37 C49 1_555 1_555
C50 C49 1_555 1_555
H38 C50 1_555 1_555
C51 C50 1_555 1_555
H39 C51 1_555 1_555
C52 C47 1_555 1_555
H40 C52 1_555 1_555
Si3 O3 1_555 1_555
C3 C4 1_555 1_555
C9 C10 1_555 1_555
C15 C16 1_555 1_555
C21 C22 1_555 1_555
C27 C28 1_555 1_555
C33 C34 1_555 1_555
C39 C40 1_555 1_555
C45 C46 1_555 1_555
C51 C52 1_555 1_555

#END
