
#######################################################################
#
#                 Cambridge Crystallographic Data Centre
#                                CCDC 
#
#######################################################################
#
# If this CIF has been generated from an entry in the Cambridge 
# Structural Database, then it will include bibliographic, chemical, 
# crystal, experimental, refinement or atomic coordinate data resulting 
# from the CCDC's data processing and validation procedures.
#
#######################################################################

data_COSKAX
_chemical_formula_moiety         'C17 H19 N3'
_chemical_name_systematic        
1,3-Dimethyl-1,3-di(1H-pyrrol-2-yl)-2,3-dihydro-1H-pyrrolizine
_symmetry_cell_setting           triclinic
_symmetry_space_group_name_H-M   'P -1'
_symmetry_Int_Tables_number      2
_space_group_name_Hall           '-P 1'
loop_
_symmetry_equiv_pos_site_id
_symmetry_equiv_pos_as_xyz
1 x,y,z
2 -x,-y,-z
_cell_length_a                   9.490(3)
_cell_length_b                   9.615(3)
_cell_length_c                   9.869(3)
_cell_angle_alpha                80.171(5)
_cell_angle_beta                 62.662(4)
_cell_angle_gamma                64.498(4)
_cell_volume                     721.587
_exptl_crystal_colour            colorless
_exptl_crystal_description       needle
_cell_formula_units_Z            2
_exptl_crystal_recrystallization_method 'ethyl acetate/hexane'
loop_
_atom_site_label
_atom_site_type_symbol
_atom_site_fract_x
_atom_site_fract_y
_atom_site_fract_z
N1 N 0.16564(16) 0.32067(15) 0.23211(15)
C1 C 0.20529(18) 0.27505(17) 0.35277(16)
N2 N 0.53982(19) 0.22774(19) -0.04626(18)
C2 C 0.33595(19) 0.32654(17) 0.34450(17)
N3 N 0.5462(2) 0.04943(16) 0.26013(18)
C3 C 0.24989(18) 0.42191(17) 0.12685(17)
C4 C 0.3264(2) 0.45252(19) 0.22226(19)
C5 C 0.38327(19) 0.34214(18) -0.02604(17)
C6 C 0.5145(2) 0.19622(18) 0.29100(17)
C7 C 0.1141(2) 0.1894(2) 0.4441(2)
C8 C 0.0503(2) 0.26527(19) 0.2436(2)
C9 C 0.3815(2) 0.3635(2) -0.16618(19)
C10 C 0.0165(2) 0.1845(2) 0.3756(2)
C11 C 0.1140(2) 0.5719(2) 0.1057(2)
C12 C 0.6716(2) 0.1966(2) 0.2548(2)
C13 C 0.5406(2) 0.2585(2) -0.2717(2)
C14 C 0.2859(3) 0.3965(3) 0.4966(2)
C15 C 0.6340(3) 0.1768(2) -0.1957(2)
C16 C 0.7992(3) 0.0484(3) 0.2006(2)
C17 C 0.7193(3) -0.0397(2) 0.2050(3)
H1 H 0.290(2) 0.315(2) 0.576(2)
H2 H 0.173(2) 0.645(2) 0.045(2)
H3 H 0.368(3) 0.438(2) 0.488(2)
H4 H 0.026(3) 0.618(3) 0.208(3)
H5 H 0.172(3) 0.476(2) 0.530(2)
H6 H 0.051(3) 0.552(2) 0.052(2)
H7 H 0.285(2) 0.439(2) -0.187(2)
H8 H 0.686(3) 0.282(3) 0.265(2)
H9 H 0.913(3) 0.024(2) 0.167(2)
H10 H 0.443(2) 0.4512(18) 0.1560(19)
H11 H -0.065(3) 0.139(2) 0.418(2)
H12 H 0.118(3) 0.145(2) 0.535(2)
H13 H 0.242(2) 0.552(2) 0.276(2)
H14 H 0.005(2) 0.286(2) 0.173(2)
H15 H 0.463(3) 0.008(3) 0.279(3)
H16 H 0.761(3) -0.141(3) 0.185(3)
H17 H 0.580(2) 0.250(2) -0.380(2)
H18 H 0.739(3) 0.103(3) -0.225(3)
H19 H 0.573(3) 0.183(3) 0.026(3)
loop_
_geom_bond_atom_site_label_1
_geom_bond_atom_site_label_2
_geom_bond_site_symmetry_1
_geom_bond_site_symmetry_2
N1 C1 1_555 1_555
C1 C2 1_555 1_555
N2 C5 1_555 1_555
C2 C4 1_555 1_555
N3 C6 1_555 1_555
C3 N1 1_555 1_555
C4 C3 1_555 1_555
C5 C3 1_555 1_555
C6 C2 1_555 1_555
C7 C1 1_555 1_555
C8 N1 1_555 1_555
C9 C5 1_555 1_555
C10 C7 1_555 1_555
C11 C3 1_555 1_555
C12 C6 1_555 1_555
C13 C9 1_555 1_555
C14 C2 1_555 1_555
C15 N2 1_555 1_555
C16 C12 1_555 1_555
C17 N3 1_555 1_555
H1 C14 1_555 1_555
H2 C11 1_555 1_555
H3 C14 1_555 1_555
H4 C11 1_555 1_555
H5 C14 1_555 1_555
H6 C11 1_555 1_555
H7 C9 1_555 1_555
H8 C12 1_555 1_555
H9 C16 1_555 1_555
H10 C4 1_555 1_555
H11 C10 1_555 1_555
H12 C7 1_555 1_555
H13 C4 1_555 1_555
H14 C8 1_555 1_555
H15 N3 1_555 1_555
H16 C17 1_555 1_555
H17 C13 1_555 1_555
H18 C15 1_555 1_555
H19 N2 1_555 1_555
C8 C10 1_555 1_555
C13 C15 1_555 1_555
C16 C17 1_555 1_555

#END
