
#######################################################################
#
#                 Cambridge Crystallographic Data Centre
#                                CCDC 
#
#######################################################################
#
# If this CIF has been generated from an entry in the Cambridge 
# Structural Database, then it will include bibliographic, chemical, 
# crystal, experimental, refinement or atomic coordinate data resulting 
# from the CCDC's data processing and validation procedures.
#
#######################################################################

data_COSKUR
_chemical_compound_source        
'fruits of Daphniphyllum macropodum Miq. (Daphniphyllaceae)'
_chemical_name_common            'Daphniacetal A'
_chemical_formula_moiety         'C9 H12 O3'
_chemical_name_systematic        
(1S,2R,3S,4S,6S,8S,10R)-5,7-Dioxatetracyclo[6.3.0.0^2,6^.0^3,10^]undecan-4-ol
_chemical_properties_biological  
'No antioxidant effects against H2O2-induced impairment in PC12 cells'
_symmetry_cell_setting           orthorhombic
_symmetry_space_group_name_H-M   'P 21 21 21'
_symmetry_Int_Tables_number      19
_space_group_name_Hall           'P 2ac 2ab'
loop_
_symmetry_equiv_pos_site_id
_symmetry_equiv_pos_as_xyz
1 x,y,z
2 1/2-x,-y,1/2+z
3 1/2+x,1/2-y,-z
4 -x,1/2+y,1/2-z
_cell_length_a                   8.382(1)
_cell_length_b                   9.596(1)
_cell_length_c                   9.858(1)
_cell_angle_alpha                90
_cell_angle_beta                 90
_cell_angle_gamma                90
_cell_volume                     792.915
_exptl_crystal_colour            colorless
_exptl_crystal_description       needle
_chemical_melting_point          '149-150 deg.C'
_cell_formula_units_Z            4
loop_
_atom_site_label
_atom_site_type_symbol
_atom_site_fract_x
_atom_site_fract_y
_atom_site_fract_z
O1 O 0.1308(2) 0.37468(17) 0.13377(17)
O2 O 0.6328(2) 0.2318(2) 0.1527(2)
H1 H 0.6739 0.2098 0.0803
O3 O 0.3939(3) 0.3292(2) 0.0792(2)
C1 C 0.4681(3) 0.2123(3) 0.1451(3)
H2 H 0.4441 0.1263 0.0955
C2 C 0.3984(3) 0.2051(2) 0.2870(2)
H3 H 0.4827 0.1897 0.3542
C3 C 0.2600(4) 0.1025(3) 0.3089(3)
H4 H 0.2929 0.0054 0.3214
C4 C 0.1776(4) 0.1681(3) 0.4330(3)
H5 H 0.0786 0.1218 0.4567
H6 H 0.2470 0.1737 0.5116
C5 C 0.1511(3) 0.3101(3) 0.3644(3)
H7 H 0.0980 0.3812 0.4197
C6 C 0.3171(3) 0.3486(2) 0.3099(2)
H8 H 0.3774 0.4121 0.3684
C7 C 0.2910(3) 0.4022(2) 0.1666(2)
H9 H 0.3124 0.5025 0.1621
C8 C 0.0706(3) 0.2743(3) 0.2295(3)
H10 H -0.0460 0.2782 0.2365
C9 C 0.1303(4) 0.1240(3) 0.2014(3)
H11 H 0.0447 0.0568 0.2121
H12 H 0.1739 0.1160 0.1106
loop_
_geom_bond_atom_site_label_1
_geom_bond_atom_site_label_2
_geom_bond_site_symmetry_1
_geom_bond_site_symmetry_2
O1 C7 1_555 1_555
O2 H1 1_555 1_555
O3 C1 1_555 1_555
C1 O2 1_555 1_555
H2 C1 1_555 1_555
C2 C1 1_555 1_555
H3 C2 1_555 1_555
C3 C2 1_555 1_555
H4 C3 1_555 1_555
C4 C3 1_555 1_555
H5 C4 1_555 1_555
H6 C4 1_555 1_555
C5 C4 1_555 1_555
H7 C5 1_555 1_555
C6 C2 1_555 1_555
H8 C6 1_555 1_555
C7 O3 1_555 1_555
H9 C7 1_555 1_555
C8 O1 1_555 1_555
H10 C8 1_555 1_555
C9 C3 1_555 1_555
H11 C9 1_555 1_555
H12 C9 1_555 1_555
C5 C6 1_555 1_555
C5 C8 1_555 1_555
C6 C7 1_555 1_555
C8 C9 1_555 1_555

#END
