
#######################################################################
#
#                 Cambridge Crystallographic Data Centre
#                                CCDC 
#
#######################################################################
#
# If this CIF has been generated from an entry in the Cambridge 
# Structural Database, then it will include bibliographic, chemical, 
# crystal, experimental, refinement or atomic coordinate data resulting 
# from the CCDC's data processing and validation procedures.
#
#######################################################################

data_COSKEB
_chemical_formula_moiety         'C27 H31 N1 O1'
_chemical_name_systematic        
(S)-(1-(Mesitylmethyl)-2-pyrrolidinyl)(diphenyl)methanol
_symmetry_cell_setting           triclinic
_symmetry_space_group_name_H-M   'P 1'
_symmetry_Int_Tables_number      1
_space_group_name_Hall           'P 1'
loop_
_symmetry_equiv_pos_site_id
_symmetry_equiv_pos_as_xyz
1 x,y,z
_cell_length_a                   6.0379(10)
_cell_length_b                   12.783(2)
_cell_length_c                   15.101(2)
_cell_angle_alpha                96.757(17)
_cell_angle_beta                 98.206(16)
_cell_angle_gamma                103.14(2)
_cell_volume                     1109.69
_exptl_crystal_colour            colorless
_exptl_crystal_description       block
_chemical_melting_point          '108-110 deg.C'
_cell_formula_units_Z            2
_exptl_crystal_recrystallization_method methanol
loop_
_atom_site_label
_atom_site_type_symbol
_atom_site_fract_x
_atom_site_fract_y
_atom_site_fract_z
O1 O 0.4861(6) 0.5612(3) 0.6325(3)
H1 H 0.4723 0.5604 0.5776
N1 N 0.1072(8) 0.5353(3) 0.4984(3)
C1 C 0.2756(10) 0.5733(4) 0.6619(4)
C2 C 0.0746(10) 0.5043(4) 0.5884(3)
H3 H -0.0729 0.5151 0.6024
C3 C 0.0696(12) 0.3821(5) 0.5770(4)
H4 H 0.1759 0.3671 0.6255
H5 H -0.0845 0.3385 0.5771
C4 C 0.1418(13) 0.3578(5) 0.4873(4)
H6 H 0.3084 0.3713 0.4938
H7 H 0.0723 0.2830 0.4594
C5 C 0.0533(12) 0.4349(5) 0.4333(4)
H8 H 0.1312 0.4454 0.3819
H9 H -0.1118 0.4091 0.4116
C6 C 0.2771(9) 0.6934(4) 0.6786(4)
C7 C 0.4692(11) 0.7729(5) 0.6722(4)
H10 H 0.5976 0.7530 0.6549
C8 C 0.4726(13) 0.8829(5) 0.6915(5)
H11 H 0.6028 0.9355 0.6864
C9 C 0.2892(13) 0.9139(5) 0.7173(5)
H12 H 0.2928 0.9872 0.7304
C10 C 0.0992(12) 0.8362(5) 0.7237(4)
H13 H -0.0268 0.8576 0.7418
C11 C 0.0869(11) 0.7252(5) 0.7039(4)
H14 H -0.0461 0.6736 0.7077
C12 C 0.2769(10) 0.5325(4) 0.7531(4)
C13 C 0.4835(11) 0.5452(5) 0.8101(4)
H15 H 0.6214 0.5739 0.7910
C14 C 0.4886(13) 0.5153(6) 0.8967(5)
H16 H 0.6284 0.5263 0.9358
C15 C 0.2835(15) 0.4694(5) 0.9233(5)
H17 H 0.2863 0.4474 0.9799
C16 C 0.0765(13) 0.4559(5) 0.8676(4)
H18 H -0.0612 0.4261 0.8864
C17 C 0.0745(11) 0.4876(5) 0.7813(4)
H19 H -0.0658 0.4780 0.7429
C18 C -0.0270(11) 0.6128(5) 0.4704(4)
H20 H 0.0288 0.6808 0.5120
H21 H -0.1879 0.5838 0.4741
C19 C -0.0091(12) 0.6343(5) 0.3758(4)
C20 C -0.1921(13) 0.5914(6) 0.3031(5)
C21 C -0.1678(19) 0.6093(7) 0.2167(5)
H22 H -0.2917 0.5792 0.1697
C22 C 0.028(2) 0.6687(8) 0.1977(5)
C23 C 0.2088(16) 0.7162(6) 0.2680(6)
H23 H 0.3443 0.7587 0.2556
C24 C 0.1931(12) 0.7020(5) 0.3586(4)
C25 C -0.4229(14) 0.5211(7) 0.3139(6)
H24 H -0.3987 0.4586 0.3397
H25 H -0.5209 0.4978 0.2557
H26 H -0.4948 0.5624 0.3530
C26 C 0.068(3) 0.6877(10) 0.1024(6)
H27 H -0.0400 0.7259 0.0774
H28 H 0.0453 0.6190 0.0646
H29 H 0.2225 0.7302 0.1053
C27 C 0.3902(14) 0.7559(6) 0.4326(6)
H30 H 0.3496 0.8127 0.4694
H31 H 0.5226 0.7863 0.4070
H32 H 0.4258 0.7034 0.4692
O2 O 0.9786(6) 0.1466(3) -0.0033(3)
H2 H 1.0201 0.1461 0.0507
N2 N 0.7691(8) 0.1680(4) 0.1457(3)
C28 C 0.7322(9) 0.1340(4) -0.0218(4)
C29 C 0.6740(10) 0.2023(4) 0.0597(4)
H33 H 0.5064 0.1916 0.0540
C30 C 0.7905(11) 0.3228(5) 0.0684(4)
H34 H 0.6817 0.3665 0.0782
H35 H 0.8517 0.3385 0.0141
C31 C 0.9855(12) 0.3462(5) 0.1501(4)
H36 H 1.1251 0.3310 0.1330
H37 H 1.0192 0.4210 0.1797
C32 C 0.8853(13) 0.2691(5) 0.2092(4)
H38 H 1.0055 0.2568 0.2538
H39 H 0.7755 0.2966 0.2404
C33 C 0.6087(9) 0.0123(4) -0.0360(3)
C34 C 0.3773(10) -0.0221(4) -0.0334(4)
H40 H 0.2911 0.0281 -0.0220
C35 C 0.2733(10) -0.1333(5) -0.0480(4)
H41 H 0.1179 -0.1563 -0.0441
C36 C 0.3903(11) -0.2080(5) -0.0676(4)
H42 H 0.3171 -0.2817 -0.0770
C37 C 0.6170(12) -0.1745(5) -0.0735(5)
H43 H 0.6997 -0.2256 -0.0874
C38 C 0.7264(11) -0.0640(5) -0.0587(4)
H44 H 0.8809 -0.0417 -0.0643
C39 C 0.6776(10) 0.1747(4) -0.1115(4)
C40 C 0.8088(11) 0.1613(5) -0.1778(4)
H45 H 0.9359 0.1322 -0.1662
C41 C 0.7501(13) 0.1917(5) -0.2631(4)
H46 H 0.8410 0.1843 -0.3071
C42 C 0.5612(13) 0.2318(5) -0.2815(5)
H47 H 0.5212 0.2501 -0.3384
C43 C 0.4295(12) 0.2453(5) -0.2159(4)
H48 H 0.3029 0.2747 -0.2277
C44 C 0.4863(11) 0.2148(5) -0.1324(4)
H49 H 0.3929 0.2216 -0.0891
C45 C 0.5945(11) 0.0948(5) 0.1844(4)
H50 H 0.5268 0.0292 0.1407
H51 H 0.4722 0.1303 0.1943
C46 C 0.6900(11) 0.0636(5) 0.2722(4)
C47 C 0.6316(12) 0.1017(5) 0.3541(5)
C48 C 0.7255(14) 0.0707(6) 0.4337(4)
H52 H 0.6848 0.0953 0.4880
C49 C 0.8767(14) 0.0047(6) 0.4344(5)
C50 C 0.9253(14) -0.0348(6) 0.3532(6)
H53 H 1.0213 -0.0822 0.3519
C51 C 0.8348(12) -0.0058(5) 0.2729(4)
C52 C 0.4667(15) 0.1748(6) 0.3613(5)
H54 H 0.3191 0.1389 0.3249
H55 H 0.5276 0.2416 0.3403
H56 H 0.4489 0.1899 0.4233
C53 C 0.9774(17) -0.0248(9) 0.5239(6)
H57 H 1.1423 -0.0106 0.5296
H58 H 0.9144 -0.1005 0.5252
H59 H 0.9389 0.0182 0.5732
C54 C 0.8989(17) -0.0540(7) 0.1867(6)
H60 H 0.9909 -0.1041 0.2003
H61 H 0.9856 0.0032 0.1603
H62 H 0.7609 -0.0915 0.1448
loop_
_geom_bond_atom_site_label_1
_geom_bond_atom_site_label_2
_geom_bond_site_symmetry_1
_geom_bond_site_symmetry_2
O1 H1 1_555 1_555
O2 H2 1_555 1_555
N1 C2 1_555 1_555
N2 C29 1_555 1_555
C1 O1 1_555 1_555
C2 C1 1_555 1_555
H3 C2 1_555 1_555
C3 C2 1_555 1_555
H4 C3 1_555 1_555
H5 C3 1_555 1_555
C4 C3 1_555 1_555
H6 C4 1_555 1_555
H7 C4 1_555 1_555
C5 N1 1_555 1_555
H8 C5 1_555 1_555
H9 C5 1_555 1_555
C6 C1 1_555 1_555
C7 C6 1_555 1_555
H10 C7 1_555 1_555
C8 C7 1_555 1_555
H11 C8 1_555 1_555
C9 C8 1_555 1_555
H12 C9 1_555 1_555
C10 C9 1_555 1_555
H13 C10 1_555 1_555
C11 C6 1_555 1_555
H14 C11 1_555 1_555
C12 C1 1_555 1_555
C13 C12 1_555 1_555
H15 C13 1_555 1_555
C14 C13 1_555 1_555
H16 C14 1_555 1_555
C15 C14 1_555 1_555
H17 C15 1_555 1_555
C16 C15 1_555 1_555
H18 C16 1_555 1_555
C17 C12 1_555 1_555
H19 C17 1_555 1_555
C18 N1 1_555 1_555
H20 C18 1_555 1_555
H21 C18 1_555 1_555
C19 C18 1_555 1_555
C20 C19 1_555 1_555
C21 C20 1_555 1_555
H22 C21 1_555 1_555
C22 C21 1_555 1_555
C23 C22 1_555 1_555
H23 C23 1_555 1_555
C24 C19 1_555 1_555
C25 C20 1_555 1_555
H24 C25 1_555 1_555
H25 C25 1_555 1_555
H26 C25 1_555 1_555
C26 C22 1_555 1_555
H27 C26 1_555 1_555
H28 C26 1_555 1_555
H29 C26 1_555 1_555
C27 C24 1_555 1_555
H30 C27 1_555 1_555
H31 C27 1_555 1_555
H32 C27 1_555 1_555
C28 O2 1_555 1_555
C29 C28 1_555 1_555
H33 C29 1_555 1_555
C30 C29 1_555 1_555
H34 C30 1_555 1_555
H35 C30 1_555 1_555
C31 C30 1_555 1_555
H36 C31 1_555 1_555
H37 C31 1_555 1_555
C32 N2 1_555 1_555
H38 C32 1_555 1_555
H39 C32 1_555 1_555
C33 C28 1_555 1_555
C34 C33 1_555 1_555
H40 C34 1_555 1_555
C35 C34 1_555 1_555
H41 C35 1_555 1_555
C36 C35 1_555 1_555
H42 C36 1_555 1_555
C37 C36 1_555 1_555
H43 C37 1_555 1_555
C38 C33 1_555 1_555
H44 C38 1_555 1_555
C39 C28 1_555 1_555
C40 C39 1_555 1_555
H45 C40 1_555 1_555
C41 C40 1_555 1_555
H46 C41 1_555 1_555
C42 C41 1_555 1_555
H47 C42 1_555 1_555
C43 C42 1_555 1_555
H48 C43 1_555 1_555
C44 C39 1_555 1_555
H49 C44 1_555 1_555
C45 N2 1_555 1_555
H50 C45 1_555 1_555
H51 C45 1_555 1_555
C46 C45 1_555 1_555
C47 C46 1_555 1_555
C48 C47 1_555 1_555
H52 C48 1_555 1_555
C49 C48 1_555 1_555
C50 C49 1_555 1_555
H53 C50 1_555 1_555
C51 C46 1_555 1_555
C52 C47 1_555 1_555
H54 C52 1_555 1_555
H55 C52 1_555 1_555
H56 C52 1_555 1_555
C53 C49 1_555 1_555
H57 C53 1_555 1_555
H58 C53 1_555 1_555
H59 C53 1_555 1_555
C54 C51 1_555 1_555
H60 C54 1_555 1_555
H61 C54 1_555 1_555
H62 C54 1_555 1_555
C4 C5 1_555 1_555
C10 C11 1_555 1_555
C16 C17 1_555 1_555
C23 C24 1_555 1_555
C31 C32 1_555 1_555
C37 C38 1_555 1_555
C43 C44 1_555 1_555
C50 C51 1_555 1_555

#END
