
#######################################################################
#
#                 Cambridge Crystallographic Data Centre
#                                CCDC 
#
#######################################################################
#
# If this CIF has been generated from an entry in the Cambridge 
# Structural Database, then it will include bibliographic, chemical, 
# crystal, experimental, refinement or atomic coordinate data resulting 
# from the CCDC's data processing and validation procedures.
#
#######################################################################

data_COSNAB
_chemical_formula_moiety         'C15 H16 N2 O2'
_chemical_name_systematic        
6,8-dimethyl-7,8-dihydro-6H-pyrido[2',3':8,9][1,5]dioxonino[7,6-b]pyridine
_symmetry_cell_setting           orthorhombic
_symmetry_space_group_name_H-M   'P 21 21 21'
_symmetry_Int_Tables_number      19
_space_group_name_Hall           'P 2ac 2ab'
loop_
_symmetry_equiv_pos_site_id
_symmetry_equiv_pos_as_xyz
1 x,y,z
2 1/2+x,1/2-y,-z
3 -x,1/2+y,1/2-z
4 1/2-x,-y,1/2+z
_cell_length_a                   9.70420(10)
_cell_length_b                   10.23740(10)
_cell_length_c                   13.43260(10)
_cell_angle_alpha                90
_cell_angle_beta                 90
_cell_angle_gamma                90
_cell_volume                     1334.47
_exptl_crystal_colour            colorless
_exptl_crystal_description       block
_cell_formula_units_Z            4
loop_
_atom_site_label
_atom_site_type_symbol
_atom_site_fract_x
_atom_site_fract_y
_atom_site_fract_z
N1 N 0.02828(15) 0.39145(14) 0.56277(11)
N2 N 0.27101(14) 0.52150(13) 0.63887(10)
O1 O 0.22774(11) 0.15585(10) 0.70195(8)
O2 O 0.11696(11) 0.33117(10) 0.83466(8)
C1 C -0.05367(19) 0.3112(2) 0.51091(13)
H1 H -0.1155 0.3487 0.4641
C2 C -0.0533(2) 0.1764(2) 0.52169(14)
H2 H -0.1148 0.1235 0.4843
C3 C 0.03842(19) 0.12086(17) 0.58794(13)
H3 H 0.0418 0.0288 0.5967
C4 C 0.12556(16) 0.20225(15) 0.64152(11)
C5 C 0.11502(16) 0.33755(16) 0.62861(11)
C6 C 0.20237(15) 0.42808(14) 0.68841(12)
C7 C 0.20942(15) 0.41517(14) 0.79222(12)
C8 C 0.29748(17) 0.49578(15) 0.84567(12)
H4 H 0.3071 0.4868 0.9157
C9 C 0.37084(19) 0.58960(16) 0.79374(14)
H5 H 0.4332 0.6457 0.8276
C10 C 0.35228(17) 0.60069(15) 0.69213(14)
H6 H 0.3999 0.6684 0.6581
C11 C 0.2500(2) -0.06424(17) 0.76378(15)
H7 H 0.2157 -0.0979 0.7001
H8 H 0.2239 -0.1242 0.8174
H9 H 0.3506 -0.0568 0.7611
C12 C 0.18773(18) 0.06907(15) 0.78344(12)
H10 H 0.0851 0.0622 0.7870
C13 C 0.24319(17) 0.13169(16) 0.87806(12)
H11 H 0.3390 0.1606 0.8656
H12 H 0.2464 0.0643 0.9309
C14 C 0.16058(18) 0.24838(16) 0.91683(11)
H13 H 0.2190 0.3003 0.9637
C15 C 0.0275(2) 0.21045(18) 0.96825(14)
H14 H -0.0214 0.2895 0.9894
H15 H 0.0484 0.1565 1.0266
H16 H -0.0305 0.1608 0.9220
loop_
_geom_bond_atom_site_label_1
_geom_bond_atom_site_label_2
_geom_bond_site_symmetry_1
_geom_bond_site_symmetry_2
N1 C1 1_555 1_555
N2 C6 1_555 1_555
O1 C4 1_555 1_555
O2 C7 1_555 1_555
C1 H1 1_555 1_555
C2 C1 1_555 1_555
H2 C2 1_555 1_555
C3 C2 1_555 1_555
H3 C3 1_555 1_555
C4 C3 1_555 1_555
C5 N1 1_555 1_555
C6 C5 1_555 1_555
C7 C6 1_555 1_555
C8 C7 1_555 1_555
H4 C8 1_555 1_555
C9 C8 1_555 1_555
H5 C9 1_555 1_555
C10 N2 1_555 1_555
H6 C10 1_555 1_555
C11 H7 1_555 1_555
H8 C11 1_555 1_555
H9 C11 1_555 1_555
C12 O1 1_555 1_555
H10 C12 1_555 1_555
C13 C12 1_555 1_555
H11 C13 1_555 1_555
H12 C13 1_555 1_555
C14 O2 1_555 1_555
H13 C14 1_555 1_555
C15 C14 1_555 1_555
H14 C15 1_555 1_555
H15 C15 1_555 1_555
H16 C15 1_555 1_555
C4 C5 1_555 1_555
C9 C10 1_555 1_555
C11 C12 1_555 1_555
C13 C14 1_555 1_555

#END
