
#######################################################################
#
#                 Cambridge Crystallographic Data Centre
#                                CCDC 
#
#######################################################################
#
# If this CIF has been generated from an entry in the Cambridge 
# Structural Database, then it will include bibliographic, chemical, 
# crystal, experimental, refinement or atomic coordinate data resulting 
# from the CCDC's data processing and validation procedures.
#
#######################################################################

data_COSWAK
_chemical_formula_moiety         'C17 H16 N4 O2 S1'
_chemical_name_systematic        
(Z)-N-(3-Diazo-1-methylindolin-2-ylidene)-4-methylbenzenesulfonamide
_symmetry_cell_setting           monoclinic
_symmetry_space_group_name_H-M   'P 21/c'
_symmetry_Int_Tables_number      14
_space_group_name_Hall           '-P 2ybc'
loop_
_symmetry_equiv_pos_site_id
_symmetry_equiv_pos_as_xyz
1 x,y,z
2 -x,1/2+y,1/2-z
3 -x,-y,-z
4 x,1/2-y,1/2+z
_cell_length_a                   24.442(2)
_cell_length_b                   18.0516(14)
_cell_length_c                   14.9991(11)
_cell_angle_alpha                90
_cell_angle_beta                 95.860(8)
_cell_angle_gamma                90
_cell_volume                     6583.28
_exptl_crystal_colour            yellow
_exptl_crystal_description       block
_chemical_melting_point          '457-457.6 K'
_cell_formula_units_Z            16
loop_
_atom_site_label
_atom_site_type_symbol
_atom_site_fract_x
_atom_site_fract_y
_atom_site_fract_z
S1 S 0.86390(3) 0.69402(4) 0.29842(5)
O1 O 0.85807(9) 0.77083(12) 0.27557(15)
O2 O 0.84457(9) 0.64129(12) 0.23042(12)
N1 N 1.00396(9) 0.61409(12) 0.38475(14)
N2 N 0.92712(10) 0.68202(13) 0.33384(15)
N3 N 0.88834(11) 0.51251(14) 0.29592(16)
N4 N 0.85025(13) 0.48307(16) 0.2666(2)
C1 C 1.02382(11) 0.54126(14) 0.39579(17)
C2 C 1.07456(12) 0.51482(16) 0.43253(18)
C3 C 1.08026(14) 0.43805(18) 0.4325(2)
H1 H 1.1137 0.4178 0.4559
C4 C 1.03884(15) 0.39046(18) 0.3994(2)
H2 H 1.0450 0.3396 0.4012
C5 C 0.98846(14) 0.41717(16) 0.36383(19)
H3 H 0.9603 0.3854 0.3416
C6 C 0.98149(12) 0.49355(15) 0.36255(17)
C7 C 1.12224(13) 0.56146(19) 0.4716(2)
H4 H 1.1124 0.5864 0.5241
H5 H 1.1311 0.5974 0.4281
H6 H 1.1535 0.5303 0.4873
C8 C 0.93563(11) 0.54001(15) 0.33151(17)
C9 C 0.95086(11) 0.61639(15) 0.34698(17)
C10 C 1.03344(13) 0.68151(16) 0.4141(2)
H7 H 1.0400 0.6817 0.4783
H8 H 1.0118 0.7239 0.3946
H9 H 1.0679 0.6832 0.3887
C11 C 0.82807(11) 0.67827(15) 0.39370(17)
C12 C 0.79103(12) 0.62152(16) 0.39573(19)
H10 H 0.7829 0.5917 0.3456
C13 C 0.76568(13) 0.60868(18) 0.4727(2)
H11 H 0.7404 0.5702 0.4733
C14 C 0.77693(13) 0.65155(19) 0.5486(2)
C15 C 0.81360(15) 0.70963(18) 0.5444(2)
H12 H 0.8210 0.7402 0.5942
C16 C 0.83934(13) 0.72335(17) 0.4685(2)
H13 H 0.8640 0.7624 0.4673
C17 C 0.75098(17) 0.6358(2) 0.6331(2)
H14 H 0.7244 0.6736 0.6420
H15 H 0.7789 0.6354 0.6831
H16 H 0.7331 0.5884 0.6282
S2 S 0.86892(3) 0.26997(4) -0.20541(5)
O3 O 0.84297(10) 0.30512(12) -0.28525(13)
O4 O 0.87223(10) 0.19083(11) -0.20679(16)
N5 N 0.99119(11) 0.39491(13) -0.13754(16)
N6 N 0.93018(11) 0.29948(13) -0.17870(18)
N7 N 0.86001(14) 0.44635(14) -0.23685(19)
N8 N 0.81823(15) 0.46092(18) -0.2710(2)
C18 C 0.94354(14) 0.50133(16) -0.17211(19)
C19 C 0.93377(15) 0.57657(17) -0.1791(2)
H17 H 0.8999 0.5949 -0.2031
C20 C 0.97602(18) 0.6232(2) -0.1494(2)
H18 H 0.9711 0.6742 -0.1540
C21 C 1.02538(18) 0.5954(2) -0.1130(2)
H19 H 1.0528 0.6290 -0.0936
C22 C 1.03765(15) 0.5197(2) -0.1028(2)
C23 C 0.99423(14) 0.47302(17) -0.13515(18)
C24 C 1.09300(16) 0.4950(2) -0.0606(2)
H20 H 1.1095 0.4626 -0.1010
H21 H 1.0887 0.4692 -0.0058
H22 H 1.1162 0.5375 -0.0480
C25 C 0.90999(13) 0.43815(16) -0.19567(19)
C26 C 0.94046(13) 0.37146(17) -0.17294(19)
C27 C 1.03340(14) 0.34199(19) -0.1041(2)
H23 H 1.0416 0.3483 -0.0405
H24 H 1.0661 0.3503 -0.1331
H25 H 1.0203 0.2925 -0.1164
C28 C 0.83195(11) 0.29645(14) -0.11527(18)
C29 C 0.77922(13) 0.32318(18) -0.1293(2)
H26 H 0.7625 0.3287 -0.1874
C30 C 0.75102(14) 0.34196(19) -0.0575(2)
H27 H 0.7151 0.3592 -0.0680
C31 C 0.77504(14) 0.33565(16) 0.0298(2)
C32 C 0.82807(14) 0.31013(17) 0.04241(19)
H28 H 0.8452 0.3056 0.1004
C33 C 0.85650(13) 0.29103(16) -0.0286(2)
H29 H 0.8926 0.2743 -0.0181
C34 C 0.74479(18) 0.3556(2) 0.1087(2)
H30 H 0.7510 0.4069 0.1234
H31 H 0.7579 0.3255 0.1592
H32 H 0.7061 0.3472 0.0940
S3 S 0.37222(3) 0.93573(4) -0.20776(5)
O5 O 0.36538(9) 1.01259(12) -0.22996(14)
O6 O 0.35213(9) 0.88325(12) -0.27562(12)
N9 N 0.51328(9) 0.85716(12) -0.12588(14)
N10 N 0.43601(10) 0.92522(13) -0.17554(15)
N11 N 0.39547(12) 0.75588(14) -0.20673(17)
N12 N 0.35676(14) 0.72704(17) -0.2343(2)
C35 C 0.49598(15) 0.66006(18) -0.1400(2)
H33 H 0.4673 0.6282 -0.1594
C36 C 0.54692(17) 0.6334(2) -0.1070(3)
H34 H 0.5529 0.5825 -0.1047
C37 C 0.58917(16) 0.6809(2) -0.0773(2)
H35 H 0.6227 0.6604 -0.0548
C38 C 0.58443(13) 0.75753(18) -0.0790(2)
C39 C 0.53275(12) 0.78381(15) -0.11328(18)
C40 C 0.48938(12) 0.73633(15) -0.14305(18)
C41 C 0.63295(14) 0.8039(2) -0.0447(2)
H36 H 0.6244 0.8310 0.0072
H37 H 0.6414 0.8380 -0.0905
H38 H 0.6641 0.7724 -0.0289
C42 C 0.44365(12) 0.78331(16) -0.17329(18)
C43 C 0.45932(12) 0.85912(16) -0.16118(17)
C44 C 0.54300(13) 0.92467(17) -0.1002(2)
H39 H 0.5461 0.9298 -0.0361
H40 H 0.5235 0.9664 -0.1273
H41 H 0.5791 0.9225 -0.1201
C45 C 0.33790(11) 0.91928(14) -0.11175(17)
C46 C 0.29466(12) 0.87034(16) -0.1120(2)
H42 H 0.2831 0.8439 -0.1638
C47 C 0.26837(12) 0.86038(16) -0.0355(2)
H43 H 0.2390 0.8274 -0.0368
C48 C 0.28465(12) 0.89821(16) 0.04266(18)
C49 C 0.32858(12) 0.94670(17) 0.04164(19)
H44 H 0.3407 0.9725 0.0936
C50 C 0.35466(12) 0.95754(16) -0.03399(18)
H45 H 0.3838 0.9908 -0.0329
C51 C 0.25676(15) 0.8871(2) 0.1260(2)
H46 H 0.2474 0.9344 0.1495
H47 H 0.2811 0.8614 0.1698
H48 H 0.2239 0.8585 0.1122
S4 S 0.63297(3) 0.52223(4) 0.19529(5)
O7 O 0.62726(10) 0.44351(11) 0.20346(17)
O8 O 0.65740(9) 0.56184(12) 0.27323(12)
N13 N 0.51009(10) 0.64547(13) 0.12093(15)
N14 N 0.57293(10) 0.55238(13) 0.16006(18)
N15 N 0.64161(13) 0.70168(14) 0.2154(2)
N16 N 0.68367(15) 0.71796(19) 0.2467(3)
C52 C 0.55515(13) 0.75364(16) 0.1553(2)
C53 C 0.56333(16) 0.82908(18) 0.1646(2)
H49 H 0.5970 0.8483 0.1885
C54 C 0.5197(2) 0.8745(2) 0.1372(3)
H50 H 0.5235 0.9256 0.1429
C55 C 0.47070(19) 0.8450(2) 0.1015(3)
H51 H 0.4424 0.8777 0.0832
C56 C 0.46014(14) 0.7686(2) 0.0906(2)
C57 C 0.50518(13) 0.72361(17) 0.11972(19)
C58 C 0.40484(15) 0.7416(2) 0.0512(2)
H52 H 0.4091 0.7117 -0.0006
H53 H 0.3817 0.7833 0.0341
H54 H 0.3883 0.7125 0.0949
C59 C 0.59112(13) 0.69177(16) 0.17782(19)
C60 C 0.56161(12) 0.62387(16) 0.15518(19)
C61 C 0.46899(13) 0.59103(19) 0.0890(2)
H55 H 0.4600 0.5969 0.0256
H56 H 0.4365 0.5980 0.1190
H57 H 0.4833 0.5421 0.1012
C62 C 0.67377(12) 0.53973(14) 0.10667(17)
C63 C 0.72312(13) 0.57671(17) 0.12162(19)
H58 H 0.7353 0.5932 0.1790
C64 C 0.75469(15) 0.5894(2) 0.0518(2)
H59 H 0.7881 0.6141 0.0629
C65 C 0.73754(17) 0.5660(2) -0.0338(2)
C66 C 0.68839(17) 0.5278(2) -0.0475(2)
H60 H 0.6765 0.5109 -0.1048
C67 C 0.65663(14) 0.51421(17) 0.0213(2)
H61 H 0.6238 0.4880 0.0105
C68 C 0.7714(2) 0.5812(3) -0.1109(3)
H62 H 0.7520 0.5634 -0.1656
H63 H 0.8061 0.5563 -0.1004
H64 H 0.7774 0.6336 -0.1155
loop_
_geom_bond_atom_site_label_1
_geom_bond_atom_site_label_2
_geom_bond_site_symmetry_1
_geom_bond_site_symmetry_2
S1 O1 1_555 1_555
O2 S1 1_555 1_555
N1 C1 1_555 1_555
N2 S1 1_555 1_555
N3 N4 1_555 1_555
C1 C2 1_555 1_555
C2 C3 1_555 1_555
C3 H1 1_555 1_555
C4 C3 1_555 1_555
H2 C4 1_555 1_555
C5 C4 1_555 1_555
H3 C5 1_555 1_555
C6 C1 1_555 1_555
C7 C2 1_555 1_555
H4 C7 1_555 1_555
H5 C7 1_555 1_555
H6 C7 1_555 1_555
C8 N3 1_555 1_555
C9 N1 1_555 1_555
C10 N1 1_555 1_555
H7 C10 1_555 1_555
H8 C10 1_555 1_555
H9 C10 1_555 1_555
C11 S1 1_555 1_555
C12 C11 1_555 1_555
H10 C12 1_555 1_555
C13 C12 1_555 1_555
H11 C13 1_555 1_555
C14 C13 1_555 1_555
C15 C14 1_555 1_555
H12 C15 1_555 1_555
C16 C11 1_555 1_555
H13 C16 1_555 1_555
C17 C14 1_555 1_555
H14 C17 1_555 1_555
H15 C17 1_555 1_555
H16 C17 1_555 1_555
S2 O3 1_555 1_555
O4 S2 1_555 1_555
N5 C23 1_555 1_555
N6 S2 1_555 1_555
N7 N8 1_555 1_555
C18 C19 1_555 1_555
C19 H17 1_555 1_555
C20 C19 1_555 1_555
H18 C20 1_555 1_555
C21 C20 1_555 1_555
H19 C21 1_555 1_555
C22 C21 1_555 1_555
C23 C18 1_555 1_555
C24 C22 1_555 1_555
H20 C24 1_555 1_555
H21 C24 1_555 1_555
H22 C24 1_555 1_555
C25 N7 1_555 1_555
C26 N5 1_555 1_555
C27 N5 1_555 1_555
H23 C27 1_555 1_555
H24 C27 1_555 1_555
H25 C27 1_555 1_555
C28 S2 1_555 1_555
C29 C28 1_555 1_555
H26 C29 1_555 1_555
C30 C29 1_555 1_555
H27 C30 1_555 1_555
C31 C30 1_555 1_555
C32 C31 1_555 1_555
H28 C32 1_555 1_555
C33 C28 1_555 1_555
H29 C33 1_555 1_555
C34 C31 1_555 1_555
H30 C34 1_555 1_555
H31 C34 1_555 1_555
H32 C34 1_555 1_555
S3 O5 1_555 1_555
O6 S3 1_555 1_555
N9 C39 1_555 1_555
N10 S3 1_555 1_555
N11 N12 1_555 1_555
C35 H33 1_555 1_555
C36 C35 1_555 1_555
H34 C36 1_555 1_555
C37 C36 1_555 1_555
H35 C37 1_555 1_555
C38 C37 1_555 1_555
C39 C38 1_555 1_555
C40 C35 1_555 1_555
C41 C38 1_555 1_555
H36 C41 1_555 1_555
H37 C41 1_555 1_555
H38 C41 1_555 1_555
C42 N11 1_555 1_555
C43 N9 1_555 1_555
C44 N9 1_555 1_555
H39 C44 1_555 1_555
H40 C44 1_555 1_555
H41 C44 1_555 1_555
C45 S3 1_555 1_555
C46 C45 1_555 1_555
H42 C46 1_555 1_555
C47 C46 1_555 1_555
H43 C47 1_555 1_555
C48 C47 1_555 1_555
C49 C48 1_555 1_555
H44 C49 1_555 1_555
C50 C45 1_555 1_555
H45 C50 1_555 1_555
C51 C48 1_555 1_555
H46 C51 1_555 1_555
H47 C51 1_555 1_555
H48 C51 1_555 1_555
S4 O7 1_555 1_555
O8 S4 1_555 1_555
N13 C57 1_555 1_555
N14 S4 1_555 1_555
N15 N16 1_555 1_555
C52 C53 1_555 1_555
C53 H49 1_555 1_555
C54 C53 1_555 1_555
H50 C54 1_555 1_555
C55 C54 1_555 1_555
H51 C55 1_555 1_555
C56 C55 1_555 1_555
C57 C52 1_555 1_555
C58 C56 1_555 1_555
H52 C58 1_555 1_555
H53 C58 1_555 1_555
H54 C58 1_555 1_555
C59 N15 1_555 1_555
C60 N13 1_555 1_555
C61 N13 1_555 1_555
H55 C61 1_555 1_555
H56 C61 1_555 1_555
H57 C61 1_555 1_555
C62 S4 1_555 1_555
C63 C62 1_555 1_555
H58 C63 1_555 1_555
C64 C63 1_555 1_555
H59 C64 1_555 1_555
C65 C64 1_555 1_555
C66 C65 1_555 1_555
H60 C66 1_555 1_555
C67 C62 1_555 1_555
H61 C67 1_555 1_555
C68 C65 1_555 1_555
H62 C68 1_555 1_555
H63 C68 1_555 1_555
H64 C68 1_555 1_555
N2 C9 1_555 1_555
C5 C6 1_555 1_555
C6 C8 1_555 1_555
C8 C9 1_555 1_555
C15 C16 1_555 1_555
N6 C26 1_555 1_555
C18 C25 1_555 1_555
C22 C23 1_555 1_555
C25 C26 1_555 1_555
C32 C33 1_555 1_555
N10 C43 1_555 1_555
C39 C40 1_555 1_555
C40 C42 1_555 1_555
C42 C43 1_555 1_555
C49 C50 1_555 1_555
N14 C60 1_555 1_555
C52 C59 1_555 1_555
C56 C57 1_555 1_555
C59 C60 1_555 1_555
C66 C67 1_555 1_555

#END
