
#######################################################################
#
#                 Cambridge Crystallographic Data Centre
#                                CCDC 
#
#######################################################################
#
# If this CIF has been generated from an entry in the Cambridge 
# Structural Database, then it will include bibliographic, chemical, 
# crystal, experimental, refinement or atomic coordinate data resulting 
# from the CCDC's data processing and validation procedures.
#
#######################################################################

data_COSYIU
_chemical_formula_moiety         'C32 H30 B1 F2 I2 N5'
_chemical_name_systematic        
1-(4-(5,5-difluoro-2,8-diiodo-1,3,7,9-tetramethyl-5H-4,5-dipyrrolo[1,2-c:2',1'-f][1,3,2]diazaborinin-10-yl)phenyl)-N,N-bis(pyridin-2-ylmethyl)methanamine
_symmetry_cell_setting           orthorhombic
_symmetry_space_group_name_H-M   'P 21 21 21'
_symmetry_Int_Tables_number      19
_space_group_name_Hall           'P 2ac 2ab'
loop_
_symmetry_equiv_pos_site_id
_symmetry_equiv_pos_as_xyz
1 x,y,z
2 1/2+x,1/2-y,-z
3 -x,1/2+y,1/2-z
4 1/2-x,-y,1/2+z
_cell_length_a                   10.3823(8)
_cell_length_b                   10.3886(8)
_cell_length_c                   29.879(2)
_cell_angle_alpha                90
_cell_angle_beta                 90
_cell_angle_gamma                90
_cell_volume                     3222.68
_exptl_crystal_colour            red
_exptl_crystal_description       rectangular
_cell_formula_units_Z            4
loop_
_atom_site_label
_atom_site_type_symbol
_atom_site_fract_x
_atom_site_fract_y
_atom_site_fract_z
C1 C 0.1473(7) 1.1373(7) -0.0569(3)
C2 C 0.1440(7) 1.0990(7) -0.0123(3)
C3 C 0.2614(6) 1.0410(7) -0.0011(2)
C4 C 0.3362(6) 1.0453(7) -0.0410(2)
C5 C 0.4620(7) 1.0049(6) -0.0504(2)
C6 C 0.5181(7) 1.0248(7) -0.0923(2)
C7 C 0.6432(7) 0.9972(7) -0.1091(3)
C8 C 0.6425(8) 1.0425(9) -0.1524(2)
C9 C 0.5221(9) 1.0948(8) -0.1622(2)
C10 C 0.0433(8) 1.1999(9) -0.0842(3)
H1 H 0.0741 1.2144 -0.1141
H2 H 0.0201 1.2807 -0.0708
H3 H -0.0308 1.1447 -0.0852
C11 C 0.2944(8) 0.9880(9) 0.0438(2)
H4 H 0.3805 0.9542 0.0432
H5 H 0.2352 0.9204 0.0513
H6 H 0.2889 1.0552 0.0658
C12 C 0.4771(11) 1.1477(12) -0.2057(3)
H7 H 0.3899 1.1771 -0.2027
H8 H 0.4812 1.0817 -0.2282
H9 H 0.5312 1.2184 -0.2143
C13 C 0.7519(9) 0.9285(10) -0.0860(3)
H10 H 0.7270 0.9079 -0.0559
H11 H 0.8265 0.9830 -0.0855
H12 H 0.7715 0.8506 -0.1019
C14 C 0.5355(6) 0.9379(6) -0.0149(2)
C15 C 0.5229(8) 0.8069(7) -0.0083(3)
H13 H 0.4709 0.7591 -0.0274
C16 C 0.5864(8) 0.7462(7) 0.0263(3)
H14 H 0.5779 0.6577 0.0299
C17 C 0.6624(7) 0.8148(7) 0.0557(2)
C18 C 0.6760(7) 0.9456(9) 0.0491(2)
H15 H 0.7273 0.9934 0.0684
C19 C 0.6144(7) 1.0061(7) 0.0141(2)
H16 H 0.6259 1.0940 0.0099
C20 C 0.7266(8) 0.7487(7) 0.0946(2)
H17 H 0.6998 0.6593 0.0955
H18 H 0.8192 0.7508 0.0904
C21 C 0.5595(7) 0.7877(8) 0.1487(3)
H19 H 0.5511 0.7023 0.1616
H20 H 0.5070 0.7911 0.1219
C22 C 0.5120(7) 0.8857(9) 0.1816(2)
C23 C 0.5348(10) 1.0143(11) 0.1761(4)
H21 H 0.5824 1.0435 0.1518
C24 C 0.4872(14) 1.0992(13) 0.2066(5)
H22 H 0.5030 1.1868 0.2035
C25 C 0.4165(17) 1.055(3) 0.2415(5)
H23 H 0.3813 1.1119 0.2623
C26 C 0.3989(12) 0.930(2) 0.2454(4)
H24 H 0.3514 0.8999 0.2697
C27 C 0.7808(8) 0.7726(8) 0.1728(2)
H25 H 0.7889 0.6796 0.1727
H26 H 0.7439 0.7978 0.2013
C28 C 0.9121(8) 0.8310(8) 0.1685(3)
C29 C 1.0117(8) 0.7570(8) 0.1759(3)
H27 H 1.0005 0.6701 0.1823
C30 C 1.1263(11) 0.8062(14) 0.1742(4)
H28 H 1.1965 0.7531 0.1801
C31 C 1.1495(10) 0.9368(15) 0.1639(3)
H29 H 1.2328 0.9695 0.1625
C32 C 1.0469(11) 1.0118(12) 0.1563(4)
H30 H 1.0584 1.0982 0.1491
N1 N 0.2630(5) 1.1060(6) -0.07415(18)
N2 N 0.4490(6) 1.0852(6) -0.12655(19)
N3 N 0.6937(6) 0.8110(5) 0.13705(18)
N4 N 0.4454(7) 0.8424(9) 0.2164(3)
N5 N 0.9246(11) 0.9614(10) 0.1590(3)
B1 B 0.3094(9) 1.1351(9) -0.1226(3)
F1 F 0.2292(5) 1.0737(6) -0.15249(15)
F2 F 0.3052(6) 1.2664(5) -0.12887(19)
I1 I -0.00958(6) 1.12276(6) 0.03031(2)
I2 I 0.79700(7) 1.03403(8) -0.19641(2)
loop_
_geom_bond_atom_site_label_1
_geom_bond_atom_site_label_2
_geom_bond_site_symmetry_1
_geom_bond_site_symmetry_2
C1 C2 1_555 1_555
C2 C3 1_555 1_555
C3 C4 1_555 1_555
C4 C5 1_555 1_555
C5 C6 1_555 1_555
C6 C7 1_555 1_555
C7 C8 1_555 1_555
C8 C9 1_555 1_555
C9 C12 1_555 1_555
C10 C1 1_555 1_555
H1 C10 1_555 1_555
H2 C10 1_555 1_555
H3 C10 1_555 1_555
C11 C3 1_555 1_555
H4 C11 1_555 1_555
H5 C11 1_555 1_555
H6 C11 1_555 1_555
C12 H7 1_555 1_555
H8 C12 1_555 1_555
H9 C12 1_555 1_555
C13 C7 1_555 1_555
H10 C13 1_555 1_555
H11 C13 1_555 1_555
H12 C13 1_555 1_555
C14 C5 1_555 1_555
C15 C14 1_555 1_555
H13 C15 1_555 1_555
C16 C15 1_555 1_555
H14 C16 1_555 1_555
C17 C16 1_555 1_555
C18 C17 1_555 1_555
H15 C18 1_555 1_555
C19 C14 1_555 1_555
H16 C19 1_555 1_555
C20 C17 1_555 1_555
H17 C20 1_555 1_555
H18 C20 1_555 1_555
C21 H19 1_555 1_555
H20 C21 1_555 1_555
C22 C21 1_555 1_555
C23 C22 1_555 1_555
H21 C23 1_555 1_555
C24 C23 1_555 1_555
H22 C24 1_555 1_555
C25 C24 1_555 1_555
H23 C25 1_555 1_555
C26 C25 1_555 1_555
H24 C26 1_555 1_555
C27 H25 1_555 1_555
H26 C27 1_555 1_555
C28 C27 1_555 1_555
C29 C28 1_555 1_555
H27 C29 1_555 1_555
C30 C29 1_555 1_555
H28 C30 1_555 1_555
C31 C30 1_555 1_555
H29 C31 1_555 1_555
C32 C31 1_555 1_555
H30 C32 1_555 1_555
N1 C1 1_555 1_555
N2 C6 1_555 1_555
N3 C20 1_555 1_555
N4 C22 1_555 1_555
N5 C28 1_555 1_555
B1 N1 1_555 1_555
F1 B1 1_555 1_555
F2 B1 1_555 1_555
I1 C2 1_555 1_555
I2 C8 1_555 1_555
C4 N1 1_555 1_555
C9 N2 1_555 1_555
C18 C19 1_555 1_555
C21 N3 1_555 1_555
C26 N4 1_555 1_555
C27 N3 1_555 1_555
C32 N5 1_555 1_555
N2 B1 1_555 1_555

#END
