
#######################################################################
#
#                 Cambridge Crystallographic Data Centre
#                                CCDC 
#
#######################################################################
#
# If this CIF has been generated from an entry in the Cambridge 
# Structural Database, then it will include bibliographic, chemical, 
# crystal, experimental, refinement or atomic coordinate data resulting 
# from the CCDC's data processing and validation procedures.
#
#######################################################################

data_COSYAM
_chemical_compound_source        'Stereum hirsutum'
_chemical_name_common            
'2,6a,10,10,13,16b-hexamethyl-5-oxo-2,3,3a,4,4a,5,6a,7,10,11,14,15,15a,16,16b,16c-hexadecahydro-1H-cyclopenta[5,6]pentaleno[2,1-b]cycloundeca[e]pyran-2-carboxylic acid monohydrate'
_chemical_formula_moiety         'C30 H42 O4,H2 O1'
_chemical_name_systematic        'sterhirsutin B'
_symmetry_cell_setting           orthorhombic
_symmetry_space_group_name_H-M   'P 21 21 2'
_symmetry_Int_Tables_number      18
_space_group_name_Hall           'P 2 2ab'
loop_
_symmetry_equiv_pos_site_id
_symmetry_equiv_pos_as_xyz
1 x,y,z
2 -x,-y,z
3 1/2+x,1/2-y,-z
4 1/2-x,1/2+y,-z
_cell_length_a                   12.7999(9)
_cell_length_b                   27.2648(16)
_cell_length_c                   7.9116(6)
_cell_angle_alpha                90
_cell_angle_beta                 90
_cell_angle_gamma                90
_cell_volume                     2761.04
_exptl_crystal_colour            white
_cell_formula_units_Z            4
_exptl_crystal_recrystallization_method methanol
loop_
_atom_site_label
_atom_site_type_symbol
_atom_site_fract_x
_atom_site_fract_y
_atom_site_fract_z
H1 H 0.3756 -0.0590 -0.1369
H2 H 0.1269 0.0188 -0.0922
H3 H 0.1070 0.0249 0.1022
H4 H 0.1468 -0.0254 0.0305
H5 H 0.6889 0.1514 0.2911
H6 H 0.7937 0.2349 0.4888
H7 H 0.7166 0.2301 0.6419
H8 H 0.5484 0.2660 0.3054
H9 H 0.6652 0.2832 0.3111
H10 H 0.5972 0.2843 0.4758
H11 H 1.0309 0.1065 0.3542
H12 H 0.9767 0.0549 0.3532
H13 H 1.0495 0.1650 0.2009
H14 H 0.9783 0.2111 0.1740
H15 H 1.0204 0.1819 0.0175
H16 H 0.8128 0.0673 0.7051
H17 H 0.8680 0.0292 0.5863
H18 H 0.7807 0.0637 0.5143
H19 H 0.2529 0.0028 0.2959
H20 H 0.3620 -0.0103 0.2157
H21 H 1.0619 0.1212 0.6505
H22 H 1.0437 0.0645 0.6658
H23 H 0.9850 0.1006 0.7874
H24 H 0.4319 0.0906 0.0788
H25 H 0.9236 0.1760 0.5221
H26 H 0.2896 0.0813 0.5242
H27 H 0.2075 0.0843 0.3760
H28 H 0.7329 0.1415 0.6150
H29 H 0.4214 0.0570 0.3478
H30 H 0.8325 0.0876 0.2130
H31 H 0.5501 0.2043 0.0819
H32 H 0.5731 0.1478 0.0758
H33 H 0.2423 0.1654 0.3819
H34 H 0.7989 0.2236 0.2064
H35 H 0.7172 0.2283 0.0599
H36 H 0.2849 0.0923 -0.0887
H37 H 0.2098 0.0984 0.0679
H38 H 0.3209 0.2196 0.1410
H39 H 0.2469 0.1794 0.0652
H40 H 0.3576 0.1882 -0.0139
H41 H 0.7627 0.1397 0.0069
H42 H 0.8347 0.1808 -0.0689
C1 C 0.15055(17) 0.00964(7) 0.0185(3)
C2 C 0.33060(16) 0.00104(7) -0.0898(3)
C3 C 0.26434(16) 0.02661(6) 0.0427(3)
C4 C 0.27310(15) 0.08274(6) 0.0278(2)
C5 C 0.36608(14) 0.09703(6) 0.1379(2)
C6 C 0.35405(16) 0.06264(6) 0.2922(2)
C7 C 0.30828(19) 0.01465(7) 0.2228(3)
C8 C 0.27952(16) 0.09078(7) 0.4072(2)
C9 C 0.30589(14) 0.14536(7) 0.3824(2)
C10 C 0.36478(14) 0.14965(6) 0.2102(2)
C11 C 0.31818(16) 0.18777(6) 0.0893(2)
C12 C 0.47330(14) 0.16646(6) 0.2638(2)
C13 C 0.47918(14) 0.17520(6) 0.4294(2)
C14 C 0.38182(15) 0.16333(6) 0.5155(2)
C15 C 0.56380(15) 0.17559(7) 0.1508(2)
C16 C 0.66445(15) 0.18369(6) 0.2537(2)
C17 C 0.64491(15) 0.21481(7) 0.4134(2)
C18 C 0.61077(17) 0.26688(7) 0.3727(3)
C19 C 0.73803(15) 0.21503(7) 0.5363(3)
C20 C 0.74954(15) 0.20539(7) 0.1378(3)
C21 C 0.80946(16) 0.16643(8) 0.0356(2)
C22 C 0.90035(16) 0.14693(8) 0.1359(3)
C23 C 0.99576(18) 0.17915(9) 0.1317(3)
C24 C 0.89113(17) 0.10697(7) 0.2320(3)
C25 C 0.96443(18) 0.08978(8) 0.3668(3)
C26 C 0.92056(17) 0.09965(7) 0.5476(3)
C27 C 1.0113(2) 0.09614(9) 0.6748(3)
C28 C 0.8378(2) 0.06140(8) 0.5925(3)
C29 C 0.87632(15) 0.15095(7) 0.5451(2)
C30 C 0.77907(15) 0.16464(7) 0.5716(2)
O1 O 0.33866(13) -0.04673(5) -0.0634(2)
O2 O 0.36932(14) 0.02109(5) -0.2118(2)
O3 O 0.36521(11) 0.16581(5) 0.66712(16)
O4 O 0.56235(10) 0.19232(5) 0.51749(16)
O5 O 0.53008(14) 0.08880(6) 0.7244(2)
loop_
_geom_bond_atom_site_label_1
_geom_bond_atom_site_label_2
_geom_bond_site_symmetry_1
_geom_bond_site_symmetry_2
H1 O1 1_555 1_555
H2 C1 1_555 1_555
H3 C1 1_555 1_555
H4 C1 1_555 1_555
H5 C16 1_555 1_555
H6 C19 1_555 1_555
H7 C19 1_555 1_555
H8 C18 1_555 1_555
H9 C18 1_555 1_555
H10 C18 1_555 1_555
H11 C25 1_555 1_555
H12 C25 1_555 1_555
H13 C23 1_555 1_555
H14 C23 1_555 1_555
H15 C23 1_555 1_555
H16 C28 1_555 1_555
H17 C28 1_555 1_555
H18 C28 1_555 1_555
H19 C7 1_555 1_555
H20 C7 1_555 1_555
H21 C27 1_555 1_555
H22 C27 1_555 1_555
H23 C27 1_555 1_555
H24 C5 1_555 1_555
H25 C29 1_555 1_555
H26 C8 1_555 1_555
H27 C8 1_555 1_555
H28 C30 1_555 1_555
H29 C6 1_555 1_555
H30 C24 1_555 1_555
H31 C15 1_555 1_555
H32 C15 1_555 1_555
H33 C9 1_555 1_555
H34 C20 1_555 1_555
H35 C20 1_555 1_555
H36 C4 1_555 1_555
H37 C4 1_555 1_555
H38 C11 1_555 1_555
H39 C11 1_555 1_555
H40 C11 1_555 1_555
H41 C21 1_555 1_555
H42 C21 1_555 1_555
C1 C3 1_555 1_555
C2 C3 1_555 1_555
C3 C4 1_555 1_555
C4 C5 1_555 1_555
C5 C6 1_555 1_555
C6 C7 1_555 1_555
C7 C3 1_555 1_555
C8 C6 1_555 1_555
C9 C8 1_555 1_555
C10 C5 1_555 1_555
C11 C10 1_555 1_555
C12 C10 1_555 1_555
C13 C12 1_555 1_555
C14 C9 1_555 1_555
C15 C12 1_555 1_555
C16 C15 1_555 1_555
C17 C16 1_555 1_555
C18 C17 1_555 1_555
C19 C17 1_555 1_555
C20 C16 1_555 1_555
C21 C20 1_555 1_555
C22 C21 1_555 1_555
C23 C22 1_555 1_555
C24 C22 1_555 1_555
C25 C24 1_555 1_555
C26 C25 1_555 1_555
C27 C26 1_555 1_555
C28 C26 1_555 1_555
C29 C26 1_555 1_555
C30 C19 1_555 1_555
O1 C2 1_555 1_555
O2 C2 1_555 1_555
O3 C14 1_555 1_555
O4 C13 1_555 1_555
C9 C10 1_555 1_555
C13 C14 1_555 1_555
C17 O4 1_555 1_555
C29 C30 1_555 1_555

#END
