
#######################################################################
#
#                 Cambridge Crystallographic Data Centre
#                                CCDC 
#
#######################################################################
#
# If this CIF has been generated from an entry in the Cambridge 
# Structural Database, then it will include bibliographic, chemical, 
# crystal, experimental, refinement or atomic coordinate data resulting 
# from the CCDC's data processing and validation procedures.
#
#######################################################################

data_COTZAN06
_chemical_name_common            acetaminophen
_chemical_formula_moiety         'C8 H9 N1 O2'
_chemical_name_systematic        N-(4-hydroxyphenyl)acetamide
_symmetry_cell_setting           monoclinic
_symmetry_space_group_name_H-M   'P 21/n'
_symmetry_Int_Tables_number      14
_space_group_name_Hall           '-P 2yn'
loop_
_symmetry_equiv_pos_site_id
_symmetry_equiv_pos_as_xyz
1 x,y,z
2 1/2-x,1/2+y,1/2-z
3 -x,-y,-z
4 1/2+x,1/2-y,1/2+z
_cell_length_a                   7.1250(2)
_cell_length_b                   9.2200(2)
_cell_length_c                   11.6000(2)
_cell_angle_alpha                90
_cell_angle_beta                 98.130(10)
_cell_angle_gamma                90
_cell_volume                     754.374
_exptl_crystal_colour            colorless
_exptl_crystal_description       'rectangular plate'
_cell_formula_units_Z            4
_exptl_crystal_recrystallization_method acetone
loop_
_atom_site_label
_atom_site_type_symbol
_atom_site_fract_x
_atom_site_fract_y
_atom_site_fract_z
C1 C 0.1336(4) 0.1683(4) 1.1290(3)
C2 C -0.0390(4) 0.1708(4) 1.0532(3)
C3 C -0.0605(5) 0.2659(4) 0.9590(3)
C4 C 0.0876(4) 0.3585(4) 0.9377(3)
C5 C 0.2590(4) 0.3576(4) 1.0150(3)
C6 C 0.2804(5) 0.2626(4) 1.1097(3)
C7 C 0.1789(4) 0.5167(3) 0.7803(3)
C8 C 0.0928(5) 0.6050(4) 0.6762(3)
O1 O 0.1638(5) 0.0741(4) 1.2220(4)
O2 O 0.3536(5) 0.5076(4) 0.8090(4)
N1 N 0.0519(3) 0.4505(3) 0.8391(2)
H1 H 0.0426(11) 0.0325(8) 1.2421(8)
H2 H -0.1534(11) 0.0980(8) 1.0679(8)
H3 H -0.1949(10) 0.2675(9) 0.8991(8)
H4 H -0.0884(9) 0.4593(8) 0.8036(7)
H5 H 0.3730(10) 0.4308(9) 1.0021(8)
H6 H 0.4126(10) 0.2634(9) 1.1708(7)
H7 H 0.1071(15) 0.7197(9) 0.6967(10)
H8 H -0.0543(11) 0.5821(11) 0.6514(10)
H9 H 0.1711(14) 0.5856(11) 0.6028(8)
loop_
_geom_bond_atom_site_label_1
_geom_bond_atom_site_label_2
_geom_bond_site_symmetry_1
_geom_bond_site_symmetry_2
C1 C2 1_555 1_555
C2 C3 1_555 1_555
C3 C4 1_555 1_555
C4 C5 1_555 1_555
C5 C6 1_555 1_555
C6 C1 1_555 1_555
C7 C8 1_555 1_555
C8 H7 1_555 1_555
O1 C1 1_555 1_555
O2 C7 1_555 1_555
N1 C4 1_555 1_555
H1 O1 1_555 1_555
H2 C2 1_555 1_555
H3 C3 1_555 1_555
H4 N1 1_555 1_555
H5 C5 1_555 1_555
H6 C6 1_555 1_555
H8 C8 1_555 1_555
H9 C8 1_555 1_555
C7 N1 1_555 1_555

#END
