
#######################################################################
#
#                 Cambridge Crystallographic Data Centre
#                                CCDC 
#
#######################################################################
#
# If this CIF has been generated from an entry in the Cambridge 
# Structural Database, then it will include bibliographic, chemical, 
# crystal, experimental, refinement or atomic coordinate data resulting 
# from the CCDC's data processing and validation procedures.
#
#######################################################################

data_COVCAT
_chemical_formula_moiety         'C12 H8 Br1 Cl1 N4'
_chemical_name_systematic        
8-Bromo-7-chloro-5-methyl-3-phenyl[1,2,4]triazolo[4,3-c]pyrimidine
_symmetry_cell_setting           monoclinic
_symmetry_space_group_name_H-M   'P 21/c'
_symmetry_Int_Tables_number      14
_space_group_name_Hall           '-P 2ybc'
loop_
_symmetry_equiv_pos_site_id
_symmetry_equiv_pos_as_xyz
1 x,y,z
2 -x,1/2+y,1/2-z
3 -x,-y,-z
4 x,1/2-y,1/2+z
_cell_length_a                   6.078(4)
_cell_length_b                   8.436(5)
_cell_length_c                   24.789(15)
_cell_angle_alpha                90
_cell_angle_beta                 93.848(7)
_cell_angle_gamma                90
_cell_volume                     1268.17
_exptl_crystal_colour            colorless
_exptl_crystal_description       sheet
_cell_formula_units_Z            4
loop_
_atom_site_label
_atom_site_type_symbol
_atom_site_fract_x
_atom_site_fract_y
_atom_site_fract_z
Br1 Br 1.33132(11) 0.09221(8) 1.05433(3)
Cl1 Cl 0.9041(3) 0.2927(3) 1.10248(7)
C1 C 1.1083(10) 0.1996(7) 1.0144(2)
C2 C 0.9344(10) 0.2817(8) 1.0342(3)
C3 C 0.7813(10) 0.3589(7) 0.9507(3)
C4 C 0.9971(10) 0.2448(7) 0.8731(3)
C5 C 1.1132(9) 0.1968(7) 0.9575(3)
C6 C 0.6128(11) 0.4472(8) 0.9164(3)
H1 H 0.5210 0.3735 0.8958
H2 H 0.6849 0.5161 0.8923
H3 H 0.5236 0.5092 0.9390
C7 C 0.8719(10) 0.2863(8) 0.8226(2)
C8 C 0.6660(12) 0.2217(10) 0.8080(3)
H4 H 0.5962 0.1588 0.8325
C9 C 0.5642(14) 0.2505(12) 0.7572(4)
H5 H 0.4268 0.2063 0.7477
C10 C 0.6651(18) 0.3441(12) 0.7209(3)
H6 H 0.5964 0.3635 0.6869
C11 C 0.8693(18) 0.4092(11) 0.7352(4)
H7 H 0.9379 0.4723 0.7105
C12 C 0.9714(14) 0.3818(9) 0.7849(3)
H8 H 1.1085 0.4271 0.7940
N1 N 0.7803(9) 0.3608(7) 1.0024(2)
N2 N 0.9452(7) 0.2719(6) 0.9260(2)
N3 N 1.1792(9) 0.1617(7) 0.8740(2)
N4 N 1.2562(9) 0.1299(7) 0.9265(3)
loop_
_geom_bond_atom_site_label_1
_geom_bond_atom_site_label_2
_geom_bond_site_symmetry_1
_geom_bond_site_symmetry_2
Br1 C1 1_555 1_555
Cl1 C2 1_555 1_555
C1 C2 1_555 1_555
C2 N1 1_555 1_555
C3 C6 1_555 1_555
C4 C7 1_555 1_555
C5 C1 1_555 1_555
C6 H1 1_555 1_555
H2 C6 1_555 1_555
H3 C6 1_555 1_555
C7 C8 1_555 1_555
C8 H4 1_555 1_555
C9 C8 1_555 1_555
H5 C9 1_555 1_555
C10 C9 1_555 1_555
H6 C10 1_555 1_555
C11 C10 1_555 1_555
H7 C11 1_555 1_555
C12 C7 1_555 1_555
H8 C12 1_555 1_555
N1 C3 1_555 1_555
N2 C3 1_555 1_555
N3 C4 1_555 1_555
N4 C5 1_555 1_555
C4 N2 1_555 1_555
C5 N2 1_555 1_555
C11 C12 1_555 1_555
N3 N4 1_555 1_555

#END
