
#######################################################################
#
#                 Cambridge Crystallographic Data Centre
#                                CCDC 
#
#######################################################################
#
# If this CIF has been generated from an entry in the Cambridge 
# Structural Database, then it will include bibliographic, chemical, 
# crystal, experimental, refinement or atomic coordinate data resulting 
# from the CCDC's data processing and validation procedures.
#
#######################################################################

data_COVGEB
_chemical_formula_moiety         'C4 H24 Ca2 N14 O12 2+,2(Cl1 1-)'
_chemical_name_systematic        
'bis(\m-hydrazinecarboxamide)-diaqua-bis(hydrazinecarboxamide)-bis(nitrato)-di-calcium dichloride'
_symmetry_cell_setting           monoclinic
_symmetry_space_group_name_H-M   'P 21/n'
_symmetry_Int_Tables_number      14
_space_group_name_Hall           '-P 2yn'
loop_
_symmetry_equiv_pos_site_id
_symmetry_equiv_pos_as_xyz
1 x,y,z
2 1/2-x,1/2+y,1/2-z
3 -x,-y,-z
4 1/2+x,1/2-y,1/2+z
_cell_length_a                   8.194(2)
_cell_length_b                   11.411(3)
_cell_length_c                   12.541(3)
_cell_angle_alpha                90
_cell_angle_beta                 99.915(3)
_cell_angle_gamma                90
_cell_volume                     1155.09
_exptl_crystal_colour            colorless
_exptl_crystal_description       prism
_cell_formula_units_Z            2
loop_
_atom_site_label
_atom_site_type_symbol
_atom_site_fract_x
_atom_site_fract_y
_atom_site_fract_z
Ca1 Ca 0.58424(4) 0.35382(3) 0.45336(2)
O1 O 0.65591(13) 0.56116(9) 0.48601(9)
O2 O 0.82831(14) 0.33777(10) 0.37864(10)
O3 O 0.51781(14) 0.47350(9) 0.28227(9)
O4 O 0.47765(15) 0.28789(10) 0.25693(10)
O5 O 0.50500(15) 0.40096(11) 0.12103(9)
O6 O 0.72504(16) 0.35095(11) 0.63433(10)
N1 N 0.62743(18) 0.79526(12) 0.50146(13)
N2 N 0.75044(18) 0.74244(12) 0.45188(12)
N3 N 0.87440(18) 0.58123(14) 0.39633(14)
N4 N 0.70033(18) 0.14167(12) 0.44522(12)
N5 N 0.83252(18) 0.14006(12) 0.38642(12)
N6 N 1.01849(19) 0.23687(15) 0.30254(13)
N7 N 0.49966(16) 0.38798(11) 0.21911(11)
C1 C 0.75666(18) 0.62482(13) 0.44619(13)
C2 C 0.88994(19) 0.24232(13) 0.35592(13)
H1 H 0.673(3) 0.834(2) 0.5629(19)
H2 H 0.572(3) 0.846(2) 0.4509(18)
H3 H 0.824(3) 0.786(2) 0.4313(18)
H4 H 0.881(3) 0.505(2) 0.3883(19)
H5 H 0.932(3) 0.627(2) 0.3622(19)
H6 H 0.735(3) 0.1083(18) 0.5078(19)
H7 H 0.622(3) 0.094(2) 0.4114(19)
H8 H 0.878(3) 0.0756(19) 0.3778(17)
H9 H 1.043(3) 0.297(2) 0.2764(17)
H10 H 1.040(3) 0.174(2) 0.2757(18)
H11 H 0.784(3) 0.302(2) 0.665(2)
H12 H 0.757(3) 0.411(2) 0.676(2)
Ca1B Ca 0.41576(4) 0.64618(3) 0.54664(2)
O1B O 0.34409(13) 0.43884(9) 0.51399(9)
O2B O 0.17169(14) 0.66223(10) 0.62136(10)
O3B O 0.48219(14) 0.52650(9) 0.71773(9)
O4B O 0.52235(15) 0.71211(10) 0.74307(10)
O5B O 0.49500(15) 0.59904(11) 0.87897(9)
O6B O 0.27496(16) 0.64905(11) 0.36567(10)
N1B N 0.37257(18) 0.20474(12) 0.49854(13)
N2B N 0.24956(18) 0.25756(12) 0.54812(12)
N3B N 0.12560(18) 0.41877(14) 0.60367(14)
N4B N 0.29967(18) 0.85833(12) 0.55478(12)
N5B N 0.16748(18) 0.85994(12) 0.61358(12)
N6B N -0.01849(19) 0.76313(15) 0.69746(13)
N7B N 0.50034(16) 0.61202(11) 0.78089(11)
C1B C 0.24334(18) 0.37518(13) 0.55381(13)
C2B C 0.11006(19) 0.75768(13) 0.64408(13)
H1B H 0.327(3) 0.166(2) 0.4371(19)
H2B H 0.428(3) 0.154(2) 0.5491(18)
H3B H 0.176(3) 0.214(2) 0.5687(18)
H4B H 0.119(3) 0.495(2) 0.6117(19)
H5B H 0.068(3) 0.373(2) 0.6378(19)
H6B H 0.265(3) 0.8917(18) 0.4922(19)
H7B H 0.378(3) 0.906(2) 0.5886(19)
H8B H 0.122(3) 0.9244(19) 0.6222(17)
H9B H -0.043(3) 0.703(2) 0.7236(17)
H10B H -0.040(3) 0.826(2) 0.7243(18)
H11B H 0.216(3) 0.698(2) 0.335(2)
H12B H 0.243(3) 0.589(2) 0.324(2)
Cl1 Cl 0.88795(5) 0.52325(3) 0.82108(3)
loop_
_geom_bond_atom_site_label_1
_geom_bond_atom_site_label_2
_geom_bond_site_symmetry_1
_geom_bond_site_symmetry_2
Ca1 O1 1_555 1_555
O1 C1 1_555 1_555
O2 Ca1 1_555 1_555
O3 Ca1 1_555 1_555
O4 Ca1 1_555 1_555
O5 N7 1_555 1_555
O6 Ca1 1_555 1_555
N1 N2 1_555 1_555
N2 C1 1_555 1_555
N3 C1 1_555 1_555
N4 Ca1 1_555 1_555
N5 N4 1_555 1_555
N6 C2 1_555 1_555
N7 O3 1_555 1_555
C2 O2 1_555 1_555
H1 N1 1_555 1_555
H2 N1 1_555 1_555
H3 N2 1_555 1_555
H4 N3 1_555 1_555
H5 N3 1_555 1_555
H6 N4 1_555 1_555
H7 N4 1_555 1_555
H8 N5 1_555 1_555
H9 N6 1_555 1_555
H10 N6 1_555 1_555
H11 O6 1_555 1_555
H12 O6 1_555 1_555
Ca1B O1 1_555 1_555
O1B Ca1 1_555 1_555
O2B Ca1B 1_555 1_555
O3B Ca1B 1_555 1_555
O4B Ca1B 1_555 1_555
O5B N7B 1_555 1_555
O6B Ca1B 1_555 1_555
N1B Ca1 1_555 1_555
N2B N1B 1_555 1_555
N3B C1B 1_555 1_555
N4B Ca1B 1_555 1_555
N5B N4B 1_555 1_555
N6B C2B 1_555 1_555
N7B O3B 1_555 1_555
C1B O1B 1_555 1_555
C2B O2B 1_555 1_555
H1B N1B 1_555 1_555
H2B N1B 1_555 1_555
H3B N2B 1_555 1_555
H4B N3B 1_555 1_555
H5B N3B 1_555 1_555
H6B N4B 1_555 1_555
H7B N4B 1_555 1_555
H8B N5B 1_555 1_555
H9B N6B 1_555 1_555
H10B N6B 1_555 1_555
H11B O6B 1_555 1_555
H12B O6B 1_555 1_555
O4 N7 1_555 1_555
N1 Ca1B 1_555 1_555
N5 C2 1_555 1_555
Ca1B O1B 1_555 1_555
O4B N7B 1_555 1_555
N2B C1B 1_555 1_555
N5B C2B 1_555 1_555

#END
