
#######################################################################
#
#                 Cambridge Crystallographic Data Centre
#                                CCDC 
#
#######################################################################
#
# If this CIF has been generated from an entry in the Cambridge 
# Structural Database, then it will include bibliographic, chemical, 
# crystal, experimental, refinement or atomic coordinate data resulting 
# from the CCDC's data processing and validation procedures.
#
#######################################################################

data_COVTOY
_chemical_formula_moiety         'C32 H31 N7 O2,0.25(H2 O1)'
_chemical_name_systematic        
'4-ethoxy-N-(4-ethoxyphenyl)-N-(4-(tri-1H-pyrazol-1-ylmethyl)phenyl)aniline hydrate'
_symmetry_cell_setting           triclinic
_symmetry_space_group_name_H-M   'P -1'
_symmetry_Int_Tables_number      2
_space_group_name_Hall           '-P 1'
loop_
_symmetry_equiv_pos_site_id
_symmetry_equiv_pos_as_xyz
1 x,y,z
2 -x,-y,-z
_cell_length_a                   11.8273(14)
_cell_length_b                   16.0000(19)
_cell_length_c                   16.5277(19)
_cell_angle_alpha                108.5100(10)
_cell_angle_beta                 90.5630(10)
_cell_angle_gamma                101.7340(10)
_cell_volume                     2894.54
_cell_formula_units_Z            4
loop_
_atom_site_label
_atom_site_type_symbol
_atom_site_fract_x
_atom_site_fract_y
_atom_site_fract_z
C1 C 0.4620(3) 0.3724(3) -0.1159(2)
H1 H 0.4092 0.4009 -0.0787
H2 H 0.4193 0.3275 -0.1659
H3 H 0.5148 0.4169 -0.1326
C2 C 0.5276(3) 0.3290(2) -0.0706(2)
H4 H 0.4748 0.2821 -0.0559
H5 H 0.5824 0.3014 -0.1074
C3 C 0.6385(2) 0.3663(2) 0.06326(18)
C4 C 0.6708(3) 0.4298(2) 0.1432(2)
H6 H 0.6586 0.4879 0.1540
C5 C 0.7210(3) 0.4078(2) 0.2074(2)
H7 H 0.7427 0.4512 0.2609
C6 C 0.7393(2) 0.3222(2) 0.19268(18)
C7 C 0.7094(2) 0.2598(2) 0.11243(19)
H8 H 0.7228 0.2021 0.1015
C8 C 0.6595(2) 0.2810(2) 0.04740(19)
H9 H 0.6403 0.2381 -0.0066
C9 C 0.6063(3) 0.3019(3) 0.3349(2)
H10 H 0.5640 0.2814 0.2820
C10 C 0.7251(2) 0.3132(2) 0.33808(18)
C11 C 0.7859(3) 0.3414(2) 0.41767(19)
H11 H 0.8661 0.3493 0.4215
C12 C 0.7282(3) 0.3578(2) 0.49100(19)
H12 H 0.7700 0.3754 0.5438
C13 C 0.6099(3) 0.3487(2) 0.4877(2)
C14 C 0.5487(3) 0.3203(3) 0.4087(2)
H13 H 0.4686 0.3135 0.4051
C15 C 0.4413(4) 0.3718(4) 0.5648(3)
H14 H 0.3949 0.3118 0.5358
H15 H 0.4262 0.4114 0.5340
C16 C 0.4092(5) 0.4043(4) 0.6521(3)
H16 H 0.4405 0.3741 0.6859
H17 H 0.3263 0.3920 0.6522
H18 H 0.4397 0.4682 0.6758
C17 C 0.8722(2) 0.24945(19) 0.24792(18)
C18 C 0.9607(3) 0.2671(2) 0.19642(19)
H19 H 0.9619 0.3120 0.1717
C19 C 1.0462(2) 0.2183(2) 0.1821(2)
H20 H 1.1040 0.2301 0.1469
C20 C 0.9613(3) 0.1354(2) 0.2714(2)
H21 H 0.9624 0.0922 0.2978
C21 C 0.8735(3) 0.1824(2) 0.2848(2)
H22 H 0.8147 0.1691 0.3186
C22 C 1.0475(2) 0.15184(19) 0.21919(19)
C23 C 1.1394(3) 0.0946(2) 0.2014(2)
C24 C 1.1606(3) -0.0540(2) 0.1097(3)
H23 H 1.2391 -0.0457 0.1249
C25 C 1.0947(5) -0.1260(3) 0.0579(3)
H24 H 1.1192 -0.1782 0.0279
C26 C 0.9834(5) -0.1145(3) 0.0533(3)
H25 H 0.9197 -0.1573 0.0217
C27 C 1.3777(4) 0.2411(4) 0.1514(4)
H26 H 1.4394 0.2908 0.1637
C28 C 1.3153(4) 0.2128(3) 0.2095(3)
H27 H 1.3234 0.2406 0.2685
C29 C 1.3355(4) 0.1852(4) 0.0730(4)
H28 H 1.3620 0.1897 0.0215
C30 C 1.1401(4) 0.0030(3) 0.2982(3)
H29 H 1.1017 -0.0525 0.2604
C31 C 1.1702(5) 0.0220(4) 0.3811(3)
H30 H 1.1572 -0.0186 0.4115
C32 C 1.2226(5) 0.1102(4) 0.4133(3)
H31 H 1.2541 0.1400 0.4693
N1 N 0.7842(2) 0.29881(19) 0.26164(16)
N2 N 1.0939(2) 0.00692(19) 0.13775(19)
N3 N 0.9837(3) -0.0284(2) 0.1038(2)
N4 N 1.1759(2) 0.0797(2) 0.28019(19)
N5 N 1.2223(5) 0.1486(3) 0.3513(3)
N6 N 1.2404(2) 0.1377(2) 0.1658(2)
N7 N 1.2487(4) 0.1221(3) 0.0823(3)
O1 O 0.5872(2) 0.39442(15) 0.00455(14)
O2 O 0.5617(2) 0.3690(2) 0.56470(15)
C33 C 1.2857(4) 0.4564(3) 1.1864(3)
H32 H 1.2683 0.5143 1.2142
H33 H 1.3678 0.4612 1.1922
H34 H 1.2469 0.4137 1.2123
C34 C 1.2454(3) 0.4253(3) 1.0943(2)
H35 H 1.2802 0.4698 1.0683
H36 H 1.2675 0.3689 1.0647
C35 C 1.0669(3) 0.3919(2) 1.00877(19)
C36 C 1.1192(3) 0.3726(3) 0.9323(2)
H37 H 1.1981 0.3733 0.9326
C37 C 1.0553(3) 0.3522(2) 0.8558(2)
H38 H 1.0915 0.3390 0.8050
C38 C 0.9384(2) 0.35116(19) 0.85339(18)
C39 C 0.8875(3) 0.37239(19) 0.93044(19)
H39 H 0.8092 0.3737 0.9303
C40 C 0.9502(3) 0.3915(2) 1.00675(19)
H40 H 0.9138 0.4042 1.0575
C41 C 0.9258(2) 0.3463(2) 0.70347(19)
C42 C 0.9731(3) 0.4341(2) 0.7072(2)
H41 H 0.9664 0.4817 0.7556
C43 C 0.9949(3) 0.2957(3) 0.5642(2)
H42 H 1.0027 0.2489 0.5155
C44 C 1.0297(3) 0.4522(3) 0.6408(2)
H43 H 1.0600 0.5117 0.6443
C45 C 0.9356(3) 0.2768(2) 0.6316(2)
H44 H 0.9031 0.2174 0.6275
C46 C 1.0417(3) 0.3846(3) 0.5706(2)
C47 C 1.1345(5) 0.3490(4) 0.4430(4)
H45 H 1.0675 0.3086 0.4068
H46 H 1.1756 0.3138 0.4661
C48 C 1.2144(17) 0.3977(13) 0.3915(8)
H47 H 1.1737 0.4342 0.3711
H48 H 1.2376 0.3539 0.3437
H49 H 1.2818 0.4355 0.4275
O3 O 1.1002(4) 0.4163(3) 0.5095(2)
C49 C 0.7626(2) 0.26639(18) 0.75887(18)
C50 C 0.7440(3) 0.1972(2) 0.7944(2)
H50 H 0.8037 0.1909 0.8274
C51 C 0.6377(3) 0.1378(2) 0.7811(2)
H51 H 0.6268 0.0922 0.8057
C52 C 0.6735(3) 0.27243(19) 0.70779(18)
H52 H 0.6851 0.3171 0.6821
C53 C 0.5674(3) 0.21295(19) 0.69451(18)
H53 H 0.5084 0.2182 0.6601
C54 C 0.5473(2) 0.14509(18) 0.73199(18)
C55 C 0.4318(3) 0.0766(2) 0.71667(19)
C56 C 0.2369(4) 0.1076(3) 0.7625(3)
H54 H 0.2274 0.0813 0.8054
C57 C 0.2109(4) 0.1741(3) 0.6717(4)
H55 H 0.1764 0.2037 0.6415
C58 C 0.1606(4) 0.1444(4) 0.7340(4)
H56 H 0.0876 0.1490 0.7528
C59 C 0.4395(3) -0.0530(2) 0.7717(3)
H57 H 0.4419 -0.0980 0.7201
C60 C 0.4503(4) -0.0593(3) 0.8511(3)
H58 H 0.4622 -0.1088 0.8654
C61 C 0.4398(5) 0.0236(4) 0.9060(3)
H59 H 0.4419 0.0377 0.9652
C62 C 0.3548(4) -0.1160(3) 0.5374(3)
H60 H 0.3013 -0.1642 0.5004
C63 C 0.4717(4) -0.1044(3) 0.5320(3)
H61 H 0.5112 -0.1425 0.4938
C64 C 0.3258(3) -0.0523(2) 0.5999(2)
H62 H 0.2518 -0.0480 0.6167
N8 N 0.8702(2) 0.32947(18) 0.77480(16)
N9 N 0.4266(2) 0.00588(17) 0.63447(17)
N10 N 0.5190(3) -0.0235(2) 0.5960(2)
N11 N 0.4246(2) 0.03162(18) 0.78179(18)
N12 N 0.4265(3) 0.0815(2) 0.8656(2)
N13 N 0.3141(3) 0.1559(3) 0.6593(3)
N14 N 0.3299(2) 0.11541(18) 0.71779(19)
O4 O 1.1229(2) 0.41310(17) 1.08813(14)
O6 O 0.0830(7) 0.9337(6) 0.5368(5)
H68 H 0.0300 0.9406 0.5711
H69 H 0.1248 0.9851 0.5409
C65? C 1.1566(14) 0.4263(12) 0.4733(11)
H63? H 1.2261 0.4498 0.5123
H64? H 1.1113 0.4723 0.4847
C66? C 1.189(5) 0.402(3) 0.381(2)
H65? H 1.2163 0.3470 0.3657
H66? H 1.2496 0.4499 0.3754
H67? H 1.1227 0.3948 0.3436
O5? O 1.0907(11) 0.3468(9) 0.4862(7)
loop_
_geom_bond_atom_site_label_1
_geom_bond_atom_site_label_2
_geom_bond_site_symmetry_1
_geom_bond_site_symmetry_2
C1 H1 1_555 1_555
H2 C1 1_555 1_555
H3 C1 1_555 1_555
C2 C1 1_555 1_555
H4 C2 1_555 1_555
H5 C2 1_555 1_555
C3 C4 1_555 1_555
C4 H6 1_555 1_555
C5 C4 1_555 1_555
H7 C5 1_555 1_555
C6 C5 1_555 1_555
C7 C6 1_555 1_555
H8 C7 1_555 1_555
C8 C3 1_555 1_555
H9 C8 1_555 1_555
C9 H10 1_555 1_555
C10 C9 1_555 1_555
C11 C10 1_555 1_555
H11 C11 1_555 1_555
C12 C11 1_555 1_555
H12 C12 1_555 1_555
C13 C12 1_555 1_555
C14 C9 1_555 1_555
H13 C14 1_555 1_555
C15 H14 1_555 1_555
H15 C15 1_555 1_555
C16 C15 1_555 1_555
H16 C16 1_555 1_555
H17 C16 1_555 1_555
H18 C16 1_555 1_555
C17 C18 1_555 1_555
C18 H19 1_555 1_555
C19 C18 1_555 1_555
H20 C19 1_555 1_555
C20 H21 1_555 1_555
C21 C17 1_555 1_555
H22 C21 1_555 1_555
C22 C19 1_555 1_555
C23 C22 1_555 1_555
C24 H23 1_555 1_555
C25 C24 1_555 1_555
H24 C25 1_555 1_555
C26 C25 1_555 1_555
H25 C26 1_555 1_555
C27 H26 1_555 1_555
C28 C27 1_555 1_555
H27 C28 1_555 1_555
C29 C27 1_555 1_555
H28 C29 1_555 1_555
C30 H29 1_555 1_555
C31 C30 1_555 1_555
H30 C31 1_555 1_555
C32 C31 1_555 1_555
H31 C32 1_555 1_555
N1 C6 1_555 1_555
N2 C23 1_555 1_555
N3 C26 1_555 1_555
N4 C23 1_555 1_555
N5 C32 1_555 1_555
N6 C23 1_555 1_555
N7 C29 1_555 1_555
O1 C2 1_555 1_555
O2 C13 1_555 1_555
C33 H32 1_555 1_555
H33 C33 1_555 1_555
H34 C33 1_555 1_555
C34 C33 1_555 1_555
H35 C34 1_555 1_555
H36 C34 1_555 1_555
C35 C36 1_555 1_555
C36 H37 1_555 1_555
C37 C36 1_555 1_555
H38 C37 1_555 1_555
C38 C37 1_555 1_555
C39 C38 1_555 1_555
H39 C39 1_555 1_555
C40 C35 1_555 1_555
H40 C40 1_555 1_555
C41 C42 1_555 1_555
C42 H41 1_555 1_555
C43 H42 1_555 1_555
C44 C42 1_555 1_555
H43 C44 1_555 1_555
C45 C41 1_555 1_555
H44 C45 1_555 1_555
C46 C43 1_555 1_555
C47 H45 1_555 1_555
H46 C47 1_555 1_555
C48 C47 1_555 1_555
H47 C48 1_555 1_555
H48 C48 1_555 1_555
H49 C48 1_555 1_555
O3 C46 1_555 1_555
C49 C50 1_555 1_555
C50 H50 1_555 1_555
C51 C50 1_555 1_555
H51 C51 1_555 1_555
C52 C49 1_555 1_555
H52 C52 1_555 1_555
C53 C52 1_555 1_555
H53 C53 1_555 1_555
C54 C51 1_555 1_555
C55 C54 1_555 1_555
C56 H54 1_555 1_555
C57 H55 1_555 1_555
C58 C56 1_555 1_555
H56 C58 1_555 1_555
C59 H57 1_555 1_555
C60 C59 1_555 1_555
H58 C60 1_555 1_555
C61 C60 1_555 1_555
H59 C61 1_555 1_555
C62 H60 1_555 1_555
C63 C62 1_555 1_555
H61 C63 1_555 1_555
C64 C62 1_555 1_555
H62 C64 1_555 1_555
N8 C38 1_555 1_555
N9 C55 1_555 1_555
N10 C63 1_555 1_555
N11 C55 1_555 1_555
N12 C61 1_555 1_555
N13 C57 1_555 1_555
N14 C55 1_555 1_555
O4 C34 1_555 1_555
O6 H68 1_555 1_555
H69 O6 1_555 1_555
C3 O1 1_555 1_555
C7 C8 1_555 1_555
C10 N1 1_555 1_555
C13 C14 1_555 1_555
C15 O2 1_555 1_555
C17 N1 1_555 1_555
C20 C21 1_555 1_555
C20 C22 1_555 1_555
C24 N2 1_555 1_555
C28 N6 1_555 1_555
C30 N4 1_555 1_555
N2 N3 1_555 1_555
N4 N5 1_555 1_555
N6 N7 1_555 1_555
C35 O4 1_555 1_555
C39 C40 1_555 1_555
C41 N8 1_555 1_555
C43 C45 1_555 1_555
C44 C46 1_555 1_555
C47 O3 1_555 1_555
C49 N8 1_555 1_555
C53 C54 1_555 1_555
C56 N14 1_555 1_555
C57 C58 1_555 1_555
C59 N11 1_555 1_555
C64 N9 1_555 1_555
N9 N10 1_555 1_555
N11 N12 1_555 1_555
N13 N14 1_555 1_555

#END
