
#######################################################################
#
#                 Cambridge Crystallographic Data Centre
#                                CCDC 
#
#######################################################################
#
# If this CIF has been generated from an entry in the Cambridge 
# Structural Database, then it will include bibliographic, chemical, 
# crystal, experimental, refinement or atomic coordinate data resulting 
# from the CCDC's data processing and validation procedures.
#
#######################################################################

data_COVWAN
_chemical_formula_moiety         'C12 H16 O4'
_chemical_name_systematic        
6-(hydroxy(2-propionylcyclopropyl)methyl)-3,6-dihydro-2H-pyran-2-one
_symmetry_cell_setting           orthorhombic
_symmetry_space_group_name_H-M   'P 21 21 21'
_symmetry_Int_Tables_number      19
_space_group_name_Hall           'P 2ac 2ab'
loop_
_symmetry_equiv_pos_site_id
_symmetry_equiv_pos_as_xyz
1 x,y,z
2 1/2-x,-y,1/2+z
3 -x,1/2+y,1/2-z
4 1/2+x,1/2-y,-z
_cell_length_a                   5.1114(5)
_cell_length_b                   10.1071(11)
_cell_length_c                   22.893(2)
_cell_angle_alpha                90
_cell_angle_beta                 90
_cell_angle_gamma                90
_cell_volume                     1182.69
_exptl_crystal_colour            'pale yellow'
_exptl_crystal_description       Columnar
_cell_formula_units_Z            4
loop_
_atom_site_label
_atom_site_type_symbol
_atom_site_fract_x
_atom_site_fract_y
_atom_site_fract_z
O1 O 1.3228(3) 1.72043(19) 1.77159(8)
O2 O 1.7633(3) 1.85416(18) 1.73299(8)
H1 H 1.8963 1.8476 1.7528
O3 O 1.2919(4) 1.8693(3) 1.55074(10)
O4 O 1.1544(4) 1.8826(2) 1.82151(9)
C1 C 1.3301(6) 1.8026(3) 1.81731(13)
C2 C 1.7075(6) 1.6708(3) 1.85432(15)
H2 H 1.8100 1.6420 1.8854
C3 C 1.7170(6) 1.6072(3) 1.80491(15)
H3 H 1.8291 1.5352 1.8013
C4 C 1.5547(5) 1.6463(3) 1.75439(13)
H4 H 1.4955 1.5650 1.7351
C5 C 1.5377(6) 1.7876(3) 1.86213(12)
H5 H 1.6462 1.8663 1.8617
H6 H 1.4556 1.7822 1.9003
C6 C 1.6989(5) 1.7288(3) 1.70913(11)
H7 H 1.8600 1.6830 1.6977
C7 C 1.5325(5) 1.7506(3) 1.65603(11)
H8 H 1.3633 1.7932 1.6631
C8 C 1.5360(9) 1.6509(3) 1.60863(14)
H9 H 1.3726 1.6326 1.5886
H10 H 1.6507 1.5751 1.6132
C9 C 1.6610(6) 1.7841(3) 1.59882(12)
H11 H 1.8526 1.7869 1.5984
C10 C 1.5237(6) 1.8779(3) 1.55978(13)
C11 C 1.6803(6) 1.9867(3) 1.53414(13)
H12 H 1.8302 1.9484 1.5144
H13 H 1.7462 2.0414 1.5657
C12 C 1.5357(8) 2.0747(3) 1.49121(15)
H14 H 1.3725 2.1022 1.5080
H15 H 1.5029 2.0265 1.4558
H16 H 1.6403 2.1512 1.4826
loop_
_geom_bond_atom_site_label_1
_geom_bond_atom_site_label_2
_geom_bond_site_symmetry_1
_geom_bond_site_symmetry_2
O1 C1 1_555 1_555
O2 H1 1_555 1_555
O3 C10 1_555 1_555
O4 C1 1_555 1_555
C1 C5 1_555 1_555
C2 H2 1_555 1_555
C3 C2 1_555 1_555
H3 C3 1_555 1_555
C4 O1 1_555 1_555
H4 C4 1_555 1_555
C5 C2 1_555 1_555
H5 C5 1_555 1_555
H6 C5 1_555 1_555
C6 O2 1_555 1_555
H7 C6 1_555 1_555
C7 C6 1_555 1_555
H8 C7 1_555 1_555
C8 C7 1_555 1_555
H9 C8 1_555 1_555
H10 C8 1_555 1_555
C9 C7 1_555 1_555
H11 C9 1_555 1_555
C10 C9 1_555 1_555
C11 C10 1_555 1_555
H12 C11 1_555 1_555
H13 C11 1_555 1_555
C12 C11 1_555 1_555
H14 C12 1_555 1_555
H15 C12 1_555 1_555
H16 C12 1_555 1_555
C3 C4 1_555 1_555
C4 C6 1_555 1_555
C8 C9 1_555 1_555

#END
