
#######################################################################
#
#                 Cambridge Crystallographic Data Centre
#                                CCDC 
#
#######################################################################
#
# If this CIF has been generated from an entry in the Cambridge 
# Structural Database, then it will include bibliographic, chemical, 
# crystal, experimental, refinement or atomic coordinate data resulting 
# from the CCDC's data processing and validation procedures.
#
#######################################################################

data_COXRIS
_chemical_formula_moiety         'C28 H25 B1 N2'
_chemical_name_systematic        
2-(2,6-Dimethylphenyl)-3,4,5-triphenyl-3,4-dihydro-2H-1,2,3-diazaborole
_symmetry_cell_setting           orthorhombic
_symmetry_space_group_name_H-M   'P n a 21'
_symmetry_Int_Tables_number      33
_space_group_name_Hall           'P 2c -2n'
loop_
_symmetry_equiv_pos_site_id
_symmetry_equiv_pos_as_xyz
1 x,y,z
2 -x,-y,1/2+z
3 1/2+x,1/2-y,z
4 1/2-x,1/2+y,1/2+z
_cell_length_a                   11.268(2)
_cell_length_b                   23.152(5)
_cell_length_c                   8.5403(17)
_cell_angle_alpha                90
_cell_angle_beta                 90
_cell_angle_gamma                90
_cell_volume                     2227.97
_exptl_crystal_colour            colorless
_exptl_crystal_description       Prism
_cell_formula_units_Z            4
loop_
_atom_site_label
_atom_site_type_symbol
_atom_site_fract_x
_atom_site_fract_y
_atom_site_fract_z
C1 C 0.32207(14) 0.71948(7) 0.1989(2)
N1 N 0.17891(11) 0.62469(6) 0.4685(2)
N2 N 0.25335(12) 0.58620(6) 0.3808(2)
C2 C 0.33203(14) 0.61694(7) 0.3093(2)
C3 C 0.14987(14) 0.73638(7) 0.5279(2)
C4 C 0.32530(14) 0.68111(7) 0.3413(2)
H1 H 0.3961 0.6921 0.4053
C5 C 0.04321(15) 0.73407(7) 0.6125(2)
H2 H 0.0039 0.6980 0.6239
C6 C 0.42257(15) 0.58844(7) 0.2115(2)
C7 C 0.04878(15) 0.83618(8) 0.6636(3)
H3 H 0.0154 0.8697 0.7101
C8 C 0.53143(15) 0.61497(8) 0.1837(3)
H4 H 0.5461 0.6526 0.2236
C9 C 0.20232(16) 0.79108(7) 0.5121(2)
H5 H 0.2738 0.7946 0.4540
C10 C 0.41033(15) 0.75997(8) 0.1683(2)
H6 H 0.4775 0.7621 0.2353
C11 C 0.40266(16) 0.53373(8) 0.1478(3)
H7 H 0.3282 0.5153 0.1631
C12 C -0.00657(15) 0.78299(8) 0.6801(2)
H8 H -0.0785 0.7800 0.7375
C13 C 0.59816(17) 0.53242(8) 0.0379(3)
H9 H 0.6580 0.5131 -0.0204
C14 C 0.22671(16) 0.71701(8) 0.0968(3)
H10 H 0.1663 0.6890 0.1134
C15 C 0.15317(16) 0.83983(8) 0.5786(3)
H11 H 0.1912 0.8762 0.5659
C16 C 0.40210(17) 0.79731(8) 0.0414(3)
H12 H 0.4633 0.8247 0.0225
C17 C 0.09317(15) 0.59631(7) 0.5659(3)
C18 C 0.61880(17) 0.58679(8) 0.0981(3)
H13 H 0.6932 0.6051 0.0809
C19 C -0.01595(16) 0.58016(7) 0.5004(3)
C20 C 0.21757(18) 0.75449(9) -0.0292(3)
H14 H 0.1508 0.7526 -0.0970
C21 C 0.30636(18) 0.79478(9) -0.0559(3)
H15 H 0.3005 0.8206 -0.1419
C22 C 0.12080(18) 0.58674(8) 0.7226(3)
B1 B 0.21144(17) 0.68286(8) 0.4524(3)
C23 C 0.2399(2) 0.60197(10) 0.7870(3)
H16 H 0.3017 0.5830 0.7247
H17 H 0.2454 0.5890 0.8959
H18 H 0.2509 0.6439 0.7825
C24 C -0.0438(2) 0.59146(9) 0.3319(3)
H19 H -0.1164 0.5707 0.3029
H20 H 0.0221 0.5780 0.2666
H21 H -0.0555 0.6330 0.3160
C25 C 0.48962(18) 0.50635(9) 0.0632(3)
H22 H 0.4749 0.4690 0.0215
C26 C -0.09885(18) 0.55424(8) 0.5978(4)
H23 H -0.1727 0.5420 0.5556
C27 C 0.0325(2) 0.56205(9) 0.8171(3)
H24 H 0.0472 0.5563 0.9255
C28 C -0.0759(2) 0.54601(9) 0.7542(4)
H25 H -0.1347 0.5292 0.8196
loop_
_geom_bond_atom_site_label_1
_geom_bond_atom_site_label_2
_geom_bond_site_symmetry_1
_geom_bond_site_symmetry_2
C1 C4 1_555 1_555
N1 N2 1_555 1_555
N2 C2 1_555 1_555
C2 C4 1_555 1_555
C3 C5 1_555 1_555
C4 H1 1_555 1_555
C5 H2 1_555 1_555
C6 C2 1_555 1_555
C7 H3 1_555 1_555
C8 C6 1_555 1_555
H4 C8 1_555 1_555
C9 C3 1_555 1_555
H5 C9 1_555 1_555
C10 C1 1_555 1_555
H6 C10 1_555 1_555
C11 C6 1_555 1_555
H7 C11 1_555 1_555
C12 C5 1_555 1_555
H8 C12 1_555 1_555
C13 H9 1_555 1_555
C14 C1 1_555 1_555
H10 C14 1_555 1_555
C15 C7 1_555 1_555
H11 C15 1_555 1_555
C16 C10 1_555 1_555
H12 C16 1_555 1_555
C17 N1 1_555 1_555
C18 C8 1_555 1_555
H13 C18 1_555 1_555
C19 C17 1_555 1_555
C20 C14 1_555 1_555
H14 C20 1_555 1_555
C21 C16 1_555 1_555
H15 C21 1_555 1_555
C22 C17 1_555 1_555
B1 N1 1_555 1_555
C23 C22 1_555 1_555
H16 C23 1_555 1_555
H17 C23 1_555 1_555
H18 C23 1_555 1_555
C24 C19 1_555 1_555
H19 C24 1_555 1_555
H20 C24 1_555 1_555
H21 C24 1_555 1_555
C25 C11 1_555 1_555
H22 C25 1_555 1_555
C26 C19 1_555 1_555
H23 C26 1_555 1_555
C27 C22 1_555 1_555
H24 C27 1_555 1_555
C28 C26 1_555 1_555
H25 C28 1_555 1_555
C3 B1 1_555 1_555
C4 B1 1_555 1_555
C7 C12 1_555 1_555
C9 C15 1_555 1_555
C13 C18 1_555 1_555
C13 C25 1_555 1_555
C20 C21 1_555 1_555
C27 C28 1_555 1_555

#END
