
#######################################################################
#
#                 Cambridge Crystallographic Data Centre
#                                CCDC 
#
#######################################################################
#
# If this CIF has been generated from an entry in the Cambridge 
# Structural Database, then it will include bibliographic, chemical, 
# crystal, experimental, refinement or atomic coordinate data resulting 
# from the CCDC's data processing and validation procedures.
#
#######################################################################

data_COYHII
_chemical_formula_moiety         'C13 H12 N2 O2'
_chemical_name_systematic        '4-((2-Pyridinylmethyl)amino)benzoic acid'
_symmetry_cell_setting           orthorhombic
_symmetry_space_group_name_H-M   'P n a 21'
_symmetry_Int_Tables_number      33
_space_group_name_Hall           'P 2c -2n'
loop_
_symmetry_equiv_pos_site_id
_symmetry_equiv_pos_as_xyz
1 x,y,z
2 -x,-y,1/2+z
3 1/2+x,1/2-y,z
4 1/2-x,1/2+y,1/2+z
_cell_length_a                   29.131(6)
_cell_length_b                   10.548(2)
_cell_length_c                   7.2208(16)
_cell_angle_alpha                90
_cell_angle_beta                 90
_cell_angle_gamma                90
_cell_volume                     2218.76
_exptl_crystal_colour            colorless
_exptl_crystal_description       plate
_cell_formula_units_Z            8
_exptl_crystal_recrystallization_method ethanol/water
_exptl_crystal_preparation       photoluminescent
loop_
_atom_site_label
_atom_site_type_symbol
_atom_site_fract_x
_atom_site_fract_y
_atom_site_fract_z
C1 C 0.61652(17) 1.2402(5) 0.1906(8)
C2 C 0.65958(16) 1.2397(5) 0.2790(9)
H1 H 0.6710 1.3141 0.3304
C3 C 0.68462(17) 1.1305(5) 0.2895(10)
H2 H 0.7134 1.1320 0.3449
C4 C 0.66774(16) 1.0168(4) 0.2186(8)
C5 C 0.62470(19) 1.0174(5) 0.1304(9)
H3 H 0.6131 0.9429 0.0798
C6 C 0.59977(17) 1.1278(5) 0.1188(8)
H4 H 0.5711 1.1269 0.0618
C7 C 0.58895(19) 1.3574(5) 0.1860(10)
C8 C 0.67960(18) 0.7871(5) 0.1670(10)
H5 H 0.6719 0.7920 0.0365
H6 H 0.6525 0.7593 0.2335
C9 C 0.71774(18) 0.6915(5) 0.1945(9)
C10 C 0.7112(2) 0.5664(5) 0.1421(9)
H7 H 0.6837 0.5409 0.0884
C11 C 0.7457(2) 0.4811(5) 0.1705(10)
H8 H 0.7420 0.3967 0.1366
C12 C 0.7857(2) 0.5212(6) 0.2492(10)
H9 H 0.8098 0.4650 0.2692
C13 C 0.7895(2) 0.6463(5) 0.2978(11)
H10 H 0.8166 0.6730 0.3532
N1 N 0.69297(15) 0.9101(4) 0.2321(8)
H11 H 0.7194 0.9164 0.2842
N2 N 0.75660(15) 0.7321(4) 0.2706(8)
O1 O 0.60533(14) 1.4557(4) 0.2538(8)
O2 O 0.54878(12) 1.3519(4) 0.1162(7)
H12 H 0.592(3) 1.527(5) 0.269(17)
C14 C 0.99289(16) 0.7193(5) 0.1913(8)
C15 C 1.00938(17) 0.6074(5) 0.2659(9)
H13 H 1.0385 0.6064 0.3191
C16 C 0.98400(16) 0.4977(5) 0.2638(9)
H14 H 0.9959 0.4240 0.3155
C17 C 0.94031(16) 0.4966(5) 0.1840(9)
C18 C 0.92348(17) 0.6105(5) 0.1110(8)
H15 H 0.8942 0.6126 0.0594
C19 C 0.94908(17) 0.7173(5) 0.1143(9)
H16 H 0.9371 0.7914 0.0638
C20 C 1.01962(18) 0.8356(5) 0.1941(10)
C21 C 0.92795(18) 0.2684(5) 0.2401(10)
H17 H 0.9361 0.2733 0.3702
H18 H 0.9549 0.2410 0.1721
C22 C 0.89070(18) 0.1741(5) 0.2153(9)
C23 C 0.8986(2) 0.0463(5) 0.2514(11)
H19 H 0.9275 0.0192 0.2897
C24 C 0.8636(2) -0.0393(6) 0.2301(13)
H20 H 0.8682 -0.1249 0.2541
C25 C 0.8220(2) 0.0036(6) 0.1735(11)
H21 H 0.7977 -0.0525 0.1575
C26 C 0.8161(2) 0.1303(6) 0.1399(10)
H22 H 0.7875 0.1583 0.1002
N3 N 0.91425(14) 0.3914(4) 0.1761(8)
H23 H 0.8873 0.3985 0.1289
N4 N 0.84957(16) 0.2153(5) 0.1616(8)
O3 O 1.00390(14) 0.9344(4) 0.1249(8)
O4 O 1.05949(13) 0.8324(4) 0.2687(9)
H24 H 1.023(3) 0.995(8) 0.13(3)
loop_
_geom_bond_atom_site_label_1
_geom_bond_atom_site_label_2
_geom_bond_site_symmetry_1
_geom_bond_site_symmetry_2
C1 C2 1_555 1_555
C2 H1 1_555 1_555
C3 C2 1_555 1_555
H2 C3 1_555 1_555
C4 C3 1_555 1_555
C5 C4 1_555 1_555
H3 C5 1_555 1_555
C6 C1 1_555 1_555
H4 C6 1_555 1_555
C7 C1 1_555 1_555
C8 H5 1_555 1_555
H6 C8 1_555 1_555
C9 C8 1_555 1_555
C10 C9 1_555 1_555
H7 C10 1_555 1_555
C11 C10 1_555 1_555
H8 C11 1_555 1_555
C12 C11 1_555 1_555
H9 C12 1_555 1_555
C13 C12 1_555 1_555
H10 C13 1_555 1_555
N1 C4 1_555 1_555
H11 N1 1_555 1_555
N2 C9 1_555 1_555
O1 C7 1_555 1_555
O2 C7 1_555 1_555
H12 O1 1_555 1_555
C14 C15 1_555 1_555
C15 H13 1_555 1_555
C16 C15 1_555 1_555
H14 C16 1_555 1_555
C17 C16 1_555 1_555
C18 C17 1_555 1_555
H15 C18 1_555 1_555
C19 C14 1_555 1_555
H16 C19 1_555 1_555
C20 C14 1_555 1_555
C21 H17 1_555 1_555
H18 C21 1_555 1_555
C22 C21 1_555 1_555
C23 C22 1_555 1_555
H19 C23 1_555 1_555
C24 C23 1_555 1_555
H20 C24 1_555 1_555
C25 C24 1_555 1_555
H21 C25 1_555 1_555
C26 C25 1_555 1_555
H22 C26 1_555 1_555
N3 C17 1_555 1_555
H23 N3 1_555 1_555
N4 C22 1_555 1_555
O3 C20 1_555 1_555
O4 C20 1_555 1_555
H24 O3 1_555 1_555
C5 C6 1_555 1_555
C8 N1 1_555 1_555
C13 N2 1_555 1_555
C18 C19 1_555 1_555
C21 N3 1_555 1_555
C26 N4 1_555 1_555

#END
