
#######################################################################
#
#                 Cambridge Crystallographic Data Centre
#                                CCDC 
#
#######################################################################
#
# If this CIF has been generated from an entry in the Cambridge 
# Structural Database, then it will include bibliographic, chemical, 
# crystal, experimental, refinement or atomic coordinate data resulting 
# from the CCDC's data processing and validation procedures.
#
#######################################################################

data_COYJUX
_chemical_formula_moiety         'C20 H12 N4 O2,3(H2 O1)'
_chemical_name_systematic        
'4-(1H-Imidazo[4,5-f][1,10]phenanthrolin-2-yl)benzoic acid trihydrate'
_symmetry_cell_setting           monoclinic
_symmetry_space_group_name_H-M   'P 21/c'
_symmetry_Int_Tables_number      14
_space_group_name_Hall           '-P 2ybc'
loop_
_symmetry_equiv_pos_site_id
_symmetry_equiv_pos_as_xyz
1 x,y,z
2 -x,1/2+y,1/2-z
3 -x,-y,-z
4 x,1/2-y,1/2+z
_cell_length_a                   3.7161(8)
_cell_length_b                   24.686(5)
_cell_length_c                   21.803(4)
_cell_angle_alpha                90
_cell_angle_beta                 96.552(5)
_cell_angle_gamma                90
_cell_volume                     1987.05
_exptl_crystal_colour            yellow
_exptl_crystal_description       block
_cell_formula_units_Z            4
loop_
_atom_site_label
_atom_site_type_symbol
_atom_site_fract_x
_atom_site_fract_y
_atom_site_fract_z
C1 C 0.484(2) 0.4176(3) 0.2125(3)
H1 H 0.4399 0.4508 0.2302
C2 C 0.582(2) 0.4155(3) 0.1538(3)
H2 H 0.5972 0.4474 0.1316
C3 C 0.6580(18) 0.3665(3) 0.1271(3)
H3 H 0.7307 0.3654 0.0877
C4 C 0.6240(16) 0.3184(2) 0.1605(3)
C5 C 0.5169(16) 0.3217(3) 0.2206(3)
C6 C 0.4707(16) 0.2747(3) 0.2586(3)
C7 C 0.5387(16) 0.2226(3) 0.2361(3)
C8 C 0.4867(17) 0.1781(3) 0.2743(3)
H4 H 0.5246 0.1429 0.2614
C9 C 0.3792(19) 0.1883(3) 0.3306(3)
H5 H 0.3439 0.1598 0.3572
C10 C 0.3221(19) 0.2414(3) 0.3486(3)
H6 H 0.2498 0.2469 0.3876
C11 C 0.6511(16) 0.2199(2) 0.1750(3)
C12 C 0.6879(16) 0.2653(2) 0.1394(3)
C13 C 0.8169(16) 0.1934(2) 0.0878(3)
C14 C 0.9172(16) 0.1593(2) 0.0378(2)
C15 C 0.8695(16) 0.1782(2) -0.0228(3)
H7 H 0.7814 0.2131 -0.0310
C16 C 0.9522(16) 0.1457(2) -0.0708(3)
H8 H 0.9174 0.1586 -0.1111
C17 C 1.0872(16) 0.0938(2) -0.0592(3)
C18 C 1.1364(16) 0.0748(2) 0.0015(3)
H9 H 1.2267 0.0402 0.0100
C19 C 1.0508(16) 0.1077(2) 0.0487(3)
H10 H 1.0840 0.0947 0.0890
C20 C 1.1664(17) 0.0599(2) -0.1119(3)
N1 N 0.4511(14) 0.3711(2) 0.2449(2)
N2 N 0.3624(14) 0.2842(2) 0.3147(2)
N3 N 0.7919(14) 0.2475(2) 0.0847(2)
H11 H 0.8336 0.2674 0.0539
N4 N 0.7330(13) 0.1739(2) 0.1423(2)
O1 O 1.2779(15) 0.01074(18) -0.09606(19)
H12 H 1.2862 -0.0076 -0.1272
O2 O 1.1310(14) 0.07517(17) -0.1654(2)
O3 O 0.9840(16) 0.17504(17) 0.48550(18)
H13 H 0.7852 0.1895 0.4850
H14 H 1.1289 0.1930 0.5080
O4 O 0.6627(17) 0.06075(19) 0.1873(2)
H15 H 0.6622 0.0949 0.1863
H16 H 0.8529 0.0534 0.2118
O5 O 0.955(4) 0.0444(3) 0.3120(4)
H17 H 0.9434 0.0483 0.3490
H18 H 0.9865 0.0745 0.2971
loop_
_geom_bond_atom_site_label_1
_geom_bond_atom_site_label_2
_geom_bond_site_symmetry_1
_geom_bond_site_symmetry_2
C1 H1 1_555 1_555
C2 C1 1_555 1_555
H2 C2 1_555 1_555
C3 C2 1_555 1_555
H3 C3 1_555 1_555
C4 C3 1_555 1_555
C5 C4 1_555 1_555
C6 C5 1_555 1_555
C7 C6 1_555 1_555
C8 C7 1_555 1_555
H4 C8 1_555 1_555
C9 C8 1_555 1_555
H5 C9 1_555 1_555
C10 C9 1_555 1_555
H6 C10 1_555 1_555
C11 C7 1_555 1_555
C12 C4 1_555 1_555
C13 C14 1_555 1_555
C14 C15 1_555 1_555
C15 H7 1_555 1_555
C16 C15 1_555 1_555
H8 C16 1_555 1_555
C17 C16 1_555 1_555
C18 C17 1_555 1_555
H9 C18 1_555 1_555
C19 C14 1_555 1_555
H10 C19 1_555 1_555
C20 C17 1_555 1_555
N1 C1 1_555 1_555
N2 C6 1_555 1_555
N3 C12 1_555 1_555
H11 N3 1_555 1_555
N4 C11 1_555 1_555
O1 C20 1_555 1_555
H12 O1 1_555 1_555
O2 C20 1_555 1_555
O3 H13 1_555 1_555
H14 O3 1_555 1_555
O4 H15 1_555 1_555
H16 O4 1_555 1_555
O5 H17 1_555 1_555
H18 O5 1_555 1_555
C5 N1 1_555 1_555
C10 N2 1_555 1_555
C11 C12 1_555 1_555
C13 N3 1_555 1_555
C13 N4 1_555 1_555
C18 C19 1_555 1_555

#END
