
#######################################################################
#
#                 Cambridge Crystallographic Data Centre
#                                CCDC 
#
#######################################################################
#
# If this CIF has been generated from an entry in the Cambridge 
# Structural Database, then it will include bibliographic, chemical, 
# crystal, experimental, refinement or atomic coordinate data resulting 
# from the CCDC's data processing and validation procedures.
#
#######################################################################

data_COYVER
_chemical_formula_moiety         'C8 H8 N4 O2 S2'
_chemical_name_systematic        
2-(5-Amino-1,3,4-thiadiazol-2-yl)-benzenesulfonamide
_chemical_properties_biological  'antiviral agent'
_symmetry_cell_setting           monoclinic
_symmetry_space_group_name_H-M   'P 21/n'
_symmetry_Int_Tables_number      14
_space_group_name_Hall           '-P 2yn'
loop_
_symmetry_equiv_pos_site_id
_symmetry_equiv_pos_as_xyz
1 x,y,z
2 1/2-x,1/2+y,1/2-z
3 -x,-y,-z
4 1/2+x,1/2-y,1/2+z
_cell_length_a                   14.604(5)
_cell_length_b                   14.605(6)
_cell_length_c                   5.206(3)
_cell_angle_alpha                90
_cell_angle_beta                 94.78(1)
_cell_angle_gamma                90
_cell_volume                     1106.53
_exptl_crystal_colour            colorless
_cell_formula_units_Z            4
loop_
_atom_site_label
_atom_site_type_symbol
_atom_site_fract_x
_atom_site_fract_y
_atom_site_fract_z
S1 S 0.2511(1) 0.0472(1) 0.7323(1)
C1 C 0.1340(2) 0.0296(2) 0.6636(5)
N1 N 0.1007(1) 0.0679(1) 0.4473(4)
N2 N 0.1678(1) 0.1118(1) 0.3221(4)
C2 C 0.2482(2) 0.1066(2) 0.4444(5)
C3 C 0.3321(2) 0.1450(2) 0.3438(5)
C4 C 0.4056(2) 0.0871(2) 0.3081(6)
C5 C 0.4822(2) 0.1201(3) 0.1971(7)
C6 C 0.4860(2) 0.2094(3) 0.1182(8)
C7 C 0.4154(2) 0.2681(2) 0.1555(6)
C8 C 0.3387(2) 0.2367(2) 0.2690(5)
N3 N 0.0826(2) -0.0190(2) 0.8153(5)
S2 S 0.2503(1) 0.3170(1) 0.3167(1)
O1 O 0.2182(1) 0.3004(1) 0.5651(3)
O2 O 0.2859(2) 0.4057(1) 0.2645(4)
N4 N 0.1660(2) 0.2977(2) 0.1051(5)
H1 H 0.0283 -0.0373 0.7653
H2 H 0.1028 -0.0412 0.9537
H3 H 0.4028 0.0243 0.3557
H4 H 0.5308 0.0796 0.1704
H5 H 0.5369 0.2296 0.0365
H6 H 0.4200 0.3301 0.0972
H7 H 0.1781 0.3151 -0.0148
H8 H 0.1486 0.2380 0.1448
loop_
_geom_bond_atom_site_label_1
_geom_bond_atom_site_label_2
_geom_bond_site_symmetry_1
_geom_bond_site_symmetry_2
S1 C1 1_555 1_555
C1 N1 1_555 1_555
N1 N2 1_555 1_555
N2 C2 1_555 1_555
C2 S1 1_555 1_555
C3 C2 1_555 1_555
C4 C3 1_555 1_555
C5 C4 1_555 1_555
C6 C5 1_555 1_555
C7 C6 1_555 1_555
C8 C3 1_555 1_555
N3 C1 1_555 1_555
S2 C8 1_555 1_555
O1 S2 1_555 1_555
O2 S2 1_555 1_555
N4 S2 1_555 1_555
H1 N3 1_555 1_555
H2 N3 1_555 1_555
H3 C4 1_555 1_555
H4 C5 1_555 1_555
H5 C6 1_555 1_555
H6 C7 1_555 1_555
H7 N4 1_555 1_555
H8 N4 1_555 1_555
C7 C8 1_555 1_555

#END
