
#######################################################################
#
#                 Cambridge Crystallographic Data Centre
#                                CCDC 
#
#######################################################################
#
# If this CIF has been generated from an entry in the Cambridge 
# Structural Database, then it will include bibliographic, chemical, 
# crystal, experimental, refinement or atomic coordinate data resulting 
# from the CCDC's data processing and validation procedures.
#
#######################################################################

data_COYWOE
_chemical_formula_moiety         'C16 H14 Br2 N2 O4'
_chemical_name_systematic        
1,1'-(1,4-dinitrobutane-2,3-diyl)bis(4-bromobenzene)
_symmetry_cell_setting           monoclinic
_symmetry_space_group_name_H-M   'C 2/c'
_symmetry_Int_Tables_number      15
_space_group_name_Hall           '-C 2yn'
loop_
_symmetry_equiv_pos_site_id
_symmetry_equiv_pos_as_xyz
1 x,y,z
2 -x,y,1/2-z
3 1/2+x,1/2+y,z
4 1/2-x,1/2+y,1/2-z
5 -x,-y,-z
6 x,-y,1/2+z
7 1/2-x,1/2-y,-z
8 1/2+x,1/2-y,1/2+z
_cell_length_a                   35.989(5)
_cell_length_b                   9.0656(11)
_cell_length_c                   10.9600(17)
_cell_angle_alpha                90
_cell_angle_beta                 99.383(4)
_cell_angle_gamma                90
_cell_volume                     3527.99
_exptl_crystal_colour            colorless
_exptl_crystal_description       block
_cell_formula_units_Z            8
loop_
_atom_site_label
_atom_site_type_symbol
_atom_site_fract_x
_atom_site_fract_y
_atom_site_fract_z
Br1 Br 0.28086(3) 0.11221(12) 1.21862(9)
Br2 Br 0.28279(3) 0.41599(12) 0.54653(8)
C1 C 0.3258(2) 0.1274(9) 1.1503(7)
C2 C 0.3565(2) 0.1971(9) 1.2151(7)
H1 H 0.3555 0.2369 1.2946
C3 C 0.3892(2) 0.2094(9) 1.1644(7)
H2 H 0.4104 0.2586 1.2093
C4 C 0.3913(2) 0.1512(8) 1.0499(7)
C5 C 0.3604(2) 0.0799(9) 0.9847(8)
H3 H 0.3618 0.0376 0.9064
C6 C 0.3269(2) 0.0697(10) 1.0335(7)
H4 H 0.3053 0.0241 0.9875
C7 C 0.4264(2) 0.1709(8) 0.9903(7)
H5 H 0.4255 0.0967 0.9224
C8 C 0.4629(2) 0.1462(9) 1.0826(7)
H6 H 0.4848 0.1489 1.0386
H7 H 0.4660 0.2256 1.1455
C9 C 0.4268(2) 0.3279(9) 0.9324(7)
H8 H 0.4264 0.4022 0.9996
C10 C 0.4629(2) 0.3513(9) 0.8766(7)
H9 H 0.4852 0.3467 0.9427
H10 H 0.4653 0.2725 0.8158
C11 C 0.3913(2) 0.3506(8) 0.8351(7)
C12 C 0.3623(2) 0.4325(9) 0.8659(7)
H11 H 0.3646 0.4764 0.9455
C13 C 0.3294(2) 0.4517(10) 0.7811(8)
H12 H 0.3092 0.5091 0.8015
C14 C 0.3268(2) 0.3852(9) 0.6658(7)
C15 C 0.3558(2) 0.2997(9) 0.6355(7)
H13 H 0.3533 0.2533 0.5569
C16 C 0.3881(2) 0.2823(9) 0.7189(7)
H14 H 0.4082 0.2245 0.6985
N1 N 0.46099(17) 0.0001(8) 1.1440(6)
N2 N 0.46118(16) 0.4982(8) 0.8146(7)
O1 O 0.46114(18) -0.1110(7) 1.0814(6)
O2 O 0.45970(14) -0.0008(7) 1.2559(5)
O3 O 0.46154(17) 0.6083(6) 0.8789(6)
O4 O 0.45941(15) 0.5018(7) 0.7019(5)
loop_
_geom_bond_atom_site_label_1
_geom_bond_atom_site_label_2
_geom_bond_site_symmetry_1
_geom_bond_site_symmetry_2
Br1 C1 1_555 1_555
Br2 C14 1_555 1_555
C1 C2 1_555 1_555
C2 H1 1_555 1_555
C3 C2 1_555 1_555
H2 C3 1_555 1_555
C4 C3 1_555 1_555
C5 C4 1_555 1_555
H3 C5 1_555 1_555
C6 C1 1_555 1_555
H4 C6 1_555 1_555
C7 C4 1_555 1_555
H5 C7 1_555 1_555
C8 C7 1_555 1_555
H6 C8 1_555 1_555
H7 C8 1_555 1_555
C9 C7 1_555 1_555
H8 C9 1_555 1_555
C10 C9 1_555 1_555
H9 C10 1_555 1_555
H10 C10 1_555 1_555
C11 C9 1_555 1_555
C12 C11 1_555 1_555
H11 C12 1_555 1_555
C13 C12 1_555 1_555
H12 C13 1_555 1_555
C14 C13 1_555 1_555
C15 C14 1_555 1_555
H13 C15 1_555 1_555
C16 C11 1_555 1_555
H14 C16 1_555 1_555
N1 C8 1_555 1_555
N2 C10 1_555 1_555
O1 N1 1_555 1_555
O2 N1 1_555 1_555
O3 N2 1_555 1_555
O4 N2 1_555 1_555
C5 C6 1_555 1_555
C15 C16 1_555 1_555

#END
