
#######################################################################
#
#                 Cambridge Crystallographic Data Centre
#                                CCDC 
#
#######################################################################
#
# If this CIF has been generated from an entry in the Cambridge 
# Structural Database, then it will include bibliographic, chemical, 
# crystal, experimental, refinement or atomic coordinate data resulting 
# from the CCDC's data processing and validation procedures.
#
#######################################################################

data_COZNEM
_chemical_formula_moiety         'C16 H17 N1 O5'
_chemical_name_systematic        
'dimethyl 6-oxo-7,8,9a,10-tetrahydropyrido[1,2-a]indole-9,9(6H)-dicarboxylate'
_symmetry_cell_setting           monoclinic
_symmetry_space_group_name_H-M   'P 21/c'
_symmetry_Int_Tables_number      14
_space_group_name_Hall           '-P 2ybc'
loop_
_symmetry_equiv_pos_site_id
_symmetry_equiv_pos_as_xyz
1 x,y,z
2 -x,1/2+y,1/2-z
3 -x,-y,-z
4 x,1/2-y,1/2+z
_cell_length_a                   8.8737(5)
_cell_length_b                   16.2085(9)
_cell_length_c                   10.3284(5)
_cell_angle_alpha                90
_cell_angle_beta                 100.770(5)
_cell_angle_gamma                90
_cell_volume                     1459.36
_exptl_crystal_colour            'light colorless'
_exptl_crystal_description       block
_cell_formula_units_Z            4
loop_
_atom_site_label
_atom_site_type_symbol
_atom_site_fract_x
_atom_site_fract_y
_atom_site_fract_z
O1 O 0.0611(3) 0.60946(11) 0.13017(15)
O2 O 0.0098(2) 0.51957(10) 0.27858(14)
O3 O 0.06020(19) 0.65910(10) 0.56543(15)
O4 O -0.0860(2) 0.69890(11) 0.37655(16)
O5 O 0.5091(2) 0.75159(10) 0.61551(17)
N1 N 0.3891(2) 0.63398(10) 0.53632(16)
C1 C 0.4506(3) 0.58185(13) 0.6437(2)
C2 C 0.5730(3) 0.59597(15) 0.7454(2)
H1 H 0.6308 0.6441 0.7489
C3 C 0.6066(3) 0.53587(18) 0.8422(2)
H2 H 0.6875 0.5445 0.9123
C4 C 0.5242(3) 0.46424(17) 0.8374(2)
H3 H 0.5493 0.4251 0.9038
C5 C 0.4035(3) 0.44997(15) 0.7338(2)
H4 H 0.3473 0.4013 0.7301
C6 C 0.3675(2) 0.50864(13) 0.6359(2)
C7 C 0.2414(3) 0.50948(12) 0.5163(2)
H5 H 0.1418 0.5161 0.5408
H6 H 0.2415 0.4591 0.4655
C8 C 0.2815(2) 0.58458(12) 0.43842(19)
H7 H 0.3407 0.5638 0.3741
C9 C 0.1513(2) 0.63744(12) 0.36143(19)
C10 C 0.2258(3) 0.71422(13) 0.3121(2)
H8 H 0.2955 0.6970 0.2552
H9 H 0.1468 0.7483 0.2605
C11 C 0.3132(3) 0.76457(13) 0.4252(2)
H10 H 0.3765 0.8042 0.3896
H11 H 0.2395 0.7955 0.4644
C12 C 0.4141(3) 0.71680(13) 0.5326(2)
C13 C 0.0390(3) 0.66476(12) 0.4486(2)
C14 C -0.1951(3) 0.73292(18) 0.4511(3)
H12 H -0.2887 0.7465 0.3920
H13 H -0.1529 0.7818 0.4964
H14 H -0.2158 0.6929 0.5141
C15 C 0.0683(3) 0.58913(14) 0.2421(2)
C16 C -0.0633(3) 0.46455(16) 0.1753(2)
H15 H -0.1525 0.4909 0.1253
H16 H -0.0933 0.4147 0.2138
H17 H 0.0073 0.4516 0.1182
loop_
_geom_bond_atom_site_label_1
_geom_bond_atom_site_label_2
_geom_bond_site_symmetry_1
_geom_bond_site_symmetry_2
O1 C15 1_555 1_555
O2 C15 1_555 1_555
O3 C13 1_555 1_555
O4 C13 1_555 1_555
O5 C12 1_555 1_555
N1 C1 1_555 1_555
C1 C2 1_555 1_555
C2 H1 1_555 1_555
C3 C2 1_555 1_555
H2 C3 1_555 1_555
C4 C3 1_555 1_555
H3 C4 1_555 1_555
C5 C4 1_555 1_555
H4 C5 1_555 1_555
C6 C1 1_555 1_555
C7 C6 1_555 1_555
H5 C7 1_555 1_555
H6 C7 1_555 1_555
C8 N1 1_555 1_555
H7 C8 1_555 1_555
C9 C8 1_555 1_555
C10 C9 1_555 1_555
H8 C10 1_555 1_555
H9 C10 1_555 1_555
C11 C10 1_555 1_555
H10 C11 1_555 1_555
H11 C11 1_555 1_555
C12 N1 1_555 1_555
C13 C9 1_555 1_555
C14 O4 1_555 1_555
H12 C14 1_555 1_555
H13 C14 1_555 1_555
H14 C14 1_555 1_555
C15 C9 1_555 1_555
C16 O2 1_555 1_555
H15 C16 1_555 1_555
H16 C16 1_555 1_555
H17 C16 1_555 1_555
C5 C6 1_555 1_555
C7 C8 1_555 1_555
C11 C12 1_555 1_555

#END
