
#######################################################################
#
#                 Cambridge Crystallographic Data Centre
#                                CCDC 
#
#######################################################################
#
# If this CIF has been generated from an entry in the Cambridge 
# Structural Database, then it will include bibliographic, chemical, 
# crystal, experimental, refinement or atomic coordinate data resulting 
# from the CCDC's data processing and validation procedures.
#
#######################################################################

data_COZZUO
_chemical_formula_moiety         'C17 H14 F3 N1 O2'
_chemical_name_systematic        
1-methyl-4-phenyl-3-(trifluoromethyl)-1-azaspiro[4.5]deca-6,9-diene-2,8-dione
_symmetry_cell_setting           monoclinic
_symmetry_space_group_name_H-M   'P 21/c'
_symmetry_Int_Tables_number      14
_space_group_name_Hall           '-P 2ybc'
loop_
_symmetry_equiv_pos_site_id
_symmetry_equiv_pos_as_xyz
1 x,y,z
2 -x,1/2+y,1/2-z
3 -x,-y,-z
4 x,1/2-y,1/2+z
_cell_length_a                   15.116(3)
_cell_length_b                   8.2473(16)
_cell_length_c                   12.417(3)
_cell_angle_alpha                90
_cell_angle_beta                 104.84(3)
_cell_angle_gamma                90
_cell_volume                     1496.35
_exptl_crystal_colour            colorless
_cell_formula_units_Z            4
loop_
_atom_site_label
_atom_site_type_symbol
_atom_site_fract_x
_atom_site_fract_y
_atom_site_fract_z
F1 F 0.49691(5) 0.17280(11) -0.00851(8)
F2 F 0.60101(6) 0.10486(10) 0.13911(7)
F3 F 0.63115(6) 0.10129(11) -0.02158(8)
O1 O 0.49891(6) 0.43763(12) 0.14907(9)
O2 O 0.94866(8) 0.85710(16) 0.18564(11)
N1 N 0.64380(7) 0.54459(13) 0.20132(9)
C1 C 0.58663(9) 0.18496(17) 0.04130(12)
C2 C 0.61686(8) 0.35803(16) 0.05561(11)
H1 H 0.5958 0.4140 -0.0180
C3 C 0.57769(9) 0.44792(16) 0.14016(11)
C4 C 0.72811(9) 0.54782(16) 0.16275(11)
C5 C 0.72064(8) 0.38084(15) 0.09813(10)
H2 H 0.7442 0.2940 0.1544
C6 C 0.77706(8) 0.37600(15) 0.01376(10)
C7 C 0.74368(9) 0.42994(16) -0.09527(11)
H3 H 0.6818 0.4639 -0.1205
C8 C 0.80033(9) 0.43444(17) -0.16750(12)
H4 H 0.7770 0.4725 -0.2416
C9 C 0.89030(10) 0.38407(19) -0.13244(13)
H5 H 0.9290 0.3886 -0.1818
C10 C 0.92365(10) 0.3271(2) -0.02526(13)
H6 H 0.9851 0.2900 -0.0015
C11 C 0.86780(9) 0.32352(19) 0.04840(12)
H7 H 0.8915 0.2853 0.1223
C12 C 0.72598(9) 0.68979(16) 0.08638(11)
H8 H 0.6717 0.7090 0.0293
C13 C 0.79638(10) 0.78986(18) 0.09491(13)
H9 H 0.7911 0.8766 0.0433
C14 C 0.88217(10) 0.76993(19) 0.18199(14)
C15 C 0.88364(10) 0.6423(2) 0.26459(13)
H10 H 0.9369 0.6288 0.3241
C16 C 0.81249(10) 0.54507(18) 0.25854(12)
H11 H 0.8150 0.4703 0.3174
C17 C 0.62408(10) 0.67002(19) 0.27435(12)
H12 H 0.6122 0.7728 0.2336
H13 H 0.6767 0.6827 0.3390
H14 H 0.5701 0.6390 0.2996
loop_
_geom_bond_atom_site_label_1
_geom_bond_atom_site_label_2
_geom_bond_site_symmetry_1
_geom_bond_site_symmetry_2
F1 C1 1_555 1_555
F2 C1 1_555 1_555
F3 C1 1_555 1_555
O1 C3 1_555 1_555
O2 C14 1_555 1_555
N1 C3 1_555 1_555
C1 C2 1_555 1_555
C2 H1 1_555 1_555
C3 C2 1_555 1_555
C4 N1 1_555 1_555
C5 C2 1_555 1_555
H2 C5 1_555 1_555
C6 C5 1_555 1_555
C7 C6 1_555 1_555
H3 C7 1_555 1_555
C8 C7 1_555 1_555
H4 C8 1_555 1_555
C9 C8 1_555 1_555
H5 C9 1_555 1_555
C10 C9 1_555 1_555
H6 C10 1_555 1_555
C11 C6 1_555 1_555
H7 C11 1_555 1_555
C12 C4 1_555 1_555
H8 C12 1_555 1_555
C13 C12 1_555 1_555
H9 C13 1_555 1_555
C14 C13 1_555 1_555
C15 C14 1_555 1_555
H10 C15 1_555 1_555
C16 C4 1_555 1_555
H11 C16 1_555 1_555
C17 N1 1_555 1_555
H12 C17 1_555 1_555
H13 C17 1_555 1_555
H14 C17 1_555 1_555
C4 C5 1_555 1_555
C10 C11 1_555 1_555
C15 C16 1_555 1_555

#END
