
#######################################################################
#
#                 Cambridge Crystallographic Data Centre
#                                CCDC 
#
#######################################################################
#
# If this CIF has been generated from an entry in the Cambridge 
# Structural Database, then it will include bibliographic, chemical, 
# crystal, experimental, refinement or atomic coordinate data resulting 
# from the CCDC's data processing and validation procedures.
#
#######################################################################

data_CRMESF
_chemical_name_common            '18-Crown-6 bis(dimethylsulfone) clathrate'
_chemical_formula_moiety         'C12 H24 O6,2(C2 H6 O2 S1)'
_chemical_name_systematic        
'1,4,7,10,13,16-Hexaoxacyclo-octadecane bis(dimethylsulfone) clathrate'
_symmetry_cell_setting           monoclinic
_symmetry_space_group_name_H-M   'P 21/n'
_symmetry_Int_Tables_number      14
_space_group_name_Hall           '-P 2yn'
loop_
_symmetry_equiv_pos_site_id
_symmetry_equiv_pos_as_xyz
1 x,y,z
2 1/2-x,1/2+y,1/2-z
3 -x,-y,-z
4 1/2+x,1/2-y,1/2+z
_cell_length_a                   8.852(4)
_cell_length_b                   16.440(8)
_cell_length_c                   8.389(2)
_cell_angle_alpha                90
_cell_angle_beta                 107.39(2)
_cell_angle_gamma                90
_cell_volume                     1165.02
_exptl_crystal_colour            colorless
_chemical_melting_point          367-8K
_cell_formula_units_Z            2
loop_
_atom_site_label
_atom_site_type_symbol
_atom_site_fract_x
_atom_site_fract_y
_atom_site_fract_z
O1 O 0.34150 0.45620 -0.32990
C1 C 0.24230 0.38720 -0.33820
C2 C 0.33060 0.32370 -0.22320
O2 O 0.35170 0.34720 -0.05490
C3 C 0.43140 0.28630 0.05860
C4 C 0.46680 0.31740 0.23440
O3 O 0.58710 0.37590 0.26400
C5 C 0.62100 0.41240 0.42550
C6 C 0.26640 0.51910 -0.44000
H7 H 0.14890 0.40320 -0.30590
H8 H 0.20900 0.36600 -0.45260
H9 H 0.43440 0.31610 -0.24040
H10 H 0.27110 0.27260 -0.24600
H11 H 0.36430 0.23780 0.04490
H12 H 0.53070 0.27220 0.03610
H13 H 0.50140 0.27210 0.31300
H14 H 0.37120 0.34200 0.24960
H15 H 0.52260 0.43290 0.44150
H16 H 0.66800 0.37170 0.51120
H17 H 0.17310 0.53790 -0.41070
H18 H 0.23380 0.49860 -0.55500
C6B C 0.73360 0.48090 0.44000
C5B C 0.37900 0.58760 -0.42550
O1B O 0.65850 0.54380 0.32990
H17B H 0.82690 0.46210 0.41070
H18B H 0.76620 0.50140 0.55500
O3B O 0.41290 0.62410 -0.26400
H15B H 0.47740 0.56710 -0.44150
H16B H 0.33200 0.62830 -0.51120
C1B C 0.75770 0.61280 0.33820
C4B C 0.53320 0.68260 -0.23440
C2B C 0.66940 0.67630 0.22320
H7B H 0.85110 0.59680 0.30590
H8B H 0.79100 0.63400 0.45260
C3B C 0.56860 0.71370 -0.05860
H13B H 0.49860 0.72790 -0.31300
H14B H 0.62880 0.65800 -0.24960
O2B O 0.64830 0.65280 0.05490
H9B H 0.56560 0.68390 0.24040
H10B H 0.72890 0.72740 0.24600
H11B H 0.63570 0.76220 -0.04490
H12B H 0.46930 0.72780 -0.03610
S1 S 0.83430 0.38867 -0.06550
O4 O 0.75410 0.31250 -0.11530
O5 O 0.92010 0.42140 -0.17210
C7 C 0.69910 0.46130 -0.04120
H1 H 0.75240 0.51070 -0.00870
H2 H 0.62440 0.46570 -0.16300
H3 H 0.65310 0.43650 0.02370
C8 C 0.96740 0.37650 0.13420
H4 H 1.01600 0.42630 0.18320
H5 H 0.91390 0.35860 0.22060
H6 H 1.03200 0.33510 0.12240
loop_
_geom_bond_atom_site_label_1
_geom_bond_atom_site_label_2
_geom_bond_site_symmetry_1
_geom_bond_site_symmetry_2
O1 C1 1_555 1_555
C1 C2 1_555 1_555
C2 O2 1_555 1_555
O2 C3 1_555 1_555
C3 C4 1_555 1_555
C4 O3 1_555 1_555
O3 C5 1_555 1_555
C5 H15 1_555 1_555
C6 O1 1_555 1_555
S1 O4 1_555 1_555
O5 S1 1_555 1_555
C7 S1 1_555 1_555
H1 C7 1_555 1_555
H2 C7 1_555 1_555
H3 C7 1_555 1_555
C8 S1 1_555 1_555
H4 C8 1_555 1_555
H5 C8 1_555 1_555
H6 C8 1_555 1_555
H7 C1 1_555 1_555
H8 C1 1_555 1_555
H9 C2 1_555 1_555
H10 C2 1_555 1_555
H11 C3 1_555 1_555
H12 C3 1_555 1_555
H13 C4 1_555 1_555
H14 C4 1_555 1_555
H16 C5 1_555 1_555
H17 C6 1_555 1_555
H18 C6 1_555 1_555
C6B C5 1_555 1_555
C5B C6 1_555 1_555
O1B C6B 1_555 1_555
H17B C6B 1_555 1_555
H18B C6B 1_555 1_555
O3B C5B 1_555 1_555
H15B C5B 1_555 1_555
H16B C5B 1_555 1_555
C1B O1B 1_555 1_555
C4B O3B 1_555 1_555
C2B C1B 1_555 1_555
H7B C1B 1_555 1_555
H8B C1B 1_555 1_555
C3B C4B 1_555 1_555
H13B C4B 1_555 1_555
H14B C4B 1_555 1_555
O2B C2B 1_555 1_555
H9B C2B 1_555 1_555
H10B C2B 1_555 1_555
H11B C3B 1_555 1_555
H12B C3B 1_555 1_555
C3B O2B 1_555 1_555

#END
