
#######################################################################
#
#                 Cambridge Crystallographic Data Centre
#                                CCDC 
#
#######################################################################
#
# If this CIF has been generated from an entry in the Cambridge 
# Structural Database, then it will include bibliographic, chemical, 
# crystal, experimental, refinement or atomic coordinate data resulting 
# from the CCDC's data processing and validation procedures.
#
#######################################################################

data_CUBLER
_chemical_formula_moiety         'C18 H18 O6'
_chemical_name_systematic        
'2-(2-Methoxy-2-oxoethyl)phenyl 3,5-dimethoxybenzoate'
_chemical_properties_biological  'tested for antibacterial activity'
_symmetry_cell_setting           triclinic
_symmetry_space_group_name_H-M   'P -1'
_symmetry_Int_Tables_number      2
_space_group_name_Hall           '-P 1'
loop_
_symmetry_equiv_pos_site_id
_symmetry_equiv_pos_as_xyz
1 x,y,z
2 -x,-y,-z
_cell_length_a                   8.7210(17)
_cell_length_b                   9.898(2)
_cell_length_c                   10.006(2)
_cell_angle_alpha                98.07(3)
_cell_angle_beta                 97.57(3)
_cell_angle_gamma                98.15(3)
_cell_volume                     836.339
_exptl_crystal_colour            colorless
_exptl_crystal_description       block
_chemical_melting_point          '86-87 deg.C'
_cell_formula_units_Z            2
loop_
_atom_site_label
_atom_site_type_symbol
_atom_site_fract_x
_atom_site_fract_y
_atom_site_fract_z
O1 O 0.5179(3) 0.1256(3) 1.1332(3)
C1 C 0.7968(4) 0.0775(4) 1.0794(5)
H1 H 0.8989 0.0807 1.0528
H2 H 0.7308 -0.0069 1.0342
H3 H 0.8057 0.0810 1.1765
O2 O 0.7295(3) 0.1933(2) 1.0415(3)
C2 C 0.5910(3) 0.2051(3) 1.0741(3)
O3 O 0.4669(3) 0.4032(2) 0.6855(3)
C3 C 0.5360(4) 0.3335(3) 1.0347(4)
H4 H 0.5978 0.3670 0.9687
H5 H 0.5547 0.4045 1.1150
O4 O 0.4229(3) 0.2024(2) 0.7624(2)
C4 C 0.3631(3) 0.3113(3) 0.9739(3)
O5 O 0.7981(3) -0.0836(3) 0.5649(3)
C5 C 0.3132(3) 0.2525(3) 0.8398(3)
O6 O 0.8843(3) 0.3183(2) 0.3796(3)
C6 C 0.1575(4) 0.2323(3) 0.7815(4)
H6 H 0.1265 0.1905 0.6908
C7 C 0.0501(4) 0.2740(4) 0.8579(4)
H7 H -0.0545 0.2631 0.8184
C8 C 0.0948(4) 0.3328(3) 0.9943(4)
H8 H 0.0205 0.3593 1.0469
C9 C 0.2509(4) 0.3515(3) 1.0509(3)
H9 H 0.2815 0.3916 1.1421
C10 C 0.4943(4) 0.2883(3) 0.6890(3)
C11 C 0.6124(3) 0.2261(3) 0.6173(3)
C12 C 0.6443(3) 0.0946(3) 0.6315(3)
H10 H 0.5915 0.0422 0.6866
C13 C 0.7561(3) 0.0433(3) 0.5619(3)
C14 C 0.8340(4) 0.1215(3) 0.4775(3)
H11 H 0.9084 0.0857 0.4305
C15 C 0.8007(3) 0.2514(3) 0.4638(3)
C16 C 0.6879(3) 0.3039(3) 0.5326(3)
H12 H 0.6631 0.3905 0.5219
C17 C 0.8502(5) 0.4482(4) 0.3537(4)
H13 H 0.9170 0.4828 0.2929
H14 H 0.8679 0.5117 0.4381
H15 H 0.7426 0.4384 0.3125
C18 C 0.7425(5) -0.1626(4) 0.6620(4)
H16 H 0.7819 -0.2486 0.6536
H17 H 0.6299 -0.1806 0.6454
H18 H 0.7779 -0.1119 0.7525
loop_
_geom_bond_atom_site_label_1
_geom_bond_atom_site_label_2
_geom_bond_site_symmetry_1
_geom_bond_site_symmetry_2
O1 C2 1_555 1_555
C1 H1 1_555 1_555
H2 C1 1_555 1_555
H3 C1 1_555 1_555
O2 C1 1_555 1_555
C2 O2 1_555 1_555
O3 C10 1_555 1_555
C3 C2 1_555 1_555
H4 C3 1_555 1_555
H5 C3 1_555 1_555
O4 C5 1_555 1_555
C4 C3 1_555 1_555
O5 C13 1_555 1_555
C5 C4 1_555 1_555
O6 C15 1_555 1_555
C6 C5 1_555 1_555
H6 C6 1_555 1_555
C7 C6 1_555 1_555
H7 C7 1_555 1_555
C8 C7 1_555 1_555
H8 C8 1_555 1_555
C9 C4 1_555 1_555
H9 C9 1_555 1_555
C10 O4 1_555 1_555
C11 C10 1_555 1_555
C12 C11 1_555 1_555
H10 C12 1_555 1_555
C13 C12 1_555 1_555
C14 C13 1_555 1_555
H11 C14 1_555 1_555
C15 C14 1_555 1_555
C16 C11 1_555 1_555
H12 C16 1_555 1_555
C17 O6 1_555 1_555
H13 C17 1_555 1_555
H14 C17 1_555 1_555
H15 C17 1_555 1_555
C18 O5 1_555 1_555
H16 C18 1_555 1_555
H17 C18 1_555 1_555
H18 C18 1_555 1_555
C8 C9 1_555 1_555
C15 C16 1_555 1_555

#END
