
#######################################################################
#
#                 Cambridge Crystallographic Data Centre
#                                CCDC 
#
#######################################################################
#
# If this CIF has been generated from an entry in the Cambridge 
# Structural Database, then it will include bibliographic, chemical, 
# crystal, experimental, refinement or atomic coordinate data resulting 
# from the CCDC's data processing and validation procedures.
#
#######################################################################

data_CUBVOL
_chemical_name_common            
"4,4'-bis(1,2,4-Triazol-1-ylmethyl)biphenyl hydrochloride monohydrate"
_chemical_formula_moiety         'C18 H17 N6 1+,Cl1 1-,H2 O1'
_chemical_name_systematic        
"4-(1H-1,2,4-Triazol-1-ylmethyl)-4'-((1H-1,2,4-triazol-4-ium-1-yl)methyl)biphenyl chloride monohydrate"
_symmetry_cell_setting           monoclinic
_symmetry_space_group_name_H-M   'C 2/c'
_symmetry_Int_Tables_number      15
_space_group_name_Hall           '-C 2yn'
loop_
_symmetry_equiv_pos_site_id
_symmetry_equiv_pos_as_xyz
1 x,y,z
2 -x,y,1/2-z
3 1/2+x,1/2+y,z
4 1/2-x,1/2+y,1/2-z
5 -x,-y,-z
6 x,-y,1/2+z
7 1/2-x,1/2-y,-z
8 1/2+x,1/2-y,1/2+z
_cell_length_a                   33.0534(7)
_cell_length_b                   8.7520(2)
_cell_length_c                   13.0899(3)
_cell_angle_alpha                90
_cell_angle_beta                 107.263(1)
_cell_angle_gamma                90
_cell_volume                     3616.11
_exptl_crystal_colour            colorless
_exptl_crystal_description       block
_chemical_melting_point          '154-158 deg.C'
_cell_formula_units_Z            8
_exptl_crystal_preparation       fluorescent
loop_
_atom_site_label
_atom_site_type_symbol
_atom_site_fract_x
_atom_site_fract_y
_atom_site_fract_z
N1 N 0.46779(6) 0.8125(2) 0.34045(14)
N2 N 0.10727(5) 0.50726(18) 0.50257(13)
N3 N 0.41152(5) 0.69748(18) 0.25263(14)
N4 N 0.04780(5) 0.3858(2) 0.44635(14)
C1 C 0.27453(6) 0.5830(2) 0.33161(16)
C2 C 0.23910(6) 0.5857(2) 0.37941(17)
C3 C 0.27576(6) 0.6844(2) 0.25031(17)
H1 H 0.2536 0.7532 0.2246
C4 C 0.17345(6) 0.6069(2) 0.47522(18)
C5 C 0.19832(6) 0.6320(2) 0.32107(17)
H2 H 0.1926 0.6555 0.2489
C6 C 0.07999(7) 0.2918(2) 0.49543(17)
H3 H 0.0763 0.1876 0.5033
N5 N 0.40162(6) 0.8490(2) 0.24565(15)
C7 C 0.30907(6) 0.6849(2) 0.20730(17)
H4 H 0.3091 0.7538 0.1532
C8 C 0.45102(7) 0.6763(3) 0.31011(18)
H5 H 0.4647 0.5827 0.3266
C9 C 0.34266(6) 0.5839(2) 0.24354(18)
C10 C 0.43681(7) 0.9149(2) 0.29975(17)
H6 H 0.4401 1.0200 0.3091
C11 C 0.06651(7) 0.5212(2) 0.45276(16)
H7 H 0.0529 0.6121 0.4261
C12 C 0.24545(7) 0.5472(2) 0.48586(18)
H8 H 0.2721 0.5140 0.5267
N6 N 0.11696(6) 0.3590(2) 0.53125(15)
C13 C 0.16649(6) 0.6433(2) 0.36856(18)
H9 H 0.1398 0.6760 0.3282
C14 C 0.34152(7) 0.4826(2) 0.32343(18)
H10 H 0.3636 0.4135 0.3484
C15 C 0.30834(6) 0.4817(2) 0.36689(18)
H11 H 0.3085 0.4123 0.4208
C16 C 0.13963(7) 0.6275(3) 0.52992(19)
H12 H 0.1528 0.6280 0.6067
H13 H 0.1261 0.7259 0.5099
C17 C 0.37940(7) 0.5847(3) 0.1987(2)
H14 H 0.3922 0.4839 0.2068
H15 H 0.3693 0.6079 0.1229
C18 C 0.21341(7) 0.5569(3) 0.53219(18)
H16 H 0.2187 0.5292 0.6035
H17 H 0.4951(3) 0.827(3) 0.3783(18)
Cl1 Cl 0.04414(2) 0.91317(7) 0.42225(6)
O1 O 0.04726(7) 0.7750(2) 0.2028(2)
H18 H 0.0471(4) 0.810(3) 0.2634(8)
H19 H 0.0229(3) 0.787(3) 0.1578(9)
loop_
_geom_bond_atom_site_label_1
_geom_bond_atom_site_label_2
_geom_bond_site_symmetry_1
_geom_bond_site_symmetry_2
N1 C8 1_555 1_555
N2 C11 1_555 1_555
N3 N5 1_555 1_555
N4 C6 1_555 1_555
C1 C2 1_555 1_555
C2 C5 1_555 1_555
C3 C1 1_555 1_555
H1 C3 1_555 1_555
C4 C13 1_555 1_555
C5 H2 1_555 1_555
C6 H3 1_555 1_555
N5 C10 1_555 1_555
C7 C3 1_555 1_555
H4 C7 1_555 1_555
C8 N3 1_555 1_555
H5 C8 1_555 1_555
C9 C7 1_555 1_555
C10 N1 1_555 1_555
H6 C10 1_555 1_555
C11 N4 1_555 1_555
H7 C11 1_555 1_555
C12 C2 1_555 1_555
H8 C12 1_555 1_555
N6 N2 1_555 1_555
C13 C5 1_555 1_555
H9 C13 1_555 1_555
C14 C9 1_555 1_555
H10 C14 1_555 1_555
C15 C1 1_555 1_555
H11 C15 1_555 1_555
C16 N2 1_555 1_555
H12 C16 1_555 1_555
H13 C16 1_555 1_555
C17 N3 1_555 1_555
H14 C17 1_555 1_555
H15 C17 1_555 1_555
C18 C4 1_555 1_555
H16 C18 1_555 1_555
O1 H18 1_555 1_555
H17 N1 1_555 1_555
H19 O1 1_555 1_555
C4 C16 1_555 1_555
C6 N6 1_555 1_555
C9 C17 1_555 1_555
C12 C18 1_555 1_555
C14 C15 1_555 1_555

#END
