
#######################################################################
#
#                 Cambridge Crystallographic Data Centre
#                                CCDC 
#
#######################################################################
#
# If this CIF has been generated from an entry in the Cambridge 
# Structural Database, then it will include bibliographic, chemical, 
# crystal, experimental, refinement or atomic coordinate data resulting 
# from the CCDC's data processing and validation procedures.
#
#######################################################################

data_CUBWAZ
_chemical_formula_moiety         'C18 H16 F1 N1 O2 S1'
_chemical_name_systematic        
2-(4-fluorophenyl)-5-(((4-methylphenyl)sulfonyl)methyl)-1H-pyrrole
_symmetry_cell_setting           triclinic
_symmetry_space_group_name_H-M   'P -1'
_symmetry_Int_Tables_number      2
_space_group_name_Hall           '-P 1'
loop_
_symmetry_equiv_pos_site_id
_symmetry_equiv_pos_as_xyz
1 x,y,z
2 -x,-y,-z
_cell_length_a                   8.850(2)
_cell_length_b                   9.016(2)
_cell_length_c                   10.514(3)
_cell_angle_alpha                111.443(11)
_cell_angle_beta                 92.219(13)
_cell_angle_gamma                94.247(12)
_cell_volume                     776.757
_exptl_crystal_colour            colorless
_cell_formula_units_Z            2
loop_
_atom_site_label
_atom_site_type_symbol
_atom_site_fract_x
_atom_site_fract_y
_atom_site_fract_z
S1 S 0.82678(6) 0.37264(6) 0.85131(5)
F1 F 0.79588(13) 1.47738(13) 1.45533(11)
O1 O 0.92042(18) 0.24065(19) 0.80725(17)
O2 O 0.80666(18) 0.4455(2) 0.99467(16)
N1 N 0.86162(19) 0.7886(2) 0.96644(18)
H1 H 0.9249 0.7823 1.0305
C1 C 0.2066(3) 0.1479(3) 0.5510(3)
H2 H 0.1757 0.0404 0.5491
H3 H 0.2107 0.1447 0.4571
H4 H 0.1328 0.2213 0.5984
C2 C 0.3610(2) 0.2054(3) 0.6256(2)
C3 C 0.4904(3) 0.1961(3) 0.5539(2)
H5 H 0.4811 0.1542 0.4566
C4 C 0.6322(2) 0.2468(3) 0.6216(2)
H6 H 0.7201 0.2392 0.5712
C5 C 0.6460(2) 0.3089(2) 0.7633(2)
C6 C 0.9072(2) 0.5236(3) 0.7939(2)
H7 H 1.0155 0.5500 0.8278
H8 H 0.9031 0.4793 0.6925
C7 C 0.8304(2) 0.6729(3) 0.8392(2)
C8 C 0.7794(2) 0.9169(3) 0.9799(2)
C9 C 0.7855(2) 1.0584(3) 1.1052(2)
C10 C 0.8917(2) 1.0862(3) 1.2152(2)
H9 H 0.9625 1.0102 1.2098
C11 C 0.8951(2) 1.2228(3) 1.3319(2)
H10 H 0.9674 1.2412 1.4065
C12 C 0.7921(3) 1.3316(3) 1.3381(3)
C13 C 0.3773(3) 0.2682(3) 0.7668(2)
H11 H 0.2896 0.2754 0.8172
C14 C 0.5187(2) 0.3210(3) 0.8368(2)
H12 H 0.5279 0.3649 0.9341
C15 C 0.6848(3) 1.3088(3) 1.2329(3)
H13 H 0.6142 1.3853 1.2397
C16 C 0.6825(3) 1.1726(3) 1.1180(3)
H14 H 0.6086 1.1551 1.0448
C17 C 0.6953(3) 0.8791(3) 0.8570(2)
H15 H 0.6277 0.9450 0.8354
C18 C 0.7269(3) 0.7267(3) 0.7698(3)
H16 H 0.6843 0.6706 0.6788
loop_
_geom_bond_atom_site_label_1
_geom_bond_atom_site_label_2
_geom_bond_site_symmetry_1
_geom_bond_site_symmetry_2
S1 O1 1_555 1_555
F1 C12 1_555 1_555
O2 S1 1_555 1_555
N1 H1 1_555 1_555
C1 H2 1_555 1_555
H3 C1 1_555 1_555
H4 C1 1_555 1_555
C2 C1 1_555 1_555
C3 C2 1_555 1_555
H5 C3 1_555 1_555
C4 C3 1_555 1_555
H6 C4 1_555 1_555
C5 S1 1_555 1_555
C6 S1 1_555 1_555
H7 C6 1_555 1_555
H8 C6 1_555 1_555
C7 N1 1_555 1_555
C8 N1 1_555 1_555
C9 C8 1_555 1_555
C10 C9 1_555 1_555
H9 C10 1_555 1_555
C11 C10 1_555 1_555
H10 C11 1_555 1_555
C12 C11 1_555 1_555
C13 C2 1_555 1_555
H11 C13 1_555 1_555
C14 C5 1_555 1_555
H12 C14 1_555 1_555
C15 C12 1_555 1_555
H13 C15 1_555 1_555
C16 C9 1_555 1_555
H14 C16 1_555 1_555
C17 C8 1_555 1_555
H15 C17 1_555 1_555
C18 C7 1_555 1_555
H16 C18 1_555 1_555
C4 C5 1_555 1_555
C6 C7 1_555 1_555
C13 C14 1_555 1_555
C15 C16 1_555 1_555
C17 C18 1_555 1_555

#END
