
#######################################################################
#
#                 Cambridge Crystallographic Data Centre
#                                CCDC 
#
#######################################################################
#
# If this CIF has been generated from an entry in the Cambridge 
# Structural Database, then it will include bibliographic, chemical, 
# crystal, experimental, refinement or atomic coordinate data resulting 
# from the CCDC's data processing and validation procedures.
#
#######################################################################

data_CUCBOS
_chemical_formula_moiety         'C17 H21 N3 O1'
_chemical_name_systematic        
(3aR*,10bR*)-1-Cyclohexyl-1,3a,4,10b-tetrahydro-3H-isooxazolo[3',4':3,4]pyrrolo[1,2-a]benzimidazole
_symmetry_cell_setting           monoclinic
_symmetry_space_group_name_H-M   'P 21/c'
_symmetry_Int_Tables_number      14
_space_group_name_Hall           '-P 2ybc'
loop_
_symmetry_equiv_pos_site_id
_symmetry_equiv_pos_as_xyz
1 x,y,z
2 -x,1/2+y,1/2-z
3 -x,-y,-z
4 x,1/2-y,1/2+z
_cell_length_a                   13.672(1)
_cell_length_b                   8.4510(6)
_cell_length_c                   12.2932(9)
_cell_angle_alpha                90
_cell_angle_beta                 98.432(1)
_cell_angle_gamma                90
_cell_volume                     1405.03
_exptl_crystal_colour            colorless
_exptl_crystal_description       plate
_chemical_melting_point          '200 deg.C (dec.)'
_cell_formula_units_Z            4
loop_
_atom_site_label
_atom_site_type_symbol
_atom_site_fract_x
_atom_site_fract_y
_atom_site_fract_z
C1 C 0.82836(10) 0.73408(15) 0.18996(10)
H1 H 0.8445(10) 0.6239(17) 0.2111(11)
N1 N 0.72092(8) 0.76109(12) 0.18669(9)
C2 C 0.88689(10) 0.84805(16) 0.27110(11)
H2 H 0.8721(10) 0.8287(17) 0.3469(12)
H3 H 0.8641(10) 0.9568(17) 0.2490(11)
O1 O 0.69562(7) 0.76273(10) 0.29740(7)
C3 C 0.69080(11) 0.59979(16) 0.33211(11)
H4 H 0.6522(10) 0.5981(17) 0.3949(12)
H5 H 0.7599(11) 0.5600(16) 0.3588(11)
C4 C 0.99798(10) 0.83260(16) 0.26862(11)
H6 H 1.0352(11) 0.9094(18) 0.3245(12)
H7 H 1.0218(11) 0.7233(18) 0.2919(12)
C5 C 0.64297(10) 0.51123(15) 0.23013(11)
H8 H 0.6750(10) 0.4106(17) 0.2235(11)
C6 C 0.52982(10) 0.48712(16) 0.22227(12)
H9 H 0.5073(10) 0.3794(17) 0.1971(11)
H10 H 0.5071(10) 0.5122(17) 0.2944(13)
C7 C 1.02313(11) 0.86344(16) 0.15376(11)
H11 H 1.0051(11) 0.9767(18) 0.1291(12)
H12 H 1.0959(11) 0.8543(16) 0.1516(11)
C8 C 0.96464(11) 0.75240(16) 0.07049(12)
H13 H 0.9888(10) 0.6396(17) 0.0851(11)
H14 H 0.9749(11) 0.7793(17) -0.0067(13)
C9 C 0.39824(10) 0.65246(14) 0.08885(10)
N2 N 0.48986(8) 0.60285(12) 0.13934(9)
C10 C 0.30221(10) 0.61012(15) 0.10214(11)
H15 H 0.2901(11) 0.5283(18) 0.1527(12)
C11 C 0.85359(10) 0.76261(17) 0.07422(11)
H16 H 0.8285(11) 0.8704(18) 0.0494(12)
H17 H 0.8168(11) 0.6872(18) 0.0215(12)
C12 C 0.22684(11) 0.68186(16) 0.03180(12)
H18 H 0.1562(11) 0.6504(17) 0.0345(11)
C13 C 0.24624(11) 0.79453(16) -0.04621(12)
H19 H 0.1913(12) 0.8434(18) -0.0933(13)
C14 C 0.34177(10) 0.83898(16) -0.05738(11)
H20 H 0.3537(11) 0.9191(19) -0.1116(12)
C15 C 0.41953(10) 0.76469(14) 0.00995(11)
C16 C 0.55836(10) 0.68065(14) 0.08943(10)
C17 C 0.66053(10) 0.62855(15) 0.13578(11)
H21 H 0.6922(10) 0.5795(17) 0.0776(12)
N3 N 0.52162(8) 0.77956(12) 0.01182(9)
loop_
_geom_bond_atom_site_label_1
_geom_bond_atom_site_label_2
_geom_bond_site_symmetry_1
_geom_bond_site_symmetry_2
C1 H1 1_555 1_555
N1 C1 1_555 1_555
C2 C1 1_555 1_555
H2 C2 1_555 1_555
H3 C2 1_555 1_555
O1 N1 1_555 1_555
C3 O1 1_555 1_555
H4 C3 1_555 1_555
H5 C3 1_555 1_555
C4 C2 1_555 1_555
H6 C4 1_555 1_555
H7 C4 1_555 1_555
C5 C3 1_555 1_555
H8 C5 1_555 1_555
C6 C5 1_555 1_555
H9 C6 1_555 1_555
H10 C6 1_555 1_555
C7 C4 1_555 1_555
H11 C7 1_555 1_555
H12 C7 1_555 1_555
C8 C7 1_555 1_555
H13 C8 1_555 1_555
H14 C8 1_555 1_555
C9 N2 1_555 1_555
N2 C6 1_555 1_555
C10 C9 1_555 1_555
H15 C10 1_555 1_555
C11 C1 1_555 1_555
H16 C11 1_555 1_555
H17 C11 1_555 1_555
C12 C10 1_555 1_555
H18 C12 1_555 1_555
C13 C12 1_555 1_555
H19 C13 1_555 1_555
C14 C13 1_555 1_555
H20 C14 1_555 1_555
C15 C9 1_555 1_555
C16 N2 1_555 1_555
C17 N1 1_555 1_555
H21 C17 1_555 1_555
N3 C15 1_555 1_555
C5 C17 1_555 1_555
C8 C11 1_555 1_555
C14 C15 1_555 1_555
C16 C17 1_555 1_555
C16 N3 1_555 1_555

#END
