
#######################################################################
#
#                 Cambridge Crystallographic Data Centre
#                                CCDC 
#
#######################################################################
#
# If this CIF has been generated from an entry in the Cambridge 
# Structural Database, then it will include bibliographic, chemical, 
# crystal, experimental, refinement or atomic coordinate data resulting 
# from the CCDC's data processing and validation procedures.
#
#######################################################################

data_CUCCEJ
_chemical_name_common            
(+/-)-14-Cyclohexyl-12-methyl-13-oxa-3,10,14-triazatetracyclo[10.2.1.0$2,10!.0$4,9!]pentadeca-2,4,6,8-tetraene
_chemical_formula_moiety         'C18 H23 N3 O1'
_chemical_name_systematic        
(1R*,4S*)-2-Cyclohexyl-4-methyl-1,2,5-trihydro-1,4-methano[1,2,5]oxadiazepino[5,4-a]benzimidazole
_symmetry_cell_setting           monoclinic
_symmetry_space_group_name_H-M   'P 21/n'
_symmetry_Int_Tables_number      14
_space_group_name_Hall           '-P 2yn'
loop_
_symmetry_equiv_pos_site_id
_symmetry_equiv_pos_as_xyz
1 x,y,z
2 1/2-x,1/2+y,1/2-z
3 -x,-y,-z
4 1/2+x,1/2-y,1/2+z
_cell_length_a                   12.7578(4)
_cell_length_b                   8.4127(3)
_cell_length_c                   14.8281(5)
_cell_angle_alpha                90
_cell_angle_beta                 104.735(1)
_cell_angle_gamma                90
_cell_volume                     1539.12
_exptl_crystal_colour            colorless
_exptl_crystal_description       block
_chemical_melting_point          '198-199 deg.C'
_cell_formula_units_Z            4
loop_
_atom_site_label
_atom_site_type_symbol
_atom_site_fract_x
_atom_site_fract_y
_atom_site_fract_z
N1 N 0.35765(6) 0.66017(9) 0.19280(5)
O1 O 0.27646(5) 0.75814(8) 0.22521(5)
C1 C 0.30290(7) 0.75068(11) 0.32641(6)
C2 C 0.35764(7) 0.90761(11) 0.36456(6)
H1 H 0.3125(9) 0.9975(15) 0.3375(8)
H2 H 0.3704(9) 0.9114(14) 0.4336(8)
N2 N 0.46212(6) 0.91954(9) 0.34103(5)
C3 C 0.53187(7) 1.04754(11) 0.35183(6)
C4 C 0.52564(8) 1.20113(12) 0.38550(7)
H3 H 0.4637(11) 1.2366(16) 0.4082(10)
C5 C 0.61236(8) 1.30148(12) 0.38526(7)
H4 H 0.6115(10) 1.4100(16) 0.4091(9)
C6 C 0.70066(8) 1.25086(12) 0.35194(7)
H5 H 0.7593(11) 1.3241(16) 0.3528(9)
C7 C 0.70573(8) 1.09799(12) 0.31830(7)
H6 H 0.7651(10) 1.0640(15) 0.2939(9)
C8 C 0.62010(7) 0.99444(11) 0.31870(6)
N3 N 0.60379(6) 0.83777(10) 0.28785(6)
C9 C 0.50963(7) 0.79944(11) 0.30276(6)
C10 C 0.44824(7) 0.64680(11) 0.27810(6)
H7 H 0.4963(10) 0.5613(15) 0.2689(8)
C11 C 0.38252(7) 0.75049(10) 0.11585(6)
H8 H 0.4065(9) 0.8603(15) 0.1376(8)
C12 C 0.47478(8) 0.66716(11) 0.08571(7)
H9 H 0.4518(10) 0.5585(16) 0.0663(9)
H10 H 0.5404(11) 0.6592(15) 0.1398(9)
C13 C 0.50218(8) 0.75919(11) 0.00589(7)
H11 H 0.5279(10) 0.8657(15) 0.0294(9)
H12 H 0.5626(11) 0.7049(16) -0.0139(9)
C14 C 0.40371(9) 0.77667(13) -0.07718(7)
H13 H 0.4212(11) 0.8412(17) -0.1277(10)
H14 H 0.3816(11) 0.6705(17) -0.1043(10)
C15 C 0.30829(8) 0.85099(12) -0.04765(7)
H15 H 0.2425(11) 0.8557(16) -0.1015(9)
H16 H 0.3253(10) 0.9659(15) -0.0280(9)
C16 C 0.28212(7) 0.76018(11) 0.03350(6)
H17 H 0.2218(10) 0.8133(16) 0.0538(9)
H18 H 0.2577(10) 0.6503(16) 0.0140(9)
C17 C 0.38399(8) 0.61357(11) 0.34999(7)
H19 H 0.4279(10) 0.6175(15) 0.4163(9)
H20 H 0.3470(10) 0.5112(16) 0.3378(9)
C18 C 0.19876(8) 0.72736(12) 0.35617(7)
H21 H 0.1482(11) 0.8154(17) 0.3357(9)
H22 H 0.2161(11) 0.7190(16) 0.4249(10)
H23 H 0.1623(11) 0.6279(17) 0.3282(10)
loop_
_geom_bond_atom_site_label_1
_geom_bond_atom_site_label_2
_geom_bond_site_symmetry_1
_geom_bond_site_symmetry_2
N1 O1 1_555 1_555
O1 C1 1_555 1_555
C1 C2 1_555 1_555
C2 H1 1_555 1_555
H2 C2 1_555 1_555
N2 C2 1_555 1_555
C3 N2 1_555 1_555
C4 C3 1_555 1_555
H3 C4 1_555 1_555
C5 C4 1_555 1_555
H4 C5 1_555 1_555
C6 C5 1_555 1_555
H5 C6 1_555 1_555
C7 C6 1_555 1_555
H6 C7 1_555 1_555
C8 C3 1_555 1_555
N3 C8 1_555 1_555
C9 N2 1_555 1_555
C10 N1 1_555 1_555
H7 C10 1_555 1_555
C11 N1 1_555 1_555
H8 C11 1_555 1_555
C12 C11 1_555 1_555
H9 C12 1_555 1_555
H10 C12 1_555 1_555
C13 C12 1_555 1_555
H11 C13 1_555 1_555
H12 C13 1_555 1_555
C14 C13 1_555 1_555
H13 C14 1_555 1_555
H14 C14 1_555 1_555
C15 C14 1_555 1_555
H15 C15 1_555 1_555
H16 C15 1_555 1_555
C16 C11 1_555 1_555
H17 C16 1_555 1_555
H18 C16 1_555 1_555
C17 C1 1_555 1_555
H19 C17 1_555 1_555
H20 C17 1_555 1_555
C18 C1 1_555 1_555
H21 C18 1_555 1_555
H22 C18 1_555 1_555
H23 C18 1_555 1_555
C7 C8 1_555 1_555
N3 C9 1_555 1_555
C9 C10 1_555 1_555
C10 C17 1_555 1_555
C15 C16 1_555 1_555

#END
