
#######################################################################
#
#                 Cambridge Crystallographic Data Centre
#                                CCDC 
#
#######################################################################
#
# If this CIF has been generated from an entry in the Cambridge 
# Structural Database, then it will include bibliographic, chemical, 
# crystal, experimental, refinement or atomic coordinate data resulting 
# from the CCDC's data processing and validation procedures.
#
#######################################################################

data_CUCCAF
_chemical_formula_moiety         'C21 H27 N3 O1'
_chemical_name_systematic        
'(Z)-N-((1-(4,4-Dimethylpent-2-ynyl)-1H-benzo[d]imidazol-2-yl)methylene)cyclohexanamine oxide'
_symmetry_cell_setting           monoclinic
_symmetry_space_group_name_H-M   'P 21/c'
_symmetry_Int_Tables_number      14
_space_group_name_Hall           '-P 2ybc'
loop_
_symmetry_equiv_pos_site_id
_symmetry_equiv_pos_as_xyz
1 x,y,z
2 -x,1/2+y,1/2-z
3 -x,-y,-z
4 x,1/2-y,1/2+z
_cell_length_a                   12.8933(16)
_cell_length_b                   6.4419(8)
_cell_length_c                   23.360(3)
_cell_angle_alpha                90
_cell_angle_beta                 100.976(2)
_cell_angle_gamma                90
_cell_volume                     1904.73
_exptl_crystal_colour            colorless
_exptl_crystal_description       rod
_chemical_melting_point          '154-155 deg.C'
_cell_formula_units_Z            4
loop_
_atom_site_label
_atom_site_type_symbol
_atom_site_fract_x
_atom_site_fract_y
_atom_site_fract_z
O1 O 0.31767(8) 0.85534(17) 0.20621(5)
C1 C 0.19090(11) 1.0145(2) 0.13771(6)
H1 H 0.1801(13) 1.116(3) 0.1070(8)
C2 C 0.09787(11) 0.9271(2) 0.15512(6)
N1 N 0.28863(9) 0.97813(18) 0.16264(5)
N2 N 0.01417(9) 1.04348(18) 0.15647(5)
C3 C -0.05846(11) 0.9092(2) 0.17320(6)
C4 C -0.16047(12) 0.9488(2) 0.18265(6)
H2 H -0.1893(13) 1.088(3) 0.1771(7)
C5 C -0.21729(12) 0.7830(2) 0.19829(6)
H3 H -0.2888(14) 0.803(3) 0.2067(8)
C6 C -0.17504(12) 0.5814(2) 0.20450(6)
H4 H -0.2180(14) 0.469(3) 0.2155(8)
C7 C -0.07416(12) 0.5394(2) 0.19541(6)
H5 H -0.0451(14) 0.404(3) 0.1989(7)
C8 C -0.01675(11) 0.7077(2) 0.18026(6)
N3 N 0.08428(9) 0.72263(18) 0.16889(5)
C9 C 0.15382(12) 0.5478(2) 0.16245(6)
H6 H 0.1201(14) 0.425(3) 0.1723(8)
H7 H 0.2204(14) 0.564(3) 0.1896(7)
C10 C 0.17437(11) 0.5319(2) 0.10301(6)
C11 C 0.19101(12) 0.5168(2) 0.05460(6)
C12 C 0.37515(11) 1.0889(2) 0.14067(6)
H8 H 0.3407(13) 1.155(3) 0.1043(7)
C13 C 0.42558(12) 1.2506(2) 0.18507(7)
H9 H 0.4589(13) 1.185(3) 0.2224(7)
H10 H 0.3714(15) 1.346(3) 0.1917(8)
C14 C 0.51315(12) 1.3642(2) 0.16186(7)
H11 H 0.5473(14) 1.465(3) 0.1917(8)
H12 H 0.4807(15) 1.442(3) 0.1265(8)
C15 C 0.59503(12) 1.2110(2) 0.14817(7)
H13 H 0.6519(15) 1.289(3) 0.1332(8)
H14 H 0.6300(14) 1.148(3) 0.1854(8)
C16 C 0.54478(13) 1.0454(3) 0.10499(7)
H15 H 0.5982(16) 0.947(3) 0.0973(9)
H16 H 0.5165(14) 1.109(3) 0.0668(8)
C17 C 0.45618(12) 0.9327(2) 0.12748(7)
H17 H 0.4198(14) 0.831(3) 0.0979(8)
H18 H 0.4856(14) 0.857(3) 0.1653(8)
C18 C 0.20716(13) 0.4962(2) -0.00619(7)
C19 C 0.1375(2) 0.6560(3) -0.04406(9)
H19 H 0.057(2) 0.626(5) -0.0438(12)
H20 H 0.1465(18) 0.647(4) -0.0852(11)
H21 H 0.167(2) 0.784(4) -0.0295(11)
C20 C 0.32332(19) 0.5263(6) -0.00864(9)
H22 H 0.348(2) 0.660(5) 0.0067(14)
H23 H 0.3339(19) 0.504(4) -0.0485(12)
H24 H 0.370(2) 0.423(5) 0.0210(13)
C21 C 0.1735(2) 0.2791(3) -0.02840(9)
H25 H 0.217(2) 0.177(4) -0.0031(12)
H26 H 0.1841(18) 0.259(4) -0.0712(11)
H27 H 0.0985(19) 0.263(4) -0.0268(10)
loop_
_geom_bond_atom_site_label_1
_geom_bond_atom_site_label_2
_geom_bond_site_symmetry_1
_geom_bond_site_symmetry_2
O1 N1 1_555 1_555
C1 H1 1_555 1_555
C2 C1 1_555 1_555
N1 C1 1_555 1_555
N2 C2 1_555 1_555
C3 N2 1_555 1_555
C4 C3 1_555 1_555
H2 C4 1_555 1_555
C5 C4 1_555 1_555
H3 C5 1_555 1_555
C6 C5 1_555 1_555
H4 C6 1_555 1_555
C7 C6 1_555 1_555
H5 C7 1_555 1_555
C8 C3 1_555 1_555
N3 C2 1_555 1_555
C9 N3 1_555 1_555
H6 C9 1_555 1_555
H7 C9 1_555 1_555
C10 C9 1_555 1_555
C11 C10 1_555 1_555
C12 N1 1_555 1_555
H8 C12 1_555 1_555
C13 C12 1_555 1_555
H9 C13 1_555 1_555
H10 C13 1_555 1_555
C14 C13 1_555 1_555
H11 C14 1_555 1_555
H12 C14 1_555 1_555
C15 C14 1_555 1_555
H13 C15 1_555 1_555
H14 C15 1_555 1_555
C16 C15 1_555 1_555
H15 C16 1_555 1_555
H16 C16 1_555 1_555
C17 C12 1_555 1_555
H17 C17 1_555 1_555
H18 C17 1_555 1_555
C18 C11 1_555 1_555
C19 C18 1_555 1_555
H19 C19 1_555 1_555
H20 C19 1_555 1_555
H21 C19 1_555 1_555
C20 C18 1_555 1_555
H22 C20 1_555 1_555
H23 C20 1_555 1_555
H24 C20 1_555 1_555
C21 C18 1_555 1_555
H25 C21 1_555 1_555
H26 C21 1_555 1_555
H27 C21 1_555 1_555
C7 C8 1_555 1_555
C8 N3 1_555 1_555
C16 C17 1_555 1_555

#END
