
#######################################################################
#
#                 Cambridge Crystallographic Data Centre
#                                CCDC 
#
#######################################################################
#
# If this CIF has been generated from an entry in the Cambridge 
# Structural Database, then it will include bibliographic, chemical, 
# crystal, experimental, refinement or atomic coordinate data resulting 
# from the CCDC's data processing and validation procedures.
#
#######################################################################

data_CUCDAH
_chemical_formula_moiety         'C15 H24 O2'
_chemical_name_systematic        
2,6,9-trimethyltricyclo[6.3.1.0^1,5^]dodec-9-ene-4,6-diol
_symmetry_cell_setting           monoclinic
_symmetry_space_group_name_H-M   'P 21'
_symmetry_Int_Tables_number      4
_space_group_name_Hall           'P 2yb'
loop_
_symmetry_equiv_pos_site_id
_symmetry_equiv_pos_as_xyz
1 x,y,z
2 -x,1/2+y,-z
_cell_length_a                   9.1715(7)
_cell_length_b                   6.5653(4)
_cell_length_c                   11.0048(9)
_cell_angle_alpha                90
_cell_angle_beta                 92.9750(10)
_cell_angle_gamma                90
_cell_volume                     661.746
_cell_formula_units_Z            2
loop_
_atom_site_label
_atom_site_type_symbol
_atom_site_fract_x
_atom_site_fract_y
_atom_site_fract_z
O1 O 0.85791(16) 0.3271(2) 0.38522(13)
H1 H 0.9308 0.3657 0.4249
O2 O 0.89258(17) 0.9198(2) 0.45574(12)
H2 H 0.8660 1.0299 0.4272
C1 C 0.5439(2) 0.3709(3) 0.2353(2)
H3 H 0.5008 0.2424 0.2057
C2 C 0.5971(2) 0.3423(4) 0.3696(2)
H4 H 0.5195 0.3844 0.4208
H5 H 0.6143 0.1984 0.3841
C3 C 0.7359(2) 0.4594(3) 0.40920(19)
C4 C 0.7483(2) 0.6595(3) 0.33637(17)
H6 H 0.6708 0.7507 0.3615
C5 C 0.8954(2) 0.7719(3) 0.36022(17)
H7 H 0.9685 0.6692 0.3853
C6 C 0.9357(2) 0.8526(4) 0.23715(19)
H8 H 1.0403 0.8718 0.2342
H9 H 0.8867 0.9806 0.2183
C7 C 0.8819(2) 0.6849(4) 0.15069(19)
H10 H 0.9438 0.5655 0.1676
C8 C 0.7286(2) 0.6338(3) 0.19429(18)
C9 C 0.6107(2) 0.7835(4) 0.14523(19)
H11 H 0.6314 0.9182 0.1780
H12 H 0.6132 0.7912 0.0573
C10 C 0.4614(3) 0.7188(4) 0.1789(2)
H13 H 0.3862 0.8135 0.1696
C11 C 0.4292(2) 0.5358(4) 0.2211(2)
C12 C 0.6750(2) 0.4205(4) 0.15943(19)
H14 H 0.7522 0.3218 0.1757
H15 H 0.6463 0.4156 0.0734
C13 C 0.7375(2) 0.5019(4) 0.54536(19)
H16 H 0.7293 0.3758 0.5886
H17 H 0.6569 0.5887 0.5625
H18 H 0.8274 0.5679 0.5708
C14 C 0.8919(3) 0.7352(5) 0.0159(2)
H19 H 0.8460 0.8642 -0.0012
H20 H 0.8434 0.6311 -0.0323
H21 H 0.9926 0.7419 -0.0036
C15 C 0.2790(2) 0.4829(5) 0.2604(2)
H22 H 0.2824 0.4634 0.3470
H23 H 0.2462 0.3598 0.2207
H24 H 0.2128 0.5917 0.2387
loop_
_geom_bond_atom_site_label_1
_geom_bond_atom_site_label_2
_geom_bond_site_symmetry_1
_geom_bond_site_symmetry_2
O1 H1 1_555 1_555
O2 H2 1_555 1_555
C1 H3 1_555 1_555
C2 C1 1_555 1_555
H4 C2 1_555 1_555
H5 C2 1_555 1_555
C3 O1 1_555 1_555
C4 C3 1_555 1_555
H6 C4 1_555 1_555
C5 O2 1_555 1_555
H7 C5 1_555 1_555
C6 C5 1_555 1_555
H8 C6 1_555 1_555
H9 C6 1_555 1_555
C7 C6 1_555 1_555
H10 C7 1_555 1_555
C8 C4 1_555 1_555
C9 C8 1_555 1_555
H11 C9 1_555 1_555
H12 C9 1_555 1_555
C10 C9 1_555 1_555
H13 C10 1_555 1_555
C11 C1 1_555 1_555
C12 C1 1_555 1_555
H14 C12 1_555 1_555
H15 C12 1_555 1_555
C13 C3 1_555 1_555
H16 C13 1_555 1_555
H17 C13 1_555 1_555
H18 C13 1_555 1_555
C14 C7 1_555 1_555
H19 C14 1_555 1_555
H20 C14 1_555 1_555
H21 C14 1_555 1_555
C15 C11 1_555 1_555
H22 C15 1_555 1_555
H23 C15 1_555 1_555
H24 C15 1_555 1_555
C2 C3 1_555 1_555
C4 C5 1_555 1_555
C7 C8 1_555 1_555
C8 C12 1_555 1_555
C10 C11 1_555 1_555

#END
