
#######################################################################
#
#                 Cambridge Crystallographic Data Centre
#                                CCDC 
#
#######################################################################
#
# If this CIF has been generated from an entry in the Cambridge 
# Structural Database, then it will include bibliographic, chemical, 
# crystal, experimental, refinement or atomic coordinate data resulting 
# from the CCDC's data processing and validation procedures.
#
#######################################################################

data_CUCMAQ
_chemical_formula_moiety         'C26 H21 Cl1 N2 O2'
_chemical_name_systematic        
'Benzyl 3-(4-chlorophenyl)-4-methyl-4,5-dihydropyrrolo[1,2-a]quinoxaline-4-carboxylate'
_symmetry_cell_setting           monoclinic
_symmetry_space_group_name_H-M   'P 21'
_symmetry_Int_Tables_number      4
_space_group_name_Hall           'P 2yb'
loop_
_symmetry_equiv_pos_site_id
_symmetry_equiv_pos_as_xyz
1 x,y,z
2 -x,1/2+y,-z
_cell_length_a                   13.8842(6)
_cell_length_b                   5.6862(2)
_cell_length_c                   14.2638(6)
_cell_angle_alpha                90
_cell_angle_beta                 108.4300(10)
_cell_angle_gamma                90
_cell_volume                     1068.35
_cell_formula_units_Z            2
loop_
_atom_site_label
_atom_site_type_symbol
_atom_site_fract_x
_atom_site_fract_y
_atom_site_fract_z
C1 C 0.79490(17) 0.7277(4) -0.07739(16)
C2 C 0.7688(2) 0.7084(5) -0.17997(18)
C3 C 0.8021(2) 0.8725(6) -0.2331(2)
C4 C 0.8602(2) 1.0600(5) -0.1866(2)
C5 C 0.8867(2) 1.0825(5) -0.0849(2)
C6 C 0.85506(16) 0.9157(4) -0.03054(15)
C7 C 0.96048(17) 1.0483(4) 0.13809(19)
C8 C 0.96422(19) 0.9911(5) 0.23103(19)
C9 C 0.88768(16) 0.8232(4) 0.22710(15)
C10 C 0.75065(16) 0.6269(4) 0.07209(15)
C11 C 0.83865(15) 0.7809(4) 0.12785(15)
C12 C 0.65305(16) 0.7753(4) 0.05099(15)
C13 C 0.86610(18) 0.7156(4) 0.31271(15)
C14 C 0.9206(2) 0.5236(5) 0.3615(2)
C15 C 0.8972(3) 0.4169(7) 0.4383(2)
C16 C 0.8202(2) 0.5025(6) 0.46813(18)
C17 C 0.7664(3) 0.6955(8) 0.4233(2)
C18 C 0.7907(2) 0.8033(7) 0.3470(2)
C19 C 0.5250(2) 0.9115(7) 0.11389(19)
C20 C 0.50636(17) 0.9249(5) 0.21112(16)
C21 C 0.5421(2) 1.1167(6) 0.2709(2)
C22 C 0.5269(3) 1.1303(8) 0.3620(3)
C23 C 0.4746(3) 0.9605(8) 0.3912(2)
C24 C 0.4376(3) 0.7710(8) 0.3327(3)
C25 C 0.4542(2) 0.7511(6) 0.2412(2)
C26 C 0.7421(2) 0.4019(4) 0.12730(19)
Cl1 Cl 0.78784(8) 0.3626(2) 0.56243(6)
H1 H 0.7310(18) 0.573(5) -0.2074(17)
H2 H 0.7872(18) 0.860(6) -0.3010(18)
H3 H 0.884(2) 1.163(6) -0.2238(19)
H4 H 0.9261(18) 1.205(5) -0.0534(16)
H5 H 1.0067(19) 1.147(5) 0.1106(16)
H6 H 1.007(2) 1.048(5) 0.289(2)
H7 H 0.7249(18) 0.456(5) -0.0554(16)
H8 H 0.6892(18) 0.308(5) 0.0858(16)
H9 H 0.808(2) 0.316(6) 0.1439(18)
H10 H 0.7217(17) 0.433(5) 0.1872(17)
H11 H 0.470(2) 0.835(6) 0.064(2)
H12 H 0.532(2) 1.070(6) 0.089(2)
H13 H 0.578(3) 1.241(8) 0.246(2)
H14 H 0.430(2) 0.625(6) 0.202(2)
H15 H 0.412(2) 0.660(7) 0.357(2)
H16 H 0.762(2) 0.934(7) 0.320(2)
H17 H 0.717(2) 0.759(7) 0.452(2)
H18 H 0.932(3) 0.264(8) 0.464(2)
H19 H 0.552(3) 1.282(9) 0.399(3)
H20 H 0.462(2) 0.988(7) 0.453(2)
H21 H 0.971(2) 0.469(6) 0.334(2)
N1 N 0.76667(15) 0.5589(3) -0.02041(14)
N2 N 0.88352(12) 0.9211(3) 0.07396(12)
O1 O 0.61224(12) 0.8755(3) -0.02513(11)
O2 O 0.61847(12) 0.7797(3) 0.12749(11)
loop_
_geom_bond_atom_site_label_1
_geom_bond_atom_site_label_2
_geom_bond_site_symmetry_1
_geom_bond_site_symmetry_2
C1 C2 1_555 1_555
C2 C3 1_555 1_555
C3 C4 1_555 1_555
C4 C5 1_555 1_555
C5 C6 1_555 1_555
C6 C1 1_555 1_555
C7 C8 1_555 1_555
C8 C9 1_555 1_555
C9 C11 1_555 1_555
C10 C11 1_555 1_555
C11 N2 1_555 1_555
C12 C10 1_555 1_555
C13 C9 1_555 1_555
C14 C13 1_555 1_555
C15 C14 1_555 1_555
C16 C15 1_555 1_555
C17 C16 1_555 1_555
C18 C13 1_555 1_555
C19 C20 1_555 1_555
C20 C21 1_555 1_555
C21 C22 1_555 1_555
C22 C23 1_555 1_555
C23 C24 1_555 1_555
C24 C25 1_555 1_555
C25 C20 1_555 1_555
C26 C10 1_555 1_555
Cl1 C16 1_555 1_555
H1 C2 1_555 1_555
H2 C3 1_555 1_555
H3 C4 1_555 1_555
H4 C5 1_555 1_555
H5 C7 1_555 1_555
H6 C8 1_555 1_555
H7 N1 1_555 1_555
H8 C26 1_555 1_555
H9 C26 1_555 1_555
H10 C26 1_555 1_555
H11 C19 1_555 1_555
H12 C19 1_555 1_555
H13 C21 1_555 1_555
H14 C25 1_555 1_555
H15 C24 1_555 1_555
H16 C18 1_555 1_555
H17 C17 1_555 1_555
H18 C15 1_555 1_555
H19 C22 1_555 1_555
H20 C23 1_555 1_555
H21 C14 1_555 1_555
N1 C1 1_555 1_555
N2 C6 1_555 1_555
O1 C12 1_555 1_555
O2 C12 1_555 1_555
C7 N2 1_555 1_555
C10 N1 1_555 1_555
C17 C18 1_555 1_555
C19 O2 1_555 1_555

#END
