
#######################################################################
#
#                 Cambridge Crystallographic Data Centre
#                                CCDC 
#
#######################################################################
#
# If this CIF has been generated from an entry in the Cambridge 
# Structural Database, then it will include bibliographic, chemical, 
# crystal, experimental, refinement or atomic coordinate data resulting 
# from the CCDC's data processing and validation procedures.
#
#######################################################################

data_CUCWON
_chemical_formula_moiety         'C15 H14 N2 O2 S1'
_chemical_name_systematic        
trans-4,5-Dihydroxy-1,3-diphenylimidazolidine-2-thione
_symmetry_cell_setting           orthorhombic
_symmetry_space_group_name_H-M   'P c a 21'
_symmetry_Int_Tables_number      29
_space_group_name_Hall           'P 2c -2ac'
loop_
_symmetry_equiv_pos_site_id
_symmetry_equiv_pos_as_xyz
1 x,y,z
2 -x,-y,1/2+z
3 1/2+x,-y,z
4 1/2-x,y,1/2+z
_cell_length_a                   20.5119(4)
_cell_length_b                   7.1020(4)
_cell_length_c                   9.6659(3)
_cell_angle_alpha                90
_cell_angle_beta                 90
_cell_angle_gamma                90
_cell_volume                     1408.08
_exptl_crystal_colour            colorless
_exptl_crystal_description       block
_cell_formula_units_Z            4
_exptl_crystal_recrystallization_method ethanol
loop_
_atom_site_label
_atom_site_type_symbol
_atom_site_fract_x
_atom_site_fract_y
_atom_site_fract_z
S1 S 0.57085(3) 0.08292(10) 0.82543(8)
O1 O 0.50025(9) 0.6924(3) 0.73031(18)
H1 H 0.5111 0.7982 0.7786
O2 O 0.41663(9) 0.4806(3) 1.01911(19)
H2 H 0.4449 0.4376 1.0700
N1 N 0.55261(10) 0.4549(3) 0.8636(2)
N2 N 0.46089(9) 0.2969(3) 0.8350(2)
C1 C 0.52752(11) 0.2806(4) 0.8419(2)
C2 C 0.50147(11) 0.5976(4) 0.8604(2)
H3 H 0.5071 0.6878 0.9363
C3 C 0.43958(12) 0.4818(4) 0.8810(2)
H4 H 0.4053 0.5286 0.8194
C4 C 0.61952(11) 0.4991(4) 0.8966(2)
C5 C 0.64923(14) 0.4175(4) 1.0118(3)
H5 H 0.6268 0.3293 1.0647
C6 C 0.71267(15) 0.4689(5) 1.0472(4)
H6 H 0.7327 0.4125 1.1229
C7 C 0.74579(15) 0.6012(5) 0.9721(4)
H7 H 0.7880 0.6358 0.9966
C8 C 0.71551(16) 0.6831(6) 0.8587(3)
H8 H 0.7376 0.7737 0.8075
C9 C 0.65245(13) 0.6318(4) 0.8203(3)
H9 H 0.6328 0.6870 0.7437
C10 C 0.41476(10) 0.1456(4) 0.8282(3)
C11 C 0.40282(15) 0.0370(5) 0.9455(3)
H10 H 0.4276 0.0542 1.0251
C12 C 0.35357(17) -0.0971(4) 0.9426(4)
H11 H 0.3456 -0.1715 1.0200
C13 C 0.31627(13) -0.1201(4) 0.8242(4)
H12 H 0.2824 -0.2071 0.8237
C14 C 0.32898(15) -0.0150(5) 0.7067(3)
H13 H 0.3046 -0.0337 0.6268
C15 C 0.37826(14) 0.1181(4) 0.7087(3)
H14 H 0.3870 0.1892 0.6301
loop_
_geom_bond_atom_site_label_1
_geom_bond_atom_site_label_2
_geom_bond_site_symmetry_1
_geom_bond_site_symmetry_2
S1 C1 1_555 1_555
O1 H1 1_555 1_555
O2 H2 1_555 1_555
N1 C1 1_555 1_555
N2 C1 1_555 1_555
C2 O1 1_555 1_555
H3 C2 1_555 1_555
C3 O2 1_555 1_555
H4 C3 1_555 1_555
C4 N1 1_555 1_555
C5 C4 1_555 1_555
H5 C5 1_555 1_555
C6 C5 1_555 1_555
H6 C6 1_555 1_555
C7 C6 1_555 1_555
H7 C7 1_555 1_555
C8 C7 1_555 1_555
H8 C8 1_555 1_555
C9 C4 1_555 1_555
H9 C9 1_555 1_555
C10 N2 1_555 1_555
C11 C10 1_555 1_555
H10 C11 1_555 1_555
C12 C11 1_555 1_555
H11 C12 1_555 1_555
C13 C12 1_555 1_555
H12 C13 1_555 1_555
C14 C13 1_555 1_555
H13 C14 1_555 1_555
C15 C10 1_555 1_555
H14 C15 1_555 1_555
N1 C2 1_555 1_555
N2 C3 1_555 1_555
C2 C3 1_555 1_555
C8 C9 1_555 1_555
C14 C15 1_555 1_555

#END
