
#######################################################################
#
#                 Cambridge Crystallographic Data Centre
#                                CCDC 
#
#######################################################################
#
# If this CIF has been generated from an entry in the Cambridge 
# Structural Database, then it will include bibliographic, chemical, 
# crystal, experimental, refinement or atomic coordinate data resulting 
# from the CCDC's data processing and validation procedures.
#
#######################################################################

data_CUCXAA
_chemical_formula_moiety         'C16 H16 N2 O5,C1 H4 O1'
_chemical_name_systematic        
"(E)-N'-(3,4-Dimethoxybenzylidene)-2,4-dihydroxybenzohydrazide methanol solvate"
_symmetry_cell_setting           monoclinic
_symmetry_space_group_name_H-M   'P 21/n'
_symmetry_Int_Tables_number      14
_space_group_name_Hall           '-P 2yn'
loop_
_symmetry_equiv_pos_site_id
_symmetry_equiv_pos_as_xyz
1 x,y,z
2 1/2-x,1/2+y,1/2-z
3 -x,-y,-z
4 1/2+x,1/2-y,1/2+z
_cell_length_a                   8.497(1)
_cell_length_b                   17.431(2)
_cell_length_c                   11.933(2)
_cell_angle_alpha                90
_cell_angle_beta                 102.93(2)
_cell_angle_gamma                90
_cell_volume                     1722.6
_exptl_crystal_colour            colorless
_exptl_crystal_description       block
_cell_formula_units_Z            4
_exptl_crystal_recrystallization_method 'absolute methanol'
loop_
_atom_site_label
_atom_site_type_symbol
_atom_site_fract_x
_atom_site_fract_y
_atom_site_fract_z
N1 N 0.9655(2) 0.08862(10) 0.61461(15)
N2 N 0.8536(2) 0.03538(10) 0.56016(14)
O1 O 1.2219(2) 0.05972(9) 0.95309(12)
H1 H 1.1561 0.0316 0.9118
O2 O 1.52034(18) 0.28449(9) 0.94432(11)
H2 H 1.5442 0.3149 0.8984
O3 O 1.01873(19) 0.01674(9) 0.77490(12)
O4 O 0.42243(18) -0.17176(9) 0.40757(13)
O5 O 0.29676(18) -0.13286(8) 0.19882(13)
C1 C 1.1618(2) 0.13446(11) 0.77945(16)
C2 C 1.2479(3) 0.12222(12) 0.89285(17)
C3 C 1.3640(3) 0.17364(13) 0.94638(17)
H4 H 1.4178 0.1655 1.0223
C4 C 1.4008(2) 0.23680(12) 0.88820(17)
C5 C 1.3173(3) 0.25089(12) 0.77654(17)
H5 H 1.3401 0.2942 0.7375
C6 C 1.2005(2) 0.20011(12) 0.72414(17)
H6 H 1.1450 0.2098 0.6490
C7 C 1.0444(2) 0.07663(12) 0.72359(17)
C8 C 0.7848(2) 0.05124(12) 0.45725(18)
H7 H 0.8152 0.0956 0.4242
C9 C 0.6598(2) 0.00287(11) 0.38858(17)
C10 C 0.6063(2) -0.06345(11) 0.43485(17)
H8 H 0.6532 -0.0781 0.5098
C11 C 0.4845(2) -0.10693(11) 0.36970(18)
C12 C 0.4150(2) -0.08531(12) 0.25628(18)
C13 C 0.4679(3) -0.02028(12) 0.21043(18)
H9 H 0.4218 -0.0057 0.1353
C14 C 0.5908(3) 0.02357(12) 0.27733(17)
H10 H 0.6267 0.0674 0.2463
C15 C 0.4975(3) -0.19856(14) 0.5184(2)
H11 H 0.6088 -0.2100 0.5209
H12 H 0.4437 -0.2441 0.5353
H13 H 0.4912 -0.1597 0.5743
C16 C 0.2220(3) -0.11211(15) 0.0836(2)
H14 H 0.1795 -0.0610 0.0826
H15 H 0.1358 -0.1473 0.0539
H16 H 0.3004 -0.1141 0.0369
H20 H 0.979(2) 0.1297(8) 0.5719(15)
O6 O 0.6296(2) 0.37824(9) 0.81028(13)
H3 H 0.5949 0.4222 0.8007
C17 C 0.6766(4) 0.35311(16) 0.7103(2)
H17 H 0.7812 0.3736 0.7093
H18 H 0.5995 0.3705 0.6436
H19 H 0.6812 0.2981 0.7099
loop_
_geom_bond_atom_site_label_1
_geom_bond_atom_site_label_2
_geom_bond_site_symmetry_1
_geom_bond_site_symmetry_2
N1 N2 1_555 1_555
N2 C8 1_555 1_555
O1 H1 1_555 1_555
O2 H2 1_555 1_555
O3 C7 1_555 1_555
O4 C11 1_555 1_555
O5 C12 1_555 1_555
O6 H3 1_555 1_555
C1 C2 1_555 1_555
C2 O1 1_555 1_555
C3 C2 1_555 1_555
H4 C3 1_555 1_555
C4 O2 1_555 1_555
C5 C4 1_555 1_555
H5 C5 1_555 1_555
C6 C1 1_555 1_555
H6 C6 1_555 1_555
C7 N1 1_555 1_555
C8 H7 1_555 1_555
C9 C8 1_555 1_555
C10 C9 1_555 1_555
H8 C10 1_555 1_555
C11 C10 1_555 1_555
C12 C11 1_555 1_555
C13 C12 1_555 1_555
H9 C13 1_555 1_555
C14 C9 1_555 1_555
H10 C14 1_555 1_555
C15 O4 1_555 1_555
H11 C15 1_555 1_555
H12 C15 1_555 1_555
H13 C15 1_555 1_555
C16 O5 1_555 1_555
H14 C16 1_555 1_555
H15 C16 1_555 1_555
H16 C16 1_555 1_555
C17 O6 1_555 1_555
H17 C17 1_555 1_555
H18 C17 1_555 1_555
H19 C17 1_555 1_555
H20 N1 1_555 1_555
C1 C7 1_555 1_555
C3 C4 1_555 1_555
C5 C6 1_555 1_555
C13 C14 1_555 1_555

#END
