
#######################################################################
#
#                 Cambridge Crystallographic Data Centre
#                                CCDC 
#
#######################################################################
#
# If this CIF has been generated from an entry in the Cambridge 
# Structural Database, then it will include bibliographic, chemical, 
# crystal, experimental, refinement or atomic coordinate data resulting 
# from the CCDC's data processing and validation procedures.
#
#######################################################################

data_CUCXUU
_chemical_formula_moiety         'C10 H13 N2 O4 1+,Br1 1-'
_chemical_name_systematic        
'(S)-1-Methoxycarbonyl-3-(4-nitrophenyl)propan-2-aminium bromide'
_symmetry_cell_setting           monoclinic
_symmetry_space_group_name_H-M   'P 21'
_symmetry_Int_Tables_number      4
_space_group_name_Hall           'P 2yb'
loop_
_symmetry_equiv_pos_site_id
_symmetry_equiv_pos_as_xyz
1 x,y,z
2 -x,1/2+y,-z
_cell_length_a                   4.9323(10)
_cell_length_b                   8.6233(17)
_cell_length_c                   15.226(3)
_cell_angle_alpha                90
_cell_angle_beta                 95.77(3)
_cell_angle_gamma                90
_cell_volume                     644.322
_exptl_crystal_colour            colorless
_exptl_crystal_description       needle
_cell_formula_units_Z            2
loop_
_atom_site_label
_atom_site_type_symbol
_atom_site_fract_x
_atom_site_fract_y
_atom_site_fract_z
C1 C 0.4984(8) 0.4001(4) 0.7127(2)
C2 C 0.8039(10) 0.2806(6) 0.6203(3)
H1 H 0.9359 0.2063 0.6122
C3 C 0.3794(8) 0.4113(5) 0.7995(2)
H2 H 0.3349 0.3081 0.8188
H3 H 0.2118 0.4708 0.7916
C4 C 0.7186(9) 0.3798(6) 0.5544(3)
C5 C 0.4128(9) 0.5000(5) 0.6421(3)
H4 H 0.2796 0.5742 0.6489
C6 C 0.5236(10) 0.4886(6) 0.5644(3)
H5 H 0.4667 0.5550 0.5180
C7 C 0.6940(9) 0.2910(5) 0.6986(3)
H6 H 0.7523 0.2226 0.7439
O1 O 0.7970(5) 0.6832(4) 0.79876(16)
C8 C 0.6074(6) 0.6629(6) 0.85319(19)
O2 O 0.4710(6) 0.7600(3) 0.88109(18)
C9 C 0.5764(8) 0.4886(4) 0.8712(2)
H7 H 0.7551 0.4384 0.8731
N1 N 0.8359(11) 0.3691(6) 0.4697(3)
O3 O 1.0072(9) 0.2696(7) 0.4603(2)
O4 O 0.7514(11) 0.4561(6) 0.4108(3)
C10 C 0.8330(12) 0.8435(6) 0.7701(3)
H8 H 0.9736 0.8472 0.7308
H9 H 0.8837 0.9076 0.8206
H10 H 0.6653 0.8808 0.7399
N2 N 0.4679(6) 0.4728(4) 0.95973(18)
H11 H 0.6015 0.4736 1.0021
H12 H 0.3245 0.5428 0.9591
H13 H 0.3835 0.3672 0.9607
Br1 Br 0.99538(6) 0.66497(4) 0.05395(2)
loop_
_geom_bond_atom_site_label_1
_geom_bond_atom_site_label_2
_geom_bond_site_symmetry_1
_geom_bond_site_symmetry_2
C1 C3 1_555 1_555
C2 H1 1_555 1_555
C3 H2 1_555 1_555
H3 C3 1_555 1_555
C4 C2 1_555 1_555
C5 C1 1_555 1_555
H4 C5 1_555 1_555
C6 C4 1_555 1_555
H5 C6 1_555 1_555
C7 C1 1_555 1_555
H6 C7 1_555 1_555
O1 C8 1_555 1_555
C8 O2 1_555 1_555
C9 C3 1_555 1_555
H7 C9 1_555 1_555
N1 C4 1_555 1_555
O3 N1 1_555 1_555
O4 N1 1_555 1_555
C10 O1 1_555 1_555
H8 C10 1_555 1_555
H9 C10 1_555 1_555
H10 C10 1_555 1_555
N2 C9 1_555 1_555
H11 N2 1_555 1_555
H12 N2 1_555 1_555
H13 N2 1_555 1_555
C2 C7 1_555 1_555
C5 C6 1_555 1_555
C8 C9 1_555 1_555

#END
