
#######################################################################
#
#                 Cambridge Crystallographic Data Centre
#                                CCDC 
#
#######################################################################
#
# If this CIF has been generated from an entry in the Cambridge 
# Structural Database, then it will include bibliographic, chemical, 
# crystal, experimental, refinement or atomic coordinate data resulting 
# from the CCDC's data processing and validation procedures.
#
#######################################################################

data_CUCZEG
_chemical_formula_moiety         'C7 H7 N2 1+,Br1 1-'
_chemical_name_systematic        '2-Cyanoanilinium bromide'
_symmetry_cell_setting           monoclinic
_symmetry_space_group_name_H-M   'C c'
_symmetry_Int_Tables_number      9
_space_group_name_Hall           'C -2yc'
loop_
_symmetry_equiv_pos_site_id
_symmetry_equiv_pos_as_xyz
1 x,y,z
2 x,-y,1/2+z
3 1/2+x,1/2+y,z
4 1/2+x,1/2-y,1/2+z
_cell_length_a                   5.7844(12)
_cell_length_b                   15.896(3)
_cell_length_c                   8.4882(17)
_cell_angle_alpha                90
_cell_angle_beta                 92.72(3)
_cell_angle_gamma                90
_cell_volume                     779.601
_exptl_crystal_colour            colorless
_exptl_crystal_description       needle
_cell_formula_units_Z            4
loop_
_atom_site_label
_atom_site_type_symbol
_atom_site_fract_x
_atom_site_fract_y
_atom_site_fract_z
Br1 Br 0.05750(10) 0.208462(17) 0.44566(9)
N1 N 0.0515(5) 0.32177(17) 0.7619(3)
H1 H 0.0332 0.2950 0.6701
H2 H -0.0713 0.3127 0.8188
H3 H 0.1780 0.3027 0.8140
C1 C -0.0799(6) 0.4675(3) 0.7945(5)
H4 H -0.2028 0.4473 0.8503
C2 C 0.2867(8) 0.5276(3) 0.6309(5)
H5 H 0.4102 0.5483 0.5762
C3 C 0.0755(6) 0.4115(2) 0.7337(5)
C4 C 0.1322(8) 0.5822(3) 0.6917(5)
H6 H 0.1516 0.6399 0.6788
C5 C 0.4233(6) 0.3856(2) 0.5783(4)
N2 N 0.5521(6) 0.3440(2) 0.5163(4)
C6 C 0.2611(6) 0.4411(3) 0.6501(4)
C7 C -0.0547(7) 0.5521(3) 0.7733(5)
H7 H -0.1613 0.5894 0.8130
loop_
_geom_bond_atom_site_label_1
_geom_bond_atom_site_label_2
_geom_bond_site_symmetry_1
_geom_bond_site_symmetry_2
N1 H1 1_555 1_555
H2 N1 1_555 1_555
H3 N1 1_555 1_555
C1 H4 1_555 1_555
C2 H5 1_555 1_555
C3 N1 1_555 1_555
C4 C2 1_555 1_555
H6 C4 1_555 1_555
C5 N2 1_555 1_555
C6 C2 1_555 1_555
C7 C1 1_555 1_555
H7 C7 1_555 1_555
C1 C3 1_555 1_555
C3 C6 1_555 1_555
C4 C7 1_555 1_555
C5 C6 1_555 1_555

#END
