
#######################################################################
#
#                 Cambridge Crystallographic Data Centre
#                                CCDC 
#
#######################################################################
#
# If this CIF has been generated from an entry in the Cambridge 
# Structural Database, then it will include bibliographic, chemical, 
# crystal, experimental, refinement or atomic coordinate data resulting 
# from the CCDC's data processing and validation procedures.
#
#######################################################################

data_CUDBAF
_chemical_formula_moiety         'C17 H18 N2 O6'
_chemical_name_systematic        
2,4-Dihydroxy-N'-(3,4,5-trimethoxybenzylidene)benzohydrazide
_symmetry_cell_setting           orthorhombic
_symmetry_space_group_name_H-M   'P b c a'
_symmetry_Int_Tables_number      61
_space_group_name_Hall           '-P 2ac 2ab'
loop_
_symmetry_equiv_pos_site_id
_symmetry_equiv_pos_as_xyz
1 x,y,z
2 1/2-x,-y,1/2+z
3 -x,1/2+y,1/2-z
4 1/2+x,1/2-y,-z
5 -x,-y,-z
6 1/2+x,y,1/2-z
7 x,1/2-y,1/2+z
8 1/2-x,1/2+y,z
_cell_length_a                   14.6010(10)
_cell_length_b                   11.030(2)
_cell_length_c                   20.006(2)
_cell_angle_alpha                90
_cell_angle_beta                 90
_cell_angle_gamma                90
_cell_volume                     3221.95
_exptl_crystal_colour            colorless
_exptl_crystal_description       block
_cell_formula_units_Z            8
loop_
_atom_site_label
_atom_site_type_symbol
_atom_site_fract_x
_atom_site_fract_y
_atom_site_fract_z
N1 N -0.07006(12) 0.46657(17) 0.36310(9)
N2 N 0.00500(12) 0.44220(16) 0.40282(9)
O1 O 0.01502(10) 0.60011(16) 0.30628(8)
O2 O -0.04899(12) 0.72863(18) 0.21335(9)
H1 H -0.0112 0.7057 0.2409
O3 O -0.33269(11) 0.63390(17) 0.12189(8)
H2 H -0.3814 0.6018 0.1322
O4 O 0.12167(11) 0.13843(16) 0.63808(9)
O5 O 0.28830(10) 0.21803(14) 0.60976(8)
O6 O 0.31779(11) 0.37901(16) 0.51322(9)
C1 C -0.21013(15) 0.4894(2) 0.25893(12)
H3 H -0.2169 0.4251 0.2886
C2 C -0.13151(14) 0.56173(19) 0.26278(11)
C3 C -0.12280(15) 0.6558(2) 0.21550(11)
C4 C -0.19085(16) 0.6778(2) 0.16936(12)
H4 H -0.1843 0.7408 0.1388
C5 C -0.26856(15) 0.6071(2) 0.16830(11)
C6 C -0.27758(15) 0.5110(2) 0.21243(11)
H5 H -0.3290 0.4613 0.2106
C7 C -0.05838(14) 0.54391(19) 0.31173(11)
C8 C -0.00724(15) 0.3683(2) 0.45107(11)
H6 H -0.0652 0.3366 0.4593
C9 C 0.07007(15) 0.33347(19) 0.49349(11)
C10 C 0.15711(15) 0.3793(2) 0.48163(11)
H7 H 0.1665 0.4351 0.4475
C11 C 0.22944(15) 0.3418(2) 0.52056(12)
C12 C 0.21532(15) 0.2592(2) 0.57258(11)
C13 C 0.12835(16) 0.2157(2) 0.58524(11)
C14 C 0.05539(15) 0.2521(2) 0.54515(11)
H8 H -0.0031 0.2219 0.5530
C15 C 0.33483(18) 0.4696(3) 0.46434(14)
H9 H 0.3242 0.4367 0.4206
H10 H 0.3973 0.4962 0.4677
H11 H 0.2946 0.5371 0.4717
C16 C 0.3270(2) 0.3053(2) 0.65403(14)
H12 H 0.3195 0.3850 0.6355
H13 H 0.3910 0.2887 0.6599
H14 H 0.2966 0.3010 0.6965
C17 C 0.03536(19) 0.0858(3) 0.65186(14)
H15 H -0.0098 0.1486 0.6560
H16 H 0.0387 0.0408 0.6929
H17 H 0.0186 0.0323 0.6160
H18 H -0.1231(10) 0.4289(19) 0.3709(11)
loop_
_geom_bond_atom_site_label_1
_geom_bond_atom_site_label_2
_geom_bond_site_symmetry_1
_geom_bond_site_symmetry_2
N1 N2 1_555 1_555
N2 C8 1_555 1_555
O1 C7 1_555 1_555
O2 H1 1_555 1_555
O3 H2 1_555 1_555
O4 C13 1_555 1_555
O5 C12 1_555 1_555
O6 C11 1_555 1_555
C1 H3 1_555 1_555
C2 C1 1_555 1_555
C3 O2 1_555 1_555
C4 C3 1_555 1_555
H4 C4 1_555 1_555
C5 O3 1_555 1_555
C6 C1 1_555 1_555
H5 C6 1_555 1_555
C7 N1 1_555 1_555
C8 H6 1_555 1_555
C9 C8 1_555 1_555
C10 C9 1_555 1_555
H7 C10 1_555 1_555
C11 C10 1_555 1_555
C12 C11 1_555 1_555
C13 C12 1_555 1_555
C14 C9 1_555 1_555
H8 C14 1_555 1_555
C15 O6 1_555 1_555
H9 C15 1_555 1_555
H10 C15 1_555 1_555
H11 C15 1_555 1_555
C16 O5 1_555 1_555
H12 C16 1_555 1_555
H13 C16 1_555 1_555
H14 C16 1_555 1_555
C17 O4 1_555 1_555
H15 C17 1_555 1_555
H16 C17 1_555 1_555
H17 C17 1_555 1_555
H18 N1 1_555 1_555
C2 C3 1_555 1_555
C2 C7 1_555 1_555
C4 C5 1_555 1_555
C5 C6 1_555 1_555
C13 C14 1_555 1_555

#END
