
#######################################################################
#
#                 Cambridge Crystallographic Data Centre
#                                CCDC 
#
#######################################################################
#
# If this CIF has been generated from an entry in the Cambridge 
# Structural Database, then it will include bibliographic, chemical, 
# crystal, experimental, refinement or atomic coordinate data resulting 
# from the CCDC's data processing and validation procedures.
#
#######################################################################

data_CUDFOW
_chemical_formula_moiety         'C8 H20 N2 O2'
_chemical_name_systematic        
dl-2,5-Dimethyl-3,4-dihydroxy-2,5-diaminohexane
_symmetry_cell_setting           orthorhombic
_symmetry_space_group_name_H-M   'P b c a'
_symmetry_Int_Tables_number      61
_space_group_name_Hall           '-P 2ac 2ab'
loop_
_symmetry_equiv_pos_site_id
_symmetry_equiv_pos_as_xyz
1 x,y,z
2 1/2-x,1/2+y,z
3 x,1/2-y,1/2+z
4 1/2-x,-y,1/2+z
5 -x,-y,-z
6 1/2+x,1/2-y,-z
7 -x,1/2+y,1/2-z
8 1/2+x,y,1/2-z
_cell_length_a                   9.372(2)
_cell_length_b                   10.937(3)
_cell_length_c                   20.142(4)
_cell_angle_alpha                90
_cell_angle_beta                 90
_cell_angle_gamma                90
_cell_volume                     2064.59
_chemical_melting_point          160-162deg.C
_cell_formula_units_Z            8
loop_
_atom_site_label
_atom_site_type_symbol
_atom_site_fract_x
_atom_site_fract_y
_atom_site_fract_z
O1 O -0.0949(2) 0.2407(2) 0.1897(1)
O2 O 0.1344(2) 0.0517(2) 0.1691(1)
N1 N -0.1298(3) -0.0110(3) 0.2050(2)
N2 N 0.1837(3) 0.3037(3) 0.1753(1)
C1 C -0.3323(3) 0.0941(3) 0.1505(2)
C2 C -0.1783(3) 0.0517(2) 0.1444(1)
C3 C -0.0803(3) 0.1621(2) 0.1338(1)
C4 C 0.0753(3) 0.1294(3) 0.1194(1)
C5 C 0.1762(3) 0.2401(3) 0.1110(1)
C6 C 0.3219(3) 0.1938(3) 0.0891(2)
C7 C -0.1655(3) -0.0380(3) 0.0867(2)
C8 C 0.1178(4) 0.3289(3) 0.0597(2)
H1 H -0.002 0.282 0.194
H2 H 0.056 0.015 0.191
H3 H -0.180 -0.080 0.205
H4 H -0.152 0.039 0.243
H5 H 0.232 0.375 0.171
H6 H 0.230 0.256 0.208
H7 H -0.3662 0.1370 0.1049
H8 H -0.3433 0.1580 0.1911
H9 H -0.3976 0.0146 0.1600
H10 H -0.116 0.207 0.094
H11 H 0.077 0.085 0.076
H12 H 0.3163 0.1519 0.0406
H13 H 0.3623 0.1283 0.1246
H14 H 0.3923 0.2719 0.0872
H15 H -0.1834 0.0128 0.0415
H16 H -0.2461 -0.1080 0.0916
H17 H -0.0613 -0.0801 0.0850
H18 H 0.1024 0.2831 0.0127
H19 H 0.1977 0.3993 0.0542
H20 H 0.0184 0.3697 0.0754
loop_
_geom_bond_atom_site_label_1
_geom_bond_atom_site_label_2
_geom_bond_site_symmetry_1
_geom_bond_site_symmetry_2
O1 C3 1_555 1_555
O2 C4 1_555 1_555
N1 C2 1_555 1_555
N2 C5 1_555 1_555
C1 C2 1_555 1_555
C2 C3 1_555 1_555
C3 C4 1_555 1_555
C4 C5 1_555 1_555
C5 C6 1_555 1_555
C6 H12 1_555 1_555
C7 C2 1_555 1_555
C8 C5 1_555 1_555
H1 O1 1_555 1_555
H2 O2 1_555 1_555
H3 N1 1_555 1_555
H4 N1 1_555 1_555
H5 N2 1_555 1_555
H6 N2 1_555 1_555
H7 C1 1_555 1_555
H8 C1 1_555 1_555
H9 C1 1_555 1_555
H10 C3 1_555 1_555
H11 C4 1_555 1_555
H13 C6 1_555 1_555
H14 C6 1_555 1_555
H15 C7 1_555 1_555
H16 C7 1_555 1_555
H17 C7 1_555 1_555
H18 C8 1_555 1_555
H19 C8 1_555 1_555
H20 C8 1_555 1_555

#END
