
#######################################################################
#
#                 Cambridge Crystallographic Data Centre
#                                CCDC 
#
#######################################################################
#
# If this CIF has been generated from an entry in the Cambridge 
# Structural Database, then it will include bibliographic, chemical, 
# crystal, experimental, refinement or atomic coordinate data resulting 
# from the CCDC's data processing and validation procedures.
#
#######################################################################

data_CUFTEC01
_chemical_formula_moiety         'C16 H11 N1 O1'
_chemical_name_systematic        5-Methylindeno[1,2-b]indol-10(5H)-one
_symmetry_cell_setting           orthorhombic
_symmetry_space_group_name_H-M   'P 21 21 21'
_symmetry_Int_Tables_number      19
_space_group_name_Hall           'P 2ac 2ab'
loop_
_symmetry_equiv_pos_site_id
_symmetry_equiv_pos_as_xyz
1 x,y,z
2 1/2-x,-y,1/2+z
3 1/2+x,1/2-y,-z
4 -x,1/2+y,1/2-z
_cell_length_a                   5.4847(3)
_cell_length_b                   13.0638(8)
_cell_length_c                   15.9677(11)
_cell_angle_alpha                90
_cell_angle_beta                 90
_cell_angle_gamma                90
_cell_volume                     1144.1
_exptl_crystal_colour            red
_exptl_crystal_description       block
_cell_formula_units_Z            4
loop_
_atom_site_label
_atom_site_type_symbol
_atom_site_fract_x
_atom_site_fract_y
_atom_site_fract_z
O1 O 0.2276(3) 0.67610(10) 0.36642(8)
N1 N 0.1894(3) 0.92973(11) 0.16418(10)
C1 C -0.0043(3) 0.86750(14) 0.13811(12)
C2 C -0.1597(4) 0.88148(16) 0.07129(13)
H1 H -0.1441 0.9376 0.0359
C3 C -0.3393(4) 0.80903(17) 0.05892(13)
H2 H -0.4468 0.8163 0.0143
C4 C -0.3620(4) 0.72502(17) 0.11236(12)
H3 H -0.4844 0.6772 0.1026
C5 C -0.2074(3) 0.71158(15) 0.17911(12)
H4 H -0.2251 0.6554 0.2144
C6 C -0.0234(3) 0.78317(14) 0.19336(11)
C7 C 0.1660(3) 0.79782(13) 0.25379(11)
C8 C 0.2874(3) 0.88641(13) 0.23331(11)
C9 C 0.4853(4) 0.90951(14) 0.29233(12)
C10 C 0.4762(3) 0.82967(14) 0.35183(12)
C11 C 0.2754(4) 0.75528(14) 0.32852(12)
C12 C 0.6346(4) 0.82584(16) 0.41730(13)
H5 H 0.6260 0.7732 0.4564
C13 C 0.8103(4) 0.90275(16) 0.42446(14)
H6 H 0.9207 0.9014 0.4687
C14 C 0.8208(4) 0.98043(16) 0.36643(13)
H7 H 0.9388 1.0311 0.3721
C15 C 0.6586(4) 0.98494(15) 0.29933(13)
H8 H 0.6675 1.0377 0.2603
C16 C 0.2691(4) 1.02187(14) 0.12016(13)
H9 H 0.1494 1.0748 0.1271
H10 H 0.2881 1.0069 0.0617
H11 H 0.4221 1.0444 0.1428
loop_
_geom_bond_atom_site_label_1
_geom_bond_atom_site_label_2
_geom_bond_site_symmetry_1
_geom_bond_site_symmetry_2
O1 C11 1_555 1_555
N1 C1 1_555 1_555
C1 C2 1_555 1_555
C2 H1 1_555 1_555
C3 C2 1_555 1_555
H2 C3 1_555 1_555
C4 C3 1_555 1_555
H3 C4 1_555 1_555
C5 C4 1_555 1_555
H4 C5 1_555 1_555
C6 C1 1_555 1_555
C7 C6 1_555 1_555
C8 N1 1_555 1_555
C9 C8 1_555 1_555
C10 C9 1_555 1_555
C11 C7 1_555 1_555
C12 C10 1_555 1_555
H5 C12 1_555 1_555
C13 C12 1_555 1_555
H6 C13 1_555 1_555
C14 C13 1_555 1_555
H7 C14 1_555 1_555
C15 C9 1_555 1_555
H8 C15 1_555 1_555
C16 N1 1_555 1_555
H9 C16 1_555 1_555
H10 C16 1_555 1_555
H11 C16 1_555 1_555
C5 C6 1_555 1_555
C7 C8 1_555 1_555
C10 C11 1_555 1_555
C14 C15 1_555 1_555

#END
