
#######################################################################
#
#                 Cambridge Crystallographic Data Centre
#                                CCDC 
#
#######################################################################
#
# If this CIF has been generated from an entry in the Cambridge 
# Structural Database, then it will include bibliographic, chemical, 
# crystal, experimental, refinement or atomic coordinate data resulting 
# from the CCDC's data processing and validation procedures.
#
#######################################################################

data_CUHBAK
_chemical_formula_moiety         'C23 H20 O5 S1'
_chemical_name_systematic        
1,1'-((2-(hydroxymethyl)-2,3-dihydrothieno[3,4-b][1,4]dioxine-5,7-diyl)di-4,1-phenylene)diethanone
_symmetry_cell_setting           triclinic
_symmetry_space_group_name_H-M   'P -1'
_symmetry_Int_Tables_number      2
_space_group_name_Hall           '-P 1'
loop_
_symmetry_equiv_pos_site_id
_symmetry_equiv_pos_as_xyz
1 x,y,z
2 -x,-y,-z
_cell_length_a                   11.9644(3)
_cell_length_b                   12.3239(4)
_cell_length_c                   13.9643(5)
_cell_angle_alpha                86.2826(10)
_cell_angle_beta                 65.3443(12)
_cell_angle_gamma                88.544(3)
_cell_volume                     1867.35
_exptl_crystal_colour            yellow
_exptl_crystal_description       block
_cell_formula_units_Z            4
loop_
_atom_site_label
_atom_site_type_symbol
_atom_site_fract_x
_atom_site_fract_y
_atom_site_fract_z
S1 S 0.55030(5) 0.41623(4) 0.25407(4)
O1 O 0.8561(2) 0.05513(15) 0.54374(19)
O2 O 0.27490(17) 0.84747(14) 0.05306(16)
C1 C 0.56522(19) 0.27985(17) 0.28360(17)
C2 C 0.5057(2) 0.21833(17) 0.23993(17)
C3 C 0.4479(2) 0.28147(18) 0.18476(18)
C4 C 0.46162(19) 0.39156(17) 0.18582(17)
O3 O 0.5015(2) 0.10696(13) 0.2466(2)
O4 O 0.3834(3) 0.23756(15) 0.1357(2)
O5 O 0.4246(2) -0.11661(19) 0.2898(2)
H1 H 0.4788 -0.1007 0.3100
C5 C 0.4113(2) 0.0638(2) 0.2142(2)
H2 H 0.3271 0.0701 0.2722
C6 C 0.4163(3) 0.1244(2) 0.1160(2)
H3 H 0.5003 0.1199 0.0592
H4 H 0.3587 0.0907 0.0923
C7 C 0.4430(3) -0.0545(2) 0.1960(3)
H5 H 0.3916 -0.0848 0.1639
H6 H 0.5301 -0.0604 0.1453
C8 C 0.63171(19) 0.24665(17) 0.34827(17)
C9 C 0.6264(2) 0.13946(18) 0.38994(19)
H7 H 0.5811 0.0863 0.3746
C10 C 0.6870(2) 0.11042(18) 0.4534(2)
H8 H 0.6829 0.0372 0.4806
C11 C 0.7537(2) 0.18626(18) 0.47846(19)
C12 C 0.7576(2) 0.29374(18) 0.43833(18)
H9 H 0.8008 0.3472 0.4557
C13 C 0.6993(2) 0.32279(18) 0.37386(18)
H10 H 0.7048 0.3958 0.3460
C14 C 0.8208(2) 0.1490(2) 0.5443(2)
C15 C 0.8432(2) 0.2301(2) 0.6101(2)
H11 H 0.8792 0.1931 0.6548
H12 H 0.7651 0.2636 0.6547
H13 H 0.8999 0.2864 0.5637
C16 C 0.41123(19) 0.48137(17) 0.14356(17)
C17 C 0.4446(2) 0.58866(18) 0.1489(2)
H14 H 0.5023 0.6013 0.1774
C18 C 0.3945(2) 0.67582(19) 0.1134(2)
H15 H 0.4173 0.7477 0.1187
C19 C 0.3105(2) 0.65986(18) 0.06969(18)
C20 C 0.2808(2) 0.55336(18) 0.06127(18)
H16 H 0.2260 0.5409 0.0298
C21 C 0.3292(2) 0.46526(18) 0.09759(18)
H17 H 0.3068 0.3935 0.0914
C22 C 0.2580(2) 0.7557(2) 0.03341(19)
C23 C 0.1854(2) 0.7392(2) -0.0297(2)
H18 H 0.1599 0.8099 -0.0500
H19 H 0.1124 0.6952 0.0130
H20 H 0.2364 0.7017 -0.0932
S2 S 0.06783(5) 0.49508(4) 0.34744(4)
O6 O 0.08970(14) 0.18813(12) 0.29838(12)
O7 O -0.01695(14) 0.30992(12) 0.17323(12)
O8 O -0.03052(19) -0.01632(17) 0.30714(17)
H21 H -0.0237 -0.0192 0.3647
C24 C 0.0863(2) 0.1457(2) 0.2058(2)
H22 H 0.1631 0.1668 0.1424
C25 C -0.0248(2) 0.19203(19) 0.1910(2)
H23 H -0.0302 0.1597 0.1299
H24 H -0.1006 0.1722 0.2545
C26 C 0.0806(6) 0.0230(3) 0.2250(4)
H25 H 0.0916 -0.0101 0.1590
H26 H 0.1500 -0.0010 0.2423
O9 O 0.38224(15) 0.14356(13) 0.63901(13)
O10 O -0.27274(19) 0.79842(16) 0.05292(17)
C27 C 0.10817(19) 0.36103(16) 0.36146(16)
C28 C 0.07347(18) 0.29791(16) 0.30146(16)
C29 C 0.01854(18) 0.35805(17) 0.24133(16)
C30 C 0.00765(19) 0.46743(17) 0.25809(16)
C31 C 0.17520(18) 0.33000(16) 0.42612(16)
C32 C 0.17543(19) 0.22223(17) 0.46559(17)
H27 H 0.1301 0.1680 0.4517
C33 C 0.24163(19) 0.19486(17) 0.52475(17)
H28 H 0.2410 0.1217 0.5511
C34 C 0.30913(19) 0.27281(17) 0.54627(16)
C35 C 0.30742(19) 0.38033(18) 0.50884(17)
H29 H 0.3518 0.4345 0.5240
C36 C 0.24134(19) 0.40876(17) 0.44954(16)
H30 H 0.2409 0.4823 0.4246
C37 C 0.37907(19) 0.23884(18) 0.61055(17)
C38 C 0.4418(2) 0.32540(19) 0.64151(19)
H31 H 0.4851 0.2916 0.6819
H32 H 0.3803 0.3765 0.6850
H33 H 0.5010 0.3645 0.5778
C39 C -0.04551(18) 0.55618(17) 0.21553(16)
C40 C -0.0412(2) 0.66340(17) 0.24238(17)
H34 H -0.0024 0.6776 0.2874
C41 C -0.0922(2) 0.74883(18) 0.20482(17)
H35 H -0.0876 0.8206 0.2239
C42 C -0.1504(2) 0.73000(18) 0.13884(18)
C43 C -0.1544(2) 0.62387(18) 0.11099(19)
H36 H -0.1935 0.6101 0.0661
C44 C -0.1024(2) 0.53812(18) 0.14747(18)
H37 H -0.1052 0.4668 0.1265
C45 C -0.2093(2) 0.8194(2) 0.0987(2)
C46 C -0.1865(3) 0.9357(2) 0.1140(2)
H38 H -0.2254 0.9850 0.0792
H39 H -0.0978 0.9497 0.0832
H40 H -0.2214 0.9477 0.1896
loop_
_geom_bond_atom_site_label_1
_geom_bond_atom_site_label_2
_geom_bond_site_symmetry_1
_geom_bond_site_symmetry_2
S1 C1 1_555 1_555
O1 C14 1_555 1_555
O2 C22 1_555 1_555
C1 C2 1_555 1_555
C2 C3 1_555 1_555
C3 C4 1_555 1_555
C4 S1 1_555 1_555
O3 C2 1_555 1_555
O4 C3 1_555 1_555
O5 H1 1_555 1_555
C5 O3 1_555 1_555
H2 C5 1_555 1_555
C6 O4 1_555 1_555
H3 C6 1_555 1_555
H4 C6 1_555 1_555
C7 O5 1_555 1_555
H5 C7 1_555 1_555
H6 C7 1_555 1_555
C8 C1 1_555 1_555
C9 C8 1_555 1_555
H7 C9 1_555 1_555
C10 C9 1_555 1_555
H8 C10 1_555 1_555
C11 C10 1_555 1_555
C12 C11 1_555 1_555
H9 C12 1_555 1_555
C13 C8 1_555 1_555
H10 C13 1_555 1_555
C14 C11 1_555 1_555
C15 C14 1_555 1_555
H11 C15 1_555 1_555
H12 C15 1_555 1_555
H13 C15 1_555 1_555
C16 C4 1_555 1_555
C17 C16 1_555 1_555
H14 C17 1_555 1_555
C18 C17 1_555 1_555
H15 C18 1_555 1_555
C19 C18 1_555 1_555
C20 C19 1_555 1_555
H16 C20 1_555 1_555
C21 C16 1_555 1_555
H17 C21 1_555 1_555
C22 C19 1_555 1_555
C23 C22 1_555 1_555
H18 C23 1_555 1_555
H19 C23 1_555 1_555
H20 C23 1_555 1_555
S2 C27 1_555 1_555
O6 C24 1_555 1_555
O7 C25 1_555 1_555
O8 H21 1_555 1_555
C24 H22 1_555 1_555
C25 C24 1_555 1_555
H23 C25 1_555 1_555
H24 C25 1_555 1_555
C26 O8 1_555 1_555
H25 C26 1_555 1_555
H26 C26 1_555 1_555
O9 C37 1_555 1_555
O10 C45 1_555 1_555
C27 C28 1_555 1_555
C28 O6 1_555 1_555
C29 O7 1_555 1_555
C30 S2 1_555 1_555
C31 C27 1_555 1_555
C32 C31 1_555 1_555
H27 C32 1_555 1_555
C33 C32 1_555 1_555
H28 C33 1_555 1_555
C34 C33 1_555 1_555
C35 C34 1_555 1_555
H29 C35 1_555 1_555
C36 C31 1_555 1_555
H30 C36 1_555 1_555
C37 C34 1_555 1_555
C38 C37 1_555 1_555
H31 C38 1_555 1_555
H32 C38 1_555 1_555
H33 C38 1_555 1_555
C39 C30 1_555 1_555
C40 C39 1_555 1_555
H34 C40 1_555 1_555
C41 C40 1_555 1_555
H35 C41 1_555 1_555
C42 C41 1_555 1_555
C43 C42 1_555 1_555
H36 C43 1_555 1_555
C44 C39 1_555 1_555
H37 C44 1_555 1_555
C45 C42 1_555 1_555
C46 C45 1_555 1_555
H38 C46 1_555 1_555
H39 C46 1_555 1_555
H40 C46 1_555 1_555
C5 C6 1_555 1_555
C5 C7 1_555 1_555
C12 C13 1_555 1_555
C20 C21 1_555 1_555
C24 C26 1_555 1_555
C28 C29 1_555 1_555
C29 C30 1_555 1_555
C35 C36 1_555 1_555
C43 C44 1_555 1_555

#END
