
#######################################################################
#
#                 Cambridge Crystallographic Data Centre
#                                CCDC 
#
#######################################################################
#
# If this CIF has been generated from an entry in the Cambridge 
# Structural Database, then it will include bibliographic, chemical, 
# crystal, experimental, refinement or atomic coordinate data resulting 
# from the CCDC's data processing and validation procedures.
#
#######################################################################

data_CUHXUA
_chemical_formula_moiety         'C41 H37 N3 O4'
_chemical_name_systematic        
4-((4-(bis(4-Methoxyphenyl)amino)benzylidene)amino)-N,N-bis(4-methoxyphenyl)aniline
_symmetry_cell_setting           monoclinic
_symmetry_space_group_name_H-M   'P 21/c'
_symmetry_Int_Tables_number      14
_space_group_name_Hall           '-P 2ybc'
loop_
_symmetry_equiv_pos_site_id
_symmetry_equiv_pos_as_xyz
1 x,y,z
2 -x,1/2+y,1/2-z
3 -x,-y,-z
4 x,1/2-y,1/2+z
_cell_length_a                   20.928(2)
_cell_length_b                   10.0003(11)
_cell_length_c                   33.930(4)
_cell_angle_alpha                90
_cell_angle_beta                 102.537(2)
_cell_angle_gamma                90
_cell_volume                     6931.77
_exptl_crystal_colour            yellow
_exptl_crystal_description       block
_cell_formula_units_Z            8
loop_
_atom_site_label
_atom_site_type_symbol
_atom_site_fract_x
_atom_site_fract_y
_atom_site_fract_z
C1 C 0.3931(2) -0.0317(6) 0.64364(19)
C2 C 0.4288(2) -0.1262(6) 0.62763(15)
H1 H 0.4422 -0.1075 0.6038
C3 C 0.44466(19) -0.2475(5) 0.64651(14)
H2 H 0.4675 -0.3104 0.6348
C4 C 0.42738(19) -0.2774(4) 0.68241(13)
C5 C 0.39183(19) -0.1832(5) 0.69800(13)
H3 H 0.3784 -0.2012 0.7219
C6 C 0.3758(2) -0.0625(5) 0.67882(18)
H4 H 0.3523 -0.0003 0.6903
C7 C 0.5078(2) -0.4551(5) 0.70064(13)
C8 C 0.5614(3) -0.3747(5) 0.71188(14)
H5 H 0.5559 -0.2879 0.7204
C9 C 0.6229(3) -0.4186(6) 0.71095(17)
H6 H 0.6588 -0.3622 0.7183
C10 C 0.6305(3) -0.5460(6) 0.69907(16)
C11 C 0.5797(3) -0.6319(5) 0.68836(13)
H7 H 0.5861 -0.7193 0.6807
C12 C 0.5160(2) -0.5832(5) 0.68933(13)
H8 H 0.4799 -0.6393 0.6822
C13 C 0.7077(2) -0.7127(6) 0.68834(17)
H9 H 0.7104 -0.7722 0.7109
H10 H 0.7483 -0.7148 0.6795
H11 H 0.6728 -0.7406 0.6666
C14 C 0.4111(2) -0.4506(4) 0.73059(13)
C15 C 0.44299(18) -0.4825(4) 0.76927(13)
H12 H 0.4879 -0.4692 0.7771
C16 C 0.4098(2) -0.5337(4) 0.79670(12)
H13 H 0.4323 -0.5550 0.8227
C17 C 0.3439(2) -0.5532(4) 0.78580(14)
C18 C 0.31081(19) -0.5206(4) 0.74702(14)
H14 H 0.2657 -0.5326 0.7395
C19 C 0.3442(2) -0.4709(4) 0.71989(12)
H15 H 0.3217 -0.4505 0.6938
C20 C 0.3376(2) -0.6383(5) 0.85013(13)
H16 H 0.3723 -0.7007 0.8497
H17 H 0.3067 -0.6775 0.8639
H18 H 0.3554 -0.5583 0.8639
C21 C 0.3508(3) 0.2934(6) 0.5969(2)
C22 C 0.3632(2) 0.3214(5) 0.5597(2)
H19 H 0.3816 0.2549 0.5465
C23 C 0.34938(19) 0.4446(5) 0.54074(14)
H20 H 0.3604 0.4606 0.5161
C24 C 0.3190(2) 0.5439(5) 0.55880(15)
C25 C 0.3049(3) 0.5176(5) 0.59621(15)
H21 H 0.2843 0.5814 0.6090
C26 C 0.3223(3) 0.3933(6) 0.61412(15)
H22 H 0.3138 0.3780 0.6395
C27 C 0.2494(2) 0.7406(5) 0.54654(13)
C28 C 0.2570(2) 0.8686(5) 0.56017(13)
H23 H 0.2986 0.9065 0.5652
C29 C 0.2052(3) 0.9443(5) 0.56686(13)
H24 H 0.2120 1.0311 0.5767
C30 C 0.1435(3) 0.8900(7) 0.55876(15)
C31 C 0.1341(3) 0.7624(7) 0.54455(16)
H25 H 0.0923 0.7256 0.5388
C32 C 0.1869(3) 0.6878(5) 0.53866(13)
H26 H 0.1802 0.6004 0.5292
C33 C 0.0319(3) 0.9301(8) 0.55594(18)
H27 H 0.0220 0.8986 0.5286
H28 H 0.0025 1.0014 0.5588
H29 H 0.0268 0.8582 0.5738
C34 C 0.3326(2) 0.7092(4) 0.50728(14)
C35 C 0.3990(2) 0.7355(5) 0.51322(15)
H30 H 0.4256 0.7259 0.5389
C36 C 0.4266(2) 0.7760(5) 0.4812(2)
H31 H 0.4713 0.7917 0.4852
C37 C 0.3868(3) 0.7919(5) 0.44450(18)
C38 C 0.3220(2) 0.7663(4) 0.43841(13)
H32 H 0.2956 0.7767 0.4127
C39 C 0.29461(19) 0.7255(4) 0.46950(14)
H33 H 0.2499 0.7087 0.4649
C40 C 0.4749(2) 0.8505(5) 0.41360(17)
H34 H 0.4896 0.9160 0.4343
H35 H 0.4833 0.8821 0.3885
H36 H 0.4980 0.7681 0.4209
N1 N 0.44532(16) -0.4005(4) 0.70168(10)
N2 N 0.30405(18) 0.6669(4) 0.53923(11)
O1 O 0.69588(17) -0.5840(4) 0.69990(13)
O2 O 0.30585(13) -0.6065(3) 0.81019(10)
O3 O 0.0956(2) 0.9763(4) 0.56562(11)
O4 O 0.40878(16) 0.8296(4) 0.40949(11)
C41 C 0.3837(3) 0.0777(5) 0.6170(2)
N3 N 0.3651(2) 0.1650(4) 0.6189(2)
C42 C 0.1201(2) 0.4593(4) 0.34510(12)
C43 C 0.16334(18) 0.3747(4) 0.33184(11)
H37 H 0.2063 0.4030 0.3339
C44 C 0.14522(18) 0.2489(4) 0.31557(11)
H38 H 0.1756 0.1941 0.3072
C45 C 0.08059(19) 0.2063(4) 0.31205(11)
C46 C 0.03751(18) 0.2919(4) 0.32542(11)
H39 H -0.0055 0.2643 0.3235
C47 C 0.05617(19) 0.4161(4) 0.34137(11)
H40 H 0.0258 0.4712 0.3496
C48 C 0.08799(18) 0.0271(5) 0.26300(13)
C49 C 0.10617(18) -0.1038(5) 0.26286(13)
H41 H 0.1005 -0.1592 0.2838
C50 C 0.13300(17) -0.1565(4) 0.23215(14)
H42 H 0.1446 -0.2463 0.2324
C51 C 0.14210(19) -0.0744(5) 0.20153(15)
C52 C 0.1227(2) 0.0562(5) 0.20074(13)
H43 H 0.1279 0.1112 0.1796
C53 C 0.09529(18) 0.1068(4) 0.23108(14)
H44 H 0.0816 0.1954 0.2300
C54 C 0.1888(2) -0.2490(5) 0.16836(14)
H45 H 0.2209 -0.2714 0.1923
H46 H 0.2071 -0.2624 0.1450
H47 H 0.1511 -0.3051 0.1665
C55 C -0.00007(19) 0.0259(4) 0.30007(14)
C56 C -0.0532(2) 0.0145(4) 0.26782(12)
H48 H -0.0492 0.0401 0.2421
C57 C -0.1125(2) -0.0349(5) 0.27360(17)
H49 H -0.1484 -0.0414 0.2520
C58 C -0.1175(2) -0.0737(5) 0.3113(2)
C59 C -0.0656(3) -0.0651(5) 0.34326(14)
H50 H -0.0698 -0.0923 0.3688
C60 C -0.0066(2) -0.0155(4) 0.33749(14)
H51 H 0.0291 -0.0102 0.3592
C61 C -0.2269(2) -0.1399(6) 0.28966(19)
H52 H -0.2402 -0.0539 0.2782
H53 H -0.2622 -0.1795 0.2995
H54 H -0.2156 -0.1966 0.2694
C62 C 0.11360(18) 0.6546(4) 0.38360(12)
H55 H 0.0791 0.6134 0.3921
C63 C 0.13354(18) 0.7873(5) 0.39813(13)
C64 C 0.17039(18) 0.8701(5) 0.37918(12)
H56 H 0.1823 0.8410 0.3558
C65 C 0.18991(16) 0.9958(4) 0.39438(12)
H57 H 0.2137 1.0505 0.3806
C66 C 0.17446(18) 1.0409(4) 0.42977(13)
C67 C 0.13611(18) 0.9592(5) 0.44828(12)
H58 H 0.1240 0.9882 0.4717
C68 C 0.11559(17) 0.8353(5) 0.43241(13)
H59 H 0.0892 0.7831 0.4450
C69 C 0.26095(19) 1.2119(5) 0.44367(12)
C70 C 0.3154(2) 1.1299(4) 0.45471(11)
H60 H 0.3106 1.0441 0.4642
C71 C 0.3763(2) 1.1738(5) 0.45179(12)
H61 H 0.4121 1.1167 0.4585
C72 C 0.3849(2) 1.3017(5) 0.43897(13)
C73 C 0.3321(2) 1.3869(4) 0.42963(11)
H62 H 0.3376 1.4743 0.4216
C74 C 0.27067(19) 1.3407(5) 0.43227(12)
H63 H 0.2351 1.3986 0.4262
C75 C 0.4589(2) 1.4654(5) 0.42397(16)
H64 H 0.4287 1.4855 0.3991
H65 H 0.5029 1.4719 0.4201
H66 H 0.4528 1.5279 0.4443
C76 C 0.1638(2) 1.2347(4) 0.47184(14)
C77 C 0.1044(2) 1.2913(5) 0.45707(14)
H67 H 0.0861 1.2867 0.4296
C78 C 0.0707(2) 1.3560(5) 0.48260(16)
H68 H 0.0301 1.3946 0.4722
C79 C 0.0974(2) 1.3629(5) 0.52347(16)
C80 C 0.1575(2) 1.3093(5) 0.53823(13)
H69 H 0.1763 1.3146 0.5657
C81 C 0.19051(19) 1.2466(4) 0.51210(15)
H70 H 0.2320 1.2117 0.5223
C82 C 0.0825(3) 1.4289(6) 0.58875(16)
H71 H 0.0876 1.3388 0.5987
H72 H 0.0515 1.4751 0.6009
H73 H 0.1240 1.4739 0.5954
N4 N 0.06047(15) 0.0811(3) 0.29459(10)
N5 N 0.19714(15) 1.1663(3) 0.44557(10)
N6 N 0.14225(16) 0.5927(4) 0.35938(11)
O5 O 0.17038(14) -0.1140(3) 0.17022(9)
O6 O -0.17431(19) -0.1253(4) 0.32052(12)
O7 O 0.44742(13) 1.3345(3) 0.43628(10)
O8 O 0.05980(15) 1.4271(4) 0.54654(11)
H74? H 0.3523 0.1704 0.6413
loop_
_geom_bond_atom_site_label_1
_geom_bond_atom_site_label_2
_geom_bond_site_symmetry_1
_geom_bond_site_symmetry_2
C1 C2 1_555 1_555
C2 H1 1_555 1_555
C3 C2 1_555 1_555
H2 C3 1_555 1_555
C4 C3 1_555 1_555
C5 C4 1_555 1_555
H3 C5 1_555 1_555
C6 C1 1_555 1_555
H4 C6 1_555 1_555
C7 C8 1_555 1_555
C8 H5 1_555 1_555
C9 C8 1_555 1_555
H6 C9 1_555 1_555
C10 C9 1_555 1_555
C11 C10 1_555 1_555
H7 C11 1_555 1_555
C12 C7 1_555 1_555
H8 C12 1_555 1_555
C13 H9 1_555 1_555
H10 C13 1_555 1_555
H11 C13 1_555 1_555
C14 C15 1_555 1_555
C15 H12 1_555 1_555
C16 C15 1_555 1_555
H13 C16 1_555 1_555
C17 C16 1_555 1_555
C18 C17 1_555 1_555
H14 C18 1_555 1_555
C19 C14 1_555 1_555
H15 C19 1_555 1_555
C20 H16 1_555 1_555
H17 C20 1_555 1_555
H18 C20 1_555 1_555
C21 C22 1_555 1_555
C22 H19 1_555 1_555
C23 C22 1_555 1_555
H20 C23 1_555 1_555
C24 C23 1_555 1_555
C25 C24 1_555 1_555
H21 C25 1_555 1_555
C26 C21 1_555 1_555
H22 C26 1_555 1_555
C27 C28 1_555 1_555
C28 H23 1_555 1_555
C29 C28 1_555 1_555
H24 C29 1_555 1_555
C30 C29 1_555 1_555
C31 C30 1_555 1_555
H25 C31 1_555 1_555
C32 C27 1_555 1_555
H26 C32 1_555 1_555
C33 H27 1_555 1_555
H28 C33 1_555 1_555
H29 C33 1_555 1_555
C34 C35 1_555 1_555
C35 H30 1_555 1_555
C36 C35 1_555 1_555
H31 C36 1_555 1_555
C37 C36 1_555 1_555
C38 C37 1_555 1_555
H32 C38 1_555 1_555
C39 C34 1_555 1_555
H33 C39 1_555 1_555
C40 H34 1_555 1_555
H35 C40 1_555 1_555
H36 C40 1_555 1_555
N1 C4 1_555 1_555
N2 C24 1_555 1_555
O1 C10 1_555 1_555
O2 C17 1_555 1_555
O3 C30 1_555 1_555
O4 C37 1_555 1_555
C41 C1 1_555 1_555
N3 C21 1_555 1_555
C42 C43 1_555 1_555
C43 H37 1_555 1_555
C44 C43 1_555 1_555
H38 C44 1_555 1_555
C45 C44 1_555 1_555
C46 C45 1_555 1_555
H39 C46 1_555 1_555
C47 C42 1_555 1_555
H40 C47 1_555 1_555
C48 C49 1_555 1_555
C49 H41 1_555 1_555
C50 C49 1_555 1_555
H42 C50 1_555 1_555
C51 C50 1_555 1_555
C52 C51 1_555 1_555
H43 C52 1_555 1_555
C53 C48 1_555 1_555
H44 C53 1_555 1_555
C54 H45 1_555 1_555
H46 C54 1_555 1_555
H47 C54 1_555 1_555
C55 C56 1_555 1_555
C56 H48 1_555 1_555
C57 C56 1_555 1_555
H49 C57 1_555 1_555
C58 C57 1_555 1_555
C59 C58 1_555 1_555
H50 C59 1_555 1_555
C60 C55 1_555 1_555
H51 C60 1_555 1_555
C61 H52 1_555 1_555
H53 C61 1_555 1_555
H54 C61 1_555 1_555
C62 H55 1_555 1_555
C63 C62 1_555 1_555
C64 C63 1_555 1_555
H56 C64 1_555 1_555
C65 C64 1_555 1_555
H57 C65 1_555 1_555
C66 C65 1_555 1_555
C67 C66 1_555 1_555
H58 C67 1_555 1_555
C68 C63 1_555 1_555
H59 C68 1_555 1_555
C69 C70 1_555 1_555
C70 H60 1_555 1_555
C71 C70 1_555 1_555
H61 C71 1_555 1_555
C72 C71 1_555 1_555
C73 C72 1_555 1_555
H62 C73 1_555 1_555
C74 C69 1_555 1_555
H63 C74 1_555 1_555
C75 H64 1_555 1_555
H65 C75 1_555 1_555
H66 C75 1_555 1_555
C76 C77 1_555 1_555
C77 H67 1_555 1_555
C78 C77 1_555 1_555
H68 C78 1_555 1_555
C79 C78 1_555 1_555
C80 C79 1_555 1_555
H69 C80 1_555 1_555
C81 C76 1_555 1_555
H70 C81 1_555 1_555
C82 H71 1_555 1_555
H72 C82 1_555 1_555
H73 C82 1_555 1_555
N4 C45 1_555 1_555
N5 C66 1_555 1_555
N6 C42 1_555 1_555
O5 C51 1_555 1_555
O6 C58 1_555 1_555
O7 C72 1_555 1_555
O8 C79 1_555 1_555
C5 C6 1_555 1_555
C7 N1 1_555 1_555
C11 C12 1_555 1_555
C13 O1 1_555 1_555
C14 N1 1_555 1_555
C18 C19 1_555 1_555
C20 O2 1_555 1_555
C25 C26 1_555 1_555
C27 N2 1_555 1_555
C31 C32 1_555 1_555
C33 O3 1_555 1_555
C34 N2 1_555 1_555
C38 C39 1_555 1_555
C40 O4 1_555 1_555
C41 N3 1_555 1_555
C46 C47 1_555 1_555
C48 N4 1_555 1_555
C52 C53 1_555 1_555
C54 O5 1_555 1_555
C55 N4 1_555 1_555
C59 C60 1_555 1_555
C61 O6 1_555 1_555
C62 N6 1_555 1_555
C67 C68 1_555 1_555
C69 N5 1_555 1_555
C73 C74 1_555 1_555
C75 O7 1_555 1_555
C76 N5 1_555 1_555
C80 C81 1_555 1_555
C82 O8 1_555 1_555

#END
