
#######################################################################
#
#                 Cambridge Crystallographic Data Centre
#                                CCDC 
#
#######################################################################
#
# If this CIF has been generated from an entry in the Cambridge 
# Structural Database, then it will include bibliographic, chemical, 
# crystal, experimental, refinement or atomic coordinate data resulting 
# from the CCDC's data processing and validation procedures.
#
#######################################################################

data_CUKPUU
_chemical_formula_moiety         
'C27 H32 N6 O3,C12 H24 O6,C4 H10 N2 O2,0.25(C2 H6 O1 S1)'
_chemical_name_systematic        
'1,2-bis(2-(butylcarbamoyl)-1H-indol-7-yl)urea 18-crown-6 (3-ammoniopropyl)carbamate dimethylsulfoxide solvate'
_symmetry_cell_setting           triclinic
_symmetry_space_group_name_H-M   'P -1'
_symmetry_Int_Tables_number      2
_space_group_name_Hall           '-P 1'
loop_
_symmetry_equiv_pos_site_id
_symmetry_equiv_pos_as_xyz
1 x,y,z
2 -x,-y,-z
_cell_length_a                   12.626(7)
_cell_length_b                   14.165(9)
_cell_length_c                   27.564(17)
_cell_angle_alpha                84.204(10)
_cell_angle_beta                 77.246(8)
_cell_angle_gamma                72.121(9)
_cell_volume                     4572.99
_exptl_crystal_colour            colorless
_exptl_crystal_description       block
_cell_formula_units_Z            4
loop_
_atom_site_label
_atom_site_type_symbol
_atom_site_fract_x
_atom_site_fract_y
_atom_site_fract_z
O4 O 0.87604(18) 0.66832(15) 0.49561(7)
O5 O 0.83254(19) 1.16333(16) 0.29124(8)
O6 O 1.35034(18) 0.74880(16) 0.18690(7)
N7 N 1.0165(2) 0.67059(17) 0.42975(8)
H33 H 1.0392 0.7019 0.4031
N8 N 0.9002(2) 0.87692(17) 0.41148(8)
H34 H 0.9623 0.8577 0.3899
N9 N 0.9251(2) 1.04634(18) 0.34307(9)
H35 H 0.9909 1.0084 0.3467
N10 N 1.0080(2) 1.05742(18) 0.26125(9)
H36 H 1.0658 1.0156 0.2707
N11 N 1.1861(2) 0.93036(17) 0.18832(8)
H37 H 1.1924 0.9051 0.2176
N12 N 1.4129(2) 0.76518(18) 0.10397(9)
H38 H 1.4047 0.8027 0.0777
C28 C 1.3152(4) 0.6366(3) 0.49555(15)
H39 H 1.2668 0.6720 0.5241
H40 H 1.3705 0.6700 0.4803
H41 H 1.3531 0.5703 0.5058
C29 C 1.2440(3) 0.6328(3) 0.45836(13)
H42 H 1.2031 0.7000 0.4494
H43 H 1.2941 0.6025 0.4284
C30 C 1.1601(3) 0.5753(2) 0.47819(11)
H44 H 1.1110 0.6051 0.5085
H45 H 1.2012 0.5079 0.4867
C31 C 1.0868(3) 0.5720(2) 0.44169(11)
H46 H 1.1355 0.5422 0.4113
H47 H 1.0384 0.5306 0.4560
C32 C 0.9181(3) 0.7130(2) 0.45915(10)
C33 C 0.8581(3) 0.8180(2) 0.44881(10)
C34 C 0.7570(3) 0.8739(2) 0.47544(11)
H48 H 0.7110 0.8515 0.5024
C35 C 0.7352(3) 0.9718(2) 0.45462(10)
C36 C 0.6490(3) 1.0609(2) 0.46570(11)
H49 H 0.5879 1.0637 0.4921
C37 C 0.6571(3) 1.1439(2) 0.43671(11)
H50 H 0.6006 1.2036 0.4440
C38 C 0.7477(3) 1.1417(2) 0.39634(11)
H51 H 0.7497 1.1997 0.3776
C39 C 0.8336(3) 1.0554(2) 0.38400(10)
C40 C 0.8272(2) 0.9709(2) 0.41439(10)
C41 C 0.9151(3) 1.0952(2) 0.29731(10)
C42 C 1.0179(2) 1.0808(2) 0.20972(10)
C43 C 0.9487(3) 1.1599(2) 0.18820(11)
H52 H 0.8885 1.2038 0.2083
C44 C 0.9665(3) 1.1764(2) 0.13624(11)
H53 H 0.9178 1.2312 0.1229
C45 C 1.0529(3) 1.1146(2) 0.10492(11)
H54 H 1.0634 1.1268 0.0707
C46 C 1.1255(3) 1.0324(2) 0.12536(10)
C47 C 1.1071(3) 1.0162(2) 0.17774(10)
C48 C 1.2197(3) 0.9518(2) 0.10555(11)
H55 H 1.2524 0.9422 0.0720
C49 C 1.2538(3) 0.8910(2) 0.14455(10)
C50 C 1.3427(2) 0.7959(2) 0.14689(10)
C51 C 1.5025(3) 0.6714(2) 0.09943(11)
H56 H 1.5086 0.6418 0.1324
H57 H 1.5742 0.6837 0.0842
C52 C 1.4814(3) 0.5992(2) 0.06858(11)
H58 H 1.4672 0.6319 0.0370
H59 H 1.5498 0.5437 0.0616
C53 C 1.3835(3) 0.5595(2) 0.09254(12)
H60 H 1.3147 0.6147 0.0996
H61 H 1.3976 0.5260 0.1240
C54 C 1.3651(3) 0.4878(3) 0.06016(13)
H62 H 1.3378 0.5233 0.0317
H63 H 1.3104 0.4569 0.0790
H64 H 1.4357 0.4379 0.0493
O7 O 0.35192(17) 0.37270(15) 0.22205(7)
O8 O 0.39315(17) 0.28705(15) 0.15297(7)
N13 N 0.4973(2) -0.03572(18) 0.24879(9)
H65 H 0.5077 -0.0911 0.2334
H66 H 0.5058 -0.0507 0.2801
H67 H 0.5481 -0.0054 0.2331
C55 C 0.3443(2) 0.3051(2) 0.19745(10)
N14 N 0.2771(2) 0.24844(17) 0.22111(8)
H68 H 0.2407 0.2626 0.2510
C56 C 0.2637(2) 0.1661(2) 0.19890(11)
H69 H 0.2514 0.1858 0.1654
H70 H 0.1969 0.1498 0.2179
C57 C 0.3659(3) 0.0742(2) 0.19683(10)
H71 H 0.3564 0.0244 0.1778
H72 H 0.4339 0.0913 0.1798
C58 C 0.3808(3) 0.0313(2) 0.24832(11)
H73 H 0.3647 0.0852 0.2705
H74 H 0.3263 -0.0054 0.2609
O9 O 1.16426(17) 0.88839(14) 0.28996(7)
O10 O 1.10357(17) 0.79434(15) 0.35368(7)
N15 N 0.9736(2) 0.60915(17) 0.24847(9)
H75 H 0.9524 0.5584 0.2650
H76 H 0.9663 0.6110 0.2170
H77 H 0.9299 0.6656 0.2626
C59 C 1.1570(2) 0.8055(2) 0.31020(10)
N16 N 1.2132(2) 0.72345(17) 0.28312(9)
H78 H 1.2469 0.7317 0.2530
C60 C 1.2200(2) 0.6236(2) 0.30171(11)
H79 H 1.2338 0.6164 0.3353
H80 H 1.2839 0.5779 0.2812
C61 C 1.1127(3) 0.5961(2) 0.30201(10)
H81 H 1.1188 0.5307 0.3176
H82 H 1.0481 0.6431 0.3214
C62 C 1.0937(3) 0.5965(2) 0.24997(12)
H83 H 1.1175 0.6500 0.2304
H84 H 1.1407 0.5345 0.2349
O11 O 0.00259(19) 0.52597(16) 0.15209(8)
O12 O -0.01734(19) 0.41398(15) 0.24631(8)
O13 O -0.15940(19) 0.51471(15) 0.33035(8)
O14 O -0.17719(17) 0.71825(15) 0.33467(8)
O15 O -0.13556(18) 0.82412(15) 0.24328(8)
O16 O 0.00367(19) 0.72200(16) 0.15746(8)
C63 C 0.0630(3) 0.4241(2) 0.15939(13)
H85 H 0.1339 0.4194 0.1690
H86 H 0.0807 0.3900 0.1285
C64 C -0.0063(3) 0.3757(2) 0.19879(13)
H87 H -0.0810 0.3877 0.1913
H88 H 0.0297 0.3046 0.1995
C65 C -0.0812(3) 0.3671(2) 0.28462(13)
H89 H -0.0418 0.2968 0.2869
H90 H -0.1548 0.3746 0.2770
C66 C -0.0962(3) 0.4130(2) 0.33258(13)
H91 H -0.1357 0.3786 0.3592
H92 H -0.0224 0.4070 0.3397
C67 C -0.1744(3) 0.5628(3) 0.37535(11)
H93 H -0.1011 0.5598 0.3819
H94 H -0.2129 0.5295 0.4029
C68 C -0.2430(3) 0.6677(3) 0.37048(12)
H95 H -0.3123 0.6710 0.3598
H96 H -0.2634 0.6989 0.4023
C69 C -0.2369(3) 0.8192(2) 0.32656(12)
H97 H -0.2616 0.8532 0.3577
H98 H -0.3036 0.8236 0.3134
C70 C -0.1604(3) 0.8667(2) 0.29054(12)
H99 H -0.1968 0.9375 0.2877
H100 H -0.0906 0.8567 0.3022
C71 C -0.0547(3) 0.8609(2) 0.20865(12)
H101 H 0.0183 0.8373 0.2186
H102 H -0.0787 0.9328 0.2085
C72 C -0.0433(3) 0.8274(2) 0.15818(12)
H103 H -0.1171 0.8467 0.1491
H104 H 0.0059 0.8584 0.1343
C73 C 0.0072(3) 0.6817(3) 0.11195(12)
H105 H 0.0474 0.7137 0.0844
H106 H -0.0692 0.6922 0.1069
C74 C 0.0669(3) 0.5740(3) 0.11472(12)
H107 H 0.0778 0.5455 0.0828
H108 H 0.1411 0.5641 0.1223
O17 O 0.67515(19) 0.90540(16) 0.15539(7)
O18 O 0.5818(2) 0.76620(16) 0.21285(9)
O19 O 0.50668(18) 0.78023(17) 0.31891(8)
O20 O 0.46359(19) 0.96665(17) 0.35533(8)
O21 O 0.58093(18) 1.09316(15) 0.29774(8)
O22 O 0.63214(18) 1.08953(15) 0.19147(8)
C75 C 0.6608(3) 0.8242(3) 0.13412(13)
H109 H 0.7178 0.8053 0.1040
H110 H 0.5863 0.8419 0.1258
C76 C 0.6734(3) 0.7406(2) 0.17204(13)
H111 H 0.6737 0.6807 0.1577
H112 H 0.7446 0.7281 0.1829
C77 C 0.5737(3) 0.6850(2) 0.24661(15)
H113 H 0.6441 0.6573 0.2586
H114 H 0.5613 0.6335 0.2298
C78 C 0.4783(3) 0.7193(3) 0.28909(14)
H115 H 0.4104 0.7565 0.2769
H116 H 0.4630 0.6625 0.3089
C79 C 0.4179(3) 0.8166(3) 0.36027(13)
H117 H 0.4038 0.7618 0.3821
H118 H 0.3484 0.8526 0.3489
C80 C 0.4534(3) 0.8835(3) 0.38731(12)
H119 H 0.3973 0.9051 0.4174
H120 H 0.5256 0.8488 0.3966
C81 C 0.5026(3) 1.0340(3) 0.37697(12)
H121 H 0.5791 1.0018 0.3823
H122 H 0.4537 1.0542 0.4089
C82 C 0.5013(3) 1.1221(3) 0.34298(12)
H123 H 0.4258 1.1517 0.3360
H124 H 0.5209 1.1711 0.3586
C83 C 0.5893(3) 1.1776(2) 0.26591(13)
H125 H 0.6130 1.2224 0.2826
H126 H 0.5157 1.2129 0.2581
C84 C 0.6729(3) 1.1450(2) 0.21940(13)
H127 H 0.6861 1.2025 0.1997
H128 H 0.7446 1.1044 0.2274
C85 C 0.7091(3) 1.0598(2) 0.14586(12)
H129 H 0.7850 1.0283 0.1521
H130 H 0.7110 1.1176 0.1239
C86 C 0.6723(3) 0.9894(2) 0.12196(12)
H131 H 0.5960 1.0199 0.1160
H132 H 0.7230 0.9696 0.0904
O1 O 0.17596(18) 0.26998(18) 0.32451(7)
O2 O 0.69193(19) 0.43785(17) 0.22800(8)
O3 O 0.59503(19) 0.14049(16) -0.00523(7)
N1 N 0.1216(2) 0.26756(18) 0.40837(9)
H1 H 0.1335 0.2814 0.4360
N2 N 0.3377(2) 0.36225(17) 0.32757(8)
H2 H 0.3267 0.3612 0.2980
N3 N 0.5104(2) 0.43251(17) 0.25738(8)
H3 H 0.4482 0.4382 0.2479
N4 N 0.5872(2) 0.41274(18) 0.17521(9)
H4 H 0.5213 0.4093 0.1735
N5 N 0.5894(2) 0.29402(17) 0.09336(8)
H5 H 0.5337 0.2905 0.1172
N6 N 0.4630(2) 0.17645(18) 0.06514(8)
H6 H 0.4399 0.2071 0.0927
C1 C 0.1467(3) -0.0563(3) 0.44541(13)
H7 H 0.1586 -0.0511 0.4781
H8 H 0.2076 -0.1089 0.4286
H9 H 0.0759 -0.0703 0.4480
C2 C 0.1435(3) 0.0415(2) 0.41596(12)
H10 H 0.2138 0.0570 0.4147
H11 H 0.1376 0.0344 0.3821
C3 C 0.0441(3) 0.1263(2) 0.43928(11)
H12 H 0.0536 0.1357 0.4723
H13 H -0.0251 0.1076 0.4431
C4 C 0.0305(3) 0.2239(2) 0.40990(11)
H14 H 0.0270 0.2136 0.3761
H15 H -0.0411 0.2705 0.4245
C5 C 0.1878(2) 0.2872(2) 0.36578(10)
C6 C 0.2760(2) 0.3316(2) 0.37046(10)
C7 C 0.3165(3) 0.3450(2) 0.41049(10)
H16 H 0.2889 0.3305 0.4437
C8 C 0.4086(3) 0.3852(2) 0.39197(10)
C9 C 0.4841(3) 0.4128(2) 0.41403(11)
H17 H 0.4780 0.4078 0.4484
C10 C 0.5671(3) 0.4474(2) 0.38377(12)
H18 H 0.6172 0.4664 0.3981
C11 C 0.5785(3) 0.4549(2) 0.33150(11)
H19 H 0.6363 0.4780 0.3121
C12 C 0.5058(2) 0.4287(2) 0.30886(10)
C13 C 0.4198(2) 0.3947(2) 0.33978(10)
C14 C 0.6045(3) 0.4280(2) 0.22112(10)
C15 C 0.6695(3) 0.4025(2) 0.13108(10)
C16 C 0.7555(3) 0.4476(2) 0.12107(11)
H20 H 0.7608 0.4874 0.1447
C17 C 0.8346(3) 0.4343(2) 0.07599(12)
H21 H 0.8920 0.4647 0.0707
C18 C 0.8301(3) 0.3779(3) 0.03956(12)
H22 H 0.8832 0.3701 0.0098
C19 C 0.7435(3) 0.3320(2) 0.04803(11)
C20 C 0.6646(2) 0.3455(2) 0.09356(10)
C21 C 0.7112(3) 0.2708(2) 0.02032(11)
H23 H 0.7474 0.2494 -0.0116
C22 C 0.6179(3) 0.2485(2) 0.04826(10)
C23 C 0.5574(3) 0.1853(2) 0.03431(10)
C24 C 0.3988(3) 0.1161(2) 0.05308(11)
H24 H 0.3518 0.0990 0.0835
H25 H 0.4513 0.0549 0.0391
C25 C 0.3234(3) 0.1677(2) 0.01633(11)
H26 H 0.2838 0.1232 0.0096
H27 H 0.3710 0.1811 -0.0148
C26 C 0.2365(3) 0.2645(2) 0.03467(12)
H28 H 0.1893 0.2513 0.0659
H29 H 0.2760 0.3094 0.0410
C27 C 0.1615(3) 0.3144(3) -0.00187(14)
H30 H 0.2076 0.3284 -0.0328
H31 H 0.1091 0.3753 0.0114
H32 H 0.1200 0.2713 -0.0075
C87? C 1.1086(4) -0.0427(5) -0.0141(2)
H133? H 1.1054 -0.0389 0.0208
H134? H 1.1031 -0.1063 -0.0204
H135? H 1.1792 -0.0346 -0.0327
S1? S 0.99520(19) -0.04346(15) 0.03062(7)
O23? O 0.9687(6) -0.1331(4) 0.0209(2)
loop_
_geom_bond_atom_site_label_1
_geom_bond_atom_site_label_2
_geom_bond_site_symmetry_1
_geom_bond_site_symmetry_2
O1 C5 1_555 1_555
O2 C14 1_555 1_555
O3 C23 1_555 1_555
N1 H1 1_555 1_555
N2 H2 1_555 1_555
N3 H3 1_555 1_555
N4 H4 1_555 1_555
N5 H5 1_555 1_555
N6 H6 1_555 1_555
C1 H7 1_555 1_555
H8 C1 1_555 1_555
H9 C1 1_555 1_555
C2 C1 1_555 1_555
H10 C2 1_555 1_555
H11 C2 1_555 1_555
C3 C2 1_555 1_555
H12 C3 1_555 1_555
H13 C3 1_555 1_555
C4 N1 1_555 1_555
H14 C4 1_555 1_555
H15 C4 1_555 1_555
C5 N1 1_555 1_555
C6 N2 1_555 1_555
C7 C6 1_555 1_555
H16 C7 1_555 1_555
C8 C7 1_555 1_555
C9 C8 1_555 1_555
H17 C9 1_555 1_555
C10 C9 1_555 1_555
H18 C10 1_555 1_555
C11 C10 1_555 1_555
H19 C11 1_555 1_555
C12 N3 1_555 1_555
C13 N2 1_555 1_555
C14 N3 1_555 1_555
C15 N4 1_555 1_555
C16 C15 1_555 1_555
H20 C16 1_555 1_555
C17 C16 1_555 1_555
H21 C17 1_555 1_555
C18 C17 1_555 1_555
H22 C18 1_555 1_555
C19 C18 1_555 1_555
C20 N5 1_555 1_555
C21 C19 1_555 1_555
H23 C21 1_555 1_555
C22 N5 1_555 1_555
C23 N6 1_555 1_555
C24 N6 1_555 1_555
H24 C24 1_555 1_555
H25 C24 1_555 1_555
C25 C24 1_555 1_555
H26 C25 1_555 1_555
H27 C25 1_555 1_555
C26 C25 1_555 1_555
H28 C26 1_555 1_555
H29 C26 1_555 1_555
C27 C26 1_555 1_555
H30 C27 1_555 1_555
H31 C27 1_555 1_555
H32 C27 1_555 1_555
O4 C32 1_555 1_555
O5 C41 1_555 1_555
O6 C50 1_555 1_555
N7 H33 1_555 1_555
N8 H34 1_555 1_555
N9 H35 1_555 1_555
N10 H36 1_555 1_555
N11 H37 1_555 1_555
N12 H38 1_555 1_555
C28 H39 1_555 1_555
H40 C28 1_555 1_555
H41 C28 1_555 1_555
C29 C28 1_555 1_555
H42 C29 1_555 1_555
H43 C29 1_555 1_555
C30 C29 1_555 1_555
H44 C30 1_555 1_555
H45 C30 1_555 1_555
C31 N7 1_555 1_555
H46 C31 1_555 1_555
H47 C31 1_555 1_555
C32 N7 1_555 1_555
C33 N8 1_555 1_555
C34 C33 1_555 1_555
H48 C34 1_555 1_555
C35 C34 1_555 1_555
C36 C35 1_555 1_555
H49 C36 1_555 1_555
C37 C36 1_555 1_555
H50 C37 1_555 1_555
C38 C37 1_555 1_555
H51 C38 1_555 1_555
C39 N9 1_555 1_555
C40 N8 1_555 1_555
C41 N9 1_555 1_555
C42 N10 1_555 1_555
C43 C42 1_555 1_555
H52 C43 1_555 1_555
C44 C43 1_555 1_555
H53 C44 1_555 1_555
C45 C44 1_555 1_555
H54 C45 1_555 1_555
C46 C45 1_555 1_555
C47 N11 1_555 1_555
C48 C46 1_555 1_555
H55 C48 1_555 1_555
C49 N11 1_555 1_555
C50 N12 1_555 1_555
C51 N12 1_555 1_555
H56 C51 1_555 1_555
H57 C51 1_555 1_555
C52 C51 1_555 1_555
H58 C52 1_555 1_555
H59 C52 1_555 1_555
C53 C52 1_555 1_555
H60 C53 1_555 1_555
H61 C53 1_555 1_555
C54 C53 1_555 1_555
H62 C54 1_555 1_555
H63 C54 1_555 1_555
H64 C54 1_555 1_555
O7 C55 1_555 1_555
O8 C55 1_555 1_555
N13 H65 1_555 1_555
H66 N13 1_555 1_555
H67 N13 1_555 1_555
C55 N14 1_555 1_555
N14 H68 1_555 1_555
C56 N14 1_555 1_555
H69 C56 1_555 1_555
H70 C56 1_555 1_555
C57 C56 1_555 1_555
H71 C57 1_555 1_555
H72 C57 1_555 1_555
C58 N13 1_555 1_555
H73 C58 1_555 1_555
H74 C58 1_555 1_555
O9 C59 1_555 1_555
O10 C59 1_555 1_555
N15 H75 1_555 1_555
H76 N15 1_555 1_555
H77 N15 1_555 1_555
C59 N16 1_555 1_555
N16 H78 1_555 1_555
C60 N16 1_555 1_555
H79 C60 1_555 1_555
H80 C60 1_555 1_555
C61 C60 1_555 1_555
H81 C61 1_555 1_555
H82 C61 1_555 1_555
C62 N15 1_555 1_555
H83 C62 1_555 1_555
H84 C62 1_555 1_555
O11 C63 1_555 1_555
O12 C64 1_555 1_555
O13 C66 1_555 1_555
O14 C68 1_555 1_555
O15 C70 1_555 1_555
O16 C72 1_555 1_555
C63 H85 1_555 1_555
H86 C63 1_555 1_555
C64 C63 1_555 1_555
H87 C64 1_555 1_555
H88 C64 1_555 1_555
C65 O12 1_555 1_555
H89 C65 1_555 1_555
H90 C65 1_555 1_555
C66 C65 1_555 1_555
H91 C66 1_555 1_555
H92 C66 1_555 1_555
C67 O13 1_555 1_555
H93 C67 1_555 1_555
H94 C67 1_555 1_555
C68 C67 1_555 1_555
H95 C68 1_555 1_555
H96 C68 1_555 1_555
C69 O14 1_555 1_555
H97 C69 1_555 1_555
H98 C69 1_555 1_555
C70 C69 1_555 1_555
H99 C70 1_555 1_555
H100 C70 1_555 1_555
C71 O15 1_555 1_555
H101 C71 1_555 1_555
H102 C71 1_555 1_555
C72 C71 1_555 1_555
H103 C72 1_555 1_555
H104 C72 1_555 1_555
C73 O16 1_555 1_555
H105 C73 1_555 1_555
H106 C73 1_555 1_555
C74 O11 1_555 1_555
H107 C74 1_555 1_555
H108 C74 1_555 1_555
O17 C75 1_555 1_555
O18 C76 1_555 1_555
O19 C78 1_555 1_555
O20 C80 1_555 1_555
O21 C82 1_555 1_555
O22 C84 1_555 1_555
C75 H109 1_555 1_555
H110 C75 1_555 1_555
C76 C75 1_555 1_555
H111 C76 1_555 1_555
H112 C76 1_555 1_555
C77 O18 1_555 1_555
H113 C77 1_555 1_555
H114 C77 1_555 1_555
C78 C77 1_555 1_555
H115 C78 1_555 1_555
H116 C78 1_555 1_555
C79 O19 1_555 1_555
H117 C79 1_555 1_555
H118 C79 1_555 1_555
C80 C79 1_555 1_555
H119 C80 1_555 1_555
H120 C80 1_555 1_555
C81 O20 1_555 1_555
H121 C81 1_555 1_555
H122 C81 1_555 1_555
C82 C81 1_555 1_555
H123 C82 1_555 1_555
H124 C82 1_555 1_555
C83 O21 1_555 1_555
H125 C83 1_555 1_555
H126 C83 1_555 1_555
C84 C83 1_555 1_555
H127 C84 1_555 1_555
H128 C84 1_555 1_555
C85 O22 1_555 1_555
H129 C85 1_555 1_555
H130 C85 1_555 1_555
C86 O17 1_555 1_555
H131 C86 1_555 1_555
H132 C86 1_555 1_555
N4 C14 1_555 1_555
C3 C4 1_555 1_555
C5 C6 1_555 1_555
C8 C13 1_555 1_555
C11 C12 1_555 1_555
C12 C13 1_555 1_555
C15 C20 1_555 1_555
C19 C20 1_555 1_555
C21 C22 1_555 1_555
C22 C23 1_555 1_555
N10 C41 1_555 1_555
C30 C31 1_555 1_555
C32 C33 1_555 1_555
C35 C40 1_555 1_555
C38 C39 1_555 1_555
C39 C40 1_555 1_555
C42 C47 1_555 1_555
C46 C47 1_555 1_555
C48 C49 1_555 1_555
C49 C50 1_555 1_555
C57 C58 1_555 1_555
C61 C62 1_555 1_555
C73 C74 1_555 1_555
C85 C86 1_555 1_555

#END
