
#######################################################################
#
#                 Cambridge Crystallographic Data Centre
#                                CCDC 
#
#######################################################################
#
# If this CIF has been generated from an entry in the Cambridge 
# Structural Database, then it will include bibliographic, chemical, 
# crystal, experimental, refinement or atomic coordinate data resulting 
# from the CCDC's data processing and validation procedures.
#
#######################################################################

data_CUKTUX
_chemical_formula_moiety         'C30 H42 N6,H4 N1 1+,F6 P1 1-'
_chemical_name_systematic        
'Ammonium 1,3,5-tris(3,5-dimethylpyrazol-1-ylmethyl)-2,4,6-triethylbenzene hexafluorophosphate'
_symmetry_cell_setting           triclinic
_symmetry_space_group_name_H-M   'P -1'
_symmetry_Int_Tables_number      2
_space_group_name_Hall           '-P 1'
loop_
_symmetry_equiv_pos_site_id
_symmetry_equiv_pos_as_xyz
1 x,y,z
2 -x,-y,-z
_cell_length_a                   10.927(4)
_cell_length_b                   11.302(3)
_cell_length_c                   15.464(4)
_cell_angle_alpha                95.27(2)
_cell_angle_beta                 95.99(3)
_cell_angle_gamma                112.66(3)
_cell_volume                     1734.48
_exptl_crystal_colour            colorless
_exptl_crystal_description       column
_cell_formula_units_Z            2
_exptl_crystal_recrystallization_method 'hot ethanol'
loop_
_atom_site_label
_atom_site_type_symbol
_atom_site_fract_x
_atom_site_fract_y
_atom_site_fract_z
P1 P 0.73121(9) 0.98700(10) 0.22810(7)
F1 F 0.7554(4) 1.1127(3) 0.1887(2)
F2 F 0.7043(4) 0.8548(3) 0.2649(2)
F3 F 0.8637(3) 0.9846(4) 0.1976(3)
F4 F 0.6483(3) 0.9049(3) 0.13598(19)
F5 F 0.8108(3) 1.0629(3) 0.3187(2)
F6 F 0.5978(2) 0.9858(3) 0.2588(2)
N1 N 0.0346(2) 0.7837(2) 0.13083(14)
N2 N 0.1704(2) 0.8267(2) 0.14799(16)
N3 N 0.2920(2) 0.7176(2) 0.51587(15)
N4 N 0.3775(2) 0.7823(3) 0.46145(16)
N5 N 0.2107(2) 0.3567(2) 0.21136(16)
N6 N 0.2939(3) 0.4702(2) 0.18768(18)
C1 C 0.0165(3) 0.5297(3) 0.21306(17)
C2 C 0.0102(3) 0.6443(3) 0.24955(17)
C3 C 0.0575(3) 0.6943(3) 0.33835(18)
C4 C 0.1043(2) 0.6226(3) 0.39275(17)
C5 C 0.1096(3) 0.5063(3) 0.35760(18)
C6 C 0.0682(3) 0.4616(3) 0.26777(18)
C7 C -0.0305(3) 0.4813(3) 0.11563(18)
H5 H 0.0225 0.4369 0.0949
H6 H -0.0151 0.5544 0.0848
C8 C -0.1791(4) 0.3898(3) 0.0936(2)
H7 H -0.2028 0.3643 0.0312
H8 H -0.2329 0.4335 0.1139
H9 H -0.1946 0.3144 0.1220
C9 C -0.0627(4) 0.8208(4) 0.4124(2)
H10 H -0.0527 0.9071 0.4335
H11 H -0.0743 0.7707 0.4601
H12 H -0.1398 0.7812 0.3676
C10 C 0.0625(3) 0.8262(3) 0.3744(2)
H13 H 0.0748 0.8788 0.3281
H14 H 0.1392 0.8676 0.4194
C11 C 0.3104(3) 0.4554(4) 0.4222(2)
H15 H 0.3324 0.4031 0.4614
H16 H 0.3635 0.5453 0.4435
H17 H 0.3286 0.4342 0.3647
C12 C 0.1615(3) 0.4294(3) 0.4173(2)
H18 H 0.1445 0.4477 0.4757
H19 H 0.1102 0.3388 0.3975
C13 C -0.0525(3) 0.7138(3) 0.19142(19)
H20 H -0.1349 0.6514 0.1580
H21 H -0.0740 0.7741 0.2281
C14 C 0.2130(3) 0.8859(3) 0.0788(2)
C15 C 0.1061(4) 0.8805(3) 0.0193(2)
H22 H 0.1106 0.9160 -0.0349
C16 C -0.0075(3) 0.8138(3) 0.05385(18)
C17 C 0.3590(4) 0.9463(4) 0.0730(3)
H23 H 0.4095 0.9370 0.1246
H24 H 0.3848 1.0367 0.0686
H25 H 0.3768 0.9043 0.0219
C18 C -0.1525(4) 0.7748(4) 0.0196(2)
H26 H -0.2061 0.7293 0.0609
H27 H -0.1753 0.7192 -0.0356
H28 H -0.1694 0.8506 0.0114
C19 C 0.1477(3) 0.6717(3) 0.48996(18)
H29 H 0.1202 0.7412 0.5048
H30 H 0.1033 0.6032 0.5225
C20 C 0.4998(3) 0.8181(4) 0.5076(2)
C21 C 0.4907(4) 0.7763(4) 0.5888(2)
H31 H 0.5643 0.7891 0.6335
C22 C 0.3571(3) 0.7134(4) 0.5937(2)
C23 C 0.6223(4) 0.8916(5) 0.4687(3)
H32 H 0.5958 0.9079 0.4113
H33 H 0.6757 0.8415 0.4640
H34 H 0.6740 0.9725 0.5057
C24 C 0.2861(4) 0.6482(5) 0.6643(2)
H35 H 0.1909 0.6162 0.6461
H36 H 0.3111 0.7091 0.7171
H37 H 0.3105 0.5772 0.6750
C25 C 0.0759(3) 0.3372(3) 0.2279(2)
H38 H 0.0481 0.2739 0.2672
H39 H 0.0149 0.3037 0.1737
C26 C 0.4024(3) 0.4497(4) 0.1712(2)
C27 C 0.3876(3) 0.3250(4) 0.1836(2)
H40 H 0.4512 0.2869 0.1757
C28 C 0.2643(3) 0.2669(3) 0.2092(2)
C29 C 0.5180(4) 0.5557(5) 0.1431(4)
H41 H 0.4984 0.6313 0.1412
H42 H 0.5315 0.5272 0.0859
H43 H 0.5978 0.5763 0.1844
C30 C 0.1936(4) 0.1354(3) 0.2319(3)
H44 H 0.1075 0.1264 0.2464
H45 H 0.2458 0.1228 0.2814
H46 H 0.1819 0.0718 0.1826
N7 N 0.3471(3) 0.7472(3) 0.2645(2)
H1 H 0.429(4) 0.794(4) 0.254(2)
H2 H 0.291(4) 0.776(4) 0.234(3)
H3 H 0.329(4) 0.662(4) 0.243(2)
H4 H 0.348(4) 0.757(4) 0.326(3)
loop_
_geom_bond_atom_site_label_1
_geom_bond_atom_site_label_2
_geom_bond_site_symmetry_1
_geom_bond_site_symmetry_2
P1 F1 1_555 1_555
F2 P1 1_555 1_555
F3 P1 1_555 1_555
F4 P1 1_555 1_555
F5 P1 1_555 1_555
F6 P1 1_555 1_555
N1 N2 1_555 1_555
N2 C14 1_555 1_555
N3 N4 1_555 1_555
N4 C20 1_555 1_555
N5 N6 1_555 1_555
N6 C26 1_555 1_555
N7 H1 1_555 1_555
H2 N7 1_555 1_555
H3 N7 1_555 1_555
H4 N7 1_555 1_555
C1 C2 1_555 1_555
C2 C3 1_555 1_555
C3 C4 1_555 1_555
C4 C5 1_555 1_555
C5 C6 1_555 1_555
C6 C1 1_555 1_555
C7 C1 1_555 1_555
H5 C7 1_555 1_555
H6 C7 1_555 1_555
C8 C7 1_555 1_555
H7 C8 1_555 1_555
H8 C8 1_555 1_555
H9 C8 1_555 1_555
C9 H10 1_555 1_555
H11 C9 1_555 1_555
H12 C9 1_555 1_555
C10 C3 1_555 1_555
H13 C10 1_555 1_555
H14 C10 1_555 1_555
C11 H15 1_555 1_555
H16 C11 1_555 1_555
H17 C11 1_555 1_555
C12 C5 1_555 1_555
H18 C12 1_555 1_555
H19 C12 1_555 1_555
C13 N1 1_555 1_555
H20 C13 1_555 1_555
H21 C13 1_555 1_555
C14 C15 1_555 1_555
C15 H22 1_555 1_555
C16 N1 1_555 1_555
C17 C14 1_555 1_555
H23 C17 1_555 1_555
H24 C17 1_555 1_555
H25 C17 1_555 1_555
C18 C16 1_555 1_555
H26 C18 1_555 1_555
H27 C18 1_555 1_555
H28 C18 1_555 1_555
C19 N3 1_555 1_555
H29 C19 1_555 1_555
H30 C19 1_555 1_555
C20 C21 1_555 1_555
C21 H31 1_555 1_555
C22 N3 1_555 1_555
C23 C20 1_555 1_555
H32 C23 1_555 1_555
H33 C23 1_555 1_555
H34 C23 1_555 1_555
C24 C22 1_555 1_555
H35 C24 1_555 1_555
H36 C24 1_555 1_555
H37 C24 1_555 1_555
C25 N5 1_555 1_555
H38 C25 1_555 1_555
H39 C25 1_555 1_555
C26 C27 1_555 1_555
C27 H40 1_555 1_555
C28 N5 1_555 1_555
C29 C26 1_555 1_555
H41 C29 1_555 1_555
H42 C29 1_555 1_555
H43 C29 1_555 1_555
C30 C28 1_555 1_555
H44 C30 1_555 1_555
H45 C30 1_555 1_555
H46 C30 1_555 1_555
C2 C13 1_555 1_555
C4 C19 1_555 1_555
C6 C25 1_555 1_555
C9 C10 1_555 1_555
C11 C12 1_555 1_555
C15 C16 1_555 1_555
C21 C22 1_555 1_555
C27 C28 1_555 1_555

#END
