
#######################################################################
#
#                 Cambridge Crystallographic Data Centre
#                                CCDC 
#
#######################################################################
#
# If this CIF has been generated from an entry in the Cambridge 
# Structural Database, then it will include bibliographic, chemical, 
# crystal, experimental, refinement or atomic coordinate data resulting 
# from the CCDC's data processing and validation procedures.
#
#######################################################################

data_CUNYOB
_chemical_formula_moiety         'C17 H16 N2'
_chemical_name_systematic        2,2-dimethyl-4,5-diphenyl-2H-imidazole
_symmetry_cell_setting           tetragonal
_symmetry_space_group_name_H-M   'I 41'
_symmetry_Int_Tables_number      80
_space_group_name_Hall           'I 4bw'
loop_
_symmetry_equiv_pos_site_id
_symmetry_equiv_pos_as_xyz
1 x,y,z
2 1/2-x,1/2-y,1/2+z
3 -y,1/2+x,1/4+z
4 1/2+y,-x,3/4+z
5 1/2+x,1/2+y,1/2+z
6 -x,-y,z
7 1/2-y,x,3/4+z
8 y,1/2-x,1/4+z
_cell_length_a                   10.6396(6)
_cell_length_b                   10.6396(6)
_cell_length_c                   13.8377(8)
_cell_angle_alpha                90
_cell_angle_beta                 90
_cell_angle_gamma                90
_cell_volume                     1566.44
_exptl_crystal_colour            colorless
_exptl_crystal_description       parallelepiped
_cell_formula_units_Z            4
loop_
_atom_site_label
_atom_site_type_symbol
_atom_site_fract_x
_atom_site_fract_y
_atom_site_fract_z
N1 N 0.9930(4) 0.3879(3) -0.0639(2)
C1 C 1.0791(3) 0.3668(2) 0.18334(19)
H1 H 1.1318 0.4365 0.1825
C2 C 1.0822(3) 0.2844(3) 0.2597(2)
H2 H 1.1371 0.2988 0.3108
C3 C 1.0048(4) 0.1808(3) 0.2612(2)
H3 H 1.0063 0.1259 0.3136
C4 C 0.9251(3) 0.1591(3) 0.1848(3)
H4 H 0.8738 0.0883 0.1851
C5 C 0.9203(3) 0.2399(3) 0.1084(2)
H5 H 0.8659 0.2243 0.0572
C6 C 0.9966(3) 0.3452(2) 0.10730(19)
C7 C 0.9953(3) 0.4304(3) 0.02229(19)
C8 C 1.0000 0.5000 -0.1275(4)
C9 C 0.8605(11) 0.5121(6) -0.1797(4)
H6 H 0.7965 0.5167 -0.1309
H7 H 0.8460 0.4399 -0.2197
H8 H 0.8580 0.5867 -0.2186
N1E N 1.0070(4) 0.6121(3) -0.0639(2)
C1E C 0.9209(3) 0.6332(2) 0.18334(19)
H1E H 0.8682 0.5635 0.1825
C2E C 0.9178(3) 0.7156(3) 0.2597(2)
H2E H 0.8629 0.7012 0.3108
C3E C 0.9952(4) 0.8192(3) 0.2612(2)
H3E H 0.9937 0.8741 0.3136
C4E C 1.0749(3) 0.8409(3) 0.1848(3)
H4E H 1.1262 0.9117 0.1851
C5E C 1.0797(3) 0.7601(3) 0.1084(2)
H5E H 1.1341 0.7757 0.0572
C6E C 1.0034(3) 0.6548(2) 0.10730(19)
C7E C 1.0047(3) 0.5696(3) 0.02229(19)
C9E C 1.1395(11) 0.4879(6) -0.1797(4)
H6E H 1.2035 0.4833 -0.1309
H7E H 1.1540 0.5601 -0.2197
H8E H 1.1420 0.4133 -0.2186
loop_
_geom_bond_atom_site_label_1
_geom_bond_atom_site_label_2
_geom_bond_site_symmetry_1
_geom_bond_site_symmetry_2
N1 C7 1_555 1_555
C1 H1 1_555 1_555
C2 C1 1_555 1_555
H2 C2 1_555 1_555
C3 C2 1_555 1_555
H3 C3 1_555 1_555
C4 C3 1_555 1_555
H4 C4 1_555 1_555
C5 C4 1_555 1_555
H5 C5 1_555 1_555
C6 C1 1_555 1_555
C7 C6 1_555 1_555
C8 N1 1_555 1_555
C9 C8 1_555 1_555
H6 C9 1_555 1_555
H7 C9 1_555 1_555
H8 C9 1_555 1_555
N1E C8 1_555 1_555
C1E H1E 1_555 1_555
C2E C1E 1_555 1_555
H2E C2E 1_555 1_555
C3E C2E 1_555 1_555
H3E C3E 1_555 1_555
C4E C3E 1_555 1_555
H4E C4E 1_555 1_555
C5E C4E 1_555 1_555
H5E C5E 1_555 1_555
C6E C1E 1_555 1_555
C7E C7 1_555 1_555
C9E C8 1_555 1_555
H6E C9E 1_555 1_555
H7E C9E 1_555 1_555
H8E C9E 1_555 1_555
C5 C6 1_555 1_555
N1E C7E 1_555 1_555
C5E C6E 1_555 1_555
C6E C7E 1_555 1_555

#END
