
#######################################################################
#
#                 Cambridge Crystallographic Data Centre
#                                CCDC 
#
#######################################################################
#
# If this CIF has been generated from an entry in the Cambridge 
# Structural Database, then it will include bibliographic, chemical, 
# crystal, experimental, refinement or atomic coordinate data resulting 
# from the CCDC's data processing and validation procedures.
#
#######################################################################

data_CUPBOF
_chemical_formula_moiety         'C30 H21 N1 O1'
_chemical_name_systematic        
(4-Methylphenyl)(2-phenyl-1-(phenylethynyl)indolizin-3-yl)methanone
_symmetry_cell_setting           triclinic
_symmetry_space_group_name_H-M   'P -1'
_symmetry_Int_Tables_number      2
_space_group_name_Hall           '-P 1'
loop_
_symmetry_equiv_pos_site_id
_symmetry_equiv_pos_as_xyz
1 x,y,z
2 -x,-y,-z
_cell_length_a                   8.9049(8)
_cell_length_b                   9.1010(8)
_cell_length_c                   14.7535(13)
_cell_angle_alpha                100.1450(10)
_cell_angle_beta                 106.3490(10)
_cell_angle_gamma                93.0790(10)
_cell_volume                     1122.62
_exptl_crystal_colour            colorless
_exptl_crystal_description       block
_cell_formula_units_Z            2
loop_
_atom_site_label
_atom_site_type_symbol
_atom_site_fract_x
_atom_site_fract_y
_atom_site_fract_z
C1 C 0.1542(2) -0.1526(2) 0.42893(17)
H1 H 0.0592 -0.1262 0.4431
H2 H 0.2200 -0.1898 0.4817
H3 H 0.1286 -0.2289 0.3714
N1 N 0.49589(12) 0.57146(11) 0.28002(7)
O1 O 0.62082(11) 0.41691(12) 0.43088(7)
C2 C 0.24033(18) -0.01586(16) 0.41424(12)
C3 C 0.33586(19) 0.08730(17) 0.49204(11)
H4 H 0.3465 0.0719 0.5541
C4 C 0.41559(17) 0.21239(15) 0.47973(10)
H5 H 0.4814 0.2789 0.5331
C5 C 0.39815(14) 0.23964(13) 0.38797(9)
C6 C 0.30420(17) 0.13592(15) 0.30964(10)
H6 H 0.2926 0.1517 0.2476
C7 C 0.22774(18) 0.00964(15) 0.32287(11)
H7 H 0.1665 -0.0598 0.2694
C8 C 0.48500(14) 0.37768(14) 0.37868(9)
C9 C 0.40790(14) 0.46583(13) 0.30904(9)
C10 C 0.24881(14) 0.47782(13) 0.26539(8)
C11 C 0.24046(15) 0.58841(14) 0.20911(9)
C12 C 0.39411(15) 0.64591(14) 0.21906(9)
C13 C 0.45631(19) 0.75610(17) 0.18014(11)
H8 H 0.3892 0.8094 0.1408
C14 C 0.6138(2) 0.78480(19) 0.19991(13)
H9 H 0.6555 0.8581 0.1744
C15 C 0.71399(19) 0.7038(2) 0.25892(13)
H10 H 0.8223 0.7221 0.2710
C16 C 0.65639(16) 0.59962(17) 0.29862(11)
H11 H 0.7244 0.5472 0.3382
C17 C 0.10870(14) 0.39869(13) 0.27747(9)
C18 C -0.00750(17) 0.31856(17) 0.19758(11)
H12 H 0.0018 0.3160 0.1361
C19 C -0.13698(19) 0.2425(2) 0.20924(15)
H13 H -0.2136 0.1875 0.1554
C20 C -0.1539(2) 0.2471(2) 0.29923(16)
H14 H -0.2410 0.1949 0.3066
C21 C -0.04134(18) 0.32938(17) 0.37822(13)
H15 H -0.0533 0.3343 0.4393
C22 C 0.08939(15) 0.40490(15) 0.36803(10)
H16 H 0.1650 0.4603 0.4222
C23 C 0.10336(16) 0.63713(15) 0.15162(9)
C24 C -0.00941(16) 0.67946(16) 0.10168(10)
C25 C -0.14533(15) 0.73083(16) 0.04292(9)
C26 C -0.14286(19) 0.87967(19) 0.03344(12)
H17 H -0.0526 0.9457 0.0655
C27 C -0.2722(2) 0.9308(3) -0.02274(15)
H18 H -0.2687 1.0310 -0.0284
C28 C -0.4047(2) 0.8364(3) -0.06990(13)
H19 H -0.4916 0.8719 -0.1080
C29 C -0.4112(2) 0.6886(3) -0.06173(12)
H20 H -0.5026 0.6242 -0.0941
C30 C -0.28122(19) 0.6347(2) -0.00512(11)
H21 H -0.2857 0.5345 0.0004
loop_
_geom_bond_atom_site_label_1
_geom_bond_atom_site_label_2
_geom_bond_site_symmetry_1
_geom_bond_site_symmetry_2
C1 H1 1_555 1_555
H2 C1 1_555 1_555
H3 C1 1_555 1_555
N1 C9 1_555 1_555
O1 C8 1_555 1_555
C2 C1 1_555 1_555
C3 C2 1_555 1_555
H4 C3 1_555 1_555
C4 C3 1_555 1_555
H5 C4 1_555 1_555
C5 C4 1_555 1_555
C6 C5 1_555 1_555
H6 C6 1_555 1_555
C7 C2 1_555 1_555
H7 C7 1_555 1_555
C8 C5 1_555 1_555
C9 C8 1_555 1_555
C10 C9 1_555 1_555
C11 C10 1_555 1_555
C12 N1 1_555 1_555
C13 C12 1_555 1_555
H8 C13 1_555 1_555
C14 C13 1_555 1_555
H9 C14 1_555 1_555
C15 C14 1_555 1_555
H10 C15 1_555 1_555
C16 N1 1_555 1_555
H11 C16 1_555 1_555
C17 C10 1_555 1_555
C18 C17 1_555 1_555
H12 C18 1_555 1_555
C19 C18 1_555 1_555
H13 C19 1_555 1_555
C20 C19 1_555 1_555
H14 C20 1_555 1_555
C21 C20 1_555 1_555
H15 C21 1_555 1_555
C22 C17 1_555 1_555
H16 C22 1_555 1_555
C23 C11 1_555 1_555
C24 C23 1_555 1_555
C25 C24 1_555 1_555
C26 C25 1_555 1_555
H17 C26 1_555 1_555
C27 C26 1_555 1_555
H18 C27 1_555 1_555
C28 C27 1_555 1_555
H19 C28 1_555 1_555
C29 C28 1_555 1_555
H20 C29 1_555 1_555
C30 C25 1_555 1_555
H21 C30 1_555 1_555
C6 C7 1_555 1_555
C11 C12 1_555 1_555
C15 C16 1_555 1_555
C21 C22 1_555 1_555
C29 C30 1_555 1_555

#END
