
#######################################################################
#
#                 Cambridge Crystallographic Data Centre
#                                CCDC 
#
#######################################################################
#
# If this CIF has been generated from an entry in the Cambridge 
# Structural Database, then it will include bibliographic, chemical, 
# crystal, experimental, refinement or atomic coordinate data resulting 
# from the CCDC's data processing and validation procedures.
#
#######################################################################

data_CUPMOR
_chemical_formula_moiety         'C27 H26 N2 O4'
_chemical_name_systematic        
'ethyl (5-benzyl-2-(4-methoxyphenyl)-4-phenyl-4,5-dihydro-6H-1,3,4-oxadiazin-6-ylidene)acetate'
_symmetry_cell_setting           triclinic
_symmetry_space_group_name_H-M   'P -1'
_symmetry_Int_Tables_number      2
_space_group_name_Hall           '-P 1'
loop_
_symmetry_equiv_pos_site_id
_symmetry_equiv_pos_as_xyz
1 x,y,z
2 -x,-y,-z
_cell_length_a                   10.326(2)
_cell_length_b                   10.666(2)
_cell_length_c                   11.760(2)
_cell_angle_alpha                86.18(3)
_cell_angle_beta                 72.20(3)
_cell_angle_gamma                72.77(3)
_cell_volume                     1177.46
_cell_formula_units_Z            2
loop_
_atom_site_label
_atom_site_type_symbol
_atom_site_fract_x
_atom_site_fract_y
_atom_site_fract_z
N1 N 0.21834(19) 0.63392(17) 0.16453(15)
N2 N 0.22586(19) 0.58914(17) 0.05366(15)
O1 O 0.1812(2) 0.29006(19) -0.37640(15)
O2 O 0.16347(17) 0.40421(15) 0.14676(12)
O3 O 0.01043(18) 0.25213(16) 0.27630(15)
O4 O -0.0907(2) 0.3163(2) 0.46806(15)
C1 C 0.2578(2) 0.7506(2) 0.16172(19)
C2 C 0.2568(3) 0.8048(3) 0.2664(2)
H1 H 0.2349 0.7618 0.3381
C3 C 0.2882(4) 0.9225(3) 0.2641(3)
H2 H 0.2876 0.9579 0.3345
C4 C 0.3200(4) 0.9874(3) 0.1597(3)
H3 H 0.3410 1.0666 0.1587
C5 C 0.3206(4) 0.9345(3) 0.0568(3)
H4 H 0.3422 0.9783 -0.0144
C6 C 0.2895(3) 0.8171(2) 0.0567(2)
H5 H 0.2900 0.7828 -0.0141
C7 C 0.4624(2) 0.3522(2) 0.28706(19)
C8 C 0.4785(3) 0.3809(2) 0.3937(2)
H6 H 0.4616 0.4680 0.4152
C9 C 0.5194(3) 0.2821(3) 0.4692(2)
H7 H 0.5297 0.3031 0.5408
C10 C 0.5448(3) 0.1540(3) 0.4386(3)
H8 H 0.5729 0.0876 0.4891
C11 C 0.5289(3) 0.1235(3) 0.3336(3)
H9 H 0.5452 0.0363 0.3128
C12 C 0.4884(3) 0.2224(2) 0.2581(2)
H10 H 0.4786 0.2007 0.1865
C13 C 0.4171(2) 0.4595(2) 0.2054(2)
H11 H 0.4420 0.4219 0.1260
H12 H 0.4691 0.5230 0.2002
C14 C 0.2559(2) 0.5311(2) 0.24750(18)
H13 H 0.2314 0.5715 0.3266
C15 C 0.1662(2) 0.4422(2) 0.25435(17)
C16 C 0.2001(2) 0.4807(2) 0.04938(17)
C17 C 0.0951(2) 0.3984(2) 0.35545(18)
H14 H 0.1097 0.4213 0.4245
C18 C -0.0031(2) 0.3188(2) 0.3731(2)
C19 C -0.0889(3) 0.1765(3) 0.2904(3)
H15 H -0.1855 0.2321 0.3238
H16 H -0.0708 0.1053 0.3445
C20 C -0.0712(4) 0.1231(3) 0.1718(3)
H17 H -0.1365 0.0727 0.1799
H18 H 0.0244 0.0678 0.1396
H19 H -0.0899 0.1942 0.1190
C21 C 0.1982(2) 0.4260(2) -0.06053(17)
C22 C 0.1576(3) 0.3139(2) -0.0597(2)
H20 H 0.1342 0.2706 0.0115
C23 C 0.1508(3) 0.2645(3) -0.1636(2)
H21 H 0.1226 0.1891 -0.1616
C24 C 0.1862(2) 0.3283(2) -0.26934(19)
C25 C 0.2283(3) 0.4397(2) -0.27153(19)
H22 H 0.2532 0.4820 -0.3432
C26 C 0.2337(2) 0.4887(2) -0.16871(18)
H23 H 0.2614 0.5645 -0.1711
C27 C 0.1443(4) 0.1741(3) -0.3808(3)
H24 H 0.1449 0.1589 -0.4605
H25 H 0.0510 0.1828 -0.3266
H26 H 0.2117 0.1015 -0.3582
loop_
_geom_bond_atom_site_label_1
_geom_bond_atom_site_label_2
_geom_bond_site_symmetry_1
_geom_bond_site_symmetry_2
N1 N2 1_555 1_555
N2 C16 1_555 1_555
O1 C24 1_555 1_555
O2 C15 1_555 1_555
O3 C18 1_555 1_555
O4 C18 1_555 1_555
C1 N1 1_555 1_555
C2 C1 1_555 1_555
H1 C2 1_555 1_555
C3 C2 1_555 1_555
H2 C3 1_555 1_555
C4 C3 1_555 1_555
H3 C4 1_555 1_555
C5 C4 1_555 1_555
H4 C5 1_555 1_555
C6 C1 1_555 1_555
H5 C6 1_555 1_555
C7 C8 1_555 1_555
C8 H6 1_555 1_555
C9 C8 1_555 1_555
H7 C9 1_555 1_555
C10 C9 1_555 1_555
H8 C10 1_555 1_555
C11 C10 1_555 1_555
H9 C11 1_555 1_555
C12 C7 1_555 1_555
H10 C12 1_555 1_555
C13 C7 1_555 1_555
H11 C13 1_555 1_555
H12 C13 1_555 1_555
C14 N1 1_555 1_555
H13 C14 1_555 1_555
C15 C14 1_555 1_555
C16 O2 1_555 1_555
C17 C15 1_555 1_555
H14 C17 1_555 1_555
C18 C17 1_555 1_555
C19 O3 1_555 1_555
H15 C19 1_555 1_555
H16 C19 1_555 1_555
C20 C19 1_555 1_555
H17 C20 1_555 1_555
H18 C20 1_555 1_555
H19 C20 1_555 1_555
C21 C16 1_555 1_555
C22 C21 1_555 1_555
H20 C22 1_555 1_555
C23 C22 1_555 1_555
H21 C23 1_555 1_555
C24 C23 1_555 1_555
C25 C24 1_555 1_555
H22 C25 1_555 1_555
C26 C21 1_555 1_555
H23 C26 1_555 1_555
C27 O1 1_555 1_555
H24 C27 1_555 1_555
H25 C27 1_555 1_555
H26 C27 1_555 1_555
C5 C6 1_555 1_555
C11 C12 1_555 1_555
C13 C14 1_555 1_555
C25 C26 1_555 1_555

#END
