
#######################################################################
#
#                 Cambridge Crystallographic Data Centre
#                                CCDC 
#
#######################################################################
#
# If this CIF has been generated from an entry in the Cambridge 
# Structural Database, then it will include bibliographic, chemical, 
# crystal, experimental, refinement or atomic coordinate data resulting 
# from the CCDC's data processing and validation procedures.
#
#######################################################################

data_CUPTOY
_chemical_formula_moiety         'C42 H84 N4 O6 Sr2'
_chemical_name_systematic        
bis(\m~2~-1-((2-(Dimethylamino)ethyl)(methyl)amino)-2-methylbutan-2-olato)-bis(2,2,6,6-tetramethylheptane-3,5-dionato)-di-strontium
_symmetry_cell_setting           monoclinic
_symmetry_space_group_name_H-M   'P 21/n'
_symmetry_Int_Tables_number      14
_space_group_name_Hall           '-P 2yn'
loop_
_symmetry_equiv_pos_site_id
_symmetry_equiv_pos_as_xyz
1 x,y,z
2 1/2-x,1/2+y,1/2-z
3 -x,-y,-z
4 1/2+x,1/2-y,1/2+z
_cell_length_a                   9.8488(3)
_cell_length_b                   25.0965(7)
_cell_length_c                   10.1883(3)
_cell_angle_alpha                90
_cell_angle_beta                 101.478(2)
_cell_angle_gamma                90
_cell_volume                     2467.88
_exptl_crystal_colour            silver
_exptl_crystal_description       block
_cell_formula_units_Z            2
_chemical_properties_physical    
'Air-sensitive, Moisture-sensitive, Hygroscopic'
loop_
_atom_site_label
_atom_site_type_symbol
_atom_site_fract_x
_atom_site_fract_y
_atom_site_fract_z
Sr1 Sr 0.08537(3) 0.936321(12) 0.49036(3)
O1 O 0.2397(2) 0.91435(10) 0.7017(2)
O2 O 0.2331(2) 0.86074(9) 0.4551(2)
O3 O -0.1155(2) 0.97314(9) 0.5695(2)
N1 N -0.0803(3) 0.91089(12) 0.2459(3)
N2 N -0.1033(3) 0.86045(11) 0.5126(3)
C1 C 0.3281(3) 0.87889(13) 0.7449(3)
C2 C 0.3749(3) 0.84026(13) 0.6648(3)
H1 H 0.4454 0.8167 0.7080
C3 C 0.3271(3) 0.83324(13) 0.5267(3)
C4 C 0.3831(4) 0.87993(15) 0.8978(3)
C5 C 0.2605(5) 0.8763(3) 0.9654(5)
H2 H 0.2143 0.8419 0.9445
H3 H 0.1954 0.9051 0.9332
H4 H 0.2922 0.8795 1.0625
C6 C 0.4533(6) 0.93447(18) 0.9334(4)
H5 H 0.4896 0.9362 1.0301
H6 H 0.3852 0.9630 0.9073
H7 H 0.5295 0.9388 0.8854
C7 C 0.4906(5) 0.83773(18) 0.9495(4)
H8 H 0.4496 0.8023 0.9303
H9 H 0.5219 0.8419 1.0464
H10 H 0.5696 0.8417 0.9052
C8 C 0.3865(4) 0.78812(13) 0.4520(3)
C9 C 0.4339(4) 0.81303(15) 0.3316(4)
H11 H 0.5100 0.8379 0.3632
H12 H 0.3563 0.8322 0.2764
H13 H 0.4658 0.7849 0.2782
C10 C 0.5067(4) 0.75736(14) 0.5358(4)
H14 H 0.5837 0.7818 0.5681
H15 H 0.5373 0.7295 0.4807
H16 H 0.4765 0.7410 0.6124
C11 C 0.2672(4) 0.74882(15) 0.4022(4)
H17 H 0.3011 0.7195 0.3541
H18 H 0.1921 0.7674 0.3420
H19 H 0.2327 0.7346 0.4790
C12 C -0.1501(4) 0.95824(17) 0.1785(4)
H20 H -0.2078 0.9477 0.0926
H21 H -0.0805 0.9841 0.1629
H22 H -0.2086 0.9744 0.2351
C13 C 0.0139(4) 0.88922(16) 0.1650(4)
H23 H -0.0389 0.8794 0.0763
H24 H 0.0606 0.8576 0.2092
H25 H 0.0832 0.9162 0.1552
C14 C -0.1870(4) 0.87205(16) 0.2632(4)
H26 H -0.2125 0.8507 0.1802
H27 H -0.2708 0.8915 0.2760
C15 C -0.1423(4) 0.83493(15) 0.3797(4)
H28 H -0.2188 0.8096 0.3823
H29 H -0.0622 0.8139 0.3633
C16 C -0.2255(4) 0.88645(15) 0.5507(4)
H30 H -0.2674 0.8609 0.6052
H31 H -0.2948 0.8934 0.4678
C17 C -0.1978(3) 0.93909(13) 0.6294(3)
C18 C -0.0412(4) 0.81992(16) 0.6084(4)
H32 H -0.1105 0.7926 0.6157
H33 H -0.0087 0.8365 0.6962
H34 H 0.0372 0.8035 0.5779
C19 C -0.3461(5) 1.01439(17) 0.7078(5)
H35 H -0.4421 1.0264 0.6995
H36 H -0.2922 1.0421 0.6735
H37 H -0.3058 1.0075 0.8022
C20 C -0.1256(4) 0.92867(17) 0.7760(4)
H38 H -0.1949 0.9282 0.8329
H39 H -0.0581 0.9570 0.8061
H40 H -0.0778 0.8942 0.7820
C21 C -0.3430(4) 0.96292(17) 0.6263(4)
H41 H -0.3868 0.9703 0.5320
H42 H -0.4002 0.9358 0.6603
Sr1B Sr -0.08537(3) 1.063679(12) 0.50964(3)
O1B O -0.2397(2) 1.08565(10) 0.2983(2)
O2B O -0.2331(2) 1.13926(9) 0.5449(2)
O3B O 0.1155(2) 1.02686(9) 0.4305(2)
N1B N 0.0803(3) 1.08911(12) 0.7541(3)
N2B N 0.1033(3) 1.13955(11) 0.4874(3)
C1B C -0.3281(3) 1.12111(13) 0.2551(3)
C2B C -0.3749(3) 1.15974(13) 0.3352(3)
H1B H -0.4454 1.1833 0.2920
C3B C -0.3271(3) 1.16676(13) 0.4733(3)
C4B C -0.3831(4) 1.12007(15) 0.1022(3)
C5B C -0.2605(5) 1.1237(3) 0.0346(5)
H2B H -0.2143 1.1581 0.0555
H3B H -0.1954 1.0949 0.0668
H4B H -0.2922 1.1205 -0.0625
C6B C -0.4533(6) 1.06553(18) 0.0666(4)
H5B H -0.4896 1.0638 -0.0301
H6B H -0.3852 1.0370 0.0927
H7B H -0.5295 1.0612 0.1146
C7B C -0.4906(5) 1.16227(18) 0.0505(4)
H8B H -0.4496 1.1977 0.0697
H9B H -0.5219 1.1581 -0.0464
H10B H -0.5696 1.1583 0.0948
C8B C -0.3865(4) 1.21188(13) 0.5480(3)
C9B C -0.4339(4) 1.18697(15) 0.6684(4)
H11B H -0.5100 1.1621 0.6368
H12B H -0.3563 1.1678 0.7236
H13B H -0.4658 1.2151 0.7218
C10B C -0.5067(4) 1.24264(14) 0.4642(4)
H14B H -0.5837 1.2182 0.4319
H15B H -0.5373 1.2705 0.5193
H16B H -0.4765 1.2590 0.3876
C11B C -0.2672(4) 1.25118(15) 0.5978(4)
H17B H -0.3011 1.2805 0.6459
H18B H -0.1921 1.2326 0.6580
H19B H -0.2327 1.2654 0.5210
C12B C 0.1501(4) 1.04176(17) 0.8215(4)
H20B H 0.2078 1.0523 0.9074
H21B H 0.0805 1.0159 0.8371
H22B H 0.2086 1.0256 0.7649
C13B C -0.0139(4) 1.11078(16) 0.8350(4)
H23B H 0.0389 1.1206 0.9237
H24B H -0.0606 1.1424 0.7908
H25B H -0.0832 1.0838 0.8448
C14B C 0.1870(4) 1.12795(16) 0.7368(4)
H26B H 0.2125 1.1493 0.8198
H27B H 0.2708 1.1085 0.7240
C15B C 0.1423(4) 1.16507(15) 0.6203(4)
H28B H 0.2188 1.1904 0.6177
H29B H 0.0622 1.1861 0.6367
C16B C 0.2255(4) 1.11355(15) 0.4493(4)
H30B H 0.2674 1.1391 0.3948
H31B H 0.2948 1.1066 0.5322
C17B C 0.1978(3) 1.06091(13) 0.3706(3)
C18B C 0.0412(4) 1.18008(16) 0.3916(4)
H32B H 0.1105 1.2074 0.3843
H33B H 0.0087 1.1635 0.3038
H34B H -0.0372 1.1965 0.4221
C19B C 0.3461(5) 0.98561(17) 0.2922(5)
H35B H 0.4421 0.9736 0.3005
H36B H 0.2922 0.9579 0.3265
H37B H 0.3058 0.9925 0.1978
C20B C 0.1256(4) 1.07133(17) 0.2240(4)
H38B H 0.1949 1.0718 0.1671
H39B H 0.0581 1.0430 0.1939
H40B H 0.0778 1.1058 0.2180
C21B C 0.3430(4) 1.03708(17) 0.3737(4)
H41B H 0.3868 1.0297 0.4680
H42B H 0.4002 1.0642 0.3397
loop_
_geom_bond_atom_site_label_1
_geom_bond_atom_site_label_2
_geom_bond_site_symmetry_1
_geom_bond_site_symmetry_2
Sr1 O1 1_555 1_555
O1 C1 1_555 1_555
O2 Sr1 1_555 1_555
O3 Sr1 1_555 1_555
N1 Sr1 1_555 1_555
N2 Sr1 1_555 1_555
C1 C2 1_555 1_555
C2 H1 1_555 1_555
C3 O2 1_555 1_555
C4 C1 1_555 1_555
C5 C4 1_555 1_555
H2 C5 1_555 1_555
H3 C5 1_555 1_555
H4 C5 1_555 1_555
C6 C4 1_555 1_555
H5 C6 1_555 1_555
H6 C6 1_555 1_555
H7 C6 1_555 1_555
C7 C4 1_555 1_555
H8 C7 1_555 1_555
H9 C7 1_555 1_555
H10 C7 1_555 1_555
C8 C3 1_555 1_555
C9 C8 1_555 1_555
H11 C9 1_555 1_555
H12 C9 1_555 1_555
H13 C9 1_555 1_555
C10 C8 1_555 1_555
H14 C10 1_555 1_555
H15 C10 1_555 1_555
H16 C10 1_555 1_555
C11 C8 1_555 1_555
H17 C11 1_555 1_555
H18 C11 1_555 1_555
H19 C11 1_555 1_555
C12 N1 1_555 1_555
H20 C12 1_555 1_555
H21 C12 1_555 1_555
H22 C12 1_555 1_555
C13 N1 1_555 1_555
H23 C13 1_555 1_555
H24 C13 1_555 1_555
H25 C13 1_555 1_555
C14 N1 1_555 1_555
H26 C14 1_555 1_555
H27 C14 1_555 1_555
C15 N2 1_555 1_555
H28 C15 1_555 1_555
H29 C15 1_555 1_555
C16 N2 1_555 1_555
H30 C16 1_555 1_555
H31 C16 1_555 1_555
C17 O3 1_555 1_555
C18 N2 1_555 1_555
H32 C18 1_555 1_555
H33 C18 1_555 1_555
H34 C18 1_555 1_555
C19 H35 1_555 1_555
H36 C19 1_555 1_555
H37 C19 1_555 1_555
C20 C17 1_555 1_555
H38 C20 1_555 1_555
H39 C20 1_555 1_555
H40 C20 1_555 1_555
C21 C17 1_555 1_555
H41 C21 1_555 1_555
H42 C21 1_555 1_555
Sr1B O3 1_555 1_555
O1B Sr1B 1_555 1_555
O2B Sr1B 1_555 1_555
O3B Sr1 1_555 1_555
N1B Sr1B 1_555 1_555
N2B Sr1B 1_555 1_555
C1B O1B 1_555 1_555
C2B C1B 1_555 1_555
H1B C2B 1_555 1_555
C3B O2B 1_555 1_555
C4B C1B 1_555 1_555
C5B C4B 1_555 1_555
H2B C5B 1_555 1_555
H3B C5B 1_555 1_555
H4B C5B 1_555 1_555
C6B C4B 1_555 1_555
H5B C6B 1_555 1_555
H6B C6B 1_555 1_555
H7B C6B 1_555 1_555
C7B C4B 1_555 1_555
H8B C7B 1_555 1_555
H9B C7B 1_555 1_555
H10B C7B 1_555 1_555
C8B C3B 1_555 1_555
C9B C8B 1_555 1_555
H11B C9B 1_555 1_555
H12B C9B 1_555 1_555
H13B C9B 1_555 1_555
C10B C8B 1_555 1_555
H14B C10B 1_555 1_555
H15B C10B 1_555 1_555
H16B C10B 1_555 1_555
C11B C8B 1_555 1_555
H17B C11B 1_555 1_555
H18B C11B 1_555 1_555
H19B C11B 1_555 1_555
C12B N1B 1_555 1_555
H20B C12B 1_555 1_555
H21B C12B 1_555 1_555
H22B C12B 1_555 1_555
C13B N1B 1_555 1_555
H23B C13B 1_555 1_555
H24B C13B 1_555 1_555
H25B C13B 1_555 1_555
C14B N1B 1_555 1_555
H26B C14B 1_555 1_555
H27B C14B 1_555 1_555
C15B N2B 1_555 1_555
H28B C15B 1_555 1_555
H29B C15B 1_555 1_555
C16B N2B 1_555 1_555
H30B C16B 1_555 1_555
H31B C16B 1_555 1_555
C17B O3B 1_555 1_555
C18B N2B 1_555 1_555
H32B C18B 1_555 1_555
H33B C18B 1_555 1_555
H34B C18B 1_555 1_555
C19B H35B 1_555 1_555
H36B C19B 1_555 1_555
H37B C19B 1_555 1_555
C20B C17B 1_555 1_555
H38B C20B 1_555 1_555
H39B C20B 1_555 1_555
H40B C20B 1_555 1_555
C21B C17B 1_555 1_555
H41B C21B 1_555 1_555
H42B C21B 1_555 1_555
C2 C3 1_555 1_555
C14 C15 1_555 1_555
C16 C17 1_555 1_555
C19 C21 1_555 1_555
Sr1B O3B 1_555 1_555
C2B C3B 1_555 1_555
C14B C15B 1_555 1_555
C16B C17B 1_555 1_555
C19B C21B 1_555 1_555

#END
