
#######################################################################
#
#                 Cambridge Crystallographic Data Centre
#                                CCDC 
#
#######################################################################
#
# If this CIF has been generated from an entry in the Cambridge 
# Structural Database, then it will include bibliographic, chemical, 
# crystal, experimental, refinement or atomic coordinate data resulting 
# from the CCDC's data processing and validation procedures.
#
#######################################################################

data_CUPVOA
_chemical_formula_moiety         'C32 H25 N1 O4'
_chemical_name_systematic        
'methyl 2-methylene-3-(1-naphthyl)-5-(5-oxo-2-phenyl-1,3-oxazol-4(5H)-ylidene)-5-phenylpentanoate'
_symmetry_cell_setting           monoclinic
_symmetry_space_group_name_H-M   'P 21'
_symmetry_Int_Tables_number      4
_space_group_name_Hall           'P 2yb'
loop_
_symmetry_equiv_pos_site_id
_symmetry_equiv_pos_as_xyz
1 x,y,z
2 -x,1/2+y,-z
_cell_length_a                   6.62144(14)
_cell_length_b                   20.1343(4)
_cell_length_c                   9.3620(2)
_cell_angle_alpha                90
_cell_angle_beta                 100.915(2)
_cell_angle_gamma                90
_cell_volume                     1225.54
_exptl_crystal_colour            colorless
_exptl_crystal_description       block
_cell_formula_units_Z            2
loop_
_atom_site_label
_atom_site_type_symbol
_atom_site_fract_x
_atom_site_fract_y
_atom_site_fract_z
O1 O -0.90125(18) -0.21908(7) -1.03588(14)
O2 O -1.1178(2) -0.18172(7) -1.23145(14)
O3 O -0.93270(19) -0.34181(8) -0.65799(12)
O4 O -0.71320(17) -0.40923(6) -0.74497(11)
N1 N -0.85259(18) -0.41415(6) -0.98352(13)
C1 C -1.2587(2) -0.13392(8) -0.70264(16)
C2 C -1.0849(3) -0.10127(8) -0.73680(19)
H1 H -1.0110 -0.1215 -0.8001
C3 C -1.0229(3) -0.04049(10) -0.6787(2)
H2 H -0.9084 -0.0200 -0.7034
C4 C -1.1299(4) -0.00897(10) -0.5828(2)
H3 H -1.0876 0.0325 -0.5446
C5 C -1.2958(3) -0.03906(11) -0.5457(2)
H4 H -1.3654 -0.0180 -0.4810
C6 C -1.3653(3) -0.10168(9) -0.60307(18)
C7 C -1.5399(3) -0.13271(11) -0.5654(2)
H5 H -1.6082 -0.1123 -0.4992
C8 C -1.6083(3) -0.19136(11) -0.6243(2)
H6 H -1.7231 -0.2112 -0.5984
C9 C -1.5057(3) -0.22293(9) -0.7256(2)
H7 H -1.5573 -0.2629 -0.7673
C10 C -1.3328(2) -0.19637(8) -0.76390(16)
C11 C -1.2202(2) -0.23217(7) -0.86997(16)
H8 H -1.0731 -0.2309 -0.8278
C12 C -1.2484(2) -0.19794(7) -1.01740(16)
C13 C -1.4211(3) -0.16865(11) -1.0793(2)
H9 H -1.432(3) -0.1499(10) -1.173(2)
H10 H -1.540(3) -0.1676(10) -1.024(2)
C14 C -1.0699(2) -0.20128(8) -1.09290(17)
C15 C -0.9571(4) -0.18646(12) -1.3167(2)
H11 H -1.0064 -0.1689 -1.4122
H12 H -0.9190 -0.2322 -1.3241
H13 H -0.8394 -0.1615 -1.2701
C16 C -1.2836(2) -0.30641(7) -0.88815(16)
H14 H -1.2655 -0.3268 -0.7927
H15 H -1.4286 -0.3089 -0.9315
C17 C -1.1631(2) -0.34564(7) -0.98072(14)
C18 C -1.2439(2) -0.34993(7) -1.13845(15)
C19 C -1.4552(2) -0.34856(10) -1.19358(19)
H16 H -1.5464 -0.3462 -1.1295
C20 C -1.5309(3) -0.35064(12) -1.3405(2)
H17 H -1.6723 -0.3509 -1.3746
C21 C -1.3995(3) -0.35229(11) -1.43771(19)
H18 H -1.4512 -0.3528 -1.5372
C22 C -1.1909(3) -0.35321(11) -1.38649(18)
H19 H -1.1011 -0.3541 -1.4518
C23 C -1.1134(3) -0.35279(9) -1.23849(16)
H20 H -0.9719 -0.3545 -1.2054
C24 C -0.9832(2) -0.37432(7) -0.91650(15)
C25 C -0.8901(2) -0.37033(8) -0.76098(16)
C26 C -0.7043(2) -0.43214(8) -0.88311(16)
C27 C -0.5247(2) -0.47179(7) -0.89627(17)
C28 C -0.3639(3) -0.48097(8) -0.77836(19)
H21 H -0.3735 -0.4640 -0.6875
C29 C -0.1898(3) -0.51543(9) -0.7969(2)
H22 H -0.0822 -0.5215 -0.7184
C30 C -0.1756(3) -0.54062(9) -0.9311(2)
H23 H -0.0568 -0.5627 -0.9436
C31 C -0.3360(3) -0.53336(9) -1.0468(2)
H24 H -0.3271 -0.5517 -1.1365
C32 C -0.5102(3) -0.49887(8) -1.03037(19)
H25 H -0.6180 -0.4938 -1.1092
loop_
_geom_bond_atom_site_label_1
_geom_bond_atom_site_label_2
_geom_bond_site_symmetry_1
_geom_bond_site_symmetry_2
O1 C14 1_555 1_555
O2 C14 1_555 1_555
O3 C25 1_555 1_555
O4 C25 1_555 1_555
N1 C24 1_555 1_555
C1 C2 1_555 1_555
C2 H1 1_555 1_555
C3 C2 1_555 1_555
H2 C3 1_555 1_555
C4 C3 1_555 1_555
H3 C4 1_555 1_555
C5 C4 1_555 1_555
H4 C5 1_555 1_555
C6 C1 1_555 1_555
C7 C6 1_555 1_555
H5 C7 1_555 1_555
C8 C7 1_555 1_555
H6 C8 1_555 1_555
C9 C8 1_555 1_555
H7 C9 1_555 1_555
C10 C1 1_555 1_555
C11 C10 1_555 1_555
H8 C11 1_555 1_555
C12 C11 1_555 1_555
C13 C12 1_555 1_555
H9 C13 1_555 1_555
H10 C13 1_555 1_555
C14 C12 1_555 1_555
C15 O2 1_555 1_555
H11 C15 1_555 1_555
H12 C15 1_555 1_555
H13 C15 1_555 1_555
C16 C11 1_555 1_555
H14 C16 1_555 1_555
H15 C16 1_555 1_555
C17 C16 1_555 1_555
C18 C17 1_555 1_555
C19 C18 1_555 1_555
H16 C19 1_555 1_555
C20 C19 1_555 1_555
H17 C20 1_555 1_555
C21 C20 1_555 1_555
H18 C21 1_555 1_555
C22 C21 1_555 1_555
H19 C22 1_555 1_555
C23 C18 1_555 1_555
H20 C23 1_555 1_555
C24 C17 1_555 1_555
C25 C24 1_555 1_555
C26 O4 1_555 1_555
C27 C26 1_555 1_555
C28 C27 1_555 1_555
H21 C28 1_555 1_555
C29 C28 1_555 1_555
H22 C29 1_555 1_555
C30 C29 1_555 1_555
H23 C30 1_555 1_555
C31 C30 1_555 1_555
H24 C31 1_555 1_555
C32 C27 1_555 1_555
H25 C32 1_555 1_555
N1 C26 1_555 1_555
C5 C6 1_555 1_555
C9 C10 1_555 1_555
C22 C23 1_555 1_555
C31 C32 1_555 1_555

#END
