
#######################################################################
#
#                 Cambridge Crystallographic Data Centre
#                                CCDC 
#
#######################################################################
#
# If this CIF has been generated from an entry in the Cambridge 
# Structural Database, then it will include bibliographic, chemical, 
# crystal, experimental, refinement or atomic coordinate data resulting 
# from the CCDC's data processing and validation procedures.
#
#######################################################################

data_CUQJOP01
_chemical_formula_moiety         'C19 H18 O5'
_chemical_name_systematic        
11-hydroxy-8,19-dimethyl-14,17-dioxahexacyclo[13.3.1.0^1,11^.0^4,10^.0^9,13^.0^12,16^]nonadeca-4,7,9-triene-6,18-dione
_symmetry_cell_setting           tetragonal
_symmetry_space_group_name_H-M   'P 41 21 2'
_symmetry_Int_Tables_number      92
_space_group_name_Hall           'P 4abw 2nw'
loop_
_symmetry_equiv_pos_site_id
_symmetry_equiv_pos_as_xyz
1 x,y,z
2 1/2-y,1/2+x,1/4+z
3 1/2+y,1/2-x,3/4+z
4 1/2+x,1/2-y,3/4-z
5 1/2-x,1/2+y,1/4-z
6 -x,-y,1/2+z
7 y,x,-z
8 -y,-x,1/2-z
_cell_length_a                   8.20870(10)
_cell_length_b                   8.20870(10)
_cell_length_c                   44.2189(5)
_cell_angle_alpha                90
_cell_angle_beta                 90
_cell_angle_gamma                90
_cell_volume                     2979.59
_exptl_crystal_colour            orange
_exptl_crystal_description       block
_cell_formula_units_Z            8
loop_
_atom_site_label
_atom_site_type_symbol
_atom_site_fract_x
_atom_site_fract_y
_atom_site_fract_z
O1 O -0.24168(16) 0.47640(17) 0.08097(3)
O2 O -0.13701(17) 0.58864(18) 0.00393(3)
O3 O 0.09430(19) 0.5429(2) -0.02016(3)
O4 O 0.1482(2) 0.7899(2) 0.03971(3)
H1 H 0.1442 0.8741 0.0505
O5 O 0.3839(2) 0.5270(2) 0.16801(3)
C1 C -0.1245(2) 0.7022(2) 0.05567(4)
H2 H -0.1495 0.8204 0.0528
C2 C -0.2136(2) 0.5930(3) 0.03346(4)
H3 H -0.3302 0.6269 0.0316
C3 C -0.2005(2) 0.4312(2) 0.05037(4)
H4 H -0.2809 0.3507 0.0423
C4 C -0.0253(3) 0.3671(2) 0.04668(4)
H5 H 0.0153 0.3322 0.0670
C5 C 0.0869(2) 0.5079(3) 0.03485(4)
C6 C 0.2688(3) 0.4630(4) 0.03546(5)
H6 H 0.3172 0.4904 0.0156
H7 H 0.2788 0.3437 0.0382
C7 C 0.3678(3) 0.5487(4) 0.06038(5)
H8 H 0.4675 0.4844 0.0645
H9 H 0.4021 0.6571 0.0529
C8 C 0.2748(3) 0.5702(3) 0.08967(5)
C9 C 0.1103(2) 0.6249(2) 0.08578(4)
C10 C 0.0581(2) 0.6637(3) 0.05371(4)
C11 C -0.0195(2) 0.6198(2) 0.10483(4)
C12 C -0.0215(3) 0.5828(2) 0.13678(4)
C13 C 0.1124(3) 0.5544(3) 0.15419(4)
H10 H 0.0888 0.5398 0.1750
C14 C 0.2841(3) 0.5423(3) 0.14689(4)
C15 C 0.3474(3) 0.5346(3) 0.11635(5)
H11 H 0.4572 0.4990 0.1148
C16 C -0.1864(3) 0.5802(3) 0.15187(4)
H12 H -0.1736 0.5512 0.1732
H13 H -0.2560 0.4995 0.1419
H14 H -0.2366 0.6881 0.1503
C17 C -0.0239(4) 0.2197(3) 0.02577(5)
H15 H -0.0875 0.1314 0.0349
H16 H 0.0886 0.1833 0.0227
H17 H -0.0719 0.2495 0.0062
C18 C 0.0228(3) 0.5480(3) 0.00363(4)
C19 C -0.1755(2) 0.6374(2) 0.08669(4)
H18 H -0.2561 0.7104 0.0969
loop_
_geom_bond_atom_site_label_1
_geom_bond_atom_site_label_2
_geom_bond_site_symmetry_1
_geom_bond_site_symmetry_2
O1 C3 1_555 1_555
O2 C2 1_555 1_555
O3 C18 1_555 1_555
O4 H1 1_555 1_555
O5 C14 1_555 1_555
C1 H2 1_555 1_555
C2 C1 1_555 1_555
H3 C2 1_555 1_555
C3 C2 1_555 1_555
H4 C3 1_555 1_555
C4 C3 1_555 1_555
H5 C4 1_555 1_555
C5 C4 1_555 1_555
C6 C5 1_555 1_555
H6 C6 1_555 1_555
H7 C6 1_555 1_555
C7 C6 1_555 1_555
H8 C7 1_555 1_555
H9 C7 1_555 1_555
C8 C7 1_555 1_555
C9 C8 1_555 1_555
C10 O4 1_555 1_555
C11 C9 1_555 1_555
C12 C11 1_555 1_555
C13 C12 1_555 1_555
H10 C13 1_555 1_555
C14 C13 1_555 1_555
C15 C8 1_555 1_555
H11 C15 1_555 1_555
C16 C12 1_555 1_555
H12 C16 1_555 1_555
H13 C16 1_555 1_555
H14 C16 1_555 1_555
C17 C4 1_555 1_555
H15 C17 1_555 1_555
H16 C17 1_555 1_555
H17 C17 1_555 1_555
C18 O2 1_555 1_555
C19 O1 1_555 1_555
H18 C19 1_555 1_555
C1 C10 1_555 1_555
C1 C19 1_555 1_555
C5 C10 1_555 1_555
C5 C18 1_555 1_555
C9 C10 1_555 1_555
C11 C19 1_555 1_555
C14 C15 1_555 1_555

#END
