
#######################################################################
#
#                 Cambridge Crystallographic Data Centre
#                                CCDC 
#
#######################################################################
#
# If this CIF has been generated from an entry in the Cambridge 
# Structural Database, then it will include bibliographic, chemical, 
# crystal, experimental, refinement or atomic coordinate data resulting 
# from the CCDC's data processing and validation procedures.
#
#######################################################################

data_CURDAV
_chemical_formula_moiety         'C55 H70 Li2 N4 P2'
_chemical_name_systematic        
(\m~2~-bis(N-2,6-Di-isopropylphenyl-P,P-diphenylphosphinimino)-methyl)-(N,N,N',N'-tetramethylethane-1,2-diamine)-di-lithium
_symmetry_cell_setting           monoclinic
_symmetry_space_group_name_H-M   'P 21/n'
_symmetry_Int_Tables_number      14
_space_group_name_Hall           '-P 2yn'
loop_
_symmetry_equiv_pos_site_id
_symmetry_equiv_pos_as_xyz
1 x,y,z
2 1/2-x,1/2+y,1/2-z
3 -x,-y,-z
4 1/2+x,1/2-y,1/2+z
_cell_length_a                   13.54592(13)
_cell_length_b                   21.64626(20)
_cell_length_c                   17.42775(15)
_cell_angle_alpha                90
_cell_angle_beta                 98.9911(9)
_cell_angle_gamma                90
_cell_volume                     5047.35
_exptl_crystal_colour            colorless
_exptl_crystal_description       plate
_cell_formula_units_Z            4
loop_
_atom_site_label
_atom_site_type_symbol
_atom_site_fract_x
_atom_site_fract_y
_atom_site_fract_z
Li1 Li 1.1025(2) 0.17974(13) 0.39167(15)
Li2 Li 0.8688(2) 0.10150(14) 0.19637(17)
N1 N 1.04873(9) 0.25675(5) 0.34773(7)
N2 N 1.17312(9) 0.11595(5) 0.35044(7)
N3 N 0.83960(11) 0.07950(8) 0.07443(9)
N4 N 0.72959(11) 0.06013(8) 0.20465(10)
P1 P 0.96792(3) 0.223093(16) 0.28210(2)
P2 P 1.08956(3) 0.104213(16) 0.27440(2)
C1 C 0.98557(10) 0.14694(6) 0.27085(8)
C2 C 0.84478(11) 0.23537(7) 0.31158(8)
C3 C 0.79923(12) 0.18690(7) 0.34540(9)
H1 H 0.8282 0.1469 0.3471
C4 C 0.71184(13) 0.19619(9) 0.37677(10)
H2 H 0.6820 0.1627 0.3998
C5 C 0.66864(13) 0.25416(9) 0.37435(11)
H3 H 0.6083 0.2604 0.3947
C6 C 0.71358(13) 0.30296(9) 0.34219(11)
H4 H 0.6842 0.3429 0.3408
C7 C 0.80158(12) 0.29414(8) 0.31174(10)
H5 H 0.8326 0.3283 0.2909
C8 C 0.95796(12) 0.26452(6) 0.18888(8)
C9 C 1.04695(12) 0.27609(7) 0.16015(9)
H6 H 1.1087 0.2637 0.1897
C10 C 1.04677(14) 0.30527(8) 0.08931(9)
H7 H 1.1079 0.3122 0.0705
C11 C 0.95722(16) 0.32427(8) 0.04599(10)
H8 H 0.9569 0.3452 -0.0019
C12 C 0.86898(15) 0.31257(8) 0.07280(10)
H9 H 0.8076 0.3253 0.0429
C13 C 0.86828(13) 0.28225(7) 0.14344(9)
H10 H 0.8065 0.2736 0.1606
C14 C 1.04714(11) 0.02306(6) 0.27402(8)
C15 C 0.99448(13) 0.00516(7) 0.33315(10)
H11 H 0.9779 0.0353 0.3687
C16 C 0.96598(14) -0.05588(8) 0.34086(11)
H12 H 0.9307 -0.0672 0.3818
C17 C 0.98860(13) -0.10027(7) 0.28941(10)
H13 H 0.9691 -0.1420 0.2948
C18 C 1.03962(14) -0.08347(8) 0.23036(11)
H14 H 1.0550 -0.1137 0.1945
C19 C 1.06894(13) -0.02220(7) 0.22289(10)
H15 H 1.1045 -0.0113 0.1820
C20 C 1.14931(11) 0.10659(6) 0.18633(8)
C21 C 1.10319(12) 0.14028(7) 0.12291(9)
H16 H 1.0413 0.1601 0.1257
C22 C 1.14529(13) 0.14569(7) 0.05557(9)
H17 H 1.1126 0.1694 0.0132
C23 C 1.23480(12) 0.11662(7) 0.05003(9)
H18 H 1.2639 0.1201 0.0040
C24 C 1.28170(12) 0.08220(7) 0.11251(9)
H19 H 1.3431 0.0620 0.1091
C25 C 1.23964(11) 0.07706(7) 0.17996(8)
H20 H 1.2725 0.0533 0.2222
C26 C 1.02845(10) 0.30831(6) 0.39237(8)
C27 C 1.04366(10) 0.36967(7) 0.36916(8)
C28 C 1.02119(11) 0.41862(7) 0.41557(9)
H21 H 1.0299 0.4598 0.3989
C29 C 0.98655(11) 0.40890(7) 0.48513(9)
H22 H 0.9700 0.4429 0.5152
C30 C 0.97627(11) 0.34862(7) 0.51026(8)
H23 H 0.9547 0.3416 0.5588
C31 C 0.99697(10) 0.29849(7) 0.46571(8)
C32 C 1.08550(11) 0.38372(7) 0.29536(8)
H24 H 1.0986 0.3434 0.2708
C33 C 1.01179(13) 0.41996(7) 0.23661(9)
H25 H 0.9475 0.3983 0.2275
H26 H 1.0383 0.4235 0.1876
H27 H 1.0023 0.4613 0.2571
C34 C 1.18483(12) 0.41849(7) 0.31224(9)
H28 H 1.2331 0.3939 0.3473
H29 H 1.1744 0.4582 0.3367
H30 H 1.2106 0.4256 0.2635
C35 C 0.99133(11) 0.23302(7) 0.49644(8)
H31 H 0.9729 0.2052 0.4507
C36 C 1.09554(13) 0.21352(8) 0.53741(10)
H32 H 1.1453 0.2228 0.5038
H33 H 1.0958 0.1691 0.5482
H34 H 1.1120 0.2363 0.5864
C37 C 0.91426(13) 0.22359(8) 0.55030(10)
H35 H 0.8489 0.2382 0.5246
H36 H 0.9343 0.2470 0.5984
H37 H 0.9101 0.1796 0.5626
C38 C 1.27648(11) 0.10302(7) 0.35857(8)
C39 C 1.34254(11) 0.14610(7) 0.33232(8)
C40 C 1.44382(11) 0.13174(7) 0.33897(9)
H38 H 1.4878 0.1601 0.3201
C41 C 1.48146(11) 0.07706(8) 0.37246(9)
H39 H 1.5503 0.0674 0.3749
C42 C 1.41832(12) 0.03653(7) 0.40240(9)
H40 H 1.4450 -0.0001 0.4275
C43 C 1.31630(11) 0.04839(7) 0.39643(8)
C44 C 1.30482(12) 0.20886(7) 0.30133(9)
H41 H 1.2310 0.2052 0.2845
C45 C 1.32191(14) 0.25686(8) 0.36651(10)
H42 H 1.2903 0.2428 0.4103
H43 H 1.2925 0.2964 0.3473
H44 H 1.3938 0.2621 0.3836
C46 C 1.35000(14) 0.23095(8) 0.23141(10)
H45 H 1.3383 0.1999 0.1901
H46 H 1.4221 0.2372 0.2467
H47 H 1.3187 0.2700 0.2125
C47 C 1.24853(12) 0.00474(7) 0.43254(9)
H48 H 1.1807 0.0072 0.4004
C48 C 1.28085(17) -0.06268(8) 0.43417(12)
H49 H 1.2293 -0.0884 0.4519
H50 H 1.3439 -0.0675 0.4698
H51 H 1.2901 -0.0755 0.3819
C49 C 1.2383(2) 0.02619(10) 0.51373(13)
H52 H 1.2145 0.0690 0.5117
H53 H 1.3034 0.0237 0.5472
H54 H 1.1903 -0.0003 0.5348
C50 C 0.73886(15) 0.05243(12) 0.06416(13)
H55 H 0.7311 0.0233 0.0199
H56 H 0.6885 0.0856 0.0520
C51 C 0.72106(16) 0.01888(11) 0.13639(17)
H57 H 0.6535 0.0003 0.1273
H58 H 0.7702 -0.0151 0.1473
C52 C 0.91024(15) 0.03396(10) 0.05304(13)
H59 H 0.8913 0.0227 -0.0018
H60 H 0.9091 -0.0030 0.0854
H61 H 0.9777 0.0516 0.0611
C53 C 0.8405(2) 0.13419(12) 0.02353(13)
H62 H 0.8217 0.1217 -0.0308
H63 H 0.9077 0.1522 0.0310
H64 H 0.7926 0.1649 0.0367
C54 C 0.72700(18) 0.02510(12) 0.27651(16)
H65 H 0.6612 0.0058 0.2746
H66 H 0.7394 0.0531 0.3212
H67 H 0.7787 -0.0070 0.2818
C55 C 0.64525(14) 0.10323(11) 0.19585(12)
H68 H 0.5824 0.0800 0.1864
H69 H 0.6492 0.1308 0.1518
H70 H 0.6477 0.1277 0.2434
loop_
_geom_bond_atom_site_label_1
_geom_bond_atom_site_label_2
_geom_bond_site_symmetry_1
_geom_bond_site_symmetry_2
Li1 N1 1_555 1_555
Li2 N3 1_555 1_555
N1 P1 1_555 1_555
N2 Li1 1_555 1_555
N3 C50 1_555 1_555
N4 Li2 1_555 1_555
P1 C1 1_555 1_555
P2 N2 1_555 1_555
C1 Li2 1_555 1_555
C2 P1 1_555 1_555
C3 C2 1_555 1_555
H1 C3 1_555 1_555
C4 C3 1_555 1_555
H2 C4 1_555 1_555
C5 C4 1_555 1_555
H3 C5 1_555 1_555
C6 C5 1_555 1_555
H4 C6 1_555 1_555
C7 C2 1_555 1_555
H5 C7 1_555 1_555
C8 P1 1_555 1_555
C9 C8 1_555 1_555
H6 C9 1_555 1_555
C10 C9 1_555 1_555
H7 C10 1_555 1_555
C11 C10 1_555 1_555
H8 C11 1_555 1_555
C12 C11 1_555 1_555
H9 C12 1_555 1_555
C13 C8 1_555 1_555
H10 C13 1_555 1_555
C14 P2 1_555 1_555
C15 C14 1_555 1_555
H11 C15 1_555 1_555
C16 C15 1_555 1_555
H12 C16 1_555 1_555
C17 C16 1_555 1_555
H13 C17 1_555 1_555
C18 C17 1_555 1_555
H14 C18 1_555 1_555
C19 C14 1_555 1_555
H15 C19 1_555 1_555
C20 P2 1_555 1_555
C21 C20 1_555 1_555
H16 C21 1_555 1_555
C22 C21 1_555 1_555
H17 C22 1_555 1_555
C23 C22 1_555 1_555
H18 C23 1_555 1_555
C24 C23 1_555 1_555
H19 C24 1_555 1_555
C25 C20 1_555 1_555
H20 C25 1_555 1_555
C26 N1 1_555 1_555
C27 C26 1_555 1_555
C28 C27 1_555 1_555
H21 C28 1_555 1_555
C29 C28 1_555 1_555
H22 C29 1_555 1_555
C30 C29 1_555 1_555
H23 C30 1_555 1_555
C31 C26 1_555 1_555
C32 C27 1_555 1_555
H24 C32 1_555 1_555
C33 C32 1_555 1_555
H25 C33 1_555 1_555
H26 C33 1_555 1_555
H27 C33 1_555 1_555
C34 C32 1_555 1_555
H28 C34 1_555 1_555
H29 C34 1_555 1_555
H30 C34 1_555 1_555
C35 C31 1_555 1_555
H31 C35 1_555 1_555
C36 C35 1_555 1_555
H32 C36 1_555 1_555
H33 C36 1_555 1_555
H34 C36 1_555 1_555
C37 C35 1_555 1_555
H35 C37 1_555 1_555
H36 C37 1_555 1_555
H37 C37 1_555 1_555
C38 N2 1_555 1_555
C39 C38 1_555 1_555
C40 C39 1_555 1_555
H38 C40 1_555 1_555
C41 C40 1_555 1_555
H39 C41 1_555 1_555
C42 C41 1_555 1_555
H40 C42 1_555 1_555
C43 C38 1_555 1_555
C44 C39 1_555 1_555
H41 C44 1_555 1_555
C45 C44 1_555 1_555
H42 C45 1_555 1_555
H43 C45 1_555 1_555
H44 C45 1_555 1_555
C46 C44 1_555 1_555
H45 C46 1_555 1_555
H46 C46 1_555 1_555
H47 C46 1_555 1_555
C47 C43 1_555 1_555
H48 C47 1_555 1_555
C48 C47 1_555 1_555
H49 C48 1_555 1_555
H50 C48 1_555 1_555
H51 C48 1_555 1_555
C49 C47 1_555 1_555
H52 C49 1_555 1_555
H53 C49 1_555 1_555
H54 C49 1_555 1_555
C50 H55 1_555 1_555
H56 C50 1_555 1_555
C51 N4 1_555 1_555
H57 C51 1_555 1_555
H58 C51 1_555 1_555
C52 N3 1_555 1_555
H59 C52 1_555 1_555
H60 C52 1_555 1_555
H61 C52 1_555 1_555
C53 N3 1_555 1_555
H62 C53 1_555 1_555
H63 C53 1_555 1_555
H64 C53 1_555 1_555
C54 N4 1_555 1_555
H65 C54 1_555 1_555
H66 C54 1_555 1_555
H67 C54 1_555 1_555
C55 N4 1_555 1_555
H68 C55 1_555 1_555
H69 C55 1_555 1_555
H70 C55 1_555 1_555
P2 C1 1_555 1_555
C6 C7 1_555 1_555
C12 C13 1_555 1_555
C18 C19 1_555 1_555
C24 C25 1_555 1_555
C30 C31 1_555 1_555
C42 C43 1_555 1_555
C50 C51 1_555 1_555

#END
