
#######################################################################
#
#                 Cambridge Crystallographic Data Centre
#                                CCDC 
#
#######################################################################
#
# If this CIF has been generated from an entry in the Cambridge 
# Structural Database, then it will include bibliographic, chemical, 
# crystal, experimental, refinement or atomic coordinate data resulting 
# from the CCDC's data processing and validation procedures.
#
#######################################################################

data_CURHUU
_chemical_formula_moiety         'C11 H18 N5 O1 1+,I1 1-'
_chemical_name_systematic        
'((amino((4-methoxyphenyl)amino)methylene)amino)(dimethylamino)methaniminium iodide'
_symmetry_cell_setting           monoclinic
_symmetry_space_group_name_H-M   'P 21/c'
_symmetry_Int_Tables_number      14
_space_group_name_Hall           '-P 2ybc'
loop_
_symmetry_equiv_pos_site_id
_symmetry_equiv_pos_as_xyz
1 x,y,z
2 -x,1/2+y,1/2-z
3 -x,-y,-z
4 x,1/2-y,1/2+z
_cell_length_a                   10.7823(4)
_cell_length_b                   11.5658(3)
_cell_length_c                   11.9326(4)
_cell_angle_alpha                90
_cell_angle_beta                 90.080(3)
_cell_angle_gamma                90
_cell_volume                     1488.06
_exptl_crystal_colour            colorless
_exptl_crystal_description       chunk
_cell_formula_units_Z            4
loop_
_atom_site_label
_atom_site_type_symbol
_atom_site_fract_x
_atom_site_fract_y
_atom_site_fract_z
C1 C 0.6645(4) 0.8024(4) 0.3210(4)
H1 H 0.6525 0.8501 0.3859
H2 H 0.7121 0.8440 0.2663
H3 H 0.7081 0.7333 0.3420
C2 C 0.4689(3) 0.7090(3) 0.3405(3)
C3 C 0.3606(3) 0.6736(3) 0.2891(3)
H4 H 0.3459 0.6931 0.2147
C4 C 0.2741(3) 0.6098(3) 0.3471(3)
H5 H 0.2016 0.5865 0.3113
C5 C 0.2941(3) 0.5797(3) 0.4586(2)
C6 C 0.4022(3) 0.6161(3) 0.5100(3)
H6 H 0.4169 0.5970 0.5846
C7 C 0.4889(3) 0.6808(3) 0.4517(3)
H7 H 0.5609 0.7054 0.4875
C8 C 0.1698(3) 0.5056(3) 0.6199(2)
C9 C 0.1932(3) 0.5782(3) 0.8007(2)
C10 C 0.2429(3) 0.5814(3) 0.9991(3)
H8 H 0.2170 0.6606 1.0036
H9 H 0.3158 0.5704 1.0441
H10 H 0.1777 0.5322 1.0261
C11 C 0.3832(3) 0.4859(3) 0.8619(3)
H11 H 0.3694 0.4064 0.8812
H12 H 0.4497 0.5164 0.9066
H13 H 0.4045 0.4914 0.7840
N1 N 0.2029(2) 0.5097(2) 0.5107(2)
H14 H 0.1633 0.4636 0.4669
N2 N 0.0719(2) 0.4363(2) 0.6430(2)
H15 H 0.0470 0.4282 0.7110
H16 H 0.0346 0.4004 0.5896
N3 N 0.2326(2) 0.5637(2) 0.6940(2)
N4 N 0.0840(2) 0.6262(3) 0.8223(2)
H17 H 0.0630 0.6407 0.8904
H18 H 0.0343 0.6428 0.7683
N5 N 0.2703(2) 0.5524(2) 0.8831(2)
O1 O 0.5480(3) 0.7725(2) 0.2749(2)
I1 I 0.07362(2) 0.226622(19) 0.413268(16)
loop_
_geom_bond_atom_site_label_1
_geom_bond_atom_site_label_2
_geom_bond_site_symmetry_1
_geom_bond_site_symmetry_2
C1 H1 1_555 1_555
H2 C1 1_555 1_555
H3 C1 1_555 1_555
C2 C3 1_555 1_555
C3 H4 1_555 1_555
C4 C3 1_555 1_555
H5 C4 1_555 1_555
C5 C4 1_555 1_555
C6 C5 1_555 1_555
H6 C6 1_555 1_555
C7 C2 1_555 1_555
H7 C7 1_555 1_555
C8 N1 1_555 1_555
C9 N3 1_555 1_555
C10 H8 1_555 1_555
H9 C10 1_555 1_555
H10 C10 1_555 1_555
C11 H11 1_555 1_555
H12 C11 1_555 1_555
H13 C11 1_555 1_555
N1 C5 1_555 1_555
H14 N1 1_555 1_555
N2 C8 1_555 1_555
H15 N2 1_555 1_555
H16 N2 1_555 1_555
N3 C8 1_555 1_555
N4 C9 1_555 1_555
H17 N4 1_555 1_555
H18 N4 1_555 1_555
N5 C9 1_555 1_555
O1 C1 1_555 1_555
C2 O1 1_555 1_555
C6 C7 1_555 1_555
C10 N5 1_555 1_555
C11 N5 1_555 1_555

#END
