
#######################################################################
#
#                 Cambridge Crystallographic Data Centre
#                                CCDC 
#
#######################################################################
#
# If this CIF has been generated from an entry in the Cambridge 
# Structural Database, then it will include bibliographic, chemical, 
# crystal, experimental, refinement or atomic coordinate data resulting 
# from the CCDC's data processing and validation procedures.
#
#######################################################################

data_CUSDOK
_chemical_formula_moiety         'C19 H18 Br1 N3 O3'
_chemical_name_systematic        
4-(1-(2-Bromophenyl)-2-nitroethyl)-4,5-dimethyl-2-phenyl-2,4-dihydro-3H-pyrazol-3-one
_symmetry_cell_setting           monoclinic
_symmetry_space_group_name_H-M   'P 21/n'
_symmetry_Int_Tables_number      14
_space_group_name_Hall           '-P 2yn'
loop_
_symmetry_equiv_pos_site_id
_symmetry_equiv_pos_as_xyz
1 x,y,z
2 1/2-x,1/2+y,1/2-z
3 -x,-y,-z
4 1/2+x,1/2-y,1/2+z
_cell_length_a                   16.402(3)
_cell_length_b                   9.5055(19)
_cell_length_c                   22.902(5)
_cell_angle_alpha                90
_cell_angle_beta                 97.37(3)
_cell_angle_gamma                90
_cell_volume                     3541.13
_exptl_crystal_colour            orange
_exptl_crystal_description       block
_cell_formula_units_Z            8
loop_
_atom_site_label
_atom_site_type_symbol
_atom_site_fract_x
_atom_site_fract_y
_atom_site_fract_z
Br1 Br 0.634959(17) 0.90764(3) 0.137359(14)
O1 O 0.47973(12) 0.3151(2) 0.18828(9)
O2 O 0.48958(12) 0.7453(2) 0.04371(10)
O3 O 0.41126(14) 0.5769(2) 0.00598(11)
N1 N 0.57315(14) 0.3871(2) 0.26749(11)
N2 N 0.64650(14) 0.4676(3) 0.27646(12)
N3 N 0.45844(14) 0.6290(3) 0.04592(12)
C1 C 0.54365(17) 0.3264(3) 0.31746(14)
C2 C 0.46282(18) 0.2811(3) 0.31399(14)
H1 H 0.4275 0.2887 0.2790
C3 C 0.43597(19) 0.2243(3) 0.36371(15)
H2 H 0.3821 0.1926 0.3617
C4 C 0.48713(19) 0.2137(3) 0.41616(15)
H3 H 0.4679 0.1747 0.4491
C5 C 0.56717(19) 0.2614(3) 0.41951(14)
H4 H 0.6015 0.2564 0.4551
C6 C 0.59660(18) 0.3165(3) 0.37026(14)
H5 H 0.6509 0.3464 0.3723
C7 C 0.65973(17) 0.5167(3) 0.22627(14)
C8 C 0.59654(17) 0.4698(3) 0.17598(13)
C9 C 0.54072(18) 0.3803(3) 0.20963(14)
C10 C 0.73468(17) 0.6010(3) 0.22064(15)
H6 H 0.7674 0.6081 0.2584
H7 H 0.7190 0.6934 0.2065
H8 H 0.7660 0.5558 0.1934
C11 C 0.63734(18) 0.3712(3) 0.13454(14)
H9 H 0.6720 0.4253 0.1123
H10 H 0.5955 0.3252 0.1081
H11 H 0.6698 0.3018 0.1575
C12 C 0.55059(16) 0.5958(3) 0.14218(13)
H12 H 0.5889 0.6391 0.1180
C13 C 0.47705(17) 0.5414(3) 0.10029(14)
H13 H 0.4882 0.4456 0.0890
H14 H 0.4290 0.5394 0.1209
C14 C 0.52614(16) 0.7088(3) 0.18392(13)
C15 C 0.46714(16) 0.6769(3) 0.22147(14)
H15 H 0.4428 0.5884 0.2194
C16 C 0.44455(17) 0.7738(3) 0.26133(14)
H16 H 0.4060 0.7493 0.2860
C17 C 0.47846(18) 0.9058(3) 0.26484(14)
H17 H 0.4633 0.9704 0.2920
C18 C 0.53542(17) 0.9424(3) 0.22770(14)
H18 H 0.5577 1.0325 0.2292
C19 C 0.55915(16) 0.8441(3) 0.18824(13)
Br2 Br 0.735348(18) 0.05779(3) 0.629351(15)
O4 O 0.80806(12) 0.7030(2) 0.58242(10)
O5 O 0.69127(13) 0.4779(2) 0.73229(10)
O6 O 0.78452(15) 0.3180(3) 0.74527(11)
N4 N 0.75937(14) 0.5942(2) 0.49431(11)
N5 N 0.76191(14) 0.4575(2) 0.46959(11)
N6 N 0.75407(16) 0.4236(3) 0.72067(12)
C20 C 0.71860(16) 0.7020(3) 0.45916(14)
C21 C 0.69156(16) 0.6782(3) 0.39972(14)
H19 H 0.7010 0.5915 0.3830
C22 C 0.65077(16) 0.7824(3) 0.36542(14)
H20 H 0.6328 0.7656 0.3259
C23 C 0.63668(17) 0.9121(3) 0.38997(15)
H21 H 0.6097 0.9828 0.3670
C24 C 0.66322(17) 0.9351(3) 0.44905(16)
H22 H 0.6536 1.0219 0.4656
C25 C 0.70393(16) 0.8313(3) 0.48396(14)
H23 H 0.7212 0.8482 0.5236
C26 C 0.79804(16) 0.5996(3) 0.55089(14)
C27 C 0.82631(16) 0.4501(3) 0.56698(14)
C28 C 0.79845(16) 0.3763(3) 0.50975(13)
C29 C 0.81433(18) 0.2260(3) 0.49628(15)
H24 H 0.7848 0.2018 0.4587
H25 H 0.7962 0.1671 0.5261
H26 H 0.8721 0.2123 0.4953
C30 C 0.92081(17) 0.4478(3) 0.58151(15)
H27 H 0.9383 0.3560 0.5954
H28 H 0.9376 0.5163 0.6114
H29 H 0.9453 0.4697 0.5467
C31 C 0.78525(16) 0.3866(3) 0.61901(13)
H30 H 0.8144 0.2992 0.6309
C32 C 0.79527(19) 0.4853(4) 0.67258(14)
H31 H 0.8532 0.4991 0.6861
H32 H 0.7712 0.5762 0.6615
C33 C 0.69492(16) 0.3490(3) 0.60145(13)
C34 C 0.63722(17) 0.4542(3) 0.58522(14)
H33 H 0.6545 0.5473 0.5850
C35 C 0.55510(17) 0.4237(3) 0.56940(14)
H34 H 0.5179 0.4959 0.5586
C36 C 0.52812(17) 0.2867(3) 0.56955(14)
H35 H 0.4728 0.2665 0.5586
C37 C 0.58280(17) 0.1794(3) 0.58590(14)
H36 H 0.5647 0.0867 0.5860
C38 C 0.66547(17) 0.2114(3) 0.60227(13)
loop_
_geom_bond_atom_site_label_1
_geom_bond_atom_site_label_2
_geom_bond_site_symmetry_1
_geom_bond_site_symmetry_2
Br1 C19 1_555 1_555
O1 C9 1_555 1_555
O2 N3 1_555 1_555
O3 N3 1_555 1_555
N1 N2 1_555 1_555
N2 C7 1_555 1_555
N3 C13 1_555 1_555
C1 N1 1_555 1_555
C2 C1 1_555 1_555
H1 C2 1_555 1_555
C3 C2 1_555 1_555
H2 C3 1_555 1_555
C4 C3 1_555 1_555
H3 C4 1_555 1_555
C5 C4 1_555 1_555
H4 C5 1_555 1_555
C6 C1 1_555 1_555
H5 C6 1_555 1_555
C7 C8 1_555 1_555
C8 C9 1_555 1_555
C9 N1 1_555 1_555
C10 C7 1_555 1_555
H6 C10 1_555 1_555
H7 C10 1_555 1_555
H8 C10 1_555 1_555
C11 C8 1_555 1_555
H9 C11 1_555 1_555
H10 C11 1_555 1_555
H11 C11 1_555 1_555
C12 C8 1_555 1_555
H12 C12 1_555 1_555
C13 C12 1_555 1_555
H13 C13 1_555 1_555
H14 C13 1_555 1_555
C14 C12 1_555 1_555
C15 C14 1_555 1_555
H15 C15 1_555 1_555
C16 C15 1_555 1_555
H16 C16 1_555 1_555
C17 C16 1_555 1_555
H17 C17 1_555 1_555
C18 C17 1_555 1_555
H18 C18 1_555 1_555
C19 C14 1_555 1_555
Br2 C38 1_555 1_555
O4 C26 1_555 1_555
O5 N6 1_555 1_555
O6 N6 1_555 1_555
N4 N5 1_555 1_555
N5 C28 1_555 1_555
N6 C32 1_555 1_555
C20 N4 1_555 1_555
C21 C20 1_555 1_555
H19 C21 1_555 1_555
C22 C21 1_555 1_555
H20 C22 1_555 1_555
C23 C22 1_555 1_555
H21 C23 1_555 1_555
C24 C23 1_555 1_555
H22 C24 1_555 1_555
C25 C20 1_555 1_555
H23 C25 1_555 1_555
C26 N4 1_555 1_555
C27 C26 1_555 1_555
C28 C27 1_555 1_555
C29 C28 1_555 1_555
H24 C29 1_555 1_555
H25 C29 1_555 1_555
H26 C29 1_555 1_555
C30 C27 1_555 1_555
H27 C30 1_555 1_555
H28 C30 1_555 1_555
H29 C30 1_555 1_555
C31 C27 1_555 1_555
H30 C31 1_555 1_555
C32 C31 1_555 1_555
H31 C32 1_555 1_555
H32 C32 1_555 1_555
C33 C31 1_555 1_555
C34 C33 1_555 1_555
H33 C34 1_555 1_555
C35 C34 1_555 1_555
H34 C35 1_555 1_555
C36 C35 1_555 1_555
H35 C36 1_555 1_555
C37 C36 1_555 1_555
H36 C37 1_555 1_555
C38 C33 1_555 1_555
C5 C6 1_555 1_555
C18 C19 1_555 1_555
C24 C25 1_555 1_555
C37 C38 1_555 1_555

#END
