
#######################################################################
#
#                 Cambridge Crystallographic Data Centre
#                                CCDC 
#
#######################################################################
#
# If this CIF has been generated from an entry in the Cambridge 
# Structural Database, then it will include bibliographic, chemical, 
# crystal, experimental, refinement or atomic coordinate data resulting 
# from the CCDC's data processing and validation procedures.
#
#######################################################################

data_CUTKIN
_chemical_formula_moiety         'C17 H32 N2 O1'
_chemical_name_systematic        1,3-bis(1-cyclohexylethyl)urea
_symmetry_cell_setting           monoclinic
_symmetry_space_group_name_H-M   'C 2'
_symmetry_Int_Tables_number      5
_space_group_name_Hall           'C 2y'
loop_
_symmetry_equiv_pos_site_id
_symmetry_equiv_pos_as_xyz
1 x,y,z
2 -x,y,-z
3 1/2+x,1/2+y,z
4 1/2-x,1/2+y,-z
_cell_length_a                   11.6836(3)
_cell_length_b                   4.62890(10)
_cell_length_c                   15.0991(4)
_cell_angle_alpha                90
_cell_angle_beta                 98.0470(10)
_cell_angle_gamma                90
_cell_volume                     808.552
_exptl_crystal_colour            colorless
_exptl_crystal_description       Plate
_cell_formula_units_Z            2
loop_
_atom_site_label
_atom_site_type_symbol
_atom_site_fract_x
_atom_site_fract_y
_atom_site_fract_z
C1 C 0.35863(10) 0.5416(3) 0.27503(8)
H1 H 0.3586 0.3257 0.2729
C2 C 0.25832(10) 0.6502(4) 0.20632(8)
H2 H 0.1849 0.5679 0.2207
H3 H 0.2532 0.8631 0.2106
O1 O 0.5000 0.9362(3) 0.5000
N1 N 0.43723(9) 0.5100(3) 0.43460(7)
H4 H 0.4378(14) 0.334(5) 0.4414(11)
C3 C 0.47408(10) 0.6476(4) 0.24940(8)
H5 H 0.4779 0.8607 0.2548
H6 H 0.5383 0.5656 0.2916
C4 C 0.34429(10) 0.6338(3) 0.37095(7)
H7 H 0.3510 0.8490 0.3746
C5 C 0.38918(11) 0.6705(4) 0.08607(8)
H8 H 0.3903 0.8843 0.0848
H9 H 0.3986 0.5995 0.0257
C6 C 0.5000 0.6686(4) 0.5000
C7 C 0.22665(10) 0.5486(4) 0.39695(8)
H10 H 0.2126 0.3429 0.3846
H11 H 0.1657 0.6631 0.3621
H12 H 0.2264 0.5854 0.4608
C8 C 0.48933(10) 0.5611(4) 0.15380(8)
H13 H 0.5628 0.6419 0.1391
H14 H 0.4938 0.3480 0.1498
C9 C 0.27330(10) 0.5670(4) 0.11037(7)
H15 H 0.2683 0.3544 0.1039
H16 H 0.2098 0.6531 0.0684
C1A C 0.64137(10) 0.5416(3) 0.72497(8)
H1A H 0.6414 0.3257 0.7271
C2A C 0.74168(10) 0.6502(4) 0.79368(8)
H2A H 0.8151 0.5679 0.7793
H3A H 0.7468 0.8631 0.7894
N1A N 0.56277(9) 0.5100(3) 0.56540(7)
H4A H 0.5622(14) 0.334(5) 0.5586(11)
C3A C 0.52592(10) 0.6476(4) 0.75060(8)
H5A H 0.5221 0.8607 0.7452
H6A H 0.4617 0.5656 0.7084
C4A C 0.65571(10) 0.6338(3) 0.62905(7)
H7A H 0.6490 0.8490 0.6254
C5A C 0.61082(11) 0.6705(4) 0.91393(8)
H8A H 0.6097 0.8843 0.9152
H9A H 0.6014 0.5995 0.9743
C7A C 0.77335(10) 0.5486(4) 0.60305(8)
H10A H 0.7874 0.3429 0.6154
H11A H 0.8343 0.6631 0.6379
H12A H 0.7736 0.5854 0.5392
C8A C 0.51067(10) 0.5611(4) 0.84620(8)
H13A H 0.4372 0.6419 0.8609
H14A H 0.5062 0.3480 0.8502
C9A C 0.72670(10) 0.5670(4) 0.88963(7)
H15A H 0.7317 0.3544 0.8961
H16A H 0.7902 0.6531 0.9316
loop_
_geom_bond_atom_site_label_1
_geom_bond_atom_site_label_2
_geom_bond_site_symmetry_1
_geom_bond_site_symmetry_2
C1 H1 1_555 1_555
C2 C1 1_555 1_555
H2 C2 1_555 1_555
H3 C2 1_555 1_555
O1 C6 1_555 1_555
N1 H4 1_555 1_555
C3 C1 1_555 1_555
H5 C3 1_555 1_555
H6 C3 1_555 1_555
C4 C1 1_555 1_555
H7 C4 1_555 1_555
C5 H8 1_555 1_555
H9 C5 1_555 1_555
C6 N1 1_555 1_555
C7 C4 1_555 1_555
H10 C7 1_555 1_555
H11 C7 1_555 1_555
H12 C7 1_555 1_555
C8 C3 1_555 1_555
H13 C8 1_555 1_555
H14 C8 1_555 1_555
C9 C2 1_555 1_555
H15 C9 1_555 1_555
H16 C9 1_555 1_555
C1A H1A 1_555 1_555
C2A C1A 1_555 1_555
H2A C2A 1_555 1_555
H3A C2A 1_555 1_555
N1A C6 1_555 1_555
H4A N1A 1_555 1_555
C3A C1A 1_555 1_555
H5A C3A 1_555 1_555
H6A C3A 1_555 1_555
C4A C1A 1_555 1_555
H7A C4A 1_555 1_555
C5A H8A 1_555 1_555
H9A C5A 1_555 1_555
C7A C4A 1_555 1_555
H10A C7A 1_555 1_555
H11A C7A 1_555 1_555
H12A C7A 1_555 1_555
C8A C3A 1_555 1_555
H13A C8A 1_555 1_555
H14A C8A 1_555 1_555
C9A C2A 1_555 1_555
H15A C9A 1_555 1_555
H16A C9A 1_555 1_555
N1 C4 1_555 1_555
C5 C8 1_555 1_555
C5 C9 1_555 1_555
N1A C4A 1_555 1_555
C5A C8A 1_555 1_555
C5A C9A 1_555 1_555

#END
