
#######################################################################
#
#                 Cambridge Crystallographic Data Centre
#                                CCDC 
#
#######################################################################
#
# If this CIF has been generated from an entry in the Cambridge 
# Structural Database, then it will include bibliographic, chemical, 
# crystal, experimental, refinement or atomic coordinate data resulting 
# from the CCDC's data processing and validation procedures.
#
#######################################################################

data_CUTPAJ
_chemical_name_common            cis-sertraline
_chemical_formula_moiety         'C17 H17 Cl2 N1'
_chemical_name_systematic        
cis-4-(3,4-Dichlorophenyl)-N-methyl-1,2,3,4-tetrahydronaphthalen-1-amine
_symmetry_cell_setting           monoclinic
_symmetry_space_group_name_H-M   'P 21/n'
_symmetry_Int_Tables_number      14
_space_group_name_Hall           '-P 2yn'
loop_
_symmetry_equiv_pos_site_id
_symmetry_equiv_pos_as_xyz
1 x,y,z
2 1/2-x,1/2+y,1/2-z
3 -x,-y,-z
4 1/2+x,1/2-y,1/2+z
_cell_length_a                   11.0604(10)
_cell_length_b                   8.6714(8)
_cell_length_c                   16.2287(15)
_cell_angle_alpha                90
_cell_angle_beta                 103.937(6)
_cell_angle_gamma                90
_cell_volume                     1510.66
_exptl_crystal_colour            colorless
_cell_formula_units_Z            4
loop_
_atom_site_label
_atom_site_type_symbol
_atom_site_fract_x
_atom_site_fract_y
_atom_site_fract_z
C1 C 0.1952(2) 0.7802(3) 0.58214(14)
H1 H 0.2642 0.7071 0.5995
H2 H 0.1371 0.7678 0.6187
H3 H 0.2280 0.8857 0.5874
N1 N 0.13055(16) 0.7508(2) 0.49437(11)
H4 H 0.087(2) 0.670(3) 0.4946(14)
C2 C 0.21422(18) 0.7277(2) 0.43743(13)
H5 H 0.2834 0.6572 0.4657
C3 C 0.27007(19) 0.8812(2) 0.41844(13)
H6 H 0.3063 0.9357 0.4723
H7 H 0.3377 0.8616 0.3894
C4 C 0.17043(19) 0.9821(2) 0.36227(13)
H8 H 0.2059 1.0847 0.3553
H9 H 0.1004 0.9966 0.3897
C5 C 0.12233(17) 0.9069(2) 0.27489(12)
H10 H 0.1899 0.9167 0.2438
C6 C 0.09629(17) 0.7342(2) 0.28158(12)
C7 C 0.14065(17) 0.6518(2) 0.35694(12)
C8 C 0.11437(19) 0.4932(2) 0.35787(13)
H11 H 0.1445 0.4362 0.4086
C9 C 0.04548(19) 0.4183(2) 0.28645(14)
H12 H 0.0277 0.3114 0.2886
C10 C 0.0028(2) 0.5004(2) 0.21219(14)
H13 H -0.0440 0.4499 0.1628
C11 C 0.02842(18) 0.6559(2) 0.20999(13)
H14 H -0.0008 0.7111 0.1585
C12 C 0.00894(17) 0.9908(2) 0.22267(12)
C13 C 0.01164(17) 1.0601(2) 0.14605(12)
H15 H 0.0852 1.0546 0.1257
C14 C -0.09253(17) 1.1377(2) 0.09867(12)
C15 C -0.19997(17) 1.1478(2) 0.12789(12)
C16 C -0.20362(18) 1.0785(2) 0.20416(13)
H16 H -0.2769 1.0851 0.2247
C17 C -0.10110(18) 0.9998(2) 0.25029(13)
H17 H -0.1054 0.9508 0.3019
Cl1 Cl -0.08575(5) 1.22149(6) 0.00258(3)
Cl2 Cl -0.33076(5) 1.24584(6) 0.07090(3)
loop_
_geom_bond_atom_site_label_1
_geom_bond_atom_site_label_2
_geom_bond_site_symmetry_1
_geom_bond_site_symmetry_2
C1 H1 1_555 1_555
H2 C1 1_555 1_555
H3 C1 1_555 1_555
N1 C1 1_555 1_555
H4 N1 1_555 1_555
C2 N1 1_555 1_555
H5 C2 1_555 1_555
C3 C2 1_555 1_555
H6 C3 1_555 1_555
H7 C3 1_555 1_555
C4 C3 1_555 1_555
H8 C4 1_555 1_555
H9 C4 1_555 1_555
C5 C4 1_555 1_555
H10 C5 1_555 1_555
C6 C5 1_555 1_555
C7 C2 1_555 1_555
C8 C7 1_555 1_555
H11 C8 1_555 1_555
C9 C8 1_555 1_555
H12 C9 1_555 1_555
C10 C9 1_555 1_555
H13 C10 1_555 1_555
C11 C6 1_555 1_555
H14 C11 1_555 1_555
C12 C5 1_555 1_555
C13 C12 1_555 1_555
H15 C13 1_555 1_555
C14 C13 1_555 1_555
C15 C14 1_555 1_555
C16 C15 1_555 1_555
H16 C16 1_555 1_555
C17 C12 1_555 1_555
H17 C17 1_555 1_555
Cl1 C14 1_555 1_555
Cl2 C15 1_555 1_555
C6 C7 1_555 1_555
C10 C11 1_555 1_555
C16 C17 1_555 1_555

#END
