
#######################################################################
#
#                 Cambridge Crystallographic Data Centre
#                                CCDC 
#
#######################################################################
#
# If this CIF has been generated from an entry in the Cambridge 
# Structural Database, then it will include bibliographic, chemical, 
# crystal, experimental, refinement or atomic coordinate data resulting 
# from the CCDC's data processing and validation procedures.
#
#######################################################################

data_CUTPIR01
_chemical_name_common            'N-o-vanillylidene-L-histidine monohydrate'
_chemical_formula_moiety         'C14 H15 N3 O4,H2 O1'
_chemical_name_systematic        
'3-(1H-Imidazol-3-ium-5-yl)-2-((3-methoxy-2-oxidobenzylidene)ammonio)propanoate monohydrate'
_symmetry_cell_setting           orthorhombic
_symmetry_space_group_name_H-M   'P 21 21 21'
_symmetry_Int_Tables_number      19
_space_group_name_Hall           'P 2ac 2ab'
loop_
_symmetry_equiv_pos_site_id
_symmetry_equiv_pos_as_xyz
1 x,y,z
2 1/2-x,-y,1/2+z
3 -x,1/2+y,1/2-z
4 1/2+x,1/2-y,-z
_cell_length_a                   8.6115(1)
_cell_length_b                   11.6104(1)
_cell_length_c                   14.7472(1)
_cell_angle_alpha                90
_cell_angle_beta                 90
_cell_angle_gamma                90
_cell_volume                     1474.47
_exptl_crystal_colour            orange
_exptl_crystal_description       columns
_cell_formula_units_Z            4
loop_
_atom_site_label
_atom_site_type_symbol
_atom_site_fract_x
_atom_site_fract_y
_atom_site_fract_z
O1 O -0.34925(5) 1.01887(3) 0.06534(3)
O2 O -0.21635(3) 0.82405(2) 0.11723(2)
O3 O -0.17773(5) 0.55144(3) 0.20551(3)
O4 O -0.02001(4) 0.39893(3) 0.19155(3)
N1 N 0.01909(3) 0.690738(19) 0.124639(14)
N2 N 0.27716(3) 0.80910(2) 0.242372(17)
N3 N 0.50524(3) 0.80046(2) 0.180787(19)
C1 C -0.41768(7) 1.12784(4) 0.04524(2)
C2 C -0.19844(4) 1.00283(2) 0.039931(16)
C3 C -0.13454(3) 0.895456(19) 0.070636(15)
C4 C 0.02238(3) 0.87065(2) 0.045763(15)
C5 C 0.11134(4) 0.95014(2) -0.005717(18)
C6 C 0.04617(6) 1.05189(3) -0.03330(2)
C7 C -0.11045(5) 1.07857(2) -0.010704(19)
C8 C 0.09070(3) 0.76494(2) 0.072977(14)
C9 C 0.08410(3) 0.583789(18) 0.158596(14)
C10 C -0.05109(3) 0.505218(19) 0.186852(16)
C11 C 0.18725(3) 0.60422(2) 0.243326(15)
C12 C 0.30758(3) 0.69406(2) 0.226906(14)
C13 C 0.45220(3) 0.68899(2) 0.188610(17)
C14 C 0.39797(3) 0.87109(2) 0.213862(19)
H1 H -0.0877(7) 0.7122(5) 0.1424(4)
H2 H 0.1773(9) 0.8447(6) 0.2674(5)
H3 H 0.6082(8) 0.8240(6) 0.1550(4)
H4 H -0.3451(8) 1.1965(5) 0.0745(4)
H5 H -0.4253(8) 1.1425(5) -0.0271(4)
H6 H -0.5319(9) 1.1234(6) 0.0769(4)
H7 H 0.2269(7) 0.9278(5) -0.0240(4)
H8 H 0.1152(7) 1.1111(5) -0.0724(3)
H9 H -0.1625(7) 1.1584(4) -0.0347(4)
H10 H 0.2066(6) 0.7419(4) 0.0511(3)
H11 H 0.1529(6) 0.5429(4) 0.1060(3)
H12 H 0.2406(6) 0.5221(4) 0.2600(3)
H13 H 0.1150(6) 0.6310(4) 0.2995(3)
H14 H 0.5202(7) 0.6187(5) 0.1661(3)
H15 H 0.4052(7) 0.9624(4) 0.2154(4)
O5 O 0.23097(9) 0.23595(6) 0.16048(4)
H16 H 0.2105(8) 0.1761(5) 0.2023(4)
H17 H 0.1551(7) 0.2897(5) 0.1764(4)
loop_
_geom_bond_atom_site_label_1
_geom_bond_atom_site_label_2
_geom_bond_site_symmetry_1
_geom_bond_site_symmetry_2
O1 C1 1_555 1_555
O2 C3 1_555 1_555
O3 C10 1_555 1_555
O4 C10 1_555 1_555
N1 C8 1_555 1_555
N2 C12 1_555 1_555
N3 C13 1_555 1_555
C1 H4 1_555 1_555
C2 O1 1_555 1_555
C3 C2 1_555 1_555
C4 C3 1_555 1_555
C5 C4 1_555 1_555
C6 C5 1_555 1_555
C7 C2 1_555 1_555
C8 C4 1_555 1_555
C9 N1 1_555 1_555
C10 C9 1_555 1_555
C11 C9 1_555 1_555
C12 C11 1_555 1_555
C13 C12 1_555 1_555
C14 N2 1_555 1_555
H1 N1 1_555 1_555
H2 N2 1_555 1_555
H3 N3 1_555 1_555
H5 C1 1_555 1_555
H6 C1 1_555 1_555
H7 C5 1_555 1_555
H8 C6 1_555 1_555
H9 C7 1_555 1_555
H10 C8 1_555 1_555
H11 C9 1_555 1_555
H12 C11 1_555 1_555
H13 C11 1_555 1_555
H14 C13 1_555 1_555
H15 C14 1_555 1_555
O5 H16 1_555 1_555
H17 O5 1_555 1_555
N3 C14 1_555 1_555
C6 C7 1_555 1_555

#END
