
#######################################################################
#
#                 Cambridge Crystallographic Data Centre
#                                CCDC 
#
#######################################################################
#
# If this CIF has been generated from an entry in the Cambridge 
# Structural Database, then it will include bibliographic, chemical, 
# crystal, experimental, refinement or atomic coordinate data resulting 
# from the CCDC's data processing and validation procedures.
#
#######################################################################

data_CUTXAR
_chemical_formula_moiety         'C14 H30 B10'
_chemical_name_systematic        
1,2-(4,6-dimethyl-3-isopropylhepta-2,4-dien-2,5-diyl)-1,2-dicarba-closo-dodecaborane
_symmetry_cell_setting           monoclinic
_symmetry_space_group_name_H-M   'P 21/m'
_symmetry_Int_Tables_number      11
_space_group_name_Hall           '-P 2yb'
loop_
_symmetry_equiv_pos_site_id
_symmetry_equiv_pos_as_xyz
1 x,y,z
2 -x,1/2+y,-z
3 -x,-y,-z
4 x,1/2-y,z
_cell_length_a                   9.9315(8)
_cell_length_b                   10.6519(9)
_cell_length_c                   10.0519(9)
_cell_angle_alpha                90
_cell_angle_beta                 115.142(2)
_cell_angle_gamma                90
_cell_volume                     962.636
_exptl_crystal_colour            colorless
_exptl_crystal_description       block
_cell_formula_units_Z            2
loop_
_atom_site_label
_atom_site_type_symbol
_atom_site_fract_x
_atom_site_fract_y
_atom_site_fract_z
C1 C 0.9179(4) 0.2500 0.0996(4)
C2 C 0.8371(4) 0.2500 0.2107(4)
C3 C 1.0841(4) 0.2500 0.1704(4)
C4 C 1.1509(5) 0.2500 0.0613(5)
H1 H 1.0728 0.2500 -0.0366
H2 H 1.2112 0.1764 0.0755
C5 C 1.1592(4) 0.2500 0.3178(4)
C6 C 1.3296(4) 0.2500 0.3907(5)
H3 H 1.3533 0.2500 0.4959
C7 C 1.4016(4) 0.1328(4) 0.3721(6)
H4 H 1.5077 0.1415 0.4217
H5 H 1.3728 0.1180 0.2694
H6 H 1.3705 0.0633 0.4132
C8 C 1.0849(4) 0.2500 0.4177(4)
C9 C 1.1853(5) 0.2500 0.5826(5)
H7 H 1.2875 0.2500 0.5981
H8 H 1.1656 0.1764 0.6266
C10 C 0.9362(4) 0.2500 0.3708(4)
C11 C 0.8520(4) 0.2500 0.4678(4)
H9 H 0.7465 0.2500 0.3988
C12 C 0.8733(5) 0.1310(4) 0.5587(4)
H10 H 0.8178 0.1376 0.6167
H11 H 0.9770 0.1205 0.6224
H12 H 0.8387 0.0599 0.4944
B1 B 0.8310(4) 0.1133(3) 0.1139(3)
H13 H 0.8884 0.0253 0.1633
B2 B 0.8165(4) 0.1666(4) -0.0568(3)
H14 H 0.8653 0.1128 -0.1189
B3 B 0.6739(3) 0.1665(4) 0.1365(3)
H15 H 0.6289 0.1126 0.2018
B4 B 0.6564(4) 0.1155(5) -0.0368(4)
H16 H 0.5977 0.0282 -0.0873
B5 B 0.6484(6) 0.2500 -0.1431(5)
H17 H 0.5852 0.2500 -0.2633
B6 B 0.5597(6) 0.2500 -0.0227(6)
H18 H 0.4379 0.2500 -0.0635
H2C H 1.2112 0.3236 0.0755
C7C C 1.4016(4) 0.3672(4) 0.3721(6)
H4C H 1.5077 0.3585 0.4217
H5C H 1.3728 0.3820 0.2694
H6C H 1.3705 0.4367 0.4132
H8C H 1.1656 0.3236 0.6266
C12C C 0.8733(5) 0.3690(4) 0.5587(4)
H10C H 0.8178 0.3624 0.6167
H11C H 0.9770 0.3795 0.6224
H12C H 0.8387 0.4401 0.4944
B1C B 0.8310(4) 0.3867(3) 0.1139(3)
H13C H 0.8884 0.4747 0.1633
B2C B 0.8165(4) 0.3334(4) -0.0568(3)
H14C H 0.8653 0.3872 -0.1189
B3C B 0.6739(3) 0.3335(4) 0.1365(3)
H15C H 0.6289 0.3874 0.2018
B4C B 0.6564(4) 0.3845(5) -0.0368(4)
H16C H 0.5977 0.4718 -0.0873
loop_
_geom_bond_atom_site_label_1
_geom_bond_atom_site_label_2
_geom_bond_site_symmetry_1
_geom_bond_site_symmetry_2
C1 C2 1_555 1_555
C2 C10 1_555 1_555
C3 C1 1_555 1_555
C4 C3 1_555 1_555
H1 C4 1_555 1_555
H2 C4 1_555 1_555
C5 C3 1_555 1_555
C6 C5 1_555 1_555
H3 C6 1_555 1_555
C7 C6 1_555 1_555
H4 C7 1_555 1_555
H5 C7 1_555 1_555
H6 C7 1_555 1_555
C8 C5 1_555 1_555
C9 C8 1_555 1_555
H7 C9 1_555 1_555
H8 C9 1_555 1_555
C10 C8 1_555 1_555
C11 C10 1_555 1_555
H9 C11 1_555 1_555
C12 C11 1_555 1_555
H10 C12 1_555 1_555
H11 C12 1_555 1_555
H12 C12 1_555 1_555
B1 C1 1_555 1_555
H13 B1 1_555 1_555
B2 C1 1_555 1_555
H14 B2 1_555 1_555
B3 C2 1_555 1_555
H15 B3 1_555 1_555
B4 B1 1_555 1_555
H16 B4 1_555 1_555
B5 B2 1_555 1_555
H17 B5 1_555 1_555
B6 B3 1_555 1_555
H18 B6 1_555 1_555
H2C C4 1_555 1_555
C7C C6 1_555 1_555
H4C C7C 1_555 1_555
H5C C7C 1_555 1_555
H6C C7C 1_555 1_555
H8C C9 1_555 1_555
C12C C11 1_555 1_555
H10C C12C 1_555 1_555
H11C C12C 1_555 1_555
H12C C12C 1_555 1_555
B1C C1 1_555 1_555
H13C B1C 1_555 1_555
B2C C1 1_555 1_555
H14C B2C 1_555 1_555
B3C C2 1_555 1_555
H15C B3C 1_555 1_555
B4C B5 1_555 1_555
H16C B4C 1_555 1_555
C2 B1 1_555 1_555
C2 B1C 1_555 1_555
B1 B2 1_555 1_555
B1 B3 1_555 1_555
B2 B4 1_555 1_555
B2 B2C 1_555 1_555
B3 B4 1_555 1_555
B3 B3C 1_555 1_555
B4 B5 1_555 1_555
B4 B6 1_555 1_555
B5 B6 1_555 1_555
B5 B2C 1_555 1_555
B6 B3C 1_555 1_555
B6 B4C 1_555 1_555
B1C B2C 1_555 1_555
B1C B3C 1_555 1_555
B1C B4C 1_555 1_555
B2C B4C 1_555 1_555
B3C B4C 1_555 1_555

#END
