
#######################################################################
#
#                 Cambridge Crystallographic Data Centre
#                                CCDC 
#
#######################################################################
#
# If this CIF has been generated from an entry in the Cambridge 
# Structural Database, then it will include bibliographic, chemical, 
# crystal, experimental, refinement or atomic coordinate data resulting 
# from the CCDC's data processing and validation procedures.
#
#######################################################################

data_CUTXIZ
_chemical_formula_moiety         'C12 H24 B10'
_chemical_name_systematic        
1,2-(1,1'-(cyclohex-1,2-diylidene)diethyl)-1,2-dicarba-closo-dodecaborane
_symmetry_cell_setting           orthorhombic
_symmetry_space_group_name_H-M   'P b c a'
_symmetry_Int_Tables_number      61
_space_group_name_Hall           '-P 2ac 2ab'
loop_
_symmetry_equiv_pos_site_id
_symmetry_equiv_pos_as_xyz
1 x,y,z
2 1/2-x,-y,1/2+z
3 -x,1/2+y,1/2-z
4 1/2+x,1/2-y,-z
5 -x,-y,-z
6 1/2+x,y,1/2-z
7 x,1/2-y,1/2+z
8 1/2-x,1/2+y,z
_cell_length_a                   18.004(3)
_cell_length_b                   18.596(3)
_cell_length_c                   19.828(3)
_cell_angle_alpha                90
_cell_angle_beta                 90
_cell_angle_gamma                90
_cell_volume                     6638.46
_exptl_crystal_colour            colorless
_exptl_crystal_description       block
_cell_formula_units_Z            16
loop_
_atom_site_label
_atom_site_type_symbol
_atom_site_fract_x
_atom_site_fract_y
_atom_site_fract_z
C1 C 0.78932(19) 0.22373(17) 0.47224(16)
C2 C 0.83621(19) 0.15289(17) 0.44693(17)
C3 C 0.71537(19) 0.20860(18) 0.50250(17)
C4 C 0.6716(2) 0.2736(2) 0.5250(2)
H1 H 0.6250 0.2584 0.5437
H2 H 0.6627 0.3045 0.4871
H3 H 0.6992 0.2993 0.5587
C5 C 0.69015(18) 0.14078(18) 0.50848(18)
C6 C 0.6148(2) 0.1294(2) 0.5419(2)
H4 H 0.6188 0.1441 0.5887
H5 H 0.5792 0.1611 0.5204
C7 C 0.5855(3) 0.0570(3) 0.5400(5)
H6 H 0.5596 0.0497 0.5824
H7 H 0.5480 0.0564 0.5050
C8 C 0.6268(3) -0.0003(3) 0.5306(4)
H8 H 0.5953 -0.0369 0.5106
H9 H 0.6413 -0.0179 0.5747
C9 C 0.6945(2) 0.00396(19) 0.48941(19)
H10 H 0.6825 -0.0120 0.4441
H11 H 0.7305 -0.0296 0.5077
C10 C 0.73123(19) 0.07742(18) 0.48446(17)
C11 C 0.7988(2) 0.08230(17) 0.45618(17)
C12 C 0.8405(2) 0.0178(2) 0.4301(2)
H12 H 0.8120 -0.0249 0.4383
H13 H 0.8875 0.0141 0.4528
H14 H 0.8487 0.0230 0.3825
B1 B 0.7980(2) 0.2097(2) 0.3863(2)
H15 H 0.7520 0.1953 0.3524
B2 B 0.8068(3) 0.2964(2) 0.4212(2)
H16 H 0.7660 0.3387 0.4099
B3 B 0.8483(2) 0.2889(2) 0.5019(2)
H17 H 0.8342 0.3266 0.5427
B4 B 0.8662(2) 0.1973(2) 0.5190(2)
H18 H 0.8639 0.1749 0.5703
B5 B 0.8884(3) 0.1735(2) 0.3769(2)
H19 H 0.9011 0.1350 0.3364
B6 B 0.8715(3) 0.2656(2) 0.3608(2)
H20 H 0.8739 0.2880 0.3095
B7 B 0.9023(3) 0.3150(2) 0.4317(2)
H21 H 0.9246 0.3699 0.4267
B8 B 0.9383(2) 0.2534(3) 0.4916(2)
H22 H 0.9842 0.2681 0.5255
B9 B 0.9301(2) 0.1658(3) 0.4581(2)
H23 H 0.9697 0.1226 0.4700
B10 B 0.9530(3) 0.2387(3) 0.4042(2)
H24 H 1.0084 0.2435 0.3811
C13 C 0.09037(18) 0.07534(18) 0.25048(17)
C14 C 0.17028(18) 0.09984(18) 0.28170(16)
C15 C 0.0454(2) 0.1335(2) 0.21955(18)
C16 C -0.0268(2) 0.1100(3) 0.1878(3)
H25 H -0.0518 0.1511 0.1692
H26 H -0.0577 0.0880 0.2214
H27 H -0.0168 0.0760 0.1525
C17 C 0.0691(2) 0.2019(2) 0.21965(18)
C18 C 0.0215(3) 0.2587(2) 0.1860(2)
H28 H -0.0007 0.2382 0.1458
H29 H -0.0185 0.2718 0.2163
C19 C 0.0632(3) 0.3257(3) 0.1666(3)
H30 H 0.0990 0.3147 0.1316
H31 H 0.0288 0.3614 0.1491
C20 C 0.1023(3) 0.3549(3) 0.2273(4)
H32 H 0.1248 0.4009 0.2164
H33 H 0.0668 0.3625 0.2635
C21 C 0.1608(3) 0.3034(2) 0.2499(3)
H34 H 0.1760 0.3167 0.2951
H35 H 0.2037 0.3091 0.2207
C22 C 0.1392(2) 0.22439(18) 0.25029(18)
C23 C 0.18801(19) 0.17776(18) 0.27741(17)
C24 C 0.2629(2) 0.2000(2) 0.3047(2)
H36 H 0.2688 0.2510 0.2999
H37 H 0.3014 0.1758 0.2800
H38 H 0.2661 0.1872 0.3515
B11 B 0.1002(3) 0.0767(2) 0.3374(2)
H39 H 0.0716 0.1144 0.3714
B12 B 0.0529(3) 0.0061(2) 0.2971(3)
H40 H -0.0070 -0.0022 0.3048
B13 B 0.0963(3) -0.0101(2) 0.2175(2)
H41 H 0.0640 -0.0288 0.1738
B14 B 0.1703(2) 0.0506(2) 0.2075(2)
H42 H 0.1866 0.0718 0.1578
B15 B 0.1923(3) 0.0493(2) 0.3507(2)
H43 H 0.2243 0.0699 0.3939
B16 B 0.1193(3) -0.0124(2) 0.3602(3)
H44 H 0.1031 -0.0336 0.4099
B17 B 0.1163(3) -0.0665(2) 0.2867(3)
H45 H 0.0976 -0.1228 0.2882
B18 B 0.1885(3) -0.0385(2) 0.2318(3)
H46 H 0.2171 -0.0763 0.1979
B19 B 0.2357(3) 0.0329(2) 0.2714(2)
H47 H 0.2953 0.0426 0.2634
B20 B 0.2024(3) -0.0401(3) 0.3209(3)
H48 H 0.2402 -0.0789 0.3450
loop_
_geom_bond_atom_site_label_1
_geom_bond_atom_site_label_2
_geom_bond_site_symmetry_1
_geom_bond_site_symmetry_2
C1 C2 1_555 1_555
C2 C11 1_555 1_555
C3 C1 1_555 1_555
C4 C3 1_555 1_555
H1 C4 1_555 1_555
H2 C4 1_555 1_555
H3 C4 1_555 1_555
C5 C3 1_555 1_555
C6 C5 1_555 1_555
H4 C6 1_555 1_555
H5 C6 1_555 1_555
C7 C6 1_555 1_555
H6 C7 1_555 1_555
H7 C7 1_555 1_555
C8 C7 1_555 1_555
H8 C8 1_555 1_555
H9 C8 1_555 1_555
C9 C8 1_555 1_555
H10 C9 1_555 1_555
H11 C9 1_555 1_555
C10 C5 1_555 1_555
C11 C10 1_555 1_555
C12 C11 1_555 1_555
H12 C12 1_555 1_555
H13 C12 1_555 1_555
H14 C12 1_555 1_555
B1 C1 1_555 1_555
H15 B1 1_555 1_555
B2 C1 1_555 1_555
H16 B2 1_555 1_555
B3 C1 1_555 1_555
H17 B3 1_555 1_555
B4 C1 1_555 1_555
H18 B4 1_555 1_555
B5 C2 1_555 1_555
H19 B5 1_555 1_555
B6 B1 1_555 1_555
H20 B6 1_555 1_555
B7 B2 1_555 1_555
H21 B7 1_555 1_555
B8 B3 1_555 1_555
H22 B8 1_555 1_555
B9 C2 1_555 1_555
H23 B9 1_555 1_555
B10 B5 1_555 1_555
H24 B10 1_555 1_555
C13 C14 1_555 1_555
C14 C23 1_555 1_555
C15 C13 1_555 1_555
C16 C15 1_555 1_555
H25 C16 1_555 1_555
H26 C16 1_555 1_555
H27 C16 1_555 1_555
C17 C15 1_555 1_555
C18 C17 1_555 1_555
H28 C18 1_555 1_555
H29 C18 1_555 1_555
C19 C18 1_555 1_555
H30 C19 1_555 1_555
H31 C19 1_555 1_555
C20 C19 1_555 1_555
H32 C20 1_555 1_555
H33 C20 1_555 1_555
C21 C20 1_555 1_555
H34 C21 1_555 1_555
H35 C21 1_555 1_555
C22 C17 1_555 1_555
C23 C22 1_555 1_555
C24 C23 1_555 1_555
H36 C24 1_555 1_555
H37 C24 1_555 1_555
H38 C24 1_555 1_555
B11 C13 1_555 1_555
H39 B11 1_555 1_555
B12 C13 1_555 1_555
H40 B12 1_555 1_555
B13 C13 1_555 1_555
H41 B13 1_555 1_555
B14 C13 1_555 1_555
H42 B14 1_555 1_555
B15 C14 1_555 1_555
H43 B15 1_555 1_555
B16 B11 1_555 1_555
H44 B16 1_555 1_555
B17 B12 1_555 1_555
H45 B17 1_555 1_555
B18 B13 1_555 1_555
H46 B18 1_555 1_555
B19 C14 1_555 1_555
H47 B19 1_555 1_555
B20 B15 1_555 1_555
H48 B20 1_555 1_555
C2 B1 1_555 1_555
C2 B4 1_555 1_555
C9 C10 1_555 1_555
B1 B2 1_555 1_555
B1 B5 1_555 1_555
B2 B3 1_555 1_555
B2 B6 1_555 1_555
B3 B4 1_555 1_555
B3 B7 1_555 1_555
B4 B8 1_555 1_555
B4 B9 1_555 1_555
B5 B6 1_555 1_555
B5 B9 1_555 1_555
B6 B7 1_555 1_555
B6 B10 1_555 1_555
B7 B8 1_555 1_555
B7 B10 1_555 1_555
B8 B9 1_555 1_555
B8 B10 1_555 1_555
B9 B10 1_555 1_555
C14 B11 1_555 1_555
C14 B14 1_555 1_555
C21 C22 1_555 1_555
B11 B12 1_555 1_555
B11 B15 1_555 1_555
B12 B13 1_555 1_555
B12 B16 1_555 1_555
B13 B14 1_555 1_555
B13 B17 1_555 1_555
B14 B18 1_555 1_555
B14 B19 1_555 1_555
B15 B16 1_555 1_555
B15 B19 1_555 1_555
B16 B17 1_555 1_555
B16 B20 1_555 1_555
B17 B18 1_555 1_555
B17 B20 1_555 1_555
B18 B19 1_555 1_555
B18 B20 1_555 1_555
B19 B20 1_555 1_555

#END
