
#######################################################################
#
#                 Cambridge Crystallographic Data Centre
#                                CCDC 
#
#######################################################################
#
# If this CIF has been generated from an entry in the Cambridge 
# Structural Database, then it will include bibliographic, chemical, 
# crystal, experimental, refinement or atomic coordinate data resulting 
# from the CCDC's data processing and validation procedures.
#
#######################################################################

data_CUTZUM
_chemical_formula_moiety         'C27 H28 N2 P2'
_chemical_name_systematic        
S,S-1,3-bis((o-Aminophenyl)-phenylphosphino)-propane
_symmetry_cell_setting           orthorhombic
_symmetry_space_group_name_H-M   'P 21 21 21'
_symmetry_Int_Tables_number      19
_space_group_name_Hall           'P 2ac 2ab'
loop_
_symmetry_equiv_pos_site_id
_symmetry_equiv_pos_as_xyz
1 x,y,z
2 1/2+x,1/2-y,-z
3 -x,1/2+y,1/2-z
4 1/2-x,-y,1/2+z
_cell_length_a                   22.960(3)
_cell_length_b                   7.725(2)
_cell_length_c                   13.671(2)
_cell_angle_alpha                90
_cell_angle_beta                 90
_cell_angle_gamma                90
_cell_volume                     2424.77
_cell_formula_units_Z            4
loop_
_atom_site_label
_atom_site_type_symbol
_atom_site_fract_x
_atom_site_fract_y
_atom_site_fract_z
P1 P 0.3606(2) -0.3200(8) 0.4941(6)
P2 P 0.2483(2) 0.3041(8) 0.5087(5)
N1 N 0.4222(12) -0.6479(44) 0.4327(21)
N2 N 0.1849(11) 0.6321(38) 0.4544(19)
C1 C 0.3961(6) -0.4724(17) 0.5760(12)
C2 C 0.3996(6) -0.4471(17) 0.6769(12)
C3 C 0.4263(6) -0.5714(17) 0.7358(12)
C4 C 0.4495(6) -0.7209(17) 0.6939(12)
C5 C 0.4460(6) -0.7461(17) 0.5931(12)
C6 C 0.4193(6) -0.6219(17) 0.5341(12)
C7 C 0.3381(10) -0.1513(31) 0.5802(16)
C8 C 0.3079(10) -0.0071(31) 0.5241(15)
C9 C 0.2815(9) 0.1404(27) 0.5900(15)
C10 C 0.2206(5) 0.4653(15) 0.5954(10)
C11 C 0.2251(5) 0.4490(15) 0.6968(10)
C12 C 0.2036(5) 0.5793(15) 0.7575(10)
C13 C 0.1775(5) 0.7257(15) 0.7169(10)
C14 C 0.1731(5) 0.7420(15) 0.6155(10)
C15 C 0.1946(5) 0.6118(15) 0.5548(10)
C16 C 0.4234(5) -0.2119(21) 0.4366(12)
C17 C 0.4763(5) -0.1877(21) 0.4851(12)
C18 C 0.5222(5) -0.1037(21) 0.4381(12)
C19 C 0.5153(5) -0.0439(21) 0.3425(12)
C20 C 0.4624(5) -0.0681(21) 0.2940(12)
C21 C 0.4165(5) -0.1521(21) 0.3410(12)
C22 C 0.1802(4) 0.1961(17) 0.4739(9)
C23 C 0.1304(4) 0.1963(17) 0.5324(9)
C24 C 0.0804(4) 0.1096(17) 0.5014(9)
C25 C 0.0802(4) 0.0226(17) 0.4120(9)
C26 C 0.1300(4) 0.0224(17) 0.3535(9)
C27 C 0.1800(4) 0.1091(17) 0.3845(9)
H1 H 0.3838 -0.3453 0.7055
H2 H 0.4287 -0.5542 0.8045
H3 H 0.4677 -0.8055 0.7341
H4 H 0.4618 -0.8479 0.5645
H5 H 0.3759 -0.0993 0.6167
H6 H 0.3086 -0.2054 0.6337
H7 H 0.3390 0.0501 0.4743
H8 H 0.2727 -0.0644 0.4829
H9 H 0.2488 0.0877 0.6384
H10 H 0.3158 0.1991 0.6327
H11 H 0.2428 0.3493 0.7245
H12 H 0.2066 0.5682 0.8265
H13 H 0.1629 0.8144 0.7582
H14 H 0.1553 0.8418 0.5878
H15 H 0.4810 -0.2284 0.5502
H16 H 0.5582 -0.0873 0.4711
H17 H 0.5465 0.0132 0.3105
H18 H 0.4577 -0.0274 0.2289
H19 H 0.3806 -0.1685 0.3080
H20 H 0.1306 0.2555 0.5933
H21 H 0.0465 0.1097 0.5412
H22 H 0.0462 -0.0365 0.3909
H23 H 0.1299 -0.0368 0.2926
H24 H 0.2139 0.1090 0.3447
loop_
_geom_bond_atom_site_label_1
_geom_bond_atom_site_label_2
_geom_bond_site_symmetry_1
_geom_bond_site_symmetry_2
P1 C1 1_555 1_555
P2 C9 1_555 1_555
N1 C6 1_555 1_555
N2 C15 1_555 1_555
C1 C2 1_555 1_555
C2 C3 1_555 1_555
C3 C4 1_555 1_555
C4 C5 1_555 1_555
C5 C6 1_555 1_555
C6 C1 1_555 1_555
C7 P1 1_555 1_555
C8 C7 1_555 1_555
C9 C8 1_555 1_555
C10 P2 1_555 1_555
C11 C10 1_555 1_555
C12 C11 1_555 1_555
C13 C12 1_555 1_555
C14 C13 1_555 1_555
C15 C10 1_555 1_555
C16 P1 1_555 1_555
C17 C16 1_555 1_555
C18 C17 1_555 1_555
C19 C18 1_555 1_555
C20 C19 1_555 1_555
C21 C16 1_555 1_555
C22 P2 1_555 1_555
C23 C22 1_555 1_555
C24 C23 1_555 1_555
C25 C24 1_555 1_555
C26 C25 1_555 1_555
C27 C22 1_555 1_555
H1 C2 1_555 1_555
H2 C3 1_555 1_555
H3 C4 1_555 1_555
H4 C5 1_555 1_555
H5 C7 1_555 1_555
H6 C7 1_555 1_555
H7 C8 1_555 1_555
H8 C8 1_555 1_555
H9 C9 1_555 1_555
H10 C9 1_555 1_555
H11 C11 1_555 1_555
H12 C12 1_555 1_555
H13 C13 1_555 1_555
H14 C14 1_555 1_555
H15 C17 1_555 1_555
H16 C18 1_555 1_555
H17 C19 1_555 1_555
H18 C20 1_555 1_555
H19 C21 1_555 1_555
H20 C23 1_555 1_555
H21 C24 1_555 1_555
H22 C25 1_555 1_555
H23 C26 1_555 1_555
H24 C27 1_555 1_555
C14 C15 1_555 1_555
C20 C21 1_555 1_555
C26 C27 1_555 1_555

#END
