
#######################################################################
#
#                 Cambridge Crystallographic Data Centre
#                                CCDC 
#
#######################################################################
#
# If this CIF has been generated from an entry in the Cambridge 
# Structural Database, then it will include bibliographic, chemical, 
# crystal, experimental, refinement or atomic coordinate data resulting 
# from the CCDC's data processing and validation procedures.
#
#######################################################################

data_CUVBUR
_chemical_name_common            
4-(Aminomethyl)-5-(2-bromophenyl)-N,2-dimethyl-3-oxo-2-azabicyclo[2.2.1]heptane-6-carboxamide
_chemical_formula_moiety         'C16 H16 Br1 N3 O2'
_chemical_name_systematic        
(1S,4R,5R,6R)-5-(2-bromophenyl)-4-cyano-N,2-dimethyl-3-oxo-2-aza-bicyclo[2.2.1]heptane-6-carboxamide
_symmetry_cell_setting           monoclinic
_symmetry_space_group_name_H-M   'P 21'
_symmetry_Int_Tables_number      4
_space_group_name_Hall           'P 2yb'
loop_
_symmetry_equiv_pos_site_id
_symmetry_equiv_pos_as_xyz
1 x,y,z
2 -x,1/2+y,-z
_cell_length_a                   6.867(4)
_cell_length_b                   6.686(4)
_cell_length_c                   17.363(11)
_cell_angle_alpha                90
_cell_angle_beta                 96.414(8)
_cell_angle_gamma                90
_cell_volume                     792.193
_cell_formula_units_Z            2
loop_
_atom_site_label
_atom_site_type_symbol
_atom_site_fract_x
_atom_site_fract_y
_atom_site_fract_z
Br1 Br 0.3030(2) 0.2613(3) 0.22814(9)
O1 O 0.378(2) 0.804(3) 0.3570(10)
O2 O 0.889(2) 0.3366(18) 0.3645(7)
N1 N 0.583(2) 1.059(2) 0.3855(8)
H1 H 0.6944 1.1092 0.3781
N2 N 0.907(3) 0.680(2) 0.3596(8)
N3 N 0.7944(19) 0.212(3) 0.1633(10)
C1 C 0.326(3) 0.463(3) 0.1540(10)
C2 C 0.223(3) 0.443(4) 0.0832(11)
H2 H 0.1421 0.3324 0.0726
C3 C 0.237(3) 0.581(4) 0.0286(11)
H3 H 0.1631 0.5665 -0.0193
C4 C 0.359(3) 0.746(6) 0.0413(12)
H4 H 0.3632 0.8442 0.0037
C5 C 0.477(2) 0.759(5) 0.1125(9)
H5 H 0.5633 0.8658 0.1215
C6 C 0.466(2) 0.617(3) 0.1694(11)
C7 C 0.5747(14) 0.634(2) 0.2490(9)
H6 H 0.5049 0.5672 0.2879
C8 C 0.6457(16) 0.845(3) 0.2763(13)
H7 H 0.6186 0.9415 0.2339
C9 C 0.522(3) 0.902(3) 0.3461(10)
C10 C 0.471(4) 1.153(4) 0.4409(13)
H8 H 0.4070 1.2694 0.4182
H9 H 0.5575 1.1907 0.4859
H10 H 0.3749 1.0605 0.4558
C11 C 0.869(2) 0.831(2) 0.3004(10)
H11 H 0.9358 0.9592 0.3117
C12 C 0.977(3) 0.719(3) 0.4394(11)
H12 H 0.8700 0.7061 0.4704
H13 H 1.0292 0.8517 0.4444
H14 H 1.0772 0.6239 0.4568
C13 C 0.872(3) 0.495(3) 0.3324(9)
C14 C 0.802(3) 0.536(2) 0.2456(9)
C15 C 0.936(3) 0.713(4) 0.2300(10)
H15 H 0.8989 0.7778 0.1805
H16 H 1.0740 0.6796 0.2361
C16 C 0.793(3) 0.303(4) 0.2152(11)
loop_
_geom_bond_atom_site_label_1
_geom_bond_atom_site_label_2
_geom_bond_site_symmetry_1
_geom_bond_site_symmetry_2
Br1 C1 1_555 1_555
O1 C9 1_555 1_555
O2 C13 1_555 1_555
N1 H1 1_555 1_555
N2 C11 1_555 1_555
N3 C16 1_555 1_555
C1 C2 1_555 1_555
C2 H2 1_555 1_555
C3 C2 1_555 1_555
H3 C3 1_555 1_555
C4 C3 1_555 1_555
H4 C4 1_555 1_555
C5 C4 1_555 1_555
H5 C5 1_555 1_555
C6 C1 1_555 1_555
C7 C6 1_555 1_555
H6 C7 1_555 1_555
C8 C7 1_555 1_555
H7 C8 1_555 1_555
C9 N1 1_555 1_555
C10 N1 1_555 1_555
H8 C10 1_555 1_555
H9 C10 1_555 1_555
H10 C10 1_555 1_555
C11 C8 1_555 1_555
H11 C11 1_555 1_555
C12 N2 1_555 1_555
H12 C12 1_555 1_555
H13 C12 1_555 1_555
H14 C12 1_555 1_555
C13 N2 1_555 1_555
C14 C7 1_555 1_555
C15 C11 1_555 1_555
H15 C15 1_555 1_555
H16 C15 1_555 1_555
C16 C14 1_555 1_555
C5 C6 1_555 1_555
C8 C9 1_555 1_555
C13 C14 1_555 1_555
C14 C15 1_555 1_555

#END
