
#######################################################################
#
#                 Cambridge Crystallographic Data Centre
#                                CCDC 
#
#######################################################################
#
# If this CIF has been generated from an entry in the Cambridge 
# Structural Database, then it will include bibliographic, chemical, 
# crystal, experimental, refinement or atomic coordinate data resulting 
# from the CCDC's data processing and validation procedures.
#
#######################################################################

data_CUVBOL
_chemical_formula_moiety         'C16 H13 Br1 N2 O2'
_chemical_name_systematic        
'Ethyl 5-(2-bromophenyl)-4,4-dicyanocyclopent-1-ene-1-carboxylate'
_symmetry_cell_setting           orthorhombic
_symmetry_space_group_name_H-M   'P 21 21 21'
_symmetry_Int_Tables_number      19
_space_group_name_Hall           'P 2ac 2ab'
loop_
_symmetry_equiv_pos_site_id
_symmetry_equiv_pos_as_xyz
1 x,y,z
2 1/2-x,-y,1/2+z
3 -x,1/2+y,1/2-z
4 1/2+x,1/2-y,-z
_cell_length_a                   7.198(2)
_cell_length_b                   7.829(3)
_cell_length_c                   28.167(9)
_cell_angle_alpha                90
_cell_angle_beta                 90
_cell_angle_gamma                90
_cell_volume                     1587.3
_exptl_crystal_colour            colorless
_exptl_crystal_description       block
_cell_formula_units_Z            4
loop_
_atom_site_label
_atom_site_type_symbol
_atom_site_fract_x
_atom_site_fract_y
_atom_site_fract_z
Br1 Br 0.49977(9) 0.09310(11) 0.18168(3)
O1 O -0.0342(5) 0.3010(4) 0.10928(10)
O2 O -0.2754(4) 0.1806(3) 0.07317(11)
N1 N 0.4025(9) -0.3963(7) 0.15804(17)
N2 N 0.3900(8) -0.1509(6) 0.02620(16)
C1 C 0.2766(7) 0.0119(6) 0.20726(17)
C2 C 0.2632(11) -0.0030(7) 0.2563(2)
H1 H 0.3642 0.0241 0.2755
C3 C 0.1011(15) -0.0576(7) 0.2761(2)
H2 H 0.0932 -0.0695 0.3088
C4 C -0.0499(11) -0.0952(6) 0.2487(2)
H3 H -0.1615 -0.1282 0.2626
C5 C -0.0336(7) -0.0832(5) 0.19989(16)
H4 H -0.1353 -0.1117 0.1811
C6 C 0.1260(6) -0.0310(4) 0.17834(13)
C7 C 0.1453(5) -0.0253(4) 0.12462(12)
H5 H 0.2366 0.0615 0.1154
C8 C 0.2010(6) -0.2043(5) 0.10328(13)
C9 C 0.3141(8) -0.3122(6) 0.13494(16)
C10 C 0.3094(8) -0.1740(6) 0.05986(18)
C11 C 0.0144(8) -0.2884(5) 0.09023(14)
H6 H 0.0262 -0.3601 0.0623
H7 H -0.0338 -0.3560 0.1163
C12 C -0.1049(7) -0.1375(5) 0.08068(14)
H8 H -0.2160 -0.1422 0.0639
C13 C -0.0348(6) 0.0039(5) 0.09881(12)
C14 C -0.1129(7) 0.1778(5) 0.09502(13)
C15 C -0.3555(8) 0.3499(6) 0.0659(2)
H9 H -0.3867 0.4012 0.0962
H10 H -0.2669 0.4234 0.0499
C16 C -0.5216(10) 0.3310(7) 0.0371(2)
H11 H -0.4920 0.2686 0.0088
H12 H -0.5682 0.4419 0.0288
H13 H -0.6143 0.2701 0.0549
loop_
_geom_bond_atom_site_label_1
_geom_bond_atom_site_label_2
_geom_bond_site_symmetry_1
_geom_bond_site_symmetry_2
Br1 C1 1_555 1_555
O1 C14 1_555 1_555
O2 C14 1_555 1_555
N1 C9 1_555 1_555
N2 C10 1_555 1_555
C1 C2 1_555 1_555
C2 H1 1_555 1_555
C3 C2 1_555 1_555
H2 C3 1_555 1_555
C4 C3 1_555 1_555
H3 C4 1_555 1_555
C5 C4 1_555 1_555
H4 C5 1_555 1_555
C6 C1 1_555 1_555
C7 C6 1_555 1_555
H5 C7 1_555 1_555
C8 C7 1_555 1_555
C9 C8 1_555 1_555
C10 C8 1_555 1_555
C11 C8 1_555 1_555
H6 C11 1_555 1_555
H7 C11 1_555 1_555
C12 C11 1_555 1_555
H8 C12 1_555 1_555
C13 C7 1_555 1_555
C14 C13 1_555 1_555
C15 O2 1_555 1_555
H9 C15 1_555 1_555
H10 C15 1_555 1_555
C16 C15 1_555 1_555
H11 C16 1_555 1_555
H12 C16 1_555 1_555
H13 C16 1_555 1_555
C5 C6 1_555 1_555
C12 C13 1_555 1_555

#END
