
#######################################################################
#
#                 Cambridge Crystallographic Data Centre
#                                CCDC 
#
#######################################################################
#
# If this CIF has been generated from an entry in the Cambridge 
# Structural Database, then it will include bibliographic, chemical, 
# crystal, experimental, refinement or atomic coordinate data resulting 
# from the CCDC's data processing and validation procedures.
#
#######################################################################

data_CUVDIH
_chemical_name_common            'cytosine oxalic acid hemihydrate'
_chemical_formula_moiety         'C4 H5 N3 O1,0.25(C2 H2 O4),0.5(H2 O1)'
_chemical_name_systematic        
'4-Aminopyrimidin-2(1H)-one oxalic acid hemihydrate'
_symmetry_cell_setting           monoclinic
_symmetry_space_group_name_H-M   'P 21/c'
_symmetry_Int_Tables_number      14
_space_group_name_Hall           '-P 2ybc'
loop_
_symmetry_equiv_pos_site_id
_symmetry_equiv_pos_as_xyz
1 x,y,z
2 -x,1/2+y,1/2-z
3 -x,-y,-z
4 x,1/2-y,1/2+z
_cell_length_a                   6.5157(2)
_cell_length_b                   15.1368(6)
_cell_length_c                   12.6989(5)
_cell_angle_alpha                90
_cell_angle_beta                 101.689(2)
_cell_angle_gamma                90
_cell_volume                     1226.48
_exptl_crystal_colour            colorless
_cell_formula_units_Z            8
loop_
_atom_site_label
_atom_site_type_symbol
_atom_site_fract_x
_atom_site_fract_y
_atom_site_fract_z
C1 C 0.4650(5) 0.3450(2) 0.4831(3)
C2 C 0.4932(5) 0.4101(2) 0.6564(2)
C3 C 0.4748(6) 0.3242(2) 0.7023(3)
H1 H 0.4775 0.3169 0.7753
C4 C 0.4539(6) 0.2556(2) 0.6349(3)
H2 H 0.4416 0.1993 0.6622
N1 N 0.4848(4) 0.41817(17) 0.5507(2)
N2 N 0.4498(5) 0.26475(18) 0.5291(2)
H3 H 0.4371 0.2183 0.4893
N3 N 0.5168(4) 0.48150(19) 0.7150(2)
H4 H 0.5266 0.5321 0.6856
H5 H 0.5227 0.4780 0.7831
O1 O 0.4608(4) 0.35245(16) 0.38600(19)
C5 C 0.0438(5) 0.6506(3) 0.5566(3)
C6 C 0.0491(6) 0.6832(3) 0.7397(3)
H6 H 0.0581 0.7271 0.7917
C7 C 0.0332(6) 0.6007(3) 0.7711(3)
H7 H 0.0295 0.5855 0.8416
C8 C 0.0219(5) 0.5353(3) 0.6855(3)
N4 N 0.0266(4) 0.5585(2) 0.5867(2)
N5 N 0.0535(5) 0.7091(2) 0.6383(3)
H8 H 0.0627 0.7645 0.6252
N6 N 0.0040(5) 0.4513(2) 0.7027(3)
H9 H -0.0041 0.4144 0.6506
H10 H 0.0001 0.4326 0.7662
O2 O 0.0471(4) 0.67121(18) 0.4662(2)
C9 C 0.5627(5) 0.5433(2) 0.0046(3)
O3 O 0.7035(4) 0.54919(19) -0.0485(2)
O4 O 0.5134(6) 0.60175(17) 0.0632(3)
H11 H 0.3855 0.6071 0.0509
C9B C 0.4373(5) 0.4567(2) -0.0046(3)
O3B O 0.2965(4) 0.45081(19) 0.0485(2)
O4B O 0.4866(6) 0.39825(17) -0.0632(3)
H11B H 0.6145 0.3929 -0.0509
O5 O 0.0598(4) 0.88596(18) 0.5853(2)
H12 H -0.0424 0.9025 0.5389
H13 H 0.1841 0.9119 0.5711
loop_
_geom_bond_atom_site_label_1
_geom_bond_atom_site_label_2
_geom_bond_site_symmetry_1
_geom_bond_site_symmetry_2
C1 N1 1_555 1_555
C2 C3 1_555 1_555
C3 H1 1_555 1_555
C4 C3 1_555 1_555
H2 C4 1_555 1_555
N1 C2 1_555 1_555
N2 C1 1_555 1_555
H3 N2 1_555 1_555
N3 C2 1_555 1_555
H4 N3 1_555 1_555
H5 N3 1_555 1_555
O1 C1 1_555 1_555
C5 N4 1_555 1_555
C6 H6 1_555 1_555
C7 C6 1_555 1_555
H7 C7 1_555 1_555
C8 C7 1_555 1_555
N4 C8 1_555 1_555
N5 C5 1_555 1_555
H8 N5 1_555 1_555
N6 C8 1_555 1_555
H9 N6 1_555 1_555
H10 N6 1_555 1_555
O2 C5 1_555 1_555
C9 O3 1_555 1_555
O4 C9 1_555 1_555
H11 O4 1_555 1_555
O5 H12 1_555 1_555
H13 O5 1_555 1_555
C9B C9 1_555 1_555
O3B C9B 1_555 1_555
O4B C9B 1_555 1_555
H11B O4B 1_555 1_555
C4 N2 1_555 1_555
C6 N5 1_555 1_555

#END
