
#######################################################################
#
#                 Cambridge Crystallographic Data Centre
#                                CCDC 
#
#######################################################################
#
# If this CIF has been generated from an entry in the Cambridge 
# Structural Database, then it will include bibliographic, chemical, 
# crystal, experimental, refinement or atomic coordinate data resulting 
# from the CCDC's data processing and validation procedures.
#
#######################################################################

data_CUVKAG
_chemical_formula_moiety         'C29 H25 N1 O1'
_chemical_name_systematic        
9-Benzyl-7-phenyl-7,7a,9,10,10a,11-hexahydro-8H-naphtho[1,2-f]isoindol-8-one
_symmetry_cell_setting           triclinic
_symmetry_space_group_name_H-M   'P -1'
_symmetry_Int_Tables_number      2
_space_group_name_Hall           '-P 1'
loop_
_symmetry_equiv_pos_site_id
_symmetry_equiv_pos_as_xyz
1 x,y,z
2 -x,-y,-z
_cell_length_a                   6.0806(11)
_cell_length_b                   13.088(2)
_cell_length_c                   13.845(2)
_cell_angle_alpha                74.868(2)
_cell_angle_beta                 84.016(2)
_cell_angle_gamma                87.431(2)
_cell_volume                     1057.65
_cell_formula_units_Z            2
loop_
_atom_site_label
_atom_site_type_symbol
_atom_site_fract_x
_atom_site_fract_y
_atom_site_fract_z
C1 C 0.1474(2) -0.18293(9) 0.90167(10)
C2 C 0.5161(2) 0.22927(10) 0.70633(10)
H1 H 0.3863 0.2211 0.6728
C3 C 0.4683(2) 0.32130(10) 0.75381(10)
C4 C 0.6459(2) 0.03922(10) 0.73488(10)
H2 H 0.5471 0.0335 0.6850
C5 C 0.8773(2) 0.17737(10) 0.61447(10)
C6 C 0.1547(2) -0.17299(11) 0.79960(10)
H3 H 0.2457 -0.1228 0.7554
C7 C 0.8727(2) 0.06544(11) 0.68140(11)
H4 H 0.9150 0.0161 0.6410
H5 H 0.9790 0.0580 0.7305
C8 C 0.7139(2) 0.25176(10) 0.62618(10)
C9 C 0.5543(2) 0.12556(10) 0.78331(10)
H6 H 0.6643 0.1379 0.8258
C10 C 1.0583(2) 0.20698(12) 0.53843(10)
C11 C 0.7261(3) 0.35466(11) 0.55971(11)
H7 H 0.6128 0.4035 0.5655
C12 C 0.0094(2) -0.25810(11) 0.96536(11)
H8 H 0.0010 -0.2660 1.0344
C13 C 0.2752(2) -0.11295(11) 0.94644(10)
H9 H 0.1715 -0.0778 0.9859
H10 H 0.3729 -0.1573 0.9918
C14 C 1.0712(3) 0.31238(12) 0.47688(10)
C15 C 0.3591(2) 0.07171(10) 0.85240(10)
C16 C 0.0291(2) -0.23636(12) 0.76214(11)
H11 H 0.0364 -0.2288 0.6932
C17 C 0.6213(2) 0.35048(11) 0.80862(11)
H12 H 0.7538 0.3125 0.8175
C18 C 0.2726(3) 0.37950(12) 0.74146(12)
H13 H 0.1669 0.3608 0.7055
C19 C 0.6166(2) -0.05831(11) 0.82284(11)
H14 H 0.6086 -0.1221 0.8002
H15 H 0.7352 -0.0662 0.8661
C20 C 1.2312(2) 0.13595(14) 0.52211(12)
H16 H 1.2258 0.0659 0.5601
C21 C 0.8964(3) 0.38393(12) 0.48845(11)
H17 H 0.8985 0.4522 0.4464
C22 C -0.1156(3) -0.32131(12) 0.92770(13)
H18 H -0.2069 -0.3717 0.9715
C23 C 0.5796(3) 0.43536(12) 0.85027(12)
H19 H 0.6826 0.4535 0.8878
C24 C -0.1064(3) -0.31042(12) 0.82633(13)
H20 H -0.1916 -0.3530 0.8012
C25 C 1.2572(3) 0.34238(15) 0.40623(12)
H21 H 1.2673 0.4119 0.3673
C26 C 0.3852(3) 0.49315(12) 0.83607(13)
H22 H 0.3575 0.5510 0.8631
C27 C 0.2335(3) 0.46513(13) 0.78216(14)
H23 H 0.1022 0.5041 0.7727
C28 C 1.4068(3) 0.16778(17) 0.45159(13)
H24 H 1.5179 0.1192 0.4421
C29 C 1.4206(3) 0.27204(17) 0.39416(14)
H25 H 1.5420 0.2934 0.3475
N1 N 0.40547(18) -0.03350(9) 0.87328(9)
O1 O 0.19228(18) 0.11242(8) 0.88348(9)
loop_
_geom_bond_atom_site_label_1
_geom_bond_atom_site_label_2
_geom_bond_site_symmetry_1
_geom_bond_site_symmetry_2
C1 C6 1_555 1_555
C2 H1 1_555 1_555
C3 C2 1_555 1_555
C4 H2 1_555 1_555
C5 C7 1_555 1_555
C6 H3 1_555 1_555
C7 C4 1_555 1_555
H4 C7 1_555 1_555
H5 C7 1_555 1_555
C8 C2 1_555 1_555
C9 C2 1_555 1_555
H6 C9 1_555 1_555
C10 C5 1_555 1_555
C11 C8 1_555 1_555
H7 C11 1_555 1_555
C12 C1 1_555 1_555
H8 C12 1_555 1_555
C13 C1 1_555 1_555
H9 C13 1_555 1_555
H10 C13 1_555 1_555
C14 C10 1_555 1_555
C15 C9 1_555 1_555
C16 C6 1_555 1_555
H11 C16 1_555 1_555
C17 C3 1_555 1_555
H12 C17 1_555 1_555
C18 C3 1_555 1_555
H13 C18 1_555 1_555
C19 C4 1_555 1_555
H14 C19 1_555 1_555
H15 C19 1_555 1_555
C20 C10 1_555 1_555
H16 C20 1_555 1_555
C21 C11 1_555 1_555
H17 C21 1_555 1_555
C22 C12 1_555 1_555
H18 C22 1_555 1_555
C23 C17 1_555 1_555
H19 C23 1_555 1_555
C24 C16 1_555 1_555
H20 C24 1_555 1_555
C25 C14 1_555 1_555
H21 C25 1_555 1_555
C26 C23 1_555 1_555
H22 C26 1_555 1_555
C27 C18 1_555 1_555
H23 C27 1_555 1_555
C28 C20 1_555 1_555
H24 C28 1_555 1_555
C29 C25 1_555 1_555
H25 C29 1_555 1_555
N1 C13 1_555 1_555
O1 C15 1_555 1_555
C4 C9 1_555 1_555
C5 C8 1_555 1_555
C14 C21 1_555 1_555
C15 N1 1_555 1_555
C19 N1 1_555 1_555
C22 C24 1_555 1_555
C26 C27 1_555 1_555
C28 C29 1_555 1_555

#END
