
#######################################################################
#
#                 Cambridge Crystallographic Data Centre
#                                CCDC 
#
#######################################################################
#
# If this CIF has been generated from an entry in the Cambridge 
# Structural Database, then it will include bibliographic, chemical, 
# crystal, experimental, refinement or atomic coordinate data resulting 
# from the CCDC's data processing and validation procedures.
#
#######################################################################

data_CUWBED
_chemical_formula_moiety         'C21 H16 O4'
_chemical_name_systematic        
'methyl 4-(1-oxo-5-phenyl-3,6-dihydro-1H-cyclopenta[c]furan-4-yl)benzoate'
_symmetry_cell_setting           orthorhombic
_symmetry_space_group_name_H-M   'P b c a'
_symmetry_Int_Tables_number      61
_space_group_name_Hall           '-P 2ac 2ab'
loop_
_symmetry_equiv_pos_site_id
_symmetry_equiv_pos_as_xyz
1 x,y,z
2 1/2-x,-y,1/2+z
3 1/2+x,1/2-y,-z
4 -x,1/2+y,1/2-z
5 -x,-y,-z
6 1/2+x,y,1/2-z
7 1/2-x,1/2+y,z
8 x,1/2-y,1/2+z
_cell_length_a                   11.3289(6)
_cell_length_b                   14.3997(7)
_cell_length_c                   19.8404(10)
_cell_angle_alpha                90
_cell_angle_beta                 90
_cell_angle_gamma                90
_cell_volume                     3236.62
_exptl_crystal_colour            orange
_exptl_crystal_description       block
_cell_formula_units_Z            8
loop_
_atom_site_label
_atom_site_type_symbol
_atom_site_fract_x
_atom_site_fract_y
_atom_site_fract_z
O1 O 0.25859(9) 1.20648(8) 0.33315(5)
O2 O 0.33959(11) 1.33800(9) 0.29409(7)
O3 O 0.60615(10) 0.67647(7) 0.51986(6)
O4 O 0.41508(10) 0.66081(8) 0.49402(7)
C1 C 0.45918(13) 1.20639(10) 0.32966(8)
C2 C 0.42908(12) 1.12364(10) 0.35422(7)
C3 C 0.53348(11) 1.06613(9) 0.36592(7)
C4 C 0.62861(12) 1.11627(10) 0.34382(7)
C5 C 0.58987(13) 1.21227(10) 0.32123(8)
H1 H 0.6239 1.2609 0.3499
H2 H 0.6116 1.2240 0.2742
C6 C 0.75209(12) 1.08681(10) 0.33395(7)
C7 C 0.77822(13) 0.99892(10) 0.30790(7)
H3 H 0.7168 0.9567 0.2992
C8 C 0.89397(13) 0.97366(11) 0.29478(8)
H4 H 0.9105 0.9146 0.2770
C9 C 0.98516(13) 1.03478(12) 0.30766(8)
H5 H 1.0636 1.0171 0.2991
C10 C 0.96110(13) 1.12143(12) 0.33304(8)
H6 H 1.0232 1.1629 0.3421
C11 C 0.84569(13) 1.14790(11) 0.34538(8)
H7 H 0.8301 1.2079 0.3617
C12 C 0.35447(14) 1.26077(12) 0.31579(9)
C13 C 0.29759(12) 1.11684(11) 0.35755(8)
H8 H 0.2683 1.0666 0.3287
H9 H 0.2709 1.1061 0.4039
C14 C 0.52959(11) 0.97366(10) 0.39861(7)
C15 C 0.62387(12) 0.93905(10) 0.43666(7)
H10 H 0.6926 0.9750 0.4415
C16 C 0.61788(13) 0.85314(10) 0.46725(7)
H11 H 0.6835 0.8301 0.4909
C17 C 0.51511(12) 0.80041(10) 0.46326(7)
C18 C 0.42014(13) 0.83479(10) 0.42682(8)
H12 H 0.3498 0.8003 0.4243
C19 C 0.42801(12) 0.91926(10) 0.39422(8)
H13 H 0.3637 0.9405 0.3686
C20 C 0.50423(14) 0.70665(11) 0.49396(8)
C21 C 0.60592(17) 0.58201(12) 0.54429(11)
H14 H 0.5410 0.5736 0.5756
H15 H 0.6799 0.5693 0.5671
H16 H 0.5967 0.5397 0.5066
loop_
_geom_bond_atom_site_label_1
_geom_bond_atom_site_label_2
_geom_bond_site_symmetry_1
_geom_bond_site_symmetry_2
O1 C12 1_555 1_555
O2 C12 1_555 1_555
O3 C20 1_555 1_555
O4 C20 1_555 1_555
C1 C2 1_555 1_555
C2 C3 1_555 1_555
C3 C4 1_555 1_555
C4 C5 1_555 1_555
C5 C1 1_555 1_555
H1 C5 1_555 1_555
H2 C5 1_555 1_555
C6 C4 1_555 1_555
C7 C6 1_555 1_555
H3 C7 1_555 1_555
C8 C7 1_555 1_555
H4 C8 1_555 1_555
C9 C8 1_555 1_555
H5 C9 1_555 1_555
C10 C9 1_555 1_555
H6 C10 1_555 1_555
C11 C6 1_555 1_555
H7 C11 1_555 1_555
C12 C1 1_555 1_555
C13 O1 1_555 1_555
H8 C13 1_555 1_555
H9 C13 1_555 1_555
C14 C3 1_555 1_555
C15 C14 1_555 1_555
H10 C15 1_555 1_555
C16 C15 1_555 1_555
H11 C16 1_555 1_555
C17 C16 1_555 1_555
C18 C17 1_555 1_555
H12 C18 1_555 1_555
C19 C14 1_555 1_555
H13 C19 1_555 1_555
C20 C17 1_555 1_555
C21 O3 1_555 1_555
H14 C21 1_555 1_555
H15 C21 1_555 1_555
H16 C21 1_555 1_555
C2 C13 1_555 1_555
C10 C11 1_555 1_555
C18 C19 1_555 1_555

#END
