
#######################################################################
#
#                 Cambridge Crystallographic Data Centre
#                                CCDC 
#
#######################################################################
#
# If this CIF has been generated from an entry in the Cambridge 
# Structural Database, then it will include bibliographic, chemical, 
# crystal, experimental, refinement or atomic coordinate data resulting 
# from the CCDC's data processing and validation procedures.
#
#######################################################################

data_CUWPOB
_chemical_name_common            
'1,3-bis(1-methyl-2-diphenylphosphino-3-methylimidazolium)benzene triflate unknown solvate'
_chemical_formula_moiety         'C38 H34 N4 P2 2+,2(C1 F3 O3 S1 1-)'
_chemical_name_systematic        
"1,1'-(1,3-phenylene)bis(2-(diphenylphosphino)-3-methyl-1H-imidazol-3-ium) bis(trifluoromethanesulfonate) unknown solvate"
_symmetry_cell_setting           triclinic
_symmetry_space_group_name_H-M   'P -1'
_symmetry_Int_Tables_number      2
_space_group_name_Hall           '-P 1'
loop_
_symmetry_equiv_pos_site_id
_symmetry_equiv_pos_as_xyz
1 x,y,z
2 -x,-y,-z
_cell_length_a                   14.0858(11)
_cell_length_b                   14.4866(11)
_cell_length_c                   15.7112(12)
_cell_angle_alpha                67.615(2)
_cell_angle_beta                 78.550(2)
_cell_angle_gamma                62.440(2)
_cell_volume                     2627.02
_exptl_crystal_colour            colorless
_exptl_crystal_description       block
_cell_formula_units_Z            2
loop_
_atom_site_label
_atom_site_type_symbol
_atom_site_fract_x
_atom_site_fract_y
_atom_site_fract_z
P1 P 0.56238(6) 0.01508(6) 0.10802(5)
P2 P 1.07601(6) -0.36760(7) -0.12546(5)
N1 N 0.7116(2) -0.0076(2) 0.22733(18)
N2 N 0.78378(18) -0.0941(2) 0.12961(16)
N3 N 0.94748(19) -0.1428(2) -0.16211(17)
N4 N 1.0618(2) -0.1653(2) -0.27445(17)
C1 C 0.4785(2) 0.1479(3) 0.1247(2)
C2 C 0.4905(3) 0.2404(3) 0.0611(3)
H1 H 0.5452 0.2318 0.0145
C3 C 0.4234(3) 0.3441(3) 0.0654(3)
H2 H 0.4318 0.4067 0.0217
C4 C 0.3440(3) 0.3574(3) 0.1329(4)
H3 H 0.2983 0.4291 0.1359
C5 C 0.3305(3) 0.2672(3) 0.1960(3)
H4 H 0.2750 0.2770 0.2419
C6 C 0.3974(2) 0.1626(3) 0.1928(2)
H5 H 0.3884 0.1005 0.2369
C7 C 0.5038(2) -0.0759(2) 0.1877(2)
C8 C 0.4194(3) -0.0744(3) 0.1538(3)
H6 H 0.3951 -0.0268 0.0935
C9 C 0.3702(3) -0.1426(3) 0.2078(3)
H7 H 0.3119 -0.1408 0.1844
C10 C 0.4052(3) -0.2119(3) 0.2941(3)
H8 H 0.3717 -0.2586 0.3307
C11 C 0.4890(3) -0.2140(3) 0.3281(3)
H9 H 0.5135 -0.2628 0.3881
C12 C 0.5383(3) -0.1460(3) 0.2762(2)
H10 H 0.5954 -0.1471 0.3008
C13 C 1.0188(2) -0.4194(2) -0.1811(2)
C14 C 0.9802(3) -0.3688(3) -0.2707(2)
H11 H 0.9844 -0.3019 -0.3092
C15 C 0.9360(3) -0.4165(3) -0.3029(3)
H12 H 0.9091 -0.3815 -0.3634
C16 C 0.9305(3) -0.5139(3) -0.2483(3)
H13 H 0.9007 -0.5465 -0.2713
C17 C 0.9684(3) -0.5646(3) -0.1594(3)
H14 H 0.9648 -0.6321 -0.1218
C18 C 1.0107(3) -0.5181(3) -0.1259(3)
H15 H 1.0350 -0.5527 -0.0646
C19 C 1.2176(3) -0.4183(3) -0.1612(2)
C20 C 1.2657(3) -0.4997(4) -0.2002(3)
H16 H 1.2247 -0.5294 -0.2131
C21 C 1.3759(4) -0.5389(5) -0.2209(4)
H17 H 1.4102 -0.5979 -0.2451
C22 C 1.4343(4) -0.4934(6) -0.2066(4)
H18 H 1.5081 -0.5177 -0.2243
C23 C 1.3863(4) -0.4116(6) -0.1663(4)
H19 H 1.4273 -0.3807 -0.1554
C24 C 1.2786(3) -0.3752(4) -0.1422(3)
H20 H 1.2460 -0.3209 -0.1128
C25 C 0.7981(2) -0.1385(2) 0.05801(19)
C26 C 0.7465(2) -0.2033(2) 0.0661(2)
H21 H 0.7020 -0.2179 0.1186
C27 C 0.7601(2) -0.2463(2) -0.0023(2)
H22 H 0.7239 -0.2894 0.0021
C28 C 0.8271(2) -0.2261(2) -0.0779(2)
H23 H 0.8367 -0.2548 -0.1257
C29 C 0.8795(2) -0.1640(2) -0.0826(2)
C30 C 0.8657(2) -0.1187(2) -0.0155(2)
H24 H 0.9017 -0.0754 -0.0200
C31 C 0.6883(2) -0.0327(2) 0.16238(19)
C32 C 0.8659(2) -0.1050(3) 0.1729(2)
H25 H 0.9405 -0.1429 0.1616
C33 C 0.8212(3) -0.0525(3) 0.2332(2)
H26 H 0.8583 -0.0466 0.2738
C34 C 0.6353(3) 0.0563(4) 0.2846(3)
H27 H 0.5620 0.0793 0.2687
H28 H 0.6466 0.1218 0.2737
H29 H 0.6463 0.0106 0.3497
C35 C 1.0263(2) -0.2211(3) -0.1947(2)
C36 C 1.0071(3) -0.0541(3) -0.2897(2)
H30 H 1.0172 0.0027 -0.3407
C37 C 0.9362(3) -0.0401(3) -0.2190(2)
H31 H 0.8877 0.0281 -0.2105
C38 C 1.1441(3) -0.2118(3) -0.3388(2)
H32 H 1.1730 -0.2926 -0.3146
H33 H 1.2020 -0.1895 -0.3463
H34 H 1.1123 -0.1846 -0.3986
S1 S 0.15319(7) 0.09287(8) 0.48562(6)
O1 O 0.0481(2) 0.1268(3) 0.4602(2)
O2 O 0.1809(2) 0.0154(2) 0.57593(16)
O3 O 0.1870(3) 0.1795(3) 0.4612(2)
C39 C 0.2341(4) 0.0182(4) 0.4112(3)
F1 F 0.3383(2) -0.0158(4) 0.4204(2)
F2 F 0.2201(3) -0.0722(3) 0.4277(2)
F3 F 0.2128(3) 0.0782(3) 0.32289(16)
S2 S 0.82425(7) 0.18126(7) -0.03563(7)
O4 O 0.8870(3) 0.1338(3) -0.1045(3)
O5 O 0.8817(3) 0.2084(3) 0.0088(4)
O6 O 0.7580(2) 0.1316(2) 0.0181(3)
C40 C 0.7278(3) 0.3161(3) -0.1022(3)
F4 F 0.7717(3) 0.3770(3) -0.1628(3)
F5 F 0.6666(3) 0.3067(2) -0.1493(2)
F6 F 0.66071(19) 0.37212(19) -0.04908(19)
loop_
_geom_bond_atom_site_label_1
_geom_bond_atom_site_label_2
_geom_bond_site_symmetry_1
_geom_bond_site_symmetry_2
P1 C1 1_555 1_555
P2 C13 1_555 1_555
N1 C31 1_555 1_555
N2 C25 1_555 1_555
N3 C29 1_555 1_555
N4 C35 1_555 1_555
C1 C2 1_555 1_555
C2 H1 1_555 1_555
C3 C2 1_555 1_555
H2 C3 1_555 1_555
C4 C3 1_555 1_555
H3 C4 1_555 1_555
C5 C4 1_555 1_555
H4 C5 1_555 1_555
C6 C1 1_555 1_555
H5 C6 1_555 1_555
C7 P1 1_555 1_555
C8 C7 1_555 1_555
H6 C8 1_555 1_555
C9 C8 1_555 1_555
H7 C9 1_555 1_555
C10 C9 1_555 1_555
H8 C10 1_555 1_555
C11 C10 1_555 1_555
H9 C11 1_555 1_555
C12 C7 1_555 1_555
H10 C12 1_555 1_555
C13 C14 1_555 1_555
C14 H11 1_555 1_555
C15 C14 1_555 1_555
H12 C15 1_555 1_555
C16 C15 1_555 1_555
H13 C16 1_555 1_555
C17 C16 1_555 1_555
H14 C17 1_555 1_555
C18 C13 1_555 1_555
H15 C18 1_555 1_555
C19 P2 1_555 1_555
C20 C19 1_555 1_555
H16 C20 1_555 1_555
C21 C20 1_555 1_555
H17 C21 1_555 1_555
C22 C21 1_555 1_555
H18 C22 1_555 1_555
C23 C22 1_555 1_555
H19 C23 1_555 1_555
C24 C19 1_555 1_555
H20 C24 1_555 1_555
C25 C26 1_555 1_555
C26 H21 1_555 1_555
C27 C26 1_555 1_555
H22 C27 1_555 1_555
C28 C27 1_555 1_555
H23 C28 1_555 1_555
C29 C28 1_555 1_555
C30 C25 1_555 1_555
H24 C30 1_555 1_555
C31 P1 1_555 1_555
C32 N2 1_555 1_555
H25 C32 1_555 1_555
C33 N1 1_555 1_555
H26 C33 1_555 1_555
C34 N1 1_555 1_555
H27 C34 1_555 1_555
H28 C34 1_555 1_555
H29 C34 1_555 1_555
C35 P2 1_555 1_555
C36 N4 1_555 1_555
H30 C36 1_555 1_555
C37 N3 1_555 1_555
H31 C37 1_555 1_555
C38 N4 1_555 1_555
H32 C38 1_555 1_555
H33 C38 1_555 1_555
H34 C38 1_555 1_555
S1 O1 1_555 1_555
O2 S1 1_555 1_555
O3 S1 1_555 1_555
C39 S1 1_555 1_555
F1 C39 1_555 1_555
F2 C39 1_555 1_555
F3 C39 1_555 1_555
S2 O4 1_555 1_555
O5 S2 1_555 1_555
O6 S2 1_555 1_555
C40 S2 1_555 1_555
F4 C40 1_555 1_555
F5 C40 1_555 1_555
F6 C40 1_555 1_555
N2 C31 1_555 1_555
N3 C35 1_555 1_555
C5 C6 1_555 1_555
C11 C12 1_555 1_555
C17 C18 1_555 1_555
C23 C24 1_555 1_555
C29 C30 1_555 1_555
C32 C33 1_555 1_555
C36 C37 1_555 1_555

#END
