
#######################################################################
#
#                 Cambridge Crystallographic Data Centre
#                                CCDC 
#
#######################################################################
#
# If this CIF has been generated from an entry in the Cambridge 
# Structural Database, then it will include bibliographic, chemical, 
# crystal, experimental, refinement or atomic coordinate data resulting 
# from the CCDC's data processing and validation procedures.
#
#######################################################################

data_CUWRIX
_chemical_formula_moiety         'C64 H78 N2 O4 Si2'
_chemical_name_systematic        
4,4'-(1,6-bis(triisopropylsilyl)hex-3-ene-1,5-diyne-3,4-diyl)bis(N,N-bis(4-methoxyphenyl)aniline)
_symmetry_cell_setting           monoclinic
_symmetry_space_group_name_H-M   'P 21/c'
_symmetry_Int_Tables_number      14
_space_group_name_Hall           '-P 2ybc'
loop_
_symmetry_equiv_pos_site_id
_symmetry_equiv_pos_as_xyz
1 x,y,z
2 -x,1/2+y,1/2-z
3 -x,-y,-z
4 x,1/2-y,1/2+z
_cell_length_a                   11.3075(2)
_cell_length_b                   23.9449(3)
_cell_length_c                   11.5539(2)
_cell_angle_alpha                90
_cell_angle_beta                 111.656(2)
_cell_angle_gamma                90
_cell_volume                     2907.49
_exptl_crystal_colour            orange
_exptl_crystal_description       plate
_cell_formula_units_Z            2
_exptl_crystal_recrystallization_method ethanol/dichloromethane
loop_
_atom_site_label
_atom_site_type_symbol
_atom_site_fract_x
_atom_site_fract_y
_atom_site_fract_z
C1 C 0.5192(2) 0.47308(9) 0.5155(2)
C2 C 0.4693(2) 0.43999(9) 0.5911(2)
C3 C 0.4351(2) 0.40926(9) 0.6551(2)
C4 C 0.6147(2) 0.44385(8) 0.4768(2)
C5 C 0.5987(2) 0.38755(9) 0.4439(3)
H1 H 0.5267 0.3686 0.446
C6 C 0.6858(3) 0.35897(9) 0.4084(3)
H2 H 0.6713 0.3212 0.3853
C7 C 0.7947(2) 0.38515(9) 0.4063(3)
C8 C 0.8137(2) 0.44086(9) 0.4426(2)
H3 H 0.8873 0.4594 0.4435
C9 C 0.7254(2) 0.46931(9) 0.4777(2)
H4 H 0.7409 0.5068 0.5027
Si1 Si 0.38794(7) 0.36365(3) 0.75888(7)
C10 C 0.5446(14) 0.3671(7) 0.9057(12)
H5 H 0.6122 0.3499 0.8823
C11 C 0.585(2) 0.4251(8) 0.9448(14)
H6 H 0.5892 0.446 0.8743
H7 H 0.6687 0.4247 1.0109
H8 H 0.5246 0.4426 0.9747
C12 C 0.5458(14) 0.3378(8) 1.0196(13)
H9 H 0.5169 0.2996 0.9988
H10 H 0.4897 0.3569 1.0529
H11 H 0.6317 0.3376 1.0814
C13 C 0.2508(7) 0.4052(4) 0.7872(6)
H12 H 0.2852 0.4422 0.8216
C14 C 0.1386(7) 0.4151(4) 0.6607(7)
H13 H 0.1705 0.4329 0.6026
H14 H 0.0755 0.4391 0.6739
H15 H 0.0999 0.3796 0.6268
C15 C 0.1937(11) 0.3789(6) 0.8752(9)
H16 H 0.2607 0.3717 0.9551
H17 H 0.1522 0.344 0.84
H18 H 0.1318 0.4042 0.8863
C16 C 0.3121(10) 0.2988(3) 0.6640(8)
H19 H 0.2304 0.3137 0.6051
C17 C 0.2695(13) 0.2565(5) 0.7323(13)
H20 H 0.2364 0.2749 0.7888
H21 H 0.3408 0.2329 0.7794
H22 H 0.2033 0.2338 0.6737
C18 C 0.3686(13) 0.2776(3) 0.5829(9)
H23 H 0.3944 0.3084 0.5429
H24 H 0.3077 0.2544 0.5201
H25 H 0.4426 0.2555 0.63
C19 C 0.8842(2) 0.29603(9) 0.3723(2)
C20 C 0.9294(3) 0.26771(10) 0.4833(2)
H26 H 0.9587 0.2877 0.5586
C21 C 0.9322(3) 0.21012(10) 0.4851(3)
H27 H 0.9647 0.1911 0.5615
C22 C 0.8872(2) 0.18034(9) 0.3747(2)
C23 C 0.8422(3) 0.20821(11) 0.2636(3)
H28 H 0.8121 0.1883 0.1882
C24 C 0.8414(3) 0.26637(11) 0.2635(3)
H29 H 0.8109 0.2856 0.1872
C25 C 0.8349(4) 0.09193(12) 0.2745(4)
H30 H 0.7469 0.1032 0.2331
H31 H 0.8386 0.0525 0.295
H32 H 0.881 0.0985 0.2197
C26 C 0.9586(2) 0.38311(9) 0.3112(2)
C27 C 1.0818(3) 0.36652(12) 0.3390(3)
H33 H 1.1161 0.3384 0.3988
C28 C 1.1569(3) 0.39047(12) 0.2808(3)
H34 H 1.2418 0.3789 0.3021
C29 C 1.1078(2) 0.43067(10) 0.1931(2)
C30 C 0.9832(3) 0.44742(10) 0.1635(3)
H35 H 0.9483 0.4751 0.1028
C31 C 0.9100(2) 0.42380(10) 0.2223(3)
H36 H 0.8254 0.4356 0.2016
C32 C 1.3050(4) 0.44409(19) 0.1664(5)
H37 H 1.3459 0.4507 0.2552
H38 H 1.3427 0.4682 0.1219
H39 H 1.3167 0.4054 0.1484
N1 N 0.8834(2) 0.35602(8) 0.3703(3)
O1 O 0.8912(2) 0.12354(7) 0.3855(2)
O2 O 1.1727(2) 0.45590(8) 0.1280(2)
C1B C 0.4808(2) 0.52692(9) 0.4845(2)
C2B C 0.5307(2) 0.56001(9) 0.4089(2)
C3B C 0.5649(2) 0.59074(9) 0.3449(2)
C4B C 0.3853(2) 0.55615(8) 0.5232(2)
C5B C 0.4013(2) 0.61245(9) 0.5561(3)
H1B H 0.4733 0.6314 0.554
C6B C 0.3142(3) 0.64103(9) 0.5916(3)
H2B H 0.3287 0.6788 0.6147
C7B C 0.2053(2) 0.61485(9) 0.5937(3)
C8B C 0.1863(2) 0.55914(9) 0.5574(2)
H3B H 0.1127 0.5406 0.5565
C9B C 0.2746(2) 0.53069(9) 0.5223(2)
H4B H 0.2591 0.4932 0.4973
Si1B Si 0.61206(7) 0.63635(3) 0.24112(7)
C10B C 0.4554(14) 0.6329(7) 0.0943(12)
H5B H 0.3878 0.6501 0.1177
C11B C 0.415(2) 0.5749(8) 0.0552(14)
H6B H 0.4108 0.554 0.1257
H7B H 0.3313 0.5753 -0.0109
H8B H 0.4754 0.5574 0.0253
C12B C 0.4542(14) 0.6622(8) -0.0196(13)
H9B H 0.4831 0.7004 0.0012
H10B H 0.5103 0.6431 -0.0529
H11B H 0.3683 0.6624 -0.0814
C13B C 0.7492(7) 0.5948(4) 0.2128(6)
H12B H 0.7148 0.5578 0.1784
C14B C 0.8614(7) 0.5849(4) 0.3393(7)
H13B H 0.8295 0.5671 0.3974
H14B H 0.9245 0.5609 0.3261
H15B H 0.9001 0.6204 0.3732
C15B C 0.8063(11) 0.6211(6) 0.1248(9)
H16B H 0.7393 0.6283 0.0449
H17B H 0.8478 0.656 0.16
H18B H 0.8682 0.5958 0.1137
C16B C 0.6879(10) 0.7012(3) 0.3360(8)
H19B H 0.7696 0.6863 0.3949
C17B C 0.7305(13) 0.7435(5) 0.2677(13)
H20B H 0.7636 0.7251 0.2112
H21B H 0.6592 0.7671 0.2206
H22B H 0.7967 0.7662 0.3263
C18B C 0.6314(13) 0.7224(3) 0.4171(9)
H23B H 0.6056 0.6916 0.4571
H24B H 0.6923 0.7456 0.4799
H25B H 0.5574 0.7445 0.37
C19B C 0.1158(2) 0.70397(9) 0.6277(2)
C20B C 0.0706(3) 0.73229(10) 0.5167(2)
H26B H 0.0413 0.7123 0.4414
C21B C 0.0678(3) 0.78988(10) 0.5149(3)
H27B H 0.0353 0.8089 0.4385
C22B C 0.1128(2) 0.81966(9) 0.6253(2)
C23B C 0.1578(3) 0.79179(11) 0.7364(3)
H28B H 0.1879 0.8117 0.8118
C24B C 0.1586(3) 0.73363(11) 0.7365(3)
H29B H 0.1891 0.7144 0.8128
C25B C 0.1651(4) 0.90807(12) 0.7255(4)
H30B H 0.2531 0.8968 0.7669
H31B H 0.1614 0.9475 0.705
H32B H 0.119 0.9015 0.7803
C26B C 0.0414(2) 0.61689(9) 0.6888(2)
C27B C -0.0818(3) 0.63348(12) 0.6610(3)
H33B H -0.1161 0.6616 0.6012
C28B C -0.1569(3) 0.60953(12) 0.7192(3)
H34B H -0.2418 0.6211 0.6979
C29B C -0.1078(2) 0.56933(10) 0.8069(2)
C30B C 0.0168(3) 0.55258(10) 0.8365(3)
H35B H 0.0517 0.5249 0.8972
C31B C 0.0900(2) 0.57620(10) 0.7777(3)
H36B H 0.1746 0.5644 0.7984
C32B C -0.3050(4) 0.55591(19) 0.8336(5)
H37B H -0.3459 0.5493 0.7448
H38B H -0.3427 0.5318 0.8781
H39B H -0.3167 0.5946 0.8516
N1B N 0.1166(2) 0.64398(8) 0.6297(3)
O1B O 0.1088(2) 0.87646(7) 0.6145(2)
O2B O -0.1727(2) 0.54410(8) 0.8720(2)
C33? C 0.4924(7) 0.3653(5) 0.9207(8)
H40? H 0.45 0.3448 0.969
C34? C 0.5180(15) 0.4229(7) 0.9709(16)
H41? H 0.438 0.4415 0.9583
H42? H 0.5637 0.4433 0.9281
H43? H 0.5689 0.4214 1.0593
C35? C 0.6137(12) 0.3340(8) 0.9338(19)
H44? H 0.5924 0.2966 0.9002
H45? H 0.6681 0.3317 1.0211
H46? H 0.6581 0.3536 0.8885
C36? C 0.2250(8) 0.3710(4) 0.7378(11)
H47? H 0.1767 0.3564 0.6533
C37? C 0.1815(9) 0.3362(4) 0.8256(11)
H48? H 0.2053 0.2975 0.8224
H49? H 0.0898 0.3389 0.8003
H50? H 0.2218 0.3501 0.91
C38? C 0.1851(16) 0.4295(5) 0.7362(16)
H51? H 0.2142 0.4508 0.6805
H52? H 0.2218 0.4449 0.8196
H53? H 0.093 0.4313 0.7075
C39? C 0.4165(9) 0.2876(3) 0.7168(10)
H54? H 0.3528 0.2844 0.631
C40? C 0.5271(16) 0.2761(5) 0.6981(18)
H55? H 0.5484 0.3074 0.6561
H56? H 0.5156 0.2429 0.6472
H57? H 0.5954 0.27 0.7778
C41? C 0.375(2) 0.2430(6) 0.780(2)
H58? H 0.3008 0.2551 0.7954
H59? H 0.4435 0.2344 0.8583
H60? H 0.3549 0.21 0.7276
loop_
_geom_bond_atom_site_label_1
_geom_bond_atom_site_label_2
_geom_bond_site_symmetry_1
_geom_bond_site_symmetry_2
C1 C2 1_555 1_555
C2 C3 1_555 1_555
C3 Si1 1_555 1_555
C4 C1 1_555 1_555
C5 C4 1_555 1_555
H1 C5 1_555 1_555
C6 C5 1_555 1_555
H2 C6 1_555 1_555
C7 C6 1_555 1_555
C8 C7 1_555 1_555
H3 C8 1_555 1_555
C9 C4 1_555 1_555
H4 C9 1_555 1_555
Si1 C10 1_555 1_555
C10 H5 1_555 1_555
C11 C10 1_555 1_555
H6 C11 1_555 1_555
H7 C11 1_555 1_555
H8 C11 1_555 1_555
C12 C10 1_555 1_555
H9 C12 1_555 1_555
H10 C12 1_555 1_555
H11 C12 1_555 1_555
C13 Si1 1_555 1_555
H12 C13 1_555 1_555
C14 C13 1_555 1_555
H13 C14 1_555 1_555
H14 C14 1_555 1_555
H15 C14 1_555 1_555
C15 C13 1_555 1_555
H16 C15 1_555 1_555
H17 C15 1_555 1_555
H18 C15 1_555 1_555
C16 Si1 1_555 1_555
H19 C16 1_555 1_555
C17 C16 1_555 1_555
H20 C17 1_555 1_555
H21 C17 1_555 1_555
H22 C17 1_555 1_555
C18 C16 1_555 1_555
H23 C18 1_555 1_555
H24 C18 1_555 1_555
H25 C18 1_555 1_555
C19 C20 1_555 1_555
C20 H26 1_555 1_555
C21 C20 1_555 1_555
H27 C21 1_555 1_555
C22 C21 1_555 1_555
C23 C22 1_555 1_555
H28 C23 1_555 1_555
C24 C19 1_555 1_555
H29 C24 1_555 1_555
C25 H30 1_555 1_555
H31 C25 1_555 1_555
H32 C25 1_555 1_555
C26 C27 1_555 1_555
C27 H33 1_555 1_555
C28 C27 1_555 1_555
H34 C28 1_555 1_555
C29 C28 1_555 1_555
C30 C29 1_555 1_555
H35 C30 1_555 1_555
C31 C26 1_555 1_555
H36 C31 1_555 1_555
C32 H37 1_555 1_555
H38 C32 1_555 1_555
H39 C32 1_555 1_555
N1 C7 1_555 1_555
O1 C22 1_555 1_555
O2 C29 1_555 1_555
C1B C1 1_555 1_555
C2B C1B 1_555 1_555
C3B C2B 1_555 1_555
C4B C1B 1_555 1_555
C5B C4B 1_555 1_555
H1B C5B 1_555 1_555
C6B C5B 1_555 1_555
H2B C6B 1_555 1_555
C7B C6B 1_555 1_555
C8B C7B 1_555 1_555
H3B C8B 1_555 1_555
C9B C4B 1_555 1_555
H4B C9B 1_555 1_555
Si1B C3B 1_555 1_555
C10B Si1B 1_555 1_555
H5B C10B 1_555 1_555
C11B C10B 1_555 1_555
H6B C11B 1_555 1_555
H7B C11B 1_555 1_555
H8B C11B 1_555 1_555
C12B C10B 1_555 1_555
H9B C12B 1_555 1_555
H10B C12B 1_555 1_555
H11B C12B 1_555 1_555
C13B Si1B 1_555 1_555
H12B C13B 1_555 1_555
C14B C13B 1_555 1_555
H13B C14B 1_555 1_555
H14B C14B 1_555 1_555
H15B C14B 1_555 1_555
C15B C13B 1_555 1_555
H16B C15B 1_555 1_555
H17B C15B 1_555 1_555
H18B C15B 1_555 1_555
C16B Si1B 1_555 1_555
H19B C16B 1_555 1_555
C17B C16B 1_555 1_555
H20B C17B 1_555 1_555
H21B C17B 1_555 1_555
H22B C17B 1_555 1_555
C18B C16B 1_555 1_555
H23B C18B 1_555 1_555
H24B C18B 1_555 1_555
H25B C18B 1_555 1_555
C19B C20B 1_555 1_555
C20B H26B 1_555 1_555
C21B C20B 1_555 1_555
H27B C21B 1_555 1_555
C22B C21B 1_555 1_555
C23B C22B 1_555 1_555
H28B C23B 1_555 1_555
C24B C19B 1_555 1_555
H29B C24B 1_555 1_555
C25B H30B 1_555 1_555
H31B C25B 1_555 1_555
H32B C25B 1_555 1_555
C26B C27B 1_555 1_555
C27B H33B 1_555 1_555
C28B C27B 1_555 1_555
H34B C28B 1_555 1_555
C29B C28B 1_555 1_555
C30B C29B 1_555 1_555
H35B C30B 1_555 1_555
C31B C26B 1_555 1_555
H36B C31B 1_555 1_555
C32B H37B 1_555 1_555
H38B C32B 1_555 1_555
H39B C32B 1_555 1_555
N1B C7B 1_555 1_555
O1B C22B 1_555 1_555
O2B C29B 1_555 1_555
C8 C9 1_555 1_555
C19 N1 1_555 1_555
C23 C24 1_555 1_555
C25 O1 1_555 1_555
C26 N1 1_555 1_555
C30 C31 1_555 1_555
C32 O2 1_555 1_555
C8B C9B 1_555 1_555
C19B N1B 1_555 1_555
C23B C24B 1_555 1_555
C25B O1B 1_555 1_555
C26B N1B 1_555 1_555
C30B C31B 1_555 1_555
C32B O2B 1_555 1_555

#END
