
#######################################################################
#
#                 Cambridge Crystallographic Data Centre
#                                CCDC 
#
#######################################################################
#
# If this CIF has been generated from an entry in the Cambridge 
# Structural Database, then it will include bibliographic, chemical, 
# crystal, experimental, refinement or atomic coordinate data resulting 
# from the CCDC's data processing and validation procedures.
#
#######################################################################

data_CUXSOD
_chemical_formula_moiety         'C21 H32 O6'
_chemical_name_systematic        
3-Acetoxy-8a-methyl-2-(2'-methylprop-1'-enyl)-1,2-bis(methoxycarbonyl)decalin
_symmetry_cell_setting           orthorhombic
_symmetry_space_group_name_H-M   'P n a 21'
_symmetry_Int_Tables_number      33
_space_group_name_Hall           'P 2c -2n'
loop_
_symmetry_equiv_pos_site_id
_symmetry_equiv_pos_as_xyz
1 x,y,z
2 1/2-x,1/2+y,1/2+z
3 1/2+x,1/2-y,z
4 -x,-y,1/2+z
_cell_length_a                   12.030(4)
_cell_length_b                   8.544(2)
_cell_length_c                   19.750(5)
_cell_angle_alpha                90
_cell_angle_beta                 90
_cell_angle_gamma                90
_cell_volume                     2029.99
_chemical_melting_point          119.5-120.5deg.C
_cell_formula_units_Z            4
loop_
_atom_site_label
_atom_site_type_symbol
_atom_site_fract_x
_atom_site_fract_y
_atom_site_fract_z
O1 O 0.8730(2) -0.1535(3) 0.6796(2)
O2 O 1.0531(2) -0.0951(3) 0.6754(2)
O3 O 0.6865(2) 0.1245(3) 0.5632(2)
O4 O 0.7859(2) -0.0920(3) 0.5462(2)
O5 O 0.8318(2) 0.3431(3) 0.5006
O6 O 0.9344(3) 0.5615(4) 0.4881(2)
C1 C 0.9338(4) 0.1755(5) 0.7742(2)
C2 C 0.8942(4) 0.2820(5) 0.8324(2)
C3 C 0.8946(4) 0.4530(6) 0.8101(3)
C4 C 0.8271(4) 0.4784(5) 0.7465(2)
C5 C 0.8725(3) 0.3737(5) 0.6897(2)
C6 C 0.8216(4) 0.4053(5) 0.6203(2)
C7 C 0.8824(3) 0.3145(5) 0.5662(2)
C8 C 0.8878(3) 0.1363(4) 0.5759(2)
C9 C 0.9289(3) 0.1099(4) 0.6503(2)
C10 C 0.8670(3) 0.1986(5) 0.7084(2)
C11 C 0.7469(3) 0.1420(5) 0.7193(2)
C12 C 0.9452(3) -0.0606(5) 0.6687(2)
C13 C 1.0781(4) -0.2512(6) 0.6977(3)
C14 C 0.7743(3) 0.0597(5) 0.5618(2)
C15 C 0.6871(4) -0.1772(6) 0.5285(3)
C16 C 0.9788(3) 0.0648(5) 0.5285(2)
C17 C 0.9729(4) 0.0964(5) 0.4542(2)
C18 C 0.8833(4) 0.0228(7) 0.4124(3)
C19 C 1.0491(4) 0.1831(6) 0.4235(3)
C20 C 0.8697(4) 0.4695(6) 0.4665(2)
C21 C 0.8187(4) 0.4739(7) 0.3963(3)
loop_
_geom_bond_atom_site_label_1
_geom_bond_atom_site_label_2
_geom_bond_site_symmetry_1
_geom_bond_site_symmetry_2
O1 C12 1_555 1_555
O2 C12 1_555 1_555
O3 C14 1_555 1_555
O4 C14 1_555 1_555
O5 C7 1_555 1_555
O6 C20 1_555 1_555
C1 C2 1_555 1_555
C2 C3 1_555 1_555
C3 C4 1_555 1_555
C4 C5 1_555 1_555
C5 C6 1_555 1_555
C6 C7 1_555 1_555
C7 C8 1_555 1_555
C8 C9 1_555 1_555
C9 C10 1_555 1_555
C10 C1 1_555 1_555
C11 C10 1_555 1_555
C12 C9 1_555 1_555
C13 O2 1_555 1_555
C14 C8 1_555 1_555
C15 O4 1_555 1_555
C16 C8 1_555 1_555
C17 C16 1_555 1_555
C18 C17 1_555 1_555
C19 C17 1_555 1_555
C20 O5 1_555 1_555
C21 C20 1_555 1_555
C5 C10 1_555 1_555

#END
