
#######################################################################
#
#                 Cambridge Crystallographic Data Centre
#                                CCDC 
#
#######################################################################
#
# If this CIF has been generated from an entry in the Cambridge 
# Structural Database, then it will include bibliographic, chemical, 
# crystal, experimental, refinement or atomic coordinate data resulting 
# from the CCDC's data processing and validation procedures.
#
#######################################################################

data_CUYXOJ
_chemical_formula_moiety         'C30 H30 P2 S2'
_chemical_name_systematic        
trans-13,17-Diphenyl-13,17-diphospha-2,6-dithiatricyclo(16.4.0.0^7,12^)docosa-7(12),8,10,1(18),19,21-hexaene
_symmetry_cell_setting           monoclinic
_symmetry_space_group_name_H-M   'P 21/c'
_symmetry_Int_Tables_number      14
_space_group_name_Hall           '-P 2ybc'
loop_
_symmetry_equiv_pos_site_id
_symmetry_equiv_pos_as_xyz
1 x,y,z
2 -x,1/2+y,1/2-z
3 -x,-y,-z
4 x,1/2-y,1/2+z
_cell_length_a                   13.4358(22)
_cell_length_b                   14.2137(14)
_cell_length_c                   14.0314(21)
_cell_angle_alpha                90
_cell_angle_beta                 93.903(11)
_cell_angle_gamma                90
_cell_volume                     2673.4
_exptl_crystal_colour            colorless
_chemical_melting_point          155-157deg.C
_cell_formula_units_Z            4
loop_
_atom_site_label
_atom_site_type_symbol
_atom_site_fract_x
_atom_site_fract_y
_atom_site_fract_z
P1 P 0.69499(7) 0.51994(7) 0.51329(6)
P2 P 0.83882(10) 0.33682(10) 0.25402(9)
S1 S 0.74102(10) 0.49102(9) 0.09216(9)
S2 S 0.67299(9) 0.63347(9) 0.31533(8)
C1 C 0.8019(3) 0.4373(3) 0.5308(3)
C2 C 0.8496(3) 0.4142(3) 0.4373(2)
C3 C 0.7755(3) 0.3756(3) 0.3594(3)
C4 C 0.6251(4) 0.5549(3) 0.1095(3)
C5 C 0.6433(4) 0.6610(3) 0.1224(3)
C6 C 0.7145(4) 0.6879(3) 0.2073(3)
C7 C 0.7607(2) 0.6764(2) 0.4055(2)
C8 C 0.7675(2) 0.6309(2) 0.4938(2)
C9 C 0.8334(2) 0.6642(2) 0.5673(2)
C10 C 0.8924(2) 0.7428(2) 0.5525(2)
C11 C 0.8856(2) 0.7883(2) 0.4642(2)
C12 C 0.8198(2) 0.7551(2) 0.3907(2)
C13 C 0.7256(2) 0.3127(2) 0.1685(2)
C14 C 0.6944(2) 0.3747(2) 0.0955(2)
C15 C 0.6151(2) 0.3506(2) 0.0308(2)
C16 C 0.5669(2) 0.2643(2) 0.0392(2)
C17 C 0.5981(2) 0.2022(2) 0.1122(2)
C18 C 0.6774(2) 0.2264(2) 0.1769(2)
C19 C 0.6598(2) 0.5412(2) 0.63656(11)
C20 C 0.7195(2) 0.5185(2) 0.71856(11)
C21 C 0.6865(2) 0.5382(2) 0.80857(11)
C22 C 0.5938(2) 0.5806(2) 0.81659(11)
C23 C 0.5341(2) 0.6033(2) 0.73459(11)
C24 C 0.5671(2) 0.5836(2) 0.64458(11)
C25 C 0.8880(2) 0.2179(2) 0.2912(2)
C26 C 0.9543(2) 0.1783(2) 0.2303(2)
C27 C 0.9993(2) 0.0920(2) 0.2530(2)
C28 C 0.9779(2) 0.0453(2) 0.3366(2)
C29 C 0.9116(2) 0.0849(2) 0.3976(2)
C30 C 0.8667(2) 0.1712(2) 0.3749(2)
H1 H 0.7771(3) 0.3773(3) 0.5578(3)
H2 H 0.8530(3) 0.4660(3) 0.5770(3)
H3 H 0.9031(3) 0.3662(3) 0.4506(2)
H4 H 0.8796(3) 0.4731(3) 0.4131(2)
H5 H 0.7387(3) 0.3214(3) 0.3858(3)
H6 H 0.7270(3) 0.4262(3) 0.3387(3)
H7 H 0.5967(4) 0.5306(3) 0.1688(3)
H8 H 0.5767(4) 0.5436(3) 0.0534(3)
H9 H 0.5781(4) 0.6928(3) 0.1304(3)
H10 H 0.6717(4) 0.6841(3) 0.0626(3)
H11 H 0.7831(4) 0.6654(3) 0.1958(3)
H12 H 0.7153(4) 0.7579(3) 0.2153(3)
H13 H 0.8383(2) 0.6316(2) 0.6306(2)
H14 H 0.9396(2) 0.7667(2) 0.6052(2)
H15 H 0.9280(2) 0.8447(2) 0.4536(2)
H16 H 0.8149(2) 0.7876(2) 0.3273(2)
H17 H 0.5928(2) 0.3951(2) -0.0216(2)
H18 H 0.5101(2) 0.2470(2) -0.0072(2)
H19 H 0.5635(2) 0.1404(2) 0.1182(2)
H20 H 0.6997(2) 0.1819(2) 0.2293(2)
H21 H 0.7860(2) 0.4881(2) 0.71281(11)
H22 H 0.7293(2) 0.5219(2) 0.86735(11)
H23 H 0.5702(2) 0.5947(2) 0.88111(11)
H24 H 0.4677(2) 0.6337(2) 0.74034(11)
H25 H 0.5243(2) 0.5999(2) 0.58580(11)
H26 H 0.9696(2) 0.2118(2) 0.1703(2)
H27 H 1.0468(2) 0.0636(2) 0.2093(2)
H28 H 1.0102(2) -0.0166(2) 0.3529(2)
H29 H 0.8963(2) 0.0514(2) 0.4575(2)
H30 H 0.8191(2) 0.1997(2) 0.4185(2)
loop_
_geom_bond_atom_site_label_1
_geom_bond_atom_site_label_2
_geom_bond_site_symmetry_1
_geom_bond_site_symmetry_2
P1 C1 1_555 1_555
P2 C3 1_555 1_555
S1 C4 1_555 1_555
S2 C6 1_555 1_555
C1 C2 1_555 1_555
C2 C3 1_555 1_555
C3 H5 1_555 1_555
C4 C5 1_555 1_555
C5 C6 1_555 1_555
C6 H11 1_555 1_555
C7 S2 1_555 1_555
C8 P1 1_555 1_555
C9 C8 1_555 1_555
C10 C9 1_555 1_555
C11 C10 1_555 1_555
C12 C7 1_555 1_555
C13 P2 1_555 1_555
C14 S1 1_555 1_555
C15 C14 1_555 1_555
C16 C15 1_555 1_555
C17 C16 1_555 1_555
C18 C13 1_555 1_555
C19 P1 1_555 1_555
C20 C19 1_555 1_555
C21 C20 1_555 1_555
C22 C21 1_555 1_555
C23 C22 1_555 1_555
C24 C19 1_555 1_555
C25 P2 1_555 1_555
C26 C25 1_555 1_555
C27 C26 1_555 1_555
C28 C27 1_555 1_555
C29 C28 1_555 1_555
C30 C25 1_555 1_555
H1 C1 1_555 1_555
H2 C1 1_555 1_555
H3 C2 1_555 1_555
H4 C2 1_555 1_555
H6 C3 1_555 1_555
H7 C4 1_555 1_555
H8 C4 1_555 1_555
H9 C5 1_555 1_555
H10 C5 1_555 1_555
H12 C6 1_555 1_555
H13 C9 1_555 1_555
H14 C10 1_555 1_555
H15 C11 1_555 1_555
H16 C12 1_555 1_555
H17 C15 1_555 1_555
H18 C16 1_555 1_555
H19 C17 1_555 1_555
H20 C18 1_555 1_555
H21 C20 1_555 1_555
H22 C21 1_555 1_555
H23 C22 1_555 1_555
H24 C23 1_555 1_555
H25 C24 1_555 1_555
H26 C26 1_555 1_555
H27 C27 1_555 1_555
H28 C28 1_555 1_555
H29 C29 1_555 1_555
H30 C30 1_555 1_555
C7 C8 1_555 1_555
C11 C12 1_555 1_555
C13 C14 1_555 1_555
C17 C18 1_555 1_555
C23 C24 1_555 1_555
C29 C30 1_555 1_555

#END
