
#######################################################################
#
#                 Cambridge Crystallographic Data Centre
#                                CCDC 
#
#######################################################################
#
# If this CIF has been generated from an entry in the Cambridge 
# Structural Database, then it will include bibliographic, chemical, 
# crystal, experimental, refinement or atomic coordinate data resulting 
# from the CCDC's data processing and validation procedures.
#
#######################################################################

data_CUZDIK
_chemical_formula_moiety         'C12 H9 N2 1+,Cl1 1-'
_chemical_name_systematic        '1,10-Phenanthrolin-1-ium chloride'
_symmetry_cell_setting           monoclinic
_symmetry_space_group_name_H-M   'P 21/c'
_symmetry_Int_Tables_number      14
_space_group_name_Hall           '-P 2ybc'
loop_
_symmetry_equiv_pos_site_id
_symmetry_equiv_pos_as_xyz
1 x,y,z
2 x,1/2-y,1/2+z
3 -x,-y,-z
4 -x,1/2+y,1/2-z
_cell_length_a                   6.8770(10)
_cell_length_b                   9.7870(10)
_cell_length_c                   15.547(2)
_cell_angle_alpha                90
_cell_angle_beta                 96.91(2)
_cell_angle_gamma                90
_cell_volume                     1038.79
_exptl_crystal_colour            colorless
_exptl_crystal_description       plate
_cell_formula_units_Z            4
_exptl_crystal_recrystallization_method 'by sublimation at (2-3mbar) and 315K'
loop_
_atom_site_label
_atom_site_type_symbol
_atom_site_fract_x
_atom_site_fract_y
_atom_site_fract_z
Cl1 Cl 0.31541(18) 0.05264(11) 0.37599(6)
N1 N 0.2924(4) 0.2822(3) 0.5009(2)
H1 H 0.275(6) 0.239(4) 0.446(3)
C1 C 0.3453(6) 0.2038(5) 0.5697(2)
H2 H 0.3623 0.1082 0.5630
C2 C 0.3757(6) 0.2635(5) 0.6517(3)
H3 H 0.4105 0.2082 0.7014
C3 C 0.3556(6) 0.4011(6) 0.6606(3)
H4 H 0.3772 0.4416 0.7164
C4 C 0.3034(5) 0.4829(5) 0.5880(3)
C5 C 0.2845(6) 0.6278(5) 0.5927(3)
H5 H 0.3078 0.6723 0.6473
C6 C 0.2336(6) 0.7028(5) 0.5202(3)
H6 H 0.2233 0.7992 0.5249
C7 C 0.1953(5) 0.6404(4) 0.4376(3)
C8 C 0.1382(6) 0.7142(4) 0.3612(3)
H7 H 0.1261 0.8108 0.3631
C9 C 0.1003(6) 0.6471(4) 0.2845(3)
H8 H 0.0577 0.6955 0.2328
C10 C 0.1253(5) 0.5058(4) 0.2833(3)
H9 H 0.1008 0.4606 0.2290
N2 N 0.1805(4) 0.4303(3) 0.35232(19)
C11 C 0.2125(5) 0.4983(4) 0.4292(2)
C12 C 0.2694(5) 0.4212(4) 0.5061(2)
loop_
_geom_bond_atom_site_label_1
_geom_bond_atom_site_label_2
_geom_bond_site_symmetry_1
_geom_bond_site_symmetry_2
N1 H1 1_555 1_555
C1 N1 1_555 1_555
H2 C1 1_555 1_555
C2 C1 1_555 1_555
H3 C2 1_555 1_555
C3 C2 1_555 1_555
H4 C3 1_555 1_555
C4 C3 1_555 1_555
C5 C4 1_555 1_555
H5 C5 1_555 1_555
C6 C5 1_555 1_555
H6 C6 1_555 1_555
C7 C6 1_555 1_555
C8 C7 1_555 1_555
H7 C8 1_555 1_555
C9 C8 1_555 1_555
H8 C9 1_555 1_555
C10 C9 1_555 1_555
H9 C10 1_555 1_555
N2 C10 1_555 1_555
C11 C7 1_555 1_555
C12 N1 1_555 1_555
C4 C12 1_555 1_555
N2 C11 1_555 1_555
C11 C12 1_555 1_555

#END
