
#######################################################################
#
#                 Cambridge Crystallographic Data Centre
#                                CCDC 
#
#######################################################################
#
# If this CIF has been generated from an entry in the Cambridge 
# Structural Database, then it will include bibliographic, chemical, 
# crystal, experimental, refinement or atomic coordinate data resulting 
# from the CCDC's data processing and validation procedures.
#
#######################################################################

data_CUZFIM
_chemical_formula_moiety         
'3(C12 H9 N2 1+),2(Cl1 1-),H1 Cl1,Cl1 1-,C1 H1 Cl3'
_chemical_name_systematic        
'1,10-Phenanthrolin-1-ium chloride dichloride (hydrogen chloride) chloride chloroform solvate'
_symmetry_cell_setting           monoclinic
_symmetry_space_group_name_H-M   'P 21/c'
_symmetry_Int_Tables_number      14
_space_group_name_Hall           '-P 2ybc'
loop_
_symmetry_equiv_pos_site_id
_symmetry_equiv_pos_as_xyz
1 x,y,z
2 x,1/2-y,1/2+z
3 -x,-y,-z
4 -x,1/2+y,1/2-z
_cell_length_a                   26.017(3)
_cell_length_b                   7.2220(10)
_cell_length_c                   19.461(2)
_cell_angle_alpha                90
_cell_angle_beta                 90.770(10)
_cell_angle_gamma                90
_cell_volume                     3656.29
_exptl_crystal_colour            colorless
_exptl_crystal_description       plate
_cell_formula_units_Z            4
loop_
_atom_site_label
_atom_site_type_symbol
_atom_site_fract_x
_atom_site_fract_y
_atom_site_fract_z
N1 N 0.67394(9) 0.3968(3) 0.75826(10)
H1 H 0.6423(10) 0.409(4) 0.7657(13)
C1 C 0.70605(10) 0.4347(4) 0.81055(12)
H2 H 0.6926 0.4714 0.8536
C2 C 0.75904(10) 0.4208(4) 0.80262(13)
H3 H 0.7818 0.4476 0.8398
C3 C 0.77771(10) 0.3675(4) 0.73978(13)
H4 H 0.8138 0.3586 0.7335
C4 C 0.74401(9) 0.3259(3) 0.68459(12)
C5 C 0.76184(10) 0.2664(4) 0.61825(13)
H5 H 0.7977 0.2528 0.6109
C6 C 0.72817(10) 0.2299(4) 0.56638(13)
H6 H 0.7408 0.1904 0.5232
C7 C 0.67352(10) 0.2496(3) 0.57518(12)
C8 C 0.63744(10) 0.2128(3) 0.52182(12)
H7 H 0.6487 0.1744 0.4778
C9 C 0.58573(10) 0.2333(4) 0.53437(12)
H8 H 0.5609 0.2090 0.4993
C10 C 0.57028(10) 0.2910(4) 0.60013(12)
H9 H 0.5345 0.3044 0.6079
N2 N 0.60266(7) 0.3282(3) 0.65236(10)
C11 C 0.65390(9) 0.3063(3) 0.63960(11)
C12 C 0.69029(9) 0.3426(3) 0.69481(12)
N3 N 0.47600(8) 0.4367(3) 0.78823(10)
H10 H 0.4991(10) 0.425(4) 0.8197(13)
C13 C 0.49118(9) 0.5005(3) 0.72722(12)
H11 H 0.5266 0.5243 0.7197
C14 C 0.45536(9) 0.5319(3) 0.67478(12)
H12 H 0.4660 0.5785 0.6316
C15 C 0.40413(9) 0.4945(3) 0.68635(12)
H13 H 0.3793 0.5168 0.6510
C16 C 0.38837(9) 0.4233(3) 0.75018(11)
C17 C 0.33535(9) 0.3823(3) 0.76522(12)
H14 H 0.3096 0.3989 0.7306
C18 C 0.32193(9) 0.3201(3) 0.82843(12)
H15 H 0.2868 0.2944 0.8373
C19 C 0.35977(8) 0.2921(3) 0.88227(11)
C20 C 0.34683(9) 0.2341(3) 0.94941(12)
H16 H 0.3121 0.2079 0.9605
C21 C 0.38523(10) 0.2162(4) 0.99822(13)
H17 H 0.3774 0.1794 1.0438
C22 C 0.43631(10) 0.2532(4) 0.97970(13)
H18 H 0.4623 0.2397 1.0142
N4 N 0.45087(7) 0.3059(3) 0.91730(10)
C23 C 0.41235(8) 0.3273(3) 0.86944(11)
C24 C 0.42588(8) 0.3945(3) 0.80225(12)
N5 N 0.98791(8) 0.3167(3) 0.60652(9)
H19 H 0.9611(9) 0.352(3) 0.6273(12)
C25 C 1.02952(9) 0.2931(3) 0.64643(12)
H20 H 1.0278 0.3165 0.6944
C26 C 1.07568(9) 0.2340(4) 0.61754(12)
H21 H 1.1054 0.2164 0.6458
C27 C 1.07775(9) 0.2014(3) 0.54782(12)
H22 H 1.1092 0.1645 0.5278
C28 C 1.03312(8) 0.2226(3) 0.50592(11)
C29 C 1.03239(9) 0.1868(3) 0.43322(12)
H23 H 1.0631 0.1492 0.4114
C30 C 0.98869(9) 0.2056(3) 0.39518(12)
H24 H 0.9892 0.1795 0.3474
C31 C 0.94148(9) 0.2646(3) 0.42619(11)
C32 C 0.89476(9) 0.2859(4) 0.38838(12)
H25 H 0.8931 0.2562 0.3409
C33 C 0.85202(9) 0.3501(4) 0.42166(12)
H26 H 0.8205 0.3661 0.3973
C34 C 0.85548(9) 0.3920(4) 0.49235(12)
H27 H 0.8257 0.4389 0.5140
N6 N 0.89790(7) 0.3699(3) 0.53073(9)
C35 C 0.94038(8) 0.3068(3) 0.49759(11)
C36 C 0.98720(8) 0.2823(3) 0.53726(11)
Cl1 Cl 0.58166(2) 0.49634(9) 0.85282(3)
Cl2 Cl 0.92728(2) 0.47185(9) 0.72848(3)
Cl3 Cl 1.28210(2) 0.51611(10) 0.59651(3)
Cl4 Cl 1.22226(3) 0.16575(10) 0.54186(3)
H28 H 1.2497(12) 0.330(5) 0.5704(16)
C37 C 0.85087(9) 0.8395(4) 0.70304(12)
H29 H 0.8725 0.7292 0.7147
Cl5 Cl 0.82194(2) 0.80530(10) 0.62080(3)
Cl6 Cl 0.80329(2) 0.86691(10) 0.76726(3)
Cl7 Cl 0.89046(2) 1.03978(10) 0.70288(3)
loop_
_geom_bond_atom_site_label_1
_geom_bond_atom_site_label_2
_geom_bond_site_symmetry_1
_geom_bond_site_symmetry_2
N1 H1 1_555 1_555
C1 N1 1_555 1_555
H2 C1 1_555 1_555
C2 C1 1_555 1_555
H3 C2 1_555 1_555
C3 C2 1_555 1_555
H4 C3 1_555 1_555
C4 C3 1_555 1_555
C5 C4 1_555 1_555
H5 C5 1_555 1_555
C6 C5 1_555 1_555
H6 C6 1_555 1_555
C7 C6 1_555 1_555
C8 C7 1_555 1_555
H7 C8 1_555 1_555
C9 C8 1_555 1_555
H8 C9 1_555 1_555
C10 C9 1_555 1_555
H9 C10 1_555 1_555
N2 C10 1_555 1_555
C11 C7 1_555 1_555
C12 N1 1_555 1_555
N3 H10 1_555 1_555
C13 N3 1_555 1_555
H11 C13 1_555 1_555
C14 C13 1_555 1_555
H12 C14 1_555 1_555
C15 C14 1_555 1_555
H13 C15 1_555 1_555
C16 C15 1_555 1_555
C17 C16 1_555 1_555
H14 C17 1_555 1_555
C18 C17 1_555 1_555
H15 C18 1_555 1_555
C19 C18 1_555 1_555
C20 C19 1_555 1_555
H16 C20 1_555 1_555
C21 C20 1_555 1_555
H17 C21 1_555 1_555
C22 C21 1_555 1_555
H18 C22 1_555 1_555
N4 C22 1_555 1_555
C23 C19 1_555 1_555
C24 N3 1_555 1_555
N5 H19 1_555 1_555
C25 N5 1_555 1_555
H20 C25 1_555 1_555
C26 C25 1_555 1_555
H21 C26 1_555 1_555
C27 C26 1_555 1_555
H22 C27 1_555 1_555
C28 C27 1_555 1_555
C29 C28 1_555 1_555
H23 C29 1_555 1_555
C30 C29 1_555 1_555
H24 C30 1_555 1_555
C31 C30 1_555 1_555
C32 C31 1_555 1_555
H25 C32 1_555 1_555
C33 C32 1_555 1_555
H26 C33 1_555 1_555
C34 C33 1_555 1_555
H27 C34 1_555 1_555
N6 C34 1_555 1_555
C35 C31 1_555 1_555
C36 N5 1_555 1_555
Cl4 H28 1_555 1_555
C37 H29 1_555 1_555
Cl5 C37 1_555 1_555
Cl6 C37 1_555 1_555
Cl7 C37 1_555 1_555
C4 C12 1_555 1_555
N2 C11 1_555 1_555
C11 C12 1_555 1_555
C16 C24 1_555 1_555
N4 C23 1_555 1_555
C23 C24 1_555 1_555
C28 C36 1_555 1_555
N6 C35 1_555 1_555
C35 C36 1_555 1_555

#END
