
#######################################################################
#
#                 Cambridge Crystallographic Data Centre
#                                CCDC 
#
#######################################################################
#
# If this CIF has been generated from an entry in the Cambridge 
# Structural Database, then it will include bibliographic, chemical, 
# crystal, experimental, refinement or atomic coordinate data resulting 
# from the CCDC's data processing and validation procedures.
#
#######################################################################

data_CUZQUJ
_chemical_formula_moiety         'C14 H16 N4 O8 S4'
_chemical_name_systematic        
4,17,25,26-Tetra-aza-6,9,12,15-tetraoxa-2,19,21,24-tetrathiatricyclo[18.4.1^1,4^.1^17,20^]hexacosa-1(25),20(26)-diene-3,5,16,18-tetraone
_symmetry_cell_setting           monoclinic
_symmetry_space_group_name_H-M   'C 2/c'
_symmetry_Int_Tables_number      15
_space_group_name_Hall           '-C 2yn'
loop_
_symmetry_equiv_pos_site_id
_symmetry_equiv_pos_as_xyz
1 x,y,z
2 1/2+x,1/2+y,z
3 x,-y,1/2+z
4 1/2+x,1/2-y,1/2+z
5 -x,-y,-z
6 1/2-x,1/2-y,-z
7 -x,y,1/2-z
8 1/2-x,1/2+y,1/2-z
_cell_length_a                   15.151(3)
_cell_length_b                   12.739(3)
_cell_length_c                   10.5509(13)
_cell_angle_alpha                90
_cell_angle_beta                 97.888(13)
_cell_angle_gamma                90
_cell_volume                     2017.15
_exptl_crystal_colour            colorless
_exptl_crystal_description       block
_cell_formula_units_Z            4
loop_
_atom_site_label
_atom_site_type_symbol
_atom_site_fract_x
_atom_site_fract_y
_atom_site_fract_z
S1 S 0.51955(6) 0.12805(8) 0.57815(9)
S2 S 0.38530(6) 0.12037(8) 0.34000(10)
O1 O 0.40995(16) 0.6166(2) 0.6754(2)
O2 O 0.21839(16) 0.4178(2) 0.3351(3)
O3 O 0.31823(17) 0.4490(2) 0.5076(2)
O4 O 0.24763(17) 0.2271(2) 0.2195(2)
N1 N 0.39481(18) 0.2723(2) 0.5040(3)
N2 N 0.32378(17) 0.2952(2) 0.4087(3)
C1 C 0.5349(2) 0.2234(3) 0.7051(3)
H1 H 0.5927 0.2115 0.7553
H2 H 0.5363 0.2927 0.6672
C2 C 0.4306(2) 0.1844(3) 0.4797(3)
C3 C 0.3050(2) 0.2230(3) 0.3089(3)
C4 C 0.2802(2) 0.3933(3) 0.4111(3)
C5 C 0.2846(3) 0.5552(3) 0.5240(4)
H3 H 0.2494 0.5565 0.5942
H4 H 0.2469 0.5773 0.4468
C6 C 0.3618(3) 0.6269(3) 0.5513(4)
H5 H 0.4021 0.6142 0.4891
H6 H 0.3408 0.6986 0.5401
C7 C 0.4731(2) 0.5348(3) 0.6846(4)
H7 H 0.5123 0.5441 0.6201
H8 H 0.4428 0.4680 0.6693
C1F C 0.4651(2) 0.2234(3) 0.7949(3)
S1F S 0.48045(6) 0.12805(8) 0.92185(9)
C2F C 0.5694(2) 0.1844(3) 1.0203(3)
S2F S 0.61470(6) 0.12037(8) 1.16000(10)
C3F C 0.6950(2) 0.2230(3) 1.1911(3)
O4F O 0.75237(17) 0.2271(2) 1.2805(2)
N2F N 0.67622(17) 0.2952(2) 1.0913(3)
N1F N 0.60519(18) 0.2723(2) 0.9960(3)
C4F C 0.7198(2) 0.3933(3) 1.0889(3)
O2F O 0.78161(16) 0.4178(2) 1.1649(3)
O3F O 0.68177(17) 0.4490(2) 0.9924(2)
C5F C 0.7154(3) 0.5552(3) 0.9760(4)
H3F H 0.7506 0.5565 0.9058
H4F H 0.7531 0.5773 1.0532
C6F C 0.6382(3) 0.6269(3) 0.9487(4)
O1F O 0.59005(16) 0.6166(2) 0.8246(2)
C7F C 0.5269(2) 0.5348(3) 0.8154(4)
H7F H 0.4877 0.5441 0.8799
H8F H 0.5572 0.4680 0.8307
H5F H 0.5979 0.6142 1.0109
H6F H 0.6592 0.6986 0.9599
H1F H 0.4073 0.2115 0.7447
H2F H 0.4637 0.2927 0.8328
loop_
_geom_bond_atom_site_label_1
_geom_bond_atom_site_label_2
_geom_bond_site_symmetry_1
_geom_bond_site_symmetry_2
S1 C1 1_555 1_555
S2 C2 1_555 1_555
O1 C6 1_555 1_555
O2 C4 1_555 1_555
O3 C4 1_555 1_555
O4 C3 1_555 1_555
N1 N2 1_555 1_555
N2 C3 1_555 1_555
C1 H1 1_555 1_555
H2 C1 1_555 1_555
C2 S1 1_555 1_555
C3 S2 1_555 1_555
C4 N2 1_555 1_555
C5 O3 1_555 1_555
H3 C5 1_555 1_555
H4 C5 1_555 1_555
C6 C5 1_555 1_555
H5 C6 1_555 1_555
H6 C6 1_555 1_555
C7 O1 1_555 1_555
H7 C7 1_555 1_555
H8 C7 1_555 1_555
C1F C1 1_555 1_555
S1F C1F 1_555 1_555
C2F S1F 1_555 1_555
S2F C2F 1_555 1_555
C3F S2F 1_555 1_555
O4F C3F 1_555 1_555
N2F C3F 1_555 1_555
N1F C2F 1_555 1_555
C4F N2F 1_555 1_555
O2F C4F 1_555 1_555
O3F C4F 1_555 1_555
C5F O3F 1_555 1_555
H3F C5F 1_555 1_555
H4F C5F 1_555 1_555
C6F C5F 1_555 1_555
O1F C6F 1_555 1_555
C7F C7 1_555 1_555
H7F C7F 1_555 1_555
H8F C7F 1_555 1_555
H5F C6F 1_555 1_555
H6F C6F 1_555 1_555
H1F C1F 1_555 1_555
H2F C1F 1_555 1_555
N1 C2 1_555 1_555
N2F N1F 1_555 1_555
O1F C7F 1_555 1_555

#END
