
#######################################################################
#
#                 Cambridge Crystallographic Data Centre
#                                CCDC 
#
#######################################################################
#
# If this CIF has been generated from an entry in the Cambridge 
# Structural Database, then it will include bibliographic, chemical, 
# crystal, experimental, refinement or atomic coordinate data resulting 
# from the CCDC's data processing and validation procedures.
#
#######################################################################

data_CUZVEZ
_chemical_formula_moiety         'C14 H18 N2 O3'
_chemical_name_systematic        'Benzyl (2-oxoazepan-3-yl)carbamate'
_symmetry_cell_setting           orthorhombic
_symmetry_space_group_name_H-M   'P 21 21 21'
_symmetry_Int_Tables_number      19
_space_group_name_Hall           'P 2ac 2ab'
loop_
_symmetry_equiv_pos_site_id
_symmetry_equiv_pos_as_xyz
1 x,y,z
2 1/2-x,-y,1/2+z
3 1/2+x,1/2-y,-z
4 -x,1/2+y,1/2-z
_cell_length_a                   7.3960(14)
_cell_length_b                   11.492(2)
_cell_length_c                   16.030(3)
_cell_angle_alpha                90
_cell_angle_beta                 90
_cell_angle_gamma                90
_cell_volume                     1362.47
_exptl_crystal_colour            colorless
_exptl_crystal_description       prism
_cell_formula_units_Z            4
loop_
_atom_site_label
_atom_site_type_symbol
_atom_site_fract_x
_atom_site_fract_y
_atom_site_fract_z
N1 N 0.0650(2) 0.67687(14) 0.61843(11)
O1 O 0.33557(17) 0.70895(11) 0.50892(9)
O2 O -0.07947(19) 0.53254(11) 0.55607(9)
C1 C 0.2288(2) 0.72971(16) 0.64985(12)
H1 H 0.2738 0.6820 0.6961
N2 N 0.5404(2) 0.76105(18) 0.60434(13)
O3 O 0.1570(2) 0.49080(13) 0.63980(10)
C2 C -0.2657(3) 0.39801(16) 0.48474(13)
C3 C 0.1898(3) 0.85191(17) 0.68318(13)
H2 H 0.1856 0.9054 0.6364
H3 H 0.0711 0.8518 0.7089
C4 C 0.3733(2) 0.73233(16) 0.58189(13)
C5 C 0.0580(3) 0.56069(17) 0.60770(13)
C6 C -0.5756(3) 0.43743(19) 0.45414(16)
H4 H -0.6856 0.4701 0.4698
C7 C 0.6007(3) 0.7991(3) 0.68565(15)
H5 H 0.7309 0.8088 0.6842
H6 H 0.5736 0.7387 0.7260
C8 C -0.1052(3) 0.41034(17) 0.54055(14)
H7 H -0.1257 0.3694 0.5926
H8 H 0.0012 0.3777 0.5140
C9 C -0.4296(3) 0.44549(18) 0.50628(15)
H9 H -0.4416 0.4837 0.5571
C10 C -0.5604(4) 0.3815(2) 0.37922(17)
H10 H -0.6590 0.3774 0.3433
C11 C 0.3258(3) 0.8973(2) 0.74610(14)
H11 H 0.2840 0.9722 0.7661
H12 H 0.3275 0.8446 0.7934
C12 C -0.2542(3) 0.3401(2) 0.40964(15)
H13 H -0.1454 0.3059 0.3940
C13 C 0.5165(3) 0.9112(3) 0.71490(17)
H14 H 0.5901 0.9435 0.7593
H15 H 0.5168 0.9664 0.6691
C14 C -0.4011(4) 0.3322(2) 0.35765(17)
H16 H -0.3910 0.2927 0.3072
H17 H 0.010(3) 0.7141(18) 0.5854(12)
H18 H 0.618(4) 0.7636(19) 0.5627(15)
loop_
_geom_bond_atom_site_label_1
_geom_bond_atom_site_label_2
_geom_bond_site_symmetry_1
_geom_bond_site_symmetry_2
N1 C1 1_555 1_555
O1 C4 1_555 1_555
O2 C5 1_555 1_555
C1 H1 1_555 1_555
N2 C4 1_555 1_555
O3 C5 1_555 1_555
C2 C8 1_555 1_555
C3 C1 1_555 1_555
H2 C3 1_555 1_555
H3 C3 1_555 1_555
C4 C1 1_555 1_555
C5 N1 1_555 1_555
C6 H4 1_555 1_555
C7 N2 1_555 1_555
H5 C7 1_555 1_555
H6 C7 1_555 1_555
C8 O2 1_555 1_555
H7 C8 1_555 1_555
H8 C8 1_555 1_555
C9 C2 1_555 1_555
H9 C9 1_555 1_555
C10 C6 1_555 1_555
H10 C10 1_555 1_555
C11 C3 1_555 1_555
H11 C11 1_555 1_555
H12 C11 1_555 1_555
C12 C2 1_555 1_555
H13 C12 1_555 1_555
C13 C7 1_555 1_555
H14 C13 1_555 1_555
H15 C13 1_555 1_555
C14 C10 1_555 1_555
H16 C14 1_555 1_555
H17 N1 1_555 1_555
H18 N2 1_555 1_555
C6 C9 1_555 1_555
C11 C13 1_555 1_555
C12 C14 1_555 1_555

#END
