
#######################################################################
#
#                 Cambridge Crystallographic Data Centre
#                                CCDC 
#
#######################################################################
#
# If this CIF has been generated from an entry in the Cambridge 
# Structural Database, then it will include bibliographic, chemical, 
# crystal, experimental, refinement or atomic coordinate data resulting 
# from the CCDC's data processing and validation procedures.
#
#######################################################################

data_CUZYAZ
_chemical_formula_moiety         'C29 H30 Br1 N4 O1 1+,Br1 1-'
_chemical_name_systematic        
'1-(2-bromobenzyl)-3-(2-(3a,8-dimethyl-3,3a,8,8a-tetrahydropyrrolo[2,3-b]indol-1(2H)-yl)-2-oxoethyl)-2-methyl-1H-3,1-benzimidazol-3-ium bromide'
_chemical_properties_biological  'cytotoxic activity'
_symmetry_cell_setting           triclinic
_symmetry_space_group_name_H-M   'P -1'
_symmetry_Int_Tables_number      2
_space_group_name_Hall           '-P 1'
loop_
_symmetry_equiv_pos_site_id
_symmetry_equiv_pos_as_xyz
1 x,y,z
2 -x,-y,-z
_cell_length_a                   8.922(3)
_cell_length_b                   10.852(3)
_cell_length_c                   15.966(5)
_cell_angle_alpha                100.567(4)
_cell_angle_beta                 104.149(4)
_cell_angle_gamma                106.371(4)
_cell_volume                     1384.3
_exptl_crystal_colour            colorless
_exptl_crystal_description       block
_cell_formula_units_Z            2
loop_
_atom_site_label
_atom_site_type_symbol
_atom_site_fract_x
_atom_site_fract_y
_atom_site_fract_z
Br1 Br 0.2834(2) 0.74824(16) 0.71216(11)
N1 N 0.4063(15) 0.4009(11) 0.5680(7)
N2 N 0.4157(14) 0.2254(11) 0.4827(7)
N3 N 0.2506(15) -0.0068(12) 0.2586(8)
N4 N 0.023(2) -0.0429(17) 0.1292(9)
O1 O 0.3247(13) 0.2183(10) 0.3086(6)
C1 C 0.2915(15) 0.5917(14) 0.7486(10)
C2 C 0.2748(18) 0.5868(18) 0.8349(11)
H1 H 0.2657 0.6595 0.8718
C3 C 0.272(2) 0.4759(18) 0.8624(11)
H2 H 0.2521 0.4689 0.9161
C4 C 0.299(2) 0.3738(18) 0.8110(12)
H3 H 0.3048 0.3005 0.8323
C5 C 0.3181(15) 0.3773(14) 0.7292(9)
H4 H 0.3292 0.3048 0.6932
C6 C 0.3204(15) 0.4899(14) 0.7007(8)
C7 C 0.3421(17) 0.5014(14) 0.6124(8)
H5 H 0.4172 0.5902 0.6207
H6 H 0.2367 0.4926 0.5718
C8 C 0.5665(17) 0.4074(14) 0.5914(10)
C9 C 0.7065(17) 0.5026(14) 0.6607(10)
H7 H 0.7005 0.5749 0.6996
C10 C 0.8481(19) 0.4793(18) 0.6653(12)
H8 H 0.9431 0.5387 0.7096
C11 C 0.863(2) 0.3683(18) 0.6064(12)
H9 H 0.9651 0.3584 0.6116
C12 C 0.7214(19) 0.2771(15) 0.5419(10)
H10 H 0.7262 0.2050 0.5022
C13 C 0.5750(16) 0.2952(13) 0.5376(9)
C14 C 0.3122(17) 0.2858(15) 0.5025(9)
C15 C 0.1363(18) 0.2377(17) 0.4619(11)
H11 H 0.0987 0.1437 0.4336
H12 H 0.1077 0.2837 0.4179
H13 H 0.0852 0.2537 0.5073
C16 C 0.3668(19) 0.0948(14) 0.4189(9)
H14 H 0.2779 0.0308 0.4297
H15 H 0.4591 0.0628 0.4259
C17 C 0.3079(16) 0.1111(17) 0.3198(9)
C18 C 0.240(2) -0.1394(17) 0.2680(12)
H16 H 0.1331 -0.1850 0.2728
H17 H 0.3241 -0.1335 0.3216
C19 C 0.263(4) -0.213(2) 0.1879(12)
H18 H 0.1893 -0.3047 0.1683
H19 H 0.3753 -0.2118 0.2007
C20 C 0.225(2) -0.1416(16) 0.1158(9)
C21 C 0.200(2) -0.0127(16) 0.1620(9)
H20 H 0.2630 0.0673 0.1488
C22 C -0.050(2) -0.1531(16) 0.0588(11)
C23 C -0.212(2) -0.2072(19) -0.0014(12)
H21 H -0.2894 -0.1666 0.0049
C24 C -0.254(3) -0.320(2) -0.0690(12)
H22 H -0.3596 -0.3519 -0.1098
C25 C -0.157(3) -0.3848(19) -0.0798(13)
H23 H -0.1940 -0.4630 -0.1259
C26 C 0.006(3) -0.3368(17) -0.0213(12)
H24 H 0.0765 -0.3846 -0.0279
C27 C 0.0628(19) -0.2172(15) 0.0468(9)
C28 C -0.044(2) 0.0562(17) 0.1538(11)
H25 H -0.1118 0.0670 0.1008
H26 H 0.0437 0.1391 0.1858
H27 H -0.1092 0.0301 0.1915
C29 C 0.368(2) -0.105(2) 0.0799(15)
H28 H 0.3926 -0.1829 0.0589
H29 H 0.4624 -0.0408 0.1268
H30 H 0.3402 -0.0662 0.0312
Br2 Br 0.2901(2) 0.02773(17) 0.62349(12)
loop_
_geom_bond_atom_site_label_1
_geom_bond_atom_site_label_2
_geom_bond_site_symmetry_1
_geom_bond_site_symmetry_2
Br1 C1 1_555 1_555
N1 C7 1_555 1_555
N2 C13 1_555 1_555
N3 C17 1_555 1_555
N4 C21 1_555 1_555
O1 C17 1_555 1_555
C1 C2 1_555 1_555
C2 H1 1_555 1_555
C3 C2 1_555 1_555
H2 C3 1_555 1_555
C4 C3 1_555 1_555
H3 C4 1_555 1_555
C5 C4 1_555 1_555
H4 C5 1_555 1_555
C6 C1 1_555 1_555
C7 C6 1_555 1_555
H5 C7 1_555 1_555
H6 C7 1_555 1_555
C8 N1 1_555 1_555
C9 C8 1_555 1_555
H7 C9 1_555 1_555
C10 C9 1_555 1_555
H8 C10 1_555 1_555
C11 C10 1_555 1_555
H9 C11 1_555 1_555
C12 C11 1_555 1_555
H10 C12 1_555 1_555
C13 C8 1_555 1_555
C14 N1 1_555 1_555
C15 C14 1_555 1_555
H11 C15 1_555 1_555
H12 C15 1_555 1_555
H13 C15 1_555 1_555
C16 N2 1_555 1_555
H14 C16 1_555 1_555
H15 C16 1_555 1_555
C17 C16 1_555 1_555
C18 N3 1_555 1_555
H16 C18 1_555 1_555
H17 C18 1_555 1_555
C19 C18 1_555 1_555
H18 C19 1_555 1_555
H19 C19 1_555 1_555
C20 C19 1_555 1_555
C21 N3 1_555 1_555
H20 C21 1_555 1_555
C22 N4 1_555 1_555
C23 C22 1_555 1_555
H21 C23 1_555 1_555
C24 C23 1_555 1_555
H22 C24 1_555 1_555
C25 C24 1_555 1_555
H23 C25 1_555 1_555
C26 C25 1_555 1_555
H24 C26 1_555 1_555
C27 C20 1_555 1_555
C28 N4 1_555 1_555
H25 C28 1_555 1_555
H26 C28 1_555 1_555
H27 C28 1_555 1_555
C29 C20 1_555 1_555
H28 C29 1_555 1_555
H29 C29 1_555 1_555
H30 C29 1_555 1_555
N2 C14 1_555 1_555
C5 C6 1_555 1_555
C12 C13 1_555 1_555
C20 C21 1_555 1_555
C22 C27 1_555 1_555
C26 C27 1_555 1_555

#END
