
#######################################################################
#
#                 Cambridge Crystallographic Data Centre
#                                CCDC 
#
#######################################################################
#
# If this CIF has been generated from an entry in the Cambridge 
# Structural Database, then it will include bibliographic, chemical, 
# crystal, experimental, refinement or atomic coordinate data resulting 
# from the CCDC's data processing and validation procedures.
#
#######################################################################

data_CYHXUR08
_chemical_formula_moiety         'C13 H24 N2 O1'
_chemical_name_systematic        1,3-dicyclohexylurea
_symmetry_cell_setting           monoclinic
_symmetry_space_group_name_H-M   'P 2/c'
_symmetry_Int_Tables_number      13
_space_group_name_Hall           '-P 2yc'
loop_
_symmetry_equiv_pos_site_id
_symmetry_equiv_pos_as_xyz
1 x,y,z
2 -x,y,1/2-z
3 -x,-y,-z
4 x,-y,1/2+z
_cell_length_a                   11.4740(14)
_cell_length_b                   4.6583(2)
_cell_length_c                   11.8256(8)
_cell_angle_alpha                90
_cell_angle_beta                 96.177(7)
_cell_angle_gamma                90
_cell_volume                     628.401
_exptl_crystal_description       block
_cell_formula_units_Z            2
loop_
_atom_site_label
_atom_site_type_symbol
_atom_site_fract_x
_atom_site_fract_y
_atom_site_fract_z
O1 O 0.5000 0.4177(3) 0.7500
N1 N 0.58293(10) 0.8419(2) 0.70496(9)
H1 H 0.5831 1.0246 0.7154
C1 C 0.79326(12) 0.8294(3) 0.68499(11)
H2 H 0.8106 0.7718 0.7638
H3 H 0.7938 1.0375 0.6822
C2 C 0.67161(11) 0.7208(3) 0.64002(11)
H4 H 0.6709 0.5119 0.6498
C3 C 0.5000 0.6844(4) 0.7500
C4 C 0.64493(12) 0.7852(3) 0.51331(11)
H5 H 0.5701 0.7004 0.4855
H6 H 0.6387 0.9912 0.5023
C5 C 0.88835(12) 0.7130(3) 0.61616(11)
H7 H 0.9631 0.7986 0.6437
H8 H 0.8950 0.5070 0.6270
C6 C 0.73971(12) 0.6679(3) 0.44497(11)
H9 H 0.7394 0.4598 0.4484
H10 H 0.7224 0.7239 0.3660
C7 C 0.86066(12) 0.7782(3) 0.48984(11)
H11 H 0.8640 0.9839 0.4779
H12 H 0.9192 0.6888 0.4480
N1A N 0.41707(10) 0.8419(2) 0.79504(9)
H1A H 0.4169 1.0246 0.7846
C1A C 0.20674(12) 0.8294(3) 0.81501(11)
H2A H 0.1894 0.7718 0.7362
H3A H 0.2062 1.0375 0.8178
C2A C 0.32839(11) 0.7208(3) 0.85998(11)
H4A H 0.3291 0.5119 0.8502
C4A C 0.35507(12) 0.7852(3) 0.98669(11)
H5A H 0.4299 0.7004 1.0145
H6A H 0.3613 0.9912 0.9977
C5A C 0.11165(12) 0.7130(3) 0.88384(11)
H7A H 0.0369 0.7986 0.8563
H8A H 0.1050 0.5070 0.8730
C6A C 0.26029(12) 0.6679(3) 1.05503(11)
H9A H 0.2606 0.4598 1.0516
H10A H 0.2776 0.7239 1.1340
C7A C 0.13934(12) 0.7782(3) 1.01016(11)
H11A H 0.1360 0.9839 1.0221
H12A H 0.0808 0.6888 1.0520
loop_
_geom_bond_atom_site_label_1
_geom_bond_atom_site_label_2
_geom_bond_site_symmetry_1
_geom_bond_site_symmetry_2
O1 C3 1_555 1_555
N1 H1 1_555 1_555
C1 H2 1_555 1_555
H3 C1 1_555 1_555
C2 N1 1_555 1_555
H4 C2 1_555 1_555
C3 N1 1_555 1_555
C4 C2 1_555 1_555
H5 C4 1_555 1_555
H6 C4 1_555 1_555
C5 C1 1_555 1_555
H7 C5 1_555 1_555
H8 C5 1_555 1_555
C6 C4 1_555 1_555
H9 C6 1_555 1_555
H10 C6 1_555 1_555
C7 C5 1_555 1_555
H11 C7 1_555 1_555
H12 C7 1_555 1_555
N1A C3 1_555 1_555
H1A N1A 1_555 1_555
C1A H2A 1_555 1_555
H3A C1A 1_555 1_555
C2A N1A 1_555 1_555
H4A C2A 1_555 1_555
C4A C2A 1_555 1_555
H5A C4A 1_555 1_555
H6A C4A 1_555 1_555
C5A C1A 1_555 1_555
H7A C5A 1_555 1_555
H8A C5A 1_555 1_555
C6A C4A 1_555 1_555
H9A C6A 1_555 1_555
H10A C6A 1_555 1_555
C7A C5A 1_555 1_555
H11A C7A 1_555 1_555
H12A C7A 1_555 1_555
C1 C2 1_555 1_555
C6 C7 1_555 1_555
C1A C2A 1_555 1_555
C6A C7A 1_555 1_555

#END
