
#######################################################################
#
#                 Cambridge Crystallographic Data Centre
#                                CCDC 
#
#######################################################################
#
# If this CIF has been generated from an entry in the Cambridge 
# Structural Database, then it will include bibliographic, chemical, 
# crystal, experimental, refinement or atomic coordinate data resulting 
# from the CCDC's data processing and validation procedures.
#
#######################################################################

data_CYTIDI12
_chemical_name_common            Cytidine
_chemical_formula_moiety         'C9 H13 N3 O5'
_chemical_name_systematic        
4-Amino-1-(3,4-dihydroxy-5-(hydroxymethyl)tetrahydrofuran-2-yl)pyrimidin-2(1H)-one
_symmetry_cell_setting           orthorhombic
_symmetry_space_group_name_H-M   'P 21 21 21'
_symmetry_Int_Tables_number      19
_space_group_name_Hall           'P 2ac 2ab'
loop_
_symmetry_equiv_pos_site_id
_symmetry_equiv_pos_as_xyz
1 x,y,z
2 1/2-x,-y,1/2+z
3 1/2+x,1/2-y,-z
4 -x,1/2+y,1/2-z
_cell_length_a                   5.0784(3)
_cell_length_b                   13.9046(10)
_cell_length_c                   14.6992(10)
_cell_angle_alpha                90
_cell_angle_beta                 90
_cell_angle_gamma                90
_cell_volume                     1037.96
_exptl_crystal_colour            colorless
_exptl_crystal_description       needle
_cell_formula_units_Z            4
loop_
_atom_site_label
_atom_site_type_symbol
_atom_site_fract_x
_atom_site_fract_y
_atom_site_fract_z
O1 O 0.0496(4) 0.67555(11) 0.44839(8)
H1 H 0.0239 0.6560 0.3950
N1 N 0.1182(4) 0.46426(12) 0.67742(10)
O2 O -0.1453(3) 0.41486(10) 0.42909(9)
H2 H -0.0444 0.4305 0.3863
N2 N 0.4615(4) 0.40068(13) 0.76938(10)
O3 O -0.0475(3) 0.71677(10) 0.63188(8)
H3 H -0.1203 0.7403 0.5857
C1 C -0.0654(5) 0.54615(15) 0.66010(12)
H4 H -0.1363 0.5708 0.7191
O4 O -0.2749(3) 0.51363(10) 0.60459(8)
N3 N 0.6470(4) 0.25597(13) 0.73486(10)
H5 H 0.7533 0.2638 0.7816
H6 H 0.6586 0.2038 0.7012
O5 O 0.2930(3) 0.54968(10) 0.79465(8)
C2 C 0.2956(5) 0.47393(15) 0.74938(12)
C3 C 0.4694(5) 0.32267(15) 0.71530(12)
C4 C -0.2618(5) 0.55944(14) 0.51559(12)
H7 H -0.3876 0.6147 0.5141
C5 C -0.3374(5) 0.48805(15) 0.44212(12)
H8 H -0.5072 0.4577 0.4586
H9 H -0.3630 0.5230 0.3841
C6 C 0.0187(5) 0.59789(15) 0.51006(12)
H10 H 0.1406 0.5445 0.4926
C7 C 0.1191(5) 0.38328(15) 0.62465(12)
H11 H -0.0035 0.3775 0.5761
C8 C 0.2917(5) 0.31144(15) 0.64051(12)
H12 H 0.2950 0.2555 0.6034
C9 C 0.0735(5) 0.62804(14) 0.60846(12)
H13 H 0.2667 0.6291 0.6216
loop_
_geom_bond_atom_site_label_1
_geom_bond_atom_site_label_2
_geom_bond_site_symmetry_1
_geom_bond_site_symmetry_2
O1 H1 1_555 1_555
N1 C1 1_555 1_555
O2 H2 1_555 1_555
N2 C2 1_555 1_555
O3 H3 1_555 1_555
C1 H4 1_555 1_555
O4 C1 1_555 1_555
N3 H5 1_555 1_555
H6 N3 1_555 1_555
O5 C2 1_555 1_555
C2 N1 1_555 1_555
C3 N2 1_555 1_555
C4 O4 1_555 1_555
H7 C4 1_555 1_555
C5 O2 1_555 1_555
H8 C5 1_555 1_555
H9 C5 1_555 1_555
C6 O1 1_555 1_555
H10 C6 1_555 1_555
C7 N1 1_555 1_555
H11 C7 1_555 1_555
C8 C3 1_555 1_555
H12 C8 1_555 1_555
C9 O3 1_555 1_555
H13 C9 1_555 1_555
C1 C9 1_555 1_555
N3 C3 1_555 1_555
C4 C5 1_555 1_555
C4 C6 1_555 1_555
C6 C9 1_555 1_555
C7 C8 1_555 1_555

#END
