
#######################################################################
#
#                 Cambridge Crystallographic Data Centre
#                                CCDC 
#
#######################################################################
#
# If this CIF has been generated from an entry in the Cambridge 
# Structural Database, then it will include bibliographic, chemical, 
# crystal, experimental, refinement or atomic coordinate data resulting 
# from the CCDC's data processing and validation procedures.
#
#######################################################################

data_DABMIE
_chemical_formula_moiety         'C12 H13 F2 N3 O2'
_chemical_name_systematic        
N,N-Diethyl-2,3-difluoro-6-methylfuro[2,3-b]pyrazine-7-carboxamide
_symmetry_cell_setting           monoclinic
_symmetry_space_group_name_H-M   'P 21/c'
_symmetry_Int_Tables_number      14
_space_group_name_Hall           '-P 2ybc'
loop_
_symmetry_equiv_pos_site_id
_symmetry_equiv_pos_as_xyz
1 x,y,z
2 -x,1/2+y,1/2-z
3 -x,-y,-z
4 x,1/2-y,1/2+z
_cell_length_a                   8.0742(2)
_cell_length_b                   20.5408(6)
_cell_length_c                   7.8994(2)
_cell_angle_alpha                90
_cell_angle_beta                 109.8900(10)
_cell_angle_gamma                90
_cell_volume                     1231.97
_exptl_crystal_colour            colorless
_exptl_crystal_description       plate
_chemical_melting_point          '73-75 deg.C'
_cell_formula_units_Z            4
loop_
_atom_site_label
_atom_site_type_symbol
_atom_site_fract_x
_atom_site_fract_y
_atom_site_fract_z
F1 F 0.33753(12) 0.43428(3) 0.93555(10)
F2 F 0.10725(10) 0.35662(3) 0.69746(11)
O1 O 0.12224(11) 0.49812(4) 0.25005(11)
O2 O 0.52266(11) 0.64035(4) 0.38469(11)
N1 N 0.34436(13) 0.50501(4) 0.71956(14)
N2 N 0.10053(13) 0.42201(4) 0.46509(14)
N3 N 0.44168(12) 0.66585(4) 0.62419(13)
C1 C 0.21489(15) 0.55591(5) 0.26100(16)
C2 C 0.31196(14) 0.57123(5) 0.43436(15)
C3 C 0.28340(16) 0.45119(5) 0.76251(16)
C4 C 0.16252(16) 0.41042(5) 0.63698(17)
C5 C 0.16678(15) 0.47607(5) 0.42208(15)
C6 C 0.28418(14) 0.51830(5) 0.54193(15)
C7 C 0.1897(2) 0.58761(7) 0.08657(18)
C8 C 0.43338(15) 0.62862(5) 0.48128(15)
C9 C 0.57608(16) 0.71748(5) 0.67719(16)
C10 C 0.74670(17) 0.69344(6) 0.8150(2)
C11 C 0.32466(16) 0.66079(5) 0.73051(17)
C12 C 0.19935(19) 0.71778(6) 0.7020(2)
H1 H 0.245(2) 0.6297(8) 0.107(2)
H2 H 0.068(3) 0.5891(9) 0.015(3)
H3 H 0.248(3) 0.5617(9) 0.020(3)
H4 H 0.5304(19) 0.7542(7) 0.7252(19)
H5 H 0.5970(19) 0.7324(7) 0.568(2)
H6 H 0.802(2) 0.6599(8) 0.764(2)
H7 H 0.829(2) 0.7293(7) 0.852(2)
H8 H 0.727(2) 0.6762(8) 0.924(2)
H9 H 0.394(2) 0.6570(7) 0.853(2)
H10 H 0.260(2) 0.6218(7) 0.699(2)
H11 H 0.118(2) 0.7095(7) 0.768(2)
H12 H 0.133(2) 0.7225(8) 0.576(3)
H13 H 0.260(2) 0.7582(9) 0.744(2)
loop_
_geom_bond_atom_site_label_1
_geom_bond_atom_site_label_2
_geom_bond_site_symmetry_1
_geom_bond_site_symmetry_2
F1 C3 1_555 1_555
F2 C4 1_555 1_555
O1 C1 1_555 1_555
O2 C8 1_555 1_555
N1 C3 1_555 1_555
N2 C4 1_555 1_555
N3 C8 1_555 1_555
C1 C2 1_555 1_555
C2 C6 1_555 1_555
C3 C4 1_555 1_555
C5 O1 1_555 1_555
C6 N1 1_555 1_555
C7 C1 1_555 1_555
C8 C2 1_555 1_555
C9 N3 1_555 1_555
C10 C9 1_555 1_555
C11 N3 1_555 1_555
C12 C11 1_555 1_555
H1 C7 1_555 1_555
H2 C7 1_555 1_555
H3 C7 1_555 1_555
H4 C9 1_555 1_555
H5 C9 1_555 1_555
H6 C10 1_555 1_555
H7 C10 1_555 1_555
H8 C10 1_555 1_555
H9 C11 1_555 1_555
H10 C11 1_555 1_555
H11 C12 1_555 1_555
H12 C12 1_555 1_555
H13 C12 1_555 1_555
N2 C5 1_555 1_555
C5 C6 1_555 1_555

#END
