
#######################################################################
#
#                 Cambridge Crystallographic Data Centre
#                                CCDC 
#
#######################################################################
#
# If this CIF has been generated from an entry in the Cambridge 
# Structural Database, then it will include bibliographic, chemical, 
# crystal, experimental, refinement or atomic coordinate data resulting 
# from the CCDC's data processing and validation procedures.
#
#######################################################################

data_DACLOL
_chemical_formula_moiety         'C20 H15 N3 O6'
_chemical_name_systematic        
9-azido-5-(1,3-benzodioxol-5-yl)-5,8,8a,9-tetrahydrofuro[3',4':6,7]naphtho[2,3-d][1,3]dioxol-6(5aH)-one
_chemical_properties_biological  'anticancer activity'
_symmetry_cell_setting           monoclinic
_symmetry_space_group_name_H-M   'P 21/c'
_symmetry_Int_Tables_number      14
_space_group_name_Hall           '-P 2ybc'
loop_
_symmetry_equiv_pos_site_id
_symmetry_equiv_pos_as_xyz
1 x,y,z
2 -x,1/2+y,1/2-z
3 -x,-y,-z
4 x,1/2-y,1/2+z
_cell_length_a                   8.8536(5)
_cell_length_b                   11.6840(7)
_cell_length_c                   16.8730(10)
_cell_angle_alpha                90
_cell_angle_beta                 98.782(2)
_cell_angle_gamma                90
_cell_volume                     1724.97
_exptl_crystal_colour            colorless
_exptl_crystal_description       block
_cell_formula_units_Z            4
loop_
_atom_site_label
_atom_site_type_symbol
_atom_site_fract_x
_atom_site_fract_y
_atom_site_fract_z
O1 O 0.98249(14) 0.46899(10) 0.13545(7)
O2 O 1.11135(14) 0.62852(10) 0.10070(8)
O3 O 0.78856(16) 1.24440(10) 0.06893(8)
O4 O 0.75311(15) 1.09874(11) 0.15726(8)
O5 O 0.53025(15) 0.60300(11) -0.16963(7)
O6 O 0.54786(16) 0.72362(11) -0.26948(7)
N1 N 0.86818(18) 0.96956(13) -0.18926(9)
N2 N 0.94596(18) 1.05717(13) -0.19138(9)
N3 N 1.02684(19) 1.13160(14) -0.19498(10)
C1 C 0.6054(2) 0.83972(16) -0.27895(11)
H1 H 0.5350 0.8837 -0.3190
H2 H 0.7080 0.8380 -0.2955
C2 C 0.6121(2) 0.89033(15) -0.19574(10)
H3 H 0.5053 0.9092 -0.1879
C3 C 0.7106(2) 0.99297(15) -0.17016(11)
H4 H 0.6671 1.0620 -0.2005
C4 C 0.71480(19) 1.01264(14) -0.08104(11)
C5 C 0.7478(2) 1.12444(14) -0.05293(11)
H5 H 0.7609 1.1851 -0.0887
C6 C 0.7604(2) 1.14264(14) 0.02763(11)
C7 C 0.8165(2) 1.21192(16) 0.15131(13)
H6 H 0.7672 1.2668 0.1840
H7 H 0.9277 1.2112 0.1711
C8 C 0.7371(2) 1.05629(15) 0.07985(11)
C9 C 0.69790(19) 0.94772(14) 0.05388(10)
H8 H 0.6779 0.8899 0.0905
C10 C 0.68812(19) 0.92438(14) -0.02845(10)
C11 C 0.64352(19) 0.80244(13) -0.05620(10)
H9 H 0.5323 0.7930 -0.0532
C12 C 0.66371(19) 0.78703(14) -0.14373(10)
H10 H 0.7749 0.7746 -0.1455
C13 C 0.5757(2) 0.69253(15) -0.19127(10)
C14 C 0.72879(19) 0.71101(13) -0.00298(9)
C15 C 0.88727(19) 0.72099(14) 0.02057(10)
H11 H 0.9421 0.7852 0.0053
C16 C 0.95983(19) 0.63469(14) 0.06637(10)
C17 C 0.8827(2) 0.53995(14) 0.08780(10)
C18 C 0.7291(2) 0.52806(15) 0.06619(10)
H12 H 0.6762 0.4629 0.0814
C19 C 0.6527(2) 0.61646(14) 0.02046(10)
H13 H 0.5451 0.6113 0.0051
C20 C 1.1307(2) 0.51655(15) 0.13383(11)
H14 H 1.1886 0.5201 0.1888
H15 H 1.1884 0.4682 0.1007
loop_
_geom_bond_atom_site_label_1
_geom_bond_atom_site_label_2
_geom_bond_site_symmetry_1
_geom_bond_site_symmetry_2
O1 C17 1_555 1_555
O2 C16 1_555 1_555
O3 C6 1_555 1_555
O4 C7 1_555 1_555
O5 C13 1_555 1_555
O6 C1 1_555 1_555
N1 N2 1_555 1_555
N2 N3 1_555 1_555
C1 H1 1_555 1_555
H2 C1 1_555 1_555
C2 C1 1_555 1_555
H3 C2 1_555 1_555
C3 N1 1_555 1_555
H4 C3 1_555 1_555
C4 C3 1_555 1_555
C5 C4 1_555 1_555
H5 C5 1_555 1_555
C6 C5 1_555 1_555
C7 O3 1_555 1_555
H6 C7 1_555 1_555
H7 C7 1_555 1_555
C8 O4 1_555 1_555
C9 C8 1_555 1_555
H8 C9 1_555 1_555
C10 C4 1_555 1_555
C11 C10 1_555 1_555
H9 C11 1_555 1_555
C12 C2 1_555 1_555
H10 C12 1_555 1_555
C13 O6 1_555 1_555
C14 C11 1_555 1_555
C15 C14 1_555 1_555
H11 C15 1_555 1_555
C16 C15 1_555 1_555
C17 C16 1_555 1_555
C18 C17 1_555 1_555
H12 C18 1_555 1_555
C19 C14 1_555 1_555
H13 C19 1_555 1_555
C20 O1 1_555 1_555
H14 C20 1_555 1_555
H15 C20 1_555 1_555
O2 C20 1_555 1_555
C2 C3 1_555 1_555
C6 C8 1_555 1_555
C9 C10 1_555 1_555
C11 C12 1_555 1_555
C12 C13 1_555 1_555
C18 C19 1_555 1_555

#END
