
#######################################################################
#
#                 Cambridge Crystallographic Data Centre
#                                CCDC 
#
#######################################################################
#
# If this CIF has been generated from an entry in the Cambridge 
# Structural Database, then it will include bibliographic, chemical, 
# crystal, experimental, refinement or atomic coordinate data resulting 
# from the CCDC's data processing and validation procedures.
#
#######################################################################

data_DACSIM
_chemical_name_common            
2,5-Dimethyl-1-[4-(2-methyl-5-phenyl-1H-pyrrol-1-yl)phenyl]-1H-pyrrole
_chemical_formula_moiety         'C23 H22 N2'
_chemical_name_systematic        
1-(4-(2,5-dimethyl-1H-pyrrol-1-yl)phenyl)-2-methyl-5-phenyl-1H-pyrrole
_symmetry_cell_setting           orthorhombic
_symmetry_space_group_name_H-M   'P 21 21 21'
_symmetry_Int_Tables_number      19
_space_group_name_Hall           'P 2ac 2ab'
loop_
_symmetry_equiv_pos_site_id
_symmetry_equiv_pos_as_xyz
1 x,y,z
2 1/2-x,-y,1/2+z
3 1/2+x,1/2-y,-z
4 -x,1/2+y,1/2-z
_cell_length_a                   6.9535(1)
_cell_length_b                   8.5937(1)
_cell_length_c                   30.8423(5)
_cell_angle_alpha                90
_cell_angle_beta                 90
_cell_angle_gamma                90
_cell_volume                     1843.02
_exptl_crystal_colour            white
_exptl_crystal_description       parallelepiped
_cell_formula_units_Z            4
_exptl_crystal_recrystallization_method 'ethyl acetate/hexane/dichroromethane'
loop_
_atom_site_label
_atom_site_type_symbol
_atom_site_fract_x
_atom_site_fract_y
_atom_site_fract_z
N1 N 0.59344(16) 0.40109(15) 0.06041(4)
N2 N 1.13851(17) 0.48354(15) 0.19331(4)
C1 C 0.4715(2) 0.27332(19) 0.05552(4)
C2 C 0.3521(2) 0.3076(2) 0.02130(5)
H1 H 0.2554 0.2435 0.0106
C3 C 0.4000(2) 0.4548(2) 0.00532(5)
H2 H 0.3405 0.5052 -0.0177
C4 C 0.5494(2) 0.51202(19) 0.02943(5)
C5 C 0.4772(2) 0.1296(2) 0.08103(5)
C6 C 0.6377(3) 0.0761(2) 0.10381(6)
H3 H 0.7515 0.1329 0.1033
C7 C 0.6275(4) -0.0625(3) 0.12728(7)
H4 H 0.7339 -0.0956 0.1430
C8 C 0.4628(5) -0.1508(3) 0.12749(8)
H5 H 0.4571 -0.2427 0.1433
C9 C 0.3076(4) -0.1017(3) 0.10409(7)
H6 H 0.1970 -0.1625 0.1034
C10 C 0.3124(3) 0.0366(2) 0.08152(6)
H7 H 0.2038 0.0687 0.0663
C11 C 0.6550(3) 0.6621(2) 0.02547(7)
H8 H 0.7531 0.6673 0.0473
H9 H 0.5669 0.7470 0.0292
H10 H 0.7132 0.6687 -0.0027
C12 C 0.73241(19) 0.42548(19) 0.09414(4)
C13 C 0.9264(2) 0.4282(2) 0.08417(5)
H11 H 0.9666 0.4152 0.0556
C14 C 1.0601(2) 0.4503(2) 0.11664(5)
H12 H 1.1905 0.4540 0.1099
C15 C 1.00024(19) 0.46697(18) 0.15935(4)
C16 C 0.8063(2) 0.4650(2) 0.16910(4)
H13 H 0.7661 0.4770 0.1977
C17 C 0.67159(19) 0.44520(19) 0.13649(4)
H14 H 0.5410 0.4452 0.1430
C18 C 1.1684(2) 0.61784(18) 0.21737(5)
C19 C 1.3005(2) 0.5824(2) 0.24831(5)
H15 H 1.3475 0.6504 0.2692
C20 C 1.3542(2) 0.4255(2) 0.24334(5)
H16 H 1.4436 0.3724 0.2602
C21 C 1.2519(2) 0.36502(19) 0.20948(5)
C22 C 1.0692(3) 0.7671(2) 0.20727(6)
H17 H 1.1098 0.8456 0.2274
H18 H 0.9326 0.7529 0.2095
H19 H 1.1012 0.7991 0.1783
C23 C 1.2376(3) 0.2024(2) 0.19274(6)
H20 H 1.3282 0.1375 0.2077
H21 H 1.2658 0.2014 0.1623
H22 H 1.1098 0.1637 0.1974
loop_
_geom_bond_atom_site_label_1
_geom_bond_atom_site_label_2
_geom_bond_site_symmetry_1
_geom_bond_site_symmetry_2
N1 C1 1_555 1_555
N2 C15 1_555 1_555
C1 C2 1_555 1_555
C2 H1 1_555 1_555
C3 C2 1_555 1_555
H2 C3 1_555 1_555
C4 N1 1_555 1_555
C5 C1 1_555 1_555
C6 C5 1_555 1_555
H3 C6 1_555 1_555
C7 C6 1_555 1_555
H4 C7 1_555 1_555
C8 C7 1_555 1_555
H5 C8 1_555 1_555
C9 C8 1_555 1_555
H6 C9 1_555 1_555
C10 C5 1_555 1_555
H7 C10 1_555 1_555
C11 C4 1_555 1_555
H8 C11 1_555 1_555
H9 C11 1_555 1_555
H10 C11 1_555 1_555
C12 N1 1_555 1_555
C13 C12 1_555 1_555
H11 C13 1_555 1_555
C14 C13 1_555 1_555
H12 C14 1_555 1_555
C15 C14 1_555 1_555
C16 C15 1_555 1_555
H13 C16 1_555 1_555
C17 C12 1_555 1_555
H14 C17 1_555 1_555
C18 N2 1_555 1_555
C19 C18 1_555 1_555
H15 C19 1_555 1_555
C20 C19 1_555 1_555
H16 C20 1_555 1_555
C21 N2 1_555 1_555
C22 C18 1_555 1_555
H17 C22 1_555 1_555
H18 C22 1_555 1_555
H19 C22 1_555 1_555
C23 C21 1_555 1_555
H20 C23 1_555 1_555
H21 C23 1_555 1_555
H22 C23 1_555 1_555
C3 C4 1_555 1_555
C9 C10 1_555 1_555
C16 C17 1_555 1_555
C20 C21 1_555 1_555

#END
