
#######################################################################
#
#                 Cambridge Crystallographic Data Centre
#                                CCDC 
#
#######################################################################
#
# If this CIF has been generated from an entry in the Cambridge 
# Structural Database, then it will include bibliographic, chemical, 
# crystal, experimental, refinement or atomic coordinate data resulting 
# from the CCDC's data processing and validation procedures.
#
#######################################################################

data_DACWIP
_chemical_formula_moiety         'C17 H24 N2 O3'
_chemical_name_systematic        
N-(2,6-Dimethyl-7-(3-methylbut-2-en-1-yl)-1,3-dioxo-2,3,3a,4,7,7a-hexahydro-1H-isoindol-4-yl)acetamide
_symmetry_cell_setting           triclinic
_symmetry_space_group_name_H-M   'P -1'
_symmetry_Int_Tables_number      2
_space_group_name_Hall           '-P 1'
loop_
_symmetry_equiv_pos_site_id
_symmetry_equiv_pos_as_xyz
1 x,y,z
2 -x,-y,-z
_cell_length_a                   7.9089(7)
_cell_length_b                   9.6396(9)
_cell_length_c                   10.547(8)
_cell_angle_alpha                90.566(5)
_cell_angle_beta                 97.780(5)
_cell_angle_gamma                97.777(4)
_cell_volume                     789.034
_exptl_crystal_colour            colorless
_exptl_crystal_description       prism
_cell_formula_units_Z            2
loop_
_atom_site_label
_atom_site_type_symbol
_atom_site_fract_x
_atom_site_fract_y
_atom_site_fract_z
O1 O -0.03236(18) 0.14126(13) 0.17682(11)
O2 O 0.22874(18) 0.50050(13) -0.03370(12)
O3 O 0.05613(18) 0.33802(13) 0.63837(12)
N1 N 0.1082(2) 0.29942(15) 0.05189(13)
N2 N 0.0180(2) 0.24352(16) 0.43898(15)
C1 C 0.0365(2) 0.2597(2) 0.16048(17)
C2 C 0.1772(2) 0.44030(19) 0.05752(17)
C3 C 0.1738(2) 0.50006(18) 0.18965(16)
H1 H 0.1174 0.5869 0.1813
C4 C 0.0555(2) 0.38669(18) 0.24950(16)
H2 H -0.0598 0.4182 0.2501
C5 C 0.1295(2) 0.35454(18) 0.38736(16)
H3 H 0.1362 0.4410 0.4420
C6 C -0.0093(2) 0.24245(19) 0.56197(17)
C7 C -0.1256(3) 0.11862(19) 0.60146(18)
H4 H -0.0628 0.0710 0.6707
H5 H -0.1637 0.0535 0.5281
H6 H -0.2262 0.1506 0.6314
C8 C 0.3099(2) 0.32179(19) 0.38520(17)
H7 H 0.3451 0.2413 0.4267
C9 C 0.4204(2) 0.40481(19) 0.32558(17)
C10 C 0.3555(3) 0.53686(19) 0.26895(18)
H8 H 0.3381 0.5948 0.3441
C11 C 0.4847(3) 0.6295(2) 0.19979(19)
H9 H 0.5933 0.6540 0.2589
H10 H 0.5108 0.5757 0.1261
C12 C 0.4203(3) 0.76224(19) 0.15245(19)
H11 H 0.3310 0.7513 0.0817
C13 C 0.4723(3) 0.89302(19) 0.19674(18)
C14 C 0.3934(3) 1.0141(2) 0.13559(19)
H12 H 0.3104 0.9798 0.0607
H13 H 0.4842 1.0825 0.1089
H14 H 0.3343 1.0587 0.1975
C15 C 0.6097(3) 0.9338(2) 0.30773(19)
H15 H 0.6590 0.8505 0.3389
H16 H 0.5598 0.9757 0.3765
H17 H 0.7004 1.0019 0.2804
C16 C 0.5996(3) 0.3763(2) 0.31671(18)
H18 H 0.6187 0.2886 0.3592
H19 H 0.6824 0.4534 0.3587
H20 H 0.6153 0.3680 0.2265
C17 C 0.1032(3) 0.2082(2) -0.05989(17)
H21 H 0.0789 0.2607 -0.1378
H22 H 0.0125 0.1284 -0.0585
H23 H 0.2147 0.1742 -0.0585
H24 H -0.031(2) 0.1775(19) 0.3848(17)
loop_
_geom_bond_atom_site_label_1
_geom_bond_atom_site_label_2
_geom_bond_site_symmetry_1
_geom_bond_site_symmetry_2
O1 C1 1_555 1_555
O2 C2 1_555 1_555
O3 C6 1_555 1_555
N1 C1 1_555 1_555
N2 C5 1_555 1_555
C1 C4 1_555 1_555
C2 N1 1_555 1_555
C3 C2 1_555 1_555
H1 C3 1_555 1_555
C4 C3 1_555 1_555
H2 C4 1_555 1_555
C5 C4 1_555 1_555
H3 C5 1_555 1_555
C6 N2 1_555 1_555
C7 C6 1_555 1_555
H4 C7 1_555 1_555
H5 C7 1_555 1_555
H6 C7 1_555 1_555
C8 C5 1_555 1_555
H7 C8 1_555 1_555
C9 C8 1_555 1_555
C10 C3 1_555 1_555
H8 C10 1_555 1_555
C11 C10 1_555 1_555
H9 C11 1_555 1_555
H10 C11 1_555 1_555
C12 C11 1_555 1_555
H11 C12 1_555 1_555
C13 C12 1_555 1_555
C14 C13 1_555 1_555
H12 C14 1_555 1_555
H13 C14 1_555 1_555
H14 C14 1_555 1_555
C15 C13 1_555 1_555
H15 C15 1_555 1_555
H16 C15 1_555 1_555
H17 C15 1_555 1_555
C16 C9 1_555 1_555
H18 C16 1_555 1_555
H19 C16 1_555 1_555
H20 C16 1_555 1_555
C17 N1 1_555 1_555
H21 C17 1_555 1_555
H22 C17 1_555 1_555
H23 C17 1_555 1_555
H24 N2 1_555 1_555
C9 C10 1_555 1_555

#END
