
#######################################################################
#
#                 Cambridge Crystallographic Data Centre
#                                CCDC 
#
#######################################################################
#
# If this CIF has been generated from an entry in the Cambridge 
# Structural Database, then it will include bibliographic, chemical, 
# crystal, experimental, refinement or atomic coordinate data resulting 
# from the CCDC's data processing and validation procedures.
#
#######################################################################

data_DADGOF01
_chemical_formula_moiety         'C19 H14 O2'
_chemical_name_systematic        
3-phenyl-2,3-dihydro-1H-naphtho[2,1-b]pyran-1-one
_symmetry_cell_setting           orthorhombic
_symmetry_space_group_name_H-M   'P b c a'
_symmetry_Int_Tables_number      61
_space_group_name_Hall           '-P 2ac 2ab'
loop_
_symmetry_equiv_pos_site_id
_symmetry_equiv_pos_as_xyz
1 x,y,z
2 1/2-x,-y,1/2+z
3 -x,1/2+y,1/2-z
4 1/2+x,1/2-y,-z
5 -x,-y,-z
6 1/2+x,y,1/2-z
7 x,1/2-y,1/2+z
8 1/2-x,1/2+y,z
_cell_length_a                   15.2304(16)
_cell_length_b                   6.8670(5)
_cell_length_c                   26.9945(19)
_cell_angle_alpha                90
_cell_angle_beta                 90
_cell_angle_gamma                90
_cell_volume                     2823.28
_exptl_crystal_description       block
_cell_formula_units_Z            8
loop_
_atom_site_label
_atom_site_type_symbol
_atom_site_fract_x
_atom_site_fract_y
_atom_site_fract_z
C1 C 0.28878(10) 0.4742(2) 0.76231(5)
C2 C 0.20356(11) 0.4842(2) 0.78276(6)
H1 H 0.1545 0.4707 0.7626
C3 C 0.19404(12) 0.5139(2) 0.83226(6)
H2 H 0.1378 0.5191 0.8456
C4 C 0.26732(11) 0.5372(2) 0.86427(6)
C5 C 0.25521(14) 0.5760(3) 0.91530(6)
H3 H 0.1985 0.5845 0.9279
C6 C 0.32498(15) 0.6013(3) 0.94630(7)
H4 H 0.3161 0.6268 0.9798
C7 C 0.41018(15) 0.5884(3) 0.92711(7)
H5 H 0.4579 0.6073 0.9481
C8 C 0.42488(13) 0.5481(3) 0.87773(6)
H6 H 0.4822 0.5382 0.8661
C9 C 0.35380(11) 0.5217(2) 0.84447(6)
C10 C 0.36403(10) 0.4843(2) 0.79187(6)
C11 C 0.44839(11) 0.4351(2) 0.76871(6)
C12 C 0.44625(11) 0.4028(3) 0.71347(6)
H7 H 0.4427 0.2640 0.7070
H8 H 0.5008 0.4498 0.6993
C13 C 0.37042(11) 0.5030(3) 0.68802(6)
H9 H 0.3780 0.6444 0.6905
C14 C 0.36555(11) 0.4448(3) 0.63386(6)
C15 C 0.32900(13) 0.2703(4) 0.61923(7)
H10 H 0.3030 0.1896 0.6427
C16 C 0.33047(15) 0.2140(5) 0.57005(8)
H11 H 0.3051 0.0964 0.5607
C17 C 0.36871(16) 0.3295(5) 0.53545(8)
H12 H 0.3705 0.2894 0.5026
C18 C 0.40503(17) 0.5066(5) 0.54883(9)
H13 H 0.4303 0.5863 0.5249
C19 C 0.40356(14) 0.5664(4) 0.59913(8)
H14 H 0.4277 0.6852 0.6086
O1 O 0.28979(7) 0.44768(17) 0.71219(4)
O2 O 0.51705(8) 0.4093(2) 0.79156(5)
loop_
_geom_bond_atom_site_label_1
_geom_bond_atom_site_label_2
_geom_bond_site_symmetry_1
_geom_bond_site_symmetry_2
C1 C2 1_555 1_555
C2 H1 1_555 1_555
C3 C2 1_555 1_555
H2 C3 1_555 1_555
C4 C3 1_555 1_555
C5 C4 1_555 1_555
H3 C5 1_555 1_555
C6 C5 1_555 1_555
H4 C6 1_555 1_555
C7 C6 1_555 1_555
H5 C7 1_555 1_555
C8 C7 1_555 1_555
H6 C8 1_555 1_555
C9 C4 1_555 1_555
C10 C1 1_555 1_555
C11 C10 1_555 1_555
C12 C11 1_555 1_555
H7 C12 1_555 1_555
H8 C12 1_555 1_555
C13 C12 1_555 1_555
H9 C13 1_555 1_555
C14 C13 1_555 1_555
C15 C14 1_555 1_555
H10 C15 1_555 1_555
C16 C15 1_555 1_555
H11 C16 1_555 1_555
C17 C16 1_555 1_555
H12 C17 1_555 1_555
C18 C17 1_555 1_555
H13 C18 1_555 1_555
C19 C14 1_555 1_555
H14 C19 1_555 1_555
O1 C1 1_555 1_555
O2 C11 1_555 1_555
C8 C9 1_555 1_555
C9 C10 1_555 1_555
C13 O1 1_555 1_555
C18 C19 1_555 1_555

#END
