
#######################################################################
#
#                 Cambridge Crystallographic Data Centre
#                                CCDC 
#
#######################################################################
#
# If this CIF has been generated from an entry in the Cambridge 
# Structural Database, then it will include bibliographic, chemical, 
# crystal, experimental, refinement or atomic coordinate data resulting 
# from the CCDC's data processing and validation procedures.
#
#######################################################################

data_DADZAK
_chemical_formula_moiety         'C18 H8 Cl4 O2'
_chemical_name_systematic        
1,2,3,4-Tetrachloro-trans-(R,R)-9,10-diethynyl-(R,R)-9,10-dihydroanthracene-9,10-diol
_symmetry_cell_setting           monoclinic
_symmetry_space_group_name_H-M   'P 21'
_symmetry_Int_Tables_number      4
_space_group_name_Hall           'P 2yb'
loop_
_symmetry_equiv_pos_site_id
_symmetry_equiv_pos_as_xyz
1 x,y,z
2 -x,1/2+y,-z
_cell_length_a                   9.3730(5)
_cell_length_b                   9.5301(5)
_cell_length_c                   10.3102(5)
_cell_angle_alpha                90
_cell_angle_beta                 114.559(2)
_cell_angle_gamma                90
_cell_volume                     837.649
_exptl_crystal_colour            colorless
_exptl_crystal_description       plate
_chemical_melting_point          '506 K'
_cell_formula_units_Z            2
_exptl_crystal_recrystallization_method chloroform/benzene
loop_
_atom_site_label
_atom_site_type_symbol
_atom_site_fract_x
_atom_site_fract_y
_atom_site_fract_z
Cl1 Cl -0.06688(4) 0.53703(4) -0.28529(4)
Cl2 Cl -0.12415(5) 0.56180(4) -0.01455(5)
Cl3 Cl 0.10467(5) 0.42761(5) 0.27019(4)
Cl4 Cl 0.40877(5) 0.28926(4) 0.29283(4)
O1 O 0.23541(13) 0.54710(12) -0.31201(12)
H1 H 0.319(3) 0.597(3) -0.248(3)
O2 O 0.49452(14) 0.15410(11) 0.08051(13)
H2 H 0.451(4) 0.110(3) 0.014(3)
C1 C 0.07254(18) 0.46954(15) -0.12819(17)
C2 C 0.04101(18) 0.47806(16) -0.00725(18)
C3 C 0.14654(18) 0.42111(17) 0.12243(16)
C4 C 0.28526(17) 0.36086(16) 0.13067(16)
C5 C 0.32129(16) 0.35746(15) 0.01059(15)
C6 C 0.48130(16) 0.29785(14) 0.03095(15)
C7 C 0.51351(17) 0.30034(15) -0.10220(15)
C8 C 0.66093(18) 0.25173(16) -0.08810(17)
H3 H 0.736(3) 0.219(3) 0.004(3)
C9 C 0.69839(19) 0.25056(18) -0.20456(19)
H4 H 0.808(4) 0.222(3) -0.196(3)
C10 C 0.5887(2) 0.2978(2) -0.33713(19)
H5 H 0.621(4) 0.293(3) -0.428(3)
C11 C 0.4428(2) 0.3444(2) -0.35198(18)
H6 H 0.366(3) 0.381(3) -0.441(3)
C12 C 0.40432(17) 0.34630(16) -0.23321(16)
C13 C 0.24483(17) 0.40695(15) -0.25656(15)
C14 C 0.21372(16) 0.41010(14) -0.12050(15)
C15 C 0.12132(18) 0.32082(16) -0.36675(17)
C16 C 0.0273(2) 0.24497(19) -0.45130(18)
H7 H -0.042(4) 0.187(3) -0.515(3)
C17 C 0.60615(17) 0.38194(16) 0.14248(16)
C18 C 0.7030(2) 0.45799(19) 0.22426(19)
H8 H 0.778(3) 0.527(3) 0.292(3)
loop_
_geom_bond_atom_site_label_1
_geom_bond_atom_site_label_2
_geom_bond_site_symmetry_1
_geom_bond_site_symmetry_2
Cl1 C1 1_555 1_555
Cl2 C2 1_555 1_555
Cl3 C3 1_555 1_555
Cl4 C4 1_555 1_555
O1 H1 1_555 1_555
O2 H2 1_555 1_555
C1 C2 1_555 1_555
C2 C3 1_555 1_555
C3 C4 1_555 1_555
C4 C5 1_555 1_555
C5 C6 1_555 1_555
C6 O2 1_555 1_555
C7 C6 1_555 1_555
C8 C7 1_555 1_555
H3 C8 1_555 1_555
C9 C8 1_555 1_555
H4 C9 1_555 1_555
C10 C9 1_555 1_555
H5 C10 1_555 1_555
C11 C10 1_555 1_555
H6 C11 1_555 1_555
C12 C7 1_555 1_555
C13 O1 1_555 1_555
C14 C1 1_555 1_555
C15 C13 1_555 1_555
C16 C15 1_555 1_555
H7 C16 1_555 1_555
C17 C6 1_555 1_555
C18 C17 1_555 1_555
H8 C18 1_555 1_555
C5 C14 1_555 1_555
C11 C12 1_555 1_555
C12 C13 1_555 1_555
C13 C14 1_555 1_555

#END
