
#######################################################################
#
#                 Cambridge Crystallographic Data Centre
#                                CCDC 
#
#######################################################################
#
# If this CIF has been generated from an entry in the Cambridge 
# Structural Database, then it will include bibliographic, chemical, 
# crystal, experimental, refinement or atomic coordinate data resulting 
# from the CCDC's data processing and validation procedures.
#
#######################################################################

data_DAFJUQ
_chemical_formula_moiety         'C18 H26 N2 O2 S1'
_chemical_name_systematic        
(+)-2,5-bis(4'(S)-t-Butyloxazolin-2'-yl)thiophene
_symmetry_cell_setting           orthorhombic
_symmetry_space_group_name_H-M   'P 21 21 21'
_symmetry_Int_Tables_number      19
_space_group_name_Hall           'P 2ac 2ab'
loop_
_symmetry_equiv_pos_site_id
_symmetry_equiv_pos_as_xyz
1 x,y,z
2 1/2-x,-y,1/2+z
3 -x,1/2+y,1/2-z
4 1/2+x,1/2-y,-z
_cell_length_a                   10.7782(9)
_cell_length_b                   11.6208(11)
_cell_length_c                   14.4755(12)
_cell_angle_alpha                90
_cell_angle_beta                 90
_cell_angle_gamma                90
_cell_volume                     1813.08
_exptl_crystal_colour            colorless
_exptl_crystal_description       block
_chemical_melting_point          120-121deg.C
_cell_formula_units_Z            4
loop_
_atom_site_label
_atom_site_type_symbol
_atom_site_fract_x
_atom_site_fract_y
_atom_site_fract_z
S1 S 0.09098(4) 0.85889(4) 0.03804(3)
O1 O 0.15462(13) 0.60762(12) 0.21553(9)
O2 O 0.26157(11) 0.91119(12) -0.20050(9)
N1 N 0.08482(14) 0.99002(14) -0.14376(10)
C1 C 0.11115(15) 0.70906(16) 0.18352(11)
C2 C 0.10396(16) 1.04825(17) -0.23321(12)
H1 H 0.1212 1.1315 -0.2212
C3 C 0.27144(15) 0.75504(16) -0.04309(12)
H2 H 0.3331 0.7346 -0.0871
C4 C 0.25381(16) 0.69692(17) 0.04223(13)
H3 H 0.3018 0.6328 0.0616
C5 C 0.15939(15) 0.74410(17) 0.09347(11)
N2 N 0.03162(14) 0.76511(15) 0.23020(10)
C6 C 0.17372(15) 0.91923(17) -0.13373(11)
C7 C -0.11949(16) 1.10152(19) -0.24833(13)
H4 H -0.1935 1.0964 -0.2875
H5 H -0.0978 1.1826 -0.2388
H6 H -0.1364 1.0653 -0.1885
C8 C 0.0924(2) 0.59058(18) 0.30358(12)
H7 H 0.1531 0.5891 0.3549
H8 H 0.0452 0.5175 0.3037
C9 C 0.18985(14) 0.84341(17) -0.05462(10)
C10 C -0.0861(2) 0.8553(2) 0.40470(14)
H9 H -0.0812 0.8989 0.4625
H10 H -0.1681 0.8195 0.3995
H11 H -0.0729 0.9073 0.3523
C11 C 0.00437(16) 0.69432(17) 0.31295(12)
H12 H -0.0826 0.6652 0.3072
C12 C -0.04607(18) 0.91330(18) -0.31172(14)
H13 H -0.1195 0.9093 -0.3515
H14 H -0.0642 0.8764 -0.2524
H15 H 0.0232 0.8734 -0.3417
C13 C -0.01123(16) 1.03944(17) -0.29553(12)
C14 C -0.01118(19) 0.67793(18) 0.48394(12)
H16 H -0.0056 0.7191 0.5429
H17 H 0.0505 0.6160 0.4827
H18 H -0.0944 0.6451 0.4772
C15 C 0.22360(15) 0.99193(18) -0.27193(12)
H19 H 0.2064 0.9514 -0.3307
H20 H 0.2887 1.0505 -0.2827
C16 C 0.01707(18) 1.09873(19) -0.38744(13)
H21 H -0.0557 1.0937 -0.4279
H22 H 0.0877 1.0607 -0.4171
H23 H 0.0373 1.1798 -0.3762
C17 C 0.01383(17) 0.76175(17) 0.40432(12)
C18 C 0.1416(2) 0.8166(2) 0.41644(15)
H24 H 0.1442 0.8586 0.4751
H25 H 0.1573 0.8699 0.3654
H26 H 0.2052 0.7563 0.4166
loop_
_geom_bond_atom_site_label_1
_geom_bond_atom_site_label_2
_geom_bond_site_symmetry_1
_geom_bond_site_symmetry_2
S1 C5 1_555 1_555
O1 C1 1_555 1_555
O2 C6 1_555 1_555
N1 C2 1_555 1_555
C1 C5 1_555 1_555
C2 H1 1_555 1_555
C3 H2 1_555 1_555
C4 C3 1_555 1_555
H3 C4 1_555 1_555
C5 C4 1_555 1_555
N2 C1 1_555 1_555
C6 N1 1_555 1_555
C7 H4 1_555 1_555
H5 C7 1_555 1_555
H6 C7 1_555 1_555
C8 O1 1_555 1_555
H7 C8 1_555 1_555
H8 C8 1_555 1_555
C9 S1 1_555 1_555
C10 H9 1_555 1_555
H10 C10 1_555 1_555
H11 C10 1_555 1_555
C11 N2 1_555 1_555
H12 C11 1_555 1_555
C12 H13 1_555 1_555
H14 C12 1_555 1_555
H15 C12 1_555 1_555
C13 C2 1_555 1_555
C14 H16 1_555 1_555
H17 C14 1_555 1_555
H18 C14 1_555 1_555
C15 O2 1_555 1_555
H19 C15 1_555 1_555
H20 C15 1_555 1_555
C16 C13 1_555 1_555
H21 C16 1_555 1_555
H22 C16 1_555 1_555
H23 C16 1_555 1_555
C17 C10 1_555 1_555
C18 C17 1_555 1_555
H24 C18 1_555 1_555
H25 C18 1_555 1_555
H26 C18 1_555 1_555
C2 C15 1_555 1_555
C3 C9 1_555 1_555
C6 C9 1_555 1_555
C7 C13 1_555 1_555
C8 C11 1_555 1_555
C11 C17 1_555 1_555
C12 C13 1_555 1_555
C14 C17 1_555 1_555

#END
