
#######################################################################
#
#                 Cambridge Crystallographic Data Centre
#                                CCDC 
#
#######################################################################
#
# If this CIF has been generated from an entry in the Cambridge 
# Structural Database, then it will include bibliographic, chemical, 
# crystal, experimental, refinement or atomic coordinate data resulting 
# from the CCDC's data processing and validation procedures.
#
#######################################################################

data_DAFJOK
_chemical_formula_moiety         'C14 H18 N2 O2 S1'
_chemical_name_systematic        2,5-bis(4'(S)-Ethyloxazolin-2'-yl)thiophene
_symmetry_cell_setting           monoclinic
_symmetry_space_group_name_H-M   'C 2'
_symmetry_Int_Tables_number      5
_space_group_name_Hall           'C 2y'
loop_
_symmetry_equiv_pos_site_id
_symmetry_equiv_pos_as_xyz
1 x,y,z
2 -x,y,-z
3 1/2+x,1/2+y,z
4 1/2-x,1/2+y,-z
_cell_length_a                   15.0056(18)
_cell_length_b                   6.3243(7)
_cell_length_c                   7.6861(9)
_cell_angle_alpha                90
_cell_angle_beta                 107.151(2)
_cell_angle_gamma                90
_cell_volume                     696.974
_exptl_crystal_colour            colorless
_exptl_crystal_description       cubic
_cell_formula_units_Z            2
loop_
_atom_site_label
_atom_site_type_symbol
_atom_site_fract_x
_atom_site_fract_y
_atom_site_fract_z
S1 S 0.5000 0.11603(8) 0.0000
O1 O 0.61361(10) -0.1506(2) 0.47758(17)
N1 N 0.62650(13) 0.1835(3) 0.3824(2)
C1 C 0.52531(12) -0.2739(3) 0.0946(2)
H1 H 0.5434 -0.3985 0.1654
C2 C 0.54458(12) -0.0744(3) 0.1617(2)
C3 C 0.59659(13) -0.0025(3) 0.3444(3)
C4 C 0.66565(14) -0.0412(3) 0.6432(3)
H2 H 0.7279 -0.1059 0.6954
H3 H 0.6316 -0.0456 0.7356
C5 C 0.67443(14) 0.1871(3) 0.5818(2)
H4 H 0.7419 0.2211 0.6027
C6 C 0.63109(15) 0.3541(3) 0.6743(3)
H5 H 0.5677 0.3082 0.6721
H6 H 0.6252 0.4884 0.6056
C7 C 0.68950(14) 0.3916(4) 0.8711(3)
H7 H 0.6592 0.4988 0.9264
H8 H 0.7518 0.4409 0.8735
H9 H 0.6950 0.2593 0.9398
O1A O 0.38639(10) -0.1506(2) -0.47758(17)
N1A N 0.37350(13) 0.1835(3) -0.3824(2)
C1A C 0.47469(12) -0.2739(3) -0.0946(2)
H1A H 0.4566 -0.3985 -0.1654
C2A C 0.45542(12) -0.0744(3) -0.1617(2)
C3A C 0.40341(13) -0.0025(3) -0.3444(3)
C4A C 0.33435(14) -0.0412(3) -0.6432(3)
H2A H 0.2721 -0.1059 -0.6954
H3A H 0.3684 -0.0456 -0.7356
C5A C 0.32557(14) 0.1871(3) -0.5818(2)
H4A H 0.2581 0.2211 -0.6027
C6A C 0.36891(15) 0.3541(3) -0.6743(3)
H5A H 0.4323 0.3082 -0.6721
H6A H 0.3748 0.4884 -0.6056
C7A C 0.31050(14) 0.3916(4) -0.8711(3)
H7A H 0.3408 0.4988 -0.9264
H8A H 0.2482 0.4409 -0.8735
H9A H 0.3050 0.2593 -0.9398
loop_
_geom_bond_atom_site_label_1
_geom_bond_atom_site_label_2
_geom_bond_site_symmetry_1
_geom_bond_site_symmetry_2
S1 C2 1_555 1_555
O1 C3 1_555 1_555
N1 C3 1_555 1_555
C1 H1 1_555 1_555
C2 C1 1_555 1_555
C3 C2 1_555 1_555
C4 O1 1_555 1_555
H2 C4 1_555 1_555
H3 C4 1_555 1_555
C5 N1 1_555 1_555
H4 C5 1_555 1_555
C6 C5 1_555 1_555
H5 C6 1_555 1_555
H6 C6 1_555 1_555
C7 C6 1_555 1_555
H7 C7 1_555 1_555
H8 C7 1_555 1_555
H9 C7 1_555 1_555
O1A C3A 1_555 1_555
N1A C3A 1_555 1_555
C1A C1 1_555 1_555
H1A C1A 1_555 1_555
C2A S1 1_555 1_555
C3A C2A 1_555 1_555
C4A O1A 1_555 1_555
H2A C4A 1_555 1_555
H3A C4A 1_555 1_555
C5A N1A 1_555 1_555
H4A C5A 1_555 1_555
C6A C5A 1_555 1_555
H5A C6A 1_555 1_555
H6A C6A 1_555 1_555
C7A C6A 1_555 1_555
H7A C7A 1_555 1_555
H8A C7A 1_555 1_555
H9A C7A 1_555 1_555
C4 C5 1_555 1_555
C1A C2A 1_555 1_555
C4A C5A 1_555 1_555

#END
