
#######################################################################
#
#                 Cambridge Crystallographic Data Centre
#                                CCDC 
#
#######################################################################
#
# If this CIF has been generated from an entry in the Cambridge 
# Structural Database, then it will include bibliographic, chemical, 
# crystal, experimental, refinement or atomic coordinate data resulting 
# from the CCDC's data processing and validation procedures.
#
#######################################################################

data_DAFVEN
_chemical_compound_source        'Laggera alata'
_chemical_name_common            5-hydroxy-3,4',6,7-tetramethoxyflavone
_chemical_formula_moiety         'C19 H18 O7'
_chemical_name_systematic        
5-Hydroxy-3,6,7-trimethoxy-2-(4-methoxyphenyl)-4H-1-benzopyran-4-one
_symmetry_cell_setting           monoclinic
_symmetry_space_group_name_H-M   'P 21/c'
_symmetry_Int_Tables_number      14
_space_group_name_Hall           '-P 2ybc'
loop_
_symmetry_equiv_pos_site_id
_symmetry_equiv_pos_as_xyz
1 x,y,z
2 -x,1/2+y,1/2-z
3 -x,-y,-z
4 x,1/2-y,1/2+z
_cell_length_a                   16.6029(3)
_cell_length_b                   7.40255(12)
_cell_length_c                   14.8666(3)
_cell_angle_alpha                90
_cell_angle_beta                 110.487(2)
_cell_angle_gamma                90
_cell_volume                     1711.6
_exptl_crystal_colour            colorless
_exptl_crystal_description       block
_cell_formula_units_Z            4
loop_
_atom_site_label
_atom_site_type_symbol
_atom_site_fract_x
_atom_site_fract_y
_atom_site_fract_z
C1 C 0.48173(9) 0.62713(18) 0.35189(9)
H1 H 0.4827 0.6247 0.4148
C2 C 0.55652(9) 0.65137(18) 0.33208(9)
C3 C 0.55508(9) 0.65911(18) 0.23692(10)
C4 C 0.47856(10) 0.63752(18) 0.16217(9)
C5 C 0.40106(9) 0.60851(18) 0.18019(9)
C6 C 0.40584(9) 0.60677(17) 0.27555(9)
C7 C 0.31987(10) 0.58282(19) 0.10407(10)
C8 C 0.24726(9) 0.55273(19) 0.13451(10)
C9 C 0.25552(9) 0.55542(18) 0.22864(9)
C10 C 0.18754(9) 0.54065(19) 0.27030(9)
C11 C 0.19372(9) 0.6426(2) 0.35134(10)
H2 H 0.2413 0.7167 0.3786
C12 C 0.13104(9) 0.6358(2) 0.39175(10)
H3 H 0.1363 0.7058 0.4455
C13 C 0.05974(9) 0.5249(2) 0.35272(10)
C14 C 0.05317(10) 0.4198(2) 0.27362(12)
H4 H 0.0063 0.3432 0.2478
C15 C 0.11659(10) 0.4286(2) 0.23276(11)
H5 H 0.1114 0.3581 0.1792
C16 C 0.64117(10) 0.6460(3) 0.49839(11)
H6 H 0.6228 0.5260 0.5065
H7 H 0.6050 0.7324 0.5140
H8 H 0.6996 0.6630 0.5402
C17 C 0.67982(12) 0.5470(3) 0.21626(15)
H9 H 0.6467 0.4644 0.1676
H10 H 0.6983 0.4879 0.2776
H11 H 0.7292 0.5860 0.2020
C18 C 0.15121(13) 0.3816(3) 0.00626(14)
H12 H 0.1759 0.4002 -0.0425
H13 H 0.0905 0.3617 -0.0234
H14 H 0.1773 0.2782 0.0442
C19 C -0.07302(12) 0.4180(3) 0.36159(15)
H15 H -0.1054 0.4487 0.2961
H16 H -0.1084 0.4341 0.4001
H17 H -0.0549 0.2942 0.3650
O1 O 0.33340(6) 0.58608(13) 0.29847(6)
O2 O 0.63532(6) 0.67071(15) 0.40059(7)
O3 O 0.62890(7) 0.69783(14) 0.21861(7)
O4 O 0.47794(8) 0.64402(17) 0.07088(7)
H18 H 0.4288 0.6281 0.0334
O5 O 0.31225(8) 0.58768(17) 0.01722(7)
O6 O 0.16597(7) 0.53866(16) 0.06686(7)
O7 O 0.00047(7) 0.53200(18) 0.39654(8)
loop_
_geom_bond_atom_site_label_1
_geom_bond_atom_site_label_2
_geom_bond_site_symmetry_1
_geom_bond_site_symmetry_2
C1 H1 1_555 1_555
C2 C1 1_555 1_555
C3 C2 1_555 1_555
C4 C3 1_555 1_555
C5 C4 1_555 1_555
C6 C1 1_555 1_555
C7 C5 1_555 1_555
C8 C7 1_555 1_555
C9 C8 1_555 1_555
C10 C9 1_555 1_555
C11 C10 1_555 1_555
H2 C11 1_555 1_555
C12 C11 1_555 1_555
H3 C12 1_555 1_555
C13 C12 1_555 1_555
C14 C13 1_555 1_555
H4 C14 1_555 1_555
C15 C10 1_555 1_555
H5 C15 1_555 1_555
C16 H6 1_555 1_555
H7 C16 1_555 1_555
H8 C16 1_555 1_555
C17 H9 1_555 1_555
H10 C17 1_555 1_555
H11 C17 1_555 1_555
C18 H12 1_555 1_555
H13 C18 1_555 1_555
H14 C18 1_555 1_555
C19 H15 1_555 1_555
H16 C19 1_555 1_555
H17 C19 1_555 1_555
O1 C6 1_555 1_555
O2 C2 1_555 1_555
O3 C3 1_555 1_555
O4 C4 1_555 1_555
H18 O4 1_555 1_555
O5 C7 1_555 1_555
O6 C8 1_555 1_555
O7 C13 1_555 1_555
C5 C6 1_555 1_555
C9 O1 1_555 1_555
C14 C15 1_555 1_555
C16 O2 1_555 1_555
C17 O3 1_555 1_555
C18 O6 1_555 1_555
C19 O7 1_555 1_555

#END
