
#######################################################################
#
#                 Cambridge Crystallographic Data Centre
#                                CCDC 
#
#######################################################################
#
# If this CIF has been generated from an entry in the Cambridge 
# Structural Database, then it will include bibliographic, chemical, 
# crystal, experimental, refinement or atomic coordinate data resulting 
# from the CCDC's data processing and validation procedures.
#
#######################################################################

data_DAGTUB
_chemical_formula_moiety         'C22 H29 N1 O2 Si1'
_chemical_name_systematic        
(Z)-N,N-diethyl-2-(2-hydroxy-3-(trimethylsilyl)phenyl)-3-phenylacrylamide
_symmetry_cell_setting           triclinic
_symmetry_space_group_name_H-M   'P -1'
_symmetry_Int_Tables_number      2
_space_group_name_Hall           '-P 1'
loop_
_symmetry_equiv_pos_site_id
_symmetry_equiv_pos_as_xyz
1 x,y,z
2 -x,-y,-z
_cell_length_a                   8.892(2)
_cell_length_b                   9.613(2)
_cell_length_c                   13.018(3)
_cell_angle_alpha                85.305(5)
_cell_angle_beta                 81.768(4)
_cell_angle_gamma                89.900(5)
_cell_volume                     1097.55
_exptl_crystal_colour            colorless
_exptl_crystal_description       plate
_chemical_melting_point          '118 deg.C'
_cell_formula_units_Z            2
_exptl_crystal_recrystallization_method hexanes
loop_
_atom_site_label
_atom_site_type_symbol
_atom_site_fract_x
_atom_site_fract_y
_atom_site_fract_z
N1 N 0.07606(18) 0.17169(16) 1.10707(12)
Si1 Si 0.19045(8) 0.25260(6) 0.56124(4)
O1 O 0.13135(15) 0.33657(12) 0.78125(9)
O2 O 0.01848(15) 0.32155(14) 0.97602(10)
C1 C 0.2353(2) 0.23192(18) 0.77552(15)
C2 C 0.2757(2) 0.1794(2) 0.67759(14)
C3 C 0.3810(2) 0.0719(2) 0.67199(16)
H1 H 0.4090 0.0347 0.6084
C4 C 0.4455(2) 0.0186(2) 0.75662(16)
H2 H 0.5143 -0.0543 0.7504
C5 C 0.4067(2) 0.0748(2) 0.85071(15)
H3 H 0.4515 0.0400 0.9077
C6 C 0.3021(2) 0.18235(18) 0.86291(14)
C7 C 0.2743(2) 0.24872(18) 0.96364(13)
C8 C 0.3883(2) 0.31062(18) 0.99882(14)
H4 H 0.4834 0.3036 0.9593
C9 C 0.3841(2) 0.38877(18) 1.09190(14)
C10 C 0.5088(2) 0.3881(2) 1.14426(16)
H5 H 0.5927 0.3346 1.1222
C11 C 0.5109(3) 0.4658(2) 1.22894(17)
H6 H 0.5954 0.4639 1.2636
C12 C 0.3884(3) 0.5454(2) 1.26148(17)
H7 H 0.3895 0.5977 1.3184
C13 C 0.2647(3) 0.5481(2) 1.21046(18)
H8 H 0.1814 0.6021 1.2330
C14 C 0.2622(2) 0.47138(19) 1.12575(16)
H9 H 0.1777 0.4752 1.0910
C15 C 0.1144(2) 0.24967(19) 1.01710(15)
C16 C 0.1798(2) 0.07886(19) 1.15539(15)
H10 H 0.1555 0.0782 1.2305
H11 H 0.2827 0.1146 1.1356
C17 C 0.1724(3) -0.0687(2) 1.1246(2)
H12 H 0.2428 -0.1255 1.1585
H13 H 0.1986 -0.0690 1.0505
H14 H 0.0713 -0.1054 1.1454
C18 C -0.0818(2) 0.1716(2) 1.15961(16)
H15 H -0.1113 0.0771 1.1868
H16 H -0.1480 0.2016 1.1091
C19 C -0.1035(3) 0.2650(3) 1.2469(2)
H17 H -0.2080 0.2613 1.2785
H18 H -0.0766 0.3591 1.2202
H19 H -0.0400 0.2346 1.2979
C20 C 0.2121(3) 0.4454(2) 0.54357(18)
H20 H 0.1677 0.4804 0.4837
H21 H 0.3181 0.4700 0.5336
H22 H 0.1617 0.4854 0.6043
C21 C 0.2924(3) 0.1788(3) 0.44319(16)
H23 H 0.2498 0.2154 0.3830
H24 H 0.2818 0.0789 0.4505
H25 H 0.3981 0.2039 0.4352
C22 C -0.0133(3) 0.2015(3) 0.57639(18)
H26 H -0.0566 0.2391 0.5167
H27 H -0.0663 0.2374 0.6380
H28 H -0.0223 0.1016 0.5823
loop_
_geom_bond_atom_site_label_1
_geom_bond_atom_site_label_2
_geom_bond_site_symmetry_1
_geom_bond_site_symmetry_2
N1 C15 1_555 1_555
Si1 C2 1_555 1_555
O1 C1 1_555 1_555
O2 C15 1_555 1_555
C1 C2 1_555 1_555
C2 C3 1_555 1_555
C3 H1 1_555 1_555
C4 C3 1_555 1_555
H2 C4 1_555 1_555
C5 C4 1_555 1_555
H3 C5 1_555 1_555
C6 C1 1_555 1_555
C7 C6 1_555 1_555
C8 C7 1_555 1_555
H4 C8 1_555 1_555
C9 C8 1_555 1_555
C10 C9 1_555 1_555
H5 C10 1_555 1_555
C11 C10 1_555 1_555
H6 C11 1_555 1_555
C12 C11 1_555 1_555
H7 C12 1_555 1_555
C13 C12 1_555 1_555
H8 C13 1_555 1_555
C14 C9 1_555 1_555
H9 C14 1_555 1_555
C15 C7 1_555 1_555
C16 N1 1_555 1_555
H10 C16 1_555 1_555
H11 C16 1_555 1_555
C17 C16 1_555 1_555
H12 C17 1_555 1_555
H13 C17 1_555 1_555
H14 C17 1_555 1_555
C18 N1 1_555 1_555
H15 C18 1_555 1_555
H16 C18 1_555 1_555
C19 C18 1_555 1_555
H17 C19 1_555 1_555
H18 C19 1_555 1_555
H19 C19 1_555 1_555
C20 Si1 1_555 1_555
H20 C20 1_555 1_555
H21 C20 1_555 1_555
H22 C20 1_555 1_555
C21 Si1 1_555 1_555
H23 C21 1_555 1_555
H24 C21 1_555 1_555
H25 C21 1_555 1_555
C22 Si1 1_555 1_555
H26 C22 1_555 1_555
H27 C22 1_555 1_555
H28 C22 1_555 1_555
C5 C6 1_555 1_555
C13 C14 1_555 1_555

#END
