
#######################################################################
#
#                 Cambridge Crystallographic Data Centre
#                                CCDC 
#
#######################################################################
#
# If this CIF has been generated from an entry in the Cambridge 
# Structural Database, then it will include bibliographic, chemical, 
# crystal, experimental, refinement or atomic coordinate data resulting 
# from the CCDC's data processing and validation procedures.
#
#######################################################################

data_DAHJUT
_chemical_formula_moiety         'C35 H20 F5 N5 O5'
_chemical_name_systematic        
36,37,38,39,40-Pentafluoro-2,9,16,23,30-pentaazahexacyclo-[30.3.1.1^4,8^.1^11,15^.1^18,22^.1^25,29^]tetraconta-1(36),4(40),5,7,11(39),12,14,18(38),19,21,25(37),26,28,32,34-pentadecaene-3,10,17,24,31-pentone
_symmetry_cell_setting           monoclinic
_symmetry_space_group_name_H-M   'P 21/c'
_symmetry_Int_Tables_number      14
_space_group_name_Hall           '-P 2ybc'
loop_
_symmetry_equiv_pos_site_id
_symmetry_equiv_pos_as_xyz
1 x,y,z
2 -x,1/2+y,1/2-z
3 -x,-y,-z
4 x,1/2-y,1/2+z
_cell_length_a                   8.1372(6)
_cell_length_b                   27.310(2)
_cell_length_c                   13.1749(10)
_cell_angle_alpha                90
_cell_angle_beta                 100.158(2)
_cell_angle_gamma                90
_cell_volume                     2881.92
_exptl_crystal_colour            colorless
_exptl_crystal_description       rod
_cell_formula_units_Z            4
loop_
_atom_site_label
_atom_site_type_symbol
_atom_site_fract_x
_atom_site_fract_y
_atom_site_fract_z
O1 O 1.0940(16) 0.4309(7) -0.2918(10)
O2 O 1.0355(19) 0.7123(6) -0.2986(19)
O3 O 0.6315(18) 0.7916(5) 0.1447(10)
O4 O 0.2974(19) 0.5651(11) 0.3659(10)
O5 O 0.588(4) 0.3426(7) 0.120(4)
F1 F 0.9275(8) 0.5541(2) -0.1527(4)
F2 F 0.7825(10) 0.6623(2) -0.0689(6)
F3 F 0.6209(14) 0.6386(3) 0.1486(8)
F4 F 0.5658(10) 0.5143(2) 0.1518(6)
F5 F 0.7638(9) 0.4634(2) -0.0297(5)
N1 N 0.9409(10) 0.4571(3) -0.1725(6)
H1 H 0.9047 0.4833 -0.1458
N2 N 0.9569(10) 0.6448(3) -0.2179(6)
H2 H 0.9027 0.6364 -0.1694
N3 N 0.6713(10) 0.7219(3) 0.0592(6)
H3 H 0.6582 0.6903 0.0561
N4 N 0.5100(11) 0.5853(3) 0.2915(6)
H4 H 0.5941 0.5750 0.2648
N5 N 0.6089(11) 0.4220(3) 0.1124(6)
H5 H 0.6294 0.4470 0.0756
C1 C 1.0303(16) 0.4643(3) -0.2515(9)
C2 C 0.9818(12) 0.6924(3) -0.2291(7)
C3 C 0.6064(13) 0.7455(3) 0.1335(7)
C4 C 0.4166(12) 0.5510(3) 0.3277(8)
C5 C 0.6496(12) 0.3773(3) 0.0823(7)
C6 C 1.0385(5) 0.51735(10) -0.2897(3)
C7 C 1.0971(6) 0.52242(12) -0.3820(3)
H6 H 1.1260 0.4945 -0.4168
C8 C 1.1131(7) 0.56873(12) -0.4229(3)
H7 H 1.1528 0.5722 -0.4854
C9 C 1.0704(6) 0.60998(12) -0.3715(3)
H8 H 1.0812 0.6413 -0.3992
C10 C 1.0117(5) 0.60492(10) -0.2792(2)
C11 C 0.9957(5) 0.55860(10) -0.2382(2)
C12 C 0.9143(5) 0.72557(8) -0.1500(3)
C13 C 0.9506(6) 0.77505(9) -0.1572(3)
H9 H 1.0153 0.7858 -0.2053
C14 C 0.8911(7) 0.80866(8) -0.0932(3)
H10 H 0.9156 0.8421 -0.0980
C15 C 0.7954(6) 0.79279(8) -0.0219(3)
H11 H 0.7552 0.8155 0.0213
C16 C 0.7592(5) 0.74331(7) -0.0148(3)
C17 C 0.8186(5) 0.70970(8) -0.0788(3)
C18 C 0.5285(5) 0.71266(9) 0.2091(3)
C19 C 0.4498(6) 0.73774(10) 0.2789(3)
H12 H 0.4380 0.7720 0.2742
C20 C 0.3885(6) 0.71224(11) 0.3555(3)
H13 H 0.3352 0.7292 0.4027
C21 C 0.4059(6) 0.66166(11) 0.3624(3)
H14 H 0.3644 0.6444 0.4143
C22 C 0.4846(5) 0.63658(10) 0.2927(2)
C23 C 0.5459(5) 0.66208(9) 0.2160(2)
C24 C 0.4493(5) 0.49633(10) 0.3044(3)
C25 C 0.4057(6) 0.46198(11) 0.3729(3)
H15 H 0.3624 0.4723 0.4309
C26 C 0.4263(6) 0.41233(11) 0.3556(3)
H16 H 0.3969 0.3891 0.4018
C27 C 0.4904(6) 0.39704(9) 0.2698(3)
H17 H 0.5043 0.3635 0.2580
C28 C 0.5340(5) 0.43139(9) 0.2013(3)
C29 C 0.5134(4) 0.48104(9) 0.2186(2)
C30 C 0.7530(5) 0.37605(7) -0.0069(3)
C31 C 0.7987(6) 0.32960(8) -0.0349(3)
H18 H 0.7637 0.3018 -0.0025
C32 C 0.8962(6) 0.32430(8) -0.1109(3)
H19 H 0.9272 0.2929 -0.1298
C33 C 0.9480(6) 0.36544(9) -0.1588(3)
H20 H 1.0140 0.3618 -0.2101
C34 C 0.9023(5) 0.41188(8) -0.1307(3)
C35 C 0.8048(5) 0.41718(8) -0.0548(3)
C36? C 0.8047(8) 0.80567(9) -0.0254(4)
C37? C 0.7532(7) 0.75920(9) -0.0014(4)
C38? C 0.7932(6) 0.71875(10) -0.0563(3)
C39? C 0.5346(6) 0.70152(11) 0.2049(3)
C40? C 0.4636(7) 0.73525(12) 0.2634(4)
C41? C 0.3847(8) 0.71923(13) 0.3427(4)
C42? C 0.3768(7) 0.66948(14) 0.3636(4)
C43? C 0.4478(6) 0.63575(12) 0.3051(3)
C44? C 0.5267(6) 0.65177(11) 0.2258(3)
C45? C 0.4890(6) 0.49536(12) 0.2876(3)
C46? C 1.0222(7) 0.53333(13) -0.2798(3)
C47? C 0.4179(7) 0.46854(13) 0.3584(4)
C48? C 0.4073(7) 0.41785(13) 0.3502(4)
C49? C 0.4679(7) 0.39398(12) 0.2712(4)
C50? C 0.5391(6) 0.42080(11) 0.2004(4)
C51? C 0.5496(5) 0.47150(11) 0.2086(3)
C52? C 0.7762(6) 0.39236(9) -0.0220(4)
C53? C 0.8034(7) 0.34272(9) -0.0354(4)
C54? C 0.9005(8) 0.32745(10) -0.1064(4)
C55? C 0.9702(8) 0.36184(11) -0.1640(4)
C56? C 0.9430(7) 0.41148(11) -0.1506(4)
C57? C 1.0929(8) 0.52886(15) -0.3680(4)
C58? C 0.8459(6) 0.42674(10) -0.0796(3)
C59? C 1.021(2) 0.4457(5) -0.2214(11)
C60? C 1.0091(14) 0.6739(3) -0.2597(8)
C61? C 0.6501(15) 0.7573(4) 0.0869(8)
C62? C 0.4131(15) 0.5814(3) 0.3292(9)
C63? C 0.6123(17) 0.3866(5) 0.1252(10)
C64? C 1.1309(8) 0.57052(16) -0.4199(4)
C65? C 1.0982(8) 0.61666(15) -0.3836(4)
C66? C 1.0275(7) 0.62112(13) -0.2954(3)
C67? C 0.9895(6) 0.57946(12) -0.2435(3)
C68? C 0.8846(7) 0.72477(10) -0.1351(3)
C69? C 0.9361(8) 0.77124(11) -0.1591(4)
C70? C 0.8961(8) 0.81168(10) -0.1042(4)
F6? F 0.9257(11) 0.5834(3) -0.1561(6)
F7? F 0.7457(14) 0.6736(3) -0.0348(8)
F8? F 0.5850(18) 0.6215(4) 0.1599(11)
F9? F 0.6108(13) 0.4974(3) 0.1363(8)
F10? F 0.8146(12) 0.4739(3) -0.0603(6)
H21? H 0.7776 0.8330 0.0117
H22? H 0.4690 0.7689 0.2493
H23? H 0.3367 0.7420 0.3822
H24? H 0.3235 0.6586 0.4172
H25? H 0.3769 0.4847 0.4118
H26? H 0.3592 0.3997 0.3981
H27? H 0.4608 0.3597 0.2657
H28? H 0.7563 0.3195 0.0036
H29? H 0.9189 0.2939 -0.1154
H30? H 1.0358 0.3515 -0.2120
H31? H 1.1151 0.4977 -0.3926
H32? H 1.1787 0.5675 -0.4795
H33? H 1.1239 0.6448 -0.4187
H34? H 0.9196 0.5032 -0.1686
H35? H 0.8943 0.6522 -0.1545
H36? H 0.6308 0.6857 0.0842
H37? H 0.5833 0.5595 0.2524
H38? H 0.6792 0.4446 0.0557
H39? H 0.9980 0.7753 -0.2124
H40? H 0.9309 0.8431 -0.1204
N6? N 0.9780(13) 0.4951(3) -0.2153(8)
N7? N 0.9263(12) 0.6790(4) -0.1809(7)
N8? N 0.6083(13) 0.7108(4) 0.1201(7)
N9? N 0.5072(14) 0.5479(3) 0.2847(8)
N10? N 0.6871(13) 0.4128(4) 0.0541(7)
O6? O 1.132(2) 0.4339(9) -0.2684(14)
O7? O 1.087(3) 0.7050(8) -0.296(3)
O8? O 0.590(2) 0.7940(6) 0.1190(14)
O9? O 0.332(3) 0.5662(14) 0.3924(15)
O10? O 0.632(6) 0.3424(9) 0.128(6)
loop_
_geom_bond_atom_site_label_1
_geom_bond_atom_site_label_2
_geom_bond_site_symmetry_1
_geom_bond_site_symmetry_2
O1 C1 1_555 1_555
O2 C2 1_555 1_555
O3 C3 1_555 1_555
O4 C4 1_555 1_555
O5 C5 1_555 1_555
F1 C11 1_555 1_555
F2 C17 1_555 1_555
F3 C23 1_555 1_555
F4 C29 1_555 1_555
F5 C35 1_555 1_555
N1 H1 1_555 1_555
N2 H2 1_555 1_555
N3 H3 1_555 1_555
N4 H4 1_555 1_555
N5 H5 1_555 1_555
C1 N1 1_555 1_555
C2 N2 1_555 1_555
C3 N3 1_555 1_555
C4 N4 1_555 1_555
C5 N5 1_555 1_555
C6 C1 1_555 1_555
C7 C6 1_555 1_555
H6 C7 1_555 1_555
C8 C7 1_555 1_555
H7 C8 1_555 1_555
C9 C8 1_555 1_555
H8 C9 1_555 1_555
C10 N2 1_555 1_555
C11 C6 1_555 1_555
C12 C2 1_555 1_555
C13 C12 1_555 1_555
H9 C13 1_555 1_555
C14 C13 1_555 1_555
H10 C14 1_555 1_555
C15 C14 1_555 1_555
H11 C15 1_555 1_555
C16 N3 1_555 1_555
C17 C12 1_555 1_555
C18 C3 1_555 1_555
C19 C18 1_555 1_555
H12 C19 1_555 1_555
C20 C19 1_555 1_555
H13 C20 1_555 1_555
C21 C20 1_555 1_555
H14 C21 1_555 1_555
C22 N4 1_555 1_555
C23 C18 1_555 1_555
C24 C4 1_555 1_555
C25 C24 1_555 1_555
H15 C25 1_555 1_555
C26 C25 1_555 1_555
H16 C26 1_555 1_555
C27 C26 1_555 1_555
H17 C27 1_555 1_555
C28 N5 1_555 1_555
C29 C24 1_555 1_555
C30 C5 1_555 1_555
C31 C30 1_555 1_555
H18 C31 1_555 1_555
C32 C31 1_555 1_555
H19 C32 1_555 1_555
C33 C32 1_555 1_555
H20 C33 1_555 1_555
C34 N1 1_555 1_555
C35 C30 1_555 1_555
C9 C10 1_555 1_555
C10 C11 1_555 1_555
C15 C16 1_555 1_555
C16 C17 1_555 1_555
C21 C22 1_555 1_555
C22 C23 1_555 1_555
C27 C28 1_555 1_555
C28 C29 1_555 1_555
C33 C34 1_555 1_555
C34 C35 1_555 1_555

#END
