
#######################################################################
#
#                 Cambridge Crystallographic Data Centre
#                                CCDC 
#
#######################################################################
#
# If this CIF has been generated from an entry in the Cambridge 
# Structural Database, then it will include bibliographic, chemical, 
# crystal, experimental, refinement or atomic coordinate data resulting 
# from the CCDC's data processing and validation procedures.
#
#######################################################################

data_DAHRAI
_chemical_formula_moiety         'C17 H21 F6 N3 O2'
_chemical_name_systematic        
N^2^-((3,5-bis(trifluoromethyl)phenyl)carbamoyl)-N,N,3-trimethylvalinamide
_symmetry_cell_setting           orthorhombic
_symmetry_space_group_name_H-M   'P 21 21 21'
_symmetry_Int_Tables_number      19
_space_group_name_Hall           'P 2ac 2ab'
loop_
_symmetry_equiv_pos_site_id
_symmetry_equiv_pos_as_xyz
1 x,y,z
2 1/2-x,-y,1/2+z
3 1/2+x,1/2-y,-z
4 -x,1/2+y,1/2-z
_cell_length_a                   7.4063(2)
_cell_length_b                   20.7172(5)
_cell_length_c                   24.9402(6)
_cell_angle_alpha                90
_cell_angle_beta                 90
_cell_angle_gamma                90
_cell_volume                     3826.77
_exptl_crystal_colour            colorless
_exptl_crystal_description       block
_cell_formula_units_Z            8
loop_
_atom_site_label
_atom_site_type_symbol
_atom_site_fract_x
_atom_site_fract_y
_atom_site_fract_z
C1 C -0.0059(2) 0.26729(7) 0.82944(6)
H1 H -0.0182 0.2226 0.8216
C2 C -0.0062(2) 0.28879(8) 0.88224(6)
C3 C 0.0083(2) 0.35361(8) 0.89524(6)
H2 H 0.0083 0.3674 0.9316
C4 C 0.0227(2) 0.39765(7) 0.85372(6)
C5 C 0.0251(2) 0.37756(7) 0.80053(6)
H3 H 0.0350 0.4085 0.7726
C6 C 0.0129(2) 0.31224(7) 0.78814(6)
C7 C 0.0875(2) 0.23727(7) 0.71463(6)
C8 C 0.2232(2) 0.18395(8) 0.63868(6)
H4 H 0.1814 0.1429 0.6557
C9 C 0.4197(2) 0.19519(8) 0.65567(6)
C10 C 0.4409(3) 0.08431(8) 0.69310(7)
H5 H 0.3246 0.0905 0.7111
H6 H 0.5250 0.0627 0.7176
H7 H 0.4237 0.0577 0.6610
C11 C 0.7060(2) 0.15740(11) 0.69049(8)
H8 H 0.7491 0.1964 0.6723
H9 H 0.7767 0.1201 0.6784
H10 H 0.7199 0.1626 0.7293
C12 C -0.0156(2) 0.23994(8) 0.92678(6)
C13 C 0.0429(2) 0.46827(8) 0.86520(7)
C14 C 0.2014(3) 0.17650(8) 0.57690(7)
C15 C 0.3240(3) 0.12180(9) 0.55756(7)
H11 H 0.4502 0.1330 0.5647
H12 H 0.3070 0.1154 0.5190
H13 H 0.2932 0.0819 0.5766
C16 C 0.2471(3) 0.23831(9) 0.54631(7)
H14 H 0.1655 0.2730 0.5577
H15 H 0.2328 0.2308 0.5077
H16 H 0.3721 0.2508 0.5539
C17 C 0.0053(3) 0.15849(9) 0.56531(7)
H17 H -0.0262 0.1193 0.5852
H18 H -0.0097 0.1507 0.5268
H19 H -0.0740 0.1939 0.5765
N1 N 0.0178(2) 0.29440(6) 0.73371(5)
N2 N 0.1138(2) 0.23639(7) 0.66026(6)
N3 N 0.51470(19) 0.14703(7) 0.67762(5)
O1 O 0.12118(16) 0.19054(5) 0.74275(4)
O2 O 0.48544(19) 0.24994(6) 0.64898(5)
F1 F -0.09640(19) 0.18544(6) 0.91203(4)
F2 F -0.1068(2) 0.26153(6) 0.96907(4)
F3 F 0.14641(15) 0.22355(6) 0.94430(5)
F4 F 0.01477(17) 0.48311(5) 0.91647(4)
F5 F -0.07312(17) 0.50422(5) 0.83627(5)
F6 F 0.20807(15) 0.49064(5) 0.85332(5)
H20 H 0.118(3) 0.2706(10) 0.6469(8)
H21 H -0.002(3) 0.3259(10) 0.7108(8)
C18 C 0.5248(2) 0.37000(8) 0.82761(6)
H22 H 0.5383 0.4147 0.8201
C19 C 0.5273(2) 0.34790(8) 0.88000(6)
C20 C 0.5101(2) 0.28288(8) 0.89261(6)
H23 H 0.5112 0.2686 0.9288
C21 C 0.4911(2) 0.23958(7) 0.85063(6)
C22 C 0.4858(2) 0.26069(7) 0.79763(6)
H24 H 0.4708 0.2304 0.7694
C23 C 0.5022(2) 0.32574(7) 0.78595(6)
C24 C 0.4176(2) 0.40224(7) 0.71455(6)
C25 C 0.2791(2) 0.45859(7) 0.64122(6)
H25 H 0.3200 0.4991 0.6593
C26 C 0.0833(2) 0.44521(8) 0.65900(6)
C27 C -0.2044(2) 0.48040(9) 0.69393(8)
H26 H -0.2457 0.4420 0.6746
H27 H -0.2763 0.5178 0.6829
H28 H -0.2186 0.4736 0.7326
C28 C 0.0569(2) 0.55536(8) 0.69810(7)
H29 H 0.1793 0.5502 0.7124
H30 H -0.0214 0.5737 0.7259
H31 H 0.0597 0.5844 0.6671
C29 C 0.4683(2) 0.16918(8) 0.86153(7)
C30 C 0.2951(2) 0.46896(8) 0.57959(6)
C31 C 0.1788(3) 0.52687(9) 0.56419(7)
H32 H 0.0515 0.5168 0.5709
H33 H 0.1958 0.5366 0.5261
H34 H 0.2144 0.5644 0.5857
C32 C 0.2343(3) 0.41026(9) 0.54772(7)
H35 H 0.3117 0.3734 0.5565
H36 H 0.2434 0.4196 0.5093
H37 H 0.1088 0.4000 0.5568
C33 C 0.4932(3) 0.48395(9) 0.56644(7)
H38 H 0.5338 0.5207 0.5880
H39 H 0.5044 0.4945 0.5283
H40 H 0.5679 0.4462 0.5746
N4 N 0.4948(2) 0.34526(6) 0.73178(5)
N5 N 0.3920(2) 0.40584(7) 0.66057(5)
N6 N -0.01346(19) 0.49220(6) 0.68161(5)
O3 O 0.37724(17) 0.44653(5) 0.74454(4)
O4 O 0.02114(17) 0.39004(5) 0.65201(4)
C34 C 0.5377(2) 0.39574(8) 0.92514(6)
F7 F 0.6163(4) 0.45134(6) 0.91032(6)
F8 F 0.6309(3) 0.37438(14) 0.96683(10)
F9 F 0.37357(19) 0.41144(14) 0.94270(10)
F10 F 0.58241(17) 0.13296(5) 0.83228(5)
F11 F 0.30200(15) 0.14775(5) 0.85024(5)
F12 F 0.49823(16) 0.15376(5) 0.91288(4)
H41 H 0.506(3) 0.3143(9) 0.7084(7)
H42 H 0.401(3) 0.3734(12) 0.6444(9)
F13? F 0.525(6) 0.4555(8) 0.9166(10)
F14? F 0.662(5) 0.382(3) 0.9613(19)
F15? F 0.388(3) 0.386(2) 0.9582(13)
loop_
_geom_bond_atom_site_label_1
_geom_bond_atom_site_label_2
_geom_bond_site_symmetry_1
_geom_bond_site_symmetry_2
C1 H1 1_555 1_555
C2 C1 1_555 1_555
C3 C2 1_555 1_555
H2 C3 1_555 1_555
C4 C3 1_555 1_555
C5 C4 1_555 1_555
H3 C5 1_555 1_555
C6 C1 1_555 1_555
C7 N1 1_555 1_555
C8 H4 1_555 1_555
C9 C8 1_555 1_555
C10 H5 1_555 1_555
H6 C10 1_555 1_555
H7 C10 1_555 1_555
C11 H8 1_555 1_555
H9 C11 1_555 1_555
H10 C11 1_555 1_555
C12 C2 1_555 1_555
C13 C4 1_555 1_555
C14 C8 1_555 1_555
C15 C14 1_555 1_555
H11 C15 1_555 1_555
H12 C15 1_555 1_555
H13 C15 1_555 1_555
C16 C14 1_555 1_555
H14 C16 1_555 1_555
H15 C16 1_555 1_555
H16 C16 1_555 1_555
C17 C14 1_555 1_555
H17 C17 1_555 1_555
H18 C17 1_555 1_555
H19 C17 1_555 1_555
N1 C6 1_555 1_555
N2 C7 1_555 1_555
N3 C9 1_555 1_555
O1 C7 1_555 1_555
O2 C9 1_555 1_555
F1 C12 1_555 1_555
F2 C12 1_555 1_555
F3 C12 1_555 1_555
F4 C13 1_555 1_555
F5 C13 1_555 1_555
F6 C13 1_555 1_555
H20 N2 1_555 1_555
H21 N1 1_555 1_555
C18 H22 1_555 1_555
C19 C18 1_555 1_555
C20 C19 1_555 1_555
H23 C20 1_555 1_555
C21 C20 1_555 1_555
C22 C21 1_555 1_555
H24 C22 1_555 1_555
C23 C18 1_555 1_555
C24 N4 1_555 1_555
C25 H25 1_555 1_555
C26 C25 1_555 1_555
C27 H26 1_555 1_555
H27 C27 1_555 1_555
H28 C27 1_555 1_555
C28 H29 1_555 1_555
H30 C28 1_555 1_555
H31 C28 1_555 1_555
C29 C21 1_555 1_555
C30 C25 1_555 1_555
C31 C30 1_555 1_555
H32 C31 1_555 1_555
H33 C31 1_555 1_555
H34 C31 1_555 1_555
C32 C30 1_555 1_555
H35 C32 1_555 1_555
H36 C32 1_555 1_555
H37 C32 1_555 1_555
C33 C30 1_555 1_555
H38 C33 1_555 1_555
H39 C33 1_555 1_555
H40 C33 1_555 1_555
N4 C23 1_555 1_555
N5 C24 1_555 1_555
N6 C26 1_555 1_555
O3 C24 1_555 1_555
O4 C26 1_555 1_555
C34 C19 1_555 1_555
F7 C34 1_555 1_555
F8 C34 1_555 1_555
F9 C34 1_555 1_555
F10 C29 1_555 1_555
F11 C29 1_555 1_555
F12 C29 1_555 1_555
H41 N4 1_555 1_555
H42 N5 1_555 1_555
C5 C6 1_555 1_555
C8 N2 1_555 1_555
C10 N3 1_555 1_555
C11 N3 1_555 1_555
C22 C23 1_555 1_555
C25 N5 1_555 1_555
C27 N6 1_555 1_555
C28 N6 1_555 1_555

#END
