
#######################################################################
#
#                 Cambridge Crystallographic Data Centre
#                                CCDC 
#
#######################################################################
#
# If this CIF has been generated from an entry in the Cambridge 
# Structural Database, then it will include bibliographic, chemical, 
# crystal, experimental, refinement or atomic coordinate data resulting 
# from the CCDC's data processing and validation procedures.
#
#######################################################################

data_DAHWUH
_chemical_formula_moiety         'C23 H29 N1 O4 S1'
_chemical_name_systematic        
'4-(1-(t-butylamino)-4-methyl-1-oxopent-2-en-2-yl)phenyl 4-methylbenzenesulfonate'
_symmetry_cell_setting           monoclinic
_symmetry_space_group_name_H-M   'P 21/n'
_symmetry_Int_Tables_number      14
_space_group_name_Hall           '-P 2yn'
loop_
_symmetry_equiv_pos_site_id
_symmetry_equiv_pos_as_xyz
1 x,y,z
2 1/2-x,1/2+y,1/2-z
3 -x,-y,-z
4 1/2+x,1/2-y,1/2+z
_cell_length_a                   9.6344(10)
_cell_length_b                   9.5419(12)
_cell_length_c                   24.422(3)
_cell_angle_alpha                90
_cell_angle_beta                 101.317(4)
_cell_angle_gamma                90
_cell_volume                     2201.47
_exptl_crystal_colour            colorless
_exptl_crystal_description       Prism
_cell_formula_units_Z            4
loop_
_atom_site_label
_atom_site_type_symbol
_atom_site_fract_x
_atom_site_fract_y
_atom_site_fract_z
C1 C 0.71188(12) 0.15445(12) 0.20241(5)
C2 C 0.63843(13) 0.04829(12) 0.16989(5)
H1 H 0.6857 -0.0144 0.1508
C3 C 0.49338(13) 0.03766(13) 0.16640(5)
H2 H 0.4430 -0.0322 0.1445
C4 C 0.42208(12) 0.13051(12) 0.19536(5)
C5 C 0.49814(13) 0.23724(12) 0.22672(5)
H3 H 0.4511 0.3004 0.2456
C6 C 0.64304(12) 0.25079(12) 0.23018(5)
H4 H 0.6930 0.3231 0.2507
C7 C 0.26578(13) 0.11479(14) 0.19338(5)
H5 H 0.2330 0.1913 0.2130
H6 H 0.2482 0.0280 0.2107
H7 H 0.2164 0.1151 0.1552
C8 C 0.83269(12) 0.35772(12) 0.13171(5)
C9 C 0.73921(15) 0.34419(13) 0.08154(5)
H8 H 0.7295 0.2593 0.0625
C10 C 0.65977(15) 0.46005(14) 0.06005(5)
H9 H 0.5961 0.4519 0.0263
C11 C 0.67296(12) 0.58779(12) 0.08773(5)
C12 C 0.76853(14) 0.59701(12) 0.13828(5)
H10 H 0.7785 0.6816 0.1576
C13 C 0.84971(13) 0.48217(12) 0.16065(5)
H11 H 0.9139 0.4895 0.1944
C14 C 0.58829(13) 0.71256(12) 0.06352(5)
C15 C 0.64295(13) 0.81298(12) 0.03596(5)
H12 H 0.5844 0.8885 0.0233
C16 C 0.78890(14) 0.81610(13) 0.02343(5)
H13 H 0.8361 0.7271 0.0353
C17 C 0.77904(16) 0.83273(15) -0.03961(6)
H14 H 0.7188 0.7610 -0.0590
H15 H 0.8718 0.8245 -0.0482
H16 H 0.7404 0.9231 -0.0512
C18 C 0.87622(15) 0.93580(15) 0.05463(6)
H17 H 0.8306 1.0236 0.0435
H18 H 0.9691 0.9356 0.0459
H19 H 0.8837 0.9233 0.0941
C19 C 0.43516(13) 0.72503(12) 0.06871(5)
C20 C 0.24688(13) 0.61447(13) 0.11375(5)
C21 C 0.25443(15) 0.49179(14) 0.15438(6)
H20 H 0.2804 0.4081 0.1370
H21 H 0.1637 0.4788 0.1643
H22 H 0.3239 0.5113 0.1874
C22 C 0.14084(14) 0.58279(15) 0.05961(6)
H23 H 0.1378 0.6603 0.0343
H24 H 0.0486 0.5684 0.0679
H25 H 0.1698 0.4998 0.0427
C23 C 0.20541(14) 0.74774(14) 0.14119(6)
H26 H 0.2736 0.7663 0.1747
H27 H 0.1136 0.7357 0.1502
H28 H 0.2030 0.8251 0.1159
H29 H 0.4526(18) 0.5726(18) 0.1189(7)
N1 N 0.39100(11) 0.62847(11) 0.10182(4)
O1 O 0.95282(9) 0.25706(10) 0.25332(4)
O2 O 0.95492(9) 0.02990(9) 0.20529(4)
O3 O 0.91400(9) 0.23741(9) 0.15064(4)
O4 O 0.35731(9) 0.81676(9) 0.04377(4)
S1 S 0.89565(3) 0.16608(3) 0.20824(2)
loop_
_geom_bond_atom_site_label_1
_geom_bond_atom_site_label_2
_geom_bond_site_symmetry_1
_geom_bond_site_symmetry_2
C1 C2 1_555 1_555
C2 H1 1_555 1_555
C3 C2 1_555 1_555
H2 C3 1_555 1_555
C4 C3 1_555 1_555
C5 C4 1_555 1_555
H3 C5 1_555 1_555
C6 C1 1_555 1_555
H4 C6 1_555 1_555
C7 C4 1_555 1_555
H5 C7 1_555 1_555
H6 C7 1_555 1_555
H7 C7 1_555 1_555
C8 C9 1_555 1_555
C9 H8 1_555 1_555
C10 C9 1_555 1_555
H9 C10 1_555 1_555
C11 C10 1_555 1_555
C12 C11 1_555 1_555
H10 C12 1_555 1_555
C13 C8 1_555 1_555
H11 C13 1_555 1_555
C14 C11 1_555 1_555
C15 C14 1_555 1_555
H12 C15 1_555 1_555
C16 C15 1_555 1_555
H13 C16 1_555 1_555
C17 C16 1_555 1_555
H14 C17 1_555 1_555
H15 C17 1_555 1_555
H16 C17 1_555 1_555
C18 C16 1_555 1_555
H17 C18 1_555 1_555
H18 C18 1_555 1_555
H19 C18 1_555 1_555
C19 C14 1_555 1_555
C20 C21 1_555 1_555
C21 H20 1_555 1_555
H21 C21 1_555 1_555
H22 C21 1_555 1_555
C22 C20 1_555 1_555
H23 C22 1_555 1_555
H24 C22 1_555 1_555
H25 C22 1_555 1_555
C23 C20 1_555 1_555
H26 C23 1_555 1_555
H27 C23 1_555 1_555
H28 C23 1_555 1_555
H29 N1 1_555 1_555
N1 C19 1_555 1_555
O1 S1 1_555 1_555
O2 S1 1_555 1_555
O3 C8 1_555 1_555
O4 C19 1_555 1_555
S1 C1 1_555 1_555
C5 C6 1_555 1_555
C12 C13 1_555 1_555
C20 N1 1_555 1_555
O3 S1 1_555 1_555

#END
