
#######################################################################
#
#                 Cambridge Crystallographic Data Centre
#                                CCDC 
#
#######################################################################
#
# If this CIF has been generated from an entry in the Cambridge 
# Structural Database, then it will include bibliographic, chemical, 
# crystal, experimental, refinement or atomic coordinate data resulting 
# from the CCDC's data processing and validation procedures.
#
#######################################################################

data_DAHXAM
_chemical_formula_moiety         'C17 H16 N2 O3'
_chemical_name_systematic        
5-(3,4-Dimethoxyphenyl)-1-phenyl-3-hydroxypyrazole
_symmetry_cell_setting           triclinic
_symmetry_space_group_name_H-M   'P -1'
_symmetry_Int_Tables_number      2
_space_group_name_Hall           '-P 1'
loop_
_symmetry_equiv_pos_site_id
_symmetry_equiv_pos_as_xyz
1 x,y,z
2 -x,-y,-z
_cell_length_a                   6.6600(13)
_cell_length_b                   8.4200(17)
_cell_length_c                   14.060(3)
_cell_angle_alpha                85.61(3)
_cell_angle_beta                 76.89(3)
_cell_angle_gamma                81.18(3)
_cell_volume                     758.1
_exptl_crystal_colour            colorless
_chemical_melting_point          228deg.C
_cell_formula_units_Z            2
loop_
_atom_site_label
_atom_site_type_symbol
_atom_site_fract_x
_atom_site_fract_y
_atom_site_fract_z
O1 O -0.0238(4) 0.0991(3) 0.10667(16)
O2 O -0.3640(4) -0.0002(3) 0.20625(17)
O3 O 0.3469(3) 0.3640(3) 0.59282(14)
H1 H 0.4324 0.4269 0.5850
N1 N 0.2386(4) 0.4184(3) 0.36438(16)
N2 N 0.3453(3) 0.4533(3) 0.43195(16)
C1 C 0.3360(8) 0.6585(5) 0.0909(3)
H2 H 0.3578 0.7098 0.0292
C2 C 0.5004(7) 0.5701(5) 0.1232(3)
H3 H 0.6336 0.5636 0.0837
C3 C 0.4697(5) 0.4910(4) 0.2134(2)
H4 H 0.5809 0.4305 0.2352
C4 C 0.2701(5) 0.5028(3) 0.27144(19)
C5 C 0.1056(5) 0.5938(4) 0.2412(2)
H5 H -0.0269 0.6034 0.2815
C6 C 0.1389(7) 0.6716(4) 0.1497(3)
H6 H 0.0281 0.7327 0.1280
C7 C 0.2754(4) 0.3641(3) 0.5108(2)
C8 C 0.1285(4) 0.2721(3) 0.4970(2)
H7 H 0.0599 0.2007 0.5420
C9 C 0.1063(4) 0.3092(3) 0.4027(2)
C10 C -0.0234(4) 0.2382(3) 0.3493(2)
C11 C -0.2036(5) 0.1835(3) 0.4015(2)
H8 H -0.2472 0.2004 0.4680
C12 C -0.3199(5) 0.1040(4) 0.3559(2)
H9 H -0.4411 0.0684 0.3921
C13 C -0.2585(5) 0.0769(3) 0.2577(2)
C14 C -0.0753(5) 0.1319(4) 0.2033(2)
C15 C 0.0380(5) 0.2117(3) 0.2489(2)
H10 H 0.1580 0.2490 0.2126
C16 C 0.1685(6) 0.1401(5) 0.0512(2)
H11 H 0.1865 0.1112 -0.0153
H12 H 0.2804 0.0832 0.0783
H13 H 0.1689 0.2538 0.0529
C17 C -0.5317(6) -0.0771(4) 0.2611(3)
H14 H -0.5924 -0.1272 0.2175
H15 H -0.6351 0.0012 0.2973
H16 H -0.4811 -0.1573 0.3055
loop_
_geom_bond_atom_site_label_1
_geom_bond_atom_site_label_2
_geom_bond_site_symmetry_1
_geom_bond_site_symmetry_2
O1 C14 1_555 1_555
O2 C13 1_555 1_555
O3 H1 1_555 1_555
N1 N2 1_555 1_555
N2 C7 1_555 1_555
C1 H2 1_555 1_555
C2 C1 1_555 1_555
H3 C2 1_555 1_555
C3 C2 1_555 1_555
H4 C3 1_555 1_555
C4 N1 1_555 1_555
C5 C4 1_555 1_555
H5 C5 1_555 1_555
C6 C1 1_555 1_555
H6 C6 1_555 1_555
C7 O3 1_555 1_555
C8 C7 1_555 1_555
H7 C8 1_555 1_555
C9 N1 1_555 1_555
C10 C9 1_555 1_555
C11 C10 1_555 1_555
H8 C11 1_555 1_555
C12 C11 1_555 1_555
H9 C12 1_555 1_555
C13 C12 1_555 1_555
C14 C13 1_555 1_555
C15 C10 1_555 1_555
H10 C15 1_555 1_555
C16 O1 1_555 1_555
H11 C16 1_555 1_555
H12 C16 1_555 1_555
H13 C16 1_555 1_555
C17 O2 1_555 1_555
H14 C17 1_555 1_555
H15 C17 1_555 1_555
H16 C17 1_555 1_555
C3 C4 1_555 1_555
C5 C6 1_555 1_555
C8 C9 1_555 1_555
C14 C15 1_555 1_555

#END
