
#######################################################################
#
#                 Cambridge Crystallographic Data Centre
#                                CCDC 
#
#######################################################################
#
# If this CIF has been generated from an entry in the Cambridge 
# Structural Database, then it will include bibliographic, chemical, 
# crystal, experimental, refinement or atomic coordinate data resulting 
# from the CCDC's data processing and validation procedures.
#
#######################################################################

data_DAJJAB
_chemical_formula_moiety         
'C63 H71 N5 O4,C10 H10 N2 O2,C4 H10 O1,3(C1 H1 Cl3)'
_chemical_name_systematic        
"11'-t-Butyl-5',17',23',35',38',40',43',45'-octamethyl-7',15',25',33',39'-pentaazadispiro[cyclohexane-1,2'-heptacyclo[32.2.2.2^3,6^.2^16,19^.2^21,24^.1^9,13^.1^27,31^]hexatetracontane-20',1''-cyclohexane]-1'(36'),3',5',9'(44'),10',12',16',18',21',23',27'(39'),28',30',34',37',40',42',45'-octadecaene-8',14',26',32'-tetrone 1,4-di(prop-2-yn-1-yl)piperazine-2,5-dione chloroform diethyl ether solvate"
_symmetry_cell_setting           triclinic
_symmetry_space_group_name_H-M   'P -1'
_symmetry_Int_Tables_number      2
_space_group_name_Hall           '-P 1'
loop_
_symmetry_equiv_pos_site_id
_symmetry_equiv_pos_as_xyz
1 x,y,z
2 -x,-y,-z
_cell_length_a                   12.3795(8)
_cell_length_b                   16.3654(10)
_cell_length_c                   21.5944(14)
_cell_angle_alpha                91.210(3)
_cell_angle_beta                 94.228(3)
_cell_angle_gamma                112.025(3)
_cell_volume                     4038.98
_exptl_crystal_colour            colorless
_exptl_crystal_description       prism
_cell_formula_units_Z            2
loop_
_atom_site_label
_atom_site_type_symbol
_atom_site_fract_x
_atom_site_fract_y
_atom_site_fract_z
Cl1 Cl 1.2864(4) 1.5069(3) 0.0310(3)
Cl2 Cl 1.3840(4) 1.3815(3) 0.07361(18)
Cl3 Cl 1.3714(3) 1.4176(2) -0.05380(14)
C4 C 1.3038(10) 1.4101(8) 0.0137(5)
H9 H 1.2245 1.362 0.007
Cl4 Cl 1.1080(3) 1.3893(2) 0.39640(19)
Cl5 Cl 0.9443(5) 1.3439(3) 0.29131(19)
Cl6 Cl 0.8857(4) 1.2586(2) 0.4062(2)
C8 C 0.9637(9) 1.3565(6) 0.3690(6)
H10 H 0.9349 1.4032 0.3821
Cl7 Cl 0.7733(3) 0.9172(3) 0.51205(15)
Cl8 Cl 0.7891(3) 1.0942(2) 0.50182(18)
Cl9 Cl 0.9041(3) 1.0156(4) 0.41784(18)
C80 C 0.7833(12) 0.9966(9) 0.4577(6)
H94 H 0.7116 0.9752 0.4278
O1 O 0.5316(5) 0.9704(3) 0.0929(2)
O4 O 0.9720(4) 0.5393(3) 0.4197(3)
O5 O 1.5398(5) 0.8651(3) 0.3951(3)
O6 O 1.0922(7) 1.2518(7) 0.0299(5)
N2 N 0.6996(6) 0.9506(4) 0.1261(3)
H1 H 0.7761 0.9725 0.125
N4 N 0.9892(5) 0.6748(4) 0.3896(3)
H2 H 1.037 0.7304 0.3898
N5 N 1.3810(5) 0.8961(4) 0.3648(3)
H3 H 1.3064 0.8811 0.3703
N6 N 1.0587(6) 1.1470(4) 0.0987(3)
H4 H 1.003 1.1023 0.1134
C7 C 0.6381(8) 0.9914(5) 0.0953(3)
C12 C 0.6498(7) 0.8745(5) 0.1602(4)
C14 C 0.5861(6) 0.7920(5) 0.1293(3)
C15 C 0.5534(7) 0.7173(5) 0.1645(4)
H15 H 0.5125 0.6612 0.1438
C17 C 0.5775(7) 0.7215(5) 0.2275(4)
C18 C 0.6371(7) 0.8057(5) 0.2579(4)
H18 H 0.654 0.8102 0.3017
C19 C 0.6715(7) 0.8823(5) 0.2247(4)
C20 C 0.5413(6) 0.6377(5) 0.2668(3)
C21 C 0.4495(6) 0.6439(5) 0.3114(3)
H19 H 0.4871 0.6964 0.3403
H20 H 0.3842 0.6519 0.2864
C22 C 0.4012(7) 0.5627(5) 0.3486(4)
H21 H 0.3395 0.5681 0.3732
H22 H 0.4645 0.5597 0.3781
C23 C 0.3502(7) 0.4779(5) 0.3080(4)
H23 H 0.2779 0.4757 0.2839
H24 H 0.3291 0.4267 0.3347
C24 C 0.4366(7) 0.4713(5) 0.2635(4)
H25 H 0.5032 0.4635 0.2874
H26 H 0.3978 0.4188 0.2346
C25 C 0.4819(7) 0.5529(5) 0.2264(4)
H27 H 0.4157 0.5575 0.2001
H28 H 0.5384 0.5463 0.1985
C26 C 0.6550(6) 0.6400(5) 0.3036(4)
C27 C 0.7276(7) 0.6045(5) 0.2764(4)
H29 H 0.702 0.5751 0.2365
C28 C 0.8361(6) 0.6096(5) 0.3043(4)
C29 C 0.8725(7) 0.6548(5) 0.3632(4)
C30 C 0.8001(7) 0.6893(5) 0.3923(4)
C31 C 0.6957(7) 0.6813(5) 0.3623(4)
H30 H 0.6479 0.7053 0.3827
C32 C 1.0343(7) 0.6191(5) 0.4139(4)
C33 C 1.1621(6) 0.6546(5) 0.4323(4)
C34 C 1.2110(6) 0.6177(5) 0.4772(4)
H31 H 1.1613 0.5672 0.4963
C35 C 1.3285(6) 0.6507(5) 0.4958(3)
C36 C 1.4006(7) 0.7265(5) 0.4680(3)
H32 H 1.4817 0.752 0.4814
C37 C 1.3552(6) 0.7650(5) 0.4213(3)
C38 C 1.2353(6) 0.7285(5) 0.4034(4)
H33 H 1.2032 0.7539 0.3715
C39 C 1.4362(7) 0.8459(5) 0.3928(3)
C40 C 1.4321(6) 0.9713(5) 0.3270(4)
C41 C 1.4904(7) 1.0570(5) 0.3549(4)
C42 C 1.5219(7) 1.1259(5) 0.3153(4)
H34 H 1.563 1.1841 0.333
C43 C 1.4968(7) 1.1150(5) 0.2508(4)
C44 C 1.4437(7) 1.0269(5) 0.2253(4)
H35 H 1.4286 1.0169 0.1814
C45 C 1.4132(7) 0.9550(5) 0.2627(4)
C46 C 1.5166(7) 1.1916(5) 0.2077(3)
C47 C 1.5807(7) 1.2822(5) 0.2443(4)
H36 H 1.5296 1.2895 0.2753
H37 H 1.6526 1.2815 0.2673
C48 C 1.6139(8) 1.3605(5) 0.2040(4)
H38 H 1.6563 1.4153 0.2301
H39 H 1.5424 1.3649 0.1833
C49 C 1.6924(8) 1.3502(5) 0.1545(4)
H40 H 1.7085 1.3995 0.1263
H41 H 1.768 1.3537 0.1754
C50 C 1.6365(8) 1.2638(5) 0.1167(4)
H42 H 1.692 1.2578 0.0879
H43 H 1.566 1.2631 0.0916
C51 C 1.6022(7) 1.1855(5) 0.1600(4)
H44 H 1.6738 1.1842 0.1828
H45 H 1.5648 1.1296 0.1343
C52 C 1.3987(7) 1.1852(5) 0.1776(4)
C53 C 1.3504(7) 1.1357(5) 0.1221(4)
H46 H 1.3958 1.1095 0.1017
C54 C 1.2408(7) 1.1228(5) 0.0952(4)
C55 C 1.1754(7) 1.1636(5) 0.1245(4)
C56 C 1.2191(7) 1.2158(5) 0.1793(4)
C57 C 1.3295(7) 1.2240(5) 0.2038(4)
H47 H 1.3602 1.2589 0.2414
C58 C 1.0235(9) 1.1906(7) 0.0553(5)
C59 C 0.8978(8) 1.1577(6) 0.0383(4)
C60 C 0.8520(9) 1.1936(7) -0.0101(5)
H48 H 0.9022 1.2389 -0.0333
C61 C 0.7349(9) 1.1626(6) -0.0234(5)
H49 H 0.703 1.1844 -0.0576
C62 C 0.6598(8) 1.0991(5) 0.0121(4)
H50 H 0.577 1.0778 0.0045
C63 C 0.7156(7) 1.0695(5) 0.0596(4)
N7 N 0.8279(6) 1.0958(4) 0.0727(3)
C64 C 0.5631(8) 0.7834(5) 0.0593(4)
H51 H 0.592 0.8422 0.0426
H52 H 0.4788 0.7545 0.0479
H53 H 0.6035 0.7481 0.0421
C65 C 0.7279(8) 0.9712(5) 0.2601(4)
H54 H 0.7345 0.9623 0.3047
H55 H 0.6798 1.0062 0.2519
H56 H 0.8061 1.0024 0.2465
C66 C 0.8402(8) 0.7359(6) 0.4558(4)
H57 H 0.9168 0.7349 0.4698
H58 H 0.7835 0.706 0.4853
H59 H 0.8464 0.7973 0.4534
C67 C 0.9088(7) 0.5686(6) 0.2724(4)
H60 H 0.981 0.5787 0.2987
H61 H 0.9282 0.5955 0.2325
H62 H 0.8646 0.5051 0.2651
C68 C 1.5114(8) 1.0722(6) 0.4234(4)
H63 H 1.485 1.0154 0.443
H64 H 1.4679 1.1072 0.4376
H65 H 1.5951 1.1041 0.4349
C69 C 1.3565(8) 0.8624(5) 0.2329(4)
H66 H 1.3387 0.8195 0.2654
H67 H 1.4101 0.8513 0.2058
H68 H 1.2839 0.8564 0.2083
C70 C 1.1865(8) 1.0622(7) 0.0367(4)
H69 H 1.243 1.0391 0.022
H70 H 1.1656 1.0959 0.0041
H71 H 1.1161 1.0131 0.0465
C71 C 1.1524(7) 1.2632(6) 0.2078(4)
H72 H 1.0771 1.249 0.1834
H73 H 1.1972 1.327 0.2085
H74 H 1.1388 1.2451 0.2504
C72 C 1.3777(6) 0.6062(5) 0.5457(4)
C73 C 1.3178(7) 0.6047(6) 0.6050(4)
H75 H 1.3342 0.6653 0.6204
H76 H 1.3474 0.5743 0.6367
H77 H 1.2331 0.5733 0.5963
C74 C 1.3515(8) 0.5104(6) 0.5229(4)
H78 H 1.3817 0.4809 0.555
H79 H 1.3894 0.5102 0.4847
H80 H 1.2668 0.4789 0.5147
C75 C 1.5116(7) 0.6526(6) 0.5612(5)
H81 H 1.5305 0.7139 0.5758
H82 H 1.5515 0.6517 0.5238
H83 H 1.5377 0.6215 0.5937
O2 O 0.9439(5) 0.9638(4) 0.1381(3)
O3 O 1.1165(5) 0.8608(4) 0.3437(3)
N1 N 0.9479(6) 0.8515(5) 0.1974(3)
N3 N 1.1113(6) 0.9729(4) 0.2852(3)
C1 C 0.8675(8) 0.7837(6) 0.1532(5)
H5 H 0.7923 0.755 0.1717
H6 H 0.8518 0.812 0.1153
C2 C 1.2067(7) 1.0415(5) 0.3243(4)
H7 H 1.227 1.0147 0.3619
H8 H 1.2769 1.0641 0.3009
C3 C 0.9793(8) 0.9383(5) 0.1853(5)
C5 C 0.9113(8) 0.7173(7) 0.1359(4)
C6 C 1.1746(8) 1.1143(7) 0.3430(4)
C9 C 1.1494(11) 1.1735(8) 0.3593(5)
H11 H 1.1291 1.2213 0.3725
C10 C 0.9441(9) 0.6609(8) 0.1233(5)
H12 H 0.9707 0.6152 0.1131
C11 C 0.9748(8) 0.8220(6) 0.2561(5)
H13 H 0.9953 0.7699 0.2484
H14 H 0.903 0.8019 0.2784
C13 C 1.0734(7) 0.8885(6) 0.2992(5)
C16 C 1.0669(9) 1.0055(6) 0.2301(5)
H16 H 1.1345 1.04 0.2073
H17 H 1.0312 1.0467 0.2444
O7 O 1.0747(7) 0.5266(5) 0.1128(4)
C76 C 1.0179(14) 0.4373(10) 0.1162(10)
H84 H 0.9757 0.4233 0.1542
H85 H 1.0736 0.4069 0.1162
C77 C 1.1647(12) 0.5641(12) 0.1590(7)
H86 H 1.2166 0.5305 0.1603
H87 H 1.1315 0.5599 0.1997
C78 C 1.2306(13) 0.6523(10) 0.1499(9)
H88 H 1.2903 0.6769 0.1849
H89 H 1.1793 0.6856 0.1471
H90 H 1.2687 0.6565 0.1112
C79 C 0.9298(16) 0.4094(15) 0.0559(10)
H91 H 0.8856 0.3455 0.0543
H92 H 0.9734 0.4252 0.0191
H93 H 0.8755 0.4402 0.057
loop_
_geom_bond_atom_site_label_1
_geom_bond_atom_site_label_2
_geom_bond_site_symmetry_1
_geom_bond_site_symmetry_2
Cl1 C4 1_555 1_555
Cl2 C4 1_555 1_555
Cl3 C4 1_555 1_555
Cl4 C8 1_555 1_555
Cl5 C8 1_555 1_555
Cl6 C8 1_555 1_555
Cl7 C80 1_555 1_555
Cl8 C80 1_555 1_555
Cl9 C80 1_555 1_555
O1 C7 1_555 1_555
O2 C3 1_555 1_555
O3 C13 1_555 1_555
O4 C32 1_555 1_555
O5 C39 1_555 1_555
O6 C58 1_555 1_555
N1 C1 1_555 1_555
N2 H1 1_555 1_555
N3 C2 1_555 1_555
N4 H2 1_555 1_555
N5 H3 1_555 1_555
N6 H4 1_555 1_555
C1 H5 1_555 1_555
H6 C1 1_555 1_555
C2 H7 1_555 1_555
H8 C2 1_555 1_555
C3 N1 1_555 1_555
C4 H9 1_555 1_555
C5 C1 1_555 1_555
C6 C2 1_555 1_555
C7 N2 1_555 1_555
C8 H10 1_555 1_555
C9 C6 1_555 1_555
H11 C9 1_555 1_555
C10 C5 1_555 1_555
H12 C10 1_555 1_555
C11 N1 1_555 1_555
H13 C11 1_555 1_555
H14 C11 1_555 1_555
C12 N2 1_555 1_555
C13 N3 1_555 1_555
C14 C12 1_555 1_555
C15 C14 1_555 1_555
H15 C15 1_555 1_555
C16 N3 1_555 1_555
H16 C16 1_555 1_555
H17 C16 1_555 1_555
C17 C15 1_555 1_555
C18 C17 1_555 1_555
H18 C18 1_555 1_555
C19 C12 1_555 1_555
C20 C17 1_555 1_555
C21 C20 1_555 1_555
H19 C21 1_555 1_555
H20 C21 1_555 1_555
C22 C21 1_555 1_555
H21 C22 1_555 1_555
H22 C22 1_555 1_555
C23 C22 1_555 1_555
H23 C23 1_555 1_555
H24 C23 1_555 1_555
C24 C23 1_555 1_555
H25 C24 1_555 1_555
H26 C24 1_555 1_555
C25 C20 1_555 1_555
H27 C25 1_555 1_555
H28 C25 1_555 1_555
C26 C20 1_555 1_555
C27 C26 1_555 1_555
H29 C27 1_555 1_555
C28 C27 1_555 1_555
C29 N4 1_555 1_555
C30 C29 1_555 1_555
C31 C26 1_555 1_555
H30 C31 1_555 1_555
C32 N4 1_555 1_555
C33 C32 1_555 1_555
C34 C33 1_555 1_555
H31 C34 1_555 1_555
C35 C34 1_555 1_555
C36 C35 1_555 1_555
H32 C36 1_555 1_555
C37 C36 1_555 1_555
C38 C33 1_555 1_555
H33 C38 1_555 1_555
C39 N5 1_555 1_555
C40 N5 1_555 1_555
C41 C40 1_555 1_555
C42 C41 1_555 1_555
H34 C42 1_555 1_555
C43 C42 1_555 1_555
C44 C43 1_555 1_555
H35 C44 1_555 1_555
C45 C40 1_555 1_555
C46 C43 1_555 1_555
C47 C46 1_555 1_555
H36 C47 1_555 1_555
H37 C47 1_555 1_555
C48 C47 1_555 1_555
H38 C48 1_555 1_555
H39 C48 1_555 1_555
C49 C48 1_555 1_555
H40 C49 1_555 1_555
H41 C49 1_555 1_555
C50 C49 1_555 1_555
H42 C50 1_555 1_555
H43 C50 1_555 1_555
C51 C46 1_555 1_555
H44 C51 1_555 1_555
H45 C51 1_555 1_555
C52 C46 1_555 1_555
C53 C52 1_555 1_555
H46 C53 1_555 1_555
C54 C53 1_555 1_555
C55 N6 1_555 1_555
C56 C55 1_555 1_555
C57 C52 1_555 1_555
H47 C57 1_555 1_555
C58 N6 1_555 1_555
C59 C58 1_555 1_555
C60 C59 1_555 1_555
H48 C60 1_555 1_555
C61 C60 1_555 1_555
H49 C61 1_555 1_555
C62 C61 1_555 1_555
H50 C62 1_555 1_555
C63 C7 1_555 1_555
N7 C59 1_555 1_555
C64 C14 1_555 1_555
H51 C64 1_555 1_555
H52 C64 1_555 1_555
H53 C64 1_555 1_555
C65 C19 1_555 1_555
H54 C65 1_555 1_555
H55 C65 1_555 1_555
H56 C65 1_555 1_555
C66 C30 1_555 1_555
H57 C66 1_555 1_555
H58 C66 1_555 1_555
H59 C66 1_555 1_555
C67 C28 1_555 1_555
H60 C67 1_555 1_555
H61 C67 1_555 1_555
H62 C67 1_555 1_555
C68 C41 1_555 1_555
H63 C68 1_555 1_555
H64 C68 1_555 1_555
H65 C68 1_555 1_555
C69 C45 1_555 1_555
H66 C69 1_555 1_555
H67 C69 1_555 1_555
H68 C69 1_555 1_555
C70 C54 1_555 1_555
H69 C70 1_555 1_555
H70 C70 1_555 1_555
H71 C70 1_555 1_555
C71 C56 1_555 1_555
H72 C71 1_555 1_555
H73 C71 1_555 1_555
H74 C71 1_555 1_555
C72 C35 1_555 1_555
C73 C72 1_555 1_555
H75 C73 1_555 1_555
H76 C73 1_555 1_555
H77 C73 1_555 1_555
C74 C72 1_555 1_555
H78 C74 1_555 1_555
H79 C74 1_555 1_555
H80 C74 1_555 1_555
C75 C72 1_555 1_555
H81 C75 1_555 1_555
H82 C75 1_555 1_555
H83 C75 1_555 1_555
O7 C76 1_555 1_555
C76 H84 1_555 1_555
H85 C76 1_555 1_555
C77 O7 1_555 1_555
H86 C77 1_555 1_555
H87 C77 1_555 1_555
C78 C77 1_555 1_555
H88 C78 1_555 1_555
H89 C78 1_555 1_555
H90 C78 1_555 1_555
C79 C76 1_555 1_555
H91 C79 1_555 1_555
H92 C79 1_555 1_555
H93 C79 1_555 1_555
C80 H94 1_555 1_555
C3 C16 1_555 1_555
C11 C13 1_555 1_555
C18 C19 1_555 1_555
C24 C25 1_555 1_555
C28 C29 1_555 1_555
C30 C31 1_555 1_555
C37 C38 1_555 1_555
C37 C39 1_555 1_555
C44 C45 1_555 1_555
C50 C51 1_555 1_555
C54 C55 1_555 1_555
C56 C57 1_555 1_555
C62 C63 1_555 1_555
C63 N7 1_555 1_555

#END
