
#######################################################################
#
#                 Cambridge Crystallographic Data Centre
#                                CCDC 
#
#######################################################################
#
# If this CIF has been generated from an entry in the Cambridge 
# Structural Database, then it will include bibliographic, chemical, 
# crystal, experimental, refinement or atomic coordinate data resulting 
# from the CCDC's data processing and validation procedures.
#
#######################################################################

data_DAJXIW
_chemical_formula_moiety         'C26 H20 N2 O1 S1'
_chemical_name_systematic        
2-(4-t-Butylphenyl)-5-(4-(2-(5-ethynyl-2-thienyl)ethynyl)phenyl)-1,3,4-oxadiazole
_symmetry_cell_setting           triclinic
_symmetry_space_group_name_H-M   'P -1'
_symmetry_Int_Tables_number      2
_space_group_name_Hall           '-P 1'
loop_
_symmetry_equiv_pos_site_id
_symmetry_equiv_pos_as_xyz
1 x,y,z
2 -x,-y,-z
_cell_length_a                   6.345(2)
_cell_length_b                   6.985(2)
_cell_length_c                   23.672(8)
_cell_angle_alpha                94.24(1)
_cell_angle_beta                 91.96(1)
_cell_angle_gamma                91.93(1)
_cell_volume                     1044.97
_exptl_crystal_colour            'pale yellow'
_exptl_crystal_description       needle
_chemical_melting_point          '443-445 K'
_cell_formula_units_Z            2
loop_
_atom_site_label
_atom_site_type_symbol
_atom_site_fract_x
_atom_site_fract_y
_atom_site_fract_z
S1 S 0.74711(8) 0.27255(8) 0.21304(2)
O1 O 0.37849(19) 0.22050(18) 0.62590(5)
N1 N 0.0656(3) 0.1953(2) 0.58130(6)
N2 N 0.0361(2) 0.1914(2) 0.63992(6)
C1 C 0.9427(3) 0.2665(3) 0.06398(9)
H1 H 0.9326 0.2570 0.0237
C2 C 0.9552(3) 0.2783(3) 0.11402(9)
C3 C 0.9706(3) 0.2921(3) 0.17427(8)
C5 C 1.1476(3) 0.3214(3) 0.20850(9)
H2 H 1.2845 0.3357 0.1940
C6 C 1.1046(5) 0.3251(5) 0.26665(12)
H3 H 1.2101 0.3458 0.2961
C7 C 0.8923(3) 0.3014(3) 0.27590(8)
C8 C 0.7894(3) 0.2933(3) 0.32791(8)
C9 C 0.6969(3) 0.2798(3) 0.37105(8)
C10 C 0.5894(3) 0.2603(3) 0.42260(8)
C11 C 0.3783(3) 0.1941(3) 0.42129(8)
H4 H 0.3058 0.1609 0.3859
C12 C 0.2752(3) 0.1765(3) 0.47112(8)
H5 H 0.1320 0.1318 0.4701
C13 C 0.5934(3) 0.2855(3) 0.52498(8)
H6 H 0.6669 0.3138 0.5604
C14 C 0.3808(3) 0.2246(3) 0.52322(7)
C15 C 0.6956(3) 0.3050(3) 0.47509(8)
H7 H 0.8393 0.3485 0.4763
C16 C 0.2675(3) 0.2117(3) 0.57542(7)
C17 C 0.2235(3) 0.2068(3) 0.66391(7)
C18 C 0.2834(3) 0.2103(3) 0.72405(7)
C19 C 0.1290(3) 0.2176(3) 0.76418(8)
H8 H -0.0154 0.2195 0.7523
C20 C 0.1838(3) 0.2224(3) 0.82149(8)
H9 H 0.0759 0.2273 0.8484
C21 C 0.3936(3) 0.2204(3) 0.84048(7)
C22 C 0.5464(3) 0.2125(3) 0.79931(8)
H10 H 0.6910 0.2103 0.8110
C23 C 0.4937(3) 0.2078(3) 0.74193(8)
H11 H 0.6011 0.2028 0.7149
C24 C 0.4618(3) 0.2278(3) 0.90335(7)
C25 C 0.5863(3) 0.0488(3) 0.91452(8)
H12 H 0.4961 -0.0664 0.9049
H13 H 0.6316 0.0536 0.9546
H14 H 0.7105 0.0449 0.8910
C26 C 0.6036(3) 0.4085(3) 0.91809(8)
H15 H 0.7291 0.4029 0.8951
H16 H 0.6467 0.4155 0.9584
H17 H 0.5251 0.5225 0.9102
C27 C 0.2731(3) 0.2354(3) 0.94215(8)
H18 H 0.1941 0.3507 0.9361
H19 H 0.3239 0.2392 0.9818
H20 H 0.1807 0.1210 0.9333
S2? S 1.156(2) 0.358(2) 0.2794(6)
C4? C 0.8258(3) 0.2822(3) 0.21916(8)
loop_
_geom_bond_atom_site_label_1
_geom_bond_atom_site_label_2
_geom_bond_site_symmetry_1
_geom_bond_site_symmetry_2
S1 C3 1_555 1_555
O1 C16 1_555 1_555
N1 N2 1_555 1_555
N2 C17 1_555 1_555
C1 H1 1_555 1_555
C2 C1 1_555 1_555
C3 C2 1_555 1_555
C5 C3 1_555 1_555
H2 C5 1_555 1_555
C6 C5 1_555 1_555
H3 C6 1_555 1_555
C7 S1 1_555 1_555
C8 C7 1_555 1_555
C9 C8 1_555 1_555
C10 C9 1_555 1_555
C11 C10 1_555 1_555
H4 C11 1_555 1_555
C12 C11 1_555 1_555
H5 C12 1_555 1_555
C13 H6 1_555 1_555
C14 C12 1_555 1_555
C15 C10 1_555 1_555
H7 C15 1_555 1_555
C16 N1 1_555 1_555
C17 O1 1_555 1_555
C18 C17 1_555 1_555
C19 C18 1_555 1_555
H8 C19 1_555 1_555
C20 C19 1_555 1_555
H9 C20 1_555 1_555
C21 C20 1_555 1_555
C22 C21 1_555 1_555
H10 C22 1_555 1_555
C23 C18 1_555 1_555
H11 C23 1_555 1_555
C24 C21 1_555 1_555
C25 C24 1_555 1_555
H12 C25 1_555 1_555
H13 C25 1_555 1_555
H14 C25 1_555 1_555
C26 C24 1_555 1_555
H15 C26 1_555 1_555
H16 C26 1_555 1_555
H17 C26 1_555 1_555
C27 C24 1_555 1_555
H18 C27 1_555 1_555
H19 C27 1_555 1_555
H20 C27 1_555 1_555
C6 C7 1_555 1_555
C13 C14 1_555 1_555
C13 C15 1_555 1_555
C14 C16 1_555 1_555
C22 C23 1_555 1_555

#END
