
#######################################################################
#
#                 Cambridge Crystallographic Data Centre
#                                CCDC 
#
#######################################################################
#
# If this CIF has been generated from an entry in the Cambridge 
# Structural Database, then it will include bibliographic, chemical, 
# crystal, experimental, refinement or atomic coordinate data resulting 
# from the CCDC's data processing and validation procedures.
#
#######################################################################

data_DAKDUP
_chemical_formula_moiety         'C7 H15 B10 N1 S1'
_chemical_name_systematic        1-(2-Pyridyl)-2-mercapto-ortho-carborane
_symmetry_cell_setting           monoclinic
_symmetry_space_group_name_H-M   'P 21'
_symmetry_Int_Tables_number      4
_space_group_name_Hall           'P 2yb'
loop_
_symmetry_equiv_pos_site_id
_symmetry_equiv_pos_as_xyz
1 x,y,z
2 -x,1/2+y,-z
_cell_length_a                   8.3207(2)
_cell_length_b                   8.1789(2)
_cell_length_c                   10.5083(2)
_cell_angle_alpha                90
_cell_angle_beta                 109.596(1)
_cell_angle_gamma                90
_cell_volume                     673.714
_exptl_crystal_colour            colorless
_exptl_crystal_description       prism
_cell_formula_units_Z            2
_exptl_crystal_recrystallization_method acetone
loop_
_atom_site_label
_atom_site_type_symbol
_atom_site_fract_x
_atom_site_fract_y
_atom_site_fract_z
S1 S 0.19293(7) -0.22065(7) 0.20300(6)
H1 H 0.042(3) -0.227(4) 0.120(2)
N1 N 0.2146(2) 0.1482(2) -0.02670(18)
C1 C 0.2528(3) 0.1415(3) 0.2102(2)
C2 C 0.1734(3) -0.0257(3) 0.2707(2)
C3 C 0.3230(3) 0.1165(3) 0.0968(2)
C4 C 0.4900(3) 0.0676(4) 0.1206(3)
H2 H 0.5652 0.0490 0.2099
C5 C 0.5445(3) 0.0465(4) 0.0110(3)
H3 H 0.6578 0.0114 0.0241
C6 C 0.4340(3) 0.0765(3) -0.1164(3)
H4 H 0.4692 0.0631 -0.1930
C7 C 0.2705(3) 0.1265(3) -0.1312(2)
H5 H 0.1937 0.1467 -0.2198
B1 B 0.0358(3) 0.1172(3) 0.1706(3)
H6 H -0.0525 0.0907 0.0660
B2 B 0.1367(3) 0.3106(3) 0.2155(3)
H7 H 0.1129 0.4138 0.1413
B3 B 0.3418(3) 0.2750(4) 0.3381(2)
H8 H 0.4539 0.3546 0.3449
B4 B 0.3635(3) 0.0597(3) 0.3673(2)
H9 H 0.4890 -0.0046 0.3907
B5 B 0.0038(3) 0.0309(3) 0.3173(2)
H10 H -0.1072 -0.0504 0.3100
B6 B -0.0203(3) 0.2450(3) 0.2851(3)
H11 H -0.1482 0.3054 0.2567
B7 B 0.1701(4) 0.3431(3) 0.3908(3)
H12 H 0.1683 0.4684 0.4333
B8 B 0.3129(4) 0.1875(3) 0.4842(3)
H13 H 0.4063 0.2102 0.5878
B9 B 0.2081(3) -0.0037(3) 0.4400(3)
H14 H 0.2318 -0.1072 0.5138
B10 B 0.0878(4) 0.1713(3) 0.4514(3)
H15 H 0.0312 0.1846 0.5337
loop_
_geom_bond_atom_site_label_1
_geom_bond_atom_site_label_2
_geom_bond_site_symmetry_1
_geom_bond_site_symmetry_2
S1 H1 1_555 1_555
N1 C3 1_555 1_555
C1 C2 1_555 1_555
C2 S1 1_555 1_555
C3 C1 1_555 1_555
C4 C3 1_555 1_555
H2 C4 1_555 1_555
C5 C4 1_555 1_555
H3 C5 1_555 1_555
C6 C5 1_555 1_555
H4 C6 1_555 1_555
C7 N1 1_555 1_555
H5 C7 1_555 1_555
B1 C1 1_555 1_555
H6 B1 1_555 1_555
B2 C1 1_555 1_555
H7 B2 1_555 1_555
B3 C1 1_555 1_555
H8 B3 1_555 1_555
B4 C1 1_555 1_555
H9 B4 1_555 1_555
B5 C2 1_555 1_555
H10 B5 1_555 1_555
B6 B1 1_555 1_555
H11 B6 1_555 1_555
B7 B2 1_555 1_555
H12 B7 1_555 1_555
B8 B3 1_555 1_555
H13 B8 1_555 1_555
B9 C2 1_555 1_555
H14 B9 1_555 1_555
B10 B5 1_555 1_555
H15 B10 1_555 1_555
C2 B4 1_555 1_555
C2 B1 1_555 1_555
C6 C7 1_555 1_555
B1 B5 1_555 1_555
B1 B2 1_555 1_555
B2 B6 1_555 1_555
B2 B3 1_555 1_555
B3 B4 1_555 1_555
B3 B7 1_555 1_555
B4 B9 1_555 1_555
B4 B8 1_555 1_555
B5 B6 1_555 1_555
B5 B9 1_555 1_555
B6 B10 1_555 1_555
B6 B7 1_555 1_555
B7 B10 1_555 1_555
B7 B8 1_555 1_555
B8 B9 1_555 1_555
B8 B10 1_555 1_555
B9 B10 1_555 1_555

#END
