
#######################################################################
#
#                 Cambridge Crystallographic Data Centre
#                                CCDC 
#
#######################################################################
#
# If this CIF has been generated from an entry in the Cambridge 
# Structural Database, then it will include bibliographic, chemical, 
# crystal, experimental, refinement or atomic coordinate data resulting 
# from the CCDC's data processing and validation procedures.
#
#######################################################################

data_DAKQAI
_chemical_formula_moiety         'C68 H80 Li4 N2 O2 P2,1.53(C6 H6),C7 H8'
_chemical_name_systematic        
'bis((\m~3~-2,6-Di-t-butyl-6-methylphenolato)-(\m~2~-phenylimido(diphenyl)phosphinomethylene)-di-lithium) benzene toluene solvate'
_symmetry_cell_setting           monoclinic
_symmetry_space_group_name_H-M   'C 2/c'
_symmetry_Int_Tables_number      15
_space_group_name_Hall           '-C 2yn'
loop_
_symmetry_equiv_pos_site_id
_symmetry_equiv_pos_as_xyz
1 x,y,z
2 1/2+x,1/2+y,z
3 x,-y,1/2+z
4 1/2+x,1/2-y,1/2+z
5 -x,-y,-z
6 1/2-x,1/2-y,-z
7 -x,y,1/2-z
8 1/2-x,1/2+y,1/2-z
_cell_length_a                   25.007(6)
_cell_length_b                   13.561(3)
_cell_length_c                   24.345(5)
_cell_angle_alpha                90
_cell_angle_beta                 107.43(5)
_cell_angle_gamma                90
_cell_volume                     7876.79
_exptl_crystal_colour            colorless
_exptl_crystal_description       block
_cell_formula_units_Z            4
_chemical_properties_physical    'air- and moisture-sensitive'
_exptl_crystal_recrystallization_method benzene
loop_
_atom_site_label
_atom_site_type_symbol
_atom_site_fract_x
_atom_site_fract_y
_atom_site_fract_z
C41 C 0.0928(4) 0.5996(5) 0.4171(5)
H47 H 0.0914 0.5317 0.4115
C42 C 0.0752(4) 0.6627(6) 0.3701(4)
C43 C 0.0772(4) 0.7642(6) 0.3784(4)
C44 C 0.0967(4) 0.8026(5) 0.4338(5)
H50 H 0.0980 0.8705 0.4394
C45 C 0.1142(5) 0.7395(9) 0.4808(4)
H51 H 0.1273 0.7652 0.5178
C46 C 0.1123(5) 0.6380(9) 0.4724(4)
H52 H 0.1240 0.5959 0.5039
P1 P 0.26084(5) 0.00518(7) 0.37109(4)
O1 O 0.19547(12) 0.23591(18) 0.45364(10)
N1 N 0.19453(16) 0.0407(2) 0.34124(13)
C1 C 0.2765(2) 0.0403(3) 0.44321(16)
H1 H 0.3202 0.0371 0.4591
H2 H 0.2589 -0.0127 0.4610
C2 C 0.14028(18) 0.2618(3) 0.42196(14)
C3 C 0.0916(2) 0.2188(4) 0.43381(16)
C4 C 0.0361(2) 0.2408(4) 0.39787(18)
H3 H 0.0051 0.2092 0.4053
C5 C 0.0264(2) 0.3068(4) 0.35272(17)
C6 C 0.07396(18) 0.3509(3) 0.34296(15)
H4 H 0.0676 0.3978 0.3127
C7 C 0.13137(17) 0.3303(3) 0.37499(14)
C8 C 0.0981(2) 0.1486(5) 0.4857(2)
C9 C 0.0391(3) 0.1156(10) 0.4905(3)
H5 H 0.0176 0.0802 0.4558
H6 H 0.0190 0.1757 0.4949
H7 H 0.0439 0.0733 0.5243
C10 C 0.1305(4) 0.0543(5) 0.4802(2)
H8 H 0.1662 0.0725 0.4738
H9 H 0.1082 0.0151 0.4477
H10 H 0.1380 0.0158 0.5157
C11 C 0.1294(2) 0.2034(5) 0.54239(17)
H11 H 0.1684 0.2143 0.5433
H12 H 0.1285 0.1629 0.5754
H13 H 0.1113 0.2670 0.5441
C12 C -0.0352(2) 0.3327(5) 0.3169(2)
H14 H -0.0614 0.2935 0.3308
H15 H -0.0406 0.3179 0.2762
H16 H -0.0421 0.4030 0.3212
C13 C 0.18234(17) 0.3791(3) 0.35895(14)
C14 C 0.16111(18) 0.4548(3) 0.30981(15)
H17 H 0.1931 0.4857 0.3013
H18 H 0.1389 0.5055 0.3217
H19 H 0.1377 0.4212 0.2753
C15 C 0.21697(18) 0.3008(3) 0.33720(16)
H20 H 0.2480 0.3333 0.3277
H21 H 0.1927 0.2682 0.3028
H22 H 0.2318 0.2517 0.3674
C16 C 0.22295(17) 0.4349(3) 0.41012(15)
H23 H 0.2525 0.4663 0.3974
H24 H 0.2398 0.3883 0.4412
H25 H 0.2022 0.4853 0.4241
C17 C 0.3144(2) 0.0660(3) 0.34372(16)
C18 C 0.3735(2) 0.0572(4) 0.37230(19)
H26 H 0.3858 0.0132 0.4040
C19 C 0.4138(3) 0.1118(5) 0.3549(2)
H27 H 0.4526 0.1054 0.3748
C20 C 0.3954(3) 0.1748(4) 0.3082(2)
H28 H 0.4217 0.2124 0.2957
C21 C 0.3370(3) 0.1831(3) 0.2791(2)
H29 H 0.3250 0.2259 0.2469
C22 C 0.2959(2) 0.1293(3) 0.29628(17)
H30 H 0.2571 0.1362 0.2762
C23 C 0.27096(19) -0.1270(3) 0.36219(16)
C24 C 0.30960(18) -0.1664(3) 0.33627(16)
H31 H 0.3311 -0.1232 0.3206
C25 C 0.3167(2) -0.2684(3) 0.33337(18)
H32 H 0.3431 -0.2952 0.3165
C26 C 0.2837(3) -0.3300(3) 0.3563(2)
H33 H 0.2877 -0.3994 0.3544
C27 C 0.2444(3) -0.2918(3) 0.3817(3)
H34 H 0.2226 -0.3353 0.3970
C28 C 0.2376(3) -0.1901(3) 0.3848(2)
H35 H 0.2110 -0.1638 0.4016
C29 C 0.15926(19) 0.0251(3) 0.28490(15)
C30 C 0.1747(2) -0.0322(3) 0.24364(16)
H36 H 0.2105 -0.0626 0.2531
C31 C 0.1365(2) -0.0438(3) 0.18858(17)
H37 H 0.1471 -0.0823 0.1609
C32 C 0.0825(2) 0.0007(4) 0.17302(18)
H38 H 0.0573 -0.0088 0.1355
C33 C 0.0666(2) 0.0580(4) 0.21314(19)
H39 H 0.0308 0.0885 0.2033
C34 C 0.1044(2) 0.0695(3) 0.26790(17)
H40 H 0.0935 0.1084 0.2952
Li1 Li 0.1887(4) 0.1201(6) 0.4053(3)
Li2 Li 0.2736(4) 0.1852(5) 0.4794(3)
Li2E Li 0.2264(4) 0.3148(5) 0.5206(3)
O1E O 0.30453(12) 0.26409(18) 0.54636(10)
C2E C 0.35972(18) 0.2382(3) 0.57804(14)
C3E C 0.4084(2) 0.2812(4) 0.56619(16)
C4E C 0.4639(2) 0.2592(4) 0.60213(18)
H3E H 0.4949 0.2908 0.5947
C5E C 0.4736(2) 0.1932(4) 0.64728(17)
C6E C 0.42604(18) 0.1491(3) 0.65704(15)
H4E H 0.4324 0.1022 0.6873
C7E C 0.36863(17) 0.1697(3) 0.62501(14)
Li1E Li 0.3113(4) 0.3799(6) 0.5947(3)
C1E C 0.2235(2) 0.4597(3) 0.55679(16)
P1E P 0.23916(5) 0.49482(7) 0.62891(4)
N1E N 0.30547(16) 0.4593(2) 0.65876(13)
C29E C 0.34074(19) 0.4749(3) 0.71510(15)
C30E C 0.3253(2) 0.5322(3) 0.75636(16)
H36E H 0.2895 0.5626 0.7469
C31E C 0.3635(2) 0.5438(3) 0.81142(17)
H37E H 0.3529 0.5823 0.8391
C32E C 0.4175(2) 0.4993(4) 0.82698(18)
H38E H 0.4427 0.5088 0.8645
C33E C 0.4334(2) 0.4420(4) 0.78686(19)
H39E H 0.4692 0.4115 0.7967
C34E C 0.3956(2) 0.4305(3) 0.73210(17)
H40E H 0.4065 0.3916 0.7048
H1E H 0.1798 0.4629 0.5409
H2E H 0.2411 0.5127 0.5390
C17E C 0.1856(2) 0.4340(3) 0.65628(16)
C18E C 0.1265(2) 0.4428(4) 0.62770(19)
H26E H 0.1142 0.4868 0.5960
C19E C 0.0862(3) 0.3882(5) 0.6451(2)
H27E H 0.0474 0.3946 0.6252
C20E C 0.1046(3) 0.3252(4) 0.6918(2)
H28E H 0.0783 0.2876 0.7043
C21E C 0.1630(3) 0.3169(3) 0.7209(2)
H29E H 0.1750 0.2741 0.7531
C22E C 0.2041(2) 0.3707(3) 0.70372(17)
H30E H 0.2429 0.3638 0.7238
C23E C 0.22904(19) 0.6270(3) 0.63781(16)
C24E C 0.19040(18) 0.6664(3) 0.66373(16)
H31E H 0.1689 0.6232 0.6794
C25E C 0.1833(2) 0.7684(3) 0.66663(18)
H32E H 0.1569 0.7952 0.6835
C26E C 0.2163(3) 0.8300(3) 0.6437(2)
H33E H 0.2123 0.8994 0.6456
C27E C 0.2556(3) 0.7918(3) 0.6183(3)
H34E H 0.2774 0.8353 0.6030
C28E C 0.2624(3) 0.6901(3) 0.6152(2)
H35E H 0.2890 0.6638 0.5984
C13E C 0.31766(17) 0.1209(3) 0.64105(14)
C14E C 0.33889(18) 0.0452(3) 0.69019(15)
H17E H 0.3069 0.0143 0.6987
H18E H 0.3611 -0.0055 0.6783
H19E H 0.3623 0.0788 0.7247
C15E C 0.28303(18) 0.1992(3) 0.66280(16)
H20E H 0.2520 0.1667 0.6723
H21E H 0.3073 0.2318 0.6972
H22E H 0.2682 0.2483 0.6326
C16E C 0.27705(17) 0.0651(3) 0.58988(15)
H23E H 0.2475 0.0337 0.6026
H24E H 0.2602 0.1117 0.5588
H25E H 0.2978 0.0147 0.5759
C12E C 0.5352(2) 0.1673(5) 0.6831(2)
H14E H 0.5614 0.2065 0.6692
H15E H 0.5406 0.1821 0.7238
H16E H 0.5421 0.0970 0.6788
C8E C 0.4019(2) 0.3514(5) 0.5143(2)
C9E C 0.4609(3) 0.3844(10) 0.5095(3)
H5E H 0.4824 0.4198 0.5442
H6E H 0.4810 0.3243 0.5051
H7E H 0.4561 0.4267 0.4757
C10E C 0.3695(4) 0.4457(5) 0.5198(2)
H8E H 0.3338 0.4275 0.5262
H9E H 0.3918 0.4849 0.5523
H10E H 0.3620 0.4842 0.4843
C11E C 0.3706(2) 0.2966(5) 0.45761(17)
H11E H 0.3316 0.2857 0.4567
H12E H 0.3715 0.3371 0.4246
H13E H 0.3887 0.2330 0.4559
C35? C 0.0100(4) 0.5870(7) 0.5229(4)
H41? H -0.0157 0.5896 0.5436
C36? C 0.0461(4) 0.6658(5) 0.5248(3)
H42? H 0.0445 0.7211 0.5468
C37? C 0.0845(4) 0.6619(6) 0.4937(4)
H43? H 0.1086 0.7146 0.4950
C38? C 0.0868(4) 0.5793(7) 0.4607(3)
H44? H 0.1125 0.5767 0.4400
C39? C 0.0508(4) 0.5005(5) 0.4588(3)
H45? H 0.0523 0.4452 0.4368
C40? C 0.0124(4) 0.5044(6) 0.4899(4)
H46? H -0.0118 0.4517 0.4886
H48? H 0.0622 0.6370 0.3330
H49? H 0.0655 0.8064 0.3470
C47? C -0.0258(7) 0.7703(10) 0.2073(7)
C48? C -0.0232(5) 0.6680(9) 0.2100(5)
H53? H -0.0443 0.6305 0.1791
C49? C 0.0111(6) 0.6217(5) 0.2588(6)
H54? H 0.0129 0.5532 0.2606
C50? C 0.0427(5) 0.6777(9) 0.3049(5)
H55? H 0.0657 0.6467 0.3376
C51? C 0.0400(7) 0.7800(8) 0.3023(7)
H56? H 0.0612 0.8175 0.3332
C52? C 0.0058(9) 0.8263(5) 0.2535(9)
H57? H 0.0040 0.8948 0.2517
C53? C -0.0633(6) 0.8473(11) 0.1628(6)
H58? H -0.0871 0.8182 0.1281
H59? H -0.0351 0.8868 0.1539
H60? H -0.0854 0.8881 0.1799
loop_
_geom_bond_atom_site_label_1
_geom_bond_atom_site_label_2
_geom_bond_site_symmetry_1
_geom_bond_site_symmetry_2
P1 N1 1_555 1_555
O1 C2 1_555 1_555
N1 C29 1_555 1_555
C1 P1 1_555 1_555
H1 C1 1_555 1_555
H2 C1 1_555 1_555
C2 C3 1_555 1_555
C3 C4 1_555 1_555
C4 H3 1_555 1_555
C5 C4 1_555 1_555
C6 C5 1_555 1_555
H4 C6 1_555 1_555
C7 C2 1_555 1_555
C8 C3 1_555 1_555
C9 C8 1_555 1_555
H5 C9 1_555 1_555
H6 C9 1_555 1_555
H7 C9 1_555 1_555
C10 C8 1_555 1_555
H8 C10 1_555 1_555
H9 C10 1_555 1_555
H10 C10 1_555 1_555
C11 C8 1_555 1_555
H11 C11 1_555 1_555
H12 C11 1_555 1_555
H13 C11 1_555 1_555
C12 C5 1_555 1_555
H14 C12 1_555 1_555
H15 C12 1_555 1_555
H16 C12 1_555 1_555
C13 C7 1_555 1_555
C14 C13 1_555 1_555
H17 C14 1_555 1_555
H18 C14 1_555 1_555
H19 C14 1_555 1_555
C15 C13 1_555 1_555
H20 C15 1_555 1_555
H21 C15 1_555 1_555
H22 C15 1_555 1_555
C16 C13 1_555 1_555
H23 C16 1_555 1_555
H24 C16 1_555 1_555
H25 C16 1_555 1_555
C17 P1 1_555 1_555
C18 C17 1_555 1_555
H26 C18 1_555 1_555
C19 C18 1_555 1_555
H27 C19 1_555 1_555
C20 C19 1_555 1_555
H28 C20 1_555 1_555
C21 C20 1_555 1_555
H29 C21 1_555 1_555
C22 C17 1_555 1_555
H30 C22 1_555 1_555
C23 P1 1_555 1_555
C24 C23 1_555 1_555
H31 C24 1_555 1_555
C25 C24 1_555 1_555
H32 C25 1_555 1_555
C26 C25 1_555 1_555
H33 C26 1_555 1_555
C27 C26 1_555 1_555
H34 C27 1_555 1_555
C28 C23 1_555 1_555
H35 C28 1_555 1_555
C29 C30 1_555 1_555
C30 H36 1_555 1_555
C31 C30 1_555 1_555
H37 C31 1_555 1_555
C32 C31 1_555 1_555
H38 C32 1_555 1_555
C33 C32 1_555 1_555
H39 C33 1_555 1_555
C34 C29 1_555 1_555
H40 C34 1_555 1_555
Li1 O1 1_555 1_555
Li2 O1 1_555 1_555
C41 H47 1_555 1_555
C42 C41 1_555 1_555
C43 C42 1_555 1_555
C44 C43 1_555 1_555
H50 C44 1_555 1_555
C45 C44 1_555 1_555
H51 C45 1_555 1_555
C46 C41 1_555 1_555
H52 C46 1_555 1_555
Li2E O1 1_555 1_555
O1E Li2 1_555 1_555
C2E O1E 1_555 1_555
C3E C2E 1_555 1_555
C4E C3E 1_555 1_555
H3E C4E 1_555 1_555
C5E C4E 1_555 1_555
C6E C5E 1_555 1_555
H4E C6E 1_555 1_555
C7E C2E 1_555 1_555
Li1E O1E 1_555 1_555
C1E Li2E 1_555 1_555
P1E C1E 1_555 1_555
N1E Li1E 1_555 1_555
C29E N1E 1_555 1_555
C30E C29E 1_555 1_555
H36E C30E 1_555 1_555
C31E C30E 1_555 1_555
H37E C31E 1_555 1_555
C32E C31E 1_555 1_555
H38E C32E 1_555 1_555
C33E C32E 1_555 1_555
H39E C33E 1_555 1_555
C34E C29E 1_555 1_555
H40E C34E 1_555 1_555
H1E C1E 1_555 1_555
H2E C1E 1_555 1_555
C17E P1E 1_555 1_555
C18E C17E 1_555 1_555
H26E C18E 1_555 1_555
C19E C18E 1_555 1_555
H27E C19E 1_555 1_555
C20E C19E 1_555 1_555
H28E C20E 1_555 1_555
C21E C20E 1_555 1_555
H29E C21E 1_555 1_555
C22E C17E 1_555 1_555
H30E C22E 1_555 1_555
C23E P1E 1_555 1_555
C24E C23E 1_555 1_555
H31E C24E 1_555 1_555
C25E C24E 1_555 1_555
H32E C25E 1_555 1_555
C26E C25E 1_555 1_555
H33E C26E 1_555 1_555
C27E C26E 1_555 1_555
H34E C27E 1_555 1_555
C28E C23E 1_555 1_555
H35E C28E 1_555 1_555
C13E C7E 1_555 1_555
C14E C13E 1_555 1_555
H17E C14E 1_555 1_555
H18E C14E 1_555 1_555
H19E C14E 1_555 1_555
C15E C13E 1_555 1_555
H20E C15E 1_555 1_555
H21E C15E 1_555 1_555
H22E C15E 1_555 1_555
C16E C13E 1_555 1_555
H23E C16E 1_555 1_555
H24E C16E 1_555 1_555
H25E C16E 1_555 1_555
C12E C5E 1_555 1_555
H14E C12E 1_555 1_555
H15E C12E 1_555 1_555
H16E C12E 1_555 1_555
C8E C3E 1_555 1_555
C9E C8E 1_555 1_555
H5E C9E 1_555 1_555
H6E C9E 1_555 1_555
H7E C9E 1_555 1_555
C10E C8E 1_555 1_555
H8E C10E 1_555 1_555
H9E C10E 1_555 1_555
H10E C10E 1_555 1_555
C11E C8E 1_555 1_555
H11E C11E 1_555 1_555
H12E C11E 1_555 1_555
H13E C11E 1_555 1_555
N1 Li1 1_555 1_555
C1 Li1 1_555 1_555
C1 Li2 1_555 1_555
C6 C7 1_555 1_555
C21 C22 1_555 1_555
C27 C28 1_555 1_555
C33 C34 1_555 1_555
C45 C46 1_555 1_555
Li2E O1E 1_555 1_555
C6E C7E 1_555 1_555
Li1E C1E 1_555 1_555
P1E N1E 1_555 1_555
C33E C34E 1_555 1_555
C21E C22E 1_555 1_555
C27E C28E 1_555 1_555

#END
