
#######################################################################
#
#                 Cambridge Crystallographic Data Centre
#                                CCDC 
#
#######################################################################
#
# If this CIF has been generated from an entry in the Cambridge 
# Structural Database, then it will include bibliographic, chemical, 
# crystal, experimental, refinement or atomic coordinate data resulting 
# from the CCDC's data processing and validation procedures.
#
#######################################################################

data_DALJAB01
_chemical_formula_moiety         'C10 H8 S8 1+,C10 H8 S8,Br1 I2 1-'
_chemical_name_systematic        
'bis(bis(Ethylenedithio)tetrathiafulvalene) di-iodobromide'
_symmetry_cell_setting           triclinic
_symmetry_space_group_name_H-M   'P -1'
_symmetry_Int_Tables_number      2
_space_group_name_Hall           '-P 1'
loop_
_symmetry_equiv_pos_site_id
_symmetry_equiv_pos_as_xyz
1 x,y,z
2 -x,-y,-z
_cell_length_a                   6.612(1)
_cell_length_b                   9.024(2)
_cell_length_c                   15.192(2)
_cell_angle_alpha                94.16(1)
_cell_angle_beta                 95.23(1)
_cell_angle_gamma                110.12(1)
_cell_volume                     842.347
_exptl_crystal_colour            black
_cell_formula_units_Z            1
loop_
_atom_site_label
_atom_site_type_symbol
_atom_site_fract_x
_atom_site_fract_y
_atom_site_fract_z
S1 S 0.4643(3) -0.2600(3) 0.4480(1)
S2 S 0.0992(3) -0.1461(3) 0.4286(1)
S3 S 0.2802(3) -0.42983 0.6203(1)
S4 S -0.0817(3) -0.3120(3) 0.5992(1)
S5 S 0.6446(4) -0.1380(3) 0.2870(2)
S6 S 0.2131(4) 0.0031(3) 0.2658(2)
S7 S 0.1978(4) -0.5380(3) 0.7965(1)
S8 S -0.2369(4) -0.3959(3) 0.7704(1)
C1 C 0.2313(11) -0.2509(9) 0.4874(5)
C2 C 0.1508(11) -0.3249(9) 0.5601(5)
C3 C 0.4410(11) -0.1600(9) 0.3559(5)
C4 C 0.2756(12) -0.1056(9) 0.3467(5)
C5 C 0.1195(11) -0.4504(9) 0.7078(5)
C6 C -0.0496(11) -0.3953(8) 0.6967(4)
C7 C 0.6279(16) 0.0248(12) 0.2327(8)
C8 C 0.4204(16) 0.0242(13) 0.1948(8)
C9 C 0.0264(22) -0.5072(24) 0.8758(8)
C10 C -0.1751(21) -0.5085(8) 0.8517(8)
loop_
_geom_bond_atom_site_label_1
_geom_bond_atom_site_label_2
_geom_bond_site_symmetry_1
_geom_bond_site_symmetry_2
S1 C1 1_555 1_555
S2 C1 1_555 1_555
S3 C2 1_555 1_555
S4 C2 1_555 1_555
S5 C3 1_555 1_555
S6 C4 1_555 1_555
S7 C5 1_555 1_555
S8 C6 1_555 1_555
C1 C2 1_555 1_555
C3 S1 1_555 1_555
C4 S2 1_555 1_555
C5 S3 1_555 1_555
C6 S4 1_555 1_555
C7 S5 1_555 1_555
C8 S6 1_555 1_555
C9 S7 1_555 1_555
C10 S8 1_555 1_555
C3 C4 1_555 1_555
C5 C6 1_555 1_555
C7 C8 1_555 1_555
C9 C10 1_555 1_555

#END
