
#######################################################################
#
#                 Cambridge Crystallographic Data Centre
#                                CCDC 
#
#######################################################################
#
# If this CIF has been generated from an entry in the Cambridge 
# Structural Database, then it will include bibliographic, chemical, 
# crystal, experimental, refinement or atomic coordinate data resulting 
# from the CCDC's data processing and validation procedures.
#
#######################################################################

data_DAMZEY
_chemical_formula_moiety         'C50 H32 B1 F10 N3 P2'
_chemical_name_systematic        
N-(diphenyl((N-(bis(pentafluorophenyl)boron)cyano)(N,P,P-triphenylphosphorimidoyl)methylene)phosphoranyl)aniline
_symmetry_cell_setting           triclinic
_symmetry_space_group_name_H-M   'P -1'
_symmetry_Int_Tables_number      2
_space_group_name_Hall           '-P 1'
loop_
_symmetry_equiv_pos_site_id
_symmetry_equiv_pos_as_xyz
1 x,y,z
2 -x,-y,-z
_cell_length_a                   12.8718(4)
_cell_length_b                   13.1734(4)
_cell_length_c                   16.1600(6)
_cell_angle_alpha                94.010(1)
_cell_angle_beta                 109.163(2)
_cell_angle_gamma                119.124(3)
_cell_volume                     2171.72
_exptl_crystal_colour            colorless
_exptl_crystal_description       block
_cell_formula_units_Z            2
loop_
_atom_site_label
_atom_site_type_symbol
_atom_site_fract_x
_atom_site_fract_y
_atom_site_fract_z
P1 P 0.34610(4) -0.02095(4) 0.26878(3)
P2 P 0.24766(4) 0.15407(4) 0.28433(3)
N1 N 0.35300(16) -0.02150(14) 0.37171(11)
H1 H 0.325(2) 0.021(2) 0.3866(15)
N2 N 0.23858(16) 0.10752(15) 0.37099(11)
C1 C 0.32981(17) 0.09917(16) 0.24504(12)
C2 C 0.39458(17) 0.16263(16) 0.19512(12)
N3 N 0.44868(16) 0.21593(14) 0.15362(11)
B1 B 0.5393(2) 0.2978(2) 0.10958(17)
H2 H 0.495(2) 0.251(2) 0.0349(16)
C3 C 0.49412(18) 0.00680(16) 0.26247(14)
C4 C 0.4963(2) -0.02441(19) 0.17921(15)
H3 H 0.4189 -0.0643 0.1253
C5 C 0.6137(3) 0.0039(2) 0.17659(18)
H4 H 0.6164 -0.0159 0.1206
C6 C 0.7266(2) 0.0614(2) 0.2561(2)
H5 H 0.8056 0.0789 0.2540
C7 C 0.7250(2) 0.0933(2) 0.33830(18)
H6 H 0.8026 0.1328 0.3920
C8 C 0.6086(2) 0.06685(19) 0.34177(15)
H7 H 0.6072 0.0895 0.3977
C9 C 0.21419(18) -0.16786(16) 0.19296(12)
C10 C 0.2320(2) -0.26182(19) 0.17646(15)
H8 H 0.3167 -0.2471 0.1980
C11 C 0.1241(3) -0.3775(2) 0.12802(17)
H9 H 0.1359 -0.4413 0.1168
C12 C 0.0004(2) -0.3996(2) 0.09640(16)
H10 H -0.0721 -0.4782 0.0632
C13 C -0.0183(2) -0.3073(2) 0.11303(17)
H11 H -0.1034 -0.3229 0.0915
C14 C 0.0884(2) -0.19154(19) 0.16160(14)
H12 H 0.0755 -0.1286 0.1734
C15 C 0.34481(19) 0.31684(17) 0.30512(14)
C16 C 0.4784(2) 0.3756(2) 0.35831(17)
H13 H 0.5155 0.3307 0.3782
C17 C 0.5564(3) 0.5005(2) 0.3818(2)
H14 H 0.6468 0.5401 0.4171
C18 C 0.5032(3) 0.5670(2) 0.3541(2)
H15 H 0.5569 0.6519 0.3711
C19 C 0.3724(3) 0.5101(2) 0.3020(2)
H16 H 0.3363 0.5562 0.2831
C20 C 0.2919(2) 0.38465(19) 0.27664(17)
H17 H 0.2019 0.3460 0.2403
C21 C 0.08998(18) 0.09974(17) 0.19284(13)
C22 C 0.0791(2) 0.1370(2) 0.11403(15)
H18 H 0.1547 0.1948 0.1083
C23 C -0.0425(3) 0.0895(3) 0.04388(17)
H19 H -0.0494 0.1162 -0.0090
C24 C -0.1535(3) 0.0033(2) 0.05115(17)
H20 H -0.2360 -0.0287 0.0033
C25 C -0.1439(2) -0.0357(2) 0.12737(17)
H21 H -0.2199 -0.0958 0.1315
C26 C -0.02279(19) 0.01251(18) 0.19920(15)
H22 H -0.0171 -0.0139 0.2522
C27 C 0.31482(19) -0.13025(17) 0.39979(13)
C28 C 0.3963(2) -0.1730(2) 0.42142(15)
H23 H 0.4775 -0.1311 0.4178
C29 C 0.3574(3) -0.2787(2) 0.44863(17)
H24 H 0.4120 -0.3089 0.4623
C30 C 0.2403(3) -0.3393(2) 0.45579(19)
H25 H 0.2154 -0.4099 0.4752
C31 C 0.1599(3) -0.2962(2) 0.43438(19)
H26 H 0.0795 -0.3378 0.4392
C32 C 0.1954(2) -0.1927(2) 0.40586(16)
H27 H 0.1390 -0.1644 0.3906
C33 C 0.19512(18) 0.13982(17) 0.43114(13)
C34 C 0.2075(2) 0.09900(19) 0.50902(14)
H28 H 0.2440 0.0517 0.5191
C35 C 0.1670(2) 0.1268(2) 0.57160(16)
H29 H 0.1755 0.0976 0.6233
C36 C 0.1142(2) 0.1973(2) 0.55886(16)
H30 H 0.0878 0.2171 0.6019
C37 C 0.1008(2) 0.2378(2) 0.48249(16)
H31 H 0.0647 0.2854 0.4731
C38 C 0.1402(2) 0.20940(19) 0.41873(14)
H32 H 0.1296 0.2375 0.3665
C39 C 0.6811(2) 0.31540(19) 0.16133(16)
C40 C 0.7472(2) 0.3500(2) 0.25507(17)
F1 F 0.69302(13) 0.36989(14) 0.30802(9)
C41 C 0.8701(2) 0.3716(2) 0.30072(19)
F2 F 0.92859(15) 0.40559(16) 0.39269(12)
C42 C 0.9336(3) 0.3583(2) 0.2518(2)
F3 F 1.05291(16) 0.37878(18) 0.29506(16)
C43 C 0.8732(3) 0.3229(2) 0.1590(2)
F4 F 0.93430(19) 0.31048(18) 0.10925(16)
C44 C 0.7482(3) 0.3010(2) 0.11507(19)
F5 F 0.69494(17) 0.26773(15) 0.02286(11)
C45 C 0.5416(2) 0.42298(18) 0.12177(14)
C46 C 0.4249(2) 0.41891(19) 0.08467(16)
F6 F 0.31253(13) 0.31032(12) 0.03755(11)
C47 C 0.4153(2) 0.5174(2) 0.09314(18)
F7 F 0.29868(17) 0.50558(16) 0.05780(15)
C48 C 0.5261(3) 0.6305(2) 0.13936(17)
F8 F 0.5191(2) 0.72784(15) 0.15052(13)
C49 C 0.6440(2) 0.64074(19) 0.17501(15)
F9 F 0.75492(16) 0.75090(12) 0.21937(11)
C50 C 0.6503(2) 0.53958(19) 0.16631(15)
F10 F 0.77207(13) 0.56099(12) 0.20520(11)
loop_
_geom_bond_atom_site_label_1
_geom_bond_atom_site_label_2
_geom_bond_site_symmetry_1
_geom_bond_site_symmetry_2
P1 N1 1_555 1_555
P2 N2 1_555 1_555
N1 H1 1_555 1_555
N2 C33 1_555 1_555
C1 P1 1_555 1_555
C2 C1 1_555 1_555
N3 C2 1_555 1_555
B1 N3 1_555 1_555
H2 B1 1_555 1_555
C3 P1 1_555 1_555
C4 C3 1_555 1_555
H3 C4 1_555 1_555
C5 C4 1_555 1_555
H4 C5 1_555 1_555
C6 C5 1_555 1_555
H5 C6 1_555 1_555
C7 C6 1_555 1_555
H6 C7 1_555 1_555
C8 C3 1_555 1_555
H7 C8 1_555 1_555
C9 P1 1_555 1_555
C10 C9 1_555 1_555
H8 C10 1_555 1_555
C11 C10 1_555 1_555
H9 C11 1_555 1_555
C12 C11 1_555 1_555
H10 C12 1_555 1_555
C13 C12 1_555 1_555
H11 C13 1_555 1_555
C14 C9 1_555 1_555
H12 C14 1_555 1_555
C15 P2 1_555 1_555
C16 C15 1_555 1_555
H13 C16 1_555 1_555
C17 C16 1_555 1_555
H14 C17 1_555 1_555
C18 C17 1_555 1_555
H15 C18 1_555 1_555
C19 C18 1_555 1_555
H16 C19 1_555 1_555
C20 C15 1_555 1_555
H17 C20 1_555 1_555
C21 P2 1_555 1_555
C22 C21 1_555 1_555
H18 C22 1_555 1_555
C23 C22 1_555 1_555
H19 C23 1_555 1_555
C24 C23 1_555 1_555
H20 C24 1_555 1_555
C25 C24 1_555 1_555
H21 C25 1_555 1_555
C26 C21 1_555 1_555
H22 C26 1_555 1_555
C27 N1 1_555 1_555
C28 C27 1_555 1_555
H23 C28 1_555 1_555
C29 C28 1_555 1_555
H24 C29 1_555 1_555
C30 C29 1_555 1_555
H25 C30 1_555 1_555
C31 C30 1_555 1_555
H26 C31 1_555 1_555
C32 C27 1_555 1_555
H27 C32 1_555 1_555
C33 C34 1_555 1_555
C34 H28 1_555 1_555
C35 C34 1_555 1_555
H29 C35 1_555 1_555
C36 C35 1_555 1_555
H30 C36 1_555 1_555
C37 C36 1_555 1_555
H31 C37 1_555 1_555
C38 C33 1_555 1_555
H32 C38 1_555 1_555
C39 B1 1_555 1_555
C40 C39 1_555 1_555
F1 C40 1_555 1_555
C41 C40 1_555 1_555
F2 C41 1_555 1_555
C42 C41 1_555 1_555
F3 C42 1_555 1_555
C43 C42 1_555 1_555
F4 C43 1_555 1_555
C44 C39 1_555 1_555
F5 C44 1_555 1_555
C45 B1 1_555 1_555
C46 C45 1_555 1_555
F6 C46 1_555 1_555
C47 C46 1_555 1_555
F7 C47 1_555 1_555
C48 C47 1_555 1_555
F8 C48 1_555 1_555
C49 C48 1_555 1_555
F9 C49 1_555 1_555
C50 C45 1_555 1_555
F10 C50 1_555 1_555
P2 C1 1_555 1_555
C7 C8 1_555 1_555
C13 C14 1_555 1_555
C19 C20 1_555 1_555
C25 C26 1_555 1_555
C31 C32 1_555 1_555
C37 C38 1_555 1_555
C43 C44 1_555 1_555
C49 C50 1_555 1_555

#END
