
#######################################################################
#
#                 Cambridge Crystallographic Data Centre
#                                CCDC 
#
#######################################################################
#
# If this CIF has been generated from an entry in the Cambridge 
# Structural Database, then it will include bibliographic, chemical, 
# crystal, experimental, refinement or atomic coordinate data resulting 
# from the CCDC's data processing and validation procedures.
#
#######################################################################

data_DANRUI
_chemical_formula_moiety         'C20 H18 Br2 N4 O1'
_chemical_name_systematic        
anti-2-(1-azido-2-bromopropan-2-yl)-4-(1-bromocyclopropyl)-4-phenyl-4H-3,1-benzoxazine
_symmetry_cell_setting           monoclinic
_symmetry_space_group_name_H-M   'C 2/c'
_symmetry_Int_Tables_number      15
_space_group_name_Hall           '-C 2yn'
loop_
_symmetry_equiv_pos_site_id
_symmetry_equiv_pos_as_xyz
1 x,y,z
2 -x,y,1/2-z
3 1/2+x,1/2+y,z
4 1/2-x,1/2+y,1/2-z
5 -x,-y,-z
6 x,-y,1/2+z
7 1/2-x,1/2-y,-z
8 1/2+x,1/2-y,1/2+z
_cell_length_a                   15.968(2)
_cell_length_b                   9.5866(12)
_cell_length_c                   26.313(3)
_cell_angle_alpha                90
_cell_angle_beta                 104.893(2)
_cell_angle_gamma                90
_cell_volume                     3892.65
_exptl_crystal_colour            colorless
_exptl_crystal_description       block
_chemical_melting_point          '105-107 deg.C'
_cell_formula_units_Z            8
loop_
_atom_site_label
_atom_site_type_symbol
_atom_site_fract_x
_atom_site_fract_y
_atom_site_fract_z
Br1 Br 0.64306(2) 0.97510(3) 0.56976(2)
Br2 Br 0.77465(2) 0.42998(3) 0.54180(2)
O1 O 0.71837(12) 0.6714(2) 0.60481(7)
N1 N 0.59358(15) 0.6760(3) 0.63672(9)
N2 N 0.45103(18) 0.6714(3) 0.53471(11)
N3 N 0.42086(18) 0.6183(3) 0.56916(11)
N4 N 0.3900(2) 0.5591(4) 0.59638(13)
C1 C 0.7320(2) 0.2810(3) 0.62867(13)
H1 H 0.7439 0.2744 0.6674
H2 H 0.7531 0.2011 0.6116
C2 C 0.6482(2) 0.3513(3) 0.59898(12)
H3 H 0.6184 0.3142 0.5639
H4 H 0.6092 0.3875 0.6197
C3 C 0.73399(19) 0.4234(3) 0.60489(11)
C4 C 0.75880(18) 0.5550(3) 0.63826(11)
C5 C 0.72290(19) 0.5509(3) 0.68667(11)
C6 C 0.7672(2) 0.4881(3) 0.73361(11)
H5 H 0.8229 0.4489 0.7366
C7 C 0.7304(2) 0.4824(4) 0.77625(12)
H6 H 0.7608 0.4388 0.8081
C8 C 0.6495(2) 0.5404(4) 0.77212(13)
H7 H 0.6245 0.5367 0.8012
C9 C 0.6050(2) 0.6035(3) 0.72591(12)
H8 H 0.5495 0.6433 0.7233
C10 C 0.64141(19) 0.6089(3) 0.68300(11)
C11 C 0.63501(18) 0.7025(3) 0.60227(11)
C12 C 0.59248(19) 0.7862(3) 0.55374(11)
C13 C 0.61295(18) 0.7312(3) 0.50158(11)
H9 H 0.5893 0.7964 0.4728
H10 H 0.5865 0.6392 0.4927
H11 H 0.6758 0.7239 0.5069
C14 C 0.49631(19) 0.8053(3) 0.54823(12)
H12 H 0.4870 0.8406 0.5817
H13 H 0.4726 0.8747 0.5204
C15 C 0.85545(19) 0.5845(3) 0.65258(11)
C16 C 0.9161(2) 0.4765(3) 0.66419(12)
H14 H 0.8966 0.3826 0.6618
C17 C 1.0040(2) 0.5038(4) 0.67906(12)
H15 H 1.0444 0.4291 0.6863
C18 C 1.0331(2) 0.6410(4) 0.68341(13)
H16 H 1.0934 0.6608 0.6943
C19 C 0.9738(2) 0.7479(4) 0.67182(14)
H17 H 0.9937 0.8417 0.6747
C20 C 0.8852(2) 0.7211(3) 0.65589(13)
H18 H 0.8452 0.7962 0.6473
loop_
_geom_bond_atom_site_label_1
_geom_bond_atom_site_label_2
_geom_bond_site_symmetry_1
_geom_bond_site_symmetry_2
Br1 C12 1_555 1_555
Br2 C3 1_555 1_555
O1 C4 1_555 1_555
N1 C10 1_555 1_555
N2 N3 1_555 1_555
N3 N4 1_555 1_555
C1 H1 1_555 1_555
H2 C1 1_555 1_555
C2 C1 1_555 1_555
H3 C2 1_555 1_555
H4 C2 1_555 1_555
C3 C1 1_555 1_555
C4 C3 1_555 1_555
C5 C4 1_555 1_555
C6 C5 1_555 1_555
H5 C6 1_555 1_555
C7 C6 1_555 1_555
H6 C7 1_555 1_555
C8 C7 1_555 1_555
H7 C8 1_555 1_555
C9 C8 1_555 1_555
H8 C9 1_555 1_555
C10 C5 1_555 1_555
C11 O1 1_555 1_555
C12 C11 1_555 1_555
C13 C12 1_555 1_555
H9 C13 1_555 1_555
H10 C13 1_555 1_555
H11 C13 1_555 1_555
C14 N2 1_555 1_555
H12 C14 1_555 1_555
H13 C14 1_555 1_555
C15 C4 1_555 1_555
C16 C15 1_555 1_555
H14 C16 1_555 1_555
C17 C16 1_555 1_555
H15 C17 1_555 1_555
C18 C17 1_555 1_555
H16 C18 1_555 1_555
C19 C18 1_555 1_555
H17 C19 1_555 1_555
C20 C15 1_555 1_555
H18 C20 1_555 1_555
N1 C11 1_555 1_555
C2 C3 1_555 1_555
C9 C10 1_555 1_555
C12 C14 1_555 1_555
C19 C20 1_555 1_555

#END
