
#######################################################################
#
#                 Cambridge Crystallographic Data Centre
#                                CCDC 
#
#######################################################################
#
# If this CIF has been generated from an entry in the Cambridge 
# Structural Database, then it will include bibliographic, chemical, 
# crystal, experimental, refinement or atomic coordinate data resulting 
# from the CCDC's data processing and validation procedures.
#
#######################################################################

data_DANTEN13
_chemical_formula_moiety         'C28 H16 O2'
_chemical_name_systematic        
10-(10-Oxoanthracen-9(10H)-ylidene)anthracen-9(10H)-one
_symmetry_cell_setting           monoclinic
_symmetry_space_group_name_H-M   'P 21/n'
_symmetry_Int_Tables_number      14
_space_group_name_Hall           '-P 2yn'
loop_
_symmetry_equiv_pos_site_id
_symmetry_equiv_pos_as_xyz
1 x,y,z
2 1/2-x,1/2+y,1/2-z
3 -x,-y,-z
4 1/2+x,1/2-y,1/2+z
_cell_length_a                   10.1822(6)
_cell_length_b                   8.4359(5)
_cell_length_c                   11.6494(6)
_cell_angle_alpha                90
_cell_angle_beta                 109.537(2)
_cell_angle_gamma                90
_cell_volume                     943.026
_exptl_crystal_colour            yellow
_exptl_crystal_description       parallelepiped
_cell_formula_units_Z            2
loop_
_atom_site_label
_atom_site_type_symbol
_atom_site_fract_x
_atom_site_fract_y
_atom_site_fract_z
O1 O 0.37695(16) 0.05029(18) 0.08629(11)
C1 C 0.5290(2) -0.0869(2) 0.25609(15)
C2 C 0.3246(2) -0.0417(2) 0.36999(15)
C3 C 0.4750(2) -0.0363(2) 0.44519(14)
C4 C 0.5643(2) -0.1123(2) 0.38199(15)
C5 C 0.6120(2) -0.1502(3) 0.19344(16)
H1 H 0.5903 -0.1302 0.1106
C6 C 0.6778(2) -0.2095(2) 0.43959(16)
H2 H 0.7004 -0.2313 0.5222
C7 C 0.2883(2) -0.0101(2) 0.24537(15)
C8 C 0.3977(2) -0.0037(2) 0.18836(16)
C9 C 0.2190(2) -0.0782(3) 0.41632(18)
H3 H 0.2413 -0.1058 0.4979
C10 C 0.7569(2) -0.2735(3) 0.37585(17)
H4 H 0.8321 -0.3386 0.4156
C11 C 0.7256(2) -0.2420(3) 0.25354(18)
H5 H 0.7814 -0.2828 0.2117
C12 C 0.0813(2) -0.0736(3) 0.3424(2)
H6 H 0.0116 -0.0998 0.3742
C13 C 0.1491(3) -0.0005(3) 0.17279(19)
H7 H 0.1256 0.0263 0.0909
C14 C 0.0460(3) -0.0305(3) 0.2216(2)
H8 H -0.0473 -0.0217 0.1734
O1B O 0.62305(16) -0.05029(18) 0.91371(11)
C1B C 0.4710(2) 0.0869(2) 0.74391(15)
C2B C 0.6754(2) 0.0417(2) 0.63001(15)
C3B C 0.5250(2) 0.0363(2) 0.55481(14)
C4B C 0.4357(2) 0.1123(2) 0.61801(15)
C5B C 0.3880(2) 0.1502(3) 0.80656(16)
H1B H 0.4097 0.1302 0.8894
C6B C 0.3222(2) 0.2095(2) 0.56041(16)
H2B H 0.2996 0.2313 0.4778
C7B C 0.7117(2) 0.0101(2) 0.75463(15)
C8B C 0.6023(2) 0.0037(2) 0.81164(16)
C9B C 0.7810(2) 0.0782(3) 0.58368(18)
H3B H 0.7587 0.1058 0.5021
C10B C 0.2431(2) 0.2735(3) 0.62415(17)
H4B H 0.1679 0.3386 0.5844
C11B C 0.2744(2) 0.2420(3) 0.74646(18)
H5B H 0.2186 0.2828 0.7883
C12B C 0.9187(2) 0.0736(3) 0.6576(2)
H6B H 0.9884 0.0998 0.6258
C13B C 0.8509(3) 0.0005(3) 0.82721(19)
H7B H 0.8744 -0.0263 0.9091
C14B C 0.9540(3) 0.0305(3) 0.7784(2)
H8B H 1.0473 0.0217 0.8266
loop_
_geom_bond_atom_site_label_1
_geom_bond_atom_site_label_2
_geom_bond_site_symmetry_1
_geom_bond_site_symmetry_2
O1 C8 1_555 1_555
C1 C4 1_555 1_555
C2 C3 1_555 1_555
C3 C4 1_555 1_555
C4 C6 1_555 1_555
C5 C1 1_555 1_555
H1 C5 1_555 1_555
C6 H2 1_555 1_555
C7 C2 1_555 1_555
C8 C1 1_555 1_555
C9 C2 1_555 1_555
H3 C9 1_555 1_555
C10 C6 1_555 1_555
H4 C10 1_555 1_555
C11 C5 1_555 1_555
H5 C11 1_555 1_555
C12 C9 1_555 1_555
H6 C12 1_555 1_555
C13 C7 1_555 1_555
H7 C13 1_555 1_555
C14 C12 1_555 1_555
H8 C14 1_555 1_555
O1B C8B 1_555 1_555
C1B C4B 1_555 1_555
C2B C3B 1_555 1_555
C3B C3 1_555 1_555
C4B C3B 1_555 1_555
C5B C1B 1_555 1_555
H1B C5B 1_555 1_555
C6B C4B 1_555 1_555
H2B C6B 1_555 1_555
C7B C2B 1_555 1_555
C8B C1B 1_555 1_555
C9B C2B 1_555 1_555
H3B C9B 1_555 1_555
C10B C6B 1_555 1_555
H4B C10B 1_555 1_555
C11B C5B 1_555 1_555
H5B C11B 1_555 1_555
C12B C9B 1_555 1_555
H6B C12B 1_555 1_555
C13B C7B 1_555 1_555
H7B C13B 1_555 1_555
C14B C12B 1_555 1_555
H8B C14B 1_555 1_555
C7 C8 1_555 1_555
C10 C11 1_555 1_555
C13 C14 1_555 1_555
C7B C8B 1_555 1_555
C10B C11B 1_555 1_555
C13B C14B 1_555 1_555

#END
