
#######################################################################
#
#                 Cambridge Crystallographic Data Centre
#                                CCDC 
#
#######################################################################
#
# If this CIF has been generated from an entry in the Cambridge 
# Structural Database, then it will include bibliographic, chemical, 
# crystal, experimental, refinement or atomic coordinate data resulting 
# from the CCDC's data processing and validation procedures.
#
#######################################################################

data_DANXUO01
_chemical_formula_moiety         'C26 H21 N1 O3 S1'
_chemical_name_systematic        
9-((4-methylphenyl)sulfonyl)-2-phenyl-2,9-dihydro-1H-carbazole-3-carbaldehyde
_symmetry_cell_setting           monoclinic
_symmetry_space_group_name_H-M   'P 21'
_symmetry_Int_Tables_number      4
_space_group_name_Hall           'P 2yb'
loop_
_symmetry_equiv_pos_site_id
_symmetry_equiv_pos_as_xyz
1 x,y,z
2 -x,1/2+y,-z
_cell_length_a                   9.601(3)
_cell_length_b                   9.410(3)
_cell_length_c                   12.121(4)
_cell_angle_alpha                90
_cell_angle_beta                 110.855(5)
_cell_angle_gamma                90
_cell_volume                     1023.33
_exptl_crystal_colour            yellow
_exptl_crystal_description       prismatic
_cell_formula_units_Z            2
loop_
_atom_site_label
_atom_site_type_symbol
_atom_site_fract_x
_atom_site_fract_y
_atom_site_fract_z
S1 S 0.18946(13) 0.38999(17) 0.24617(11)
N1 N 0.3517(4) 0.3075(4) 0.3070(3)
O1 O 0.9886(5) 0.5963(6) 0.4363(4)
O2 O 0.0843(4) 0.3009(5) 0.2661(4)
O3 O 0.2105(4) 0.5286(4) 0.2909(3)
C1 C 0.3742(6) 0.1619(5) 0.3265(4)
C2 C 0.2744(7) 0.0516(7) 0.3122(4)
H1 H 0.1721 0.0676 0.2845
C3 C 0.3317(9) -0.0810(7) 0.3403(5)
H2 H 0.2670 -0.1575 0.3295
C4 C 0.4828(9) -0.1054(7) 0.3843(5)
H3 H 0.5179 -0.1973 0.4050
C5 C 0.5814(7) 0.0024(6) 0.3978(4)
H4 H 0.6834 -0.0149 0.4269
C6 C 0.5270(5) 0.1380(5) 0.3676(4)
C7 C 0.5973(5) 0.2702(5) 0.3681(4)
C8 C 0.4903(5) 0.3700(5) 0.3307(3)
C9 C 0.5267(5) 0.5226(5) 0.3338(4)
H5 H 0.5305 0.5629 0.4085
H6 H 0.4492 0.5716 0.2711
C10 C 0.6751(5) 0.5448(6) 0.3190(4)
H7 H 0.7109 0.6394 0.3499
C11 C 0.7876(5) 0.4399(6) 0.3904(4)
C12 C 0.7486(5) 0.3092(6) 0.4087(4)
H8 H 0.8214 0.2433 0.4484
C13 C 0.9437(6) 0.4783(8) 0.4393(4)
H9 H 1.0127 0.4075 0.4749
C14 C 0.6610(4) 0.5428(4) 0.1918(2)
C15 C 0.5770(4) 0.6492(4) 0.1186(3)
H10 H 0.5349 0.7207 0.1495
C16 C 0.5559(4) 0.6487(5) -0.0010(3)
H11 H 0.4996 0.7199 -0.0500
C17 C 0.6188(5) 0.5418(6) -0.0473(2)
H12 H 0.6046 0.5415 -0.1273
C18 C 0.7028(5) 0.4354(4) 0.0260(3)
H13 H 0.7449 0.3639 -0.0050
C19 C 0.7239(4) 0.4359(3) 0.1456(3)
H14 H 0.7801 0.3647 0.1946
C20 C 0.1599(5) 0.3945(7) 0.0980(4)
C21 C 0.1987(7) 0.5107(7) 0.0503(5)
H15 H 0.2387 0.5897 0.0970
C22 C 0.1787(7) 0.5111(8) -0.0660(6)
H16 H 0.2068 0.5919 -0.0971
C23 C 0.1216(7) 0.4031(9) -0.1382(5)
C24 C 0.0813(7) 0.2889(8) -0.0909(6)
H17 H 0.0398 0.2114 -0.1389
C25 C 0.0999(7) 0.2832(7) 0.0277(6)
H18 H 0.0710 0.2026 0.0585
C26 C 0.1080(9) 0.4051(11) -0.2642(5)
H19 H 0.0510 0.4865 -0.3025
H20 H 0.0588 0.3201 -0.3024
H21 H 0.2056 0.4100 -0.2691
loop_
_geom_bond_atom_site_label_1
_geom_bond_atom_site_label_2
_geom_bond_site_symmetry_1
_geom_bond_site_symmetry_2
S1 N1 1_555 1_555
N1 C1 1_555 1_555
O1 C13 1_555 1_555
O2 S1 1_555 1_555
O3 S1 1_555 1_555
C1 C2 1_555 1_555
C2 H1 1_555 1_555
C3 C2 1_555 1_555
H2 C3 1_555 1_555
C4 C3 1_555 1_555
H3 C4 1_555 1_555
C5 C4 1_555 1_555
H4 C5 1_555 1_555
C6 C1 1_555 1_555
C7 C6 1_555 1_555
C8 N1 1_555 1_555
C9 C8 1_555 1_555
H5 C9 1_555 1_555
H6 C9 1_555 1_555
C10 C9 1_555 1_555
H7 C10 1_555 1_555
C11 C10 1_555 1_555
C12 C7 1_555 1_555
H8 C12 1_555 1_555
C13 C11 1_555 1_555
H9 C13 1_555 1_555
C14 C10 1_555 1_555
C15 C14 1_555 1_555
H10 C15 1_555 1_555
C16 C15 1_555 1_555
H11 C16 1_555 1_555
C17 C16 1_555 1_555
H12 C17 1_555 1_555
C18 C17 1_555 1_555
H13 C18 1_555 1_555
C19 C14 1_555 1_555
H14 C19 1_555 1_555
C20 S1 1_555 1_555
C21 C20 1_555 1_555
H15 C21 1_555 1_555
C22 C21 1_555 1_555
H16 C22 1_555 1_555
C23 C22 1_555 1_555
C24 C23 1_555 1_555
H17 C24 1_555 1_555
C25 C20 1_555 1_555
H18 C25 1_555 1_555
C26 C23 1_555 1_555
H19 C26 1_555 1_555
H20 C26 1_555 1_555
H21 C26 1_555 1_555
C5 C6 1_555 1_555
C7 C8 1_555 1_555
C11 C12 1_555 1_555
C18 C19 1_555 1_555
C24 C25 1_555 1_555

#END
