
#######################################################################
#
#                 Cambridge Crystallographic Data Centre
#                                CCDC 
#
#######################################################################
#
# If this CIF has been generated from an entry in the Cambridge 
# Structural Database, then it will include bibliographic, chemical, 
# crystal, experimental, refinement or atomic coordinate data resulting 
# from the CCDC's data processing and validation procedures.
#
#######################################################################

data_DAPFAC
_chemical_formula_moiety         'C30 H46 N1 O2 P1,0.5(C6 H14)'
_chemical_name_systematic        
'Di(p-t-butylphenyl)-N,N-di(i-butyl)carbamoylmethylphosphine oxide hexane solvate'
_symmetry_cell_setting           triclinic
_symmetry_space_group_name_H-M   'P -1'
_symmetry_Int_Tables_number      2
_space_group_name_Hall           '-P 1'
loop_
_symmetry_equiv_pos_site_id
_symmetry_equiv_pos_as_xyz
1 x,y,z
2 -x,-y,-z
_cell_length_a                   13.379(4)
_cell_length_b                   13.535(4)
_cell_length_c                   18.610(6)
_cell_angle_alpha                70.059(6)
_cell_angle_beta                 84.205(6)
_cell_angle_gamma                82.428(5)
_cell_volume                     3134.63
_cell_formula_units_Z            4
loop_
_atom_site_label
_atom_site_type_symbol
_atom_site_fract_x
_atom_site_fract_y
_atom_site_fract_z
P2 P 0.25299(5) 0.44094(6) 0.00437(4)
O3 O 0.34099(14) 0.40519(15) -0.03875(10)
O4 O 0.02704(14) 0.43183(16) -0.07829(11)
N2 N 0.15749(18) 0.4580(2) -0.16675(13)
C31 C 0.1542(2) 0.5227(2) -0.05657(15)
H47 H 0.0998 0.5466 -0.0242
H48 H 0.1827 0.5863 -0.0928
C32 C 0.10868(19) 0.4674(2) -0.10181(15)
C33 C 0.1102(2) 0.4005(3) -0.20616(17)
H49 H 0.1442 0.4131 -0.2578
H50 H 0.0387 0.4299 -0.2129
C34 C 0.1138(3) 0.2820(3) -0.16532(18)
H51 H 0.0733 0.2701 -0.1155
C35 C 0.2209(3) 0.2303(3) -0.1478(2)
H52 H 0.2613 0.2374 -0.1959
H53 H 0.2189 0.1552 -0.1181
H54 H 0.2513 0.2650 -0.1183
C36 C 0.0638(3) 0.2330(3) -0.2129(2)
H55 H 0.1009 0.2455 -0.2628
H56 H -0.0061 0.2651 -0.2203
H57 H 0.0642 0.1568 -0.1862
C37 C 0.2541(2) 0.4975(2) -0.20011(15)
H58 H 0.2993 0.4393 -0.2105
H59 H 0.2854 0.5174 -0.1617
C38 C 0.2487(2) 0.5924(3) -0.27408(17)
H60 H 0.2170 0.5725 -0.3129
C39 C 0.3552(3) 0.6184(3) -0.30426(19)
H61 H 0.3528 0.6744 -0.3543
H62 H 0.3955 0.5551 -0.3097
H63 H 0.3860 0.6423 -0.2684
C40 C 0.1864(3) 0.6873(3) -0.2625(3)
H64 H 0.2207 0.7131 -0.2293
H65 H 0.1200 0.6675 -0.2384
H66 H 0.1777 0.7431 -0.3121
C41 C 0.2858(2) 0.5235(2) 0.05475(14)
C42 C 0.2157(2) 0.5901(2) 0.08256(15)
H67 H 0.1456 0.5916 0.0771
C43 C 0.2482(2) 0.6537(2) 0.11794(15)
H68 H 0.1996 0.6989 0.1360
C44 C 0.3509(2) 0.6535(2) 0.12805(15)
C45 C 0.4189(2) 0.5856(2) 0.10135(15)
H69 H 0.4889 0.5829 0.1077
C46 C 0.3875(2) 0.5215(2) 0.06557(15)
H70 H 0.4361 0.4755 0.0482
C47 C 0.3825(2) 0.7277(2) 0.16549(16)
C48 C 0.3475(3) 0.8431(3) 0.11880(19)
H71 H 0.3761 0.8591 0.0660
H72 H 0.3705 0.8907 0.1418
H73 H 0.2736 0.8528 0.1190
C49 C 0.3335(3) 0.7030(3) 0.24664(17)
H74 H 0.2599 0.7111 0.2446
H75 H 0.3531 0.7518 0.2701
H76 H 0.3562 0.6302 0.2772
C50 C 0.4970(2) 0.7166(3) 0.1707(2)
H77 H 0.5196 0.6446 0.2030
H78 H 0.5146 0.7673 0.1931
H79 H 0.5302 0.7305 0.1193
C51 C 0.1982(2) 0.3300(2) 0.07433(14)
C52 C 0.1296(2) 0.3394(2) 0.13335(16)
H80 H 0.1019 0.4073 0.1343
C53 C 0.1017(2) 0.2491(2) 0.19115(17)
H81 H 0.0550 0.2563 0.2315
C54 C 0.1405(2) 0.1486(2) 0.19120(15)
C55 C 0.2054(2) 0.1407(2) 0.13086(17)
H82 H 0.2310 0.0729 0.1286
C56 C 0.2342(2) 0.2303(2) 0.07315(17)
H83 H 0.2795 0.2228 0.0321
C57 C 0.1146(2) 0.0523(2) 0.26060(17)
C58 C 0.1516(4) 0.0639(4) 0.3314(2)
H84 H 0.1385 0.0016 0.3758
H85 H 0.1159 0.1273 0.3401
H86 H 0.2243 0.0704 0.3240
C59 C 0.0007(3) 0.0470(3) 0.2733(2)
H87 H -0.0259 0.0424 0.2275
H88 H -0.0316 0.1107 0.2834
H89 H -0.0136 -0.0155 0.3173
C60 C 0.1636(4) -0.0511(3) 0.2514(3)
H90 H 0.2369 -0.0488 0.2425
H91 H 0.1366 -0.0612 0.2076
H92 H 0.1490 -0.1099 0.2980
P1 P 0.75285(5) 0.96213(5) 0.45794(4)
O1 O 0.51924(14) 0.85771(15) 0.48845(11)
O2 O 0.83967(13) 0.88206(14) 0.45774(10)
N1 N 0.64657(16) 0.73106(17) 0.53293(12)
C1 C 0.65496(19) 0.9134(2) 0.53255(15)
H1 H 0.6857 0.8819 0.5826
H2 H 0.6052 0.9732 0.5352
C2 C 0.60161(19) 0.8315(2) 0.51729(14)
C3 C 0.7386(2) 0.6877(2) 0.57469(15)
H3 H 0.7728 0.7469 0.5772
H4 H 0.7849 0.6496 0.5457
C4 C 0.7194(2) 0.6124(2) 0.65601(16)
H5 H 0.6852 0.5528 0.6528
C5 C 0.6510(3) 0.6661(3) 0.70505(19)
H6 H 0.6386 0.6147 0.7560
H7 H 0.5866 0.6940 0.6810
H8 H 0.6836 0.7242 0.7097
C6 C 0.8194(3) 0.5668(3) 0.69227(17)
H9 H 0.8554 0.6243 0.6943
H10 H 0.8606 0.5285 0.6616
H11 H 0.8069 0.5183 0.7443
C7 C 0.5961(2) 0.6591(2) 0.50931(16)
H12 H 0.5239 0.6633 0.5273
H13 H 0.6264 0.5858 0.5343
C8 C 0.6036(3) 0.6832(3) 0.42251(18)
H14 H 0.5691 0.7558 0.3986
C9 C 0.5467(3) 0.6055(3) 0.4034(2)
H15 H 0.5475 0.6235 0.3477
H16 H 0.4767 0.6095 0.4244
H17 H 0.5794 0.5336 0.4259
C10 C 0.7124(3) 0.6822(3) 0.39006(19)
H18 H 0.7477 0.6115 0.4120
H19 H 0.7459 0.7336 0.4029
H20 H 0.7136 0.7010 0.3343
C11 C 0.6930(2) 1.0107(2) 0.36825(15)
C12 C 0.7382(2) 0.9802(2) 0.30758(16)
H21 H 0.7970 0.9311 0.3147
C13 C 0.6969(2) 1.0219(3) 0.23632(17)
H22 H 0.7287 1.0005 0.1952
C14 C 0.6112(2) 1.0936(2) 0.22323(16)
C15 C 0.5661(2) 1.1212(3) 0.28553(17)
H23 H 0.5063 1.1689 0.2789
C16 C 0.6061(2) 1.0809(2) 0.35691(16)
H24 H 0.5738 1.1016 0.3982
C17 C 0.5698(3) 1.1421(3) 0.14362(18)
C18 C 0.5354(4) 1.0565(4) 0.1205(3)
H25 H 0.4849 1.0202 0.1590
H26 H 0.5933 1.0057 0.1168
H27 H 0.5055 1.0878 0.0707
C19 C 0.6536(4) 1.1940(4) 0.0869(2)
H28 H 0.7043 1.1393 0.0784
H29 H 0.6855 1.2389 0.1077
H30 H 0.6249 1.2374 0.0383
C20 C 0.4840(4) 1.2303(4) 0.1388(2)
H31 H 0.4627 1.2603 0.0861
H32 H 0.5076 1.2857 0.1538
H33 H 0.4268 1.2014 0.1733
C21 C 0.78860(19) 1.0749(2) 0.47594(14)
C22 C 0.89132(19) 1.0890(2) 0.46629(14)
H34 H 0.9382 1.0414 0.4492
C23 C 0.9254(2) 1.1716(2) 0.48131(15)
H35 H 0.9956 1.1795 0.4750
C24 C 0.8583(2) 1.2434(2) 0.50550(14)
C25 C 0.7561(2) 1.2283(2) 0.51489(16)
H36 H 0.7090 1.2762 0.5315
C26 C 0.7216(2) 1.1451(2) 0.50059(16)
H37 H 0.6516 1.1364 0.5077
C27 C 0.8985(2) 1.3342(2) 0.52096(16)
C28 C 0.9749(2) 1.2920(2) 0.58247(18)
H38 H 1.0014 1.3514 0.5905
H39 H 1.0306 1.2482 0.5661
H40 H 0.9420 1.2494 0.6304
C29 C 0.9511(3) 1.4011(3) 0.44592(19)
H41 H 0.9028 1.4267 0.4056
H42 H 1.0081 1.3577 0.4306
H43 H 0.9757 1.4614 0.4538
C30 C 0.8143(3) 1.4053(3) 0.5462(2)
H44 H 0.7643 1.4326 0.5072
H45 H 0.8429 1.4644 0.5528
H46 H 0.7815 1.3644 0.5949
loop_
_geom_bond_atom_site_label_1
_geom_bond_atom_site_label_2
_geom_bond_site_symmetry_1
_geom_bond_site_symmetry_2
P1 O2 1_555 1_555
O1 C2 1_555 1_555
N1 C2 1_555 1_555
C1 P1 1_555 1_555
H1 C1 1_555 1_555
H2 C1 1_555 1_555
C2 C1 1_555 1_555
C3 N1 1_555 1_555
H3 C3 1_555 1_555
H4 C3 1_555 1_555
C4 C3 1_555 1_555
H5 C4 1_555 1_555
C5 C4 1_555 1_555
H6 C5 1_555 1_555
H7 C5 1_555 1_555
H8 C5 1_555 1_555
C6 C4 1_555 1_555
H9 C6 1_555 1_555
H10 C6 1_555 1_555
H11 C6 1_555 1_555
C7 N1 1_555 1_555
H12 C7 1_555 1_555
H13 C7 1_555 1_555
C8 C7 1_555 1_555
H14 C8 1_555 1_555
C9 C8 1_555 1_555
H15 C9 1_555 1_555
H16 C9 1_555 1_555
H17 C9 1_555 1_555
C10 C8 1_555 1_555
H18 C10 1_555 1_555
H19 C10 1_555 1_555
H20 C10 1_555 1_555
C11 P1 1_555 1_555
C12 C11 1_555 1_555
H21 C12 1_555 1_555
C13 C12 1_555 1_555
H22 C13 1_555 1_555
C14 C13 1_555 1_555
C15 C14 1_555 1_555
H23 C15 1_555 1_555
C16 C11 1_555 1_555
H24 C16 1_555 1_555
C17 C14 1_555 1_555
C18 C17 1_555 1_555
H25 C18 1_555 1_555
H26 C18 1_555 1_555
H27 C18 1_555 1_555
C19 C17 1_555 1_555
H28 C19 1_555 1_555
H29 C19 1_555 1_555
H30 C19 1_555 1_555
C20 C17 1_555 1_555
H31 C20 1_555 1_555
H32 C20 1_555 1_555
H33 C20 1_555 1_555
C21 P1 1_555 1_555
C22 C21 1_555 1_555
H34 C22 1_555 1_555
C23 C22 1_555 1_555
H35 C23 1_555 1_555
C24 C23 1_555 1_555
C25 C24 1_555 1_555
H36 C25 1_555 1_555
C26 C21 1_555 1_555
H37 C26 1_555 1_555
C27 C24 1_555 1_555
C28 C27 1_555 1_555
H38 C28 1_555 1_555
H39 C28 1_555 1_555
H40 C28 1_555 1_555
C29 C27 1_555 1_555
H41 C29 1_555 1_555
H42 C29 1_555 1_555
H43 C29 1_555 1_555
C30 C27 1_555 1_555
H44 C30 1_555 1_555
H45 C30 1_555 1_555
H46 C30 1_555 1_555
P2 O3 1_555 1_555
O4 C32 1_555 1_555
N2 C32 1_555 1_555
C31 P2 1_555 1_555
H47 C31 1_555 1_555
H48 C31 1_555 1_555
C32 C31 1_555 1_555
C33 N2 1_555 1_555
H49 C33 1_555 1_555
H50 C33 1_555 1_555
C34 C33 1_555 1_555
H51 C34 1_555 1_555
C35 C34 1_555 1_555
H52 C35 1_555 1_555
H53 C35 1_555 1_555
H54 C35 1_555 1_555
C36 C34 1_555 1_555
H55 C36 1_555 1_555
H56 C36 1_555 1_555
H57 C36 1_555 1_555
C37 N2 1_555 1_555
H58 C37 1_555 1_555
H59 C37 1_555 1_555
C38 C37 1_555 1_555
H60 C38 1_555 1_555
C39 C38 1_555 1_555
H61 C39 1_555 1_555
H62 C39 1_555 1_555
H63 C39 1_555 1_555
C40 C38 1_555 1_555
H64 C40 1_555 1_555
H65 C40 1_555 1_555
H66 C40 1_555 1_555
C41 P2 1_555 1_555
C42 C41 1_555 1_555
H67 C42 1_555 1_555
C43 C42 1_555 1_555
H68 C43 1_555 1_555
C44 C43 1_555 1_555
C45 C44 1_555 1_555
H69 C45 1_555 1_555
C46 C41 1_555 1_555
H70 C46 1_555 1_555
C47 C44 1_555 1_555
C48 C47 1_555 1_555
H71 C48 1_555 1_555
H72 C48 1_555 1_555
H73 C48 1_555 1_555
C49 C47 1_555 1_555
H74 C49 1_555 1_555
H75 C49 1_555 1_555
H76 C49 1_555 1_555
C50 C47 1_555 1_555
H77 C50 1_555 1_555
H78 C50 1_555 1_555
H79 C50 1_555 1_555
C51 P2 1_555 1_555
C52 C51 1_555 1_555
H80 C52 1_555 1_555
C53 C52 1_555 1_555
H81 C53 1_555 1_555
C54 C53 1_555 1_555
C55 C54 1_555 1_555
H82 C55 1_555 1_555
C56 C51 1_555 1_555
H83 C56 1_555 1_555
C57 C54 1_555 1_555
C58 C57 1_555 1_555
H84 C58 1_555 1_555
H85 C58 1_555 1_555
H86 C58 1_555 1_555
C59 C57 1_555 1_555
H87 C59 1_555 1_555
H88 C59 1_555 1_555
H89 C59 1_555 1_555
C60 C57 1_555 1_555
H90 C60 1_555 1_555
H91 C60 1_555 1_555
H92 C60 1_555 1_555
C15 C16 1_555 1_555
C25 C26 1_555 1_555
C45 C46 1_555 1_555
C55 C56 1_555 1_555

#END
