
#######################################################################
#
#                 Cambridge Crystallographic Data Centre
#                                CCDC 
#
#######################################################################
#
# If this CIF has been generated from an entry in the Cambridge 
# Structural Database, then it will include bibliographic, chemical, 
# crystal, experimental, refinement or atomic coordinate data resulting 
# from the CCDC's data processing and validation procedures.
#
#######################################################################

data_DAPJEJ
_chemical_name_common            '1-Methyl-chininium iodide methanol clathrate'
_chemical_formula_moiety         'C21 H27 N2 O2 1+,C1 H4 O1,I1 1-'
_chemical_name_systematic        
"(8S,9R)-9-Hydroxy-6'-methoxy-1-methyl-cinchoninium iodide methanol clathrate"
_symmetry_cell_setting           orthorhombic
_symmetry_space_group_name_H-M   'P 21 21 21'
_symmetry_Int_Tables_number      19
_space_group_name_Hall           'P 2ac 2ab'
loop_
_symmetry_equiv_pos_site_id
_symmetry_equiv_pos_as_xyz
1 x,y,z
2 1/2+x,1/2-y,-z
3 -x,1/2+y,1/2-z
4 1/2-x,-y,1/2+z
_cell_length_a                   6.850(2)
_cell_length_b                   14.955(6)
_cell_length_c                   21.605(8)
_cell_angle_alpha                90
_cell_angle_beta                 90
_cell_angle_gamma                90
_cell_volume                     2213.25
_chemical_melting_point          125-126deg.C
_cell_formula_units_Z            4
loop_
_atom_site_label
_atom_site_type_symbol
_atom_site_fract_x
_atom_site_fract_y
_atom_site_fract_z
I1 I 0.8232(1) 0.8117(1) 0.1691(1)
N1 N 0.0619(7) 0.5252(3) 0.1452(2)
C1 C -0.0938(10) 0.5683(4) 0.1039(3)
C2 C -0.0032(10) 0.6179(4) 0.0510(3)
C3 C 0.2130(10) 0.5898(4) 0.0455(3)
C4 C 0.3169(11) 0.6243(4) 0.1020(3)
C5 C 0.2095(10) 0.5977(4) 0.1595(3)
C6 C 0.2261(10) 0.4871(4) 0.0469(3)
C7 C 0.1500(9) 0.4485(3) 0.1075(2)
C8 C 0.3002(10) 0.3921(4) 0.1429(3)
C9 C -0.1208(12) 0.6071(5) -0.0066(3)
C10 C -0.2672(17) 0.6533(8) -0.0226(6)
C11 C -0.0240(13) 0.4944(5) 0.2037(3)
O1 O 0.4808(6) 0.4388(3) 0.1478(2)
N2 N 0.3782(8) 0.1458(3) 0.0393(2)
C13 C 0.5003(10) 0.2107(4) 0.0383(3)
C14 C 0.4855(9) 0.2914(4) 0.0705(3)
C15 C 0.3277(9) 0.3053(4) 0.1086(2)
C16 C 0.0209(9) 0.2385(4) 0.1517(3)
C17 C -0.1090(9) 0.1695(4) 0.1541(3)
C18 C -0.0756(11) 0.0939(4) 0.1169(3)
C19 C 0.0785(10) 0.0880(4) 0.0789(3)
C20 C -0.3241(11) 0.2447(4) 0.2237(3)
C21 C 0.2152(10) 0.1577(4) 0.0773(3)
C22 C 0.1867(10) 0.2354(4) 0.1128(3)
O3 O -0.2706(7) 0.1665(3) 0.1902(2)
H1 H -0.1696 0.6093 0.1282
H2 H -0.1773 0.5223 0.0878
H3 H -0.0039 0.6812 0.0584
H4 H 0.2687 0.6128 0.0079
H5 H 0.3243 0.6883 0.0999
H6 H 0.4463 0.5997 0.1032
H7 H 0.3012 0.5758 0.1894
H8 H 0.1429 0.6489 0.1759
H9 H 0.3602 0.4698 0.0419
H10 H 0.1502 0.4634 0.0134
H11 H 0.0496 0.4056 0.0986
H12 H 0.2544 0.3806 0.1842
H13 H -0.0813 0.5602 -0.0342
H14 H -0.338(12) 0.6451(46) -0.0629(36)
H15 H -0.322(26) 0.666(11) -0.0087(84)
H16 H -0.1182 0.4485 0.1954
H17 H -0.0080 0.5437 0.2240
H18 H 0.0769 0.4710 0.2299
H19 H 0.4660(84) 0.4517(36) 0.1785(25)
H24 H 0.6136 0.2031 0.0127
H25 H 0.5843 0.3365 0.0662
H26 H -0.0007 0.2904 0.1769
H27 H -0.1662 0.0450 0.1187
H28 H 0.0951 0.0365 0.0530
H29 H -0.4405 0.2331 0.2471
H30 H -0.3477 0.2928 0.1952
H31 H -0.2203 0.2609 0.2513
C12 C 0.3894(13) -0.0037(7) 0.1827(3)
O2 O 0.4864(9) -0.0466(4) 0.2295(2)
H20 H 0.4794 0.0326 0.1598
H21 H 0.2890 0.0335 0.2000
H22 H 0.3315 -0.0472 0.1557
H23 H 0.5789(67) -0.0668(31) 0.2143(22)
loop_
_geom_bond_atom_site_label_1
_geom_bond_atom_site_label_2
_geom_bond_site_symmetry_1
_geom_bond_site_symmetry_2
N1 C1 1_555 1_555
C1 C2 1_555 1_555
C2 C3 1_555 1_555
C3 C4 1_555 1_555
C4 C5 1_555 1_555
C5 N1 1_555 1_555
C6 C3 1_555 1_555
C7 N1 1_555 1_555
C8 C7 1_555 1_555
C9 C2 1_555 1_555
C10 C9 1_555 1_555
C11 N1 1_555 1_555
O1 C8 1_555 1_555
C12 O2 1_555 1_555
O2 H23 1_555 1_555
N2 C13 1_555 1_555
C13 C14 1_555 1_555
C14 C15 1_555 1_555
C15 C8 1_555 1_555
C16 C17 1_555 1_555
C17 C18 1_555 1_555
C18 C19 1_555 1_555
C19 C21 1_555 1_555
C20 O3 1_555 1_555
C21 N2 1_555 1_555
C22 C15 1_555 1_555
O3 C17 1_555 1_555
H1 C1 1_555 1_555
H2 C1 1_555 1_555
H3 C2 1_555 1_555
H4 C3 1_555 1_555
H5 C4 1_555 1_555
H6 C4 1_555 1_555
H7 C5 1_555 1_555
H8 C5 1_555 1_555
H9 C6 1_555 1_555
H10 C6 1_555 1_555
H11 C7 1_555 1_555
H12 C8 1_555 1_555
H13 C9 1_555 1_555
H14 C10 1_555 1_555
H15 C10 1_555 1_555
H16 C11 1_555 1_555
H17 C11 1_555 1_555
H18 C11 1_555 1_555
H19 O1 1_555 1_555
H20 C12 1_555 1_555
H21 C12 1_555 1_555
H22 C12 1_555 1_555
H24 C13 1_555 1_555
H25 C14 1_555 1_555
H26 C16 1_555 1_555
H27 C18 1_555 1_555
H28 C19 1_555 1_555
H29 C20 1_555 1_555
H30 C20 1_555 1_555
H31 C20 1_555 1_555
C6 C7 1_555 1_555
C16 C22 1_555 1_555
C21 C22 1_555 1_555

#END
