
#######################################################################
#
#                 Cambridge Crystallographic Data Centre
#                                CCDC 
#
#######################################################################
#
# If this CIF has been generated from an entry in the Cambridge 
# Structural Database, then it will include bibliographic, chemical, 
# crystal, experimental, refinement or atomic coordinate data resulting 
# from the CCDC's data processing and validation procedures.
#
#######################################################################

data_DAPKEL
_chemical_formula_moiety         'C17 H31 N1 O7'
_chemical_name_systematic        
'methyl 3-(di-n-propylcarbamoyl)-5,6-dimethoxy-5,6-dimethyl-1,4-dioxane-2-carboxylate'
_symmetry_cell_setting           monoclinic
_symmetry_space_group_name_H-M   'P 21'
_symmetry_Int_Tables_number      4
_space_group_name_Hall           'P 2yb'
loop_
_symmetry_equiv_pos_site_id
_symmetry_equiv_pos_as_xyz
1 x,y,z
2 -x,1/2+y,-z
_cell_length_a                   8.7774(4)
_cell_length_b                   8.3066(4)
_cell_length_c                   13.4961(8)
_cell_angle_alpha                90
_cell_angle_beta                 96.2110(17)
_cell_angle_gamma                90
_cell_volume                     978.229
_exptl_crystal_colour            colorless
_cell_formula_units_Z            2
loop_
_atom_site_label
_atom_site_type_symbol
_atom_site_fract_x
_atom_site_fract_y
_atom_site_fract_z
C1 C 0.8323(3) 0.3092(3) 0.27455(18)
C2 C 0.8855(3) 0.3635(3) 0.38330(17)
C3 C 0.7256(3) 0.5984(3) 0.35772(17)
H1 H 0.7368 0.7182 0.3574
C4 C 0.6814(3) 0.5474(3) 0.25012(18)
H2 H 0.7647 0.5878 0.2116
C5 C 0.8140(3) 0.1284(3) 0.2637(2)
H3 H 0.9122 0.0758 0.2845
H4 H 0.7812 0.1019 0.1938
H5 H 0.7367 0.0907 0.3055
C6 C 0.9214(3) 0.3373(4) 0.11244(19)
H6 H 1.0042 0.3860 0.0794
H7 H 0.8228 0.3811 0.0836
H8 H 0.9222 0.2203 0.1028
C7 C 1.0534(3) 0.3274(4) 0.41510(19)
H9 H 1.0710 0.2112 0.4111
H10 H 1.0803 0.3638 0.4838
H11 H 1.1171 0.3837 0.3709
C8 C 0.8262(3) 0.2811(4) 0.54687(19)
H12 H 0.7478 0.2236 0.5793
H13 H 0.8356 0.3914 0.5726
H14 H 0.9248 0.2256 0.5608
C9 C 0.5999(3) 0.5597(3) 0.42460(18)
C10 C 0.5392(4) 0.5656(5) 0.5911(2)
H15 H 0.5858 0.5938 0.6581
H16 H 0.5096 0.4518 0.5896
H17 H 0.4481 0.6323 0.5738
C11 C 0.5346(3) 0.6326(3) 0.20678(17)
C12 C 0.2831(3) 0.6555(3) 0.11858(17)
H18 H 0.2234 0.5955 0.0641
H19 H 0.3251 0.7531 0.0894
C13 C 0.1770(3) 0.7057(4) 0.19477(18)
H20 H 0.2329 0.7784 0.2442
H21 H 0.1463 0.6090 0.2306
C14 C 0.0332(3) 0.7912(4) 0.1468(2)
H22 H -0.0317 0.8211 0.1986
H23 H -0.0236 0.7190 0.0987
H24 H 0.0629 0.8884 0.1125
C15 C 0.3771(3) 0.3830(3) 0.16692(18)
H25 H 0.2686 0.3691 0.1790
H26 H 0.4417 0.3357 0.2243
C16 C 0.4049(3) 0.2918(3) 0.07300(19)
H27 H 0.3465 0.3441 0.0149
H28 H 0.5151 0.2981 0.0637
C17 C 0.3579(4) 0.1163(4) 0.0764(3)
H29 H 0.3773 0.0633 0.0141
H30 H 0.2486 0.1092 0.0846
H31 H 0.4176 0.0630 0.1326
N1 N 0.4105(2) 0.5545(2) 0.16177(15)
O1 O 0.87165(17) 0.5342(2) 0.39280(13)
O2 O 0.68452(17) 0.3764(2) 0.24269(12)
O3 O 0.94358(18) 0.3730(2) 0.21682(12)
O4 O 0.78300(18) 0.2852(2) 0.44088(12)
O5 O 0.4735(2) 0.5146(3) 0.39514(14)
O6 O 0.64885(19) 0.5936(2) 0.51977(13)
O7 O 0.5419(2) 0.7799(2) 0.21085(14)
loop_
_geom_bond_atom_site_label_1
_geom_bond_atom_site_label_2
_geom_bond_site_symmetry_1
_geom_bond_site_symmetry_2
C1 C2 1_555 1_555
C2 C7 1_555 1_555
C3 H1 1_555 1_555
C4 C3 1_555 1_555
H2 C4 1_555 1_555
C5 C1 1_555 1_555
H3 C5 1_555 1_555
H4 C5 1_555 1_555
H5 C5 1_555 1_555
C6 H6 1_555 1_555
H7 C6 1_555 1_555
H8 C6 1_555 1_555
C7 H9 1_555 1_555
H10 C7 1_555 1_555
H11 C7 1_555 1_555
C8 H12 1_555 1_555
H13 C8 1_555 1_555
H14 C8 1_555 1_555
C9 C3 1_555 1_555
C10 H15 1_555 1_555
H16 C10 1_555 1_555
H17 C10 1_555 1_555
C11 C4 1_555 1_555
C12 H18 1_555 1_555
H19 C12 1_555 1_555
C13 C12 1_555 1_555
H20 C13 1_555 1_555
H21 C13 1_555 1_555
C14 C13 1_555 1_555
H22 C14 1_555 1_555
H23 C14 1_555 1_555
H24 C14 1_555 1_555
C15 H25 1_555 1_555
H26 C15 1_555 1_555
C16 C15 1_555 1_555
H27 C16 1_555 1_555
H28 C16 1_555 1_555
C17 C16 1_555 1_555
H29 C17 1_555 1_555
H30 C17 1_555 1_555
H31 C17 1_555 1_555
N1 C11 1_555 1_555
O1 C2 1_555 1_555
O2 C1 1_555 1_555
O3 C1 1_555 1_555
O4 C2 1_555 1_555
O5 C9 1_555 1_555
O6 C9 1_555 1_555
O7 C11 1_555 1_555
C3 O1 1_555 1_555
C4 O2 1_555 1_555
C6 O3 1_555 1_555
C8 O4 1_555 1_555
C10 O6 1_555 1_555
C12 N1 1_555 1_555
C15 N1 1_555 1_555

#END
