
#######################################################################
#
#                 Cambridge Crystallographic Data Centre
#                                CCDC 
#
#######################################################################
#
# If this CIF has been generated from an entry in the Cambridge 
# Structural Database, then it will include bibliographic, chemical, 
# crystal, experimental, refinement or atomic coordinate data resulting 
# from the CCDC's data processing and validation procedures.
#
#######################################################################

data_DAPQOB
_chemical_formula_moiety         'C23 H23 Br1 O5'
_chemical_name_systematic        
'6-Allyl-3-(4-methoxyphenoxy)-3,6-dihydro-2H-2-pyranylmethyl 4-bromobenzoate'
_symmetry_cell_setting           monoclinic
_symmetry_space_group_name_H-M   'P 21'
_symmetry_Int_Tables_number      4
_space_group_name_Hall           'P 2yb'
loop_
_symmetry_equiv_pos_site_id
_symmetry_equiv_pos_as_xyz
1 x,y,z
2 -x,1/2+y,-z
_cell_length_a                   10.0462(7)
_cell_length_b                   5.3870(4)
_cell_length_c                   19.6191(14)
_cell_angle_alpha                90
_cell_angle_beta                 100.504(2)
_cell_angle_gamma                90
_cell_volume                     1043.97
_exptl_crystal_colour            colorless
_exptl_crystal_description       rod
_cell_formula_units_Z            2
_exptl_crystal_recrystallization_method hexanes
loop_
_atom_site_label
_atom_site_type_symbol
_atom_site_fract_x
_atom_site_fract_y
_atom_site_fract_z
Br1 Br 0.09435(3) 0.26769(10) 0.419019(13)
O1 O -0.50186(17) 1.4447(4) 0.27787(9)
O2 O -0.81051(18) 1.1847(3) 0.18333(10)
O3 O -1.28556(17) 1.2867(6) -0.00909(9)
O4 O -0.40332(18) 0.9901(4) 0.24072(9)
O5 O -0.37831(17) 0.7402(5) 0.15239(8)
C1 C -0.5547(3) 1.5648(6) 0.33205(14)
H1 H -0.502(3) 1.701(6) 0.3393(14)
C2 C -0.6994(3) 1.6409(6) 0.30806(15)
H2 H -0.736(2) 1.740(7) 0.3401(12)
C3 C -0.7704(3) 1.5654(5) 0.24813(15)
H3 H -0.853(4) 1.648(8) 0.2332(19)
C4 C -0.7166(3) 1.3852(5) 0.20192(13)
H4 H -0.693(3) 1.482(6) 0.1573(14)
C5 C -0.5894(2) 1.2602(7) 0.24223(11)
H5 H -0.617(3) 1.149(6) 0.2741(15)
C6 C -0.5117(3) 1.1212(6) 0.19597(15)
H6 H -0.479(3) 1.250(9) 0.1638(15)
H7 H -0.568(3) 1.018(6) 0.1684(14)
C7 C -0.5341(3) 1.4054(7) 0.39831(16)
H8 H -0.584(4) 1.286(11) 0.3869(18)
H9 H -0.564(3) 1.489(7) 0.4336(16)
C8 C -0.3884(3) 1.3459(10) 0.42509(19)
H10 H -0.3410 1.2923 0.3900
C9 C -0.3230(5) 1.3519(10) 0.4787(3)
H11 H -0.3610 1.4031 0.5174
H12 H -0.2304 1.3056 0.4849
C10 C -0.9526(3) 1.4298(5) 0.09122(14)
H13 H -0.893(4) 1.560(8) 0.0911(17)
C11 C -1.0738(3) 1.4430(6) 0.04395(13)
H14 H -1.089(3) 1.570(7) 0.0130(16)
C12 C -1.1707(2) 1.2573(8) 0.04074(11)
C13 C -1.1482(3) 1.0585(5) 0.08591(13)
H15 H -1.203(3) 0.934(6) 0.0829(14)
C14 C -1.0262(3) 1.0435(5) 0.13328(13)
H16 H -1.009(3) 0.896(6) 0.1596(15)
C15 C -0.9288(2) 1.2262(5) 0.13534(12)
C16 C -1.3857(3) 1.0966(8) -0.01190(18)
H17 H -1.349(3) 0.949(7) -0.0219(16)
H18 H -1.420(4) 1.085(8) 0.033(2)
H19 H -1.470(4) 1.144(8) -0.0501(19)
C17 C -0.3451(2) 0.8036(7) 0.21168(13)
C18 C -0.2340(2) 0.6859(5) 0.26192(13)
C19 C -0.1939(2) 0.7774(9) 0.32944(12)
H20 H -0.222(3) 0.939(7) 0.3442(16)
C20 C -0.0944(3) 0.6523(6) 0.37607(14)
H21 H -0.074(3) 0.723(8) 0.4223(15)
C21 C -0.0371(2) 0.4424(6) 0.35450(14)
C22 C -0.0721(3) 0.3513(6) 0.28777(15)
H22 H -0.034(3) 0.213(8) 0.2713(17)
C23 C -0.1715(3) 0.4776(6) 0.24128(14)
H23 H -0.194(4) 0.414(9) 0.200(2)
loop_
_geom_bond_atom_site_label_1
_geom_bond_atom_site_label_2
_geom_bond_site_symmetry_1
_geom_bond_site_symmetry_2
Br1 C21 1_555 1_555
O1 C1 1_555 1_555
O2 C4 1_555 1_555
O3 C12 1_555 1_555
O4 C6 1_555 1_555
O5 C17 1_555 1_555
C1 H1 1_555 1_555
C2 C1 1_555 1_555
H2 C2 1_555 1_555
C3 C2 1_555 1_555
H3 C3 1_555 1_555
C4 C3 1_555 1_555
H4 C4 1_555 1_555
C5 O1 1_555 1_555
H5 C5 1_555 1_555
C6 C5 1_555 1_555
H6 C6 1_555 1_555
H7 C6 1_555 1_555
C7 C1 1_555 1_555
H8 C7 1_555 1_555
H9 C7 1_555 1_555
C8 C7 1_555 1_555
H10 C8 1_555 1_555
C9 C8 1_555 1_555
H11 C9 1_555 1_555
H12 C9 1_555 1_555
C10 H13 1_555 1_555
C11 C10 1_555 1_555
H14 C11 1_555 1_555
C12 C11 1_555 1_555
C13 C12 1_555 1_555
H15 C13 1_555 1_555
C14 C13 1_555 1_555
H16 C14 1_555 1_555
C15 O2 1_555 1_555
C16 O3 1_555 1_555
H17 C16 1_555 1_555
H18 C16 1_555 1_555
H19 C16 1_555 1_555
C17 O4 1_555 1_555
C18 C17 1_555 1_555
C19 C18 1_555 1_555
H20 C19 1_555 1_555
C20 C19 1_555 1_555
H21 C20 1_555 1_555
C21 C20 1_555 1_555
C22 C21 1_555 1_555
H22 C22 1_555 1_555
C23 C18 1_555 1_555
H23 C23 1_555 1_555
C4 C5 1_555 1_555
C10 C15 1_555 1_555
C14 C15 1_555 1_555
C22 C23 1_555 1_555

#END
