
#######################################################################
#
#                 Cambridge Crystallographic Data Centre
#                                CCDC 
#
#######################################################################
#
# If this CIF has been generated from an entry in the Cambridge 
# Structural Database, then it will include bibliographic, chemical, 
# crystal, experimental, refinement or atomic coordinate data resulting 
# from the CCDC's data processing and validation procedures.
#
#######################################################################

data_DAPSUO04
_chemical_name_common            4,4'-Sulfonyldianiline
_chemical_formula_moiety         'C12 H12 N2 O2 S1'
_chemical_name_systematic        "4,4'-Diaminodiphenyl sulfone"
_chemical_properties_biological  'antimalarial and antileprotic drug'
_symmetry_cell_setting           orthorhombic
_symmetry_space_group_name_H-M   'P 21 21 21'
_symmetry_Int_Tables_number      19
_space_group_name_Hall           'P 2ac 2ab'
loop_
_symmetry_equiv_pos_site_id
_symmetry_equiv_pos_as_xyz
1 x,y,z
2 1/2+x,1/2-y,-z
3 -x,1/2+y,1/2-z
4 1/2-x,-y,1/2+z
_cell_length_a                   8.057(2)
_cell_length_b                   25.554(6)
_cell_length_c                   5.759(2)
_cell_angle_alpha                90
_cell_angle_beta                 90
_cell_angle_gamma                90
_cell_volume                     1185.71
_exptl_crystal_colour            colorless
_cell_formula_units_Z            4
loop_
_atom_site_label
_atom_site_type_symbol
_atom_site_fract_x
_atom_site_fract_y
_atom_site_fract_z
S1 S 0.0815(1) 0.1245(1) 0.3740(2)
O1 O 0.0626(4) 0.1198(1) 0.6226(6)
O2 O -0.0532(4) 0.1066(1) 0.2291(7)
N1 N 0.1944(6) 0.3483(2) 0.1720(8)
N2 N 0.7082(5) 0.0277(2) 0.0624(8)
C1 C 0.1129(5) 0.1908(2) 0.3124(8)
C2 C 0.0571(6) 0.2118(2) 0.1063(9)
C3 C 0.0823(7) 0.2640(2) 0.0612(8)
C4 C 0.1662(6) 0.2958(2) 0.2177(9)
C5 C 0.2205(7) 0.2743(2) 0.424(1)
C6 C 0.1943(6) 0.2223(2) 0.4748(9)
C7 C 0.2625(6) 0.0923(2) 0.2873(8)
C8 C 0.2675(6) 0.0644(2) 0.0814(9)
C9 C 0.4140(7) 0.0418(2) 0.0093(9)
C10 C 0.5581(6) 0.0484(2) 0.1367(9)
C11 C 0.5519(6) 0.0754(2) 0.3437(9)
C12 C 0.4056(6) 0.0979(2) 0.4199(8)
H1 H 0.0030 0.1897 -0.0104
H2 H 0.0394 0.2786 -0.0829
H3 H 0.2776 0.2966 0.5386
H4 H 0.2333 0.2070 0.6187
H5 H 0.1671 0.0605 -0.0129
H6 H 0.4166 0.0216 -0.1312
H7 H 0.6511 0.0778 0.4410
H8 H 0.3992 0.1171 0.5639
H9 H 0.2535 0.3707 0.2783
H10 H 0.1567 0.3644 0.0282
H11 H 0.8071 0.0322 0.1510
H12 H 0.7147 0.0079 -0.0798
loop_
_geom_bond_atom_site_label_1
_geom_bond_atom_site_label_2
_geom_bond_site_symmetry_1
_geom_bond_site_symmetry_2
S1 O1 1_555 1_555
O2 S1 1_555 1_555
N1 C4 1_555 1_555
N2 C10 1_555 1_555
C1 S1 1_555 1_555
C2 C1 1_555 1_555
C3 C2 1_555 1_555
C4 C3 1_555 1_555
C5 C4 1_555 1_555
C6 C1 1_555 1_555
C7 S1 1_555 1_555
C8 C7 1_555 1_555
C9 C8 1_555 1_555
C10 C9 1_555 1_555
C11 C10 1_555 1_555
C12 C7 1_555 1_555
H1 C2 1_555 1_555
H2 C3 1_555 1_555
H3 C5 1_555 1_555
H4 C6 1_555 1_555
H5 C8 1_555 1_555
H6 C9 1_555 1_555
H7 C11 1_555 1_555
H8 C12 1_555 1_555
H9 N1 1_555 1_555
H10 N1 1_555 1_555
H11 N2 1_555 1_555
H12 N2 1_555 1_555
C5 C6 1_555 1_555
C11 C12 1_555 1_555

#END
