
#######################################################################
#
#                 Cambridge Crystallographic Data Centre
#                                CCDC 
#
#######################################################################
#
# If this CIF has been generated from an entry in the Cambridge 
# Structural Database, then it will include bibliographic, chemical, 
# crystal, experimental, refinement or atomic coordinate data resulting 
# from the CCDC's data processing and validation procedures.
#
#######################################################################

data_DAQDOO
_chemical_formula_moiety         'C27 H24 S6'
_chemical_name_systematic        
1-(5',5'')-(9,10-bis(4'-Methyl-1',3'-dithiol-2'-ylidene)anthracene)-2,8-dithiacyclo-octaphane
_symmetry_cell_setting           triclinic
_symmetry_space_group_name_H-M   'P -1'
_symmetry_Int_Tables_number      2
_space_group_name_Hall           '-P 1'
loop_
_symmetry_equiv_pos_site_id
_symmetry_equiv_pos_as_xyz
1 x,y,z
2 -x,-y,-z
_cell_length_a                   10.944(4)
_cell_length_b                   14.591(5)
_cell_length_c                   16.924(7)
_cell_angle_alpha                71.18(1)
_cell_angle_beta                 89.65(2)
_cell_angle_gamma                85.66(1)
_cell_volume                     2550.19
_exptl_crystal_colour            yellow-green
_exptl_crystal_description       prism
_chemical_melting_point          294-296deg.C
_cell_formula_units_Z            4
_exptl_crystal_recrystallization_method acetonitrile/dichloromethane
loop_
_atom_site_label
_atom_site_type_symbol
_atom_site_fract_x
_atom_site_fract_y
_atom_site_fract_z
S1 S 0.47761(6) 0.85876(5) 0.18065(5)
S2 S 0.50293(7) 1.06075(5) 0.07872(5)
S3 S 0.92918(7) 0.87805(5) 0.38300(4)
S4 S 0.95816(6) 1.07715(5) 0.27730(4)
S5 S 0.24078(7) 0.90637(6) 0.25646(7)
S6 S 0.83152(8) 0.93858(6) 0.52837(5)
C1 C 0.7320(3) 0.7405(2) 0.17185(19)
H1 H 0.661(3) 0.737(2) 0.1404(19)
C2 C 0.8008(3) 0.6559(2) 0.2182(2)
H2 H 0.775(2) 0.597(2) 0.2170(16)
C3 C 0.9050(3) 0.6611(2) 0.26114(19)
H3 H 0.952(2) 0.604(2) 0.2924(17)
C4 C 0.9421(3) 0.7508(2) 0.26035(18)
H4 H 1.022(2) 0.7541(19) 0.2874(16)
C5 C 0.9759(3) 1.0736(2) 0.08875(18)
H5 H 1.047(3) 1.072(2) 0.1174(18)
C6 C 0.9564(3) 1.1368(2) 0.00820(18)
H6 H 1.018(2) 1.1814(18) -0.0154(15)
C7 C 0.8506(3) 1.1338(2) -0.03610(19)
H7 H 0.837(3) 1.181(2) -0.0918(19)
C8 C 0.7656(3) 1.0671(2) 0.00042(19)
H8 H 0.695(3) 1.067(2) -0.0313(17)
C9 C 0.7026(2) 0.92583(19) 0.12238(18)
C10 C 0.9074(2) 0.93402(19) 0.21091(17)
C11 C 0.8923(2) 1.00577(19) 0.12566(16)
C12 C 0.7856(2) 1.0021(2) 0.08040(17)
C13 C 0.7675(2) 0.83112(19) 0.16993(17)
C14 C 0.8734(2) 0.83600(19) 0.21508(17)
C15 C 0.5795(2) 0.9444(2) 0.12516(18)
C16 C 0.3633(3) 0.9471(2) 0.1900(2)
C17 C 0.3754(3) 1.0398(2) 0.1442(2)
C18 C 0.9327(2) 0.95824(19) 0.27927(17)
C19 C 0.8832(3) 0.9723(2) 0.42516(18)
C20 C 0.8939(3) 1.0638(2) 0.37612(18)
C21 C 0.3220(3) 0.8573(3) 0.3574(2)
H9 H 0.259(3) 0.850(2) 0.394(2)
H10 H 0.362(3) 0.792(2) 0.3625(19)
C22 C 0.4144(3) 0.9232(2) 0.3721(2)
H11 H 0.471(2) 0.9445(19) 0.3230(17)
H12 H 0.377(3) 0.984(2) 0.3692(19)
C23 C 0.4933(3) 0.8763(2) 0.4499(2)
H13 H 0.518(3) 0.814(3) 0.455(2)
H14 H 0.444(3) 0.869(2) 0.5037(19)
C24 C 0.6073(3) 0.9300(2) 0.4510(2)
H15 H 0.654(3) 0.941(2) 0.3967(19)
H16 H 0.583(3) 0.997(2) 0.4514(18)
C25 C 0.6977(3) 0.8744(2) 0.5208(2)
H17 H 0.719(3) 0.810(2) 0.5133(17)
H18 H 0.661(3) 0.863(2) 0.577(2)
C26 C 0.2933(3) 1.1281(2) 0.1424(3)
H19 H 0.2276 1.1093 0.1826
H20 H 0.2576 1.1582 0.0862
H21 H 0.3415 1.1746 0.1567
C27 C 0.8585(3) 1.1560(2) 0.3949(2)
H22 H 0.8330 1.1406 0.4530
H23 H 0.7904 1.1918 0.3577
H24 H 0.9285 1.1960 0.3859
S7 S 0.57158(18) 0.38054(16) 0.39193(12)
S8 S 0.51405(19) 0.58449(15) 0.29388(11)
S11 S 0.96427(6) 0.34560(5) 0.15345(4)
S12 S 0.90129(6) 0.55175(5) 0.06202(4)
S13 S 0.69407(17) 0.42912(14) 0.53217(11)
S15 S 1.21853(7) 0.38092(6) 0.20118(5)
C28 C 0.5337(3) 0.2587(2) 0.2794(2)
H25 H 0.4730 0.2643 0.3183
C29 C 0.5685(3) 0.1680(2) 0.2726(2)
H26 H 0.5322 0.1121 0.3069
C30 C 0.6567(3) 0.1591(2) 0.2162(2)
H27 H 0.6806 0.0970 0.2119
C31 C 0.7102(3) 0.2402(2) 0.16594(19)
H28 H 0.7709 0.2333 0.1275
C32 C 0.6258(3) 0.5755(2) 0.0111(2)
H29 H 0.6900 0.5654 -0.0239
C33 C 0.5480(5) 0.6521(4) -0.0245(4)
H30 H 0.5517 0.6927 -0.0810
C34 C 0.4594(5) 0.6650(4) 0.0326(4)
H31 H 0.4019 0.7202 0.0171
C35 C 0.4566(5) 0.5962(4) 0.1122(4)
H32 H 0.3883 0.6038 0.1450
C39 C 0.5536(3) 0.4406(2) 0.2324(3)
C40 C 0.7243(2) 0.4236(2) 0.11956(18)
C41 C 0.6299(3) 0.5072(2) 0.0908(2)
C42 C 0.5429(3) 0.5163(2) 0.1502(3)
C43 C 0.5864(3) 0.3414(2) 0.2297(2)
C44 C 0.6753(2) 0.3325(2) 0.17103(19)
C45 C 0.5401(5) 0.4633(4) 0.2901(4)
C46 C 0.6208(5) 0.4692(4) 0.4337(4)
C47 C 0.5966(6) 0.5618(4) 0.3890(4)
C51 C 0.8447(2) 0.43681(19) 0.11066(16)
C52 C 1.0755(2) 0.4281(2) 0.15170(17)
C53 C 1.0464(2) 0.5219(2) 0.11037(16)
C54 C 0.6324(6) 0.6502(4) 0.4078(4)
H36 H 0.6014 0.7088 0.3631
H37 H 0.7220 0.6484 0.4116
H38 H 0.5972 0.6511 0.4610
C56 C 1.1241(3) 0.6051(2) 0.0997(2)
H42 H 1.2038 0.5808 0.1276
H43 H 1.0832 0.6512 0.1243
H44 H 1.1363 0.6379 0.0401
C57 C 0.8343(6) 0.3643(5) 0.5130(4)
H45 H 0.8819 0.3395 0.5661
H46 H 0.8101 0.3069 0.4996
C59 C 0.9256(4) 0.4193(2) 0.4407(2)
H49 H 0.9374 0.4794 0.4404
H50 H 0.8714 0.4323 0.3917
C60 C 1.0429(4) 0.3651(2) 0.42531(19)
H51 H 1.1065 0.3672 0.4658
H52 H 1.0281 0.2962 0.4354
C61 C 1.0901(3) 0.4087(2) 0.33702(18)
H53 H 1.0192 0.4306 0.2976
H54 H 1.1346 0.4663 0.3339
C62 C 1.1743(3) 0.3368(2) 0.31048(18)
H55 H 1.1330 0.2762 0.3203
H56 H 1.2493 0.3208 0.3461
S9? S 0.6152(2) 0.36838(18) 0.41803(13)
S10? S 0.5362(2) 0.57236(16) 0.33241(13)
S14? S 0.75188(19) 0.41374(16) 0.55511(12)
C36? C 0.5250(6) 0.6560(4) 0.0064(5)
H33? H 0.5138 0.7060 -0.0459
C37? C 0.4472(6) 0.6643(5) 0.0702(4)
H34? H 0.3885 0.7184 0.0596
C38? C 0.4546(6) 0.5952(5) 0.1482(4)
H35? H 0.4076 0.5992 0.1945
C48? C 0.5653(5) 0.4567(4) 0.3223(4)
C49? C 0.6661(6) 0.4558(4) 0.4607(4)
C50? C 0.6310(6) 0.5480(5) 0.4217(5)
C55? C 0.6643(7) 0.6343(5) 0.4463(5)
H39? H 0.6259 0.6943 0.4068
H40? H 0.7536 0.6369 0.4454
H41? H 0.6353 0.6274 0.5027
C58? C 0.8900(6) 0.3585(5) 0.5237(4)
H47? H 0.9568 0.3511 0.5649
H48? H 0.8746 0.2932 0.5220
loop_
_geom_bond_atom_site_label_1
_geom_bond_atom_site_label_2
_geom_bond_site_symmetry_1
_geom_bond_site_symmetry_2
S1 C15 1_555 1_555
S2 C15 1_555 1_555
S3 C18 1_555 1_555
S4 C18 1_555 1_555
S5 C16 1_555 1_555
S6 C19 1_555 1_555
C1 H1 1_555 1_555
C2 C1 1_555 1_555
H2 C2 1_555 1_555
C3 C2 1_555 1_555
H3 C3 1_555 1_555
C4 C3 1_555 1_555
H4 C4 1_555 1_555
C5 H5 1_555 1_555
C6 C5 1_555 1_555
H6 C6 1_555 1_555
C7 C6 1_555 1_555
H7 C7 1_555 1_555
C8 C7 1_555 1_555
H8 C8 1_555 1_555
C9 C12 1_555 1_555
C10 C11 1_555 1_555
C11 C5 1_555 1_555
C12 C8 1_555 1_555
C13 C1 1_555 1_555
C14 C4 1_555 1_555
C15 C9 1_555 1_555
C16 S1 1_555 1_555
C17 S2 1_555 1_555
C18 C10 1_555 1_555
C19 S3 1_555 1_555
C20 S4 1_555 1_555
C21 S5 1_555 1_555
H9 C21 1_555 1_555
H10 C21 1_555 1_555
C22 C21 1_555 1_555
H11 C22 1_555 1_555
H12 C22 1_555 1_555
C23 C22 1_555 1_555
H13 C23 1_555 1_555
H14 C23 1_555 1_555
C24 C23 1_555 1_555
H15 C24 1_555 1_555
H16 C24 1_555 1_555
C25 S6 1_555 1_555
H17 C25 1_555 1_555
H18 C25 1_555 1_555
C26 C17 1_555 1_555
H19 C26 1_555 1_555
H20 C26 1_555 1_555
H21 C26 1_555 1_555
C27 C20 1_555 1_555
H22 C27 1_555 1_555
H23 C27 1_555 1_555
H24 C27 1_555 1_555
S7 C45 1_555 1_555
S8 C45 1_555 1_555
S11 C51 1_555 1_555
S12 C51 1_555 1_555
S13 C46 1_555 1_555
S15 C52 1_555 1_555
C28 H25 1_555 1_555
C29 C28 1_555 1_555
H26 C29 1_555 1_555
C30 C29 1_555 1_555
H27 C30 1_555 1_555
C31 C30 1_555 1_555
H28 C31 1_555 1_555
C32 H29 1_555 1_555
C33 C32 1_555 1_555
H30 C33 1_555 1_555
C34 C33 1_555 1_555
H31 C34 1_555 1_555
C35 C34 1_555 1_555
H32 C35 1_555 1_555
C39 C42 1_555 1_555
C40 C41 1_555 1_555
C41 C32 1_555 1_555
C42 C35 1_555 1_555
C43 C28 1_555 1_555
C44 C31 1_555 1_555
C45 C39 1_555 1_555
C46 S7 1_555 1_555
C47 S8 1_555 1_555
C51 C40 1_555 1_555
C52 S11 1_555 1_555
C53 S12 1_555 1_555
C54 C47 1_555 1_555
H36 C54 1_555 1_555
H37 C54 1_555 1_555
H38 C54 1_555 1_555
C56 C53 1_555 1_555
H42 C56 1_555 1_555
H43 C56 1_555 1_555
H44 C56 1_555 1_555
C57 S13 1_555 1_555
H45 C57 1_555 1_555
H46 C57 1_555 1_555
C59 C57 1_555 1_555
H49 C59 1_555 1_555
H50 C59 1_555 1_555
C60 C59 1_555 1_555
H51 C60 1_555 1_555
H52 C60 1_555 1_555
C61 C60 1_555 1_555
H53 C61 1_555 1_555
H54 C61 1_555 1_555
C62 S15 1_555 1_555
H55 C62 1_555 1_555
H56 C62 1_555 1_555
C9 C13 1_555 1_555
C10 C14 1_555 1_555
C11 C12 1_555 1_555
C13 C14 1_555 1_555
C16 C17 1_555 1_555
C19 C20 1_555 1_555
C24 C25 1_555 1_555
C39 C43 1_555 1_555
C40 C44 1_555 1_555
C41 C42 1_555 1_555
C43 C44 1_555 1_555
C46 C47 1_555 1_555
C52 C53 1_555 1_555
C61 C62 1_555 1_555

#END
