
#######################################################################
#
#                 Cambridge Crystallographic Data Centre
#                                CCDC 
#
#######################################################################
#
# If this CIF has been generated from an entry in the Cambridge 
# Structural Database, then it will include bibliographic, chemical, 
# crystal, experimental, refinement or atomic coordinate data resulting 
# from the CCDC's data processing and validation procedures.
#
#######################################################################

data_DAQKIQ
_chemical_formula_moiety         'C21 H23 N1 O4 S4'
_chemical_name_systematic        
3,5-bis(1,3-Dithian-2-ylidene)-4-(4-nitrophenyl)heptane-2,6-dione
_symmetry_cell_setting           orthorhombic
_symmetry_space_group_name_H-M   'P c a 21'
_symmetry_Int_Tables_number      29
_space_group_name_Hall           'P 2c -2ac'
loop_
_symmetry_equiv_pos_site_id
_symmetry_equiv_pos_as_xyz
1 x,y,z
2 -x,-y,1/2+z
3 1/2+x,-y,z
4 1/2-x,y,1/2+z
_cell_length_a                   12.458(3)
_cell_length_b                   9.946(2)
_cell_length_c                   18.149(4)
_cell_angle_alpha                90
_cell_angle_beta                 90
_cell_angle_gamma                90
_cell_volume                     2248.79
_exptl_crystal_colour            colorless
_exptl_crystal_description       block
_cell_formula_units_Z            4
loop_
_atom_site_label
_atom_site_type_symbol
_atom_site_fract_x
_atom_site_fract_y
_atom_site_fract_z
C1 C -0.23620(19) -0.3603(2) -0.08163(14)
C2 C -0.1316(2) -0.4063(2) -0.08278(12)
H1 H -0.1118 -0.4748 -0.1149
C3 C -0.05617(18) -0.3498(2) -0.03561(14)
H2 H 0.0140 -0.3816 -0.0357
C4 C -0.08519(17) -0.2455(2) 0.01178(13)
C5 C -0.19133(19) -0.2000(3) 0.01021(15)
H3 H -0.2119 -0.1301 0.0411
C6 C -0.2664(2) -0.2573(3) -0.03655(15)
H4 H -0.3367 -0.2259 -0.0372
C7 C -0.00405(18) -0.1734(2) 0.06040(12)
H5 H 0.0071 -0.0867 0.0360
C8 C -0.04609(18) -0.1362(2) 0.13715(12)
C9 C -0.1194(2) -0.2254(3) 0.17939(14)
C10 C -0.1294(2) -0.3729(3) 0.16257(16)
H6 H -0.1804 -0.4130 0.1956
H7 H -0.0609 -0.4156 0.1686
H8 H -0.1535 -0.3844 0.1127
C11 C -0.01141(18) -0.0199(2) 0.16853(12)
C12 C 0.0395(3) 0.2480(3) 0.15029(16)
H9 H 0.0783 0.3141 0.1213
H10 H -0.0362 0.2577 0.1390
C13 C 0.0569(3) 0.2780(3) 0.23178(16)
H11 H 0.1251 0.3235 0.2381
H12 H 0.0008 0.3380 0.2489
C14 C 0.0560(2) 0.1518(3) 0.27784(14)
H13 H 0.0503 0.1771 0.3293
H14 H 0.1241 0.1060 0.2714
C15 C 0.10701(19) -0.2376(2) 0.06165(13)
C16 C 0.1356(2) -0.3334(3) 0.12317(16)
C17 C 0.1891(3) -0.2741(4) 0.19004(18)
H15 H 0.2038 -0.3442 0.2250
H16 H 0.1425 -0.2086 0.2120
H17 H 0.2552 -0.2319 0.1758
C18 C 0.18107(17) -0.2162(2) 0.00960(13)
C19 C 0.3962(2) -0.2008(4) -0.0276(2)
H18 H 0.4018 -0.1214 0.0032
H19 H 0.4658 -0.2446 -0.0279
C20 C 0.3681(3) -0.1582(5) -0.1055(2)
H20 H 0.4187 -0.0890 -0.1200
H21 H 0.3805 -0.2349 -0.1375
C21 C 0.2685(3) -0.1116(5) -0.1198(2)
H22 H 0.2467 -0.1579 -0.1644
H23 H 0.2790 -0.0184 -0.1339
N1 N -0.31614(19) -0.4249(2) -0.12874(13)
O1 O -0.28584(17) -0.5106(2) -0.17193(12)
O2 O -0.41011(17) -0.3906(2) -0.12257(13)
O3 O 0.11622(19) -0.4501(2) 0.11825(18)
O4 O -0.17134(15) -0.1779(2) 0.23065(11)
S1 S 0.08287(5) 0.08152(7) 0.12295(4)
S2 S -0.05104(5) 0.03565(7) 0.25635(3)
S3 S 0.29985(5) -0.31253(8) 0.01189(4)
S4 S 0.15493(6) -0.10992(9) -0.06526(4)
loop_
_geom_bond_atom_site_label_1
_geom_bond_atom_site_label_2
_geom_bond_site_symmetry_1
_geom_bond_site_symmetry_2
C1 C2 1_555 1_555
C2 H1 1_555 1_555
C3 C2 1_555 1_555
H2 C3 1_555 1_555
C4 C3 1_555 1_555
C5 C4 1_555 1_555
H3 C5 1_555 1_555
C6 C1 1_555 1_555
H4 C6 1_555 1_555
C7 C4 1_555 1_555
H5 C7 1_555 1_555
C8 C7 1_555 1_555
C9 C8 1_555 1_555
C10 C9 1_555 1_555
H6 C10 1_555 1_555
H7 C10 1_555 1_555
H8 C10 1_555 1_555
C11 C8 1_555 1_555
C12 H9 1_555 1_555
H10 C12 1_555 1_555
C13 C12 1_555 1_555
H11 C13 1_555 1_555
H12 C13 1_555 1_555
C14 C13 1_555 1_555
H13 C14 1_555 1_555
H14 C14 1_555 1_555
C15 C7 1_555 1_555
C16 C15 1_555 1_555
C17 C16 1_555 1_555
H15 C17 1_555 1_555
H16 C17 1_555 1_555
H17 C17 1_555 1_555
C18 C15 1_555 1_555
C19 H18 1_555 1_555
H19 C19 1_555 1_555
C20 C19 1_555 1_555
H20 C20 1_555 1_555
H21 C20 1_555 1_555
C21 C20 1_555 1_555
H22 C21 1_555 1_555
H23 C21 1_555 1_555
N1 C1 1_555 1_555
O1 N1 1_555 1_555
O2 N1 1_555 1_555
O3 C16 1_555 1_555
O4 C9 1_555 1_555
S1 C11 1_555 1_555
S2 C11 1_555 1_555
S3 C18 1_555 1_555
S4 C18 1_555 1_555
C5 C6 1_555 1_555
C12 S1 1_555 1_555
C14 S2 1_555 1_555
C19 S3 1_555 1_555
C21 S4 1_555 1_555

#END
