
#######################################################################
#
#                 Cambridge Crystallographic Data Centre
#                                CCDC 
#
#######################################################################
#
# If this CIF has been generated from an entry in the Cambridge 
# Structural Database, then it will include bibliographic, chemical, 
# crystal, experimental, refinement or atomic coordinate data resulting 
# from the CCDC's data processing and validation procedures.
#
#######################################################################

data_DAQNOB
_chemical_formula_moiety         'C130 H174 O6'
_chemical_name_systematic        
1,4,10,13-tetraphenyl-7,16-bis((3,4,5-tris(dodecyloxy)phenyl)ethynyl)cyclooctadeca-1,2,3,7,8,9,13,14,15-nonaen-5,11,17-triyne
_symmetry_cell_setting           monoclinic
_symmetry_space_group_name_H-M   'P 21/c'
_symmetry_Int_Tables_number      14
_space_group_name_Hall           '-P 2ybc'
loop_
_symmetry_equiv_pos_site_id
_symmetry_equiv_pos_as_xyz
1 x,y,z
2 -x,1/2+y,1/2-z
3 -x,-y,-z
4 x,1/2-y,1/2+z
_cell_length_a                   49.45(2)
_cell_length_b                   15.293(11)
_cell_length_c                   7.3526(14)
_cell_angle_alpha                90
_cell_angle_beta                 91.49(3)
_cell_angle_gamma                90
_cell_volume                     5558.44
_exptl_crystal_colour            red
_exptl_crystal_description       planar
_cell_formula_units_Z            2
_exptl_crystal_recrystallization_method chloroform
loop_
_atom_site_label
_atom_site_type_symbol
_atom_site_fract_x
_atom_site_fract_y
_atom_site_fract_z
C1 C 0.5706(4) 0.9261(17) 0.342(3)
C2 C 0.5485(4) 0.8704(16) 0.374(3)
C3 C 0.5308(5) 0.8142(18) 0.399(3)
C4 C 0.5111(4) 0.7569(16) 0.424(3)
C5 C 0.4854(3) 0.7726(13) 0.451(2)
C6 C 0.5700(5) 1.019(2) 0.386(3)
C7 C 0.5663(5) 1.099(2) 0.417(3)
C8 C 0.5626(5) 1.188(2) 0.472(3)
C9 C 0.5375(4) 1.2104(15) 0.521(3)
C10 C 0.5957(6) 0.887(2) 0.273(4)
C11 C 0.6159(6) 0.852(2) 0.222(4)
O1 O 0.7093(3) 0.8854(12) 0.062(2)
C12 C 0.7089(5) 0.978(2) 0.126(4)
C13 C 0.7354(4) 1.0183(17) 0.090(3)
C14 C 0.7587(5) 0.974(2) 0.204(4)
C15 C 0.7868(6) 1.021(2) 0.172(4)
C16 C 0.8100(5) 0.981(2) 0.280(4)
C17 C 0.8373(5) 1.0194(19) 0.257(3)
C18 C 0.8619(4) 0.9876(15) 0.329(3)
C19 C 0.8875(4) 1.0217(17) 0.307(3)
C20 C 0.9110(5) 0.9974(19) 0.374(3)
C21 C 0.9367(5) 1.0361(19) 0.341(4)
C22 C 0.9612(9) 1.019(3) 0.417(6)
C23 C 0.9646(9) 1.044(3) 0.645(6)
O2 O 0.7127(3) 0.7182(13) -0.004(2)
C24 C 0.7294(4) 0.6699(18) 0.107(3)
C25 C 0.7588(4) 0.6962(17) 0.102(3)
C26 C 0.7810(6) 0.644(2) 0.223(4)
C27 C 0.8079(5) 0.6877(19) 0.188(3)
C28 C 0.8304(5) 0.6419(19) 0.298(3)
C29 C 0.8567(5) 0.6805(18) 0.270(3)
C30 C 0.8807(5) 0.6416(19) 0.358(3)
C31 C 0.9077(5) 0.6796(19) 0.339(3)
C32 C 0.9319(6) 0.648(2) 0.429(5)
C33 C 0.9599(6) 0.683(2) 0.389(4)
C34 C 0.9836(7) 0.642(3) 0.498(5)
C35 C 1.0093(7) 0.687(3) 0.438(5)
O3 O 0.6735(3) 0.6019(11) 0.0693(19)
C36 C 0.6511(5) 0.5464(17) 0.112(3)
C37 C 0.6628(4) 0.4553(16) 0.059(3)
C38 C 0.6895(5) 0.4334(19) 0.138(3)
C39 C 0.7010(5) 0.3398(19) 0.086(3)
C40 C 0.7258(5) 0.305(2) 0.182(4)
C41 C 0.7506(5) 0.3526(19) 0.132(3)
C42 C 0.7753(5) 0.3172(18) 0.233(3)
C43 C 0.8023(5) 0.356(2) 0.201(4)
C44 C 0.8250(4) 0.3228(18) 0.285(3)
C45 C 0.8531(5) 0.3498(19) 0.263(3)
C46 C 0.8758(6) 0.311(2) 0.359(4)
C47 C 0.9038(5) 0.3398(19) 0.316(3)
H1 H 0.7039 0.9802 0.2537
H2 H 0.6956 1.0090 0.0524
H3 H 0.7348 1.0794 0.1257
H4 H 0.7398 1.0143 -0.0382
H5 H 0.7550 0.9797 0.3323
H6 H 0.7593 0.9126 0.1713
H7 H 0.7857 1.0822 0.2024
H8 H 0.7904 1.0141 0.0433
H9 H 0.8060 0.9857 0.4082
H10 H 0.8117 0.9197 0.2476
H11 H 0.9747 1.0528 0.3527
H12 H 0.9641 0.9575 0.3969
H13 H 0.7237 0.6757 0.2331
H14 H 0.7279 0.6089 0.0701
H15 H 0.7596 0.7570 0.1404
H16 H 0.7637 0.6921 -0.0257
H17 H 0.7765 0.6470 0.3505
H18 H 0.7812 0.5834 0.1838
H19 H 0.8073 0.7482 0.2289
H20 H 0.8120 0.6856 0.0602
H21 H 0.8261 0.6440 0.4256
H22 H 0.8312 0.5815 0.2581
H23 H 0.8555 0.7397 0.3176
H24 H 0.8594 0.6825 0.1409
H25 H 0.8778 0.6400 0.4878
H26 H 0.8815 0.5823 0.3115
H27 H 0.9062 0.7406 0.3727
H28 H 0.9110 0.6756 0.2096
H29 H 0.9300 0.6572 0.5582
H30 H 0.9325 0.5855 0.4039
H31 H 0.9599 0.7455 0.4022
H32 H 0.9635 0.6674 0.2642
H33 H 0.9813 0.6583 0.6240
H34 H 0.9842 0.5790 0.4872
H35 H 0.6460 0.5483 0.2388
H36 H 0.6355 0.5593 0.0344
H37 H 0.6640 0.4528 -0.0732
H38 H 0.6508 0.4093 0.0998
H39 H 0.7285 0.2433 0.1542
H40 H 0.7233 0.3117 0.3124
H41 H 0.7529 0.3488 0.0019
H42 H 0.7487 0.4134 0.1678
H43 H 0.7767 0.2564 0.1965
H44 H 0.7721 0.3201 0.3630
H45 H 0.9143 0.3387 0.4279
H46 H 0.9027 0.3987 0.2718
H47 H 0.9126 0.3037 0.2291
H48 H 1.0250 0.6681 0.5041
H49 H 1.0078 0.7490 0.4476
H50 H 1.0107 0.6712 0.3141
H51 H 0.9821 1.0285 0.6890
H52 H 0.9617 1.1049 0.6650
H53 H 0.9514 1.0115 0.7081
H54 H 0.8050 0.3570 0.0737
H55 H 0.8016 0.4141 0.2460
H56 H 0.8566 0.3533 0.1365
H57 H 0.8532 0.4069 0.3136
H58 H 0.8730 0.3105 0.4866
H59 H 0.8749 0.2523 0.3146
H60 H 0.7019 0.4732 0.0871
H61 H 0.6892 0.4411 0.2659
H62 H 0.7033 0.3352 -0.0415
H63 H 0.6870 0.3013 0.1219
C48 C 0.5862(3) 1.2473(10) 0.447(2)
C49 C 0.5824(2) 1.3350(11) 0.4886(19)
C50 C 0.6041(3) 1.3925(8) 0.490(2)
C51 C 0.6298(3) 1.3623(11) 0.449(2)
C52 C 0.6337(2) 1.2746(12) 0.407(2)
C53 C 0.6119(3) 1.2171(8) 0.406(2)
C54 C 0.5192(3) 0.6611(8) 0.3655(18)
C55 C 0.5465(2) 0.6388(9) 0.3696(18)
C56 C 0.55434(19) 0.5542(10) 0.3266(19)
C57 C 0.5349(3) 0.4918(8) 0.2794(18)
C58 C 0.5077(2) 0.5140(9) 0.2753(19)
C59 C 0.49979(18) 0.5987(10) 0.3183(19)
C60 C 0.6400(3) 0.8163(12) 0.168(2)
C61 C 0.6616(3) 0.8717(9) 0.134(2)
C62 C 0.6862(3) 0.8371(12) 0.083(2)
C63 C 0.6893(3) 0.7471(12) 0.065(2)
C64 C 0.6677(4) 0.6917(9) 0.099(3)
C65 C 0.6426(5) 0.7184(18) 0.144(3)
H64 H 0.6589 0.9321 0.1493
H65 H 0.6277 0.6808 0.1635
H66 H 0.5601 0.6806 0.4102
H67 H 0.5727 0.5394 0.3242
H68 H 0.5396 0.4368 0.2400
H69 H 0.4938 0.4755 0.2419
H70 H 0.4812 0.6167 0.3279
H71 H 0.5655 1.3571 0.5154
H72 H 0.6025 1.4525 0.5203
H73 H 0.6457 1.4001 0.4556
H74 H 0.6518 1.2523 0.3859
H75 H 0.6148 1.1568 0.3809
H76 H 0.8220 0.3296 0.4116
H77 H 0.8248 0.2624 0.2553
H78 H 0.9340 1.0966 0.3628
H79 H 0.9392 1.0268 0.2147
H80 H 0.9093 1.0001 0.5023
H81 H 0.9128 0.9381 0.3376
H82 H 0.8858 1.0806 0.3463
H83 H 0.8897 1.0205 0.1791
H84 H 0.8597 0.9863 0.4572
H85 H 0.8630 0.9295 0.2844
H86 H 0.8360 1.0772 0.3041
H87 H 0.8396 1.0218 0.1297
C1B C 0.4294(4) 1.0739(17) 0.658(3)
C2B C 0.4515(4) 1.1296(16) 0.626(3)
C3B C 0.4692(5) 1.1858(18) 0.601(3)
C4B C 0.4889(4) 1.2431(16) 0.576(3)
C5B C 0.5146(3) 1.2274(13) 0.549(2)
C6B C 0.4300(5) 0.981(2) 0.614(3)
C7B C 0.4337(5) 0.901(2) 0.583(3)
C8B C 0.4374(5) 0.812(2) 0.528(3)
C9B C 0.4625(4) 0.7896(15) 0.479(3)
C10B C 0.4043(6) 1.113(2) 0.727(4)
C11B C 0.3841(6) 1.148(2) 0.778(4)
O1B O 0.2907(3) 1.1146(12) 0.938(2)
C12B C 0.2911(5) 1.022(2) 0.874(4)
C13B C 0.2646(4) 0.9817(17) 0.910(3)
C14B C 0.2413(5) 1.026(2) 0.796(4)
C15B C 0.2132(6) 0.979(2) 0.828(4)
C16B C 0.1900(5) 1.019(2) 0.720(4)
C17B C 0.1627(5) 0.9806(19) 0.743(3)
C18B C 0.1381(4) 1.0124(15) 0.671(3)
C19B C 0.1125(4) 0.9783(17) 0.693(3)
C20B C 0.0890(5) 1.0026(19) 0.626(3)
C21B C 0.0633(5) 0.9639(19) 0.659(4)
C22B C 0.0388(9) 0.981(3) 0.583(6)
C23B C 0.0354(9) 0.956(3) 0.355(6)
O2B O 0.2873(3) 1.2818(13) 1.004(2)
C24B C 0.2706(4) 1.3301(18) 0.893(3)
C25B C 0.2412(4) 1.3038(17) 0.898(3)
C26B C 0.2190(6) 1.356(2) 0.777(4)
C27B C 0.1921(5) 1.3123(19) 0.812(3)
C28B C 0.1696(5) 1.3581(19) 0.702(3)
C29B C 0.1433(5) 1.3195(18) 0.730(3)
C30B C 0.1193(5) 1.3584(19) 0.642(3)
C31B C 0.0923(5) 1.3204(19) 0.661(3)
C32B C 0.0681(6) 1.352(2) 0.571(5)
C33B C 0.0401(6) 1.317(2) 0.611(4)
C34B C 0.0164(7) 1.358(3) 0.502(5)
C35B C -0.0093(7) 1.313(3) 0.562(5)
O3B O 0.3265(3) 1.3981(11) 0.9307(19)
C36B C 0.3489(5) 1.4536(17) 0.888(3)
C37B C 0.3372(4) 1.5447(16) 0.941(3)
C38B C 0.3105(5) 1.5666(19) 0.862(3)
C39B C 0.2990(5) 1.6602(19) 0.914(3)
C40B C 0.2742(5) 1.695(2) 0.818(4)
C41B C 0.2494(5) 1.6474(19) 0.868(3)
C42B C 0.2247(5) 1.6828(18) 0.767(3)
C43B C 0.1977(5) 1.644(2) 0.799(4)
C44B C 0.1750(4) 1.6772(18) 0.715(3)
C45B C 0.1469(5) 1.6502(19) 0.737(3)
C46B C 0.1242(6) 1.689(2) 0.641(4)
C47B C 0.0962(5) 1.6602(19) 0.684(3)
H1B H 0.2961 1.0198 0.7463
H2B H 0.3044 0.9910 0.9476
H3B H 0.2652 0.9206 0.8743
H4B H 0.2602 0.9857 1.0382
H5B H 0.2450 1.0203 0.6677
H6B H 0.2407 1.0874 0.8287
H7B H 0.2143 0.9178 0.7976
H8B H 0.2096 0.9859 0.9567
H9B H 0.1940 1.0143 0.5918
H10B H 0.1883 1.0803 0.7524
H11B H 0.0253 0.9472 0.6473
H12B H 0.0359 1.0425 0.6031
H13B H 0.2763 1.3243 0.7669
H14B H 0.2721 1.3911 0.9299
H15B H 0.2404 1.2430 0.8596
H16B H 0.2363 1.3079 1.0257
H17B H 0.2235 1.3530 0.6495
H18B H 0.2188 1.4166 0.8162
H19B H 0.1927 1.2518 0.7711
H20B H 0.1880 1.3144 0.9398
H21B H 0.1739 1.3560 0.5744
H22B H 0.1688 1.4185 0.7419
H23B H 0.1445 1.2603 0.6824
H24B H 0.1406 1.3175 0.8591
H25B H 0.1222 1.3600 0.5122
H26B H 0.1185 1.4177 0.6885
H27B H 0.0938 1.2594 0.6273
H28B H 0.0890 1.3244 0.7904
H29B H 0.0700 1.3428 0.4418
H30B H 0.0675 1.4145 0.5961
H31B H 0.0401 1.2545 0.5978
H32B H 0.0365 1.3326 0.7358
H33B H 0.0187 1.3417 0.3760
H34B H 0.0158 1.4210 0.5128
H35B H 0.3540 1.4517 0.7612
H36B H 0.3645 1.4407 0.9656
H37B H 0.3360 1.5472 1.0732
H38B H 0.3492 1.5907 0.9002
H39B H 0.2715 1.7567 0.8458
H40B H 0.2767 1.6883 0.6876
H41B H 0.2471 1.6512 0.9981
H42B H 0.2513 1.5866 0.8322
H43B H 0.2233 1.7436 0.8035
H44B H 0.2279 1.6799 0.6370
H45B H 0.0857 1.6613 0.5721
H46B H 0.0973 1.6013 0.7282
H47B H 0.0874 1.6963 0.7709
H48B H -0.0250 1.3319 0.4959
H49B H -0.0078 1.2510 0.5524
H50B H -0.0107 1.3288 0.6859
H51B H 0.0179 0.9715 0.3110
H52B H 0.0383 0.8951 0.3350
H53B H 0.0486 0.9885 0.2919
H54B H 0.1950 1.6430 0.9263
H55B H 0.1984 1.5859 0.7540
H56B H 0.1434 1.6467 0.8635
H57B H 0.1468 1.5931 0.6864
H58B H 0.1270 1.6895 0.5134
H59B H 0.1251 1.7477 0.6854
H60B H 0.2981 1.5268 0.9129
H61B H 0.3108 1.5589 0.7341
H62B H 0.2967 1.6648 1.0415
H63B H 0.3130 1.6987 0.8781
C48B C 0.4138(3) 0.7527(10) 0.553(2)
C49B C 0.4176(2) 0.6650(11) 0.5114(19)
C50B C 0.3959(3) 0.6075(8) 0.510(2)
C51B C 0.3702(3) 0.6377(11) 0.551(2)
C52B C 0.3663(2) 0.7254(12) 0.593(2)
C53B C 0.3881(3) 0.7829(8) 0.594(2)
C54B C 0.4808(3) 1.3389(8) 0.6345(18)
C55B C 0.4535(2) 1.3612(9) 0.6304(18)
C56B C 0.44566(19) 1.4458(10) 0.6734(19)
C57B C 0.4651(3) 1.5082(8) 0.7206(18)
C58B C 0.4923(2) 1.4860(9) 0.7247(19)
C59B C 0.50021(18) 1.4013(10) 0.6817(19)
C60B C 0.3600(3) 1.1837(12) 0.832(2)
C61B C 0.3384(3) 1.1283(9) 0.866(2)
C62B C 0.3138(3) 1.1629(12) 0.917(2)
C63B C 0.3107(3) 1.2529(12) 0.935(2)
C64B C 0.3323(4) 1.3083(9) 0.901(3)
C65B C 0.3574(5) 1.2816(18) 0.856(3)
H64B H 0.3411 1.0679 0.8507
H65B H 0.3723 1.3192 0.8365
H66B H 0.4399 1.3194 0.5898
H67B H 0.4273 1.4606 0.6758
H68B H 0.4604 1.5632 0.7600
H69B H 0.5062 1.5245 0.7581
H70B H 0.5188 1.3833 0.6721
H71B H 0.4345 0.6429 0.4846
H72B H 0.3975 0.5475 0.4797
H73B H 0.3543 0.5999 0.5444
H74B H 0.3482 0.7477 0.6141
H75B H 0.3852 0.8432 0.6191
H76B H 0.1780 1.6704 0.5884
H77B H 0.1752 1.7376 0.7447
H78B H 0.0660 0.9034 0.6372
H79B H 0.0608 0.9732 0.7853
H80B H 0.0907 0.9999 0.4977
H81B H 0.0872 1.0619 0.6624
H82B H 0.1142 0.9194 0.6537
H83B H 0.1103 0.9795 0.8209
H84B H 0.1403 1.0137 0.5428
H85B H 0.1370 1.0705 0.7156
H86B H 0.1640 0.9228 0.6959
H87B H 0.1604 0.9782 0.8703
loop_
_geom_bond_atom_site_label_1
_geom_bond_atom_site_label_2
_geom_bond_site_symmetry_1
_geom_bond_site_symmetry_2
C1 C2 1_555 1_555
C2 C3 1_555 1_555
C3 C4 1_555 1_555
C4 C5 1_555 1_555
C5 C9B 1_555 1_555
C6 C1 1_555 1_555
C7 C6 1_555 1_555
C8 C7 1_555 1_555
C9 C8 1_555 1_555
C10 C1 1_555 1_555
C11 C10 1_555 1_555
O1 C12 1_555 1_555
C12 C13 1_555 1_555
C13 C14 1_555 1_555
C14 C15 1_555 1_555
C15 C16 1_555 1_555
C16 C17 1_555 1_555
C17 C18 1_555 1_555
C18 C19 1_555 1_555
C19 C20 1_555 1_555
C20 C21 1_555 1_555
C21 C22 1_555 1_555
C22 C23 1_555 1_555
C23 H51 1_555 1_555
O2 C24 1_555 1_555
C24 C25 1_555 1_555
C25 C26 1_555 1_555
C26 C27 1_555 1_555
C27 C28 1_555 1_555
C28 C29 1_555 1_555
C29 C30 1_555 1_555
C30 C31 1_555 1_555
C31 C32 1_555 1_555
C32 C33 1_555 1_555
C33 C34 1_555 1_555
C34 C35 1_555 1_555
C35 H48 1_555 1_555
O3 C36 1_555 1_555
C36 C37 1_555 1_555
C37 C38 1_555 1_555
C38 C39 1_555 1_555
C39 C40 1_555 1_555
C40 C41 1_555 1_555
C41 C42 1_555 1_555
C42 C43 1_555 1_555
C43 C44 1_555 1_555
C44 C45 1_555 1_555
C45 C46 1_555 1_555
C46 C47 1_555 1_555
C47 H45 1_555 1_555
H1 C12 1_555 1_555
H2 C12 1_555 1_555
H3 C13 1_555 1_555
H4 C13 1_555 1_555
H5 C14 1_555 1_555
H6 C14 1_555 1_555
H7 C15 1_555 1_555
H8 C15 1_555 1_555
H9 C16 1_555 1_555
H10 C16 1_555 1_555
H11 C22 1_555 1_555
H12 C22 1_555 1_555
H13 C24 1_555 1_555
H14 C24 1_555 1_555
H15 C25 1_555 1_555
H16 C25 1_555 1_555
H17 C26 1_555 1_555
H18 C26 1_555 1_555
H19 C27 1_555 1_555
H20 C27 1_555 1_555
H21 C28 1_555 1_555
H22 C28 1_555 1_555
H23 C29 1_555 1_555
H24 C29 1_555 1_555
H25 C30 1_555 1_555
H26 C30 1_555 1_555
H27 C31 1_555 1_555
H28 C31 1_555 1_555
H29 C32 1_555 1_555
H30 C32 1_555 1_555
H31 C33 1_555 1_555
H32 C33 1_555 1_555
H33 C34 1_555 1_555
H34 C34 1_555 1_555
H35 C36 1_555 1_555
H36 C36 1_555 1_555
H37 C37 1_555 1_555
H38 C37 1_555 1_555
H39 C40 1_555 1_555
H40 C40 1_555 1_555
H41 C41 1_555 1_555
H42 C41 1_555 1_555
H43 C42 1_555 1_555
H44 C42 1_555 1_555
H46 C47 1_555 1_555
H47 C47 1_555 1_555
H49 C35 1_555 1_555
H50 C35 1_555 1_555
H52 C23 1_555 1_555
H53 C23 1_555 1_555
H54 C43 1_555 1_555
H55 C43 1_555 1_555
H56 C45 1_555 1_555
H57 C45 1_555 1_555
H58 C46 1_555 1_555
H59 C46 1_555 1_555
H60 C38 1_555 1_555
H61 C38 1_555 1_555
H62 C39 1_555 1_555
H63 C39 1_555 1_555
C48 C8 1_555 1_555
C49 C48 1_555 1_555
C50 C49 1_555 1_555
C51 C50 1_555 1_555
C52 C51 1_555 1_555
C53 C48 1_555 1_555
C54 C4 1_555 1_555
C55 C54 1_555 1_555
C56 C55 1_555 1_555
C57 C56 1_555 1_555
C58 C57 1_555 1_555
C59 C54 1_555 1_555
C60 C11 1_555 1_555
C61 C60 1_555 1_555
C62 O1 1_555 1_555
C63 O2 1_555 1_555
C64 O3 1_555 1_555
C65 C60 1_555 1_555
H64 C61 1_555 1_555
H65 C65 1_555 1_555
H66 C55 1_555 1_555
H67 C56 1_555 1_555
H68 C57 1_555 1_555
H69 C58 1_555 1_555
H70 C59 1_555 1_555
H71 C49 1_555 1_555
H72 C50 1_555 1_555
H73 C51 1_555 1_555
H74 C52 1_555 1_555
H75 C53 1_555 1_555
H76 C44 1_555 1_555
H77 C44 1_555 1_555
H78 C21 1_555 1_555
H79 C21 1_555 1_555
H80 C20 1_555 1_555
H81 C20 1_555 1_555
H82 C19 1_555 1_555
H83 C19 1_555 1_555
H84 C18 1_555 1_555
H85 C18 1_555 1_555
H86 C17 1_555 1_555
H87 C17 1_555 1_555
C1B C2B 1_555 1_555
C2B C3B 1_555 1_555
C3B C4B 1_555 1_555
C4B C5B 1_555 1_555
C5B C9 1_555 1_555
C6B C1B 1_555 1_555
C7B C6B 1_555 1_555
C8B C7B 1_555 1_555
C9B C8B 1_555 1_555
C10B C1B 1_555 1_555
C11B C10B 1_555 1_555
O1B C12B 1_555 1_555
C12B C13B 1_555 1_555
C13B C14B 1_555 1_555
C14B C15B 1_555 1_555
C15B C16B 1_555 1_555
C16B C17B 1_555 1_555
C17B C18B 1_555 1_555
C18B C19B 1_555 1_555
C19B C20B 1_555 1_555
C20B C21B 1_555 1_555
C21B C22B 1_555 1_555
C22B C23B 1_555 1_555
C23B H51B 1_555 1_555
O2B C24B 1_555 1_555
C24B C25B 1_555 1_555
C25B C26B 1_555 1_555
C26B C27B 1_555 1_555
C27B C28B 1_555 1_555
C28B C29B 1_555 1_555
C29B C30B 1_555 1_555
C30B C31B 1_555 1_555
C31B C32B 1_555 1_555
C32B C33B 1_555 1_555
C33B C34B 1_555 1_555
C34B C35B 1_555 1_555
C35B H48B 1_555 1_555
O3B C36B 1_555 1_555
C36B C37B 1_555 1_555
C37B C38B 1_555 1_555
C38B C39B 1_555 1_555
C39B C40B 1_555 1_555
C40B C41B 1_555 1_555
C41B C42B 1_555 1_555
C42B C43B 1_555 1_555
C43B C44B 1_555 1_555
C44B C45B 1_555 1_555
C45B C46B 1_555 1_555
C46B C47B 1_555 1_555
C47B H45B 1_555 1_555
H1B C12B 1_555 1_555
H2B C12B 1_555 1_555
H3B C13B 1_555 1_555
H4B C13B 1_555 1_555
H5B C14B 1_555 1_555
H6B C14B 1_555 1_555
H7B C15B 1_555 1_555
H8B C15B 1_555 1_555
H9B C16B 1_555 1_555
H10B C16B 1_555 1_555
H11B C22B 1_555 1_555
H12B C22B 1_555 1_555
H13B C24B 1_555 1_555
H14B C24B 1_555 1_555
H15B C25B 1_555 1_555
H16B C25B 1_555 1_555
H17B C26B 1_555 1_555
H18B C26B 1_555 1_555
H19B C27B 1_555 1_555
H20B C27B 1_555 1_555
H21B C28B 1_555 1_555
H22B C28B 1_555 1_555
H23B C29B 1_555 1_555
H24B C29B 1_555 1_555
H25B C30B 1_555 1_555
H26B C30B 1_555 1_555
H27B C31B 1_555 1_555
H28B C31B 1_555 1_555
H29B C32B 1_555 1_555
H30B C32B 1_555 1_555
H31B C33B 1_555 1_555
H32B C33B 1_555 1_555
H33B C34B 1_555 1_555
H34B C34B 1_555 1_555
H35B C36B 1_555 1_555
H36B C36B 1_555 1_555
H37B C37B 1_555 1_555
H38B C37B 1_555 1_555
H39B C40B 1_555 1_555
H40B C40B 1_555 1_555
H41B C41B 1_555 1_555
H42B C41B 1_555 1_555
H43B C42B 1_555 1_555
H44B C42B 1_555 1_555
H46B C47B 1_555 1_555
H47B C47B 1_555 1_555
H49B C35B 1_555 1_555
H50B C35B 1_555 1_555
H52B C23B 1_555 1_555
H53B C23B 1_555 1_555
H54B C43B 1_555 1_555
H55B C43B 1_555 1_555
H56B C45B 1_555 1_555
H57B C45B 1_555 1_555
H58B C46B 1_555 1_555
H59B C46B 1_555 1_555
H60B C38B 1_555 1_555
H61B C38B 1_555 1_555
H62B C39B 1_555 1_555
H63B C39B 1_555 1_555
C48B C8B 1_555 1_555
C49B C48B 1_555 1_555
C50B C49B 1_555 1_555
C51B C50B 1_555 1_555
C52B C51B 1_555 1_555
C53B C48B 1_555 1_555
C54B C4B 1_555 1_555
C55B C54B 1_555 1_555
C56B C55B 1_555 1_555
C57B C56B 1_555 1_555
C58B C57B 1_555 1_555
C59B C54B 1_555 1_555
C60B C11B 1_555 1_555
C61B C60B 1_555 1_555
C62B O1B 1_555 1_555
C63B O2B 1_555 1_555
C64B O3B 1_555 1_555
C65B C60B 1_555 1_555
H64B C61B 1_555 1_555
H65B C65B 1_555 1_555
H66B C55B 1_555 1_555
H67B C56B 1_555 1_555
H68B C57B 1_555 1_555
H69B C58B 1_555 1_555
H70B C59B 1_555 1_555
H71B C49B 1_555 1_555
H72B C50B 1_555 1_555
H73B C51B 1_555 1_555
H74B C52B 1_555 1_555
H75B C53B 1_555 1_555
H76B C44B 1_555 1_555
H77B C44B 1_555 1_555
H78B C21B 1_555 1_555
H79B C21B 1_555 1_555
H80B C20B 1_555 1_555
H81B C20B 1_555 1_555
H82B C19B 1_555 1_555
H83B C19B 1_555 1_555
H84B C18B 1_555 1_555
H85B C18B 1_555 1_555
H86B C17B 1_555 1_555
H87B C17B 1_555 1_555
C52 C53 1_555 1_555
C58 C59 1_555 1_555
C61 C62 1_555 1_555
C62 C63 1_555 1_555
C63 C64 1_555 1_555
C64 C65 1_555 1_555
C52B C53B 1_555 1_555
C58B C59B 1_555 1_555
C61B C62B 1_555 1_555
C62B C63B 1_555 1_555
C63B C64B 1_555 1_555
C64B C65B 1_555 1_555

#END
