
#######################################################################
#
#                 Cambridge Crystallographic Data Centre
#                                CCDC 
#
#######################################################################
#
# If this CIF has been generated from an entry in the Cambridge 
# Structural Database, then it will include bibliographic, chemical, 
# crystal, experimental, refinement or atomic coordinate data resulting 
# from the CCDC's data processing and validation procedures.
#
#######################################################################

data_DARZAA
_chemical_formula_moiety         'C32 H27 Cl2 N3 O3,C1 H1 Cl3'
_chemical_name_systematic        
"ethyl 6'-chloro-3'-(6-chloro-3-methyl-1H-indol-2-yl)-1,9'-dimethyl-2-oxo-1,2,2',3'-tetrahydrospiro[indole-3,1'-pyrrolo[1,2-a]indole]-3'-carboxylate chloroform solvate"
_symmetry_cell_setting           orthorhombic
_symmetry_space_group_name_H-M   'P 21 21 2'
_symmetry_Int_Tables_number      18
_space_group_name_Hall           'P 2 2ab'
loop_
_symmetry_equiv_pos_site_id
_symmetry_equiv_pos_as_xyz
1 x,y,z
2 -x,-y,z
3 1/2-x,1/2+y,-z
4 1/2+x,1/2-y,-z
_cell_length_a                   16.2146(10)
_cell_length_b                   22.5610(14)
_cell_length_c                   9.2044(6)
_cell_angle_alpha                90
_cell_angle_beta                 90
_cell_angle_gamma                90
_cell_volume                     3367.13
_exptl_crystal_colour            colorless
_exptl_crystal_description       block
_cell_formula_units_Z            4
loop_
_atom_site_label
_atom_site_type_symbol
_atom_site_fract_x
_atom_site_fract_y
_atom_site_fract_z
Cl1 Cl 0.4577(2) 0.41240(15) 0.8772(3)
Cl2 Cl -0.05980(17) 0.35153(11) 0.6339(3)
O1 O 0.3824(3) 0.3009(2) 0.2386(5)
O2 O 0.0615(6) 0.4195(5) 0.0806(12)
O3 O 0.1694(3) 0.4887(2) 0.0855(8)
N1 N 0.2964(4) 0.3892(2) 0.3966(6)
N2 N 0.1578(3) 0.3399(2) 0.2227(6)
N3 N 0.3891(3) 0.2618(3) 0.0089(6)
C1 C 0.2314(5) 0.4215(3) 0.3382(8)
C2 C 0.2090(6) 0.4648(3) 0.4295(10)
C3 C 0.2644(6) 0.4629(4) 0.5467(10)
C4 C 0.2739(8) 0.4953(5) 0.6775(11)
H1 H 0.2391 0.5271 0.6966
C5 C 0.3329(9) 0.4807(5) 0.7748(11)
H2 H 0.3403 0.5036 0.8579
C6 C 0.3830(6) 0.4307(5) 0.7497(9)
C7 C 0.3763(5) 0.3967(4) 0.6290(9)
H3 H 0.4089 0.3633 0.6144
C8 C 0.3173(5) 0.4149(3) 0.5277(8)
C9 C 0.1368(7) 0.5099(4) 0.4124(13)
H4 H 0.1569 0.5455 0.3675
H5 H 0.1146 0.5192 0.5064
H6 H 0.0944 0.4928 0.3529
C10 C 0.2635(4) 0.3829(3) 0.0809(7)
H7 H 0.3167 0.3981 0.1117
H8 H 0.2495 0.4009 -0.0116
C11 C 0.2670(4) 0.3131(3) 0.0655(7)
C12 C 0.2663(4) 0.2927(3) -0.0894(6)
C13 C 0.2098(5) 0.2986(4) -0.1973(8)
H9 H 0.1603 0.3182 -0.1802
C14 C 0.2271(7) 0.2750(5) -0.3340(9)
H10 H 0.1890 0.2791 -0.4088
C15 C 0.2975(7) 0.2467(5) -0.3579(9)
H11 H 0.3083 0.2330 -0.4513
C16 C 0.3558(6) 0.2365(4) -0.2512(8)
H12 H 0.4031 0.2144 -0.2685
C17 C 0.3390(5) 0.2616(3) -0.1156(7)
C18 C 0.3518(4) 0.2923(3) 0.1183(6)
C19 C 0.4728(5) 0.2387(4) 0.0164(10)
H13 H 0.4909 0.2385 0.1157
H14 H 0.5088 0.2634 -0.0401
H15 H 0.4739 0.1991 -0.0213
C20 C 0.1995(4) 0.2936(3) 0.1626(6)
C21 C 0.1702(5) 0.2412(3) 0.2169(7)
C22 C 0.1086(4) 0.2579(3) 0.3216(7)
C23 C 0.0594(5) 0.2257(3) 0.4151(7)
H16 H 0.0600 0.1845 0.4124
C24 C 0.0095(5) 0.2550(4) 0.5122(8)
H17 H -0.0221 0.2336 0.5783
C25 C 0.0061(5) 0.3159(4) 0.5119(8)
C26 C 0.0512(4) 0.3498(3) 0.4156(8)
H18 H 0.0466 0.3909 0.4135
C27 C 0.1029(4) 0.3203(3) 0.3237(7)
C28 C 0.1970(7) 0.1800(4) 0.1805(11)
H19 H 0.2482 0.1815 0.1284
H20 H 0.1558 0.1613 0.1212
H21 H 0.2042 0.1577 0.2684
C29 C 0.1960(4) 0.3979(3) 0.1972(7)
C30 C 0.1323(5) 0.4385(3) 0.1245(9)
C31 C 0.1167(6) 0.5291(5) -0.0004(16)
H22 H 0.1076 0.5128 -0.0966
H23 H 0.0636 0.5339 0.0467
C32 C 0.1572(11) 0.5842(6) -0.0106(16)
H24 H 0.1719 0.5977 0.0848
H25 H 0.1211 0.6126 -0.0553
H26 H 0.2061 0.5800 -0.0685
C33 C 0.6169(9) 0.4345(7) 0.3217(17)
Cl3 Cl 0.6779(6) 0.3728(4) 0.3081(12)
Cl4 Cl 0.6044(6) 0.4710(4) 0.1536(10)
Cl5 Cl 0.5360(6) 0.4342(4) 0.4181(11)
O4? O 0.0621(7) 0.4379(5) 0.1399(12)
Cl6? Cl 0.6229(10) 0.3521(7) 0.2287(18)
Cl7? Cl 0.5149(8) 0.3959(6) 0.3056(14)
Cl8? Cl 0.6433(12) 0.4666(8) 0.175(2)
Cl9? Cl 0.6870(9) 0.3904(7) 0.3841(19)
Cl10? Cl 0.5809(10) 0.4401(6) 0.4582(17)
loop_
_geom_bond_atom_site_label_1
_geom_bond_atom_site_label_2
_geom_bond_site_symmetry_1
_geom_bond_site_symmetry_2
Cl1 C6 1_555 1_555
Cl2 C25 1_555 1_555
O1 C18 1_555 1_555
O2 C30 1_555 1_555
O3 C30 1_555 1_555
N1 C1 1_555 1_555
N2 C20 1_555 1_555
N3 C17 1_555 1_555
C1 C2 1_555 1_555
C2 C3 1_555 1_555
C3 C4 1_555 1_555
C4 H1 1_555 1_555
C5 C4 1_555 1_555
H2 C5 1_555 1_555
C6 C5 1_555 1_555
C7 C6 1_555 1_555
H3 C7 1_555 1_555
C8 N1 1_555 1_555
C9 C2 1_555 1_555
H4 C9 1_555 1_555
H5 C9 1_555 1_555
H6 C9 1_555 1_555
C10 H7 1_555 1_555
H8 C10 1_555 1_555
C11 C10 1_555 1_555
C12 C11 1_555 1_555
C13 C12 1_555 1_555
H9 C13 1_555 1_555
C14 C13 1_555 1_555
H10 C14 1_555 1_555
C15 C14 1_555 1_555
H11 C15 1_555 1_555
C16 C15 1_555 1_555
H12 C16 1_555 1_555
C17 C12 1_555 1_555
C18 N3 1_555 1_555
C19 N3 1_555 1_555
H13 C19 1_555 1_555
H14 C19 1_555 1_555
H15 C19 1_555 1_555
C20 C11 1_555 1_555
C21 C20 1_555 1_555
C22 C21 1_555 1_555
C23 C22 1_555 1_555
H16 C23 1_555 1_555
C24 C23 1_555 1_555
H17 C24 1_555 1_555
C25 C24 1_555 1_555
C26 C25 1_555 1_555
H18 C26 1_555 1_555
C27 N2 1_555 1_555
C28 C21 1_555 1_555
H19 C28 1_555 1_555
H20 C28 1_555 1_555
H21 C28 1_555 1_555
C29 N2 1_555 1_555
C30 C29 1_555 1_555
C31 O3 1_555 1_555
H22 C31 1_555 1_555
H23 C31 1_555 1_555
C32 C31 1_555 1_555
H24 C32 1_555 1_555
H25 C32 1_555 1_555
H26 C32 1_555 1_555
C33 Cl3 1_555 1_555
Cl4 C33 1_555 1_555
Cl5 C33 1_555 1_555
C1 C29 1_555 1_555
C3 C8 1_555 1_555
C7 C8 1_555 1_555
C10 C29 1_555 1_555
C11 C18 1_555 1_555
C16 C17 1_555 1_555
C22 C27 1_555 1_555
C26 C27 1_555 1_555

#END
