
#######################################################################
#
#                 Cambridge Crystallographic Data Centre
#                                CCDC 
#
#######################################################################
#
# If this CIF has been generated from an entry in the Cambridge 
# Structural Database, then it will include bibliographic, chemical, 
# crystal, experimental, refinement or atomic coordinate data resulting 
# from the CCDC's data processing and validation procedures.
#
#######################################################################

data_DASBOR
_chemical_name_common            
(pyridin-1-ium-4-yl)-(2-{3-[(4-ethyl-3,5-dimethyl-2H-pyrrol-2-ylidene)methyl]isoindol-2-id-1-yl}phenolato)-borate
_chemical_formula_moiety         'C28 H25 B1 N3 O1'
_chemical_name_systematic        
11-ethyl-10,12-dimethyl-12b-(pyridin-1-ium-4-yl)-12bH-13-oxa-12a,12c-diaza-12b-borabenzo[a]cyclopenta[e]aceanthrylene
_symmetry_cell_setting           orthorhombic
_symmetry_space_group_name_H-M   'P c c n'
_symmetry_Int_Tables_number      56
_space_group_name_Hall           '-P 2ab 2ac'
loop_
_symmetry_equiv_pos_site_id
_symmetry_equiv_pos_as_xyz
1 x,y,z
2 1/2-x,1/2-y,z
3 -x,1/2+y,1/2-z
4 1/2+x,-y,1/2-z
5 -x,-y,-z
6 1/2+x,1/2+y,-z
7 x,1/2-y,1/2+z
8 1/2-x,y,1/2+z
_cell_length_a                   18.380(7)
_cell_length_b                   28.155(11)
_cell_length_c                   8.802(3)
_cell_angle_alpha                90
_cell_angle_beta                 90
_cell_angle_gamma                90
_cell_volume                     4554.94
_exptl_crystal_colour            'metallic red'
_exptl_crystal_description       cube
_cell_formula_units_Z            8
loop_
_atom_site_label
_atom_site_type_symbol
_atom_site_fract_x
_atom_site_fract_y
_atom_site_fract_z
O1 O 0.56036(8) 0.32407(5) 0.72084(19)
N1 N 0.47798(9) 0.38869(6) 0.7729(2)
N2 N 0.46444(9) 0.34667(6) 0.5312(2)
C1 C 0.41139(11) 0.41119(8) 0.7536(3)
C2 C 0.37316(11) 0.40175(7) 0.6236(3)
H1 H 0.3293 0.4174 0.6073
C3 C 0.39741(12) 0.36964(8) 0.5154(3)
C4 C 0.39746(11) 0.43612(8) 0.8908(3)
C5 C 0.57741(11) 0.40064(8) 0.5681(3)
C6 C 0.50438(12) 0.39557(8) 0.9127(3)
C7 C 0.59411(12) 0.33375(8) 0.8546(3)
C8 C 0.55293(13) 0.43972(8) 0.4895(3)
H2 H 0.5031 0.4451 0.4827
C9 C 0.57004(12) 0.36994(9) 0.9523(3)
C10 C 0.45491(12) 0.42616(9) 0.9917(3)
C11 C 0.47287(13) 0.31811(8) 0.4098(3)
N3 N 0.67039(13) 0.46686(9) 0.4290(3)
H3 H 0.6990 0.4871 0.3869
C12 C 0.36443(13) 0.35329(9) 0.3815(3)
C13 C 0.34006(13) 0.46574(8) 0.9368(3)
H4 H 0.3019 0.4727 0.8711
C14 C 0.59941(14) 0.47082(9) 0.4212(3)
H5 H 0.5799 0.4960 0.3665
C15 C 0.65349(13) 0.30597(9) 0.8960(4)
H6 H 0.6690 0.2817 0.8322
C16 C 0.41203(15) 0.32102(10) 0.3159(3)
C17 C 0.53917(13) 0.28846(10) 0.3887(3)
H7 H 0.5817 0.3073 0.4086
H8 H 0.5408 0.2769 0.2862
H9 H 0.5378 0.2621 0.4577
C18 C 0.68926(15) 0.31413(11) 1.0297(4)
H10 H 0.7289 0.2953 1.0563
C19 C 0.60841(14) 0.37760(11) 1.0876(3)
H11 H 0.5940 0.4018 1.1530
B1 B 0.52210(13) 0.36346(8) 0.6473(3)
C20 C 0.66711(15) 0.34967(13) 1.1243(4)
H12 H 0.6920 0.3551 1.2146
C21 C 0.45443(15) 0.44490(12) 1.1377(3)
H13 H 0.4915 0.4378 1.2059
C22 C 0.34169(16) 0.48402(11) 1.0805(3)
H14 H 0.3040 0.5036 1.1127
C23 C 0.29097(16) 0.36802(12) 0.3234(4)
H15 H 0.2573 0.3422 0.3356
H16 H 0.2946 0.3762 0.2178
H17 H 0.2741 0.3951 0.3797
C24 C 0.39827(17) 0.47402(13) 1.1792(4)
H18 H 0.3981 0.4874 1.2758
C25 C 0.65187(14) 0.39663(12) 0.5721(4)
H19 H 0.6731 0.3708 0.6209
C26 C 0.4003(2) 0.29301(14) 0.1725(4)
H20 H 0.3716 0.3119 0.1024
H21 H 0.4471 0.2870 0.1252
C27 C 0.69501(17) 0.43014(14) 0.5050(4)
H22 H 0.7452 0.4267 0.5138
C28 C 0.3633(2) 0.24754(18) 0.1987(5)
H23 H 0.3542 0.2323 0.1031
H24 H 0.3180 0.2531 0.2500
H25 H 0.3936 0.2275 0.2603
loop_
_geom_bond_atom_site_label_1
_geom_bond_atom_site_label_2
_geom_bond_site_symmetry_1
_geom_bond_site_symmetry_2
O1 C7 1_555 1_555
N1 C1 1_555 1_555
N2 C3 1_555 1_555
C1 C2 1_555 1_555
C2 H1 1_555 1_555
C3 C2 1_555 1_555
C4 C1 1_555 1_555
C5 C8 1_555 1_555
C6 N1 1_555 1_555
C7 C9 1_555 1_555
C8 H2 1_555 1_555
C9 C6 1_555 1_555
C10 C4 1_555 1_555
C11 N2 1_555 1_555
N3 H3 1_555 1_555
C12 C3 1_555 1_555
C13 C4 1_555 1_555
H4 C13 1_555 1_555
C14 C8 1_555 1_555
H5 C14 1_555 1_555
C15 C7 1_555 1_555
H6 C15 1_555 1_555
C16 C11 1_555 1_555
C17 C11 1_555 1_555
H7 C17 1_555 1_555
H8 C17 1_555 1_555
H9 C17 1_555 1_555
C18 C15 1_555 1_555
H10 C18 1_555 1_555
C19 C9 1_555 1_555
H11 C19 1_555 1_555
B1 O1 1_555 1_555
C20 C18 1_555 1_555
H12 C20 1_555 1_555
C21 C10 1_555 1_555
H13 C21 1_555 1_555
C22 C13 1_555 1_555
H14 C22 1_555 1_555
C23 C12 1_555 1_555
H15 C23 1_555 1_555
H16 C23 1_555 1_555
H17 C23 1_555 1_555
C24 C21 1_555 1_555
H18 C24 1_555 1_555
C25 C5 1_555 1_555
H19 C25 1_555 1_555
C26 C16 1_555 1_555
H20 C26 1_555 1_555
H21 C26 1_555 1_555
C27 N3 1_555 1_555
H22 C27 1_555 1_555
C28 C26 1_555 1_555
H23 C28 1_555 1_555
H24 C28 1_555 1_555
H25 C28 1_555 1_555
N1 B1 1_555 1_555
N2 B1 1_555 1_555
C5 B1 1_555 1_555
C6 C10 1_555 1_555
N3 C14 1_555 1_555
C12 C16 1_555 1_555
C19 C20 1_555 1_555
C22 C24 1_555 1_555
C25 C27 1_555 1_555

#END
