
#######################################################################
#
#                 Cambridge Crystallographic Data Centre
#                                CCDC 
#
#######################################################################
#
# If this CIF has been generated from an entry in the Cambridge 
# Structural Database, then it will include bibliographic, chemical, 
# crystal, experimental, refinement or atomic coordinate data resulting 
# from the CCDC's data processing and validation procedures.
#
#######################################################################

data_DASBUX
_chemical_formula_moiety         'C29 H25 B1 N2 O1'
_chemical_name_systematic        
11-ethyl-10,12-dimethyl-12b-phenyl-12bH-13-oxa-12a,12c-diaza-12b-borabenzo[a]cyclopenta[e]aceanthrylene
_symmetry_cell_setting           monoclinic
_symmetry_space_group_name_H-M   'P 21/n'
_symmetry_Int_Tables_number      14
_space_group_name_Hall           '-P 2yn'
loop_
_symmetry_equiv_pos_site_id
_symmetry_equiv_pos_as_xyz
1 x,y,z
2 1/2-x,1/2+y,1/2-z
3 -x,-y,-z
4 1/2+x,1/2-y,1/2+z
_cell_length_a                   13.7906(19)
_cell_length_b                   11.0012(15)
_cell_length_c                   15.176(2)
_cell_angle_alpha                90
_cell_angle_beta                 106.407(2)
_cell_angle_gamma                90
_cell_volume                     2208.64
_exptl_crystal_colour            'metallic red'
_exptl_crystal_description       cube
_cell_formula_units_Z            4
loop_
_atom_site_label
_atom_site_type_symbol
_atom_site_fract_x
_atom_site_fract_y
_atom_site_fract_z
O1 O 0.58260(16) 0.3096(2) 0.36207(14)
N1 N 0.69053(18) 0.4544(2) 0.47590(17)
N2 N 0.57090(18) 0.3161(2) 0.51692(16)
C1 C 0.5009(2) 0.2289(3) 0.5017(2)
C2 C 0.6909(2) 0.5212(3) 0.5544(2)
C3 C 0.7304(2) 0.2210(3) 0.4876(2)
C4 C 0.5732(2) 0.3839(3) 0.5942(2)
C5 C 0.7540(2) 0.5111(3) 0.4358(2)
C6 C 0.4807(2) 0.1638(3) 0.4162(2)
C7 C 0.6333(2) 0.4849(3) 0.6119(2)
H1 H 0.6358 0.5309 0.6639
C8 C 0.7554(2) 0.6211(3) 0.5601(2)
C9 C 0.5199(2) 0.2123(3) 0.3469(2)
C10 C 0.4562(2) 0.2314(3) 0.5769(2)
C11 C 0.5009(2) 0.3288(3) 0.6337(2)
C12 C 0.7947(2) 0.6142(3) 0.4856(2)
C13 C 0.7584(2) 0.1467(3) 0.4247(2)
H2 H 0.7267 0.1571 0.3624
C14 C 0.4168(2) 0.0630(3) 0.3948(3)
H3 H 0.3915 0.0291 0.4399
C15 C 0.7765(3) 0.7177(3) 0.6323(2)
H4 H 0.7305 0.7093 0.6690
H5 H 0.7679 0.7963 0.6035
H6 H 0.8447 0.7096 0.6707
C16 C 0.8318(3) 0.0581(3) 0.4519(3)
H7 H 0.8488 0.0101 0.4081
C17 C 0.7809(3) 0.2011(3) 0.5794(2)
H8 H 0.7648 0.2490 0.6238
C18 C 0.4917(3) 0.1615(4) 0.2603(2)
H9 H 0.5162 0.1939 0.2142
C19 C 0.7720(3) 0.4638(3) 0.3500(2)
H10 H 0.8090 0.3889 0.3628
H11 H 0.8104 0.5222 0.3268
H12 H 0.7084 0.4499 0.3050
C20 C 0.8666(3) 0.7022(3) 0.4618(3)
H13 H 0.8517 0.7834 0.4793
H14 H 0.8554 0.7018 0.3958
C21 C 0.3837(2) 0.1590(3) 0.5998(2)
H15 H 0.3530 0.0949 0.5623
C22 C 0.8793(3) 0.0408(3) 0.5429(3)
H16 H 0.9284 -0.0192 0.5613
C23 C 0.3593(3) 0.1850(4) 0.6788(3)
H17 H 0.3124 0.1364 0.6957
C24 C 0.4730(3) 0.3553(4) 0.7131(2)
H18 H 0.5013 0.4208 0.7502
C25 C 0.3907(3) 0.0133(4) 0.3089(3)
H19 H 0.3483 -0.0541 0.2959
C26 C 0.8541(3) 0.1127(4) 0.6069(3)
H20 H 0.8864 0.1019 0.6691
C27 C 0.4025(3) 0.2819(4) 0.7347(3)
H21 H 0.3834 0.2974 0.7876
C28 C 0.4274(3) 0.0631(4) 0.2415(3)
H22 H 0.4086 0.0300 0.1828
B1 B 0.6450(3) 0.3255(3) 0.4573(2)
C29 C 0.9760(3) 0.6749(5) 0.5074(4)
H23 H 0.9934 0.5982 0.4857
H24 H 0.9873 0.6712 0.5727
H25 H 1.0172 0.7378 0.4929
loop_
_geom_bond_atom_site_label_1
_geom_bond_atom_site_label_2
_geom_bond_site_symmetry_1
_geom_bond_site_symmetry_2
O1 C9 1_555 1_555
N1 C2 1_555 1_555
N2 C1 1_555 1_555
C1 C6 1_555 1_555
C2 C7 1_555 1_555
C3 C13 1_555 1_555
C4 N2 1_555 1_555
C5 N1 1_555 1_555
C6 C9 1_555 1_555
C7 C4 1_555 1_555
H1 C7 1_555 1_555
C8 C2 1_555 1_555
C9 C18 1_555 1_555
C10 C1 1_555 1_555
C11 C4 1_555 1_555
C12 C5 1_555 1_555
C13 H2 1_555 1_555
C14 C6 1_555 1_555
H3 C14 1_555 1_555
C15 C8 1_555 1_555
H4 C15 1_555 1_555
H5 C15 1_555 1_555
H6 C15 1_555 1_555
C16 C13 1_555 1_555
H7 C16 1_555 1_555
C17 C3 1_555 1_555
H8 C17 1_555 1_555
C18 H9 1_555 1_555
C19 C5 1_555 1_555
H10 C19 1_555 1_555
H11 C19 1_555 1_555
H12 C19 1_555 1_555
C20 C12 1_555 1_555
H13 C20 1_555 1_555
H14 C20 1_555 1_555
C21 C10 1_555 1_555
H15 C21 1_555 1_555
C22 C16 1_555 1_555
H16 C22 1_555 1_555
C23 C21 1_555 1_555
H17 C23 1_555 1_555
C24 C11 1_555 1_555
H18 C24 1_555 1_555
C25 C14 1_555 1_555
H19 C25 1_555 1_555
C26 C17 1_555 1_555
H20 C26 1_555 1_555
C27 C23 1_555 1_555
H21 C27 1_555 1_555
C28 C18 1_555 1_555
H22 C28 1_555 1_555
B1 O1 1_555 1_555
C29 C20 1_555 1_555
H23 C29 1_555 1_555
H24 C29 1_555 1_555
H25 C29 1_555 1_555
N1 B1 1_555 1_555
N2 B1 1_555 1_555
C3 B1 1_555 1_555
C8 C12 1_555 1_555
C10 C11 1_555 1_555
C22 C26 1_555 1_555
C24 C27 1_555 1_555
C25 C28 1_555 1_555

#END
