
#######################################################################
#
#                 Cambridge Crystallographic Data Centre
#                                CCDC 
#
#######################################################################
#
# If this CIF has been generated from an entry in the Cambridge 
# Structural Database, then it will include bibliographic, chemical, 
# crystal, experimental, refinement or atomic coordinate data resulting 
# from the CCDC's data processing and validation procedures.
#
#######################################################################

data_DASFEL
_chemical_compound_source        'Daldinia eschscholzii IFB-TL01'
_chemical_name_common            'Dalescone G'
_chemical_formula_moiety         'C32 H22 O8'
_chemical_name_systematic        
4,10,15-trihydroxy-16-methoxy-12a,13,16,18-tetrahydro-3H,11H-dinaphtho[1'',8'':1',2',3';2''',1''':8',8a']azuleno[4',5':4,5]benzo[1,2-c]furan-3,11,14(12H)-trione
_symmetry_cell_setting           monoclinic
_symmetry_space_group_name_H-M   'P 21/c'
_symmetry_Int_Tables_number      14
_space_group_name_Hall           '-P 2ybc'
loop_
_symmetry_equiv_pos_site_id
_symmetry_equiv_pos_as_xyz
1 x,y,z
2 -x,1/2+y,1/2-z
3 -x,-y,-z
4 x,1/2-y,1/2+z
_cell_length_a                   7.4426(3)
_cell_length_b                   20.2962(10)
_cell_length_c                   16.8662(8)
_cell_angle_alpha                90
_cell_angle_beta                 94.381(3)
_cell_angle_gamma                90
_cell_volume                     2540.3
_cell_formula_units_Z            4
loop_
_atom_site_label
_atom_site_type_symbol
_atom_site_fract_x
_atom_site_fract_y
_atom_site_fract_z
C1 C 0.4444(3) 0.64997(13) 0.41441(16)
H1 H 0.4618 0.6792 0.3733
C2 C 0.3232(3) 0.60126(13) 0.40372(16)
H2 H 0.2617 0.5970 0.3539
C3 C 0.2815(3) 0.55421(12) 0.46615(17)
C4 C 0.3863(3) 0.55959(12) 0.54253(16)
C5 C 0.5155(3) 0.60893(12) 0.55127(15)
C6 C 0.5477(3) 0.65686(12) 0.48994(15)
C7 C 0.3622(3) 0.52060(12) 0.60960(18)
C8 C 0.4711(3) 0.53131(13) 0.67910(18)
H3 H 0.4572 0.5046 0.7230
C9 C 0.6007(3) 0.58103(14) 0.68457(17)
H4 H 0.6723 0.5873 0.7316
C10 C 0.6221(3) 0.62098(12) 0.61966(15)
C11 C 0.7507(3) 0.67695(12) 0.60361(15)
C12 C 0.6755(3) 0.70045(12) 0.52037(15)
C13 C 0.7502(3) 0.73262(13) 0.66472(16)
C14 C 0.6019(3) 0.77311(15) 0.66314(19)
H5 H 0.5026 0.7644 0.6278
C15 C 0.5994(5) 0.82668(18) 0.7137(2)
H6 H 0.4990 0.8541 0.7113
C16 C 0.7411(5) 0.83996(18) 0.7669(2)
H7 H 0.7385 0.8768 0.7996
C17 C 0.8883(4) 0.7988(2) 0.7722(2)
C18 C 0.8958(3) 0.74378(15) 0.72041(18)
C19 C 1.0504(4) 0.6995(2) 0.7278(2)
C20 C 1.0431(3) 0.63889(17) 0.67781(19)
H8 H 0.9860 0.6041 0.7063
H9 H 1.1653 0.6249 0.6705
C21 C 0.9422(3) 0.64685(13) 0.59657(18)
H10 H 0.9229 0.6022 0.5753
C22 C 1.0506(3) 0.68385(15) 0.53645(18)
H11 H 1.1747 0.6692 0.5442
H12 H 1.0056 0.6700 0.4836
C23 C 1.0508(3) 0.75750(15) 0.53782(18)
C24 C 0.8951(3) 0.79388(13) 0.50254(16)
C25 C 0.7206(3) 0.76485(12) 0.48747(15)
C26 C 0.5822(3) 0.80116(14) 0.44961(17)
H13 H 0.4680 0.7828 0.4404
C27 C 0.6148(3) 0.86530(14) 0.42543(18)
C28 C 0.7818(4) 0.89335(15) 0.43880(17)
C29 C 0.9224(3) 0.85973(14) 0.47847(17)
C30 C 0.4892(4) 0.91494(17) 0.3871(2)
H14 H 0.4434 0.9004 0.3347
H15 H 0.3883 0.9226 0.4191
C31 C 0.7796(4) 0.96160(16) 0.4047(2)
H16 H 0.8257 0.9935 0.4449
C32 C 0.9271(7) 1.0259(2) 0.3113(3)
H17 H 0.8203 1.0525 0.3078
H18 H 0.9726 1.0224 0.2597
H19 H 1.0167 1.0458 0.3476
O1 O 0.1606(2) 0.51278(10) 0.45457(13)
O2 O 0.2350(3) 0.47311(10) 0.60897(14)
H20 H 0.1789 0.4721 0.5652
O3 O 1.0244(4) 0.8108(2) 0.82748(19)
H21 H 1.1139 0.7902 0.8166
O4 O 1.1803(3) 0.70936(18) 0.77589(18)
O5 O 1.1904(2) 0.78644(12) 0.56145(16)
O6 O 1.0817(2) 0.89077(11) 0.49285(15)
H22 H 1.1516 0.8668 0.5194
O7 O 0.5958(3) 0.97374(11) 0.38201(17)
O8 O 0.8852(3) 0.96193(11) 0.33910(14)
loop_
_geom_bond_atom_site_label_1
_geom_bond_atom_site_label_2
_geom_bond_site_symmetry_1
_geom_bond_site_symmetry_2
C1 H1 1_555 1_555
C2 C1 1_555 1_555
H2 C2 1_555 1_555
C3 C2 1_555 1_555
C4 C3 1_555 1_555
C5 C4 1_555 1_555
C6 C1 1_555 1_555
C7 C4 1_555 1_555
C8 C7 1_555 1_555
H3 C8 1_555 1_555
C9 C8 1_555 1_555
H4 C9 1_555 1_555
C10 C5 1_555 1_555
C11 C10 1_555 1_555
C12 C6 1_555 1_555
C13 C11 1_555 1_555
C14 C13 1_555 1_555
H5 C14 1_555 1_555
C15 C14 1_555 1_555
H6 C15 1_555 1_555
C16 C15 1_555 1_555
H7 C16 1_555 1_555
C17 C16 1_555 1_555
C18 C13 1_555 1_555
C19 C18 1_555 1_555
C20 C19 1_555 1_555
H8 C20 1_555 1_555
H9 C20 1_555 1_555
C21 C11 1_555 1_555
H10 C21 1_555 1_555
C22 C21 1_555 1_555
H11 C22 1_555 1_555
H12 C22 1_555 1_555
C23 C22 1_555 1_555
C24 C23 1_555 1_555
C25 C12 1_555 1_555
C26 C25 1_555 1_555
H13 C26 1_555 1_555
C27 C26 1_555 1_555
C28 C27 1_555 1_555
C29 C24 1_555 1_555
C30 C27 1_555 1_555
H14 C30 1_555 1_555
H15 C30 1_555 1_555
C31 C28 1_555 1_555
H16 C31 1_555 1_555
C32 H17 1_555 1_555
H18 C32 1_555 1_555
H19 C32 1_555 1_555
O1 C3 1_555 1_555
O2 C7 1_555 1_555
H20 O2 1_555 1_555
O3 C17 1_555 1_555
H21 O3 1_555 1_555
O4 C19 1_555 1_555
O5 C23 1_555 1_555
O6 C29 1_555 1_555
H22 O6 1_555 1_555
O7 C30 1_555 1_555
O8 C31 1_555 1_555
C5 C6 1_555 1_555
C9 C10 1_555 1_555
C11 C12 1_555 1_555
C17 C18 1_555 1_555
C20 C21 1_555 1_555
C24 C25 1_555 1_555
C28 C29 1_555 1_555
C31 O7 1_555 1_555
C32 O8 1_555 1_555

#END
