
#######################################################################
#
#                 Cambridge Crystallographic Data Centre
#                                CCDC 
#
#######################################################################
#
# If this CIF has been generated from an entry in the Cambridge 
# Structural Database, then it will include bibliographic, chemical, 
# crystal, experimental, refinement or atomic coordinate data resulting 
# from the CCDC's data processing and validation procedures.
#
#######################################################################

data_DASHUD
_chemical_formula_moiety         'C21 H15 N1'
_chemical_name_systematic        3,4-diphenylisoquinoline
_symmetry_cell_setting           monoclinic
_symmetry_space_group_name_H-M   'P 21/c'
_symmetry_Int_Tables_number      14
_space_group_name_Hall           '-P 2ybc'
loop_
_symmetry_equiv_pos_site_id
_symmetry_equiv_pos_as_xyz
1 x,y,z
2 -x,1/2+y,1/2-z
3 -x,-y,-z
4 x,1/2-y,1/2+z
_cell_length_a                   9.4624(7)
_cell_length_b                   9.9524(7)
_cell_length_c                   16.0483(11)
_cell_angle_alpha                90
_cell_angle_beta                 102.418(7)
_cell_angle_gamma                90
_cell_volume                     1475.97
_cell_formula_units_Z            4
loop_
_atom_site_label
_atom_site_type_symbol
_atom_site_fract_x
_atom_site_fract_y
_atom_site_fract_z
C1 C 0.82835(15) 0.46843(14) 0.36552(8)
H1 H 0.9130 0.4371 0.4008
C2 C 0.79686(17) 0.43406(15) 0.28018(9)
H2 H 0.8614 0.3818 0.2580
C3 C 0.67041(17) 0.47693(18) 0.22813(9)
H3 H 0.6472 0.4507 0.1712
C4 C 0.57775(17) 0.5590(2) 0.26057(10)
H4 H 0.4928 0.5894 0.2250
C5 C 0.61023(16) 0.59643(18) 0.34545(9)
H5 H 0.5483 0.6534 0.3666
C6 C 0.73476(14) 0.54928(14) 0.39909(8)
C7 C 0.76445(14) 0.58008(14) 0.49204(8)
C8 C 0.76894(13) 0.47857(13) 0.55104(8)
C9 C 0.74263(14) 0.33578(14) 0.52526(8)
C10 C 0.60588(15) 0.29312(15) 0.48340(8)
H6 H 0.5308 0.3550 0.4698
C11 C 0.58061(16) 0.15936(16) 0.46178(9)
H7 H 0.4885 0.1318 0.4341
C12 C 0.69107(17) 0.06673(15) 0.48101(9)
H8 H 0.6737 -0.0231 0.4664
C13 C 0.82720(17) 0.10780(15) 0.52193(9)
H9 H 0.9021 0.0456 0.5348
C14 C 0.85288(16) 0.24140(14) 0.54399(9)
H10 H 0.9452 0.2683 0.5717
C15 C 0.83587(15) 0.68969(16) 0.74783(9)
H11 H 0.8491 0.7799 0.7625
C16 C 0.83706(16) 0.59590(16) 0.80956(9)
H12 H 0.8494 0.6223 0.8663
C17 C 0.81973(16) 0.45934(16) 0.78795(9)
H13 H 0.8227 0.3958 0.8308
C18 C 0.79857(15) 0.41842(15) 0.70513(8)
H14 H 0.7866 0.3276 0.6919
C19 C 0.79476(13) 0.51346(14) 0.63942(8)
C20 C 0.81464(14) 0.65046(14) 0.66149(8)
C21 C 0.80837(15) 0.74374(15) 0.59483(9)
H15 H 0.8228 0.8338 0.6096
N1 N 0.78367(13) 0.71326(12) 0.51342(7)
loop_
_geom_bond_atom_site_label_1
_geom_bond_atom_site_label_2
_geom_bond_site_symmetry_1
_geom_bond_site_symmetry_2
C1 H1 1_555 1_555
C2 C1 1_555 1_555
H2 C2 1_555 1_555
C3 C2 1_555 1_555
H3 C3 1_555 1_555
C4 C3 1_555 1_555
H4 C4 1_555 1_555
C5 C4 1_555 1_555
H5 C5 1_555 1_555
C6 C1 1_555 1_555
C7 C6 1_555 1_555
C8 C7 1_555 1_555
C9 C8 1_555 1_555
C10 C9 1_555 1_555
H6 C10 1_555 1_555
C11 C10 1_555 1_555
H7 C11 1_555 1_555
C12 C11 1_555 1_555
H8 C12 1_555 1_555
C13 C12 1_555 1_555
H9 C13 1_555 1_555
C14 C9 1_555 1_555
H10 C14 1_555 1_555
C15 H11 1_555 1_555
C16 C15 1_555 1_555
H12 C16 1_555 1_555
C17 C16 1_555 1_555
H13 C17 1_555 1_555
C18 C17 1_555 1_555
H14 C18 1_555 1_555
C19 C8 1_555 1_555
C20 C15 1_555 1_555
C21 C20 1_555 1_555
H15 C21 1_555 1_555
N1 C7 1_555 1_555
C5 C6 1_555 1_555
C13 C14 1_555 1_555
C18 C19 1_555 1_555
C19 C20 1_555 1_555
C21 N1 1_555 1_555

#END
