
#######################################################################
#
#                 Cambridge Crystallographic Data Centre
#                                CCDC 
#
#######################################################################
#
# If this CIF has been generated from an entry in the Cambridge 
# Structural Database, then it will include bibliographic, chemical, 
# crystal, experimental, refinement or atomic coordinate data resulting 
# from the CCDC's data processing and validation procedures.
#
#######################################################################

data_DASLAN
_chemical_compound_source        'Daldinia eschscholzii IFB-TL01'
_chemical_name_common            'Dalescone C methanol solvate'
_chemical_formula_moiety         'C30 H20 O7,C1 H4 O1'
_chemical_name_systematic        
"4,11,15-trihydroxy-2-(hydroxymethyl)-12a,13-dihydrobenzo[3,4]naphtho[1',2':1,7]cyclohepta[1,2-a]acenaphthylene-3,10,14(12H)-trione methanol solvate"
_symmetry_cell_setting           monoclinic
_symmetry_space_group_name_H-M   'P 2/n'
_symmetry_Int_Tables_number      13
_space_group_name_Hall           '-P 2yac'
loop_
_symmetry_equiv_pos_site_id
_symmetry_equiv_pos_as_xyz
1 x,y,z
2 1/2-x,y,1/2-z
3 -x,-y,-z
4 1/2+x,-y,1/2+z
_cell_length_a                   14.1170(9)
_cell_length_b                   8.1361(4)
_cell_length_c                   22.5808(14)
_cell_angle_alpha                90
_cell_angle_beta                 94.591(6)
_cell_angle_gamma                90
_cell_volume                     2585.25
_exptl_crystal_colour            brown
_exptl_crystal_description       prism
_cell_formula_units_Z            4
loop_
_atom_site_label
_atom_site_type_symbol
_atom_site_fract_x
_atom_site_fract_y
_atom_site_fract_z
O1 O 0.99704(13) 0.8390(2) 0.35953(9)
H1 H 1.0430 0.8919 0.3477
O2 O 0.99340(12) 0.77024(18) 0.54380(8)
O3 O 0.91216(14) 0.62575(19) 0.63469(8)
H2 H 0.9470 0.6943 0.6190
O4 O 0.57299(15) -0.17768(19) 0.43117(10)
H3 H 0.5145 -0.1641 0.4227
O5 O 0.41310(15) -0.0344(2) 0.41026(9)
O6 O 0.65172(13) -0.01524(17) 0.30068(7)
O7 O 0.55683(13) 0.17410(19) 0.22681(7)
H4 H 0.5729 0.0845 0.2431
C1 C 1.00395(18) 0.8370(3) 0.42247(12)
H5 H 0.9883 0.9470 0.4377
H6 H 1.0698 0.8096 0.4377
C2 C 0.93681(16) 0.7123(2) 0.44365(11)
C3 C 0.93788(16) 0.6889(3) 0.50870(11)
C4 C 0.87380(17) 0.5674(2) 0.53116(11)
C5 C 0.86308(17) 0.5365(3) 0.59149(11)
C6 C 0.80039(17) 0.4143(3) 0.60738(11)
H7 H 0.7926 0.3948 0.6482
C7 C 0.74885(17) 0.3202(3) 0.56413(11)
H8 H 0.7084 0.2346 0.5756
C8 C 0.75701(16) 0.3521(2) 0.50449(10)
C9 C 0.81845(16) 0.4755(2) 0.48961(10)
C10 C 0.81472(16) 0.5029(2) 0.42703(10)
C11 C 0.87718(16) 0.6261(2) 0.40520(11)
H9 H 0.8764 0.6466 0.3637
C12 C 0.74847(16) 0.4006(2) 0.39970(10)
C13 C 0.71469(16) 0.2767(2) 0.44600(10)
C14 C 0.76512(17) 0.1084(2) 0.43507(10)
H10 H 0.8303 0.1147 0.4558
C15 C 0.71351(19) -0.0317(3) 0.46348(12)
H11 H 0.7454 -0.1367 0.4553
H12 H 0.7178 -0.0158 0.5071
C16 C 0.61153(19) -0.0424(3) 0.44100(11)
C17 C 0.55950(17) 0.1118(3) 0.43287(10)
C18 C 0.45999(19) 0.1103(3) 0.41965(11)
C19 C 0.40906(19) 0.2565(4) 0.41630(12)
H13 H 0.3421 0.2550 0.4074
C20 C 0.45590(19) 0.4030(3) 0.42585(12)
H14 H 0.4209 0.5029 0.4243
C21 C 0.55342(18) 0.4067(3) 0.43766(10)
H15 H 0.5845 0.5095 0.4438
C22 C 0.60685(15) 0.2634(2) 0.44071(9)
C23 C 0.77736(17) 0.0776(3) 0.36856(10)
H16 H 0.8294 0.1493 0.3568
H17 H 0.7985 -0.0375 0.3643
C24 C 0.69216(17) 0.1052(3) 0.32495(10)
C25 C 0.66269(16) 0.2731(2) 0.30850(9)
C26 C 0.59880(17) 0.2999(3) 0.25834(10)
C27 C 0.57815(18) 0.4587(3) 0.23748(11)
H18 H 0.5366 0.4746 0.2027
C28 C 0.61811(19) 0.5915(3) 0.26745(11)
H19 H 0.6050 0.6995 0.2530
C29 C 0.67754(17) 0.5690(3) 0.31880(10)
H20 H 0.7030 0.6624 0.3397
C30 C 0.70051(16) 0.4131(2) 0.34022(10)
loop_
_geom_bond_atom_site_label_1
_geom_bond_atom_site_label_2
_geom_bond_site_symmetry_1
_geom_bond_site_symmetry_2
O1 H1 1_555 1_555
O2 C3 1_555 1_555
O3 H2 1_555 1_555
O4 H3 1_555 1_555
O5 C18 1_555 1_555
O6 C24 1_555 1_555
O7 H4 1_555 1_555
C1 O1 1_555 1_555
H5 C1 1_555 1_555
H6 C1 1_555 1_555
C2 C1 1_555 1_555
C3 C2 1_555 1_555
C4 C3 1_555 1_555
C5 O3 1_555 1_555
C6 C5 1_555 1_555
H7 C6 1_555 1_555
C7 C6 1_555 1_555
H8 C7 1_555 1_555
C8 C7 1_555 1_555
C9 C4 1_555 1_555
C10 C9 1_555 1_555
C11 C2 1_555 1_555
H9 C11 1_555 1_555
C12 C10 1_555 1_555
C13 C8 1_555 1_555
C14 C13 1_555 1_555
H10 C14 1_555 1_555
C15 C14 1_555 1_555
H11 C15 1_555 1_555
H12 C15 1_555 1_555
C16 O4 1_555 1_555
C17 C16 1_555 1_555
C18 C17 1_555 1_555
C19 C18 1_555 1_555
H13 C19 1_555 1_555
C20 C19 1_555 1_555
H14 C20 1_555 1_555
C21 C20 1_555 1_555
H15 C21 1_555 1_555
C22 C13 1_555 1_555
C23 C14 1_555 1_555
H16 C23 1_555 1_555
H17 C23 1_555 1_555
C24 C23 1_555 1_555
C25 C24 1_555 1_555
C26 O7 1_555 1_555
C27 C26 1_555 1_555
H18 C27 1_555 1_555
C28 C27 1_555 1_555
H19 C28 1_555 1_555
C29 C28 1_555 1_555
H20 C29 1_555 1_555
C30 C12 1_555 1_555
C4 C5 1_555 1_555
C8 C9 1_555 1_555
C10 C11 1_555 1_555
C12 C13 1_555 1_555
C15 C16 1_555 1_555
C17 C22 1_555 1_555
C21 C22 1_555 1_555
C25 C26 1_555 1_555
C25 C30 1_555 1_555
C29 C30 1_555 1_555

#END
