
#######################################################################
#
#                 Cambridge Crystallographic Data Centre
#                                CCDC 
#
#######################################################################
#
# If this CIF has been generated from an entry in the Cambridge 
# Structural Database, then it will include bibliographic, chemical, 
# crystal, experimental, refinement or atomic coordinate data resulting 
# from the CCDC's data processing and validation procedures.
#
#######################################################################

data_DATKER
_chemical_formula_moiety         'C23 H23 N1 O4 S1'
_chemical_name_systematic        
'methyl N-[(4-methylphenyl)sulfonyl]-\b-phenylphenylalaninate'
_symmetry_cell_setting           monoclinic
_symmetry_space_group_name_H-M   'P 21'
_symmetry_Int_Tables_number      4
_space_group_name_Hall           'P 2yb'
loop_
_symmetry_equiv_pos_site_id
_symmetry_equiv_pos_as_xyz
1 x,y,z
2 -x,1/2+y,-z
_cell_length_a                   12.542(4)
_cell_length_b                   5.4450(17)
_cell_length_c                   15.507(4)
_cell_angle_alpha                90
_cell_angle_beta                 94.578(6)
_cell_angle_gamma                90
_cell_volume                     1055.61
_exptl_crystal_colour            colorless
_exptl_crystal_description       prismatic
_cell_formula_units_Z            2
loop_
_atom_site_label
_atom_site_type_symbol
_atom_site_fract_x
_atom_site_fract_y
_atom_site_fract_z
S1 S 0.43466(6) 0.01830(18) 0.70398(5)
N1 N 0.3702(2) 0.2137(7) 0.75805(19)
O1 O 0.1851(2) 0.4046(7) 0.65584(17)
O2 O 0.1100(2) 0.0504(7) 0.68890(16)
O3 O 0.4106(2) -0.2169(5) 0.73731(16)
O4 O 0.54130(19) 0.1036(6) 0.70771(15)
C1 C 0.2602(2) 0.1719(7) 0.77715(19)
H1 H 0.2525 -0.0009 0.7932
C2 C 0.2356(2) 0.3317(7) 0.85434(19)
H2 H 0.2570 0.4998 0.8412
C3 C 0.1159(3) 0.3372(7) 0.86484(19)
C4 C 0.0544(3) 0.5325(8) 0.8323(2)
H3 H 0.0864 0.6610 0.8043
C5 C -0.0539(3) 0.5364(9) 0.8412(2)
H4 H -0.0949 0.6675 0.8190
C6 C -0.1015(3) 0.3497(9) 0.8825(2)
H5 H -0.1747 0.3530 0.8884
C7 C -0.0404(3) 0.1567(9) 0.9153(2)
H6 H -0.0723 0.0290 0.9436
C8 C 0.0675(3) 0.1519(7) 0.9064(2)
H7 H 0.1082 0.0208 0.9290
C9 C 0.2981(2) 0.2584(7) 0.9386(2)
C10 C 0.2928(3) 0.4160(8) 1.0081(2)
H8 H 0.2552 0.5627 1.0008
C11 C 0.3427(3) 0.3582(9) 1.0884(2)
H9 H 0.3376 0.4654 1.1346
C12 C 0.3991(3) 0.1454(9) 1.1002(2)
H10 H 0.4320 0.1060 1.1543
C13 C 0.4068(3) -0.0107(9) 1.0311(2)
H11 H 0.4465 -0.1545 1.0384
C14 C 0.3560(3) 0.0448(8) 0.9509(2)
H12 H 0.3611 -0.0633 0.9050
C15 C 0.1821(3) 0.2259(8) 0.6998(2)
C16 C 0.0283(4) 0.0882(16) 0.6196(4)
H13 H 0.0604 0.1453 0.5692
H14 H -0.0219 0.2082 0.6369
H15 H -0.0083 -0.0639 0.6066
C17 C 0.3830(2) 0.0279(8) 0.59546(18)
C18 C 0.4118(3) 0.2179(8) 0.5439(2)
H16 H 0.4591 0.3383 0.5658
C19 C 0.3698(3) 0.2274(10) 0.4592(2)
H17 H 0.3880 0.3575 0.4244
C20 C 0.3021(3) 0.0507(11) 0.4252(2)
C21 C 0.2745(3) -0.1353(10) 0.4781(3)
H18 H 0.2277 -0.2559 0.4557
C22 C 0.3136(3) -0.1506(9) 0.5636(2)
H19 H 0.2935 -0.2784 0.5987
C23 C 0.2601(4) 0.0586(17) 0.3311(3)
H20 H 0.3130 -0.0064 0.2960
H21 H 0.2443 0.2254 0.3145
H22 H 0.1961 -0.0383 0.3231
H23 H 0.381(2) 0.343(7) 0.748(2)
loop_
_geom_bond_atom_site_label_1
_geom_bond_atom_site_label_2
_geom_bond_site_symmetry_1
_geom_bond_site_symmetry_2
S1 N1 1_555 1_555
N1 C1 1_555 1_555
O1 C15 1_555 1_555
O2 C15 1_555 1_555
O3 S1 1_555 1_555
O4 S1 1_555 1_555
C1 H1 1_555 1_555
C2 C1 1_555 1_555
H2 C2 1_555 1_555
C3 C2 1_555 1_555
C4 C3 1_555 1_555
H3 C4 1_555 1_555
C5 C4 1_555 1_555
H4 C5 1_555 1_555
C6 C5 1_555 1_555
H5 C6 1_555 1_555
C7 C6 1_555 1_555
H6 C7 1_555 1_555
C8 C3 1_555 1_555
H7 C8 1_555 1_555
C9 C2 1_555 1_555
C10 C9 1_555 1_555
H8 C10 1_555 1_555
C11 C10 1_555 1_555
H9 C11 1_555 1_555
C12 C11 1_555 1_555
H10 C12 1_555 1_555
C13 C12 1_555 1_555
H11 C13 1_555 1_555
C14 C9 1_555 1_555
H12 C14 1_555 1_555
C15 C1 1_555 1_555
C16 O2 1_555 1_555
H13 C16 1_555 1_555
H14 C16 1_555 1_555
H15 C16 1_555 1_555
C17 S1 1_555 1_555
C18 C17 1_555 1_555
H16 C18 1_555 1_555
C19 C18 1_555 1_555
H17 C19 1_555 1_555
C20 C19 1_555 1_555
C21 C20 1_555 1_555
H18 C21 1_555 1_555
C22 C17 1_555 1_555
H19 C22 1_555 1_555
C23 C20 1_555 1_555
H20 C23 1_555 1_555
H21 C23 1_555 1_555
H22 C23 1_555 1_555
H23 N1 1_555 1_555
C7 C8 1_555 1_555
C13 C14 1_555 1_555
C21 C22 1_555 1_555

#END
