
#######################################################################
#
#                 Cambridge Crystallographic Data Centre
#                                CCDC 
#
#######################################################################
#
# If this CIF has been generated from an entry in the Cambridge 
# Structural Database, then it will include bibliographic, chemical, 
# crystal, experimental, refinement or atomic coordinate data resulting 
# from the CCDC's data processing and validation procedures.
#
#######################################################################

data_DATNOD
_chemical_formula_moiety         'C22 H22 O6'
_chemical_name_systematic        
'Ethyl 2-(phenoxymethylene)-4-(3,4,5-trimethoxyphenyl)but-3-ynoate'
_symmetry_cell_setting           monoclinic
_symmetry_space_group_name_H-M   'C 2/c'
_symmetry_Int_Tables_number      15
_space_group_name_Hall           '-C 2yn'
loop_
_symmetry_equiv_pos_site_id
_symmetry_equiv_pos_as_xyz
1 x,y,z
2 -x,y,1/2-z
3 1/2+x,1/2+y,z
4 1/2-x,1/2+y,1/2-z
5 -x,-y,-z
6 x,-y,1/2+z
7 1/2-x,1/2-y,-z
8 1/2+x,1/2-y,1/2+z
_cell_length_a                   24.115(3)
_cell_length_b                   10.4602(11)
_cell_length_c                   15.5022(17)
_cell_angle_alpha                90
_cell_angle_beta                 95.746(2)
_cell_angle_gamma                90
_cell_volume                     3890.75
_exptl_crystal_colour            colorless
_exptl_crystal_description       block
_cell_formula_units_Z            8
loop_
_atom_site_label
_atom_site_type_symbol
_atom_site_fract_x
_atom_site_fract_y
_atom_site_fract_z
O1 O 0.04531(4) 0.51044(8) 0.15727(6)
O2 O 0.01710(4) 0.89906(9) 0.15098(6)
O3 O 0.09826(4) 0.92805(8) 0.23385(6)
O4 O 0.30525(4) 0.35573(8) 0.43022(6)
O5 O 0.37088(3) 0.55070(9) 0.47454(6)
O6 O 0.33834(3) 0.79506(8) 0.43747(6)
C1 C -0.05164(5) 0.45399(13) 0.11132(9)
H1 H -0.0650 0.5323 0.1323
C2 C -0.08825(5) 0.36309(13) 0.07293(9)
H2 H -0.1271 0.3803 0.0672
C3 C -0.06932(6) 0.24817(13) 0.04295(9)
H3 H -0.0948 0.1874 0.0163
C4 C -0.01254(6) 0.22268(12) 0.05226(9)
H4 H 0.0009 0.1432 0.0331
C5 C 0.02469(5) 0.31281(12) 0.08946(9)
H5 H 0.0636 0.2959 0.0952
C6 C 0.00476(5) 0.42742(11) 0.11808(8)
C7 C 0.03578(5) 0.63693(11) 0.15553(8)
H6 H 0.0034 0.6696 0.1230
C8 C 0.07166(5) 0.71772(11) 0.19935(8)
C9 C 0.05861(5) 0.85664(11) 0.19127(8)
C10 C 0.08855(6) 1.06508(12) 0.22991(9)
H7 H 0.0553 1.0871 0.2595
H8 H 0.0821 1.0934 0.1688
C11 C 0.13928(6) 1.12992(13) 0.27410(9)
H9 H 0.1428 1.1091 0.3360
H10 H 0.1356 1.2227 0.2666
H11 H 0.1725 1.1002 0.2484
C12 C 0.12076(5) 0.67625(11) 0.25033(8)
C13 C 0.16246(5) 0.64455(11) 0.29367(8)
C14 C 0.21484(5) 0.61920(11) 0.34305(8)
C15 C 0.23271(5) 0.49410(11) 0.36134(8)
H12 H 0.2099 0.4237 0.3419
C16 C 0.28427(5) 0.47351(11) 0.40829(8)
C17 C 0.31868(5) 0.57670(11) 0.43562(7)
C18 C 0.30065(5) 0.70127(11) 0.41471(8)
C19 C 0.24858(5) 0.72273(11) 0.37029(8)
H13 H 0.2360 0.8076 0.3585
C20 C 0.27460(6) 0.24850(12) 0.39458(10)
H14 H 0.2380 0.2463 0.4168
H15 H 0.2949 0.1698 0.4112
H16 H 0.2698 0.2556 0.3312
C21 C 0.38564(6) 0.60714(14) 0.55782(9)
H17 H 0.3932 0.6984 0.5508
H18 H 0.4190 0.5650 0.5858
H19 H 0.3548 0.5966 0.5939
C22 C 0.32215(6) 0.92318(12) 0.41644(10)
H20 H 0.3124 0.9305 0.3537
H21 H 0.3531 0.9811 0.4344
H22 H 0.2898 0.9461 0.4468
loop_
_geom_bond_atom_site_label_1
_geom_bond_atom_site_label_2
_geom_bond_site_symmetry_1
_geom_bond_site_symmetry_2
O1 C6 1_555 1_555
O2 C9 1_555 1_555
O3 C9 1_555 1_555
O4 C16 1_555 1_555
O5 C17 1_555 1_555
O6 C18 1_555 1_555
C1 H1 1_555 1_555
C2 C1 1_555 1_555
H2 C2 1_555 1_555
C3 C2 1_555 1_555
H3 C3 1_555 1_555
C4 C3 1_555 1_555
H4 C4 1_555 1_555
C5 C4 1_555 1_555
H5 C5 1_555 1_555
C6 C1 1_555 1_555
C7 O1 1_555 1_555
H6 C7 1_555 1_555
C8 C7 1_555 1_555
C9 C8 1_555 1_555
C10 O3 1_555 1_555
H7 C10 1_555 1_555
H8 C10 1_555 1_555
C11 C10 1_555 1_555
H9 C11 1_555 1_555
H10 C11 1_555 1_555
H11 C11 1_555 1_555
C12 C8 1_555 1_555
C13 C12 1_555 1_555
C14 C13 1_555 1_555
C15 C14 1_555 1_555
H12 C15 1_555 1_555
C16 C15 1_555 1_555
C17 C16 1_555 1_555
C18 C17 1_555 1_555
C19 C14 1_555 1_555
H13 C19 1_555 1_555
C20 O4 1_555 1_555
H14 C20 1_555 1_555
H15 C20 1_555 1_555
H16 C20 1_555 1_555
C21 O5 1_555 1_555
H17 C21 1_555 1_555
H18 C21 1_555 1_555
H19 C21 1_555 1_555
C22 O6 1_555 1_555
H20 C22 1_555 1_555
H21 C22 1_555 1_555
H22 C22 1_555 1_555
C5 C6 1_555 1_555
C18 C19 1_555 1_555

#END
