
#######################################################################
#
#                 Cambridge Crystallographic Data Centre
#                                CCDC 
#
#######################################################################
#
# If this CIF has been generated from an entry in the Cambridge 
# Structural Database, then it will include bibliographic, chemical, 
# crystal, experimental, refinement or atomic coordinate data resulting 
# from the CCDC's data processing and validation procedures.
#
#######################################################################

data_DATROH
_chemical_formula_moiety         'C14 H17 Cl1 N4 O2 S1'
_chemical_name_systematic        
'Methyl 2-chloro-4-(diethylamino)-8-(methylsulfanyl)pyrido[3,2-d]pyrimidine-6-carboxylate'
_symmetry_cell_setting           monoclinic
_symmetry_space_group_name_H-M   'P 21/c'
_symmetry_Int_Tables_number      14
_space_group_name_Hall           '-P 2ybc'
loop_
_symmetry_equiv_pos_site_id
_symmetry_equiv_pos_as_xyz
1 x,y,z
2 -x,1/2+y,1/2-z
3 -x,-y,-z
4 x,1/2-y,1/2+z
_cell_length_a                   10.7148(6)
_cell_length_b                   20.2974(8)
_cell_length_c                   7.5927(4)
_cell_angle_alpha                90
_cell_angle_beta                 104.928(7)
_cell_angle_gamma                90
_cell_volume                     1595.55
_exptl_crystal_colour            colorless
_exptl_crystal_description       needle
_cell_formula_units_Z            4
loop_
_atom_site_label
_atom_site_type_symbol
_atom_site_fract_x
_atom_site_fract_y
_atom_site_fract_z
Cl1 Cl -0.15375(7) 0.60662(4) 0.72438(12)
S1 S 0.00337(7) 0.84681(3) 0.71422(11)
O1 O 0.49061(19) 0.86159(9) 0.6239(4)
O2 O 0.55446(19) 0.75682(10) 0.6192(4)
N1 N 0.08309(19) 0.59472(10) 0.7049(4)
N2 N -0.00175(19) 0.70421(10) 0.7061(4)
N3 N 0.33220(19) 0.71163(10) 0.6575(4)
N4 N 0.2874(2) 0.57053(10) 0.6842(4)
C1 C 0.2186(3) 0.68754(12) 0.6773(4)
C2 C 0.1987(3) 0.61656(11) 0.6892(4)
C3 C -0.0056(3) 0.64019(11) 0.7096(4)
C4 C 0.1145(3) 0.72807(12) 0.6901(4)
C5 C 0.1310(3) 0.79809(12) 0.6836(4)
C6 C 0.2456(3) 0.82125(11) 0.6585(4)
C7 C 0.3431(3) 0.77631(12) 0.6470(4)
C8 C 0.4282(3) 0.58185(16) 0.7044(6)
C9 C 0.4563(4) 0.58785(17) 0.5199(6)
C10 C 0.2553(3) 0.50048(12) 0.6976(5)
C11 C 0.2773(3) 0.47863(15) 0.8923(5)
C12 C 0.0660(3) 0.92892(13) 0.7028(5)
C13 C 0.4696(3) 0.80350(13) 0.6286(5)
C14 C 0.6802(3) 0.77977(17) 0.6068(7)
H1 H 0.25916 0.86872 0.64800
H2 H 0.45416 0.62288 0.77326
H3 H 0.47745 0.54503 0.77143
H4 H 0.43064 0.54699 0.45196
H5 H 0.40734 0.62484 0.45379
H6 H 0.54887 0.59540 0.53395
H7 H 0.16393 0.49369 0.63435
H8 H 0.30920 0.47379 0.63862
H9 H 0.36835 0.48534 0.95541
H10 H 0.22308 0.50523 0.95114
H11 H 0.25566 0.43201 0.90117
H12 H 0.14491 0.93631 0.80009
H13 H 0.08353 0.93724 0.58436
H14 H -0.00542 0.95613 0.72000
H15 H 0.66737 0.80701 0.49721
H16 H 0.71721 0.80655 0.71483
H17 H 0.74286 0.74524 0.59989
C15? C 0.3792(13) 0.5797(7) 0.5613(16)
C16? C 0.5156(15) 0.5762(10) 0.676(3)
H18? H 0.36542 0.54480 0.47016
H19? H 0.36431 0.62273 0.50167
H20? H 0.53024 0.61146 0.76928
H21? H 0.53135 0.53353 0.73778
H22? H 0.57496 0.58243 0.59915
loop_
_geom_bond_atom_site_label_1
_geom_bond_atom_site_label_2
_geom_bond_site_symmetry_1
_geom_bond_site_symmetry_2
Cl1 C3 1_555 1_555
S1 C5 1_555 1_555
O1 C13 1_555 1_555
O2 C13 1_555 1_555
N1 C2 1_555 1_555
N2 C3 1_555 1_555
N3 C1 1_555 1_555
N4 C2 1_555 1_555
C1 C2 1_555 1_555
C3 N1 1_555 1_555
C4 N2 1_555 1_555
C5 C4 1_555 1_555
C6 C5 1_555 1_555
C7 N3 1_555 1_555
C8 N4 1_555 1_555
C9 C8 1_555 1_555
C10 N4 1_555 1_555
C11 C10 1_555 1_555
C12 S1 1_555 1_555
C13 C7 1_555 1_555
C14 O2 1_555 1_555
H1 C6 1_555 1_555
H2 C8 1_555 1_555
H3 C8 1_555 1_555
H4 C9 1_555 1_555
H5 C9 1_555 1_555
H6 C9 1_555 1_555
H7 C10 1_555 1_555
H8 C10 1_555 1_555
H9 C11 1_555 1_555
H10 C11 1_555 1_555
H11 C11 1_555 1_555
H12 C12 1_555 1_555
H13 C12 1_555 1_555
H14 C12 1_555 1_555
H15 C14 1_555 1_555
H16 C14 1_555 1_555
H17 C14 1_555 1_555
C1 C4 1_555 1_555
C6 C7 1_555 1_555

#END
