
#######################################################################
#
#                 Cambridge Crystallographic Data Centre
#                                CCDC 
#
#######################################################################
#
# If this CIF has been generated from an entry in the Cambridge 
# Structural Database, then it will include bibliographic, chemical, 
# crystal, experimental, refinement or atomic coordinate data resulting 
# from the CCDC's data processing and validation procedures.
#
#######################################################################

data_DATXOM
_chemical_formula_moiety         'C72 H29 Cl1 O9,C1 S2'
_chemical_name_systematic        
'1-Chloro-2,4-dihydroxy-11,15,30-tri-t-butylperoxy-oxa^3,4^-1,2,4,11,15,30-hexahydroC60fullerene carbon disulfide solvate'
_symmetry_cell_setting           monoclinic
_symmetry_space_group_name_H-M   'P 21/c'
_symmetry_Int_Tables_number      14
_space_group_name_Hall           '-P 2ybc'
loop_
_symmetry_equiv_pos_site_id
_symmetry_equiv_pos_as_xyz
1 x,y,z
2 -x,1/2+y,1/2-z
3 -x,-y,-z
4 x,1/2-y,1/2+z
_cell_length_a                   23.405(5)
_cell_length_b                   10.614(2)
_cell_length_c                   19.767(4)
_cell_angle_alpha                90
_cell_angle_beta                 91.00(3)
_cell_angle_gamma                90
_cell_volume                     4909.78
_exptl_crystal_colour            red
_exptl_crystal_description       block
_cell_formula_units_Z            4
_exptl_crystal_recrystallization_method 'carbon disulfide/n-pentane'
loop_
_atom_site_label
_atom_site_type_symbol
_atom_site_fract_x
_atom_site_fract_y
_atom_site_fract_z
Cl1 Cl 0.30720(6) 0.75132(11) 0.27600(6)
O1 O 0.35237(10) 0.4235(3) 0.19300(12)
O2 O 0.32657(12) 0.4482(3) 0.08419(12)
H1 H 0.3452 0.3758 0.0629
O3 O 0.37783(11) 0.5589(3) 0.32339(15)
H2 H 0.3698(16) 0.606(4) 0.369(2)
O4 O 0.34737(10) 0.1410(2) 0.43544(11)
O5 O 0.36082(10) 0.2348(2) 0.48892(11)
O6 O 0.30306(11) 0.5170(2) 0.48281(12)
O7 O 0.33397(12) 0.6237(3) 0.45442(13)
O8 O 0.37023(11) 0.0969(3) 0.22238(12)
O9 O 0.39930(14) 0.0521(4) 0.28382(14)
C1 C 0.30583(16) 0.4107(4) 0.14676(18)
C2 C 0.25435(17) 0.4944(4) 0.16282(18)
C3 C 0.24309(17) 0.5702(4) 0.21721(18)
C4 C 0.27660(17) 0.5942(3) 0.28433(18)
C5 C 0.32518(15) 0.4988(4) 0.30855(18)
C6 C 0.33699(15) 0.3959(4) 0.25773(18)
C7 C 0.30654(14) 0.4188(3) 0.36828(17)
C8 C 0.27192(15) 0.4636(3) 0.42641(17)
C9 C 0.22493(16) 0.5488(4) 0.39690(18)
C10 C 0.22750(17) 0.6031(3) 0.33473(19)
C11 C 0.17483(19) 0.6274(4) 0.2980(2)
C12 C 0.18422(18) 0.6071(4) 0.22718(19)
C13 C 0.14028(19) 0.5678(4) 0.1868(2)
C14 C 0.15156(19) 0.4768(5) 0.13316(18)
C15 C 0.20737(17) 0.4402(4) 0.12440(17)
C16 C 0.22048(18) 0.3099(4) 0.11220(16)
C17 C 0.27604(17) 0.2830(4) 0.14306(17)
C18 C 0.28266(16) 0.1757(4) 0.18101(17)
C19 C 0.32046(16) 0.1582(4) 0.24538(17)
C20 C 0.32881(14) 0.2809(4) 0.28273(17)
C21 C 0.31266(14) 0.2976(3) 0.35359(16)
C22 C 0.29824(15) 0.1913(3) 0.39916(17)
C23 C 0.24869(15) 0.2322(4) 0.44298(16)
C24 C 0.23589(15) 0.3552(4) 0.45411(16)
C25 C 0.17748(17) 0.3935(4) 0.45844(17)
C26 C 0.17109(17) 0.5134(4) 0.42437(18)
C27 C 0.11999(19) 0.5422(5) 0.39097(19)
C28 C 0.12194(19) 0.6022(4) 0.3256(2)
C29 C 0.07665(18) 0.5517(5) 0.2839(2)
C30 C 0.08546(18) 0.5351(5) 0.2147(2)
C31 C 0.06405(19) 0.4215(6) 0.1815(2)
C32 C 0.10584(19) 0.3869(5) 0.13133(19)
C33 C 0.11832(19) 0.2609(5) 0.12080(19)
C34 C 0.1767(2) 0.2229(5) 0.11208(17)
C35 C 0.18512(19) 0.1046(4) 0.14637(19)
C36 C 0.23683(18) 0.0850(4) 0.18148(18)
C37 C 0.23585(19) 0.0234(4) 0.24680(19)
C38 C 0.28097(16) 0.0731(3) 0.28828(18)
C39 C 0.27214(16) 0.0869(3) 0.35621(17)
C40 C 0.21765(18) 0.0518(4) 0.38459(19)
C41 C 0.20348(17) 0.1414(4) 0.43667(17)
C42 C 0.14662(18) 0.1771(5) 0.44534(19)
C43 C 0.13317(18) 0.3070(5) 0.45601(18)
C44 C 0.08094(17) 0.3360(5) 0.4203(2)
C45 C 0.07434(18) 0.4510(5) 0.3880(2)
C46 C 0.04729(18) 0.4586(6) 0.3216(2)
C47 C 0.02797(17) 0.3502(6) 0.2901(2)
C48 C 0.03654(18) 0.3326(6) 0.2192(2)
C49 C 0.04912(19) 0.2015(6) 0.2085(2)
C50 C 0.0891(2) 0.1677(5) 0.1599(2)
C51 C 0.1315(2) 0.0676(5) 0.1752(2)
C52 C 0.1305(2) 0.0072(5) 0.2386(2)
C53 C 0.1842(2) -0.0161(4) 0.2733(2)
C54 C 0.1741(2) -0.0018(4) 0.3445(2)
C55 C 0.11545(19) 0.0375(5) 0.3539(2)
C56 C 0.10213(19) 0.1236(5) 0.4024(2)
C57 C 0.06132(18) 0.2234(6) 0.3869(2)
C58 C 0.03482(18) 0.2284(6) 0.3223(2)
C59 C 0.04914(19) 0.1391(6) 0.2731(3)
C60 C 0.0877(2) 0.0425(5) 0.2869(2)
C61 C 0.42266(16) 0.2544(4) 0.49220(18)
C62 C 0.45309(17) 0.1323(4) 0.5070(2)
H3 H 0.4370 0.0936 0.5462
H4 H 0.4930 0.1486 0.5152
H5 H 0.4488 0.0768 0.4689
C63 C 0.44235(17) 0.3155(5) 0.4286(2)
H6 H 0.4345 0.2608 0.3909
H7 H 0.4827 0.3312 0.4321
H8 H 0.4225 0.3938 0.4221
C64 C 0.42701(19) 0.3447(5) 0.5509(2)
H9 H 0.4059 0.4200 0.5403
H10 H 0.4664 0.3657 0.5593
H11 H 0.4115 0.3060 0.5904
C65 C 0.3287(2) 0.7317(4) 0.5007(2)
C66 C 0.3545(3) 0.6967(5) 0.5689(2)
H12 H 0.3305 0.6360 0.5905
H13 H 0.3576 0.7707 0.5966
H14 H 0.3918 0.6614 0.5627
C67 C 0.3654(2) 0.8250(5) 0.4650(3)
H15 H 0.4016 0.7871 0.4552
H16 H 0.3714 0.8975 0.4933
H17 H 0.3469 0.8504 0.4235
C68 C 0.2676(2) 0.7727(5) 0.5041(3)
H18 H 0.2521 0.7817 0.4591
H19 H 0.2655 0.8521 0.5272
H20 H 0.2460 0.7108 0.5281
C69 C 0.45389(19) 0.0076(5) 0.2659(2)
C70 C 0.4870(3) 0.1225(8) 0.2468(4)
H21 H 0.4622 0.1945 0.2466
H22 H 0.5025 0.1113 0.2025
H23 H 0.5176 0.1355 0.2790
C71 C 0.4550(3) -0.0729(7) 0.2057(3)
H24 H 0.4332 -0.1480 0.2138
H25 H 0.4938 -0.0953 0.1962
H26 H 0.4387 -0.0283 0.1678
C72 C 0.4785(3) -0.0441(8) 0.3290(2)
H27 H 0.4870 0.0234 0.3599
H28 H 0.5130 -0.0890 0.3193
H29 H 0.4516 -0.1007 0.3491
S1 S 0.09316(10) 0.8306(3) 0.06821(10)
S2 S 0.03275(11) 0.6785(3) -0.03883(13)
C73 C 0.0655(3) 0.7517(7) 0.0153(3)
loop_
_geom_bond_atom_site_label_1
_geom_bond_atom_site_label_2
_geom_bond_site_symmetry_1
_geom_bond_site_symmetry_2
Cl1 C4 1_555 1_555
O1 C1 1_555 1_555
O2 H1 1_555 1_555
O3 H2 1_555 1_555
O4 O5 1_555 1_555
O5 C61 1_555 1_555
O6 O7 1_555 1_555
O7 C65 1_555 1_555
O8 O9 1_555 1_555
O9 C69 1_555 1_555
C1 O2 1_555 1_555
C2 C1 1_555 1_555
C3 C2 1_555 1_555
C4 C3 1_555 1_555
C5 O3 1_555 1_555
C6 O1 1_555 1_555
C7 C5 1_555 1_555
C8 O6 1_555 1_555
C9 C8 1_555 1_555
C10 C4 1_555 1_555
C11 C10 1_555 1_555
C12 C3 1_555 1_555
C13 C12 1_555 1_555
C14 C13 1_555 1_555
C15 C2 1_555 1_555
C16 C15 1_555 1_555
C17 C1 1_555 1_555
C18 C17 1_555 1_555
C19 O8 1_555 1_555
C20 C6 1_555 1_555
C21 C7 1_555 1_555
C22 O4 1_555 1_555
C23 C22 1_555 1_555
C24 C8 1_555 1_555
C25 C24 1_555 1_555
C26 C9 1_555 1_555
C27 C26 1_555 1_555
C28 C11 1_555 1_555
C29 C28 1_555 1_555
C30 C13 1_555 1_555
C31 C30 1_555 1_555
C32 C14 1_555 1_555
C33 C32 1_555 1_555
C34 C16 1_555 1_555
C35 C34 1_555 1_555
C36 C18 1_555 1_555
C37 C36 1_555 1_555
C38 C19 1_555 1_555
C39 C22 1_555 1_555
C40 C39 1_555 1_555
C41 C23 1_555 1_555
C42 C41 1_555 1_555
C43 C25 1_555 1_555
C44 C43 1_555 1_555
C45 C27 1_555 1_555
C46 C29 1_555 1_555
C47 C46 1_555 1_555
C48 C31 1_555 1_555
C49 C48 1_555 1_555
C50 C33 1_555 1_555
C51 C35 1_555 1_555
C52 C51 1_555 1_555
C53 C37 1_555 1_555
C54 C40 1_555 1_555
C55 C54 1_555 1_555
C56 C42 1_555 1_555
C57 C44 1_555 1_555
C58 C47 1_555 1_555
C59 C49 1_555 1_555
C60 C52 1_555 1_555
C61 C62 1_555 1_555
C62 H3 1_555 1_555
H4 C62 1_555 1_555
H5 C62 1_555 1_555
C63 C61 1_555 1_555
H6 C63 1_555 1_555
H7 C63 1_555 1_555
H8 C63 1_555 1_555
C64 C61 1_555 1_555
H9 C64 1_555 1_555
H10 C64 1_555 1_555
H11 C64 1_555 1_555
C65 C66 1_555 1_555
C66 H12 1_555 1_555
H13 C66 1_555 1_555
H14 C66 1_555 1_555
C67 C65 1_555 1_555
H15 C67 1_555 1_555
H16 C67 1_555 1_555
H17 C67 1_555 1_555
C68 C65 1_555 1_555
H18 C68 1_555 1_555
H19 C68 1_555 1_555
H20 C68 1_555 1_555
C69 C70 1_555 1_555
C70 H21 1_555 1_555
H22 C70 1_555 1_555
H23 C70 1_555 1_555
C71 C69 1_555 1_555
H24 C71 1_555 1_555
H25 C71 1_555 1_555
H26 C71 1_555 1_555
C72 C69 1_555 1_555
H27 C72 1_555 1_555
H28 C72 1_555 1_555
H29 C72 1_555 1_555
S1 C73 1_555 1_555
S2 C73 1_555 1_555
C4 C5 1_555 1_555
C5 C6 1_555 1_555
C7 C8 1_555 1_555
C9 C10 1_555 1_555
C11 C12 1_555 1_555
C14 C15 1_555 1_555
C16 C17 1_555 1_555
C18 C19 1_555 1_555
C19 C20 1_555 1_555
C20 C21 1_555 1_555
C21 C22 1_555 1_555
C23 C24 1_555 1_555
C25 C26 1_555 1_555
C27 C28 1_555 1_555
C29 C30 1_555 1_555
C31 C32 1_555 1_555
C33 C34 1_555 1_555
C35 C36 1_555 1_555
C37 C38 1_555 1_555
C38 C39 1_555 1_555
C40 C41 1_555 1_555
C42 C43 1_555 1_555
C44 C45 1_555 1_555
C45 C46 1_555 1_555
C47 C48 1_555 1_555
C49 C50 1_555 1_555
C50 C51 1_555 1_555
C52 C53 1_555 1_555
C53 C54 1_555 1_555
C55 C56 1_555 1_555
C55 C60 1_555 1_555
C56 C57 1_555 1_555
C57 C58 1_555 1_555
C58 C59 1_555 1_555
C59 C60 1_555 1_555

#END
