
#######################################################################
#
#                 Cambridge Crystallographic Data Centre
#                                CCDC 
#
#######################################################################
#
# If this CIF has been generated from an entry in the Cambridge 
# Structural Database, then it will include bibliographic, chemical, 
# crystal, experimental, refinement or atomic coordinate data resulting 
# from the CCDC's data processing and validation procedures.
#
#######################################################################

data_DAVFIQ
_chemical_formula_moiety         'C28 H32 O8 Si6'
_chemical_name_systematic        
anti-1,3,7,9-Tetramethyl-5,5,11,11-tetraphenyltricyclo(7.3.1.1^3,7^)hexasiloxane
_symmetry_cell_setting           orthorhombic
_symmetry_space_group_name_H-M   'P n n 2'
_symmetry_Int_Tables_number      34
_space_group_name_Hall           'P 2 -2n'
loop_
_symmetry_equiv_pos_site_id
_symmetry_equiv_pos_as_xyz
1 x,y,z
2 1/2-x,1/2+y,1/2+z
3 1/2+x,1/2-y,1/2+z
4 -x,-y,z
_cell_length_a                   9.115(12)
_cell_length_b                   18.68(3)
_cell_length_c                   9.74(2)
_cell_angle_alpha                90
_cell_angle_beta                 90
_cell_angle_gamma                90
_cell_volume                     1658.41
_exptl_crystal_colour            colorless
_exptl_crystal_description       prism
_chemical_melting_point          '193-194 deg.C'
_cell_formula_units_Z            2
loop_
_atom_site_label
_atom_site_type_symbol
_atom_site_fract_x
_atom_site_fract_y
_atom_site_fract_z
Si1 Si 0.88919(9) 0.06125(5) 0.99135(6)
Si2 Si 1.02724(4) 0.18256(3) 1.1444(2)
Si3 Si 0.89011(9) 0.06136(5) 1.29796(7)
O1 O 0.9805(3) 0.1361(2) 1.0074(3)
O2 O 0.9798(2) 0.1347(2) 1.2780(3)
O3 O 1.0000 0.0000 0.9333(5)
O4 O 1.0000 0.0000 1.3534(5)
O5 O 0.83236(13) 0.03820(7) 1.1464(4)
C1 C 1.2294(2) 0.19486(10) 1.1444(6)
C2 C 1.3223(2) 0.13612(12) 1.1413(7)
C3 C 1.4750(2) 0.1455(2) 1.1434(8)
C4 C 1.5333(2) 0.2138(2) 1.1469(9)
C5 C 1.4429(3) 0.2720(2) 1.1424(9)
C6 C 1.2909(2) 0.26362(12) 1.1450(7)
C7 C 0.9257(2) 0.26860(10) 1.1466(6)
C8 C 0.8840(4) 0.3015(3) 1.2679(5)
C9 C 0.8004(5) 0.3648(3) 1.2661(5)
C10 C 0.7640(2) 0.39618(11) 1.1443(7)
C11 C 0.8065(5) 0.3642(3) 1.0204(5)
C12 C 0.8846(5) 0.3014(3) 1.0217(6)
C13 C 0.7362(5) 0.0707(3) 0.8745(5)
C14 C 0.7360(4) 0.0715(3) 1.4202(5)
Si1C Si 1.11081(9) -0.06125(5) 0.99135(6)
Si2C Si 0.97276(4) -0.18256(3) 1.1444(2)
Si3C Si 1.10989(9) -0.06136(5) 1.29796(7)
O1C O 1.0195(3) -0.1361(2) 1.0074(3)
O2C O 1.0202(2) -0.1347(2) 1.2780(3)
O5C O 1.16764(13) -0.03820(7) 1.1464(4)
C1C C 0.7706(2) -0.19486(10) 1.1444(6)
C2C C 0.6777(2) -0.13612(12) 1.1413(7)
C3C C 0.5250(2) -0.1455(2) 1.1434(8)
C4C C 0.4667(2) -0.2138(2) 1.1469(9)
C5C C 0.5571(3) -0.2720(2) 1.1424(9)
C6C C 0.7091(2) -0.26362(12) 1.1450(7)
C7C C 1.0743(2) -0.26860(10) 1.1466(6)
C8C C 1.1160(4) -0.3015(3) 1.2679(5)
C9C C 1.1996(5) -0.3648(3) 1.2661(5)
C10C C 1.2360(2) -0.39618(11) 1.1443(7)
C11C C 1.1935(5) -0.3642(3) 1.0204(5)
C12C C 1.1154(5) -0.3014(3) 1.0217(6)
C13C C 1.2638(5) -0.0707(3) 0.8745(5)
C14C C 1.2640(4) -0.0715(3) 1.4202(5)
loop_
_geom_bond_atom_site_label_1
_geom_bond_atom_site_label_2
_geom_bond_site_symmetry_1
_geom_bond_site_symmetry_2
Si1 O1 1_555 1_555
Si2 O1 1_555 1_555
Si3 O2 1_555 1_555
O2 Si2 1_555 1_555
O3 Si1 1_555 1_555
O4 Si3 1_555 1_555
O5 Si1 1_555 1_555
C1 Si2 1_555 1_555
C2 C1 1_555 1_555
C3 C2 1_555 1_555
C4 C3 1_555 1_555
C5 C4 1_555 1_555
C6 C1 1_555 1_555
C7 Si2 1_555 1_555
C8 C7 1_555 1_555
C9 C8 1_555 1_555
C10 C9 1_555 1_555
C11 C10 1_555 1_555
C12 C7 1_555 1_555
C13 Si1 1_555 1_555
C14 Si3 1_555 1_555
Si1C O3 1_555 1_555
Si2C O1C 1_555 1_555
Si3C O4 1_555 1_555
O1C Si1C 1_555 1_555
O2C Si2C 1_555 1_555
O5C Si1C 1_555 1_555
C1C Si2C 1_555 1_555
C2C C1C 1_555 1_555
C3C C2C 1_555 1_555
C4C C3C 1_555 1_555
C5C C4C 1_555 1_555
C6C C1C 1_555 1_555
C7C Si2C 1_555 1_555
C8C C7C 1_555 1_555
C9C C8C 1_555 1_555
C10C C9C 1_555 1_555
C11C C10C 1_555 1_555
C12C C7C 1_555 1_555
C13C Si1C 1_555 1_555
C14C Si3C 1_555 1_555
Si3 O5 1_555 1_555
C5 C6 1_555 1_555
C11 C12 1_555 1_555
Si3C O2C 1_555 1_555
Si3C O5C 1_555 1_555
C5C C6C 1_555 1_555
C11C C12C 1_555 1_555

#END
