
#######################################################################
#
#                 Cambridge Crystallographic Data Centre
#                                CCDC 
#
#######################################################################
#
# If this CIF has been generated from an entry in the Cambridge 
# Structural Database, then it will include bibliographic, chemical, 
# crystal, experimental, refinement or atomic coordinate data resulting 
# from the CCDC's data processing and validation procedures.
#
#######################################################################

data_DAWCOW
_chemical_name_common            
'isopropyl 2-hydroxy-4-(2-naphthyl)-2-(1H-pyrrol-2-yl)but-3-enoate'
_chemical_formula_moiety         'C21 H21 N1 O3'
_chemical_name_systematic        
'(R,E)-isopropyl 2-hydroxy-4-(naphthalen-2-yl)-2-(1H-pyrrol-2-yl)but-3-enoate'
_symmetry_cell_setting           monoclinic
_symmetry_space_group_name_H-M   'P 21'
_symmetry_Int_Tables_number      4
_space_group_name_Hall           'P 2yb'
loop_
_symmetry_equiv_pos_site_id
_symmetry_equiv_pos_as_xyz
1 x,y,z
2 -x,1/2+y,-z
_cell_length_a                   11.68820(10)
_cell_length_b                   7.93580(10)
_cell_length_c                   20.2157(2)
_cell_angle_alpha                90
_cell_angle_beta                 105.2310(10)
_cell_angle_gamma                90
_cell_volume                     1809.25
_exptl_crystal_colour            brown
_exptl_crystal_description       block
_chemical_melting_point          '419.15 K'
_cell_formula_units_Z            4
_exptl_crystal_recrystallization_method 'ethyl acetate /Petroleum ether'
loop_
_atom_site_label
_atom_site_type_symbol
_atom_site_fract_x
_atom_site_fract_y
_atom_site_fract_z
O1 O 0.49428(12) 0.7621(2) 0.78812(7)
H1 H 0.5119 0.6803 0.8136
O2 O 0.20912(12) 0.5740(2) 0.72491(8)
O3 O 0.37426(14) 0.4839(2) 0.80016(9)
N1 N 0.36133(18) 1.0328(3) 0.82860(10)
H2 H 0.4201 1.0779 0.8170
C1 C 0.31893(17) 0.5930(3) 0.76419(10)
C2 C 0.32730(17) 1.0289(3) 0.44325(10)
C3 C 0.36879(16) 0.7711(3) 0.76238(9)
C4 C 0.38718(17) 0.9314(3) 0.58306(10)
C5 C 0.43529(17) 0.9423(3) 0.47268(10)
C6 C 0.31571(17) 0.8784(3) 0.80869(9)
C7 C 0.46297(17) 0.8981(3) 0.54296(10)
H3 H 0.5348 0.8450 0.5626
C8 C 0.28066(17) 1.0192(3) 0.55291(10)
H4 H 0.2292 1.0454 0.5795
C9 C 0.33916(17) 0.8409(3) 0.69026(9)
H5 H 0.2600 0.8653 0.6695
C10 C 0.25211(18) 1.0658(3) 0.48595(11)
H6 H 0.1815 1.1233 0.4677
C11 C 0.41620(18) 0.8699(3) 0.65442(10)
H7 H 0.4957 0.8500 0.6759
C12 C 0.1498(2) 0.4118(3) 0.72947(12)
H8 H 0.1659 0.3780 0.7777
C13 C 0.2998(2) 1.0738(3) 0.37310(11)
H9 H 0.2300 1.1320 0.3536
C14 C 0.4793(2) 0.9462(4) 0.36230(12)
H10 H 0.5292 0.9186 0.3349
C15 C 0.5102(2) 0.9015(3) 0.43010(11)
H11 H 0.5807 0.8439 0.4483
C16 C 0.3737(2) 1.0330(4) 0.33383(11)
H12 H 0.3541 1.0631 0.2877
C17 C 0.3001(3) 1.1057(4) 0.86964(13)
H13 H 0.3148 1.2114 0.8900
C18 C 0.2239(2) 0.8536(4) 0.83746(13)
H14 H 0.1761 0.7583 0.8327
C19 C 0.2149(3) 0.9988(4) 0.87570(14)
H15 H 0.1596 1.0172 0.9007
C20 C 0.1939(3) 0.2774(4) 0.68998(16)
H16 H 0.1726 0.3059 0.6421
H17 H 0.1586 0.1713 0.6963
H18 H 0.2786 0.2690 0.7063
C21 C 0.0192(2) 0.4462(4) 0.70170(18)
H19 H -0.0044 0.5333 0.7283
H20 H -0.0248 0.3453 0.7043
H21 H 0.0035 0.4818 0.6548
O4 O 0.55754(12) 0.2499(2) 0.81409(8)
H22 H 0.5264 0.3330 0.8260
O5 O 0.83816(14) 0.3975(2) 0.91355(9)
O6 O 0.66484(17) 0.5283(3) 0.87308(11)
N2 N 0.6476(2) -0.0443(3) 0.91449(10)
H23 H 0.6463 -0.1034 0.8786
C22 C 0.81959(18) 0.0402(3) 0.59246(10)
C23 C 0.72353(19) 0.4024(3) 0.88250(11)
C24 C 0.67308(18) 0.2279(3) 0.85859(10)
C25 C 0.75284(19) 0.0919(3) 0.63777(11)
H24 H 0.6814 0.1479 0.6201
C26 C 0.78959(18) 0.0625(3) 0.70688(11)
C27 C 0.92678(18) -0.0508(3) 0.61915(11)
C28 C 0.7177(2) 0.1278(3) 0.75098(11)
H25 H 0.6404 0.1595 0.7291
C29 C 0.8983(2) -0.0250(3) 0.73294(11)
H26 H 0.9253 -0.0451 0.7798
C30 C 0.6663(2) 0.1246(3) 0.92005(11)
C31 C 0.75060(19) 0.1466(3) 0.81810(11)
H27 H 0.8252 0.1079 0.8418
C32 C 0.96329(19) -0.0796(3) 0.69054(12)
H28 H 1.0337 -0.1374 0.7090
C33 C 0.7842(2) 0.0759(4) 0.52145(12)
H29 H 0.7147 0.1363 0.5035
C34 C 0.99125(19) -0.1046(4) 0.57326(13)
H30 H 1.0607 -0.1658 0.5900
C35 C 0.8499(2) 0.0235(4) 0.47914(13)
H31 H 0.8257 0.0492 0.4327
C36 C 0.9547(2) -0.0697(4) 0.50534(14)
H32 H 0.9987 -0.1072 0.4760
C37 C 0.9006(3) 0.5570(4) 0.93305(15)
H33 H 0.8499 0.6337 0.9507
C38 C 0.6629(3) 0.1701(4) 0.98411(13)
H34 H 0.6732 0.2783 1.0024
C39 C 0.6314(3) -0.1058(4) 0.97407(15)
H35 H 0.6165 -0.2175 0.9829
C40 C 0.6409(3) 0.0238(5) 1.01788(15)
H36 H 0.6341 0.0178 1.0626
C41 C 1.0088(3) 0.5151(6) 0.9896(2)
H37 H 1.0613 0.4463 0.9718
H38 H 0.9856 0.4550 1.0252
H39 H 1.0486 0.6174 1.0080
C42 C 0.9265(6) 0.6328(8) 0.8717(2)
H40 H 0.9729 0.5557 0.8529
H41 H 0.9700 0.7357 0.8844
H42 H 0.8535 0.6563 0.8381
loop_
_geom_bond_atom_site_label_1
_geom_bond_atom_site_label_2
_geom_bond_site_symmetry_1
_geom_bond_site_symmetry_2
O1 H1 1_555 1_555
O2 C1 1_555 1_555
O3 C1 1_555 1_555
N1 H2 1_555 1_555
C1 C3 1_555 1_555
C2 C5 1_555 1_555
C3 O1 1_555 1_555
C4 C7 1_555 1_555
C5 C7 1_555 1_555
C6 N1 1_555 1_555
C7 H3 1_555 1_555
C8 C4 1_555 1_555
H4 C8 1_555 1_555
C9 C3 1_555 1_555
H5 C9 1_555 1_555
C10 C2 1_555 1_555
H6 C10 1_555 1_555
C11 C4 1_555 1_555
H7 C11 1_555 1_555
C12 O2 1_555 1_555
H8 C12 1_555 1_555
C13 C2 1_555 1_555
H9 C13 1_555 1_555
C14 H10 1_555 1_555
C15 C5 1_555 1_555
H11 C15 1_555 1_555
C16 C13 1_555 1_555
H12 C16 1_555 1_555
C17 N1 1_555 1_555
H13 C17 1_555 1_555
C18 C6 1_555 1_555
H14 C18 1_555 1_555
C19 C17 1_555 1_555
H15 C19 1_555 1_555
C20 C12 1_555 1_555
H16 C20 1_555 1_555
H17 C20 1_555 1_555
H18 C20 1_555 1_555
C21 C12 1_555 1_555
H19 C21 1_555 1_555
H20 C21 1_555 1_555
H21 C21 1_555 1_555
O4 H22 1_555 1_555
O5 C23 1_555 1_555
O6 C23 1_555 1_555
N2 H23 1_555 1_555
C22 C25 1_555 1_555
C23 C24 1_555 1_555
C24 O4 1_555 1_555
C25 H24 1_555 1_555
C26 C25 1_555 1_555
C27 C22 1_555 1_555
C28 C26 1_555 1_555
H25 C28 1_555 1_555
C29 C26 1_555 1_555
H26 C29 1_555 1_555
C30 N2 1_555 1_555
C31 C24 1_555 1_555
H27 C31 1_555 1_555
C32 C27 1_555 1_555
H28 C32 1_555 1_555
C33 C22 1_555 1_555
H29 C33 1_555 1_555
C34 C27 1_555 1_555
H30 C34 1_555 1_555
C35 C33 1_555 1_555
H31 C35 1_555 1_555
C36 C34 1_555 1_555
H32 C36 1_555 1_555
C37 O5 1_555 1_555
H33 C37 1_555 1_555
C38 C30 1_555 1_555
H34 C38 1_555 1_555
C39 N2 1_555 1_555
H35 C39 1_555 1_555
C40 C38 1_555 1_555
H36 C40 1_555 1_555
C41 C37 1_555 1_555
H37 C41 1_555 1_555
H38 C41 1_555 1_555
H39 C41 1_555 1_555
C42 C37 1_555 1_555
H40 C42 1_555 1_555
H41 C42 1_555 1_555
H42 C42 1_555 1_555
C3 C6 1_555 1_555
C8 C10 1_555 1_555
C9 C11 1_555 1_555
C14 C15 1_555 1_555
C14 C16 1_555 1_555
C18 C19 1_555 1_555
C24 C30 1_555 1_555
C28 C31 1_555 1_555
C29 C32 1_555 1_555
C35 C36 1_555 1_555
C39 C40 1_555 1_555

#END
