
#######################################################################
#
#                 Cambridge Crystallographic Data Centre
#                                CCDC 
#
#######################################################################
#
# If this CIF has been generated from an entry in the Cambridge 
# Structural Database, then it will include bibliographic, chemical, 
# crystal, experimental, refinement or atomic coordinate data resulting 
# from the CCDC's data processing and validation procedures.
#
#######################################################################

data_DAWLAR01
_chemical_formula_moiety         'C12 H13 N3'
_chemical_name_systematic        
(1-ethyl-2,6-dimethylpyridin-4(1H)-ylidene)malononitrile
_symmetry_cell_setting           triclinic
_symmetry_space_group_name_H-M   'P -1'
_symmetry_Int_Tables_number      2
_space_group_name_Hall           '-P 1'
loop_
_symmetry_equiv_pos_site_id
_symmetry_equiv_pos_as_xyz
1 x,y,z
2 -x,-y,-z
_cell_length_a                   7.084(3)
_cell_length_b                   7.646(3)
_cell_length_c                   10.376(5)
_cell_angle_alpha                98.929(9)
_cell_angle_beta                 91.731(9)
_cell_angle_gamma                103.705(9)
_cell_volume                     538.075
_exptl_crystal_colour            green
_exptl_crystal_description       prismatic
_cell_formula_units_Z            2
loop_
_atom_site_label
_atom_site_type_symbol
_atom_site_fract_x
_atom_site_fract_y
_atom_site_fract_z
N1 N 0.29535(18) 0.18008(16) 0.74875(12)
N2 N 0.1345(3) -0.4597(2) 0.32228(18)
N3 N 0.3066(3) 0.0588(3) 0.16938(15)
C1 C 0.2396(2) -0.0123(2) 0.49226(14)
C2 C 0.2021(2) -0.1000(2) 0.60197(14)
H1 H 0.1566 -0.2264 0.5887
C3 C 0.2298(2) -0.0068(2) 0.72645(14)
C4 C 0.3191(2) 0.2736(2) 0.64466(15)
C5 C 0.2910(2) 0.1800(2) 0.52030(15)
H2 H 0.3062 0.2452 0.4512
C6 C 0.2244(2) -0.1099(2) 0.36361(15)
C7 C 0.1753(2) -0.3023(3) 0.33943(16)
C8 C 0.2692(2) -0.0176(3) 0.25614(16)
C9 C 0.1890(3) -0.1061(2) 0.84019(16)
H3 H 0.1158 -0.2291 0.8094
H4 H 0.1154 -0.0450 0.9001
H5 H 0.3098 -0.1077 0.8839
C10 C 0.3753(3) 0.4777(2) 0.67017(18)
H6 H 0.3664 0.5225 0.5893
H7 H 0.5066 0.5195 0.7083
H8 H 0.2890 0.5222 0.7293
C11 C 0.3425(2) 0.2801(2) 0.88470(15)
H9 H 0.4511 0.3850 0.8852
H10 H 0.3834 0.2010 0.9386
C12 C 0.1734(3) 0.3450(3) 0.94455(17)
H11 H 0.1438 0.4366 0.8992
H12 H 0.2078 0.3957 1.0351
H13 H 0.0614 0.2437 0.9372
loop_
_geom_bond_atom_site_label_1
_geom_bond_atom_site_label_2
_geom_bond_site_symmetry_1
_geom_bond_site_symmetry_2
N1 C3 1_555 1_555
N2 C7 1_555 1_555
N3 C8 1_555 1_555
C1 C2 1_555 1_555
C2 H1 1_555 1_555
C3 C2 1_555 1_555
C4 N1 1_555 1_555
C5 C1 1_555 1_555
H2 C5 1_555 1_555
C6 C1 1_555 1_555
C7 C6 1_555 1_555
C8 C6 1_555 1_555
C9 C3 1_555 1_555
H3 C9 1_555 1_555
H4 C9 1_555 1_555
H5 C9 1_555 1_555
C10 C4 1_555 1_555
H6 C10 1_555 1_555
H7 C10 1_555 1_555
H8 C10 1_555 1_555
C11 N1 1_555 1_555
H9 C11 1_555 1_555
H10 C11 1_555 1_555
C12 C11 1_555 1_555
H11 C12 1_555 1_555
H12 C12 1_555 1_555
H13 C12 1_555 1_555
C4 C5 1_555 1_555

#END
