
#######################################################################
#
#                 Cambridge Crystallographic Data Centre
#                                CCDC 
#
#######################################################################
#
# If this CIF has been generated from an entry in the Cambridge 
# Structural Database, then it will include bibliographic, chemical, 
# crystal, experimental, refinement or atomic coordinate data resulting 
# from the CCDC's data processing and validation procedures.
#
#######################################################################

data_DAWLUL
_chemical_formula_moiety         'C15 H18 N2 O3 S1'
_chemical_name_systematic        
5-(2,6-dimethyl-4H-pyran-4-ylidene)-1,3-diethyl-2-sulfanylidenedihydropyrimidine-4,6(1H,5H)-dione
_symmetry_cell_setting           monoclinic
_symmetry_space_group_name_H-M   'P 21/c'
_symmetry_Int_Tables_number      14
_space_group_name_Hall           '-P 2ybc'
loop_
_symmetry_equiv_pos_site_id
_symmetry_equiv_pos_as_xyz
1 x,y,z
2 -x,1/2+y,1/2-z
3 -x,-y,-z
4 x,1/2-y,1/2+z
_cell_length_a                   16.414(4)
_cell_length_b                   5.0946(12)
_cell_length_c                   17.538(4)
_cell_angle_alpha                90
_cell_angle_beta                 92.146(4)
_cell_angle_gamma                90
_cell_volume                     1465.55
_exptl_crystal_colour            yellow
_exptl_crystal_description       prismatic
_cell_formula_units_Z            4
loop_
_atom_site_label
_atom_site_type_symbol
_atom_site_fract_x
_atom_site_fract_y
_atom_site_fract_z
S1 S 0.31573(3) 1.21094(11) 0.43943(3)
N1 N 0.35204(9) 0.8563(3) 0.33455(9)
N2 N 0.21336(9) 0.9237(3) 0.35287(9)
O1 O 0.39721(8) 0.5395(3) 0.25693(9)
O2 O 0.11531(8) 0.6879(3) 0.29083(8)
O3 O 0.19477(8) -0.0487(3) 0.11159(8)
C1 C 0.29293(12) 0.9867(4) 0.37252(10)
C2 C 0.33739(12) 0.6456(4) 0.28321(11)
C3 C 0.25303(11) 0.5744(4) 0.26547(10)
C4 C 0.18900(12) 0.7225(4) 0.30115(10)
C5 C 0.14613(12) 1.0693(4) 0.38804(11)
H1 H 0.0984 1.0746 0.3518
H2 H 0.1637 1.2523 0.3982
C6 C 0.12135(13) 0.9441(5) 0.46183(12)
H3 H 0.1075 0.7593 0.4527
H4 H 0.0738 1.0361 0.4809
H5 H 0.1666 0.9556 0.4997
C7 C 0.43878(11) 0.9315(4) 0.34748(12)
H6 H 0.4421 1.1210 0.3596
H7 H 0.4683 0.9014 0.3001
C8 C 0.47958(13) 0.7762(5) 0.41199(14)
H8 H 0.4513 0.8090 0.4593
H9 H 0.5367 0.8307 0.4185
H10 H 0.4771 0.5885 0.3998
C9 C 0.23333(11) 0.3650(4) 0.21441(10)
C10 C 0.29395(12) 0.2087(4) 0.17871(11)
H11 H 0.3499 0.2443 0.1899
C11 C 0.27380(12) 0.0123(4) 0.12965(11)
C12 C 0.13487(12) 0.0882(4) 0.14521(11)
C13 C 0.15118(12) 0.2878(4) 0.19406(11)
H12 H 0.1072 0.3795 0.2155
C14 C 0.33114(13) -0.1605(4) 0.08966(12)
H13 H 0.3211 -0.3438 0.1034
H14 H 0.3873 -0.1133 0.1048
H15 H 0.3229 -0.1386 0.0344
C15 C 0.05262(13) -0.0135(5) 0.12239(13)
H16 H 0.0439 0.0037 0.0670
H17 H 0.0110 0.0877 0.1483
H18 H 0.0487 -0.1987 0.1368
loop_
_geom_bond_atom_site_label_1
_geom_bond_atom_site_label_2
_geom_bond_site_symmetry_1
_geom_bond_site_symmetry_2
S1 C1 1_555 1_555
N1 C1 1_555 1_555
N2 C1 1_555 1_555
O1 C2 1_555 1_555
O2 C4 1_555 1_555
O3 C11 1_555 1_555
C2 N1 1_555 1_555
C3 C2 1_555 1_555
C4 N2 1_555 1_555
C5 N2 1_555 1_555
H1 C5 1_555 1_555
H2 C5 1_555 1_555
C6 C5 1_555 1_555
H3 C6 1_555 1_555
H4 C6 1_555 1_555
H5 C6 1_555 1_555
C7 N1 1_555 1_555
H6 C7 1_555 1_555
H7 C7 1_555 1_555
C8 C7 1_555 1_555
H8 C8 1_555 1_555
H9 C8 1_555 1_555
H10 C8 1_555 1_555
C9 C3 1_555 1_555
C10 C9 1_555 1_555
H11 C10 1_555 1_555
C11 C10 1_555 1_555
C12 O3 1_555 1_555
C13 C9 1_555 1_555
H12 C13 1_555 1_555
C14 C11 1_555 1_555
H13 C14 1_555 1_555
H14 C14 1_555 1_555
H15 C14 1_555 1_555
C15 C12 1_555 1_555
H16 C15 1_555 1_555
H17 C15 1_555 1_555
H18 C15 1_555 1_555
C3 C4 1_555 1_555
C12 C13 1_555 1_555

#END
