
#######################################################################
#
#                 Cambridge Crystallographic Data Centre
#                                CCDC 
#
#######################################################################
#
# If this CIF has been generated from an entry in the Cambridge 
# Structural Database, then it will include bibliographic, chemical, 
# crystal, experimental, refinement or atomic coordinate data resulting 
# from the CCDC's data processing and validation procedures.
#
#######################################################################

data_DAWRIF
_chemical_formula_moiety         'C14 H10,2(C11 H9 N1 O1),2(C6 F4 I2)'
_chemical_name_systematic        
'bis(4-phenylpyridin-1-oxide) bis(1,2,4,5-tetrafluoro-3,6-diiodobenzene) phenanthrene'
_symmetry_cell_setting           triclinic
_symmetry_space_group_name_H-M   'P -1'
_symmetry_Int_Tables_number      2
_space_group_name_Hall           '-P 1'
loop_
_symmetry_equiv_pos_site_id
_symmetry_equiv_pos_as_xyz
1 x,y,z
2 -x,-y,-z
_cell_length_a                   10.728(11)
_cell_length_b                   13.141(13)
_cell_length_c                   16.958(17)
_cell_angle_alpha                68.302(15)
_cell_angle_beta                 79.588(16)
_cell_angle_gamma                86.613(15)
_cell_volume                     2184.64
_exptl_crystal_colour            'light yellow'
_exptl_crystal_description       block
_cell_formula_units_Z            2
loop_
_atom_site_label
_atom_site_type_symbol
_atom_site_fract_x
_atom_site_fract_y
_atom_site_fract_z
C1 C 0.2002(6) 0.0757(5) 0.2448(4)
C2 C 0.1042(6) 0.1452(5) 0.2632(4)
C3 C 0.1000(6) 0.2543(5) 0.2097(4)
C4 C 0.1884(6) 0.3012(5) 0.1362(4)
C5 C 0.2835(6) 0.2319(5) 0.1181(4)
C6 C 0.2889(6) 0.1227(5) 0.1714(4)
F1 F 0.0153(4) 0.1069(3) 0.3315(3)
F2 F 0.0060(4) 0.3157(3) 0.2314(3)
F3 F 0.3690(4) 0.2698(3) 0.0474(3)
F4 F 0.3826(4) 0.0616(3) 0.1501(3)
I1 I 0.20251(4) -0.08951(3) 0.32386(3)
I2 I 0.17751(4) 0.46652(3) 0.05695(3)
C7 C 0.4347(6) 0.3095(5) 0.2563(4)
C8 C 0.3851(6) 0.2155(5) 0.3229(4)
C9 C 0.2747(6) 0.2157(5) 0.3781(4)
C10 C 0.2081(6) 0.3141(5) 0.3698(4)
C11 C 0.2601(6) 0.4086(5) 0.3024(5)
C12 C 0.3681(6) 0.4070(5) 0.2488(4)
F5 F 0.4436(4) 0.1190(3) 0.3343(3)
F6 F 0.2332(4) 0.1218(3) 0.4408(3)
F7 F 0.1990(4) 0.5049(3) 0.2921(3)
F8 F 0.4125(4) 0.5025(3) 0.1863(3)
I3 I 0.60085(4) 0.30662(3) 0.17211(3)
I4 I 0.04060(4) 0.31515(3) 0.45256(3)
C13 C 0.6368(6) 0.3677(6) 0.3858(4)
H1 H 0.6588 0.4379 0.3466
C14 C 0.7194(7) 0.2809(7) 0.3881(5)
H2 H 0.7958 0.2943 0.3498
C15 C 0.6904(7) 0.1762(6) 0.4456(5)
H3 H 0.7465 0.1191 0.4464
C16 C 0.5763(7) 0.1572(6) 0.5022(5)
H4 H 0.5554 0.0867 0.5413
C17 C 0.4938(7) 0.2415(6) 0.5011(4)
H5 H 0.4179 0.2275 0.5400
C18 C 0.5225(6) 0.3495(5) 0.4416(4)
C19 C 0.4336(6) 0.4409(5) 0.4398(4)
C20 C 0.3293(6) 0.4309(5) 0.5046(4)
H6 H 0.3161 0.3653 0.5516
C21 C 0.2449(6) 0.5153(5) 0.5010(4)
H7 H 0.1785 0.5064 0.5467
C22 C 0.3589(6) 0.6254(6) 0.3692(4)
H8 H 0.3710 0.6923 0.3234
C23 C 0.4439(6) 0.5439(5) 0.3716(4)
H9 H 0.5118 0.5565 0.3264
N1 N 0.2571(5) 0.6108(4) 0.4322(4)
O1 O 0.1736(5) 0.6890(4) 0.4278(3)
C24 C 0.2166(5) 0.2998(4) 0.7575(4)
C25 C 0.1117(6) 0.3704(5) 0.7383(4)
H10 H 0.0572 0.3589 0.7055
C26 C 0.0899(6) 0.4548(5) 0.7674(4)
H11 H 0.0211 0.5004 0.7537
C27 C 0.1687(6) 0.4738(5) 0.8171(4)
H12 H 0.1523 0.5312 0.8370
C28 C 0.2722(6) 0.4064(5) 0.8370(4)
H13 H 0.3248 0.4191 0.8704
C29 C 0.2990(6) 0.3187(5) 0.8071(4)
C30 C 0.4042(6) 0.2511(5) 0.8259(4)
H14 H 0.4585 0.2659 0.8573
C31 C 0.4295(6) 0.1660(6) 0.8003(5)
H15 H 0.4997 0.1227 0.8150
C32 C 0.3506(6) 0.1414(5) 0.7511(4)
C33 C 0.3765(6) 0.0511(5) 0.7253(4)
H16 H 0.4451 0.0065 0.7415
C34 C 0.3004(7) 0.0280(5) 0.6760(5)
H17 H 0.3184 -0.0310 0.6580
C35 C 0.1961(6) 0.0948(5) 0.6537(4)
H18 H 0.1445 0.0794 0.6209
C36 C 0.1680(6) 0.1829(5) 0.6790(4)
H19 H 0.0979 0.2259 0.6634
C37 C 0.2442(6) 0.2079(5) 0.7281(4)
C38 C 0.2644(11) -0.0234(9) 0.0061(8)
H20 H 0.2886 0.0467 -0.0325
C39 C 0.3392(11) -0.1125(9) 0.0028(9)
H21 H 0.4088 -0.1019 -0.0410
C40 C 0.3116(7) -0.2158(7) 0.0633(6)
H22 H 0.3642 -0.2747 0.0635
C41 C 0.2041(8) -0.2284(7) 0.1231(6)
H23 H 0.1820 -0.2976 0.1641
C42 C 0.1278(8) -0.1413(6) 0.1241(5)
H24 H 0.0550 -0.1529 0.1656
C43 C 0.1561(6) -0.0377(6) 0.0653(4)
C44 C 0.0701(6) 0.0565(5) 0.0645(4)
C45 C -0.0365(8) 0.0475(7) 0.1238(6)
H25 H -0.0570 -0.0205 0.1671
C46 C -0.1154(9) 0.1337(7) 0.1229(7)
H26 H -0.1865 0.1226 0.1657
C47 C 0.0112(7) 0.2470(5) 0.0020(5)
H27 H 0.0292 0.3154 -0.0413
C48 C 0.0905(7) 0.1627(6) 0.0031(5)
H28 H 0.1624 0.1760 -0.0393
N2 N -0.0925(5) 0.2335(5) 0.0620(4)
O2 O -0.1684(5) 0.3162(4) 0.0616(3)
loop_
_geom_bond_atom_site_label_1
_geom_bond_atom_site_label_2
_geom_bond_site_symmetry_1
_geom_bond_site_symmetry_2
C1 C2 1_555 1_555
C2 C3 1_555 1_555
C3 C4 1_555 1_555
C4 C5 1_555 1_555
C5 C6 1_555 1_555
C6 C1 1_555 1_555
F1 C2 1_555 1_555
F2 C3 1_555 1_555
F3 C5 1_555 1_555
F4 C6 1_555 1_555
I1 C1 1_555 1_555
I2 C4 1_555 1_555
C7 C8 1_555 1_555
C8 C9 1_555 1_555
C9 C10 1_555 1_555
C10 C11 1_555 1_555
C11 C12 1_555 1_555
C12 C7 1_555 1_555
F5 C8 1_555 1_555
F6 C9 1_555 1_555
F7 C11 1_555 1_555
F8 C12 1_555 1_555
I3 C7 1_555 1_555
I4 C10 1_555 1_555
C13 H1 1_555 1_555
C14 C13 1_555 1_555
H2 C14 1_555 1_555
C15 C14 1_555 1_555
H3 C15 1_555 1_555
C16 C15 1_555 1_555
H4 C16 1_555 1_555
C17 C16 1_555 1_555
H5 C17 1_555 1_555
C18 C13 1_555 1_555
C19 C18 1_555 1_555
C20 C19 1_555 1_555
H6 C20 1_555 1_555
C21 C20 1_555 1_555
H7 C21 1_555 1_555
C22 H8 1_555 1_555
C23 C19 1_555 1_555
H9 C23 1_555 1_555
N1 C21 1_555 1_555
O1 N1 1_555 1_555
C24 C25 1_555 1_555
C25 H10 1_555 1_555
C26 C25 1_555 1_555
H11 C26 1_555 1_555
C27 C26 1_555 1_555
H12 C27 1_555 1_555
C28 C27 1_555 1_555
H13 C28 1_555 1_555
C29 C24 1_555 1_555
C30 C29 1_555 1_555
H14 C30 1_555 1_555
C31 C30 1_555 1_555
H15 C31 1_555 1_555
C32 C31 1_555 1_555
C33 C32 1_555 1_555
H16 C33 1_555 1_555
C34 C33 1_555 1_555
H17 C34 1_555 1_555
C35 C34 1_555 1_555
H18 C35 1_555 1_555
C36 C35 1_555 1_555
H19 C36 1_555 1_555
C37 C24 1_555 1_555
C38 H20 1_555 1_555
C39 C38 1_555 1_555
H21 C39 1_555 1_555
C40 C39 1_555 1_555
H22 C40 1_555 1_555
C41 C40 1_555 1_555
H23 C41 1_555 1_555
C42 C41 1_555 1_555
H24 C42 1_555 1_555
C43 C38 1_555 1_555
C44 C43 1_555 1_555
C45 C44 1_555 1_555
H25 C45 1_555 1_555
C46 C45 1_555 1_555
H26 C46 1_555 1_555
C47 H27 1_555 1_555
C48 C44 1_555 1_555
H28 C48 1_555 1_555
N2 C46 1_555 1_555
O2 N2 1_555 1_555
C17 C18 1_555 1_555
C22 C23 1_555 1_555
C22 N1 1_555 1_555
C28 C29 1_555 1_555
C32 C37 1_555 1_555
C36 C37 1_555 1_555
C42 C43 1_555 1_555
C47 C48 1_555 1_555
C47 N2 1_555 1_555

#END
