
#######################################################################
#
#                 Cambridge Crystallographic Data Centre
#                                CCDC 
#
#######################################################################
#
# If this CIF has been generated from an entry in the Cambridge 
# Structural Database, then it will include bibliographic, chemical, 
# crystal, experimental, refinement or atomic coordinate data resulting 
# from the CCDC's data processing and validation procedures.
#
#######################################################################

data_DAWZAF
_chemical_formula_moiety         'C17 H13 Cl1 O5'
_chemical_name_systematic        
7-chloro-3-(((4-methyl-5-oxo-2,5-dihydrofuran-2-yl)oxy)methylene)-3,3a,4,8b-tetrahydro-2H-indeno[1,2-b]furan-2-one
_symmetry_cell_setting           monoclinic
_symmetry_space_group_name_H-M   'P 21/n'
_symmetry_Int_Tables_number      14
_space_group_name_Hall           '-P 2yn'
loop_
_symmetry_equiv_pos_site_id
_symmetry_equiv_pos_as_xyz
1 x,y,z
2 1/2-x,1/2+y,1/2-z
3 -x,-y,-z
4 1/2+x,1/2-y,1/2+z
_cell_length_a                   10.8435(6)
_cell_length_b                   9.0067(4)
_cell_length_c                   16.5645(12)
_cell_angle_alpha                90
_cell_angle_beta                 109.038(7)
_cell_angle_gamma                90
_cell_volume                     1529.27
_exptl_crystal_colour            colorless
_exptl_crystal_description       block
_cell_formula_units_Z            4
loop_
_atom_site_label
_atom_site_type_symbol
_atom_site_fract_x
_atom_site_fract_y
_atom_site_fract_z
Cl1 Cl 0.93700(6) 0.13278(8) 0.17706(5)
O1 O 1.27934(16) -0.31743(15) 0.14653(10)
O2 O 1.29819(14) -0.32271(17) -0.22246(11)
O3 O 1.43232(15) -0.28678(16) -0.08245(10)
C1 C 1.3541(2) -0.3132(2) 0.03193(14)
C2 C 1.23833(19) 0.0256(2) 0.05312(13)
C3 C 1.4265(2) -0.3430(2) -0.16329(15)
H1 H 1.4521 -0.4478 -0.1595
C4 C 1.23399(19) -0.0529(2) 0.12369(12)
C5 C 1.1436(2) -0.0197(2) 0.16389(13)
H2 H 1.1418 -0.0720 0.2119
C6 C 1.3987(2) -0.1675(2) 0.07522(14)
H3 H 1.4941 -0.1642 0.0992
C7 C 1.3366(2) -0.1710(2) 0.14729(14)
H4 H 1.4019 -0.1502 0.2029
C8 C 1.0609(2) 0.1753(2) 0.06106(16)
H5 H 1.0024 0.2528 0.0405
C9 C 1.1522(2) 0.1421(2) 0.02236(15)
H6 H 1.1562 0.1975 -0.0241
C10 C 1.0566(2) 0.0932(2) 0.13052(15)
C11 C 1.3459(2) -0.0276(2) 0.02156(15)
H7 H 1.4136 0.0471 0.0307
H8 H 1.3125 -0.0515 -0.0388
C12 C 1.3686(2) -0.3664(2) -0.03873(15)
H9 H 1.3348 -0.4592 -0.0587
O4 O 1.2422(2) -0.52158(19) 0.06735(14)
O5 O 1.20975(18) -0.1930(2) -0.34272(13)
C13 C 1.4420(2) -0.1845(2) -0.26856(16)
C14 C 1.2869(2) -0.3982(3) 0.07978(16)
C15 C 1.5118(2) -0.2519(3) -0.19751(16)
H10 H 1.6017 -0.2433 -0.1725
C16 C 1.3049(2) -0.2282(3) -0.28524(17)
C17 C 1.4794(3) -0.0806(3) -0.32642(17)
H11 H 1.4434 0.0158 -0.3233
H12 H 1.4461 -0.1169 -0.3840
H13 H 1.5727 -0.0737 -0.3093
loop_
_geom_bond_atom_site_label_1
_geom_bond_atom_site_label_2
_geom_bond_site_symmetry_1
_geom_bond_site_symmetry_2
Cl1 C10 1_555 1_555
O1 C7 1_555 1_555
O2 C3 1_555 1_555
O3 C3 1_555 1_555
C1 C6 1_555 1_555
C2 C4 1_555 1_555
C3 H1 1_555 1_555
C4 C5 1_555 1_555
C5 H2 1_555 1_555
C6 H3 1_555 1_555
C7 C4 1_555 1_555
H4 C7 1_555 1_555
C8 H5 1_555 1_555
C9 C2 1_555 1_555
H6 C9 1_555 1_555
C10 C5 1_555 1_555
C11 C2 1_555 1_555
H7 C11 1_555 1_555
H8 C11 1_555 1_555
C12 O3 1_555 1_555
H9 C12 1_555 1_555
O4 C14 1_555 1_555
O5 C16 1_555 1_555
C13 C15 1_555 1_555
C14 O1 1_555 1_555
C15 C3 1_555 1_555
H10 C15 1_555 1_555
C16 O2 1_555 1_555
C17 C13 1_555 1_555
H11 C17 1_555 1_555
H12 C17 1_555 1_555
H13 C17 1_555 1_555
C1 C12 1_555 1_555
C1 C14 1_555 1_555
C6 C7 1_555 1_555
C6 C11 1_555 1_555
C8 C9 1_555 1_555
C8 C10 1_555 1_555
C13 C16 1_555 1_555

#END
