
#######################################################################
#
#                 Cambridge Crystallographic Data Centre
#                                CCDC 
#
#######################################################################
#
# If this CIF has been generated from an entry in the Cambridge 
# Structural Database, then it will include bibliographic, chemical, 
# crystal, experimental, refinement or atomic coordinate data resulting 
# from the CCDC's data processing and validation procedures.
#
#######################################################################

data_DAXBAG
_chemical_formula_moiety         'C14 H9 F3 N2 O2'
_chemical_name_systematic        
3-(Methoxycarbonyl)-1-trifluoromethyl-9H-pyrido(3,4-b)indole
_symmetry_cell_setting           monoclinic
_symmetry_space_group_name_H-M   'P 21/n'
_symmetry_Int_Tables_number      14
_space_group_name_Hall           '-P 2yn'
loop_
_symmetry_equiv_pos_site_id
_symmetry_equiv_pos_as_xyz
1 x,y,z
2 1/2-x,1/2+y,1/2-z
3 -x,-y,-z
4 1/2+x,1/2-y,1/2+z
_cell_length_a                   10.9191(7)
_cell_length_b                   7.8212(6)
_cell_length_c                   15.1663(10)
_cell_angle_alpha                90
_cell_angle_beta                 99.013(3)
_cell_angle_gamma                90
_cell_volume                     1279.22
_exptl_crystal_colour            colorless
_exptl_crystal_description       prism
_cell_formula_units_Z            4
_exptl_crystal_recrystallization_method dichloromethane/ether
loop_
_atom_site_label
_atom_site_type_symbol
_atom_site_fract_x
_atom_site_fract_y
_atom_site_fract_z
N1 N 0.5976(4) 0.2106(7) 0.6436(3)
H1 H 0.6129 0.2124 0.7010
N2 N 0.3004(4) 0.4174(6) 0.5527(3)
O1 O 0.1963(4) 0.4157(7) 0.3201(3)
O2 O 0.1113(4) 0.5142(7) 0.4345(3)
F1 F 0.2757(15) 0.356(3) 0.7272(11)
F3 F 0.378(3) 0.5655(17) 0.7215(12)
F5 F 0.4621(10) 0.343(3) 0.7687(9)
C1 C 0.6735(5) 0.1383(7) 0.5887(3)
C2 C 0.7850(5) 0.0526(8) 0.6116(4)
H2 H 0.8197 0.0364 0.6710
C3 C 0.8424(5) -0.0076(9) 0.5434(4)
H3 H 0.9173 -0.0658 0.5569
C4 C 0.7902(6) 0.0170(9) 0.4539(4)
H4 H 0.8312 -0.0244 0.4090
C5 C 0.6797(6) 0.1011(8) 0.4316(4)
H5 H 0.6453 0.1167 0.3720
C6 C 0.6196(5) 0.1628(7) 0.4998(3)
C7 C 0.5043(5) 0.2532(7) 0.5019(4)
C8 C 0.4073(5) 0.3089(7) 0.4383(3)
H6 H 0.4094 0.2927 0.3778
C9 C 0.3084(5) 0.3885(7) 0.4662(3)
C10 C 0.3924(5) 0.3658(7) 0.6145(3)
C11 C 0.4950(5) 0.2786(7) 0.5930(3)
C12 C 0.1994(5) 0.4418(8) 0.3988(4)
C13 C 0.0020(6) 0.5692(11) 0.3747(5)
H7 H 0.0262 0.6406 0.3289
H8 H -0.0511 0.6324 0.4077
H9 H -0.0416 0.4709 0.3479
C14 C 0.3755(6) 0.4070(9) 0.7083(4)
F2? F 0.2687(16) 0.419(5) 0.7242(13)
F4? F 0.435(2) 0.542(4) 0.7401(13)
F6? F 0.427(3) 0.289(4) 0.7627(13)
loop_
_geom_bond_atom_site_label_1
_geom_bond_atom_site_label_2
_geom_bond_site_symmetry_1
_geom_bond_site_symmetry_2
N1 H1 1_555 1_555
N2 C9 1_555 1_555
O1 C12 1_555 1_555
O2 C12 1_555 1_555
F1 C14 1_555 1_555
F3 C14 1_555 1_555
F5 C14 1_555 1_555
C1 N1 1_555 1_555
C2 C1 1_555 1_555
H2 C2 1_555 1_555
C3 C2 1_555 1_555
H3 C3 1_555 1_555
C4 C3 1_555 1_555
H4 C4 1_555 1_555
C5 C4 1_555 1_555
H5 C5 1_555 1_555
C6 C1 1_555 1_555
C7 C6 1_555 1_555
C8 C7 1_555 1_555
H6 C8 1_555 1_555
C9 C8 1_555 1_555
C10 N2 1_555 1_555
C11 N1 1_555 1_555
C12 C9 1_555 1_555
C13 O2 1_555 1_555
H7 C13 1_555 1_555
H8 C13 1_555 1_555
H9 C13 1_555 1_555
C14 C10 1_555 1_555
C5 C6 1_555 1_555
C7 C11 1_555 1_555
C10 C11 1_555 1_555

#END
