
#######################################################################
#
#                 Cambridge Crystallographic Data Centre
#                                CCDC 
#
#######################################################################
#
# If this CIF has been generated from an entry in the Cambridge 
# Structural Database, then it will include bibliographic, chemical, 
# crystal, experimental, refinement or atomic coordinate data resulting 
# from the CCDC's data processing and validation procedures.
#
#######################################################################

data_DAXGAK
_chemical_compound_source        'leaves of Ancistrocladus tectorius'
_chemical_formula_moiety         'C26 H31 N1 O4'
_chemical_name_systematic        Ancistrotectorine
_symmetry_cell_setting           monoclinic
_symmetry_space_group_name_H-M   'P 21'
_symmetry_Int_Tables_number      4
_space_group_name_Hall           'P 2yb'
loop_
_symmetry_equiv_pos_site_id
_symmetry_equiv_pos_as_xyz
1 x,y,z
2 -x,1/2+y,-z
_cell_length_a                   11.858(14)
_cell_length_b                   7.043(7)
_cell_length_c                   14.693(28)
_cell_angle_alpha                90
_cell_angle_beta                 111.43(12)
_cell_angle_gamma                90
_cell_volume                     1142.26
_exptl_crystal_colour            'pale yellow'
_chemical_melting_point          134-140deg.C
_cell_formula_units_Z            2
loop_
_atom_site_label
_atom_site_type_symbol
_atom_site_fract_x
_atom_site_fract_y
_atom_site_fract_z
O1 O 0.1240(8) 0.9594(20) 0.0433(6)
O2 O 0.4670(7) 0.6549(22) 0.2800(6)
O3 O 0.3753(9) 1.1387(23) 0.2826(7)
O4 O 0.3645(10) 1.3613(23) 0.4207(6)
C1 C 0.1943(12) 0.8794(27) -0.1116(9)
N1 N 0.2331(11) 0.7931(24) -0.1864(8)
C2 C 0.2868(13) 0.6042(27) -0.1609(10)
C3 C 0.3963(11) 0.6199(29) -0.0718(10)
C4 C 0.3682(12) 0.7021(28) 0.0111(9)
C5 C 0.4374(11) 0.6427(28) 0.1072(10)
C6 C 0.4056(11) 0.7043(25) 0.1837(9)
C7 C 0.3025(12) 0.8244(29) 0.1655(9)
C8 C 0.2347(12) 0.8766(27) 0.0679(9)
C9 C 0.2689(11) 0.8158(25) -0.0056(9)
C10 C 0.1312(11) 0.7786(30) 0.3363(11)
C11 C 0.1769(11) 0.7380(27) 0.2658(10)
C12 C 0.2589(10) 0.8651(25) 0.2481(9)
C13 C 0.2962(11) 1.0278(23) 0.3052(9)
C14 C 0.2490(13) 1.0752(27) 0.3776(9)
C15 C 0.2789(12) 1.2383(27) 0.4364(10)
C16 C 0.2339(18) 1.2833(30) 0.5069(13)
C17 C 0.1546(16) 1.1543(32) 0.5221(11)
C18 C 0.1207(11) 0.9955(35) 0.4686(10)
C19 C 0.1656(13) 0.9490(26) 0.3945(9)
C20 C 0.2074(14) 1.0965(24) -0.1185(11)
C21 C 0.1288(16) 0.7917(32) -0.2780(12)
C22 C 0.3135(14) 0.5103(3) -0.2472(10)
C23 C 0.5591(12) 0.5143(29) 0.2970(9)
C24 C 0.1163(16) 1.1377(31) 0.0861(11)
C25 C 0.1417(14) 0.5579(28) 0.2077(12)
C26 C 0.4087(14) 1.5272(29) 0.4814(11)
H1 H 0.1102(41) 0.852(18) -0.1144(71)
H2 H 0.3006(81) 0.511(13) -0.1480(79)
H3 H 0.4436(81) 0.5016(86) -0.0436(68)
H4 H 0.4559(77) 0.712(12) -0.0795(77)
H5 H 0.5014(69) 0.553(12) 0.1053(74)
H6 H 0.0662(71) 0.698(13) 0.3440(73)
H7 H 0.234(10) 1.4212(56) 0.5234(79)
H8 H 0.1116(75) 1.178(18) 0.5685(55)
H9 H 0.0583(72) 0.907(12) 0.4760(74)
H10 H 0.1546(77) 1.159(16) -0.0873(64)
H11 H 0.2922(39) 1.088(19) -0.0680(52)
H12 H 0.2105(94) 1.179(15) -0.1731(60)
H13 H 0.090(11) 0.9195(78) -0.2902(88)
H14 H 0.0712(97) 0.696(12) -0.2689(90)
H15 H 0.152(10) 0.753(14) -0.3343(62)
H16 H 0.3642(84) 0.3971(10) -0.2491(95)
H17 H 0.2300(38) 0.493(16) -0.2963(65)
H18 H 0.3510(89) 0.626(11) -0.2646(91)
H19 H 0.5926(88) 0.450(15) 0.3619(40)
H20 H 0.5199(96) 0.418(13) 0.2448(56)
H21 H 0.6272(70) 0.577(15) 0.2829(70)
H22 H 0.0396(52) 1.121(15) 0.0480(69)
H23 H 0.1102(88) 1.085(16) 0.1476(52)
H24 H 0.1854(67) 1.231(14) 0.1050(79)
H25 H 0.2230(49) 0.514(17) 0.2110(79)
H26 H 0.0997(82) 0.453(13) 0.2288(81)
H27 H 0.0919(74) 0.598(18) 0.1399(43)
H28 H 0.4807(59) 1.568(16) 0.4660(75)
H29 H 0.3619(94) 1.642(11) 0.4869(83)
H30 H 0.4383(87) 1.460(15) 0.5464(49)
loop_
_geom_bond_atom_site_label_1
_geom_bond_atom_site_label_2
_geom_bond_site_symmetry_1
_geom_bond_site_symmetry_2
O1 C8 1_555 1_555
O2 C6 1_555 1_555
O3 C13 1_555 1_555
O4 C15 1_555 1_555
C1 N1 1_555 1_555
N1 C2 1_555 1_555
C2 C3 1_555 1_555
C3 C4 1_555 1_555
C4 C5 1_555 1_555
C5 C6 1_555 1_555
C6 C7 1_555 1_555
C7 C8 1_555 1_555
C8 C9 1_555 1_555
C9 C1 1_555 1_555
C10 C11 1_555 1_555
C11 C12 1_555 1_555
C12 C7 1_555 1_555
C13 C12 1_555 1_555
C14 C13 1_555 1_555
C15 C14 1_555 1_555
C16 C15 1_555 1_555
C17 C16 1_555 1_555
C18 C17 1_555 1_555
C19 C10 1_555 1_555
C20 C1 1_555 1_555
C21 N1 1_555 1_555
C22 C2 1_555 1_555
C23 O2 1_555 1_555
C24 O1 1_555 1_555
C25 C11 1_555 1_555
C26 O4 1_555 1_555
H1 C1 1_555 1_555
H2 C2 1_555 1_555
H3 C3 1_555 1_555
H4 C3 1_555 1_555
H5 C5 1_555 1_555
H6 C10 1_555 1_555
H7 C16 1_555 1_555
H8 C17 1_555 1_555
H9 C18 1_555 1_555
H10 C20 1_555 1_555
H11 C20 1_555 1_555
H12 C20 1_555 1_555
H13 C21 1_555 1_555
H14 C21 1_555 1_555
H15 C21 1_555 1_555
H16 C22 1_555 1_555
H17 C22 1_555 1_555
H18 C22 1_555 1_555
H19 C23 1_555 1_555
H20 C23 1_555 1_555
H21 C23 1_555 1_555
H22 C24 1_555 1_555
H23 C24 1_555 1_555
H24 C24 1_555 1_555
H25 C25 1_555 1_555
H26 C25 1_555 1_555
H27 C25 1_555 1_555
H28 C26 1_555 1_555
H29 C26 1_555 1_555
H30 C26 1_555 1_555
C4 C9 1_555 1_555
C14 C19 1_555 1_555
C18 C19 1_555 1_555

#END
