
#######################################################################
#
#                 Cambridge Crystallographic Data Centre
#                                CCDC 
#
#######################################################################
#
# If this CIF has been generated from an entry in the Cambridge 
# Structural Database, then it will include bibliographic, chemical, 
# crystal, experimental, refinement or atomic coordinate data resulting 
# from the CCDC's data processing and validation procedures.
#
#######################################################################

data_DAXJEU
_chemical_formula_moiety         'C25 H28 N2 O2 S1'
_chemical_name_systematic        
4-methyl-N-(10-phenyl-1-azabicyclo[7.3.1]trideca-6,10-dien-13-ylidene)benzenesulfonamide
_symmetry_cell_setting           triclinic
_symmetry_space_group_name_H-M   'P -1'
_symmetry_Int_Tables_number      2
_space_group_name_Hall           '-P 1'
loop_
_symmetry_equiv_pos_site_id
_symmetry_equiv_pos_as_xyz
1 x,y,z
2 -x,-y,-z
_cell_length_a                   9.0423(4)
_cell_length_b                   10.9846(5)
_cell_length_c                   11.4374(5)
_cell_angle_alpha                91.995(2)
_cell_angle_beta                 100.164(2)
_cell_angle_gamma                103.818(2)
_cell_volume                     1082.32
_exptl_crystal_description       block
_cell_formula_units_Z            2
_exptl_crystal_recrystallization_method dichloromethane/hexane
loop_
_atom_site_label
_atom_site_type_symbol
_atom_site_fract_x
_atom_site_fract_y
_atom_site_fract_z
S1 S 0.12064(6) 0.40306(5) 0.30855(5)
O1 O 0.0628(2) 0.39399(18) 0.41841(15)
O2 O 0.0488(2) 0.30087(16) 0.21819(15)
N1 N 0.5428(2) 0.39493(18) 0.38342(18)
N2 N 0.3067(2) 0.43424(19) 0.33025(17)
C1 C 0.0319(3) 0.6257(2) 0.3069(2)
H1 H 0.0075 0.6098 0.3832
C2 C 0.0925(2) 0.5427(2) 0.2471(2)
C3 C 0.3891(3) 0.3567(2) 0.37322(19)
C4 C 0.3230(3) 0.2245(2) 0.4049(2)
H2 H 0.2205 0.2223 0.4274
C5 C 0.4268(3) 0.1916(2) 0.5122(2)
C6 C 0.0431(3) 0.7586(2) 0.1420(2)
C7 C 0.3535(3) 0.1115(2) 0.5980(2)
C8 C 0.0076(3) 0.7323(3) 0.2533(2)
H3 H -0.0345 0.7891 0.2937
C9 C 0.6502(3) 0.3257(2) 0.4437(2)
H4 H 0.7432 0.3866 0.4895
H5 H 0.6842 0.2779 0.3830
C10 C 0.5797(3) 0.2370(2) 0.5259(2)
H6 H 0.6456 0.2121 0.5898
C11 C 0.1289(3) 0.5663(3) 0.1359(2)
H7 H 0.1708 0.5094 0.0955
C12 C 0.1038(3) 0.6731(3) 0.0844(2)
H8 H 0.1284 0.6888 0.0080
C13 C 0.6121(3) 0.5127(2) 0.3342(2)
H9 H 0.7245 0.5373 0.3684
H10 H 0.5663 0.5794 0.3613
C14 C 0.4165(4) 0.1320(3) 0.7205(3)
H11 H 0.5063 0.1983 0.7484
C15 C 0.2213(3) 0.0130(3) 0.5619(3)
H12 H 0.1744 -0.0021 0.4798
C16 C 0.2204(4) -0.0417(3) 0.7620(3)
H13 H 0.1755 -0.0943 0.8172
C17 C 0.1576(3) -0.0627(3) 0.6429(3)
H14 H 0.0690 -0.1304 0.6159
C18 C 0.5921(4) 0.5084(3) 0.2000(3)
H15 H 0.6407 0.5929 0.1779
H16 H 0.4798 0.4902 0.1661
C19 C 0.0172(4) 0.8733(3) 0.0822(3)
H17 H -0.0458 0.9134 0.1250
H18 H -0.0369 0.8489 -0.0004
H19 H 0.1174 0.9326 0.0831
C20 C 0.3490(4) 0.0563(3) 0.8011(3)
H20 H 0.3918 0.0721 0.8839
C21 C 0.2928(4) 0.1313(3) 0.2926(3)
H21 H 0.3081 0.0496 0.3190
H22 H 0.1828 0.1174 0.2531
C22 C 0.6593(4) 0.4129(5) 0.1418(4)
H23 H 0.7311 0.3846 0.2046
H24 H 0.7218 0.4561 0.0856
C23 C 0.5421(5) 0.2953(4) 0.0739(4)
H25 H 0.4888 0.3208 -0.0010
H26 H 0.6005 0.2353 0.0517
C24 C 0.4262(8) 0.2308(4) 0.1369(4)
H27 H 0.3342 0.2511 0.0983
C25 C 0.3860(8) 0.1688(5) 0.2077(6)
H28 H 0.4493 0.1108 0.2124
loop_
_geom_bond_atom_site_label_1
_geom_bond_atom_site_label_2
_geom_bond_site_symmetry_1
_geom_bond_site_symmetry_2
S1 O1 1_555 1_555
O2 S1 1_555 1_555
N1 C3 1_555 1_555
N2 S1 1_555 1_555
C1 H1 1_555 1_555
C2 S1 1_555 1_555
C3 N2 1_555 1_555
C4 C3 1_555 1_555
H2 C4 1_555 1_555
C5 C4 1_555 1_555
C6 C8 1_555 1_555
C7 C5 1_555 1_555
C8 C1 1_555 1_555
H3 C8 1_555 1_555
C9 N1 1_555 1_555
H4 C9 1_555 1_555
H5 C9 1_555 1_555
C10 C5 1_555 1_555
H6 C10 1_555 1_555
C11 C2 1_555 1_555
H7 C11 1_555 1_555
C12 C6 1_555 1_555
H8 C12 1_555 1_555
C13 N1 1_555 1_555
H9 C13 1_555 1_555
H10 C13 1_555 1_555
C14 C7 1_555 1_555
H11 C14 1_555 1_555
C15 C7 1_555 1_555
H12 C15 1_555 1_555
C16 H13 1_555 1_555
C17 C15 1_555 1_555
H14 C17 1_555 1_555
C18 C13 1_555 1_555
H15 C18 1_555 1_555
H16 C18 1_555 1_555
C19 C6 1_555 1_555
H17 C19 1_555 1_555
H18 C19 1_555 1_555
H19 C19 1_555 1_555
C20 C14 1_555 1_555
H20 C20 1_555 1_555
C21 C4 1_555 1_555
H21 C21 1_555 1_555
H22 C21 1_555 1_555
C22 C18 1_555 1_555
H23 C22 1_555 1_555
H24 C22 1_555 1_555
C23 C22 1_555 1_555
H25 C23 1_555 1_555
H26 C23 1_555 1_555
C24 C23 1_555 1_555
H27 C24 1_555 1_555
C25 C21 1_555 1_555
H28 C25 1_555 1_555
C1 C2 1_555 1_555
C9 C10 1_555 1_555
C11 C12 1_555 1_555
C16 C17 1_555 1_555
C16 C20 1_555 1_555
C24 C25 1_555 1_555

#END
