
#######################################################################
#
#                 Cambridge Crystallographic Data Centre
#                                CCDC 
#
#######################################################################
#
# If this CIF has been generated from an entry in the Cambridge 
# Structural Database, then it will include bibliographic, chemical, 
# crystal, experimental, refinement or atomic coordinate data resulting 
# from the CCDC's data processing and validation procedures.
#
#######################################################################

data_DAXTAX01
_chemical_formula_moiety         'C18 H20 N2 O6'
_chemical_name_systematic        
'Dimethyl (1S,3S)-1-(methoxycarbonylmethyl)-1,2,3,4-tetrahydro-9H-pyrido(3,4-b)indole-1,3-dicarboxylate'
_symmetry_cell_setting           orthorhombic
_symmetry_space_group_name_H-M   'P 21 21 21'
_symmetry_Int_Tables_number      19
_space_group_name_Hall           'P 2ac 2ab'
loop_
_symmetry_equiv_pos_site_id
_symmetry_equiv_pos_as_xyz
1 x,y,z
2 1/2+x,1/2-y,-z
3 -x,1/2+y,1/2-z
4 1/2-x,-y,1/2+z
_cell_length_a                   11.999(1)
_cell_length_b                   13.693(1)
_cell_length_c                   10.612(1)
_cell_angle_alpha                90
_cell_angle_beta                 90
_cell_angle_gamma                90
_cell_volume                     1743.58
_exptl_crystal_colour            colorless
_cell_formula_units_Z            4
loop_
_atom_site_label
_atom_site_type_symbol
_atom_site_fract_x
_atom_site_fract_y
_atom_site_fract_z
N1 N 0.1659(2) 0.8575(1) 0.4500(2)
C1 C 0.0823(2) 0.8360(2) 0.5340(2)
C2 C 0.0451(2) 0.7335(2) 0.5674(2)
N2 N -0.0626(2) 0.7418(2) 0.6308(2)
C3 C -0.0719(2) 0.8181(2) 0.7270(2)
C4 C -0.0634(2) 0.9192(2) 0.6659(2)
C5 C 0.0337(2) 0.9192(2) 0.5775(2)
C6 C 0.0883(2) 0.9992(2) 0.5148(2)
C7 C 0.0746(2) 1.1012(2) 0.5163(3)
C8 C 0.1402(2) 1.1563(2) 0.4363(3)
C9 C 0.2180(2) 1.1137(2) 0.3566(3)
C10 C 0.2348(2) 1.0138(2) 0.3546(3)
C11 C 0.1695(2) 0.9580(2) 0.4348(2)
C12 C 0.0297(2) 0.6730(2) 0.4455(2)
C13 C -0.0007(2) 0.5689(2) 0.4717(2)
O1 O -0.0145(2) 0.5352(1) 0.5733(2)
O2 O -0.0117(2) 0.5177(1) 0.3656(2)
C14 C -0.0514(3) 0.4180(2) 0.3815(3)
C15 C 0.1335(2) 0.6863(2) 0.6528(2)
O3 O 0.1241(1) 0.6760(1) 0.7644(2)
O4 O 0.2248(1) 0.6608(1) 0.5888(2)
C16 C 0.3139(2) 0.6216(2) 0.6645(3)
C17 C -0.1823(2) 0.8073(2) 0.7909(2)
O5 O -0.2548(1) 0.7510(1) 0.7618(2)
O6 O -0.1934(2) 0.8706(1) 0.8859(2)
C18 C -0.2994(3) 0.8688(2) 0.9499(3)
H1 H -0.0196 0.8142 0.7855
H2 H -0.0594 0.9653 0.7262
H3 H -0.1388 0.9285 0.6143
H4 H 0.0234 1.1289 0.5695
H5 H 0.1339 1.2233 0.4363
H6 H 0.2587 1.1504 0.3006
H7 H 0.2880 0.9834 0.3051
H8 H 0.0960 0.6768 0.3906
H9 H -0.0322 0.7024 0.3904
H10 H -0.1268 0.4152 0.4255
H11 H -0.0585 0.3935 0.2932
H12 H 0.0025 0.3853 0.4301
H13 H 0.2834 0.5623 0.7069
H14 H 0.3783 0.6106 0.6110
H15 H 0.3454 0.6705 0.7296
H16 H -0.3135 0.8046 0.9837
H17 H -0.2990 0.9191 1.0140
H18 H -0.3532 0.8858 0.8952
H19 H -0.0745 0.6904 0.6632
H20 H 0.2084 0.8136 0.4027
loop_
_geom_bond_atom_site_label_1
_geom_bond_atom_site_label_2
_geom_bond_site_symmetry_1
_geom_bond_site_symmetry_2
N1 C1 1_555 1_555
C1 C2 1_555 1_555
C2 N2 1_555 1_555
N2 C3 1_555 1_555
C3 C4 1_555 1_555
C4 C5 1_555 1_555
C5 C1 1_555 1_555
C6 C5 1_555 1_555
C7 C6 1_555 1_555
C8 C7 1_555 1_555
C9 C8 1_555 1_555
C10 C9 1_555 1_555
C11 N1 1_555 1_555
C12 C2 1_555 1_555
C13 C12 1_555 1_555
O1 C13 1_555 1_555
O2 C13 1_555 1_555
C14 O2 1_555 1_555
C15 C2 1_555 1_555
O3 C15 1_555 1_555
O4 C15 1_555 1_555
C16 O4 1_555 1_555
C17 C3 1_555 1_555
O5 C17 1_555 1_555
O6 C17 1_555 1_555
C18 O6 1_555 1_555
H1 C3 1_555 1_555
H2 C4 1_555 1_555
H3 C4 1_555 1_555
H4 C7 1_555 1_555
H5 C8 1_555 1_555
H6 C9 1_555 1_555
H7 C10 1_555 1_555
H8 C12 1_555 1_555
H9 C12 1_555 1_555
H10 C14 1_555 1_555
H11 C14 1_555 1_555
H12 C14 1_555 1_555
H13 C16 1_555 1_555
H14 C16 1_555 1_555
H15 C16 1_555 1_555
H16 C18 1_555 1_555
H17 C18 1_555 1_555
H18 C18 1_555 1_555
H19 N2 1_555 1_555
H20 N1 1_555 1_555
C6 C11 1_555 1_555
C10 C11 1_555 1_555

#END
