
#######################################################################
#
#                 Cambridge Crystallographic Data Centre
#                                CCDC 
#
#######################################################################
#
# If this CIF has been generated from an entry in the Cambridge 
# Structural Database, then it will include bibliographic, chemical, 
# crystal, experimental, refinement or atomic coordinate data resulting 
# from the CCDC's data processing and validation procedures.
#
#######################################################################

data_DAYFAL
_chemical_name_common            'methyl alpha-lactoside'
_chemical_formula_moiety         'C13 H24 O11'
_chemical_name_systematic        
'methyl 4-O-\b-D-galactopyranosyl-\a-D-glucopyranoside'
_symmetry_cell_setting           monoclinic
_symmetry_space_group_name_H-M   'C 2'
_symmetry_Int_Tables_number      5
_space_group_name_Hall           'C 2y'
loop_
_symmetry_equiv_pos_site_id
_symmetry_equiv_pos_as_xyz
1 x,y,z
2 -x,y,-z
3 1/2+x,1/2+y,z
4 1/2-x,1/2+y,-z
_cell_length_a                   14.6984(3)
_cell_length_b                   5.00610(10)
_cell_length_c                   21.1204(5)
_cell_angle_alpha                90
_cell_angle_beta                 96.5502(12)
_cell_angle_gamma                90
_cell_volume                     1543.93
_exptl_crystal_colour            colorless
_exptl_crystal_description       needle
_cell_formula_units_Z            4
_exptl_crystal_recrystallization_method methanol
loop_
_atom_site_label
_atom_site_type_symbol
_atom_site_fract_x
_atom_site_fract_y
_atom_site_fract_z
C1 C 0.69499(8) -0.0078(3) 0.18864(6)
H1 H 0.6897 0.1776 0.1709
C2 C 0.77456(8) -0.1537(3) 0.16277(6)
H2 H 0.7762 -0.3456 0.1760
C3 C 0.75616(8) -0.1286(3) 0.08958(6)
H3 H 0.7533 0.0668 0.0797
C4 C 0.66199(9) -0.2462(3) 0.06414(6)
H4 H 0.6477 -0.1926 0.0185
C5 C 0.58682(8) -0.1354(3) 0.10148(6)
H5 H 0.5754 0.0560 0.0896
C6 C 0.49729(9) -0.2886(3) 0.09011(6)
H6 H 0.4798 -0.3125 0.0438
H7 H 0.5045 -0.4674 0.1101
C7 C 0.61032(9) 0.4679(3) 0.39531(6)
H8 H 0.5912 0.6283 0.4188
C8 C 0.54148(9) 0.4242(3) 0.33643(6)
H9 H 0.5422 0.5877 0.3093
C9 C 0.57005(9) 0.1893(3) 0.29744(6)
H10 H 0.5680 0.0213 0.3229
C10 C 0.66794(9) 0.2367(3) 0.28202(6)
H11 H 0.6683 0.3889 0.2514
C11 C 0.73327(9) 0.2988(3) 0.34186(6)
H12 H 0.7423 0.1358 0.3692
C12 C 0.82460(9) 0.3937(3) 0.32343(6)
H13 H 0.8443 0.2735 0.2903
H14 H 0.8173 0.5753 0.3050
C13 C 0.64991(14) 0.2851(5) 0.49772(7)
H15 H 0.7156 0.3133 0.4964
H16 H 0.6406 0.1282 0.5240
H17 H 0.6234 0.4427 0.5161
O1 O 0.70545(6) 0.0019(2) 0.25464(4)
O2 O 0.85833(6) -0.0244(2) 0.18499(5)
H18 H 0.8929 -0.1323 0.2066
O3 O 0.82630(7) -0.2370(2) 0.05616(4)
H19 H 0.8509 -0.3669 0.0767
O4 O 0.66407(7) -0.5309(2) 0.06738(5)
H20 H 0.6660 -0.5939 0.0307
O5 O 0.61288(6) -0.1533(2) 0.16915(4)
O6 O 0.42756(7) -0.1416(2) 0.11727(5)
H21 H 0.4012 -0.2424 0.1412
O7 O 0.60613(8) 0.2429(3) 0.43431(5)
O8 O 0.45171(7) 0.3967(2) 0.35413(5)
H22 H 0.4450 0.2419 0.3682
O9 O 0.50573(7) 0.1704(3) 0.24129(5)
H23 H 0.5200 0.0416 0.2189
O10 O 0.69893(7) 0.5137(2) 0.37744(5)
O11 O 0.89376(7) 0.3986(2) 0.37696(5)
H24 H 0.9160 0.2449 0.3830
loop_
_geom_bond_atom_site_label_1
_geom_bond_atom_site_label_2
_geom_bond_site_symmetry_1
_geom_bond_site_symmetry_2
C1 H1 1_555 1_555
C2 C1 1_555 1_555
H2 C2 1_555 1_555
C3 C2 1_555 1_555
H3 C3 1_555 1_555
C4 C3 1_555 1_555
H4 C4 1_555 1_555
C5 C4 1_555 1_555
H5 C5 1_555 1_555
C6 C5 1_555 1_555
H6 C6 1_555 1_555
H7 C6 1_555 1_555
C7 H8 1_555 1_555
C8 C7 1_555 1_555
H9 C8 1_555 1_555
C9 C8 1_555 1_555
H10 C9 1_555 1_555
C10 C9 1_555 1_555
H11 C10 1_555 1_555
C11 C10 1_555 1_555
H12 C11 1_555 1_555
C12 C11 1_555 1_555
H13 C12 1_555 1_555
H14 C12 1_555 1_555
C13 H15 1_555 1_555
H16 C13 1_555 1_555
H17 C13 1_555 1_555
O1 C1 1_555 1_555
O2 C2 1_555 1_555
H18 O2 1_555 1_555
O3 C3 1_555 1_555
H19 O3 1_555 1_555
O4 C4 1_555 1_555
H20 O4 1_555 1_555
O5 C1 1_555 1_555
O6 C6 1_555 1_555
H21 O6 1_555 1_555
O7 C7 1_555 1_555
O8 C8 1_555 1_555
H22 O8 1_555 1_555
O9 C9 1_555 1_555
H23 O9 1_555 1_555
O10 C7 1_555 1_555
O11 C12 1_555 1_555
H24 O11 1_555 1_555
C5 O5 1_555 1_555
C10 O1 1_555 1_555
C11 O10 1_555 1_555
C13 O7 1_555 1_555

#END
