
#######################################################################
#
#                 Cambridge Crystallographic Data Centre
#                                CCDC 
#
#######################################################################
#
# If this CIF has been generated from an entry in the Cambridge 
# Structural Database, then it will include bibliographic, chemical, 
# crystal, experimental, refinement or atomic coordinate data resulting 
# from the CCDC's data processing and validation procedures.
#
#######################################################################

data_DAYKIA
_chemical_formula_moiety         'C28 H22 N6'
_chemical_name_systematic        
2,2'-[naphthalene-2,7-diylbis(methylene-1H-pyrazole-1,3-diyl)]dipyridine
_symmetry_cell_setting           orthorhombic
_symmetry_space_group_name_H-M   'P 21 21 21'
_symmetry_Int_Tables_number      19
_space_group_name_Hall           'P 2ac 2ab'
loop_
_symmetry_equiv_pos_site_id
_symmetry_equiv_pos_as_xyz
1 x,y,z
2 1/2+x,1/2-y,-z
3 -x,1/2+y,1/2-z
4 1/2-x,-y,1/2+z
_cell_length_a                   4.9279(14)
_cell_length_b                   11.578(4)
_cell_length_c                   38.138(12)
_cell_angle_alpha                90
_cell_angle_beta                 90
_cell_angle_gamma                90
_cell_volume                     2175.97
_exptl_crystal_colour            colorless
_exptl_crystal_description       shard
_cell_formula_units_Z            4
_exptl_crystal_recrystallization_method dichloromethane
_exptl_crystal_preparation       ', Luminescent'
loop_
_atom_site_label
_atom_site_type_symbol
_atom_site_fract_x
_atom_site_fract_y
_atom_site_fract_z
N1 N 0.6419(13) 0.4980(6) 1.07552(17)
C1 C 0.7093(16) 0.5483(7) 1.0451(2)
C2 C 0.5950(17) 0.6510(8) 1.0338(2)
H1 H 0.6535 0.6861 1.0126
C3 C 0.3926(17) 0.7019(8) 1.0540(2)
H2 H 0.3098 0.7721 1.0469
C4 C 0.3157(17) 0.6487(8) 1.0845(2)
H3 H 0.1751 0.6803 1.0985
C5 C 0.4453(16) 0.5485(8) 1.0944(2)
H4 H 0.3924 0.5132 1.1158
N2 N 1.1842(12) 0.4535(6) 0.98167(17)
N3 N 0.9814(12) 0.5267(6) 0.99208(17)
C6 C 0.9173(16) 0.4895(7) 1.0247(2)
C7 C 1.0752(17) 0.3952(7) 1.0342(2)
H5 H 1.0686 0.3539 1.0557
C8 C 1.2420(17) 0.3739(8) 1.0062(2)
H6 H 1.3736 0.3142 1.0045
C9 C 1.2961(15) 0.4674(8) 0.94657(18)
H7 H 1.4651 0.4217 0.9446
H8 H 1.3427 0.5496 0.9427
N4 N 0.8199(13) 1.0692(6) 0.81315(17)
C10 C 0.8077(15) 0.9661(7) 0.7977(2)
C11 C 0.9715(15) 0.9341(8) 0.7698(2)
H9 H 0.9524 0.8604 0.7592
C12 C 1.1654(15) 1.0125(8) 0.7577(2)
H10 H 1.2845 0.9925 0.7391
C13 C 1.1804(16) 1.1190(7) 0.7733(2)
H11 H 1.3075 1.1749 0.7654
C14 C 1.0069(16) 1.1433(7) 0.8007(2)
H12 H 1.0204 1.2170 0.8115
N5 N 0.3547(12) 0.7369(6) 0.81455(17)
N6 N 0.5668(12) 0.7832(6) 0.79635(17)
C15 C 0.6008(14) 0.8872(7) 0.8115(2)
C16 C 0.4182(15) 0.9065(7) 0.8392(2)
H13 H 0.4039 0.9727 0.8537
C17 C 0.2665(15) 0.8083(6) 0.8402(2)
H14 H 0.1234 0.7926 0.8562
C18 C 0.2784(15) 0.6191(7) 0.8078(2)
H15 H 0.3025 0.6028 0.7825
H16 H 0.0835 0.6094 0.8134
C19 C 0.9680(15) 0.5123(8) 0.8988(2)
H17 H 1.0091 0.5917 0.9021
C20 C 1.0988(15) 0.4289(8) 0.9188(2)
C21 C 1.0407(16) 0.3113(8) 0.9131(2)
H18 H 1.1314 0.2544 0.9266
C22 C 0.8553(15) 0.2776(8) 0.8883(2)
H19 H 0.8203 0.1977 0.8847
C23 C 0.6312(14) 0.5638(7) 0.85333(19)
H20 H 0.6688 0.6434 0.8570
C24 C 0.4399(16) 0.5318(7) 0.8287(2)
C25 C 0.3940(16) 0.4124(7) 0.8230(2)
H21 H 0.2685 0.3897 0.8054
C26 C 0.5231(16) 0.3291(7) 0.8419(2)
H22 H 0.4853 0.2499 0.8377
C27 C 0.7147(16) 0.3619(7) 0.8678(2)
C28 C 0.7723(15) 0.4790(7) 0.8732(2)
loop_
_geom_bond_atom_site_label_1
_geom_bond_atom_site_label_2
_geom_bond_site_symmetry_1
_geom_bond_site_symmetry_2
N1 C1 1_555 1_555
C1 C2 1_555 1_555
C2 H1 1_555 1_555
C3 C2 1_555 1_555
H2 C3 1_555 1_555
C4 C3 1_555 1_555
H3 C4 1_555 1_555
C5 N1 1_555 1_555
H4 C5 1_555 1_555
N2 N3 1_555 1_555
N3 C6 1_555 1_555
C6 C1 1_555 1_555
C7 C6 1_555 1_555
H5 C7 1_555 1_555
C8 N2 1_555 1_555
H6 C8 1_555 1_555
C9 N2 1_555 1_555
H7 C9 1_555 1_555
H8 C9 1_555 1_555
N4 C10 1_555 1_555
C10 C11 1_555 1_555
C11 H9 1_555 1_555
C12 C11 1_555 1_555
H10 C12 1_555 1_555
C13 C12 1_555 1_555
H11 C13 1_555 1_555
C14 N4 1_555 1_555
H12 C14 1_555 1_555
N5 N6 1_555 1_555
N6 C15 1_555 1_555
C15 C10 1_555 1_555
C16 C15 1_555 1_555
H13 C16 1_555 1_555
C17 N5 1_555 1_555
H14 C17 1_555 1_555
C18 N5 1_555 1_555
H15 C18 1_555 1_555
H16 C18 1_555 1_555
C19 H17 1_555 1_555
C20 C9 1_555 1_555
C21 C20 1_555 1_555
H18 C21 1_555 1_555
C22 C21 1_555 1_555
H19 C22 1_555 1_555
C23 H20 1_555 1_555
C24 C18 1_555 1_555
C25 C24 1_555 1_555
H21 C25 1_555 1_555
C26 C25 1_555 1_555
H22 C26 1_555 1_555
C27 C22 1_555 1_555
C28 C19 1_555 1_555
C4 C5 1_555 1_555
C7 C8 1_555 1_555
C13 C14 1_555 1_555
C16 C17 1_555 1_555
C19 C20 1_555 1_555
C23 C24 1_555 1_555
C23 C28 1_555 1_555
C26 C27 1_555 1_555
C27 C28 1_555 1_555

#END
