
#######################################################################
#
#                 Cambridge Crystallographic Data Centre
#                                CCDC 
#
#######################################################################
#
# If this CIF has been generated from an entry in the Cambridge 
# Structural Database, then it will include bibliographic, chemical, 
# crystal, experimental, refinement or atomic coordinate data resulting 
# from the CCDC's data processing and validation procedures.
#
#######################################################################

data_DAZBAJ
_chemical_formula_moiety         'C16 H14 O3'
_chemical_name_systematic        1-Butylindeno[2,1-c]pyran-3,9-dione
_symmetry_cell_setting           triclinic
_symmetry_space_group_name_H-M   'P -1'
_symmetry_Int_Tables_number      2
_space_group_name_Hall           '-P 1'
loop_
_symmetry_equiv_pos_site_id
_symmetry_equiv_pos_as_xyz
1 x,y,z
2 -x,-y,-z
_cell_length_a                   5.3708(2)
_cell_length_b                   7.2029(3)
_cell_length_c                   16.9507(8)
_cell_angle_alpha                96.461(2)
_cell_angle_beta                 93.246(2)
_cell_angle_gamma                110.029(2)
_cell_volume                     608.982
_exptl_crystal_colour            colorless
_exptl_crystal_description       irregular
_cell_formula_units_Z            2
loop_
_atom_site_label
_atom_site_type_symbol
_atom_site_fract_x
_atom_site_fract_y
_atom_site_fract_z
O1 O 0.3331(2) 0.67093(18) 0.29843(7)
O2 O 0.5366(2) 0.71270(19) 0.42052(7)
O3 O -0.2151(2) 0.86789(19) 0.14982(7)
C1 C 0.3900(4) 0.7650(3) 0.37911(10)
C2 C 0.2712(3) 0.9115(3) 0.40094(10)
H1 H 0.3046 0.9803 0.4538
C3 C 0.1122(3) 0.9510(3) 0.34607(10)
C4 C -0.0241(3) 1.0975(3) 0.35064(10)
C5 C -0.0283(4) 1.2378(3) 0.41299(11)
H2 H 0.0681 1.2520 0.4634
C6 C -0.1772(4) 1.3568(3) 0.39975(11)
H3 H -0.1855 1.4520 0.4422
C7 C -0.3154(4) 1.3399(3) 0.32539(11)
H4 H -0.4145 1.4244 0.3178
C8 C -0.3092(4) 1.2009(3) 0.26266(11)
H5 H -0.4023 1.1890 0.2119
C9 C -0.1631(3) 1.0795(3) 0.27606(10)
C10 C -0.1218(3) 0.9212(3) 0.21951(10)
C11 C 0.0560(3) 0.8461(3) 0.26607(10)
C12 C 0.1700(3) 0.7116(3) 0.24340(10)
C13 C 0.1431(4) 0.6016(3) 0.16156(10)
H6 H 0.2245 0.7004 0.1258
H7 H -0.0491 0.5401 0.1430
C14 C 0.2644(4) 0.4394(3) 0.15111(10)
H8 H 0.4586 0.4989 0.1669
H9 H 0.1864 0.3390 0.1866
C15 C 0.2150(4) 0.3371(3) 0.06527(11)
H10 H 0.2864 0.4391 0.0298
H11 H 0.0205 0.2744 0.0504
C16 C 0.3418(4) 0.1780(3) 0.05116(11)
H12 H 0.3027 0.1179 -0.0050
H13 H 0.2692 0.0745 0.0851
H14 H 0.5351 0.2393 0.0644
loop_
_geom_bond_atom_site_label_1
_geom_bond_atom_site_label_2
_geom_bond_site_symmetry_1
_geom_bond_site_symmetry_2
O1 C1 1_555 1_555
O2 C1 1_555 1_555
O3 C10 1_555 1_555
C1 C2 1_555 1_555
C2 H1 1_555 1_555
C3 C2 1_555 1_555
C4 C3 1_555 1_555
C5 C4 1_555 1_555
H2 C5 1_555 1_555
C6 C5 1_555 1_555
H3 C6 1_555 1_555
C7 C6 1_555 1_555
H4 C7 1_555 1_555
C8 C7 1_555 1_555
H5 C8 1_555 1_555
C9 C4 1_555 1_555
C10 C9 1_555 1_555
C11 C3 1_555 1_555
C12 O1 1_555 1_555
C13 C12 1_555 1_555
H6 C13 1_555 1_555
H7 C13 1_555 1_555
C14 C13 1_555 1_555
H8 C14 1_555 1_555
H9 C14 1_555 1_555
C15 C14 1_555 1_555
H10 C15 1_555 1_555
H11 C15 1_555 1_555
C16 C15 1_555 1_555
H12 C16 1_555 1_555
H13 C16 1_555 1_555
H14 C16 1_555 1_555
C8 C9 1_555 1_555
C10 C11 1_555 1_555
C11 C12 1_555 1_555

#END
