
#######################################################################
#
#                 Cambridge Crystallographic Data Centre
#                                CCDC 
#
#######################################################################
#
# If this CIF has been generated from an entry in the Cambridge 
# Structural Database, then it will include bibliographic, chemical, 
# crystal, experimental, refinement or atomic coordinate data resulting 
# from the CCDC's data processing and validation procedures.
#
#######################################################################

data_DAZBIQ
_chemical_formula_moiety         'C12 H14 O5,H2 O1'
_chemical_name_systematic        
'Methyl 2-hydroxy-6-(2-methyl-1,3-dioxolan-2-yl)benzoate monohydrate'
_symmetry_cell_setting           monoclinic
_symmetry_space_group_name_H-M   'P 21/n'
_symmetry_Int_Tables_number      14
_space_group_name_Hall           '-P 2yn'
loop_
_symmetry_equiv_pos_site_id
_symmetry_equiv_pos_as_xyz
1 x,y,z
2 1/2-x,1/2+y,1/2-z
3 -x,-y,-z
4 1/2+x,1/2-y,1/2+z
_cell_length_a                   8.3939(10)
_cell_length_b                   15.8376(19)
_cell_length_c                   9.9983(12)
_cell_angle_alpha                90
_cell_angle_beta                 109.821(2)
_cell_angle_gamma                90
_cell_volume                     1250.42
_exptl_crystal_colour            colorless
_exptl_crystal_description       block
_cell_formula_units_Z            4
_exptl_crystal_recrystallization_method 'isopropyl ether'
loop_
_atom_site_label
_atom_site_type_symbol
_atom_site_fract_x
_atom_site_fract_y
_atom_site_fract_z
C1 C 0.4520(2) 0.13135(10) 0.74434(16)
C2 C 0.5828(2) 0.18882(11) 0.79866(18)
H1 H 0.6634 0.1964 0.7548
C3 C 0.5920(2) 0.23434(10) 0.9177(2)
H2 H 0.6799 0.2726 0.9547
C4 C 0.4723(2) 0.22425(10) 0.98383(18)
H3 H 0.4804 0.2557 1.0644
C5 C 0.34069(19) 0.16728(9) 0.93007(15)
C6 C 0.33103(18) 0.12021(9) 0.80984(16)
C7 C 0.1924(2) 0.05724(10) 0.74670(16)
C8 C 0.1237(3) -0.08791(13) 0.7363(3)
H4 H 0.0410 -0.0817 0.7824
H5 H 0.1792 -0.1415 0.7611
H6 H 0.0687 -0.0850 0.6351
C9 C 0.0603(2) 0.22007(12) 0.9366(2)
H7 H 0.0087 0.2086 0.8369
H8 H 0.1023 0.2769 0.9496
H9 H -0.0222 0.2132 0.9828
C10 C 0.20513(19) 0.15945(10) 1.00040(16)
C11 C 0.3438(3) 0.09715(13) 1.2127(2)
H10 H 0.3192 0.0886 1.2997
H11 H 0.4656 0.0958 1.2347
C12 C 0.2590(3) 0.03046(12) 1.10458(19)
H12 H 0.3412 0.0009 1.0731
H13 H 0.2006 -0.0102 1.1439
O1 O 0.43534(17) 0.08397(9) 0.62630(14)
H14 H 0.521(2) 0.0829(16) 0.604(3)
O2 O 0.24740(15) -0.02094(7) 0.78169(13)
O3 O 0.05202(16) 0.07534(9) 0.66989(14)
O4 O 0.27572(15) 0.17512(8) 1.14829(12)
O5 O 0.14156(14) 0.07610(7) 0.98974(12)
O6 O 0.70036(17) 0.06429(10) 0.53946(15)
H15 H 0.8034(15) 0.0683(17) 0.588(3)
H16 H 0.679(3) 0.0238(12) 0.485(2)
loop_
_geom_bond_atom_site_label_1
_geom_bond_atom_site_label_2
_geom_bond_site_symmetry_1
_geom_bond_site_symmetry_2
C1 C2 1_555 1_555
C2 H1 1_555 1_555
C3 C2 1_555 1_555
H2 C3 1_555 1_555
C4 C3 1_555 1_555
H3 C4 1_555 1_555
C5 C4 1_555 1_555
C6 C1 1_555 1_555
C7 C6 1_555 1_555
C8 H4 1_555 1_555
H5 C8 1_555 1_555
H6 C8 1_555 1_555
C9 H7 1_555 1_555
H8 C9 1_555 1_555
H9 C9 1_555 1_555
C10 C5 1_555 1_555
C11 H10 1_555 1_555
H11 C11 1_555 1_555
C12 C11 1_555 1_555
H12 C12 1_555 1_555
H13 C12 1_555 1_555
O1 C1 1_555 1_555
H14 O1 1_555 1_555
O2 C7 1_555 1_555
O3 C7 1_555 1_555
O4 C10 1_555 1_555
O5 C10 1_555 1_555
O6 H15 1_555 1_555
H16 O6 1_555 1_555
C5 C6 1_555 1_555
C8 O2 1_555 1_555
C9 C10 1_555 1_555
C11 O4 1_555 1_555
C12 O5 1_555 1_555

#END
