
#######################################################################
#
#                 Cambridge Crystallographic Data Centre
#                                CCDC 
#
#######################################################################
#
# If this CIF has been generated from an entry in the Cambridge 
# Structural Database, then it will include bibliographic, chemical, 
# crystal, experimental, refinement or atomic coordinate data resulting 
# from the CCDC's data processing and validation procedures.
#
#######################################################################

data_DAZGAO
_chemical_formula_moiety         'C22 H17 Cl1 O5'
_chemical_name_systematic        
'Ethyl 3a-(4-chlorobenzoyl)-4-oxo-3,3a,4,9b-tetrahydrocyclopenta[c]chromene-1-carboxylate'
_symmetry_cell_setting           triclinic
_symmetry_space_group_name_H-M   'P -1'
_symmetry_Int_Tables_number      2
_space_group_name_Hall           '-P 1'
loop_
_symmetry_equiv_pos_site_id
_symmetry_equiv_pos_as_xyz
1 x,y,z
2 -x,-y,-z
_cell_length_a                   9.7129(16)
_cell_length_b                   10.5113(17)
_cell_length_c                   10.7041(17)
_cell_angle_alpha                107.550(2)
_cell_angle_beta                 105.744(2)
_cell_angle_gamma                98.461(2)
_cell_volume                     971.165
_exptl_crystal_colour            colorless
_exptl_crystal_description       block
_cell_formula_units_Z            2
loop_
_atom_site_label
_atom_site_type_symbol
_atom_site_fract_x
_atom_site_fract_y
_atom_site_fract_z
C1 C 0.7249(2) 0.3583(2) 0.2791(2)
C2 C 0.6540(3) 0.4576(2) 0.3271(2)
H1 H 0.7006 0.5506 0.3576
C3 C 0.5140(2) 0.4174(2) 0.3294(2)
H2 H 0.4654 0.4839 0.3606
C4 C 0.4434(2) 0.27791(19) 0.28546(18)
C5 C 0.5183(2) 0.1809(2) 0.2373(2)
H3 H 0.4730 0.0876 0.2073
C6 C 0.6579(2) 0.2207(2) 0.2334(2)
H4 H 0.7064 0.1549 0.2002
C7 C 0.2919(2) 0.2450(2) 0.2940(2)
C8 C 0.2117(2) 0.09473(19) 0.26384(19)
C9 C 0.0596(2) 0.0930(2) 0.2846(2)
H5 H 0.0162 0.1615 0.2561
H6 H -0.0086 0.0029 0.2340
C10 C 0.1020(2) 0.1282(2) 0.4392(2)
H7 H 0.0452 0.1638 0.4918
C11 C 0.2306(2) 0.10221(18) 0.49130(19)
C12 C 0.29314(19) 0.04117(18) 0.37720(17)
H8 H 0.4003 0.0782 0.4084
C13 C 0.1919(2) 0.0107(2) 0.1153(2)
C14 C 0.2525(2) -0.11523(18) 0.32111(18)
C15 C 0.2043(2) -0.1880(2) 0.1793(2)
C16 C 0.1701(3) -0.3312(2) 0.1242(2)
H9 H 0.1381 -0.3775 0.0285
C17 C 0.1843(3) -0.4031(2) 0.2126(3)
H10 H 0.1625 -0.4989 0.1770
C18 C 0.2305(3) -0.3340(2) 0.3538(2)
H11 H 0.2393 -0.3831 0.4136
C19 C 0.2637(2) -0.1920(2) 0.4071(2)
H12 H 0.2945 -0.1466 0.5029
C20 C 0.3107(2) 0.12863(19) 0.6392(2)
C21 C 0.3387(8) 0.2474(8) 0.8711(4)
H13 H 0.4411 0.2902 0.8891
H14 H 0.3347 0.1686 0.9005
C22 C 0.2670(8) 0.3482(5) 0.9448(4)
H15 H 0.2909 0.4334 0.9303
H16 H 0.3024 0.3644 1.0425
H17 H 0.1618 0.3116 0.9088
Cl1 Cl 0.90346(7) 0.41042(8) 0.28066(9)
O1 O 0.23310(19) 0.33677(16) 0.3289(2)
O2 O 0.1761(2) 0.05859(18) 0.02552(15)
O3 O 0.1901(2) -0.12368(15) 0.08106(14)
O4 O 0.41794(19) 0.08841(17) 0.67872(15)
O5 O 0.2519(2) 0.20562(18) 0.72295(15)
C23? C 0.288(2) 0.240(2) 0.8717(10)
C24? C 0.406(2) 0.3743(15) 0.9351(13)
H18? H 0.3257 0.1694 0.9002
H19? H 0.2023 0.2517 0.8992
H20? H 0.4923 0.3595 0.9120
H21? H 0.4299 0.4079 1.0343
H22? H 0.3694 0.4409 0.8992
loop_
_geom_bond_atom_site_label_1
_geom_bond_atom_site_label_2
_geom_bond_site_symmetry_1
_geom_bond_site_symmetry_2
C1 C2 1_555 1_555
C2 H1 1_555 1_555
C3 C2 1_555 1_555
H2 C3 1_555 1_555
C4 C3 1_555 1_555
C5 C4 1_555 1_555
H3 C5 1_555 1_555
C6 C1 1_555 1_555
H4 C6 1_555 1_555
C7 C4 1_555 1_555
C8 C7 1_555 1_555
C9 C8 1_555 1_555
H5 C9 1_555 1_555
H6 C9 1_555 1_555
C10 C9 1_555 1_555
H7 C10 1_555 1_555
C11 C10 1_555 1_555
C12 C8 1_555 1_555
H8 C12 1_555 1_555
C13 C8 1_555 1_555
C14 C12 1_555 1_555
C15 C14 1_555 1_555
C16 C15 1_555 1_555
H9 C16 1_555 1_555
C17 C16 1_555 1_555
H10 C17 1_555 1_555
C18 C17 1_555 1_555
H11 C18 1_555 1_555
C19 C14 1_555 1_555
H12 C19 1_555 1_555
C20 C11 1_555 1_555
C21 H13 1_555 1_555
H14 C21 1_555 1_555
C22 C21 1_555 1_555
H15 C22 1_555 1_555
H16 C22 1_555 1_555
H17 C22 1_555 1_555
Cl1 C1 1_555 1_555
O1 C7 1_555 1_555
O2 C13 1_555 1_555
O3 C13 1_555 1_555
O4 C20 1_555 1_555
O5 C20 1_555 1_555
C5 C6 1_555 1_555
C11 C12 1_555 1_555
C15 O3 1_555 1_555
C18 C19 1_555 1_555
C21 O5 1_555 1_555

#END
