
#######################################################################
#
#                 Cambridge Crystallographic Data Centre
#                                CCDC 
#
#######################################################################
#
# If this CIF has been generated from an entry in the Cambridge 
# Structural Database, then it will include bibliographic, chemical, 
# crystal, experimental, refinement or atomic coordinate data resulting 
# from the CCDC's data processing and validation procedures.
#
#######################################################################

data_DAZJAS
_chemical_formula_moiety         'C32 H27 Br1 O2'
_chemical_name_systematic        
'[6-bromo-4-(4-ethylphenyl)-2-phenyl-1,2-dihydronaphthalen-1-yl](4-methoxyphenyl)methanone'
_symmetry_cell_setting           monoclinic
_symmetry_space_group_name_H-M   'P 21'
_symmetry_Int_Tables_number      4
_space_group_name_Hall           'P 2yb'
loop_
_symmetry_equiv_pos_site_id
_symmetry_equiv_pos_as_xyz
1 x,y,z
2 -x,1/2+y,-z
_cell_length_a                   9.624(4)
_cell_length_b                   31.096(16)
_cell_length_c                   13.229(7)
_cell_angle_alpha                90
_cell_angle_beta                 91.141(10)
_cell_angle_gamma                90
_cell_volume                     3958.23
_exptl_crystal_colour            white
_exptl_crystal_description       Prism
_cell_formula_units_Z            6
loop_
_atom_site_label
_atom_site_type_symbol
_atom_site_fract_x
_atom_site_fract_y
_atom_site_fract_z
Br1 Br 0.81325(16) 0.33995(7) -0.15322(13)
O1 O 0.6811(13) 0.2631(4) 0.5266(9)
O2 O 0.3636(11) 0.4094(3) 0.2777(9)
C1 C 0.162(3) 0.2949(9) -0.5346(18)
H1 H 0.261401 0.298298 -0.532313
H2 H 0.118675 0.322588 -0.532050
H3 H 0.135001 0.280575 -0.596228
C2 C 0.118(3) 0.2685(7) -0.4463(15)
H4 H 0.157831 0.239943 -0.451324
H5 H 0.017835 0.265709 -0.447892
C3 C 0.1652(19) 0.2891(6) -0.3451(13)
C4 C 0.1255(17) 0.3292(6) -0.3166(12)
H6 H 0.071941 0.345872 -0.360980
C5 C 0.1628(14) 0.3455(5) -0.2242(10)
H7 H 0.136817 0.373475 -0.208077
C6 C 0.2377(12) 0.3218(4) -0.1541(9)
C7 C 0.2817(16) 0.2806(5) -0.1835(13)
H8 H 0.336546 0.263930 -0.139977
C8 C 0.2425(19) 0.2651(5) -0.2777(12)
H9 H 0.269388 0.237468 -0.295971
C9 C 0.2761(12) 0.3401(4) -0.0542(9)
C10 C 0.1800(12) 0.3573(4) 0.0062(10)
H10 H 0.087687 0.356720 -0.015843
C11 C 0.2127(12) 0.3776(4) 0.1077(9)
H11 H 0.238784 0.407623 0.095379
C12 C 0.3395(13) 0.3550(4) 0.1537(9)
H12 H 0.312372 0.324990 0.163913
C13 C 0.4552(13) 0.3545(4) 0.0782(10)
C14 C 0.5948(15) 0.3633(5) 0.1038(11)
H13 H 0.616999 0.371218 0.169962
C15 C 0.6999(15) 0.3608(5) 0.0350(12)
H14 H 0.791007 0.367689 0.053488
C16 C 0.6666(13) 0.3480(4) -0.0613(11)
C17 C 0.5324(12) 0.3405(4) -0.0899(9)
H15 H 0.512403 0.332258 -0.156192
C18 C 0.4234(12) 0.3450(3) -0.0221(9)
C19 C 0.3853(13) 0.3717(5) 0.2550(11)
C20 C 0.4554(13) 0.3423(5) 0.3289(9)
C21 C 0.5035(14) 0.3015(5) 0.3018(10)
H16 H 0.485897 0.291114 0.236903
C22 C 0.5758(17) 0.2768(5) 0.3697(13)
H17 H 0.605865 0.249627 0.350896
C23 C 0.6044(17) 0.2913(6) 0.4637(12)
C24 C 0.5580(17) 0.3301(5) 0.4942(11)
H18 H 0.576071 0.339230 0.560173
C25 C 0.4838(15) 0.3565(4) 0.4285(11)
H19 H 0.453063 0.383318 0.449684
C26 C 0.715(3) 0.2768(7) 0.6255(14)
H20 H 0.769453 0.255134 0.659148
H21 H 0.630761 0.281507 0.661931
H22 H 0.766671 0.303113 0.622777
C27 C 0.0894(12) 0.3780(4) 0.1780(9)
C28 C 0.0163(14) 0.3406(5) 0.1986(12)
H23 H 0.038537 0.314816 0.166999
C29 C -0.0930(16) 0.3425(6) 0.2688(13)
H24 H -0.138097 0.317288 0.287030
C30 C -0.1331(16) 0.3804(6) 0.3099(13)
H25 H -0.208572 0.381370 0.352723
C31 C -0.0627(18) 0.4163(6) 0.2882(14)
H26 H -0.088004 0.442129 0.318333
C32 C 0.0453(15) 0.4159(5) 0.2228(12)
H27 H 0.090354 0.441515 0.207872
Br2 Br -0.21847(16) 0.64720(6) 0.17173(14)
O3 O 0.0018(16) 0.7364(5) 0.9020(14)
O4 O 0.2271(11) 0.5894(3) 0.6041(8)
C33 C 0.644(2) 0.7159(8) -0.1191(14)
H28 H 0.671314 0.724794 -0.185285
H29 H 0.699766 0.691973 -0.097338
H30 H 0.656347 0.739347 -0.072568
C34 C 0.4951(18) 0.7030(6) -0.1225(12)
H31 H 0.483997 0.678496 -0.167327
H32 H 0.440163 0.726460 -0.150395
C35 C 0.4400(15) 0.6913(5) -0.0190(11)
C36 C 0.4560(15) 0.6495(5) 0.0169(12)
H33 H 0.494901 0.628809 -0.024673
C37 C 0.4154(15) 0.6379(5) 0.1131(11)
H34 H 0.428747 0.609709 0.134841
C38 C 0.3550(13) 0.6675(5) 0.1781(11)
C39 C 0.3363(18) 0.7079(5) 0.1403(13)
H35 H 0.293807 0.728422 0.180537
C40 C 0.3780(17) 0.7199(5) 0.0441(13)
H36 H 0.363354 0.748004 0.022375
C41 C 0.3183(13) 0.6544(4) 0.2826(9)
C42 C 0.4175(13) 0.6418(4) 0.3465(9)
H37 H 0.508746 0.642821 0.324802
C43 C 0.3928(13) 0.6259(4) 0.4519(10)
H38 H 0.372761 0.595100 0.447451
C44 C 0.2600(12) 0.6486(4) 0.4927(9)
H39 H 0.283646 0.678700 0.506506
C45 C 0.1408(11) 0.6480(4) 0.4147(9)
C46 C 0.0033(13) 0.6437(4) 0.4435(10)
H40 H -0.017794 0.640353 0.511396
C47 C -0.1018(14) 0.6443(4) 0.3707(12)
H41 H -0.193914 0.641675 0.389800
C48 C -0.0712(13) 0.6486(5) 0.2714(11)
C49 C 0.0648(13) 0.6531(4) 0.2394(10)
H42 H 0.084374 0.656340 0.171232
C50 C 0.1707(12) 0.6525(4) 0.3126(9)
C51 C 0.2190(14) 0.6279(5) 0.5922(10)
C52 C 0.1701(13) 0.6553(4) 0.6753(10)
C53 C 0.1685(15) 0.6398(6) 0.7717(12)
H43 H 0.202685 0.612450 0.785393
C54 C 0.1143(18) 0.6655(8) 0.8522(13)
H44 H 0.111655 0.655429 0.918362
C55 C 0.066(2) 0.7062(8) 0.826(2)
C56 C 0.067(2) 0.7215(7) 0.7331(18)
H45 H 0.031491 0.748594 0.718613
C57 C 0.1207(15) 0.6974(5) 0.6606(14)
H46 H 0.125657 0.709145 0.596121
C58 C 0.008(3) 0.7192(10) 0.9935(17)
H47 H -0.047221 0.735819 1.038523
H48 H 0.103159 0.719119 1.017493
H49 H -0.025861 0.690209 0.990773
C59 C 0.5146(13) 0.6314(4) 0.5219(10)
C60 C 0.5725(15) 0.6712(5) 0.5392(11)
H50 H 0.536235 0.694936 0.504836
C61 C 0.6837(17) 0.6771(6) 0.6065(13)
H51 H 0.719886 0.704456 0.617189
C62 C 0.7394(15) 0.6431(7) 0.6564(12)
H52 H 0.814012 0.646903 0.701242
C63 C 0.6838(16) 0.6028(5) 0.6397(12)
H53 H 0.721029 0.579163 0.673728
C64 C 0.5735(14) 0.5973(5) 0.5731(10)
H54 H 0.537910 0.569835 0.562512
Br3 Br 0.11774(13) 0.53479(5) 1.30951(11)
O5 O 0.2977(10) 0.4264(3) 0.5858(7)
O6 O 0.5645(10) 0.5639(3) 0.8800(7)
C65 C 0.857(3) 0.4320(6) 1.6489(15)
H55 H 0.897182 0.428837 1.715418
H56 H 0.925786 0.425964 1.599366
H57 H 0.780827 0.412191 1.640595
C66 C 0.8064(18) 0.4757(6) 1.6356(10)
H58 H 0.878671 0.495430 1.658006
H59 H 0.727199 0.479883 1.678783
C67 C 0.7620(14) 0.4874(5) 1.5240(9)
C68 C 0.8197(13) 0.5216(4) 1.4729(10)
H60 H 0.886175 0.538792 1.504830
C69 C 0.7793(11) 0.5300(4) 1.3760(10)
H61 H 0.818122 0.553462 1.343339
C70 C 0.6826(11) 0.5051(4) 1.3239(9)
C71 C 0.6202(12) 0.4718(4) 1.3768(10)
H62 H 0.551664 0.455077 1.345525
C72 C 0.6599(13) 0.4636(4) 1.4747(9)
H63 H 0.616869 0.441403 1.509300
C73 C 0.6505(11) 0.5138(4) 1.2147(8)
C74 C 0.7514(12) 0.5189(4) 1.1469(9)
H64 H 0.843221 0.516063 1.169032
C75 C 0.7235(11) 0.5291(4) 1.0369(8)
H65 H 0.713015 0.560359 1.030567
C76 C 0.5842(12) 0.5079(4) 1.0004(9)
H66 H 0.598891 0.476807 0.993842
C77 C 0.4686(12) 0.5155(4) 1.0745(9)
C78 C 0.3311(13) 0.5198(4) 1.0444(11)
H67 H 0.308148 0.518906 0.975784
C79 C 0.2262(11) 0.5255(5) 1.1137(10)
H68 H 0.133979 0.528027 1.092126
C80 C 0.2605(11) 0.5274(4) 1.2129(9)
C81 C 0.3960(11) 0.5239(3) 1.2462(9)
H69 H 0.416927 0.526478 1.314823
C82 C 0.5018(12) 0.5166(3) 1.1792(10)
C83 C 0.5439(12) 0.5261(4) 0.8968(9)
C84 C 0.4807(12) 0.4990(4) 0.8170(9)
C85 C 0.4810(13) 0.4535(5) 0.8196(9)
H70 H 0.523100 0.438938 0.873470
C86 C 0.4177(14) 0.4310(4) 0.7408(10)
H71 H 0.417918 0.401079 0.742652
C87 C 0.3547(13) 0.4515(4) 0.6601(9)
C88 C 0.3549(13) 0.4963(5) 0.6575(9)
H72 H 0.312057 0.510674 0.603750
C89 C 0.4181(12) 0.5192(4) 0.7341(9)
H73 H 0.419036 0.549023 0.730511
C90 C 0.2316(18) 0.4464(6) 0.5016(11)
H74 H 0.181844 0.425133 0.462655
H75 H 0.300330 0.459692 0.460361
H76 H 0.167917 0.467785 0.524811
C91 C 0.8438(12) 0.5157(4) 0.9732(9)
C92 C 0.8972(13) 0.4743(5) 0.9815(11)
H77 H 0.858696 0.454813 1.026473
C93 C 1.0071(17) 0.4621(6) 0.9230(14)
H78 H 1.045210 0.434817 0.930935
C94 C 1.0614(17) 0.4899(8) 0.8530(13)
H79 H 1.134118 0.481042 0.812604
C95 C 1.0096(17) 0.5293(7) 0.8434(13)
H80 H 1.047098 0.547966 0.796314
C96 C 0.9002(14) 0.5430(5) 0.9024(11)
H81 H 0.864824 0.570691 0.894246
loop_
_geom_bond_atom_site_label_1
_geom_bond_atom_site_label_2
_geom_bond_site_symmetry_1
_geom_bond_site_symmetry_2
Br1 C16 1_555 1_555
O1 C23 1_555 1_555
O2 C19 1_555 1_555
C1 H1 1_555 1_555
H2 C1 1_555 1_555
H3 C1 1_555 1_555
C2 C1 1_555 1_555
H4 C2 1_555 1_555
H5 C2 1_555 1_555
C3 C2 1_555 1_555
C4 C3 1_555 1_555
H6 C4 1_555 1_555
C5 C4 1_555 1_555
H7 C5 1_555 1_555
C6 C5 1_555 1_555
C7 C6 1_555 1_555
H8 C7 1_555 1_555
C8 C3 1_555 1_555
H9 C8 1_555 1_555
C9 C6 1_555 1_555
C10 C9 1_555 1_555
H10 C10 1_555 1_555
C11 C10 1_555 1_555
H11 C11 1_555 1_555
C12 C11 1_555 1_555
H12 C12 1_555 1_555
C13 C12 1_555 1_555
C14 C13 1_555 1_555
H13 C14 1_555 1_555
C15 C14 1_555 1_555
H14 C15 1_555 1_555
C16 C15 1_555 1_555
C17 C16 1_555 1_555
H15 C17 1_555 1_555
C18 C9 1_555 1_555
C19 C12 1_555 1_555
C20 C19 1_555 1_555
C21 C20 1_555 1_555
H16 C21 1_555 1_555
C22 C21 1_555 1_555
H17 C22 1_555 1_555
C23 C22 1_555 1_555
C24 C23 1_555 1_555
H18 C24 1_555 1_555
C25 C20 1_555 1_555
H19 C25 1_555 1_555
C26 O1 1_555 1_555
H20 C26 1_555 1_555
H21 C26 1_555 1_555
H22 C26 1_555 1_555
C27 C11 1_555 1_555
C28 C27 1_555 1_555
H23 C28 1_555 1_555
C29 C28 1_555 1_555
H24 C29 1_555 1_555
C30 C29 1_555 1_555
H25 C30 1_555 1_555
C31 C30 1_555 1_555
H26 C31 1_555 1_555
C32 C27 1_555 1_555
H27 C32 1_555 1_555
Br2 C48 1_555 1_555
O3 C55 1_555 1_555
O4 C51 1_555 1_555
C33 H28 1_555 1_555
H29 C33 1_555 1_555
H30 C33 1_555 1_555
C34 C33 1_555 1_555
H31 C34 1_555 1_555
H32 C34 1_555 1_555
C35 C34 1_555 1_555
C36 C35 1_555 1_555
H33 C36 1_555 1_555
C37 C36 1_555 1_555
H34 C37 1_555 1_555
C38 C37 1_555 1_555
C39 C38 1_555 1_555
H35 C39 1_555 1_555
C40 C35 1_555 1_555
H36 C40 1_555 1_555
C41 C38 1_555 1_555
C42 C41 1_555 1_555
H37 C42 1_555 1_555
C43 C42 1_555 1_555
H38 C43 1_555 1_555
C44 C43 1_555 1_555
H39 C44 1_555 1_555
C45 C44 1_555 1_555
C46 C45 1_555 1_555
H40 C46 1_555 1_555
C47 C46 1_555 1_555
H41 C47 1_555 1_555
C48 C47 1_555 1_555
C49 C48 1_555 1_555
H42 C49 1_555 1_555
C50 C41 1_555 1_555
C51 C44 1_555 1_555
C52 C51 1_555 1_555
C53 C52 1_555 1_555
H43 C53 1_555 1_555
C54 C53 1_555 1_555
H44 C54 1_555 1_555
C55 C54 1_555 1_555
C56 C55 1_555 1_555
H45 C56 1_555 1_555
C57 C52 1_555 1_555
H46 C57 1_555 1_555
C58 O3 1_555 1_555
H47 C58 1_555 1_555
H48 C58 1_555 1_555
H49 C58 1_555 1_555
C59 C43 1_555 1_555
C60 C59 1_555 1_555
H50 C60 1_555 1_555
C61 C60 1_555 1_555
H51 C61 1_555 1_555
C62 C61 1_555 1_555
H52 C62 1_555 1_555
C63 C62 1_555 1_555
H53 C63 1_555 1_555
C64 C59 1_555 1_555
H54 C64 1_555 1_555
Br3 C80 1_555 1_555
O5 C87 1_555 1_555
O6 C83 1_555 1_555
C65 H55 1_555 1_555
H56 C65 1_555 1_555
H57 C65 1_555 1_555
C66 C65 1_555 1_555
H58 C66 1_555 1_555
H59 C66 1_555 1_555
C67 C66 1_555 1_555
C68 C67 1_555 1_555
H60 C68 1_555 1_555
C69 C68 1_555 1_555
H61 C69 1_555 1_555
C70 C69 1_555 1_555
C71 C70 1_555 1_555
H62 C71 1_555 1_555
C72 C67 1_555 1_555
H63 C72 1_555 1_555
C73 C70 1_555 1_555
C74 C73 1_555 1_555
H64 C74 1_555 1_555
C75 C74 1_555 1_555
H65 C75 1_555 1_555
C76 C75 1_555 1_555
H66 C76 1_555 1_555
C77 C76 1_555 1_555
C78 C77 1_555 1_555
H67 C78 1_555 1_555
C79 C78 1_555 1_555
H68 C79 1_555 1_555
C80 C79 1_555 1_555
C81 C80 1_555 1_555
H69 C81 1_555 1_555
C82 C73 1_555 1_555
C83 C76 1_555 1_555
C84 C83 1_555 1_555
C85 C84 1_555 1_555
H70 C85 1_555 1_555
C86 C85 1_555 1_555
H71 C86 1_555 1_555
C87 C86 1_555 1_555
C88 C87 1_555 1_555
H72 C88 1_555 1_555
C89 C84 1_555 1_555
H73 C89 1_555 1_555
C90 O5 1_555 1_555
H74 C90 1_555 1_555
H75 C90 1_555 1_555
H76 C90 1_555 1_555
C91 C75 1_555 1_555
C92 C91 1_555 1_555
H77 C92 1_555 1_555
C93 C92 1_555 1_555
H78 C93 1_555 1_555
C94 C93 1_555 1_555
H79 C94 1_555 1_555
C95 C94 1_555 1_555
H80 C95 1_555 1_555
C96 C91 1_555 1_555
H81 C96 1_555 1_555
C7 C8 1_555 1_555
C13 C18 1_555 1_555
C17 C18 1_555 1_555
C24 C25 1_555 1_555
C31 C32 1_555 1_555
C39 C40 1_555 1_555
C45 C50 1_555 1_555
C49 C50 1_555 1_555
C56 C57 1_555 1_555
C63 C64 1_555 1_555
C71 C72 1_555 1_555
C77 C82 1_555 1_555
C81 C82 1_555 1_555
C88 C89 1_555 1_555
C95 C96 1_555 1_555

#END
