
#######################################################################
#
#                 Cambridge Crystallographic Data Centre
#                                CCDC 
#
#######################################################################
#
# If this CIF has been generated from an entry in the Cambridge 
# Structural Database, then it will include bibliographic, chemical, 
# crystal, experimental, refinement or atomic coordinate data resulting 
# from the CCDC's data processing and validation procedures.
#
#######################################################################

data_DAZSIJ
_chemical_formula_moiety         'C14 H15 N1 O3'
_chemical_name_systematic        't-butyl 3-amino-1-oxo-1H-indene-2-carboxylate'
_symmetry_cell_setting           orthorhombic
_symmetry_space_group_name_H-M   'P n m a'
_symmetry_Int_Tables_number      62
_space_group_name_Hall           '-P 2ac 2n'
loop_
_symmetry_equiv_pos_site_id
_symmetry_equiv_pos_as_xyz
1 x,y,z
2 1/2-x,-y,1/2+z
3 1/2+x,1/2-y,1/2-z
4 -x,1/2+y,-z
5 -x,-y,-z
6 1/2+x,y,1/2-z
7 1/2-x,1/2+y,1/2+z
8 x,1/2-y,z
_cell_length_a                   25.771(3)
_cell_length_b                   6.8258(8)
_cell_length_c                   7.1894(5)
_cell_angle_alpha                90
_cell_angle_beta                 90
_cell_angle_gamma                90
_cell_volume                     1264.67
_exptl_crystal_colour            yellow
_exptl_crystal_description       needle
_cell_formula_units_Z            4
loop_
_atom_site_label
_atom_site_type_symbol
_atom_site_fract_x
_atom_site_fract_y
_atom_site_fract_z
O1 O -0.01756(7) 0.2500 0.5375(2)
O2 O -0.14497(8) 0.2500 0.1294(2)
O3 O -0.12956(7) 0.2500 0.43821(19)
N1 N -0.06250(9) 0.2500 -0.1032(2)
H1 H -0.0959 0.2500 -0.1033
H2 H -0.0458 0.2500 -0.2068
C1 C 0.08332(11) 0.2500 0.3118(3)
H3 H 0.0919 0.2500 0.4374
C2 C 0.12166(11) 0.2500 0.1765(4)
H4 H 0.1564 0.2500 0.2119
C3 C 0.10891(12) 0.2500 -0.0107(4)
H5 H 0.1352 0.2500 -0.0992
C4 C 0.05772(11) 0.2500 -0.0681(3)
H6 H 0.0492 0.2500 -0.1938
C5 C 0.01979(10) 0.2500 0.0669(3)
C6 C 0.03264(10) 0.2500 0.2557(3)
C7 C -0.01686(10) 0.2500 0.3673(3)
C8 C -0.05873(10) 0.2500 0.2336(3)
C9 C -0.03723(10) 0.2500 0.0539(3)
C10 C -0.11431(10) 0.2500 0.2594(3)
C11 C -0.18538(10) 0.2500 0.4832(3)
C12 C -0.18514(10) 0.2500 0.6939(3)
H7 H -0.1663 0.1379 0.7381
H8 H -0.2202 0.2500 0.7389
C13 C -0.21075(9) 0.4351(4) 0.4121(3)
H9 H -0.2127 0.4307 0.2788
H10 H -0.1906 0.5466 0.4495
H11 H -0.2451 0.4457 0.4628
H7G H -0.1663 0.3621 0.7381
C13G C -0.21075(9) 0.0649(4) 0.4121(3)
H9G H -0.2127 0.0693 0.2788
H10G H -0.1906 -0.0466 0.4495
H11G H -0.2451 0.0543 0.4628
H12? H -0.1687 0.3674 0.7381
loop_
_geom_bond_atom_site_label_1
_geom_bond_atom_site_label_2
_geom_bond_site_symmetry_1
_geom_bond_site_symmetry_2
O1 C7 1_555 1_555
O2 C10 1_555 1_555
O3 C10 1_555 1_555
N1 H1 1_555 1_555
H2 N1 1_555 1_555
C1 H3 1_555 1_555
C2 C1 1_555 1_555
H4 C2 1_555 1_555
C3 C2 1_555 1_555
H5 C3 1_555 1_555
C4 C3 1_555 1_555
H6 C4 1_555 1_555
C5 C4 1_555 1_555
C6 C1 1_555 1_555
C7 C6 1_555 1_555
C8 C7 1_555 1_555
C9 N1 1_555 1_555
C10 C8 1_555 1_555
C11 O3 1_555 1_555
C12 C11 1_555 1_555
H7 C12 1_555 1_555
H8 C12 1_555 1_555
C13 C11 1_555 1_555
H9 C13 1_555 1_555
H10 C13 1_555 1_555
H11 C13 1_555 1_555
H7G C12 1_555 1_555
C13G C11 1_555 1_555
H9G C13G 1_555 1_555
H10G C13G 1_555 1_555
H11G C13G 1_555 1_555
C5 C6 1_555 1_555
C5 C9 1_555 1_555
C8 C9 1_555 1_555

#END
