
#######################################################################
#
#                 Cambridge Crystallographic Data Centre
#                                CCDC 
#
#######################################################################
#
# If this CIF has been generated from an entry in the Cambridge 
# Structural Database, then it will include bibliographic, chemical, 
# crystal, experimental, refinement or atomic coordinate data resulting 
# from the CCDC's data processing and validation procedures.
#
#######################################################################

data_DAZTEE
_chemical_compound_source        'Pleurospermum lindleyanum'
_chemical_formula_moiety         
'0.5(Ca1 2+),C12 H7 O8 S1 1-,2.75(H2 O1),0.25(C1 H2 Cl2)'
_chemical_name_systematic        
'Hemi-calcium bergapten-8-yl sulfate dichloromethane solvate hydrate'
_symmetry_cell_setting           monoclinic
_symmetry_space_group_name_H-M   'P 21/m'
_symmetry_Int_Tables_number      11
_space_group_name_Hall           '-P 2yb'
loop_
_symmetry_equiv_pos_site_id
_symmetry_equiv_pos_as_xyz
1 x,y,z
2 -x,1/2+y,-z
3 -x,-y,-z
4 x,1/2-y,z
_cell_length_a                   7.8980(17)
_cell_length_b                   25.854(6)
_cell_length_c                   8.7185(17)
_cell_angle_alpha                90
_cell_angle_beta                 115.015(5)
_cell_angle_gamma                90
_cell_volume                     1613.28
_exptl_crystal_colour            colorless
_cell_formula_units_Z            4
loop_
_atom_site_label
_atom_site_type_symbol
_atom_site_fract_x
_atom_site_fract_y
_atom_site_fract_z
S1 S 0.27170(5) 0.150117(15) 0.25063(4)
O1 O 0.57721(15) 0.16388(4) 0.90263(12)
O2 O 0.45590(13) 0.11549(4) 0.67693(10)
O3 O 0.19624(15) -0.04886(4) 0.69049(12)
O4 O 0.40725(12) 0.10196(3) 0.34792(10)
O5 O 0.22477(14) 0.00716(4) 0.18659(11)
O10 O 0.22008(14) 0.17479(4) 0.37145(12)
O11 O 0.39514(16) 0.17937(4) 0.20581(13)
O12 O 0.11709(17) 0.12750(4) 0.11336(12)
C1 C 0.4973(2) 0.12341(6) 0.84416(17)
C2 C 0.4374(2) 0.08490(6) 0.92781(17)
H1 H 0.4585 0.0898 1.0401
C3 C 0.3520(2) 0.04204(6) 0.84769(16)
H2 H 0.3138 0.0180 0.9061
C4 C 0.23868(19) -0.01455(5) 0.59664(16)
C5 C 0.20660(19) -0.02092(5) 0.42847(17)
C6 C 0.26029(19) 0.01955(6) 0.35088(16)
C7 C 0.33991(19) 0.06487(5) 0.42509(15)
C8 C 0.37128(18) 0.07007(5) 0.59496(16)
C9 C 0.31687(18) 0.03143(5) 0.67876(15)
C10 C 0.1326(2) -0.06001(6) 0.29999(19)
H3 H 0.0856 -0.0920 0.3117
C11 C 0.1436(2) -0.04189(6) 0.1593(2)
H4 H 0.1024 -0.0598 0.0574
C12 C 0.1477(2) -0.10002(6) 0.6364(2)
H5 H 0.0227 -0.1009 0.5487
H6 H 0.1547 -0.1208 0.7301
H7 H 0.2326 -0.1133 0.5933
Ca1 Ca 0.67389(6) 0.2500 0.87985(5)
O6 O 0.8792(3) 0.2500 1.1714(2)
O7 O 0.90155(18) 0.19427(5) 0.84143(16)
O8 O 0.4249(2) 0.2500 0.97600(17)
H8 H 0.3451 0.2735 1.0083
H8C H 0.3451 0.2265 1.0083
O9 O 0.4368(3) 0.2500 0.60081(18)
H9 H 0.2918 0.2500 0.4688
O13 O 0.7134(4) 0.2500 1.3977(3)
H10 H 0.6752 0.2500 1.2662
C13 C 0.0446(3) 0.25000(6) 0.6534(3)
Cl1 Cl 0.0832(3) 0.20120(6) 0.6449(3)
Cl1C Cl 0.0832(3) 0.29880(6) 0.6449(3)
loop_
_geom_bond_atom_site_label_1
_geom_bond_atom_site_label_2
_geom_bond_site_symmetry_1
_geom_bond_site_symmetry_2
S1 O4 1_555 1_555
O1 C1 1_555 1_555
O2 C1 1_555 1_555
O3 C4 1_555 1_555
O4 C7 1_555 1_555
O5 C6 1_555 1_555
O8 H8 1_555 1_555
O9 H9 1_555 1_555
O10 S1 1_555 1_555
O11 S1 1_555 1_555
O12 S1 1_555 1_555
O13 H10 1_555 1_555
C1 C2 1_555 1_555
C2 H1 1_555 1_555
C3 C2 1_555 1_555
H2 C3 1_555 1_555
C4 C5 1_555 1_555
C5 C6 1_555 1_555
C6 C7 1_555 1_555
C7 C8 1_555 1_555
C8 O2 1_555 1_555
C9 C3 1_555 1_555
C10 C5 1_555 1_555
H3 C10 1_555 1_555
C11 O5 1_555 1_555
H4 C11 1_555 1_555
C12 O3 1_555 1_555
H5 C12 1_555 1_555
H6 C12 1_555 1_555
H7 C12 1_555 1_555
C13 Cl1 1_555 1_555
Cl1C C13 1_555 1_555
H8C O8 1_555 1_555
C4 C9 1_555 1_555
C8 C9 1_555 1_555
C10 C11 1_555 1_555

#END
