
#######################################################################
#
#                 Cambridge Crystallographic Data Centre
#                                CCDC 
#
#######################################################################
#
# If this CIF has been generated from an entry in the Cambridge 
# Structural Database, then it will include bibliographic, chemical, 
# crystal, experimental, refinement or atomic coordinate data resulting 
# from the CCDC's data processing and validation procedures.
#
#######################################################################

data_DBZFUR11
_chemical_formula_moiety         'C12 H8 O1'
_chemical_name_systematic        Dibenzofuran
_symmetry_cell_setting           orthorhombic
_symmetry_space_group_name_H-M   'P n a m'
_symmetry_Int_Tables_number      62
_space_group_name_Hall           '-P 2c 2n'
loop_
_symmetry_equiv_pos_site_id
_symmetry_equiv_pos_as_xyz
1 x,y,z
2 1/2-x,1/2+y,1/2+z
3 1/2+x,1/2-y,z
4 -x,-y,1/2+z
5 -x,-y,-z
6 1/2+x,1/2-y,1/2-z
7 1/2-x,1/2+y,-z
8 x,y,1/2-z
_cell_length_a                   7.65(2)
_cell_length_b                   5.90(1)
_cell_length_c                   19.32(2)
_cell_angle_alpha                90
_cell_angle_beta                 90
_cell_angle_gamma                90
_cell_volume                     872.008
_chemical_melting_point          87deg.C
_cell_formula_units_Z            4
loop_
_atom_site_label
_atom_site_type_symbol
_atom_site_fract_x
_atom_site_fract_y
_atom_site_fract_z
C1 C 0.23500 -0.30330 0.37640
C2 C 0.17720 -0.45580 0.42570
C3 C 0.09690 -0.65640 0.40810
C4 C 0.06950 -0.71570 0.33950
C5 C 0.20520 -0.36730 0.30750
C6 C 0.12620 -0.56830 0.28830
H1 H 0.28800 -0.15900 0.38200
H2 H 0.18800 -0.41600 0.47100
H3 H 0.04300 -0.75600 0.44900
H4 H 0.01200 -0.86100 0.33000
O1 O 0.25800 -0.23410 0.25000
C6G C 0.12620 -0.56830 0.21170
C5G C 0.20520 -0.36730 0.19250
C4G C 0.06950 -0.71570 0.16050
C1G C 0.23500 -0.30330 0.12360
C3G C 0.09690 -0.65640 0.09190
H4G H 0.01200 -0.86100 0.17000
C2G C 0.17720 -0.45580 0.07430
H1G H 0.28800 -0.15900 0.11800
H3G H 0.04300 -0.75600 0.05100
H2G H 0.18800 -0.41600 0.02900
loop_
_geom_bond_atom_site_label_1
_geom_bond_atom_site_label_2
_geom_bond_site_symmetry_1
_geom_bond_site_symmetry_2
C1 C2 1_555 1_555
C2 C3 1_555 1_555
C3 C4 1_555 1_555
C4 C6 1_555 1_555
C5 C1 1_555 1_555
C6 C5 1_555 1_555
H1 C1 1_555 1_555
H2 C2 1_555 1_555
H3 C3 1_555 1_555
H4 C4 1_555 1_555
O1 C5 1_555 1_555
C6G C6 1_555 1_555
C5G O1 1_555 1_555
C4G C6G 1_555 1_555
C1G C5G 1_555 1_555
C3G C4G 1_555 1_555
H4G C4G 1_555 1_555
C2G C1G 1_555 1_555
H1G C1G 1_555 1_555
H3G C3G 1_555 1_555
H2G C2G 1_555 1_555
C6G C5G 1_555 1_555
C3G C2G 1_555 1_555

#END
