
#######################################################################
#
#                 Cambridge Crystallographic Data Centre
#                                CCDC 
#
#######################################################################
#
# If this CIF has been generated from an entry in the Cambridge 
# Structural Database, then it will include bibliographic, chemical, 
# crystal, experimental, refinement or atomic coordinate data resulting 
# from the CCDC's data processing and validation procedures.
#
#######################################################################

data_DCLBEN11
_chemical_formula_moiety         'C6 H4 Cl2'
_chemical_name_systematic        p-Dichlorobenzene
_symmetry_cell_setting           monoclinic
_symmetry_space_group_name_H-M   'P 21/a'
_symmetry_Int_Tables_number      14
_space_group_name_Hall           '-P 2yab'
loop_
_symmetry_equiv_pos_site_id
_symmetry_equiv_pos_as_xyz
1 x,y,z
2 1/2-x,1/2+y,-z
3 -x,-y,-z
4 1/2+x,1/2-y,z
_cell_length_a                   14.800
_cell_length_b                   5.780
_cell_length_c                   3.990
_cell_angle_alpha                90
_cell_angle_beta                 113.00
_cell_angle_gamma                90
_cell_volume                     314.187
_cell_formula_units_Z            2
loop_
_atom_site_label
_atom_site_type_symbol
_atom_site_fract_x
_atom_site_fract_y
_atom_site_fract_z
Cl1 Cl 0.16500 0.17600 -0.02100
C1 C 0.07300 0.35400 -0.01000
C2 C 0.09900 0.55500 0.18500
C3 C -0.02700 0.29600 -0.20100
C3B C 0.02700 0.70400 0.20100
C2B C -0.09900 0.44500 -0.18500
C1B C -0.07300 0.64600 0.01000
Cl1B Cl -0.16500 0.82400 0.02100
loop_
_geom_bond_atom_site_label_1
_geom_bond_atom_site_label_2
_geom_bond_site_symmetry_1
_geom_bond_site_symmetry_2
Cl1 C1 1_555 1_555
C1 C2 1_555 1_555
C2 C3B 1_555 1_555
C3 C1 1_555 1_555
C3B C1B 1_555 1_555
C2B C3 1_555 1_555
C1B C2B 1_555 1_555
Cl1B C1B 1_555 1_555

#END
