
#######################################################################
#
#                 Cambridge Crystallographic Data Centre
#                                CCDC 
#
#######################################################################
#
# If this CIF has been generated from an entry in the Cambridge 
# Structural Database, then it will include bibliographic, chemical, 
# crystal, experimental, refinement or atomic coordinate data resulting 
# from the CCDC's data processing and validation procedures.
#
#######################################################################

data_DEBMEF
_chemical_formula_moiety         'C15 H13 Cl1 O1'
_chemical_name_systematic        7-chloro-3-phenyl-3,4-dihydro-2H-1-benzopyran
_symmetry_cell_setting           monoclinic
_symmetry_space_group_name_H-M   'P 21'
_symmetry_Int_Tables_number      4
_space_group_name_Hall           'P 2yb'
loop_
_symmetry_equiv_pos_site_id
_symmetry_equiv_pos_as_xyz
1 x,y,z
2 -x,1/2+y,-z
_cell_length_a                   5.76240(10)
_cell_length_b                   22.9736(6)
_cell_length_c                   9.5587(2)
_cell_angle_alpha                90
_cell_angle_beta                 106.0030(10)
_cell_angle_gamma                90
_cell_volume                     1216.37
_exptl_crystal_colour            colorless
_exptl_crystal_description       block
_cell_formula_units_Z            4
loop_
_atom_site_label
_atom_site_type_symbol
_atom_site_fract_x
_atom_site_fract_y
_atom_site_fract_z
Cl1 Cl 0.18778(9) 0.68139(2) 0.42786(6)
O1 O 0.0174(2) 0.46843(7) 0.46604(17)
C1 C -0.0089(4) 0.62188(9) 0.3884(2)
C2 C -0.2469(4) 0.63054(9) 0.3091(3)
H1 H -0.3034 0.6681 0.2742
C3 C -0.0804(3) 0.52067(9) 0.4097(2)
C4 C -0.3229(3) 0.52725(9) 0.3322(2)
C5 C -0.3999(4) 0.58286(9) 0.2823(3)
H2 H -0.5633 0.5883 0.2279
C6 C 0.0779(4) 0.56776(9) 0.4391(2)
H3 H 0.2418 0.5627 0.4928
C7 C -0.4916(3) 0.47576(9) 0.3083(2)
H4 H -0.5067 0.4588 0.2110
H5 H -0.6539 0.4886 0.3121
C8 C -0.1323(3) 0.41734(9) 0.4295(2)
H6 H -0.0680 0.3865 0.5023
H7 H -0.1261 0.4027 0.3332
C9 C -0.3944(3) 0.42999(8) 0.4255(2)
H8 H -0.3953 0.4472 0.5214
C10 C -0.5353(3) 0.37339(8) 0.4072(2)
C11 C -0.6675(4) 0.35213(10) 0.2728(2)
H9 H -0.6710 0.3734 0.1870
C12 C -0.7945(4) 0.30023(10) 0.2623(3)
H10 H -0.8847 0.2864 0.1696
C13 C -0.7909(5) 0.26845(10) 0.3858(3)
H11 H -0.8794 0.2331 0.3784
C14 C -0.6570(5) 0.28866(10) 0.5204(3)
H12 H -0.6520 0.2670 0.6058
C15 C -0.5303(4) 0.34050(9) 0.5306(2)
H13 H -0.4383 0.3539 0.6234
Cl2 Cl 0.20538(11) 0.35476(3) 0.84255(6)
O2 O 0.5479(3) 0.54426(7) 0.72769(18)
C16 C 0.4363(4) 0.40655(9) 0.8774(2)
C17 C 0.6440(4) 0.39736(10) 0.9897(3)
H14 H 0.6656 0.3627 1.0459
C18 C 0.8189(4) 0.44036(10) 1.0172(2)
H15 H 0.9608 0.4350 1.0951
C19 C 0.7951(4) 0.49122(9) 0.9352(2)
C20 C 0.5879(4) 0.49713(9) 0.8193(2)
C21 C 0.4064(4) 0.45548(10) 0.7904(2)
H16 H 0.2645 0.4605 0.7123
C22 C 0.9799(4) 0.53942(9) 0.9732(2)
H17 H 1.1236 0.5285 0.9414
H18 H 1.0315 0.5450 1.0800
C23 C 0.8740(4) 0.59628(9) 0.8990(2)
H19 H 0.7468 0.6096 0.9449
C24 C 0.7506(5) 0.58220(11) 0.7404(2)
H20 H 0.6953 0.6187 0.6866
H21 H 0.8678 0.5633 0.6962
C25 C 1.0592(4) 0.64409(9) 0.9181(2)
C26 C 1.2036(4) 0.65066(11) 0.8233(3)
H22 H 1.1848 0.6247 0.7435
C27 C 1.3747(5) 0.69487(11) 0.8449(3)
H23 H 1.4694 0.6995 0.7786
C28 C 1.4077(4) 0.73202(10) 0.9620(3)
H24 H 1.5266 0.7618 0.9773
C29 C 1.2668(5) 0.72568(11) 1.0569(3)
H25 H 1.2893 0.7510 1.1381
C30 C 1.0921(4) 0.68235(11) 1.0338(2)
H26 H 0.9937 0.6789 1.0984
loop_
_geom_bond_atom_site_label_1
_geom_bond_atom_site_label_2
_geom_bond_site_symmetry_1
_geom_bond_site_symmetry_2
Cl1 C1 1_555 1_555
O1 C3 1_555 1_555
C1 C2 1_555 1_555
C2 H1 1_555 1_555
C3 C4 1_555 1_555
C4 C5 1_555 1_555
C5 C2 1_555 1_555
H2 C5 1_555 1_555
C6 C1 1_555 1_555
H3 C6 1_555 1_555
C7 C4 1_555 1_555
H4 C7 1_555 1_555
H5 C7 1_555 1_555
C8 O1 1_555 1_555
H6 C8 1_555 1_555
H7 C8 1_555 1_555
C9 C7 1_555 1_555
H8 C9 1_555 1_555
C10 C9 1_555 1_555
C11 C10 1_555 1_555
H9 C11 1_555 1_555
C12 C11 1_555 1_555
H10 C12 1_555 1_555
C13 C12 1_555 1_555
H11 C13 1_555 1_555
C14 C13 1_555 1_555
H12 C14 1_555 1_555
C15 C10 1_555 1_555
H13 C15 1_555 1_555
Cl2 C16 1_555 1_555
O2 C20 1_555 1_555
C16 C17 1_555 1_555
C17 H14 1_555 1_555
C18 C17 1_555 1_555
H15 C18 1_555 1_555
C19 C18 1_555 1_555
C20 C19 1_555 1_555
C21 C16 1_555 1_555
H16 C21 1_555 1_555
C22 C19 1_555 1_555
H17 C22 1_555 1_555
H18 C22 1_555 1_555
C23 C22 1_555 1_555
H19 C23 1_555 1_555
C24 O2 1_555 1_555
H20 C24 1_555 1_555
H21 C24 1_555 1_555
C25 C23 1_555 1_555
C26 C25 1_555 1_555
H22 C26 1_555 1_555
C27 C26 1_555 1_555
H23 C27 1_555 1_555
C28 C27 1_555 1_555
H24 C28 1_555 1_555
C29 C28 1_555 1_555
H25 C29 1_555 1_555
C30 C25 1_555 1_555
H26 C30 1_555 1_555
C3 C6 1_555 1_555
C8 C9 1_555 1_555
C14 C15 1_555 1_555
C20 C21 1_555 1_555
C23 C24 1_555 1_555
C29 C30 1_555 1_555

#END
