
#######################################################################
#
#                 Cambridge Crystallographic Data Centre
#                                CCDC 
#
#######################################################################
#
# If this CIF has been generated from an entry in the Cambridge 
# Structural Database, then it will include bibliographic, chemical, 
# crystal, experimental, refinement or atomic coordinate data resulting 
# from the CCDC's data processing and validation procedures.
#
#######################################################################

data_DEBNOQ
_chemical_formula_moiety         'C8 H8 F4 N2 O4'
_chemical_name_systematic        
'ethyl 5-amino-3-(fluoro(trifluoromethoxy)methyl)isoxazole-4-carboxylate'
_symmetry_cell_setting           triclinic
_symmetry_space_group_name_H-M   'P -1'
_symmetry_Int_Tables_number      2
_space_group_name_Hall           '-P 1'
loop_
_symmetry_equiv_pos_site_id
_symmetry_equiv_pos_as_xyz
1 x,y,z
2 -x,-y,-z
_cell_length_a                   8.8731(13)
_cell_length_b                   9.0666(13)
_cell_length_c                   15.314(2)
_cell_angle_alpha                91.196(4)
_cell_angle_beta                 99.999(3)
_cell_angle_gamma                115.544(3)
_cell_volume                     1088.31
_exptl_crystal_colour            colorless
_exptl_crystal_description       plate
_cell_formula_units_Z            4
loop_
_atom_site_label
_atom_site_type_symbol
_atom_site_fract_x
_atom_site_fract_y
_atom_site_fract_z
C1 C 0.7025(6) 0.7032(6) 0.0505(3)
C2 C 0.6407(6) 0.6101(6) 0.1181(3)
C3 C 0.5949(6) 0.7115(6) 0.1683(3)
C4 C 0.6332(6) 0.4493(6) 0.1257(3)
C5 C 0.5720(7) 0.2214(6) 0.2095(4)
H1 H 0.6856 0.2264 0.2092
H2 H 0.4874 0.1372 0.1613
C6 C 0.5242(8) 0.1799(7) 0.2980(4)
H3 H 0.6076 0.2655 0.3447
H4 H 0.5231 0.0739 0.3103
H5 H 0.4106 0.1732 0.2968
C7 C 0.5188(7) 0.6748(6) 0.2493(4)
H6 H 0.4164 0.5654 0.2385
C8 C 0.5960(9) 0.6274(9) 0.3976(4)
N1 N 0.6237(5) 0.8511(5) 0.1373(3)
N2 N 0.7628(5) 0.6754(5) -0.0177(3)
H7 H 0.7960 0.7499 -0.0551
H8 H 0.7698 0.5824 -0.0258
O1 O 0.6942(4) 0.8466(4) 0.0600(2)
O2 O 0.6772(4) 0.3824(4) 0.0717(2)
O3 O 0.5748(4) 0.3804(4) 0.1966(2)
O4 O 0.6434(4) 0.6756(4) 0.3197(2)
F1 F 0.4744(5) 0.7974(4) 0.2700(3)
F2 F 0.4467(6) 0.4985(6) 0.3852(3)
F3 F 0.5869(7) 0.7406(6) 0.4451(3)
F4 F 0.7087(6) 0.5849(6) 0.4425(3)
C9 C 0.1563(6) 0.7426(6) 0.0863(3)
C10 C 0.1072(6) 0.7944(6) 0.1582(3)
C11 C 0.0746(6) 0.6644(6) 0.2122(3)
C12 C 0.0960(6) 0.9475(6) 0.1654(3)
C13 C 0.0310(7) 1.1281(6) 0.2487(4)
H9 H -0.0573 1.1309 0.2003
H10 H 0.1415 1.2223 0.2469
C14 C -0.0157(9) 1.1368(8) 0.3369(4)
H11 H -0.1247 1.0424 0.3380
H12 H -0.0262 1.2388 0.3466
H13 H 0.0732 1.1348 0.3842
C15 C 0.0271(7) 0.6575(6) 0.3021(3)
H14 H -0.0527 0.7083 0.3033
C16 C 0.1730(8) 0.7916(8) 0.4455(4)
N3 N 0.0975(6) 0.5440(5) 0.1802(3)
N4 N 0.2017(6) 0.8110(5) 0.0139(3)
H15 H 0.2267 0.7587 -0.0261
H16 H 0.2069 0.9087 0.0056
O5 O 0.1495(5) 0.5938(4) 0.0969(2)
O6 O 0.1325(5) 1.0448(4) 0.1090(2)
O7 O 0.0431(4) 0.9741(4) 0.2380(2)
O8 O 0.1793(4) 0.7479(5) 0.3628(2)
F5 F -0.0463(4) 0.4996(4) 0.3211(2)
F6 F 0.0669(7) 0.8595(6) 0.4458(3)
F7 F 0.3212(6) 0.8969(6) 0.4861(3)
F8 F 0.1149(6) 0.6712(5) 0.4928(2)
loop_
_geom_bond_atom_site_label_1
_geom_bond_atom_site_label_2
_geom_bond_site_symmetry_1
_geom_bond_site_symmetry_2
C1 C2 1_555 1_555
C2 C3 1_555 1_555
C3 C7 1_555 1_555
C4 C2 1_555 1_555
C5 H1 1_555 1_555
H2 C5 1_555 1_555
C6 C5 1_555 1_555
H3 C6 1_555 1_555
H4 C6 1_555 1_555
H5 C6 1_555 1_555
C7 H6 1_555 1_555
C8 O4 1_555 1_555
N1 C3 1_555 1_555
N2 C1 1_555 1_555
H7 N2 1_555 1_555
H8 N2 1_555 1_555
O1 C1 1_555 1_555
O2 C4 1_555 1_555
O3 C4 1_555 1_555
O4 C7 1_555 1_555
F1 C7 1_555 1_555
F2 C8 1_555 1_555
F3 C8 1_555 1_555
F4 C8 1_555 1_555
C9 C10 1_555 1_555
C10 C11 1_555 1_555
C11 C15 1_555 1_555
C12 C10 1_555 1_555
C13 H9 1_555 1_555
H10 C13 1_555 1_555
C14 C13 1_555 1_555
H11 C14 1_555 1_555
H12 C14 1_555 1_555
H13 C14 1_555 1_555
C15 H14 1_555 1_555
C16 O8 1_555 1_555
N3 C11 1_555 1_555
N4 C9 1_555 1_555
H15 N4 1_555 1_555
H16 N4 1_555 1_555
O5 C9 1_555 1_555
O6 C12 1_555 1_555
O7 C12 1_555 1_555
O8 C15 1_555 1_555
F5 C15 1_555 1_555
F6 C16 1_555 1_555
F7 C16 1_555 1_555
F8 C16 1_555 1_555
C5 O3 1_555 1_555
N1 O1 1_555 1_555
C13 O7 1_555 1_555
N3 O5 1_555 1_555

#END
