
#######################################################################
#
#                 Cambridge Crystallographic Data Centre
#                                CCDC 
#
#######################################################################
#
# If this CIF has been generated from an entry in the Cambridge 
# Structural Database, then it will include bibliographic, chemical, 
# crystal, experimental, refinement or atomic coordinate data resulting 
# from the CCDC's data processing and validation procedures.
#
#######################################################################

data_DEBSOV
_chemical_compound_source        
'isolated and characterized from a Hyrtios sp. marine sponge collected from the South China Sea'
_chemical_name_common            'dactyloquinone A'
_chemical_formula_moiety         'C22 H28 O4'
_chemical_name_systematic        
10-methoxy-4a,7,7a-trimethyl-4-methylidene-1,2,3,4,4a,5,6,7,7a,8-decahydrobenzo[d]xanthene-9,12-dione
_symmetry_cell_setting           monoclinic
_symmetry_space_group_name_H-M   'P 21'
_symmetry_Int_Tables_number      4
_space_group_name_Hall           'P 2yb'
loop_
_symmetry_equiv_pos_site_id
_symmetry_equiv_pos_as_xyz
1 x,y,z
2 -x,1/2+y,-z
_cell_length_a                   7.86700(10)
_cell_length_b                   11.4726(2)
_cell_length_c                   10.18150(10)
_cell_angle_alpha                90
_cell_angle_beta                 93.6410(10)
_cell_angle_gamma                90
_cell_volume                     917.076
_exptl_crystal_colour            yellow
_exptl_crystal_description       block
_cell_formula_units_Z            2
loop_
_atom_site_label
_atom_site_type_symbol
_atom_site_fract_x
_atom_site_fract_y
_atom_site_fract_z
O1 O 0.17591(16) 0.04472(13) 0.66601(12)
O2 O 0.35740(19) -0.08000(15) 0.50524(13)
O3 O 0.5012(2) -0.35592(13) 0.83991(15)
O4 O 0.38568(17) -0.20427(14) 1.00808(13)
C1 C 0.2890(2) 0.20881(18) 0.78973(19)
H1 H 0.2612 0.2769 0.8441
H2 H 0.3704 0.1592 0.8427
C2 C 0.3734(3) 0.2512(2) 0.6676(2)
H3 H 0.4153 0.1834 0.6190
H4 H 0.4724 0.3009 0.6946
C3 C 0.2476(3) 0.3210(2) 0.5772(2)
H5 H 0.2157 0.3936 0.6220
H6 H 0.3022 0.3426 0.4957
C4 C 0.0905(3) 0.2499(2) 0.5429(2)
C5 C -0.0039(2) 0.20880(19) 0.66186(18)
C6 C -0.1548(3) 0.1293(2) 0.6217(2)
H7 H -0.2412 0.1744 0.5682
H8 H -0.1151 0.0650 0.5664
C7 C -0.2369(2) 0.0779(2) 0.7404(2)
H9 H -0.3309 0.0256 0.7089
H10 H -0.2867 0.1419 0.7905
C8 C -0.1122(2) 0.00920(19) 0.83287(19)
H11 H -0.0730 -0.0598 0.7830
C9 C 0.0487(2) 0.08149(17) 0.87818(18)
C10 C 0.1255(2) 0.13898(16) 0.75540(18)
C11 C 0.0406(3) 0.2270(2) 0.4185(2)
H12 H 0.1045 0.2557 0.3493
H13 H -0.0591 0.1819 0.3987
C12 C -0.0716(3) 0.32109(19) 0.7258(2)
H14 H -0.1182 0.3737 0.6568
H15 H 0.0219 0.3599 0.7767
H16 H -0.1612 0.3005 0.7843
C13 C -0.2113(3) -0.0368(2) 0.9473(2)
H17 H -0.2750 0.0273 0.9846
H18 H -0.1314 -0.0694 1.0153
H19 H -0.2908 -0.0976 0.9149
C14 C 0.0092(3) 0.1698(2) 0.98575(19)
H20 H -0.0143 0.1281 1.0666
H21 H -0.0906 0.2162 0.9562
H22 H 0.1073 0.2215 1.0030
C15 C 0.1857(2) -0.00104(18) 0.94331(17)
H23 H 0.2732 0.0463 0.9930
H24 H 0.1315 -0.0522 1.0069
C16 C 0.2705(2) -0.07517(18) 0.84619(18)
C17 C 0.2609(2) -0.04652(18) 0.71758(18)
C18 C 0.3502(2) -0.11601(18) 0.61724(18)
C19 C 0.4288(2) -0.22587(19) 0.66126(19)
H25 H 0.4760 -0.2760 0.5988
C20 C 0.4354(2) -0.25701(17) 0.78851(19)
C21 C 0.3648(2) -0.17878(17) 0.89176(18)
C22 C 0.5592(3) -0.4403(2) 0.7474(2)
H26 H 0.4663 -0.4585 0.6819
H27 H 0.5950 -0.5116 0.7945
H28 H 0.6557 -0.4081 0.7031
loop_
_geom_bond_atom_site_label_1
_geom_bond_atom_site_label_2
_geom_bond_site_symmetry_1
_geom_bond_site_symmetry_2
O1 C10 1_555 1_555
O2 C18 1_555 1_555
O3 C20 1_555 1_555
O4 C21 1_555 1_555
C1 H1 1_555 1_555
H2 C1 1_555 1_555
C2 C1 1_555 1_555
H3 C2 1_555 1_555
H4 C2 1_555 1_555
C3 C2 1_555 1_555
H5 C3 1_555 1_555
H6 C3 1_555 1_555
C4 C3 1_555 1_555
C5 C4 1_555 1_555
C6 C5 1_555 1_555
H7 C6 1_555 1_555
H8 C6 1_555 1_555
C7 C6 1_555 1_555
H9 C7 1_555 1_555
H10 C7 1_555 1_555
C8 C7 1_555 1_555
H11 C8 1_555 1_555
C9 C8 1_555 1_555
C10 C1 1_555 1_555
C11 C4 1_555 1_555
H12 C11 1_555 1_555
H13 C11 1_555 1_555
C12 C5 1_555 1_555
H14 C12 1_555 1_555
H15 C12 1_555 1_555
H16 C12 1_555 1_555
C13 C8 1_555 1_555
H17 C13 1_555 1_555
H18 C13 1_555 1_555
H19 C13 1_555 1_555
C14 C9 1_555 1_555
H20 C14 1_555 1_555
H21 C14 1_555 1_555
H22 C14 1_555 1_555
C15 C9 1_555 1_555
H23 C15 1_555 1_555
H24 C15 1_555 1_555
C16 C15 1_555 1_555
C17 O1 1_555 1_555
C18 C17 1_555 1_555
C19 C18 1_555 1_555
H25 C19 1_555 1_555
C20 C19 1_555 1_555
C21 C16 1_555 1_555
C22 O3 1_555 1_555
H26 C22 1_555 1_555
H27 C22 1_555 1_555
H28 C22 1_555 1_555
C5 C10 1_555 1_555
C9 C10 1_555 1_555
C16 C17 1_555 1_555
C20 C21 1_555 1_555

#END
