
#######################################################################
#
#                 Cambridge Crystallographic Data Centre
#                                CCDC 
#
#######################################################################
#
# If this CIF has been generated from an entry in the Cambridge 
# Structural Database, then it will include bibliographic, chemical, 
# crystal, experimental, refinement or atomic coordinate data resulting 
# from the CCDC's data processing and validation procedures.
#
#######################################################################

data_DEBXIT03
_chemical_formula_moiety         'C23 H14 N6 O3'
_chemical_name_systematic        
5,7,15,17,24,26-hexaazaoctacyclo[9.9.9.0^2,10^.0^4,8^.0^12,20^.0^14,18^.0^21,29^.0^23,27^]nonacosa-2(10),3,8,12(20),13,18,21(29),22,27-nonaene-6,16,25-trione
_symmetry_cell_setting           hexagonal
_symmetry_space_group_name_H-M   'P 63/m m c'
_symmetry_Int_Tables_number      194
_space_group_name_Hall           "-P 6c 2'c"
loop_
_symmetry_equiv_pos_site_id
_symmetry_equiv_pos_as_xyz
1 x,y,z
2 x,x-y,1/2-z
3 -y,x-y,z
4 -x,-y,1/2+z
5 y,-x+y,1/2+z
6 x-y,x,1/2+z
7 -x+y,y,1/2-z
8 -x+y,-x,z
9 y,x,-z
10 x-y,-y,-z
11 -x,-x+y,-z
12 -y,-x,1/2-z
13 -x,-y,-z
14 -x,-x+y,1/2+z
15 y,-x+y,-z
16 x,y,1/2-z
17 -y,x-y,1/2-z
18 -x+y,-x,1/2-z
19 x-y,-y,1/2+z
20 x-y,x,-z
21 -y,-x,z
22 -x+y,y,z
23 x,x-y,z
24 y,x,1/2+z
_cell_length_a                   23.2279(10)
_cell_length_b                   23.2279(10)
_cell_length_c                   7.2856(3)
_cell_angle_alpha                90
_cell_angle_beta                 90
_cell_angle_gamma                120
_cell_volume                     3404.21
_exptl_crystal_colour            colorless
_exptl_crystal_description       needle
_cell_formula_units_Z            2
loop_
_atom_site_label
_atom_site_type_symbol
_atom_site_fract_x
_atom_site_fract_y
_atom_site_fract_z
O1 O 0.51091(4) 0.48909(4) 0.7500
N1 N 0.45984(3) 0.54016(3) 0.60002(15)
H1 H 0.4685(4) 0.5315(4) 0.485(3)
C1 C 0.3333 0.6667 0.5736(2)
H2 H 0.3333 0.6667 0.432(3)
C2 C 0.36830(3) 0.63170(3) 0.65295(14)
C3 C 0.39753(3) 0.60247(3) 0.55492(16)
H3 H 0.3976(3) 0.6024(3) 0.417(2)
C4 C 0.42684(3) 0.57316(3) 0.65382(16)
C5 C 0.48004(6) 0.51996(6) 0.7500
O1A O 0.51091(4) 1.02182(6) 0.7500
N1B N 0.45984(3) 0.91968(4) 0.60002(15)
H1B H 0.4685(4) 0.9370(6) 0.485(3)
C2B C 0.36830(3) 0.73660(4) 0.65295(14)
C3B C 0.39753(3) 0.79506(4) 0.55492(16)
H3B H 0.3976(3) 0.7952(4) 0.417(2)
C4B C 0.42684(3) 0.85368(4) 0.65382(16)
C5A C 0.48004(6) 0.96008(8) 0.7500
O1U O -0.02182(6) 0.48909(4) 0.7500
N1U N 0.08032(4) 0.54016(3) 0.60002(15)
H1U H 0.0630(6) 0.5315(4) 0.485(3)
C2U C 0.26340(4) 0.63170(3) 0.65295(14)
C3U C 0.20494(4) 0.60247(3) 0.55492(16)
H3U H 0.2048(4) 0.6024(3) 0.417(2)
C4U C 0.14632(4) 0.57316(3) 0.65382(16)
C5U C 0.03992(8) 0.51996(6) 0.7500
N1F N 0.08032(4) 0.54016(3) 0.89998(15)
H1F H 0.0630(6) 0.5315(4) 1.015(3)
C1A C 0.3333 0.6666 0.9264(2)
H2A H 0.3333 0.6666 1.068(3)
C2F C 0.26340(4) 0.63170(3) 0.84705(14)
C3F C 0.20494(4) 0.60247(3) 0.94508(16)
H3F H 0.2048(4) 0.6024(3) 1.083(2)
C4F C 0.14632(4) 0.57316(3) 0.84618(16)
N1O N 0.45984(3) 0.54016(3) 0.89998(15)
H1O H 0.4685(4) 0.5315(4) 1.015(3)
C2O C 0.36830(3) 0.63170(3) 0.84705(14)
C3O C 0.39753(3) 0.60247(3) 0.94508(16)
H3O H 0.3976(3) 0.6024(3) 1.083(2)
C4O C 0.42684(3) 0.57316(3) 0.84618(16)
N1A N 0.45984(3) 0.91968(4) 0.89998(15)
H1A H 0.4685(4) 0.9370(6) 1.015(3)
C2A C 0.36830(3) 0.73660(4) 0.84705(14)
C3A C 0.39753(3) 0.79506(4) 0.94508(16)
H3A H 0.3976(3) 0.7952(4) 1.083(2)
C4A C 0.42684(3) 0.85368(4) 0.84618(16)
loop_
_geom_bond_atom_site_label_1
_geom_bond_atom_site_label_2
_geom_bond_site_symmetry_1
_geom_bond_site_symmetry_2
O1 C5 1_555 1_555
N1 H1 1_555 1_555
C1 H2 1_555 1_555
C2 C1 1_555 1_555
C3 C2 1_555 1_555
H3 C3 1_555 1_555
C4 N1 1_555 1_555
C5 N1 1_555 1_555
O1A C5A 1_555 1_555
N1B H1B 1_555 1_555
C2B C1 1_555 1_555
C3B C2B 1_555 1_555
H3B C3B 1_555 1_555
C4B N1B 1_555 1_555
C5A N1B 1_555 1_555
O1U C5U 1_555 1_555
N1U H1U 1_555 1_555
C2U C1 1_555 1_555
C3U C2U 1_555 1_555
H3U C3U 1_555 1_555
C4U N1U 1_555 1_555
C5U N1U 1_555 1_555
N1F C5U 1_555 1_555
H1F N1F 1_555 1_555
C1A H2A 1_555 1_555
C2F C2U 1_555 1_555
C3F C2F 1_555 1_555
H3F C3F 1_555 1_555
C4F C4U 1_555 1_555
N1O C5 1_555 1_555
H1O N1O 1_555 1_555
C2O C2 1_555 1_555
C3O C2O 1_555 1_555
H3O C3O 1_555 1_555
C4O C4 1_555 1_555
N1A C5A 1_555 1_555
H1A N1A 1_555 1_555
C2A C2B 1_555 1_555
C3A C2A 1_555 1_555
H3A C3A 1_555 1_555
C4A C4B 1_555 1_555
C3 C4 1_555 1_555
C3B C4B 1_555 1_555
C3U C4U 1_555 1_555
N1F C4F 1_555 1_555
C1A C2F 1_555 1_555
C1A C2O 1_555 1_555
C1A C2A 1_555 1_555
C3F C4F 1_555 1_555
N1O C4O 1_555 1_555
C3O C4O 1_555 1_555
N1A C4A 1_555 1_555
C3A C4A 1_555 1_555

#END
