
#######################################################################
#
#                 Cambridge Crystallographic Data Centre
#                                CCDC 
#
#######################################################################
#
# If this CIF has been generated from an entry in the Cambridge 
# Structural Database, then it will include bibliographic, chemical, 
# crystal, experimental, refinement or atomic coordinate data resulting 
# from the CCDC's data processing and validation procedures.
#
#######################################################################

data_DEBXIT06
_chemical_formula_moiety         'C23 H14 N6 O3'
_chemical_name_systematic        
5,7,15,17,24,26-hexa-azaoctacyclo[9.9.9.0^2,10^.0^4,8^.0^12,20^.0^14,18^.0^21,29^.0^23,27^]nonacosa-2(10),3,8,12(20),13,18,21(29),22,27-nonaene-6,16,25-trione
_symmetry_cell_setting           triclinic
_symmetry_space_group_name_H-M   'P -1'
_symmetry_Int_Tables_number      2
_space_group_name_Hall           '-P 1'
loop_
_symmetry_equiv_pos_site_id
_symmetry_equiv_pos_as_xyz
1 x,y,z
2 -x,-y,-z
_cell_length_a                   7.2523(17)
_cell_length_b                   13.033(3)
_cell_length_c                   20.693(5)
_cell_angle_alpha                72.701(9)
_cell_angle_beta                 86.552(6)
_cell_angle_gamma                73.915(6)
_cell_volume                     1793.78
_exptl_crystal_colour            colorless
_exptl_crystal_description       block
_cell_formula_units_Z            2
loop_
_atom_site_label
_atom_site_type_symbol
_atom_site_fract_x
_atom_site_fract_y
_atom_site_fract_z
O1 O 1.0432(7) -0.2634(4) 0.4658(3)
O2 O 0.7496(9) 0.5112(7) -0.0220(3)
O3 O 0.5128(7) 0.8018(4) 0.4693(3)
N1 N 0.8096(8) -0.0914(5) 0.4387(3)
H1 H 0.7074 -0.1139 0.4442
N2 N 1.1141(8) -0.0919(5) 0.4387(3)
H2 H 1.2368 -0.1151 0.4443
N3 N 0.6052(10) 0.4581(7) 0.0818(3)
H3 H 0.4925 0.4639 0.0678
N4 N 0.9081(9) 0.4603(7) 0.0823(3)
H4 H 1.0195 0.4672 0.0686
N5 N 0.4343(8) 0.6594(4) 0.4398(3)
H5 H 0.3117 0.6792 0.4436
N6 N 0.7395(8) 0.6540(5) 0.4446(3)
H6 H 0.8425 0.6692 0.4524
C1 C 0.9495(9) 0.3320(5) 0.3410(3)
H7 H 1.0847 0.3318 0.3414
C2 C 0.9173(9) 0.2165(5) 0.3746(3)
C3 C 0.7255(9) 0.2155(5) 0.3739(3)
C4 C 0.5919(10) 0.3329(5) 0.3399(4)
H8 H 0.4566 0.3335 0.3394
C5 C 1.0632(10) 0.1183(6) 0.3965(3)
H9 H 1.1914 0.1182 0.3971
C6 C 1.0067(9) 0.0196(6) 0.4175(4)
C7 C 0.8169(9) 0.0193(5) 0.4173(3)
C8 C 0.6702(10) 0.1179(6) 0.3962(4)
H10 H 0.5419 0.1180 0.3970
C9 C 0.9928(10) -0.1573(6) 0.4491(4)
C10 C 0.8628(9) 0.3678(6) 0.2698(4)
C11 C 0.9601(9) 0.3968(6) 0.2100(3)
H11 H 1.0888 0.3959 0.2102
C12 C 0.8564(11) 0.4271(8) 0.1504(4)
C13 C 0.6651(11) 0.4251(8) 0.1496(4)
C14 C 0.5676(10) 0.3974(6) 0.2085(4)
H12 H 0.4386 0.3993 0.2078
C15 C 0.6706(9) 0.3664(6) 0.2694(3)
C16 C 0.7538(12) 0.4800(10) 0.0414(5)
C17 C 0.8194(9) 0.4130(5) 0.3761(3)
C18 C 0.8767(9) 0.4878(5) 0.3992(4)
H13 H 1.0050 0.4874 0.4000
C19 C 0.7313(10) 0.5653(6) 0.4216(4)
C20 C 0.5412(10) 0.5662(6) 0.4190(3)
C21 C 0.4831(10) 0.4904(5) 0.3966(4)
H14 H 0.3548 0.4907 0.3962
C22 C 0.6265(9) 0.4133(5) 0.3744(3)
C23 C 0.5595(10) 0.7118(6) 0.4526(4)
loop_
_geom_bond_atom_site_label_1
_geom_bond_atom_site_label_2
_geom_bond_site_symmetry_1
_geom_bond_site_symmetry_2
O1 C9 1_555 1_555
O2 C16 1_555 1_555
O3 C23 1_555 1_555
N1 H1 1_555 1_555
N2 H2 1_555 1_555
N3 H3 1_555 1_555
N4 H4 1_555 1_555
N5 H5 1_555 1_555
N6 H6 1_555 1_555
C1 H7 1_555 1_555
C2 C1 1_555 1_555
C3 C2 1_555 1_555
C4 C3 1_555 1_555
H8 C4 1_555 1_555
C5 C2 1_555 1_555
H9 C5 1_555 1_555
C6 N2 1_555 1_555
C7 N1 1_555 1_555
C8 C3 1_555 1_555
H10 C8 1_555 1_555
C9 N1 1_555 1_555
C10 C1 1_555 1_555
C11 C10 1_555 1_555
H11 C11 1_555 1_555
C12 N4 1_555 1_555
C13 N3 1_555 1_555
C14 C13 1_555 1_555
H12 C14 1_555 1_555
C15 C4 1_555 1_555
C16 N3 1_555 1_555
C17 C1 1_555 1_555
C18 C17 1_555 1_555
H13 C18 1_555 1_555
C19 N6 1_555 1_555
C20 N5 1_555 1_555
C21 C20 1_555 1_555
H14 C21 1_555 1_555
C22 C4 1_555 1_555
C23 N5 1_555 1_555
N2 C9 1_555 1_555
N4 C16 1_555 1_555
N6 C23 1_555 1_555
C5 C6 1_555 1_555
C6 C7 1_555 1_555
C7 C8 1_555 1_555
C10 C15 1_555 1_555
C11 C12 1_555 1_555
C12 C13 1_555 1_555
C14 C15 1_555 1_555
C17 C22 1_555 1_555
C18 C19 1_555 1_555
C19 C20 1_555 1_555
C21 C22 1_555 1_555

#END
