
#######################################################################
#
#                 Cambridge Crystallographic Data Centre
#                                CCDC 
#
#######################################################################
#
# If this CIF has been generated from an entry in the Cambridge 
# Structural Database, then it will include bibliographic, chemical, 
# crystal, experimental, refinement or atomic coordinate data resulting 
# from the CCDC's data processing and validation procedures.
#
#######################################################################

data_DEBXIT05
_chemical_formula_moiety         'C23 H14 N6 O3'
_chemical_name_systematic        
5,7,15,17,24,26-hexa-azaoctacyclo[9.9.9.0^2,10^.0^4,8^.0^12,20^.0^14,18^.0^21,29^.0^23,27^]nonacosa-2(10),3,8,12(20),13,18,21(29),22,27-nonaene-6,16,25-trione
_symmetry_cell_setting           triclinic
_symmetry_space_group_name_H-M   'P -1'
_symmetry_Int_Tables_number      2
_space_group_name_Hall           '-P 1'
loop_
_symmetry_equiv_pos_site_id
_symmetry_equiv_pos_as_xyz
1 x,y,z
2 -x,-y,-z
_cell_length_a                   7.2460(9)
_cell_length_b                   13.0328(16)
_cell_length_c                   20.660(3)
_cell_angle_alpha                72.464(4)
_cell_angle_beta                 86.349(4)
_cell_angle_gamma                74.035(4)
_cell_volume                     1788.22
_exptl_crystal_colour            colorless
_exptl_crystal_description       block
_cell_formula_units_Z            2
loop_
_atom_site_label
_atom_site_type_symbol
_atom_site_fract_x
_atom_site_fract_y
_atom_site_fract_z
O1 O 0.99574(18) 0.19939(10) 0.03063(7)
O2 O 0.46451(18) 1.26401(10) 0.03389(7)
N1 N 0.6954(2) 1.09254(11) 0.06080(8)
H1 H 0.7988 1.1156 0.0554
O3 O 0.7501(2) 0.48915(17) 0.52199(8)
N2 N 0.3919(2) 1.09275(11) 0.06173(8)
H2 H 0.2675 1.1160 0.0572
N3 N 1.0714(2) 0.34204(11) 0.06045(8)
H3 H 1.1957 0.3223 0.0571
N4 N 0.7673(2) 0.34665(12) 0.05546(8)
H4 H 0.6631 0.3308 0.0479
N5 N 0.5943(2) 0.54036(17) 0.41736(8)
H5 H 0.4813 0.5331 0.4311
N6 N 0.8963(2) 0.54134(17) 0.41809(9)
H6 H 1.0106 0.5348 0.4324
C1 C 0.4987(2) 0.98127(14) 0.08217(9)
C2 C 0.5880(2) 0.78448(14) 0.12514(9)
C3 C 0.8808(2) 0.58712(13) 0.12526(9)
C4 C 0.6912(2) 0.98094(14) 0.08188(9)
C5 C 0.7811(2) 0.78439(14) 0.12548(9)
C6 C 0.9123(2) 0.66897(14) 0.15948(9)
H7 H 1.0487 0.6691 0.1599
C7 C 0.9666(2) 0.43367(14) 0.08079(9)
C8 C 0.9494(3) 0.28816(14) 0.04671(10)
C9 C 0.4430(2) 0.88282(14) 0.10321(9)
H8 H 0.3134 0.8828 0.1026
C10 C 0.5130(3) 1.15972(14) 0.04994(9)
C11 C 0.8363(2) 0.88274(14) 0.10322(9)
H9 H 0.9661 0.8828 0.1026
C12 C 0.6304(2) 0.51300(13) 0.09963(9)
H10 H 0.5003 0.5145 0.0977
C13 C 0.8345(2) 0.63386(14) 0.23094(9)
C14 C 0.5442(3) 0.60359(16) 0.28967(10)
H11 H 0.4146 0.6035 0.2893
C15 C 0.6874(2) 0.58776(13) 0.12397(9)
C16 C 0.9365(3) 0.60437(16) 0.29089(10)
H12 H 1.0661 0.6045 0.2914
C17 C 0.5575(2) 0.66899(13) 0.15815(9)
H13 H 0.4211 0.6688 0.1576
C18 C 0.6469(3) 0.57394(18) 0.34979(10)
C19 C 0.8382(3) 0.57450(18) 0.35045(10)
C20 C 0.7736(2) 0.43587(14) 0.07831(9)
C21 C 0.6415(2) 0.63338(14) 0.23009(9)
C22 C 1.0234(3) 0.51028(14) 0.10352(9)
H14 H 1.1531 0.5101 0.1041
C23 C 0.7473(3) 0.5207(2) 0.45857(12)
loop_
_geom_bond_atom_site_label_1
_geom_bond_atom_site_label_2
_geom_bond_site_symmetry_1
_geom_bond_site_symmetry_2
O1 C8 1_555 1_555
O2 C10 1_555 1_555
N1 H1 1_555 1_555
O3 C23 1_555 1_555
N2 H2 1_555 1_555
N3 H3 1_555 1_555
N4 H4 1_555 1_555
N5 H5 1_555 1_555
N6 H6 1_555 1_555
C1 N2 1_555 1_555
C2 C5 1_555 1_555
C3 C6 1_555 1_555
C4 N1 1_555 1_555
C5 C6 1_555 1_555
C6 H7 1_555 1_555
C7 N3 1_555 1_555
C8 N3 1_555 1_555
C9 C1 1_555 1_555
H8 C9 1_555 1_555
C10 N1 1_555 1_555
C11 C4 1_555 1_555
H9 C11 1_555 1_555
C12 H10 1_555 1_555
C13 C6 1_555 1_555
C14 H11 1_555 1_555
C15 C3 1_555 1_555
C16 C13 1_555 1_555
H12 C16 1_555 1_555
C17 C2 1_555 1_555
H13 C17 1_555 1_555
C18 N5 1_555 1_555
C19 N6 1_555 1_555
C20 N4 1_555 1_555
C21 C13 1_555 1_555
C22 C3 1_555 1_555
H14 C22 1_555 1_555
C23 N5 1_555 1_555
N2 C10 1_555 1_555
N4 C8 1_555 1_555
N6 C23 1_555 1_555
C1 C4 1_555 1_555
C2 C9 1_555 1_555
C5 C11 1_555 1_555
C7 C20 1_555 1_555
C7 C22 1_555 1_555
C12 C15 1_555 1_555
C12 C20 1_555 1_555
C14 C18 1_555 1_555
C14 C21 1_555 1_555
C15 C17 1_555 1_555
C16 C19 1_555 1_555
C17 C21 1_555 1_555
C18 C19 1_555 1_555

#END
