
#######################################################################
#
#                 Cambridge Crystallographic Data Centre
#                                CCDC 
#
#######################################################################
#
# If this CIF has been generated from an entry in the Cambridge 
# Structural Database, then it will include bibliographic, chemical, 
# crystal, experimental, refinement or atomic coordinate data resulting 
# from the CCDC's data processing and validation procedures.
#
#######################################################################

data_DECFID
_chemical_formula_moiety         'C26 H32 N2 O4'
_chemical_name_systematic        
'ethyl 5-(4-(5-(ethoxycarbonyl)-3,4-diethyl-1H-pyrrol-2-yl)buta-1,3-diyn-1-yl)-3,4-diethyl-1H-pyrrole-2-carboxylate'
_symmetry_cell_setting           triclinic
_symmetry_space_group_name_H-M   'P -1'
_symmetry_Int_Tables_number      2
_space_group_name_Hall           '-P 1'
loop_
_symmetry_equiv_pos_site_id
_symmetry_equiv_pos_as_xyz
1 x,y,z
2 -x,-y,-z
_cell_length_a                   7.0237(14)
_cell_length_b                   9.437(2)
_cell_length_c                   10.321(2)
_cell_angle_alpha                115.430(2)
_cell_angle_beta                 97.730(3)
_cell_angle_gamma                97.951(3)
_cell_volume                     597.33
_exptl_crystal_colour            colorless
_exptl_crystal_description       block
_cell_formula_units_Z            1
loop_
_atom_site_label
_atom_site_type_symbol
_atom_site_fract_x
_atom_site_fract_y
_atom_site_fract_z
N1 N 0.30173(19) 0.16215(15) 1.05460(13)
O1 O 0.22837(17) -0.11976(14) 0.67574(11)
O2 O 0.03089(17) -0.09744(15) 0.83290(12)
C1 C 0.3374(2) 0.08476(17) 0.91715(15)
C2 C 0.5256(2) 0.15513(17) 0.91734(15)
C3 C 0.4622(2) 0.28038(17) 1.14396(15)
C4 C 0.4901(2) 0.45511(18) 1.42574(16)
C5 C 0.4735(2) 0.37619(18) 1.29552(17)
C6 C 0.1844(2) -0.05022(18) 0.80758(16)
C7 C 0.6289(2) 0.1076(2) 0.79147(17)
H1 H 0.5944 -0.0085 0.7342
H2 H 0.7700 0.1388 0.8307
C8 C 0.7997(2) 0.39662(19) 1.11734(18)
H3 H 0.8960 0.3418 1.0689
H4 H 0.8418 0.4314 1.2218
C9 C 0.6047(2) 0.28073(18) 1.06134(16)
C10 C 0.0813(3) -0.2598(2) 0.56311(19)
H5 H 0.0259 -0.3239 0.6071
H6 H 0.1440 -0.3260 0.4877
C11 C 0.7957(3) 0.5434(2) 1.0925(2)
H7 H 0.7638 0.5107 0.9889
H8 H 0.9227 0.6156 1.1349
H9 H 0.6983 0.5969 1.1379
C12 C 0.5798(3) 0.1818(3) 0.6911(2)
H10 H 0.4401 0.1534 0.6530
H11 H 0.6459 0.1426 0.6111
H12 H 0.6221 0.2967 0.7452
C13 C -0.0782(3) -0.2093(3) 0.4956(2)
H13 H -0.1393 -0.1428 0.5704
H14 H -0.1746 -0.3027 0.4241
H15 H -0.0242 -0.1497 0.4486
H16 H 0.193(3) 0.135(2) 1.0802(19)
N1A N 0.69827(19) 0.83785(15) 1.94540(13)
O1A O 0.77163(17) 1.11976(14) 2.32426(11)
O2A O 0.96911(17) 1.09744(15) 2.16710(12)
C1A C 0.6626(2) 0.91524(17) 2.08285(15)
C2A C 0.4744(2) 0.84487(17) 2.08266(15)
C3A C 0.5378(2) 0.71962(17) 1.85604(15)
C4A C 0.5099(2) 0.54489(18) 1.57426(16)
C5A C 0.5265(2) 0.62381(18) 1.70448(17)
C6A C 0.8156(2) 1.05022(18) 2.19242(16)
C7A C 0.3711(2) 0.8924(2) 2.20853(17)
H1A H 0.4056 1.0085 2.2658
H2A H 0.2300 0.8612 2.1693
C8A C 0.2003(2) 0.60338(19) 1.88266(18)
H3A H 0.1040 0.6582 1.9311
H4A H 0.1582 0.5686 1.7782
C9A C 0.3953(2) 0.71927(18) 1.93866(16)
C10A C 0.9187(3) 1.2598(2) 2.43689(19)
H5A H 0.9741 1.3239 2.3929
H6A H 0.8560 1.3260 2.5123
C11A C 0.2043(3) 0.4566(2) 1.9075(2)
H7A H 0.2362 0.4893 2.0111
H8A H 0.0773 0.3844 1.8651
H9A H 0.3017 0.4031 1.8621
C12A C 0.4202(3) 0.8182(3) 2.3089(2)
H10A H 0.5599 0.8466 2.3470
H11A H 0.3541 0.8574 2.3889
H12A H 0.3779 0.7033 2.2548
C13A C 1.0782(3) 1.2093(3) 2.5044(2)
H13A H 1.1393 1.1428 2.4296
H14A H 1.1746 1.3027 2.5759
H15A H 1.0242 1.1497 2.5514
H16A H 0.807(3) 0.865(2) 1.9198(19)
loop_
_geom_bond_atom_site_label_1
_geom_bond_atom_site_label_2
_geom_bond_site_symmetry_1
_geom_bond_site_symmetry_2
N1 C1 1_555 1_555
O1 C6 1_555 1_555
O2 C6 1_555 1_555
C1 C2 1_555 1_555
C2 C7 1_555 1_555
C3 N1 1_555 1_555
C4 C5 1_555 1_555
C5 C3 1_555 1_555
C6 C1 1_555 1_555
C7 H1 1_555 1_555
H2 C7 1_555 1_555
C8 H3 1_555 1_555
H4 C8 1_555 1_555
C9 C2 1_555 1_555
C10 O1 1_555 1_555
H5 C10 1_555 1_555
H6 C10 1_555 1_555
C11 C8 1_555 1_555
H7 C11 1_555 1_555
H8 C11 1_555 1_555
H9 C11 1_555 1_555
C12 C7 1_555 1_555
H10 C12 1_555 1_555
H11 C12 1_555 1_555
H12 C12 1_555 1_555
C13 C10 1_555 1_555
H13 C13 1_555 1_555
H14 C13 1_555 1_555
H15 C13 1_555 1_555
H16 N1 1_555 1_555
N1A C1A 1_555 1_555
O1A C6A 1_555 1_555
O2A C6A 1_555 1_555
C1A C2A 1_555 1_555
C2A C7A 1_555 1_555
C3A N1A 1_555 1_555
C4A C4 1_555 1_555
C5A C3A 1_555 1_555
C6A C1A 1_555 1_555
C7A H1A 1_555 1_555
H2A C7A 1_555 1_555
C8A H3A 1_555 1_555
H4A C8A 1_555 1_555
C9A C2A 1_555 1_555
C10A O1A 1_555 1_555
H5A C10A 1_555 1_555
H6A C10A 1_555 1_555
C11A C8A 1_555 1_555
H7A C11A 1_555 1_555
H8A C11A 1_555 1_555
H9A C11A 1_555 1_555
C12A C7A 1_555 1_555
H10A C12A 1_555 1_555
H11A C12A 1_555 1_555
H12A C12A 1_555 1_555
C13A C10A 1_555 1_555
H13A C13A 1_555 1_555
H14A C13A 1_555 1_555
H15A C13A 1_555 1_555
H16A N1A 1_555 1_555
C3 C9 1_555 1_555
C8 C9 1_555 1_555
C3A C9A 1_555 1_555
C4A C5A 1_555 1_555
C8A C9A 1_555 1_555

#END
