
#######################################################################
#
#                 Cambridge Crystallographic Data Centre
#                                CCDC 
#
#######################################################################
#
# If this CIF has been generated from an entry in the Cambridge 
# Structural Database, then it will include bibliographic, chemical, 
# crystal, experimental, refinement or atomic coordinate data resulting 
# from the CCDC's data processing and validation procedures.
#
#######################################################################

data_DECHUR
_chemical_compound_source        
'isolation of metabolites from cultures of the plant-derived fungus Emericella sp. TJ29'
_chemical_name_common            'emervaridone B'
_chemical_formula_moiety         'C25 H28 O4'
_chemical_name_systematic        
3,7,7,13-tetramethyl-20-methylene-17-oxahexacyclo[11.7.1.0^2,11^.0^3,8^.0^11,19^.0^15,19^]henicosa-4,14-diene-6,16,21-trione
_symmetry_cell_setting           monoclinic
_symmetry_space_group_name_H-M   'P 21'
_symmetry_Int_Tables_number      4
_space_group_name_Hall           'P 2yb'
loop_
_symmetry_equiv_pos_site_id
_symmetry_equiv_pos_as_xyz
1 x,y,z
2 -x,1/2+y,-z
_cell_length_a                   12.2820(2)
_cell_length_b                   12.44920(10)
_cell_length_c                   13.3615(2)
_cell_angle_alpha                90
_cell_angle_beta                 103.8280(10)
_cell_angle_gamma                90
_cell_volume                     1983.78
_exptl_crystal_colour            colorless
_exptl_crystal_description       block
_cell_formula_units_Z            4
loop_
_atom_site_label
_atom_site_type_symbol
_atom_site_fract_x
_atom_site_fract_y
_atom_site_fract_z
O1 O 0.0813(3) 0.5382(3) 1.2501(3)
O2 O 0.5132(3) 0.9651(3) 0.9635(4)
O3 O 0.2294(3) 0.5673(3) 1.1830(3)
O4 O -0.1174(3) 0.8799(3) 0.9647(3)
C1 C 0.1199(4) 0.5725(4) 1.1806(4)
C2 C 0.0602(4) 0.6255(4) 1.0847(4)
C3 C 0.1458(4) 0.6659(4) 1.0289(4)
C4 C 0.1018(4) 0.6607(4) 0.9058(3)
C5 C 0.1737(4) 0.5898(4) 0.8537(4)
H1 H 0.1351 0.5816 0.7801
H2 H 0.1797 0.5175 0.8855
C6 C 0.2942(4) 0.6341(4) 0.8611(4)
H3 H 0.3483 0.5918 0.9131
H4 H 0.3133 0.6241 0.7938
C7 C 0.3068(4) 0.7530(4) 0.8906(4)
H5 H 0.3003 0.7547 0.9638
C8 C 0.4244(4) 0.8012(4) 0.8950(4)
C9 C 0.4256(4) 0.9210(4) 0.9228(4)
C10 C 0.2500(4) 0.6006(4) 1.0842(4)
H6 H 0.2598 0.5371 1.0427
H7 H 0.3184 0.6454 1.0952
C11 C 0.1514(4) 0.7862(4) 1.0520(4)
C12 C 0.0707(4) 0.8376(4) 0.9612(4)
H8 H 0.0827 0.9169 0.9592
C13 C 0.0998(4) 0.7806(4) 0.8680(4)
H9 H 0.0336 0.7885 0.8081
C14 C 0.2053(4) 0.8182(4) 0.8317(4)
C15 C 0.1788(4) 0.8033(4) 0.7133(4)
H10 H 0.1151 0.8489 0.6808
H11 H 0.1601 0.7279 0.6961
H12 H 0.2445 0.8237 0.6879
C16 C 0.2219(4) 0.9364(4) 0.8508(4)
H13 H 0.1586 0.9824 0.8309
C17 C 0.3206(4) 0.9802(4) 0.8939(4)
H14 H 0.3227 1.0553 0.9069
C18 C 0.5112(5) 0.7429(5) 0.9785(4)
H15 H 0.5829 0.7813 0.9909
H16 H 0.5212 0.6695 0.9557
H17 H 0.4852 0.7406 1.0423
C19 C 0.4639(5) 0.7951(5) 0.7940(4)
H18 H 0.5395 0.8253 0.8052
H19 H 0.4124 0.8363 0.7403
H20 H 0.4648 0.7200 0.7723
C20 C -0.0206(4) 0.6266(4) 0.8789(4)
H21 H -0.0258 0.5487 0.8919
H22 H -0.0534 0.6398 0.8048
C21 C -0.0882(4) 0.6901(4) 0.9445(4)
C22 C -0.0477(4) 0.6430(4) 1.0519(4)
H23 H -0.0984 0.6270 1.0934
C23 C -0.2144(4) 0.6804(4) 0.9059(4)
H24 H -0.2355 0.6043 0.9001
H25 H -0.2380 0.7146 0.8381
H26 H -0.2511 0.7160 0.9544
C24 C -0.0517(4) 0.8105(4) 0.9573(4)
C25 C 0.2150(4) 0.8351(4) 1.1323(4)
H27 H 0.2132 0.9111 1.1374
H28 H 0.2629 0.7943 1.1851
O5 O -0.0379(3) 0.4430(3) 0.5177(3)
O6 O 0.4060(3) 0.0136(3) 0.2673(3)
O7 O 0.5810(3) 0.4012(3) 0.4859(3)
O8 O 0.2629(3) 0.0426(3) 0.3415(3)
C26 C 0.0534(4) 0.4125(4) 0.5644(4)
C27 C 0.0703(4) 0.3004(4) 0.6140(4)
C28 C 0.1903(4) 0.2599(4) 0.6167(4)
H29 H 0.1912 0.2522 0.5424
C29 C 0.2185(4) 0.1472(4) 0.6615(4)
H30 H 0.1665 0.0949 0.6190
H31 H 0.2064 0.1451 0.7321
C30 C 0.3410(4) 0.1126(4) 0.6655(4)
H32 H 0.3854 0.1171 0.7377
H33 H 0.3408 0.0366 0.6436
C31 C 0.3987(4) 0.1808(4) 0.5975(3)
C32 C 0.3451(4) 0.1675(4) 0.4762(4)
C33 C 0.4281(4) 0.1259(4) 0.4183(4)
C34 C 0.3696(4) 0.0556(4) 0.3346(4)
C35 C 0.1520(4) 0.4832(4) 0.5818(4)
H34 H 0.1411 0.5558 0.5598
C36 C 0.2550(4) 0.4516(4) 0.6262(4)
H35 H 0.3128 0.5041 0.6374
C37 C 0.2870(4) 0.3387(4) 0.6603(4)
C38 C 0.5234(4) 0.1582(4) 0.6189(4)
H36 H 0.5358 0.0799 0.6150
H37 H 0.5601 0.1825 0.6894
C39 C 0.5766(4) 0.2173(4) 0.5394(4)
C40 C 0.5261(4) 0.3307(4) 0.5122(4)
C41 C 0.4042(4) 0.3503(4) 0.5160(4)
H38 H 0.3843 0.4283 0.5091
C42 C 0.3907(4) 0.3035(4) 0.6197(4)
H39 H 0.4593 0.3234 0.6736
C43 C 0.3235(4) 0.2828(4) 0.4385(4)
C44 C 0.2466(4) 0.0887(4) 0.4381(4)
H40 H 0.2473 0.0316 0.4897
H41 H 0.1740 0.1272 0.4259
C45 C 0.5344(4) 0.1540(4) 0.4414(4)
H42 H 0.5827 0.1352 0.3982
C46 C 0.2468(4) 0.3187(4) 0.3586(4)
H43 H 0.2389 0.3937 0.3459
H44 H 0.1996 0.2695 0.3139
C47 C 0.7026(4) 0.2215(5) 0.5703(4)
H45 H 0.7321 0.1495 0.5906
H46 H 0.7265 0.2709 0.6284
H47 H 0.7311 0.2467 0.5119
C48 C 0.0422(4) 0.3123(4) 0.7193(4)
H48 H -0.0362 0.3345 0.7095
H49 H 0.0912 0.3667 0.7601
H50 H 0.0537 0.2434 0.7557
C49 C -0.0135(4) 0.2221(4) 0.5493(4)
H51 H -0.0119 0.1542 0.5867
H52 H 0.0067 0.2089 0.4836
H53 H -0.0890 0.2530 0.5359
C50 C 0.3240(4) 0.3401(4) 0.7789(4)
H54 H 0.3847 0.3922 0.8010
H55 H 0.3504 0.2685 0.8040
H56 H 0.2602 0.3605 0.8072
loop_
_geom_bond_atom_site_label_1
_geom_bond_atom_site_label_2
_geom_bond_site_symmetry_1
_geom_bond_site_symmetry_2
O1 C1 1_555 1_555
O2 C9 1_555 1_555
O3 C1 1_555 1_555
O4 C24 1_555 1_555
C1 C2 1_555 1_555
C2 C3 1_555 1_555
C3 C4 1_555 1_555
C4 C5 1_555 1_555
C5 H1 1_555 1_555
H2 C5 1_555 1_555
C6 C5 1_555 1_555
H3 C6 1_555 1_555
H4 C6 1_555 1_555
C7 C6 1_555 1_555
H5 C7 1_555 1_555
C8 C7 1_555 1_555
C9 C8 1_555 1_555
C10 O3 1_555 1_555
H6 C10 1_555 1_555
H7 C10 1_555 1_555
C11 C3 1_555 1_555
C12 C11 1_555 1_555
H8 C12 1_555 1_555
C13 C4 1_555 1_555
H9 C13 1_555 1_555
C14 C7 1_555 1_555
C15 C14 1_555 1_555
H10 C15 1_555 1_555
H11 C15 1_555 1_555
H12 C15 1_555 1_555
C16 C14 1_555 1_555
H13 C16 1_555 1_555
C17 C9 1_555 1_555
H14 C17 1_555 1_555
C18 C8 1_555 1_555
H15 C18 1_555 1_555
H16 C18 1_555 1_555
H17 C18 1_555 1_555
C19 C8 1_555 1_555
H18 C19 1_555 1_555
H19 C19 1_555 1_555
H20 C19 1_555 1_555
C20 C4 1_555 1_555
H21 C20 1_555 1_555
H22 C20 1_555 1_555
C21 C20 1_555 1_555
C22 C2 1_555 1_555
H23 C22 1_555 1_555
C23 C21 1_555 1_555
H24 C23 1_555 1_555
H25 C23 1_555 1_555
H26 C23 1_555 1_555
C24 C12 1_555 1_555
C25 C11 1_555 1_555
H27 C25 1_555 1_555
H28 C25 1_555 1_555
O5 C26 1_555 1_555
O6 C34 1_555 1_555
O7 C40 1_555 1_555
O8 C34 1_555 1_555
C26 C27 1_555 1_555
C27 C28 1_555 1_555
C28 H29 1_555 1_555
C29 C28 1_555 1_555
H30 C29 1_555 1_555
H31 C29 1_555 1_555
C30 C29 1_555 1_555
H32 C30 1_555 1_555
H33 C30 1_555 1_555
C31 C30 1_555 1_555
C32 C31 1_555 1_555
C33 C32 1_555 1_555
C34 C33 1_555 1_555
C35 C26 1_555 1_555
H34 C35 1_555 1_555
C36 C35 1_555 1_555
H35 C36 1_555 1_555
C37 C28 1_555 1_555
C38 C31 1_555 1_555
H36 C38 1_555 1_555
H37 C38 1_555 1_555
C39 C38 1_555 1_555
C40 C39 1_555 1_555
C41 C40 1_555 1_555
H38 C41 1_555 1_555
C42 C31 1_555 1_555
H39 C42 1_555 1_555
C43 C32 1_555 1_555
C44 O8 1_555 1_555
H40 C44 1_555 1_555
H41 C44 1_555 1_555
C45 C33 1_555 1_555
H42 C45 1_555 1_555
C46 C43 1_555 1_555
H43 C46 1_555 1_555
H44 C46 1_555 1_555
C47 C39 1_555 1_555
H45 C47 1_555 1_555
H46 C47 1_555 1_555
H47 C47 1_555 1_555
C48 C27 1_555 1_555
H48 C48 1_555 1_555
H49 C48 1_555 1_555
H50 C48 1_555 1_555
C49 C27 1_555 1_555
H51 C49 1_555 1_555
H52 C49 1_555 1_555
H53 C49 1_555 1_555
C50 C37 1_555 1_555
H54 C50 1_555 1_555
H55 C50 1_555 1_555
H56 C50 1_555 1_555
C3 C10 1_555 1_555
C12 C13 1_555 1_555
C13 C14 1_555 1_555
C16 C17 1_555 1_555
C21 C22 1_555 1_555
C21 C24 1_555 1_555
C32 C44 1_555 1_555
C36 C37 1_555 1_555
C37 C42 1_555 1_555
C39 C45 1_555 1_555
C41 C42 1_555 1_555
C41 C43 1_555 1_555

#END
