
#######################################################################
#
#                 Cambridge Crystallographic Data Centre
#                                CCDC 
#
#######################################################################
#
# If this CIF has been generated from an entry in the Cambridge 
# Structural Database, then it will include bibliographic, chemical, 
# crystal, experimental, refinement or atomic coordinate data resulting 
# from the CCDC's data processing and validation procedures.
#
#######################################################################

data_DECJAZ
_chemical_compound_source        
'isolation of metabolites from cultures of the plant-derived fungus Emericella sp. TJ29'
_chemical_name_common            'emervaridone A'
_chemical_formula_moiety         'C25 H30 O5'
_chemical_name_systematic        
14-hydroxy-3,7,7,13-tetramethyl-20-methylene-17-oxahexacyclo[11.7.1.0^2,11^.0^3,8^.0^11,19^.0^15,19^]henicos-4-ene-6,16,21-trione
_chemical_properties_biological  
'antibacterial activity against ESBL-producing E. coli and P. aeruginosa'
_symmetry_cell_setting           orthorhombic
_symmetry_space_group_name_H-M   'P 21 21 21'
_symmetry_Int_Tables_number      19
_space_group_name_Hall           'P 2ac 2ab'
loop_
_symmetry_equiv_pos_site_id
_symmetry_equiv_pos_as_xyz
1 x,y,z
2 1/2+x,1/2-y,-z
3 -x,1/2+y,1/2-z
4 1/2-x,-y,1/2+z
_cell_length_a                   11.4327(2)
_cell_length_b                   12.1836(2)
_cell_length_c                   14.6589(3)
_cell_angle_alpha                90
_cell_angle_beta                 90
_cell_angle_gamma                90
_cell_volume                     2041.86
_exptl_crystal_colour            colorless
_exptl_crystal_description       prism
_cell_formula_units_Z            4
loop_
_atom_site_label
_atom_site_type_symbol
_atom_site_fract_x
_atom_site_fract_y
_atom_site_fract_z
O1 O 1.06166(13) -0.07659(12) 0.25357(10)
H1 H 1.1350 -0.0797 0.2505
O2 O 0.29798(14) -0.06833(14) 0.30276(12)
O3 O 1.05581(14) -0.11940(13) 0.52629(11)
O4 O 0.86190(13) -0.14221(12) 0.52922(10)
O5 O 0.92304(14) 0.12716(12) 0.16560(10)
C1 C 1.02829(19) -0.02575(16) 0.33709(15)
H2 H 1.0994 -0.0198 0.3765
C2 C 0.93886(18) -0.09615(16) 0.38704(14)
H3 H 0.9387 -0.1690 0.3557
C3 C 0.80889(18) -0.05714(16) 0.38984(14)
C4 C 0.79550(18) 0.07070(16) 0.41430(14)
C5 C 0.72625(18) 0.12214(16) 0.33296(14)
H4 H 0.7582 0.1975 0.3224
C6 C 0.59026(18) 0.13334(16) 0.34689(14)
C7 C 0.55267(18) 0.04492(16) 0.41628(14)
H5 H 0.5949 -0.0230 0.3967
C8 C 0.42125(18) 0.01151(16) 0.41778(15)
C9 C 0.3385(2) 0.09649(18) 0.46031(16)
H6 H 0.2595 0.0656 0.4643
H7 H 0.3370 0.1626 0.4222
H8 H 0.3662 0.1156 0.5216
C10 C 0.37918(19) -0.00585(17) 0.31939(16)
C11 C 0.96415(19) -0.11893(16) 0.48661(15)
C12 C 0.76627(18) -0.13714(17) 0.46329(14)
H9 H 0.6938 -0.1098 0.4924
H10 H 0.7508 -0.2105 0.4368
C13 C 0.98067(18) 0.09163(16) 0.32052(14)
C14 C 0.91733(18) 0.12335(16) 0.40950(14)
H11 H 0.9644 0.0990 0.4624
H12 H 0.9096 0.2042 0.4128
C15 C 0.89549(18) 0.08937(16) 0.23852(14)
C16 C 0.76912(18) 0.04858(16) 0.25391(14)
H13 H 0.7198 0.0572 0.1980
C17 C 0.75836(18) -0.06518(17) 0.29485(14)
C18 C 0.70651(19) -0.15040(17) 0.25655(15)
H14 H 0.6976 -0.2168 0.2898
H15 H 0.6781 -0.1453 0.1958
C19 C 1.08117(19) 0.16942(18) 0.30003(16)
H16 H 1.0501 0.2426 0.2864
H17 H 1.1252 0.1422 0.2473
H18 H 1.1330 0.1736 0.3531
C20 C 0.73689(18) 0.09565(16) 0.50613(14)
H19 H 0.7498 0.1741 0.5208
H20 H 0.7762 0.0517 0.5540
C21 C 0.60316(18) 0.07193(17) 0.51049(14)
H21 H 0.5889 0.0094 0.5522
H22 H 0.5623 0.1369 0.5356
C22 C 0.52759(18) 0.12031(16) 0.25767(14)
H23 H 0.5570 0.1592 0.2064
C23 C 0.43305(19) 0.05752(17) 0.24571(15)
H24 H 0.3992 0.0538 0.1866
C24 C 0.56772(19) 0.25282(16) 0.37931(15)
H25 H 0.5885 0.3041 0.3304
H26 H 0.6156 0.2682 0.4333
H27 H 0.4848 0.2616 0.3947
C25 C 0.4072(2) -0.09687(18) 0.46959(17)
H28 H 0.3264 -0.1227 0.4639
H29 H 0.4260 -0.0854 0.5341
H30 H 0.4604 -0.1518 0.4439
loop_
_geom_bond_atom_site_label_1
_geom_bond_atom_site_label_2
_geom_bond_site_symmetry_1
_geom_bond_site_symmetry_2
O1 H1 1_555 1_555
O2 C10 1_555 1_555
O3 C11 1_555 1_555
O4 C11 1_555 1_555
O5 C15 1_555 1_555
C1 O1 1_555 1_555
H2 C1 1_555 1_555
C2 C1 1_555 1_555
H3 C2 1_555 1_555
C3 C2 1_555 1_555
C4 C3 1_555 1_555
C5 C4 1_555 1_555
H4 C5 1_555 1_555
C6 C5 1_555 1_555
C7 C6 1_555 1_555
H5 C7 1_555 1_555
C8 C7 1_555 1_555
C9 C8 1_555 1_555
H6 C9 1_555 1_555
H7 C9 1_555 1_555
H8 C9 1_555 1_555
C10 C8 1_555 1_555
C11 C2 1_555 1_555
C12 O4 1_555 1_555
H9 C12 1_555 1_555
H10 C12 1_555 1_555
C13 C1 1_555 1_555
C14 C4 1_555 1_555
H11 C14 1_555 1_555
H12 C14 1_555 1_555
C15 C13 1_555 1_555
C16 C5 1_555 1_555
H13 C16 1_555 1_555
C17 C3 1_555 1_555
C18 C17 1_555 1_555
H14 C18 1_555 1_555
H15 C18 1_555 1_555
C19 C13 1_555 1_555
H16 C19 1_555 1_555
H17 C19 1_555 1_555
H18 C19 1_555 1_555
C20 C4 1_555 1_555
H19 C20 1_555 1_555
H20 C20 1_555 1_555
C21 C7 1_555 1_555
H21 C21 1_555 1_555
H22 C21 1_555 1_555
C22 C6 1_555 1_555
H23 C22 1_555 1_555
C23 C10 1_555 1_555
H24 C23 1_555 1_555
C24 C6 1_555 1_555
H25 C24 1_555 1_555
H26 C24 1_555 1_555
H27 C24 1_555 1_555
C25 C8 1_555 1_555
H28 C25 1_555 1_555
H29 C25 1_555 1_555
H30 C25 1_555 1_555
C3 C12 1_555 1_555
C13 C14 1_555 1_555
C15 C16 1_555 1_555
C16 C17 1_555 1_555
C20 C21 1_555 1_555
C22 C23 1_555 1_555

#END
