
#######################################################################
#
#                 Cambridge Crystallographic Data Centre
#                                CCDC 
#
#######################################################################
#
# If this CIF has been generated from an entry in the Cambridge 
# Structural Database, then it will include bibliographic, chemical, 
# crystal, experimental, refinement or atomic coordinate data resulting 
# from the CCDC's data processing and validation procedures.
#
#######################################################################

data_DECPOT
_chemical_formula_moiety         'C24 H12 N4 O4,C10 H7 F1'
_chemical_name_systematic        
'2,7-bis(pyridin-4-yl)benzo[lmn][3,8]phenanthroline-1,3,6,8(2H,7H)-tetrone 1-fluoronaphthalene solvate'
_symmetry_cell_setting           monoclinic
_symmetry_space_group_name_H-M   'P 21/c'
_symmetry_Int_Tables_number      14
_space_group_name_Hall           '-P 2ybc'
loop_
_symmetry_equiv_pos_site_id
_symmetry_equiv_pos_as_xyz
1 x,y,z
2 -x,1/2+y,1/2-z
3 -x,-y,-z
4 x,1/2-y,1/2+z
_cell_length_a                   8.2147(7)
_cell_length_b                   6.9606(7)
_cell_length_c                   22.170(2)
_cell_angle_alpha                90
_cell_angle_beta                 95.487(8)
_cell_angle_gamma                90
_cell_volume                     1261.86
_exptl_crystal_colour            yellow
_exptl_crystal_description       block
_cell_formula_units_Z            2
loop_
_atom_site_label
_atom_site_type_symbol
_atom_site_fract_x
_atom_site_fract_y
_atom_site_fract_z
O1 O 0.07862(15) 0.5713(2) 0.38008(6)
O2 O 0.58346(17) 0.4843(2) 0.31627(7)
N1 N 0.1115(2) 0.5429(3) 0.16767(8)
N2 N 0.33080(19) 0.5261(2) 0.34789(7)
C6 C 0.1852(3) 0.3849(4) 0.19104(9)
H3 H 0.1858 0.2742 0.1660
C7 C 0.2602(2) 0.3726(3) 0.24906(9)
H4 H 0.3113 0.2569 0.2636
C8 C 0.2593(2) 0.5325(3) 0.28543(9)
C9 C 0.1868(2) 0.6978(3) 0.26273(9)
H5 H 0.1859 0.8106 0.2868
C10 C 0.1149(3) 0.6960(4) 0.20378(10)
H6 H 0.0649 0.8109 0.1881
C11 C 0.2239(2) 0.5526(3) 0.39327(9)
C12 C 0.2999(2) 0.5516(3) 0.45677(9)
C13 C 0.4664(2) 0.5064(2) 0.46925(9)
C14 C 0.5680(2) 0.4743(3) 0.42248(9)
C15 C 0.5006(2) 0.4948(3) 0.35831(9)
C16 C 0.7301(2) 0.4267(3) 0.43624(9)
H7 H 0.7977 0.4040 0.4045
C17 C 0.2042(2) 0.5883(3) 0.50333(9)
H8 H 0.0929 0.6240 0.4943
O1B O 0.92138(15) 0.4287(2) 0.61992(6)
O2B O 0.41654(17) 0.5157(2) 0.68373(7)
N1B N 0.8885(2) 0.4571(3) 0.83233(8)
N2B N 0.66920(19) 0.4739(2) 0.65211(7)
C6B C 0.8148(3) 0.6151(4) 0.80896(9)
H3B H 0.8142 0.7258 0.8340
C7B C 0.7398(2) 0.6274(3) 0.75094(9)
H4B H 0.6887 0.7431 0.7364
C8B C 0.7407(2) 0.4675(3) 0.71457(9)
C9B C 0.8132(2) 0.3022(3) 0.73727(9)
H5B H 0.8141 0.1894 0.7132
C10B C 0.8851(3) 0.3040(4) 0.79622(10)
H6B H 0.9351 0.1891 0.8119
C11B C 0.7761(2) 0.4474(3) 0.60673(9)
C12B C 0.7001(2) 0.4484(3) 0.54323(9)
C13B C 0.5336(2) 0.4936(2) 0.53075(9)
C14B C 0.4320(2) 0.5257(3) 0.57752(9)
C15B C 0.4994(2) 0.5052(3) 0.64169(9)
C16B C 0.2699(2) 0.5733(3) 0.56376(9)
H7B H 0.2023 0.5960 0.5955
C17B C 0.7958(2) 0.4117(3) 0.49667(9)
H8B H 0.9071 0.3760 0.5057
F1 F 0.4937(6) 0.4809(6) 0.1296(2)
C1 C 0.4544(3) 0.4853(3) 0.02497(12)
C2 C 0.5404(4) 0.5026(3) 0.08422(16)
C3 C 0.7064(4) 0.5448(3) 0.09027(15)
H1 H 0.7635 0.5558 0.1295
C4 C 0.7903(4) 0.5714(4) 0.03825(17)
H2 H 0.9039 0.5996 0.0428
C5 C 0.7132(4) 0.5577(4) -0.01703(17)
F1B F 0.5063(6) 0.5191(6) -0.1296(2)
C1B C 0.5456(3) 0.5147(3) -0.02497(12)
C2B C 0.4596(4) 0.4974(3) -0.08422(16)
C3B C 0.2936(4) 0.4552(3) -0.09027(15)
H1B H 0.2365 0.4442 -0.1295
C4B C 0.2097(4) 0.4286(4) -0.03825(17)
H2B H 0.0961 0.4004 -0.0428
C5B C 0.2868(4) 0.4423(4) 0.01703(17)
H9? H 0.7718 0.5773 -0.0514
F2? F 0.8103(10) 0.5927(12) -0.0453(4)
loop_
_geom_bond_atom_site_label_1
_geom_bond_atom_site_label_2
_geom_bond_site_symmetry_1
_geom_bond_site_symmetry_2
F1 C2 1_555 1_555
C1 C2 1_555 1_555
C2 C3 1_555 1_555
C3 H1 1_555 1_555
C4 C3 1_555 1_555
H2 C4 1_555 1_555
C5 C4 1_555 1_555
O1 C11 1_555 1_555
O2 C15 1_555 1_555
N1 C6 1_555 1_555
N2 C8 1_555 1_555
C6 H3 1_555 1_555
C7 C6 1_555 1_555
H4 C7 1_555 1_555
C8 C7 1_555 1_555
C9 C8 1_555 1_555
H5 C9 1_555 1_555
C10 N1 1_555 1_555
H6 C10 1_555 1_555
C11 N2 1_555 1_555
C12 C11 1_555 1_555
C13 C12 1_555 1_555
C14 C13 1_555 1_555
C15 N2 1_555 1_555
C16 C14 1_555 1_555
H7 C16 1_555 1_555
C17 C12 1_555 1_555
H8 C17 1_555 1_555
F1B C2B 1_555 1_555
C1B C1 1_555 1_555
C2B C1B 1_555 1_555
C3B C2B 1_555 1_555
H1B C3B 1_555 1_555
C4B C3B 1_555 1_555
H2B C4B 1_555 1_555
C5B C1 1_555 1_555
O1B C11B 1_555 1_555
O2B C15B 1_555 1_555
N1B C6B 1_555 1_555
N2B C8B 1_555 1_555
C6B H3B 1_555 1_555
C7B C6B 1_555 1_555
H4B C7B 1_555 1_555
C8B C7B 1_555 1_555
C9B C8B 1_555 1_555
H5B C9B 1_555 1_555
C10B N1B 1_555 1_555
H6B C10B 1_555 1_555
C11B N2B 1_555 1_555
C12B C11B 1_555 1_555
C13B C13 1_555 1_555
C14B C13B 1_555 1_555
C15B N2B 1_555 1_555
C16B C17 1_555 1_555
H7B C16B 1_555 1_555
C17B C16 1_555 1_555
H8B C17B 1_555 1_555
C5 C1B 1_555 1_555
C9 C10 1_555 1_555
C14 C15 1_555 1_555
C4B C5B 1_555 1_555
C9B C10B 1_555 1_555
C12B C13B 1_555 1_555
C12B C17B 1_555 1_555
C14B C15B 1_555 1_555
C14B C16B 1_555 1_555

#END
