
#######################################################################
#
#                 Cambridge Crystallographic Data Centre
#                                CCDC 
#
#######################################################################
#
# If this CIF has been generated from an entry in the Cambridge 
# Structural Database, then it will include bibliographic, chemical, 
# crystal, experimental, refinement or atomic coordinate data resulting 
# from the CCDC's data processing and validation procedures.
#
#######################################################################

data_DECRUZ
_chemical_formula_moiety         'C19 H30 B1 N1 O3'
_chemical_name_systematic        
2-(2-(Diisopropylaminocarbonyl)phenyl)-(1,3,2)dioxaborolane
_symmetry_cell_setting           orthorhombic
_symmetry_space_group_name_H-M   'P 21 21 21'
_symmetry_Int_Tables_number      19
_space_group_name_Hall           'P 2ac 2ab'
loop_
_symmetry_equiv_pos_site_id
_symmetry_equiv_pos_as_xyz
1 x,y,z
2 1/2-x,-y,1/2+z
3 -x,1/2+y,1/2-z
4 1/2+x,1/2-y,-z
_cell_length_a                   10.304(2)
_cell_length_b                   12.996(2)
_cell_length_c                   14.595(3)
_cell_angle_alpha                90
_cell_angle_beta                 90
_cell_angle_gamma                90
_cell_volume                     1954.43
_exptl_crystal_colour            colorless
_chemical_melting_point          '108-110 deg.C'
_cell_formula_units_Z            4
_exptl_crystal_recrystallization_method 'hexane/diethyl ether'
loop_
_atom_site_label
_atom_site_type_symbol
_atom_site_fract_x
_atom_site_fract_y
_atom_site_fract_z
B1 B 0.4715(3) -0.0145(2) 0.0990(2)
O1 O 0.7532(2) 0.11749(16) 0.09490(14)
O2 O 0.3681(2) -0.02974(17) 0.04079(16)
O3 O 0.4606(2) 0.07242(16) 0.15181(14)
N1 N 0.7546(2) 0.07473(17) 0.24648(15)
C1 C 0.7410(3) 0.0532(2) 0.15630(17)
C2 C 0.7154(3) -0.0582(2) 0.12940(17)
C3 C 0.8196(3) -0.1268(2) 0.1262(2)
H1 H 0.9031 -0.1053 0.1460
C4 C 0.8015(3) -0.2261(2) 0.0942(2)
H2 H 0.8725 -0.2727 0.0927
C5 C 0.6804(4) -0.2579(2) 0.0644(2)
H3 H 0.6686 -0.3258 0.0416
C6 C 0.5757(3) -0.1900(2) 0.0678(2)
H4 H 0.4926 -0.2126 0.0480
C7 C 0.5907(3) -0.0886(2) 0.09996(18)
C8 C 0.2750(3) 0.0537(2) 0.0578(2)
C9 C 0.3540(4) 0.1325(3) 0.1129(3)
C10 C 0.7829(3) 0.1819(2) 0.2757(2)
H5 H 0.7897 0.1808 0.3441
C11 C 0.6713(3) 0.2548(2) 0.2521(2)
H6 H 0.5899 0.2270 0.2763
H7 H 0.6647 0.2618 0.1854
H8 H 0.6878 0.3225 0.2794
C12 C 0.9134(3) 0.2207(3) 0.2396(3)
H9 H 0.9818 0.1717 0.2562
H10 H 0.9328 0.2879 0.2668
H11 H 0.9093 0.2272 0.1728
C13 C 0.7335(3) -0.0022(2) 0.31939(18)
H12 H 0.7083 -0.0681 0.2889
C14 C 0.6216(3) 0.0287(3) 0.3824(2)
H13 H 0.5435 0.0411 0.3457
H14 H 0.6447 0.0917 0.4156
H15 H 0.6048 -0.0267 0.4263
C15 C 0.8587(4) -0.0226(3) 0.3727(2)
H16 H 0.9278 -0.0421 0.3300
H17 H 0.8443 -0.0785 0.4166
H18 H 0.8841 0.0399 0.4058
C16 C 0.2206(5) 0.0881(4) -0.0323(3)
H19 H 0.2898 0.1190 -0.0693
H20 H 0.1522 0.1391 -0.0218
H21 H 0.1843 0.0287 -0.0649
C17 C 0.1660(5) 0.0048(3) 0.1150(4)
H22 H 0.1187 -0.0452 0.0774
H23 H 0.1061 0.0585 0.1358
H24 H 0.2035 -0.0302 0.1683
C18 C 0.4223(5) 0.2113(3) 0.0450(3)
H25 H 0.4723 0.2615 0.0805
H26 H 0.3561 0.2472 0.0089
H27 H 0.4806 0.1738 0.0038
C19 C 0.2922(5) 0.1967(4) 0.1813(3)
H28 H 0.2477 0.1532 0.2262
H29 H 0.2291 0.2421 0.1515
H30 H 0.3582 0.2384 0.2124
loop_
_geom_bond_atom_site_label_1
_geom_bond_atom_site_label_2
_geom_bond_site_symmetry_1
_geom_bond_site_symmetry_2
B1 O2 1_555 1_555
O1 C1 1_555 1_555
O2 C8 1_555 1_555
O3 B1 1_555 1_555
N1 C1 1_555 1_555
C1 C2 1_555 1_555
C2 C3 1_555 1_555
C3 H1 1_555 1_555
C4 C3 1_555 1_555
H2 C4 1_555 1_555
C5 C4 1_555 1_555
H3 C5 1_555 1_555
C6 C5 1_555 1_555
H4 C6 1_555 1_555
C7 B1 1_555 1_555
C8 C9 1_555 1_555
C9 O3 1_555 1_555
C10 N1 1_555 1_555
H5 C10 1_555 1_555
C11 C10 1_555 1_555
H6 C11 1_555 1_555
H7 C11 1_555 1_555
H8 C11 1_555 1_555
C12 C10 1_555 1_555
H9 C12 1_555 1_555
H10 C12 1_555 1_555
H11 C12 1_555 1_555
C13 N1 1_555 1_555
H12 C13 1_555 1_555
C14 C13 1_555 1_555
H13 C14 1_555 1_555
H14 C14 1_555 1_555
H15 C14 1_555 1_555
C15 C13 1_555 1_555
H16 C15 1_555 1_555
H17 C15 1_555 1_555
H18 C15 1_555 1_555
C16 C8 1_555 1_555
H19 C16 1_555 1_555
H20 C16 1_555 1_555
H21 C16 1_555 1_555
C17 C8 1_555 1_555
H22 C17 1_555 1_555
H23 C17 1_555 1_555
H24 C17 1_555 1_555
C18 C9 1_555 1_555
H25 C18 1_555 1_555
H26 C18 1_555 1_555
H27 C18 1_555 1_555
C19 C9 1_555 1_555
H28 C19 1_555 1_555
H29 C19 1_555 1_555
H30 C19 1_555 1_555
C2 C7 1_555 1_555
C6 C7 1_555 1_555

#END
