
#######################################################################
#
#                 Cambridge Crystallographic Data Centre
#                                CCDC 
#
#######################################################################
#
# If this CIF has been generated from an entry in the Cambridge 
# Structural Database, then it will include bibliographic, chemical, 
# crystal, experimental, refinement or atomic coordinate data resulting 
# from the CCDC's data processing and validation procedures.
#
#######################################################################

data_DEDHID
_chemical_compound_source        'Rabdosia serra (Maxim) Hara'
_chemical_formula_moiety         'C20 H30 O5'
_chemical_name_systematic        Rabdoserrin-D
_chemical_properties_biological  'antitumour activity'
_symmetry_cell_setting           orthorhombic
_symmetry_space_group_name_H-M   'P 21 21 21'
_symmetry_Int_Tables_number      19
_space_group_name_Hall           'P 2ac 2ab'
loop_
_symmetry_equiv_pos_site_id
_symmetry_equiv_pos_as_xyz
1 x,y,z
2 1/2+x,1/2-y,-z
3 -x,1/2+y,1/2-z
4 1/2-x,-y,1/2+z
_cell_length_a                   7.298(2)
_cell_length_b                   9.872(1)
_cell_length_c                   25.143(4)
_cell_angle_alpha                90
_cell_angle_beta                 90
_cell_angle_gamma                90
_cell_volume                     1811.45
_cell_formula_units_Z            4
loop_
_atom_site_label
_atom_site_type_symbol
_atom_site_fract_x
_atom_site_fract_y
_atom_site_fract_z
O1 O 0.3615(7) 0.6387(4) 0.2228(1)
O2 O 0.3656(7) 0.1625(4) 0.0349(1)
O3 O -0.0511(6) 0.2482(4) 0.0695(2)
C1 C 0.5240(9) 0.7462(6) 0.1512(2)
C2 C 0.6151(9) 0.6228(6) 0.0671(2)
C3 C 0.5110(8) 0.3711(6) 0.0617(2)
C4 C 0.2462(8) 0.2735(6) 0.1127(2)
C5 C 0.4183(7) 0.4983(5) 0.1436(2)
C6 C 0.1452(9) 0.2695(7) 0.2256(2)
C7 C 0.3233(9) 0.1644(6) 0.1514(2)
C8 C 0.0030(9) 0.1361(7) 0.1523(2)
C9 C 0.8131(9) 0.5905(7) 0.0815(3)
C10 C 0.5790(8) 0.4363(6) 0.1755(2)
O4 O 0.5334(6) 0.3970(4) 0.2286(1)
O5 O 0.3577(7) 0.0397(4) 0.1268(2)
C11 C 0.3779(9) 0.6430(6) 0.1653(2)
C12 C 0.5559(6) 0.7582(6) 0.0918(2)
C13 C 0.4723(8) 0.5147(6) 0.0831(2)
C14 C 0.3340(9) 0.2932(6) 0.0585(2)
C15 C 0.2341(8) 0.4131(6) 0.1427(2)
C16 C 0.1176(9) 0.4003(7) 0.1936(2)
C17 C 0.1631(9) 0.1440(7) 0.1894(2)
C18 C 0.0499(8) 0.2213(6) 0.1062(2)
C19 C -0.1522(11) 0.0664(8) 0.1559(3)
C20 C 0.6045(10) 0.6412(7) 0.0059(2)
loop_
_geom_bond_atom_site_label_1
_geom_bond_atom_site_label_2
_geom_bond_site_symmetry_1
_geom_bond_site_symmetry_2
O1 C11 1_555 1_555
O2 C14 1_555 1_555
O3 C18 1_555 1_555
C1 C11 1_555 1_555
C2 C9 1_555 1_555
C3 C13 1_555 1_555
C4 C7 1_555 1_555
C5 C10 1_555 1_555
C6 C16 1_555 1_555
C7 O5 1_555 1_555
C8 C17 1_555 1_555
C10 O4 1_555 1_555
C11 C5 1_555 1_555
C12 C1 1_555 1_555
C13 C2 1_555 1_555
C14 C3 1_555 1_555
C15 C4 1_555 1_555
C16 C15 1_555 1_555
C17 C6 1_555 1_555
C18 C4 1_555 1_555
C19 C8 1_555 1_555
C20 C2 1_555 1_555
C2 C12 1_555 1_555
C4 C14 1_555 1_555
C5 C13 1_555 1_555
C5 C15 1_555 1_555
C7 C17 1_555 1_555
C8 C18 1_555 1_555

#END
