
#######################################################################
#
#                 Cambridge Crystallographic Data Centre
#                                CCDC 
#
#######################################################################
#
# If this CIF has been generated from an entry in the Cambridge 
# Structural Database, then it will include bibliographic, chemical, 
# crystal, experimental, refinement or atomic coordinate data resulting 
# from the CCDC's data processing and validation procedures.
#
#######################################################################

data_DEDQUZ
_chemical_formula_moiety         'C30 H38 F3 N1 O2'
_chemical_name_systematic        
'(-)-8-Phenylmenthyl (Z)-1-((dimethylamino)methyl)-2-(p-(trifluoromethyl)phenyl)cyclopropane-1-carboxylate'
_symmetry_cell_setting           monoclinic
_symmetry_space_group_name_H-M   'C 2'
_symmetry_Int_Tables_number      5
_space_group_name_Hall           'C 2y'
loop_
_symmetry_equiv_pos_site_id
_symmetry_equiv_pos_as_xyz
1 x,y,z
2 -x,y,-z
3 1/2+x,1/2+y,z
4 1/2-x,1/2+y,-z
_cell_length_a                   27.051(2)
_cell_length_b                   6.1364(6)
_cell_length_c                   17.4988(15)
_cell_angle_alpha                90
_cell_angle_beta                 91.866(7)
_cell_angle_gamma                90
_cell_volume                     2903.19
_exptl_crystal_colour            colorless
_exptl_crystal_description       'irregular plate'
_cell_formula_units_Z            4
loop_
_atom_site_label
_atom_site_type_symbol
_atom_site_fract_x
_atom_site_fract_y
_atom_site_fract_z
C1 C 0.87735(11) 1.0289(6) 0.63346(17)
C2 C 0.83735(11) 1.1636(7) 0.59075(17)
H1 H 0.8461 1.3173 0.5843
C3 C 0.78368(12) 1.1256(6) 0.59978(17)
C4 C 0.75655(13) 1.2838(7) 0.6368(2)
H2 H 0.7725 1.4073 0.6560
C5 C 0.70600(14) 1.2605(8) 0.6455(2)
H3 H 0.6884 1.3684 0.6701
C6 C 0.68210(13) 1.0788(8) 0.6179(2)
C7 C 0.70847(13) 0.9197(8) 0.5809(2)
H4 H 0.6923 0.7963 0.5619
C8 C 0.75852(12) 0.9439(7) 0.57213(19)
H5 H 0.7759 0.8358 0.5471
C9 C 0.62740(17) 1.0480(15) 0.6245(3)
F1 F 0.6068(3) 1.180(3) 0.6700(10)
F2 F 0.6166(2) 0.855(2) 0.6524(9)
F3 F 0.60376(19) 1.057(2) 0.5608(4)
C10 C 0.86958(12) 1.0096(7) 0.54859(17)
H6 H 0.8946 1.0721 0.5166
H7 H 0.8546 0.8766 0.5288
O1 O 0.84452(10) 0.6737(5) 0.65514(14)
C11 C 0.85795(11) 0.8484(6) 0.68041(18)
O2 O 0.85454(8) 0.9037(4) 0.75421(11)
C12 C 0.82652(12) 0.7549(7) 0.80203(18)
H8 H 0.8298 0.6066 0.7820
C13 C 0.84562(12) 0.7580(7) 0.88501(18)
H9 H 0.8400 0.9052 0.9046
C14 C 0.81131(15) 0.6033(9) 0.9281(2)
H10 H 0.8154 0.4566 0.9087
H11 H 0.8213 0.6028 0.9818
C15 C 0.75716(15) 0.6644(13) 0.9207(2)
H12 H 0.7522 0.8046 0.9450
H13 H 0.7378 0.5573 0.9474
C16 C 0.73880(14) 0.6768(13) 0.8377(2)
H14 H 0.7403 0.5302 0.8157
C17 C 0.77249(13) 0.8233(9) 0.7938(2)
H15 H 0.7691 0.9717 0.8120
H16 H 0.7623 0.8208 0.7401
C18 C 0.90158(13) 0.7064(6) 0.89885(19)
C19 C 0.91210(13) 0.6578(7) 0.9843(2)
C20 C 0.93140(16) 0.4610(8) 1.0107(2)
H17 H 0.9377 0.3515 0.9756
C21 C 0.94144(17) 0.4227(10) 1.0870(3)
H18 H 0.9545 0.2891 1.1025
C22 C 0.93251(17) 0.5776(11) 1.1394(3)
H19 H 0.9392 0.5514 1.1911
C23 C 0.91333(18) 0.7754(12) 1.1155(3)
H20 H 0.9069 0.8833 1.1511
C24 C 0.90367(16) 0.8133(9) 1.0382(2)
H21 H 0.8911 0.9479 1.0227
C25 C 0.91688(18) 0.5159(9) 0.8483(2)
H22 H 0.9513 0.4843 0.8577
H23 H 0.9114 0.5541 0.7955
H24 H 0.8975 0.3897 0.8599
C26 C 0.93389(15) 0.9005(8) 0.8784(2)
H25 H 0.9681 0.8629 0.8867
H26 H 0.9259 1.0226 0.9101
H27 H 0.9279 0.9381 0.8257
C27 C 0.92186(11) 1.1491(8) 0.66557(19)
H28 H 0.9312 1.2606 0.6295
H29 H 0.9130 1.2214 0.7125
N1 N 0.96383(10) 1.0092(7) 0.68130(18)
C28 C 1.00347(14) 1.1335(12) 0.7187(3)
H30 H 0.9909 1.2087 0.7621
H31 H 1.0162 1.2375 0.6833
H32 H 1.0295 1.0364 0.7353
C29 C 0.98069(16) 0.8983(14) 0.6143(3)
H33 H 1.0082 0.8063 0.6283
H34 H 0.9907 1.0037 0.5773
H35 H 0.9543 0.8110 0.5926
C30 C 0.68530(15) 0.7545(18) 0.8318(3)
H36 H 0.6746 0.7606 0.7790
H37 H 0.6829 0.8969 0.8541
H38 H 0.6647 0.6550 0.8586
F4? F 0.6043(7) 1.251(6) 0.610(3)
F5? F 0.6170(9) 1.051(17) 0.6942(14)
F6? F 0.6022(11) 0.932(11) 0.575(4)
loop_
_geom_bond_atom_site_label_1
_geom_bond_atom_site_label_2
_geom_bond_site_symmetry_1
_geom_bond_site_symmetry_2
C1 C2 1_555 1_555
C2 H1 1_555 1_555
C3 C2 1_555 1_555
C4 C3 1_555 1_555
H2 C4 1_555 1_555
C5 C4 1_555 1_555
H3 C5 1_555 1_555
C6 C5 1_555 1_555
C7 C6 1_555 1_555
H4 C7 1_555 1_555
C8 C3 1_555 1_555
H5 C8 1_555 1_555
C9 C6 1_555 1_555
F1 C9 1_555 1_555
F2 C9 1_555 1_555
F3 C9 1_555 1_555
C10 C1 1_555 1_555
H6 C10 1_555 1_555
H7 C10 1_555 1_555
O1 C11 1_555 1_555
C11 C1 1_555 1_555
O2 C11 1_555 1_555
C12 O2 1_555 1_555
H8 C12 1_555 1_555
C13 C12 1_555 1_555
H9 C13 1_555 1_555
C14 C13 1_555 1_555
H10 C14 1_555 1_555
H11 C14 1_555 1_555
C15 C14 1_555 1_555
H12 C15 1_555 1_555
H13 C15 1_555 1_555
C16 C15 1_555 1_555
H14 C16 1_555 1_555
C17 C12 1_555 1_555
H15 C17 1_555 1_555
H16 C17 1_555 1_555
C18 C13 1_555 1_555
C19 C18 1_555 1_555
C20 C19 1_555 1_555
H17 C20 1_555 1_555
C21 C20 1_555 1_555
H18 C21 1_555 1_555
C22 C21 1_555 1_555
H19 C22 1_555 1_555
C23 C22 1_555 1_555
H20 C23 1_555 1_555
C24 C19 1_555 1_555
H21 C24 1_555 1_555
C25 C18 1_555 1_555
H22 C25 1_555 1_555
H23 C25 1_555 1_555
H24 C25 1_555 1_555
C26 C18 1_555 1_555
H25 C26 1_555 1_555
H26 C26 1_555 1_555
H27 C26 1_555 1_555
C27 C1 1_555 1_555
H28 C27 1_555 1_555
H29 C27 1_555 1_555
N1 C27 1_555 1_555
C28 N1 1_555 1_555
H30 C28 1_555 1_555
H31 C28 1_555 1_555
H32 C28 1_555 1_555
C29 N1 1_555 1_555
H33 C29 1_555 1_555
H34 C29 1_555 1_555
H35 C29 1_555 1_555
C30 C16 1_555 1_555
H36 C30 1_555 1_555
H37 C30 1_555 1_555
H38 C30 1_555 1_555
C2 C10 1_555 1_555
C7 C8 1_555 1_555
C16 C17 1_555 1_555
C23 C24 1_555 1_555

#END
