
#######################################################################
#
#                 Cambridge Crystallographic Data Centre
#                                CCDC 
#
#######################################################################
#
# If this CIF has been generated from an entry in the Cambridge 
# Structural Database, then it will include bibliographic, chemical, 
# crystal, experimental, refinement or atomic coordinate data resulting 
# from the CCDC's data processing and validation procedures.
#
#######################################################################

data_DEFFUQ
_chemical_formula_moiety         'C78 H110 Ba2 I2 N4 O4 P4 Si4'
_chemical_name_systematic        
bis(\m~2~-iodo)-bis(bis((N-trimethylsilylimino)diphenylphosphoranyl)methanide)-tetrakis(tetrahydrofuran)-di-barium(ii)
_symmetry_cell_setting           monoclinic
_symmetry_space_group_name_H-M   'P 21/n'
_symmetry_Int_Tables_number      14
_space_group_name_Hall           '-P 2yn'
loop_
_symmetry_equiv_pos_site_id
_symmetry_equiv_pos_as_xyz
1 x,y,z
2 1/2-x,1/2+y,1/2-z
3 -x,-y,-z
4 1/2+x,1/2-y,1/2+z
_cell_length_a                   11.838(2)
_cell_length_b                   20.191(4)
_cell_length_c                   18.867(4)
_cell_angle_alpha                90
_cell_angle_beta                 98.375(4)
_cell_angle_gamma                90
_cell_volume                     4461.52
_exptl_crystal_colour            colorless
_exptl_crystal_description       cubes
_cell_formula_units_Z            2
_exptl_crystal_recrystallization_method tetrahydrofuran/pentane
loop_
_atom_site_label
_atom_site_type_symbol
_atom_site_fract_x
_atom_site_fract_y
_atom_site_fract_z
Ba1 Ba 0.616096(15) 0.928271(9) 0.612896(9)
I1 I 0.64244(2) 1.074415(12) 0.515133(13)
P1 P 0.51361(6) 0.86452(4) 0.76240(4)
P2 P 0.77134(6) 0.89298(4) 0.78094(4)
Si1 Si 0.38757(7) 0.99754(4) 0.72902(6)
Si2 Si 0.85487(7) 1.02730(4) 0.74349(5)
O1 O 0.8024(2) 0.89446(15) 0.54367(15)
O2 O 0.6060(3) 0.79797(13) 0.56883(15)
N1 N 0.4801(2) 0.93368(12) 0.72662(14)
N2 N 0.7834(2) 0.95368(12) 0.72941(13)
C1 C 0.6526(2) 0.84374(14) 0.75325(15)
H1 H 0.6680 0.7955 0.7471
C2 C 0.4253(2) 0.79758(14) 0.71901(16)
C3 C 0.3631(3) 0.80875(16) 0.65192(17)
H2 H 0.3650 0.8512 0.6303
C4 C 0.2977(3) 0.75834(18) 0.61588(19)
H3 H 0.2557 0.7664 0.5698
C5 C 0.2940(3) 0.69688(18) 0.6469(2)
H4 H 0.2500 0.6624 0.6222
C6 C 0.3548(3) 0.68533(16) 0.71437(19)
H5 H 0.3514 0.6431 0.7361
C7 C 0.4205(3) 0.73515(16) 0.75018(17)
H6 H 0.4623 0.7268 0.7962
C8 C 0.4837(3) 0.85556(15) 0.85428(16)
C9 C 0.3787(3) 0.87441(19) 0.87193(19)
H7 H 0.3227 0.8929 0.8362
C10 C 0.3543(4) 0.8666(2) 0.9412(2)
H8 H 0.2820 0.8796 0.9525
C11 C 0.4350(4) 0.8399(2) 0.9936(2)
H9 H 0.4190 0.8355 1.0413
C12 C 0.5384(4) 0.8199(2) 0.9766(2)
H10 H 0.5934 0.8007 1.0124
C13 C 0.5628(3) 0.82747(18) 0.90756(19)
H11 H 0.6347 0.8133 0.8964
C14 C 0.7738(2) 0.92260(15) 0.87236(15)
C15 C 0.6912(3) 0.96924(17) 0.88417(18)
H12 H 0.6389 0.9850 0.8448
C16 C 0.6846(4) 0.9929(2) 0.9524(2)
H13 H 0.6269 1.0237 0.9600
C17 C 0.7626(4) 0.9712(2) 1.0094(2)
H14 H 0.7590 0.9877 1.0562
C18 C 0.8450(4) 0.9262(2) 0.9988(2)
H15 H 0.8985 0.9117 1.0383
C19 C 0.8508(3) 0.9015(2) 0.93063(18)
H16 H 0.9078 0.8700 0.9238
C20 C 0.8906(2) 0.83484(14) 0.78564(16)
C21 C 0.8841(3) 0.77098(17) 0.8128(2)
H17 H 0.8173 0.7575 0.8313
C22 C 0.9733(3) 0.72713(18) 0.8130(2)
H18 H 0.9676 0.6837 0.8316
C23 C 1.0713(3) 0.74608(19) 0.7863(2)
H19 H 1.1322 0.7155 0.7859
C24 C 1.0803(3) 0.80912(19) 0.7603(2)
H20 H 1.1478 0.8224 0.7424
C25 C 0.9900(3) 0.85374(17) 0.76023(18)
H21 H 0.9968 0.8974 0.7426
C26 C 0.4123(3) 1.05658(18) 0.6567(3)
H22 H 0.4927 1.0701 0.6636
H23 H 0.3638 1.0957 0.6585
H24 H 0.3934 1.0349 0.6099
C27 C 0.2338(3) 0.9733(2) 0.7092(3)
H25 H 0.2213 0.9471 0.6651
H26 H 0.1863 1.0133 0.7032
H27 H 0.2132 0.9470 0.7490
C28 C 0.4108(4) 1.0446(2) 0.8151(3)
H28 H 0.4066 1.0142 0.8551
H29 H 0.3518 1.0788 0.8145
H30 H 0.4863 1.0656 0.8209
C29 C 0.7532(4) 1.0973(2) 0.7499(3)
H31 H 0.6968 1.0986 0.7064
H32 H 0.7955 1.1391 0.7549
H33 H 0.7141 1.0907 0.7917
C30 C 0.9650(3) 1.03084(19) 0.82543(19)
H34 H 0.9278 1.0257 0.8682
H35 H 1.0044 1.0736 0.8273
H36 H 1.0205 0.9951 0.8237
C31 C 0.9290(3) 1.0448(2) 0.6647(2)
H37 H 0.9841 1.0094 0.6598
H38 H 0.9692 1.0872 0.6717
H39 H 0.8727 1.0468 0.6212
C32 C 0.8683(4) 0.8403(3) 0.5786(3)
H40 H 0.8415 0.7972 0.5573
H41 H 0.8636 0.8394 0.6305
C33 C 0.9877(5) 0.8549(3) 0.5653(3)
H42 H 1.0221 0.8913 0.5964
H43 H 1.0370 0.8152 0.5732
C34 C 0.9711(8) 0.8738(5) 0.4926(5)
H44 H 0.9775 0.8350 0.4613
H45 H 1.0282 0.9074 0.4834
C35 C 0.8429(12) 0.9046(7) 0.4781(7)
H46 H 0.8446 0.9524 0.4664
H47 H 0.7950 0.8811 0.4386
C38 C 0.6258(5) 0.7343(3) 0.6068(3)
H52 H 0.5587 0.7220 0.6298
H53 H 0.6936 0.7371 0.6441
C39 C 0.6448(8) 0.6838(4) 0.5503(4)
H54 H 0.5883 0.6475 0.5487
H55 H 0.7224 0.6647 0.5608
C40 C 0.6301(6) 0.7222(4) 0.4776(4)
H56 H 0.7019 0.7221 0.4565
H57 H 0.5685 0.7026 0.4429
C41 C 0.6025(12) 0.7843(7) 0.4962(7)
H58 H 0.5243 0.7939 0.4720
H59 H 0.6547 0.8156 0.4768
Ba1B Ba 0.383904(15) 1.071729(9) 0.387104(9)
I1B I 0.35756(2) 0.925585(12) 0.484867(13)
P1B P 0.48639(6) 1.13548(4) 0.23760(4)
P2B P 0.22866(6) 1.10702(4) 0.21906(4)
Si1B Si 0.61243(7) 1.00246(4) 0.27098(6)
Si2B Si 0.14513(7) 0.97270(4) 0.25651(5)
O1B O 0.1976(2) 1.10554(15) 0.45633(15)
O2B O 0.3940(3) 1.20203(13) 0.43117(15)
N1B N 0.5199(2) 1.06632(12) 0.27338(14)
N2B N 0.2166(2) 1.04632(12) 0.27059(13)
C1B C 0.3474(2) 1.15626(14) 0.24675(15)
H1B H 0.3320 1.2045 0.2529
C2B C 0.5747(2) 1.20242(14) 0.28099(16)
C3B C 0.6369(3) 1.19125(16) 0.34808(17)
H2B H 0.6350 1.1488 0.3697
C4B C 0.7023(3) 1.24166(18) 0.38412(19)
H3B H 0.7443 1.2336 0.4302
C5B C 0.7060(3) 1.30312(18) 0.3531(2)
H4B H 0.7500 1.3376 0.3778
C6B C 0.6452(3) 1.31467(16) 0.28563(19)
H5B H 0.6486 1.3569 0.2639
C7B C 0.5795(3) 1.26485(16) 0.24982(17)
H6B H 0.5377 1.2732 0.2038
C8B C 0.5163(3) 1.14444(15) 0.14572(16)
C9B C 0.6213(3) 1.12559(19) 0.12807(19)
H7B H 0.6773 1.1071 0.1638
C10B C 0.6457(4) 1.1334(2) 0.0588(2)
H8B H 0.7180 1.1204 0.0475
C11B C 0.5650(4) 1.1601(2) 0.0064(2)
H9B H 0.5810 1.1645 -0.0413
C12B C 0.4616(4) 1.1801(2) 0.0234(2)
H10B H 0.4066 1.1993 -0.0124
C13B C 0.4372(3) 1.17253(18) 0.09244(19)
H11B H 0.3653 1.1867 0.1036
C14B C 0.2262(2) 1.07740(15) 0.12764(15)
C15B C 0.3088(3) 1.03076(17) 0.11583(18)
H12B H 0.3611 1.0150 0.1552
C16B C 0.3154(4) 1.0071(2) 0.0476(2)
H13B H 0.3731 0.9763 0.0400
C17B C 0.2374(4) 1.0288(2) -0.0094(2)
H14B H 0.2410 1.0123 -0.0562
C18B C 0.1550(4) 1.0738(2) 0.0012(2)
H15B H 0.1015 1.0883 -0.0383
C19B C 0.1492(3) 1.0985(2) 0.06937(18)
H16B H 0.0922 1.1300 0.0762
C20B C 0.1094(2) 1.16516(14) 0.21436(16)
C21B C 0.1159(3) 1.22902(17) 0.1872(2)
H17B H 0.1827 1.2425 0.1687
C22B C 0.0267(3) 1.27287(18) 0.1870(2)
H18B H 0.0324 1.3163 0.1684
C23B C -0.0713(3) 1.25392(19) 0.2137(2)
H19B H -0.1322 1.2845 0.2141
C24B C -0.0803(3) 1.19088(19) 0.2397(2)
H20B H -0.1478 1.1776 0.2576
C25B C 0.0100(3) 1.14626(17) 0.23977(18)
H21B H 0.0032 1.1026 0.2574
C26B C 0.5877(3) 0.94342(18) 0.3433(3)
H22B H 0.5073 0.9299 0.3364
H23B H 0.6362 0.9043 0.3415
H24B H 0.6066 0.9651 0.3901
C27B C 0.7662(3) 1.0267(2) 0.2908(3)
H25B H 0.7787 1.0529 0.3349
H26B H 0.8137 0.9867 0.2968
H27B H 0.7868 1.0530 0.2510
C28B C 0.5892(4) 0.9554(2) 0.1849(3)
H28B H 0.5934 0.9858 0.1449
H29B H 0.6482 0.9212 0.1855
H30B H 0.5137 0.9344 0.1791
C29B C 0.2468(4) 0.9027(2) 0.2501(3)
H31B H 0.3032 0.9014 0.2936
H32B H 0.2045 0.8609 0.2451
H33B H 0.2859 0.9093 0.2083
C30B C 0.0350(3) 0.96916(19) 0.17457(19)
H34B H 0.0722 0.9743 0.1318
H35B H -0.0044 0.9264 0.1727
H36B H -0.0205 1.0049 0.1763
C31B C 0.0710(3) 0.9552(2) 0.3353(2)
H37B H 0.0159 0.9906 0.3402
H38B H 0.0308 0.9128 0.3283
H39B H 0.1273 0.9532 0.3788
C32B C 0.1317(4) 1.1597(3) 0.4214(3)
H40B H 0.1585 1.2028 0.4427
H41B H 0.1364 1.1606 0.3695
C33B C 0.0123(5) 1.1451(3) 0.4347(3)
H42B H -0.0221 1.1087 0.4036
H43B H -0.0370 1.1848 0.4268
C34B C 0.0289(8) 1.1262(5) 0.5074(5)
H44B H 0.0225 1.1650 0.5387
H45B H -0.0282 1.0926 0.5166
C35B C 0.1571(12) 1.0954(7) 0.5219(7)
H46B H 0.1554 1.0476 0.5336
H47B H 0.2050 1.1189 0.5614
C38B C 0.3742(5) 1.2657(3) 0.3932(3)
H52B H 0.4413 1.2780 0.3702
H53B H 0.3064 1.2629 0.3559
C39B C 0.3552(8) 1.3162(4) 0.4497(4)
H54B H 0.4117 1.3525 0.4513
H55B H 0.2776 1.3353 0.4392
C40B C 0.3699(6) 1.2778(4) 0.5224(4)
H56B H 0.2981 1.2779 0.5435
H57B H 0.4315 1.2974 0.5571
C41B C 0.3975(12) 1.2157(7) 0.5038(7)
H58B H 0.4757 1.2061 0.5280
H59B H 0.3453 1.1844 0.5232
C36? C 0.9802(12) 0.9083(8) 0.5127(8)
H48? H 1.0266 0.9465 0.5329
H49? H 1.0105 0.8930 0.4693
C37? C 0.8647(7) 0.9277(5) 0.4946(4)
H50? H 0.8354 0.9147 0.4447
H51? H 0.8572 0.9763 0.4990
C42? C 0.5980(10) 0.6847(5) 0.5531(6)
H60? H 0.6655 0.6570 0.5483
H61? H 0.5358 0.6558 0.5649
C43? C 0.5645(14) 0.7187(8) 0.4928(9)
H62? H 0.6189 0.7082 0.4592
H63? H 0.4894 0.7007 0.4715
C44? C 0.5550(8) 0.7810(4) 0.4944(4)
H64? H 0.4739 0.7947 0.4846
H65? H 0.5974 0.8023 0.4590
loop_
_geom_bond_atom_site_label_1
_geom_bond_atom_site_label_2
_geom_bond_site_symmetry_1
_geom_bond_site_symmetry_2
Ba1 I1 1_555 1_555
I1 Ba1B 1_555 1_555
P1 N1 1_555 1_555
P2 N2 1_555 1_555
Si1 N1 1_555 1_555
Si2 N2 1_555 1_555
O1 Ba1 1_555 1_555
O2 Ba1 1_555 1_555
N1 Ba1 1_555 1_555
N2 Ba1 1_555 1_555
C1 Ba1 1_555 1_555
H1 C1 1_555 1_555
C2 P1 1_555 1_555
C3 C2 1_555 1_555
H2 C3 1_555 1_555
C4 C3 1_555 1_555
H3 C4 1_555 1_555
C5 C4 1_555 1_555
H4 C5 1_555 1_555
C6 C5 1_555 1_555
H5 C6 1_555 1_555
C7 C2 1_555 1_555
H6 C7 1_555 1_555
C8 P1 1_555 1_555
C9 C8 1_555 1_555
H7 C9 1_555 1_555
C10 C9 1_555 1_555
H8 C10 1_555 1_555
C11 C10 1_555 1_555
H9 C11 1_555 1_555
C12 C11 1_555 1_555
H10 C12 1_555 1_555
C13 C8 1_555 1_555
H11 C13 1_555 1_555
C14 P2 1_555 1_555
C15 C14 1_555 1_555
H12 C15 1_555 1_555
C16 C15 1_555 1_555
H13 C16 1_555 1_555
C17 C16 1_555 1_555
H14 C17 1_555 1_555
C18 C17 1_555 1_555
H15 C18 1_555 1_555
C19 C14 1_555 1_555
H16 C19 1_555 1_555
C20 P2 1_555 1_555
C21 C20 1_555 1_555
H17 C21 1_555 1_555
C22 C21 1_555 1_555
H18 C22 1_555 1_555
C23 C22 1_555 1_555
H19 C23 1_555 1_555
C24 C23 1_555 1_555
H20 C24 1_555 1_555
C25 C20 1_555 1_555
H21 C25 1_555 1_555
C26 Si1 1_555 1_555
H22 C26 1_555 1_555
H23 C26 1_555 1_555
H24 C26 1_555 1_555
C27 Si1 1_555 1_555
H25 C27 1_555 1_555
H26 C27 1_555 1_555
H27 C27 1_555 1_555
C28 Si1 1_555 1_555
H28 C28 1_555 1_555
H29 C28 1_555 1_555
H30 C28 1_555 1_555
C29 Si2 1_555 1_555
H31 C29 1_555 1_555
H32 C29 1_555 1_555
H33 C29 1_555 1_555
C30 Si2 1_555 1_555
H34 C30 1_555 1_555
H35 C30 1_555 1_555
H36 C30 1_555 1_555
C31 Si2 1_555 1_555
H37 C31 1_555 1_555
H38 C31 1_555 1_555
H39 C31 1_555 1_555
C32 O1 1_555 1_555
H40 C32 1_555 1_555
H41 C32 1_555 1_555
C33 C32 1_555 1_555
H42 C33 1_555 1_555
H43 C33 1_555 1_555
C34 C33 1_555 1_555
H44 C34 1_555 1_555
H45 C34 1_555 1_555
C35 O1 1_555 1_555
H46 C35 1_555 1_555
H47 C35 1_555 1_555
C38 O2 1_555 1_555
H52 C38 1_555 1_555
H53 C38 1_555 1_555
C39 C38 1_555 1_555
H54 C39 1_555 1_555
H55 C39 1_555 1_555
C40 C39 1_555 1_555
H56 C40 1_555 1_555
H57 C40 1_555 1_555
C41 O2 1_555 1_555
H58 C41 1_555 1_555
H59 C41 1_555 1_555
Ba1B I1B 1_555 1_555
I1B Ba1 1_555 1_555
P1B N1B 1_555 1_555
P2B N2B 1_555 1_555
Si1B N1B 1_555 1_555
Si2B N2B 1_555 1_555
O1B Ba1B 1_555 1_555
O2B Ba1B 1_555 1_555
N1B Ba1B 1_555 1_555
N2B Ba1B 1_555 1_555
C1B Ba1B 1_555 1_555
H1B C1B 1_555 1_555
C2B P1B 1_555 1_555
C3B C2B 1_555 1_555
H2B C3B 1_555 1_555
C4B C3B 1_555 1_555
H3B C4B 1_555 1_555
C5B C4B 1_555 1_555
H4B C5B 1_555 1_555
C6B C5B 1_555 1_555
H5B C6B 1_555 1_555
C7B C2B 1_555 1_555
H6B C7B 1_555 1_555
C8B P1B 1_555 1_555
C9B C8B 1_555 1_555
H7B C9B 1_555 1_555
C10B C9B 1_555 1_555
H8B C10B 1_555 1_555
C11B C10B 1_555 1_555
H9B C11B 1_555 1_555
C12B C11B 1_555 1_555
H10B C12B 1_555 1_555
C13B C8B 1_555 1_555
H11B C13B 1_555 1_555
C14B P2B 1_555 1_555
C15B C14B 1_555 1_555
H12B C15B 1_555 1_555
C16B C15B 1_555 1_555
H13B C16B 1_555 1_555
C17B C16B 1_555 1_555
H14B C17B 1_555 1_555
C18B C17B 1_555 1_555
H15B C18B 1_555 1_555
C19B C14B 1_555 1_555
H16B C19B 1_555 1_555
C20B P2B 1_555 1_555
C21B C20B 1_555 1_555
H17B C21B 1_555 1_555
C22B C21B 1_555 1_555
H18B C22B 1_555 1_555
C23B C22B 1_555 1_555
H19B C23B 1_555 1_555
C24B C23B 1_555 1_555
H20B C24B 1_555 1_555
C25B C20B 1_555 1_555
H21B C25B 1_555 1_555
C26B Si1B 1_555 1_555
H22B C26B 1_555 1_555
H23B C26B 1_555 1_555
H24B C26B 1_555 1_555
C27B Si1B 1_555 1_555
H25B C27B 1_555 1_555
H26B C27B 1_555 1_555
H27B C27B 1_555 1_555
C28B Si1B 1_555 1_555
H28B C28B 1_555 1_555
H29B C28B 1_555 1_555
H30B C28B 1_555 1_555
C29B Si2B 1_555 1_555
H31B C29B 1_555 1_555
H32B C29B 1_555 1_555
H33B C29B 1_555 1_555
C30B Si2B 1_555 1_555
H34B C30B 1_555 1_555
H35B C30B 1_555 1_555
H36B C30B 1_555 1_555
C31B Si2B 1_555 1_555
H37B C31B 1_555 1_555
H38B C31B 1_555 1_555
H39B C31B 1_555 1_555
C32B O1B 1_555 1_555
H40B C32B 1_555 1_555
H41B C32B 1_555 1_555
C33B C32B 1_555 1_555
H42B C33B 1_555 1_555
H43B C33B 1_555 1_555
C34B C33B 1_555 1_555
H44B C34B 1_555 1_555
H45B C34B 1_555 1_555
C35B O1B 1_555 1_555
H46B C35B 1_555 1_555
H47B C35B 1_555 1_555
C38B O2B 1_555 1_555
H52B C38B 1_555 1_555
H53B C38B 1_555 1_555
C39B C38B 1_555 1_555
H54B C39B 1_555 1_555
H55B C39B 1_555 1_555
C40B C39B 1_555 1_555
H56B C40B 1_555 1_555
H57B C40B 1_555 1_555
C41B O2B 1_555 1_555
H58B C41B 1_555 1_555
H59B C41B 1_555 1_555
P1 C1 1_555 1_555
P2 C1 1_555 1_555
C6 C7 1_555 1_555
C12 C13 1_555 1_555
C18 C19 1_555 1_555
C24 C25 1_555 1_555
C34 C35 1_555 1_555
C40 C41 1_555 1_555
P1B C1B 1_555 1_555
P2B C1B 1_555 1_555
C6B C7B 1_555 1_555
C12B C13B 1_555 1_555
C18B C19B 1_555 1_555
C24B C25B 1_555 1_555
C34B C35B 1_555 1_555
C40B C41B 1_555 1_555

#END
