
#######################################################################
#
#                 Cambridge Crystallographic Data Centre
#                                CCDC 
#
#######################################################################
#
# If this CIF has been generated from an entry in the Cambridge 
# Structural Database, then it will include bibliographic, chemical, 
# crystal, experimental, refinement or atomic coordinate data resulting 
# from the CCDC's data processing and validation procedures.
#
#######################################################################

data_DEFQEN
_chemical_formula_moiety         'C29 H33 N3 O2'
_chemical_name_systematic        
8,9,17,18,19,20,21,22,23,24,25,26-dodecahydrodinaphtho[2,1-e:1',2'-q][1,4,8,11,15]dioxatriazacyclooctadecine
_symmetry_cell_setting           triclinic
_symmetry_space_group_name_H-M   'P -1'
_symmetry_Int_Tables_number      2
_space_group_name_Hall           '-P 1'
loop_
_symmetry_equiv_pos_site_id
_symmetry_equiv_pos_as_xyz
1 x,y,z
2 -x,-y,-z
_cell_length_a                   9.974(2)
_cell_length_b                   10.590(2)
_cell_length_c                   13.315(3)
_cell_angle_alpha                111.62(3)
_cell_angle_beta                 96.36(3)
_cell_angle_gamma                106.73(3)
_cell_volume                     1214.4
_exptl_crystal_colour            colorless
_exptl_crystal_description       flat
_cell_formula_units_Z            2
loop_
_atom_site_label
_atom_site_type_symbol
_atom_site_fract_x
_atom_site_fract_y
_atom_site_fract_z
O1 O 0.1283(3) 0.4330(2) 0.07764(19)
O2 O 0.0459(2) 0.4257(3) 0.28146(19)
N1 N 0.1571(3) 0.1726(3) 0.3213(2)
N2 N 0.0988(3) 0.1060(3) -0.0753(3)
C1 C -0.0978(3) 0.2424(3) 0.4521(2)
C2 C -0.0643(4) 0.1624(4) 0.5098(3)
H1 H 0.025098 0.151308 0.513496
C3 C -0.0015(3) 0.3074(3) 0.3981(3)
C4 C -0.2359(3) 0.2568(3) 0.4468(3)
C5 C 0.2875(3) 0.3688(3) -0.1622(3)
C6 C 0.1987(4) 0.0362(3) -0.1224(3)
H2 H 0.293708 0.109639 -0.102169
H3 H 0.166175 -0.009366 -0.202967
C7 C 0.1953(3) 0.3461(3) -0.0903(3)
C8 C 0.1296(4) 0.5528(4) 0.1738(3)
H4 H 0.119927 0.629291 0.153459
H5 H 0.220504 0.591467 0.228593
C9 C 0.3962(3) 0.5078(4) -0.1306(3)
C10 C 0.3054(3) 0.1889(4) 0.3198(3)
H6 H 0.355325 0.198990 0.390715
H7 H 0.351415 0.277486 0.311648
C11 C 0.0075(4) 0.5026(4) 0.2220(3)
H8 H -0.011563 0.585451 0.271823
H9 H -0.079148 0.439633 0.162968
C12 C 0.2781(4) 0.2580(4) -0.2666(3)
H10 H 0.208732 0.165867 -0.290633
C13 C -0.2740(4) 0.3338(4) 0.3886(3)
H11 H -0.362807 0.345990 0.387146
C14 C -0.3298(4) 0.1943(4) 0.5021(3)
H12 H -0.418970 0.205486 0.500995
C15 C -0.1835(4) 0.3904(4) 0.3349(3)
H13 H -0.211197 0.439339 0.295783
C16 C 0.2173(3) 0.4612(3) 0.0104(3)
C17 C 0.4098(4) 0.6202(4) -0.0271(3)
H14 H 0.478743 0.711752 -0.005976
C18 C 0.1487(3) 0.3035(4) 0.4064(3)
H15 H 0.210745 0.388094 0.400000
H16 H 0.185080 0.309806 0.479386
C19 C 0.4874(4) 0.5304(4) -0.2014(3)
H17 H 0.556823 0.621723 -0.180267
C20 C -0.0474(3) 0.3752(3) 0.3380(3)
C21 C 0.3251(4) 0.5987(4) 0.0430(3)
H18 H 0.338103 0.673913 0.111693
C22 C 0.0732(4) 0.2049(3) -0.1215(3)
H19 H -0.009275 0.227777 -0.098890
H20 H 0.046336 0.153261 -0.202031
C23 C -0.1584(4) 0.1008(4) 0.5603(3)
H21 H -0.133494 0.047783 0.596620
C24 C 0.3686(4) 0.2837(4) -0.3324(3)
H22 H 0.359558 0.208857 -0.400183
C25 C 0.3212(4) 0.0640(5) 0.2282(3)
H23 H 0.274323 -0.025846 0.234428
H24 H 0.422600 0.077769 0.233259
C26 C 0.4746(4) 0.4205(5) -0.2997(3)
H25 H 0.536008 0.435919 -0.345103
C27 C -0.2931(4) 0.1181(4) 0.5570(3)
H26 H -0.357119 0.077757 0.592052
C28 C 0.2091(5) -0.0771(4) -0.0816(3)
H27 H 0.112118 -0.132843 -0.083297
H28 H 0.243730 -0.143266 -0.134875
C29 C 0.3019(6) -0.0278(5) 0.0315(4)
H29 H 0.304305 -0.111816 0.044054
H30 H 0.399706 0.028903 0.035795
N3 N 0.2493(4) 0.0556(4) 0.1130(3)
H31 H 0.115(5) 0.163(5) 0.251(4)
H32 H 0.130(5) 0.164(6) 0.002(4)
H33 H 0.152(2) 0.005(5) 0.098(4)
loop_
_geom_bond_atom_site_label_1
_geom_bond_atom_site_label_2
_geom_bond_site_symmetry_1
_geom_bond_site_symmetry_2
O1 C8 1_555 1_555
O2 C11 1_555 1_555
N1 C10 1_555 1_555
N2 C6 1_555 1_555
C1 C2 1_555 1_555
C2 H1 1_555 1_555
C3 C1 1_555 1_555
C4 C1 1_555 1_555
C5 C7 1_555 1_555
C6 H2 1_555 1_555
H3 C6 1_555 1_555
C7 C16 1_555 1_555
C8 H4 1_555 1_555
H5 C8 1_555 1_555
C9 C5 1_555 1_555
C10 H6 1_555 1_555
H7 C10 1_555 1_555
C11 C8 1_555 1_555
H8 C11 1_555 1_555
H9 C11 1_555 1_555
C12 C5 1_555 1_555
H10 C12 1_555 1_555
C13 C4 1_555 1_555
H11 C13 1_555 1_555
C14 C4 1_555 1_555
H12 C14 1_555 1_555
C15 C13 1_555 1_555
H13 C15 1_555 1_555
C16 O1 1_555 1_555
C17 C9 1_555 1_555
H14 C17 1_555 1_555
C18 N1 1_555 1_555
H15 C18 1_555 1_555
H16 C18 1_555 1_555
C19 C9 1_555 1_555
H17 C19 1_555 1_555
C20 O2 1_555 1_555
C21 C16 1_555 1_555
H18 C21 1_555 1_555
C22 N2 1_555 1_555
H19 C22 1_555 1_555
H20 C22 1_555 1_555
C23 C2 1_555 1_555
H21 C23 1_555 1_555
C24 C12 1_555 1_555
H22 C24 1_555 1_555
C25 C10 1_555 1_555
H23 C25 1_555 1_555
H24 C25 1_555 1_555
C26 C19 1_555 1_555
H25 C26 1_555 1_555
C27 C14 1_555 1_555
H26 C27 1_555 1_555
C28 C6 1_555 1_555
H27 C28 1_555 1_555
H28 C28 1_555 1_555
C29 C28 1_555 1_555
H29 C29 1_555 1_555
H30 C29 1_555 1_555
N3 C25 1_555 1_555
H31 N1 1_555 1_555
H32 N2 1_555 1_555
H33 N3 1_555 1_555
C3 C18 1_555 1_555
C3 C20 1_555 1_555
C7 C22 1_555 1_555
C15 C20 1_555 1_555
C17 C21 1_555 1_555
C23 C27 1_555 1_555
C24 C26 1_555 1_555
C29 N3 1_555 1_555

#END
