
#######################################################################
#
#                 Cambridge Crystallographic Data Centre
#                                CCDC 
#
#######################################################################
#
# If this CIF has been generated from an entry in the Cambridge 
# Structural Database, then it will include bibliographic, chemical, 
# crystal, experimental, refinement or atomic coordinate data resulting 
# from the CCDC's data processing and validation procedures.
#
#######################################################################

data_DEGTOA
_chemical_formula_moiety         'C22 H32 N4 O2 2+,2(H2 O1),2(Cl1 1-)'
_chemical_name_systematic        
'(7-Methyl-3-(pyridin-2-ylamino)-2-((2,4,4-trimethylpentan-2-yl)amino)furo(2,3-c)pyridin-4-yl)methanol dichloride dihydrate'
_symmetry_cell_setting           monoclinic
_symmetry_space_group_name_H-M   'P 21/c'
_symmetry_Int_Tables_number      14
_space_group_name_Hall           '-P 2ybc'
loop_
_symmetry_equiv_pos_site_id
_symmetry_equiv_pos_as_xyz
1 x,y,z
2 -x,1/2+y,1/2-z
3 -x,-y,-z
4 x,1/2-y,1/2+z
_cell_length_a                   19.8916(10)
_cell_length_b                   7.4148(4)
_cell_length_c                   19.5459(10)
_cell_angle_alpha                90
_cell_angle_beta                 112.341(2)
_cell_angle_gamma                90
_cell_volume                     2666.47
_exptl_crystal_colour            colorless
_exptl_crystal_description       'thin plate'
_cell_formula_units_Z            4
loop_
_atom_site_label
_atom_site_type_symbol
_atom_site_fract_x
_atom_site_fract_y
_atom_site_fract_z
C1 C 0.25409(13) 0.2822(4) 0.43302(13)
C2 C 0.19933(13) 0.4043(3) 0.42912(13)
C3 C 0.19630(13) 0.5341(3) 0.37505(13)
C4 C 0.15571(13) 0.6908(4) 0.34391(13)
C5 C 0.16949(15) 0.7726(4) 0.28760(14)
H1 H 0.1446(15) 0.881(4) 0.2647(16)
N1 N 0.22146(12) 0.7108(3) 0.26417(12)
H2 H 0.2265(18) 0.768(5) 0.2284(19)
C6 C 0.26478(14) 0.5685(4) 0.29436(13)
C7 C 0.25023(13) 0.4831(4) 0.34867(13)
O1 O 0.28628(9) 0.3307(3) 0.38500(9)
N2 N 0.15904(11) 0.3925(3) 0.47502(12)
H3 H 0.1729(17) 0.451(5) 0.5118(18)
C8 C 0.09293(13) 0.3172(3) 0.45388(13)
N3 N 0.06269(11) 0.2413(3) 0.38692(12)
H4 H 0.0843(17) 0.252(4) 0.3573(17)
C9 C -0.00351(14) 0.1599(4) 0.36202(15)
H5 H -0.0198(16) 0.109(4) 0.3124(17)
C10 C -0.04267(15) 0.1514(4) 0.40578(16)
H6 H -0.0895(16) 0.095(4) 0.3865(15)
C11 C -0.01324(15) 0.2313(4) 0.47594(16)
H7 H -0.0393(16) 0.235(4) 0.5065(16)
C12 C 0.05310(15) 0.3123(4) 0.50043(15)
H8 H 0.0732(15) 0.368(4) 0.5460(17)
C13 C 0.10144(15) 0.7725(4) 0.37170(16)
H9 H 0.0767(17) 0.873(5) 0.3401(18)
H10 H 0.1272(17) 0.822(4) 0.4201(18)
O2 O 0.05055(11) 0.6445(3) 0.37642(11)
H11 H 0.0097(18) 0.656(4) 0.3386(18)
C14 C 0.32295(16) 0.5186(5) 0.26717(17)
H12 H 0.353(2) 0.431(5) 0.296(2)
H13 H 0.357(3) 0.611(7) 0.277(3)
H14 H 0.302(3) 0.483(7) 0.220(3)
N4 N 0.27732(12) 0.1355(3) 0.47306(12)
H15 H 0.2563(17) 0.106(4) 0.4953(17)
C15 C 0.34709(14) 0.0388(4) 0.48820(15)
C16 C 0.41258(15) 0.1669(4) 0.52200(15)
H16 H 0.4044(16) 0.271(4) 0.4849(16)
H17 H 0.4551(16) 0.103(4) 0.5233(16)
C17 C 0.43496(17) 0.2515(5) 0.59996(18)
C18 C 0.3473(2) -0.1191(5) 0.5379(2)
H18 H 0.394(2) -0.188(5) 0.5526(19)
H19 H 0.310(2) -0.199(5) 0.508(2)
H20 H 0.3411(18) -0.079(5) 0.581(2)
C19 C 0.34855(18) -0.0362(5) 0.41582(19)
H21 H 0.3893(18) -0.113(4) 0.4262(17)
H22 H 0.3529(17) 0.063(5) 0.3839(18)
H23 H 0.305(2) -0.098(5) 0.389(2)
C20 C 0.4856(2) 0.4081(7) 0.6020(3)
H24 H 0.530(2) 0.368(5) 0.593(2)
H25 H 0.505(3) 0.473(7) 0.649(3)
H26 H 0.461(3) 0.497(7) 0.565(3)
C21 C 0.4768(3) 0.1221(9) 0.6613(2)
H27 H 0.519(2) 0.060(6) 0.653(2)
H28 H 0.493(3) 0.176(8) 0.705(3)
H29 H 0.448(2) 0.012(6) 0.661(2)
C22 C 0.3701(2) 0.3287(7) 0.6151(2)
H30 H 0.342(2) 0.416(5) 0.576(2)
H31 H 0.333(2) 0.226(6) 0.615(2)
H32 H 0.387(2) 0.398(6) 0.658(3)
Cl1 Cl 0.23091(4) 0.87454(9) 0.12305(3)
Cl2 Cl 0.09639(3) 0.22434(10) 0.24659(3)
O3 O 0.20017(14) 1.2698(3) 0.16231(13)
H33 H 0.2109(18) 1.158(5) 0.1563(19)
H34 H 0.173(2) 1.259(5) 0.182(2)
O4 O 0.19054(11) 0.4926(4) 0.04766(12)
H35 H 0.204(2) 0.586(6) 0.067(2)
H36 H 0.193(2) 0.425(5) 0.079(2)
loop_
_geom_bond_atom_site_label_1
_geom_bond_atom_site_label_2
_geom_bond_site_symmetry_1
_geom_bond_site_symmetry_2
C1 C2 1_555 1_555
C2 C3 1_555 1_555
C3 C4 1_555 1_555
C4 C5 1_555 1_555
C5 H1 1_555 1_555
N1 C5 1_555 1_555
H2 N1 1_555 1_555
C6 N1 1_555 1_555
C7 C3 1_555 1_555
O1 C1 1_555 1_555
N2 C2 1_555 1_555
H3 N2 1_555 1_555
C8 N2 1_555 1_555
N3 C8 1_555 1_555
H4 N3 1_555 1_555
C9 N3 1_555 1_555
H5 C9 1_555 1_555
C10 C9 1_555 1_555
H6 C10 1_555 1_555
C11 C10 1_555 1_555
H7 C11 1_555 1_555
C12 C8 1_555 1_555
H8 C12 1_555 1_555
C13 C4 1_555 1_555
H9 C13 1_555 1_555
H10 C13 1_555 1_555
O2 C13 1_555 1_555
H11 O2 1_555 1_555
C14 C6 1_555 1_555
H12 C14 1_555 1_555
H13 C14 1_555 1_555
H14 C14 1_555 1_555
N4 C1 1_555 1_555
H15 N4 1_555 1_555
C15 N4 1_555 1_555
C16 C15 1_555 1_555
H16 C16 1_555 1_555
H17 C16 1_555 1_555
C17 C16 1_555 1_555
C18 C15 1_555 1_555
H18 C18 1_555 1_555
H19 C18 1_555 1_555
H20 C18 1_555 1_555
C19 C15 1_555 1_555
H21 C19 1_555 1_555
H22 C19 1_555 1_555
H23 C19 1_555 1_555
C20 C17 1_555 1_555
H24 C20 1_555 1_555
H25 C20 1_555 1_555
H26 C20 1_555 1_555
C21 C17 1_555 1_555
H27 C21 1_555 1_555
H28 C21 1_555 1_555
H29 C21 1_555 1_555
C22 C17 1_555 1_555
H30 C22 1_555 1_555
H31 C22 1_555 1_555
H32 C22 1_555 1_555
O3 H33 1_555 1_555
H34 O3 1_555 1_555
O4 H35 1_555 1_555
H36 O4 1_555 1_555
C6 C7 1_555 1_555
C7 O1 1_555 1_555
C11 C12 1_555 1_555

#END
