
#######################################################################
#
#                 Cambridge Crystallographic Data Centre
#                                CCDC 
#
#######################################################################
#
# If this CIF has been generated from an entry in the Cambridge 
# Structural Database, then it will include bibliographic, chemical, 
# crystal, experimental, refinement or atomic coordinate data resulting 
# from the CCDC's data processing and validation procedures.
#
#######################################################################

data_DEGYAR
_chemical_formula_moiety         'C19 H28 Cl2 O2'
_chemical_name_systematic        
cis-2-((4-t-Butyl-1-(3,4-dichlorobenzyl)cyclohexyl)oxy)ethanol
_symmetry_cell_setting           triclinic
_symmetry_space_group_name_H-M   'P -1'
_symmetry_Int_Tables_number      2
_space_group_name_Hall           '-P 1'
loop_
_symmetry_equiv_pos_site_id
_symmetry_equiv_pos_as_xyz
1 x,y,z
2 -x,-y,-z
_cell_length_a                   6.9683(7)
_cell_length_b                   10.9136(11)
_cell_length_c                   13.3343(13)
_cell_angle_alpha                69.8640(10)
_cell_angle_beta                 82.6300(10)
_cell_angle_gamma                88.0140(10)
_cell_volume                     944.167
_exptl_crystal_colour            colorless
_exptl_crystal_description       block
_cell_formula_units_Z            2
loop_
_atom_site_label
_atom_site_type_symbol
_atom_site_fract_x
_atom_site_fract_y
_atom_site_fract_z
Cl1 Cl 0.27346(7) 0.45813(5) 0.68781(4)
Cl2 Cl 0.19829(9) 0.15746(5) 0.72967(4)
O1 O 0.36991(16) 0.10540(11) 0.34167(9)
O2 O 0.28266(18) -0.07844(12) 0.56166(10)
H1 H 0.3841 -0.0859 0.5911
C1 C 0.2460(3) 0.49363(17) 0.48031(15)
H2 H 0.2736 0.5829 0.4669
C2 C 0.5615(2) 0.26721(16) 0.05889(13)
H3 H 0.4996 0.3524 0.0228
C3 C 0.1289(2) 0.28065(17) 0.32252(14)
H4 H 0.0779 0.3566 0.2674
H5 H 0.0249 0.2136 0.3506
C4 C 0.1713(2) 0.23342(16) 0.51732(14)
H6 H 0.1475 0.1437 0.5305
C5 C 0.4760(2) 0.31665(15) 0.23178(13)
H7 H 0.5292 0.3182 0.2967
H8 H 0.4330 0.4061 0.1932
C6 C 0.1727(2) 0.32302(16) 0.41356(13)
C7 C 0.2042(2) 0.27353(17) 0.60157(14)
C8 C 0.2404(2) 0.40421(18) 0.58350(15)
C9 C 0.6372(2) 0.27864(16) 0.15884(13)
H9 H 0.6922 0.1941 0.1999
H10 H 0.7419 0.3452 0.1357
C10 C 0.3007(2) 0.22486(16) 0.26695(13)
C11 C 0.2118(3) 0.45343(16) 0.39679(14)
H11 H 0.2148 0.5159 0.3264
C12 C 0.3992(3) 0.16388(18) 0.09849(14)
H12 H 0.3482 0.1537 0.0358
H13 H 0.4520 0.0789 0.1403
C13 C 0.2353(2) 0.20274(18) 0.16885(14)
H14 H 0.1051 0.2123 0.1534
C14 C 0.7207(3) 0.24571(17) -0.02595(13)
C15 C 0.8704(3) 0.35664(19) -0.06227(15)
H15 H 0.9711 0.3421 -0.1153
H16 H 0.9291 0.3589 0.0000
H17 H 0.8069 0.4399 -0.0948
C16 C 0.2492(3) -0.00837(17) 0.37231(15)
H18 H 0.2527 -0.0408 0.3113
H19 H 0.1138 0.0134 0.3920
C17 C 0.3217(3) -0.11215(17) 0.46708(16)
H20 H 0.2578 -0.1965 0.4791
H21 H 0.4628 -0.1226 0.4513
C18 C 0.6299(3) 0.2462(2) -0.12525(15)
H22 H 0.7307 0.2311 -0.1780
H23 H 0.5697 0.3308 -0.1574
H24 H 0.5316 0.1769 -0.1036
C19 C 0.8254(3) 0.11566(19) 0.01826(15)
H25 H 0.9237 0.1057 -0.0379
H26 H 0.7316 0.0435 0.0405
H27 H 0.8878 0.1147 0.0803
loop_
_geom_bond_atom_site_label_1
_geom_bond_atom_site_label_2
_geom_bond_site_symmetry_1
_geom_bond_site_symmetry_2
Cl1 C8 1_555 1_555
Cl2 C7 1_555 1_555
O1 C10 1_555 1_555
O2 H1 1_555 1_555
C1 H2 1_555 1_555
C2 H3 1_555 1_555
C3 H4 1_555 1_555
H5 C3 1_555 1_555
C4 H6 1_555 1_555
C5 H7 1_555 1_555
H8 C5 1_555 1_555
C6 C3 1_555 1_555
C7 C4 1_555 1_555
C8 C1 1_555 1_555
C9 C2 1_555 1_555
H9 C9 1_555 1_555
H10 C9 1_555 1_555
C10 C3 1_555 1_555
C11 C1 1_555 1_555
H11 C11 1_555 1_555
C12 C2 1_555 1_555
H12 C12 1_555 1_555
H13 C12 1_555 1_555
C13 C10 1_555 1_555
H14 C13 1_555 1_555
C14 C2 1_555 1_555
C15 C14 1_555 1_555
H15 C15 1_555 1_555
H16 C15 1_555 1_555
H17 C15 1_555 1_555
C16 O1 1_555 1_555
H18 C16 1_555 1_555
H19 C16 1_555 1_555
C17 O2 1_555 1_555
H20 C17 1_555 1_555
H21 C17 1_555 1_555
C18 C14 1_555 1_555
H22 C18 1_555 1_555
H23 C18 1_555 1_555
H24 C18 1_555 1_555
C19 C14 1_555 1_555
H25 C19 1_555 1_555
H26 C19 1_555 1_555
H27 C19 1_555 1_555
C4 C6 1_555 1_555
C5 C9 1_555 1_555
C5 C10 1_555 1_555
C6 C11 1_555 1_555
C7 C8 1_555 1_555
C12 C13 1_555 1_555
C16 C17 1_555 1_555

#END
