
#######################################################################
#
#                 Cambridge Crystallographic Data Centre
#                                CCDC 
#
#######################################################################
#
# If this CIF has been generated from an entry in the Cambridge 
# Structural Database, then it will include bibliographic, chemical, 
# crystal, experimental, refinement or atomic coordinate data resulting 
# from the CCDC's data processing and validation procedures.
#
#######################################################################

data_DEGYEV
_chemical_formula_moiety         'C19 H28 Cl2 O3'
_chemical_name_systematic        
cis-1-(3,4-Dichlorobenzyl)-4-(1-(methoxymethoxy)-2-methylpropan-2-yl)cyclohexanol
_symmetry_cell_setting           monoclinic
_symmetry_space_group_name_H-M   'P 21/n'
_symmetry_Int_Tables_number      14
_space_group_name_Hall           '-P 2yn'
loop_
_symmetry_equiv_pos_site_id
_symmetry_equiv_pos_as_xyz
1 x,y,z
2 1/2-x,1/2+y,1/2-z
3 -x,-y,-z
4 1/2+x,1/2-y,1/2+z
_cell_length_a                   16.1573(11)
_cell_length_b                   6.3264(4)
_cell_length_c                   20.9453(14)
_cell_angle_alpha                90
_cell_angle_beta                 111.8800(10)
_cell_angle_gamma                90
_cell_volume                     1986.75
_exptl_crystal_colour            colorless
_exptl_crystal_description       blade
_cell_formula_units_Z            4
loop_
_atom_site_label
_atom_site_type_symbol
_atom_site_fract_x
_atom_site_fract_y
_atom_site_fract_z
Cl1 Cl 0.61079(4) 0.12720(10) 0.05732(3)
Cl2 Cl 0.63383(6) -0.32424(12) 0.00270(3)
O1 O 0.93873(9) 0.2636(2) 0.23405(7)
H1 H 0.9368 0.2138 0.1974
O2 O 1.37414(10) 0.4302(3) 0.47890(8)
C1 C 1.15911(12) 0.1841(3) 0.36116(9)
H2 H 1.1652 0.0707 0.3945
C2 C 0.96371(12) 0.1028(3) 0.28538(9)
O3 O 1.41973(11) 0.3149(3) 0.59284(8)
C3 C 0.75313(12) 0.0287(3) 0.17029(9)
H3 H 0.7456 0.1622 0.1859
C4 C 0.88045(13) -0.0240(4) 0.28205(10)
H4 H 0.9000 -0.1457 0.3121
H5 H 0.8450 0.0639 0.3001
C5 C 0.69592(12) -0.0380(3) 0.10600(9)
C6 C 1.03574(12) -0.0369(3) 0.27701(11)
H6 H 1.0140 -0.0946 0.2308
H7 H 1.0474 -0.1543 0.3089
C7 C 1.08772(14) 0.3341(4) 0.36602(11)
H8 H 1.1088 0.3996 0.4111
H9 H 1.0772 0.4451 0.3320
C8 C 0.82162(12) -0.1003(3) 0.21186(10)
C9 C 0.70646(14) -0.2372(3) 0.08228(11)
C10 C 1.12287(13) 0.0811(4) 0.28969(11)
H10 H 1.1129 0.1894 0.2548
H11 H 1.1669 -0.0169 0.2857
C11 C 0.83130(14) -0.2990(4) 0.18687(13)
H12 H 0.8766 -0.3881 0.2138
C12 C 1.00091(13) 0.2187(4) 0.35430(10)
H13 H 0.9569 0.3200 0.3564
H14 H 1.0106 0.1173 0.3911
C13 C 1.25286(13) 0.2867(4) 0.38099(10)
C14 C 0.77472(17) -0.3658(3) 0.12279(14)
C15 C 1.28458(14) 0.3518(5) 0.45615(11)
H17 H 1.2456 0.4607 0.4618
H18 H 1.2821 0.2312 0.4840
C16 C 1.40741(16) 0.4866(5) 0.54819(12)
H19 H 1.4202 0.6254 0.5633
C17 C 1.2508(2) 0.4813(7) 0.33764(16)
H20 H 1.3097 0.5398 0.3514
H21 H 1.2111 0.5846 0.3442
H22 H 1.2302 0.4421 0.2900
C18 C 1.4862(2) 0.1708(6) 0.58930(17)
H23 H 1.4929 0.0571 0.6212
H24 H 1.5420 0.2437 0.6008
H25 H 1.4683 0.1150 0.5435
C19 C 1.31903(17) 0.1249(6) 0.3739(2)
H26 H 1.3767 0.1892 0.3864
H27 H 1.2992 0.0767 0.3271
H28 H 1.3227 0.0070 0.4037
H15? H 0.7480 -0.4974 0.1292
H16? H 0.8113 -0.3991 0.0965
loop_
_geom_bond_atom_site_label_1
_geom_bond_atom_site_label_2
_geom_bond_site_symmetry_1
_geom_bond_site_symmetry_2
Cl1 C5 1_555 1_555
Cl2 C9 1_555 1_555
O1 H1 1_555 1_555
O2 C15 1_555 1_555
C1 H2 1_555 1_555
C2 O1 1_555 1_555
O3 C16 1_555 1_555
C3 H3 1_555 1_555
C4 C2 1_555 1_555
H4 C4 1_555 1_555
H5 C4 1_555 1_555
C5 C3 1_555 1_555
C6 C2 1_555 1_555
H6 C6 1_555 1_555
H7 C6 1_555 1_555
C7 C1 1_555 1_555
H8 C7 1_555 1_555
H9 C7 1_555 1_555
C8 C3 1_555 1_555
C9 C5 1_555 1_555
C10 C1 1_555 1_555
H10 C10 1_555 1_555
H11 C10 1_555 1_555
C11 C8 1_555 1_555
H12 C11 1_555 1_555
C12 C2 1_555 1_555
H13 C12 1_555 1_555
H14 C12 1_555 1_555
C13 C1 1_555 1_555
C14 C9 1_555 1_555
C15 C13 1_555 1_555
H17 C15 1_555 1_555
H18 C15 1_555 1_555
C16 O2 1_555 1_555
H19 C16 1_555 1_555
C17 C13 1_555 1_555
H20 C17 1_555 1_555
H21 C17 1_555 1_555
H22 C17 1_555 1_555
C18 O3 1_555 1_555
H23 C18 1_555 1_555
H24 C18 1_555 1_555
H25 C18 1_555 1_555
C19 C13 1_555 1_555
H26 C19 1_555 1_555
H27 C19 1_555 1_555
H28 C19 1_555 1_555
C4 C8 1_555 1_555
C6 C10 1_555 1_555
C7 C12 1_555 1_555
C11 C14 1_555 1_555

#END
