
#######################################################################
#
#                 Cambridge Crystallographic Data Centre
#                                CCDC 
#
#######################################################################
#
# If this CIF has been generated from an entry in the Cambridge 
# Structural Database, then it will include bibliographic, chemical, 
# crystal, experimental, refinement or atomic coordinate data resulting 
# from the CCDC's data processing and validation procedures.
#
#######################################################################

data_DEJGII04
_chemical_formula_moiety         'C27 H30 N4 O3'
_chemical_name_systematic        
2,2',2''-(nitrilotris((ethane-2,1-diyl)iminomethyl))triphenol
_symmetry_cell_setting           monoclinic
_symmetry_space_group_name_H-M   'P 21/c'
_symmetry_Int_Tables_number      14
_space_group_name_Hall           '-P 2ybc'
loop_
_symmetry_equiv_pos_site_id
_symmetry_equiv_pos_as_xyz
1 x,y,z
2 -x,1/2+y,1/2-z
3 -x,-y,-z
4 x,1/2-y,1/2+z
_cell_length_a                   9.8325(10)
_cell_length_b                   11.2257(10)
_cell_length_c                   22.882(2)
_cell_angle_alpha                90
_cell_angle_beta                 98.783(9)
_cell_angle_gamma                90
_cell_volume                     2496.02
_exptl_crystal_colour            yellow
_exptl_crystal_description       block
_cell_formula_units_Z            4
loop_
_atom_site_label
_atom_site_type_symbol
_atom_site_fract_x
_atom_site_fract_y
_atom_site_fract_z
O1 O 0.04277(16) 0.43540(17) 0.43113(8)
H1 H 0.0668 0.4964 0.4496
O2 O 0.1756(2) 0.87372(15) 0.23851(8)
H2 H 0.1270 0.8744 0.2646
O3 O 0.6375(2) 0.76684(18) 0.47243(7)
H3 H 0.5812 0.8213 0.4684
N1 N 0.4447(2) 0.90324(16) 0.41889(8)
N2 N 0.1586(2) 0.86860(16) 0.44758(8)
N3 N 0.2056(2) 0.60151(18) 0.47528(8)
N4 N 0.05179(19) 0.78996(19) 0.32045(9)
C1 C 0.54677(19) 0.74706(18) 0.36997(8)
C2 C 0.4480(2) 0.84331(19) 0.37252(10)
H4 H 0.3855 0.8610 0.3389
C3 C 0.6384(2) 0.71240(19) 0.42001(9)
C4 C 0.2724(2) 0.4559(2) 0.40997(10)
C5 C 0.1442(2) 0.3979(2) 0.40311(10)
C6 C 0.2976(3) 0.5597(2) 0.44834(10)
H5 H 0.3836 0.5959 0.4531
C7 C 0.5524(2) 0.6872(2) 0.31754(10)
H6 H 0.4919 0.7085 0.2839
C8 C 0.7345(2) 0.5647(2) 0.36380(12)
H7 H 0.7983 0.5043 0.3616
C9 C 0.1646(2) 0.6646(2) 0.25943(10)
C10 C 0.2073(2) 0.7604(2) 0.22673(10)
C11 C 0.7303(2) 0.6202(2) 0.41606(11)
H8 H 0.7896 0.5962 0.4496
C12 C 0.0867(2) 0.6858(2) 0.30676(11)
H9 H 0.0610 0.6212 0.3280
C13 C 0.3407(3) 0.9959(2) 0.41876(12)
H10 H 0.2849 1.0002 0.3800
H11 H 0.3852 1.0724 0.4271
C14 C 0.6456(2) 0.5966(2) 0.31402(11)
H12 H 0.6482 0.5576 0.2783
C15 C 0.1224(3) 0.2994(2) 0.36604(12)
H13 H 0.0381 0.2603 0.3617
C16 C 0.0312(3) 0.9049(3) 0.40967(13)
H14 H 0.0496 0.9739 0.3866
H15 H -0.0365 0.9276 0.4343
C17 C -0.0270(3) 0.8059(3) 0.36822(13)
H16 H -0.0269 0.7321 0.3903
H17 H -0.1216 0.8245 0.3520
C18 C 0.2504(3) 0.9690(2) 0.46466(13)
H18 H 0.3078 0.9512 0.5020
H19 H 0.1959 1.0389 0.4704
C19 C 0.2844(3) 0.7388(3) 0.18249(11)
H20 H 0.3122 0.8020 0.1608
C20 C 0.3731(3) 0.4122(3) 0.37979(13)
H21 H 0.4589 0.4489 0.3845
C21 C 0.2028(3) 0.5499(2) 0.24566(14)
H22 H 0.1749 0.4855 0.2665
C22 C 0.2337(3) 0.7021(2) 0.51523(11)
H23 H 0.3255 0.7321 0.5135
H24 H 0.2303 0.6762 0.5554
C23 C 0.1306(3) 0.7999(2) 0.49906(11)
H25 H 0.0392 0.7655 0.4905
H26 H 0.1321 0.8531 0.5325
C24 C 0.2809(3) 0.5300(3) 0.20177(16)
H27 H 0.3068 0.4530 0.1934
C25 C 0.2226(4) 0.2597(3) 0.33611(14)
H28 H 0.2058 0.1946 0.3109
C26 C 0.3205(3) 0.6248(3) 0.17025(13)
H29 H 0.3726 0.6112 0.1402
C27 C 0.3485(4) 0.3149(3) 0.34279(14)
H30 H 0.4170 0.2869 0.3225
loop_
_geom_bond_atom_site_label_1
_geom_bond_atom_site_label_2
_geom_bond_site_symmetry_1
_geom_bond_site_symmetry_2
O1 H1 1_555 1_555
O2 H2 1_555 1_555
O3 H3 1_555 1_555
N1 C2 1_555 1_555
N2 C16 1_555 1_555
N3 C6 1_555 1_555
N4 C12 1_555 1_555
C1 C2 1_555 1_555
C2 H4 1_555 1_555
C3 O3 1_555 1_555
C4 C5 1_555 1_555
C5 O1 1_555 1_555
C6 C4 1_555 1_555
H5 C6 1_555 1_555
C7 C1 1_555 1_555
H6 C7 1_555 1_555
C8 H7 1_555 1_555
C9 C10 1_555 1_555
C10 O2 1_555 1_555
C11 C3 1_555 1_555
H8 C11 1_555 1_555
C12 C9 1_555 1_555
H9 C12 1_555 1_555
C13 N1 1_555 1_555
H10 C13 1_555 1_555
H11 C13 1_555 1_555
C14 C7 1_555 1_555
H12 C14 1_555 1_555
C15 C5 1_555 1_555
H13 C15 1_555 1_555
C16 H14 1_555 1_555
H15 C16 1_555 1_555
C17 N4 1_555 1_555
H16 C17 1_555 1_555
H17 C17 1_555 1_555
C18 N2 1_555 1_555
H18 C18 1_555 1_555
H19 C18 1_555 1_555
C19 C10 1_555 1_555
H20 C19 1_555 1_555
C20 C4 1_555 1_555
H21 C20 1_555 1_555
C21 C9 1_555 1_555
H22 C21 1_555 1_555
C22 N3 1_555 1_555
H23 C22 1_555 1_555
H24 C22 1_555 1_555
C23 N2 1_555 1_555
H25 C23 1_555 1_555
H26 C23 1_555 1_555
C24 C21 1_555 1_555
H27 C24 1_555 1_555
C25 C15 1_555 1_555
H28 C25 1_555 1_555
C26 C19 1_555 1_555
H29 C26 1_555 1_555
C27 C20 1_555 1_555
H30 C27 1_555 1_555
C1 C3 1_555 1_555
C8 C11 1_555 1_555
C8 C14 1_555 1_555
C13 C18 1_555 1_555
C16 C17 1_555 1_555
C22 C23 1_555 1_555
C24 C26 1_555 1_555
C25 C27 1_555 1_555

#END
