
#######################################################################
#
#                 Cambridge Crystallographic Data Centre
#                                CCDC 
#
#######################################################################
#
# If this CIF has been generated from an entry in the Cambridge 
# Structural Database, then it will include bibliographic, chemical, 
# crystal, experimental, refinement or atomic coordinate data resulting 
# from the CCDC's data processing and validation procedures.
#
#######################################################################

data_DEJZUO
_chemical_name_common            
"2,8,14,20-Tetra-n-hexyl-4,24;6,10;12,16;18,22-O,O'-tetrakis(pyrazine-2,3-diyl)calix(4)resorcinarene tris(ethanol) clathrate"
_chemical_formula_moiety         'C68 H72 N8 O8,3(C2 H6 O1)'
_chemical_name_systematic        
'2,8,14,20-Tetra-n-hexyl-4,24;6,10;12,16;18,22-tetrakis(pyrazine-2,3-diolato)calix(4)arene tris(ethanol) clathrate'
_symmetry_cell_setting           triclinic
_symmetry_space_group_name_H-M   'P -1'
_symmetry_Int_Tables_number      2
_space_group_name_Hall           '-P 1'
loop_
_symmetry_equiv_pos_site_id
_symmetry_equiv_pos_as_xyz
1 x,y,z
2 -x,-y,-z
_cell_length_a                   13.363(5)
_cell_length_b                   16.796(5)
_cell_length_c                   15.664(5)
_cell_angle_alpha                106.230(5)
_cell_angle_beta                 114.510(5)
_cell_angle_gamma                102.600(5)
_cell_volume                     2837.96
_exptl_crystal_colour            white
_exptl_crystal_description       prismatic
_cell_formula_units_Z            2
_exptl_crystal_recrystallization_method dichloromethane/ethanol
loop_
_atom_site_label
_atom_site_type_symbol
_atom_site_fract_x
_atom_site_fract_y
_atom_site_fract_z
C73 C 0.2214(10) 0.5039(8) 0.5661(9)
C74 C 0.1257(13) 0.4381(11) 0.4916(13)
C75 C 0.0807(11) 0.4176(9) 0.5601(10)
C76 C 0.1852(7) 0.0839(5) 0.1074(6)
C77 C 0.2699(8) 0.1387(6) 0.2141(8)
C78 C 0.2453(9) 0.1877(7) 0.2763(8)
C80 C 0.6876(7) 0.3139(5) 0.2914(6)
C81 C 0.7464(10) 0.2652(8) 0.2720(9)
C82 C 0.8260(12) 0.3029(9) 0.2582(10)
O1 O 0.31737(19) -0.13941(16) 0.13411(19)
O2 O 0.39474(17) -0.07037(17) 0.34354(19)
N1 N 0.1594(2) -0.1611(2) 0.1072(2)
N2 N 0.2398(2) -0.1002(2) 0.3229(2)
C1 C 0.2698(3) -0.0930(2) -0.0044(3)
H1 H 0.2056 -0.1474 -0.0493
C2 C 0.3363(3) -0.0757(2) 0.0954(3)
C3 C 0.4271(3) -0.0021(2) 0.1567(3)
C4 C 0.4429(3) 0.0577(2) 0.1139(3)
H2 H 0.5063 0.1127 0.1580
C5 C 0.3760(3) 0.0451(2) 0.0143(3)
C6 C 0.2961(3) -0.0310(2) -0.0400(2)
C7 C 0.2685(3) -0.1322(3) 0.1791(3)
C8 C 0.0900(4) -0.1587(4) 0.1463(4)
H3 H 0.0090 -0.1781 0.1001
C9 C 0.1274(3) -0.1287(4) 0.2547(4)
H4 H 0.0715 -0.1297 0.2756
C10 C 0.3031(3) -0.1011(2) 0.2786(3)
C11 C 0.4993(3) 0.0056(2) 0.2601(3)
H5 H 0.4863 -0.0546 0.2586
C12 C 0.6049(3) 0.0422(3) 0.2800(3)
H6 H 0.6229 0.1041 0.2889
H7 H 0.6164 0.0099 0.2251
C13 C 0.6776(3) 0.0370(4) 0.3735(4)
H8 H 0.6672 0.0697 0.4290
H9 H 0.6607 -0.0247 0.3651
C14 C 0.7824(4) 0.0744(6) 0.3901(5)
H10 H 0.7941 0.1329 0.3884
H11 H 0.7950 0.0376 0.3387
C15 C 0.8574(4) 0.0824(7) 0.4851(6)
H12 H 0.8439 0.1189 0.5361
H13 H 0.8450 0.0238 0.4864
C16 C 0.9621(5) 0.1194(8) 0.5042(8)
H14 H 0.9688 0.1697 0.4851
H15 H 0.9839 0.0769 0.4665
C17 C 1.0400(8) 0.1506(12) 0.6178(10)
N3 N 0.3035(3) 0.1497(3) 0.5419(4)
N4 N 0.2790(3) 0.3096(2) 0.5314(3)
O3 O 0.4682(2) 0.21570(19) 0.5934(2)
O4 O 0.4452(2) 0.36890(18) 0.5796(2)
C19 C 0.4306(3) 0.0731(3) 0.4670(3)
H16 H 0.3948 0.0433 0.4951
C20 C 0.4737(3) 0.1641(3) 0.5087(3)
C21 C 0.5257(3) 0.2095(3) 0.4740(3)
C22 C 0.5319(3) 0.1560(2) 0.3927(3)
H17 H 0.5689 0.1856 0.3652
C23 C 0.4890(3) 0.0632(2) 0.3478(3)
C24 C 0.4375(3) 0.0230(3) 0.3852(3)
C25 C 0.3864(4) 0.2256(3) 0.5683(4)
C26 C 0.1977(4) 0.1545(5) 0.5012(6)
H18 H 0.1287 0.1042 0.4715
C27 C 0.1926(4) 0.2351(4) 0.5040(5)
H19 H 0.1180 0.2381 0.4839
C28 C 0.3803(3) 0.3000(3) 0.5670(3)
C29 C 0.5740(3) 0.3122(3) 0.5228(3)
H20 H 0.5791 0.3325 0.5901
C30 C 0.6761(3) 0.3466(3) 0.5359(3)
H21 H 0.7010 0.4111 0.5590
H22 H 0.6766 0.3216 0.4723
C31 C 0.7501(4) 0.3251(4) 0.6108(4)
H23 H 0.7461 0.3468 0.6730
H24 H 0.7290 0.2607 0.5861
C32 C 0.8489(4) 0.3630(5) 0.6265(6)
H25 H 0.8667 0.4267 0.6461
H26 H 0.8530 0.3388 0.5646
C33 C 0.9309(6) 0.3486(7) 0.7071(8)
H27 H 1.0057 0.3645 0.7081
H28 H 0.9022 0.2847 0.6895
C34 C 0.9554(10) 0.3938(13) 0.8086(9)
H29 H 0.8921 0.3552 0.8112
H30 H 1.0267 0.3860 0.8507
C35 C 0.972(3) 0.478(2) 0.867(3)
N5 N 0.1718(2) 0.3946(2) 0.2880(3)
N6 N 0.0921(3) 0.2976(3) 0.0734(3)
O5 O 0.31919(19) 0.45989(17) 0.3041(2)
O6 O 0.2427(2) 0.37410(17) 0.0954(2)
C37 C 0.3798(3) 0.4114(2) 0.4402(3)
H31 H 0.3291 0.4306 0.4595
C38 C 0.3825(3) 0.4214(2) 0.3610(3)
C39 C 0.4431(3) 0.3950(2) 0.3202(3)
C40 C 0.5032(3) 0.3597(2) 0.3762(3)
H32 H 0.5517 0.3377 0.3560
C41 C 0.5053(3) 0.3500(2) 0.4631(3)
C42 C 0.4435(3) 0.3764(2) 0.4923(3)
C43 C 0.2258(3) 0.4067(3) 0.2372(3)
C44 C 0.0666(3) 0.3291(3) 0.2246(4)
H33 H 0.0153 0.3132 0.2483
C45 C 0.0318(4) 0.2825(4) 0.1193(4)
H34 H -0.0426 0.2358 0.0781
C46 C 0.1948(3) 0.3633(3) 0.1383(3)
C47 C 0.4411(3) 0.4099(2) 0.2300(3)
H35 H 0.3996 0.4506 0.2182
C48 C 0.5462(3) 0.4482(3) 0.2492(3)
H36 H 0.5860 0.4064 0.2532
H37 H 0.5901 0.4989 0.3161
C49 C 0.5500(3) 0.4808(3) 0.1698(4)
H38 H 0.5100 0.4297 0.1036
H39 H 0.5063 0.5200 0.1630
C50 C 0.6525(3) 0.5219(3) 0.1910(4)
H40 H 0.6964 0.4829 0.1994
H41 H 0.6916 0.5735 0.2568
C51 C 0.6593(4) 0.5541(4) 0.1116(5)
H42 H 0.7393 0.5683 0.1227
H43 H 0.6052 0.5060 0.0432
C52 C 0.6288(7) 0.6341(6) 0.1164(7)
C53 C 0.6989(10) 0.7163(8) 0.2198(9)
O7 O 0.2025(2) 0.10422(17) -0.1564(2)
O8 O 0.2288(2) -0.04914(17) -0.14678(19)
N7 N 0.0379(3) 0.0402(2) -0.2033(3)
N8 N 0.0692(3) -0.1186(2) -0.1941(3)
C56 C 0.2199(3) 0.2341(2) -0.0273(3)
H44 H 0.1435 0.2258 -0.0748
C57 C 0.2587(3) 0.1744(2) -0.0562(3)
C58 C 0.3524(3) 0.1830(2) 0.0041(3)
C59 C 0.4092(2) 0.2587(2) 0.0975(3)
H45 H 0.4834 0.2637 0.1456
C60 C 0.3761(3) 0.3252(2) 0.1303(3)
C61 C 0.2771(3) 0.3099(2) 0.0658(3)
C62 C 0.1426(3) 0.0372(3) -0.1682(3)
C63 C -0.0432(4) -0.0379(3) -0.2315(5)
H46 H -0.1194 -0.0377 -0.2551
C64 C -0.0389(4) -0.1206(4) -0.2334(4)
H47 H -0.1058 -0.1715 -0.2598
C65 C 0.1435(3) -0.0412(2) -0.1741(3)
C66 C 0.3927(3) 0.1155(2) -0.0285(3)
H48 H 0.3470 0.0855 -0.1040
C67 C 0.4999(4) 0.1598(3) 0.0003(4)
H49 H 0.5395 0.1186 -0.0077
H50 H 0.5413 0.2000 0.0728
C68 C 0.5074(4) 0.2138(3) -0.0612(4)
H51 H 0.4842 0.1726 -0.1297
H52 H 0.4495 0.2415 -0.0690
C69 C 0.6055(4) 0.2734(3) -0.0253(4)
H53 H 0.6670 0.2495 -0.0036
H54 H 0.6213 0.3224 0.0352
C70 C 0.6115(5) 0.3105(4) -0.1051(5)
H55 H 0.5920 0.2613 -0.1671
H56 H 0.5532 0.3376 -0.1240
C71 C 0.7179(6) 0.3703(5) -0.0666(7)
H57 H 0.7771 0.3441 -0.0460
H58 H 0.7368 0.4210 -0.0062
C72 C 0.7188(8) 0.4009(7) -0.1486(8)
H59 H 0.7193 0.3544 -0.2004
H60 H 0.7885 0.4541 -0.1176
H61 H 0.6490 0.4137 -0.1798
C18? C 1.0369(15) 0.0943(12) 0.6025(13)
C36? C 1.049(7) 0.408(5) 0.884(6)
C54? C 0.7692(14) 0.6019(10) 0.1356(12)
C55? C 0.8093(17) 0.6876(13) 0.2267(15)
C79? C 0.2595(10) 0.1188(7) 0.2877(9)
loop_
_geom_bond_atom_site_label_1
_geom_bond_atom_site_label_2
_geom_bond_site_symmetry_1
_geom_bond_site_symmetry_2
O1 C2 1_555 1_555
O2 C10 1_555 1_555
N1 C7 1_555 1_555
N2 C9 1_555 1_555
C1 H1 1_555 1_555
C2 C1 1_555 1_555
C3 C2 1_555 1_555
C4 C3 1_555 1_555
H2 C4 1_555 1_555
C5 C4 1_555 1_555
C6 C1 1_555 1_555
C7 O1 1_555 1_555
C8 N1 1_555 1_555
H3 C8 1_555 1_555
C9 C8 1_555 1_555
H4 C9 1_555 1_555
C10 N2 1_555 1_555
C11 C3 1_555 1_555
H5 C11 1_555 1_555
C12 C11 1_555 1_555
H6 C12 1_555 1_555
H7 C12 1_555 1_555
C13 C12 1_555 1_555
H8 C13 1_555 1_555
H9 C13 1_555 1_555
C14 C13 1_555 1_555
H10 C14 1_555 1_555
H11 C14 1_555 1_555
C15 C14 1_555 1_555
H12 C15 1_555 1_555
H13 C15 1_555 1_555
C16 C15 1_555 1_555
H14 C16 1_555 1_555
H15 C16 1_555 1_555
C17 C16 1_555 1_555
N3 C25 1_555 1_555
N4 C27 1_555 1_555
O3 C20 1_555 1_555
O4 C28 1_555 1_555
C19 H16 1_555 1_555
C20 C19 1_555 1_555
C21 C20 1_555 1_555
C22 C21 1_555 1_555
H17 C22 1_555 1_555
C23 C11 1_555 1_555
C24 O2 1_555 1_555
C25 O3 1_555 1_555
C26 N3 1_555 1_555
H18 C26 1_555 1_555
C27 C26 1_555 1_555
H19 C27 1_555 1_555
C28 N4 1_555 1_555
C29 C21 1_555 1_555
H20 C29 1_555 1_555
C30 C29 1_555 1_555
H21 C30 1_555 1_555
H22 C30 1_555 1_555
C31 C30 1_555 1_555
H23 C31 1_555 1_555
H24 C31 1_555 1_555
C32 C31 1_555 1_555
H25 C32 1_555 1_555
H26 C32 1_555 1_555
C33 C32 1_555 1_555
H27 C33 1_555 1_555
H28 C33 1_555 1_555
C34 C33 1_555 1_555
H29 C34 1_555 1_555
H30 C34 1_555 1_555
C35 C34 1_555 1_555
N5 C43 1_555 1_555
N6 C45 1_555 1_555
O5 C38 1_555 1_555
O6 C46 1_555 1_555
C37 H31 1_555 1_555
C38 C37 1_555 1_555
C39 C38 1_555 1_555
C40 C39 1_555 1_555
H32 C40 1_555 1_555
C41 C29 1_555 1_555
C42 O4 1_555 1_555
C43 O5 1_555 1_555
C44 N5 1_555 1_555
H33 C44 1_555 1_555
C45 C44 1_555 1_555
H34 C45 1_555 1_555
C46 N6 1_555 1_555
C47 C39 1_555 1_555
H35 C47 1_555 1_555
C48 C47 1_555 1_555
H36 C48 1_555 1_555
H37 C48 1_555 1_555
C49 C48 1_555 1_555
H38 C49 1_555 1_555
H39 C49 1_555 1_555
C50 C49 1_555 1_555
H40 C50 1_555 1_555
H41 C50 1_555 1_555
C51 C50 1_555 1_555
H42 C51 1_555 1_555
H43 C51 1_555 1_555
C52 C51 1_555 1_555
C53 C52 1_555 1_555
O7 C57 1_555 1_555
O8 C6 1_555 1_555
N7 C62 1_555 1_555
N8 C64 1_555 1_555
C56 H44 1_555 1_555
C57 C56 1_555 1_555
C58 C57 1_555 1_555
C59 C58 1_555 1_555
H45 C59 1_555 1_555
C60 C47 1_555 1_555
C61 O6 1_555 1_555
C62 O7 1_555 1_555
C63 N7 1_555 1_555
H46 C63 1_555 1_555
C64 C63 1_555 1_555
H47 C64 1_555 1_555
C65 O8 1_555 1_555
C66 C5 1_555 1_555
H48 C66 1_555 1_555
C67 C66 1_555 1_555
H49 C67 1_555 1_555
H50 C67 1_555 1_555
C68 C67 1_555 1_555
H51 C68 1_555 1_555
H52 C68 1_555 1_555
C69 C68 1_555 1_555
H53 C69 1_555 1_555
H54 C69 1_555 1_555
C70 C69 1_555 1_555
H55 C70 1_555 1_555
H56 C70 1_555 1_555
C71 C70 1_555 1_555
H57 C71 1_555 1_555
H58 C71 1_555 1_555
C72 C71 1_555 1_555
H59 C72 1_555 1_555
H60 C72 1_555 1_555
H61 C72 1_555 1_555
C73 C74 1_555 1_555
C74 C75 1_555 1_555
C76 C77 1_555 1_555
C77 C78 1_555 1_555
C80 C81 1_555 1_555
C81 C82 1_555 1_555
C5 C6 1_555 1_555
C7 C10 1_555 1_555
C19 C24 1_555 1_555
C22 C23 1_555 1_555
C23 C24 1_555 1_555
C25 C28 1_555 1_555
C37 C42 1_555 1_555
C40 C41 1_555 1_555
C41 C42 1_555 1_555
C43 C46 1_555 1_555
N8 C65 1_555 1_555
C56 C61 1_555 1_555
C58 C66 1_555 1_555
C59 C60 1_555 1_555
C60 C61 1_555 1_555
C62 C65 1_555 1_555

#END
