
#######################################################################
#
#                 Cambridge Crystallographic Data Centre
#                                CCDC 
#
#######################################################################
#
# If this CIF has been generated from an entry in the Cambridge 
# Structural Database, then it will include bibliographic, chemical, 
# crystal, experimental, refinement or atomic coordinate data resulting 
# from the CCDC's data processing and validation procedures.
#
#######################################################################

data_DEKKEL
_chemical_formula_moiety         'C23 H39 Li1 N2 O2'
_chemical_name_systematic        
(N-Isobutyl-7-(isobutylimino)cyclohepta-1,3,5-trien-1-amino)-bis(tetrahydrofuran)-lithium(i)
_symmetry_cell_setting           monoclinic
_symmetry_space_group_name_H-M   'C 2/c'
_symmetry_Int_Tables_number      15
_space_group_name_Hall           '-C 2yn'
loop_
_symmetry_equiv_pos_site_id
_symmetry_equiv_pos_as_xyz
1 x,y,z
2 -x,y,1/2-z
3 1/2+x,1/2+y,z
4 1/2-x,1/2+y,1/2-z
5 -x,-y,-z
6 x,-y,1/2+z
7 1/2-x,1/2-y,-z
8 1/2+x,1/2-y,1/2+z
_cell_length_a                   17.391(3)
_cell_length_b                   11.9912(19)
_cell_length_c                   12.492(2)
_cell_angle_alpha                90
_cell_angle_beta                 119.988(3)
_cell_angle_gamma                90
_cell_volume                     2256.33
_exptl_crystal_colour            yellow
_exptl_crystal_description       block
_chemical_melting_point          '80 deg.C'
_cell_formula_units_Z            4
_exptl_crystal_recrystallization_method tetrahydrofuran
loop_
_atom_site_label
_atom_site_type_symbol
_atom_site_fract_x
_atom_site_fract_y
_atom_site_fract_z
Li1 Li 1.0000 0.5925(3) 0.2500
N1 N 0.91318(9) 0.46560(10) 0.18720(11)
O1 O 1.02440(8) 0.69196(8) 0.14448(10)
C1 C 0.95079(10) 0.36739(12) 0.22505(14)
C2 C 0.90380(12) 0.26973(13) 0.22700(15)
H1 H 0.8485 0.2844 0.2184
C3 C 0.92567(12) 0.15817(13) 0.23934(15)
H2 H 0.8838 0.1109 0.2408
C4 C 1.0000 0.10509(18) 0.2500
H3 H 1.0000 0.0275 0.2500
C5 C 0.81743(11) 0.47498(12) 0.13448(14)
H4 H 0.8033 0.4720 0.2003
H5 H 0.7885 0.4124 0.0797
C6 C 0.78204(11) 0.58359(13) 0.06267(14)
H6 H 0.8165 0.6454 0.1168
C7 C 0.79307(11) 0.58555(14) -0.05098(14)
H7 H 0.8548 0.5781 -0.0258
H8 H 0.7710 0.6549 -0.0940
H9 H 0.7604 0.5249 -0.1047
C8 C 0.68532(11) 0.59965(14) 0.02672(16)
H10 H 0.6640 0.6689 -0.0169
H11 H 0.6804 0.6010 0.0999
H12 H 0.6505 0.5392 -0.0255
C9 C 1.05858(12) 0.63678(14) 0.07409(16)
H13 H 1.0152 0.6381 -0.0135
H14 H 1.0736 0.5598 0.1003
C10 C 1.14016(12) 0.70189(14) 0.10038(16)
H15 H 1.1549 0.6919 0.0357
H16 H 1.1908 0.6812 0.1793
C11 C 1.10997(12) 0.82047(14) 0.10253(16)
H17 H 1.1602 0.8688 0.1518
H18 H 1.0762 0.8507 0.0196
C12 C 1.05242(12) 0.80705(13) 0.16103(16)
H19 H 1.0859 0.8254 0.2483
H20 H 1.0013 0.8560 0.1214
N1A N 1.08682(9) 0.46560(10) 0.31280(11)
O1A O 0.97560(8) 0.69196(8) 0.35552(10)
C1A C 1.04921(10) 0.36739(12) 0.27495(14)
C2A C 1.09620(12) 0.26973(13) 0.27300(15)
H1A H 1.1515 0.2844 0.2816
C3A C 1.07433(12) 0.15817(13) 0.26066(15)
H2A H 1.1162 0.1109 0.2592
C5A C 1.18257(11) 0.47498(12) 0.36552(14)
H4A H 1.1967 0.4720 0.2997
H5A H 1.2115 0.4124 0.4203
C6A C 1.21796(11) 0.58359(13) 0.43733(14)
H6A H 1.1835 0.6454 0.3832
C7A C 1.20693(11) 0.58555(14) 0.55098(14)
H7A H 1.1452 0.5781 0.5258
H8A H 1.2290 0.6549 0.5940
H9A H 1.2396 0.5249 0.6047
C8A C 1.31468(11) 0.59965(14) 0.47328(16)
H10A H 1.3360 0.6689 0.5169
H11A H 1.3196 0.6010 0.4001
H12A H 1.3495 0.5392 0.5255
C9A C 0.94142(12) 0.63678(14) 0.42591(16)
H13A H 0.9848 0.6381 0.5135
H14A H 0.9264 0.5598 0.3997
C10A C 0.85984(12) 0.70189(14) 0.39962(16)
H15A H 0.8451 0.6919 0.4643
H16A H 0.8092 0.6812 0.3207
C11A C 0.89003(12) 0.82047(14) 0.39747(16)
H17A H 0.8398 0.8688 0.3482
H18A H 0.9238 0.8507 0.4804
C12A C 0.94758(12) 0.80705(13) 0.33897(16)
H19A H 0.9141 0.8254 0.2517
H20A H 0.9987 0.8560 0.3786
loop_
_geom_bond_atom_site_label_1
_geom_bond_atom_site_label_2
_geom_bond_site_symmetry_1
_geom_bond_site_symmetry_2
Li1 N1 1_555 1_555
N1 C1 1_555 1_555
O1 Li1 1_555 1_555
C1 C2 1_555 1_555
C2 H1 1_555 1_555
C3 C2 1_555 1_555
H2 C3 1_555 1_555
C4 C3 1_555 1_555
H3 C4 1_555 1_555
C5 N1 1_555 1_555
H4 C5 1_555 1_555
H5 C5 1_555 1_555
C6 C5 1_555 1_555
H6 C6 1_555 1_555
C7 C6 1_555 1_555
H7 C7 1_555 1_555
H8 C7 1_555 1_555
H9 C7 1_555 1_555
C8 C6 1_555 1_555
H10 C8 1_555 1_555
H11 C8 1_555 1_555
H12 C8 1_555 1_555
C9 O1 1_555 1_555
H13 C9 1_555 1_555
H14 C9 1_555 1_555
C10 C9 1_555 1_555
H15 C10 1_555 1_555
H16 C10 1_555 1_555
C11 C10 1_555 1_555
H17 C11 1_555 1_555
H18 C11 1_555 1_555
C12 O1 1_555 1_555
H19 C12 1_555 1_555
H20 C12 1_555 1_555
N1A Li1 1_555 1_555
O1A Li1 1_555 1_555
C1A C1 1_555 1_555
C2A C1A 1_555 1_555
H1A C2A 1_555 1_555
C3A C4 1_555 1_555
H2A C3A 1_555 1_555
C5A N1A 1_555 1_555
H4A C5A 1_555 1_555
H5A C5A 1_555 1_555
C6A C5A 1_555 1_555
H6A C6A 1_555 1_555
C7A C6A 1_555 1_555
H7A C7A 1_555 1_555
H8A C7A 1_555 1_555
H9A C7A 1_555 1_555
C8A C6A 1_555 1_555
H10A C8A 1_555 1_555
H11A C8A 1_555 1_555
H12A C8A 1_555 1_555
C9A O1A 1_555 1_555
H13A C9A 1_555 1_555
H14A C9A 1_555 1_555
C10A C9A 1_555 1_555
H15A C10A 1_555 1_555
H16A C10A 1_555 1_555
C11A C10A 1_555 1_555
H17A C11A 1_555 1_555
H18A C11A 1_555 1_555
C12A O1A 1_555 1_555
H19A C12A 1_555 1_555
H20A C12A 1_555 1_555
C11 C12 1_555 1_555
N1A C1A 1_555 1_555
C2A C3A 1_555 1_555
C11A C12A 1_555 1_555

#END
