
#######################################################################
#
#                 Cambridge Crystallographic Data Centre
#                                CCDC 
#
#######################################################################
#
# If this CIF has been generated from an entry in the Cambridge 
# Structural Database, then it will include bibliographic, chemical, 
# crystal, experimental, refinement or atomic coordinate data resulting 
# from the CCDC's data processing and validation procedures.
#
#######################################################################

data_DELCUV
_chemical_formula_moiety         'C25 H23 N3 O3'
_chemical_name_systematic        
"ethyl 3-hydroxy-5-methyl-2-[4-(3-methylphenyl)-1H-1,2,3-triazol-1-yl][1,1'-biphenyl]-4-carboxylate"
_symmetry_cell_setting           monoclinic
_symmetry_space_group_name_H-M   'P 21/c'
_symmetry_Int_Tables_number      14
_space_group_name_Hall           '-P 2ybc'
loop_
_symmetry_equiv_pos_site_id
_symmetry_equiv_pos_as_xyz
1 x,y,z
2 -x,1/2+y,1/2-z
3 -x,-y,-z
4 x,1/2-y,1/2+z
_cell_length_a                   9.4549(11)
_cell_length_b                   10.7640(12)
_cell_length_c                   21.279(3)
_cell_angle_alpha                90
_cell_angle_beta                 98.778(2)
_cell_angle_gamma                90
_cell_volume                     2140.25
_exptl_crystal_colour            yellow
_exptl_crystal_description       block
_cell_formula_units_Z            4
loop_
_atom_site_label
_atom_site_type_symbol
_atom_site_fract_x
_atom_site_fract_y
_atom_site_fract_z
C1 C 0.3376(3) 1.0343(2) 0.05762(12)
C2 C 0.3998(3) 1.0459(2) 0.12172(12)
C3 C 0.3512(3) 0.9739(2) 0.16836(11)
C4 C 0.2450(3) 0.8857(2) 0.15322(12)
C5 C 0.1902(3) 0.8721(2) 0.08930(12)
H1 H 0.1211 0.8111 0.0781
C6 C 0.2314(3) 0.9429(2) 0.04123(12)
C7 C 0.1898(3) 0.8064(2) 0.20119(12)
C8 C 0.1515(3) 0.8547(3) 0.25628(13)
H2 H 0.1645 0.9389 0.2652
C9 C 0.0939(3) 0.7789(3) 0.29839(14)
H3 H 0.0679 0.8123 0.3353
C10 C 0.0751(4) 0.6547(3) 0.28585(16)
H4 H 0.0363 0.6041 0.3143
C11 C 0.1133(4) 0.6046(3) 0.23168(16)
H5 H 0.1014 0.5201 0.2234
C12 C 0.1696(3) 0.6807(2) 0.18953(14)
H6 H 0.1944 0.6468 0.1525
C13 C 0.3889(3) 1.1200(2) 0.01174(13)
C14 C 0.3509(3) 1.2013(2) -0.09355(12)
H7 H 0.4466 1.1842 -0.1025
H8 H 0.3472 1.2866 -0.0792
C15 C 0.2433(4) 1.1801(3) -0.15101(14)
H9 H 0.2508 1.0962 -0.1654
H10 H 0.2604 1.2366 -0.1839
H11 H 0.1491 1.1938 -0.1408
C16 C 0.1603(3) 0.9160(3) -0.02537(13)
H12 H 0.1014 0.9852 -0.0412
H13 H 0.1020 0.8430 -0.0254
H14 H 0.2320 0.9026 -0.0521
N1 N 0.4768(2) 1.08661(19) 0.32060(10)
C17 C 0.5468(3) 0.9755(2) 0.32530(12)
C18 C 0.6478(3) 0.9405(2) 0.38142(12)
C19 C 0.6543(3) 1.0063(2) 0.43832(12)
H15 H 0.5904 1.0713 0.4406
C20 C 0.7527(3) 0.9780(3) 0.49132(13)
C21 C 0.8459(3) 0.8806(3) 0.48652(15)
H16 H 0.9136 0.8596 0.5214
C22 C 0.8398(3) 0.8139(3) 0.43057(16)
H17 H 0.9026 0.7482 0.4284
C23 C 0.7423(3) 0.8437(2) 0.37834(13)
H18 H 0.7396 0.7987 0.3409
C24 C 0.7567(4) 1.0503(3) 0.55197(14)
H19 H 0.8291 1.0165 0.5839
H20 H 0.6653 1.0450 0.5662
H21 H 0.7783 1.1357 0.5446
N2 N 0.3995(2) 1.09658(19) 0.26430(10)
N3 N 0.4201(2) 0.99066(18) 0.23284(9)
C25 C 0.5095(3) 0.9140(2) 0.26894(12)
H22 H 0.5398 0.8357 0.2581
O1 O 0.5079(2) 1.12501(17) 0.14144(8)
H23 H 0.5293 1.1628 0.1108
O2 O 0.3137(2) 1.11617(16) -0.04560(8)
O3 O 0.4903(2) 1.19018(17) 0.02504(9)
loop_
_geom_bond_atom_site_label_1
_geom_bond_atom_site_label_2
_geom_bond_site_symmetry_1
_geom_bond_site_symmetry_2
C1 C2 1_555 1_555
C2 C3 1_555 1_555
C3 C4 1_555 1_555
C4 C5 1_555 1_555
C5 H1 1_555 1_555
C6 C1 1_555 1_555
C7 C4 1_555 1_555
C8 C7 1_555 1_555
H2 C8 1_555 1_555
C9 C8 1_555 1_555
H3 C9 1_555 1_555
C10 C9 1_555 1_555
H4 C10 1_555 1_555
C11 C10 1_555 1_555
H5 C11 1_555 1_555
C12 C7 1_555 1_555
H6 C12 1_555 1_555
C13 C1 1_555 1_555
C14 H7 1_555 1_555
H8 C14 1_555 1_555
C15 C14 1_555 1_555
H9 C15 1_555 1_555
H10 C15 1_555 1_555
H11 C15 1_555 1_555
C16 C6 1_555 1_555
H12 C16 1_555 1_555
H13 C16 1_555 1_555
H14 C16 1_555 1_555
N1 C17 1_555 1_555
C17 C18 1_555 1_555
C18 C19 1_555 1_555
C19 H15 1_555 1_555
C20 C19 1_555 1_555
C21 C20 1_555 1_555
H16 C21 1_555 1_555
C22 C21 1_555 1_555
H17 C22 1_555 1_555
C23 C18 1_555 1_555
H18 C23 1_555 1_555
C24 C20 1_555 1_555
H19 C24 1_555 1_555
H20 C24 1_555 1_555
H21 C24 1_555 1_555
N2 N1 1_555 1_555
N3 C3 1_555 1_555
C25 C17 1_555 1_555
H22 C25 1_555 1_555
O1 C2 1_555 1_555
H23 O1 1_555 1_555
O2 C13 1_555 1_555
O3 C13 1_555 1_555
C5 C6 1_555 1_555
C11 C12 1_555 1_555
C14 O2 1_555 1_555
C22 C23 1_555 1_555
N2 N3 1_555 1_555
N3 C25 1_555 1_555

#END
