
#######################################################################
#
#                 Cambridge Crystallographic Data Centre
#                                CCDC 
#
#######################################################################
#
# If this CIF has been generated from an entry in the Cambridge 
# Structural Database, then it will include bibliographic, chemical, 
# crystal, experimental, refinement or atomic coordinate data resulting 
# from the CCDC's data processing and validation procedures.
#
#######################################################################

data_DELJIQ
_chemical_formula_moiety         'C31 H43 B1 N4'
_chemical_name_systematic        
'2-[(9-borabicyclo[3.3.1]nonan-9-yl)(1,3-dimethyl-2,3-dihydro-1H-benzimidazol-2-yl)methylidene]-1,3-bis(propan-2-yl)-2,3-dihydro-1H-benzimidazole unknown solvate'
_symmetry_cell_setting           tetragonal
_symmetry_space_group_name_H-M   'P 41'
_symmetry_Int_Tables_number      76
_space_group_name_Hall           'P 4w'
loop_
_symmetry_equiv_pos_site_id
_symmetry_equiv_pos_as_xyz
1 x,y,z
2 -y,x,1/4+z
3 y,-x,3/4+z
4 -x,-y,1/2+z
_cell_length_a                   15.8086(4)
_cell_length_b                   15.8086(4)
_cell_length_c                   11.7043(3)
_cell_angle_alpha                90
_cell_angle_beta                 90
_cell_angle_gamma                90
_cell_volume                     2925.04
_exptl_crystal_colour            colorless
_exptl_crystal_description       prism
_cell_formula_units_Z            4
_exptl_crystal_recrystallization_method 
'Dissolved in diethyl ether and recrystallized at -15 deg.C.'
loop_
_atom_site_label
_atom_site_type_symbol
_atom_site_fract_x
_atom_site_fract_y
_atom_site_fract_z
N1 N 0.20987(7) 0.31175(7) 0.41161(9)
N2 N 0.20499(7) 0.44131(7) 0.50323(10)
N3 N -0.00451(7) 0.41126(7) 0.58040(9)
N4 N 0.00327(6) 0.30646(6) 0.45995(9)
C1 C 0.12623(8) 0.32191(8) 0.59583(11)
C2 C 0.20249(8) 0.34856(8) 0.52774(11)
H1 H 0.25439(8) 0.33325(8) 0.57199(11)
C3 C 0.24725(9) 0.22760(9) 0.40890(14)
H2 H 0.30858(13) 0.23204(11) 0.4196(10)
H3 H 0.2230(5) 0.1931(2) 0.4703(6)
H4 H 0.2354(6) 0.2010(3) 0.3350(4)
C4 C 0.24462(8) 0.37327(9) 0.34126(12)
C5 C 0.27527(10) 0.36558(11) 0.23121(13)
H5 H 0.27543(10) 0.31255(11) 0.19304(13)
C6 C 0.30603(11) 0.43852(13) 0.17793(14)
H6 H 0.32811(11) 0.43471(13) 0.10262(14)
C7 C 0.30500(11) 0.51530(12) 0.23200(16)
H7 H 0.32595(11) 0.56389(12) 0.19352(16)
C8 C 0.27351(9) 0.52312(10) 0.34314(15)
H8 H 0.27315(9) 0.57627(10) 0.38099(15)
C9 C 0.24291(8) 0.45127(9) 0.39641(12)
C10 C 0.23951(11) 0.49146(11) 0.59638(14)
H9 H 0.2285(7) 0.55154(13) 0.5820(6)
H10 H 0.2126(6) 0.4746(6) 0.6683(2)
H11 H 0.30065(17) 0.4820(6) 0.6016(7)
C11 C 0.04493(8) 0.34557(8) 0.54692(10)
C12 C 0.01868(9) 0.47320(8) 0.66962(11)
H12 H 0.07332(9) 0.45425(8) 0.70425(11)
C13 C 0.03383(11) 0.55951(9) 0.61503(13)
H13 H -0.02027(14) 0.5834(4) 0.5899(9)
H14 H 0.0600(7) 0.5974(2) 0.6711(3)
H15 H 0.0715(6) 0.55315(13) 0.5491(6)
C14 C -0.04683(10) 0.47572(10) 0.76411(12)
H16 H -0.0593(5) 0.41796(11) 0.7894(7)
H17 H -0.0249(3) 0.5087(6) 0.8285(4)
H18 H -0.0987(3) 0.5022(7) 0.7354(3)
C15 C -0.07710(8) 0.41481(8) 0.51363(11)
C16 C -0.14473(9) 0.47136(9) 0.51174(12)
H19 H -0.14791(9) 0.51723(9) 0.56401(12)
C17 C -0.20667(9) 0.45811(9) 0.43120(12)
H20 H -0.25332(9) 0.49589(9) 0.42739(12)
C18 C -0.20250(8) 0.39041(8) 0.35498(11)
H21 H -0.24640(8) 0.38311(8) 0.30043(11)
C19 C -0.13598(8) 0.33370(8) 0.35699(10)
H22 H -0.13371(8) 0.28711(8) 0.30581(10)
C20 C -0.07234(7) 0.34773(7) 0.43727(10)
C21 C 0.03153(8) 0.22666(8) 0.40644(11)
H23 H 0.08693(8) 0.21115(8) 0.44196(11)
C22 C -0.03067(9) 0.15539(8) 0.43308(13)
H24 H -0.0843(3) 0.1660(4) 0.3935(7)
H25 H -0.0070(3) 0.10140(12) 0.4072(8)
H26 H -0.0407(5) 0.1530(4) 0.51565(16)
C23 C 0.04691(9) 0.23869(9) 0.27899(12)
H27 H 0.0881(5) 0.2842(4) 0.26739(12)
H28 H 0.0689(6) 0.1860(2) 0.2463(2)
H29 H -0.00641(15) 0.2536(6) 0.24131(18)
C24 C 0.21540(9) 0.24310(9) 0.76450(12)
H30 H 0.26493(9) 0.25954(9) 0.71622(12)
C25 C 0.22359(10) 0.28671(10) 0.88189(13)
H31 H 0.27403(10) 0.26367(10) 0.92120(13)
H32 H 0.23352(10) 0.34784(10) 0.86931(13)
C26 C 0.14798(10) 0.27671(10) 0.96001(13)
H33 H 0.14861(10) 0.21896(10) 0.99271(13)
H34 H 0.15336(10) 0.31726(10) 1.02406(13)
C27 C 0.06284(9) 0.29120(9) 0.90066(12)
H35 H 0.01744(9) 0.26990(9) 0.95131(12)
H36 H 0.05432(9) 0.35289(9) 0.89175(12)
C28 C 0.05254(8) 0.24903(8) 0.78184(11)
H37 H -0.00057(8) 0.27060(8) 0.74572(11)
C29 C 0.04879(10) 0.15151(9) 0.78566(12)
H38 H 0.00276(10) 0.13441(9) 0.83814(12)
H39 H 0.03413(10) 0.13042(9) 0.70852(12)
C30 C 0.13071(10) 0.10882(9) 0.82423(14)
H40 H 0.13509(10) 0.11359(9) 0.90836(14)
H41 H 0.12750(10) 0.04790(9) 0.80515(14)
C31 C 0.21103(10) 0.14551(9) 0.77085(14)
H42 H 0.21660(10) 0.12273(9) 0.69242(14)
H43 H 0.26026(10) 0.12516(9) 0.81532(14)
B1 B 0.13091(9) 0.27644(9) 0.70472(13)
loop_
_geom_bond_atom_site_label_1
_geom_bond_atom_site_label_2
_geom_bond_site_symmetry_1
_geom_bond_site_symmetry_2
N1 C2 1_555 1_555
N2 C2 1_555 1_555
N3 C11 1_555 1_555
N4 C11 1_555 1_555
C1 C2 1_555 1_555
C2 H1 1_555 1_555
C3 N1 1_555 1_555
H2 C3 1_555 1_555
H3 C3 1_555 1_555
H4 C3 1_555 1_555
C4 N1 1_555 1_555
C5 C4 1_555 1_555
H5 C5 1_555 1_555
C6 C5 1_555 1_555
H6 C6 1_555 1_555
C7 C6 1_555 1_555
H7 C7 1_555 1_555
C8 C7 1_555 1_555
H8 C8 1_555 1_555
C9 N2 1_555 1_555
C10 N2 1_555 1_555
H9 C10 1_555 1_555
H10 C10 1_555 1_555
H11 C10 1_555 1_555
C11 C1 1_555 1_555
C12 N3 1_555 1_555
H12 C12 1_555 1_555
C13 C12 1_555 1_555
H13 C13 1_555 1_555
H14 C13 1_555 1_555
H15 C13 1_555 1_555
C14 C12 1_555 1_555
H16 C14 1_555 1_555
H17 C14 1_555 1_555
H18 C14 1_555 1_555
C15 N3 1_555 1_555
C16 C15 1_555 1_555
H19 C16 1_555 1_555
C17 C16 1_555 1_555
H20 C17 1_555 1_555
C18 C17 1_555 1_555
H21 C18 1_555 1_555
C19 C18 1_555 1_555
H22 C19 1_555 1_555
C20 N4 1_555 1_555
C21 N4 1_555 1_555
H23 C21 1_555 1_555
C22 C21 1_555 1_555
H24 C22 1_555 1_555
H25 C22 1_555 1_555
H26 C22 1_555 1_555
C23 C21 1_555 1_555
H27 C23 1_555 1_555
H28 C23 1_555 1_555
H29 C23 1_555 1_555
C24 H30 1_555 1_555
C25 C24 1_555 1_555
H31 C25 1_555 1_555
H32 C25 1_555 1_555
C26 C25 1_555 1_555
H33 C26 1_555 1_555
H34 C26 1_555 1_555
C27 C26 1_555 1_555
H35 C27 1_555 1_555
H36 C27 1_555 1_555
C28 C27 1_555 1_555
H37 C28 1_555 1_555
C29 C28 1_555 1_555
H38 C29 1_555 1_555
H39 C29 1_555 1_555
C30 C29 1_555 1_555
H40 C30 1_555 1_555
H41 C30 1_555 1_555
C31 C24 1_555 1_555
H42 C31 1_555 1_555
H43 C31 1_555 1_555
B1 C1 1_555 1_555
C4 C9 1_555 1_555
C8 C9 1_555 1_555
C15 C20 1_555 1_555
C19 C20 1_555 1_555
C24 B1 1_555 1_555
C28 B1 1_555 1_555
C30 C31 1_555 1_555

#END
