
#######################################################################
#
#                 Cambridge Crystallographic Data Centre
#                                CCDC 
#
#######################################################################
#
# If this CIF has been generated from an entry in the Cambridge 
# Structural Database, then it will include bibliographic, chemical, 
# crystal, experimental, refinement or atomic coordinate data resulting 
# from the CCDC's data processing and validation procedures.
#
#######################################################################

data_DELJUC
_chemical_formula_moiety         'C34 H33 N2 P1 Si1'
_chemical_name_systematic        
1,3-dimethyl-2-[(phenylsilyl)(triphenyl-\l^5^-phosphanylidene)methyl]-2,3-dihydro-1H-benzimidazole
_symmetry_cell_setting           monoclinic
_symmetry_space_group_name_H-M   'P 21/n'
_symmetry_Int_Tables_number      14
_space_group_name_Hall           '-P 2yn'
loop_
_symmetry_equiv_pos_site_id
_symmetry_equiv_pos_as_xyz
1 x,y,z
2 1/2-x,1/2+y,1/2-z
3 -x,-y,-z
4 1/2+x,1/2-y,1/2+z
_cell_length_a                   9.7423(3)
_cell_length_b                   21.4443(7)
_cell_length_c                   13.5162(4)
_cell_angle_alpha                90
_cell_angle_beta                 93.301(2)
_cell_angle_gamma                90
_cell_volume                     2819.08
_exptl_crystal_colour            colorless
_exptl_crystal_description       prism
_cell_formula_units_Z            4
_exptl_crystal_recrystallization_method 
'Dissolved in diethyl ether and recrystallized at -15 deg.C.'
loop_
_atom_site_label
_atom_site_type_symbol
_atom_site_fract_x
_atom_site_fract_y
_atom_site_fract_z
P1 P 0.66829(4) 0.58238(2) 0.17005(3)
Si1 Si 0.87889(5) 0.68651(2) 0.19580(4)
H1 H 0.9883(18) 0.6965(8) 0.2689(13)
H2 H 0.9364(18) 0.6565(8) 0.1145(13)
N1 N 0.84161(15) 0.62283(7) 0.42293(10)
N2 N 0.69831(14) 0.70431(6) 0.38462(10)
C1 C 0.75059(17) 0.63498(7) 0.24547(12)
C2 C 0.72403(17) 0.63938(8) 0.35278(12)
H3 H 0.6446 0.6134 0.3665
C3 C 0.8729(2) 0.55727(9) 0.43114(15)
H4 H 0.7994 0.5362 0.4618
H5 H 0.9569 0.5517 0.4708
H6 H 0.8830 0.5402 0.3663
C4 C 0.82128(17) 0.65595(8) 0.50985(12)
C5 C 0.87524(19) 0.64714(9) 0.60533(13)
H7 H 0.9327 0.6135 0.6211
C6 C 0.84137(19) 0.69005(9) 0.67783(13)
H8 H 0.8774 0.6851 0.7426
C7 C 0.75537(19) 0.73962(9) 0.65475(13)
H9 H 0.7344 0.7677 0.7041
C8 C 0.69915(18) 0.74834(8) 0.55817(13)
H10 H 0.6406 0.7816 0.5427
C9 C 0.73309(17) 0.70617(8) 0.48658(12)
C10 C 0.56793(18) 0.72986(9) 0.34754(14)
H11 H 0.5630 0.7291 0.2764
H12 H 0.5599 0.7721 0.3701
H13 H 0.4944 0.7054 0.3715
C11 C 0.78286(18) 0.81374(8) 0.20756(14)
H14 H 0.7839 0.8076 0.2757
C12 C 0.74237(19) 0.87099(8) 0.16839(15)
H15 H 0.7165 0.9028 0.2102
C13 C 0.7404(2) 0.88079(9) 0.06752(15)
H16 H 0.7142 0.9194 0.0413
C14 C 0.7774(2) 0.83339(10) 0.00538(15)
H17 H 0.7752 0.8398 -0.0627
C15 C 0.8178(2) 0.77617(9) 0.04493(14)
H18 H 0.8425 0.7444 0.0025
C16 C 0.82223(18) 0.76501(8) 0.14661(13)
C17 C 0.56230(18) 0.67304(8) 0.04028(13)
H19 H 0.5339 0.6925 0.0971
C18 C 0.53625(18) 0.70096(9) -0.05126(14)
H20 H 0.4883 0.7384 -0.0559
C19 C 0.58159(18) 0.67310(9) -0.13579(13)
H21 H 0.5649 0.6921 -0.1972
C20 C 0.65169(18) 0.61707(9) -0.12885(13)
H22 H 0.6830 0.5987 -0.1856
C21 C 0.67557(17) 0.58810(8) -0.03780(12)
H23 H 0.7215 0.5501 -0.0339
C22 C 0.63086(17) 0.61583(8) 0.04809(12)
C23 C 0.90411(17) 0.51141(8) 0.16067(13)
H24 H 0.9467 0.5454 0.1922
C24 C 0.98296(19) 0.46126(8) 0.13216(13)
H25 H 1.0778 0.4617 0.1448
C25 C 0.91987(19) 0.41072(8) 0.08497(13)
H26 H 0.9726 0.3774 0.0646
C26 C 0.77849(19) 0.40962(8) 0.06806(13)
H27 H 0.7363 0.3752 0.0374
C27 C 0.69927(18) 0.45948(8) 0.09655(13)
H28 H 0.6043 0.4585 0.0850
C28 C 0.76219(17) 0.51130(8) 0.14260(12)
C29 C 0.51393(19) 0.50665(8) 0.28835(13)
H29 H 0.5957 0.4851 0.3021
C30 C 0.3971(2) 0.48983(9) 0.33580(14)
H30 H 0.4009 0.4574 0.3816
C31 C 0.2752(2) 0.52112(9) 0.31509(15)
H31 H 0.1968 0.5096 0.3467
C32 C 0.26939(19) 0.56947(10) 0.24750(15)
H32 H 0.1872 0.5906 0.2338
C33 C 0.38638(18) 0.58649(9) 0.19992(14)
H33 H 0.3820 0.6189 0.1541
C34 C 0.51001(17) 0.55539(8) 0.22040(12)
loop_
_geom_bond_atom_site_label_1
_geom_bond_atom_site_label_2
_geom_bond_site_symmetry_1
_geom_bond_site_symmetry_2
P1 C1 1_555 1_555
Si1 H1 1_555 1_555
H2 Si1 1_555 1_555
N1 C2 1_555 1_555
N2 C2 1_555 1_555
C1 Si1 1_555 1_555
C2 C1 1_555 1_555
H3 C2 1_555 1_555
C3 N1 1_555 1_555
H4 C3 1_555 1_555
H5 C3 1_555 1_555
H6 C3 1_555 1_555
C4 N1 1_555 1_555
C5 C4 1_555 1_555
H7 C5 1_555 1_555
C6 C5 1_555 1_555
H8 C6 1_555 1_555
C7 C6 1_555 1_555
H9 C7 1_555 1_555
C8 C7 1_555 1_555
H10 C8 1_555 1_555
C9 N2 1_555 1_555
C10 N2 1_555 1_555
H11 C10 1_555 1_555
H12 C10 1_555 1_555
H13 C10 1_555 1_555
C11 H14 1_555 1_555
C12 C11 1_555 1_555
H15 C12 1_555 1_555
C13 C12 1_555 1_555
H16 C13 1_555 1_555
C14 C13 1_555 1_555
H17 C14 1_555 1_555
C15 C14 1_555 1_555
H18 C15 1_555 1_555
C16 Si1 1_555 1_555
C17 H19 1_555 1_555
C18 C17 1_555 1_555
H20 C18 1_555 1_555
C19 C18 1_555 1_555
H21 C19 1_555 1_555
C20 C19 1_555 1_555
H22 C20 1_555 1_555
C21 C20 1_555 1_555
H23 C21 1_555 1_555
C22 P1 1_555 1_555
C23 H24 1_555 1_555
C24 C23 1_555 1_555
H25 C24 1_555 1_555
C25 C24 1_555 1_555
H26 C25 1_555 1_555
C26 C25 1_555 1_555
H27 C26 1_555 1_555
C27 C26 1_555 1_555
H28 C27 1_555 1_555
C28 P1 1_555 1_555
C29 H29 1_555 1_555
C30 C29 1_555 1_555
H30 C30 1_555 1_555
C31 C30 1_555 1_555
H31 C31 1_555 1_555
C32 C31 1_555 1_555
H32 C32 1_555 1_555
C33 C32 1_555 1_555
H33 C33 1_555 1_555
C34 P1 1_555 1_555
C4 C9 1_555 1_555
C8 C9 1_555 1_555
C11 C16 1_555 1_555
C15 C16 1_555 1_555
C17 C22 1_555 1_555
C21 C22 1_555 1_555
C23 C28 1_555 1_555
C27 C28 1_555 1_555
C29 C34 1_555 1_555
C33 C34 1_555 1_555

#END
