
#######################################################################
#
#                 Cambridge Crystallographic Data Centre
#                                CCDC 
#
#######################################################################
#
# If this CIF has been generated from an entry in the Cambridge 
# Structural Database, then it will include bibliographic, chemical, 
# crystal, experimental, refinement or atomic coordinate data resulting 
# from the CCDC's data processing and validation procedures.
#
#######################################################################

data_DELKAJ
_chemical_formula_moiety         'C40 H37 N2 P1 Si1,C4 H10 O1'
_chemical_name_systematic        
'2-[(diphenylsilyl)(triphenyl-\l^5^-phosphanylidene)methyl]-1,3-dimethyl-2,3-dihydro-1H-benzimidazole diethyl ether unknown solvate'
_symmetry_cell_setting           triclinic
_symmetry_space_group_name_H-M   'P -1'
_symmetry_Int_Tables_number      2
_space_group_name_Hall           '-P 1'
loop_
_symmetry_equiv_pos_site_id
_symmetry_equiv_pos_as_xyz
1 x,y,z
2 -x,-y,-z
_cell_length_a                   10.8343(4)
_cell_length_b                   14.3175(5)
_cell_length_c                   14.4404(5)
_cell_angle_alpha                70.698(2)
_cell_angle_beta                 69.514(2)
_cell_angle_gamma                86.956(2)
_cell_volume                     1975.42
_exptl_crystal_colour            brown
_exptl_crystal_description       prism
_cell_formula_units_Z            2
loop_
_atom_site_label
_atom_site_type_symbol
_atom_site_fract_x
_atom_site_fract_y
_atom_site_fract_z
P1 P 0.41139(3) 0.71311(2) 0.61168(2)
Si1 Si 0.69203(3) 0.66005(2) 0.58259(3)
H1 H 0.6733 0.6490 0.5238
N1 N 0.52977(10) 0.67140(8) 0.83848(8)
N2 N 0.64996(10) 0.81134(7) 0.71583(8)
C1 C 0.53223(11) 0.74788(9) 0.73840(9)
H2 H 0.4520 0.7864 0.7524
C2 C 0.40850(14) 0.60885(10) 0.89849(10)
H3 H 0.3359 0.6495 0.9209
H4 H 0.4184 0.5586 0.9603
H5 H 0.3890 0.5760 0.8549
C3 C 0.58440(12) 0.71801(9) 0.88772(10)
C4 C 0.57925(14) 0.69111(11) 0.99006(11)
H6 H 0.5272 0.6338 1.0423
C5 C 0.65304(15) 0.75079(11) 1.01476(11)
H7 H 0.6517 0.7331 1.0846
C6 C 0.72751(14) 0.83466(11) 0.93937(11)
H8 H 0.7770 0.8737 0.9580
C7 C 0.73126(13) 0.86319(10) 0.83565(11)
H9 H 0.7813 0.9215 0.7839
C8 C 0.65986(12) 0.80377(9) 0.81116(10)
C9 C 0.66963(14) 0.90799(9) 0.63630(11)
H10 H 0.6519 0.9022 0.5763
H11 H 0.7611 0.9343 0.6134
H12 H 0.6093 0.9530 0.6653
C10 C 0.54257(11) 0.71074(9) 0.65100(9)
C11 C 0.71232(14) 0.49431(10) 0.76133(11)
H13 H 0.6622 0.5290 0.8063
C12 C 0.75548(14) 0.40218(10) 0.80421(11)
H14 H 0.7350 0.3750 0.8779
C13 C 0.82793(12) 0.34982(9) 0.74035(11)
H15 H 0.8565 0.2867 0.7700
C14 C 0.85829(13) 0.39004(10) 0.63335(11)
H16 H 0.9082 0.3548 0.5888
C15 C 0.81562(13) 0.48218(10) 0.59110(10)
H17 H 0.8375 0.5093 0.5173
C16 C 0.74134(12) 0.53631(9) 0.65386(10)
C17 C 0.92283(13) 0.76292(10) 0.57137(11)
H18 H 0.8929 0.7340 0.6456
C18 C 1.03992(13) 0.82254(11) 0.51925(12)
H19 H 1.0882 0.8352 0.5580
C19 C 1.08662(13) 0.86368(10) 0.41089(12)
H20 H 1.1675 0.9036 0.3754
C20 C 1.01527(13) 0.84655(9) 0.35455(11)
H21 H 1.0468 0.8746 0.2802
C21 C 0.89667(12) 0.78783(9) 0.40756(10)
H22 H 0.8477 0.7769 0.3684
C22 C 0.84793(12) 0.74470(9) 0.51654(10)
C23 C 0.54986(12) 0.84353(9) 0.41359(10)
H23 H 0.5922 0.8679 0.4494
C24 C 0.58210(13) 0.88814(10) 0.30627(10)
H24 H 0.6456 0.9432 0.2691
C25 C 0.52186(13) 0.85257(11) 0.25328(10)
H25 H 0.5436 0.8833 0.1798
C26 C 0.42987(14) 0.77207(11) 0.30755(11)
H26 H 0.3893 0.7471 0.2710
C27 C 0.39655(13) 0.72762(10) 0.41531(10)
H27 H 0.3329 0.6726 0.4522
C28 C 0.45590(11) 0.76324(9) 0.46947(9)
C29 C 0.29481(12) 0.89260(9) 0.60934(10)
H28 H 0.3650 0.9213 0.5446
C30 C 0.19986(13) 0.95171(9) 0.64967(11)
H29 H 0.2054 1.0208 0.6125
C31 C 0.09737(13) 0.91057(10) 0.74364(11)
H30 H 0.0321 0.9512 0.7706
C32 C 0.08982(13) 0.80988(10) 0.79855(11)
H31 H 0.0195 0.7816 0.8633
C33 C 0.18491(12) 0.75053(9) 0.75899(10)
H32 H 0.1800 0.6818 0.7973
C34 C 0.28736(11) 0.79112(9) 0.66363(10)
C35 C 0.18871(12) 0.59369(9) 0.65006(10)
H33 H 0.1490 0.6541 0.6292
C36 C 0.11832(13) 0.50391(10) 0.68055(11)
H34 H 0.0301 0.5028 0.6819
C37 C 0.17698(14) 0.41595(10) 0.70902(11)
H35 H 0.1288 0.3544 0.7300
C38 C 0.30540(14) 0.41711(10) 0.70713(11)
H36 H 0.3458 0.3565 0.7252
C39 C 0.37566(13) 0.50691(9) 0.67884(10)
H37 H 0.4631 0.5075 0.6793
C40 C 0.31770(12) 0.59600(9) 0.64981(9)
O1 O 1.12951(10) 0.88714(7) 0.06652(8)
C41 C 0.89547(16) 0.87129(14) 0.12165(12)
H38 H 0.8895 0.9434 0.0993
H39 H 0.8915 0.8470 0.1946
H40 H 0.8217 0.8395 0.1160
C42 C 1.02346(16) 0.84679(14) 0.05293(13)
H41 H 1.0270 0.7739 0.0716
H42 H 1.0303 0.8746 -0.0214
C43 C 1.25459(15) 0.87092(12) -0.00095(12)
H43 H 1.2648 0.9071 -0.0750
H44 H 1.2604 0.7993 0.0085
C44 C 1.36176(16) 0.90669(14) 0.02443(15)
H45 H 1.4479 0.8971 -0.0230
H46 H 1.3529 0.8691 0.0970
H47 H 1.3548 0.9773 0.0159
loop_
_geom_bond_atom_site_label_1
_geom_bond_atom_site_label_2
_geom_bond_site_symmetry_1
_geom_bond_site_symmetry_2
P1 C10 1_555 1_555
Si1 H1 1_555 1_555
N1 C1 1_555 1_555
N2 C1 1_555 1_555
C1 H2 1_555 1_555
C2 N1 1_555 1_555
H3 C2 1_555 1_555
H4 C2 1_555 1_555
H5 C2 1_555 1_555
C3 N1 1_555 1_555
C4 C3 1_555 1_555
H6 C4 1_555 1_555
C5 C4 1_555 1_555
H7 C5 1_555 1_555
C6 C5 1_555 1_555
H8 C6 1_555 1_555
C7 C6 1_555 1_555
H9 C7 1_555 1_555
C8 N2 1_555 1_555
C9 N2 1_555 1_555
H10 C9 1_555 1_555
H11 C9 1_555 1_555
H12 C9 1_555 1_555
C10 Si1 1_555 1_555
C11 H13 1_555 1_555
C12 C11 1_555 1_555
H14 C12 1_555 1_555
C13 C12 1_555 1_555
H15 C13 1_555 1_555
C14 C13 1_555 1_555
H16 C14 1_555 1_555
C15 C14 1_555 1_555
H17 C15 1_555 1_555
C16 Si1 1_555 1_555
C17 H18 1_555 1_555
C18 C17 1_555 1_555
H19 C18 1_555 1_555
C19 C18 1_555 1_555
H20 C19 1_555 1_555
C20 C19 1_555 1_555
H21 C20 1_555 1_555
C21 C20 1_555 1_555
H22 C21 1_555 1_555
C22 Si1 1_555 1_555
C23 H23 1_555 1_555
C24 C23 1_555 1_555
H24 C24 1_555 1_555
C25 C24 1_555 1_555
H25 C25 1_555 1_555
C26 C25 1_555 1_555
H26 C26 1_555 1_555
C27 C26 1_555 1_555
H27 C27 1_555 1_555
C28 P1 1_555 1_555
C29 H28 1_555 1_555
C30 C29 1_555 1_555
H29 C30 1_555 1_555
C31 C30 1_555 1_555
H30 C31 1_555 1_555
C32 C31 1_555 1_555
H31 C32 1_555 1_555
C33 C32 1_555 1_555
H32 C33 1_555 1_555
C34 P1 1_555 1_555
C35 H33 1_555 1_555
C36 C35 1_555 1_555
H34 C36 1_555 1_555
C37 C36 1_555 1_555
H35 C37 1_555 1_555
C38 C37 1_555 1_555
H36 C38 1_555 1_555
C39 C38 1_555 1_555
H37 C39 1_555 1_555
C40 P1 1_555 1_555
O1 C42 1_555 1_555
C41 H38 1_555 1_555
H39 C41 1_555 1_555
H40 C41 1_555 1_555
C42 C41 1_555 1_555
H41 C42 1_555 1_555
H42 C42 1_555 1_555
C43 O1 1_555 1_555
H43 C43 1_555 1_555
H44 C43 1_555 1_555
C44 C43 1_555 1_555
H45 C44 1_555 1_555
H46 C44 1_555 1_555
H47 C44 1_555 1_555
C1 C10 1_555 1_555
C3 C8 1_555 1_555
C7 C8 1_555 1_555
C11 C16 1_555 1_555
C15 C16 1_555 1_555
C17 C22 1_555 1_555
C21 C22 1_555 1_555
C23 C28 1_555 1_555
C27 C28 1_555 1_555
C29 C34 1_555 1_555
C33 C34 1_555 1_555
C35 C40 1_555 1_555
C39 C40 1_555 1_555

#END
