
#######################################################################
#
#                 Cambridge Crystallographic Data Centre
#                                CCDC 
#
#######################################################################
#
# If this CIF has been generated from an entry in the Cambridge 
# Structural Database, then it will include bibliographic, chemical, 
# crystal, experimental, refinement or atomic coordinate data resulting 
# from the CCDC's data processing and validation procedures.
#
#######################################################################

data_DELLEO
_chemical_formula_moiety         'C44 H39 N4 O4 P1'
_chemical_name_systematic        
1',3'-bis(4-methoxyphenyl)-1,3-dimethyl-5'-(triphenyl-\l^5^-phosphanylidene)-1,3-dihydro-1'H-spiro[benzimidazole-2,4'-pyrimidine]-2',6'(3'H,5'H)-dione
_symmetry_cell_setting           monoclinic
_symmetry_space_group_name_H-M   'P 21/c'
_symmetry_Int_Tables_number      14
_space_group_name_Hall           '-P 2ybc'
loop_
_symmetry_equiv_pos_site_id
_symmetry_equiv_pos_as_xyz
1 x,y,z
2 -x,1/2+y,1/2-z
3 -x,-y,-z
4 x,1/2-y,1/2+z
_cell_length_a                   23.1778(7)
_cell_length_b                   9.2269(3)
_cell_length_c                   33.4094(11)
_cell_angle_alpha                90
_cell_angle_beta                 96.742(2)
_cell_angle_gamma                90
_cell_volume                     7095.5
_exptl_crystal_colour            colorless
_exptl_crystal_description       prism
_cell_formula_units_Z            8
_exptl_crystal_recrystallization_method 
'Dissolved in CH2Cl2, then added diethyl ether and recrystallized at -15 deg.C.'
loop_
_atom_site_label
_atom_site_type_symbol
_atom_site_fract_x
_atom_site_fract_y
_atom_site_fract_z
P1 P 0.60584(2) 0.16547(6) 0.33885(2)
O1 O 0.48469(6) 0.12475(15) 0.31825(4)
O2 O 0.44089(6) -0.14235(15) 0.42464(4)
O3 O 0.24106(6) -0.00235(18) 0.28753(5)
O4 O 0.58875(7) -0.39405(16) 0.56552(4)
N1 N 0.46252(7) 0.00086(19) 0.37324(5)
N2 N 0.53545(7) -0.07559(18) 0.42366(5)
N3 N 0.63164(7) -0.10003(18) 0.40174(5)
N4 N 0.61489(7) 0.09755(18) 0.43719(5)
C1 C 0.50302(8) 0.0710(2) 0.35145(6)
C2 C 0.56119(8) 0.0752(2) 0.36881(6)
C3 C 0.58485(8) 0.0013(2) 0.40685(6)
C4 C 0.47782(8) -0.0768(2) 0.40842(6)
C5 C 0.38424(9) -0.1175(2) 0.32939(6)
H1 H 0.4090 -0.1984 0.3270
C6 C 0.32986(9) -0.1145(2) 0.30792(6)
H2 H 0.3171 -0.1930 0.2907
C7 C 0.29378(9) 0.0033(2) 0.31148(6)
C8 C 0.31117(9) 0.1164(2) 0.33722(6)
H3 H 0.2857 0.1952 0.3404
C9 C 0.36676(9) 0.1130(2) 0.35854(6)
H4 H 0.3795 0.1910 0.3759
C10 C 0.40322(8) -0.0030(2) 0.35448(6)
C11 C 0.20512(10) 0.1230(3) 0.28652(8)
H5 H 0.1715 0.1102 0.2661
H6 H 0.2274 0.2080 0.2798
H7 H 0.1917 0.1370 0.3130
C12 C 0.56164(8) -0.0931(2) 0.49699(6)
H8 H 0.5597 0.0095 0.4988
C13 C 0.57536(9) -0.1740(2) 0.53147(6)
H9 H 0.5837 -0.1270 0.5568
C14 C 0.57696(8) -0.3245(2) 0.52925(6)
C15 C 0.56652(9) -0.3926(2) 0.49238(6)
H10 H 0.5682 -0.4953 0.4907
C16 C 0.55345(8) -0.3096(2) 0.45767(6)
H11 H 0.5464 -0.3562 0.4322
C17 C 0.55060(8) -0.1600(2) 0.45978(6)
C18 C 0.59269(10) -0.5483(2) 0.56448(7)
H12 H 0.5568 -0.5882 0.5502
H13 H 0.5982 -0.5861 0.5921
H14 H 0.6257 -0.5766 0.5504
C19 C 0.62340(9) -0.2249(2) 0.37613(6)
H15 H 0.6568 -0.2358 0.3609
H16 H 0.5879 -0.2128 0.3573
H17 H 0.6198 -0.3115 0.3926
C20 C 0.67762(8) -0.0849(2) 0.43175(6)
C21 C 0.72724(9) -0.1662(2) 0.44052(6)
H18 H 0.7334 -0.2522 0.4260
C22 C 0.76855(9) -0.1172(3) 0.47184(7)
H19 H 0.8033 -0.1710 0.4787
C23 C 0.75922(9) 0.0075(3) 0.49263(6)
H20 H 0.7880 0.0391 0.5134
C24 C 0.70824(9) 0.0896(2) 0.48404(6)
H21 H 0.7019 0.1751 0.4987
C25 C 0.66776(8) 0.0413(2) 0.45344(6)
C26 C 0.58857(9) 0.2257(2) 0.45164(6)
H22 H 0.6081 0.3118 0.4426
H23 H 0.5924 0.2241 0.4812
H24 H 0.5473 0.2284 0.4410
C27 C 0.72204(9) 0.1108(2) 0.36696(6)
H25 H 0.7157 0.0171 0.3554
C28 C 0.77664(9) 0.1485(2) 0.38569(6)
H26 H 0.8076 0.0806 0.3868
C29 C 0.78624(9) 0.2843(2) 0.40269(6)
H27 H 0.8238 0.3098 0.4152
C30 C 0.74091(9) 0.3831(2) 0.40139(6)
H28 H 0.7473 0.4759 0.4134
C31 C 0.68623(9) 0.3466(2) 0.38251(6)
H29 H 0.6554 0.4149 0.3815
C32 C 0.67635(8) 0.2103(2) 0.36503(6)
C33 C 0.66898(9) 0.0973(3) 0.27471(6)
H30 H 0.6956 0.1698 0.2853
C34 C 0.67844(10) 0.0239(3) 0.23991(7)
H31 H 0.7117 0.0450 0.2269
C35 C 0.63922(10) -0.0803(3) 0.22420(7)
H32 H 0.6455 -0.1297 0.2001
C36 C 0.59112(10) -0.1130(2) 0.24321(6)
H33 H 0.5643 -0.1846 0.2323
C37 C 0.58206(9) -0.0404(2) 0.27844(6)
H34 H 0.5492 -0.0636 0.2917
C38 C 0.62057(9) 0.0654(2) 0.29433(6)
C39 C 0.57808(9) 0.3891(2) 0.28346(6)
H35 H 0.6001 0.3370 0.2660
C40 C 0.55162(10) 0.5187(2) 0.27082(7)
H36 H 0.5555 0.5551 0.2447
C41 C 0.51980(9) 0.5946(2) 0.29614(7)
H37 H 0.5018 0.6835 0.2874
C42 C 0.51378(9) 0.5423(2) 0.33433(7)
H38 H 0.4918 0.5952 0.3517
C43 C 0.54005(9) 0.4125(2) 0.34720(6)
H39 H 0.5359 0.3763 0.3733
C44 C 0.57247(8) 0.3350(2) 0.32173(6)
P2 P 1.10200(2) 0.70053(6) 0.33404(2)
O5 O 0.98498(6) 0.64246(17) 0.31252(4)
O6 O 0.94192(6) 0.37614(16) 0.41956(4)
O7 O 0.73487(6) 0.68905(18) 0.32182(5)
O8 O 1.08152(7) 0.09080(16) 0.55415(4)
N5 N 0.96304(7) 0.51296(19) 0.36671(5)
N6 N 1.03706(7) 0.42760(18) 0.41490(5)
N7 N 1.13375(7) 0.41444(18) 0.39423(5)
N8 N 1.11446(7) 0.60452(18) 0.43155(5)
C45 C 1.00338(9) 0.5841(2) 0.34518(6)
C46 C 1.06170(8) 0.5898(2) 0.36223(6)
C47 C 1.08608(8) 0.5119(2) 0.39979(6)
C48 C 0.97869(8) 0.4358(2) 0.40187(6)
C49 C 0.88171(9) 0.6767(2) 0.37010(6)
H40 H 0.9065 0.7361 0.3878
C50 C 0.82521(9) 0.7176(2) 0.35893(6)
H41 H 0.8105 0.8033 0.3698
C51 C 0.78975(9) 0.6340(2) 0.33192(6)
C52 C 0.80998(9) 0.5067(2) 0.31696(7)
H42 H 0.7854 0.4491 0.2986
C53 C 0.86728(9) 0.4636(2) 0.32928(7)
H43 H 0.8816 0.3756 0.3195
C54 C 0.90276(8) 0.5480(2) 0.35544(6)
C55 C 0.69514(10) 0.6047(3) 0.29606(7)
H44 H 0.7099 0.5926 0.2699
H45 H 0.6574 0.6537 0.2922
H46 H 0.6907 0.5093 0.3083
C56 C 1.05776(9) 0.4012(2) 0.48838(6)
H47 H 1.0540 0.5031 0.4911
C57 C 1.06877(10) 0.3163(2) 0.52229(6)
H48 H 1.0732 0.3601 0.5482
C58 C 1.07347(8) 0.1667(2) 0.51874(6)
C59 C 1.06948(9) 0.1049(2) 0.48091(6)
H49 H 1.0739 0.0032 0.4780
C60 C 1.05886(10) 0.1927(2) 0.44697(6)
H50 H 1.0562 0.1501 0.4209
C61 C 1.05210(8) 0.3403(2) 0.45043(6)
C62 C 1.08887(9) -0.0622(2) 0.55141(7)
H51 H 1.0550 -0.1042 0.5352
H52 H 1.0927 -0.1045 0.5785
H53 H 1.1240 -0.0830 0.5387
C63 C 1.12843(10) 0.2983(3) 0.36564(7)
H54 H 1.1565 0.3120 0.3462
H55 H 1.0890 0.2974 0.3514
H56 H 1.1361 0.2060 0.3798
C64 C 1.17909(8) 0.4277(2) 0.42488(6)
C65 C 1.22925(9) 0.3481(3) 0.43340(7)
H57 H 1.2370 0.2664 0.4176
C66 C 1.26845(9) 0.3922(3) 0.46628(7)
H58 H 1.3034 0.3393 0.4730
C67 C 1.25708(9) 0.5105(3) 0.48894(7)
H59 H 1.2845 0.5382 0.5110
C68 C 1.20582(9) 0.5916(3) 0.48031(6)
H60 H 1.1981 0.6734 0.4961
C69 C 1.16735(8) 0.5478(2) 0.44809(6)
C70 C 1.08666(9) 0.7266(2) 0.44757(6)
H61 H 1.0911 0.7207 0.4771
H62 H 1.0453 0.7263 0.4374
H63 H 1.1046 0.8162 0.4393
C71 C 1.21747(9) 0.6413(2) 0.35974(6)
H64 H 1.2107 0.5531 0.3452
C72 C 1.27203(9) 0.6697(3) 0.38017(7)
H65 H 1.3023 0.6004 0.3798
C73 C 1.28248(9) 0.7982(3) 0.40095(6)
H66 H 1.3199 0.8179 0.4148
C74 C 1.23809(9) 0.8981(2) 0.40149(6)
H67 H 1.2452 0.9867 0.4157
C75 C 1.18330(9) 0.8705(2) 0.38145(6)
H68 H 1.1531 0.9397 0.3821
C76 C 1.17268(9) 0.7413(2) 0.36045(6)
C77 C 1.03103(9) 0.9292(2) 0.35167(7)
H69 H 1.0282 0.8780 0.3760
C78 C 1.00139(9) 1.0595(3) 0.34453(7)
H70 H 0.9784 1.0967 0.3639
C79 C 1.00534(10) 1.1349(3) 0.30920(7)
H71 H 0.9854 1.2243 0.3044
C80 C 1.03816(10) 1.0802(3) 0.28116(7)
H72 H 1.0408 1.1320 0.2569
C81 C 1.06789(10) 0.9489(3) 0.28798(7)
H73 H 1.0902 0.9116 0.2682
C82 C 1.06480(9) 0.8731(2) 0.32353(6)
C83 C 1.15905(9) 0.6858(3) 0.26500(7)
H74 H 1.1787 0.7713 0.2748
C84 C 1.17121(10) 0.6236(3) 0.22921(7)
H75 H 1.1986 0.6680 0.2140
C85 C 1.14363(10) 0.4968(3) 0.21544(7)
H76 H 1.1528 0.4538 0.1911
C86 C 1.10272(10) 0.4322(3) 0.23689(7)
H77 H 1.0840 0.3452 0.2273
C87 C 1.08922(9) 0.4951(2) 0.27249(6)
H78 H 1.0608 0.4520 0.2870
C88 C 1.11751(9) 0.6217(2) 0.28673(6)
loop_
_geom_bond_atom_site_label_1
_geom_bond_atom_site_label_2
_geom_bond_site_symmetry_1
_geom_bond_site_symmetry_2
P1 C2 1_555 1_555
O1 C1 1_555 1_555
O2 C4 1_555 1_555
O3 C7 1_555 1_555
O4 C14 1_555 1_555
N1 C1 1_555 1_555
N2 C3 1_555 1_555
N3 C3 1_555 1_555
N4 C3 1_555 1_555
C1 C2 1_555 1_555
C2 C3 1_555 1_555
C4 N1 1_555 1_555
C5 H1 1_555 1_555
C6 C5 1_555 1_555
H2 C6 1_555 1_555
C7 C6 1_555 1_555
C8 C7 1_555 1_555
H3 C8 1_555 1_555
C9 C8 1_555 1_555
H4 C9 1_555 1_555
C10 N1 1_555 1_555
C11 O3 1_555 1_555
H5 C11 1_555 1_555
H6 C11 1_555 1_555
H7 C11 1_555 1_555
C12 H8 1_555 1_555
C13 C12 1_555 1_555
H9 C13 1_555 1_555
C14 C13 1_555 1_555
C15 C14 1_555 1_555
H10 C15 1_555 1_555
C16 C15 1_555 1_555
H11 C16 1_555 1_555
C17 N2 1_555 1_555
C18 O4 1_555 1_555
H12 C18 1_555 1_555
H13 C18 1_555 1_555
H14 C18 1_555 1_555
C19 N3 1_555 1_555
H15 C19 1_555 1_555
H16 C19 1_555 1_555
H17 C19 1_555 1_555
C20 N3 1_555 1_555
C21 C20 1_555 1_555
H18 C21 1_555 1_555
C22 C21 1_555 1_555
H19 C22 1_555 1_555
C23 C22 1_555 1_555
H20 C23 1_555 1_555
C24 C23 1_555 1_555
H21 C24 1_555 1_555
C25 N4 1_555 1_555
C26 N4 1_555 1_555
H22 C26 1_555 1_555
H23 C26 1_555 1_555
H24 C26 1_555 1_555
C27 H25 1_555 1_555
C28 C27 1_555 1_555
H26 C28 1_555 1_555
C29 C28 1_555 1_555
H27 C29 1_555 1_555
C30 C29 1_555 1_555
H28 C30 1_555 1_555
C31 C30 1_555 1_555
H29 C31 1_555 1_555
C32 P1 1_555 1_555
C33 H30 1_555 1_555
C34 C33 1_555 1_555
H31 C34 1_555 1_555
C35 C34 1_555 1_555
H32 C35 1_555 1_555
C36 C35 1_555 1_555
H33 C36 1_555 1_555
C37 C36 1_555 1_555
H34 C37 1_555 1_555
C38 P1 1_555 1_555
C39 H35 1_555 1_555
C40 C39 1_555 1_555
H36 C40 1_555 1_555
C41 C40 1_555 1_555
H37 C41 1_555 1_555
C42 C41 1_555 1_555
H38 C42 1_555 1_555
C43 C42 1_555 1_555
H39 C43 1_555 1_555
C44 P1 1_555 1_555
P2 C46 1_555 1_555
O5 C45 1_555 1_555
O6 C48 1_555 1_555
O7 C51 1_555 1_555
O8 C58 1_555 1_555
N5 C45 1_555 1_555
N6 C47 1_555 1_555
N7 C47 1_555 1_555
N8 C47 1_555 1_555
C45 C46 1_555 1_555
C46 C47 1_555 1_555
C48 N5 1_555 1_555
C49 H40 1_555 1_555
C50 C49 1_555 1_555
H41 C50 1_555 1_555
C51 C50 1_555 1_555
C52 C51 1_555 1_555
H42 C52 1_555 1_555
C53 C52 1_555 1_555
H43 C53 1_555 1_555
C54 N5 1_555 1_555
C55 O7 1_555 1_555
H44 C55 1_555 1_555
H45 C55 1_555 1_555
H46 C55 1_555 1_555
C56 H47 1_555 1_555
C57 C56 1_555 1_555
H48 C57 1_555 1_555
C58 C57 1_555 1_555
C59 C58 1_555 1_555
H49 C59 1_555 1_555
C60 C59 1_555 1_555
H50 C60 1_555 1_555
C61 N6 1_555 1_555
C62 O8 1_555 1_555
H51 C62 1_555 1_555
H52 C62 1_555 1_555
H53 C62 1_555 1_555
C63 N7 1_555 1_555
H54 C63 1_555 1_555
H55 C63 1_555 1_555
H56 C63 1_555 1_555
C64 N7 1_555 1_555
C65 C64 1_555 1_555
H57 C65 1_555 1_555
C66 C65 1_555 1_555
H58 C66 1_555 1_555
C67 C66 1_555 1_555
H59 C67 1_555 1_555
C68 C67 1_555 1_555
H60 C68 1_555 1_555
C69 N8 1_555 1_555
C70 N8 1_555 1_555
H61 C70 1_555 1_555
H62 C70 1_555 1_555
H63 C70 1_555 1_555
C71 H64 1_555 1_555
C72 C71 1_555 1_555
H65 C72 1_555 1_555
C73 C72 1_555 1_555
H66 C73 1_555 1_555
C74 C73 1_555 1_555
H67 C74 1_555 1_555
C75 C74 1_555 1_555
H68 C75 1_555 1_555
C76 P2 1_555 1_555
C77 H69 1_555 1_555
C78 C77 1_555 1_555
H70 C78 1_555 1_555
C79 C78 1_555 1_555
H71 C79 1_555 1_555
C80 C79 1_555 1_555
H72 C80 1_555 1_555
C81 C80 1_555 1_555
H73 C81 1_555 1_555
C82 P2 1_555 1_555
C83 H74 1_555 1_555
C84 C83 1_555 1_555
H75 C84 1_555 1_555
C85 C84 1_555 1_555
H76 C85 1_555 1_555
C86 C85 1_555 1_555
H77 C86 1_555 1_555
C87 C86 1_555 1_555
H78 C87 1_555 1_555
C88 P2 1_555 1_555
N2 C4 1_555 1_555
C5 C10 1_555 1_555
C9 C10 1_555 1_555
C12 C17 1_555 1_555
C16 C17 1_555 1_555
C20 C25 1_555 1_555
C24 C25 1_555 1_555
C27 C32 1_555 1_555
C31 C32 1_555 1_555
C33 C38 1_555 1_555
C37 C38 1_555 1_555
C39 C44 1_555 1_555
C43 C44 1_555 1_555
N6 C48 1_555 1_555
C49 C54 1_555 1_555
C53 C54 1_555 1_555
C56 C61 1_555 1_555
C60 C61 1_555 1_555
C64 C69 1_555 1_555
C68 C69 1_555 1_555
C71 C76 1_555 1_555
C75 C76 1_555 1_555
C77 C82 1_555 1_555
C81 C82 1_555 1_555
C83 C88 1_555 1_555
C87 C88 1_555 1_555

#END
