
#######################################################################
#
#                 Cambridge Crystallographic Data Centre
#                                CCDC 
#
#######################################################################
#
# If this CIF has been generated from an entry in the Cambridge 
# Structural Database, then it will include bibliographic, chemical, 
# crystal, experimental, refinement or atomic coordinate data resulting 
# from the CCDC's data processing and validation procedures.
#
#######################################################################

data_DELNOY
_chemical_formula_moiety         'C27 H24 Cl1 N3 O6'
_chemical_name_systematic        
'Methyl 4-(2-chloro-4-(2-(4,6-dimethoxypyrimidin-2-yloxy)benzylamino)phenoxy)benzoate'
_chemical_properties_biological  herbicide
_symmetry_cell_setting           triclinic
_symmetry_space_group_name_H-M   'P -1'
_symmetry_Int_Tables_number      2
_space_group_name_Hall           '-P 1'
loop_
_symmetry_equiv_pos_site_id
_symmetry_equiv_pos_as_xyz
1 x,y,z
2 -x,-y,-z
_cell_length_a                   10.763(4)
_cell_length_b                   11.066(6)
_cell_length_c                   12.051(4)
_cell_angle_alpha                98.02(3)
_cell_angle_beta                 116.33(3)
_cell_angle_gamma                94.746(19)
_cell_volume                     1256.8
_exptl_crystal_colour            colorless
_exptl_crystal_description       block
_chemical_melting_point          '387.2-388.0 K'
_cell_formula_units_Z            2
_exptl_crystal_recrystallization_method ethanol
loop_
_atom_site_label
_atom_site_type_symbol
_atom_site_fract_x
_atom_site_fract_y
_atom_site_fract_z
C1 C 0.87879(16) 0.98627(15) 0.08243(14)
C2 C 0.93510(17) 0.87770(16) 0.09020(16)
H1 H 0.8775 0.8041 0.0392
C3 C 1.07312(19) 0.87523(19) 0.17073(18)
H2 H 1.1081 0.8011 0.1729
C4 C 1.15886(19) 0.9823(2) 0.24777(18)
H3 H 1.2519 0.9810 0.3041
C5 C 1.1065(2) 1.0919(2) 0.24139(18)
H4 H 1.1644 1.1653 0.2928
C6 C 0.96858(18) 1.09251(16) 0.15876(16)
C7 C 0.72800(17) 0.98752(17) -0.01013(16)
H5 H 0.6953 1.0557 0.0234
H6 H 0.7249 1.0031 -0.0885
C8 C 0.58037(15) 0.84621(16) 0.04219(14)
C9 C 0.61340(16) 0.92419(16) 0.15554(15)
H7 H 0.6770 0.9971 0.1821
C10 C 0.55126(16) 0.89300(17) 0.22900(15)
C11 C 0.45984(16) 0.78475(17) 0.19410(16)
C12 C 0.42907(18) 0.70660(19) 0.08301(17)
H8 H 0.3679 0.6324 0.0584
C13 C 0.48768(17) 0.73678(18) 0.00772(16)
H9 H 0.4648 0.6830 -0.0675
C14 C 0.46471(16) 0.71844(16) 0.37519(16)
C15 C 0.40647(17) 0.72369(18) 0.45675(18)
H10 H 0.3210 0.7515 0.4348
C16 C 0.47483(17) 0.68778(18) 0.57013(17)
H11 H 0.4356 0.6922 0.6252
C17 C 0.60091(17) 0.64512(15) 0.60391(16)
C18 C 0.65664(17) 0.63829(17) 0.51941(16)
H12 H 0.7409 0.6084 0.5402
C19 C 0.58984(18) 0.67471(17) 0.40602(17)
H13 H 0.6285 0.6700 0.3505
C20 C 0.67387(19) 0.61081(17) 0.72866(17)
C21 C 0.8692(3) 0.5286(3) 0.8627(2)
H14 H 0.8909 0.5973 0.9300
H15 H 0.9549 0.5056 0.8666
H16 H 0.8158 0.4599 0.8712
C22 C 0.89913(17) 1.27048(17) 0.23502(18)
C23 C 0.83710(18) 1.44241(18) 0.3008(2)
C24 C 0.8481(2) 1.4001(2) 0.4053(3)
H17 H 0.8273 1.4451 0.4643
C25 C 0.8913(2) 1.2884(2) 0.4187(2)
C26 C 0.7998(3) 1.6049(3) 0.1866(3)
H18 H 0.8911 1.6080 0.1905
H19 H 0.7775 1.6870 0.1928
H20 H 0.7310 1.5543 0.1079
C27 C 0.9717(3) 1.1364(3) 0.5408(3)
H21 H 0.9146 1.0705 0.4702
H22 H 0.9778 1.1135 0.6169
H23 H 1.0641 1.1514 0.5476
N1 N 0.63285(14) 0.87581(15) -0.03773(13)
H24 H 0.6114 0.8150 -0.1067
N2 N 0.86317(15) 1.37949(14) 0.21278(16)
N3 N 0.91562(15) 1.21978(14) 0.33237(16)
O1 O 0.39010(11) 0.75721(13) 0.26375(12)
O2 O 0.78841(14) 0.56315(14) 0.74323(12)
O3 O 0.63775(17) 0.62523(16) 0.80939(14)
O4 O 0.91852(15) 1.20546(12) 0.14222(12)
O5 O 0.79957(16) 1.55387(14) 0.28751(19)
O6 O 0.9099(2) 1.24607(17) 0.52271(17)
Cl1 Cl 0.58494(6) 0.99567(6) 0.36445(5)
loop_
_geom_bond_atom_site_label_1
_geom_bond_atom_site_label_2
_geom_bond_site_symmetry_1
_geom_bond_site_symmetry_2
C1 C2 1_555 1_555
C2 H1 1_555 1_555
C3 C2 1_555 1_555
H2 C3 1_555 1_555
C4 C3 1_555 1_555
H3 C4 1_555 1_555
C5 C4 1_555 1_555
H4 C5 1_555 1_555
C6 C1 1_555 1_555
C7 C1 1_555 1_555
H5 C7 1_555 1_555
H6 C7 1_555 1_555
C8 C9 1_555 1_555
C9 H7 1_555 1_555
C10 C9 1_555 1_555
C11 C10 1_555 1_555
C12 C11 1_555 1_555
H8 C12 1_555 1_555
C13 C8 1_555 1_555
H9 C13 1_555 1_555
C14 C15 1_555 1_555
C15 H10 1_555 1_555
C16 C15 1_555 1_555
H11 C16 1_555 1_555
C17 C16 1_555 1_555
C18 C17 1_555 1_555
H12 C18 1_555 1_555
C19 C14 1_555 1_555
H13 C19 1_555 1_555
C20 C17 1_555 1_555
C21 H14 1_555 1_555
H15 C21 1_555 1_555
H16 C21 1_555 1_555
C22 N2 1_555 1_555
C23 C24 1_555 1_555
C24 H17 1_555 1_555
C25 C24 1_555 1_555
C26 H18 1_555 1_555
H19 C26 1_555 1_555
H20 C26 1_555 1_555
C27 H21 1_555 1_555
H22 C27 1_555 1_555
H23 C27 1_555 1_555
N1 C7 1_555 1_555
H24 N1 1_555 1_555
N2 C23 1_555 1_555
N3 C22 1_555 1_555
O1 C11 1_555 1_555
O2 C20 1_555 1_555
O3 C20 1_555 1_555
O4 C6 1_555 1_555
O5 C23 1_555 1_555
O6 C25 1_555 1_555
Cl1 C10 1_555 1_555
C5 C6 1_555 1_555
C8 N1 1_555 1_555
C12 C13 1_555 1_555
C14 O1 1_555 1_555
C18 C19 1_555 1_555
C21 O2 1_555 1_555
C22 O4 1_555 1_555
C25 N3 1_555 1_555
C26 O5 1_555 1_555
C27 O6 1_555 1_555

#END
