
#######################################################################
#
#                 Cambridge Crystallographic Data Centre
#                                CCDC 
#
#######################################################################
#
# If this CIF has been generated from an entry in the Cambridge 
# Structural Database, then it will include bibliographic, chemical, 
# crystal, experimental, refinement or atomic coordinate data resulting 
# from the CCDC's data processing and validation procedures.
#
#######################################################################

data_DELRUH
_chemical_compound_source        'Dictyota dichotoma'
_chemical_formula_moiety         'C20 H32 O3,H2 O1'
_chemical_name_systematic        'Dictyoxetane monohydrate'
_symmetry_cell_setting           monoclinic
_symmetry_space_group_name_H-M   'P 21'
_symmetry_Int_Tables_number      4
_space_group_name_Hall           'P 2yb'
loop_
_symmetry_equiv_pos_site_id
_symmetry_equiv_pos_as_xyz
1 x,y,z
2 -x,1/2+y,-z
_cell_length_a                   7.842(2)
_cell_length_b                   16.320(4)
_cell_length_c                   8.242(1)
_cell_angle_alpha                90
_cell_angle_beta                 115.86(2)
_cell_angle_gamma                90
_cell_volume                     949.196
_exptl_crystal_colour            colorless
_chemical_melting_point          87-90deg.C
_cell_formula_units_Z            2
loop_
_atom_site_label
_atom_site_type_symbol
_atom_site_fract_x
_atom_site_fract_y
_atom_site_fract_z
C1 C 0.8604(16) 0.1206(7) -0.1313(14)
C2 C 0.7535(17) 0.1613(8) -0.3273(15)
C3 C 0.6801(16) 0.2433(8) -0.2880(14)
C4 C 0.5858(15) 0.3062(7) -0.4417(14)
C5 C 0.4604(18) 0.3591(9) -0.3747(17)
C6 C 0.4998(19) 0.3261(9) -0.1874(18)
C7 C 0.5566(17) 0.2387(8) -0.1880(16)
C8 C 0.6695(17) 0.1984(8) 0.0021(15)
C9 C 0.7462(16) 0.1159(7) -0.0299(14)
C10 C 0.8581(17) 0.0533(8) 0.1225(16)
C11 C 1.0446(18) 0.0943(9) 0.2752(15)
C12 C 1.2100(18) 0.0859(8) 0.2275(17)
C13 C 1.1534(17) 0.0962(8) 0.0215(17)
C14 C 0.9776(17) 0.0405(8) -0.0902(16)
C15 C 0.7244(18) 0.3614(8) -0.4785(16)
C16 C 0.6209(21) 0.4209(9) -0.6384(18)
C17 C 0.8763(19) 0.3179(9) -0.5098(17)
C18 C 0.3671(17) 0.1879(9) -0.2899(17)
C19 C 0.7382(20) 0.0137(9) 0.1976(17)
C20 C 0.9950(18) -0.0109(9) -0.2276(17)
O1 O 1.0367(10) 0.1715(5) -0.0410(10)
O2 O 0.4765(12) 0.2578(5) -0.6041(10)
O3 O 0.9178(10) -0.0045 0.0246(9)
H1 H 0.680(16) 0.117(8) -0.390(15)
H2 H 0.772(15) 0.278(7) -0.204(13)
H3 H 0.507(15) 0.420(7) -0.370(14)
H4 H 0.365(15) 0.354(8) -0.413(14)
H5 H 0.384(14) 0.332(7) -0.116(13)
H6 H 0.608(15) 0.361(8) -0.091(14)
H7 H 0.565(11) 0.194(5) 0.069(10)
H8 H 0.779(14) 0.237(6) 0.065(13)
H9 H 0.673(14) 0.091(7) -0.078(13)
H10 H 1.022(17) 0.060(7) 0.405(15)
H11 H 1.013(17) 0.142(8) 0.315(16)
H12 H 1.284(16) 0.018(7) 0.265(15)
H13 H 1.269(21) 0.136(9) 0.264(18)
H14 H 0.776(18) 0.405(8) -0.397(17)
H15 H 0.535(17) 0.452(8) -0.591(16)
H16 H 0.730(14) 0.464(7) -0.680(13)
H17 H 0.601(19) 0.399(8) -0.779(17)
H18 H 0.775(19) 0.293(9) -0.610(18)
H19 H 0.942(17) 0.276(8) -0.406(16)
H20 H 0.297(17) 0.224(8) -0.401(16)
H21 H 0.389(16) 0.129(7) -0.281(15)
H22 H 0.709(15) 0.052(7) 0.261(15)
H23 H 0.622(15) -0.030(8) 0.118(14)
H24 H 0.772(16) -0.032(8) 0.257(15)
H25 H 1.066(16) 0.021(7) -0.293(16)
H26 H 1.097(14) -0.067(6) -0.153(14)
H27 H 0.956(19) -0.051(9) -0.258(17)
H28 H 0.393(28) 0.299(13) -0.721(26)
O4 O 0.1901(15) 0.3267(7) 0.0814(13)
loop_
_geom_bond_atom_site_label_1
_geom_bond_atom_site_label_2
_geom_bond_site_symmetry_1
_geom_bond_site_symmetry_2
C1 C2 1_555 1_555
C2 C3 1_555 1_555
C3 C4 1_555 1_555
C4 C5 1_555 1_555
C5 C6 1_555 1_555
C6 C7 1_555 1_555
C7 C3 1_555 1_555
C8 C7 1_555 1_555
C9 C1 1_555 1_555
C10 C9 1_555 1_555
C11 C10 1_555 1_555
C12 C11 1_555 1_555
C13 C12 1_555 1_555
C14 C1 1_555 1_555
C15 C4 1_555 1_555
C16 C15 1_555 1_555
C17 C15 1_555 1_555
C18 C7 1_555 1_555
C19 C10 1_555 1_555
C20 C14 1_555 1_555
O1 C1 1_555 1_555
O2 C4 1_555 1_555
O3 C10 1_555 1_555
H1 C2 1_555 1_555
H2 C3 1_555 1_555
H3 C5 1_555 1_555
H4 C5 1_555 1_555
H5 C6 1_555 1_555
H6 C6 1_555 1_555
H7 C8 1_555 1_555
H8 C8 1_555 1_555
H9 C9 1_555 1_555
H10 C11 1_555 1_555
H11 C11 1_555 1_555
H12 C12 1_555 1_555
H13 C12 1_555 1_555
H14 C15 1_555 1_555
H15 C16 1_555 1_555
H16 C16 1_555 1_555
H17 C16 1_555 1_555
H18 C17 1_555 1_555
H19 C17 1_555 1_555
H20 C18 1_555 1_555
H21 C18 1_555 1_555
H22 C19 1_555 1_555
H23 C19 1_555 1_555
H24 C19 1_555 1_555
H25 C20 1_555 1_555
H26 C20 1_555 1_555
H27 C20 1_555 1_555
H28 O2 1_555 1_555
C8 C9 1_555 1_555
C13 C14 1_555 1_555
C13 O1 1_555 1_555
C14 O3 1_555 1_555

#END
