
#######################################################################
#
#                 Cambridge Crystallographic Data Centre
#                                CCDC 
#
#######################################################################
#
# If this CIF has been generated from an entry in the Cambridge 
# Structural Database, then it will include bibliographic, chemical, 
# crystal, experimental, refinement or atomic coordinate data resulting 
# from the CCDC's data processing and validation procedures.
#
#######################################################################

data_DELWOH
_chemical_formula_moiety         'C30 H23 O1 1+,B1 F4 1-'
_chemical_name_systematic        
'3-Benzyl-2,4,6-triphenylpyrylium tetrafluoroborate'
_symmetry_cell_setting           monoclinic
_symmetry_space_group_name_H-M   'P 21/c'
_symmetry_Int_Tables_number      14
_space_group_name_Hall           '-P 2ybc'
loop_
_symmetry_equiv_pos_site_id
_symmetry_equiv_pos_as_xyz
1 x,y,z
2 -x,1/2+y,1/2-z
3 -x,-y,-z
4 x,1/2-y,1/2+z
_cell_length_a                   10.6170(3)
_cell_length_b                   13.2065(3)
_cell_length_c                   17.1985(5)
_cell_angle_alpha                90
_cell_angle_beta                 102.7840(10)
_cell_angle_gamma                90
_cell_volume                     2351.68
_exptl_crystal_colour            'pale yellow'
_exptl_crystal_description       block
_cell_formula_units_Z            4
loop_
_atom_site_label
_atom_site_type_symbol
_atom_site_fract_x
_atom_site_fract_y
_atom_site_fract_z
F1 F 0.57576(17) 0.50732(15) 0.27361(13)
F2 F 0.71621(18) 0.63183(12) 0.25861(12)
F3 F 0.70332(18) 0.48944(15) 0.18351(10)
F4 F 0.78734(18) 0.48523(15) 0.31391(11)
B1 B 0.6920(3) 0.5292(2) 0.25495(17)
O1 O 0.40466(14) 0.33118(11) 0.27331(9)
C1 C 0.4465(2) 0.31678(16) 0.20605(13)
C2 C 0.5580(2) 0.26442(16) 0.20922(13)
H1 H 0.5889 0.2550 0.1620
C3 C 0.6273(2) 0.22436(16) 0.28119(13)
C4 C 0.5820(2) 0.24083(16) 0.35153(13)
C5 C 0.4691(2) 0.29537(16) 0.34461(13)
C6 C 0.3624(2) 0.36022(16) 0.13507(13)
C7 C 0.4156(2) 0.38924(16) 0.07108(13)
H2 H 0.5057 0.3818 0.0744
C8 C 0.3370(2) 0.42882(17) 0.00296(13)
H3 H 0.3727 0.4482 -0.0408
C9 C 0.2061(2) 0.44013(17) -0.00133(14)
H4 H 0.1523 0.4681 -0.0479
C10 C 0.1527(2) 0.41098(18) 0.06188(15)
H5 H 0.0627 0.4188 0.0584
C11 C 0.2304(2) 0.37063(17) 0.12982(14)
H6 H 0.1938 0.3500 0.1729
C12 C 0.7417(2) 0.16057(17) 0.27859(13)
C13 C 0.7277(2) 0.07825(18) 0.22708(15)
H7 H 0.6450 0.0621 0.1954
C14 C 0.8336(2) 0.01974(19) 0.22177(16)
H8 H 0.8229 -0.0366 0.1866
C15 C 0.9547(2) 0.04247(18) 0.26704(15)
H9 H 1.0270 0.0019 0.2633
C16 C 0.9694(2) 0.12461(19) 0.31768(15)
H10 H 1.0528 0.1412 0.3483
C17 C 0.8643(2) 0.18334(19) 0.32446(14)
H11 H 0.8755 0.2391 0.3603
C18 C 0.6405(2) 0.18787(17) 0.42883(13)
H12 H 0.6771 0.1228 0.4156
H13 H 0.5698 0.1715 0.4558
C19 C 0.7452(2) 0.24305(17) 0.48847(13)
C20 C 0.7977(2) 0.33477(18) 0.47235(15)
H14 H 0.7641 0.3688 0.4235
C21 C 0.8997(2) 0.3768(2) 0.52801(17)
H15 H 0.9354 0.4395 0.5166
C22 C 0.9499(2) 0.3289(2) 0.59937(16)
H16 H 1.0217 0.3571 0.6359
C23 C 0.8946(2) 0.2396(2) 0.61708(15)
H17 H 0.9263 0.2073 0.6669
C24 C 0.7929(2) 0.19681(18) 0.56234(13)
H18 H 0.7552 0.1355 0.5751
C25 C 0.3994(2) 0.31854(16) 0.40788(13)
C26 C 0.4613(2) 0.36439(17) 0.47898(14)
H19 H 0.5509 0.3796 0.4884
C27 C 0.3916(2) 0.38770(18) 0.53592(14)
H20 H 0.4333 0.4201 0.5841
C28 C 0.2617(2) 0.36415(18) 0.52307(14)
H21 H 0.2147 0.3797 0.5626
C29 C 0.2000(2) 0.31797(18) 0.45261(15)
H22 H 0.1109 0.3017 0.4440
C30 C 0.2680(2) 0.29533(17) 0.39466(14)
H23 H 0.2253 0.2642 0.3462
loop_
_geom_bond_atom_site_label_1
_geom_bond_atom_site_label_2
_geom_bond_site_symmetry_1
_geom_bond_site_symmetry_2
F1 B1 1_555 1_555
F2 B1 1_555 1_555
F3 B1 1_555 1_555
F4 B1 1_555 1_555
O1 C1 1_555 1_555
C1 C2 1_555 1_555
C2 H1 1_555 1_555
C3 C2 1_555 1_555
C4 C3 1_555 1_555
C5 O1 1_555 1_555
C6 C1 1_555 1_555
C7 C6 1_555 1_555
H2 C7 1_555 1_555
C8 C7 1_555 1_555
H3 C8 1_555 1_555
C9 C8 1_555 1_555
H4 C9 1_555 1_555
C10 C9 1_555 1_555
H5 C10 1_555 1_555
C11 C6 1_555 1_555
H6 C11 1_555 1_555
C12 C3 1_555 1_555
C13 C12 1_555 1_555
H7 C13 1_555 1_555
C14 C13 1_555 1_555
H8 C14 1_555 1_555
C15 C14 1_555 1_555
H9 C15 1_555 1_555
C16 C15 1_555 1_555
H10 C16 1_555 1_555
C17 C12 1_555 1_555
H11 C17 1_555 1_555
C18 C4 1_555 1_555
H12 C18 1_555 1_555
H13 C18 1_555 1_555
C19 C18 1_555 1_555
C20 C19 1_555 1_555
H14 C20 1_555 1_555
C21 C20 1_555 1_555
H15 C21 1_555 1_555
C22 C21 1_555 1_555
H16 C22 1_555 1_555
C23 C22 1_555 1_555
H17 C23 1_555 1_555
C24 C19 1_555 1_555
H18 C24 1_555 1_555
C25 C5 1_555 1_555
C26 C25 1_555 1_555
H19 C26 1_555 1_555
C27 C26 1_555 1_555
H20 C27 1_555 1_555
C28 C27 1_555 1_555
H21 C28 1_555 1_555
C29 C28 1_555 1_555
H22 C29 1_555 1_555
C30 C25 1_555 1_555
H23 C30 1_555 1_555
C4 C5 1_555 1_555
C10 C11 1_555 1_555
C16 C17 1_555 1_555
C23 C24 1_555 1_555
C29 C30 1_555 1_555

#END
