
#######################################################################
#
#                 Cambridge Crystallographic Data Centre
#                                CCDC 
#
#######################################################################
#
# If this CIF has been generated from an entry in the Cambridge 
# Structural Database, then it will include bibliographic, chemical, 
# crystal, experimental, refinement or atomic coordinate data resulting 
# from the CCDC's data processing and validation procedures.
#
#######################################################################

data_DELWAT
_chemical_compound_source        'herb Inula nervosa Wall'
_chemical_name_common            
'4,4,8,10,14-Pentamethyl-17-(6-methylhepta-1,5-dien-2-yl) hexadecahydro-1H-cyclopenta(a)phenanthren-3-yl acetate'
_chemical_formula_moiety         'C32 H52 O2'
_chemical_name_systematic        'Dammaradienyl acetate'
_symmetry_cell_setting           monoclinic
_symmetry_space_group_name_H-M   'P 21'
_symmetry_Int_Tables_number      4
_space_group_name_Hall           'P 2yb'
loop_
_symmetry_equiv_pos_site_id
_symmetry_equiv_pos_as_xyz
1 x,y,z
2 -x,1/2+y,-z
_cell_length_a                   11.660(4)
_cell_length_b                   7.400(3)
_cell_length_c                   16.632(6)
_cell_angle_alpha                90
_cell_angle_beta                 91.654(6)
_cell_angle_gamma                90
_cell_volume                     1434.48
_exptl_crystal_colour            colorless
_exptl_crystal_description       prism
_chemical_melting_point          '422 K'
_cell_formula_units_Z            2
_exptl_crystal_recrystallization_method chloroform
loop_
_atom_site_label
_atom_site_type_symbol
_atom_site_fract_x
_atom_site_fract_y
_atom_site_fract_z
O1 O 0.5647(3) 0.5536(6) 0.8636(2)
O2 O 0.4546(4) 0.7930(7) 0.8332(3)
C1 C 0.4915(6) 0.6872(9) 0.8819(4)
C2 C 0.4648(7) 0.6839(12) 0.9690(4)
H1 H 0.5037 0.5840 0.9946
H2 H 0.3835 0.6709 0.9748
H3 H 0.4900 0.7947 0.9938
C3 C 0.7177(4) 0.6243(7) 0.6692(3)
H4 H 0.7826 0.7003 0.6566
H5 H 0.6523 0.6654 0.6367
C4 C 0.6911(5) 0.6477(7) 0.7579(3)
H6 H 0.7577 0.6146 0.7909
H7 H 0.6730 0.7732 0.7686
C5 C 0.5909(4) 0.5300(7) 0.7787(3)
H8 H 0.5240 0.5686 0.7461
C6 C 0.6101(4) 0.3251(8) 0.7641(3)
C7 C 0.6454(4) 0.3082(7) 0.6752(3)
H9 H 0.5781 0.3513 0.6442
C8 C 0.6594(4) 0.1125(7) 0.6482(3)
H10 H 0.7321 0.0655 0.6688
H11 H 0.5985 0.0393 0.6697
C9 C 0.6553(4) 0.1014(7) 0.5571(3)
H12 H 0.5798 0.1387 0.5375
H13 H 0.6662 -0.0235 0.5413
C10 C 0.7468(4) 0.2195(7) 0.5167(3)
C11 C 0.7429(4) 0.4135(7) 0.5526(3)
H14 H 0.6670 0.4592 0.5359
C12 C 0.7451(4) 0.4295(7) 0.6464(3)
C13 C 0.8272(4) 0.5408(8) 0.5112(3)
H15 H 0.8167 0.6625 0.5314
H16 H 0.9050 0.5039 0.5255
C14 C 0.8123(4) 0.5430(7) 0.4192(3)
H17 H 0.7400 0.6002 0.4041
H18 H 0.8737 0.6128 0.3962
C15 C 0.8142(4) 0.3538(7) 0.3864(3)
H19 H 0.8889 0.3021 0.4021
C16 C 0.7222(4) 0.2327(7) 0.4236(3)
C17 C 0.7350(5) 0.0577(9) 0.3742(3)
H20 H 0.7921 -0.0211 0.3993
H21 H 0.6625 -0.0065 0.3701
C18 C 0.7729(5) 0.1186(9) 0.2908(3)
H22 H 0.7128 0.0945 0.2507
H23 H 0.8413 0.0535 0.2759
C19 C 0.7980(4) 0.3242(8) 0.2952(3)
H24 H 0.7294 0.3899 0.2764
C20 C 0.6972(5) 0.2468(8) 0.8254(3)
H25 H 0.7702 0.3046 0.8193
H26 H 0.7050 0.1193 0.8166
H27 H 0.6711 0.2675 0.8789
C21 C 0.4943(5) 0.2331(9) 0.7756(3)
H28 H 0.5020 0.1055 0.7670
H29 H 0.4388 0.2815 0.7377
H30 H 0.4695 0.2547 0.8293
C22 C 0.8634(4) 0.3825(9) 0.6849(3)
H31 H 0.8829 0.2601 0.6718
H32 H 0.8606 0.3953 0.7422
H33 H 0.9203 0.4627 0.6645
C23 C 0.8653(4) 0.1265(8) 0.5334(3)
H34 H 0.9247 0.1966 0.5095
H35 H 0.8643 0.0074 0.5105
H36 H 0.8799 0.1183 0.5903
C24 C 0.6006(4) 0.3036(9) 0.4033(3)
H37 H 0.5451 0.2269 0.4277
H38 H 0.5878 0.3036 0.3460
H39 H 0.5931 0.4244 0.4234
C25 C 0.8967(5) 0.3793(8) 0.2451(3)
C26 C 0.8634(7) 0.4438(15) 0.1623(4)
H40 H 0.8020 0.3686 0.1403
H41 H 0.9285 0.4326 0.1276
C27 C 0.8242(10) 0.6382(19) 0.1635(7)
H42 H 0.7542 0.6435 0.1935
H43 H 0.8818 0.7074 0.1935
C28 C 0.8037(8) 0.7249(19) 0.0903(6)
H44 H 0.7347 0.6907 0.0654
C29 C 0.8598(8) 0.8431(15) 0.0489(5)
C30 C 0.9619(11) 0.941(2) 0.0785(6)
H45 H 0.9867 1.0228 0.0378
H46 H 1.0221 0.8560 0.0911
H47 H 0.9437 1.0074 0.1260
C31 C 1.0030(5) 0.3742(10) 0.2672(4)
H48 H 1.0241 0.3337 0.3185
H49 H 1.0589 0.4111 0.2320
C32 C 0.8214(8) 0.895(2) -0.0327(5)
H50 H 0.8732 0.9829 -0.0536
H51 H 0.7457 0.9456 -0.0312
H52 H 0.8202 0.7902 -0.0668
loop_
_geom_bond_atom_site_label_1
_geom_bond_atom_site_label_2
_geom_bond_site_symmetry_1
_geom_bond_site_symmetry_2
O1 C1 1_555 1_555
O2 C1 1_555 1_555
C1 C2 1_555 1_555
C2 H1 1_555 1_555
H2 C2 1_555 1_555
H3 C2 1_555 1_555
C3 H4 1_555 1_555
H5 C3 1_555 1_555
C4 C3 1_555 1_555
H6 C4 1_555 1_555
H7 C4 1_555 1_555
C5 O1 1_555 1_555
H8 C5 1_555 1_555
C6 C5 1_555 1_555
C7 C6 1_555 1_555
H9 C7 1_555 1_555
C8 C7 1_555 1_555
H10 C8 1_555 1_555
H11 C8 1_555 1_555
C9 C8 1_555 1_555
H12 C9 1_555 1_555
H13 C9 1_555 1_555
C10 C9 1_555 1_555
C11 C10 1_555 1_555
H14 C11 1_555 1_555
C12 C3 1_555 1_555
C13 C11 1_555 1_555
H15 C13 1_555 1_555
H16 C13 1_555 1_555
C14 C13 1_555 1_555
H17 C14 1_555 1_555
H18 C14 1_555 1_555
C15 C14 1_555 1_555
H19 C15 1_555 1_555
C16 C10 1_555 1_555
C17 C16 1_555 1_555
H20 C17 1_555 1_555
H21 C17 1_555 1_555
C18 C17 1_555 1_555
H22 C18 1_555 1_555
H23 C18 1_555 1_555
C19 C15 1_555 1_555
H24 C19 1_555 1_555
C20 C6 1_555 1_555
H25 C20 1_555 1_555
H26 C20 1_555 1_555
H27 C20 1_555 1_555
C21 C6 1_555 1_555
H28 C21 1_555 1_555
H29 C21 1_555 1_555
H30 C21 1_555 1_555
C22 C12 1_555 1_555
H31 C22 1_555 1_555
H32 C22 1_555 1_555
H33 C22 1_555 1_555
C23 C10 1_555 1_555
H34 C23 1_555 1_555
H35 C23 1_555 1_555
H36 C23 1_555 1_555
C24 C16 1_555 1_555
H37 C24 1_555 1_555
H38 C24 1_555 1_555
H39 C24 1_555 1_555
C25 C19 1_555 1_555
C26 C25 1_555 1_555
H40 C26 1_555 1_555
H41 C26 1_555 1_555
C27 C26 1_555 1_555
H42 C27 1_555 1_555
H43 C27 1_555 1_555
C28 C27 1_555 1_555
H44 C28 1_555 1_555
C29 C28 1_555 1_555
C30 C29 1_555 1_555
H45 C30 1_555 1_555
H46 C30 1_555 1_555
H47 C30 1_555 1_555
C31 C25 1_555 1_555
H48 C31 1_555 1_555
H49 C31 1_555 1_555
C32 C29 1_555 1_555
H50 C32 1_555 1_555
H51 C32 1_555 1_555
H52 C32 1_555 1_555
C4 C5 1_555 1_555
C7 C12 1_555 1_555
C11 C12 1_555 1_555
C15 C16 1_555 1_555
C18 C19 1_555 1_555

#END
