
#######################################################################
#
#                 Cambridge Crystallographic Data Centre
#                                CCDC 
#
#######################################################################
#
# If this CIF has been generated from an entry in the Cambridge 
# Structural Database, then it will include bibliographic, chemical, 
# crystal, experimental, refinement or atomic coordinate data resulting 
# from the CCDC's data processing and validation procedures.
#
#######################################################################

data_DEMFAD
_chemical_formula_moiety         'C17 H10 Br1 N1 O2 S1'
_chemical_name_systematic        4-Bromo-N-(3-thienylmethyl)-1,8-naphthalimide
_symmetry_cell_setting           monoclinic
_symmetry_space_group_name_H-M   'P 21/c'
_symmetry_Int_Tables_number      14
_space_group_name_Hall           '-P 2ybc'
loop_
_symmetry_equiv_pos_site_id
_symmetry_equiv_pos_as_xyz
1 x,y,z
2 -x,1/2+y,1/2-z
3 -x,-y,-z
4 x,1/2-y,1/2+z
_cell_length_a                   11.4000(16)
_cell_length_b                   7.2252(12)
_cell_length_c                   18.211(2)
_cell_angle_alpha                90
_cell_angle_beta                 103.721(6)
_cell_angle_gamma                90
_cell_volume                     1457.18
_exptl_crystal_colour            colorless
_exptl_crystal_description       block
_chemical_melting_point          '468 K'
_cell_formula_units_Z            4
_exptl_crystal_recrystallization_method 'acetone/petroleum ether'
loop_
_atom_site_label
_atom_site_type_symbol
_atom_site_fract_x
_atom_site_fract_y
_atom_site_fract_z
Br1 Br 0.70639(4) 0.39106(6) -0.09228(3)
O1 O 0.1568(3) 0.1254(4) -0.03356(17)
O2 O 0.3749(3) 0.0836(4) 0.20873(16)
N1 N 0.2665(3) 0.1027(4) 0.08753(17)
C1 C 0.2555(4) 0.1378(5) 0.0107(2)
C2 C 0.3652(3) 0.1942(5) -0.01211(19)
C3 C 0.3606(4) 0.2288(5) -0.0870(2)
H1 H 0.2881 0.2139 -0.1228
C4 C 0.4635(4) 0.2861(5) -0.1101(2)
H2 H 0.4587 0.3085 -0.1610
C5 C 0.5701(4) 0.3091(5) -0.0587(2)
C6 C 0.5814(3) 0.2746(4) 0.0202(2)
C7 C 0.4758(3) 0.2166(4) 0.04166(19)
C8 C 0.4816(3) 0.1816(5) 0.1187(2)
C9 C 0.5880(4) 0.2066(6) 0.1719(2)
H3 H 0.5908 0.1846 0.2226
C10 C 0.6917(4) 0.2647(5) 0.1507(2)
H4 H 0.7631 0.2817 0.1873
C11 C 0.6891(3) 0.2967(5) 0.0765(2)
H5 H 0.7592 0.3335 0.0629
C12 C 0.3743(4) 0.1190(5) 0.1427(2)
C13 C 0.1560(3) 0.0561(6) 0.1127(2)
H6 H 0.1747 -0.0347 0.1523
H7 H 0.0969 0.0045 0.0712
S1 S 0.0610(5) 0.4902(6) 0.2214(2)
C14 C 0.1056(17) 0.2263(15) 0.1417(7)
C15 C 0.1384(11) 0.2956(13) 0.2111(8)
H10 H 0.1974 0.2432 0.2497
C16 C -0.0044(16) 0.506(2) 0.1259(5)
H11 H -0.0580 0.5972 0.1027
C17 C 0.0349(11) 0.3639(14) 0.0905(7)
H12 H 0.0188 0.3539 0.0381
H8? H 0.1754 -0.0299 0.1540
H9? H 0.0985 -0.0012 0.0720
S2? S -0.0054(8) 0.5270(11) 0.1523(4)
C18? C 0.101(3) 0.229(2) 0.1374(10)
C19? C 0.0145(17) 0.339(2) 0.0995(10)
H13? H -0.0299 0.3167 0.0505
C20? C 0.073(2) 0.428(2) 0.2347(8)
H14? H 0.0830 0.4783 0.2828
C21? C 0.1182(15) 0.2645(19) 0.2183(10)
H15? H 0.1568 0.1816 0.2553
loop_
_geom_bond_atom_site_label_1
_geom_bond_atom_site_label_2
_geom_bond_site_symmetry_1
_geom_bond_site_symmetry_2
Br1 C5 1_555 1_555
O1 C1 1_555 1_555
O2 C12 1_555 1_555
N1 C1 1_555 1_555
C1 C2 1_555 1_555
C2 C3 1_555 1_555
C3 H1 1_555 1_555
C4 C3 1_555 1_555
H2 C4 1_555 1_555
C5 C4 1_555 1_555
C6 C5 1_555 1_555
C7 C2 1_555 1_555
C8 C7 1_555 1_555
C9 C8 1_555 1_555
H3 C9 1_555 1_555
C10 C9 1_555 1_555
H4 C10 1_555 1_555
C11 C6 1_555 1_555
H5 C11 1_555 1_555
C12 N1 1_555 1_555
C13 N1 1_555 1_555
H6 C13 1_555 1_555
H7 C13 1_555 1_555
S1 C15 1_555 1_555
C14 C13 1_555 1_555
C15 C14 1_555 1_555
H10 C15 1_555 1_555
C16 S1 1_555 1_555
H11 C16 1_555 1_555
C17 C14 1_555 1_555
H12 C17 1_555 1_555
C6 C7 1_555 1_555
C8 C12 1_555 1_555
C10 C11 1_555 1_555
C16 C17 1_555 1_555

#END
