
#######################################################################
#
#                 Cambridge Crystallographic Data Centre
#                                CCDC 
#
#######################################################################
#
# If this CIF has been generated from an entry in the Cambridge 
# Structural Database, then it will include bibliographic, chemical, 
# crystal, experimental, refinement or atomic coordinate data resulting 
# from the CCDC's data processing and validation procedures.
#
#######################################################################

data_DEMPAP
_chemical_formula_moiety         'C20 H20 N2 O3 S1'
_chemical_name_systematic        
'ethyl 2-[(4,4-dimethyl-1-oxo-1,2,3,4-tetrahydro-1-benzothiopyran-6-yl)ethynyl]pyrimidine-5-carboxylate'
_symmetry_cell_setting           monoclinic
_symmetry_space_group_name_H-M   'P 21'
_symmetry_Int_Tables_number      4
_space_group_name_Hall           'P 2yb'
loop_
_symmetry_equiv_pos_site_id
_symmetry_equiv_pos_as_xyz
1 x,y,z
2 -x,1/2+y,-z
_cell_length_a                   7.9718(11)
_cell_length_b                   22.980(3)
_cell_length_c                   10.4356(15)
_cell_angle_alpha                90
_cell_angle_beta                 103.010(3)
_cell_angle_gamma                90
_cell_volume                     1862.65
_exptl_crystal_colour            colorless
_exptl_crystal_description       prismatic
_cell_formula_units_Z            4
loop_
_atom_site_label
_atom_site_type_symbol
_atom_site_fract_x
_atom_site_fract_y
_atom_site_fract_z
S1 S -0.4896(2) 0.53776(9) 0.9438(2)
N1 N 0.1166(9) 0.7867(3) 0.5358(7)
N2 N 0.3322(10) 0.7134(3) 0.5625(7)
O1 O -0.5859(9) 0.5779(3) 1.0024(8)
O2 O 0.3797(11) 0.8790(3) 0.3055(8)
O3 O 0.5939(11) 0.8134(4) 0.3481(9)
C1 C -0.3530(11) 0.4926(3) 1.0594(7)
H1 H -0.2854 0.5161 1.1296
H2 H -0.4211 0.4655 1.0976
C2 C -0.2367(10) 0.4602(3) 0.9909(7)
H3 H -0.3058 0.4432 0.9112
H4 H -0.1839 0.4285 1.0471
C3 C -0.0944(9) 0.4969(3) 0.9545(6)
C4 C -0.1618(8) 0.5549(3) 0.8933(5)
C5 C -0.3243(8) 0.5771(3) 0.8896(6)
C6 C -0.3757(9) 0.6307(3) 0.8344(6)
H5 H -0.4851 0.6447 0.8346
C7 C -0.2673(9) 0.6630(3) 0.7800(6)
H6 H -0.3025 0.6992 0.7435
C8 C -0.1059(9) 0.6425(3) 0.7787(6)
C9 C -0.0526(9) 0.5892(3) 0.8371(6)
H7 H 0.0583 0.5761 0.8388
C10 C 0.0060(10) 0.6751(3) 0.7154(7)
C11 C 0.0913(11) 0.7023(3) 0.6582(7)
C12 C 0.1867(9) 0.7364(3) 0.5806(6)
C13 C 0.2019(10) 0.8163(3) 0.4650(8)
H8 H 0.1582 0.8521 0.4319
C14 C 0.3524(10) 0.7974(3) 0.4364(7)
C15 C 0.4120(12) 0.7454(3) 0.4910(9)
H9 H 0.5161 0.7317 0.4765
C16 C 0.4393(13) 0.8342(4) 0.3535(9)
C17 C 0.7143(16) 0.8549(6) 0.2894(10)
H10 H 0.6969 0.8955 0.3077
H11 H 0.8350 0.8449 0.3192
C18 C 0.6503(17) 0.8410(6) 0.1579(12)
H12 H 0.6752 0.8010 0.1434
H13 H 0.7035 0.8654 0.1038
H14 H 0.5280 0.8469 0.1357
C19 C 0.0510(11) 0.5085(4) 1.0778(7)
H15 H 0.1348 0.5342 1.0550
H16 H 0.1051 0.4724 1.1097
H17 H 0.0031 0.5262 1.1449
C20 C -0.0240(12) 0.4602(4) 0.8538(9)
H18 H -0.1088 0.4583 0.7725
H19 H 0.0016 0.4215 0.8877
H20 H 0.0790 0.4779 0.8389
S2 S 0.9768(2) 0.97381(9) 0.52867(17)
N3 N 0.1503(9) 0.8087(3) 0.9298(6)
N4 N 0.3711(8) 0.7376(3) 0.9624(7)
O4 O 1.1314(7) 0.9798(4) 0.6315(6)
O5 O 0.1038(10) 0.6474(3) 1.1962(9)
O6 O -0.1155(8) 0.7052(3) 1.1353(7)
C21 C 0.8964(12) 1.0485(4) 0.5260(10)
H21 H 0.9041 1.0623 0.6150
H22 H 0.9643 1.0741 0.4836
C22 C 0.7109(12) 1.0483(5) 0.4503(10)
H23 H 0.7005 1.0249 0.3716
H24 H 0.6758 1.0877 0.4235
C23 C 0.5908(9) 1.0236(3) 0.5340(7)
C24 C 0.6529(7) 0.9648(3) 0.5968(5)
C25 C 0.8142(8) 0.9413(3) 0.6009(6)
C26 C 0.8650(9) 0.8878(3) 0.6594(7)
H25 H 0.9726 0.8725 0.6577
C27 C 0.7552(10) 0.8576(3) 0.7197(7)
H26 H 0.7891 0.8224 0.7612
C28 C 0.5936(8) 0.8802(3) 0.7184(6)
C29 C 0.5458(8) 0.9327(3) 0.6566(6)
H27 H 0.4363 0.9470 0.6552
C30 C 0.4800(10) 0.8488(3) 0.7839(6)
C31 C 0.3955(10) 0.8211(3) 0.8418(7)
C32 C 0.2989(9) 0.7879(3) 0.9141(6)
C33 C 0.2812(10) 0.7071(3) 1.0342(8)
H28 H 0.3254 0.6715 1.0686
C34 C 0.1310(9) 0.7251(3) 1.0593(7)
C35 C 0.0662(11) 0.7776(3) 1.0023(8)
H29 H -0.0385 0.7913 1.0153
C36 C 0.0405(11) 0.6883(4) 1.1401(8)
C37 C -0.2274(14) 0.6657(6) 1.2000(11)
H30 H -0.3484 0.6724 1.1615
H31 H -0.2014 0.6251 1.1877
C38 C -0.1890(19) 0.6799(6) 1.3361(13)
H32 H -0.0823 0.6619 1.3787
H33 H -0.2797 0.6660 1.3750
H34 H -0.1790 0.7213 1.3464
C39 C 0.4275(12) 1.0156(4) 0.4320(7)
H35 H 0.4469 0.9888 0.3662
H36 H 0.3907 1.0524 0.3917
H37 H 0.3399 1.0004 0.4726
C40 C 0.5551(13) 1.0640(4) 0.6396(8)
H38 H 0.5042 1.0994 0.5998
H39 H 0.6611 1.0728 0.7010
H40 H 0.4775 1.0454 0.6850
C41? C 0.863(3) 1.0265(11) 0.439(2)
H41? H 0.9403 1.0533 0.4093
H42? H 0.7865 1.0098 0.3626
C42? C 0.758(3) 1.0592(10) 0.522(3)
H43? H 0.7241 1.0967 0.4814
H44? H 0.8294 1.0662 0.6088
loop_
_geom_bond_atom_site_label_1
_geom_bond_atom_site_label_2
_geom_bond_site_symmetry_1
_geom_bond_site_symmetry_2
S1 O1 1_555 1_555
N1 C12 1_555 1_555
N2 C12 1_555 1_555
O2 C16 1_555 1_555
O3 C16 1_555 1_555
C1 S1 1_555 1_555
H1 C1 1_555 1_555
H2 C1 1_555 1_555
C2 C1 1_555 1_555
H3 C2 1_555 1_555
H4 C2 1_555 1_555
C3 C2 1_555 1_555
C4 C3 1_555 1_555
C5 S1 1_555 1_555
C6 C5 1_555 1_555
H5 C6 1_555 1_555
C7 C6 1_555 1_555
H6 C7 1_555 1_555
C8 C7 1_555 1_555
C9 C4 1_555 1_555
H7 C9 1_555 1_555
C10 C8 1_555 1_555
C11 C10 1_555 1_555
C12 C11 1_555 1_555
C13 N1 1_555 1_555
H8 C13 1_555 1_555
C14 C13 1_555 1_555
C15 N2 1_555 1_555
H9 C15 1_555 1_555
C16 C14 1_555 1_555
C17 O3 1_555 1_555
H10 C17 1_555 1_555
H11 C17 1_555 1_555
C18 C17 1_555 1_555
H12 C18 1_555 1_555
H13 C18 1_555 1_555
H14 C18 1_555 1_555
C19 C3 1_555 1_555
H15 C19 1_555 1_555
H16 C19 1_555 1_555
H17 C19 1_555 1_555
C20 C3 1_555 1_555
H18 C20 1_555 1_555
H19 C20 1_555 1_555
H20 C20 1_555 1_555
S2 O4 1_555 1_555
N3 C32 1_555 1_555
N4 C32 1_555 1_555
O5 C36 1_555 1_555
O6 C36 1_555 1_555
C21 S2 1_555 1_555
H21 C21 1_555 1_555
H22 C21 1_555 1_555
C22 C21 1_555 1_555
H23 C22 1_555 1_555
H24 C22 1_555 1_555
C23 C22 1_555 1_555
C24 C23 1_555 1_555
C25 S2 1_555 1_555
C26 C25 1_555 1_555
H25 C26 1_555 1_555
C27 C26 1_555 1_555
H26 C27 1_555 1_555
C28 C27 1_555 1_555
C29 C24 1_555 1_555
H27 C29 1_555 1_555
C30 C28 1_555 1_555
C31 C30 1_555 1_555
C32 C31 1_555 1_555
C33 N4 1_555 1_555
H28 C33 1_555 1_555
C34 C33 1_555 1_555
C35 N3 1_555 1_555
H29 C35 1_555 1_555
C36 C34 1_555 1_555
C37 O6 1_555 1_555
H30 C37 1_555 1_555
H31 C37 1_555 1_555
C38 C37 1_555 1_555
H32 C38 1_555 1_555
H33 C38 1_555 1_555
H34 C38 1_555 1_555
C39 C23 1_555 1_555
H35 C39 1_555 1_555
H36 C39 1_555 1_555
H37 C39 1_555 1_555
C40 C23 1_555 1_555
H38 C40 1_555 1_555
H39 C40 1_555 1_555
H40 C40 1_555 1_555
C4 C5 1_555 1_555
C8 C9 1_555 1_555
C14 C15 1_555 1_555
C24 C25 1_555 1_555
C28 C29 1_555 1_555
C34 C35 1_555 1_555

#END
