
#######################################################################
#
#                 Cambridge Crystallographic Data Centre
#                                CCDC 
#
#######################################################################
#
# If this CIF has been generated from an entry in the Cambridge 
# Structural Database, then it will include bibliographic, chemical, 
# crystal, experimental, refinement or atomic coordinate data resulting 
# from the CCDC's data processing and validation procedures.
#
#######################################################################

data_DENFUX
_chemical_formula_moiety         'C44 H54 N2 O4,C8 H10'
_chemical_name_systematic        
"1',1''-Dimethyl-dispiro(1,6,20,25-tetraoxa(6.1.6.1)paracyclophane-13,4':32,4''-bis(piperidine)) p-xylene clathrate"
_symmetry_cell_setting           triclinic
_symmetry_space_group_name_H-M   'P -1'
_symmetry_Int_Tables_number      2
_space_group_name_Hall           '-P 1'
loop_
_symmetry_equiv_pos_site_id
_symmetry_equiv_pos_as_xyz
1 x,y,z
2 -x,-y,-z
_cell_length_a                   6.262(1)
_cell_length_b                   12.106(2)
_cell_length_c                   15.340(2)
_cell_angle_alpha                107.74(2)
_cell_angle_beta                 90.66(2)
_cell_angle_gamma                86.76(2)
_cell_volume                     1105.8
_exptl_crystal_colour            colorless
_cell_formula_units_Z            1
loop_
_atom_site_label
_atom_site_type_symbol
_atom_site_fract_x
_atom_site_fract_y
_atom_site_fract_z
O1 O 0.7788(2) 0.08963(8) 0.46580(6)
C1 C 0.9550(3) 0.1054(1) 0.41287(9)
C2 C 0.9309(3) 0.0275(1) 0.3153(1)
C3 C 0.7310(3) 0.0546(1) 0.2660(1)
C4 C 0.7379(3) 0.1689(1) 0.2460(1)
O2 O 0.5438(2) 0.18548(8) 0.19955(7)
C5 C 0.5016(2) 0.2926(1) 0.18710(9)
C6 C 0.6441(2) 0.3801(1) 0.2068(1)
C7 C 0.5813(2) 0.4866(1) 0.1954(1)
C8 C 0.3815(2) 0.5093(1) 0.16276(8)
C9 C 0.2441(2) 0.4183(1) 0.14099(9)
C10 C 0.3033(2) 0.3119(1) 0.1530(1)
C11 C 0.3180(2) 0.6319(1) 0.15735(8)
C12 C 0.2887(2) 0.7114(1) 0.25747(8)
C13 C 0.4385(2) 0.7892(1) 0.30386(9)
C14 C 0.4120(2) 0.8539(1) 0.39522(9)
C15 C 0.7655(2) 0.1571(1) 0.55641(9)
C16 C 0.9165(2) 0.2335(1) 0.6002(1)
C17 C 0.1130(2) 0.7023(1) 0.30817(9)
N1 N 0.2254(2) 0.7805(1) 0.03610(8)
C18 C 0.0554(2) 0.7479(1) 0.0865(1)
C19 C 0.1110(2) 0.6323(1) 0.10181(9)
C20 C 0.4902(2) 0.6731(1) 0.10468(9)
C21 C 0.4264(2) 0.7868(1) 0.0859(1)
C22 C 0.1690(3) 0.8899(1) 0.0190(1)
C15A C 0.2345(2) 0.8429(1) 0.44359(9)
C14A C 0.5880(2) 0.1461(1) 0.60478(9)
C17A C 0.8870(2) 0.2977(1) 0.69183(9)
C16A C 0.0835(2) 0.7665(1) 0.3998(1)
O1A O 0.2212(2) 0.91037(8) 0.53420(6)
C13A C 0.5615(2) 0.2108(1) 0.69614(9)
C12A C 0.7113(2) 0.2886(1) 0.74253(8)
C1A C 0.0450(3) 0.8946(1) 0.58713(9)
C11A C 0.6820(2) 0.3681(1) 0.84265(8)
C2A C 0.0691(3) 0.9725(1) 0.6847(1)
C8A C 0.6185(2) 0.4907(1) 0.83724(8)
C19A C 0.8890(2) 0.3677(1) 0.89819(9)
C20A C 0.5098(2) 0.3269(1) 0.89532(9)
C3A C 0.2690(3) 0.9454(1) 0.7340(1)
C7A C 0.4187(2) 0.5134(1) 0.8046(1)
C9A C 0.7559(2) 0.5817(1) 0.85901(9)
C18A C 0.9446(2) 0.2521(1) 0.9135(1)
C21A C 0.5736(2) 0.2132(1) 0.9141(1)
C4A C 0.2621(3) 0.8311(1) 0.7540(1)
C6A C 0.3559(2) 0.6199(1) 0.7932(1)
C10A C 0.6967(2) 0.6881(1) 0.8470(1)
N1A N 0.7746(2) 0.2195(1) 0.96390(8)
O2A O 0.4562(2) 0.81452(8) 0.80045(7)
C5A C 0.4984(2) 0.7074(1) 0.81290(9)
C22A C 0.8310(3) 0.1101(1) 0.9810(1)
C23 C 0.1265(3) 0.4774(2) 0.5657(1)
C24 C 0.1866(3) 0.4259(1) 0.4751(1)
C25 C -0.0553(3) 0.5492(2) 0.5896(1)
C26 C 0.3852(4) 0.3460(2) 0.4484(2)
C25A C 0.0553(3) 0.4508(2) 0.4104(1)
C24A C -0.1866(3) 0.5741(1) 0.5249(1)
C23A C -0.1265(3) 0.5226(2) 0.4343(1)
C26A C -0.3852(4) 0.6540(2) 0.5516(2)
loop_
_geom_bond_atom_site_label_1
_geom_bond_atom_site_label_2
_geom_bond_site_symmetry_1
_geom_bond_site_symmetry_2
O1 C1 1_555 1_555
C1 C2 1_555 1_555
C2 C3 1_555 1_555
C3 C4 1_555 1_555
C4 O2 1_555 1_555
O2 C5 1_555 1_555
C5 C6 1_555 1_555
C6 C7 1_555 1_555
C7 C8 1_555 1_555
C8 C9 1_555 1_555
C9 C10 1_555 1_555
C10 C5 1_555 1_555
C11 C8 1_555 1_555
C12 C11 1_555 1_555
C13 C12 1_555 1_555
C14 C13 1_555 1_555
C15 O1 1_555 1_555
C16 C15 1_555 1_555
C17 C12 1_555 1_555
N1 C18 1_555 1_555
C18 C19 1_555 1_555
C19 C11 1_555 1_555
C20 C11 1_555 1_555
C21 N1 1_555 1_555
C22 N1 1_555 1_555
C23 C24 1_555 1_555
C24 C26 1_555 1_555
C25 C23 1_555 1_555
C15A C14 1_555 1_555
C14A C15 1_555 1_555
C17A C16 1_555 1_555
C16A C17 1_555 1_555
O1A C15A 1_555 1_555
C13A C14A 1_555 1_555
C12A C17A 1_555 1_555
C1A O1A 1_555 1_555
C11A C12A 1_555 1_555
C2A C1A 1_555 1_555
C8A C11A 1_555 1_555
C19A C11A 1_555 1_555
C20A C11A 1_555 1_555
C3A C2A 1_555 1_555
C7A C8A 1_555 1_555
C9A C8A 1_555 1_555
C18A C19A 1_555 1_555
C21A C20A 1_555 1_555
C4A C3A 1_555 1_555
C6A C7A 1_555 1_555
C10A C9A 1_555 1_555
N1A C18A 1_555 1_555
O2A C4A 1_555 1_555
C5A C6A 1_555 1_555
C22A N1A 1_555 1_555
C25A C24 1_555 1_555
C24A C25 1_555 1_555
C23A C25A 1_555 1_555
C26A C24A 1_555 1_555
C20 C21 1_555 1_555
C15A C16A 1_555 1_555
C13A C12A 1_555 1_555
C21A N1A 1_555 1_555
C10A C5A 1_555 1_555
O2A C5A 1_555 1_555
C24A C23A 1_555 1_555

#END
