
#######################################################################
#
#                 Cambridge Crystallographic Data Centre
#                                CCDC 
#
#######################################################################
#
# If this CIF has been generated from an entry in the Cambridge 
# Structural Database, then it will include bibliographic, chemical, 
# crystal, experimental, refinement or atomic coordinate data resulting 
# from the CCDC's data processing and validation procedures.
#
#######################################################################

data_DEPJOA
_chemical_formula_moiety         'C27 H22 Cl2 N2 O4,C2 H6 O1 S1'
_chemical_name_systematic        
'5-amino-3-(2-(4-chlorophenyl)ethyl)-8-((4-chlorophenyl)methoxy)-1,10b-dihydro-2H-[1]benzopyrano[3,4-c]pyridine-2,4(3H)-dione dimethyl sulfoxide solvate'
_chemical_properties_biological  
'Inhibits macrophage migration inhibitory factor (MIF) tautomerase activity'
_symmetry_cell_setting           triclinic
_symmetry_space_group_name_H-M   'P -1'
_symmetry_Int_Tables_number      2
_space_group_name_Hall           '-P 1'
loop_
_symmetry_equiv_pos_site_id
_symmetry_equiv_pos_as_xyz
1 x,y,z
2 -x,-y,-z
_cell_length_a                   9.8209(5)
_cell_length_b                   12.2263(8)
_cell_length_c                   12.4634(13)
_cell_angle_alpha                70.821(8)
_cell_angle_beta                 78.730(6)
_cell_angle_gamma                78.721(5)
_cell_volume                     1372.19
_exptl_crystal_colour            white
_exptl_crystal_description       prism
_cell_formula_units_Z            2
loop_
_atom_site_label
_atom_site_type_symbol
_atom_site_fract_x
_atom_site_fract_y
_atom_site_fract_z
Cl1 Cl 0.03633(6) 0.10351(5) 0.27278(5)
Cl2 Cl 0.39248(6) 0.84885(6) 1.66917(5)
O1 O 0.36468(15) 0.35402(14) 0.93482(13)
O2 O 0.14233(14) 0.38965(13) 0.61524(13)
O3 O 0.39284(15) 0.45454(13) 1.21734(13)
O4 O 0.06199(17) 0.77229(14) 1.12156(15)
N1 N 0.45869(19) 0.30632(17) 1.09319(17)
N2 N 0.22561(16) 0.61287(15) 1.16918(15)
C1 C 0.1646(2) 0.43049(18) 0.69924(18)
C2 C 0.2567(2) 0.37178(18) 0.77797(18)
H1 H 0.31 0.2986 0.7757
C3 C 0.38440(19) 0.8068(2) 1.55001(19)
C4 C 0.0040(2) 0.14583(18) 0.47682(19)
H2 H -0.0794 0.1111 0.4955
C5 C 0.31293(19) 0.51287(18) 1.14678(18)
C6 C 0.1303(2) 0.6850(2) 1.0999(2)
C7 C 0.1964(2) 0.5272(2) 0.8679(2)
C8 C 0.1671(2) 0.23847(18) 0.52764(18)
C9 C 0.0849(2) 0.15827(18) 0.37033(19)
C10 C 0.2155(2) 0.27635(19) 0.6148(2)
H3 H 0.1971 0.2194 0.6918
H4 H 0.3177 0.2792 0.5961
C11 C 0.0868(2) 0.53750(19) 0.70494(19)
H5 H 0.0228 0.5782 0.652
C12 C 0.2697(2) 0.42138(19) 0.85941(18)
C13 C 0.37355(19) 0.38675(19) 1.02646(18)
C14 C 0.2429(2) 0.25352(19) 0.41888(19)
H6 H 0.3233 0.2924 0.3983
C15 C 0.0469(2) 0.18494(18) 0.55560(19)
H7 H -0.0065 0.1751 0.6296
C16 C 0.3670(2) 0.7411(2) 1.35980(19)
C17 C 0.1033(2) 0.5837(2) 0.7879(2)
H8 H 0.0496 0.6565 0.7909
C18 C 0.3693(2) 0.8573(2) 1.3504(2)
H9 H 0.3645 0.915 1.2778
C19 C 0.2035(2) 0.21291(18) 0.33967(19)
H10 H 0.2568 0.2224 0.2657
C20 C 0.3783(2) 0.8907(2) 1.4443(2)
H11 H 0.3804 0.9704 1.4362
C21 C 0.3012(2) 0.48775(19) 1.04535(19)
C22 C 0.2368(2) 0.6375(2) 1.27459(19)
H12 H 0.251 0.5629 1.3367
H13 H 0.1481 0.6834 1.2985
C23 C 0.3750(2) 0.6582(2) 1.4681(2)
H14 H 0.374 0.5782 1.4766
C24 C 0.3579(2) 0.7054(2) 1.2572(2)
H15 H 0.4469 0.6565 1.2388
H16 H 0.3474 0.7764 1.1905
C25 C 0.3845(2) 0.6902(2) 1.5630(2)
H17 H 0.391 0.6329 1.6356
C26 C 0.0983(5) 0.6450(4) 1.0068(4)
H18 H 0.0572 0.7133 0.9479
H19 H 0.0281 0.5903 1.0398
C27 C 0.2298(4) 0.5842(3) 0.9501(3)
H20 H 0.2953 0.6424 0.9074
H21 H 0.496(2) 0.242(2) 1.0749(19)
H22 H 0.471(2) 0.326(2) 1.152(2)
S1 S 0.32411(6) 1.02761(5) 0.89692(5)
O5 O 0.42284(17) 0.91634(16) 0.92902(19)
C30 C 0.1685(2) 0.9904(2) 0.8726(2)
H26 H 0.1869 0.97 0.8009
H27 H 0.0939 1.0574 0.8671
H28 H 0.1393 0.9235 0.9365
C31 C 0.2525(3) 1.0617(2) 1.0265(2)
H29 H 0.211 0.9949 1.082
H30 H 0.1799 1.1302 1.0108
H31 H 0.327 1.0788 1.0581
C28? C 0.1640(13) 0.5413(9) 0.9924(9)
H23? H 0.0795 0.5066 1.04
C29? C 0.1567(15) 0.6683(11) 0.9782(11)
H24? H 0.0796 0.7142 0.9344
H25? H 0.2458 0.6962 0.9354
loop_
_geom_bond_atom_site_label_1
_geom_bond_atom_site_label_2
_geom_bond_site_symmetry_1
_geom_bond_site_symmetry_2
Cl1 C9 1_555 1_555
Cl2 C3 1_555 1_555
O1 C12 1_555 1_555
O2 C1 1_555 1_555
O3 C5 1_555 1_555
O4 C6 1_555 1_555
N1 C13 1_555 1_555
N2 C5 1_555 1_555
C1 C2 1_555 1_555
C2 H1 1_555 1_555
C3 C20 1_555 1_555
C4 H2 1_555 1_555
C5 C21 1_555 1_555
C6 N2 1_555 1_555
C7 C12 1_555 1_555
C8 C10 1_555 1_555
C9 C4 1_555 1_555
C10 O2 1_555 1_555
H3 C10 1_555 1_555
H4 C10 1_555 1_555
C11 C1 1_555 1_555
H5 C11 1_555 1_555
C12 C2 1_555 1_555
C13 O1 1_555 1_555
C14 C8 1_555 1_555
H6 C14 1_555 1_555
C15 C4 1_555 1_555
H7 C15 1_555 1_555
C16 C18 1_555 1_555
C17 C7 1_555 1_555
H8 C17 1_555 1_555
C18 H9 1_555 1_555
C19 C9 1_555 1_555
H10 C19 1_555 1_555
C20 C18 1_555 1_555
H11 C20 1_555 1_555
C21 C13 1_555 1_555
C22 N2 1_555 1_555
H12 C22 1_555 1_555
H13 C22 1_555 1_555
C23 C16 1_555 1_555
H14 C23 1_555 1_555
C24 C16 1_555 1_555
H15 C24 1_555 1_555
H16 C24 1_555 1_555
C25 C3 1_555 1_555
H17 C25 1_555 1_555
C26 C6 1_555 1_555
H18 C26 1_555 1_555
H19 C26 1_555 1_555
C27 C7 1_555 1_555
H20 C27 1_555 1_555
H21 N1 1_555 1_555
H22 N1 1_555 1_555
S1 O5 1_555 1_555
C30 S1 1_555 1_555
H26 C30 1_555 1_555
H27 C30 1_555 1_555
H28 C30 1_555 1_555
C31 S1 1_555 1_555
H29 C31 1_555 1_555
H30 C31 1_555 1_555
H31 C31 1_555 1_555
C8 C15 1_555 1_555
C11 C17 1_555 1_555
C14 C19 1_555 1_555
C21 C27 1_555 1_555
C22 C24 1_555 1_555
C23 C25 1_555 1_555
C26 C27 1_555 1_555

#END
