
#######################################################################
#
#                 Cambridge Crystallographic Data Centre
#                                CCDC 
#
#######################################################################
#
# If this CIF has been generated from an entry in the Cambridge 
# Structural Database, then it will include bibliographic, chemical, 
# crystal, experimental, refinement or atomic coordinate data resulting 
# from the CCDC's data processing and validation procedures.
#
#######################################################################

data_DEPKAN
_chemical_formula_moiety         'C20 H17 N1 O3 S1'
_chemical_name_systematic        
'methyl 2-(4-methoxyphenyl)-4H-pyrrolo[2,1-c][1,4]benzothiazine-3-carboxylate'
_symmetry_cell_setting           orthorhombic
_symmetry_space_group_name_H-M   'P c a 21'
_symmetry_Int_Tables_number      29
_space_group_name_Hall           'P 2c -2ac'
loop_
_symmetry_equiv_pos_site_id
_symmetry_equiv_pos_as_xyz
1 x,y,z
2 -x,-y,1/2+z
3 1/2+x,-y,z
4 1/2-x,y,1/2+z
_cell_length_a                   8.342(4)
_cell_length_b                   25.337(15)
_cell_length_c                   8.025(4)
_cell_angle_alpha                90
_cell_angle_beta                 90
_cell_angle_gamma                90
_cell_volume                     1696.17
_exptl_crystal_colour            colorless
_exptl_crystal_description       block
_cell_formula_units_Z            4
loop_
_atom_site_label
_atom_site_type_symbol
_atom_site_fract_x
_atom_site_fract_y
_atom_site_fract_z
C1 C 0.4888(5) 0.13948(18) 0.2763(5)
C2 C 0.3410(5) 0.14503(18) 0.3495(6)
H1 H 0.2947 0.1783 0.3595
C3 C 0.2610(6) 0.10079(18) 0.4085(8)
H2 H 0.1617 0.1045 0.4599
C4 C 0.3272(6) 0.0517(2) 0.3914(7)
H3 H 0.2711 0.0221 0.4277
C5 C 0.4765(6) 0.04590(19) 0.3206(7)
H4 H 0.5219 0.0125 0.3116
C6 C 0.5599(5) 0.08981(18) 0.2624(6)
C7 C 0.8389(5) 0.14209(16) 0.2399(6)
H5 H 0.8538 0.1404 0.3597
H6 H 0.9434 0.1464 0.1887
C8 C 0.7364(5) 0.18814(14) 0.1980(6)
C9 C 0.7715(4) 0.23831(14) 0.1417(6)
C10 C 0.9356(5) 0.25550(18) 0.1091(6)
C11 C 1.0950(5) 0.32120(18) -0.0162(7)
H7 H 1.1494 0.3305 0.0850
H8 H 1.0844 0.3519 -0.0854
H9 H 1.1558 0.2948 -0.0743
C12 C 0.5041(5) 0.23176(16) 0.1637(6)
H10 H 0.3948 0.2390 0.1609
C13 C 0.6226(4) 0.26607(16) 0.1213(5)
C14 C 0.5939(5) 0.32184(17) 0.0734(6)
C15 C 0.6698(5) 0.36345(17) 0.1520(7)
H11 H 0.7428 0.3564 0.2367
C16 C 0.6400(5) 0.41535(17) 0.1079(6)
H12 H 0.6939 0.4426 0.1615
C17 C 0.5313(5) 0.42636(18) -0.0145(7)
C18 C 0.5759(7) 0.51936(19) 0.0000(9)
H13 H 0.5569 0.5206 0.1179
H14 H 0.5390 0.5515 -0.0504
H15 H 0.6887 0.5153 -0.0203
C19 C 0.4522(5) 0.38556(17) -0.0953(7)
H16 H 0.3778 0.3929 -0.1784
C20 C 0.4853(5) 0.33391(16) -0.0512(6)
H17 H 0.4331 0.3066 -0.1066
N1 N 0.5730(4) 0.18406(13) 0.2119(4)
O1 O 1.0563(3) 0.23242(12) 0.1480(5)
O2 O 0.9385(3) 0.30076(12) 0.0226(4)
O3 O 0.4923(4) 0.47611(12) -0.0696(5)
S1 S 0.74926(16) 0.08167(4) 0.16795(19)
loop_
_geom_bond_atom_site_label_1
_geom_bond_atom_site_label_2
_geom_bond_site_symmetry_1
_geom_bond_site_symmetry_2
C1 C2 1_555 1_555
C2 H1 1_555 1_555
C3 C2 1_555 1_555
H2 C3 1_555 1_555
C4 C3 1_555 1_555
H3 C4 1_555 1_555
C5 C4 1_555 1_555
H4 C5 1_555 1_555
C6 C1 1_555 1_555
C7 H5 1_555 1_555
H6 C7 1_555 1_555
C8 C7 1_555 1_555
C9 C8 1_555 1_555
C10 C9 1_555 1_555
C11 H7 1_555 1_555
H8 C11 1_555 1_555
H9 C11 1_555 1_555
C12 H10 1_555 1_555
C13 C9 1_555 1_555
C14 C13 1_555 1_555
C15 C14 1_555 1_555
H11 C15 1_555 1_555
C16 C15 1_555 1_555
H12 C16 1_555 1_555
C17 C16 1_555 1_555
C18 H13 1_555 1_555
H14 C18 1_555 1_555
H15 C18 1_555 1_555
C19 C17 1_555 1_555
H16 C19 1_555 1_555
C20 C14 1_555 1_555
H17 C20 1_555 1_555
N1 C1 1_555 1_555
O1 C10 1_555 1_555
O2 C10 1_555 1_555
O3 C17 1_555 1_555
S1 C6 1_555 1_555
C5 C6 1_555 1_555
C7 S1 1_555 1_555
C8 N1 1_555 1_555
C11 O2 1_555 1_555
C12 C13 1_555 1_555
C12 N1 1_555 1_555
C18 O3 1_555 1_555
C19 C20 1_555 1_555

#END
