
#######################################################################
#
#                 Cambridge Crystallographic Data Centre
#                                CCDC 
#
#######################################################################
#
# If this CIF has been generated from an entry in the Cambridge 
# Structural Database, then it will include bibliographic, chemical, 
# crystal, experimental, refinement or atomic coordinate data resulting 
# from the CCDC's data processing and validation procedures.
#
#######################################################################

data_DEPSAV
_chemical_formula_moiety         'C14 H13 Cl1 N2 O1 S1'
_chemical_name_systematic        
N'-[(3-chlorophenyl)methylidene]-N-methyl-2-(thiophen-2-yl)acetohydrazide
_symmetry_cell_setting           monoclinic
_symmetry_space_group_name_H-M   'P 21/n'
_symmetry_Int_Tables_number      14
_space_group_name_Hall           '-P 2yn'
loop_
_symmetry_equiv_pos_site_id
_symmetry_equiv_pos_as_xyz
1 x,y,z
2 1/2-x,1/2+y,1/2-z
3 -x,-y,-z
4 1/2+x,1/2-y,1/2+z
_cell_length_a                   4.2194(2)
_cell_length_b                   13.0131(9)
_cell_length_c                   25.0758(18)
_cell_angle_alpha                90
_cell_angle_beta                 93.752(4)
_cell_angle_gamma                90
_cell_volume                     1373.9
_exptl_crystal_colour            colorless
_exptl_crystal_description       needle
_cell_formula_units_Z            4
loop_
_atom_site_label
_atom_site_type_symbol
_atom_site_fract_x
_atom_site_fract_y
_atom_site_fract_z
C1 C 0.2176(17) 0.2480(6) 0.1409(2)
C2 C 0.0167(16) 0.2955(6) 0.1012(3)
H1 H -0.0133 0.3679 0.1017
C3 C -0.1373(17) 0.2366(6) 0.0613(3)
H2 H -0.2716 0.2690 0.0344
C4 C -0.0966(18) 0.1304(6) 0.0603(3)
H3 H -0.2041 0.0901 0.0332
C5 C 0.098(2) 0.0838(6) 0.0994(3)
C6 C 0.2538(18) 0.1414(6) 0.1398(3)
H4 H 0.3852 0.1082 0.1668
C7 C 0.3910(16) 0.3074(5) 0.1837(3)
H5 H 0.5213 0.2733 0.2105
C8 C 0.7209(18) 0.4074(6) 0.2680(3)
H6 H 0.5903 0.3557 0.2847
H7 H 0.7949 0.4582 0.2949
H8 H 0.9042 0.3739 0.2534
C9 C 0.5187(17) 0.5634(6) 0.2228(3)
C10 C 0.3000(17) 0.6118(6) 0.1778(3)
H9 H 0.1189 0.5651 0.1691
H10 H 0.2137 0.6774 0.1907
C11 C 0.4715(15) 0.6322(5) 0.1277(2)
C12 C 0.5901(13) 0.7328(5) 0.11266(19)
H11 H 0.5807 0.7956 0.1319
C13 C 0.7313(18) 0.7147(6) 0.0596(3)
H12 H 0.8266 0.7681 0.0404
C14 C 0.7127(17) 0.6182(6) 0.0416(3)
H13 H 0.7921 0.5975 0.0087
N1 N 0.3638(13) 0.4055(4) 0.1843(2)
N2 N 0.5314(14) 0.4588(5) 0.2249(2)
O1 O 0.6759(12) 0.6183(4) 0.25450(18)
Cl1 Cl 0.1534(7) -0.04694(19) 0.09763(10)
S1 S 0.5363(5) 0.53654(16) 0.08241(8)
H14? H 0.1284 0.0115 0.0987
S2? S 0.5901(13) 0.7328(5) 0.11266(19)
Cl2? Cl -0.296(5) 0.0407(14) 0.0203(7)
C15? C 0.5363(5) 0.53654(16) 0.08241(8)
H15? H 0.4903 0.4651 0.0810
loop_
_geom_bond_atom_site_label_1
_geom_bond_atom_site_label_2
_geom_bond_site_symmetry_1
_geom_bond_site_symmetry_2
C1 C2 1_555 1_555
C2 H1 1_555 1_555
C3 C2 1_555 1_555
H2 C3 1_555 1_555
C4 C3 1_555 1_555
H3 C4 1_555 1_555
C5 C4 1_555 1_555
C6 C1 1_555 1_555
H4 C6 1_555 1_555
C7 C1 1_555 1_555
H5 C7 1_555 1_555
C8 H6 1_555 1_555
H7 C8 1_555 1_555
H8 C8 1_555 1_555
C9 C10 1_555 1_555
C10 H9 1_555 1_555
H10 C10 1_555 1_555
C11 C10 1_555 1_555
C12 C11 1_555 1_555
H11 C12 1_555 1_555
C13 C12 1_555 1_555
H12 C13 1_555 1_555
C14 C13 1_555 1_555
H13 C14 1_555 1_555
N1 C7 1_555 1_555
N2 C8 1_555 1_555
O1 C9 1_555 1_555
Cl1 C5 1_555 1_555
S1 C11 1_555 1_555
C5 C6 1_555 1_555
C9 N2 1_555 1_555
C14 S1 1_555 1_555
N1 N2 1_555 1_555

#END
