
#######################################################################
#
#                 Cambridge Crystallographic Data Centre
#                                CCDC 
#
#######################################################################
#
# If this CIF has been generated from an entry in the Cambridge 
# Structural Database, then it will include bibliographic, chemical, 
# crystal, experimental, refinement or atomic coordinate data resulting 
# from the CCDC's data processing and validation procedures.
#
#######################################################################

data_DEPWUT
_chemical_formula_moiety         'C15 H31 N1 O3'
_chemical_name_systematic        
't-butyl [2-(hydroxymethyl)-2-methyloctyl]carbamate'
_symmetry_cell_setting           monoclinic
_symmetry_space_group_name_H-M   'P 21'
_symmetry_Int_Tables_number      4
_space_group_name_Hall           'P 2yb'
loop_
_symmetry_equiv_pos_site_id
_symmetry_equiv_pos_as_xyz
1 x,y,z
2 -x,1/2+y,-z
_cell_length_a                   15.4919(8)
_cell_length_b                   9.0297(6)
_cell_length_c                   18.2616(13)
_cell_angle_alpha                90
_cell_angle_beta                 98.637(7)
_cell_angle_gamma                90
_cell_volume                     2525.59
_exptl_crystal_colour            colorless
_exptl_crystal_description       plate
_cell_formula_units_Z            6
loop_
_atom_site_label
_atom_site_type_symbol
_atom_site_fract_x
_atom_site_fract_y
_atom_site_fract_z
O1 O 0.20816(10) 0.5261(2) 1.06676(8)
H1 H 0.1722 0.5789 1.0416
O2 O 0.07967(10) 0.61797(18) 0.96084(8)
O3 O 0.02353(9) 0.54108(17) 0.84456(7)
N1 N 0.16673(11) 0.5551(2) 0.87555(9)
H2 H 0.1677 0.5155 0.8329
C1 C 0.69106(18) 0.4365(3) 1.27598(16)
H3 H 0.7203 0.3553 1.2562
H4 H 0.6519 0.3990 1.3076
H5 H 0.7335 0.4999 1.3040
C2 C 0.64044(19) 0.5227(3) 1.21378(16)
H6 H 0.6811 0.5644 1.1839
H7 H 0.6116 0.6045 1.2346
C3 C 0.57248(15) 0.4342(3) 1.16384(13)
H8 H 0.6020 0.3620 1.1371
H9 H 0.5371 0.3803 1.1944
C4 C 0.51305(16) 0.5258(3) 1.10864(14)
H10 H 0.5486 0.5773 1.0773
H11 H 0.4854 0.6003 1.1355
C5 C 0.44216(13) 0.4412(3) 1.05923(12)
H12 H 0.4094 0.3821 1.0898
H13 H 0.4690 0.3744 1.0277
C6 C 0.37982(13) 0.5445(2) 1.01100(12)
H14 H 0.4118 0.5913 0.9755
H15 H 0.3623 0.6221 1.0424
C7 C 0.29665(13) 0.4748(2) 0.96796(11)
C8 C 0.31870(15) 0.3473(3) 0.91901(13)
H16 H 0.2664 0.3136 0.8887
H17 H 0.3440 0.2674 0.9496
H18 H 0.3596 0.3809 0.8880
C9 C 0.23745(13) 0.4148(3) 1.02130(11)
H19 H 0.1871 0.3674 0.9928
H20 H 0.2691 0.3400 1.0527
C10 C 0.24912(13) 0.5990(2) 0.91962(11)
H21 H 0.2380 0.6803 0.9516
H22 H 0.2877 0.6355 0.8865
C11 C 0.08947(13) 0.5742(2) 0.89907(10)
C12 C -0.06595(13) 0.5221(2) 0.86126(11)
C13 C -0.11623(15) 0.4838(3) 0.78580(13)
H23 H -0.1157 0.5671 0.7532
H24 H -0.1754 0.4597 0.7908
H25 H -0.0894 0.4003 0.7657
C14 C -0.10004(15) 0.6667(3) 0.88950(13)
H26 H -0.0710 0.6858 0.9388
H27 H -0.1618 0.6587 0.8899
H28 H -0.0888 0.7466 0.8575
C15 C -0.06769(16) 0.3950(3) 0.91562(13)
H29 H -0.0432 0.3081 0.8965
H30 H -0.1269 0.3754 0.9223
H31 H -0.0341 0.4212 0.9623
O4 O 0.20987(10) 0.4952(2) 0.40062(8)
H32 H 0.1719 0.5480 0.3779
O5 O 0.08575(10) 0.61200(18) 0.29884(8)
O6 O 0.03229(9) 0.54474(17) 0.18059(7)
N2 N 0.17508(12) 0.5672(2) 0.21302(9)
H33 H 0.1774 0.5378 0.1686
C16 C 0.6326(3) 0.4781(4) 0.61240(18)
H34 H 0.5942 0.5621 0.6057
H35 H 0.6837 0.5029 0.6468
H36 H 0.6031 0.3964 0.6314
C17 C 0.65821(19) 0.4368(5) 0.54101(17)
H37 H 0.7036 0.3621 0.5496
H38 H 0.6830 0.5230 0.5203
C18 C 0.58448(18) 0.3775(4) 0.48438(17)
H39 H 0.5536 0.3025 0.5082
H40 H 0.6100 0.3291 0.4453
C19 C 0.51781(15) 0.4913(3) 0.44872(14)
H41 H 0.4911 0.5396 0.4872
H42 H 0.5478 0.5665 0.4241
C20 C 0.44683(14) 0.4219(3) 0.39294(13)
H43 H 0.4142 0.3521 0.4184
H44 H 0.4739 0.3670 0.3568
C21 C 0.38357(14) 0.5350(2) 0.35240(12)
H45 H 0.4154 0.5957 0.3217
H46 H 0.3639 0.5995 0.3890
C22 C 0.30291(13) 0.4724(2) 0.30337(11)
C23 C 0.32743(15) 0.3587(3) 0.24791(12)
H47 H 0.2760 0.3299 0.2149
H48 H 0.3528 0.2733 0.2741
H49 H 0.3689 0.4017 0.2200
C24 C 0.24188(13) 0.3972(2) 0.35074(11)
H50 H 0.2274 0.2973 0.3470
C25 C 0.25568(14) 0.6045(3) 0.26052(11)
H51 H 0.2430 0.6782 0.2961
H52 H 0.2951 0.6494 0.2304
C26 C 0.09693(13) 0.5770(2) 0.23608(10)
C27 C -0.05747(13) 0.5226(2) 0.19638(11)
C28 C -0.10653(15) 0.4858(3) 0.11976(13)
H53 H -0.1011 0.5667 0.0866
H54 H -0.1671 0.4695 0.1230
H55 H -0.0822 0.3979 0.1014
C29 C -0.09329(15) 0.6645(3) 0.22527(13)
H56 H -0.0646 0.6832 0.2747
H57 H -0.1549 0.6540 0.2255
H58 H -0.0830 0.7457 0.1938
C30 C -0.05972(16) 0.3930(3) 0.24939(13)
H59 H -0.0335 0.3078 0.2303
H60 H -0.1192 0.3710 0.2543
H61 H -0.0279 0.4185 0.2970
O7 O 0.20675(10) 0.5013(2) 0.73328(8)
H62 H 0.1679 0.5497 0.7088
O8 O 0.08088(9) 0.60240(17) 0.62791(7)
O9 O 0.02552(8) 0.52612(16) 0.51133(7)
N3 N 0.16865(11) 0.5364(2) 0.54363(9)
H63 H 0.1701 0.4941 0.5017
C31 C 0.68584(17) 0.4512(3) 0.95402(15)
H64 H 0.7174 0.3724 0.9347
H65 H 0.6477 0.4108 0.9858
H66 H 0.7263 0.5184 0.9818
C32 C 0.63266(18) 0.5330(3) 0.89098(17)
H67 H 0.6720 0.5780 0.8608
H68 H 0.6010 0.6121 0.9111
C33 C 0.56786(15) 0.4361(3) 0.84178(13)
H69 H 0.5998 0.3634 0.8173
H70 H 0.5323 0.3829 0.8725
C34 C 0.50853(15) 0.5228(3) 0.78361(14)
H71 H 0.5445 0.5741 0.7526
H72 H 0.4785 0.5976 0.8085
C35 C 0.44044(14) 0.4326(3) 0.73380(12)
H73 H 0.4068 0.3748 0.7642
H74 H 0.4697 0.3643 0.7047
C36 C 0.37880(13) 0.5311(2) 0.68184(12)
H75 H 0.4125 0.5775 0.6474
H76 H 0.3584 0.6096 0.7112
C37 C 0.29875(12) 0.4583(2) 0.63666(10)
C38 C 0.32490(15) 0.3330(3) 0.58795(12)
H77 H 0.2742 0.2982 0.5558
H78 H 0.3499 0.2531 0.6188
H79 H 0.3670 0.3691 0.5587
C39 C 0.23825(13) 0.3934(2) 0.68739(11)
H80 H 0.2236 0.2936 0.6881
C40 C 0.25052(13) 0.5819(2) 0.58781(11)
H81 H 0.2387 0.6631 0.6196
H82 H 0.2890 0.6189 0.5547
C41 C 0.09115(13) 0.5583(2) 0.56602(10)
C42 C -0.06459(12) 0.5115(2) 0.52708(11)
C43 C -0.11417(14) 0.4735(3) 0.45100(12)
H83 H -0.1085 0.5533 0.4173
H84 H -0.1747 0.4586 0.4546
H85 H -0.0905 0.3846 0.4331
C44 C -0.09725(15) 0.6583(3) 0.55434(13)
H86 H -0.0685 0.6775 0.6038
H87 H -0.1592 0.6528 0.5542
H88 H -0.0846 0.7369 0.5222
C45 C -0.06974(14) 0.3863(3) 0.58180(12)
H89 H -0.0462 0.2976 0.5636
H90 H -0.1296 0.3700 0.5875
H91 H -0.0367 0.4122 0.6288
loop_
_geom_bond_atom_site_label_1
_geom_bond_atom_site_label_2
_geom_bond_site_symmetry_1
_geom_bond_site_symmetry_2
O1 H1 1_555 1_555
O2 C11 1_555 1_555
O3 C11 1_555 1_555
N1 H2 1_555 1_555
C1 H3 1_555 1_555
H4 C1 1_555 1_555
H5 C1 1_555 1_555
C2 C1 1_555 1_555
H6 C2 1_555 1_555
H7 C2 1_555 1_555
C3 C2 1_555 1_555
H8 C3 1_555 1_555
H9 C3 1_555 1_555
C4 C3 1_555 1_555
H10 C4 1_555 1_555
H11 C4 1_555 1_555
C5 C4 1_555 1_555
H12 C5 1_555 1_555
H13 C5 1_555 1_555
C6 C5 1_555 1_555
H14 C6 1_555 1_555
H15 C6 1_555 1_555
C7 C6 1_555 1_555
C8 C7 1_555 1_555
H16 C8 1_555 1_555
H17 C8 1_555 1_555
H18 C8 1_555 1_555
C9 O1 1_555 1_555
H19 C9 1_555 1_555
H20 C9 1_555 1_555
C10 N1 1_555 1_555
H21 C10 1_555 1_555
H22 C10 1_555 1_555
C11 N1 1_555 1_555
C12 O3 1_555 1_555
C13 C12 1_555 1_555
H23 C13 1_555 1_555
H24 C13 1_555 1_555
H25 C13 1_555 1_555
C14 C12 1_555 1_555
H26 C14 1_555 1_555
H27 C14 1_555 1_555
H28 C14 1_555 1_555
C15 C12 1_555 1_555
H29 C15 1_555 1_555
H30 C15 1_555 1_555
H31 C15 1_555 1_555
O4 H32 1_555 1_555
O5 C26 1_555 1_555
O6 C26 1_555 1_555
N2 H33 1_555 1_555
C16 H34 1_555 1_555
H35 C16 1_555 1_555
H36 C16 1_555 1_555
C17 C16 1_555 1_555
H37 C17 1_555 1_555
H38 C17 1_555 1_555
C18 C17 1_555 1_555
H39 C18 1_555 1_555
H40 C18 1_555 1_555
C19 C18 1_555 1_555
H41 C19 1_555 1_555
H42 C19 1_555 1_555
C20 C19 1_555 1_555
H43 C20 1_555 1_555
H44 C20 1_555 1_555
C21 C20 1_555 1_555
H45 C21 1_555 1_555
H46 C21 1_555 1_555
C22 C21 1_555 1_555
C23 C22 1_555 1_555
H47 C23 1_555 1_555
H48 C23 1_555 1_555
H49 C23 1_555 1_555
C24 O4 1_555 1_555
H50 C24 1_555 1_555
C25 N2 1_555 1_555
H51 C25 1_555 1_555
H52 C25 1_555 1_555
C26 N2 1_555 1_555
C27 O6 1_555 1_555
C28 C27 1_555 1_555
H53 C28 1_555 1_555
H54 C28 1_555 1_555
H55 C28 1_555 1_555
C29 C27 1_555 1_555
H56 C29 1_555 1_555
H57 C29 1_555 1_555
H58 C29 1_555 1_555
C30 C27 1_555 1_555
H59 C30 1_555 1_555
H60 C30 1_555 1_555
H61 C30 1_555 1_555
O7 H62 1_555 1_555
O8 C41 1_555 1_555
O9 C41 1_555 1_555
N3 H63 1_555 1_555
C31 H64 1_555 1_555
H65 C31 1_555 1_555
H66 C31 1_555 1_555
C32 C31 1_555 1_555
H67 C32 1_555 1_555
H68 C32 1_555 1_555
C33 C32 1_555 1_555
H69 C33 1_555 1_555
H70 C33 1_555 1_555
C34 C33 1_555 1_555
H71 C34 1_555 1_555
H72 C34 1_555 1_555
C35 C34 1_555 1_555
H73 C35 1_555 1_555
H74 C35 1_555 1_555
C36 C35 1_555 1_555
H75 C36 1_555 1_555
H76 C36 1_555 1_555
C37 C36 1_555 1_555
C38 C37 1_555 1_555
H77 C38 1_555 1_555
H78 C38 1_555 1_555
H79 C38 1_555 1_555
C39 O7 1_555 1_555
H80 C39 1_555 1_555
C40 N3 1_555 1_555
H81 C40 1_555 1_555
H82 C40 1_555 1_555
C41 N3 1_555 1_555
C42 O9 1_555 1_555
C43 C42 1_555 1_555
H83 C43 1_555 1_555
H84 C43 1_555 1_555
H85 C43 1_555 1_555
C44 C42 1_555 1_555
H86 C44 1_555 1_555
H87 C44 1_555 1_555
H88 C44 1_555 1_555
C45 C42 1_555 1_555
H89 C45 1_555 1_555
H90 C45 1_555 1_555
H91 C45 1_555 1_555
C7 C9 1_555 1_555
C7 C10 1_555 1_555
C22 C24 1_555 1_555
C22 C25 1_555 1_555
C37 C39 1_555 1_555
C37 C40 1_555 1_555

#END
