
#######################################################################
#
#                 Cambridge Crystallographic Data Centre
#                                CCDC 
#
#######################################################################
#
# If this CIF has been generated from an entry in the Cambridge 
# Structural Database, then it will include bibliographic, chemical, 
# crystal, experimental, refinement or atomic coordinate data resulting 
# from the CCDC's data processing and validation procedures.
#
#######################################################################

data_DEQLUJ
_chemical_formula_moiety         'C20 H10 Cl1 N3 O2,C2 H6 O1 S1'
_chemical_name_systematic        
'[2-(4-chlorophenyl)-4-oxo-1,4-dihydro[1]benzopyrano[4,3-b]pyrrol-3-yl]propanedinitrile dimethyl sulfoxide solvate'
_symmetry_cell_setting           monoclinic
_symmetry_space_group_name_H-M   'P 21/n'
_symmetry_Int_Tables_number      14
_space_group_name_Hall           '-P 2yn'
loop_
_symmetry_equiv_pos_site_id
_symmetry_equiv_pos_as_xyz
1 x,y,z
2 1/2-x,1/2+y,1/2-z
3 -x,-y,-z
4 1/2+x,1/2-y,1/2+z
_cell_length_a                   9.6222(15)
_cell_length_b                   11.9371(19)
_cell_length_c                   18.584(3)
_cell_angle_alpha                90
_cell_angle_beta                 96.735(7)
_cell_angle_gamma                90
_cell_volume                     2119.85
_exptl_crystal_colour            yellow
_exptl_crystal_description       Needle
_cell_formula_units_Z            4
loop_
_atom_site_label
_atom_site_type_symbol
_atom_site_fract_x
_atom_site_fract_y
_atom_site_fract_z
Cl1 Cl 0.29416(9) 1.07657(6) 0.80447(5)
O1 O -0.12743(15) 0.27465(11) 0.87064(8)
O2 O -0.27189(15) 0.37346(12) 0.79428(8)
N1 N 0.10960(16) 0.55718(12) 0.90950(9)
H1 H 0.1843 0.5718 0.9380
N2 N -0.1932(3) 0.49818(19) 0.64854(11)
N3 N -0.4187(2) 0.6569(2) 0.80863(15)
C1 C 0.2219(2) 0.94662(18) 0.82149(12)
C2 C 0.0792(2) 0.93861(17) 0.82077(12)
H2 H 0.0228 1.0014 0.8112
C3 C 0.0205(2) 0.83611(15) 0.83444(11)
H3 H -0.0759 0.8305 0.8347
C4 C 0.10388(19) 0.74124(14) 0.84788(10)
C5 C 0.04283(18) 0.63066(14) 0.85974(10)
C6 C 0.03974(19) 0.45817(14) 0.90672(10)
C7 C 0.0724(2) 0.35548(15) 0.94570(10)
C8 C -0.0138(2) 0.26495(16) 0.92293(11)
C9 C 0.0116(3) 0.15889(17) 0.95181(13)
H4 H -0.0463 0.0992 0.9362
C10 C 0.1237(3) 0.14322(19) 1.00397(13)
H5 H 0.1431 0.0719 1.0227
C11 C 0.3074(2) 0.85496(19) 0.83459(14)
H6 H 0.4037 0.8617 0.8349
C12 C 0.2479(2) 0.75239(17) 0.84737(12)
H7 H 0.3051 0.6898 0.8558
C13 C 0.2083(2) 0.23255(18) 1.02888(12)
H8 H 0.2824 0.2212 1.0649
C14 C 0.1826(2) 0.33798(17) 1.00037(11)
H9 H 0.2390 0.3978 1.0176
C15 C -0.1663(2) 0.37425(15) 0.83659(11)
C16 C -0.07388(19) 0.46717(14) 0.85464(10)
C17 C -0.07272(18) 0.57715(14) 0.82480(10)
C18 C -0.1749(2) 0.62297(15) 0.76437(11)
H10 H -0.1399 0.6961 0.7506
C19 C -0.1868(2) 0.55075(17) 0.69954(12)
C20 C -0.3140(2) 0.64072(18) 0.78824(13)
S1 S 0.53801(7) 0.34812(6) 0.97557(4)
O3 O 0.67892(19) 0.40215(16) 0.98148(10)
C21 C 0.4529(3) 0.3877(3) 0.88946(16)
H11 H 0.4322 0.4663 0.8895
H12 H 0.3674 0.3461 0.8793
H13 H 0.5130 0.3720 0.8529
C22 C 0.5679(4) 0.2049(3) 0.9578(2)
H14 H 0.6253 0.1988 0.9191
H15 H 0.4800 0.1682 0.9442
H16 H 0.6145 0.1702 1.0006
loop_
_geom_bond_atom_site_label_1
_geom_bond_atom_site_label_2
_geom_bond_site_symmetry_1
_geom_bond_site_symmetry_2
Cl1 C1 1_555 1_555
O1 C8 1_555 1_555
O2 C15 1_555 1_555
N1 H1 1_555 1_555
N2 C19 1_555 1_555
N3 C20 1_555 1_555
C1 C2 1_555 1_555
C2 H2 1_555 1_555
C3 C2 1_555 1_555
H3 C3 1_555 1_555
C4 C3 1_555 1_555
C5 N1 1_555 1_555
C6 N1 1_555 1_555
C7 C6 1_555 1_555
C8 C7 1_555 1_555
C9 C8 1_555 1_555
H4 C9 1_555 1_555
C10 C9 1_555 1_555
H5 C10 1_555 1_555
C11 C1 1_555 1_555
H6 C11 1_555 1_555
C12 C4 1_555 1_555
H7 C12 1_555 1_555
C13 C10 1_555 1_555
H8 C13 1_555 1_555
C14 C7 1_555 1_555
H9 C14 1_555 1_555
C15 O1 1_555 1_555
C16 C6 1_555 1_555
C17 C5 1_555 1_555
C18 C17 1_555 1_555
H10 C18 1_555 1_555
C19 C18 1_555 1_555
C20 C18 1_555 1_555
S1 O3 1_555 1_555
C21 S1 1_555 1_555
H11 C21 1_555 1_555
H12 C21 1_555 1_555
H13 C21 1_555 1_555
C22 S1 1_555 1_555
H14 C22 1_555 1_555
H15 C22 1_555 1_555
H16 C22 1_555 1_555
C4 C5 1_555 1_555
C11 C12 1_555 1_555
C13 C14 1_555 1_555
C15 C16 1_555 1_555
C16 C17 1_555 1_555

#END
