
#######################################################################
#
#                 Cambridge Crystallographic Data Centre
#                                CCDC 
#
#######################################################################
#
# If this CIF has been generated from an entry in the Cambridge 
# Structural Database, then it will include bibliographic, chemical, 
# crystal, experimental, refinement or atomic coordinate data resulting 
# from the CCDC's data processing and validation procedures.
#
#######################################################################

data_DEQTEB
_chemical_formula_moiety         'C30 H19 N9 O7 S1,2(C2 H3 N1)'
_chemical_name_systematic        
'27-acetyl-2,7,17,22-tetraoxa-12-thia-4,5,19,20,27,35,36,41,42-nonaazaheptacyclo[26.2.2.2^3,6^.2^8,11^.2^13,16^.2^18,21^.2^23,26^]dotetraconta-1(30),3,5,8,10,13,15,18,20,23,25,28,31,33,35,37,39,41-octadecaene-12,12-dione acetonitrile solvate'
_symmetry_cell_setting           orthorhombic
_symmetry_space_group_name_H-M   'P b c a'
_symmetry_Int_Tables_number      61
_space_group_name_Hall           '-P 2ac 2ab'
loop_
_symmetry_equiv_pos_site_id
_symmetry_equiv_pos_as_xyz
1 x,y,z
2 1/2-x,-y,1/2+z
3 -x,1/2+y,1/2-z
4 1/2+x,1/2-y,-z
5 -x,-y,-z
6 1/2+x,y,1/2-z
7 x,1/2-y,1/2+z
8 1/2-x,1/2+y,z
_cell_length_a                   23.99410(19)
_cell_length_b                   11.75950(8)
_cell_length_c                   24.61960(16)
_cell_angle_alpha                90
_cell_angle_beta                 90
_cell_angle_gamma                90
_cell_volume                     6946.63
_exptl_crystal_colour            red
_exptl_crystal_description       block
_cell_formula_units_Z            8
loop_
_atom_site_label
_atom_site_type_symbol
_atom_site_fract_x
_atom_site_fract_y
_atom_site_fract_z
S1 S 0.53996(2) 0.55967(4) 0.60967(2)
O1 O 0.35607(6) 0.36223(14) 0.96122(5)
O2 O 0.06221(6) 0.18393(13) 0.87102(5)
O3 O 0.32667(6) 0.39961(14) 0.51946(5)
O4 O 0.16230(6) 0.26678(14) 0.64102(5)
O5 O 0.54344(7) 0.68120(14) 0.60430(6)
O6 O 0.58390(6) 0.48973(16) 0.58829(6)
N1 N 0.15334(7) 0.23393(14) 0.86751(6)
N2 N 0.38939(7) 0.40469(14) 0.87577(6)
N3 N 0.23786(7) 0.34557(15) 0.52902(6)
N4 N 0.19651(7) 0.31221(14) 0.56004(6)
O7 O 0.52902(6) 0.4533(2) 0.84290(6)
N5 N 0.43405(7) 0.42715(14) 0.84516(6)
N6 N 0.25472(7) 0.32598(15) 0.63836(6)
N7 N 0.44691(7) 0.40279(15) 0.95469(6)
N8 N 0.29707(7) 0.35840(15) 0.60678(6)
N9 N 0.49074(7) 0.42685(17) 0.92490(7)
C1 C 0.39840(8) 0.38990(16) 0.92813(7)
C2 C 0.15443(8) 0.24246(17) 0.80908(7)
C3 C 0.10626(8) 0.20236(16) 0.89481(7)
C4 C 0.37731(8) 0.43811(19) 0.54168(7)
C5 C 0.20871(8) 0.36669(17) 0.92252(7)
H1 H 0.1774 0.4122 0.9272
C6 C 0.20720(9) 0.30358(16) 0.61349(7)
C7 C 0.28644(8) 0.36706(16) 0.55418(7)
C8 C 0.53269(8) 0.52795(17) 0.67952(8)
C9 C 0.25989(8) 0.39965(17) 0.94448(7)
H2 H 0.2633 0.4672 0.9639
C10 C 0.20497(8) 0.26587(16) 0.89373(7)
C11 C 0.30217(8) 0.22823(17) 0.90853(7)
H3 H 0.3335 0.1824 0.9044
C12 C 0.25119(8) 0.19688(16) 0.88670(7)
H4 H 0.2480 0.1294 0.8673
C13 C 0.47653(8) 0.51372(17) 0.58059(7)
C14 C 0.30504(8) 0.32961(17) 0.93668(7)
C15 C 0.16295(9) 0.26045(18) 0.69808(7)
C16 C 0.48188(8) 0.43512(19) 0.87096(8)
C17 C 0.38026(9) 0.54671(19) 0.56182(8)
H5 H 0.3489 0.5932 0.5622
C18 C 0.17221(9) 0.34328(18) 0.78569(8)
H6 H 0.1814 0.4048 0.8077
C19 C 0.43088(9) 0.58606(17) 0.58168(8)
H7 H 0.4341 0.6594 0.5954
C20 C 0.11072(9) 0.19080(19) 0.95555(7)
H8 H 0.1116 0.2650 0.9718
H9 H 0.1443 0.1506 0.9646
H10 H 0.0791 0.1494 0.9690
C21 C 0.14460(9) 0.15986(18) 0.72032(8)
H11 H 0.1353 0.0987 0.6981
C22 C 0.14013(9) 0.15093(18) 0.77661(8)
H12 H 0.1276 0.0837 0.7923
C23 C 0.42277(10) 0.36629(18) 0.53905(8)
H13 H 0.4196 0.2939 0.5242
C24 C 0.17640(10) 0.35320(18) 0.72958(8)
H14 H 0.1880 0.4209 0.7137
C25 C 0.47329(9) 0.40525(18) 0.55925(9)
H15 H 0.5047 0.3588 0.5584
C26 C 0.52571(9) 0.4780(2) 0.78729(8)
C27 C 0.53868(11) 0.4168(2) 0.69624(9)
H16 H 0.5444 0.3592 0.6710
C28 C 0.53604(12) 0.3918(2) 0.75114(10)
H17 H 0.5412 0.3177 0.7633
C29 C 0.52381(14) 0.6137(2) 0.71641(10)
H18 H 0.5205 0.6885 0.7046
C30 C 0.51981(14) 0.5884(3) 0.77146(10)
H19 H 0.5133 0.6455 0.7968
N10 N 0.23040(11) 0.5895(2) 0.58214(11)
C31 C 0.18426(13) 0.5842(2) 0.58996(11)
C32 C 0.12499(15) 0.5764(4) 0.59901(18)
H20 H 0.1065 0.5616 0.5652
H21 H 0.1116 0.6468 0.6139
H22 H 0.1174 0.5156 0.6240
C33 C 0.1714(2) 0.8409(3) 0.75388(16)
H23 H 0.1983 0.8782 0.7312
H24 H 0.1754 0.8671 0.7906
H25 H 0.1345 0.8581 0.7411
C34 C 0.1802(2) 0.7191(4) 0.75194(15)
N11 N 0.1873(3) 0.6271(3) 0.7519(2)
loop_
_geom_bond_atom_site_label_1
_geom_bond_atom_site_label_2
_geom_bond_site_symmetry_1
_geom_bond_site_symmetry_2
S1 O5 1_555 1_555
O1 C1 1_555 1_555
O2 C3 1_555 1_555
O3 C4 1_555 1_555
O4 C6 1_555 1_555
O6 S1 1_555 1_555
N1 C2 1_555 1_555
N2 N5 1_555 1_555
N3 N4 1_555 1_555
N4 C6 1_555 1_555
O7 C16 1_555 1_555
N5 C16 1_555 1_555
N6 N8 1_555 1_555
N7 N9 1_555 1_555
N8 C7 1_555 1_555
N9 C16 1_555 1_555
C1 N2 1_555 1_555
C2 C18 1_555 1_555
C3 N1 1_555 1_555
C4 C17 1_555 1_555
C5 H1 1_555 1_555
C6 N6 1_555 1_555
C7 O3 1_555 1_555
C8 S1 1_555 1_555
C9 C5 1_555 1_555
H2 C9 1_555 1_555
C10 N1 1_555 1_555
C11 H3 1_555 1_555
C12 C10 1_555 1_555
H4 C12 1_555 1_555
C13 S1 1_555 1_555
C14 O1 1_555 1_555
C15 O4 1_555 1_555
C17 H5 1_555 1_555
C18 H6 1_555 1_555
C19 C13 1_555 1_555
H7 C19 1_555 1_555
C20 C3 1_555 1_555
H8 C20 1_555 1_555
H9 C20 1_555 1_555
H10 C20 1_555 1_555
C21 C15 1_555 1_555
H11 C21 1_555 1_555
C22 C2 1_555 1_555
H12 C22 1_555 1_555
C23 C4 1_555 1_555
H13 C23 1_555 1_555
C24 C15 1_555 1_555
H14 C24 1_555 1_555
C25 C13 1_555 1_555
H15 C25 1_555 1_555
C26 O7 1_555 1_555
C27 C8 1_555 1_555
H16 C27 1_555 1_555
C28 C26 1_555 1_555
H17 C28 1_555 1_555
C29 C8 1_555 1_555
H18 C29 1_555 1_555
C30 C26 1_555 1_555
H19 C30 1_555 1_555
N10 C31 1_555 1_555
C31 C32 1_555 1_555
C32 H20 1_555 1_555
H21 C32 1_555 1_555
H22 C32 1_555 1_555
C33 H23 1_555 1_555
H24 C33 1_555 1_555
H25 C33 1_555 1_555
C34 C33 1_555 1_555
N11 C34 1_555 1_555
N3 C7 1_555 1_555
N7 C1 1_555 1_555
C5 C10 1_555 1_555
C9 C14 1_555 1_555
C11 C12 1_555 1_555
C11 C14 1_555 1_555
C17 C19 1_555 1_555
C18 C24 1_555 1_555
C21 C22 1_555 1_555
C23 C25 1_555 1_555
C27 C28 1_555 1_555
C29 C30 1_555 1_555

#END
