
#######################################################################
#
#                 Cambridge Crystallographic Data Centre
#                                CCDC 
#
#######################################################################
#
# If this CIF has been generated from an entry in the Cambridge 
# Structural Database, then it will include bibliographic, chemical, 
# crystal, experimental, refinement or atomic coordinate data resulting 
# from the CCDC's data processing and validation procedures.
#
#######################################################################

data_DEQVIH
_chemical_formula_moiety         'C36 H28 O4'
_chemical_name_systematic        
'8-phenyl-2-(2-phenylethenyl)bicyclo[3.2.1]octa-3,6-diene-3,6-diyl dibenzoate'
_symmetry_cell_setting           triclinic
_symmetry_space_group_name_H-M   'P -1'
_symmetry_Int_Tables_number      2
_space_group_name_Hall           '-P 1'
loop_
_symmetry_equiv_pos_site_id
_symmetry_equiv_pos_as_xyz
1 x,y,z
2 -x,-y,-z
_cell_length_a                   9.7897(12)
_cell_length_b                   11.1406(14)
_cell_length_c                   13.5075(17)
_cell_angle_alpha                106.467(2)
_cell_angle_beta                 92.086(2)
_cell_angle_gamma                95.017(2)
_cell_volume                     1404.44
_exptl_crystal_colour            colorless
_exptl_crystal_description       prismatic
_cell_formula_units_Z            2
loop_
_atom_site_label
_atom_site_type_symbol
_atom_site_fract_x
_atom_site_fract_y
_atom_site_fract_z
O1 O 0.58318(14) 0.70058(15) 0.55975(10)
O2 O 0.70326(11) 0.70347(11) 0.70449(8)
O3 O 0.66285(12) 0.66370(11) 1.06995(10)
O4 O 0.52501(11) 0.81281(9) 1.06059(7)
C1 C 0.58242(15) 0.70804(15) 0.75858(12)
C2 C 0.55787(15) 0.81441(15) 0.82537(12)
H1 H 0.6157 0.8878 0.8335
C3 C 0.43352(15) 0.81446(14) 0.88853(11)
H2 H 0.4063 0.8987 0.9203
C4 C 0.31708(15) 0.72269(14) 0.81880(12)
H3 H 0.3145 0.7351 0.7498
C5 C 0.37703(16) 0.59821(14) 0.81402(12)
H4 H 0.3066 0.5262 0.7919
C6 C 0.42927(16) 0.62101(14) 0.92534(12)
H5 H 0.4371 0.5598 0.9593
C7 C 0.46174(15) 0.74297(14) 0.96569(11)
C8 C 0.49858(16) 0.58248(14) 0.74148(12)
H6 H 0.4600 0.5548 0.6697
C9 C 0.58524(17) 0.48357(16) 0.75775(13)
H7 H 0.6428 0.5043 0.8177
C10 C 0.58566(16) 0.37046(15) 0.69377(12)
H8 H 0.5340 0.3542 0.6314
C11 C 0.65819(16) 0.26603(15) 0.70888(12)
C12 C 0.73522(19) 0.27225(18) 0.79935(15)
H9 H 0.7445 0.3465 0.8534
C13 C 0.7980(2) 0.1700(2) 0.80995(18)
H10 H 0.8492 0.1760 0.8708
C14 C 0.7852(2) 0.0600(2) 0.73144(19)
H11 H 0.8274 -0.0089 0.7389
C15 C 0.7106(2) 0.05181(19) 0.64233(18)
H12 H 0.7022 -0.0228 0.5887
C16 C 0.6474(2) 0.15345(17) 0.63116(14)
H13 H 0.5964 0.1461 0.5699
C17 C 0.17618(16) 0.73626(16) 0.86142(12)
C18 C 0.10395(19) 0.6444(2) 0.89562(15)
H14 H 0.1430 0.5711 0.8952
C19 C -0.0271(2) 0.6621(3) 0.93055(17)
H15 H -0.0749 0.6003 0.9535
C20 C -0.0862(2) 0.7694(3) 0.93146(17)
H16 H -0.1739 0.7801 0.9545
C21 C -0.0156(2) 0.8601(2) 0.89844(16)
H17 H -0.0552 0.9333 0.8993
C22 C 0.11446(18) 0.84402(19) 0.86372(13)
H18 H 0.1614 0.9068 0.8415
C23 C 0.62538(15) 0.76563(14) 1.10658(11)
C24 C 0.68341(15) 0.85800(13) 1.20347(11)
C25 C 0.61684(18) 0.96020(15) 1.25404(12)
H19 H 0.5322 0.9724 1.2270
C26 C 0.6754(2) 1.04396(18) 1.34420(14)
H20 H 0.6300 1.1123 1.3783
C27 C 0.8010(2) 1.02653(19) 1.38384(14)
H21 H 0.8405 1.0834 1.4447
C28 C 0.8683(2) 0.9261(2) 1.33431(16)
H22 H 0.9534 0.9151 1.3613
C29 C 0.80981(18) 0.84087(17) 1.24414(14)
H23 H 0.8552 0.7722 1.2108
C30 C 0.69088(18) 0.69429(15) 0.60245(13)
C31 C 0.82367(18) 0.67895(15) 0.55444(13)
C32 C 0.94287(18) 0.67367(16) 0.60976(14)
H24 H 0.9415 0.6815 0.6801
C33 C 1.0644(2) 0.65682(18) 0.56112(18)
H25 H 1.1447 0.6537 0.5988
C34 C 1.0667(2) 0.64473(18) 0.4571(2)
H26 H 1.1485 0.6330 0.4243
C35 C 0.9489(3) 0.6499(2) 0.40170(19)
H27 H 0.9508 0.6415 0.3313
C36 C 0.8271(2) 0.6676(2) 0.44954(16)
H28 H 0.7475 0.6719 0.4116
loop_
_geom_bond_atom_site_label_1
_geom_bond_atom_site_label_2
_geom_bond_site_symmetry_1
_geom_bond_site_symmetry_2
O1 C30 1_555 1_555
O2 C1 1_555 1_555
O3 C23 1_555 1_555
O4 C7 1_555 1_555
C1 C2 1_555 1_555
C2 H1 1_555 1_555
C3 C2 1_555 1_555
H2 C3 1_555 1_555
C4 C3 1_555 1_555
H3 C4 1_555 1_555
C5 C4 1_555 1_555
H4 C5 1_555 1_555
C6 C5 1_555 1_555
H5 C6 1_555 1_555
C7 C3 1_555 1_555
C8 C1 1_555 1_555
H6 C8 1_555 1_555
C9 C8 1_555 1_555
H7 C9 1_555 1_555
C10 C9 1_555 1_555
H8 C10 1_555 1_555
C11 C10 1_555 1_555
C12 C11 1_555 1_555
H9 C12 1_555 1_555
C13 C12 1_555 1_555
H10 C13 1_555 1_555
C14 C13 1_555 1_555
H11 C14 1_555 1_555
C15 C14 1_555 1_555
H12 C15 1_555 1_555
C16 C11 1_555 1_555
H13 C16 1_555 1_555
C17 C4 1_555 1_555
C18 C17 1_555 1_555
H14 C18 1_555 1_555
C19 C18 1_555 1_555
H15 C19 1_555 1_555
C20 C19 1_555 1_555
H16 C20 1_555 1_555
C21 C20 1_555 1_555
H17 C21 1_555 1_555
C22 C17 1_555 1_555
H18 C22 1_555 1_555
C23 O4 1_555 1_555
C24 C23 1_555 1_555
C25 C24 1_555 1_555
H19 C25 1_555 1_555
C26 C25 1_555 1_555
H20 C26 1_555 1_555
C27 C26 1_555 1_555
H21 C27 1_555 1_555
C28 C27 1_555 1_555
H22 C28 1_555 1_555
C29 C24 1_555 1_555
H23 C29 1_555 1_555
C30 O2 1_555 1_555
C31 C30 1_555 1_555
C32 C31 1_555 1_555
H24 C32 1_555 1_555
C33 C32 1_555 1_555
H25 C33 1_555 1_555
C34 C33 1_555 1_555
H26 C34 1_555 1_555
C35 C34 1_555 1_555
H27 C35 1_555 1_555
C36 C31 1_555 1_555
H28 C36 1_555 1_555
C5 C8 1_555 1_555
C6 C7 1_555 1_555
C15 C16 1_555 1_555
C21 C22 1_555 1_555
C28 C29 1_555 1_555
C35 C36 1_555 1_555

#END
