
#######################################################################
#
#                 Cambridge Crystallographic Data Centre
#                                CCDC 
#
#######################################################################
#
# If this CIF has been generated from an entry in the Cambridge 
# Structural Database, then it will include bibliographic, chemical, 
# crystal, experimental, refinement or atomic coordinate data resulting 
# from the CCDC's data processing and validation procedures.
#
#######################################################################

data_DERBUA
_chemical_formula_moiety         'C15 H19 N1 O7 S1'
_chemical_name_systematic        
'dimethyl 5-(2-methoxy-2-oxoethyl)-3-(morpholin-4-yl)thiophene-2,4-dicarboxylate'
_symmetry_cell_setting           monoclinic
_symmetry_space_group_name_H-M   'P 21/n'
_symmetry_Int_Tables_number      14
_space_group_name_Hall           '-P 2yn'
loop_
_symmetry_equiv_pos_site_id
_symmetry_equiv_pos_as_xyz
1 x,y,z
2 1/2-x,1/2+y,1/2-z
3 -x,-y,-z
4 1/2+x,1/2-y,1/2+z
_cell_length_a                   6.1668(3)
_cell_length_b                   20.6407(10)
_cell_length_c                   13.3138(7)
_cell_angle_alpha                90
_cell_angle_beta                 97.770(2)
_cell_angle_gamma                90
_cell_volume                     1679.12
_exptl_crystal_colour            colorless
_exptl_crystal_description       prismatic
_cell_formula_units_Z            4
loop_
_atom_site_label
_atom_site_type_symbol
_atom_site_fract_x
_atom_site_fract_y
_atom_site_fract_z
S1 S 0.34756(11) 0.26804(3) 0.68312(5)
N1 N 0.3495(3) 0.37032(11) 0.93145(16)
O1 O 0.4324(3) 0.42215(10) 1.12830(14)
O2 O 0.7278(3) 0.27957(9) 0.94105(14)
O3 O 0.7242(3) 0.22057(10) 0.79980(15)
O4 O 0.1320(4) 0.41400(12) 0.53140(19)
O5 O -0.1466(4) 0.37237(11) 0.43074(17)
O6 O 0.0426(3) 0.46470(9) 0.79592(16)
O7 O -0.2193(3) 0.40127(9) 0.71548(16)
C1 C 0.4472(4) 0.29600(12) 0.80233(19)
C2 C 0.3120(4) 0.34258(12) 0.83587(18)
C3 C 0.1259(4) 0.35487(12) 0.76102(18)
C4 C 0.1207(4) 0.31633(12) 0.67658(19)
C5 C 0.5433(4) 0.40958(12) 0.9616(2)
H1 H 0.5133 0.4543 0.9422
H2 H 0.6626 0.3944 0.9271
C6 C 0.6085(5) 0.40543(14) 1.0741(2)
H3 H 0.6565 0.3617 1.0920
H4 H 0.7306 0.4344 1.0939
C7 C 0.2470(5) 0.38262(17) 1.0981(2)
H5 H 0.1299 0.3949 1.1361
H6 H 0.2842 0.3377 1.1136
C8 C 0.1687(4) 0.38918(16) 0.9859(2)
H7 H 0.0433 0.3613 0.9666
H8 H 0.1258 0.4336 0.9697
C9 C 0.6440(4) 0.26656(12) 0.8566(2)
C10 C 0.9210(5) 0.18877(17) 0.8464(3)
H9 H 1.0336 0.2205 0.8641
H10 H 0.9687 0.1582 0.7996
H11 H 0.8917 0.1665 0.9064
C11 C -0.0363(4) 0.31598(13) 0.58056(19)
H12 H -0.1848 0.3163 0.5971
H13 H -0.0169 0.2764 0.5435
C12 C -0.0048(5) 0.37342(14) 0.5138(2)
C13 C -0.1303(7) 0.4243(2) 0.3584(3)
H14 H -0.1422 0.4653 0.3911
H15 H -0.2463 0.4202 0.3029
H16 H 0.0083 0.4217 0.3333
C14 C -0.0179(4) 0.41279(13) 0.76161(19)
C15 C -0.3651(5) 0.45629(16) 0.6970(3)
H17 H -0.3702 0.4793 0.7593
H18 H -0.5092 0.4414 0.6710
H19 H -0.3124 0.4846 0.6485
loop_
_geom_bond_atom_site_label_1
_geom_bond_atom_site_label_2
_geom_bond_site_symmetry_1
_geom_bond_site_symmetry_2
S1 C1 1_555 1_555
N1 C2 1_555 1_555
O1 C6 1_555 1_555
O2 C9 1_555 1_555
O3 C9 1_555 1_555
O4 C12 1_555 1_555
O5 C12 1_555 1_555
O6 C14 1_555 1_555
O7 C14 1_555 1_555
C1 C2 1_555 1_555
C2 C3 1_555 1_555
C3 C4 1_555 1_555
C4 S1 1_555 1_555
C5 N1 1_555 1_555
H1 C5 1_555 1_555
H2 C5 1_555 1_555
C6 C5 1_555 1_555
H3 C6 1_555 1_555
H4 C6 1_555 1_555
C7 O1 1_555 1_555
H5 C7 1_555 1_555
H6 C7 1_555 1_555
C8 N1 1_555 1_555
H7 C8 1_555 1_555
H8 C8 1_555 1_555
C9 C1 1_555 1_555
C10 O3 1_555 1_555
H9 C10 1_555 1_555
H10 C10 1_555 1_555
H11 C10 1_555 1_555
C11 C4 1_555 1_555
H12 C11 1_555 1_555
H13 C11 1_555 1_555
C12 C11 1_555 1_555
C13 O5 1_555 1_555
H14 C13 1_555 1_555
H15 C13 1_555 1_555
H16 C13 1_555 1_555
C14 C3 1_555 1_555
C15 O7 1_555 1_555
H17 C15 1_555 1_555
H18 C15 1_555 1_555
H19 C15 1_555 1_555
C7 C8 1_555 1_555

#END
