
#######################################################################
#
#                 Cambridge Crystallographic Data Centre
#                                CCDC 
#
#######################################################################
#
# If this CIF has been generated from an entry in the Cambridge 
# Structural Database, then it will include bibliographic, chemical, 
# crystal, experimental, refinement or atomic coordinate data resulting 
# from the CCDC's data processing and validation procedures.
#
#######################################################################

data_DERREA
_chemical_formula_moiety         'C22 H15 O2 P1 S1'
_chemical_name_systematic        
6-[(naphthalen-2-yl)sulfanyl]-6H-6-dibenzo[c,e][1,2]oxaphosphinin-6-one
_symmetry_cell_setting           orthorhombic
_symmetry_space_group_name_H-M   'P 21 21 21'
_symmetry_Int_Tables_number      19
_space_group_name_Hall           'P 2ac 2ab'
loop_
_symmetry_equiv_pos_site_id
_symmetry_equiv_pos_as_xyz
1 x,y,z
2 1/2-x,-y,1/2+z
3 -x,1/2+y,1/2-z
4 1/2+x,1/2-y,-z
_cell_length_a                   6.4640(7)
_cell_length_b                   13.667(2)
_cell_length_c                   20.093(3)
_cell_angle_alpha                90
_cell_angle_beta                 90
_cell_angle_gamma                90
_cell_volume                     1775.09
_exptl_crystal_colour            colorless
_exptl_crystal_description       block
_cell_formula_units_Z            4
loop_
_atom_site_label
_atom_site_type_symbol
_atom_site_fract_x
_atom_site_fract_y
_atom_site_fract_z
P1 P 0.55633(9) 0.46496(5) 0.04807(3)
S1 S 0.32451(9) 0.51333(5) 0.11191(3)
O1 O 0.4543(2) 0.38281(11) 0.00351(8)
O2 O 0.7403(2) 0.42921(13) 0.08111(9)
C1 C 0.4505(3) 0.57024(16) -0.06246(11)
C2 C 0.5875(3) 0.56171(17) -0.00850(12)
C3 C 0.1220(3) 0.26488(19) 0.20093(12)
C4 C 0.2856(3) 0.24325(19) 0.24546(12)
C5 C 0.3089(3) 0.40744(19) 0.16399(11)
C6 C 0.2826(3) 0.49622(18) -0.07015(11)
C7 C 0.1404(3) 0.34908(19) 0.15977(12)
H1 H 0.0358 0.3641 0.1297
C8 C 0.4562(4) 0.3052(2) 0.24813(12)
H2 H 0.5631 0.2912 0.2776
C9 C 0.4703(3) 0.3857(2) 0.20870(12)
H3 H 0.5857 0.4262 0.2112
C10 C 0.2679(4) 0.1589(2) 0.28622(13)
H4 H 0.3727 0.1444 0.3164
C11 C 0.2886(3) 0.40835(19) -0.03738(12)
C12 C 0.1026(4) 0.0995(2) 0.28211(15)
H5 H 0.0951 0.0441 0.3089
C13 C -0.0569(4) 0.1204(2) 0.23810(14)
H6 H -0.1696 0.0782 0.2354
C14 C -0.0510(4) 0.2019(2) 0.19873(13)
H7 H -0.1610 0.2158 0.1705
C15 C 0.4796(4) 0.64471(19) -0.10716(14)
H8 H 0.3924 0.6492 -0.1439
C16 C 0.7429(3) 0.6312(2) -0.00125(14)
H9 H 0.8330 0.6271 0.0347
C17 C 0.1386(4) 0.3371(2) -0.04455(13)
H10 H 0.1489 0.2777 -0.0222
C18 C 0.1130(4) 0.5130(2) -0.11082(13)
H11 H 0.1019 0.5720 -0.1337
C19 C 0.7651(4) 0.7049(2) -0.04588(16)
H12 H 0.8705 0.7505 -0.0403
C20 C 0.6336(4) 0.7128(2) -0.09930(15)
H13 H 0.6487 0.7636 -0.1297
C21 C -0.0250(4) 0.3563(2) -0.08529(14)
H14 H -0.1276 0.3093 -0.0908
C22 C -0.0404(4) 0.4426(2) -0.11773(14)
H15 H -0.1542 0.4549 -0.1448
loop_
_geom_bond_atom_site_label_1
_geom_bond_atom_site_label_2
_geom_bond_site_symmetry_1
_geom_bond_site_symmetry_2
P1 S1 1_555 1_555
S1 C5 1_555 1_555
O1 P1 1_555 1_555
O2 P1 1_555 1_555
C1 C2 1_555 1_555
C2 P1 1_555 1_555
C3 C4 1_555 1_555
C4 C8 1_555 1_555
C5 C7 1_555 1_555
C6 C1 1_555 1_555
C7 C3 1_555 1_555
H1 C7 1_555 1_555
C8 H2 1_555 1_555
C9 C5 1_555 1_555
H3 C9 1_555 1_555
C10 C4 1_555 1_555
H4 C10 1_555 1_555
C11 O1 1_555 1_555
C12 C10 1_555 1_555
H5 C12 1_555 1_555
C13 C12 1_555 1_555
H6 C13 1_555 1_555
C14 C3 1_555 1_555
H7 C14 1_555 1_555
C15 C1 1_555 1_555
H8 C15 1_555 1_555
C16 C2 1_555 1_555
H9 C16 1_555 1_555
C17 C11 1_555 1_555
H10 C17 1_555 1_555
C18 C6 1_555 1_555
H11 C18 1_555 1_555
C19 C16 1_555 1_555
H12 C19 1_555 1_555
C20 C15 1_555 1_555
H13 C20 1_555 1_555
C21 C17 1_555 1_555
H14 C21 1_555 1_555
C22 C18 1_555 1_555
H15 C22 1_555 1_555
C6 C11 1_555 1_555
C8 C9 1_555 1_555
C13 C14 1_555 1_555
C19 C20 1_555 1_555
C21 C22 1_555 1_555

#END
