
#######################################################################
#
#                 Cambridge Crystallographic Data Centre
#                                CCDC 
#
#######################################################################
#
# If this CIF has been generated from an entry in the Cambridge 
# Structural Database, then it will include bibliographic, chemical, 
# crystal, experimental, refinement or atomic coordinate data resulting 
# from the CCDC's data processing and validation procedures.
#
#######################################################################

data_DERVII
_chemical_formula_moiety         'C15 H14 O2'
_chemical_name_systematic        
3-(cyclopenta-2,4-dien-1-ylidene)-5-methoxy-2,3-dihydro-1H-inden-1-ol
_symmetry_cell_setting           trigonal
_symmetry_space_group_name_H-M   'P 31'
_symmetry_Int_Tables_number      144
_space_group_name_Hall           'P 31'
loop_
_symmetry_equiv_pos_site_id
_symmetry_equiv_pos_as_xyz
1 x,y,z
2 -y,x-y,1/3+z
3 -x+y,-x,2/3+z
_cell_length_a                   12.3941(4)
_cell_length_b                   12.3941(4)
_cell_length_c                   6.5877(2)
_cell_angle_alpha                90
_cell_angle_beta                 90
_cell_angle_gamma                120
_cell_volume                     876.384
_exptl_crystal_colour            orange
_exptl_crystal_description       block
_cell_formula_units_Z            3
_exptl_crystal_recrystallization_method pentane/dichloromethane
loop_
_atom_site_label
_atom_site_type_symbol
_atom_site_fract_x
_atom_site_fract_y
_atom_site_fract_z
C1 C 0.1829(2) 0.1645(2) 0.7780(3)
H1 H 0.230503 0.215508 0.898025
C2 C 0.1466(2) 0.2431(2) 0.6445(4)
H2 H 0.059277 0.192429 0.597930
H3 H 0.154786 0.315340 0.721913
C3 C 0.2349(2) 0.2871(2) 0.4644(3)
C4 C 0.3022(2) 0.2172(2) 0.4682(3)
C5 C 0.3865(2) 0.2132(2) 0.3296(3)
H4 H 0.409931 0.262179 0.209452
C6 C 0.4346(2) 0.1357(2) 0.3729(3)
C7 C 0.3995(2) 0.0620(2) 0.5481(4)
H5 H 0.432626 0.008750 0.573636
C8 C 0.3171(2) 0.0663(2) 0.6836(4)
H6 H 0.292450 0.015750 0.802049
C9 C 0.2704(2) 0.1455(2) 0.6449(3)
O1 O 0.08095(15) 0.05014(15) 0.8492(2)
H7 H 0.043(3) 0.007(3) 0.744(5)
C10 C 0.2431(2) 0.3756(2) 0.3338(3)
C11 C 0.1727(2) 0.4414(2) 0.3559(4)
H8 H 0.115035 0.428582 0.461139
C12 C 0.2037(2) 0.5231(2) 0.2013(4)
H9 H 0.171952 0.577927 0.180202
C13 C 0.2942(2) 0.5134(2) 0.0718(4)
H10 H 0.330204 0.560550 -0.047948
C14 C 0.3185(2) 0.4271(2) 0.1491(3)
H11 H 0.374477 0.403505 0.093800
O2 O 0.51845(16) 0.12321(16) 0.2529(2)
C15 C 0.5622(2) 0.1977(3) 0.0742(4)
H12 H 0.491896 0.176213 -0.017285
H13 H 0.623346 0.182255 0.005799
H14 H 0.601294 0.285989 0.111183
loop_
_geom_bond_atom_site_label_1
_geom_bond_atom_site_label_2
_geom_bond_site_symmetry_1
_geom_bond_site_symmetry_2
C1 H1 1_555 1_555
C2 C1 1_555 1_555
H2 C2 1_555 1_555
H3 C2 1_555 1_555
C3 C2 1_555 1_555
C4 C3 1_555 1_555
C5 C4 1_555 1_555
H4 C5 1_555 1_555
C6 C5 1_555 1_555
C7 C6 1_555 1_555
H5 C7 1_555 1_555
C8 C7 1_555 1_555
H6 C8 1_555 1_555
C9 C1 1_555 1_555
O1 C1 1_555 1_555
H7 O1 1_555 1_555
C10 C3 1_555 1_555
C11 C10 1_555 1_555
H8 C11 1_555 1_555
C12 C11 1_555 1_555
H9 C12 1_555 1_555
C13 C12 1_555 1_555
H10 C13 1_555 1_555
C14 C10 1_555 1_555
H11 C14 1_555 1_555
O2 C6 1_555 1_555
C15 O2 1_555 1_555
H12 C15 1_555 1_555
H13 C15 1_555 1_555
H14 C15 1_555 1_555
C4 C9 1_555 1_555
C8 C9 1_555 1_555
C13 C14 1_555 1_555

#END
