
#######################################################################
#
#                 Cambridge Crystallographic Data Centre
#                                CCDC 
#
#######################################################################
#
# If this CIF has been generated from an entry in the Cambridge 
# Structural Database, then it will include bibliographic, chemical, 
# crystal, experimental, refinement or atomic coordinate data resulting 
# from the CCDC's data processing and validation procedures.
#
#######################################################################

data_DERXAC
_chemical_formula_moiety         
'C28 H67 K1 N4 O8,2(C24 H57 K1 N4 O6),2(C4 H10 O2)'
_chemical_name_systematic        
'tris(2-methylpropane-2-peroxol)-(2-methylpropane-2-peroxolato)-(1,4,7,10-tetramethyl-1,4,7,10-tetraazacyclododecane)-potassium bis(2-methylpropane-2-peroxol)-(2-methylpropane-2-peroxolato)-(1,4,7,10-tetramethyl-1,4,7,10-tetraazacyclododecane)-potassium 2-methylpropane-2-peroxol solvate'
_symmetry_cell_setting           monoclinic
_symmetry_space_group_name_H-M   'P 21/n'
_symmetry_Int_Tables_number      14
_space_group_name_Hall           '-P 2yn'
loop_
_symmetry_equiv_pos_site_id
_symmetry_equiv_pos_as_xyz
1 x,y,z
2 1/2-x,1/2+y,1/2-z
3 -x,-y,-z
4 1/2+x,1/2-y,1/2+z
_cell_length_a                   24.1021(15)
_cell_length_b                   10.3113(9)
_cell_length_c                   47.1284(19)
_cell_angle_alpha                90
_cell_angle_beta                 102.429(2)
_cell_angle_gamma                90
_cell_volume                     11438
_exptl_crystal_colour            colorless
_exptl_crystal_description       rod
_cell_formula_units_Z            4
_chemical_properties_physical    
Air-sensitive,Moisture-sensitive,Oxygen-sensitive
_exptl_crystal_recrystallization_method 
'Re-crystallisation from solvent: n-pentane'
loop_
_atom_site_label
_atom_site_type_symbol
_atom_site_fract_x
_atom_site_fract_y
_atom_site_fract_z
K1 K 0.82424(4) 0.68632(8) 0.41336(2)
N1 N 0.78811(16) 0.8839(3) 0.44787(8)
N2 N 0.90867(16) 0.8708(4) 0.43776(8)
N3 N 0.86312(15) 0.8576(3) 0.37207(8)
N4 N 0.74187(15) 0.8688(3) 0.38282(8)
O1 O 0.82177(15) 0.4018(3) 0.43350(7)
O2 O 0.85422(16) 0.4915(3) 0.45612(7)
O3 O 0.87013(13) 0.4487(4) 0.39447(7)
H1 H 0.8600 0.4262 0.4097
O4 O 0.82099(13) 0.5026(3) 0.37364(6)
O5 O 0.72694(16) 0.5316(4) 0.41678(9)
H2 H 0.7553 0.4826 0.4215
O6 O 0.69794(16) 0.5376(3) 0.43963(9)
C1 C 0.8309(2) 0.9839(5) 0.45625(11)
H3 H 0.8238 1.0294 0.4736
H4 H 0.8270 1.0482 0.4403
C2 C 0.8907(2) 0.9333(5) 0.46286(10)
H5 H 0.9169 1.0061 0.4699
H6 H 0.8947 0.8694 0.4788
C3 C 0.9192(2) 0.9668(5) 0.41683(11)
H7 H 0.9568 1.0069 0.4244
H8 H 0.8902 1.0361 0.4152
C4 C 0.9179(2) 0.9134(5) 0.38679(11)
H9 H 0.9278 0.9841 0.3746
H10 H 0.9475 0.8457 0.3883
C5 C 0.8212(2) 0.9588(5) 0.36220(11)
H11 H 0.8286 0.9970 0.3441
H12 H 0.8263 1.0282 0.3770
C6 C 0.7609(2) 0.9134(5) 0.35659(11)
H13 H 0.7360 0.9851 0.3476
H14 H 0.7563 0.8412 0.3424
C7 C 0.7329(2) 0.9769(5) 0.40099(10)
H15 H 0.6960 1.0181 0.3925
H16 H 0.7630 1.0423 0.4011
C8 C 0.7332(2) 0.9376(5) 0.43177(11)
H17 H 0.7236 1.0143 0.4424
H18 H 0.7032 0.8719 0.4315
C9 C 0.7796(2) 0.8128(5) 0.47349(10)
H19 H 0.8159 0.7762 0.4838
H20 H 0.7523 0.7425 0.4674
H21 H 0.7650 0.8720 0.4864
C10 C 0.9582(2) 0.7884(5) 0.44785(12)
H22 H 0.9688 0.7460 0.4312
H23 H 0.9492 0.7222 0.4611
H24 H 0.9900 0.8414 0.4581
C11 C 0.8714(2) 0.7795(5) 0.34717(10)
H25 H 0.8354 0.7382 0.3379
H26 H 0.9001 0.7127 0.3539
H27 H 0.8841 0.8358 0.3331
C12 C 0.68959(19) 0.7913(5) 0.37441(11)
H28 H 0.6779 0.7608 0.3919
H29 H 0.6967 0.7167 0.3628
H30 H 0.6594 0.8450 0.3629
C13 C 0.8716(2) 0.4193(5) 0.48245(10)
C14 C 0.8991(4) 0.5212(6) 0.50353(13)
H31 H 0.9343 0.5507 0.4983
H32 H 0.9080 0.4848 0.5232
H33 H 0.8731 0.5948 0.5029
C15 C 0.8195(3) 0.3607(7) 0.49107(14)
H34 H 0.7918 0.4293 0.4920
H35 H 0.8309 0.3193 0.5102
H36 H 0.8023 0.2959 0.4766
C16 C 0.9119(2) 0.3126(6) 0.47790(14)
H37 H 0.8938 0.2591 0.4613
H38 H 0.9213 0.2585 0.4954
H39 H 0.9468 0.3511 0.4741
C17 C 0.7996(2) 0.4077(5) 0.35161(10)
C18 C 0.7527(2) 0.4799(5) 0.33205(11)
H40 H 0.7247 0.5075 0.3431
H41 H 0.7343 0.4233 0.3161
H42 H 0.7683 0.5563 0.3242
C19 C 0.8469(3) 0.3736(8) 0.33552(14)
H43 H 0.8599 0.4527 0.3274
H44 H 0.8321 0.3126 0.3197
H45 H 0.8788 0.3337 0.3491
C20 C 0.7777(3) 0.2927(5) 0.36458(13)
H46 H 0.8083 0.2544 0.3793
H47 H 0.7638 0.2285 0.3494
H48 H 0.7465 0.3190 0.3737
C21 C 0.64739(19) 0.4535(4) 0.43268(10)
C22 C 0.6070(2) 0.5019(6) 0.40620(12)
H49 H 0.5993 0.5941 0.4086
H50 H 0.5714 0.4528 0.4034
H51 H 0.6238 0.4906 0.3892
C23 C 0.6652(2) 0.3156(5) 0.42970(14)
H52 H 0.6818 0.3075 0.4125
H53 H 0.6320 0.2587 0.4276
H54 H 0.6935 0.2906 0.4471
C24 C 0.6234(3) 0.4704(7) 0.45967(12)
H55 H 0.6511 0.4390 0.4767
H56 H 0.5881 0.4207 0.4575
H57 H 0.6156 0.5625 0.4622
O7 O 0.96264(16) 0.5671(4) 0.38770(10)
H58 H 0.9590 0.5452 0.4044
O8 O 0.99305(16) 0.4657(4) 0.37563(8)
C25 C 1.0331(2) 0.4091(5) 0.40014(10)
C26 C 1.0766(2) 0.5133(6) 0.41265(13)
H59 H 1.0927 0.5503 0.3970
H60 H 1.1071 0.4745 0.4274
H61 H 1.0580 0.5819 0.4216
C27 C 1.0606(3) 0.3096(6) 0.38342(13)
H62 H 1.0318 0.2477 0.3738
H63 H 1.0906 0.2632 0.3970
H64 H 1.0771 0.3542 0.3688
C28 C 1.0055(2) 0.3496(6) 0.42210(12)
H65 H 0.9861 0.4169 0.4310
H66 H 1.0344 0.3078 0.4372
H67 H 0.9779 0.2847 0.4127
K2 K 0.66578(4) 0.80871(8) 0.58485(2)
N5 N 0.61642(17) 0.6517(4) 0.62345(9)
N6 N 0.74369(15) 0.6392(3) 0.62257(8)
N7 N 0.71417(15) 0.5995(3) 0.55738(8)
N8 N 0.58823(15) 0.6108(4) 0.55755(9)
O9 O 0.71570(14) 1.0731(4) 0.59174(7)
O10 O 0.70690(14) 1.0129(3) 0.61914(6)
O11 O 0.61967(14) 1.0755(3) 0.56191(7)
H68 H 0.6519 1.0948 0.5718
O12 O 0.62581(13) 0.9815(3) 0.53937(6)
O13 O 0.7816(2) 0.9289(5) 0.56946(12)
H69 H 0.7588 0.9777 0.5756
O14 O 0.83489(17) 0.9441(4) 0.58634(14)
O15 O 0.54764(15) 0.9379(3) 0.58294(8)
H70 H 0.5251 0.9613 0.5676
O16 O 0.53857(13) 1.0176(3) 0.60720(7)
C29 C 0.6589(3) 0.5689(7) 0.64023(18)
H71 H 0.6514 0.5675 0.6601
H72 H 0.6505 0.4804 0.6323
C30 C 0.7147(3) 0.5852(10) 0.64348(16)
H73 H 0.7316 0.4984 0.6483
H74 H 0.7266 0.6384 0.6612
C31 C 0.7654(3) 0.5389(6) 0.60672(13)
H75 H 0.8065 0.5318 0.6154
H76 H 0.7479 0.4569 0.6113
C32 C 0.7607(3) 0.5402(8) 0.57808(13)
H77 H 0.7620 0.4484 0.5721
H78 H 0.7959 0.5810 0.5747
C33 C 0.6718(2) 0.5027(6) 0.54585(16)
H79 H 0.6813 0.4698 0.5277
H80 H 0.6778 0.4297 0.5598
C34 C 0.6153(3) 0.5271(7) 0.53957(19)
H81 H 0.5960 0.4420 0.5386
H82 H 0.6061 0.5637 0.5197
C35 C 0.5654(3) 0.5389(7) 0.57836(14)
H83 H 0.5246 0.5246 0.5697
H84 H 0.5838 0.4526 0.5801
C36 C 0.5685(4) 0.5831(9) 0.60620(18)
H85 H 0.5623 0.5064 0.6178
H86 H 0.5351 0.6401 0.6053
C37 C 0.5950(3) 0.7393(6) 0.64213(14)
H87 H 0.5749 0.6902 0.6546
H88 H 0.5688 0.8009 0.6303
H89 H 0.6267 0.7867 0.6542
C38 C 0.7898(2) 0.7227(6) 0.63578(16)
H90 H 0.7745 0.8019 0.6427
H91 H 0.8122 0.7453 0.6214
H92 H 0.8140 0.6779 0.6522
C39 C 0.7353(3) 0.6568(6) 0.53378(15)
H93 H 0.7533 0.5897 0.5241
H94 H 0.7633 0.7241 0.5415
H95 H 0.7037 0.6957 0.5198
C40 C 0.5429(2) 0.6820(6) 0.53847(13)
H96 H 0.5137 0.6212 0.5287
H97 H 0.5585 0.7291 0.5239
H98 H 0.5260 0.7439 0.5499
C41 C 0.7110(2) 1.1125(4) 0.64102(10)
C42 C 0.7693(2) 1.1764(5) 0.64592(11)
H99 H 0.7988 1.1093 0.6482
H100 H 0.7753 1.2298 0.6635
H101 H 0.7715 1.2313 0.6292
C43 C 0.7044(3) 1.0365(5) 0.66719(11)
H102 H 0.6668 0.9958 0.6634
H103 H 0.7084 1.0947 0.6839
H104 H 0.7338 0.9692 0.6713
C44 C 0.6633(2) 1.2094(5) 0.63163(13)
H105 H 0.6669 1.2500 0.6133
H106 H 0.6655 1.2762 0.6466
H107 H 0.6267 1.1646 0.6289
C45 C 0.62951(19) 1.0493(5) 0.51329(10)
C46 C 0.6304(2) 0.9384(5) 0.49220(11)
H108 H 0.6625 0.8810 0.4999
H109 H 0.6344 0.9733 0.4734
H110 H 0.5948 0.8893 0.4897
C47 C 0.5777(2) 1.1325(6) 0.50294(12)
H111 H 0.5434 1.0791 0.5010
H112 H 0.5791 1.1704 0.4840
H113 H 0.5769 1.2020 0.5170
C48 C 0.6839(2) 1.1264(6) 0.51784(13)
H114 H 0.6828 1.1959 0.5319
H115 H 0.6879 1.1643 0.4993
H116 H 0.7162 1.0692 0.5252
C49 C 0.8668(2) 1.0441(5) 0.57228(10)
C50 C 0.8370(2) 1.1745(5) 0.57273(14)
H117 H 0.8605 1.2434 0.5671
H118 H 0.8312 1.1914 0.5923
H119 H 0.8001 1.1723 0.5590
C51 C 0.9242(2) 1.0451(6) 0.59377(12)
H120 H 0.9425 0.9604 0.5935
H121 H 0.9184 1.0627 0.6134
H122 H 0.9484 1.1126 0.5882
C52 C 0.8747(3) 1.0088(9) 0.54263(13)
H123 H 0.8955 0.9266 0.5436
H124 H 0.8964 1.0771 0.5354
H125 H 0.8375 0.9995 0.5294
C53 C 0.48593(19) 1.0904(5) 0.59802(10)
C54 C 0.4359(2) 0.9977(6) 0.59049(12)
H126 H 0.4407 0.9414 0.5744
H127 H 0.4006 1.0474 0.5847
H128 H 0.4341 0.9445 0.6075
C55 C 0.4904(2) 1.1770(5) 0.57287(10)
H129 H 0.5252 1.2291 0.5780
H130 H 0.4574 1.2347 0.5685
H131 H 0.4917 1.1238 0.5558
C56 C 0.4841(3) 1.1683(6) 0.62500(11)
H132 H 0.4868 1.1095 0.6416
H133 H 0.4483 1.2165 0.6220
H134 H 0.5160 1.2292 0.6289
K3 K 0.49682(3) 0.47032(8) 0.25017(2)
N9 N 0.56613(15) 0.6767(4) 0.28149(7)
N10 N 0.54390(14) 0.6498(3) 0.21570(7)
N11 N 0.41673(14) 0.6301(3) 0.21331(7)
N12 N 0.44012(15) 0.6563(3) 0.27948(7)
O17 O 0.46346(13) 0.2003(3) 0.23905(6)
O18 O 0.46109(12) 0.2699(3) 0.21124(6)
O19 O 0.56280(13) 0.2312(3) 0.26359(6)
H135 H 0.5219 0.2107 0.2558
O20 O 0.55688(12) 0.3015(3) 0.28991(6)
O21 O 0.38048(14) 0.3178(3) 0.25681(7)
H136 H 0.4097 0.2814 0.2536
O22 O 0.33045(14) 0.2741(3) 0.23518(7)
C57 C 0.5800(2) 0.7756(5) 0.26189(10)
H137 H 0.6140 0.8238 0.2720
H138 H 0.5481 0.8380 0.2572
C58 C 0.5910(2) 0.7220(5) 0.23427(11)
H139 H 0.6015 0.7947 0.2228
H140 H 0.6243 0.6635 0.2391
C59 C 0.5011(2) 0.7402(5) 0.20030(11)
H141 H 0.5138 0.7731 0.1830
H142 H 0.4990 0.8152 0.2131
C60 C 0.4434(2) 0.6852(5) 0.19074(11)
H143 H 0.4182 0.7544 0.1806
H144 H 0.4450 0.6165 0.1763
C61 C 0.3954(2) 0.7342(5) 0.22904(11)
H145 H 0.3585 0.7643 0.2174
H146 H 0.4222 0.8080 0.2311
C62 C 0.3875(2) 0.6961(5) 0.25865(11)
H147 H 0.3705 0.7702 0.2671
H148 H 0.3600 0.6234 0.2565
C63 C 0.4746(2) 0.7689(5) 0.29079(12)
H149 H 0.4589 0.8088 0.3065
H150 H 0.4719 0.8338 0.2751
C64 C 0.5356(2) 0.7379(5) 0.30237(11)
H151 H 0.5382 0.6790 0.3192
H152 H 0.5556 0.8191 0.3097
C65 C 0.61601(19) 0.6115(5) 0.29788(11)
H153 H 0.6343 0.5628 0.2846
H154 H 0.6048 0.5517 0.3118
H155 H 0.6426 0.6759 0.3084
C66 C 0.5673(2) 0.5663(5) 0.19598(10)
H156 H 0.5855 0.6201 0.1835
H157 H 0.5365 0.5159 0.1839
H158 H 0.5953 0.5072 0.2073
C67 C 0.37139(19) 0.5424(5) 0.19969(11)
H159 H 0.3545 0.5023 0.2147
H160 H 0.3870 0.4747 0.1891
H161 H 0.3422 0.5912 0.1862
C68 C 0.4219(2) 0.5842(5) 0.30256(10)
H162 H 0.4553 0.5596 0.3175
H163 H 0.4015 0.5059 0.2944
H164 H 0.3968 0.6387 0.3113
C69 C 0.46327(19) 0.1758(4) 0.18871(9)
C70 C 0.4566(2) 0.2600(5) 0.16182(9)
H165 H 0.4208 0.3082 0.1590
H166 H 0.4564 0.2051 0.1448
H167 H 0.4884 0.3212 0.1642
C71 C 0.5214(2) 0.1080(5) 0.19544(10)
H168 H 0.5515 0.1729 0.1967
H169 H 0.5235 0.0462 0.1799
H170 H 0.5262 0.0618 0.2140
C72 C 0.4147(2) 0.0803(5) 0.18599(11)
H171 H 0.4209 0.0248 0.2033
H172 H 0.4130 0.0265 0.1687
H173 H 0.3789 0.1277 0.1843
C73 C 0.55835(19) 0.2117(4) 0.31352(9)
C74 C 0.6126(2) 0.1293(5) 0.31832(11)
H174 H 0.6114 0.0731 0.3014
H175 H 0.6152 0.0759 0.3358
H176 H 0.6458 0.1864 0.3208
C75 C 0.5589(2) 0.3015(5) 0.33899(10)
H177 H 0.5927 0.3567 0.3420
H178 H 0.5594 0.2500 0.3565
H179 H 0.5247 0.3559 0.3350
C76 C 0.5051(2) 0.1285(5) 0.30743(10)
H180 H 0.4714 0.1845 0.3037
H181 H 0.5046 0.0731 0.3243
H182 H 0.5048 0.0741 0.2903
C77 C 0.30162(19) 0.1769(4) 0.24882(10)
C78 C 0.34071(19) 0.0641(4) 0.25942(11)
H183 H 0.3578 0.0330 0.2436
H184 H 0.3189 -0.0062 0.2658
H185 H 0.3708 0.0923 0.2757
C79 C 0.2779(2) 0.2368(5) 0.27266(11)
H186 H 0.3090 0.2706 0.2877
H187 H 0.2569 0.1710 0.2811
H188 H 0.2522 0.3078 0.2647
C80 C 0.2548(2) 0.1332(6) 0.22293(11)
H189 H 0.2307 0.2075 0.2154
H190 H 0.2315 0.0658 0.2293
H191 H 0.2722 0.0984 0.2076
O23 O 0.65312(15) 0.3459(3) 0.25100(9)
H192 H 0.6218 0.3083 0.2500
O24 O 0.69822(14) 0.2733(3) 0.27052(7)
C81 C 0.71948(18) 0.1745(4) 0.25393(10)
C82 C 0.7484(2) 0.2374(5) 0.23151(11)
H193 H 0.7200 0.2838 0.2171
H194 H 0.7663 0.1701 0.2218
H195 H 0.7774 0.2985 0.2413
C83 C 0.67256(19) 0.0816(4) 0.23969(10)
H196 H 0.6531 0.0482 0.2544
H197 H 0.6892 0.0092 0.2309
H198 H 0.6453 0.1276 0.2246
C84 C 0.76257(19) 0.1046(5) 0.27736(10)
H199 H 0.7927 0.1650 0.2862
H200 H 0.7791 0.0318 0.2686
H201 H 0.7436 0.0718 0.2923
loop_
_geom_bond_atom_site_label_1
_geom_bond_atom_site_label_2
_geom_bond_site_symmetry_1
_geom_bond_site_symmetry_2
K1 N1 1_555 1_555
N1 C1 1_555 1_555
N2 K1 1_555 1_555
N3 K1 1_555 1_555
N4 K1 1_555 1_555
O1 K1 1_555 1_555
O2 K1 1_555 1_555
O3 K1 1_555 1_555
H1 O3 1_555 1_555
O4 K1 1_555 1_555
O5 K1 1_555 1_555
H2 O5 1_555 1_555
O6 O5 1_555 1_555
C1 H3 1_555 1_555
H4 C1 1_555 1_555
C2 N2 1_555 1_555
H5 C2 1_555 1_555
H6 C2 1_555 1_555
C3 N2 1_555 1_555
H7 C3 1_555 1_555
H8 C3 1_555 1_555
C4 N3 1_555 1_555
H9 C4 1_555 1_555
H10 C4 1_555 1_555
C5 N3 1_555 1_555
H11 C5 1_555 1_555
H12 C5 1_555 1_555
C6 N4 1_555 1_555
H13 C6 1_555 1_555
H14 C6 1_555 1_555
C7 N4 1_555 1_555
H15 C7 1_555 1_555
H16 C7 1_555 1_555
C8 N1 1_555 1_555
H17 C8 1_555 1_555
H18 C8 1_555 1_555
C9 N1 1_555 1_555
H19 C9 1_555 1_555
H20 C9 1_555 1_555
H21 C9 1_555 1_555
C10 N2 1_555 1_555
H22 C10 1_555 1_555
H23 C10 1_555 1_555
H24 C10 1_555 1_555
C11 N3 1_555 1_555
H25 C11 1_555 1_555
H26 C11 1_555 1_555
H27 C11 1_555 1_555
C12 N4 1_555 1_555
H28 C12 1_555 1_555
H29 C12 1_555 1_555
H30 C12 1_555 1_555
C13 O2 1_555 1_555
C14 C13 1_555 1_555
H31 C14 1_555 1_555
H32 C14 1_555 1_555
H33 C14 1_555 1_555
C15 C13 1_555 1_555
H34 C15 1_555 1_555
H35 C15 1_555 1_555
H36 C15 1_555 1_555
C16 C13 1_555 1_555
H37 C16 1_555 1_555
H38 C16 1_555 1_555
H39 C16 1_555 1_555
C17 O4 1_555 1_555
C18 C17 1_555 1_555
H40 C18 1_555 1_555
H41 C18 1_555 1_555
H42 C18 1_555 1_555
C19 C17 1_555 1_555
H43 C19 1_555 1_555
H44 C19 1_555 1_555
H45 C19 1_555 1_555
C20 C17 1_555 1_555
H46 C20 1_555 1_555
H47 C20 1_555 1_555
H48 C20 1_555 1_555
C21 O6 1_555 1_555
C22 C21 1_555 1_555
H49 C22 1_555 1_555
H50 C22 1_555 1_555
H51 C22 1_555 1_555
C23 C21 1_555 1_555
H52 C23 1_555 1_555
H53 C23 1_555 1_555
H54 C23 1_555 1_555
C24 C21 1_555 1_555
H55 C24 1_555 1_555
H56 C24 1_555 1_555
H57 C24 1_555 1_555
O7 H58 1_555 1_555
O8 O7 1_555 1_555
C25 O8 1_555 1_555
C26 C25 1_555 1_555
H59 C26 1_555 1_555
H60 C26 1_555 1_555
H61 C26 1_555 1_555
C27 C25 1_555 1_555
H62 C27 1_555 1_555
H63 C27 1_555 1_555
H64 C27 1_555 1_555
C28 C25 1_555 1_555
H65 C28 1_555 1_555
H66 C28 1_555 1_555
H67 C28 1_555 1_555
K2 N5 1_555 1_555
N5 C29 1_555 1_555
N6 K2 1_555 1_555
N7 K2 1_555 1_555
N8 K2 1_555 1_555
O9 K2 1_555 1_555
O10 K2 1_555 1_555
O11 K2 1_555 1_555
H68 O11 1_555 1_555
O12 K2 1_555 1_555
O13 K2 1_555 1_555
H69 O13 1_555 1_555
O14 O13 1_555 1_555
O15 K2 1_555 1_555
H70 O15 1_555 1_555
O16 O15 1_555 1_555
C29 H71 1_555 1_555
H72 C29 1_555 1_555
C30 N6 1_555 1_555
H73 C30 1_555 1_555
H74 C30 1_555 1_555
C31 N6 1_555 1_555
H75 C31 1_555 1_555
H76 C31 1_555 1_555
C32 N7 1_555 1_555
H77 C32 1_555 1_555
H78 C32 1_555 1_555
C33 N7 1_555 1_555
H79 C33 1_555 1_555
H80 C33 1_555 1_555
C34 N8 1_555 1_555
H81 C34 1_555 1_555
H82 C34 1_555 1_555
C35 N8 1_555 1_555
H83 C35 1_555 1_555
H84 C35 1_555 1_555
C36 N5 1_555 1_555
H85 C36 1_555 1_555
H86 C36 1_555 1_555
C37 N5 1_555 1_555
H87 C37 1_555 1_555
H88 C37 1_555 1_555
H89 C37 1_555 1_555
C38 N6 1_555 1_555
H90 C38 1_555 1_555
H91 C38 1_555 1_555
H92 C38 1_555 1_555
C39 N7 1_555 1_555
H93 C39 1_555 1_555
H94 C39 1_555 1_555
H95 C39 1_555 1_555
C40 N8 1_555 1_555
H96 C40 1_555 1_555
H97 C40 1_555 1_555
H98 C40 1_555 1_555
C41 O10 1_555 1_555
C42 C41 1_555 1_555
H99 C42 1_555 1_555
H100 C42 1_555 1_555
H101 C42 1_555 1_555
C43 C41 1_555 1_555
H102 C43 1_555 1_555
H103 C43 1_555 1_555
H104 C43 1_555 1_555
C44 C41 1_555 1_555
H105 C44 1_555 1_555
H106 C44 1_555 1_555
H107 C44 1_555 1_555
C45 O12 1_555 1_555
C46 C45 1_555 1_555
H108 C46 1_555 1_555
H109 C46 1_555 1_555
H110 C46 1_555 1_555
C47 C45 1_555 1_555
H111 C47 1_555 1_555
H112 C47 1_555 1_555
H113 C47 1_555 1_555
C48 C45 1_555 1_555
H114 C48 1_555 1_555
H115 C48 1_555 1_555
H116 C48 1_555 1_555
C49 O14 1_555 1_555
C50 C49 1_555 1_555
H117 C50 1_555 1_555
H118 C50 1_555 1_555
H119 C50 1_555 1_555
C51 C49 1_555 1_555
H120 C51 1_555 1_555
H121 C51 1_555 1_555
H122 C51 1_555 1_555
C52 C49 1_555 1_555
H123 C52 1_555 1_555
H124 C52 1_555 1_555
H125 C52 1_555 1_555
C53 O16 1_555 1_555
C54 C53 1_555 1_555
H126 C54 1_555 1_555
H127 C54 1_555 1_555
H128 C54 1_555 1_555
C55 C53 1_555 1_555
H129 C55 1_555 1_555
H130 C55 1_555 1_555
H131 C55 1_555 1_555
C56 C53 1_555 1_555
H132 C56 1_555 1_555
H133 C56 1_555 1_555
H134 C56 1_555 1_555
K3 N9 1_555 1_555
N9 C57 1_555 1_555
N10 K3 1_555 1_555
N11 K3 1_555 1_555
N12 K3 1_555 1_555
O17 K3 1_555 1_555
O18 K3 1_555 1_555
O19 K3 1_555 1_555
H135 O19 1_555 1_555
O20 K3 1_555 1_555
O21 K3 1_555 1_555
H136 O21 1_555 1_555
O22 O21 1_555 1_555
C57 H137 1_555 1_555
H138 C57 1_555 1_555
C58 N10 1_555 1_555
H139 C58 1_555 1_555
H140 C58 1_555 1_555
C59 N10 1_555 1_555
H141 C59 1_555 1_555
H142 C59 1_555 1_555
C60 N11 1_555 1_555
H143 C60 1_555 1_555
H144 C60 1_555 1_555
C61 N11 1_555 1_555
H145 C61 1_555 1_555
H146 C61 1_555 1_555
C62 N12 1_555 1_555
H147 C62 1_555 1_555
H148 C62 1_555 1_555
C63 N12 1_555 1_555
H149 C63 1_555 1_555
H150 C63 1_555 1_555
C64 N9 1_555 1_555
H151 C64 1_555 1_555
H152 C64 1_555 1_555
C65 N9 1_555 1_555
H153 C65 1_555 1_555
H154 C65 1_555 1_555
H155 C65 1_555 1_555
C66 N10 1_555 1_555
H156 C66 1_555 1_555
H157 C66 1_555 1_555
H158 C66 1_555 1_555
C67 N11 1_555 1_555
H159 C67 1_555 1_555
H160 C67 1_555 1_555
H161 C67 1_555 1_555
C68 N12 1_555 1_555
H162 C68 1_555 1_555
H163 C68 1_555 1_555
H164 C68 1_555 1_555
C69 O18 1_555 1_555
C70 C69 1_555 1_555
H165 C70 1_555 1_555
H166 C70 1_555 1_555
H167 C70 1_555 1_555
C71 C69 1_555 1_555
H168 C71 1_555 1_555
H169 C71 1_555 1_555
H170 C71 1_555 1_555
C72 C69 1_555 1_555
H171 C72 1_555 1_555
H172 C72 1_555 1_555
H173 C72 1_555 1_555
C73 O20 1_555 1_555
C74 C73 1_555 1_555
H174 C74 1_555 1_555
H175 C74 1_555 1_555
H176 C74 1_555 1_555
C75 C73 1_555 1_555
H177 C75 1_555 1_555
H178 C75 1_555 1_555
H179 C75 1_555 1_555
C76 C73 1_555 1_555
H180 C76 1_555 1_555
H181 C76 1_555 1_555
H182 C76 1_555 1_555
C77 O22 1_555 1_555
C78 C77 1_555 1_555
H183 C78 1_555 1_555
H184 C78 1_555 1_555
H185 C78 1_555 1_555
C79 C77 1_555 1_555
H186 C79 1_555 1_555
H187 C79 1_555 1_555
H188 C79 1_555 1_555
C80 C77 1_555 1_555
H189 C80 1_555 1_555
H190 C80 1_555 1_555
H191 C80 1_555 1_555
O23 H192 1_555 1_555
O24 O23 1_555 1_555
C81 O24 1_555 1_555
C82 C81 1_555 1_555
H193 C82 1_555 1_555
H194 C82 1_555 1_555
H195 C82 1_555 1_555
C83 C81 1_555 1_555
H196 C83 1_555 1_555
H197 C83 1_555 1_555
H198 C83 1_555 1_555
C84 C81 1_555 1_555
H199 C84 1_555 1_555
H200 C84 1_555 1_555
H201 C84 1_555 1_555
O1 O2 1_555 1_555
O3 O4 1_555 1_555
C1 C2 1_555 1_555
C3 C4 1_555 1_555
C5 C6 1_555 1_555
C7 C8 1_555 1_555
O9 O10 1_555 1_555
O11 O12 1_555 1_555
C29 C30 1_555 1_555
C31 C32 1_555 1_555
C33 C34 1_555 1_555
C35 C36 1_555 1_555
O17 O18 1_555 1_555
O19 O20 1_555 1_555
C57 C58 1_555 1_555
C59 C60 1_555 1_555
C61 C62 1_555 1_555
C63 C64 1_555 1_555

#END
