
#######################################################################
#
#                 Cambridge Crystallographic Data Centre
#                                CCDC 
#
#######################################################################
#
# If this CIF has been generated from an entry in the Cambridge 
# Structural Database, then it will include bibliographic, chemical, 
# crystal, experimental, refinement or atomic coordinate data resulting 
# from the CCDC's data processing and validation procedures.
#
#######################################################################

data_DERZOQ
_chemical_formula_moiety         'C19 H19 N3 O1'
_chemical_name_systematic        
(E)-4-(4-Methylbenzylideneamino)-1,5-dimethyl-2-phenyl-1H-pyrazol-3(2H)-one
_symmetry_cell_setting           orthorhombic
_symmetry_space_group_name_H-M   'P b c a'
_symmetry_Int_Tables_number      61
_space_group_name_Hall           '-P 2ac 2ab'
loop_
_symmetry_equiv_pos_site_id
_symmetry_equiv_pos_as_xyz
1 x,y,z
2 1/2-x,-y,1/2+z
3 -x,1/2+y,1/2-z
4 1/2+x,1/2-y,-z
5 -x,-y,-z
6 1/2+x,y,1/2-z
7 x,1/2-y,1/2+z
8 1/2-x,1/2+y,z
_cell_length_a                   6.9966(8)
_cell_length_b                   17.994(2)
_cell_length_c                   26.469(3)
_cell_angle_alpha                90
_cell_angle_beta                 90
_cell_angle_gamma                90
_cell_volume                     3332.36
_exptl_crystal_colour            yellow
_exptl_crystal_description       block
_cell_formula_units_Z            8
_exptl_crystal_recrystallization_method 'hexane/absolute ethanol'
loop_
_atom_site_label
_atom_site_type_symbol
_atom_site_fract_x
_atom_site_fract_y
_atom_site_fract_z
C1 C 0.4453(3) 0.24467(14) 0.64994(8)
C2 C 0.4641(4) 0.32168(15) 0.64718(9)
H1 H 0.5407 0.3433 0.6225
C3 C 0.3670(4) 0.36576(17) 0.68178(10)
H2 H 0.3786 0.4172 0.6804
C4 C 0.2536(4) 0.33327(19) 0.71810(11)
H3 H 0.1887 0.3630 0.7412
C5 C 0.2358(4) 0.25784(17) 0.72058(10)
H4 H 0.1586 0.2366 0.7452
C6 C 0.3318(4) 0.21280(16) 0.68664(9)
H5 H 0.3198 0.1614 0.6885
C7 C 0.4330(3) 0.15234(13) 0.58073(8)
C8 C 0.5553(3) 0.14420(13) 0.53766(8)
C9 C 0.7177(3) 0.18406(12) 0.54635(8)
C10 C 0.3636(4) 0.07488(12) 0.48357(9)
H6 H 0.2757 0.0704 0.5098
C11 C 0.3197(3) 0.04164(12) 0.43456(9)
C12 C 0.1463(4) 0.00740(13) 0.42664(9)
H7 H 0.0571 0.0060 0.4527
C13 C 0.1024(4) -0.02473(13) 0.38096(9)
H8 H -0.0159 -0.0476 0.3772
C14 C 0.2272(4) -0.02441(14) 0.34018(10)
C15 C 0.4003(4) 0.01168(15) 0.34963(10)
H9 H 0.4890 0.0141 0.3235
C16 C 0.4479(4) 0.04373(14) 0.39496(9)
H10 H 0.5659 0.0667 0.3990
C17 C 0.8697(3) 0.23933(14) 0.62273(9)
H11 H 0.9271 0.1941 0.6345
H12 H 0.8282 0.2683 0.6511
H13 H 0.9616 0.2671 0.6035
C18 C 0.8914(4) 0.18859(14) 0.51411(9)
H14 H 0.9963 0.1649 0.5310
H15 H 0.9222 0.2398 0.5080
H16 H 0.8677 0.1640 0.4825
C19 C 0.1821(5) -0.05746(18) 0.29144(10)
H17 H 0.0546 -0.0772 0.2922
H18 H 0.2709 -0.0968 0.2844
H19 H 0.1910 -0.0202 0.2656
N1 N 0.5377(3) 0.19725(10) 0.61479(7)
N2 N 0.7054(2) 0.22177(10) 0.59076(7)
N3 N 0.5197(3) 0.11003(10) 0.49139(7)
O1 O 0.2687(2) 0.13124(9) 0.58937(6)
loop_
_geom_bond_atom_site_label_1
_geom_bond_atom_site_label_2
_geom_bond_site_symmetry_1
_geom_bond_site_symmetry_2
C1 C2 1_555 1_555
C2 H1 1_555 1_555
C3 C2 1_555 1_555
H2 C3 1_555 1_555
C4 C3 1_555 1_555
H3 C4 1_555 1_555
C5 C4 1_555 1_555
H4 C5 1_555 1_555
C6 C1 1_555 1_555
H5 C6 1_555 1_555
C7 C8 1_555 1_555
C8 C9 1_555 1_555
C9 C18 1_555 1_555
C10 H6 1_555 1_555
C11 C10 1_555 1_555
C12 C11 1_555 1_555
H7 C12 1_555 1_555
C13 C12 1_555 1_555
H8 C13 1_555 1_555
C14 C13 1_555 1_555
C15 C14 1_555 1_555
H9 C15 1_555 1_555
C16 C11 1_555 1_555
H10 C16 1_555 1_555
C17 H11 1_555 1_555
H12 C17 1_555 1_555
H13 C17 1_555 1_555
C18 H14 1_555 1_555
H15 C18 1_555 1_555
H16 C18 1_555 1_555
C19 C14 1_555 1_555
H17 C19 1_555 1_555
H18 C19 1_555 1_555
H19 C19 1_555 1_555
N1 C1 1_555 1_555
N2 C9 1_555 1_555
N3 C8 1_555 1_555
O1 C7 1_555 1_555
C5 C6 1_555 1_555
C7 N1 1_555 1_555
C10 N3 1_555 1_555
C15 C16 1_555 1_555
C17 N2 1_555 1_555
N1 N2 1_555 1_555

#END
