
#######################################################################
#
#                 Cambridge Crystallographic Data Centre
#                                CCDC 
#
#######################################################################
#
# If this CIF has been generated from an entry in the Cambridge 
# Structural Database, then it will include bibliographic, chemical, 
# crystal, experimental, refinement or atomic coordinate data resulting 
# from the CCDC's data processing and validation procedures.
#
#######################################################################

data_DETFUG
_chemical_formula_moiety         'C13 H9 Cl1 N2 O3'
_chemical_name_systematic        
3-((4-chloro-3-nitrophenyl)carbonoimidoyl)phenol
_symmetry_cell_setting           orthorhombic
_symmetry_space_group_name_H-M   'P 21 21 21'
_symmetry_Int_Tables_number      19
_space_group_name_Hall           'P 2ac 2ab'
loop_
_symmetry_equiv_pos_site_id
_symmetry_equiv_pos_as_xyz
1 x,y,z
2 1/2-x,-y,1/2+z
3 -x,1/2+y,1/2-z
4 1/2+x,1/2-y,-z
_cell_length_a                   4.9175(5)
_cell_length_b                   15.3616(15)
_cell_length_c                   15.8675(16)
_cell_angle_alpha                90
_cell_angle_beta                 90
_cell_angle_gamma                90
_cell_volume                     1198.64
_exptl_crystal_colour            red
_exptl_crystal_description       cubic
_chemical_melting_point          '433 K'
_cell_formula_units_Z            4
loop_
_atom_site_label
_atom_site_type_symbol
_atom_site_fract_x
_atom_site_fract_y
_atom_site_fract_z
Cl1 Cl 0.08191(16) 0.16515(5) 0.48474(5)
O1 O -1.4853(4) -0.34847(12) 0.58380(11)
H1 H -1.4392 -0.3385 0.5351
O2 O -0.3200(5) -0.00546(16) 0.30774(12)
C1 C -1.3346(5) -0.29910(17) 0.63728(15)
N1 N -0.7354(4) -0.10775(13) 0.56862(13)
C2 C -0.9898(5) -0.19316(17) 0.66866(15)
C3 C -0.4451(5) -0.03528(16) 0.47011(15)
H2 H -0.5154 -0.0720 0.4289
C4 C -1.2424(7) -0.26093(19) 0.78082(18)
H3 H -1.2777 -0.2675 0.8380
N2 N -0.1624(5) 0.02386(16) 0.35957(15)
C5 C -0.7843(5) -0.13009(18) 0.64413(17)
H4 H -0.6818 -0.1043 0.6866
C6 C -0.1486(5) 0.08346(17) 0.50701(16)
C7 C -1.0433(6) -0.20392(18) 0.75458(16)
H5 H -0.9442 -0.1725 0.7942
C8 C -0.2510(6) 0.02602(17) 0.44848(16)
C9 C -0.4335(6) 0.01612(19) 0.61101(16)
H6 H -0.4939 0.0133 0.6665
C10 C -1.1373(5) -0.24177(16) 0.61072(15)
H7 H -1.1024 -0.2355 0.5534
C11 C -0.5359(5) -0.04253(16) 0.55237(16)
O3 O 0.0650(5) 0.04946(16) 0.34222(13)
C12 C -1.3893(6) -0.30811(18) 0.72299(15)
H8 H -1.5249 -0.3460 0.7410
C13 C -0.2451(6) 0.0781(2) 0.58894(19)
H9 H -0.1818 0.1170 0.6294
loop_
_geom_bond_atom_site_label_1
_geom_bond_atom_site_label_2
_geom_bond_site_symmetry_1
_geom_bond_site_symmetry_2
Cl1 C6 1_555 1_555
O1 H1 1_555 1_555
O2 N2 1_555 1_555
C1 O1 1_555 1_555
N1 C5 1_555 1_555
C2 C5 1_555 1_555
C3 H2 1_555 1_555
C4 H3 1_555 1_555
N2 C8 1_555 1_555
C5 H4 1_555 1_555
C6 C8 1_555 1_555
C7 C2 1_555 1_555
H5 C7 1_555 1_555
C8 C3 1_555 1_555
C9 H6 1_555 1_555
C10 C1 1_555 1_555
H7 C10 1_555 1_555
C11 N1 1_555 1_555
O3 N2 1_555 1_555
C12 C1 1_555 1_555
H8 C12 1_555 1_555
C13 C6 1_555 1_555
H9 C13 1_555 1_555
C2 C10 1_555 1_555
C3 C11 1_555 1_555
C4 C7 1_555 1_555
C4 C12 1_555 1_555
C9 C11 1_555 1_555
C9 C13 1_555 1_555

#END
