
#######################################################################
#
#                 Cambridge Crystallographic Data Centre
#                                CCDC 
#
#######################################################################
#
# If this CIF has been generated from an entry in the Cambridge 
# Structural Database, then it will include bibliographic, chemical, 
# crystal, experimental, refinement or atomic coordinate data resulting 
# from the CCDC's data processing and validation procedures.
#
#######################################################################

data_DETKAR
_chemical_formula_moiety         'C18 H18 N4 O1'
_chemical_name_systematic        
2-ethyl-7-methyl-10-phenyl-3,4-dihydropyrimido[1',2':1,2]pyrrolo[3,4-d]pyridazin-6(2H)-one
_symmetry_cell_setting           monoclinic
_symmetry_space_group_name_H-M   'P c'
_symmetry_Int_Tables_number      7
_space_group_name_Hall           'P -2yc'
loop_
_symmetry_equiv_pos_site_id
_symmetry_equiv_pos_as_xyz
1 x,y,z
2 x,-y,1/2+z
_cell_length_a                   9.2983(4)
_cell_length_b                   11.6582(5)
_cell_length_c                   7.6696(3)
_cell_angle_alpha                90
_cell_angle_beta                 111.626(2)
_cell_angle_gamma                90
_cell_volume                     772.873
_exptl_crystal_colour            yellow
_exptl_crystal_description       block
_chemical_melting_point          '445.75-446.15 K'
_cell_formula_units_Z            2
_exptl_crystal_recrystallization_method 
'Re-crystallisation from solvent: methanol'
loop_
_atom_site_label
_atom_site_type_symbol
_atom_site_fract_x
_atom_site_fract_y
_atom_site_fract_z
O1 O 1.0397(3) 0.3267(2) 1.0010(4)
N1 N 0.5515(3) 0.4064(2) 0.9424(4)
N2 N 0.5221(3) 0.5195(2) 0.9215(4)
N3 N 0.9485(3) 0.7182(2) 0.9515(4)
N4 N 1.0325(3) 0.5235(2) 0.9844(4)
C1 C 0.9719(4) 0.4169(3) 0.9882(4)
C2 C 0.8087(3) 0.4389(3) 0.9715(4)
C3 C 0.6923(4) 0.3638(3) 0.9690(4)
C4 C 0.6331(3) 0.5950(3) 0.9301(4)
C5 C 0.7823(3) 0.5546(2) 0.9558(4)
C6 C 0.9262(3) 0.6125(3) 0.9636(4)
C7 C 1.1051(4) 0.7556(3) 0.9669(5)
H1 H 1.1065 0.7582 0.8398
C8 C 1.2277(4) 0.6710(3) 1.0790(6)
H2 H 1.3268 0.6941 1.0756
H3 H 1.2358 0.6728 1.2088
C9 C 1.1925(4) 0.5506(4) 1.0058(6)
H4 H 1.2045 0.5441 0.8857
H5 H 1.2634 0.4972 1.0926
C10 C 0.5820(4) 0.7164(3) 0.9085(4)
C11 C 0.4425(4) 0.7461(3) 0.7681(5)
H6 H 0.3839 0.6901 0.6863
C12 C 0.3897(5) 0.8581(3) 0.7486(6)
H7 H 0.2967 0.8772 0.6535
C13 C 0.4751(5) 0.9410(3) 0.8703(7)
H8 H 0.4394 1.0162 0.8581
C14 C 0.6142(5) 0.9128(3) 1.0108(6)
H9 H 0.6716 0.9687 1.0940
C15 C 0.6675(4) 0.8012(3) 1.0271(5)
H10 H 0.7624 0.7830 1.1195
C16 C 0.7109(5) 0.2365(3) 0.9962(5)
H11 H 0.6145 0.2034 0.9897
H12 H 0.7890 0.2205 1.1167
H13 H 0.7410 0.2040 0.8997
C17 C 1.1314(4) 0.8756(3) 1.0437(6)
H14 H 1.2334 0.9007 1.0528
H15 H 1.1299 0.8748 1.1695
C18 C 1.0122(6) 0.9621(3) 0.9260(7)
H16 H 1.0357 1.0365 0.9831
H17 H 0.9109 0.9391 0.9186
H18 H 1.0147 0.9652 0.8021
loop_
_geom_bond_atom_site_label_1
_geom_bond_atom_site_label_2
_geom_bond_site_symmetry_1
_geom_bond_site_symmetry_2
O1 C1 1_555 1_555
N1 N2 1_555 1_555
N2 C4 1_555 1_555
N3 C6 1_555 1_555
N4 C1 1_555 1_555
C1 C2 1_555 1_555
C2 C3 1_555 1_555
C3 N1 1_555 1_555
C4 C5 1_555 1_555
C5 C2 1_555 1_555
C6 N4 1_555 1_555
C7 N3 1_555 1_555
H1 C7 1_555 1_555
C8 C7 1_555 1_555
H2 C8 1_555 1_555
H3 C8 1_555 1_555
C9 N4 1_555 1_555
H4 C9 1_555 1_555
H5 C9 1_555 1_555
C10 C4 1_555 1_555
C11 C10 1_555 1_555
H6 C11 1_555 1_555
C12 C11 1_555 1_555
H7 C12 1_555 1_555
C13 C12 1_555 1_555
H8 C13 1_555 1_555
C14 C13 1_555 1_555
H9 C14 1_555 1_555
C15 C10 1_555 1_555
H10 C15 1_555 1_555
C16 C3 1_555 1_555
H11 C16 1_555 1_555
H12 C16 1_555 1_555
H13 C16 1_555 1_555
C17 C7 1_555 1_555
H14 C17 1_555 1_555
H15 C17 1_555 1_555
C18 C17 1_555 1_555
H16 C18 1_555 1_555
H17 C18 1_555 1_555
H18 C18 1_555 1_555
C5 C6 1_555 1_555
C8 C9 1_555 1_555
C14 C15 1_555 1_555

#END
