
#######################################################################
#
#                 Cambridge Crystallographic Data Centre
#                                CCDC 
#
#######################################################################
#
# If this CIF has been generated from an entry in the Cambridge 
# Structural Database, then it will include bibliographic, chemical, 
# crystal, experimental, refinement or atomic coordinate data resulting 
# from the CCDC's data processing and validation procedures.
#
#######################################################################

data_DETPIB
_chemical_formula_moiety         'C42 H30 N8 Na1 1+,Br1 1-,2(C1 H1 Cl3)'
_chemical_name_systematic        
"2,2',2'',9,9',9''-bis(Nitrilo-trimethylene)-tris(1,10-phenanthroline)-sodium bromide chloroform solvate"
_symmetry_cell_setting           monoclinic
_symmetry_space_group_name_H-M   'P 21/c'
_symmetry_Int_Tables_number      14
_space_group_name_Hall           '-P 2ybc'
loop_
_symmetry_equiv_pos_site_id
_symmetry_equiv_pos_as_xyz
1 x,y,z
2 -x,1/2+y,1/2-z
3 -x,-y,-z
4 x,1/2-y,1/2+z
_cell_length_a                   13.454(5)
_cell_length_b                   17.608(5)
_cell_length_c                   19.098(5)
_cell_angle_alpha                90
_cell_angle_beta                 107.67(3)
_cell_angle_gamma                90
_cell_volume                     4310.83
_exptl_crystal_colour            'pale yellow'
_cell_formula_units_Z            4
loop_
_atom_site_label
_atom_site_type_symbol
_atom_site_fract_x
_atom_site_fract_y
_atom_site_fract_z
Br1 Br 0.2382(1) 0.0216(1) 0.0361(1)
Na1 Na 0.1557(3) 0.6679(3) 0.1672(2)
N1 N 0.0936(7) 0.8033(5) 0.0925(5)
N2 N 0.2174(7) 0.5309(5) 0.2430(5)
C1 C 0.1535(9) 0.8112(6) 0.0394(7)
N3 N 0.1432(7) 0.6729(6) 0.0236(5)
C2 C 0.1428(8) 0.7397(7) -0.0071(7)
C3 C 0.1389(10) 0.7473(9) -0.0833(7)
C4 C 0.1334(10) 0.6848(9) -0.1235(7)
C5 C 0.1337(11) 0.5442(9) -0.1308(8)
C6 C 0.1360(10) 0.4762(9) -0.0990(8)
C7 C 0.1403(10) 0.4010(8) 0.0107(8)
C8 C 0.1445(9) 0.3992(7) 0.0850(7)
C9 C 0.1476(8) 0.4679(6) 0.1212(7)
N4 N 0.1447(7) 0.5360(5) 0.0898(5)
C10 C 0.1413(7) 0.5377(6) 0.0163(6)
C11 C 0.1395(8) 0.6106(7) -0.0156(6)
C12 C 0.1370(9) 0.6117(7) -0.0941(7)
C13 C 0.1381(6) 0.4708(6) -0.0240(6)
C14 C 0.1515(9) 0.4698(6) 0.2016(6)
C15 C 0.1195(9) 0.8679(6) 0.1428(7)
N5 N 0.2656(6) 0.7948(5) 0.2181(5)
C16 C 0.2281(9) 0.8626(7) 0.1976(6)
C17 C 0.2790(9) 0.9313(6) 0.2256(7)
C18 C 0.3751(11) 0.9253(8) 0.2725(7)
C19 C 0.5267(10) 0.8488(8) 0.3458(8)
C20 C 0.5683(10) 0.7800(9) 0.3615(7)
C21 C 0.5520(8) 0.6386(9) 0.3504(7)
C22 C 0.4948(8) 0.5781(8) 0.3249(7)
C23 C 0.3915(8) 0.5868(7) 0.2788(6)
N6 N 0.3496(6) 0.6547(5) 0.2592(4)
C24 C 0.4098(8) 0.7170(7) 0.2868(6)
C25 C 0.3654(8) 0.7903(6) 0.2659(6)
C26 C 0.4226(9) 0.8564(7) 0.2957(6)
C27 C 0.5127(8) 0.7113(8) 0.3342(7)
C28 C 0.3261(8) 0.5186(6) 0.2480(6)
C29 C -0.0181(8) 0.8007(6) 0.0548(6)
N7 N -0.0345(6) 0.7269(5) 0.1588(5)
C30 C -0.0777(8) 0.7800(1) 0.1076(5)
C31 C -0.1746(9) 0.8117(7) 0.1017(7)
C32 C -0.2243(8) 0.7932(7) 0.1512(8)
C33 C -0.2314(10) 0.7186(8) 0.2591(8)
C34 C -0.1860(9) 0.6631(8) 0.3091(8)
C35 C -0.0424(10) 0.5726(7) 0.3662(7)
C36 C 0.0503(9) 0.5448(6) 0.3661(6)
C37 C 0.0965(8) 0.5668(6) 0.3123(6)
N8 N 0.0562(6) 0.6207(5) 0.2629(4)
C38 C -0.0360(7) 0.6494(6) 0.2627(6)
C39 C -0.0849(8) 0.7077(6) 0.2066(6)
C40 C -0.1814(8) 0.7377(7) 0.2054(7)
C41 C -0.0893(8) 0.6293(6) 0.3133(6)
C42 C 0.2030(8) 0.5360(6) 0.3165(6)
H1 H 0.246 0.824 0.073
H2 H 0.130 0.862 0.011
H3 H 0.140 0.799 -0.105
H4 H 0.141 0.685 -0.161
H5 H 0.130 0.546 -0.184
H6 H 0.135 0.429 -0.128
H7 H 0.139 0.353 -0.017
H8 H 0.145 0.350 0.111
H9 H 0.076 0.476 0.207
H10 H 0.164 0.425 0.223
H11 H 0.070 0.864 0.169
H12 H 0.104 0.924 0.129
H13 H 0.239 0.986 0.210
H14 H 0.405 0.958 0.302
H15 H 0.569 0.886 0.364
H16 H 0.642 0.776 0.394
H17 H 0.597 0.624 0.369
H18 H 0.514 0.540 0.331
H19 H 0.344 0.479 0.270
H20 H 0.337 0.517 0.186
H21 H -0.047 0.840 0.023
H22 H -0.020 0.754 0.026
H23 H -0.203 0.844 0.058
H24 H -0.277 0.827 0.157
H25 H -0.297 0.744 0.260
H26 H -0.223 0.646 0.344
H27 H -0.063 0.563 0.402
H28 H 0.087 0.508 0.405
H29 H 0.239 0.556 0.332
H30 H 0.217 0.483 0.352
C43 C 0.5516(10) 0.3882(7) 0.4561(7)
Cl1 Cl 0.4310(2) 0.4173(2) 0.4645(2)
Cl2 Cl 0.6151(3) 0.3275(2) 0.5275(2)
Cl3 Cl 0.5332(3) 0.3447(2) 0.3699(2)
H31 H 0.591 0.424 0.472
C44 C 0.4958(18) 0.6417(12) 0.0523(12)
Cl4 Cl 0.6175(5) 0.6148(5) 0.0592(4)
Cl5 Cl 0.4074(5) 0.5964(5) -0.0143(4)
Cl6 Cl 0.4733(9) 0.6311(4) 0.1351(4)
loop_
_geom_bond_atom_site_label_1
_geom_bond_atom_site_label_2
_geom_bond_site_symmetry_1
_geom_bond_site_symmetry_2
Na1 N3 1_555 1_555
N1 C1 1_555 1_555
N2 C14 1_555 1_555
C1 C2 1_555 1_555
N3 C2 1_555 1_555
C2 C3 1_555 1_555
C3 C4 1_555 1_555
C4 C12 1_555 1_555
C5 C6 1_555 1_555
C6 C13 1_555 1_555
C7 C8 1_555 1_555
C8 C9 1_555 1_555
C9 N4 1_555 1_555
N4 Na1 1_555 1_555
C10 N4 1_555 1_555
C11 N3 1_555 1_555
C12 C5 1_555 1_555
C13 C7 1_555 1_555
C14 C9 1_555 1_555
C15 N1 1_555 1_555
N5 Na1 1_555 1_555
C16 C15 1_555 1_555
C17 C16 1_555 1_555
C18 C17 1_555 1_555
C19 C20 1_555 1_555
C20 C27 1_555 1_555
C21 C22 1_555 1_555
C22 C23 1_555 1_555
C23 N6 1_555 1_555
N6 Na1 1_555 1_555
C24 N6 1_555 1_555
C25 N5 1_555 1_555
C26 C18 1_555 1_555
C27 C21 1_555 1_555
C28 N2 1_555 1_555
C29 N1 1_555 1_555
N7 Na1 1_555 1_555
C30 C29 1_555 1_555
C31 C30 1_555 1_555
C32 C31 1_555 1_555
C33 C34 1_555 1_555
C34 C41 1_555 1_555
C35 C36 1_555 1_555
C36 C37 1_555 1_555
C37 N8 1_555 1_555
N8 Na1 1_555 1_555
C38 N8 1_555 1_555
C39 N7 1_555 1_555
C40 C32 1_555 1_555
C41 C35 1_555 1_555
C42 N2 1_555 1_555
C43 Cl1 1_555 1_555
Cl2 C43 1_555 1_555
Cl3 C43 1_555 1_555
C44 Cl4 1_555 1_555
Cl5 C44 1_555 1_555
Cl6 C44 1_555 1_555
H1 C1 1_555 1_555
H2 C1 1_555 1_555
H3 C3 1_555 1_555
H4 C4 1_555 1_555
H5 C5 1_555 1_555
H6 C6 1_555 1_555
H7 C7 1_555 1_555
H8 C8 1_555 1_555
H9 C14 1_555 1_555
H10 C14 1_555 1_555
H11 C15 1_555 1_555
H12 C15 1_555 1_555
H13 C17 1_555 1_555
H14 C18 1_555 1_555
H15 C19 1_555 1_555
H16 C20 1_555 1_555
H17 C21 1_555 1_555
H18 C22 1_555 1_555
H19 C28 1_555 1_555
H20 C28 1_555 1_555
H21 C29 1_555 1_555
H22 C29 1_555 1_555
H23 C31 1_555 1_555
H24 C32 1_555 1_555
H25 C33 1_555 1_555
H26 C34 1_555 1_555
H27 C35 1_555 1_555
H28 C36 1_555 1_555
H29 C42 1_555 1_555
H30 C42 1_555 1_555
H31 C43 1_555 1_555
C10 C11 1_555 1_555
C10 C13 1_555 1_555
C11 C12 1_555 1_555
N5 C16 1_555 1_555
C19 C26 1_555 1_555
C23 C28 1_555 1_555
C24 C25 1_555 1_555
C24 C27 1_555 1_555
C25 C26 1_555 1_555
N7 C30 1_555 1_555
C33 C40 1_555 1_555
C37 C42 1_555 1_555
C38 C39 1_555 1_555
C38 C41 1_555 1_555
C39 C40 1_555 1_555

#END
