
#######################################################################
#
#                 Cambridge Crystallographic Data Centre
#                                CCDC 
#
#######################################################################
#
# If this CIF has been generated from an entry in the Cambridge 
# Structural Database, then it will include bibliographic, chemical, 
# crystal, experimental, refinement or atomic coordinate data resulting 
# from the CCDC's data processing and validation procedures.
#
#######################################################################

data_DETTOO01
_chemical_compound_source        
'Isolated from a medicinal Chinese herb, Clerodendrum trichotomum Thunberg.'
_chemical_name_common            '3-dihydroteuvincenone G'
_chemical_formula_moiety         'C20 H26 O5'
_chemical_name_systematic        
3,7,11-trihydroxy-4,4,9,11b-tetramethyl-1,3,4,4a,5,8,9,11b-octahydrophenanthro[3,2-b]furan-6(2H)-one
_symmetry_cell_setting           monoclinic
_symmetry_space_group_name_H-M   'P 21'
_symmetry_Int_Tables_number      4
_space_group_name_Hall           'P 2yb'
loop_
_symmetry_equiv_pos_site_id
_symmetry_equiv_pos_as_xyz
1 x,y,z
2 -x,1/2+y,-z
_cell_length_a                   11.6575(3)
_cell_length_b                   9.7318(2)
_cell_length_c                   15.2642(4)
_cell_angle_alpha                90
_cell_angle_beta                 93.1370(10)
_cell_angle_gamma                90
_cell_volume                     1729.11
_exptl_crystal_colour            colorless
_exptl_crystal_description       block
_cell_formula_units_Z            4
loop_
_atom_site_label
_atom_site_type_symbol
_atom_site_fract_x
_atom_site_fract_y
_atom_site_fract_z
O1 O 0.94003(17) 0.4333(3) 0.66001(17)
H1 H 0.9587 0.3581 0.6412
O2 O 0.36206(17) 0.5846(2) 0.77311(13)
O3 O 0.19412(17) 0.5888(3) 0.66107(14)
H2 H 0.2272 0.5993 0.7094
O4 O 0.45561(17) 0.2821(2) 0.44045(12)
H3 H 0.4485 0.3113 0.3900
O5 O 0.23227(16) 0.3701(2) 0.39566(12)
C1 C 0.6574(2) 0.3875(4) 0.52977(18)
H4 H 0.6369 0.3238 0.4826
H5 H 0.6495 0.4801 0.5067
C2 C 0.7819(2) 0.3632(4) 0.5618(2)
H6 H 0.7902 0.2694 0.5826
H7 H 0.8310 0.3747 0.5131
C3 C 0.8208(2) 0.4597(4) 0.63436(19)
H8 H 0.8157 0.5534 0.6109
C4 C 0.7460(2) 0.4532(3) 0.71379(18)
C5 C 0.6180(2) 0.4656(3) 0.67917(16)
H9 H 0.6119 0.5579 0.6536
C6 C 0.5358(2) 0.4669(3) 0.75333(17)
H10 H 0.5287 0.3746 0.7765
H11 H 0.5664 0.5255 0.8004
C7 C 0.4208(2) 0.5177(3) 0.72184(17)
C8 C 0.3790(2) 0.4847(3) 0.63359(17)
C9 C 0.4494(2) 0.4101(3) 0.57564(16)
C10 C 0.5739(2) 0.3680(3) 0.60447(16)
C11 C 0.3996(2) 0.3680(3) 0.49516(16)
C12 C 0.2870(2) 0.4075(3) 0.47286(16)
C13 C 0.2193(2) 0.4828(3) 0.52580(18)
C14 C 0.2637(2) 0.5209(3) 0.60784(18)
C15 C 0.1021(2) 0.4989(4) 0.48196(19)
H12 H 0.0816 0.5950 0.4751
H13 H 0.0444 0.4526 0.5146
C16 C 0.1160(2) 0.4300(3) 0.39276(19)
H14 H 0.1100 0.5000 0.3466
C17 C 0.0321(3) 0.3174(4) 0.3707(3)
H15 H 0.0488 0.2774 0.3153
H16 H -0.0444 0.3544 0.3670
H17 H 0.0379 0.2482 0.4155
C18 C 0.7755(3) 0.5799(4) 0.7712(2)
H18 H 0.7463 0.6611 0.7421
H19 H 0.8573 0.5871 0.7807
H20 H 0.7411 0.5704 0.8266
C19 C 0.7723(3) 0.3247(4) 0.7691(2)
H21 H 0.7139 0.3127 0.8104
H22 H 0.8456 0.3349 0.8001
H23 H 0.7738 0.2458 0.7314
C20 C 0.5678(3) 0.2149(3) 0.6295(2)
H24 H 0.5233 0.2048 0.6802
H25 H 0.6441 0.1806 0.6424
H26 H 0.5323 0.1641 0.5814
O6 O 0.93136(18) 0.7865(3) 0.18629(17)
H27 H 0.9491 0.8087 0.2371
O7 O 0.43142(18) 0.3728(2) 0.27213(14)
O8 O 0.23742(17) 0.4507(3) 0.20465(14)
H28 H 0.2811 0.4139 0.2415
O9 O 0.47086(15) 0.6692(2) -0.06934(11)
H29 H 0.4286 0.6536 -0.1129
O10 O 0.23144(15) 0.6694(2) -0.06314(12)
C21 C 0.6488(2) 0.7431(3) 0.0603(2)
H30 H 0.6318 0.7538 -0.0023
H31 H 0.6035 0.8100 0.0904
C22 C 0.7764(2) 0.7713(3) 0.0811(2)
H32 H 0.8216 0.7075 0.0484
H33 H 0.7944 0.8636 0.0621
C23 C 0.8099(2) 0.7575(3) 0.1777(2)
H34 H 0.7691 0.8281 0.2097
C24 C 0.7808(2) 0.6160(3) 0.21544(18)
C25 C 0.6526(2) 0.5842(3) 0.18722(16)
H35 H 0.6086 0.6550 0.2163
C26 C 0.6105(2) 0.4487(3) 0.22431(19)
H36 H 0.6417 0.3726 0.1922
H37 H 0.6375 0.4404 0.2853
C27 C 0.4824(2) 0.4423(3) 0.21745(17)
C28 C 0.4210(2) 0.5152(3) 0.14747(17)
C29 C 0.4823(2) 0.5795(3) 0.07939(16)
C30 C 0.6142(2) 0.5971(3) 0.08826(16)
C31 C 0.4199(2) 0.6224(3) 0.00416(16)
C32 C 0.2996(2) 0.6201(3) 0.00470(16)
C33 C 0.2400(2) 0.5688(3) 0.07191(18)
C34 C 0.2991(2) 0.5098(3) 0.14253(18)
C35 C 0.1133(2) 0.5858(3) 0.04887(19)
H38 H 0.0741 0.6273 0.0967
H39 H 0.0773 0.4987 0.0333
C36 C 0.1152(2) 0.6819(3) -0.0301(2)
H40 H 0.1043 0.7765 -0.0101
C37 C 0.0293(3) 0.6524(5) -0.1037(2)
H41 H 0.0399 0.7155 -0.1509
H42 H -0.0468 0.6627 -0.0836
H43 H 0.0394 0.5601 -0.1240
C38 C 0.7925(3) 0.6274(4) 0.3164(2)
H44 H 0.8672 0.6626 0.3339
H45 H 0.7829 0.5382 0.3418
H46 H 0.7346 0.6885 0.3361
C39 C 0.8646(2) 0.5051(4) 0.1879(2)
H47 H 0.8635 0.5007 0.1250
H48 H 0.8420 0.4178 0.2106
H49 H 0.9407 0.5272 0.2107
C40 C 0.6650(2) 0.4890(3) 0.02764(18)
H50 H 0.6554 0.3990 0.0520
H51 H 0.7453 0.5070 0.0225
H52 H 0.6260 0.4936 -0.0293
loop_
_geom_bond_atom_site_label_1
_geom_bond_atom_site_label_2
_geom_bond_site_symmetry_1
_geom_bond_site_symmetry_2
O1 H1 1_555 1_555
O2 C7 1_555 1_555
O3 H2 1_555 1_555
O4 H3 1_555 1_555
O5 C12 1_555 1_555
C1 H4 1_555 1_555
H5 C1 1_555 1_555
C2 C1 1_555 1_555
H6 C2 1_555 1_555
H7 C2 1_555 1_555
C3 O1 1_555 1_555
H8 C3 1_555 1_555
C4 C3 1_555 1_555
C5 C4 1_555 1_555
H9 C5 1_555 1_555
C6 C5 1_555 1_555
H10 C6 1_555 1_555
H11 C6 1_555 1_555
C7 C6 1_555 1_555
C8 C7 1_555 1_555
C9 C8 1_555 1_555
C10 C1 1_555 1_555
C11 O4 1_555 1_555
C12 C11 1_555 1_555
C13 C12 1_555 1_555
C14 O3 1_555 1_555
C15 C13 1_555 1_555
H12 C15 1_555 1_555
H13 C15 1_555 1_555
C16 O5 1_555 1_555
H14 C16 1_555 1_555
C17 C16 1_555 1_555
H15 C17 1_555 1_555
H16 C17 1_555 1_555
H17 C17 1_555 1_555
C18 C4 1_555 1_555
H18 C18 1_555 1_555
H19 C18 1_555 1_555
H20 C18 1_555 1_555
C19 C4 1_555 1_555
H21 C19 1_555 1_555
H22 C19 1_555 1_555
H23 C19 1_555 1_555
C20 C10 1_555 1_555
H24 C20 1_555 1_555
H25 C20 1_555 1_555
H26 C20 1_555 1_555
O6 H27 1_555 1_555
O7 C27 1_555 1_555
O8 H28 1_555 1_555
O9 H29 1_555 1_555
O10 C32 1_555 1_555
C21 H30 1_555 1_555
H31 C21 1_555 1_555
C22 C21 1_555 1_555
H32 C22 1_555 1_555
H33 C22 1_555 1_555
C23 O6 1_555 1_555
H34 C23 1_555 1_555
C24 C23 1_555 1_555
C25 C24 1_555 1_555
H35 C25 1_555 1_555
C26 C25 1_555 1_555
H36 C26 1_555 1_555
H37 C26 1_555 1_555
C27 C26 1_555 1_555
C28 C27 1_555 1_555
C29 C28 1_555 1_555
C30 C21 1_555 1_555
C31 O9 1_555 1_555
C32 C31 1_555 1_555
C33 C32 1_555 1_555
C34 O8 1_555 1_555
C35 C33 1_555 1_555
H38 C35 1_555 1_555
H39 C35 1_555 1_555
C36 O10 1_555 1_555
H40 C36 1_555 1_555
C37 C36 1_555 1_555
H41 C37 1_555 1_555
H42 C37 1_555 1_555
H43 C37 1_555 1_555
C38 C24 1_555 1_555
H44 C38 1_555 1_555
H45 C38 1_555 1_555
H46 C38 1_555 1_555
C39 C24 1_555 1_555
H47 C39 1_555 1_555
H48 C39 1_555 1_555
H49 C39 1_555 1_555
C40 C30 1_555 1_555
H50 C40 1_555 1_555
H51 C40 1_555 1_555
H52 C40 1_555 1_555
C2 C3 1_555 1_555
C5 C10 1_555 1_555
C8 C14 1_555 1_555
C9 C10 1_555 1_555
C9 C11 1_555 1_555
C13 C14 1_555 1_555
C15 C16 1_555 1_555
C22 C23 1_555 1_555
C25 C30 1_555 1_555
C28 C34 1_555 1_555
C29 C30 1_555 1_555
C29 C31 1_555 1_555
C33 C34 1_555 1_555
C35 C36 1_555 1_555

#END
