
#######################################################################
#
#                 Cambridge Crystallographic Data Centre
#                                CCDC 
#
#######################################################################
#
# If this CIF has been generated from an entry in the Cambridge 
# Structural Database, then it will include bibliographic, chemical, 
# crystal, experimental, refinement or atomic coordinate data resulting 
# from the CCDC's data processing and validation procedures.
#
#######################################################################

data_DEVKOE
_chemical_compound_source        'stems of Tinospora tuberculata BEUMEE'
_chemical_name_common            'Borapetol A methanol solvate'
_chemical_formula_moiety         'C20 H24 O7,C1 H4 O1'
_chemical_name_systematic        
'(5S,8R,10S)-3S,4R-Dihydroxy-15,16-epoxy-cleroda-13(16),14-diene-17,12S:18,6S-diolactone methanol solvate'
_symmetry_cell_setting           monoclinic
_symmetry_space_group_name_H-M   'P 21'
_symmetry_Int_Tables_number      4
_space_group_name_Hall           'P 2yb'
loop_
_symmetry_equiv_pos_site_id
_symmetry_equiv_pos_as_xyz
1 x,y,z
2 -x,1/2+y,-z
_cell_length_a                   12.610(4)
_cell_length_b                   7.974(2)
_cell_length_c                   9.676(2)
_cell_angle_alpha                90
_cell_angle_beta                 93.24(1)
_cell_angle_gamma                90
_cell_volume                     971.387
_exptl_crystal_colour            colorless
_cell_formula_units_Z            2
loop_
_atom_site_label
_atom_site_type_symbol
_atom_site_fract_x
_atom_site_fract_y
_atom_site_fract_z
C1 C 0.8599(4) 0.5049(7) 0.2406(6)
C2 C 0.9671(4) 0.4673(8) 0.1802(5)
C3 C 0.9759(4) 0.2854(7) 0.1398(5)
C4 C 0.9630(4) 0.1741(7) 0.2664(5)
C5 C 0.8689(4) 0.2182(7) 0.3562(5)
C6 C 0.7799(4) 0.1366(7) 0.2658(5)
C7 C 0.6758(4) 0.1277(8) 0.3354(6)
C8 C 0.6466(4) 0.3166(8) 0.3528(5)
C9 C 0.7299(4) 0.4332(7) 0.4297(5)
C10 C 0.8440(4) 0.4069(7) 0.3745(5)
C11 C 0.7286(4) 0.4101(8) 0.5901(5)
C12 C 0.6374(4) 0.3020(8) 0.6352(5)
C13 C 0.6113(4) 0.3302(9) 0.7832(5)
C14 C 0.5339(5) 0.2404(11) 0.8551(6)
C15 C 0.5391(5) 0.2964(12) 0.9838(6)
C16 C 0.6606(6) 0.4339(11) 0.8753(6)
C17 C 0.5393(4) 0.3344(8) 0.4163(5)
C18 C 0.9304(5) -0.0052(8) 0.2196(6)
C19 C 0.8880(4) 0.1238(8) 0.4951(6)
C20 C 0.6943(4) 0.6162(8) 0.4010(6)
O1 O 0.8981(3) 0.2403(5) 0.0321(3)
O2 O 1.0614(3) 0.1707(6) 0.3472(4)
O3 O 0.8240(3) -0.0258(7) 0.2271(4)
O4 O 0.5380(3) 0.3400(6) 0.5531(4)
O5 O 0.6159(4) 0.4184(8) 1.0013(4)
O6 O 0.4574(3) 0.3484(7) 0.3472(4)
O7 O 0.9866(4) -0.1153(6) 0.1819(5)
C21 C 0.2551(5) 0.4060(13) 0.1089(8)
O8 O 0.2440(3) 0.3260(8) 0.2390(5)
loop_
_geom_bond_atom_site_label_1
_geom_bond_atom_site_label_2
_geom_bond_site_symmetry_1
_geom_bond_site_symmetry_2
C1 C2 1_555 1_555
C2 C3 1_555 1_555
C3 C4 1_555 1_555
C4 C5 1_555 1_555
C5 C6 1_555 1_555
C6 C7 1_555 1_555
C7 C8 1_555 1_555
C8 C9 1_555 1_555
C9 C10 1_555 1_555
C10 C1 1_555 1_555
C11 C9 1_555 1_555
C12 C11 1_555 1_555
C13 C12 1_555 1_555
C14 C13 1_555 1_555
C15 C14 1_555 1_555
C16 C13 1_555 1_555
C17 C8 1_555 1_555
C18 C4 1_555 1_555
C19 C5 1_555 1_555
C20 C9 1_555 1_555
O1 C3 1_555 1_555
O2 C4 1_555 1_555
O3 C6 1_555 1_555
O4 C12 1_555 1_555
O5 C15 1_555 1_555
O6 C17 1_555 1_555
O7 C18 1_555 1_555
C21 O8 1_555 1_555
C5 C10 1_555 1_555
C16 O5 1_555 1_555
C17 O4 1_555 1_555
C18 O3 1_555 1_555

#END
