
#######################################################################
#
#                 Cambridge Crystallographic Data Centre
#                                CCDC 
#
#######################################################################
#
# If this CIF has been generated from an entry in the Cambridge 
# Structural Database, then it will include bibliographic, chemical, 
# crystal, experimental, refinement or atomic coordinate data resulting 
# from the CCDC's data processing and validation procedures.
#
#######################################################################

data_DEVPOM
_chemical_formula_moiety         'C25 H31 N1'
_chemical_name_systematic        
(E)-1,4-dicyclohexyl-4-phenylcyclohexa-2,5-dienecarbonitrile
_symmetry_cell_setting           monoclinic
_symmetry_space_group_name_H-M   'P 21/n'
_symmetry_Int_Tables_number      14
_space_group_name_Hall           '-P 2yn'
loop_
_symmetry_equiv_pos_site_id
_symmetry_equiv_pos_as_xyz
1 x,y,z
2 1/2-x,1/2+y,1/2-z
3 -x,-y,-z
4 1/2+x,1/2-y,1/2+z
_cell_length_a                   11.8640(14)
_cell_length_b                   9.3641(9)
_cell_length_c                   19.265(2)
_cell_angle_alpha                90
_cell_angle_beta                 105.658(4)
_cell_angle_gamma                90
_cell_volume                     2060.83
_exptl_crystal_colour            colorless
_exptl_crystal_description       plate
_cell_formula_units_Z            4
loop_
_atom_site_label
_atom_site_type_symbol
_atom_site_fract_x
_atom_site_fract_y
_atom_site_fract_z
N1 N 0.1568(2) 0.25971(19) 0.30778(11)
C1 C 0.17632(15) 0.25619(17) 0.17504(10)
C2 C 0.24890(16) 0.12648(17) 0.16876(9)
H1 H 0.2174 0.0367 0.1724
C3 C 0.35401(16) 0.13313(18) 0.15847(9)
H2 H 0.3911 0.0471 0.1548
C4 C 0.41943(15) 0.26830(17) 0.15209(10)
C5 C 0.34332(15) 0.39613(17) 0.15382(9)
H3 H 0.3728 0.4853 0.1467
C6 C 0.23857(16) 0.39214(17) 0.16463(9)
H4 H 0.2004 0.4784 0.1660
C7 C 0.16477(18) 0.25815(19) 0.24996(12)
C8 C 0.05021(16) 0.24415(19) 0.12280(11)
H5 H 0.0160 0.1558 0.1353
C9 C -0.03102(18) 0.3659(2) 0.13088(14)
H6 H -0.0359 0.3695 0.1803
H7 H 0.0011 0.4559 0.1202
C10 C -0.1535(2) 0.3459(3) 0.08032(15)
H8 H -0.1887 0.2611 0.0944
H9 H -0.2017 0.4272 0.0849
C11 C -0.1509(2) 0.3316(3) 0.00316(15)
H10 H -0.1234 0.4202 -0.0127
H11 H -0.2295 0.3137 -0.0269
C12 C -0.0714(2) 0.2108(3) -0.00523(14)
H12 H -0.0677 0.2066 -0.0549
H13 H -0.1035 0.1211 0.0059
C13 C 0.05218(19) 0.2303(2) 0.04457(11)
H14 H 0.1001 0.1490 0.0396
H15 H 0.0872 0.3153 0.0304
C14 C 0.45181(15) 0.26106(18) 0.07950(10)
C15 C 0.39472(19) 0.3439(2) 0.02140(11)
H16 H 0.3356 0.4056 0.0258
C16 C 0.4243(2) 0.3364(3) -0.04339(12)
H17 H 0.3848 0.3931 -0.0819
C17 C 0.5107(2) 0.2466(3) -0.05114(13)
H18 H 0.5314 0.2432 -0.0944
C18 C 0.5662(2) 0.1619(3) 0.00533(14)
H19 H 0.6242 0.0991 0.0002
C19 C 0.53737(19) 0.1685(2) 0.07015(12)
H20 H 0.5761 0.1098 0.1080
C20 C 0.53306(16) 0.27766(19) 0.21656(10)
H21 H 0.5766 0.1890 0.2157
C21 C 0.61487(18) 0.3998(2) 0.21003(12)
H22 H 0.6344 0.3920 0.1644
H23 H 0.5751 0.4901 0.2104
C22 C 0.72699(19) 0.3974(3) 0.27148(13)
H24 H 0.7705 0.3111 0.2682
H25 H 0.7753 0.4785 0.2668
C23 C 0.7018(2) 0.4027(3) 0.34397(13)
H26 H 0.6656 0.4933 0.3495
H27 H 0.7745 0.3950 0.3818
C24 C 0.6208(2) 0.2815(3) 0.35082(12)
H28 H 0.6019 0.2894 0.3966
H29 H 0.6605 0.1912 0.3503
C25 C 0.50757(19) 0.2834(3) 0.28966(11)
H30 H 0.4596 0.2022 0.2946
H31 H 0.4640 0.3697 0.2929
loop_
_geom_bond_atom_site_label_1
_geom_bond_atom_site_label_2
_geom_bond_site_symmetry_1
_geom_bond_site_symmetry_2
N1 C7 1_555 1_555
C1 C2 1_555 1_555
C2 H1 1_555 1_555
C3 C2 1_555 1_555
H2 C3 1_555 1_555
C4 C3 1_555 1_555
C5 C4 1_555 1_555
H3 C5 1_555 1_555
C6 C1 1_555 1_555
H4 C6 1_555 1_555
C7 C1 1_555 1_555
C8 C1 1_555 1_555
H5 C8 1_555 1_555
C9 C8 1_555 1_555
H6 C9 1_555 1_555
H7 C9 1_555 1_555
C10 C9 1_555 1_555
H8 C10 1_555 1_555
H9 C10 1_555 1_555
C11 C10 1_555 1_555
H10 C11 1_555 1_555
H11 C11 1_555 1_555
C12 C11 1_555 1_555
H12 C12 1_555 1_555
H13 C12 1_555 1_555
C13 C8 1_555 1_555
H14 C13 1_555 1_555
H15 C13 1_555 1_555
C14 C4 1_555 1_555
C15 C14 1_555 1_555
H16 C15 1_555 1_555
C16 C15 1_555 1_555
H17 C16 1_555 1_555
C17 C16 1_555 1_555
H18 C17 1_555 1_555
C18 C17 1_555 1_555
H19 C18 1_555 1_555
C19 C14 1_555 1_555
H20 C19 1_555 1_555
C20 C4 1_555 1_555
H21 C20 1_555 1_555
C21 C20 1_555 1_555
H22 C21 1_555 1_555
H23 C21 1_555 1_555
C22 C21 1_555 1_555
H24 C22 1_555 1_555
H25 C22 1_555 1_555
C23 C22 1_555 1_555
H26 C23 1_555 1_555
H27 C23 1_555 1_555
C24 C23 1_555 1_555
H28 C24 1_555 1_555
H29 C24 1_555 1_555
C25 C20 1_555 1_555
H30 C25 1_555 1_555
H31 C25 1_555 1_555
C5 C6 1_555 1_555
C12 C13 1_555 1_555
C18 C19 1_555 1_555
C24 C25 1_555 1_555

#END
