
#######################################################################
#
#                 Cambridge Crystallographic Data Centre
#                                CCDC 
#
#######################################################################
#
# If this CIF has been generated from an entry in the Cambridge 
# Structural Database, then it will include bibliographic, chemical, 
# crystal, experimental, refinement or atomic coordinate data resulting 
# from the CCDC's data processing and validation procedures.
#
#######################################################################

data_DEVVEI
_chemical_formula_moiety         'C15 H18 N2 O3'
_chemical_name_systematic        
7a-methyl-1-(phenoxyacetyl)hexahydro-5H-pyrrolo[1,2-a]imidazol-5-one
_symmetry_cell_setting           monoclinic
_symmetry_space_group_name_H-M   'P c'
_symmetry_Int_Tables_number      7
_space_group_name_Hall           'P -2yc'
loop_
_symmetry_equiv_pos_site_id
_symmetry_equiv_pos_as_xyz
1 x,y,z
2 x,-y,1/2+z
_cell_length_a                   8.3504(17)
_cell_length_b                   19.872(4)
_cell_length_c                   8.5986(17)
_cell_angle_alpha                90
_cell_angle_beta                 90.39(3)
_cell_angle_gamma                90
_cell_volume                     1426.81
_exptl_crystal_colour            colorless
_exptl_crystal_description       block
_cell_formula_units_Z            4
loop_
_atom_site_label
_atom_site_type_symbol
_atom_site_fract_x
_atom_site_fract_y
_atom_site_fract_z
C1 C 0.8164(3) 1.06336(15) 0.5328(4)
C2 C 0.7166(4) 1.09019(17) 0.6472(4)
H1 H 0.6468 1.0627 0.7021
C3 C 0.7243(5) 1.15834(19) 0.6767(4)
H2 H 0.6589 1.1766 0.7530
C4 C 0.8265(6) 1.20026(19) 0.5962(5)
H3 H 0.8296 1.2462 0.6172
C5 C 0.9231(5) 1.17297(18) 0.4851(5)
H4 H 0.9921 1.2008 0.4301
C6 C 0.9202(4) 1.10479(17) 0.4529(4)
H5 H 0.9878 1.0869 0.3779
C7 C 0.7287(4) 0.95078(15) 0.5794(4)
H6 H 0.7390 0.9624 0.6886
H7 H 0.7712 0.9058 0.5656
C8 C 0.5507(3) 0.95134(13) 0.5331(3)
C9 C 0.5081(4) 0.87156(13) 0.7546(4)
H8 H 0.5697 0.8988 0.8269
H9 H 0.5720 0.8331 0.7236
C10 C 0.3504(4) 0.84896(14) 0.8269(4)
H10 H 0.3585 0.8035 0.8674
H11 H 0.3184 0.8790 0.9100
C11 C 0.1666(4) 0.79809(14) 0.6280(4)
C12 C 0.1295(5) 0.81771(16) 0.4604(4)
H12 H 0.1541 0.7810 0.3901
H13 H 0.0175 0.8296 0.4482
C13 C 0.2357(5) 0.87779(18) 0.4288(4)
H14 H 0.1782 0.9114 0.3687
H15 H 0.3299 0.8642 0.3713
C14 C 0.2833(3) 0.90584(13) 0.5888(4)
C15 C 0.2024(4) 0.97203(15) 0.6298(5)
H16 H 0.0897 0.9688 0.6082
H17 H 0.2477 1.0076 0.5687
H18 H 0.2188 0.9815 0.7382
N1 N 0.4575(3) 0.91144(11) 0.6177(3)
N2 N 0.2390(3) 0.85229(11) 0.6968(3)
O1 O 0.8197(3) 0.99674(11) 0.4897(3)
O2 O 0.5007(2) 0.98488(10) 0.4233(3)
O3 O 0.1402(4) 0.74519(11) 0.6932(3)
C16 C 0.3503(3) 0.42991(14) 0.6854(3)
C17 C 0.2479(4) 0.40125(16) 0.5762(4)
H19 H 0.1779 0.4280 0.5186
C18 C 0.2514(5) 0.33185(17) 0.5541(4)
H20 H 0.1849 0.3124 0.4795
C19 C 0.3520(6) 0.29159(18) 0.6413(5)
H21 H 0.3502 0.2451 0.6281
C20 C 0.4553(5) 0.32020(17) 0.7481(5)
H22 H 0.5267 0.2932 0.8033
C21 C 0.4530(4) 0.38955(16) 0.7736(4)
H23 H 0.5194 0.4087 0.8487
C22 C 0.2677(3) 0.54226(15) 0.6260(4)
H24 H 0.2696 0.5273 0.5186
H25 H 0.3151 0.5868 0.6305
C23 C 0.0940(3) 0.54589(12) 0.6813(3)
C24 C 0.0491(4) 0.62511(13) 0.4578(4)
H26 H 0.1028 0.5963 0.3834
H27 H 0.1194 0.6621 0.4858
C25 C -0.1105(4) 0.65089(14) 0.3925(4)
H28 H -0.0993 0.6960 0.3507
H29 H -0.1510 0.6214 0.3115
C26 C -0.2762(4) 0.70606(15) 0.5947(4)
C27 C -0.3158(4) 0.68727(17) 0.7613(4)
H30 H -0.4268 0.6735 0.7704
H31 H -0.2957 0.7246 0.8314
C28 C -0.2012(4) 0.62802(16) 0.7955(4)
H32 H -0.1022 0.6439 0.8424
H33 H -0.2505 0.5956 0.8647
C29 C -0.1702(3) 0.59667(13) 0.6343(3)
C30 C -0.2632(4) 0.53243(15) 0.6009(4)
H34 H -0.3754 0.5404 0.6164
H35 H -0.2273 0.4975 0.6699
H36 H -0.2457 0.5189 0.4952
N3 N -0.0001(3) 0.58694(10) 0.5960(3)
N4 N -0.2143(3) 0.65050(11) 0.5262(3)
O4 O 0.3599(2) 0.49719(10) 0.7194(3)
O5 O 0.0464(2) 0.51497(9) 0.7961(3)
O6 O -0.2973(3) 0.76005(10) 0.5300(3)
loop_
_geom_bond_atom_site_label_1
_geom_bond_atom_site_label_2
_geom_bond_site_symmetry_1
_geom_bond_site_symmetry_2
C1 C2 1_555 1_555
C2 H1 1_555 1_555
C3 C2 1_555 1_555
H2 C3 1_555 1_555
C4 C3 1_555 1_555
H3 C4 1_555 1_555
C5 C4 1_555 1_555
H4 C5 1_555 1_555
C6 C1 1_555 1_555
H5 C6 1_555 1_555
C7 H6 1_555 1_555
H7 C7 1_555 1_555
C8 C7 1_555 1_555
C9 H8 1_555 1_555
H9 C9 1_555 1_555
C10 C9 1_555 1_555
H10 C10 1_555 1_555
H11 C10 1_555 1_555
C11 C12 1_555 1_555
C12 H12 1_555 1_555
H13 C12 1_555 1_555
C13 C12 1_555 1_555
H14 C13 1_555 1_555
H15 C13 1_555 1_555
C14 C13 1_555 1_555
C15 C14 1_555 1_555
H16 C15 1_555 1_555
H17 C15 1_555 1_555
H18 C15 1_555 1_555
N1 C8 1_555 1_555
N2 C10 1_555 1_555
O1 C1 1_555 1_555
O2 C8 1_555 1_555
O3 C11 1_555 1_555
C16 C17 1_555 1_555
C17 H19 1_555 1_555
C18 C17 1_555 1_555
H20 C18 1_555 1_555
C19 C18 1_555 1_555
H21 C19 1_555 1_555
C20 C19 1_555 1_555
H22 C20 1_555 1_555
C21 C16 1_555 1_555
H23 C21 1_555 1_555
C22 H24 1_555 1_555
H25 C22 1_555 1_555
C23 C22 1_555 1_555
C24 H26 1_555 1_555
H27 C24 1_555 1_555
C25 C24 1_555 1_555
H28 C25 1_555 1_555
H29 C25 1_555 1_555
C26 C27 1_555 1_555
C27 H30 1_555 1_555
H31 C27 1_555 1_555
C28 C27 1_555 1_555
H32 C28 1_555 1_555
H33 C28 1_555 1_555
C29 C28 1_555 1_555
C30 C29 1_555 1_555
H34 C30 1_555 1_555
H35 C30 1_555 1_555
H36 C30 1_555 1_555
N3 C23 1_555 1_555
N4 C25 1_555 1_555
O4 C16 1_555 1_555
O5 C23 1_555 1_555
O6 C26 1_555 1_555
C5 C6 1_555 1_555
C7 O1 1_555 1_555
C9 N1 1_555 1_555
C11 N2 1_555 1_555
C14 N1 1_555 1_555
C14 N2 1_555 1_555
C20 C21 1_555 1_555
C22 O4 1_555 1_555
C24 N3 1_555 1_555
C26 N4 1_555 1_555
C29 N3 1_555 1_555
C29 N4 1_555 1_555

#END
