
#######################################################################
#
#                 Cambridge Crystallographic Data Centre
#                                CCDC 
#
#######################################################################
#
# If this CIF has been generated from an entry in the Cambridge 
# Structural Database, then it will include bibliographic, chemical, 
# crystal, experimental, refinement or atomic coordinate data resulting 
# from the CCDC's data processing and validation procedures.
#
#######################################################################

data_DEWCOY
_chemical_formula_moiety         'C42 H70 O35,C7 H7 N1 O1,6(H2 O1)'
_chemical_name_systematic        
'\b-Cyclodextrin benzamide clathrate hexahydrate'
_symmetry_cell_setting           monoclinic
_symmetry_space_group_name_H-M   'P 21'
_symmetry_Int_Tables_number      4
_space_group_name_Hall           'P 2yb'
loop_
_symmetry_equiv_pos_site_id
_symmetry_equiv_pos_as_xyz
1 x,y,z
2 -x,1/2+y,-z
_cell_length_a                   15.4244(16)
_cell_length_b                   10.1574(11)
_cell_length_c                   20.557(2)
_cell_angle_alpha                90
_cell_angle_beta                 110.074(2)
_cell_angle_gamma                90
_cell_volume                     3025.04
_exptl_crystal_colour            colorless
_exptl_crystal_description       Block
_cell_formula_units_Z            2
loop_
_atom_site_label
_atom_site_type_symbol
_atom_site_fract_x
_atom_site_fract_y
_atom_site_fract_z
O1 O 0.43648(16) 0.8329(3) 0.57571(12)
O2 O 0.54365(16) 1.0030(3) 0.58981(13)
O3 O 0.6929(2) 1.0172(4) 0.71257(14)
H1 H 0.6596 1.0818 0.7088
O4 O 0.37626(16) 0.8647(3) 0.43215(13)
H2 H 0.3568 0.8116 0.4538
O5 O 0.55442(17) 0.8050(3) 0.41791(13)
H3 H 0.5081 0.7709 0.3905
O6 O 0.70286(15) 0.7899(3) 0.53999(12)
O7 O 0.85612(16) 0.8630(3) 0.57416(13)
O8 O 1.04574(16) 0.8540(3) 0.64417(13)
H4 H 1.0239 0.9109 0.6148
O9 O 0.72055(18) 0.6772(3) 0.41987(12)
H5 H 0.6727 0.6967 0.4266
O10 O 0.85404(17) 0.4810(3) 0.49639(13)
H6 H 0.8786 0.4253 0.5258
O11 O 0.93274(15) 0.5316(3) 0.63963(12)
O12 O 1.1548(2) 0.4861(4) 0.88445(15)
H7 H 1.1872 0.5265 0.8669
O13 O 1.06404(16) 0.5278(3) 0.74010(12)
O14 O 0.99099(19) 0.3062(3) 0.59122(13)
H8 H 0.9432 0.3472 0.5720
O15 O 0.9831(2) 0.1406(3) 0.70333(14)
H9 H 1.0066 0.1208 0.6744
O16 O 0.94987(16) 0.2793(3) 0.81222(13)
O17 O 0.97842(16) 0.2792(3) 0.93072(13)
O18 O 0.91969(19) 0.3289(3) 1.04668(13)
H10 H 0.9761 0.3239 1.0587
O19 O 0.94425(19) 0.0123(3) 0.80661(14)
H11 H 0.9744 0.0584 0.7894
O20 O 0.78376(17) -0.0154(3) 0.84755(13)
H12 H 0.7618 -0.0338 0.8063
O21 O 0.73926(16) 0.1996(3) 0.91343(12)
O22 O 0.68315(16) 0.2790(3) 0.99672(12)
O23 O 0.6650(2) 0.5443(3) 1.01215(17)
H13 H 0.7079 0.5014 1.0383
O24 O 0.67231(18) -0.0513(3) 0.92517(14)
H14 H 0.7190 -0.0785 0.9552
O25 O 0.48162(18) 0.0252(3) 0.88153(13)
H15 H 0.4352 0.0539 0.8516
O26 O 0.45701(16) 0.3040(3) 0.86032(12)
O27 O 0.34939(17) 0.4473(3) 0.87748(12)
O28 O 0.24778(19) 0.6866(3) 0.84760(15)
H16 H 0.2410 0.7464 0.8722
O29 O 0.31835(17) 0.1449(3) 0.77706(14)
H17 H 0.2694 0.1046 0.7622
O30 O 0.24278(16) 0.3471(3) 0.67044(12)
H18 H 0.2552 0.3900 0.6410
O31 O 0.32113(16) 0.5939(3) 0.70781(13)
O32 O 0.32576(17) 0.8222(3) 0.70783(13)
O33 O 0.43372(19) 1.0587(3) 0.70442(15)
H19 H 0.3959 1.0737 0.7234
O34 O 0.17695(17) 0.5847(3) 0.58641(13)
H20 H 0.1753 0.5647 0.5474
O35 O 0.25779(19) 0.7401(4) 0.49971(13)
H21 H 0.2971 0.7336 0.4813
C1 C 0.4580(2) 0.9495(4) 0.54770(18)
H24 H 0.4092 1.0144 0.5429
C2 C 0.4613(2) 0.9170(4) 0.47596(18)
H25 H 0.4723 0.9993 0.4552
C3 C 0.5418(2) 0.8244(4) 0.48222(17)
H26 H 0.5309 0.7394 0.5006
C4 C 0.6308(2) 0.8849(4) 0.53121(17)
H27 H 0.6451 0.9655 0.5107
C5 C 0.6210(2) 0.9168(4) 0.60067(18)
H28 H 0.6121 0.8356 0.6233
C6 C 0.7045(3) 0.9916(5) 0.6480(2)
C7 C 0.7774(2) 0.8262(4) 0.51819(17)
H29 H 0.7582 0.9006 0.4861
C8 C 0.7982(2) 0.7095(4) 0.47993(17)
H30 H 0.8491 0.7346 0.4643
C9 C 0.8303(2) 0.5936(4) 0.52886(17)
H31 H 0.7802 0.5687 0.5456
C10 C 0.9128(2) 0.6366(3) 0.59067(17)
H32 H 0.9660 0.6514 0.5758
C11 C 0.8930(2) 0.7615(4) 0.62462(17)
H33 H 0.8487 0.7415 0.6479
C12 C 0.9799(2) 0.8202(4) 0.67662(18)
H34 H 0.9639 0.8984 0.6971
H35 H 1.0073 0.7571 0.7134
C13 C 1.0265(2) 0.4906(4) 0.67005(17)
H36 H 1.0631 0.5298 0.6444
C14 C 1.0267(2) 0.3416(4) 0.66281(18)
H37 H 1.0908 0.3112 0.6818
C15 C 0.9735(2) 0.2797(4) 0.70474(19)
H38 H 0.9081 0.3032 0.6842
C16 C 1.0111(2) 0.3296(4) 0.77914(18)
H39 H 1.0733 0.2944 0.8022
C17 C 1.0136(2) 0.4782(4) 0.78264(18)
H40 H 0.9503 0.5121 0.7650
C18 C 1.0616(2) 0.5310(4) 0.85533(18)
H41 H 1.0611 0.6265 0.8540
H42 H 1.0276 0.5034 0.8849
C19 C 0.9869(2) 0.2075(4) 0.87415(18)
H43 H 1.0524 0.1900 0.8826
C20 C 0.9352(2) 0.0771(4) 0.86476(18)
H44 H 0.9628 0.0225 0.9060
C21 C 0.8341(2) 0.1038(4) 0.85576(18)
H45 H 0.8065 0.1589 0.8147
C22 C 0.8331(2) 0.1784(4) 0.91945(17)
H46 H 0.8641 0.1259 0.9610
C23 C 0.8843(2) 0.3084(4) 0.92360(18)
H47 H 0.8557 0.3560 0.8800
C24 C 0.8846(3) 0.3965(4) 0.98200(18)
H48 H 0.9225 0.4732 0.9830
H49 H 0.8223 0.4265 0.9747
C25 C 0.7145(2) 0.1673(4) 0.97226(17)
H50 H 0.7685 0.1317 1.0089
C26 C 0.6397(2) 0.0627(4) 0.94984(18)
H51 H 0.6235 0.0375 0.9902
C27 C 0.5538(2) 0.1190(4) 0.89514(18)
H52 H 0.5672 0.1347 0.8525
C28 C 0.5266(2) 0.2491(4) 0.91994(17)
H53 H 0.5005 0.2323 0.9564
C29 C 0.6073(2) 0.3452(4) 0.94641(17)
H54 H 0.6256 0.3758 0.9078
C30 C 0.5866(3) 0.4616(4) 0.9844(2)
H55 H 0.5363 0.5122 0.9528
H56 H 0.5669 0.4303 1.0217
C31 C 0.3671(2) 0.3175(4) 0.86213(18)
H57 H 0.3594 0.2581 0.8973
C32 C 0.3009(2) 0.2770(4) 0.79118(18)
H58 H 0.2376 0.2832 0.7914
C33 C 0.3112(2) 0.3703(4) 0.73676(17)
H59 H 0.3728 0.3599 0.7335
C34 C 0.2989(2) 0.5115(4) 0.75636(17)
H60 H 0.2345 0.5260 0.7526
C35 C 0.3630(2) 0.5436(4) 0.83013(17)
H61 H 0.4273 0.5413 0.8321
C36 C 0.3426(3) 0.6757(4) 0.85540(19)
H62 H 0.3799 0.6865 0.9038
H63 H 0.3588 0.7452 0.8293
C37 C 0.2692(2) 0.7102(4) 0.68579(18)
H64 H 0.2196 0.7129 0.7055
C38 C 0.2266(2) 0.7053(4) 0.60679(18)
H65 H 0.1824 0.7780 0.5918
C39 C 0.3000(2) 0.7235(4) 0.57287(17)
H66 H 0.3376 0.6433 0.5810
C40 C 0.3635(2) 0.8378(4) 0.60456(17)
H67 H 0.3298 0.9212 0.5923
C41 C 0.4028(2) 0.8223(4) 0.68284(18)
H68 H 0.4340 0.7368 0.6936
C42 C 0.4698(3) 0.9287(4) 0.72177(19)
H69 H 0.4850 0.9152 0.7711
H70 H 0.5264 0.9207 0.7114
O36 O 0.8998(2) 0.7517(3) 0.80080(16)
N1 N 0.8928(3) 0.7251(4) 0.9097(2)
H22 H 0.9470 0.7574 0.9295
H23 H 0.8608 0.6988 0.9342
C43 C 0.7625(3) 0.6557(5) 0.8081(2)
C44 C 0.8574(3) 0.7156(4) 0.8392(2)
C45 C 0.6966(3) 0.6635(6) 0.8391(3)
H71 H 0.7110 0.7028 0.8824
C46 C 0.5880(3) 0.5499(6) 0.7444(3)
H72 H 0.5293 0.5149 0.7233
C47 C 0.7407(3) 0.5946(6) 0.7446(3)
H73 H 0.7840 0.5910 0.7224
C48 C 0.6097(4) 0.6137(7) 0.8066(3)
H74 H 0.5650 0.6234 0.8272
C49 C 0.6539(4) 0.5383(7) 0.7137(3)
H75 H 0.6405 0.4928 0.6721
O37 O 0.99532(17) 0.0548(3) 0.53967(14)
O38 O 0.15290(17) 0.0262(3) 0.74562(14)
O39 O 0.1894(2) 0.9241(3) 0.88101(14)
O40 O 0.5721(2) 0.2193(3) 0.70941(16)
O41 O 0.5541(11) 0.7409(18) 0.9199(9)
O42 O 0.7840(2) -0.2253(4) 1.02200(18)
loop_
_geom_bond_atom_site_label_1
_geom_bond_atom_site_label_2
_geom_bond_site_symmetry_1
_geom_bond_site_symmetry_2
O1 C1 1_555 1_555
O2 C1 1_555 1_555
O3 H1 1_555 1_555
O4 H2 1_555 1_555
O5 H3 1_555 1_555
O6 C4 1_555 1_555
O7 C7 1_555 1_555
O8 H4 1_555 1_555
O9 H5 1_555 1_555
O10 H6 1_555 1_555
O11 C10 1_555 1_555
O12 H7 1_555 1_555
O13 C13 1_555 1_555
O14 H8 1_555 1_555
O15 H9 1_555 1_555
O16 C16 1_555 1_555
O17 C19 1_555 1_555
O18 H10 1_555 1_555
O19 H11 1_555 1_555
O20 H12 1_555 1_555
O21 C22 1_555 1_555
O22 C25 1_555 1_555
O23 H13 1_555 1_555
O24 H14 1_555 1_555
O25 H15 1_555 1_555
O26 C28 1_555 1_555
O27 C31 1_555 1_555
O28 H16 1_555 1_555
O29 H17 1_555 1_555
O30 H18 1_555 1_555
O31 C34 1_555 1_555
O32 C37 1_555 1_555
O33 H19 1_555 1_555
O34 H20 1_555 1_555
O35 H21 1_555 1_555
O36 C44 1_555 1_555
N1 H22 1_555 1_555
H23 N1 1_555 1_555
C1 H24 1_555 1_555
C2 O4 1_555 1_555
H25 C2 1_555 1_555
C3 O5 1_555 1_555
H26 C3 1_555 1_555
C4 C3 1_555 1_555
H27 C4 1_555 1_555
C5 O2 1_555 1_555
H28 C5 1_555 1_555
C6 O3 1_555 1_555
C7 O6 1_555 1_555
H29 C7 1_555 1_555
C8 O9 1_555 1_555
H30 C8 1_555 1_555
C9 O10 1_555 1_555
H31 C9 1_555 1_555
C10 C9 1_555 1_555
H32 C10 1_555 1_555
C11 O7 1_555 1_555
H33 C11 1_555 1_555
C12 O8 1_555 1_555
H34 C12 1_555 1_555
H35 C12 1_555 1_555
C13 O11 1_555 1_555
H36 C13 1_555 1_555
C14 O14 1_555 1_555
H37 C14 1_555 1_555
C15 O15 1_555 1_555
H38 C15 1_555 1_555
C16 C15 1_555 1_555
H39 C16 1_555 1_555
C17 O13 1_555 1_555
H40 C17 1_555 1_555
C18 O12 1_555 1_555
H41 C18 1_555 1_555
H42 C18 1_555 1_555
C19 O16 1_555 1_555
H43 C19 1_555 1_555
C20 O19 1_555 1_555
H44 C20 1_555 1_555
C21 O20 1_555 1_555
H45 C21 1_555 1_555
C22 C21 1_555 1_555
H46 C22 1_555 1_555
C23 O17 1_555 1_555
H47 C23 1_555 1_555
C24 O18 1_555 1_555
H48 C24 1_555 1_555
H49 C24 1_555 1_555
C25 O21 1_555 1_555
H50 C25 1_555 1_555
C26 O24 1_555 1_555
H51 C26 1_555 1_555
C27 O25 1_555 1_555
H52 C27 1_555 1_555
C28 C27 1_555 1_555
H53 C28 1_555 1_555
C29 O22 1_555 1_555
H54 C29 1_555 1_555
C30 O23 1_555 1_555
H55 C30 1_555 1_555
H56 C30 1_555 1_555
C31 O26 1_555 1_555
H57 C31 1_555 1_555
C32 O29 1_555 1_555
H58 C32 1_555 1_555
C33 O30 1_555 1_555
H59 C33 1_555 1_555
C34 C33 1_555 1_555
H60 C34 1_555 1_555
C35 O27 1_555 1_555
H61 C35 1_555 1_555
C36 O28 1_555 1_555
H62 C36 1_555 1_555
H63 C36 1_555 1_555
C37 O31 1_555 1_555
H64 C37 1_555 1_555
C38 O34 1_555 1_555
H65 C38 1_555 1_555
C39 O35 1_555 1_555
H66 C39 1_555 1_555
C40 O1 1_555 1_555
H67 C40 1_555 1_555
C41 O32 1_555 1_555
H68 C41 1_555 1_555
C42 O33 1_555 1_555
H69 C42 1_555 1_555
H70 C42 1_555 1_555
C43 C44 1_555 1_555
C44 N1 1_555 1_555
C45 C43 1_555 1_555
H71 C45 1_555 1_555
C46 H72 1_555 1_555
C47 C43 1_555 1_555
H73 C47 1_555 1_555
C48 C45 1_555 1_555
H74 C48 1_555 1_555
C49 C46 1_555 1_555
H75 C49 1_555 1_555
C1 C2 1_555 1_555
C2 C3 1_555 1_555
C4 C5 1_555 1_555
C5 C6 1_555 1_555
C7 C8 1_555 1_555
C8 C9 1_555 1_555
C10 C11 1_555 1_555
C11 C12 1_555 1_555
C13 C14 1_555 1_555
C14 C15 1_555 1_555
C16 C17 1_555 1_555
C17 C18 1_555 1_555
C19 C20 1_555 1_555
C20 C21 1_555 1_555
C22 C23 1_555 1_555
C23 C24 1_555 1_555
C25 C26 1_555 1_555
C26 C27 1_555 1_555
C28 C29 1_555 1_555
C29 C30 1_555 1_555
C31 C32 1_555 1_555
C32 C33 1_555 1_555
C34 C35 1_555 1_555
C35 C36 1_555 1_555
C37 C38 1_555 1_555
C38 C39 1_555 1_555
C39 C40 1_555 1_555
C40 C41 1_555 1_555
C41 C42 1_555 1_555
C46 C48 1_555 1_555
C47 C49 1_555 1_555

#END
