
#######################################################################
#
#                 Cambridge Crystallographic Data Centre
#                                CCDC 
#
#######################################################################
#
# If this CIF has been generated from an entry in the Cambridge 
# Structural Database, then it will include bibliographic, chemical, 
# crystal, experimental, refinement or atomic coordinate data resulting 
# from the CCDC's data processing and validation procedures.
#
#######################################################################

data_DEXBEN02
_chemical_formula_moiety         'C10 H14 O2'
_chemical_name_systematic        1,4-Diethoxybenzene
_symmetry_cell_setting           monoclinic
_symmetry_space_group_name_H-M   'P 21'
_symmetry_Int_Tables_number      4
_space_group_name_Hall           'P 2yb'
loop_
_symmetry_equiv_pos_site_id
_symmetry_equiv_pos_as_xyz
1 x,y,z
2 -x,1/2+y,-z
_cell_length_a                   7.139(6)
_cell_length_b                   7.608(6)
_cell_length_c                   9.483(8)
_cell_angle_alpha                90
_cell_angle_beta                 110.092(14)
_cell_angle_gamma                90
_cell_volume                     483.71
_exptl_crystal_colour            colorless
_exptl_crystal_description       sheet
_cell_formula_units_Z            2
loop_
_atom_site_label
_atom_site_type_symbol
_atom_site_fract_x
_atom_site_fract_y
_atom_site_fract_z
C1 C 0.7999(3) 0.3833(3) -0.0857(3)
C2 C 0.9024(3) 0.4783(4) 0.0426(3)
H1 H 1.0144 0.5434 0.0467
C3 C 0.8378(3) 0.4758(3) 0.1645(3)
H2 H 0.9078 0.5392 0.2503
C4 C 0.6690(3) 0.3796(4) 0.1611(3)
C5 C 0.5686(3) 0.2832(4) 0.0319(3)
H3 H 0.4570 0.2171 0.0272
C6 C 0.6348(3) 0.2856(4) -0.0896(3)
H4 H 0.5671 0.2206 -0.1749
C7 C 1.0201(4) 0.4779(5) -0.2123(3)
H5 H 1.1391 0.4374 -0.1332
H6 H 1.0000 0.6010 -0.1949
C8 C 1.0433(6) 0.4545(5) -0.3646(4)
H7 H 1.0714 0.3335 -0.3779
H8 H 1.1511 0.5265 -0.3699
H9 H 0.9220 0.4887 -0.4423
C9 C 0.4445(4) 0.2950(6) 0.2859(4)
H10 H 0.4687 0.1696 0.2851
H11 H 0.3310 0.3244 0.1977
C10 C 0.4041(6) 0.3454(7) 0.4260(4)
H12 H 0.5168 0.3145 0.5124
H13 H 0.2881 0.2840 0.4292
H14 H 0.3815 0.4698 0.4258
O1 O 0.8507(3) 0.3767(3) -0.2128(2)
O2 O 0.6157(3) 0.3902(3) 0.28621(19)
loop_
_geom_bond_atom_site_label_1
_geom_bond_atom_site_label_2
_geom_bond_site_symmetry_1
_geom_bond_site_symmetry_2
C1 C2 1_555 1_555
C2 H1 1_555 1_555
C3 C2 1_555 1_555
H2 C3 1_555 1_555
C4 C3 1_555 1_555
C5 C4 1_555 1_555
H3 C5 1_555 1_555
C6 C1 1_555 1_555
H4 C6 1_555 1_555
C7 H5 1_555 1_555
H6 C7 1_555 1_555
C8 C7 1_555 1_555
H7 C8 1_555 1_555
H8 C8 1_555 1_555
H9 C8 1_555 1_555
C9 H10 1_555 1_555
H11 C9 1_555 1_555
C10 C9 1_555 1_555
H12 C10 1_555 1_555
H13 C10 1_555 1_555
H14 C10 1_555 1_555
O1 C1 1_555 1_555
O2 C4 1_555 1_555
C5 C6 1_555 1_555
C7 O1 1_555 1_555
C9 O2 1_555 1_555

#END
