
#######################################################################
#
#                 Cambridge Crystallographic Data Centre
#                                CCDC 
#
#######################################################################
#
# If this CIF has been generated from an entry in the Cambridge 
# Structural Database, then it will include bibliographic, chemical, 
# crystal, experimental, refinement or atomic coordinate data resulting 
# from the CCDC's data processing and validation procedures.
#
#######################################################################

data_DEXQII
_chemical_formula_moiety         '2(C16 H36 N1 1+),C38 H30 N10 O8,C8 H4 O4 2-'
_chemical_name_systematic        
"bis(Tetra-n-butylammonium) 3,3'-naphthalene-1,5-diylbis(1-(2-(((4-nitrophenyl)carbamoyl)amino)phenyl)urea) benzene-1,4-dicarboxylate"
_symmetry_cell_setting           monoclinic
_symmetry_space_group_name_H-M   'P 21/c'
_symmetry_Int_Tables_number      14
_space_group_name_Hall           '-P 2ybc'
loop_
_symmetry_equiv_pos_site_id
_symmetry_equiv_pos_as_xyz
1 x,y,z
2 -x,1/2+y,1/2-z
3 -x,-y,-z
4 x,1/2-y,1/2+z
_cell_length_a                   23.764(5)
_cell_length_b                   17.225(4)
_cell_length_c                   20.791(5)
_cell_angle_alpha                90
_cell_angle_beta                 113.214(3)
_cell_angle_gamma                90
_cell_volume                     7821.47
_exptl_crystal_colour            yellow
_exptl_crystal_description       block
_cell_formula_units_Z            4
loop_
_atom_site_label
_atom_site_type_symbol
_atom_site_fract_x
_atom_site_fract_y
_atom_site_fract_z
O1 O 0.2976(2) 1.1518(3) 0.6016(2)
O2 O 0.2440(2) 1.1479(3) 0.6651(3)
O3 O 0.00903(17) 0.9280(2) 0.42368(19)
O4 O -0.11626(18) 0.8940(2) 0.10637(19)
N1 N 0.2547(3) 1.1253(3) 0.6140(3)
N2 N 0.1065(2) 0.9014(2) 0.4315(2)
H1 H 0.1265 0.8686 0.4175
N3 N 0.0244(2) 0.8396(2) 0.3497(2)
H2 H 0.0509 0.8198 0.3359
N4 N -0.03697(18) 0.8504(2) 0.2036(2)
H3 H 0.0023 0.8469 0.2225
N5 N -0.01875(19) 0.8959(2) 0.1106(2)
H4 H 0.0188 0.8854 0.1364
C1 C 0.2156(3) 1.0659(3) 0.5690(3)
C2 C 0.1575(3) 1.0545(3) 0.5664(3)
H5 H 0.1435 1.0842 0.5957
C3 C 0.1195(3) 1.0005(3) 0.5217(3)
H6 H 0.0792 0.9928 0.5195
C4 C 0.1413(3) 0.9567(3) 0.4790(3)
C5 C 0.2003(3) 0.9683(3) 0.4844(3)
H7 H 0.2153 0.9374 0.4568
C6 C 0.2383(3) 1.0233(4) 0.5286(3)
H8 H 0.2787 1.0314 0.5311
C7 C 0.0435(3) 0.8926(3) 0.4033(3)
C8 C -0.0377(2) 0.8168(3) 0.3165(3)
C9 C -0.0679(3) 0.7868(3) 0.3563(3)
H9 H -0.0459 0.7794 0.4052
C10 C -0.1286(3) 0.7678(3) 0.3265(3)
H10 H -0.1487 0.7486 0.3547
C11 C -0.1611(3) 0.7768(3) 0.2548(3)
H11 H -0.2035 0.7650 0.2338
C12 C -0.1305(3) 0.8032(3) 0.2142(3)
H12 H -0.1520 0.8072 0.1649
C13 C -0.0693(2) 0.8239(3) 0.2442(3)
C14 C -0.0622(3) 0.8807(3) 0.1373(3)
C15 C -0.0323(2) 0.9273(3) 0.0430(3)
C16 C 0.0068(2) 0.9839(3) 0.0340(2)
C17 C 0.0581(3) 1.0106(4) 0.0897(3)
H13 H 0.0682 0.9894 0.1351
C18 C -0.0817(3) 0.9016(4) -0.0122(3)
H14 H -0.1075 0.8630 -0.0057
C19 C 0.0946(3) 1.0674(5) 0.0797(3)
H15 H 0.1288 1.0862 0.1186
O1B O -0.2976(2) 0.8482(3) -0.6016(2)
O2B O -0.2440(2) 0.8521(3) -0.6651(3)
O3B O -0.00903(17) 1.0720(2) -0.42368(19)
O4B O 0.11626(18) 1.1060(2) -0.10637(19)
N1B N -0.2547(3) 0.8747(3) -0.6140(3)
N2B N -0.1065(2) 1.0986(2) -0.4315(2)
H1B H -0.1265 1.1314 -0.4175
N3B N -0.0244(2) 1.1604(2) -0.3497(2)
H2B H -0.0509 1.1802 -0.3359
N4B N 0.03697(18) 1.1496(2) -0.2036(2)
H3B H -0.0023 1.1531 -0.2225
N5B N 0.01875(19) 1.1041(2) -0.1106(2)
H4B H -0.0188 1.1146 -0.1364
C1B C -0.2156(3) 0.9341(3) -0.5690(3)
C2B C -0.1575(3) 0.9455(3) -0.5664(3)
H5B H -0.1435 0.9158 -0.5957
C3B C -0.1195(3) 0.9995(3) -0.5217(3)
H6B H -0.0792 1.0072 -0.5195
C4B C -0.1413(3) 1.0433(3) -0.4790(3)
C5B C -0.2003(3) 1.0317(3) -0.4844(3)
H7B H -0.2153 1.0626 -0.4568
C6B C -0.2383(3) 0.9767(4) -0.5286(3)
H8B H -0.2787 0.9686 -0.5311
C7B C -0.0435(3) 1.1074(3) -0.4033(3)
C8B C 0.0377(2) 1.1832(3) -0.3165(3)
C9B C 0.0679(3) 1.2132(3) -0.3563(3)
H9B H 0.0459 1.2206 -0.4052
C10B C 0.1286(3) 1.2322(3) -0.3265(3)
H10B H 0.1487 1.2514 -0.3547
C11B C 0.1611(3) 1.2232(3) -0.2548(3)
H11B H 0.2035 1.2350 -0.2338
C12B C 0.1305(3) 1.1968(3) -0.2142(3)
H12B H 0.1520 1.1928 -0.1649
C13B C 0.0693(2) 1.1761(3) -0.2442(3)
C14B C 0.0622(3) 1.1193(3) -0.1373(3)
C15B C 0.0323(2) 1.0727(3) -0.0430(3)
C16B C -0.0068(2) 1.0161(3) -0.0340(2)
C17B C -0.0581(3) 0.9894(4) -0.0897(3)
H13B H -0.0682 1.0106 -0.1351
C18B C 0.0817(3) 1.0984(4) 0.0122(3)
H14B H 0.1075 1.1370 0.0057
C19B C -0.0946(3) 0.9326(5) -0.0797(3)
H15B H -0.1288 0.9138 -0.1186
O5 O 0.2020(3) 0.2988(3) -0.0716(3)
O6 O 0.1612(3) 0.2750(3) 0.0028(4)
O7 O 0.42275(19) 0.0253(3) 0.0349(2)
O8 O 0.59690(18) -0.0127(2) 0.33777(19)
N6 N 0.1973(3) 0.2588(4) -0.0259(4)
N7 N 0.3442(2) -0.0058(3) 0.0690(3)
H16 H 0.3300 -0.0431 0.0857
N8 N 0.4364(2) -0.0654(3) 0.1191(2)
H17 H 0.4183 -0.0902 0.1413
N9 N 0.51484(19) -0.0773(3) 0.2591(2)
H18 H 0.4783 -0.0929 0.2512
N10 N 0.5141(2) -0.0427(3) 0.3644(2)
H19 H 0.4773 -0.0603 0.3458
C20 C 0.2362(3) 0.1892(4) -0.0031(4)
C21 C 0.2384(3) 0.1521(4) 0.0568(4)
H20 H 0.2160 0.1715 0.0824
C22 C 0.2737(3) 0.0866(4) 0.0784(3)
H21 H 0.2752 0.0601 0.1191
C23 C 0.3076(3) 0.0583(4) 0.0419(3)
C24 C 0.3023(3) 0.0948(4) -0.0194(3)
H22 H 0.3235 0.0747 -0.0461
C25 C 0.2669(3) 0.1596(4) -0.0419(4)
H23 H 0.2634 0.1843 -0.0842
C26 C 0.4031(3) -0.0127(4) 0.0712(3)
C27 C 0.4991(2) -0.0837(3) 0.1358(3)
C28 C 0.5215(3) -0.0965(3) 0.0846(3)
H24 H 0.4950 -0.0920 0.0366
C29 C 0.5822(3) -0.1156(3) 0.1027(3)
H25 H 0.5971 -0.1240 0.0672
C30 C 0.6213(3) -0.1225(3) 0.1722(3)
H26 H 0.6632 -0.1354 0.1847
C31 C 0.5983(3) -0.1102(3) 0.2239(3)
H27 H 0.6247 -0.1158 0.2718
C32 C 0.5376(2) -0.0900(3) 0.2062(3)
C33 C 0.5476(3) -0.0422(3) 0.3219(3)
C34 C 0.5349(3) -0.0175(3) 0.4345(3)
C35 C 0.5945(3) -0.0033(4) 0.4737(3)
H28 H 0.6237 -0.0076 0.4532
C36 C 0.6138(3) 0.0176(4) 0.5439(3)
H29 H 0.6559 0.0276 0.5708
C37 C 0.4900(3) -0.0105(3) 0.4640(3)
C38 C 0.5723(3) 0.0238(3) 0.5741(3)
H30 H 0.5862 0.0374 0.6222
O5B O 0.7980(3) -0.2988(3) 1.0716(3)
O6B O 0.8388(3) -0.2750(3) 0.9972(4)
O7B O 0.57725(19) -0.0253(3) 0.9651(2)
O8B O 0.40310(18) 0.0127(2) 0.66223(19)
N6B N 0.8027(3) -0.2588(4) 1.0259(4)
N7B N 0.6558(2) 0.0058(3) 0.9310(3)
H16B H 0.6700 0.0431 0.9143
N8B N 0.5636(2) 0.0654(3) 0.8809(2)
H17B H 0.5817 0.0902 0.8587
N9B N 0.48516(19) 0.0773(3) 0.7409(2)
H18B H 0.5217 0.0929 0.7488
N10B N 0.4859(2) 0.0427(3) 0.6356(2)
H19B H 0.5227 0.0603 0.6542
C20B C 0.7638(3) -0.1892(4) 1.0031(4)
C21B C 0.7616(3) -0.1521(4) 0.9432(4)
H20B H 0.7840 -0.1715 0.9176
C22B C 0.7263(3) -0.0866(4) 0.9216(3)
H21B H 0.7248 -0.0601 0.8809
C23B C 0.6924(3) -0.0583(4) 0.9581(3)
C24B C 0.6977(3) -0.0948(4) 1.0194(3)
H22B H 0.6765 -0.0747 1.0461
C25B C 0.7331(3) -0.1596(4) 1.0419(4)
H23B H 0.7366 -0.1843 1.0842
C26B C 0.5969(3) 0.0127(4) 0.9288(3)
C27B C 0.5009(2) 0.0837(3) 0.8642(3)
C28B C 0.4785(3) 0.0965(3) 0.9154(3)
H24B H 0.5050 0.0920 0.9634
C29B C 0.4178(3) 0.1156(3) 0.8973(3)
H25B H 0.4029 0.1240 0.9328
C30B C 0.3787(3) 0.1225(3) 0.8278(3)
H26B H 0.3368 0.1354 0.8153
C31B C 0.4017(3) 0.1102(3) 0.7761(3)
H27B H 0.3753 0.1158 0.7282
C32B C 0.4624(2) 0.0900(3) 0.7938(3)
C33B C 0.4524(3) 0.0422(3) 0.6781(3)
C34B C 0.4651(3) 0.0175(3) 0.5655(3)
C35B C 0.4055(3) 0.0033(4) 0.5263(3)
H28B H 0.3763 0.0076 0.5468
C36B C 0.3862(3) -0.0176(4) 0.4561(3)
H29B H 0.3441 -0.0276 0.4292
C37B C 0.5100(3) 0.0105(3) 0.5360(3)
C38B C 0.4277(3) -0.0238(3) 0.4259(3)
H30B H 0.4138 -0.0374 0.3778
N11 N 0.0338(2) 0.5957(2) 0.2384(2)
C39 C -0.0219(3) 0.5465(3) 0.2287(3)
H31 H -0.0322 0.5160 0.1852
H32 H -0.0102 0.5091 0.2679
C40 C -0.0789(3) 0.5877(3) 0.2246(3)
H33 H -0.0903 0.6280 0.1877
H34 H -0.0715 0.6135 0.2698
C41 C -0.1304(3) 0.5294(3) 0.2080(3)
H35 H -0.1369 0.5043 0.1628
H36 H -0.1174 0.4885 0.2445
C42 C -0.1900(3) 0.5624(4) 0.2037(4)
H37 H -0.2034 0.6031 0.1680
H38 H -0.1849 0.5844 0.2492
H39 H -0.2209 0.5211 0.1912
C43 C 0.0557(3) 0.6403(3) 0.3073(3)
H40 H 0.0879 0.6771 0.3079
H41 H 0.0210 0.6715 0.3081
C44 C 0.0808(3) 0.5925(3) 0.3733(3)
H42 H 0.1162 0.5618 0.3738
H43 H 0.0489 0.5556 0.3738
C45 C 0.1006(4) 0.6425(4) 0.4381(3)
H44 H 0.1138 0.6935 0.4270
H45 H 0.0647 0.6516 0.4500
C46 C 0.1462(5) 0.6133(9) 0.4946(7)
H46 H 0.1386 0.5580 0.4991
H47 H 0.1479 0.6409 0.5366
H48 H 0.1852 0.6196 0.4895
C47 C 0.0181(3) 0.6563(3) 0.1816(3)
H49 H 0.0553 0.6871 0.1892
H50 H -0.0126 0.6921 0.1865
C48 C -0.0067(3) 0.6258(3) 0.1075(3)
H51 H -0.0474 0.6020 0.0966
H52 H 0.0210 0.5850 0.1033
C49 C -0.0125(3) 0.6904(3) 0.0553(3)
H53 H -0.0363 0.6708 0.0075
H54 H -0.0358 0.7338 0.0641
C50 C 0.0483(3) 0.7211(4) 0.0586(3)
H55 H 0.0713 0.6788 0.0486
H56 H 0.0719 0.7419 0.1054
H57 H 0.0410 0.7624 0.0238
C51 C 0.0833(3) 0.5407(3) 0.2366(3)
H58 H 0.0953 0.5061 0.2779
H59 H 0.0655 0.5077 0.1944
C52 C 0.1405(3) 0.5790(4) 0.2362(4)
H60 H 0.1553 0.6185 0.2738
H61 H 0.1309 0.6054 0.1908
C53 C 0.1906(4) 0.5174(5) 0.2476(5)
H62 H 0.1725 0.4711 0.2186
H63 H 0.2081 0.5012 0.2973
C54 C 0.2419(5) 0.5515(8) 0.2274(6)
H64 H 0.2660 0.5889 0.2631
H65 H 0.2234 0.5776 0.1820
H66 H 0.2685 0.5094 0.2245
N12 N 0.4967(3) 0.1797(3) 0.2156(3)
C55 C 0.4500(3) 0.1321(4) 0.2298(4)
H67 H 0.4717 0.0930 0.2660
H68 H 0.4250 0.1036 0.1865
C56 C 0.4074(3) 0.1781(4) 0.2538(4)
H69 H 0.4314 0.2157 0.2903
H70 H 0.3779 0.2077 0.2139
C57 C 0.3727(4) 0.1242(5) 0.2830(5)
H71 H 0.3500 0.0854 0.2469
H72 H 0.4023 0.0958 0.3237
C58 C 0.3280(4) 0.1676(5) 0.3055(5)
H73 H 0.3494 0.2102 0.3368
H74 H 0.3111 0.1320 0.3301
H75 H 0.2947 0.1886 0.2641
C59 C 0.5386(3) 0.2219(4) 0.2806(4)
H76 H 0.5709 0.2480 0.2697
H77 H 0.5146 0.2629 0.2915
C60 C 0.5693(4) 0.1735(4) 0.3454(4)
H78 H 0.5894 0.1279 0.3346
H79 H 0.5386 0.1548 0.3630
C61 C 0.6187(7) 0.2260(6) 0.4026(5)
H80 H 0.6415 0.2543 0.3791
H81 H 0.5962 0.2654 0.4179
C62 C 0.6608(9) 0.1929(8) 0.4614(8)
H82 H 0.6396 0.1637 0.4857
H83 H 0.6860 0.2335 0.4924
H84 H 0.6869 0.1576 0.4484
C63 C 0.4667(3) 0.2430(3) 0.1609(4)
H85 H 0.4440 0.2785 0.1794
H86 H 0.4995 0.2736 0.1548
C64 C 0.4229(3) 0.2143(4) 0.0890(4)
H87 H 0.3848 0.1949 0.0920
H88 H 0.4421 0.1708 0.0738
C65 C 0.4077(3) 0.2808(4) 0.0353(4)
H89 H 0.3703 0.2674 -0.0060
H90 H 0.3992 0.3286 0.0563
C66 C 0.4602(3) 0.2960(4) 0.0120(4)
H91 H 0.4964 0.3133 0.0522
H92 H 0.4479 0.3363 -0.0242
H93 H 0.4698 0.2481 -0.0070
C67 C 0.5321(3) 0.1232(4) 0.1897(4)
H94 H 0.5022 0.0925 0.1510
H95 H 0.5541 0.0866 0.2282
C68 C 0.5785(4) 0.1587(4) 0.1639(4)
H96 H 0.5582 0.1993 0.1287
H97 H 0.6120 0.1835 0.2037
C69 C 0.6049(4) 0.0972(4) 0.1318(4)
H98 H 0.5708 0.0684 0.0961
H99 H 0.6286 0.0598 0.1687
C70 C 0.6464(4) 0.1296(5) 0.0978(4)
H100 H 0.6229 0.1651 0.0599
H101 H 0.6622 0.0867 0.0788
H102 H 0.6806 0.1576 0.1329
O9 O 0.08565(16) 0.8366(2) 0.2255(2)
O10 O 0.13829(17) 0.8067(2) 0.3375(2)
O11 O 0.3567(2) 0.9090(4) 0.1847(3)
O12 O 0.41063(19) 0.8642(3) 0.2891(2)
C71 C 0.1350(2) 0.8264(3) 0.2777(3)
C72 C 0.1938(2) 0.8397(3) 0.2681(3)
C73 C 0.1924(3) 0.8649(3) 0.2042(3)
H103 H 0.1544 0.8729 0.1658
C74 C 0.2469(3) 0.8781(3) 0.1970(3)
H104 H 0.2458 0.8959 0.1533
C75 C 0.3026(2) 0.8662(3) 0.2507(3)
C76 C 0.3028(2) 0.8404(3) 0.3133(3)
H105 H 0.3407 0.8309 0.3514
C77 C 0.2495(2) 0.8282(3) 0.3213(3)
H106 H 0.2511 0.8111 0.3654
C78 C 0.3612(3) 0.8811(4) 0.2418(4)
loop_
_geom_bond_atom_site_label_1
_geom_bond_atom_site_label_2
_geom_bond_site_symmetry_1
_geom_bond_site_symmetry_2
O1 N1 1_555 1_555
O2 N1 1_555 1_555
O3 C7 1_555 1_555
O4 C14 1_555 1_555
N1 C1 1_555 1_555
N2 H1 1_555 1_555
N3 H2 1_555 1_555
N4 H3 1_555 1_555
N5 H4 1_555 1_555
C1 C2 1_555 1_555
C2 H5 1_555 1_555
C3 C2 1_555 1_555
H6 C3 1_555 1_555
C4 N2 1_555 1_555
C5 C4 1_555 1_555
H7 C5 1_555 1_555
C6 C1 1_555 1_555
H8 C6 1_555 1_555
C7 N2 1_555 1_555
C8 N3 1_555 1_555
C9 C8 1_555 1_555
H9 C9 1_555 1_555
C10 C9 1_555 1_555
H10 C10 1_555 1_555
C11 C10 1_555 1_555
H11 C11 1_555 1_555
C12 C11 1_555 1_555
H12 C12 1_555 1_555
C13 N4 1_555 1_555
C14 N4 1_555 1_555
C15 N5 1_555 1_555
C16 C15 1_555 1_555
C17 C16 1_555 1_555
H13 C17 1_555 1_555
C18 C15 1_555 1_555
H14 C18 1_555 1_555
C19 C17 1_555 1_555
H15 C19 1_555 1_555
O5 N6 1_555 1_555
O6 N6 1_555 1_555
O7 C26 1_555 1_555
O8 C33 1_555 1_555
N6 C20 1_555 1_555
N7 H16 1_555 1_555
N8 H17 1_555 1_555
N9 H18 1_555 1_555
N10 H19 1_555 1_555
C20 C21 1_555 1_555
C21 H20 1_555 1_555
C22 C21 1_555 1_555
H21 C22 1_555 1_555
C23 N7 1_555 1_555
C24 C23 1_555 1_555
H22 C24 1_555 1_555
C25 C20 1_555 1_555
H23 C25 1_555 1_555
C26 N7 1_555 1_555
C27 N8 1_555 1_555
C28 C27 1_555 1_555
H24 C28 1_555 1_555
C29 C28 1_555 1_555
H25 C29 1_555 1_555
C30 C29 1_555 1_555
H26 C30 1_555 1_555
C31 C30 1_555 1_555
H27 C31 1_555 1_555
C32 N9 1_555 1_555
C33 N9 1_555 1_555
C34 N10 1_555 1_555
C35 C34 1_555 1_555
H28 C35 1_555 1_555
C36 C35 1_555 1_555
H29 C36 1_555 1_555
C37 C34 1_555 1_555
C38 C36 1_555 1_555
H30 C38 1_555 1_555
N11 C39 1_555 1_555
C39 H31 1_555 1_555
H32 C39 1_555 1_555
C40 C39 1_555 1_555
H33 C40 1_555 1_555
H34 C40 1_555 1_555
C41 C40 1_555 1_555
H35 C41 1_555 1_555
H36 C41 1_555 1_555
C42 C41 1_555 1_555
H37 C42 1_555 1_555
H38 C42 1_555 1_555
H39 C42 1_555 1_555
C43 N11 1_555 1_555
H40 C43 1_555 1_555
H41 C43 1_555 1_555
C44 C43 1_555 1_555
H42 C44 1_555 1_555
H43 C44 1_555 1_555
C45 C44 1_555 1_555
H44 C45 1_555 1_555
H45 C45 1_555 1_555
C46 C45 1_555 1_555
H46 C46 1_555 1_555
H47 C46 1_555 1_555
H48 C46 1_555 1_555
C47 N11 1_555 1_555
H49 C47 1_555 1_555
H50 C47 1_555 1_555
C48 C47 1_555 1_555
H51 C48 1_555 1_555
H52 C48 1_555 1_555
C49 C48 1_555 1_555
H53 C49 1_555 1_555
H54 C49 1_555 1_555
C50 C49 1_555 1_555
H55 C50 1_555 1_555
H56 C50 1_555 1_555
H57 C50 1_555 1_555
C51 N11 1_555 1_555
H58 C51 1_555 1_555
H59 C51 1_555 1_555
C52 C51 1_555 1_555
H60 C52 1_555 1_555
H61 C52 1_555 1_555
C53 C52 1_555 1_555
H62 C53 1_555 1_555
H63 C53 1_555 1_555
C54 C53 1_555 1_555
H64 C54 1_555 1_555
H65 C54 1_555 1_555
H66 C54 1_555 1_555
N12 C55 1_555 1_555
C55 H67 1_555 1_555
H68 C55 1_555 1_555
C56 C55 1_555 1_555
H69 C56 1_555 1_555
H70 C56 1_555 1_555
C57 C56 1_555 1_555
H71 C57 1_555 1_555
H72 C57 1_555 1_555
C58 C57 1_555 1_555
H73 C58 1_555 1_555
H74 C58 1_555 1_555
H75 C58 1_555 1_555
C59 N12 1_555 1_555
H76 C59 1_555 1_555
H77 C59 1_555 1_555
C60 C59 1_555 1_555
H78 C60 1_555 1_555
H79 C60 1_555 1_555
C61 C60 1_555 1_555
H80 C61 1_555 1_555
H81 C61 1_555 1_555
C62 C61 1_555 1_555
H82 C62 1_555 1_555
H83 C62 1_555 1_555
H84 C62 1_555 1_555
C63 N12 1_555 1_555
H85 C63 1_555 1_555
H86 C63 1_555 1_555
C64 C63 1_555 1_555
H87 C64 1_555 1_555
H88 C64 1_555 1_555
C65 C64 1_555 1_555
H89 C65 1_555 1_555
H90 C65 1_555 1_555
C66 C65 1_555 1_555
H91 C66 1_555 1_555
H92 C66 1_555 1_555
H93 C66 1_555 1_555
C67 N12 1_555 1_555
H94 C67 1_555 1_555
H95 C67 1_555 1_555
C68 C67 1_555 1_555
H96 C68 1_555 1_555
H97 C68 1_555 1_555
C69 C68 1_555 1_555
H98 C69 1_555 1_555
H99 C69 1_555 1_555
C70 C69 1_555 1_555
H100 C70 1_555 1_555
H101 C70 1_555 1_555
H102 C70 1_555 1_555
O9 C71 1_555 1_555
O10 C71 1_555 1_555
O11 C78 1_555 1_555
O12 C78 1_555 1_555
C71 C72 1_555 1_555
C72 C73 1_555 1_555
C73 H103 1_555 1_555
C74 C73 1_555 1_555
H104 C74 1_555 1_555
C75 C74 1_555 1_555
C76 C75 1_555 1_555
H105 C76 1_555 1_555
C77 C72 1_555 1_555
H106 C77 1_555 1_555
C78 C75 1_555 1_555
O1B N1B 1_555 1_555
O2B N1B 1_555 1_555
O3B C7B 1_555 1_555
O4B C14B 1_555 1_555
N1B C1B 1_555 1_555
N2B H1B 1_555 1_555
N3B H2B 1_555 1_555
N4B H3B 1_555 1_555
N5B H4B 1_555 1_555
C1B C2B 1_555 1_555
C2B H5B 1_555 1_555
C3B C2B 1_555 1_555
H6B C3B 1_555 1_555
C4B N2B 1_555 1_555
C5B C4B 1_555 1_555
H7B C5B 1_555 1_555
C6B C1B 1_555 1_555
H8B C6B 1_555 1_555
C7B N2B 1_555 1_555
C8B N3B 1_555 1_555
C9B C8B 1_555 1_555
H9B C9B 1_555 1_555
C10B C9B 1_555 1_555
H10B C10B 1_555 1_555
C11B C10B 1_555 1_555
H11B C11B 1_555 1_555
C12B C11B 1_555 1_555
H12B C12B 1_555 1_555
C13B N4B 1_555 1_555
C14B N4B 1_555 1_555
C15B N5B 1_555 1_555
C16B C16 1_555 1_555
C17B C16B 1_555 1_555
H13B C17B 1_555 1_555
C18B C19 1_555 1_555
H14B C18B 1_555 1_555
C19B C18 1_555 1_555
H15B C19B 1_555 1_555
O5B N6B 1_555 1_555
O6B N6B 1_555 1_555
O7B C26B 1_555 1_555
O8B C33B 1_555 1_555
N6B C20B 1_555 1_555
N7B H16B 1_555 1_555
N8B H17B 1_555 1_555
N9B H18B 1_555 1_555
N10B H19B 1_555 1_555
C20B C21B 1_555 1_555
C21B H20B 1_555 1_555
C22B C21B 1_555 1_555
H21B C22B 1_555 1_555
C23B N7B 1_555 1_555
C24B C23B 1_555 1_555
H22B C24B 1_555 1_555
C25B C20B 1_555 1_555
H23B C25B 1_555 1_555
C26B N7B 1_555 1_555
C27B N8B 1_555 1_555
C28B C27B 1_555 1_555
H24B C28B 1_555 1_555
C29B C28B 1_555 1_555
H25B C29B 1_555 1_555
C30B C29B 1_555 1_555
H26B C30B 1_555 1_555
C31B C30B 1_555 1_555
H27B C31B 1_555 1_555
C32B N9B 1_555 1_555
C33B N9B 1_555 1_555
C34B N10B 1_555 1_555
C35B C34B 1_555 1_555
H28B C35B 1_555 1_555
C36B C35B 1_555 1_555
H29B C36B 1_555 1_555
C37B C37 1_555 1_555
C38B C37 1_555 1_555
H30B C38B 1_555 1_555
N3 C7 1_555 1_555
N5 C14 1_555 1_555
C3 C4 1_555 1_555
C5 C6 1_555 1_555
C8 C13 1_555 1_555
C12 C13 1_555 1_555
N8 C26 1_555 1_555
N10 C33 1_555 1_555
C22 C23 1_555 1_555
C24 C25 1_555 1_555
C27 C32 1_555 1_555
C31 C32 1_555 1_555
C38 C37B 1_555 1_555
C76 C77 1_555 1_555
N3B C7B 1_555 1_555
N5B C14B 1_555 1_555
C3B C4B 1_555 1_555
C5B C6B 1_555 1_555
C8B C13B 1_555 1_555
C12B C13B 1_555 1_555
C15B C16B 1_555 1_555
C15B C18B 1_555 1_555
C17B C19B 1_555 1_555
N8B C26B 1_555 1_555
N10B C33B 1_555 1_555
C22B C23B 1_555 1_555
C24B C25B 1_555 1_555
C27B C32B 1_555 1_555
C31B C32B 1_555 1_555
C34B C37B 1_555 1_555
C36B C38B 1_555 1_555

#END
