
#######################################################################
#
#                 Cambridge Crystallographic Data Centre
#                                CCDC 
#
#######################################################################
#
# If this CIF has been generated from an entry in the Cambridge 
# Structural Database, then it will include bibliographic, chemical, 
# crystal, experimental, refinement or atomic coordinate data resulting 
# from the CCDC's data processing and validation procedures.
#
#######################################################################

data_DEXRAB
_chemical_formula_moiety         'C38 H30 N10 O8,4(C16 H36 N1 1+),2(O4 S1 2-)'
_chemical_name_systematic        
"tetrakis(tetrabutylammonium) 3,3'-naphthalene-1,5-diylbis(1-(2-(((4-nitrophenyl)carbamoyl)amino)phenyl)urea) bis(sulfate) unknown solvate"
_symmetry_cell_setting           monoclinic
_symmetry_space_group_name_H-M   'C 2/c'
_symmetry_Int_Tables_number      15
_space_group_name_Hall           '-C 2yn'
loop_
_symmetry_equiv_pos_site_id
_symmetry_equiv_pos_as_xyz
1 x,y,z
2 -x,y,1/2-z
3 1/2+x,1/2+y,z
4 1/2-x,1/2+y,1/2-z
5 -x,-y,-z
6 x,-y,1/2+z
7 1/2-x,1/2-y,-z
8 1/2+x,1/2-y,1/2+z
_cell_length_a                   27.889(4)
_cell_length_b                   16.427(2)
_cell_length_c                   24.753(3)
_cell_angle_alpha                90
_cell_angle_beta                 98.540(2)
_cell_angle_gamma                90
_cell_volume                     11214.4
_exptl_crystal_colour            yellow
_exptl_crystal_description       plate
_cell_formula_units_Z            4
loop_
_atom_site_label
_atom_site_type_symbol
_atom_site_fract_x
_atom_site_fract_y
_atom_site_fract_z
S1 S 0.17387(5) 0.69537(7) 0.19020(4)
O1 O 0.19527(11) 0.76121(18) 0.16165(11)
O2 O 0.21334(11) 0.63588(17) 0.20945(11)
O3 O 0.15502(10) 0.7275(2) 0.23831(10)
O4 O 0.13515(13) 0.6555(2) 0.15366(13)
O5 O 0.40456(17) 0.3377(7) -0.0292(2)
O6 O 0.44947(15) 0.3827(3) 0.03722(19)
O7 O 0.21732(11) 0.2231(2) 0.10383(11)
O8 O 0.13570(12) 0.2391(2) 0.34266(11)
N1 N 0.41394(17) 0.3476(4) 0.0187(2)
N2 N 0.29195(13) 0.2194(2) 0.15728(12)
H1 H 0.3069 0.2068 0.1901
N3 N 0.22484(13) 0.1775(2) 0.19209(12)
H2 H 0.2458 0.1689 0.2218
N4 N 0.19075(13) 0.1853(2) 0.29257(12)
H3 H 0.2218 0.1752 0.2929
N5 N 0.21634(13) 0.2366(2) 0.37646(12)
H4 H 0.2453 0.2274 0.3676
C1 C 0.38180(17) 0.3109(3) 0.05294(19)
C2 C 0.39751(17) 0.3072(3) 0.10813(18)
H5 H 0.4289 0.3257 0.1233
C3 C 0.36629(17) 0.2758(3) 0.14060(17)
H6 H 0.3768 0.2722 0.1788
C4 C 0.32045(15) 0.2493(3) 0.12023(15)
C5 C 0.30657(16) 0.2508(3) 0.06356(16)
H7 H 0.2758 0.2301 0.0479
C6 C 0.33721(17) 0.2820(4) 0.03077(18)
H8 H 0.3275 0.2838 -0.0077
C7 C 0.24266(17) 0.2075(3) 0.14764(15)
C8 C 0.17573(16) 0.1589(2) 0.19470(15)
C9 C 0.14364(16) 0.1371(3) 0.14889(16)
H9 H 0.1549 0.1348 0.1145
C10 C 0.09617(18) 0.1189(3) 0.15163(17)
H10 H 0.0747 0.1051 0.1195
C11 C 0.07983(19) 0.1210(3) 0.2020(2)
H11 H 0.0470 0.1084 0.2046
C12 C 0.11113(18) 0.1412(3) 0.24763(18)
H12 H 0.0999 0.1409 0.2820
C13 C 0.15841(17) 0.1619(3) 0.24534(16)
C14 C 0.17749(18) 0.2223(3) 0.33757(16)
C15 C 0.21410(16) 0.2650(3) 0.43006(14)
C16 C 0.17979(16) 0.3188(3) 0.44134(16)
H13 H 0.1554 0.3369 0.4130
C17 C 0.25024(14) 0.2348(2) 0.47275(13)
C18 C 0.28607(15) 0.1779(2) 0.46347(14)
H14 H 0.2865 0.1576 0.4276
C19 C 0.31955(16) 0.1521(3) 0.50436(15)
H15 H 0.3432 0.1138 0.4970
O5F O 0.09544(17) 0.1623(7) 1.0292(2)
O6F O 0.05053(15) 0.1173(3) 0.96278(19)
O7F O 0.28268(11) 0.2769(2) 0.89617(11)
O8F O 0.36430(12) 0.2609(2) 0.65734(11)
N1F N 0.08606(17) 0.1524(4) 0.9813(2)
N2F N 0.20805(13) 0.2806(2) 0.84272(12)
H1F H 0.1931 0.2932 0.8099
N3F N 0.27516(13) 0.3225(2) 0.80791(12)
H2F H 0.2542 0.3311 0.7782
N4F N 0.30925(13) 0.3147(2) 0.70743(12)
H3F H 0.2782 0.3248 0.7071
N5F N 0.28366(13) 0.2634(2) 0.62354(12)
H4F H 0.2547 0.2726 0.6324
C1F C 0.11820(17) 0.1891(3) 0.94706(19)
C2F C 0.10249(17) 0.1928(3) 0.89187(18)
H5F H 0.0711 0.1743 0.8767
C3F C 0.13371(17) 0.2242(3) 0.85940(17)
H6F H 0.1232 0.2278 0.8212
C4F C 0.17955(15) 0.2507(3) 0.87977(15)
C5F C 0.19343(16) 0.2492(3) 0.93644(16)
H7F H 0.2242 0.2699 0.9521
C6F C 0.16279(17) 0.2180(4) 0.96923(18)
H8F H 0.1725 0.2162 1.0077
C7F C 0.25734(17) 0.2925(3) 0.85236(15)
C8F C 0.32427(16) 0.3411(2) 0.80530(15)
C9F C 0.35636(16) 0.3629(3) 0.85111(16)
H9F H 0.3451 0.3652 0.8855
C10F C 0.40383(18) 0.3811(3) 0.84837(17)
H10F H 0.4253 0.3949 0.8805
C11F C 0.42017(19) 0.3790(3) 0.7980(2)
H11F H 0.4530 0.3916 0.7954
C12F C 0.38887(18) 0.3588(3) 0.75237(18)
H12F H 0.4001 0.3591 0.7180
C13F C 0.34159(17) 0.3381(3) 0.75466(16)
C14F C 0.32251(18) 0.2777(3) 0.66243(16)
C15F C 0.28590(16) 0.2350(3) 0.56994(14)
C16F C 0.32021(16) 0.1812(3) 0.55866(16)
H13F H 0.3446 0.1631 0.5870
C17F C 0.24976(14) 0.2652(2) 0.52725(13)
C18F C 0.21393(15) 0.3221(2) 0.53653(14)
H14F H 0.2135 0.3424 0.5724
C19F C 0.18045(16) 0.3479(3) 0.49564(15)
H15F H 0.1568 0.3862 0.5030
N6 N 0.1505(2) 0.4237(3) 0.2145(2)
C20 C 0.1980(3) 0.3840(4) 0.2380(3)
H16 H 0.2074 0.3457 0.2106
H17 H 0.1928 0.3516 0.2704
C21 C 0.2416(3) 0.4445(7) 0.2555(4)
H18 H 0.2336 0.4965 0.2361
H19 H 0.2428 0.4557 0.2950
C22 C 0.2893(5) 0.4220(8) 0.2469(5)
H20 H 0.3127 0.4461 0.2766
H21 H 0.2922 0.3621 0.2503
C23 C 0.3024(5) 0.4443(8) 0.1983(5)
H22 H 0.2805 0.4188 0.1684
H23 H 0.3358 0.4266 0.1968
H24 H 0.3004 0.5036 0.1945
C24 C 0.1541(3) 0.4624(4) 0.1596(3)
H25 H 0.1833 0.4974 0.1634
H26 H 0.1255 0.4979 0.1493
C25 C 0.1568(3) 0.4015(4) 0.1137(3)
H27 H 0.1257 0.3715 0.1056
H28 H 0.1830 0.3617 0.1249
C26 C 0.1668(4) 0.4480(6) 0.0625(4)
H29 H 0.1492 0.4211 0.0296
H30 H 0.1542 0.5042 0.0638
C27 C 0.2182(6) 0.4512(9) 0.0580(5)
H31 H 0.2367 0.4658 0.0935
H32 H 0.2237 0.4921 0.0308
H33 H 0.2289 0.3978 0.0467
C28 C 0.1378(2) 0.4923(3) 0.2503(3)
H34 H 0.1068 0.5169 0.2330
H35 H 0.1631 0.5347 0.2517
C29 C 0.1326(2) 0.4684(4) 0.3084(3)
H36 H 0.1634 0.4446 0.3267
H37 H 0.1068 0.4271 0.3080
C30 C 0.1200(2) 0.5436(4) 0.3393(3)
H38 H 0.1463 0.5841 0.3394
H39 H 0.0899 0.5679 0.3195
C31 C 0.1128(3) 0.5271(5) 0.3971(3)
H40 H 0.0823 0.4978 0.3973
H41 H 0.1118 0.5788 0.4166
H42 H 0.1398 0.4940 0.4151
C32 C 0.1119(3) 0.3582(4) 0.2102(3)
H43 H 0.1209 0.3143 0.1862
H44 H 0.1116 0.3344 0.2469
C33 C 0.0261(4) 0.3160(5) 0.1777(4)
H45 H 0.0367 0.2794 0.1500
H46 H 0.0263 0.2843 0.2117
C34 C -0.0233(3) 0.3429(6) 0.1584(5)
H47 H -0.0347 0.3771 0.1864
H48 H -0.0445 0.2954 0.1513
H49 H -0.0239 0.3743 0.1247
C35 C 0.0621(3) 0.3865(4) 0.1886(3)
H50 H 0.0629 0.4170 0.1542
H51 H 0.0508 0.4243 0.2153
N7 N 0.09177(14) 0.8544(2) 0.04015(13)
C36 C 0.14596(19) 0.8673(3) 0.0519(2)
H52 H 0.1585 0.8388 0.0863
H53 H 0.1609 0.8415 0.0223
C37 C 0.1621(3) 0.9541(5) 0.0569(4)
H54 H 0.1486 0.9816 0.0869
H55 H 0.1516 0.9840 0.0225
C38 C 0.2188(3) 0.9499(6) 0.0696(5)
H56 H 0.2279 0.9086 0.0984
H57 H 0.2313 0.9308 0.0363
C39 C 0.2429(3) 1.0255(6) 0.0870(4)
H58 H 0.2306 1.0691 0.0616
H59 H 0.2779 1.0195 0.0874
H60 H 0.2365 1.0392 0.1238
C40 C 0.0694(3) 0.8932(4) -0.01324(19)
H61 H 0.0804 0.9505 -0.0134
H62 H 0.0338 0.8938 -0.0146
C41 C 0.08376(19) 0.7634(3) 0.03813(19)
H63 H 0.1003 0.7410 0.0087
H64 H 0.0999 0.7400 0.0730
C42 C 0.0319(2) 0.7338(4) 0.0289(3)
H65 H 0.0161 0.7480 0.0609
H66 H 0.0140 0.7613 -0.0036
C43 C 0.0299(3) 0.6441(5) 0.0204(4)
H67 H 0.0472 0.6166 0.0533
H68 H 0.0466 0.6299 -0.0109
C44 C -0.0219(4) 0.6139(9) 0.0096(7)
H69 H -0.0243 0.5689 -0.0167
H70 H -0.0433 0.6584 -0.0054
H71 H -0.0317 0.5948 0.0438
C45 C 0.06690(16) 0.8941(3) 0.08346(16)
H72 H 0.0717 0.9536 0.0816
H73 H 0.0317 0.8835 0.0747
C46 C 0.08346(17) 0.8670(4) 0.14058(17)
H74 H 0.1168 0.8870 0.1529
H75 H 0.0840 0.8067 0.1421
C47 C 0.04931(17) 0.8997(4) 0.17820(18)
H76 H 0.0457 0.9592 0.1726
H77 H 0.0169 0.8748 0.1677
C48 C 0.0656(2) 0.8840(6) 0.2367(2)
H78 H 0.0643 0.8254 0.2438
H79 H 0.0445 0.9128 0.2586
H80 H 0.0990 0.9033 0.2467
C49 C 0.0523(3) 0.8909(7) -0.1174(3)
H81 H 0.0499 0.8547 -0.1496
H82 H 0.0197 0.9095 -0.1117
C50 C 0.0878(5) 0.9618(5) -0.1204(4)
H83 H 0.0803 1.0058 -0.0962
H84 H 0.0846 0.9819 -0.1580
H85 H 0.1210 0.9428 -0.1087
C51 C 0.0813(3) 0.8515(4) -0.06513(19)
H86 H 0.0731 0.7930 -0.0641
H87 H 0.1165 0.8562 -0.0665
loop_
_geom_bond_atom_site_label_1
_geom_bond_atom_site_label_2
_geom_bond_site_symmetry_1
_geom_bond_site_symmetry_2
S1 O1 1_555 1_555
O2 S1 1_555 1_555
O3 S1 1_555 1_555
O4 S1 1_555 1_555
O5 N1 1_555 1_555
O6 N1 1_555 1_555
O7 C7 1_555 1_555
O8 C14 1_555 1_555
N1 C1 1_555 1_555
N2 H1 1_555 1_555
N3 H2 1_555 1_555
N4 H3 1_555 1_555
N5 H4 1_555 1_555
C1 C2 1_555 1_555
C2 H5 1_555 1_555
C3 C2 1_555 1_555
H6 C3 1_555 1_555
C4 N2 1_555 1_555
C5 C4 1_555 1_555
H7 C5 1_555 1_555
C6 C1 1_555 1_555
H8 C6 1_555 1_555
C7 N2 1_555 1_555
C8 N3 1_555 1_555
C9 C8 1_555 1_555
H9 C9 1_555 1_555
C10 C9 1_555 1_555
H10 C10 1_555 1_555
C11 C10 1_555 1_555
H11 C11 1_555 1_555
C12 C11 1_555 1_555
H12 C12 1_555 1_555
C13 N4 1_555 1_555
C14 N4 1_555 1_555
C15 N5 1_555 1_555
C16 C15 1_555 1_555
H13 C16 1_555 1_555
C17 C15 1_555 1_555
C18 C17 1_555 1_555
H14 C18 1_555 1_555
C19 C18 1_555 1_555
H15 C19 1_555 1_555
N6 C20 1_555 1_555
C20 H16 1_555 1_555
H17 C20 1_555 1_555
C21 C20 1_555 1_555
H18 C21 1_555 1_555
H19 C21 1_555 1_555
C22 C21 1_555 1_555
H20 C22 1_555 1_555
H21 C22 1_555 1_555
C23 C22 1_555 1_555
H22 C23 1_555 1_555
H23 C23 1_555 1_555
H24 C23 1_555 1_555
C24 N6 1_555 1_555
H25 C24 1_555 1_555
H26 C24 1_555 1_555
C25 C24 1_555 1_555
H27 C25 1_555 1_555
H28 C25 1_555 1_555
C26 C25 1_555 1_555
H29 C26 1_555 1_555
H30 C26 1_555 1_555
C27 C26 1_555 1_555
H31 C27 1_555 1_555
H32 C27 1_555 1_555
H33 C27 1_555 1_555
C28 N6 1_555 1_555
H34 C28 1_555 1_555
H35 C28 1_555 1_555
C29 C28 1_555 1_555
H36 C29 1_555 1_555
H37 C29 1_555 1_555
C30 C29 1_555 1_555
H38 C30 1_555 1_555
H39 C30 1_555 1_555
C31 C30 1_555 1_555
H40 C31 1_555 1_555
H41 C31 1_555 1_555
H42 C31 1_555 1_555
C32 N6 1_555 1_555
H43 C32 1_555 1_555
H44 C32 1_555 1_555
C33 H45 1_555 1_555
H46 C33 1_555 1_555
C34 C33 1_555 1_555
H47 C34 1_555 1_555
H48 C34 1_555 1_555
H49 C34 1_555 1_555
C35 C32 1_555 1_555
H50 C35 1_555 1_555
H51 C35 1_555 1_555
N7 C36 1_555 1_555
C36 H52 1_555 1_555
H53 C36 1_555 1_555
C37 C36 1_555 1_555
H54 C37 1_555 1_555
H55 C37 1_555 1_555
C38 C37 1_555 1_555
H56 C38 1_555 1_555
H57 C38 1_555 1_555
C39 C38 1_555 1_555
H58 C39 1_555 1_555
H59 C39 1_555 1_555
H60 C39 1_555 1_555
C40 N7 1_555 1_555
H61 C40 1_555 1_555
H62 C40 1_555 1_555
C41 N7 1_555 1_555
H63 C41 1_555 1_555
H64 C41 1_555 1_555
C42 C41 1_555 1_555
H65 C42 1_555 1_555
H66 C42 1_555 1_555
C43 C42 1_555 1_555
H67 C43 1_555 1_555
H68 C43 1_555 1_555
C44 C43 1_555 1_555
H69 C44 1_555 1_555
H70 C44 1_555 1_555
H71 C44 1_555 1_555
C45 N7 1_555 1_555
H72 C45 1_555 1_555
H73 C45 1_555 1_555
C46 C45 1_555 1_555
H74 C46 1_555 1_555
H75 C46 1_555 1_555
C47 C46 1_555 1_555
H76 C47 1_555 1_555
H77 C47 1_555 1_555
C48 C47 1_555 1_555
H78 C48 1_555 1_555
H79 C48 1_555 1_555
H80 C48 1_555 1_555
C49 H81 1_555 1_555
H82 C49 1_555 1_555
C50 C49 1_555 1_555
H83 C50 1_555 1_555
H84 C50 1_555 1_555
H85 C50 1_555 1_555
C51 C40 1_555 1_555
H86 C51 1_555 1_555
H87 C51 1_555 1_555
O5F N1F 1_555 1_555
O6F N1F 1_555 1_555
O7F C7F 1_555 1_555
O8F C14F 1_555 1_555
N1F C1F 1_555 1_555
N2F H1F 1_555 1_555
N3F H2F 1_555 1_555
N4F H3F 1_555 1_555
N5F H4F 1_555 1_555
C1F C2F 1_555 1_555
C2F H5F 1_555 1_555
C3F C2F 1_555 1_555
H6F C3F 1_555 1_555
C4F N2F 1_555 1_555
C5F C4F 1_555 1_555
H7F C5F 1_555 1_555
C6F C1F 1_555 1_555
H8F C6F 1_555 1_555
C7F N2F 1_555 1_555
C8F N3F 1_555 1_555
C9F C8F 1_555 1_555
H9F C9F 1_555 1_555
C10F C9F 1_555 1_555
H10F C10F 1_555 1_555
C11F C10F 1_555 1_555
H11F C11F 1_555 1_555
C12F C11F 1_555 1_555
H12F C12F 1_555 1_555
C13F N4F 1_555 1_555
C14F N4F 1_555 1_555
C15F N5F 1_555 1_555
C16F C19 1_555 1_555
H13F C16F 1_555 1_555
C17F C17 1_555 1_555
C18F C17F 1_555 1_555
H14F C18F 1_555 1_555
C19F C16 1_555 1_555
H15F C19F 1_555 1_555
N3 C7 1_555 1_555
N5 C14 1_555 1_555
C3 C4 1_555 1_555
C5 C6 1_555 1_555
C8 C13 1_555 1_555
C12 C13 1_555 1_555
C33 C35 1_555 1_555
C49 C51 1_555 1_555
N3F C7F 1_555 1_555
N5F C14F 1_555 1_555
C3F C4F 1_555 1_555
C5F C6F 1_555 1_555
C8F C13F 1_555 1_555
C12F C13F 1_555 1_555
C15F C16F 1_555 1_555
C15F C17F 1_555 1_555
C18F C19F 1_555 1_555

#END
