
#######################################################################
#
#                 Cambridge Crystallographic Data Centre
#                                CCDC 
#
#######################################################################
#
# If this CIF has been generated from an entry in the Cambridge 
# Structural Database, then it will include bibliographic, chemical, 
# crystal, experimental, refinement or atomic coordinate data resulting 
# from the CCDC's data processing and validation procedures.
#
#######################################################################

data_DEXRUW
_chemical_formula_moiety         'C29 H26 N2 O3'
_chemical_name_systematic        
1-[6-benzyl-1-(4-methoxyphenyl)-3-methyl-4-phenyl-1,4-dihydropyrano[2,3-c]pyrazol-5-yl]ethan-1-one
_symmetry_cell_setting           orthorhombic
_symmetry_space_group_name_H-M   'P 21 21 21'
_symmetry_Int_Tables_number      19
_space_group_name_Hall           'P 2ac 2ab'
loop_
_symmetry_equiv_pos_site_id
_symmetry_equiv_pos_as_xyz
1 x,y,z
2 1/2-x,-y,1/2+z
3 -x,1/2+y,1/2-z
4 1/2+x,1/2-y,-z
_cell_length_a                   8.11470(10)
_cell_length_b                   12.62820(10)
_cell_length_c                   23.1261(2)
_cell_angle_alpha                90
_cell_angle_beta                 90
_cell_angle_gamma                90
_cell_volume                     2369.83
_exptl_crystal_colour            colorless
_exptl_crystal_description       block
_cell_formula_units_Z            4
loop_
_atom_site_label
_atom_site_type_symbol
_atom_site_fract_x
_atom_site_fract_y
_atom_site_fract_z
O1 O 0.63101(14) 0.38639(11) 0.39377(6)
O2 O 0.2832(3) 0.17925(18) 0.46960(11)
O3 O 1.0283(2) 0.82518(11) 0.32842(8)
N1 N 0.90468(16) 0.39529(11) 0.35756(6)
N2 N 1.02911(18) 0.32558(12) 0.34365(7)
C1 C 0.5196(2) 0.31828(18) 0.42087(8)
C2 C 0.5401(2) 0.21335(17) 0.42362(7)
C3 C 0.6815(2) 0.15494(14) 0.39402(7)
H1 H 0.7321 0.1067 0.4220
C4 C 0.8070(2) 0.23467(14) 0.37597(7)
C5 C 0.77279(19) 0.33955(14) 0.37663(7)
C6 C 0.9699(2) 0.22958(14) 0.35486(7)
C7 C 0.3780(3) 0.3847(2) 0.44332(13)
H2 H 0.2908 0.3844 0.4146
H3 H 0.3349 0.3514 0.4780
C8 C 0.4205(2) 0.49711(18) 0.45714(8)
C9 C 0.5067(3) 0.5229(2) 0.50619(9)
H4 H 0.5399 0.4696 0.5314
C10 C 0.5449(4) 0.6269(3) 0.51866(14)
H5 H 0.6037 0.6426 0.5521
C11 C 0.4985(6) 0.7057(3) 0.4834(2)
H6 H 0.5242 0.7756 0.4922
C12 C 0.4142(6) 0.6821(4) 0.4348(2)
H7 H 0.3826 0.7364 0.4100
C13 C 0.3739(4) 0.5788(3) 0.42134(12)
H8 H 0.3147 0.5643 0.3878
C14 C 0.4209(3) 0.1475(2) 0.45719(8)
C15 C 0.4717(4) 0.0386(3) 0.47546(14)
H9 H 0.3887 0.0089 0.5002
H10 H 0.5743 0.0423 0.4960
H11 H 0.4848 -0.0054 0.4419
C16 C 0.6218(2) 0.09024(14) 0.34215(7)
C17 C 0.6741(3) -0.01375(17) 0.33395(11)
H12 H 0.7415 -0.0457 0.3614
C18 C 0.6267(4) -0.0698(2) 0.28544(13)
H13 H 0.6629 -0.1390 0.2803
C19 C 0.5272(4) -0.0242(3) 0.24497(12)
H14 H 0.4954 -0.0624 0.2125
C20 C 0.4742(3) 0.0779(2) 0.25231(9)
H15 H 0.4060 0.1089 0.2248
C21 C 0.5217(2) 0.13522(18) 0.30048(8)
H16 H 0.4859 0.2047 0.3049
C22 C 1.0729(3) 0.13375(16) 0.34432(10)
H17 H 1.1464 0.1469 0.3126
H18 H 1.0028 0.0748 0.3352
H19 H 1.1357 0.1178 0.3784
C23 C 0.9287(2) 0.50542(14) 0.34830(7)
C24 C 0.8394(2) 0.58174(15) 0.37834(8)
H20 H 0.7567 0.5617 0.4040
C25 C 0.8746(3) 0.68721(16) 0.36976(9)
H21 H 0.8142 0.7383 0.3895
C26 C 0.9990(2) 0.71862(14) 0.33216(8)
C27 C 1.0836(2) 0.64290(15) 0.30138(8)
H22 H 1.1649 0.6631 0.2752
C28 C 1.0480(2) 0.53699(15) 0.30932(8)
H23 H 1.1051 0.4862 0.2882
C29 C 1.1703(3) 0.85733(18) 0.29675(12)
H24 H 1.1588 0.8361 0.2571
H25 H 1.2665 0.8246 0.3130
H26 H 1.1813 0.9329 0.2988
loop_
_geom_bond_atom_site_label_1
_geom_bond_atom_site_label_2
_geom_bond_site_symmetry_1
_geom_bond_site_symmetry_2
O1 C1 1_555 1_555
O2 C14 1_555 1_555
O3 C26 1_555 1_555
N1 N2 1_555 1_555
N2 C6 1_555 1_555
C1 C2 1_555 1_555
C2 C3 1_555 1_555
C3 H1 1_555 1_555
C4 C3 1_555 1_555
C5 O1 1_555 1_555
C6 C4 1_555 1_555
C7 C1 1_555 1_555
H2 C7 1_555 1_555
H3 C7 1_555 1_555
C8 C7 1_555 1_555
C9 C8 1_555 1_555
H4 C9 1_555 1_555
C10 C9 1_555 1_555
H5 C10 1_555 1_555
C11 C10 1_555 1_555
H6 C11 1_555 1_555
C12 C11 1_555 1_555
H7 C12 1_555 1_555
C13 C8 1_555 1_555
H8 C13 1_555 1_555
C14 C2 1_555 1_555
C15 C14 1_555 1_555
H9 C15 1_555 1_555
H10 C15 1_555 1_555
H11 C15 1_555 1_555
C16 C3 1_555 1_555
C17 C16 1_555 1_555
H12 C17 1_555 1_555
C18 C17 1_555 1_555
H13 C18 1_555 1_555
C19 C18 1_555 1_555
H14 C19 1_555 1_555
C20 C19 1_555 1_555
H15 C20 1_555 1_555
C21 C16 1_555 1_555
H16 C21 1_555 1_555
C22 C6 1_555 1_555
H17 C22 1_555 1_555
H18 C22 1_555 1_555
H19 C22 1_555 1_555
C23 N1 1_555 1_555
C24 C23 1_555 1_555
H20 C24 1_555 1_555
C25 C24 1_555 1_555
H21 C25 1_555 1_555
C26 C25 1_555 1_555
C27 C26 1_555 1_555
H22 C27 1_555 1_555
C28 C23 1_555 1_555
H23 C28 1_555 1_555
C29 O3 1_555 1_555
H24 C29 1_555 1_555
H25 C29 1_555 1_555
H26 C29 1_555 1_555
N1 C5 1_555 1_555
C4 C5 1_555 1_555
C12 C13 1_555 1_555
C20 C21 1_555 1_555
C27 C28 1_555 1_555

#END
