
#######################################################################
#
#                 Cambridge Crystallographic Data Centre
#                                CCDC 
#
#######################################################################
#
# If this CIF has been generated from an entry in the Cambridge 
# Structural Database, then it will include bibliographic, chemical, 
# crystal, experimental, refinement or atomic coordinate data resulting 
# from the CCDC's data processing and validation procedures.
#
#######################################################################

data_DEZBER
_chemical_formula_moiety         'C1 H5 N6 1+,Cl1 O4 1-'
_chemical_name_systematic        '1H-Tetrazol-5-ylhydrazinium perchlorate'
_symmetry_cell_setting           orthorhombic
_symmetry_space_group_name_H-M   'P b c a'
_symmetry_Int_Tables_number      61
_space_group_name_Hall           '-P 2ac 2ab'
loop_
_symmetry_equiv_pos_site_id
_symmetry_equiv_pos_as_xyz
1 x,y,z
2 1/2-x,-y,1/2+z
3 -x,1/2+y,1/2-z
4 1/2+x,1/2-y,-z
5 -x,-y,-z
6 1/2+x,y,1/2-z
7 x,1/2-y,1/2+z
8 1/2-x,1/2+y,z
_cell_length_a                   7.762(2)
_cell_length_b                   9.400(3)
_cell_length_c                   17.653(5)
_cell_angle_alpha                90
_cell_angle_beta                 90
_cell_angle_gamma                90
_cell_volume                     1288.01
_exptl_crystal_colour            colorless
_exptl_crystal_description       Platelet
_cell_formula_units_Z            8
loop_
_atom_site_label
_atom_site_type_symbol
_atom_site_fract_x
_atom_site_fract_y
_atom_site_fract_z
Cl1 Cl 0.24366(4) 0.50106(3) 0.576671(19)
O1 O 0.17917(15) 0.56265(13) 0.50572(6)
O2 O 0.15894(16) 0.57008(13) 0.63866(7)
O3 O 0.2067(2) 0.35098(14) 0.57677(7)
O4 O 0.42668(17) 0.52343(16) 0.58085(7)
N1 N 0.17374(16) 0.61048(14) 0.32696(7)
N2 N 0.07260(17) 0.58966(14) 0.26438(7)
N3 N 0.01573(18) 0.70849(15) 0.23819(7)
N4 N 0.07797(17) 0.81194(14) 0.28365(7)
N5 N 0.25679(16) 0.82451(14) 0.39344(7)
N6 N 0.39852(18) 0.74892(14) 0.42624(8)
C1 C 0.17450(19) 0.75013(15) 0.33706(8)
H1 H 0.051(3) 0.899(3) 0.2738(15)
H2 H 0.288(3) 0.909(3) 0.3811(14)
H3 H 0.468(3) 0.725(2) 0.3956(14)
H4 H 0.449(3) 0.800(2) 0.4551(13)
H5 H 0.358(3) 0.677(3) 0.4506(14)
loop_
_geom_bond_atom_site_label_1
_geom_bond_atom_site_label_2
_geom_bond_site_symmetry_1
_geom_bond_site_symmetry_2
Cl1 O1 1_555 1_555
O2 Cl1 1_555 1_555
O3 Cl1 1_555 1_555
O4 Cl1 1_555 1_555
N1 N2 1_555 1_555
N2 N3 1_555 1_555
N3 N4 1_555 1_555
N4 C1 1_555 1_555
N5 N6 1_555 1_555
N6 H3 1_555 1_555
C1 N1 1_555 1_555
H1 N4 1_555 1_555
H2 N5 1_555 1_555
H4 N6 1_555 1_555
H5 N6 1_555 1_555
N5 C1 1_555 1_555

#END
