
#######################################################################
#
#                 Cambridge Crystallographic Data Centre
#                                CCDC 
#
#######################################################################
#
# If this CIF has been generated from an entry in the Cambridge 
# Structural Database, then it will include bibliographic, chemical, 
# crystal, experimental, refinement or atomic coordinate data resulting 
# from the CCDC's data processing and validation procedures.
#
#######################################################################

data_DEZFUJ
_chemical_formula_moiety         'C15 H13 N1 O2'
_chemical_name_systematic        N-Phenyl-5-norbornene-2,3-dicarboximide
_symmetry_cell_setting           orthorhombic
_symmetry_space_group_name_H-M   'P b c a'
_symmetry_Int_Tables_number      61
_space_group_name_Hall           '-P 2ac 2ab'
loop_
_symmetry_equiv_pos_site_id
_symmetry_equiv_pos_as_xyz
1 x,y,z
2 1/2-x,-y,1/2+z
3 1/2+x,1/2-y,-z
4 -x,1/2+y,1/2-z
5 -x,-y,-z
6 1/2+x,y,1/2-z
7 1/2-x,1/2+y,z
8 x,1/2-y,1/2+z
_cell_length_a                   12.063(6)
_cell_length_b                   16.361(6)
_cell_length_c                   24.478(8)
_cell_angle_alpha                90
_cell_angle_beta                 90
_cell_angle_gamma                90
_cell_volume                     4831.05
_cell_formula_units_Z            16
loop_
_atom_site_label
_atom_site_type_symbol
_atom_site_fract_x
_atom_site_fract_y
_atom_site_fract_z
N1 N 0.4433(2) 0.4732(1) 0.1752(1)
O1 O 0.2756(1) 0.5320(1) 0.1532(1)
O2 O 0.6226(1) 0.4502(1) 0.2047(1)
C1 C 0.3244(3) 0.3530(2) 0.1726(1)
C2 C 0.2982(3) 0.2782(2) 0.1490(2)
C3 C 0.3648(4) 0.2443(2) 0.1093(2)
C4 C 0.4587(8) 0.2844(2) 0.0930(1)
C5 C 0.4863(2) 0.3590(2) 0.1151(1)
C6 C 0.4187(2) 0.3929(1) 0.1546(1)
C7 C 0.3686(2) 0.5380(2) 0.1713(1)
C8 C 0.4236(2) 0.6128(2) 0.1937(1)
C9 C 0.3763(2) 0.6447(2) 0.2490(1)
C10 C 0.3707(3) 0.5735(2) 0.2879(1)
C11 C 0.4740(3) 0.5537(2) 0.3012(1)
C12 C 0.5502(2) 0.6103(2) 0.2710(1)
C13 C 0.5416(2) 0.5862(2) 0.2094(1)
C14 C 0.5463(2) 0.4965(2) 0.1971(1)
C15 C 0.4804(8) 0.6883(2) 0.2705(1)
H1 H 0.274(2) 0.381(1) 0.198(1)
H2 H 0.231(2) 0.251(2) 0.161(1)
H3 H 0.340(2) 0.190(2) 0.093(1)
H4 H 0.505(2) 0.262(2) 0.062(1)
H5 H 0.552(2) 0.390(1) 0.106(1)
H6 H 0.417(2) 0.657(1) 0.167(1)
H7 H 0.311(2) 0.678(1) 0.244(1)
H8 H 0.305(2) 0.545(2) 0.299(1)
H9 H 0.497(2) 0.508(2) 0.322(1)
H10 H 0.622(2) 0.614(1) 0.282(1)
H11 H 0.598(2) 0.610(1) 0.187(1)
H12 H 0.473(2) 0.712(1) 0.307(1)
H13 H 0.508(2) 0.735(1) 0.246(1)
N2 N 0.6638(2) 0.6657(1) 0.0443(1)
O3 O 0.5325(2) 0.5726(1) 0.0717(1)
O4 O 0.8147(2) 0.7285(1) 0.0041(1)
C16 C 0.5414(2) 0.7660(2) 0.0873(1)
C17 C 0.5226(3) 0.8224(1) 0.1286(1)
C18 C 0.6041(3) 0.8391(2) 0.1663(1)
C19 C 0.7046(3) 0.8004(2) 0.1640(1)
C20 C 0.7237(2) 0.7437(2) 0.1234(1)
C21 C 0.6423(2) 0.7261(2) 0.0854(1)
C22 C 0.6091(2) 0.5907(2) 0.0418(1)
C23 C 0.6633(2) 0.5390(2) -0.0015(1)
C24 C 0.7236(3) 0.4615(2) 0.0217(1)
C25 C 0.7890(3) 0.4901(2) 0.0707(1)
C26 C 0.8713(3) 0.5356(2) 0.0530(1)
C27 C 0.8646(3) 0.5387(2) -0.0091(1)
C28 C 0.7591(2) 0.5913(2) -0.0233(1)
C29 C 0.7531(2) 0.6704(2) 0.0075(1)
C30 C 0.8169(3) 0.4544(2) -0.0209(1)
H14 H 0.490(2) 0.754(1) 0.061(1)
H15 H 0.452(2) 0.848(1) 0.130(1)
H16 H 0.592(2) 0.876(2) 0.194(1)
H17 H 0.764(2) 0.815(2) 0.192(1)
H18 H 0.795(2) 0.716(1) 0.120(1)
H19 H 0.604(2) 0.525(1) -0.028(1)
H20 H 0.674(2) 0.416(1) 0.026(1)
H21 H 0.767(2) 0.477(1) 0.108(1)
H22 H 0.927(2) 0.558(2) -0.029(1)
H23 H 0.757(2) 0.603(1) -0.064(1)
H24 H 0.782(2) 0.446(1) -0.061(1)
H25 H 0.864(2) 0.412(1) -0.012(1)
loop_
_geom_bond_atom_site_label_1
_geom_bond_atom_site_label_2
_geom_bond_site_symmetry_1
_geom_bond_site_symmetry_2
N1 C6 1_555 1_555
O1 C7 1_555 1_555
O2 C14 1_555 1_555
C1 C2 1_555 1_555
C2 C3 1_555 1_555
C3 C4 1_555 1_555
C4 C5 1_555 1_555
C5 C6 1_555 1_555
C6 C1 1_555 1_555
C7 N1 1_555 1_555
C8 C7 1_555 1_555
C9 C8 1_555 1_555
C10 C9 1_555 1_555
C11 C10 1_555 1_555
C12 C11 1_555 1_555
C13 C8 1_555 1_555
C14 N1 1_555 1_555
C15 C9 1_555 1_555
H1 C1 1_555 1_555
H2 C2 1_555 1_555
H3 C3 1_555 1_555
H4 C4 1_555 1_555
H5 C5 1_555 1_555
H6 C8 1_555 1_555
H7 C9 1_555 1_555
H8 C10 1_555 1_555
H9 C11 1_555 1_555
H10 C12 1_555 1_555
H11 C13 1_555 1_555
H12 C15 1_555 1_555
H13 C15 1_555 1_555
N2 C21 1_555 1_555
O3 C22 1_555 1_555
O4 C29 1_555 1_555
C16 C17 1_555 1_555
C17 C18 1_555 1_555
C18 C19 1_555 1_555
C19 C20 1_555 1_555
C20 C21 1_555 1_555
C21 C16 1_555 1_555
C22 N2 1_555 1_555
C23 C22 1_555 1_555
C24 C23 1_555 1_555
C25 C24 1_555 1_555
C26 C25 1_555 1_555
C27 C26 1_555 1_555
C28 C23 1_555 1_555
C29 N2 1_555 1_555
C30 C24 1_555 1_555
H14 C16 1_555 1_555
H15 C17 1_555 1_555
H16 C18 1_555 1_555
H17 C19 1_555 1_555
H18 C20 1_555 1_555
H19 C23 1_555 1_555
H20 C24 1_555 1_555
H21 C25 1_555 1_555
H22 C27 1_555 1_555
H23 C28 1_555 1_555
H24 C30 1_555 1_555
H25 C30 1_555 1_555
C12 C13 1_555 1_555
C12 C15 1_555 1_555
C13 C14 1_555 1_555
C27 C28 1_555 1_555
C27 C30 1_555 1_555
C28 C29 1_555 1_555

#END
