
#######################################################################
#
#                 Cambridge Crystallographic Data Centre
#                                CCDC 
#
#######################################################################
#
# If this CIF has been generated from an entry in the Cambridge 
# Structural Database, then it will include bibliographic, chemical, 
# crystal, experimental, refinement or atomic coordinate data resulting 
# from the CCDC's data processing and validation procedures.
#
#######################################################################

data_DEZQIK
_chemical_formula_moiety         'C11 H12 N2 O2'
_chemical_name_systematic        
2-(4-Methoxyphenyl)-5-methyl-1,2-dihydro-3H-pyrazol-3-one
_symmetry_cell_setting           monoclinic
_symmetry_space_group_name_H-M   'P 21/c'
_symmetry_Int_Tables_number      14
_space_group_name_Hall           '-P 2ybc'
loop_
_symmetry_equiv_pos_site_id
_symmetry_equiv_pos_as_xyz
1 x,y,z
2 -x,1/2+y,1/2-z
3 -x,-y,-z
4 x,1/2-y,1/2+z
_cell_length_a                   12.466(2)
_cell_length_b                   5.8296(9)
_cell_length_c                   13.399(2)
_cell_angle_alpha                90
_cell_angle_beta                 90.505(10)
_cell_angle_gamma                90
_cell_volume                     973.692
_exptl_crystal_colour            brown
_exptl_crystal_description       plate
_cell_formula_units_Z            4
loop_
_atom_site_label
_atom_site_type_symbol
_atom_site_fract_x
_atom_site_fract_y
_atom_site_fract_z
C1 C 0.8916(4) 0.5453(8) -0.0939(3)
C2 C 0.9116(4) 0.3173(8) -0.0791(3)
H1 H 0.9515 0.2202 -0.1220
C3 C 0.8625(4) 0.2513(8) 0.0116(3)
C4 C 0.9259(4) 0.7002(8) -0.1762(3)
H2 H 0.8661 0.8005 -0.1955
H3 H 0.9476 0.6081 -0.2338
H4 H 0.9867 0.7939 -0.1535
C5 C 0.7523(4) 0.4821(8) 0.1353(3)
C6 C 0.6920(4) 0.6804(8) 0.1467(3)
H5 H 0.6917 0.7937 0.0957
C7 C 0.6315(4) 0.7142(8) 0.2329(3)
H6 H 0.5902 0.8500 0.2405
C8 C 0.6319(4) 0.5486(8) 0.3074(3)
C9 C 0.6910(4) 0.3492(9) 0.2941(3)
H7 H 0.6894 0.2333 0.3440
C10 C 0.7519(4) 0.3165(8) 0.2097(3)
H8 H 0.7935 0.1810 0.2027
C11 C 0.5224(4) 0.7706(9) 0.4159(4)
H9 H 0.5744 0.8968 0.4160
H10 H 0.4886 0.7604 0.4815
H11 H 0.4674 0.7988 0.3648
N1 N 0.8173(3) 0.4507(6) 0.0498(3)
N2 N 0.8300(3) 0.6287(7) -0.0190(3)
O1 O 0.8568(3) 0.0601(6) 0.0544(2)
H12 H 0.841(5) 0.770(11) 0.007(4)
O2 O 0.5760(3) 0.5613(6) 0.3948(2)
H13? H 0.8472 -0.0432 0.0116
loop_
_geom_bond_atom_site_label_1
_geom_bond_atom_site_label_2
_geom_bond_site_symmetry_1
_geom_bond_site_symmetry_2
C1 C2 1_555 1_555
C2 H1 1_555 1_555
C3 C2 1_555 1_555
C4 C1 1_555 1_555
H2 C4 1_555 1_555
H3 C4 1_555 1_555
H4 C4 1_555 1_555
C5 C6 1_555 1_555
C6 H5 1_555 1_555
C7 C6 1_555 1_555
H6 C7 1_555 1_555
C8 C7 1_555 1_555
C9 C8 1_555 1_555
H7 C9 1_555 1_555
C10 C5 1_555 1_555
H8 C10 1_555 1_555
C11 H9 1_555 1_555
H10 C11 1_555 1_555
H11 C11 1_555 1_555
N1 C3 1_555 1_555
N2 C1 1_555 1_555
O1 C3 1_555 1_555
H12 N2 1_555 1_555
O2 C8 1_555 1_555
C5 N1 1_555 1_555
C9 C10 1_555 1_555
C11 O2 1_555 1_555
N1 N2 1_555 1_555

#END
