
#######################################################################
#
#                 Cambridge Crystallographic Data Centre
#                                CCDC 
#
#######################################################################
#
# If this CIF has been generated from an entry in the Cambridge 
# Structural Database, then it will include bibliographic, chemical, 
# crystal, experimental, refinement or atomic coordinate data resulting 
# from the CCDC's data processing and validation procedures.
#
#######################################################################

data_DEZQEG
_chemical_formula_moiety         'C16 H14 N2 O2'
_chemical_name_systematic        1-(4-Methoxyphenyl)-3-phenyl-1H-pyrazol-5-ol
_symmetry_cell_setting           monoclinic
_symmetry_space_group_name_H-M   'P c'
_symmetry_Int_Tables_number      7
_space_group_name_Hall           'P -2yc'
loop_
_symmetry_equiv_pos_site_id
_symmetry_equiv_pos_as_xyz
1 x,y,z
2 x,-y,1/2+z
_cell_length_a                   19.9851(6)
_cell_length_b                   12.2269(3)
_cell_length_c                   11.1418(2)
_cell_angle_alpha                90
_cell_angle_beta                 105.1332(14)
_cell_angle_gamma                90
_cell_volume                     2628.15
_exptl_crystal_colour            colorless
_exptl_crystal_description       Irregular
_cell_formula_units_Z            8
loop_
_atom_site_label
_atom_site_type_symbol
_atom_site_fract_x
_atom_site_fract_y
_atom_site_fract_z
O1 O 0.1502(2) 0.6741(4) -0.0110(4)
H1 H 0.1670 0.6928 -0.0696
O2 O -0.0350(3) 0.4379(4) 0.3099(4)
N1 N 0.1596(3) 0.7177(4) 0.1957(4)
N2 N 0.1949(3) 0.7866(4) 0.2885(4)
C1 C 0.2364(3) 0.8445(4) 0.2368(5)
C2 C 0.2285(3) 0.8156(5) 0.1116(5)
H2 H 0.2519 0.8456 0.0550
C3 C 0.1788(3) 0.7337(5) 0.0894(5)
C4 C 0.1090(3) 0.6440(5) 0.2199(5)
C5 C 0.1032(3) 0.5392(5) 0.1735(5)
H3 H 0.1317 0.5158 0.1224
C6 C 0.0553(3) 0.4671(5) 0.2018(6)
H4 H 0.0510 0.3948 0.1695
C7 C 0.0138(3) 0.5012(5) 0.2771(5)
C8 C 0.0194(3) 0.6064(5) 0.3232(5)
H5 H -0.0090 0.6292 0.3749
C9 C 0.0663(3) 0.6792(5) 0.2947(5)
H6 H 0.0695 0.7520 0.3253
C10 C -0.0369(4) 0.3238(5) 0.2747(6)
H7 H -0.0461 0.3180 0.1841
H8 H -0.0737 0.2864 0.3022
H9 H 0.0078 0.2896 0.3139
C11 C 0.2841(3) 0.9278(5) 0.3093(5)
C12 C 0.2945(3) 1.0258(5) 0.2542(6)
H10 H 0.2699 1.0397 0.1704
C13 C 0.3400(4) 1.1036(5) 0.3190(6)
H11 H 0.3470 1.1699 0.2795
C14 C 0.3757(4) 1.0844(5) 0.4429(6)
H12 H 0.4071 1.1375 0.4879
C15 C 0.3650(4) 0.9876(5) 0.4996(6)
H13 H 0.3888 0.9747 0.5840
C16 C 0.3191(3) 0.9086(5) 0.4333(5)
H14 H 0.3119 0.8422 0.4726
O3 O 0.6837(2) 0.9146(3) 0.7303(3)
H15 H 0.6672 0.9355 0.7885
O4 O 0.8716(2) 0.6559(3) 0.4441(4)
N3 N 0.6766(3) 0.9550(4) 0.5232(4)
N4 N 0.6429(3) 1.0255(4) 0.4306(4)
C17 C 0.6047(3) 1.0899(5) 0.4826(5)
C18 C 0.6119(3) 1.0625(5) 0.6081(5)
H16 H 0.5901 1.0958 0.6650
C19 C 0.6578(3) 0.9765(5) 0.6291(5)
C20 C 0.7255(3) 0.8759(5) 0.5030(5)
C21 C 0.7282(3) 0.7722(4) 0.5553(5)
H17 H 0.6967 0.7529 0.6026
C22 C 0.7770(3) 0.6968(5) 0.5384(5)
H18 H 0.7797 0.6267 0.5762
C23 C 0.8216(3) 0.7237(4) 0.4667(5)
C24 C 0.8172(4) 0.8268(5) 0.4128(6)
H19 H 0.8473 0.8451 0.3624
C25 C 0.7699(3) 0.9032(5) 0.4313(5)
H20 H 0.7680 0.9738 0.3950
C26 C 0.8700(3) 0.5434(4) 0.4827(6)
H21 H 0.8787 0.5402 0.5734
H22 H 0.9059 0.5018 0.4571
H23 H 0.8244 0.5118 0.4439
C27 C 0.5581(3) 1.1737(4) 0.4111(5)
C28 C 0.5465(3) 1.2694(5) 0.4699(6)
H24 H 0.5710 1.2823 0.5540
C29 C 0.4990(4) 1.3467(5) 0.4064(6)
H25 H 0.4913 1.4118 0.4473
C30 C 0.4632(4) 1.3285(5) 0.2839(6)
H26 H 0.4304 1.3807 0.2407
C31 C 0.4753(4) 1.2338(5) 0.2248(6)
H27 H 0.4507 1.2217 0.1406
C32 C 0.5225(3) 1.1565(5) 0.2860(5)
H28 H 0.5308 1.0923 0.2439
O5 O 0.6856(2) 0.4261(3) 0.7637(4)
H29 H 0.6688 0.4484 0.8209
O6 O 0.8842(2) 0.1848(3) 0.4724(4)
N5 N 0.6757(3) 0.4542(4) 0.5551(4)
N6 N 0.6395(2) 0.5166(4) 0.4554(4)
C33 C 0.5991(3) 0.5811(4) 0.5020(5)
C34 C 0.6073(4) 0.5627(5) 0.6309(5)
H30 H 0.5843 0.5982 0.6847
C35 C 0.6569(3) 0.4804(5) 0.6596(5)
C36 C 0.7277(3) 0.3805(4) 0.5398(5)
C37 C 0.7901(3) 0.3692(5) 0.6349(5)
H31 H 0.7957 0.4065 0.7117
C38 C 0.8427(3) 0.3038(5) 0.6157(5)
H32 H 0.8842 0.2954 0.6801
C39 C 0.8352(3) 0.2496(5) 0.5018(6)
C40 C 0.7733(3) 0.2606(5) 0.4104(5)
H33 H 0.7673 0.2227 0.3339
C41 C 0.7203(3) 0.3252(5) 0.4283(5)
H34 H 0.6786 0.3321 0.3642
C42 C 0.9538(3) 0.1957(5) 0.5506(6)
H35 H 0.9686 0.2721 0.5509
H36 H 0.9851 0.1492 0.5185
H37 H 0.9549 0.1732 0.6355
C43 C 0.5545(3) 0.6643(4) 0.4244(5)
C44 C 0.5444(3) 0.7645(5) 0.4760(5)
H38 H 0.5667 0.7785 0.5609
C45 C 0.5020(3) 0.8452(5) 0.4050(6)
H39 H 0.4966 0.9143 0.4403
C46 C 0.4680(4) 0.8222(5) 0.2817(6)
H40 H 0.4374 0.8748 0.2337
C47 C 0.4782(3) 0.7237(5) 0.2285(5)
H41 H 0.4561 0.7102 0.1434
C48 C 0.5207(3) 0.6438(5) 0.2991(5)
H42 H 0.5268 0.5756 0.2625
O7 O 0.1614(2) 0.8420(3) 0.4945(3)
H43 H 0.1804 0.8254 0.4381
O8 O -0.0639(2) 1.0100(4) 0.7824(4)
N7 N 0.1637(3) 0.7938(4) 0.6972(4)
N8 N 0.1965(3) 0.7221(4) 0.7896(4)
C49 C 0.2371(3) 0.6619(5) 0.7391(5)
C50 C 0.2317(3) 0.6914(4) 0.6148(5)
H44 H 0.2551 0.6599 0.5593
C51 C 0.1847(3) 0.7759(5) 0.5921(5)
C52 C 0.1071(3) 0.8581(5) 0.7121(5)
C53 C 0.0446(3) 0.8548(5) 0.6208(5)
H45 H 0.0413 0.8156 0.5459
C54 C -0.0131(3) 0.9088(5) 0.6392(5)
H46 H -0.0555 0.9096 0.5761
C55 C -0.0075(3) 0.9614(5) 0.7509(5)
C56 C 0.0552(4) 0.9684(5) 0.8398(6)
H47 H 0.0585 1.0080 0.9145
C57 C 0.1132(3) 0.9175(5) 0.8195(5)
H48 H 0.1567 0.9234 0.8792
C58 C -0.1308(3) 0.9828(5) 0.7019(7)
H49 H -0.1358 1.0167 0.6204
H50 H -0.1672 1.0098 0.7384
H51 H -0.1347 0.9032 0.6923
C59 C 0.2828(3) 0.5754(5) 0.8116(5)
C60 C 0.2919(3) 0.4775(5) 0.7549(6)
H52 H 0.2671 0.4645 0.6710
C61 C 0.3368(4) 0.3985(5) 0.8195(6)
H53 H 0.3435 0.3327 0.7789
C62 C 0.3719(3) 0.4148(5) 0.9432(6)
H54 H 0.4021 0.3601 0.9881
C63 C 0.3622(4) 0.5130(5) 1.0004(6)
H55 H 0.3865 0.5257 1.0846
C64 C 0.3173(3) 0.5921(5) 0.9355(6)
H56 H 0.3103 0.6579 0.9759
loop_
_geom_bond_atom_site_label_1
_geom_bond_atom_site_label_2
_geom_bond_site_symmetry_1
_geom_bond_site_symmetry_2
O1 H1 1_555 1_555
O2 C7 1_555 1_555
N1 N2 1_555 1_555
N2 C1 1_555 1_555
C1 C2 1_555 1_555
C2 H2 1_555 1_555
C3 O1 1_555 1_555
C4 N1 1_555 1_555
C5 C4 1_555 1_555
H3 C5 1_555 1_555
C6 C5 1_555 1_555
H4 C6 1_555 1_555
C7 C6 1_555 1_555
C8 C7 1_555 1_555
H5 C8 1_555 1_555
C9 C4 1_555 1_555
H6 C9 1_555 1_555
C10 O2 1_555 1_555
H7 C10 1_555 1_555
H8 C10 1_555 1_555
H9 C10 1_555 1_555
C11 C1 1_555 1_555
C12 C11 1_555 1_555
H10 C12 1_555 1_555
C13 C12 1_555 1_555
H11 C13 1_555 1_555
C14 C13 1_555 1_555
H12 C14 1_555 1_555
C15 C14 1_555 1_555
H13 C15 1_555 1_555
C16 C11 1_555 1_555
H14 C16 1_555 1_555
O3 H15 1_555 1_555
O4 C23 1_555 1_555
N3 N4 1_555 1_555
N4 C17 1_555 1_555
C17 C18 1_555 1_555
C18 H16 1_555 1_555
C19 O3 1_555 1_555
C20 N3 1_555 1_555
C21 C20 1_555 1_555
H17 C21 1_555 1_555
C22 C21 1_555 1_555
H18 C22 1_555 1_555
C23 C22 1_555 1_555
C24 C23 1_555 1_555
H19 C24 1_555 1_555
C25 C20 1_555 1_555
H20 C25 1_555 1_555
C26 O4 1_555 1_555
H21 C26 1_555 1_555
H22 C26 1_555 1_555
H23 C26 1_555 1_555
C27 C17 1_555 1_555
C28 C27 1_555 1_555
H24 C28 1_555 1_555
C29 C28 1_555 1_555
H25 C29 1_555 1_555
C30 C29 1_555 1_555
H26 C30 1_555 1_555
C31 C30 1_555 1_555
H27 C31 1_555 1_555
C32 C27 1_555 1_555
H28 C32 1_555 1_555
O5 H29 1_555 1_555
O6 C39 1_555 1_555
N5 N6 1_555 1_555
N6 C33 1_555 1_555
C33 C34 1_555 1_555
C34 H30 1_555 1_555
C35 O5 1_555 1_555
C36 N5 1_555 1_555
C37 C36 1_555 1_555
H31 C37 1_555 1_555
C38 C37 1_555 1_555
H32 C38 1_555 1_555
C39 C38 1_555 1_555
C40 C39 1_555 1_555
H33 C40 1_555 1_555
C41 C36 1_555 1_555
H34 C41 1_555 1_555
C42 O6 1_555 1_555
H35 C42 1_555 1_555
H36 C42 1_555 1_555
H37 C42 1_555 1_555
C43 C33 1_555 1_555
C44 C43 1_555 1_555
H38 C44 1_555 1_555
C45 C44 1_555 1_555
H39 C45 1_555 1_555
C46 C45 1_555 1_555
H40 C46 1_555 1_555
C47 C46 1_555 1_555
H41 C47 1_555 1_555
C48 C43 1_555 1_555
H42 C48 1_555 1_555
O7 H43 1_555 1_555
O8 C55 1_555 1_555
N7 N8 1_555 1_555
N8 C49 1_555 1_555
C49 C50 1_555 1_555
C50 H44 1_555 1_555
C51 O7 1_555 1_555
C52 N7 1_555 1_555
C53 C52 1_555 1_555
H45 C53 1_555 1_555
C54 C53 1_555 1_555
H46 C54 1_555 1_555
C55 C54 1_555 1_555
C56 C55 1_555 1_555
H47 C56 1_555 1_555
C57 C52 1_555 1_555
H48 C57 1_555 1_555
C58 O8 1_555 1_555
H49 C58 1_555 1_555
H50 C58 1_555 1_555
H51 C58 1_555 1_555
C59 C49 1_555 1_555
C60 C59 1_555 1_555
H52 C60 1_555 1_555
C61 C60 1_555 1_555
H53 C61 1_555 1_555
C62 C61 1_555 1_555
H54 C62 1_555 1_555
C63 C62 1_555 1_555
H55 C63 1_555 1_555
C64 C59 1_555 1_555
H56 C64 1_555 1_555
N1 C3 1_555 1_555
C2 C3 1_555 1_555
C8 C9 1_555 1_555
C15 C16 1_555 1_555
N3 C19 1_555 1_555
C18 C19 1_555 1_555
C24 C25 1_555 1_555
C31 C32 1_555 1_555
N5 C35 1_555 1_555
C34 C35 1_555 1_555
C40 C41 1_555 1_555
C47 C48 1_555 1_555
N7 C51 1_555 1_555
C50 C51 1_555 1_555
C56 C57 1_555 1_555
C63 C64 1_555 1_555

#END
