
#######################################################################
#
#                 Cambridge Crystallographic Data Centre
#                                CCDC 
#
#######################################################################
#
# If this CIF has been generated from an entry in the Cambridge 
# Structural Database, then it will include bibliographic, chemical, 
# crystal, experimental, refinement or atomic coordinate data resulting 
# from the CCDC's data processing and validation procedures.
#
#######################################################################

data_DIBJAB
_chemical_formula_moiety         'C24 H20 Br1 N3 O4'
_chemical_name_systematic        
'4-((1-(2,4-Dimethoxyphenyl)-1H-1,2,4-triazol-5-yl)methyl)phenyl 4-bromobenzoate'
_symmetry_cell_setting           orthorhombic
_symmetry_space_group_name_H-M   'P b c a'
_symmetry_Int_Tables_number      61
_space_group_name_Hall           '-P 2ac 2ab'
loop_
_symmetry_equiv_pos_site_id
_symmetry_equiv_pos_as_xyz
1 x,y,z
2 1/2-x,-y,1/2+z
3 1/2+x,1/2-y,-z
4 -x,1/2+y,1/2-z
5 -x,-y,-z
6 1/2+x,y,1/2-z
7 1/2-x,1/2+y,z
8 x,1/2-y,1/2+z
_cell_length_a                   5.9280(4)
_cell_length_b                   17.5761(16)
_cell_length_c                   43.390(3)
_cell_angle_alpha                90
_cell_angle_beta                 90
_cell_angle_gamma                90
_cell_volume                     4520.85
_cell_formula_units_Z            8
loop_
_atom_site_label
_atom_site_type_symbol
_atom_site_fract_x
_atom_site_fract_y
_atom_site_fract_z
Br1 Br 0.13920(11) 0.74750(3) 0.401087(13)
N1 N 0.3104(7) 0.4572(2) 0.69290(9)
N2 N 0.1291(7) 0.4402(2) 0.71160(9)
N3 N 0.1813(8) 0.3492(2) 0.67496(10)
O1 O 0.1838(6) 0.58164(18) 0.66080(8)
O2 O 0.7879(6) 0.72911(18) 0.70257(8)
O3 O 0.3280(6) 0.5547(2) 0.53446(8)
O4 O 0.0322(7) 0.6229(2) 0.55110(9)
C1 C 0.3394(9) 0.4020(3) 0.67175(10)
C2 C 0.0625(9) 0.3756(3) 0.69928(13)
H1 H -0.0610 0.3491 0.7070
C3 C 0.4336(8) 0.5266(3) 0.69653(10)
C4 C 0.3693(8) 0.5912(3) 0.67904(10)
C5 C 0.4935(8) 0.6571(3) 0.68176(11)
H2 H 0.4545 0.6997 0.6702
C6 C 0.6782(9) 0.6601(3) 0.70181(11)
C7 C 0.7432(9) 0.5970(3) 0.71873(11)
H3 H 0.8680 0.5987 0.7317
C8 C 0.6152(9) 0.5307(3) 0.71570(11)
H4 H 0.6552 0.4880 0.7271
C9 C 0.1233(9) 0.6424(3) 0.64063(13)
H5 H 0.1048 0.6883 0.6523
H6 H -0.0156 0.6303 0.6304
H7 H 0.2402 0.6495 0.6256
C10 C 0.9728(10) 0.7378(3) 0.72380(13)
H8 H 0.9239 0.7244 0.7442
H9 H 1.0230 0.7898 0.7237
H10 H 1.0947 0.7052 0.7177
C11 C 0.5210(9) 0.4045(3) 0.64798(11)
H11 H 0.5603 0.3527 0.6425
H12 H 0.6537 0.4277 0.6571
C12 C 0.4617(9) 0.4476(3) 0.61872(11)
C13 C 0.6089(9) 0.4994(3) 0.60629(12)
H13 H 0.7438 0.5096 0.6164
C14 C 0.5605(10) 0.5369(3) 0.57884(13)
H14 H 0.6615 0.5721 0.5707
C15 C 0.3612(10) 0.5213(3) 0.56404(12)
C16 C 0.2076(9) 0.4711(3) 0.57652(12)
H15 H 0.0710 0.4620 0.5666
C17 C 0.2583(9) 0.4344(3) 0.60383(12)
H16 H 0.1550 0.4005 0.6123
C18 C 0.1586(9) 0.6048(3) 0.53079(12)
C19 C 0.1568(9) 0.6368(3) 0.49853(11)
C20 C -0.0253(10) 0.6806(3) 0.49024(12)
H17 H -0.1436 0.6880 0.5040
C21 C -0.0319(10) 0.7141(3) 0.46107(14)
H18 H -0.1549 0.7437 0.4553
C22 C 0.1449(10) 0.7030(3) 0.44086(12)
C23 C 0.3254(9) 0.6584(3) 0.44928(11)
H19 H 0.4436 0.6508 0.4355
C24 C 0.3319(8) 0.6244(3) 0.47860(12)
H20 H 0.4531 0.5939 0.4843
loop_
_geom_bond_atom_site_label_1
_geom_bond_atom_site_label_2
_geom_bond_site_symmetry_1
_geom_bond_site_symmetry_2
Br1 C22 1_555 1_555
N1 N2 1_555 1_555
N2 C2 1_555 1_555
N3 C1 1_555 1_555
O1 C4 1_555 1_555
O2 C6 1_555 1_555
O3 C15 1_555 1_555
O4 C18 1_555 1_555
C1 N1 1_555 1_555
C2 N3 1_555 1_555
H1 C2 1_555 1_555
C3 N1 1_555 1_555
C4 C3 1_555 1_555
C5 C4 1_555 1_555
H2 C5 1_555 1_555
C6 C5 1_555 1_555
C7 C6 1_555 1_555
H3 C7 1_555 1_555
C8 C3 1_555 1_555
H4 C8 1_555 1_555
C9 O1 1_555 1_555
H5 C9 1_555 1_555
H6 C9 1_555 1_555
H7 C9 1_555 1_555
C10 O2 1_555 1_555
H8 C10 1_555 1_555
H9 C10 1_555 1_555
H10 C10 1_555 1_555
C11 C1 1_555 1_555
H11 C11 1_555 1_555
H12 C11 1_555 1_555
C12 C11 1_555 1_555
C13 C12 1_555 1_555
H13 C13 1_555 1_555
C14 C13 1_555 1_555
H14 C14 1_555 1_555
C15 C14 1_555 1_555
C16 C15 1_555 1_555
H15 C16 1_555 1_555
C17 C12 1_555 1_555
H16 C17 1_555 1_555
C18 O3 1_555 1_555
C19 C18 1_555 1_555
C20 C19 1_555 1_555
H17 C20 1_555 1_555
C21 C20 1_555 1_555
H18 C21 1_555 1_555
C22 C21 1_555 1_555
C23 C22 1_555 1_555
H19 C23 1_555 1_555
C24 C19 1_555 1_555
H20 C24 1_555 1_555
C7 C8 1_555 1_555
C16 C17 1_555 1_555
C23 C24 1_555 1_555

#END
