
#######################################################################
#
#                 Cambridge Crystallographic Data Centre
#                                CCDC 
#
#######################################################################
#
# If this CIF has been generated from an entry in the Cambridge 
# Structural Database, then it will include bibliographic, chemical, 
# crystal, experimental, refinement or atomic coordinate data resulting 
# from the CCDC's data processing and validation procedures.
#
#######################################################################

data_DIBLUY
_chemical_formula_moiety         'C4 H2 N6 O4'
_chemical_name_systematic        
5-(4-nitro-1,2,5-oxadiazol-3-yl)-1,3,4-oxadiazol-2-amine
_symmetry_cell_setting           monoclinic
_symmetry_space_group_name_H-M   'P 21/c'
_symmetry_Int_Tables_number      14
_space_group_name_Hall           '-P 2ybc'
loop_
_symmetry_equiv_pos_site_id
_symmetry_equiv_pos_as_xyz
1 x,y,z
2 -x,1/2+y,1/2-z
3 -x,-y,-z
4 x,1/2-y,1/2+z
_cell_length_a                   10.3955(18)
_cell_length_b                   6.6077(10)
_cell_length_c                   21.780(3)
_cell_angle_alpha                90
_cell_angle_beta                 98.776(5)
_cell_angle_gamma                90
_cell_volume                     1478.56
_exptl_crystal_description       sheet
_cell_formula_units_Z            8
loop_
_atom_site_label
_atom_site_type_symbol
_atom_site_fract_x
_atom_site_fract_y
_atom_site_fract_z
C1 C 0.0994(3) 0.1786(4) 0.22047(12)
C2 C 0.1006(3) 0.3155(4) 0.17083(13)
C3 C 0.2098(3) 0.7710(4) 0.11746(13)
C4 C 0.1669(3) 0.5058(4) 0.16490(12)
N1 N 0.0172(2) 0.0337(4) 0.20575(11)
N2 N 0.0166(2) 0.2487(4) 0.12408(11)
N3 N 0.1747(2) 0.1777(4) 0.28244(12)
N4 N 0.2788(2) 0.7822(3) 0.17288(11)
N5 N 0.2493(2) 0.6051(4) 0.20373(10)
N6 N 0.2005(3) 0.9030(4) 0.07112(13)
H1 H 0.248(3) 1.016(4) 0.0774(14)
H2 H 0.158(3) 0.869(5) 0.0331(10)
O1 O -0.0356(2) 0.0741(3) 0.14539(9)
O2 O 0.1337(2) 0.0813(4) 0.32243(10)
O3 O 0.2744(2) 0.2753(4) 0.28941(10)
O4 O 0.13609(17) 0.6010(3) 0.10902(8)
C5 C 0.3072(3) 1.1883(4) 0.44406(12)
C6 C 0.4238(3) 1.1624(4) 0.41978(12)
C7 C 0.5209(3) 0.7308(4) 0.34382(12)
C8 C 0.4882(3) 0.9843(4) 0.39954(12)
N7 N 0.2875(2) 1.3755(4) 0.45678(11)
N8 N 0.4784(2) 1.3390(4) 0.41795(11)
N9 N 0.2181(2) 1.0317(4) 0.45895(11)
N10 N 0.6228(2) 0.7460(3) 0.38673(11)
N11 N 0.5999(2) 0.9149(3) 0.42285(10)
N12 N 0.4987(2) 0.5995(4) 0.29747(11)
H3 H 0.554(2) 0.494(4) 0.2974(13)
H4 H 0.4173(19) 0.601(4) 0.2759(12)
O5 O 0.3945(2) 1.4731(3) 0.44052(10)
O6 O 0.1202(2) 1.0856(4) 0.47864(10)
O7 O 0.2533(2) 0.8584(3) 0.45184(9)
O8 O 0.43026(18) 0.8768(3) 0.34876(8)
loop_
_geom_bond_atom_site_label_1
_geom_bond_atom_site_label_2
_geom_bond_site_symmetry_1
_geom_bond_site_symmetry_2
C1 C2 1_555 1_555
C2 C4 1_555 1_555
C3 N4 1_555 1_555
C4 N5 1_555 1_555
N1 C1 1_555 1_555
N2 C2 1_555 1_555
N3 C1 1_555 1_555
N4 N5 1_555 1_555
N6 C3 1_555 1_555
H1 N6 1_555 1_555
H2 N6 1_555 1_555
O1 N1 1_555 1_555
O2 N3 1_555 1_555
O3 N3 1_555 1_555
O4 C3 1_555 1_555
C5 C6 1_555 1_555
C6 C8 1_555 1_555
C7 N10 1_555 1_555
C8 N11 1_555 1_555
N7 C5 1_555 1_555
N8 C6 1_555 1_555
N9 C5 1_555 1_555
N10 N11 1_555 1_555
N12 C7 1_555 1_555
H3 N12 1_555 1_555
H4 N12 1_555 1_555
O5 N7 1_555 1_555
O6 N9 1_555 1_555
O7 N9 1_555 1_555
O8 C7 1_555 1_555
C4 O4 1_555 1_555
N2 O1 1_555 1_555
C8 O8 1_555 1_555
N8 O5 1_555 1_555

#END
