
#######################################################################
#
#                 Cambridge Crystallographic Data Centre
#                                CCDC 
#
#######################################################################
#
# If this CIF has been generated from an entry in the Cambridge 
# Structural Database, then it will include bibliographic, chemical, 
# crystal, experimental, refinement or atomic coordinate data resulting 
# from the CCDC's data processing and validation procedures.
#
#######################################################################

data_DIBSAL
_chemical_formula_moiety         'C8 N12 O8'
_chemical_name_systematic        
3,3'-[diazene-1,2-diylbis(1,3,4-oxadiazole-5,2-diyl)]bis(4-nitro-1,2,5-oxadiazole)
_symmetry_cell_setting           monoclinic
_symmetry_space_group_name_H-M   'P 21/n'
_symmetry_Int_Tables_number      14
_space_group_name_Hall           '-P 2yn'
loop_
_symmetry_equiv_pos_site_id
_symmetry_equiv_pos_as_xyz
1 x,y,z
2 1/2-x,1/2+y,1/2-z
3 -x,-y,-z
4 1/2+x,1/2-y,1/2+z
_cell_length_a                   10.8979(17)
_cell_length_b                   4.8616(7)
_cell_length_c                   13.714(2)
_cell_angle_alpha                90
_cell_angle_beta                 100.886(5)
_cell_angle_gamma                90
_cell_volume                     713.51
_exptl_crystal_colour            yellow
_exptl_crystal_description       needle
_cell_formula_units_Z            2
loop_
_atom_site_label
_atom_site_type_symbol
_atom_site_fract_x
_atom_site_fract_y
_atom_site_fract_z
C1 C 0.55213(13) 0.5146(3) 0.71083(11)
C2 C 0.43940(14) 0.5382(3) 0.64084(11)
C3 C 0.31737(13) 0.4101(3) 0.63329(10)
C4 C 0.12604(14) 0.3556(3) 0.57845(11)
N1 N 0.63870(13) 0.6676(3) 0.68719(11)
N2 N 0.45854(13) 0.7143(3) 0.57321(11)
N3 N 0.28497(12) 0.1985(3) 0.67951(10)
N4 N 0.15768(12) 0.1619(3) 0.64281(10)
N5 N 0.58069(12) 0.3472(3) 0.79998(10)
N6 N 0.00559(11) 0.3907(3) 0.52479(9)
O1 O 0.58157(12) 0.7937(3) 0.60086(10)
O2 O 0.22212(9) 0.5226(2) 0.56794(7)
O3 O 0.53830(13) 0.1153(3) 0.79195(10)
O4 O 0.64353(12) 0.4488(3) 0.87303(9)
C1B C -0.55213(13) 0.4854(3) 0.28917(11)
C2B C -0.43940(14) 0.4618(3) 0.35916(11)
C3B C -0.31737(13) 0.5899(3) 0.36671(10)
C4B C -0.12604(14) 0.6444(3) 0.42155(11)
N1B N -0.63870(13) 0.3324(3) 0.31281(11)
N2B N -0.45854(13) 0.2857(3) 0.42679(11)
N3B N -0.28497(12) 0.8015(3) 0.32049(10)
N4B N -0.15768(12) 0.8381(3) 0.35719(10)
N5B N -0.58069(12) 0.6528(3) 0.20002(10)
N6B N -0.00559(11) 0.6093(3) 0.47521(9)
O1B O -0.58157(12) 0.2063(3) 0.39914(10)
O2B O -0.22212(9) 0.4774(2) 0.43206(7)
O3B O -0.53830(13) 0.8847(3) 0.20805(10)
O4B O -0.64353(12) 0.5512(3) 0.12697(9)
loop_
_geom_bond_atom_site_label_1
_geom_bond_atom_site_label_2
_geom_bond_site_symmetry_1
_geom_bond_site_symmetry_2
C1 C2 1_555 1_555
C2 C3 1_555 1_555
C3 N3 1_555 1_555
C4 N4 1_555 1_555
N1 C1 1_555 1_555
N2 C2 1_555 1_555
N3 N4 1_555 1_555
N5 C1 1_555 1_555
N6 C4 1_555 1_555
O1 N1 1_555 1_555
O2 C3 1_555 1_555
O3 N5 1_555 1_555
O4 N5 1_555 1_555
C1B C2B 1_555 1_555
C2B C3B 1_555 1_555
C3B N3B 1_555 1_555
C4B N4B 1_555 1_555
N1B C1B 1_555 1_555
N2B C2B 1_555 1_555
N3B N4B 1_555 1_555
N5B C1B 1_555 1_555
N6B N6 1_555 1_555
O1B N1B 1_555 1_555
O2B C3B 1_555 1_555
O3B N5B 1_555 1_555
O4B N5B 1_555 1_555
C4 O2 1_555 1_555
N2 O1 1_555 1_555
C4B N6B 1_555 1_555
C4B O2B 1_555 1_555
N2B O1B 1_555 1_555

#END
