
#######################################################################
#
#                 Cambridge Crystallographic Data Centre
#                                CCDC 
#
#######################################################################
#
# If this CIF has been generated from an entry in the Cambridge 
# Structural Database, then it will include bibliographic, chemical, 
# crystal, experimental, refinement or atomic coordinate data resulting 
# from the CCDC's data processing and validation procedures.
#
#######################################################################

data_DIBYAP
_chemical_formula_moiety         'C12 H14 N2 O2 S6 1+,Cl1 O4 1-'
_chemical_name_systematic        
'2,3-bis(Methylaminocarbonyl)-6,7-bis(methylthio)fulvalenium radical perchlorate'
_symmetry_cell_setting           triclinic
_symmetry_space_group_name_H-M   'P -1'
_symmetry_Int_Tables_number      2
_space_group_name_Hall           '-P 1'
loop_
_symmetry_equiv_pos_site_id
_symmetry_equiv_pos_as_xyz
1 x,y,z
2 -x,-y,-z
_cell_length_a                   7.4716(11)
_cell_length_b                   10.4775(16)
_cell_length_c                   13.571(2)
_cell_angle_alpha                112.049(3)
_cell_angle_beta                 91.326(2)
_cell_angle_gamma                99.671(3)
_cell_volume                     966.365
_exptl_crystal_colour            black
_exptl_crystal_description       strip
_cell_formula_units_Z            2
loop_
_atom_site_label
_atom_site_type_symbol
_atom_site_fract_x
_atom_site_fract_y
_atom_site_fract_z
Cl1 Cl 0.15654(8) 0.08281(6) 0.20911(5)
O3 O 0.2971(3) 0.1249(2) 0.15106(18)
O4 O 0.1030(3) -0.06521(19) 0.16877(16)
O5 O 0.0097(3) 0.1503(3) 0.2032(2)
O6 O 0.2306(4) 0.1317(2) 0.31842(16)
S1 S 0.24725(8) 0.46227(6) 0.34835(4)
S2 S 0.45302(8) 0.73391(6) 0.49364(4)
S3 S 0.15786(8) 0.37452(6) 0.54818(4)
S4 S 0.34158(8) 0.65264(6) 0.69423(4)
S5 S 0.04358(8) 0.28721(6) 0.73086(5)
S6 S 0.25003(9) 0.58695(7) 0.88909(5)
O1 O 0.3240(3) 0.60315(18) 0.12160(13)
O2 O 0.6448(2) 0.91493(18) 0.42579(14)
N1 N 0.2576(3) 0.3854(2) 0.11992(15)
H1 H 0.2483 0.3321 0.1572
N2 N 0.5224(3) 0.8486(2) 0.25527(16)
H2 H 0.4416 0.7870 0.2042
C1 C 0.3408(3) 0.5784(2) 0.28986(17)
C2 C 0.4350(3) 0.7044(2) 0.35804(17)
C3 C 0.3216(3) 0.5747(2) 0.47802(17)
C4 C 0.2760(3) 0.5385(2) 0.56436(18)
C5 C 0.1510(3) 0.4102(2) 0.68315(17)
C6 C 0.2372(3) 0.5414(2) 0.75178(18)
C7 C 0.3090(3) 0.5236(2) 0.16954(18)
C8 C 0.2166(4) 0.3213(3) 0.00427(19)
H3 H 0.1149 0.3570 -0.0164
H4 H 0.1830 0.2192 -0.0184
H5 H 0.3242 0.3446 -0.0301
C9 C 0.5438(3) 0.8325(2) 0.34594(19)
C10 C 0.6294(4) 0.9662(3) 0.2376(2)
H6 H 0.6536 1.0486 0.3049
H7 H 0.5615 0.9872 0.1847
H8 H 0.7452 0.9421 0.2112
C11 C -0.0507(3) 0.1414(3) 0.60924(19)
H9 H -0.1322 0.1716 0.5683
H10 H -0.1195 0.0655 0.6266
H11 H 0.0483 0.1078 0.5666
C12 C 0.3029(4) 0.7756(3) 0.9410(2)
H12 H 0.4274 0.8067 0.9269
H13 H 0.2933 0.8128 1.0182
H14 H 0.2169 0.8102 0.9061
loop_
_geom_bond_atom_site_label_1
_geom_bond_atom_site_label_2
_geom_bond_site_symmetry_1
_geom_bond_site_symmetry_2
Cl1 O3 1_555 1_555
S1 C1 1_555 1_555
S2 C2 1_555 1_555
S3 C4 1_555 1_555
S4 C4 1_555 1_555
S5 C5 1_555 1_555
S6 C6 1_555 1_555
O1 C7 1_555 1_555
O2 C9 1_555 1_555
O4 Cl1 1_555 1_555
O5 Cl1 1_555 1_555
O6 Cl1 1_555 1_555
N1 H1 1_555 1_555
N2 H2 1_555 1_555
C1 C2 1_555 1_555
C2 C9 1_555 1_555
C3 S1 1_555 1_555
C4 C3 1_555 1_555
C5 S3 1_555 1_555
C6 S4 1_555 1_555
C7 N1 1_555 1_555
C8 N1 1_555 1_555
H3 C8 1_555 1_555
H4 C8 1_555 1_555
H5 C8 1_555 1_555
C9 N2 1_555 1_555
C10 N2 1_555 1_555
H6 C10 1_555 1_555
H7 C10 1_555 1_555
H8 C10 1_555 1_555
C11 S5 1_555 1_555
H9 C11 1_555 1_555
H10 C11 1_555 1_555
H11 C11 1_555 1_555
C12 S6 1_555 1_555
H12 C12 1_555 1_555
H13 C12 1_555 1_555
H14 C12 1_555 1_555
S2 C3 1_555 1_555
C1 C7 1_555 1_555
C5 C6 1_555 1_555

#END
