
#######################################################################
#
#                 Cambridge Crystallographic Data Centre
#                                CCDC 
#
#######################################################################
#
# If this CIF has been generated from an entry in the Cambridge 
# Structural Database, then it will include bibliographic, chemical, 
# crystal, experimental, refinement or atomic coordinate data resulting 
# from the CCDC's data processing and validation procedures.
#
#######################################################################

data_DICHOP
_chemical_formula_moiety         'C19 H19 N1 O3'
_chemical_name_systematic        
3-[(4-methoxyphenyl)methyl]-6-methylidene-4-phenyl-1,3-oxazinan-2-one
_symmetry_cell_setting           orthorhombic
_symmetry_space_group_name_H-M   'P b c a'
_symmetry_Int_Tables_number      61
_space_group_name_Hall           '-P 2ac 2ab'
loop_
_symmetry_equiv_pos_site_id
_symmetry_equiv_pos_as_xyz
1 x,y,z
2 1/2-x,-y,1/2+z
3 -x,1/2+y,1/2-z
4 1/2+x,1/2-y,-z
5 -x,-y,-z
6 1/2+x,y,1/2-z
7 x,1/2-y,1/2+z
8 1/2-x,1/2+y,z
_cell_length_a                   16.116(3)
_cell_length_b                   8.4159(17)
_cell_length_c                   23.178(5)
_cell_angle_alpha                90
_cell_angle_beta                 90
_cell_angle_gamma                90
_cell_volume                     3143.65
_cell_formula_units_Z            8
loop_
_atom_site_label
_atom_site_type_symbol
_atom_site_fract_x
_atom_site_fract_y
_atom_site_fract_z
O1 O 0.02442(10) 0.54954(18) 0.41334(8)
O2 O 0.12388(12) 0.44408(19) 0.46643(8)
O3 O 0.14051(11) 0.9800(2) 0.71775(7)
N1 N 0.12028(12) 0.7135(2) 0.45896(8)
C1 C -0.07211(15) 0.6633(3) 0.35089(11)
H1 H -0.0732 0.5652 0.3306
H2 H -0.1057 0.7494 0.3383
C2 C -0.02380(14) 0.6799(3) 0.39660(10)
C3 C -0.01559(14) 0.8192(3) 0.43541(10)
H3 H -0.0406 0.7948 0.4734
H4 H -0.0453 0.9114 0.4187
C4 C 0.07633(14) 0.8595(2) 0.44296(9)
H5 H 0.0808 0.9345 0.4763
C5 C 0.09254(15) 0.5656(3) 0.44847(10)
C6 C 0.11420(14) 0.9416(3) 0.39074(10)
C7 C 0.14105(15) 0.8573(3) 0.34281(10)
H6 H 0.1383 0.7445 0.3429
C8 C 0.17196(17) 0.9362(3) 0.29464(11)
H7 H 0.1893 0.8779 0.2617
C9 C 0.17738(16) 1.1013(3) 0.29503(12)
H8 H 0.1985 1.1559 0.2623
C10 C 0.15220(17) 1.1853(3) 0.34283(12)
H9 H 0.1563 1.2979 0.3430
C11 C 0.12080(15) 1.1066(3) 0.39083(11)
H10 H 0.1038 1.1654 0.4237
C12 C 0.19675(14) 0.7347(3) 0.49224(10)
H11 H 0.2329 0.8120 0.4721
H12 H 0.2267 0.6321 0.4941
C13 C 0.18070(14) 0.7935(2) 0.55342(9)
C14 C 0.23722(14) 0.8947(3) 0.57998(10)
H13 H 0.2866 0.9236 0.5602
C15 C 0.22249(15) 0.9539(3) 0.63482(10)
H14 H 0.2613 1.0241 0.6522
C16 C 0.15067(15) 0.9105(3) 0.66450(9)
C17 C 0.09469(15) 0.8075(3) 0.63914(10)
H15 H 0.0460 0.7764 0.6593
C18 C 0.10998(15) 0.7496(3) 0.58381(10)
H16 H 0.0714 0.6788 0.5666
C19 C 0.06184(17) 0.9602(4) 0.74479(12)
H17 H 0.0182 1.0018 0.7195
H18 H 0.0612 1.0181 0.7815
H19 H 0.0520 0.8471 0.7520
loop_
_geom_bond_atom_site_label_1
_geom_bond_atom_site_label_2
_geom_bond_site_symmetry_1
_geom_bond_site_symmetry_2
O1 C2 1_555 1_555
O2 C5 1_555 1_555
O3 C16 1_555 1_555
N1 C4 1_555 1_555
C1 H1 1_555 1_555
H2 C1 1_555 1_555
C2 C1 1_555 1_555
C3 C2 1_555 1_555
H3 C3 1_555 1_555
H4 C3 1_555 1_555
C4 C3 1_555 1_555
H5 C4 1_555 1_555
C5 O1 1_555 1_555
C6 C4 1_555 1_555
C7 C6 1_555 1_555
H6 C7 1_555 1_555
C8 C7 1_555 1_555
H7 C8 1_555 1_555
C9 C8 1_555 1_555
H8 C9 1_555 1_555
C10 C9 1_555 1_555
H9 C10 1_555 1_555
C11 C6 1_555 1_555
H10 C11 1_555 1_555
C12 N1 1_555 1_555
H11 C12 1_555 1_555
H12 C12 1_555 1_555
C13 C12 1_555 1_555
C14 C13 1_555 1_555
H13 C14 1_555 1_555
C15 C14 1_555 1_555
H14 C15 1_555 1_555
C16 C15 1_555 1_555
C17 C16 1_555 1_555
H15 C17 1_555 1_555
C18 C13 1_555 1_555
H16 C18 1_555 1_555
C19 O3 1_555 1_555
H17 C19 1_555 1_555
H18 C19 1_555 1_555
H19 C19 1_555 1_555
N1 C5 1_555 1_555
C10 C11 1_555 1_555
C17 C18 1_555 1_555

#END
