
#######################################################################
#
#                 Cambridge Crystallographic Data Centre
#                                CCDC 
#
#######################################################################
#
# If this CIF has been generated from an entry in the Cambridge 
# Structural Database, then it will include bibliographic, chemical, 
# crystal, experimental, refinement or atomic coordinate data resulting 
# from the CCDC's data processing and validation procedures.
#
#######################################################################

data_DICLAF
_chemical_formula_moiety         'C28 H28 O1'
_chemical_name_systematic        
(E)-2-(2,4-diphenylbut-3-en-1-yl)-2-phenylcyclohexan-1-one
_symmetry_cell_setting           orthorhombic
_symmetry_space_group_name_H-M   'P n a 21'
_symmetry_Int_Tables_number      33
_space_group_name_Hall           'P 2c -2n'
loop_
_symmetry_equiv_pos_site_id
_symmetry_equiv_pos_as_xyz
1 x,y,z
2 -x,-y,1/2+z
3 1/2-x,1/2+y,1/2+z
4 1/2+x,1/2-y,z
_cell_length_a                   18.3080(5)
_cell_length_b                   19.0516(6)
_cell_length_c                   6.22760(18)
_cell_angle_alpha                90
_cell_angle_beta                 90
_cell_angle_gamma                90
_cell_volume                     2172.17
_exptl_crystal_colour            colorless
_exptl_crystal_description       block
_chemical_melting_point          '119.5-121.5 deg.C'
_cell_formula_units_Z            4
loop_
_atom_site_label
_atom_site_type_symbol
_atom_site_fract_x
_atom_site_fract_y
_atom_site_fract_z
O1 O -0.66911(6) -0.32468(7) -0.5330(2)
C1 C -0.87812(9) -0.33906(10) -0.2561(4)
H1 H -0.8537 -0.3132 -0.3604
C2 C -0.94596(10) -0.36694(11) -0.3011(5)
H2 H -0.9672 -0.3594 -0.4349
C3 C -0.98223(11) -0.40573(12) -0.1491(6)
H3 H -1.0279 -0.4246 -0.1802
C4 C -0.95154(13) -0.41665(12) 0.0469(6)
H4 H -0.9763 -0.4430 0.1495
C5 C -0.88381(11) -0.38874(10) 0.0942(4)
H5 H -0.8633 -0.3965 0.2287
C6 C -0.84601(8) -0.34926(8) -0.0569(3)
C7 C -0.77410(8) -0.32046(8) 0.0026(3)
H6 H -0.7562 -0.3334 0.1367
C8 C -0.73214(8) -0.27850(8) -0.1120(3)
H7 H -0.7482 -0.2653 -0.2478
C9 C -0.65987(8) -0.25092(8) -0.0352(3)
H8 H -0.6488 -0.2740 0.1015
C10 C -0.66446(8) -0.17247(8) 0.0071(3)
C11 C -0.64819(11) -0.14568(11) 0.2061(4)
H9 H -0.6354 -0.1761 0.3166
C12 C -0.65049(13) -0.07396(13) 0.2453(5)
H10 H -0.6388 -0.0567 0.3807
C13 C -0.66999(11) -0.02869(11) 0.0850(5)
H11 H -0.6717 0.0193 0.1114
C14 C -0.68712(10) -0.05415(10) -0.1153(4)
H12 H -0.7007 -0.0234 -0.2242
C15 C -0.68415(8) -0.12580(9) -0.1549(4)
H13 H -0.6954 -0.1428 -0.2909
C16 C -0.59480(8) -0.26455(8) -0.1887(3)
H14 H -0.5512 -0.2462 -0.1204
H15 H -0.6029 -0.2370 -0.3175
C17 C -0.57829(8) -0.34088(8) -0.2596(3)
C18 C -0.58211(9) -0.39227(9) -0.0680(3)
H16 H -0.5429 -0.3812 0.0312
H17 H -0.6280 -0.3851 0.0069
C19 C -0.57623(10) -0.46963(9) -0.1310(3)
H18 H -0.5293 -0.4783 -0.1981
H19 H -0.5796 -0.4987 -0.0036
C20 C -0.63689(12) -0.48845(10) -0.2852(4)
H20 H -0.6838 -0.4817 -0.2157
H21 H -0.6328 -0.5375 -0.3255
C21 C -0.63261(11) -0.44283(10) -0.4847(3)
H22 H -0.5888 -0.4548 -0.5642
H23 H -0.6743 -0.4529 -0.5759
C22 C -0.63150(8) -0.36564(9) -0.4342(3)
C23 C -0.50239(8) -0.33899(8) -0.3676(3)
C24 C -0.49396(10) -0.30791(11) -0.5675(3)
H24 H -0.5348 -0.2904 -0.6384
C25 C -0.42562(12) -0.30234(13) -0.6644(4)
H25 H -0.4210 -0.2812 -0.7983
C26 C -0.36504(12) -0.32830(14) -0.5608(6)
H26 H -0.3193 -0.3256 -0.6254
C27 C -0.37237(11) -0.35794(13) -0.3632(6)
H27 H -0.3312 -0.3747 -0.2924
C28 C -0.43986(9) -0.36363(10) -0.2660(4)
H28 H -0.4435 -0.3842 -0.1310
loop_
_geom_bond_atom_site_label_1
_geom_bond_atom_site_label_2
_geom_bond_site_symmetry_1
_geom_bond_site_symmetry_2
O1 C22 1_555 1_555
C1 H1 1_555 1_555
C2 C1 1_555 1_555
H2 C2 1_555 1_555
C3 C2 1_555 1_555
H3 C3 1_555 1_555
C4 C3 1_555 1_555
H4 C4 1_555 1_555
C5 C4 1_555 1_555
H5 C5 1_555 1_555
C6 C1 1_555 1_555
C7 C6 1_555 1_555
H6 C7 1_555 1_555
C8 C7 1_555 1_555
H7 C8 1_555 1_555
C9 C8 1_555 1_555
H8 C9 1_555 1_555
C10 C9 1_555 1_555
C11 C10 1_555 1_555
H9 C11 1_555 1_555
C12 C11 1_555 1_555
H10 C12 1_555 1_555
C13 C12 1_555 1_555
H11 C13 1_555 1_555
C14 C13 1_555 1_555
H12 C14 1_555 1_555
C15 C10 1_555 1_555
H13 C15 1_555 1_555
C16 C9 1_555 1_555
H14 C16 1_555 1_555
H15 C16 1_555 1_555
C17 C16 1_555 1_555
C18 C17 1_555 1_555
H16 C18 1_555 1_555
H17 C18 1_555 1_555
C19 C18 1_555 1_555
H18 C19 1_555 1_555
H19 C19 1_555 1_555
C20 C19 1_555 1_555
H20 C20 1_555 1_555
H21 C20 1_555 1_555
C21 C20 1_555 1_555
H22 C21 1_555 1_555
H23 C21 1_555 1_555
C22 C17 1_555 1_555
C23 C17 1_555 1_555
C24 C23 1_555 1_555
H24 C24 1_555 1_555
C25 C24 1_555 1_555
H25 C25 1_555 1_555
C26 C25 1_555 1_555
H26 C26 1_555 1_555
C27 C26 1_555 1_555
H27 C27 1_555 1_555
C28 C23 1_555 1_555
H28 C28 1_555 1_555
C5 C6 1_555 1_555
C14 C15 1_555 1_555
C21 C22 1_555 1_555
C27 C28 1_555 1_555

#END
