
#######################################################################
#
#                 Cambridge Crystallographic Data Centre
#                                CCDC 
#
#######################################################################
#
# If this CIF has been generated from an entry in the Cambridge 
# Structural Database, then it will include bibliographic, chemical, 
# crystal, experimental, refinement or atomic coordinate data resulting 
# from the CCDC's data processing and validation procedures.
#
#######################################################################

data_DICPOV
_chemical_formula_moiety         'C15 H12 N2 S3,0.5(H2 O1)'
_chemical_name_systematic        
'rac-cis(4R,5S)-2,4,5-tris(2-Thienyl)-4,5-dihydro-1H-imidazole hemihydrate'
_symmetry_cell_setting           triclinic
_symmetry_space_group_name_H-M   'P -1'
_symmetry_Int_Tables_number      2
_space_group_name_Hall           '-P 1'
loop_
_symmetry_equiv_pos_site_id
_symmetry_equiv_pos_as_xyz
1 x,y,z
2 -x,-y,-z
_cell_length_a                   9.9207(3)
_cell_length_b                   12.3200(3)
_cell_length_c                   14.0979(4)
_cell_angle_alpha                104.0955(16)
_cell_angle_beta                 110.4382(12)
_cell_angle_gamma                95.5952(17)
_cell_volume                     1534.09
_exptl_crystal_colour            colorless
_exptl_crystal_description       block
_cell_formula_units_Z            4
loop_
_atom_site_label
_atom_site_type_symbol
_atom_site_fract_x
_atom_site_fract_y
_atom_site_fract_z
N1 N 0.2583(2) 0.55208(16) -0.04535(14)
H1 H 0.309(3) 0.622(2) -0.024(2)
C1 C 0.3154(2) 0.47484(17) 0.00547(16)
N2 N 0.29112(19) 0.37081(15) -0.05241(14)
C2 C 0.1996(2) 0.36692(17) -0.16196(16)
H2 H 0.2424 0.3256 -0.2113
C3 C 0.2177(2) 0.49579(18) -0.15891(16)
H3 H 0.3043 0.5153 -0.1768
C4 C 0.3955(2) 0.51015(17) 0.12028(16)
C5 C 0.4622(2) 0.62455(17) 0.19054(14)
H4 H 0.4600 0.6930 0.1708
C6 C 0.5326(3) 0.6160(2) 0.29590(18)
H5 H 0.5856 0.6809 0.3554
C7 C 0.5176(3) 0.5084(2) 0.30381(18)
H6 H 0.5580 0.4909 0.3687
S1 S 0.41917(7) 0.40834(5) 0.18543(5)
C8 C 0.0462(2) 0.30427(18) -0.19278(17)
C9 C -0.0502(15) 0.2444(16) -0.2934(8)
H7 H -0.0271 0.2361 -0.3544
C10 C -0.1893(12) 0.1957(14) -0.2970(8)
H8 H -0.2712 0.1562 -0.3607
C11 C -0.1903(10) 0.2125(7) -0.1995(7)
H9 H -0.2700 0.1811 -0.1854
S2 S -0.0301(3) 0.2976(3) -0.1036(2)
C15 C 0.0906(2) 0.53285(18) -0.22883(17)
C16 C 0.0774(3) 0.5520(2) -0.32572(19)
H13 H 0.1485 0.5439 -0.3565
C17 C -0.0598(3) 0.5856(2) -0.3713(2)
H14 H -0.0894 0.6032 -0.4366
C18 C -0.1422(3) 0.5899(2) -0.3130(2)
H15 H -0.2357 0.6106 -0.3328
S4 S -0.06093(7) 0.55429(5) -0.19988(5)
N3 N 0.46929(19) -0.04512(16) 0.15047(14)
H16 H 0.459(3) -0.115(3) 0.110(2)
C19 C 0.4138(2) 0.03007(17) 0.09724(16)
N4 N 0.4908(2) 0.13343(15) 0.13242(14)
C20 C 0.6172(2) 0.13942(18) 0.22963(16)
H17 H 0.7092 0.1791 0.2284
C21 C 0.6230(2) 0.01052(17) 0.21986(16)
H18 H 0.6858 -0.0127 0.1793
C22 C 0.2713(2) -0.00340(17) 0.00913(16)
C23 C 0.1907(16) -0.1118(7) -0.0512(11)
H19 H 0.2226 -0.1802 -0.0421
C24 C 0.0549(19) -0.1088(9) -0.1284(16)
H20 H -0.0176 -0.1746 -0.1749
C25 C 0.0412(19) -0.0001(11) -0.1276(17)
H21 H -0.0393 0.0183 -0.1774
S5 S 0.1831(4) 0.1006(3) -0.0282(3)
C29 C 0.5916(2) 0.20467(17) 0.32441(16)
C30 C 0.4637(7) 0.2183(9) 0.3361(7)
H25 H 0.3709 0.1865 0.2795
C31 C 0.4768(8) 0.2828(12) 0.4377(7)
H26 H 0.3965 0.3006 0.4562
C32 C 0.6191(11) 0.3158(16) 0.5048(9)
H27 H 0.6514 0.3577 0.5776
S7 S 0.7361(3) 0.2727(3) 0.4423(2)
C36 C 0.6771(2) -0.02459(18) 0.31872(16)
C37 C 0.8058(3) -0.0589(2) 0.35860(19)
H31 H 0.8749 -0.0638 0.3259
C38 C 0.8266(3) -0.0866(2) 0.4542(2)
H32 H 0.9111 -0.1115 0.4924
C39 C 0.7132(3) -0.0735(2) 0.48462(19)
H33 H 0.7085 -0.0877 0.5468
S9 S 0.57875(7) -0.02828(5) 0.39752(5)
O1 O 0.51721(18) 0.24915(13) -0.00971(13)
H34 H 0.447(3) 0.277(2) -0.028(2)
H35 H 0.513(3) 0.223(3) 0.036(2)
C12? C -0.024(2) 0.302(3) -0.1222(14)
H10? H 0.0210 0.3352 -0.0475
C13? C -0.172(2) 0.2438(15) -0.1783(17)
H11? H -0.2404 0.2373 -0.1455
C14? C -0.206(3) 0.198(4) -0.2825(17)
H12? H -0.2967 0.1487 -0.3306
S3? S -0.0654(9) 0.2424(10) -0.3176(5)
C26? C 0.1870(18) 0.0691(10) -0.0354(13)
H22? H 0.2183 0.1498 -0.0132
C27? C 0.0504(18) 0.0107(13) -0.1168(19)
H23? H -0.0229 0.0472 -0.1525
C28? C 0.037(2) -0.1034(13) -0.137(2)
H24? H -0.0438 -0.1565 -0.1937
S6? S 0.1794(5) -0.1434(3) -0.0523(4)
C33? C 0.6980(17) 0.268(2) 0.4217(13)
H28? H 0.8006 0.2770 0.4382
C34? C 0.636(2) 0.319(4) 0.4940(17)
H29? H 0.6902 0.3685 0.5638
C35? C 0.489(2) 0.288(3) 0.4500(14)
H30? H 0.4290 0.3099 0.4882
S8? S 0.4172(5) 0.2056(5) 0.3191(4)
loop_
_geom_bond_atom_site_label_1
_geom_bond_atom_site_label_2
_geom_bond_site_symmetry_1
_geom_bond_site_symmetry_2
N1 H1 1_555 1_555
C1 N1 1_555 1_555
N2 C1 1_555 1_555
C2 N2 1_555 1_555
H2 C2 1_555 1_555
C3 N1 1_555 1_555
H3 C3 1_555 1_555
C4 C1 1_555 1_555
C5 C4 1_555 1_555
H4 C5 1_555 1_555
C6 C5 1_555 1_555
H5 C6 1_555 1_555
C7 C6 1_555 1_555
H6 C7 1_555 1_555
S1 C4 1_555 1_555
C8 C2 1_555 1_555
C9 C8 1_555 1_555
H7 C9 1_555 1_555
C10 C9 1_555 1_555
H8 C10 1_555 1_555
C11 C10 1_555 1_555
H9 C11 1_555 1_555
S2 C8 1_555 1_555
C15 C3 1_555 1_555
C16 C15 1_555 1_555
H13 C16 1_555 1_555
C17 C16 1_555 1_555
H14 C17 1_555 1_555
C18 C17 1_555 1_555
H15 C18 1_555 1_555
S4 C15 1_555 1_555
N3 H16 1_555 1_555
C19 N3 1_555 1_555
N4 C19 1_555 1_555
C20 N4 1_555 1_555
H17 C20 1_555 1_555
C21 N3 1_555 1_555
H18 C21 1_555 1_555
C22 C19 1_555 1_555
C23 C22 1_555 1_555
H19 C23 1_555 1_555
C24 C23 1_555 1_555
H20 C24 1_555 1_555
C25 C24 1_555 1_555
H21 C25 1_555 1_555
S5 C22 1_555 1_555
C29 C20 1_555 1_555
C30 C29 1_555 1_555
H25 C30 1_555 1_555
C31 C30 1_555 1_555
H26 C31 1_555 1_555
C32 C31 1_555 1_555
H27 C32 1_555 1_555
S7 C29 1_555 1_555
C36 C21 1_555 1_555
C37 C36 1_555 1_555
H31 C37 1_555 1_555
C38 C37 1_555 1_555
H32 C38 1_555 1_555
C39 C38 1_555 1_555
H33 C39 1_555 1_555
S9 C36 1_555 1_555
O1 H34 1_555 1_555
H35 O1 1_555 1_555
C2 C3 1_555 1_555
C7 S1 1_555 1_555
C11 S2 1_555 1_555
C18 S4 1_555 1_555
C20 C21 1_555 1_555
C25 S5 1_555 1_555
C32 S7 1_555 1_555
C39 S9 1_555 1_555

#END
