
#######################################################################
#
#                 Cambridge Crystallographic Data Centre
#                                CCDC 
#
#######################################################################
#
# If this CIF has been generated from an entry in the Cambridge 
# Structural Database, then it will include bibliographic, chemical, 
# crystal, experimental, refinement or atomic coordinate data resulting 
# from the CCDC's data processing and validation procedures.
#
#######################################################################

data_DICSOY
_chemical_formula_moiety         'C45 H60 B5 N5 O10,0.5(C6 H6),0.25(C5 H12)'
_chemical_name_systematic        
"Cyclo-(pentakis((pyridine-3,4-diolato-O,O',N)(n-butyl)boron)) hemikis(benzene) clathrate pentane solvate"
_symmetry_cell_setting           monoclinic
_symmetry_space_group_name_H-M   'P 21/c'
_symmetry_Int_Tables_number      14
_space_group_name_Hall           '-P 2ybc'
loop_
_symmetry_equiv_pos_site_id
_symmetry_equiv_pos_as_xyz
1 x,y,z
2 -x,1/2+y,1/2-z
3 -x,-y,-z
4 x,1/2-y,1/2+z
_cell_length_a                   24.050(5)
_cell_length_b                   25.720(3)
_cell_length_c                   16.369(4)
_cell_angle_alpha                90
_cell_angle_beta                 90.566(14)
_cell_angle_gamma                90
_cell_volume                     10124.8
_exptl_crystal_colour            colorless
_exptl_crystal_description       irregular
_cell_formula_units_Z            8
loop_
_atom_site_label
_atom_site_type_symbol
_atom_site_fract_x
_atom_site_fract_y
_atom_site_fract_z
O1 O 0.27080(16) 0.61836(13) 0.5211(2)
O2 O 0.34226(16) 0.57584(13) 0.4477(2)
O3 O 0.49544(18) 0.74555(15) 0.5806(3)
O4 O 0.52478(17) 0.67294(15) 0.5021(3)
O5 O 0.65183(19) 0.60818(15) 0.8005(2)
O6 O 0.65980(19) 0.56521(14) 0.6726(2)
O7 O 0.53547(19) 0.38613(17) 0.8398(3)
O8 O 0.53866(17) 0.39608(16) 0.6951(2)
O9 O 0.29218(16) 0.39970(14) 0.7031(2)
O10 O 0.34323(16) 0.39287(13) 0.5789(2)
N1 N 0.4226(2) 0.68906(17) 0.5148(3)
N2 N 0.6189(2) 0.65483(17) 0.6760(3)
N3 N 0.5899(2) 0.46108(18) 0.7823(3)
N4 N 0.3902(2) 0.36904(16) 0.7117(3)
N5 N 0.2872(2) 0.52349(16) 0.5464(3)
C1 C 0.3186(2) 0.64535(19) 0.5248(4)
C2 C 0.3609(2) 0.62121(19) 0.4819(3)
C3 C 0.4125(2) 0.64252(18) 0.4757(3)
H1 H 0.4407 0.6258 0.4453
C4 C 0.3820(3) 0.7129(2) 0.5568(4)
H2 H 0.3901 0.7451 0.5828
C5 C 0.3290(3) 0.6925(2) 0.5636(4)
H3 H 0.3009 0.7099 0.5935
C6 C 0.5354(2) 0.7199(2) 0.6196(4)
C7 C 0.5531(2) 0.6764(2) 0.5733(4)
C8 C 0.5950(2) 0.6446(2) 0.6015(3)
H4 H 0.6072 0.6159 0.5698
C9 C 0.6020(3) 0.6963(2) 0.7202(4)
H5 H 0.6196 0.7028 0.7714
C10 C 0.5601(3) 0.7298(2) 0.6943(4)
H6 H 0.5490 0.7585 0.7268
C11 C 0.6282(3) 0.5612(2) 0.8030(4)
C12 C 0.6332(2) 0.5349(2) 0.7273(4)
C13 C 0.6143(2) 0.4853(2) 0.7185(4)
H7 H 0.6182 0.4678 0.6678
C14 C 0.5850(3) 0.4856(3) 0.8551(4)
H8 H 0.5687 0.4674 0.8994
C15 C 0.6030(3) 0.5362(2) 0.8672(4)
H9 H 0.5981 0.5532 0.9182
C16 C 0.4854(3) 0.3791(2) 0.8068(4)
C17 C 0.4866(3) 0.3854(2) 0.7207(4)
C18 C 0.4398(2) 0.37948(19) 0.6743(4)
H10 H 0.4414 0.3825 0.6165
C19 C 0.3888(3) 0.3628(2) 0.7928(4)
H11 H 0.3541 0.3552 0.8173
C20 C 0.4360(3) 0.3668(2) 0.8436(4)
H12 H 0.4339 0.3612 0.9008
C21 C 0.2871(2) 0.4430(2) 0.6583(4)
C22 C 0.3174(2) 0.43936(18) 0.5843(3)
C23 C 0.3171(2) 0.47945(19) 0.5294(3)
H13 H 0.3375 0.4769 0.4801
C24 C 0.2580(2) 0.5276(2) 0.6164(4)
H14 H 0.2375 0.5585 0.6262
C25 C 0.2571(2) 0.4879(2) 0.6749(4)
H15 H 0.2367 0.4914 0.7240
C26 C 0.2409(3) 0.5521(2) 0.4068(4)
H16 H 0.2394 0.5806 0.3662
H17 H 0.2557 0.5210 0.3787
C27 C 0.1818(3) 0.5402(2) 0.4331(4)
H18 H 0.1661 0.5717 0.4586
H19 H 0.1832 0.5127 0.4753
C28 C 0.1423(3) 0.5225(3) 0.3639(5)
H20 H 0.1405 0.5501 0.3218
H21 H 0.1580 0.4910 0.3380
C29 C 0.0836(3) 0.5104(3) 0.3917(5)
H22 H 0.0845 0.4810 0.4298
H23 H 0.0604 0.5015 0.3442
H24 H 0.0681 0.5409 0.4191
C30 C 0.4843(3) 0.7496(2) 0.4207(4)
H25 H 0.5216 0.7658 0.4176
H26 H 0.4808 0.7254 0.3739
C31 C 0.4412(3) 0.7924(3) 0.4093(6)
H27 H 0.4042 0.7759 0.4041
H28 H 0.4410 0.8139 0.4594
C32 C 0.4491(4) 0.8275(5) 0.3378(11)
H29 H 0.4148 0.8482 0.3300
H30 H 0.4538 0.8058 0.2884
C33 C 0.4983(5) 0.8647(5) 0.3441(13)
H31 H 0.4904 0.8915 0.3851
H32 H 0.5042 0.8813 0.2910
H33 H 0.5317 0.8454 0.3603
C36 C 0.7273(3) 0.6432(3) 0.7018(5)
H39 H 0.7269 0.6771 0.7303
H40 H 0.7542 0.6208 0.7316
C37 C 0.7509(5) 0.6526(5) 0.6165(8)
H41 H 0.7202 0.6623 0.5788
H42 H 0.7774 0.6820 0.6189
C38 C 0.7803(4) 0.6050(4) 0.5836(7)
H43 H 0.7534 0.5765 0.5737
H44 H 0.8089 0.5928 0.6230
C39 C 0.8111(9) 0.6243(12) 0.4921(13)
H45 H 0.8286 0.5941 0.4664
H46 H 0.8392 0.6509 0.5035
H47 H 0.7825 0.6385 0.4553
C43 C 0.6302(3) 0.3666(2) 0.7683(4)
H55 H 0.6542 0.3807 0.7248
H56 H 0.6506 0.3702 0.8208
C44 C 0.6199(3) 0.3092(2) 0.7518(4)
H57 H 0.6012 0.3055 0.6980
H58 H 0.5943 0.2956 0.7938
C45 C 0.6729(3) 0.2763(2) 0.7525(4)
H59 H 0.6924 0.2812 0.8055
H60 H 0.6624 0.2391 0.7481
C46 C 0.7127(3) 0.2892(2) 0.6843(4)
H61 H 0.6934 0.2861 0.6315
H62 H 0.7442 0.2650 0.6860
H63 H 0.7263 0.3249 0.6912
C47 C 0.3127(2) 0.3065(2) 0.6467(4)
H64 H 0.3133 0.2889 0.7004
H65 H 0.2736 0.3070 0.6269
C48 C 0.3470(3) 0.2754(2) 0.5877(4)
H66 H 0.3833 0.2672 0.6139
H67 H 0.3545 0.2970 0.5390
C49 C 0.3194(3) 0.2240(2) 0.5596(4)
H68 H 0.3130 0.2019 0.6081
H69 H 0.2827 0.2320 0.5348
C50 C 0.3534(3) 0.1938(3) 0.4987(5)
H70 H 0.3604 0.2155 0.4507
H71 H 0.3330 0.1625 0.4820
H72 H 0.3889 0.1837 0.5240
B1 B 0.2840(3) 0.5683(2) 0.4768(4)
B2 B 0.4823(3) 0.7160(3) 0.5025(5)
B3 B 0.6678(3) 0.6180(2) 0.7118(4)
B4 B 0.5745(3) 0.4006(3) 0.7720(4)
B5 B 0.3334(3) 0.3654(2) 0.6587(4)
O11 O -0.23196(18) 0.60910(15) 0.9686(3)
O12 O -0.15785(18) 0.57200(14) 1.0463(3)
O13 O -0.01272(19) 0.73793(16) 0.8912(3)
O14 O 0.02060(17) 0.67146(15) 0.9812(3)
O15 O 0.1466(2) 0.59501(15) 0.6914(3)
O16 O 0.15310(19) 0.55574(15) 0.8236(3)
O17 O 0.0319(2) 0.37087(16) 0.6649(3)
O18 O 0.03856(18) 0.38524(15) 0.8084(3)
O19 O -0.20930(18) 0.38427(16) 0.8083(3)
O20 O -0.15397(17) 0.38376(14) 0.9293(3)
N6 N -0.0817(2) 0.68363(18) 0.9655(3)
N7 N 0.1125(2) 0.64574(18) 0.8106(4)
N8 N 0.0870(2) 0.44773(18) 0.7160(3)
N9 N -0.1102(2) 0.35682(17) 0.7973(3)
N10 N -0.2122(2) 0.51429(18) 0.9505(3)
C51 C -0.1861(3) 0.6363(2) 0.9601(4)
C52 C -0.1419(3) 0.6152(2) 1.0076(3)
C53 C -0.0902(3) 0.6398(2) 1.0104(3)
H73 H -0.0611 0.6261 1.0435
C54 C -0.1234(3) 0.7041(2) 0.9211(4)
H74 H -0.1167 0.7355 0.8922
C55 C -0.1777(3) 0.6811(2) 0.9148(4)
H75 H -0.2063 0.6957 0.8815
C56 C 0.0279(3) 0.7115(2) 0.8571(4)
C57 C 0.0482(3) 0.6707(2) 0.9109(4)
C58 C 0.0898(3) 0.6394(2) 0.8867(4)
H76 H 0.1034 0.6130 0.9222
C59 C 0.0950(3) 0.6836(2) 0.7622(5)
H77 H 0.1127 0.6879 0.7109
C60 C 0.0515(3) 0.7179(2) 0.7825(4)
H78 H 0.0392 0.7442 0.7459
C61 C 0.1231(3) 0.5477(2) 0.6904(4)
C62 C 0.1276(2) 0.5245(2) 0.7700(4)
C63 C 0.1097(3) 0.4745(2) 0.7795(4)
H79 H 0.1131 0.4582 0.8314
C64 C 0.0829(3) 0.4702(2) 0.6431(4)
H80 H 0.0676 0.4503 0.5995
C65 C 0.1000(3) 0.5218(2) 0.6261(4)
H81 H 0.0957 0.5372 0.5737
C66 C -0.0172(3) 0.3645(2) 0.6990(4)
C67 C -0.0128(3) 0.37378(19) 0.7862(4)
C68 C -0.0592(2) 0.36882(19) 0.8323(4)
H82 H -0.0566 0.3737 0.8897
C69 C -0.1129(3) 0.3475(2) 0.7176(4)
H83 H -0.1478 0.3380 0.6946
C70 C -0.0677(3) 0.3509(2) 0.6657(4)
H84 H -0.0716 0.3439 0.6089
C71 C -0.2139(2) 0.4292(2) 0.8471(4)
C72 C -0.1805(2) 0.4289(2) 0.9205(4)
C73 C -0.1824(3) 0.4715(2) 0.9707(4)
H85 H -0.1623 0.4709 1.0210
C74 C -0.2432(3) 0.5146(2) 0.8819(4)
H86 H -0.2644 0.5448 0.8692
C75 C -0.2457(3) 0.4716(3) 0.8276(4)
H87 H -0.2685 0.4723 0.7798
C76 C -0.2579(3) 0.5449(2) 1.0883(4)
H88 H -0.2411 0.5156 1.1192
H89 H -0.2606 0.5747 1.1264
C77 C -0.3164(3) 0.5293(2) 1.0626(4)
H90 H -0.3353 0.5602 1.0392
H91 H -0.3138 0.5030 1.0187
C78 C -0.3524(3) 0.5075(2) 1.1295(4)
H92 H -0.3557 0.5338 1.1734
H93 H -0.3338 0.4765 1.1532
C79 C -0.4108(3) 0.4922(3) 1.1000(5)
H94 H -0.4296 0.5226 1.0767
H95 H -0.4323 0.4791 1.1463
H96 H -0.4080 0.4650 1.0583
C80 C -0.0233(3) 0.7524(2) 1.0494(4)
H97 H -0.0278 0.7326 1.1007
H98 H 0.0138 0.7692 1.0517
C81 C -0.0670(3) 0.7948(3) 1.0468(6)
H99 H -0.1039 0.7790 1.0559
H100 H -0.0674 0.8106 0.9917
C82 C -0.0576(4) 0.8377(3) 1.1101(7)
H101 H -0.0911 0.8601 1.1115
H102 H -0.0533 0.8214 1.1646
C83 C -0.0072(4) 0.8718(4) 1.0946(9)
H103 H 0.0263 0.8502 1.0932
H104 H -0.0036 0.8976 1.1384
H105 H -0.0119 0.8897 1.0421
C84 C 0.2212(3) 0.6307(2) 0.7978(4)
H106 H 0.2487 0.6097 0.7676
H107 H 0.2224 0.6666 0.7757
C85 C 0.2380(3) 0.6321(3) 0.8869(5)
H108 H 0.2137 0.6575 0.9148
H109 H 0.2302 0.5975 0.9106
C86 C 0.2975(3) 0.6460(3) 0.9071(5)
H110 H 0.3045 0.6822 0.8897
H111 H 0.3224 0.6231 0.8754
C87 C 0.3122(4) 0.6408(4) 0.9975(5)
H112 H 0.2878 0.6634 1.0295
H113 H 0.3510 0.6512 1.0064
H114 H 0.3072 0.6047 1.0147
C88 C 0.1294(3) 0.3557(2) 0.7356(5)
H115 H 0.1455 0.3539 0.6803
H116 H 0.1559 0.3750 0.7710
C89 C 0.1236(3) 0.3008(2) 0.7684(4)
H117 H 0.0975 0.2814 0.7325
H118 H 0.1069 0.3026 0.8233
C90 C 0.1779(3) 0.2700(2) 0.7748(4)
H119 H 0.1957 0.2698 0.7206
H120 H 0.1690 0.2336 0.7891
C91 C 0.2196(3) 0.2911(3) 0.8378(5)
H121 H 0.2305 0.3265 0.8226
H122 H 0.2526 0.2687 0.8392
H123 H 0.2025 0.2916 0.8918
C92 C -0.1808(3) 0.2939(2) 0.8711(5)
H124 H -0.2151 0.2932 0.9038
H125 H -0.1888 0.2762 0.8186
C93 C -0.1347(3) 0.2633(2) 0.9173(4)
H126 H -0.1037 0.2570 0.8792
H127 H -0.1202 0.2855 0.9621
C94 C -0.1523(3) 0.2105(2) 0.9543(4)
H128 H -0.1765 0.1919 0.9146
H129 H -0.1187 0.1890 0.9640
C95 C -0.1829(3) 0.2171(3) 1.0336(4)
H130 H -0.1590 0.2353 1.0731
H131 H -0.1929 0.1829 1.0553
H132 H -0.2168 0.2375 1.0239
B6 B -0.2164(3) 0.5606(2) 1.0169(4)
B7 B -0.0240(4) 0.7122(3) 0.9749(5)
B8 B 0.1613(3) 0.6074(3) 0.7815(5)
B9 B 0.0727(3) 0.3876(3) 0.7304(5)
B10 B -0.1650(3) 0.3528(2) 0.8528(4)
C96 C 0.4186(9) 0.9688(6) 0.1780(12)
C97 C 0.3797(7) 0.9310(8) 0.1980(13)
C98 C 0.3972(11) 0.8815(7) 0.2203(14)
C108 C 0.4764(8) 0.9574(7) 0.1175(12)
C109 C 0.4728(11) 0.9835(10) 0.0718(16)
C102 C -0.0124(6) 0.5632(10) 0.8058(15)
C103 C -0.0365(10) 0.5156(8) 0.8242(14)
C104 C -0.0940(10) 0.5099(6) 0.8207(16)
C105 C -0.1273(6) 0.5519(8) 0.7987(14)
C106 C -0.1032(7) 0.5995(6) 0.7802(11)
C107 C -0.0457(8) 0.6052(7) 0.7838(14)
C34? C 0.4537(14) 0.8416(7) 0.4558(19)
H34? H 0.4210 0.8647 0.4501
H35? H 0.4572 0.8325 0.5144
C35? C 0.5030(10) 0.8719(10) 0.4339(19)
H36? H 0.5360 0.8495 0.4363
H37? H 0.5077 0.9008 0.4723
H38? H 0.4984 0.8856 0.3784
C40? C 0.7372(13) 0.6322(15) 0.6025(18)
H48? H 0.7260 0.5962 0.5886
H49? H 0.7142 0.6565 0.5695
C41? C 0.7993(9) 0.6404(8) 0.5836(13)
H50? H 0.8087 0.6776 0.5777
H51? H 0.8238 0.6242 0.6254
C42? C 0.8011(10) 0.6131(6) 0.5066(15)
H52? H 0.8140 0.5774 0.5159
H53? H 0.8268 0.6309 0.4699
H54? H 0.7638 0.6124 0.4819
C99? C 0.4536(13) 0.8697(8) 0.2226(18)
C100? C 0.4925(8) 0.9075(12) 0.203(2)
C101? C 0.4750(8) 0.9570(10) 0.1803(18)
C110? C 0.4741(10) 1.0057(9) 0.0076(15)
C111? C -0.0801(12) 0.5392(11) 0.8383(18)
C112? C -0.0230(16) 0.5163(14) 0.917(2)
C113? C -0.0238(12) 0.4842(11) 1.0027(19)
loop_
_geom_bond_atom_site_label_1
_geom_bond_atom_site_label_2
_geom_bond_site_symmetry_1
_geom_bond_site_symmetry_2
O1 C1 1_555 1_555
O2 C2 1_555 1_555
O3 C6 1_555 1_555
O4 C7 1_555 1_555
O5 C11 1_555 1_555
O6 C12 1_555 1_555
O7 C16 1_555 1_555
O8 C17 1_555 1_555
O9 C21 1_555 1_555
O10 C22 1_555 1_555
N1 C3 1_555 1_555
N2 C8 1_555 1_555
N3 C13 1_555 1_555
N4 C18 1_555 1_555
N5 C23 1_555 1_555
C1 C2 1_555 1_555
C2 C3 1_555 1_555
C3 H1 1_555 1_555
C4 N1 1_555 1_555
H2 C4 1_555 1_555
C5 C1 1_555 1_555
H3 C5 1_555 1_555
C6 C7 1_555 1_555
C7 C8 1_555 1_555
C8 H4 1_555 1_555
C9 N2 1_555 1_555
H5 C9 1_555 1_555
C10 C6 1_555 1_555
H6 C10 1_555 1_555
C11 C12 1_555 1_555
C12 C13 1_555 1_555
C13 H7 1_555 1_555
C14 N3 1_555 1_555
H8 C14 1_555 1_555
C15 C11 1_555 1_555
H9 C15 1_555 1_555
C16 C17 1_555 1_555
C17 C18 1_555 1_555
C18 H10 1_555 1_555
C19 N4 1_555 1_555
H11 C19 1_555 1_555
C20 C16 1_555 1_555
H12 C20 1_555 1_555
C21 C22 1_555 1_555
C22 C23 1_555 1_555
C23 H13 1_555 1_555
C24 N5 1_555 1_555
H14 C24 1_555 1_555
C25 C21 1_555 1_555
H15 C25 1_555 1_555
C26 H16 1_555 1_555
H17 C26 1_555 1_555
C27 C26 1_555 1_555
H18 C27 1_555 1_555
H19 C27 1_555 1_555
C28 C27 1_555 1_555
H20 C28 1_555 1_555
H21 C28 1_555 1_555
C29 C28 1_555 1_555
H22 C29 1_555 1_555
H23 C29 1_555 1_555
H24 C29 1_555 1_555
C30 H25 1_555 1_555
H26 C30 1_555 1_555
C31 C30 1_555 1_555
H27 C31 1_555 1_555
H28 C31 1_555 1_555
C32 C31 1_555 1_555
H29 C32 1_555 1_555
H30 C32 1_555 1_555
C33 C32 1_555 1_555
H31 C33 1_555 1_555
H32 C33 1_555 1_555
H33 C33 1_555 1_555
C36 H39 1_555 1_555
H40 C36 1_555 1_555
C37 C36 1_555 1_555
H41 C37 1_555 1_555
H42 C37 1_555 1_555
C38 C37 1_555 1_555
H43 C38 1_555 1_555
H44 C38 1_555 1_555
C39 C38 1_555 1_555
H45 C39 1_555 1_555
H46 C39 1_555 1_555
H47 C39 1_555 1_555
C43 H55 1_555 1_555
H56 C43 1_555 1_555
C44 C43 1_555 1_555
H57 C44 1_555 1_555
H58 C44 1_555 1_555
C45 C44 1_555 1_555
H59 C45 1_555 1_555
H60 C45 1_555 1_555
C46 C45 1_555 1_555
H61 C46 1_555 1_555
H62 C46 1_555 1_555
H63 C46 1_555 1_555
C47 H64 1_555 1_555
H65 C47 1_555 1_555
C48 C47 1_555 1_555
H66 C48 1_555 1_555
H67 C48 1_555 1_555
C49 C48 1_555 1_555
H68 C49 1_555 1_555
H69 C49 1_555 1_555
C50 C49 1_555 1_555
H70 C50 1_555 1_555
H71 C50 1_555 1_555
H72 C50 1_555 1_555
B1 O1 1_555 1_555
B2 O3 1_555 1_555
B3 O5 1_555 1_555
B4 O7 1_555 1_555
B5 O9 1_555 1_555
O11 C51 1_555 1_555
O12 C52 1_555 1_555
O13 C56 1_555 1_555
O14 C57 1_555 1_555
O15 C61 1_555 1_555
O16 C62 1_555 1_555
O17 C66 1_555 1_555
O18 C67 1_555 1_555
O19 C71 1_555 1_555
O20 C72 1_555 1_555
N6 C53 1_555 1_555
N7 C58 1_555 1_555
N8 C63 1_555 1_555
N9 C68 1_555 1_555
N10 C73 1_555 1_555
C51 C52 1_555 1_555
C52 C53 1_555 1_555
C53 H73 1_555 1_555
C54 N6 1_555 1_555
H74 C54 1_555 1_555
C55 C51 1_555 1_555
H75 C55 1_555 1_555
C56 C57 1_555 1_555
C57 C58 1_555 1_555
C58 H76 1_555 1_555
C59 N7 1_555 1_555
H77 C59 1_555 1_555
C60 C56 1_555 1_555
H78 C60 1_555 1_555
C61 C62 1_555 1_555
C62 C63 1_555 1_555
C63 H79 1_555 1_555
C64 N8 1_555 1_555
H80 C64 1_555 1_555
C65 C61 1_555 1_555
H81 C65 1_555 1_555
C66 C67 1_555 1_555
C67 C68 1_555 1_555
C68 H82 1_555 1_555
C69 N9 1_555 1_555
H83 C69 1_555 1_555
C70 C66 1_555 1_555
H84 C70 1_555 1_555
C71 C72 1_555 1_555
C72 C73 1_555 1_555
C73 H85 1_555 1_555
C74 N10 1_555 1_555
H86 C74 1_555 1_555
C75 C71 1_555 1_555
H87 C75 1_555 1_555
C76 H88 1_555 1_555
H89 C76 1_555 1_555
C77 C76 1_555 1_555
H90 C77 1_555 1_555
H91 C77 1_555 1_555
C78 C77 1_555 1_555
H92 C78 1_555 1_555
H93 C78 1_555 1_555
C79 C78 1_555 1_555
H94 C79 1_555 1_555
H95 C79 1_555 1_555
H96 C79 1_555 1_555
C80 H97 1_555 1_555
H98 C80 1_555 1_555
C81 C80 1_555 1_555
H99 C81 1_555 1_555
H100 C81 1_555 1_555
C82 C81 1_555 1_555
H101 C82 1_555 1_555
H102 C82 1_555 1_555
C83 C82 1_555 1_555
H103 C83 1_555 1_555
H104 C83 1_555 1_555
H105 C83 1_555 1_555
C84 H106 1_555 1_555
H107 C84 1_555 1_555
C85 C84 1_555 1_555
H108 C85 1_555 1_555
H109 C85 1_555 1_555
C86 C85 1_555 1_555
H110 C86 1_555 1_555
H111 C86 1_555 1_555
C87 C86 1_555 1_555
H112 C87 1_555 1_555
H113 C87 1_555 1_555
H114 C87 1_555 1_555
C88 H115 1_555 1_555
H116 C88 1_555 1_555
C89 C88 1_555 1_555
H117 C89 1_555 1_555
H118 C89 1_555 1_555
C90 C89 1_555 1_555
H119 C90 1_555 1_555
H120 C90 1_555 1_555
C91 C90 1_555 1_555
H121 C91 1_555 1_555
H122 C91 1_555 1_555
H123 C91 1_555 1_555
C92 H124 1_555 1_555
H125 C92 1_555 1_555
C93 C92 1_555 1_555
H126 C93 1_555 1_555
H127 C93 1_555 1_555
C94 C93 1_555 1_555
H128 C94 1_555 1_555
H129 C94 1_555 1_555
C95 C94 1_555 1_555
H130 C95 1_555 1_555
H131 C95 1_555 1_555
H132 C95 1_555 1_555
B6 O11 1_555 1_555
B7 O13 1_555 1_555
B8 O15 1_555 1_555
B9 O17 1_555 1_555
B10 O19 1_555 1_555
C96 C97 1_555 1_555
C97 C98 1_555 1_555
C102 C103 1_555 1_555
C103 C104 1_555 1_555
C104 C105 1_555 1_555
C105 C106 1_555 1_555
C106 C107 1_555 1_555
C107 C102 1_555 1_555
C108 C96 1_555 1_555
C109 C108 1_555 1_555
O2 B1 1_555 1_555
O4 B2 1_555 1_555
O6 B3 1_555 1_555
O8 B4 1_555 1_555
O10 B5 1_555 1_555
N1 B2 1_555 1_555
N2 B3 1_555 1_555
N3 B4 1_555 1_555
N4 B5 1_555 1_555
N5 B1 1_555 1_555
C4 C5 1_555 1_555
C9 C10 1_555 1_555
C14 C15 1_555 1_555
C19 C20 1_555 1_555
C24 C25 1_555 1_555
C26 B1 1_555 1_555
C30 B2 1_555 1_555
C36 B3 1_555 1_555
C43 B4 1_555 1_555
C47 B5 1_555 1_555
O12 B6 1_555 1_555
O14 B7 1_555 1_555
O16 B8 1_555 1_555
O18 B9 1_555 1_555
O20 B10 1_555 1_555
N6 B7 1_555 1_555
N7 B8 1_555 1_555
N8 B9 1_555 1_555
N9 B10 1_555 1_555
N10 B6 1_555 1_555
C54 C55 1_555 1_555
C59 C60 1_555 1_555
C64 C65 1_555 1_555
C69 C70 1_555 1_555
C74 C75 1_555 1_555
C76 B6 1_555 1_555
C80 B7 1_555 1_555
C84 B8 1_555 1_555
C88 B9 1_555 1_555
C92 B10 1_555 1_555

#END
