
#######################################################################
#
#                 Cambridge Crystallographic Data Centre
#                                CCDC 
#
#######################################################################
#
# If this CIF has been generated from an entry in the Cambridge 
# Structural Database, then it will include bibliographic, chemical, 
# crystal, experimental, refinement or atomic coordinate data resulting 
# from the CCDC's data processing and validation procedures.
#
#######################################################################

data_DIDGEC
_chemical_formula_moiety         'C20 H24 O2'
_chemical_name_systematic        
cis-9,10-Dihydro-9,10-dipropylanthracene-9,10-diol
_symmetry_cell_setting           monoclinic
_symmetry_space_group_name_H-M   'P 21/c'
_symmetry_Int_Tables_number      14
_space_group_name_Hall           '-P 2ybc'
loop_
_symmetry_equiv_pos_site_id
_symmetry_equiv_pos_as_xyz
1 x,y,z
2 -x,1/2+y,1/2-z
3 -x,-y,-z
4 x,1/2-y,1/2+z
_cell_length_a                   7.854(4)
_cell_length_b                   22.277(16)
_cell_length_c                   9.904(11)
_cell_angle_alpha                90
_cell_angle_beta                 101.86(7)
_cell_angle_gamma                90
_cell_volume                     1695.85
_cell_formula_units_Z            4
loop_
_atom_site_label
_atom_site_type_symbol
_atom_site_fract_x
_atom_site_fract_y
_atom_site_fract_z
C1 C 0.4760(8) 0.0978(3) 0.2500(7)
C2 C 0.4913(11) 0.10100(3) 0.1124(6)
C3 C 0.6515(11) 0.1098(3) 0.08089(7)
C4 C 0.7972(9) 0.1161(3) 0.1849(6)
C5 C 1.0794(8) 0.0650(3) 0.6576(8)
C6 C 1.0662(10) 0.0351(3) 0.7775(8)
C7 C 0.9050(10) 0.0269(3) 0.8093(7)
C8 C 0.7582(8) 0.0470(3) 0.7213(6)
C9 C 0.6029(7) 0.1005(2) 0.5070(5)
C10 C 0.5511(9) 0.1637(3) 0.5503(6)
C11 C 0.5364(10) 0.1699(3) 0.7010(6)
C12 C 0.4777(14) 0.2325(4) 0.7354(11)
O1 O 0.4629(6) 0.0607(2) 0.5198(4)
C13 C 0.9484(7) 0.1198(2) 0.4356(5)
C14 C 0.9950(10) 0.1864(3) 0.4735(7)
C15 C 1.0131(12) 0.2290(3) 0.3569(8)
C16 C 1.0561(16) 0.2922(4) 0.4085(10)
O2 O 1.0972(7) 0.0984(3) 0.3850(6)
C17 C 0.6220(7) 0.1039(2) 0.3560(5)
C18 C 0.7850(7) 0.1132(2) 0.3240(5)
C19 C 0.9307(7) 0.0859(2) 0.5663(5)
C20 C 0.7680(7) 0.0777(2) 0.5989(6)
H1 H 0.356(7) 0.097(2) 0.273(5)
H2 H 0.378(7) 0.097(2) 0.039(5)
H3 H 0.663(7) 0.113(2) -0.002(5)
H4 H 0.919(6) 0.121(2) 0.166(5)
H5 H 1.186(7) 0.069(2) 0.634(5)
H6 H 1.191(6) 0.020(2) 0.835(5)
H7 H 0.903(7) 0.004(2) 0.893(5)
H8 H 0.632(7) 0.038(2) 0.737(5)
H9 H 0.630(6) 0.194(2) 0.530(5)
H10 H 0.437(6) 0.174(2) 0.494(4)
H11 H 0.445(8) 0.141(3) 0.730(6)
H12 H 0.663(8) 0.161(3) 0.756(6)
H13 H 0.545(9) 0.266(3) 0.706(7)
H14 H 0.357(13) 0.241(4) 0.667(9)
H15 H 0.488(10) 0.236(3) 0.824(8)
H16 H 0.378(13) 0.072(4) 0.491(10)
H17 H 1.112(7) 0.188(2) 0.547(5)
H18 H 0.913(6) 0.202(2) 0.509(5)
H19 H 0.899(8) 0.229(2) 0.283(5)
H20 H 1.114(8) 0.211(2) 0.318(6)
H21 H 1.177(7) 0.295(2) 0.475(5)
H22 H 1.059(7) 0.319(3) 0.331(5)
H23 H 0.960(13) 0.309(4) 0.442(9)
H24 H 1.082(9) 0.069(3) 0.364(7)
loop_
_geom_bond_atom_site_label_1
_geom_bond_atom_site_label_2
_geom_bond_site_symmetry_1
_geom_bond_site_symmetry_2
C1 C2 1_555 1_555
C2 C3 1_555 1_555
C3 C4 1_555 1_555
C4 C18 1_555 1_555
C5 C6 1_555 1_555
C6 C7 1_555 1_555
C7 C8 1_555 1_555
C8 C20 1_555 1_555
C9 C10 1_555 1_555
C10 C11 1_555 1_555
C11 C12 1_555 1_555
C12 H13 1_555 1_555
O1 C9 1_555 1_555
C13 C14 1_555 1_555
C14 C15 1_555 1_555
C15 C16 1_555 1_555
C16 H21 1_555 1_555
O2 C13 1_555 1_555
C17 C1 1_555 1_555
C18 C13 1_555 1_555
C19 C5 1_555 1_555
C20 C9 1_555 1_555
H1 C1 1_555 1_555
H2 C2 1_555 1_555
H3 C3 1_555 1_555
H4 C4 1_555 1_555
H5 C5 1_555 1_555
H6 C6 1_555 1_555
H7 C7 1_555 1_555
H8 C8 1_555 1_555
H9 C10 1_555 1_555
H10 C10 1_555 1_555
H11 C11 1_555 1_555
H12 C11 1_555 1_555
H14 C12 1_555 1_555
H15 C12 1_555 1_555
H16 O1 1_555 1_555
H17 C14 1_555 1_555
H18 C14 1_555 1_555
H19 C15 1_555 1_555
H20 C15 1_555 1_555
H22 C16 1_555 1_555
H23 C16 1_555 1_555
H24 O2 1_555 1_555
C9 C17 1_555 1_555
C13 C19 1_555 1_555
C17 C18 1_555 1_555
C19 C20 1_555 1_555

#END
