
#######################################################################
#
#                 Cambridge Crystallographic Data Centre
#                                CCDC 
#
#######################################################################
#
# If this CIF has been generated from an entry in the Cambridge 
# Structural Database, then it will include bibliographic, chemical, 
# crystal, experimental, refinement or atomic coordinate data resulting 
# from the CCDC's data processing and validation procedures.
#
#######################################################################

data_DIDLEK
_chemical_formula_moiety         'C16 H32 Li1 O8 1+,C12 H24 P1 Si2 1-'
_chemical_name_systematic        
'bis(12-crown-4)-lithium 3,4-dimethyl-2,5-bis(trimethylsilyl)phosphol-1-ide'
_symmetry_cell_setting           orthorhombic
_symmetry_space_group_name_H-M   'P b c n'
_symmetry_Int_Tables_number      60
_space_group_name_Hall           '-P 2n 2ab'
loop_
_symmetry_equiv_pos_site_id
_symmetry_equiv_pos_as_xyz
1 x,y,z
2 1/2-x,1/2-y,1/2+z
3 1/2+x,1/2-y,-z
4 -x,y,1/2-z
5 -x,-y,-z
6 1/2+x,1/2+y,1/2-z
7 1/2-x,1/2+y,z
8 x,-y,1/2+z
_cell_length_a                   17.4150(6)
_cell_length_b                   16.4101(6)
_cell_length_c                   24.0087(8)
_cell_angle_alpha                90
_cell_angle_beta                 90
_cell_angle_gamma                90
_cell_volume                     6861.25
_exptl_crystal_colour            'metallic colorless'
_exptl_crystal_description       block
_cell_formula_units_Z            8
loop_
_atom_site_label
_atom_site_type_symbol
_atom_site_fract_x
_atom_site_fract_y
_atom_site_fract_z
Li1 Li 0.7642(2) 0.5859(3) 0.65429(17)
O1 O 0.6890(2) 0.6695(2) 0.60080(16)
O2 O 0.8410(3) 0.6993(3) 0.62095(17)
O3 O 0.8627(2) 0.5374(3) 0.59605(16)
O4 O 0.7113(3) 0.5069(2) 0.57661(18)
O5 O 0.6509(2) 0.5668(3) 0.69711(16)
O6 O 0.7506(3) 0.6893(3) 0.72737(17)
O7 O 0.8689(2) 0.5784(2) 0.71785(15)
O8 O 0.7676(2) 0.4565(2) 0.68710(14)
C1 C 0.7242(7) 0.7470(8) 0.5938(7)
H1 H 0.7171 0.7779 0.6279
H2 H 0.6973 0.7758 0.5644
C2 C 0.8063(5) 0.7465(5) 0.5803(3)
H3 H 0.8148 0.7232 0.5437
H4 H 0.8268 0.8015 0.5808
C3 C 0.9064(8) 0.6634(9) 0.5968(6)
H5 H 0.9411 0.6496 0.6270
H6 H 0.9316 0.7051 0.5748
C4 C 0.8995(4) 0.5920(5) 0.5619(3)
H7 H 0.8693 0.6035 0.5289
H8 H 0.9496 0.5719 0.5508
C5 C 0.8372(9) 0.4740(9) 0.5612(7)
H9 H 0.8741 0.4683 0.5313
H10 H 0.8387 0.4239 0.5827
C6 C 0.7647(5) 0.4798(4) 0.5372(3)
H11 H 0.7492 0.4268 0.5232
H12 H 0.7663 0.5175 0.5061
C7 C 0.6512(8) 0.5529(7) 0.5533(7)
H13 H 0.6059 0.5464 0.5764
H14 H 0.6393 0.5309 0.5168
C8 C 0.6678(6) 0.6409(5) 0.5475(4)
H15 H 0.7092 0.6495 0.5212
H16 H 0.6227 0.6697 0.5343
C9 C 0.6288(7) 0.6331(10) 0.7313(6)
H17 H 0.5896 0.6142 0.7570
H18 H 0.6056 0.6745 0.7079
C10 C 0.6899(6) 0.6706(7) 0.7634(5)
H19 H 0.6713 0.7198 0.7811
H20 H 0.7074 0.6334 0.7921
C11 C 0.8180(8) 0.6955(8) 0.7587(6)
H21 H 0.8054 0.7205 0.7942
H22 H 0.8529 0.7320 0.7395
C12 C 0.8579(5) 0.6201(5) 0.7695(3)
H23 H 0.9072 0.6312 0.7867
H24 H 0.8281 0.5865 0.7947
C13 C 0.8861(6) 0.4954(5) 0.7259(5)
H25 H 0.9177 0.4902 0.7590
H26 H 0.9163 0.4765 0.6945
C14 C 0.8189(4) 0.4423(5) 0.7320(3)
H27 H 0.8349 0.3857 0.7320
H28 H 0.7934 0.4535 0.7671
C15 C 0.6918(7) 0.4339(8) 0.7027(6)
H29 H 0.6951 0.3871 0.7274
H30 H 0.6646 0.4166 0.6695
C16 C 0.6468(6) 0.4955(6) 0.7299(4)
H31 H 0.5939 0.4777 0.7335
H32 H 0.6669 0.5061 0.7669
P1 P 0.74773(3) 0.58038(4) 0.38809(2)
Si1 Si 0.91788(4) 0.64335(4) 0.39134(3)
Si2 Si 0.56924(4) 0.60877(4) 0.38985(3)
C33 C 0.81381(13) 0.65991(14) 0.39934(9)
C34 C 0.77457(14) 0.73309(15) 0.41095(9)
C35 C 0.69397(14) 0.72480(14) 0.41091(9)
C36 C 0.66854(13) 0.64494(14) 0.39889(9)
C37 C 0.95911(17) 0.6878(2) 0.32570(11)
H65 H 0.9296 0.6696 0.2943
H66 H 1.0114 0.6704 0.3216
H67 H 0.9573 0.7462 0.3277
C38 C 0.93767(15) 0.53109(17) 0.39149(12)
H68 H 0.9269 0.5092 0.4277
H69 H 0.9906 0.5217 0.3824
H70 H 0.9056 0.5048 0.3644
C39 C 0.97893(17) 0.6898(2) 0.44739(13)
H71 H 0.9724 0.7479 0.4472
H72 H 1.0319 0.6768 0.4407
H73 H 0.9637 0.6685 0.4830
C40 C 0.52277(16) 0.65932(19) 0.32828(11)
H74 H 0.5251 0.7174 0.3327
H75 H 0.4701 0.6425 0.3258
H76 H 0.5493 0.6439 0.2949
C41 C 0.56688(15) 0.49575(17) 0.37900(13)
H77 H 0.6063 0.4805 0.3531
H78 H 0.5177 0.4802 0.3645
H79 H 0.5755 0.4687 0.4139
C42 C 0.50350(14) 0.62734(17) 0.45064(11)
H80 H 0.5170 0.5914 0.4806
H81 H 0.4514 0.6173 0.4396
H82 H 0.5086 0.6828 0.4628
C43 C 0.81449(17) 0.81329(16) 0.42229(12)
H83 H 0.8260 0.8175 0.4613
H84 H 0.7815 0.8575 0.4115
H85 H 0.8613 0.8159 0.4012
C44 C 0.64051(17) 0.79523(16) 0.42305(12)
H86 H 0.5906 0.7836 0.4080
H87 H 0.6604 0.8439 0.4062
H88 H 0.6366 0.8028 0.4626
O9? O 0.6657(3) 0.6036(2) 0.59582(18)
O10? O 0.7732(3) 0.7215(3) 0.62123(19)
O11? O 0.8695(3) 0.5896(3) 0.60471(17)
O12? O 0.7612(3) 0.4706(3) 0.57904(19)
O13? O 0.6749(3) 0.4955(3) 0.69313(19)
O14? O 0.6853(3) 0.6576(3) 0.7220(2)
O15? O 0.8416(3) 0.6350(3) 0.72703(18)
O16? O 0.8302(3) 0.4734(3) 0.69672(18)
C17? C 0.6713(7) 0.6759(5) 0.5635(5)
H33? H 0.6208 0.6909 0.5498
H34? H 0.7042 0.6662 0.5316
C18? C 0.7040(7) 0.7453(7) 0.5981(6)
H35? H 0.7117 0.7929 0.5748
H36? H 0.6682 0.7597 0.6275
C19? C 0.8412(6) 0.7253(7) 0.5868(5)
H37? H 0.8602 0.7808 0.5869
H38? H 0.8268 0.7121 0.5488
C20? C 0.9060(6) 0.6689(5) 0.6044(5)
H39? H 0.9481 0.6706 0.5779
H40? H 0.9252 0.6831 0.6410
C21? C 0.8687(4) 0.5459(4) 0.5513(3)
H41? H 0.9203 0.5423 0.5363
H42? H 0.8367 0.5746 0.5246
C22? C 0.8376(5) 0.4633(4) 0.5617(3)
H43? H 0.8403 0.4310 0.5279
H44? H 0.8676 0.4363 0.5903
C23? C 0.7058(4) 0.4920(4) 0.5388(3)
H45? H 0.6875 0.4433 0.5201
H46? H 0.7288 0.5274 0.5111
C24? C 0.6416(7) 0.5336(8) 0.5654(7)
H47? H 0.6049 0.5501 0.5372
H48? H 0.6160 0.4962 0.5905
C25? C 0.6309(11) 0.5244(8) 0.7376(7)
H49? H 0.6585 0.5173 0.7724
H50? H 0.5828 0.4948 0.7400
C26? C 0.6159(8) 0.6136(9) 0.7272(7)
H51? H 0.5860 0.6197 0.6933
H52? H 0.5860 0.6359 0.7577
C27? C 0.7241(7) 0.6792(12) 0.7709(6)
H53? H 0.7246 0.6338 0.7968
H54? H 0.6989 0.7251 0.7887
C28? C 0.8045(9) 0.7016(7) 0.7549(7)
H55? H 0.8035 0.7487 0.7305
H56? H 0.8334 0.7160 0.7880
C29? C 0.8740(7) 0.5745(6) 0.7615(5)
H57? H 0.8373 0.5580 0.7897
H58? H 0.9192 0.5957 0.7801
C30? C 0.8950(7) 0.5038(9) 0.7263(5)
H59? H 0.9344 0.5200 0.7000
H60? H 0.9159 0.4609 0.7496
C31? C 0.7829(6) 0.4183(6) 0.7260(5)
H61? H 0.7772 0.4356 0.7644
H62? H 0.8054 0.3642 0.7256
C32? C 0.7055(7) 0.4174(7) 0.6971(4)
H63? H 0.7112 0.3946 0.6601
H64? H 0.6704 0.3829 0.7178
loop_
_geom_bond_atom_site_label_1
_geom_bond_atom_site_label_2
_geom_bond_site_symmetry_1
_geom_bond_site_symmetry_2
Li1 O1 1_555 1_555
O1 C1 1_555 1_555
O2 Li1 1_555 1_555
O3 Li1 1_555 1_555
O4 Li1 1_555 1_555
O5 Li1 1_555 1_555
O6 Li1 1_555 1_555
O7 Li1 1_555 1_555
O8 Li1 1_555 1_555
C1 H1 1_555 1_555
H2 C1 1_555 1_555
C2 O2 1_555 1_555
H3 C2 1_555 1_555
H4 C2 1_555 1_555
C3 O2 1_555 1_555
H5 C3 1_555 1_555
H6 C3 1_555 1_555
C4 O3 1_555 1_555
H7 C4 1_555 1_555
H8 C4 1_555 1_555
C5 O3 1_555 1_555
H9 C5 1_555 1_555
H10 C5 1_555 1_555
C6 O4 1_555 1_555
H11 C6 1_555 1_555
H12 C6 1_555 1_555
C7 O4 1_555 1_555
H13 C7 1_555 1_555
H14 C7 1_555 1_555
C8 O1 1_555 1_555
H15 C8 1_555 1_555
H16 C8 1_555 1_555
C9 O5 1_555 1_555
H17 C9 1_555 1_555
H18 C9 1_555 1_555
C10 O6 1_555 1_555
H19 C10 1_555 1_555
H20 C10 1_555 1_555
C11 O6 1_555 1_555
H21 C11 1_555 1_555
H22 C11 1_555 1_555
C12 O7 1_555 1_555
H23 C12 1_555 1_555
H24 C12 1_555 1_555
C13 O7 1_555 1_555
H25 C13 1_555 1_555
H26 C13 1_555 1_555
C14 O8 1_555 1_555
H27 C14 1_555 1_555
H28 C14 1_555 1_555
C15 O8 1_555 1_555
H29 C15 1_555 1_555
H30 C15 1_555 1_555
C16 O5 1_555 1_555
H31 C16 1_555 1_555
H32 C16 1_555 1_555
P1 C33 1_555 1_555
Si1 C33 1_555 1_555
Si2 C36 1_555 1_555
C33 C34 1_555 1_555
C34 C35 1_555 1_555
C35 C36 1_555 1_555
C36 P1 1_555 1_555
C37 Si1 1_555 1_555
H65 C37 1_555 1_555
H66 C37 1_555 1_555
H67 C37 1_555 1_555
C38 Si1 1_555 1_555
H68 C38 1_555 1_555
H69 C38 1_555 1_555
H70 C38 1_555 1_555
C39 Si1 1_555 1_555
H71 C39 1_555 1_555
H72 C39 1_555 1_555
H73 C39 1_555 1_555
C40 Si2 1_555 1_555
H74 C40 1_555 1_555
H75 C40 1_555 1_555
H76 C40 1_555 1_555
C41 Si2 1_555 1_555
H77 C41 1_555 1_555
H78 C41 1_555 1_555
H79 C41 1_555 1_555
C42 Si2 1_555 1_555
H80 C42 1_555 1_555
H81 C42 1_555 1_555
H82 C42 1_555 1_555
C43 C34 1_555 1_555
H83 C43 1_555 1_555
H84 C43 1_555 1_555
H85 C43 1_555 1_555
C44 C35 1_555 1_555
H86 C44 1_555 1_555
H87 C44 1_555 1_555
H88 C44 1_555 1_555
C1 C2 1_555 1_555
C3 C4 1_555 1_555
C5 C6 1_555 1_555
C7 C8 1_555 1_555
C9 C10 1_555 1_555
C11 C12 1_555 1_555
C13 C14 1_555 1_555
C15 C16 1_555 1_555

#END
