
#######################################################################
#
#                 Cambridge Crystallographic Data Centre
#                                CCDC 
#
#######################################################################
#
# If this CIF has been generated from an entry in the Cambridge 
# Structural Database, then it will include bibliographic, chemical, 
# crystal, experimental, refinement or atomic coordinate data resulting 
# from the CCDC's data processing and validation procedures.
#
#######################################################################

data_DIDVUJ
_chemical_formula_moiety         'C16 H11 N1 O3'
_chemical_name_systematic        
6-((2-Hydroxybenzylidene)amino)-2H-chromen-2-one
_symmetry_cell_setting           triclinic
_symmetry_space_group_name_H-M   'P -1'
_symmetry_Int_Tables_number      2
_space_group_name_Hall           '-P 1'
loop_
_symmetry_equiv_pos_site_id
_symmetry_equiv_pos_as_xyz
1 x,y,z
2 -x,-y,-z
_cell_length_a                   5.7162(10)
_cell_length_b                   15.008(3)
_cell_length_c                   15.078(2)
_cell_angle_alpha                74.238(12)
_cell_angle_beta                 83.545(13)
_cell_angle_gamma                80.741(14)
_cell_volume                     1225.45
_exptl_crystal_colour            brown
_exptl_crystal_description       plate
_cell_formula_units_Z            4
loop_
_atom_site_label
_atom_site_type_symbol
_atom_site_fract_x
_atom_site_fract_y
_atom_site_fract_z
N1 N 0.5339(5) 0.6019(2) 0.1111(2)
O1 O 0.8825(4) 0.69403(17) 0.03509(18)
H1 H 0.820(6) 0.6469(17) 0.062(2)
O2 O 0.1536(4) 0.26659(17) 0.19304(16)
O3 O 0.1741(4) 0.11986(18) 0.18836(18)
C1 C 0.4302(6) 0.6732(3) 0.1358(3)
H2 H 0.2791 0.6707 0.1691
C2 C 0.4262(6) 0.5175(2) 0.1324(2)
C3 C 0.5619(6) 0.4417(3) 0.1073(2)
H3 H 0.7139 0.4485 0.0756
C4 C 0.4772(5) 0.3554(3) 0.1281(2)
C5 C 0.2484(5) 0.3494(2) 0.1701(2)
C6 C 0.1101(5) 0.4247(2) 0.1940(2)
H4 H -0.0454 0.4187 0.2226
C7 C 0.1975(5) 0.5088(3) 0.1763(2)
H5 H 0.1038 0.5606 0.1936
C8 C 0.2759(6) 0.1874(3) 0.1699(3)
C9 C 0.5174(6) 0.1921(2) 0.1285(2)
H6 H 0.6097 0.1383 0.1148
C10 C 0.6108(6) 0.2734(2) 0.1093(2)
H7 H 0.7692 0.2755 0.0827
C11 C 0.5356(6) 0.7580(3) 0.1148(2)
C12 C 0.7582(6) 0.7661(2) 0.0655(2)
C13 C 0.8563(6) 0.8491(3) 0.0482(3)
H8 H 1.0097 0.8536 0.0171
C14 C 0.7326(7) 0.9241(2) 0.0760(3)
H9 H 0.8006 0.9805 0.0622
C15 C 0.5080(7) 0.9200(3) 0.1241(3)
H10 H 0.4230 0.9723 0.1431
C16 C 0.4154(6) 0.8366(2) 0.1428(2)
H11 H 0.2644 0.8322 0.1760
N2 N 0.4434(4) 0.10622(19) 0.38579(19)
O4 O 0.0750(4) 0.20369(16) 0.45031(18)
H12 H 0.156(6) 0.165(2) 0.426(2)
O5 O 0.8534(4) -0.22999(17) 0.30835(17)
O6 O 0.8421(4) -0.37546(17) 0.30877(18)
C17 C 0.5512(5) 0.1789(2) 0.3675(2)
H13 H 0.7090 0.1755 0.3399
C18 C 0.5577(5) 0.0218(2) 0.3651(2)
C19 C 0.4281(5) -0.0528(2) 0.3916(2)
H14 H 0.2747 -0.0456 0.4224
C20 C 0.5219(6) -0.1390(2) 0.3730(2)
C21 C 0.7491(5) -0.1473(2) 0.3291(2)
C22 C 0.8782(6) -0.0732(2) 0.3015(2)
H15 H 1.0313 -0.0803 0.2703
C23 C 0.7839(5) 0.0115(2) 0.3194(2)
H16 H 0.8725 0.0628 0.3007
C24 C 0.7337(6) -0.3067(2) 0.3277(2)
C25 C 0.4972(6) -0.2984(2) 0.3723(2)
H17 H 0.4089 -0.3496 0.3857
C26 C 0.3994(6) -0.2187(2) 0.3954(2)
H18 H 0.2461 -0.2158 0.4270
C27 C 0.4395(6) 0.2657(2) 0.3878(2)
C28 C 0.2073(5) 0.2758(2) 0.4290(2)
C29 C 0.1079(6) 0.3602(2) 0.4462(2)
H19 H -0.0499 0.3670 0.4734
C30 C 0.2364(6) 0.4351(3) 0.4239(3)
H20 H 0.1663 0.4927 0.4364
C31 C 0.4685(6) 0.4267(2) 0.3833(3)
H21 H 0.5564 0.4781 0.3672
C32 C 0.5670(6) 0.3411(2) 0.3671(2)
H22 H 0.7261 0.3339 0.3412
loop_
_geom_bond_atom_site_label_1
_geom_bond_atom_site_label_2
_geom_bond_site_symmetry_1
_geom_bond_site_symmetry_2
N1 C1 1_555 1_555
O1 H1 1_555 1_555
O2 C5 1_555 1_555
O3 C8 1_555 1_555
C1 H2 1_555 1_555
C2 N1 1_555 1_555
C3 C2 1_555 1_555
H3 C3 1_555 1_555
C4 C3 1_555 1_555
C5 C4 1_555 1_555
C6 C5 1_555 1_555
H4 C6 1_555 1_555
C7 C2 1_555 1_555
H5 C7 1_555 1_555
C8 O2 1_555 1_555
C9 C8 1_555 1_555
H6 C9 1_555 1_555
C10 C4 1_555 1_555
H7 C10 1_555 1_555
C11 C1 1_555 1_555
C12 O1 1_555 1_555
C13 C12 1_555 1_555
H8 C13 1_555 1_555
C14 C13 1_555 1_555
H9 C14 1_555 1_555
C15 C14 1_555 1_555
H10 C15 1_555 1_555
C16 C11 1_555 1_555
H11 C16 1_555 1_555
N2 C17 1_555 1_555
O4 H12 1_555 1_555
O5 C21 1_555 1_555
O6 C24 1_555 1_555
C17 H13 1_555 1_555
C18 N2 1_555 1_555
C19 C18 1_555 1_555
H14 C19 1_555 1_555
C20 C19 1_555 1_555
C21 C20 1_555 1_555
C22 C21 1_555 1_555
H15 C22 1_555 1_555
C23 C18 1_555 1_555
H16 C23 1_555 1_555
C24 O5 1_555 1_555
C25 C24 1_555 1_555
H17 C25 1_555 1_555
C26 C20 1_555 1_555
H18 C26 1_555 1_555
C27 C17 1_555 1_555
C28 O4 1_555 1_555
C29 C28 1_555 1_555
H19 C29 1_555 1_555
C30 C29 1_555 1_555
H20 C30 1_555 1_555
C31 C30 1_555 1_555
H21 C31 1_555 1_555
C32 C27 1_555 1_555
H22 C32 1_555 1_555
C6 C7 1_555 1_555
C9 C10 1_555 1_555
C11 C12 1_555 1_555
C15 C16 1_555 1_555
C22 C23 1_555 1_555
C25 C26 1_555 1_555
C27 C28 1_555 1_555
C31 C32 1_555 1_555

#END
