
#######################################################################
#
#                 Cambridge Crystallographic Data Centre
#                                CCDC 
#
#######################################################################
#
# If this CIF has been generated from an entry in the Cambridge 
# Structural Database, then it will include bibliographic, chemical, 
# crystal, experimental, refinement or atomic coordinate data resulting 
# from the CCDC's data processing and validation procedures.
#
#######################################################################

data_DIDWOE
_chemical_formula_moiety         'C24 H29 Br1 N8 O6,2(H2 O1)'
_chemical_name_systematic        
'4-(4-Bromophenyl)-N-(2-hydroxyethyl)-6-((8-((2-hydroxyethyl)amino)-1,3-dimethyl-2,6-dioxo-1,2,3,6-tetrahydro-7H-purin-7-yl)methylene)-1-methyl-2-oxohexahydropyrimidine-5-carboxamide dihydrate'
_symmetry_cell_setting           triclinic
_symmetry_space_group_name_H-M   'P -1'
_symmetry_Int_Tables_number      2
_space_group_name_Hall           '-P 1'
loop_
_symmetry_equiv_pos_site_id
_symmetry_equiv_pos_as_xyz
1 x,y,z
2 -x,-y,-z
_cell_length_a                   8.7445(7)
_cell_length_b                   10.6639(10)
_cell_length_c                   15.7271(14)
_cell_angle_alpha                96.136(7)
_cell_angle_beta                 101.276(7)
_cell_angle_gamma                106.351(8)
_cell_volume                     1359.49
_cell_formula_units_Z            2
loop_
_atom_site_label
_atom_site_type_symbol
_atom_site_fract_x
_atom_site_fract_y
_atom_site_fract_z
Br1 Br -0.66115(9) -0.15531(6) 0.35770(5)
O1 O 0.0494(4) 0.6115(3) 0.4341(2)
O2 O -0.0891(5) 0.4545(3) 0.1276(2)
O3 O 0.4793(6) 0.6532(4) 0.1950(3)
H1 H 0.5388 0.6274 0.1677
O4 O -0.0302(5) -0.1588(3) 0.4932(2)
H2 H -0.0006 -0.2216 0.4763
O5 O 0.3914(4) 0.2926(3) 0.1817(2)
O6 O 0.2393(5) -0.0607(4) -0.0420(2)
N1 N 0.1281(5) 0.4420(3) 0.3753(2)
N2 N -0.1358(5) 0.4545(3) 0.3278(3)
H3 H -0.2063 0.4955 0.3326
N3 N 0.1636(6) 0.4405(4) 0.1641(3)
H4 H 0.2305 0.4142 0.2002
N4 N 0.1298(5) 0.1190(3) 0.2637(2)
N5 N -0.0026(5) -0.0943(3) 0.1976(2)
N6 N 0.3121(5) 0.1140(4) 0.0696(3)
N7 N 0.1153(5) -0.0870(4) 0.0709(2)
N8 N -0.0418(5) -0.0211(3) 0.3372(2)
H5 H -0.0197 0.0435 0.3799
C1 C -0.2937(6) 0.2112(4) 0.2906(3)
C2 C -0.3684(6) 0.0948(4) 0.2303(3)
H6 H -0.3460 0.0900 0.1748
C3 C -0.4735(7) -0.0125(5) 0.2499(3)
H7 H -0.5213 -0.0897 0.2083
C4 C -0.5092(7) -0.0070(5) 0.3315(4)
C5 C -0.4345(8) 0.1039(5) 0.3925(4)
H8 H -0.4557 0.1069 0.4483
C6 C -0.3263(8) 0.2137(5) 0.3727(3)
H9 H -0.2755 0.2894 0.4153
C7 C -0.1921(6) 0.3324(4) 0.2621(3)
H10 H -0.2622 0.3487 0.2105
C8 C -0.0404(6) 0.3140(4) 0.2337(3)
H11 H -0.0710 0.2240 0.2005
C9 C 0.0899(6) 0.3262(4) 0.3137(3)
C10 C 0.0129(6) 0.5079(4) 0.3803(3)
C11 C 0.0097(7) 0.4123(4) 0.1721(3)
C12 C 0.2265(8) 0.5131(5) 0.0984(4)
H12 H 0.1349 0.5175 0.0539
H13 H 0.2868 0.4650 0.0696
C13 C 0.3355(9) 0.6497(5) 0.1364(5)
H14 H 0.3639 0.6957 0.0890
H15 H 0.2763 0.6967 0.1668
C14 C 0.1709(6) 0.2376(4) 0.3258(3)
H16 H 0.2556 0.2539 0.3757
C15 C 0.0230(6) -0.0006(4) 0.2689(3)
C16 C 0.0952(6) -0.0313(4) 0.1491(3)
C17 C 0.1790(6) 0.0982(4) 0.1852(3)
C18 C 0.3003(7) 0.1781(5) 0.1507(3)
C19 C 0.2229(7) -0.0136(5) 0.0287(3)
C20 C 0.2763(6) 0.4844(4) 0.4445(3)
H17 H 0.2655 0.4275 0.4877
H18 H 0.2946 0.5741 0.4716
H19 H 0.3674 0.4799 0.4201
C21 C -0.1503(7) -0.1507(4) 0.3417(3)
H20 H -0.1049 -0.2189 0.3225
H21 H -0.2564 -0.1663 0.3021
C22 C -0.1723(7) -0.1601(4) 0.4338(3)
H22 H -0.2073 -0.0863 0.4548
H23 H -0.2587 -0.2413 0.4321
C23 C 0.4313(8) 0.1897(5) 0.0254(4)
H24 H 0.3787 0.1851 -0.0349
H25 H 0.5201 0.1530 0.0279
H26 H 0.4730 0.2807 0.0543
C24 C 0.0201(7) -0.2237(5) 0.0304(3)
H27 H 0.0037 -0.2765 0.0755
H28 H 0.0785 -0.2588 -0.0069
H29 H -0.0843 -0.2256 -0.0040
O7 O 0.5594(5) 0.5084(4) 0.3233(3)
H30 H 0.5350 0.5633 0.2912
H31 H 0.5164 0.4307 0.2932
O8 O 0.7429(5) 0.6436(3) 0.1388(3)
H32 H 0.7988 0.5901 0.1410
H33 H 0.8068 0.7223 0.1558
loop_
_geom_bond_atom_site_label_1
_geom_bond_atom_site_label_2
_geom_bond_site_symmetry_1
_geom_bond_site_symmetry_2
Br1 C4 1_555 1_555
O1 C10 1_555 1_555
O2 C11 1_555 1_555
O3 H1 1_555 1_555
O4 H2 1_555 1_555
O5 C18 1_555 1_555
O6 C19 1_555 1_555
N1 C9 1_555 1_555
N2 H3 1_555 1_555
N3 H4 1_555 1_555
N4 C14 1_555 1_555
N5 C15 1_555 1_555
N6 C18 1_555 1_555
N7 C16 1_555 1_555
N8 H5 1_555 1_555
C1 C2 1_555 1_555
C2 H6 1_555 1_555
C3 C2 1_555 1_555
H7 C3 1_555 1_555
C4 C3 1_555 1_555
C5 C4 1_555 1_555
H8 C5 1_555 1_555
C6 C1 1_555 1_555
H9 C6 1_555 1_555
C7 N2 1_555 1_555
H10 C7 1_555 1_555
C8 C7 1_555 1_555
H11 C8 1_555 1_555
C9 C8 1_555 1_555
C10 N1 1_555 1_555
C11 N3 1_555 1_555
C12 N3 1_555 1_555
H12 C12 1_555 1_555
H13 C12 1_555 1_555
C13 O3 1_555 1_555
H14 C13 1_555 1_555
H15 C13 1_555 1_555
C14 C9 1_555 1_555
H16 C14 1_555 1_555
C15 N4 1_555 1_555
C16 N5 1_555 1_555
C17 N4 1_555 1_555
C18 C17 1_555 1_555
C19 N6 1_555 1_555
C20 N1 1_555 1_555
H17 C20 1_555 1_555
H18 C20 1_555 1_555
H19 C20 1_555 1_555
C21 N8 1_555 1_555
H20 C21 1_555 1_555
H21 C21 1_555 1_555
C22 O4 1_555 1_555
H22 C22 1_555 1_555
H23 C22 1_555 1_555
C23 N6 1_555 1_555
H24 C23 1_555 1_555
H25 C23 1_555 1_555
H26 C23 1_555 1_555
C24 N7 1_555 1_555
H27 C24 1_555 1_555
H28 C24 1_555 1_555
H29 C24 1_555 1_555
O7 H30 1_555 1_555
H31 O7 1_555 1_555
O8 H32 1_555 1_555
H33 O8 1_555 1_555
N2 C10 1_555 1_555
N7 C19 1_555 1_555
N8 C15 1_555 1_555
C1 C7 1_555 1_555
C5 C6 1_555 1_555
C8 C11 1_555 1_555
C12 C13 1_555 1_555
C16 C17 1_555 1_555
C21 C22 1_555 1_555

#END
