
#######################################################################
#
#                 Cambridge Crystallographic Data Centre
#                                CCDC 
#
#######################################################################
#
# If this CIF has been generated from an entry in the Cambridge 
# Structural Database, then it will include bibliographic, chemical, 
# crystal, experimental, refinement or atomic coordinate data resulting 
# from the CCDC's data processing and validation procedures.
#
#######################################################################

data_DIFQEP
_chemical_formula_moiety         'C25 H18 N2 O2'
_chemical_name_systematic        
2-(9-(4-Methoxy-2,6-dimethylphenyl)xanthen-3-ylidene)malononitrile
_symmetry_cell_setting           triclinic
_symmetry_space_group_name_H-M   'P -1'
_symmetry_Int_Tables_number      2
_space_group_name_Hall           '-P 1'
loop_
_symmetry_equiv_pos_site_id
_symmetry_equiv_pos_as_xyz
1 x,y,z
2 -x,-y,-z
_cell_length_a                   8.665(3)
_cell_length_b                   10.454(3)
_cell_length_c                   11.011(3)
_cell_angle_alpha                94.24(2)
_cell_angle_beta                 105.69(2)
_cell_angle_gamma                98.95(2)
_cell_volume                     941.479
_exptl_crystal_colour            'dark green'
_chemical_melting_point          239-243deg.C
_cell_formula_units_Z            2
loop_
_atom_site_label
_atom_site_type_symbol
_atom_site_fract_x
_atom_site_fract_y
_atom_site_fract_z
O1 O 0.36530(13) 0.46386(10) 0.07502(9)
O2 O 0.90213(14) 1.16432(10) 0.52376(10)
N1 N -0.18968(19) 0.49604(15) -0.31140(14)
N2 N -0.17001(18) 0.89911(14) -0.16702(13)
C1 C 0.31032(18) 0.57860(13) 0.06047(13)
C2 C 0.17062(18) 0.57588(14) -0.03398(13)
H1 H 0.1173 0.4963 -0.0883
C3 C 0.10419(18) 0.69095(14) -0.05206(13)
C4 C 0.18820(18) 0.80805(14) 0.03266(14)
H2 H 0.1426 0.8861 0.0242
C5 C 0.32885(19) 0.80995(14) 0.12296(14)
H3 H 0.3837 0.8901 0.1758
C6 C 0.39954(18) 0.69487(14) 0.14257(13)
C7 C 0.54240(18) 0.69232(14) 0.23487(13)
C8 C 0.59443(18) 0.56910(14) 0.25149(14)
C9 C 0.73434(19) 0.55316(16) 0.34633(15)
H4 H 0.8022 0.6281 0.4015
C10 C 0.7744(2) 0.43195(16) 0.36020(15)
H5 H 0.8693 0.4221 0.4256
C11 C 0.6773(2) 0.32312(16) 0.28001(16)
H6 H 0.7060 0.2388 0.2911
C12 C 0.5402(2) 0.33455(15) 0.18511(15)
H7 H 0.4736 0.2595 0.1294
C13 C 0.50094(18) 0.45757(14) 0.17180(13)
C14 C 0.64000(18) 0.81400(14) 0.31542(14)
C15 C 0.73554(18) 0.90375(14) 0.26382(13)
C16 C 0.82293(18) 1.01831(14) 0.33772(14)
H8 H 0.8907 1.0787 0.3038
C17 C 0.81434(18) 1.04658(14) 0.46106(14)
C18 C 0.72148(18) 0.95831(15) 0.51221(14)
H9 H 0.7162 0.9781 0.5974
C19 C 0.63496(18) 0.84066(15) 0.44068(14)
C20 C 0.7449(2) 0.87691(16) 0.12976(15)
H10 H 0.8416 0.9291 0.1206
H11 H 0.6506 0.8972 0.0708
H12 H 0.7472 0.7862 0.1110
C21 C 0.5394(2) 0.74542(17) 0.50185(16)
H13 H 0.4569 0.6856 0.4379
H14 H 0.4911 0.7931 0.5551
H15 H 0.6132 0.6993 0.5553
C22 C 0.8921(2) 1.19674(16) 0.64930(16)
H16 H 0.9565 1.2814 0.6838
H17 H 0.9317 1.1326 0.7016
H18 H 0.7807 1.1962 0.6478
C23 C -0.03859(18) 0.69436(14) -0.14817(14)
C24 C -0.12160(18) 0.58420(15) -0.23871(14)
C25 C -0.11082(18) 0.80820(15) -0.15877(14)
loop_
_geom_bond_atom_site_label_1
_geom_bond_atom_site_label_2
_geom_bond_site_symmetry_1
_geom_bond_site_symmetry_2
O1 C1 1_555 1_555
O2 C17 1_555 1_555
N1 C24 1_555 1_555
N2 C25 1_555 1_555
C1 C2 1_555 1_555
C2 H1 1_555 1_555
C3 C2 1_555 1_555
C4 C3 1_555 1_555
H2 C4 1_555 1_555
C5 C4 1_555 1_555
H3 C5 1_555 1_555
C6 C1 1_555 1_555
C7 C6 1_555 1_555
C8 C7 1_555 1_555
C9 C8 1_555 1_555
H4 C9 1_555 1_555
C10 C9 1_555 1_555
H5 C10 1_555 1_555
C11 C10 1_555 1_555
H6 C11 1_555 1_555
C12 C11 1_555 1_555
H7 C12 1_555 1_555
C13 O1 1_555 1_555
C14 C7 1_555 1_555
C15 C14 1_555 1_555
C16 C15 1_555 1_555
H8 C16 1_555 1_555
C17 C16 1_555 1_555
C18 C17 1_555 1_555
H9 C18 1_555 1_555
C19 C14 1_555 1_555
C20 C15 1_555 1_555
H10 C20 1_555 1_555
H11 C20 1_555 1_555
H12 C20 1_555 1_555
C21 C19 1_555 1_555
H13 C21 1_555 1_555
H14 C21 1_555 1_555
H15 C21 1_555 1_555
C22 O2 1_555 1_555
H16 C22 1_555 1_555
H17 C22 1_555 1_555
H18 C22 1_555 1_555
C23 C3 1_555 1_555
C24 C23 1_555 1_555
C25 C23 1_555 1_555
C5 C6 1_555 1_555
C8 C13 1_555 1_555
C12 C13 1_555 1_555
C18 C19 1_555 1_555

#END
