
#######################################################################
#
#                 Cambridge Crystallographic Data Centre
#                                CCDC 
#
#######################################################################
#
# If this CIF has been generated from an entry in the Cambridge 
# Structural Database, then it will include bibliographic, chemical, 
# crystal, experimental, refinement or atomic coordinate data resulting 
# from the CCDC's data processing and validation procedures.
#
#######################################################################

data_DIFVOE
_chemical_formula_moiety         'C19 H33 N1 O1'
_chemical_name_systematic        
(S)-2-(1-Amino-2,2-dimethylpropyl)-4,6-di-t-butylphenol
_symmetry_cell_setting           orthorhombic
_symmetry_space_group_name_H-M   'C 2 2 21'
_symmetry_Int_Tables_number      20
_space_group_name_Hall           'C 2n 2'
loop_
_symmetry_equiv_pos_site_id
_symmetry_equiv_pos_as_xyz
1 x,y,z
2 -x,-y,1/2+z
3 x,-y,-z
4 -x,y,1/2-z
5 1/2+x,1/2+y,z
6 1/2-x,1/2-y,1/2+z
7 1/2+x,1/2-y,-z
8 1/2-x,1/2+y,1/2-z
_cell_length_a                   13.4310(14)
_cell_length_b                   13.7194(14)
_cell_length_c                   39.470(4)
_cell_angle_alpha                90
_cell_angle_beta                 90
_cell_angle_gamma                90
_cell_volume                     7272.95
_exptl_crystal_colour            colorless
_exptl_crystal_description       prism
_chemical_melting_point          '108-110 deg.C'
_cell_formula_units_Z            16
loop_
_atom_site_label
_atom_site_type_symbol
_atom_site_fract_x
_atom_site_fract_y
_atom_site_fract_z
O1 O 0.33188(10) 0.63664(11) 0.53483(4)
H1 H 0.3392 0.6559 0.5153
N1 N 0.42260(14) 0.65616(14) 0.47579(4)
H2 H 0.428(2) 0.593(2) 0.4674(7)
H3 H 0.423(3) 0.695(2) 0.4566(9)
C1 C 0.42119(13) 0.60570(13) 0.54727(4)
C2 C 0.42350(13) 0.55561(12) 0.57875(4)
C3 C 0.51589(13) 0.52278(12) 0.59016(4)
H4 H 0.5186 0.4909 0.6109
C4 C 0.60434(13) 0.53497(12) 0.57222(4)
C5 C 0.59888(13) 0.58451(13) 0.54150(4)
H5 H 0.6567 0.5931 0.5289
C6 C 0.50939(14) 0.62166(12) 0.52906(4)
C7 C 0.32751(13) 0.53968(13) 0.59933(5)
C8 C 0.25443(15) 0.47559(16) 0.57889(5)
H6 H 0.1929 0.4697 0.5911
H7 H 0.2829 0.4121 0.5757
H8 H 0.2422 0.5052 0.5572
C9 C 0.27739(15) 0.63735(15) 0.60758(5)
H9 H 0.2182 0.6258 0.6206
H10 H 0.2602 0.6701 0.5869
H11 H 0.3224 0.6773 0.6204
C10 C 0.34806(15) 0.48805(15) 0.63310(5)
H12 H 0.3931 0.5266 0.6464
H13 H 0.3772 0.4254 0.6288
H14 H 0.2867 0.4798 0.6452
C11 C 0.70278(12) 0.49205(13) 0.58509(4)
C12 C 0.70533(17) 0.38246(16) 0.57760(7)
H15 H 0.7094 0.3724 0.5536
H16 H 0.6458 0.3525 0.5861
H17 H 0.7623 0.3538 0.5884
C13 C 0.71407(17) 0.50615(19) 0.62333(5)
H18 H 0.7765 0.4792 0.6306
H19 H 0.6606 0.4736 0.6348
H20 H 0.7123 0.5745 0.6286
C14 C 0.79307(16) 0.5381(2) 0.56790(7)
H21 H 0.7924 0.6072 0.5716
H22 H 0.7907 0.5251 0.5440
H23 H 0.8529 0.5109 0.5772
C15 C 0.51242(14) 0.67947(13) 0.49597(4)
H24 H 0.5703 0.6566 0.4831
C16 C 0.52445(14) 0.79166(14) 0.50083(5)
C17 C 0.43506(17) 0.83794(15) 0.51842(5)
H25 H 0.4263 0.8088 0.5403
H26 H 0.3764 0.8275 0.5050
H27 H 0.4463 0.9067 0.5210
C18 C 0.53850(17) 0.83929(16) 0.46579(5)
H28 H 0.4784 0.8324 0.4528
H29 H 0.5924 0.8079 0.4541
H30 H 0.5535 0.9072 0.4686
C19 C 0.61859(17) 0.81135(16) 0.52157(6)
H31 H 0.6297 0.8804 0.5230
H32 H 0.6746 0.7809 0.5108
H33 H 0.6105 0.7851 0.5440
O2 O 0.14007(12) 0.33333(10) 0.71662(4)
H34 H 0.1539 0.3402 0.7367
N2 N 0.15711(14) 0.42404(14) 0.77535(4)
H35 H 0.095(2) 0.4276(17) 0.7813(6)
H36 H 0.200(2) 0.417(2) 0.7950(8)
C20 C 0.10902(13) 0.42013(13) 0.70361(4)
C21 C 0.06037(12) 0.42124(12) 0.67193(4)
C22 C 0.02837(12) 0.51120(13) 0.65936(4)
H37 H -0.0018 0.5129 0.6382
C23 C 0.03938(13) 0.59873(12) 0.67705(4)
C24 C 0.08685(13) 0.59391(13) 0.70844(4)
H38 H 0.0940 0.6508 0.7210
C25 C 0.12390(12) 0.50750(13) 0.72166(4)
C26 C 0.04388(13) 0.32621(12) 0.65179(5)
C27 C -0.02128(17) 0.25547(15) 0.67228(5)
H39 H -0.0253 0.1942 0.6606
H40 H -0.0869 0.2824 0.6747
H41 H 0.0076 0.2457 0.6943
C28 C 0.14444(16) 0.27727(15) 0.64377(6)
H42 H 0.1336 0.2218 0.6294
H43 H 0.1754 0.2566 0.6645
H44 H 0.1870 0.3230 0.6324
C29 C -0.00829(15) 0.34389(14) 0.61773(5)
H45 H 0.0311 0.3875 0.6042
H46 H -0.0726 0.3722 0.6217
H47 H -0.0160 0.2830 0.6060
C30 C -0.00051(14) 0.69605(12) 0.66382(4)
C31 C -0.0986(2) 0.71857(18) 0.68153(7)
H48 H -0.0876 0.7236 0.7055
H49 H -0.1454 0.6672 0.6771
H50 H -0.1247 0.7791 0.6732
C32 C -0.0196(2) 0.69302(16) 0.62558(5)
H51 H -0.0717 0.6472 0.6208
H52 H 0.0402 0.6733 0.6141
H53 H -0.0390 0.7566 0.6179
C33 C 0.0745(2) 0.77782(17) 0.66996(7)
H54 H 0.0496 0.8374 0.6604
H55 H 0.1368 0.7614 0.6594
H56 H 0.0844 0.7861 0.6939
C34 C 0.18111(13) 0.51173(14) 0.75495(4)
H57 H 0.1567 0.5685 0.7675
C35 C 0.29570(14) 0.52403(14) 0.75077(5)
C36 C 0.34291(16) 0.53683(17) 0.78588(5)
H58 H 0.4122 0.5523 0.7834
H59 H 0.3361 0.4774 0.7985
H60 H 0.3100 0.5888 0.7977
C37 C 0.31636(17) 0.61684(17) 0.73039(6)
H61 H 0.2812 0.6705 0.7404
H62 H 0.2944 0.6079 0.7075
H63 H 0.3865 0.6302 0.7306
C38 C 0.34377(15) 0.43716(16) 0.73287(5)
H64 H 0.3137 0.4286 0.7110
H65 H 0.3340 0.3794 0.7462
H66 H 0.4138 0.4489 0.7302
loop_
_geom_bond_atom_site_label_1
_geom_bond_atom_site_label_2
_geom_bond_site_symmetry_1
_geom_bond_site_symmetry_2
O1 H1 1_555 1_555
N1 H2 1_555 1_555
H3 N1 1_555 1_555
C1 O1 1_555 1_555
C2 C1 1_555 1_555
C3 C2 1_555 1_555
H4 C3 1_555 1_555
C4 C3 1_555 1_555
C5 C4 1_555 1_555
H5 C5 1_555 1_555
C6 C1 1_555 1_555
C7 C2 1_555 1_555
C8 C7 1_555 1_555
H6 C8 1_555 1_555
H7 C8 1_555 1_555
H8 C8 1_555 1_555
C9 C7 1_555 1_555
H9 C9 1_555 1_555
H10 C9 1_555 1_555
H11 C9 1_555 1_555
C10 C7 1_555 1_555
H12 C10 1_555 1_555
H13 C10 1_555 1_555
H14 C10 1_555 1_555
C11 C4 1_555 1_555
C12 C11 1_555 1_555
H15 C12 1_555 1_555
H16 C12 1_555 1_555
H17 C12 1_555 1_555
C13 C11 1_555 1_555
H18 C13 1_555 1_555
H19 C13 1_555 1_555
H20 C13 1_555 1_555
C14 C11 1_555 1_555
H21 C14 1_555 1_555
H22 C14 1_555 1_555
H23 C14 1_555 1_555
C15 N1 1_555 1_555
H24 C15 1_555 1_555
C16 C15 1_555 1_555
C17 C16 1_555 1_555
H25 C17 1_555 1_555
H26 C17 1_555 1_555
H27 C17 1_555 1_555
C18 C16 1_555 1_555
H28 C18 1_555 1_555
H29 C18 1_555 1_555
H30 C18 1_555 1_555
C19 C16 1_555 1_555
H31 C19 1_555 1_555
H32 C19 1_555 1_555
H33 C19 1_555 1_555
O2 H34 1_555 1_555
N2 H35 1_555 1_555
H36 N2 1_555 1_555
C20 O2 1_555 1_555
C21 C20 1_555 1_555
C22 C21 1_555 1_555
H37 C22 1_555 1_555
C23 C22 1_555 1_555
C24 C23 1_555 1_555
H38 C24 1_555 1_555
C25 C20 1_555 1_555
C26 C21 1_555 1_555
C27 C26 1_555 1_555
H39 C27 1_555 1_555
H40 C27 1_555 1_555
H41 C27 1_555 1_555
C28 C26 1_555 1_555
H42 C28 1_555 1_555
H43 C28 1_555 1_555
H44 C28 1_555 1_555
C29 C26 1_555 1_555
H45 C29 1_555 1_555
H46 C29 1_555 1_555
H47 C29 1_555 1_555
C30 C23 1_555 1_555
C31 C30 1_555 1_555
H48 C31 1_555 1_555
H49 C31 1_555 1_555
H50 C31 1_555 1_555
C32 C30 1_555 1_555
H51 C32 1_555 1_555
H52 C32 1_555 1_555
H53 C32 1_555 1_555
C33 C30 1_555 1_555
H54 C33 1_555 1_555
H55 C33 1_555 1_555
H56 C33 1_555 1_555
C34 N2 1_555 1_555
H57 C34 1_555 1_555
C35 C34 1_555 1_555
C36 C35 1_555 1_555
H58 C36 1_555 1_555
H59 C36 1_555 1_555
H60 C36 1_555 1_555
C37 C35 1_555 1_555
H61 C37 1_555 1_555
H62 C37 1_555 1_555
H63 C37 1_555 1_555
C38 C35 1_555 1_555
H64 C38 1_555 1_555
H65 C38 1_555 1_555
H66 C38 1_555 1_555
C5 C6 1_555 1_555
C6 C15 1_555 1_555
C24 C25 1_555 1_555
C25 C34 1_555 1_555

#END
