
#######################################################################
#
#                 Cambridge Crystallographic Data Centre
#                                CCDC 
#
#######################################################################
#
# If this CIF has been generated from an entry in the Cambridge 
# Structural Database, then it will include bibliographic, chemical, 
# crystal, experimental, refinement or atomic coordinate data resulting 
# from the CCDC's data processing and validation procedures.
#
#######################################################################

data_DIGHEG
_chemical_formula_moiety         'C19 H20 O8'
_chemical_name_systematic        
(3aSR,4RS,11SR,11aRS)-3a,4,11,11a-Tetrahydro-4,6,9-trihydroxy-11-methoxy-2,2,3a-trimethyl-24-anthra(2,3-d)dioxol-5,10-dione
_symmetry_cell_setting           monoclinic
_symmetry_space_group_name_H-M   'P 21/n'
_symmetry_Int_Tables_number      14
_space_group_name_Hall           '-P 2yn'
loop_
_symmetry_equiv_pos_site_id
_symmetry_equiv_pos_as_xyz
1 x,y,z
2 1/2-x,1/2+y,1/2-z
3 -x,-y,-z
4 1/2+x,1/2-y,1/2+z
_cell_length_a                   10.505(1)
_cell_length_b                   9.031(1)
_cell_length_c                   18.904(1)
_cell_angle_alpha                90
_cell_angle_beta                 94.94(1)
_cell_angle_gamma                90
_cell_volume                     1786.77
_chemical_melting_point          143-146deg.C
_cell_formula_units_Z            4
loop_
_atom_site_label
_atom_site_type_symbol
_atom_site_fract_x
_atom_site_fract_y
_atom_site_fract_z
O1 O 0.4120(4) 0.3592(5) 0.0457(2)
O2 O 0.2799(4) 0.2414(5) 0.1146(2)
O3 O 0.0788(4) 0.5592(5) 0.1253(2)
O4 O 0.2461(4) 0.4211(5) 0.2981(2)
O5 O 0.4037(5) 0.4568(6) 0.4113(2)
O6 O 0.7019(5) 0.7985(7) 0.2548(3)
O7 O 0.5489(5) 0.7467(6) 0.1436(2)
O8 O 0.2533(5) 0.7157(5) 0.0478(3)
C1 C 0.3833(6) 0.2138(7) 0.0713(4)
C2 C 0.2069(6) 0.3629(7) 0.0855(3)
C3 C 0.1713(6) 0.4483(7) 0.1503(3)
C4 C 0.2891(6) 0.5173(7) 0.1868(3)
C5 C 0.3200(6) 0.4972(7) 0.2643(3)
C6 C 0.4353(6) 0.5625(7) 0.2961(3)
C7 C 0.4699(6) 0.5412(8) 0.3696(4)
C8 C 0.5793(8) 0.6120(10) 0.4010(4)
C9 C 0.6532(8) 0.6949(10) 0.3622(5)
C10 C 0.6231(7) 0.7151(8) 0.2885(4)
C11 C 0.5141(6) 0.6491(8) 0.2562(4)
C12 C 0.4828(6) 0.6675(7) 0.1807(4)
C13 C 0.3681(6) 0.5927(7) 0.1478(3)
C14 C 0.3419(6) 0.6009(7) 0.0678(3)
C15 C 0.2984(7) 0.4467(7) 0.0382(3)
C16 C 0.4950(8) 0.1625(10) 0.1177(5)
C17 C 0.3432(9) 0.1082(9) 0.0119(4)
C18 C 0.0153(7) 0.6253(10) 0.1819(5)
C19 C 0.2445(8) 0.4595(9) -0.0380(3)
H1 H 0.117(5) 0.336(6) 0.056(3)
H2 H 0.135(5) 0.387(6) 0.188(3)
H3 H 0.340(5) 0.446(6) 0.393(3)
H4 H 0.596(5) 0.591(6) 0.452(3)
H5 H 0.733(5) 0.748(6) 0.387(3)
H6 H 0.676(5) 0.806(6) 0.201(3)
H7 H 0.437(5) 0.634(6) 0.041(3)
H8 H 0.178(5) 0.693(7) 0.062(3)
H9 H 0.475(5) 0.067(7) 0.145(3)
H10 H 0.534(5) 0.237(7) 0.162(3)
H11 H 0.570(5) 0.135(6) 0.090(3)
H12 H 0.409(5) 0.123(6) -0.021(3)
H13 H 0.247(5) 0.136(6) -0.021(3)
H14 H 0.318(6) 0.025(7) 0.026(3)
H15 H 0.077(5) 0.667(6) 0.223(3)
H16 H -0.063(6) 0.563(6) 0.193(3)
H17 H -0.054(6) 0.688(6) 0.159(3)
H18 H 0.146(5) 0.506(6) -0.045(3)
H19 H 0.302(5) 0.510(6) -0.065(2)
H20 H 0.229(5) 0.362(6) -0.062(3)
loop_
_geom_bond_atom_site_label_1
_geom_bond_atom_site_label_2
_geom_bond_site_symmetry_1
_geom_bond_site_symmetry_2
O1 C1 1_555 1_555
O2 C1 1_555 1_555
O3 C3 1_555 1_555
O4 C5 1_555 1_555
O5 C7 1_555 1_555
O6 C10 1_555 1_555
O7 C12 1_555 1_555
O8 C14 1_555 1_555
C1 C16 1_555 1_555
C2 O2 1_555 1_555
C3 C2 1_555 1_555
C4 C3 1_555 1_555
C5 C4 1_555 1_555
C6 C5 1_555 1_555
C7 C6 1_555 1_555
C8 C7 1_555 1_555
C9 C8 1_555 1_555
C10 C9 1_555 1_555
C11 C6 1_555 1_555
C12 C11 1_555 1_555
C13 C4 1_555 1_555
C14 C13 1_555 1_555
C15 O1 1_555 1_555
C16 H9 1_555 1_555
C17 C1 1_555 1_555
C18 O3 1_555 1_555
C19 C15 1_555 1_555
H1 C2 1_555 1_555
H2 C3 1_555 1_555
H3 O5 1_555 1_555
H4 C8 1_555 1_555
H5 C9 1_555 1_555
H6 O6 1_555 1_555
H7 C14 1_555 1_555
H8 O8 1_555 1_555
H10 C16 1_555 1_555
H11 C16 1_555 1_555
H12 C17 1_555 1_555
H13 C17 1_555 1_555
H14 C17 1_555 1_555
H15 C18 1_555 1_555
H16 C18 1_555 1_555
H17 C18 1_555 1_555
H18 C19 1_555 1_555
H19 C19 1_555 1_555
H20 C19 1_555 1_555
C2 C15 1_555 1_555
C10 C11 1_555 1_555
C12 C13 1_555 1_555
C14 C15 1_555 1_555

#END
