
#######################################################################
#
#                 Cambridge Crystallographic Data Centre
#                                CCDC 
#
#######################################################################
#
# If this CIF has been generated from an entry in the Cambridge 
# Structural Database, then it will include bibliographic, chemical, 
# crystal, experimental, refinement or atomic coordinate data resulting 
# from the CCDC's data processing and validation procedures.
#
#######################################################################

data_DIHBAA
_chemical_formula_moiety         'C46 H34 O2'
_chemical_name_systematic        
4,4'-(2-t-butyl-6,8-diphenylpyrene-4,10-diyl)dibenzaldehyde
_symmetry_cell_setting           rhombohedral
_symmetry_space_group_name_H-M   'R -3'
_symmetry_Int_Tables_number      148
_space_group_name_Hall           '-R 3'
loop_
_symmetry_equiv_pos_site_id
_symmetry_equiv_pos_as_xyz
1 x,y,z
2 -y,x-y,z
3 -x+y,-x,z
4 2/3+x,1/3+y,1/3+z
5 2/3-y,1/3+x-y,1/3+z
6 2/3-x+y,1/3-x,1/3+z
7 1/3+x,2/3+y,2/3+z
8 1/3-y,2/3+x-y,2/3+z
9 1/3-x+y,2/3-x,2/3+z
10 -x,-y,-z
11 y,-x+y,-z
12 x-y,x,-z
13 1/3-x,2/3-y,2/3-z
14 1/3+y,2/3-x+y,2/3-z
15 1/3+x-y,2/3+x,2/3-z
16 2/3-x,1/3-y,1/3-z
17 2/3+y,1/3-x+y,1/3-z
18 2/3+x-y,1/3+x,1/3-z
_cell_length_a                   51.797(3)
_cell_length_b                   51.797(3)
_cell_length_c                   6.5592(4)
_cell_angle_alpha                90
_cell_angle_beta                 90
_cell_angle_gamma                120
_cell_volume                     15240.2
_exptl_crystal_colour            colorless
_exptl_crystal_description       block
_cell_formula_units_Z            18
loop_
_atom_site_label
_atom_site_type_symbol
_atom_site_fract_x
_atom_site_fract_y
_atom_site_fract_z
O1 O 0.06939(4) 0.26335(3) -0.4148(2)
O2 O 0.31295(3) 0.30181(4) 1.4523(2)
C1 C 0.06407(4) 0.25679(4) -0.2366(3)
H1 H 0.047086 0.256582 -0.180022
C2 C 0.08188(4) 0.24907(3) -0.1000(2)
C3 C 0.07168(3) 0.23988(4) 0.0974(2)
H2 H 0.054266 0.239795 0.143995
C4 C 0.08687(3) 0.23082(3) 0.2269(2)
H3 H 0.079586 0.224306 0.361009
C5 C 0.11252(3) 0.23119(3) 0.1626(2)
C6 C 0.12330(3) 0.24133(4) -0.0348(2)
H4 H 0.141208 0.242262 -0.079162
C7 C 0.10798(4) 0.24999(4) -0.1650(2)
H5 H 0.115262 0.256579 -0.299014
C8 C 0.12689(3) 0.21950(3) 0.3039(2)
C9 C 0.11217(3) 0.18990(3) 0.3500(2)
H6 H 0.094155 0.177169 0.279747
C10 C 0.12260(3) 0.17701(3) 0.49968(19)
C11 C 0.10658(3) 0.14662(3) 0.5537(2)
C12 C 0.11691(3) 0.13639(3) 0.7140(2)
H7 H 0.105562 0.116025 0.752649
C13 C 0.14321(3) 0.15488(3) 0.8193(2)
C14 C 0.16030(3) 0.18513(3) 0.7609(2)
C15 C 0.18861(3) 0.20503(3) 0.8502(2)
H8 H 0.196474 0.197393 0.948803
C16 C 0.20473(3) 0.23430(3) 0.8004(2)
C17 C 0.19356(3) 0.24677(3) 0.6511(2)
C18 C 0.20856(3) 0.27723(3) 0.6040(2)
H9 H 0.226827 0.290048 0.671172
C19 C 0.19766(4) 0.28933(4) 0.4625(3)
C20 C 0.17072(3) 0.27000(3) 0.3649(2)
H10 H 0.162881 0.277987 0.268685
C21 C 0.15499(3) 0.23945(3) 0.4041(2)
C22 C 0.16613(3) 0.22719(3) 0.5511(2)
C23 C 0.14969(3) 0.19639(3) 0.60398(19)
C24 C 0.07917(3) 0.12409(3) 0.4450(2)
C25 C 0.08032(3) 0.11763(3) 0.2402(2)
H11 H 0.098096 0.129246 0.164478
C26 C 0.05558(4) 0.09424(3) 0.1458(2)
H12 H 0.056601 0.089914 0.006297
C27 C 0.02944(3) 0.07724(3) 0.2547(3)
H13 H 0.012697 0.061125 0.190510
C28 C 0.02786(3) 0.08388(3) 0.4575(2)
H14 H 0.009912 0.072499 0.532009
C29 C 0.05249(3) 0.10712(3) 0.5516(2)
H15 H 0.051233 0.111582 0.690417
C30 C 0.15322(3) 0.14230(3) 0.9845(2)
C31 C 0.15386(3) 0.11602(3) 0.9517(2)
H16 H 0.147245 0.105885 0.825080
C32 C 0.16409(3) 0.10455(4) 1.1024(2)
H17 H 0.164544 0.086696 1.078237
C33 C 0.17367(3) 0.11910(4) 1.2884(2)
H18 H 0.181095 0.111464 1.390195
C34 C 0.17238(3) 0.14476(3) 1.3254(2)
H19 H 0.178461 0.154445 1.453849
C35 C 0.16221(3) 0.15634(3) 1.1752(2)
H20 H 0.161328 0.173921 1.201479
C36 C 0.23325(3) 0.25278(3) 0.9131(2)
C37 C 0.23189(3) 0.25881(4) 1.1193(3)
H21 H 0.213089 0.252607 1.180929
C38 C 0.25749(4) 0.27365(4) 1.2343(3)
H22 H 0.256288 0.277920 1.373675
C39 C 0.28514(3) 0.28240(3) 1.1463(2)
C40 C 0.28676(3) 0.27699(3) 0.9409(3)
H23 H 0.305617 0.283512 0.879160
C41 C 0.26096(3) 0.26209(3) 0.8251(2)
H24 H 0.262242 0.258231 0.684936
C42 C 0.31247(4) 0.29740(4) 1.2711(3)
H25 H 0.331007 0.304052 1.204249
C43 C 0.21369(4) 0.32281(4) 0.4144(4)
C44 C 0.19679(7) 0.33628(5) 0.5275(5)
H26 H 0.199316 0.335427 0.674968
H27 H 0.175550 0.324830 0.493285
H28 H 0.204858 0.357073 0.485564
C45 C 0.21358(7) 0.32795(5) 0.1875(4)
H29 H 0.224858 0.349395 0.159179
H30 H 0.192990 0.319778 0.140392
H31 H 0.222812 0.318018 0.115884
C46 C 0.24609(5) 0.33893(5) 0.4896(5)
H32 H 0.246377 0.337961 0.638767
H33 H 0.255986 0.359828 0.446269
H34 H 0.256596 0.329295 0.431863
loop_
_geom_bond_atom_site_label_1
_geom_bond_atom_site_label_2
_geom_bond_site_symmetry_1
_geom_bond_site_symmetry_2
O1 C1 1_555 1_555
O2 C42 1_555 1_555
C1 H1 1_555 1_555
C2 C1 1_555 1_555
C3 C2 1_555 1_555
H2 C3 1_555 1_555
C4 C3 1_555 1_555
H3 C4 1_555 1_555
C5 C4 1_555 1_555
C6 C5 1_555 1_555
H4 C6 1_555 1_555
C7 C2 1_555 1_555
H5 C7 1_555 1_555
C8 C5 1_555 1_555
C9 C8 1_555 1_555
H6 C9 1_555 1_555
C10 C9 1_555 1_555
C11 C10 1_555 1_555
C12 C11 1_555 1_555
H7 C12 1_555 1_555
C13 C12 1_555 1_555
C14 C13 1_555 1_555
C15 C14 1_555 1_555
H8 C15 1_555 1_555
C16 C15 1_555 1_555
C17 C16 1_555 1_555
C18 C17 1_555 1_555
H9 C18 1_555 1_555
C19 C18 1_555 1_555
C20 C19 1_555 1_555
H10 C20 1_555 1_555
C21 C8 1_555 1_555
C22 C17 1_555 1_555
C23 C10 1_555 1_555
C24 C11 1_555 1_555
C25 C24 1_555 1_555
H11 C25 1_555 1_555
C26 C25 1_555 1_555
H12 C26 1_555 1_555
C27 C26 1_555 1_555
H13 C27 1_555 1_555
C28 C27 1_555 1_555
H14 C28 1_555 1_555
C29 C24 1_555 1_555
H15 C29 1_555 1_555
C30 C13 1_555 1_555
C31 C30 1_555 1_555
H16 C31 1_555 1_555
C32 C31 1_555 1_555
H17 C32 1_555 1_555
C33 C32 1_555 1_555
H18 C33 1_555 1_555
C34 C33 1_555 1_555
H19 C34 1_555 1_555
C35 C30 1_555 1_555
H20 C35 1_555 1_555
C36 C16 1_555 1_555
C37 C36 1_555 1_555
H21 C37 1_555 1_555
C38 C37 1_555 1_555
H22 C38 1_555 1_555
C39 C38 1_555 1_555
C40 C39 1_555 1_555
H23 C40 1_555 1_555
C41 C36 1_555 1_555
H24 C41 1_555 1_555
C42 C39 1_555 1_555
H25 C42 1_555 1_555
C43 C19 1_555 1_555
C44 C43 1_555 1_555
H26 C44 1_555 1_555
H27 C44 1_555 1_555
H28 C44 1_555 1_555
C45 C43 1_555 1_555
H29 C45 1_555 1_555
H30 C45 1_555 1_555
H31 C45 1_555 1_555
C46 C43 1_555 1_555
H32 C46 1_555 1_555
H33 C46 1_555 1_555
H34 C46 1_555 1_555
C6 C7 1_555 1_555
C14 C23 1_555 1_555
C20 C21 1_555 1_555
C21 C22 1_555 1_555
C22 C23 1_555 1_555
C28 C29 1_555 1_555
C34 C35 1_555 1_555
C40 C41 1_555 1_555

#END
