
#######################################################################
#
#                 Cambridge Crystallographic Data Centre
#                                CCDC 
#
#######################################################################
#
# If this CIF has been generated from an entry in the Cambridge 
# Structural Database, then it will include bibliographic, chemical, 
# crystal, experimental, refinement or atomic coordinate data resulting 
# from the CCDC's data processing and validation procedures.
#
#######################################################################

data_DIHGOR
_chemical_formula_moiety         'C46 H24 Cl2 N6 O4'
_chemical_name_systematic        
cis-(1^4^,5^4^-Dichloro-2,4,6,8-tetraoxo-1,5(2,6)-di(1,3,5-triazina)-3,7(2,7)ditryptycenaoctacyclophane)
_symmetry_cell_setting           monoclinic
_symmetry_space_group_name_H-M   'C 2/c'
_symmetry_Int_Tables_number      15
_space_group_name_Hall           '-C 2yn'
loop_
_symmetry_equiv_pos_site_id
_symmetry_equiv_pos_as_xyz
1 x,y,z
2 1/2+x,1/2+y,z
3 -x,y,1/2-z
4 1/2-x,1/2+y,1/2-z
5 -x,-y,-z
6 1/2-x,1/2-y,-z
7 x,-y,1/2+z
8 1/2+x,1/2-y,1/2+z
_cell_length_a                   41.277(15)
_cell_length_b                   19.829(6)
_cell_length_c                   29.101(10)
_cell_angle_alpha                90
_cell_angle_beta                 119.396(4)
_cell_angle_gamma                90
_cell_volume                     20751.9
_exptl_crystal_colour            colorless
_exptl_crystal_description       prism
_cell_formula_units_Z            12
_exptl_crystal_recrystallization_method chloroform
loop_
_atom_site_label
_atom_site_type_symbol
_atom_site_fract_x
_atom_site_fract_y
_atom_site_fract_z
Cl1 Cl 0.62254(5) 0.34724(7) 0.00989(6)
Cl2 Cl 0.96212(4) 0.76529(10) 0.44300(8)
N1 N 0.65690(9) 0.52453(16) 0.11158(12)
N2 N 0.64260(10) 0.47351(18) 0.02946(13)
N3 N 0.63888(9) 0.40936(17) 0.09705(13)
N4 N 0.84157(10) 0.74607(17) 0.34673(15)
N5 N 0.89787(11) 0.72239(19) 0.42601(17)
N6 N 0.89899(11) 0.7883(2) 0.35800(18)
O1 O 0.66000(9) 0.58012(15) 0.04411(11)
O2 O 0.65095(8) 0.45820(13) 0.17203(10)
O3 O 0.84411(9) 0.68340(16) 0.41562(12)
O4 O 0.84633(9) 0.81031(15) 0.28501(13)
C1 C 0.65292(11) 0.5243(2) 0.06338(17)
C2 C 0.63666(12) 0.4184(2) 0.05060(18)
C3 C 0.64905(11) 0.4662(2) 0.12485(15)
C4 C 0.66027(12) 0.5126(2) 0.20723(17)
C5 C 0.68954(11) 0.50391(19) 0.25757(17)
H1 H 0.7038 0.4648 0.2666
C6 C 0.69737(11) 0.5540(2) 0.29434(15)
C7 C 0.72662(11) 0.5523(2) 0.35170(15)
H2 H 0.7416 0.5111 0.3611
C8 C 0.75005(12) 0.6158(2) 0.36273(16)
C9 C 0.78841(12) 0.6201(2) 0.38286(15)
H3 H 0.8029 0.5814 0.3910
C10 C 0.80424(13) 0.6831(3) 0.39041(17)
C11 C 0.78408(14) 0.7415(2) 0.37921(18)
H4 H 0.7958 0.7832 0.3855
C12 C 0.74624(13) 0.7372(2) 0.35843(18)
H5 H 0.7319 0.7762 0.3498
C13 C 0.72944(12) 0.6745(2) 0.35039(16)
C14 C 0.68760(12) 0.6610(2) 0.32698(17)
H6 H 0.6727 0.7024 0.3177
C15 C 0.67579(12) 0.6131(2) 0.28019(17)
C16 C 0.64697(12) 0.6212(2) 0.22953(18)
H7 H 0.6329 0.6605 0.2202
C17 C 0.63877(11) 0.5700(2) 0.19187(17)
H8 H 0.6193 0.5749 0.1575
C18 C 0.68469(12) 0.6192(2) 0.36870(16)
C19 C 0.66322(14) 0.6332(3) 0.3915(2)
H9 H 0.6492 0.6726 0.3833
C20 C 0.66286(18) 0.5861(4) 0.4278(2)
H10 H 0.6484 0.5949 0.4436
C21 C 0.68261(18) 0.5299(4) 0.4399(2)
H11 H 0.6818 0.4999 0.4639
C22 C 0.70441(13) 0.5150(3) 0.41719(17)
H12 H 0.7180 0.4752 0.4256
C23 C 0.70579(12) 0.5597(2) 0.38205(17)
C24 C 0.86137(13) 0.7199(2) 0.3940(2)
C25 C 0.91366(12) 0.7582(3) 0.4038(2)
C26 C 0.86250(14) 0.7804(2) 0.3320(2)
C27 C 0.80753(13) 0.8143(2) 0.25344(19)
C28 C 0.79296(14) 0.7991(2) 0.20035(19)
H13 H 0.8082 0.7838 0.1874
C29 C 0.75539(14) 0.8072(2) 0.16743(18)
C30 C 0.73399(14) 0.7922(2) 0.10779(19)
H14 H 0.7500 0.7752 0.0942
C31 C 0.70398(12) 0.7428(2) 0.10093(17)
C32 C 0.69696(13) 0.6793(2) 0.07710(16)
H15 H 0.7123 0.6622 0.0649
C33 C 0.66711(13) 0.6423(2) 0.07186(16)
C34 C 0.64307(13) 0.6662(2) 0.08852(18)
H16 H 0.6227 0.6408 0.0836
C35 C 0.65021(13) 0.7296(2) 0.11296(18)
H17 H 0.6347 0.7466 0.1249
C36 C 0.68078(13) 0.7670(2) 0.11930(17)
C37 C 0.69149(13) 0.8373(2) 0.14319(19)
H18 H 0.6755 0.8544 0.1566
C38 C 0.73212(13) 0.8311(2) 0.18551(17)
C39 C 0.74753(13) 0.8458(2) 0.23885(19)
H19 H 0.7323 0.8611 0.2518
C40 C 0.78559(13) 0.8380(2) 0.27331(18)
H20 H 0.7959 0.8486 0.3089
C41 C 0.71415(16) 0.8564(2) 0.0815(2)
C42 C 0.71683(19) 0.8864(3) 0.0419(2)
H21 H 0.7317 0.8678 0.0294
C43 C 0.6979(3) 0.9430(5) 0.0209(3)
H22 H 0.7010 0.9649 -0.0049
C44 C 0.6736(2) 0.9706(3) 0.0363(3)
H23 H 0.6600 1.0092 0.0200
C45 C 0.66981(16) 0.9376(3) 0.0784(2)
H24 H 0.6539 0.9543 0.0899
C46 C 0.69100(16) 0.8806(2) 0.1002(2)
Cl3 Cl 0.70516(4) 0.25885(9) 0.46185(6)
N7 N 0.61403(8) 0.39462(17) 0.36545(12)
N8 N 0.64542(10) 0.3243(2) 0.44097(13)
N9 N 0.66929(9) 0.33890(19) 0.38127(13)
O5 O 0.64035(7) 0.40299(16) 0.31134(10)
O6 O 0.59432(8) 0.37763(16) 0.42646(11)
C47 C 0.61834(11) 0.3660(2) 0.40938(16)
C48 C 0.66914(12) 0.3147(2) 0.42336(17)
C49 C 0.64076(11) 0.3791(2) 0.35420(15)
C50 C 0.61057(11) 0.4435(2) 0.27469(16)
C51 C 0.58973(11) 0.4179(2) 0.22460(16)
H25 H 0.5938 0.3746 0.2164
C52 C 0.56231(10) 0.4590(2) 0.18654(14)
C53 C 0.53627(10) 0.4387(2) 0.12879(15)
H26 H 0.5401 0.3923 0.1210
C54 C 0.49716(10) 0.4511(2) 0.12099(14)
C55 C 0.46822(11) 0.4049(2) 0.10320(14)
H27 H 0.4717 0.3606 0.0960
C56 C 0.56582(12) 0.4258(2) 0.40356(15)
C57 C 0.57194(12) 0.4901(2) 0.39452(17)
H28 H 0.5953 0.5031 0.4005
C58 C 0.54318(12) 0.5367(2) 0.37633(16)
H29 H 0.5471 0.5808 0.3693
C59 C 0.49161(11) 0.5170(2) 0.13141(15)
C60 C 0.52609(10) 0.5612(2) 0.15015(16)
H30 H 0.5224 0.6079 0.1576
C61 C 0.55668(10) 0.5238(2) 0.19801(15)
C62 C 0.57785(11) 0.5481(2) 0.24851(17)
H31 H 0.5740 0.5916 0.2567
C63 C 0.60540(11) 0.5071(3) 0.28775(16)
H32 H 0.6198 0.5232 0.3220
C64 C 0.54129(11) 0.4901(2) 0.09478(15)
C65 C 0.55022(11) 0.4768(3) 0.05596(17)
H33 H 0.5547 0.4329 0.0492
C66 C 0.55239(14) 0.5315(5) 0.0266(2)
H34 H 0.5576 0.5232 -0.0006
C67 C 0.54698(15) 0.5972(4) 0.0373(2)
H35 H 0.5491 0.6326 0.0179
C68 C 0.53849(12) 0.6101(3) 0.0768(2)
H36 H 0.5343 0.6539 0.0841
C69 C 0.53628(10) 0.5543(3) 0.10624(16)
Cl3B Cl 0.29484(4) 0.25885(9) 0.03815(6)
N7B N 0.38597(8) 0.39462(17) 0.13455(12)
N8B N 0.35458(10) 0.3243(2) 0.05903(13)
N9B N 0.33071(9) 0.33890(19) 0.11873(13)
O5B O 0.35965(7) 0.40299(16) 0.18866(10)
O6B O 0.40568(8) 0.37763(16) 0.07354(11)
C47B C 0.38166(11) 0.3660(2) 0.09062(16)
C48B C 0.33086(12) 0.3147(2) 0.07664(17)
C49B C 0.35924(11) 0.3791(2) 0.14580(15)
C50B C 0.38943(11) 0.4435(2) 0.22531(16)
C51B C 0.41027(11) 0.4179(2) 0.27540(16)
H25B H 0.4062 0.3746 0.2836
C52B C 0.43769(10) 0.4590(2) 0.31346(14)
C53B C 0.46373(10) 0.4387(2) 0.37121(15)
H26B H 0.4599 0.3923 0.3790
C54B C 0.50284(10) 0.4511(2) 0.37901(14)
C55B C 0.53178(11) 0.4049(2) 0.39680(14)
H27B H 0.5283 0.3606 0.4040
C56B C 0.43418(12) 0.4258(2) 0.09644(15)
C57B C 0.42806(12) 0.4901(2) 0.10548(17)
H28B H 0.4047 0.5031 0.0995
C58B C 0.45682(12) 0.5367(2) 0.12367(16)
H29B H 0.4529 0.5808 0.1307
C59B C 0.50839(11) 0.5170(2) 0.36859(15)
C60B C 0.47391(10) 0.5612(2) 0.34985(16)
H30B H 0.4776 0.6079 0.3424
C61B C 0.44332(10) 0.5238(2) 0.30199(15)
C62B C 0.42215(11) 0.5481(2) 0.25149(17)
H31B H 0.4260 0.5916 0.2433
C63B C 0.39460(11) 0.5071(3) 0.21225(16)
H32B H 0.3802 0.5232 0.1780
C64B C 0.45871(11) 0.4901(2) 0.40522(15)
C65B C 0.44978(11) 0.4768(3) 0.44404(17)
H33B H 0.4453 0.4329 0.4508
C66B C 0.44761(14) 0.5315(5) 0.4734(2)
H34B H 0.4424 0.5232 0.5006
C67B C 0.45302(15) 0.5972(4) 0.4627(2)
H35B H 0.4509 0.6326 0.4821
C68B C 0.46151(12) 0.6101(3) 0.4232(2)
H36B H 0.4657 0.6539 0.4159
C69B C 0.46372(10) 0.5543(3) 0.39376(16)
loop_
_geom_bond_atom_site_label_1
_geom_bond_atom_site_label_2
_geom_bond_site_symmetry_1
_geom_bond_site_symmetry_2
Cl1 C2 1_555 1_555
Cl2 C25 1_555 1_555
N1 C1 1_555 1_555
N2 C1 1_555 1_555
N3 C2 1_555 1_555
N4 C24 1_555 1_555
N5 C24 1_555 1_555
N6 C25 1_555 1_555
O1 C1 1_555 1_555
O2 C3 1_555 1_555
O3 C10 1_555 1_555
O4 C26 1_555 1_555
C2 N2 1_555 1_555
C3 N1 1_555 1_555
C4 O2 1_555 1_555
C5 C4 1_555 1_555
H1 C5 1_555 1_555
C6 C5 1_555 1_555
C7 C6 1_555 1_555
H2 C7 1_555 1_555
C8 C7 1_555 1_555
C9 C8 1_555 1_555
H3 C9 1_555 1_555
C10 C9 1_555 1_555
C11 C10 1_555 1_555
H4 C11 1_555 1_555
C12 C11 1_555 1_555
H5 C12 1_555 1_555
C13 C8 1_555 1_555
C14 C13 1_555 1_555
H6 C14 1_555 1_555
C15 C6 1_555 1_555
C16 C15 1_555 1_555
H7 C16 1_555 1_555
C17 C4 1_555 1_555
H8 C17 1_555 1_555
C18 C14 1_555 1_555
C19 C18 1_555 1_555
H9 C19 1_555 1_555
C20 C19 1_555 1_555
H10 C20 1_555 1_555
C21 C20 1_555 1_555
H11 C21 1_555 1_555
C22 C21 1_555 1_555
H12 C22 1_555 1_555
C23 C7 1_555 1_555
C24 O3 1_555 1_555
C25 N5 1_555 1_555
C26 N4 1_555 1_555
C27 O4 1_555 1_555
C28 C27 1_555 1_555
H13 C28 1_555 1_555
C29 C28 1_555 1_555
C30 C29 1_555 1_555
H14 C30 1_555 1_555
C31 C30 1_555 1_555
C32 C31 1_555 1_555
H15 C32 1_555 1_555
C33 O1 1_555 1_555
C34 C33 1_555 1_555
H16 C34 1_555 1_555
C35 C34 1_555 1_555
H17 C35 1_555 1_555
C36 C31 1_555 1_555
C37 C36 1_555 1_555
H18 C37 1_555 1_555
C38 C29 1_555 1_555
C39 C38 1_555 1_555
H19 C39 1_555 1_555
C40 C27 1_555 1_555
H20 C40 1_555 1_555
C41 C30 1_555 1_555
C42 C41 1_555 1_555
H21 C42 1_555 1_555
C43 C42 1_555 1_555
H22 C43 1_555 1_555
C44 C43 1_555 1_555
H23 C44 1_555 1_555
C45 C44 1_555 1_555
H24 C45 1_555 1_555
C46 C37 1_555 1_555
Cl3 C48 1_555 1_555
N7 C47 1_555 1_555
N8 C47 1_555 1_555
N9 C48 1_555 1_555
O5 C49 1_555 1_555
O6 C47 1_555 1_555
C48 N8 1_555 1_555
C49 N7 1_555 1_555
C50 O5 1_555 1_555
C51 C50 1_555 1_555
H25 C51 1_555 1_555
C52 C51 1_555 1_555
C53 C52 1_555 1_555
H26 C53 1_555 1_555
C54 C53 1_555 1_555
C55 C54 1_555 1_555
H27 C55 1_555 1_555
C56 O6 1_555 1_555
C57 C56 1_555 1_555
H28 C57 1_555 1_555
C58 C57 1_555 1_555
H29 C58 1_555 1_555
C59 C54 1_555 1_555
C60 C59 1_555 1_555
H30 C60 1_555 1_555
C61 C52 1_555 1_555
C62 C61 1_555 1_555
H31 C62 1_555 1_555
C63 C50 1_555 1_555
H32 C63 1_555 1_555
C64 C53 1_555 1_555
C65 C64 1_555 1_555
H33 C65 1_555 1_555
C66 C65 1_555 1_555
H34 C66 1_555 1_555
C67 C66 1_555 1_555
H35 C67 1_555 1_555
C68 C67 1_555 1_555
H36 C68 1_555 1_555
C69 C60 1_555 1_555
Cl3B C48B 1_555 1_555
N7B C47B 1_555 1_555
N8B C47B 1_555 1_555
N9B C48B 1_555 1_555
O5B C49B 1_555 1_555
O6B C47B 1_555 1_555
C48B N8B 1_555 1_555
C49B N7B 1_555 1_555
C50B O5B 1_555 1_555
C51B C50B 1_555 1_555
H25B C51B 1_555 1_555
C52B C51B 1_555 1_555
C53B C52B 1_555 1_555
H26B C53B 1_555 1_555
C54B C53B 1_555 1_555
C55B C56 1_555 1_555
H27B C55B 1_555 1_555
C56B C55 1_555 1_555
C57B C56B 1_555 1_555
H28B C57B 1_555 1_555
C58B C59 1_555 1_555
H29B C58B 1_555 1_555
C59B C58 1_555 1_555
C60B C59B 1_555 1_555
H30B C60B 1_555 1_555
C61B C52B 1_555 1_555
C62B C61B 1_555 1_555
H31B C62B 1_555 1_555
C63B C50B 1_555 1_555
H32B C63B 1_555 1_555
C64B C53B 1_555 1_555
C65B C64B 1_555 1_555
H33B C65B 1_555 1_555
C66B C65B 1_555 1_555
H34B C66B 1_555 1_555
C67B C66B 1_555 1_555
H35B C67B 1_555 1_555
C68B C67B 1_555 1_555
H36B C68B 1_555 1_555
C69B C60B 1_555 1_555
N3 C3 1_555 1_555
N6 C26 1_555 1_555
C12 C13 1_555 1_555
C14 C15 1_555 1_555
C16 C17 1_555 1_555
C18 C23 1_555 1_555
C22 C23 1_555 1_555
C32 C33 1_555 1_555
C35 C36 1_555 1_555
C37 C38 1_555 1_555
C39 C40 1_555 1_555
C41 C46 1_555 1_555
C45 C46 1_555 1_555
N9 C49 1_555 1_555
C60 C61 1_555 1_555
C62 C63 1_555 1_555
C64 C69 1_555 1_555
C68 C69 1_555 1_555
N9B C49B 1_555 1_555
O6B C56B 1_555 1_555
C54B C55B 1_555 1_555
C54B C59B 1_555 1_555
C57B C58B 1_555 1_555
C60B C61B 1_555 1_555
C62B C63B 1_555 1_555
C64B C69B 1_555 1_555
C68B C69B 1_555 1_555

#END
