
#######################################################################
#
#                 Cambridge Crystallographic Data Centre
#                                CCDC 
#
#######################################################################
#
# If this CIF has been generated from an entry in the Cambridge 
# Structural Database, then it will include bibliographic, chemical, 
# crystal, experimental, refinement or atomic coordinate data resulting 
# from the CCDC's data processing and validation procedures.
#
#######################################################################

data_DIHPER
_chemical_formula_moiety         'C28 H26 Cl1 N5 O8 S1,0.5(C1 H2 Cl2),C1 H4 O1'
_chemical_name_systematic        
'Ethyl 2-(2-(4-chlorophenyl)vinyl)-3-(2,4-dinitrobenzenecarbohydrazonoyl)-2-(((4-methylphenyl)sulfonyl)amino)but-3-enoate dichloromethane methanol solvate'
_symmetry_cell_setting           orthorhombic
_symmetry_space_group_name_H-M   'P 21 21 21'
_symmetry_Int_Tables_number      19
_space_group_name_Hall           'P 2ac 2ab'
loop_
_symmetry_equiv_pos_site_id
_symmetry_equiv_pos_as_xyz
1 x,y,z
2 1/2-x,-y,1/2+z
3 -x,1/2+y,1/2-z
4 1/2+x,1/2-y,-z
_cell_length_a                   7.8917(10)
_cell_length_b                   13.7826(19)
_cell_length_c                   29.962(4)
_cell_angle_alpha                90
_cell_angle_beta                 90
_cell_angle_gamma                90
_cell_volume                     3258.91
_exptl_crystal_colour            yellow
_exptl_crystal_description       Chunk
_cell_formula_units_Z            4
loop_
_atom_site_label
_atom_site_type_symbol
_atom_site_fract_x
_atom_site_fract_y
_atom_site_fract_z
C29 C 0.8750(14) 0.4929(4) 0.5934(3)
H27 H 0.7940 0.4492 0.5782
H28 H 0.9649 0.4515 0.6064
Cl2 Cl 0.7670(6) 0.5486(3) 0.63782(16)
Cl3 Cl 0.9695(4) 0.5666(3) 0.55245(15)
Cl1 Cl 1.0757(2) -0.18660(9) 0.49878(5)
S1 S 0.71903(8) 0.27866(5) 0.69661(3)
C1 C 0.3232(4) 0.1273(2) 0.66854(10)
H1 H 0.2321 0.1153 0.6885
H2 H 0.3892 0.0749 0.6576
O1 O 0.3057(3) 0.27506(17) 0.56923(7)
O2 O 0.5202(3) 0.38127(16) 0.57479(8)
O3 O 0.7350(2) 0.17651(13) 0.70185(7)
O4 O 0.8651(2) 0.33941(16) 0.69857(9)
O5 O -0.0122(3) 0.53127(16) 0.73929(8)
O6 O -0.0606(3) 0.68457(17) 0.73966(8)
O7 O 0.2293(4) 0.90467(16) 0.64799(10)
O8 O 0.4095(4) 0.85405(18) 0.59895(10)
N1 N 0.6387(3) 0.29989(17) 0.64793(8)
N2 N 0.2820(3) 0.38353(16) 0.65915(8)
N3 N 0.1857(3) 0.45491(17) 0.67843(8)
N4 N 0.0124(3) 0.61302(19) 0.72475(8)
N5 N 0.3053(4) 0.84027(19) 0.62865(11)
C2 C 0.9789(5) -0.0914(3) 0.52714(12)
C3 C 1.0746(5) -0.0242(3) 0.54883(12)
H3 H 1.1947 -0.0286 0.5486
C4 C 0.9941(4) 0.0509(2) 0.57133(11)
H4 H 1.0604 0.0979 0.5866
C5 C 0.8192(4) 0.0587(2) 0.57193(9)
C6 C 0.7263(4) -0.0118(2) 0.54959(11)
H5 H 0.6061 -0.0086 0.5499
C7 C 0.8052(5) -0.0866(2) 0.52693(13)
H6 H 0.7402 -0.1338 0.5115
C8 C 0.7430(4) 0.13944(19) 0.59613(10)
H7 H 0.8184 0.1850 0.6092
C9 C 0.5787(4) 0.1553(2) 0.60163(9)
H8 H 0.5018 0.1086 0.5900
C10 C 0.5050(3) 0.24345(19) 0.62527(9)
C11 C 0.3582(3) 0.21736(19) 0.65602(9)
C12 C 0.2550(3) 0.29718(18) 0.67330(9)
H9 H 0.1690 0.2851 0.6948
C13 C 0.2132(3) 0.54834(19) 0.66731(9)
C14 C 0.1319(3) 0.6271(2) 0.68863(9)
C15 C 0.1601(4) 0.7224(2) 0.67585(10)
H10 H 0.1040 0.7744 0.6905
C16 C 0.2707(4) 0.73975(19) 0.64158(11)
C17 C 0.3552(4) 0.6647(2) 0.61972(11)
H11 H 0.4316 0.6785 0.5960
C18 C 0.3268(4) 0.5711(2) 0.63276(10)
H12 H 0.3854 0.5201 0.6181
C19 C 0.4459(4) 0.3104(2) 0.58730(10)
C20 C 0.2391(6) 0.3414(4) 0.53500(18)
H13 H 0.3172 0.3457 0.5092
H14 H 0.2212 0.4072 0.5474
C21 C 0.0743(7) 0.2959(4) 0.5217(2)
H15 H 0.0953 0.2308 0.5098
H16 H 0.0194 0.3359 0.4989
H17 H 0.0002 0.2912 0.5479
C22 C 0.5770(3) 0.3208(2) 0.73702(9)
C23 C 0.5516(4) 0.4202(2) 0.74172(10)
H18 H 0.6157 0.4648 0.7245
C24 C 0.4317(4) 0.4532(2) 0.77187(11)
H19 H 0.4115 0.5209 0.7745
C25 C 0.3408(4) 0.3891(2) 0.79820(10)
C26 C 0.3734(4) 0.2906(2) 0.79424(10)
H20 H 0.3151 0.2463 0.8131
C27 C 0.4886(4) 0.2555(2) 0.76355(10)
H21 H 0.5072 0.1877 0.7606
C28 C 0.2095(5) 0.4255(3) 0.83018(13)
H22 H 0.2386 0.4915 0.8396
H23 H 0.2055 0.3828 0.8563
H24 H 0.0985 0.4259 0.8155
H25 H 0.646(6) 0.365(3) 0.6385(15)
H26 H 0.111(4) 0.439(2) 0.6979(9)
C30? C 0.210(2) 0.2976(17) 0.5284(3)
H29? H 0.1779 0.2372 0.5126
H30? H 0.2790 0.3381 0.5080
C31? C 0.055(2) 0.3518(18) 0.5431(6)
H31? H -0.0240 0.3068 0.5575
H32? H 0.0002 0.3814 0.5171
H33? H 0.0875 0.4026 0.5643
O9? O 0.8414(9) 0.7034(5) 0.5928(2)
H34? H 0.7930 0.6752 0.6141
C32? C 0.9391(9) 0.6322(7) 0.5667(3)
H35? H 1.0597 0.6383 0.5739
H36? H 0.9222 0.6443 0.5347
H37? H 0.9003 0.5665 0.5740
O10? O 0.8006(12) 0.5251(6) 0.6324(3)
H38? H 0.7348 0.5555 0.6494
C33? C 0.7834(14) 0.5629(9) 0.5866(3)
H39? H 0.8595 0.6184 0.5826
H40? H 0.6661 0.5835 0.5816
H41? H 0.8131 0.5118 0.5652
loop_
_geom_bond_atom_site_label_1
_geom_bond_atom_site_label_2
_geom_bond_site_symmetry_1
_geom_bond_site_symmetry_2
Cl1 C2 1_555 1_555
S1 O3 1_555 1_555
C1 H1 1_555 1_555
H2 C1 1_555 1_555
O1 C19 1_555 1_555
O2 C19 1_555 1_555
O4 S1 1_555 1_555
O5 N4 1_555 1_555
O6 N4 1_555 1_555
O7 N5 1_555 1_555
O8 N5 1_555 1_555
N1 S1 1_555 1_555
N2 N3 1_555 1_555
N3 C13 1_555 1_555
N4 C14 1_555 1_555
N5 C16 1_555 1_555
C2 C3 1_555 1_555
C3 H3 1_555 1_555
C4 C3 1_555 1_555
H4 C4 1_555 1_555
C5 C4 1_555 1_555
C6 C5 1_555 1_555
H5 C6 1_555 1_555
C7 C2 1_555 1_555
H6 C7 1_555 1_555
C8 C5 1_555 1_555
H7 C8 1_555 1_555
C9 C8 1_555 1_555
H8 C9 1_555 1_555
C10 N1 1_555 1_555
C11 C1 1_555 1_555
C12 N2 1_555 1_555
H9 C12 1_555 1_555
C13 C14 1_555 1_555
C14 C15 1_555 1_555
C15 H10 1_555 1_555
C16 C15 1_555 1_555
C17 C16 1_555 1_555
H11 C17 1_555 1_555
C18 C13 1_555 1_555
H12 C18 1_555 1_555
C19 C10 1_555 1_555
C20 O1 1_555 1_555
H13 C20 1_555 1_555
H14 C20 1_555 1_555
C21 C20 1_555 1_555
H15 C21 1_555 1_555
H16 C21 1_555 1_555
H17 C21 1_555 1_555
C22 S1 1_555 1_555
C23 C22 1_555 1_555
H18 C23 1_555 1_555
C24 C23 1_555 1_555
H19 C24 1_555 1_555
C25 C24 1_555 1_555
C26 C25 1_555 1_555
H20 C26 1_555 1_555
C27 C22 1_555 1_555
H21 C27 1_555 1_555
C28 C25 1_555 1_555
H22 C28 1_555 1_555
H23 C28 1_555 1_555
H24 C28 1_555 1_555
H25 N1 1_555 1_555
H26 N3 1_555 1_555
C29 H27 1_555 1_555
H28 C29 1_555 1_555
Cl2 C29 1_555 1_555
Cl3 C29 1_555 1_555
C6 C7 1_555 1_555
C9 C10 1_555 1_555
C10 C11 1_555 1_555
C11 C12 1_555 1_555
C17 C18 1_555 1_555
C26 C27 1_555 1_555

#END
