
#######################################################################
#
#                 Cambridge Crystallographic Data Centre
#                                CCDC 
#
#######################################################################
#
# If this CIF has been generated from an entry in the Cambridge 
# Structural Database, then it will include bibliographic, chemical, 
# crystal, experimental, refinement or atomic coordinate data resulting 
# from the CCDC's data processing and validation procedures.
#
#######################################################################

data_DIHTIA
_chemical_formula_moiety         'C38 H34 N10 O2,2(H2 O1)'
_chemical_name_systematic        
"4-((4-((2,2-bis(pyridin-2-ylmethyl)hydrazino)carbonyl)phenyl)diazenyl)-N',N'-bis(pyridin-2-ylmethyl)benzohydrazide dihydrate"
_symmetry_cell_setting           monoclinic
_symmetry_space_group_name_H-M   'P 21/n'
_symmetry_Int_Tables_number      14
_space_group_name_Hall           '-P 2yn'
loop_
_symmetry_equiv_pos_site_id
_symmetry_equiv_pos_as_xyz
1 x,y,z
2 1/2-x,1/2+y,1/2-z
3 -x,-y,-z
4 1/2+x,1/2-y,1/2+z
_cell_length_a                   6.414(2)
_cell_length_b                   32.891(12)
_cell_length_c                   8.516(3)
_cell_angle_alpha                90
_cell_angle_beta                 107.395(7)
_cell_angle_gamma                90
_cell_volume                     1714.4
_exptl_crystal_colour            red
_exptl_crystal_description       block
_cell_formula_units_Z            2
loop_
_atom_site_label
_atom_site_type_symbol
_atom_site_fract_x
_atom_site_fract_y
_atom_site_fract_z
O1 O 0.8677(3) 0.58352(5) 0.5035(2)
N1 N 0.7943(3) 0.62322(5) 0.7631(2)
N2 N 0.6377(3) 0.60087(5) 0.6452(2)
H1 H 0.5877 0.5820 0.6998
N3 N -0.0009(3) 0.49989(5) 0.0714(2)
N4 N 1.2062(3) 0.63535(6) 0.9979(2)
C1 C 0.5115(4) 0.55829(6) 0.4109(3)
C2 C 0.6902(4) 0.58171(6) 0.5258(3)
C3 C 0.1818(4) 0.51898(6) 0.1825(3)
C4 C 1.0386(4) 0.62208(6) 1.0432(3)
C5 C 0.3389(4) 0.54283(6) 0.4530(3)
H2 H 0.3323 0.5458 0.5612
C6 C 0.7111(4) 0.69227(7) 0.6553(3)
C7 C 0.1751(4) 0.52301(6) 0.3388(3)
H3 H 0.0571 0.5121 0.3690
C8 C 0.8629(4) 0.60080(6) 0.9161(3)
H4 H 0.9155 0.5739 0.8957
H5 H 0.7371 0.5968 0.9573
C9 C 0.6998(4) 0.66237(6) 0.7819(3)
H6 H 0.7765 0.6734 0.8907
H7 H 0.5464 0.6584 0.7768
C10 C 0.3579(4) 0.53337(7) 0.1390(3)
H8 H 0.3655 0.5301 0.0312
C11 C 0.5212(4) 0.55248(7) 0.2551(3)
H9 H 0.6438 0.5619 0.2270
C12 C 1.0307(4) 0.62692(8) 1.2000(3)
H10 H 0.9100 0.6174 1.2302
C13 C 1.3652(4) 0.65375(7) 1.1087(3)
H11 H 1.4842 0.6635 1.0766
N5 N 0.5601(4) 0.72006(7) 0.6244(3)
C14 C 1.3674(5) 0.65947(8) 1.2663(3)
H12 H 1.4847 0.6729 1.3416
C15 C 0.8730(5) 0.69203(8) 0.5834(4)
H13 H 0.9802 0.6716 0.6093
C16 C 1.1993(5) 0.64568(8) 1.3123(3)
H14 H 1.1972 0.6489 1.4215
C17 C 0.8796(6) 0.72162(9) 0.4731(4)
H15 H 0.9916 0.7220 0.4228
C18 C 0.7232(8) 0.75015(11) 0.4380(5)
H16 H 0.7200 0.7705 0.3600
C19 C 0.5694(8) 0.74876(11) 0.5181(5)
H17 H 0.4634 0.7694 0.4968
O1B O -0.8677(3) 0.41648(5) -0.5035(2)
N1B N -0.7943(3) 0.37678(5) -0.7631(2)
N2B N -0.6377(3) 0.39913(5) -0.6452(2)
H1B H -0.5877 0.4180 -0.6998
N3B N 0.0009(3) 0.50011(5) -0.0714(2)
N4B N -1.2062(3) 0.36465(6) -0.9979(2)
C1B C -0.5115(4) 0.44171(6) -0.4109(3)
C2B C -0.6902(4) 0.41829(6) -0.5258(3)
C3B C -0.1818(4) 0.48102(6) -0.1825(3)
C4B C -1.0386(4) 0.37792(6) -1.0432(3)
C5B C -0.3389(4) 0.45717(6) -0.4530(3)
H2B H -0.3323 0.4542 -0.5612
C6B C -0.7111(4) 0.30773(7) -0.6553(3)
C7B C -0.1751(4) 0.47699(6) -0.3388(3)
H3B H -0.0571 0.4879 -0.3690
C8B C -0.8629(4) 0.39920(6) -0.9161(3)
H4B H -0.9155 0.4261 -0.8957
H5B H -0.7371 0.4032 -0.9573
C9B C -0.6998(4) 0.33763(6) -0.7819(3)
H6B H -0.7765 0.3266 -0.8907
H7B H -0.5464 0.3416 -0.7768
C10B C -0.3579(4) 0.46663(7) -0.1390(3)
H8B H -0.3655 0.4699 -0.0312
C11B C -0.5212(4) 0.44752(7) -0.2551(3)
H9B H -0.6438 0.4381 -0.2270
C12B C -1.0307(4) 0.37308(8) -1.2000(3)
H10B H -0.9100 0.3826 -1.2302
C13B C -1.3652(4) 0.34625(7) -1.1087(3)
H11B H -1.4842 0.3365 -1.0766
N5B N -0.5601(4) 0.27994(7) -0.6244(3)
C14B C -1.3674(5) 0.34053(8) -1.2663(3)
H12B H -1.4847 0.3271 -1.3416
C15B C -0.8730(5) 0.30797(8) -0.5834(4)
H13B H -0.9802 0.3284 -0.6093
C16B C -1.1993(5) 0.35432(8) -1.3123(3)
H14B H -1.1972 0.3511 -1.4215
C17B C -0.8796(6) 0.27838(9) -0.4731(4)
H15B H -0.9916 0.2780 -0.4228
C18B C -0.7232(8) 0.24985(11) -0.4380(5)
H16B H -0.7200 0.2295 -0.3600
C19B C -0.5694(8) 0.25124(11) -0.5181(5)
H17B H -0.4634 0.2306 -0.4968
O2 O 0.2511(3) 0.60487(6) 0.7112(2)
H18 H 0.1142 0.6010 0.6528
H19 H 0.2429 0.6164 0.7982
loop_
_geom_bond_atom_site_label_1
_geom_bond_atom_site_label_2
_geom_bond_site_symmetry_1
_geom_bond_site_symmetry_2
O1 C2 1_555 1_555
N1 N2 1_555 1_555
N2 H1 1_555 1_555
N3 C3 1_555 1_555
N4 C4 1_555 1_555
C1 C2 1_555 1_555
C2 N2 1_555 1_555
C3 C7 1_555 1_555
C4 C8 1_555 1_555
C5 C1 1_555 1_555
H2 C5 1_555 1_555
C6 C9 1_555 1_555
C7 C5 1_555 1_555
H3 C7 1_555 1_555
C8 N1 1_555 1_555
H4 C8 1_555 1_555
H5 C8 1_555 1_555
C9 N1 1_555 1_555
H6 C9 1_555 1_555
H7 C9 1_555 1_555
C10 C3 1_555 1_555
H8 C10 1_555 1_555
C11 C1 1_555 1_555
H9 C11 1_555 1_555
C12 C4 1_555 1_555
H10 C12 1_555 1_555
C13 N4 1_555 1_555
H11 C13 1_555 1_555
N5 C6 1_555 1_555
C14 C13 1_555 1_555
H12 C14 1_555 1_555
C15 C6 1_555 1_555
H13 C15 1_555 1_555
C16 C12 1_555 1_555
H14 C16 1_555 1_555
C17 C15 1_555 1_555
H15 C17 1_555 1_555
C18 C17 1_555 1_555
H16 C18 1_555 1_555
C19 N5 1_555 1_555
H17 C19 1_555 1_555
O2 H18 1_555 1_555
H19 O2 1_555 1_555
O1B C2B 1_555 1_555
N1B N2B 1_555 1_555
N2B H1B 1_555 1_555
N3B N3 1_555 1_555
N4B C4B 1_555 1_555
C1B C2B 1_555 1_555
C2B N2B 1_555 1_555
C3B N3B 1_555 1_555
C4B C8B 1_555 1_555
C5B C1B 1_555 1_555
H2B C5B 1_555 1_555
C6B C9B 1_555 1_555
C7B C3B 1_555 1_555
H3B C7B 1_555 1_555
C8B N1B 1_555 1_555
H4B C8B 1_555 1_555
H5B C8B 1_555 1_555
C9B N1B 1_555 1_555
H6B C9B 1_555 1_555
H7B C9B 1_555 1_555
C10B C3B 1_555 1_555
H8B C10B 1_555 1_555
C11B C1B 1_555 1_555
H9B C11B 1_555 1_555
C12B C4B 1_555 1_555
H10B C12B 1_555 1_555
C13B N4B 1_555 1_555
H11B C13B 1_555 1_555
N5B C6B 1_555 1_555
C14B C13B 1_555 1_555
H12B C14B 1_555 1_555
C15B C6B 1_555 1_555
H13B C15B 1_555 1_555
C16B C12B 1_555 1_555
H14B C16B 1_555 1_555
C17B C15B 1_555 1_555
H15B C17B 1_555 1_555
C18B C17B 1_555 1_555
H16B C18B 1_555 1_555
C19B N5B 1_555 1_555
H17B C19B 1_555 1_555
C10 C11 1_555 1_555
C14 C16 1_555 1_555
C18 C19 1_555 1_555
C5B C7B 1_555 1_555
C10B C11B 1_555 1_555
C14B C16B 1_555 1_555
C18B C19B 1_555 1_555

#END
