
#######################################################################
#
#                 Cambridge Crystallographic Data Centre
#                                CCDC 
#
#######################################################################
#
# If this CIF has been generated from an entry in the Cambridge 
# Structural Database, then it will include bibliographic, chemical, 
# crystal, experimental, refinement or atomic coordinate data resulting 
# from the CCDC's data processing and validation procedures.
#
#######################################################################

data_DIHZUS
_chemical_formula_moiety         'C27 H18 F2 N2'
_chemical_name_systematic        
2-(3,5-difluorophenyl)-3-[4-(diphenylamino)phenyl]prop-2-enenitrile
_symmetry_cell_setting           triclinic
_symmetry_space_group_name_H-M   'P -1'
_symmetry_Int_Tables_number      2
_space_group_name_Hall           '-P 1'
loop_
_symmetry_equiv_pos_site_id
_symmetry_equiv_pos_as_xyz
1 x,y,z
2 -x,-y,-z
_cell_length_a                   9.8032(2)
_cell_length_b                   10.2942(3)
_cell_length_c                   32.2199(8)
_cell_angle_alpha                84.9870(10)
_cell_angle_beta                 82.0610(10)
_cell_angle_gamma                79.0350(10)
_cell_volume                     3155.3
_exptl_crystal_colour            orange
_exptl_crystal_description       block
_cell_formula_units_Z            6
loop_
_atom_site_label
_atom_site_type_symbol
_atom_site_fract_x
_atom_site_fract_y
_atom_site_fract_z
F1 F 0.3154(2) 1.12047(17) 0.14798(8)
F2 F 0.7530(2) 0.8520(2) 0.11878(6)
N1 N 0.44832(18) 0.22832(16) 0.38163(6)
C1 C 0.5659(2) 0.15377(18) 0.39993(8)
C2 C 0.4071(4) 1.0048(3) 0.15403(12)
C3 C 0.3622(3) 0.9126(2) 0.18390(9)
H1 H 0.2723 0.9285 0.1984
C4 C 0.4539(3) 0.7962(2) 0.19180(8)
C5 C 0.4132(3) 0.6970(2) 0.22516(7)
C6 C 0.5068(3) 0.6049(2) 0.24346(7)
H2 H 0.5997 0.6070 0.2330
C7 C 0.4883(2) 0.5028(2) 0.27675(7)
C8 C 0.3677(2) 0.4477(2) 0.28774(7)
H3 H 0.2931 0.4737 0.2721
C9 C 0.3565(2) 0.3561(2) 0.32104(7)
H4 H 0.2753 0.3203 0.3271
C10 C 0.4642(2) 0.31543(19) 0.34613(7)
C11 C 0.3132(2) 0.22109(18) 0.40348(7)
C12 C 0.2765(2) 0.09814(19) 0.41603(7)
H5 H 0.3397 0.0210 0.4095
C13 C 0.1483(3) 0.0902(2) 0.43785(8)
H6 H 0.1251 0.0075 0.4462
C14 C 0.0528(2) 0.2032(2) 0.44763(7)
H7 H -0.0344 0.1972 0.4624
C15 C 0.6222(4) 0.8727(3) 0.14043(10)
C16 C 0.5867(3) 0.7762(3) 0.16925(8)
H8 H 0.6501 0.6984 0.1738
C17 C 0.5360(5) 0.9880(3) 0.13153(11)
H9 H 0.5634 1.0514 0.1114
C18 C 0.2665(3) 0.7111(2) 0.23936(8)
N2 N 0.1490(3) 0.7283(2) 0.25075(8)
C19 C 0.5670(2) 0.1502(2) 0.44285(9)
H10 H 0.4923 0.1977 0.4595
C20 C 0.6783(3) 0.0766(2) 0.46107(9)
H11 H 0.6775 0.0740 0.4900
C21 C 0.7881(3) 0.0083(2) 0.43752(12)
H12 H 0.8632 -0.0404 0.4502
C22 C 0.7893(2) 0.0106(2) 0.39470(12)
H13 H 0.8656 -0.0363 0.3785
C23 C 0.6774(2) 0.08253(19) 0.37560(8)
H14 H 0.6776 0.0827 0.3467
C24 C 0.0881(2) 0.3249(2) 0.43528(7)
H15 H 0.0239 0.4016 0.4416
C25 C 0.2172(2) 0.33435(19) 0.41378(7)
H16 H 0.2403 0.4174 0.4061
C26 C 0.5866(2) 0.3662(2) 0.33432(8)
H17 H 0.6619 0.3392 0.3497
C27 C 0.5979(2) 0.4556(2) 0.30029(8)
H18 H 0.6821 0.4857 0.2928
F3 F 0.1238(2) 0.02607(16) 0.29882(6)
F4 F -0.10476(16) 0.41295(17) 0.36201(5)
N3 N 0.4363(2) 0.68059(17) 0.04375(6)
C28 C 0.1801(4) 0.9576(4) -0.02824(14)
H19 H 0.1240 1.0190 -0.0445
C29 C 0.2696(4) 0.9984(3) -0.00561(13)
H20 H 0.2744 1.0880 -0.0064
C30 C 0.3539(3) 0.9077(2) 0.01861(10)
H21 H 0.4147 0.9361 0.0341
C31 C 0.3467(3) 0.7751(2) 0.01951(8)
C32 C 0.3783(2) 0.61649(19) 0.07995(7)
C33 C 0.4515(3) 0.5031(2) 0.09920(8)
H22 H 0.5431 0.4692 0.0883
C34 C 0.3891(2) 0.4413(2) 0.13405(7)
H23 H 0.4398 0.3654 0.1463
C35 C 0.2524(2) 0.4875(2) 0.15198(7)
C36 C 0.1981(2) 0.4175(2) 0.18957(7)
H24 H 0.2579 0.3404 0.1974
C37 C 0.0778(2) 0.4424(2) 0.21540(7)
C38 C 0.0502(2) 0.3620(2) 0.25497(7)
C39 C 0.0977(3) 0.2258(2) 0.25800(9)
H25 H 0.1436 0.1813 0.2347
C40 C 0.0749(3) 0.1586(2) 0.29649(11)
C41 C -0.0375(2) 0.3503(3) 0.32735(9)
C42 C -0.0187(2) 0.4242(2) 0.29046(8)
H26 H -0.0517 0.5151 0.2891
C43 C 0.0086(3) 0.2172(3) 0.33165(9)
H27 H -0.0046 0.1692 0.3572
C44 C -0.0314(3) 0.5547(3) 0.20873(8)
N4 N -0.1217(3) 0.6414(3) 0.20578(8)
C45 C 0.2420(3) 0.6631(2) 0.09742(8)
H28 H 0.1913 0.7388 0.0851
C46 C 0.1804(3) 0.6008(2) 0.13221(8)
H29 H 0.0886 0.6346 0.1429
C47 C 0.1730(4) 0.8270(4) -0.02703(12)
H30 H 0.1115 0.7990 -0.0424
C48 C 0.2563(3) 0.7356(3) -0.00327(10)
H31 H 0.2509 0.6462 -0.0027
C49 C 0.5815(3) 0.6598(2) 0.02870(9)
C50 C 0.6227(3) 0.6514(2) -0.01426(10)
H32 H 0.5557 0.6568 -0.0325
C51 C 0.7619(5) 0.6353(3) -0.02975(13)
H33 H 0.7885 0.6293 -0.0585
C52 C 0.8612(4) 0.6280(3) -0.00391(18)
H34 H 0.9552 0.6180 -0.0149
C53 C 0.8226(4) 0.6353(3) 0.03853(15)
H35 H 0.8907 0.6293 0.0564
C54 C 0.6830(4) 0.6517(2) 0.05478(11)
H36 H 0.6574 0.6572 0.0836
F5 F 1.1240(2) 0.9722(2) 0.11434(7)
N5 N 0.4828(3) 1.2101(2) 0.22360(8)
C55 C 0.3222(2) 0.71310(17) 0.39303(7)
N6 N 0.46569(19) 0.72319(16) 0.38870(6)
C56 C 0.5340(2) 0.78066(18) 0.35252(7)
C57 C 0.0409(3) 0.6901(2) 0.40263(9)
H37 H -0.0532 0.6829 0.4058
C58 C 0.1050(3) 0.70455(19) 0.43663(8)
H38 H 0.0540 0.7060 0.4632
C59 C 0.2439(3) 0.71696(18) 0.43223(7)
H39 H 0.2851 0.7280 0.4557
C60 C 0.6769(2) 0.74016(19) 0.34094(7)
H40 H 0.7269 0.6720 0.3567
C61 C 0.7446(2) 0.79961(19) 0.30659(7)
H41 H 0.8403 0.7711 0.2998
C62 C 0.6757(2) 0.90112(19) 0.28146(7)
C63 C 0.7573(2) 0.9591(2) 0.24665(7)
H42 H 0.8492 0.9144 0.2415
C64 C 0.7260(2) 1.0652(2) 0.22022(7)
C65 C 0.8245(3) 1.1093(2) 0.18525(8)
C66 C 0.8115(3) 1.2413(2) 0.17143(9)
H43 H 0.7402 1.3042 0.1839
C67 C 0.9055(4) 1.2786(3) 0.13900(11)
C68 C 1.0100(4) 1.1914(4) 0.11927(11)
H44 H 1.0716 1.2185 0.0970
C69 C 1.0205(4) 1.0621(3) 0.13356(10)
F6 F 0.8908(2) 1.40822(19) 0.12581(7)
C70 C 0.9321(3) 1.0177(3) 0.16585(8)
H45 H 0.9436 0.9282 0.1747
C71 C 0.5902(3) 1.1440(2) 0.22313(8)
C72 C 0.1180(3) 0.6863(2) 0.36390(9)
H46 H 0.0758 0.6766 0.3405
C73 C 0.2570(3) 0.6966(2) 0.35901(8)
H47 H 0.3079 0.6924 0.3324
C74 C 0.5469(2) 0.66558(18) 0.42141(6)
C75 C 0.5670(2) 0.53144(19) 0.43175(7)
H48 H 0.5238 0.4775 0.4181
C76 C 0.6497(3) 0.4766(2) 0.46191(8)
H49 H 0.6623 0.3858 0.4687
C77 C 0.7144(2) 0.5555(2) 0.48216(7)
H50 H 0.7719 0.5183 0.5024
C78 C 0.6932(2) 0.6899(2) 0.47221(7)
H51 H 0.7359 0.7439 0.4860
C79 C 0.6098(2) 0.74508(19) 0.44207(7)
H52 H 0.5957 0.8361 0.4356
C80 C 0.4627(2) 0.8818(2) 0.32763(7)
H53 H 0.3671 0.9108 0.3346
C81 C 0.5321(3) 0.9387(2) 0.29303(7)
H54 H 0.4817 1.0048 0.2767
loop_
_geom_bond_atom_site_label_1
_geom_bond_atom_site_label_2
_geom_bond_site_symmetry_1
_geom_bond_site_symmetry_2
F1 C2 1_555 1_555
F2 C15 1_555 1_555
N1 C1 1_555 1_555
C1 C19 1_555 1_555
C2 C3 1_555 1_555
C3 H1 1_555 1_555
C4 C3 1_555 1_555
C5 C4 1_555 1_555
C6 C5 1_555 1_555
H2 C6 1_555 1_555
C7 C6 1_555 1_555
C8 C7 1_555 1_555
H3 C8 1_555 1_555
C9 C8 1_555 1_555
H4 C9 1_555 1_555
C10 N1 1_555 1_555
C11 N1 1_555 1_555
C12 C11 1_555 1_555
H5 C12 1_555 1_555
C13 C12 1_555 1_555
H6 C13 1_555 1_555
C14 C13 1_555 1_555
H7 C14 1_555 1_555
C15 C16 1_555 1_555
C16 C4 1_555 1_555
H8 C16 1_555 1_555
C17 C2 1_555 1_555
H9 C17 1_555 1_555
C18 C5 1_555 1_555
N2 C18 1_555 1_555
C19 H10 1_555 1_555
C20 C19 1_555 1_555
H11 C20 1_555 1_555
C21 C20 1_555 1_555
H12 C21 1_555 1_555
C22 C21 1_555 1_555
H13 C22 1_555 1_555
C23 C1 1_555 1_555
H14 C23 1_555 1_555
C24 C14 1_555 1_555
H15 C24 1_555 1_555
C25 C11 1_555 1_555
H16 C25 1_555 1_555
C26 C10 1_555 1_555
H17 C26 1_555 1_555
C27 C7 1_555 1_555
H18 C27 1_555 1_555
F3 C40 1_555 1_555
F4 C41 1_555 1_555
N3 C31 1_555 1_555
C28 H19 1_555 1_555
C29 C28 1_555 1_555
H20 C29 1_555 1_555
C30 C29 1_555 1_555
H21 C30 1_555 1_555
C31 C30 1_555 1_555
C32 N3 1_555 1_555
C33 C32 1_555 1_555
H22 C33 1_555 1_555
C34 C33 1_555 1_555
H23 C34 1_555 1_555
C35 C34 1_555 1_555
C36 C35 1_555 1_555
H24 C36 1_555 1_555
C37 C36 1_555 1_555
C38 C37 1_555 1_555
C39 C38 1_555 1_555
H25 C39 1_555 1_555
C40 C39 1_555 1_555
C41 C42 1_555 1_555
C42 C38 1_555 1_555
H26 C42 1_555 1_555
C43 C40 1_555 1_555
H27 C43 1_555 1_555
C44 C37 1_555 1_555
N4 C44 1_555 1_555
C45 C32 1_555 1_555
H28 C45 1_555 1_555
C46 C35 1_555 1_555
H29 C46 1_555 1_555
C47 C28 1_555 1_555
H30 C47 1_555 1_555
C48 C31 1_555 1_555
H31 C48 1_555 1_555
C49 N3 1_555 1_555
C50 C49 1_555 1_555
H32 C50 1_555 1_555
C51 C50 1_555 1_555
H33 C51 1_555 1_555
C52 C51 1_555 1_555
H34 C52 1_555 1_555
C53 C52 1_555 1_555
H35 C53 1_555 1_555
C54 C49 1_555 1_555
H36 C54 1_555 1_555
F5 C69 1_555 1_555
N5 C71 1_555 1_555
C55 N6 1_555 1_555
N6 C56 1_555 1_555
C56 C60 1_555 1_555
C57 H37 1_555 1_555
C58 C57 1_555 1_555
H38 C58 1_555 1_555
C59 C55 1_555 1_555
H39 C59 1_555 1_555
C60 H40 1_555 1_555
C61 C60 1_555 1_555
H41 C61 1_555 1_555
C62 C61 1_555 1_555
C63 C62 1_555 1_555
H42 C63 1_555 1_555
C64 C63 1_555 1_555
C65 C64 1_555 1_555
C66 C65 1_555 1_555
H43 C66 1_555 1_555
C67 C66 1_555 1_555
C68 C67 1_555 1_555
H44 C68 1_555 1_555
C69 C68 1_555 1_555
F6 C67 1_555 1_555
C70 C65 1_555 1_555
H45 C70 1_555 1_555
C71 C64 1_555 1_555
C72 C57 1_555 1_555
H46 C72 1_555 1_555
C73 C55 1_555 1_555
H47 C73 1_555 1_555
C74 N6 1_555 1_555
C75 C74 1_555 1_555
H48 C75 1_555 1_555
C76 C75 1_555 1_555
H49 C76 1_555 1_555
C77 C76 1_555 1_555
H50 C77 1_555 1_555
C78 C77 1_555 1_555
H51 C78 1_555 1_555
C79 C74 1_555 1_555
H52 C79 1_555 1_555
C80 C56 1_555 1_555
H53 C80 1_555 1_555
C81 C62 1_555 1_555
H54 C81 1_555 1_555
C9 C10 1_555 1_555
C15 C17 1_555 1_555
C22 C23 1_555 1_555
C24 C25 1_555 1_555
C26 C27 1_555 1_555
C41 C43 1_555 1_555
C45 C46 1_555 1_555
C47 C48 1_555 1_555
C53 C54 1_555 1_555
C58 C59 1_555 1_555
C69 C70 1_555 1_555
C72 C73 1_555 1_555
C78 C79 1_555 1_555
C80 C81 1_555 1_555

#END
