
#######################################################################
#
#                 Cambridge Crystallographic Data Centre
#                                CCDC 
#
#######################################################################
#
# If this CIF has been generated from an entry in the Cambridge 
# Structural Database, then it will include bibliographic, chemical, 
# crystal, experimental, refinement or atomic coordinate data resulting 
# from the CCDC's data processing and validation procedures.
#
#######################################################################

data_DIJJOY
_chemical_formula_moiety         'C27 H28 N4 O2'
_chemical_name_systematic        
2-[azido(phenyl)methyl]-N,N-dibenzyl-3-oxohexanamide
_symmetry_cell_setting           monoclinic
_symmetry_space_group_name_H-M   'C 2/c'
_symmetry_Int_Tables_number      15
_space_group_name_Hall           '-C 2yn'
loop_
_symmetry_equiv_pos_site_id
_symmetry_equiv_pos_as_xyz
1 x,y,z
2 -x,y,1/2-z
3 1/2+x,1/2+y,z
4 1/2-x,1/2+y,1/2-z
5 -x,-y,-z
6 x,-y,1/2+z
7 1/2-x,1/2-y,-z
8 1/2+x,1/2-y,1/2+z
_cell_length_a                   22.679(7)
_cell_length_b                   10.176(3)
_cell_length_c                   21.562(6)
_cell_angle_alpha                90
_cell_angle_beta                 94.879(4)
_cell_angle_gamma                90
_cell_volume                     4958.08
_exptl_crystal_colour            colorless
_exptl_crystal_description       block
_cell_formula_units_Z            8
loop_
_atom_site_label
_atom_site_type_symbol
_atom_site_fract_x
_atom_site_fract_y
_atom_site_fract_z
O1 O 0.02051(8) -0.13070(16) 0.05577(7)
O2 O 0.06319(7) 0.08806(17) 0.20232(6)
N1 N 0.10136(8) 0.15177(17) 0.11449(7)
N2 N -0.06828(11) 0.3827(2) 0.23182(13)
N3 N -0.05720(8) 0.3190(2) 0.19148(11)
N4 N -0.04287(9) 0.2609(2) 0.14559(9)
C1 C -0.23106(12) 0.0285(3) 0.08189(13)
H1 H -0.2703 0.0112 0.0683
C2 C -0.21030(12) -0.0001(3) 0.14162(13)
H2 H -0.2354 -0.0373 0.1687
C3 C -0.15223(11) 0.0261(2) 0.16192(11)
H3 H -0.1386 0.0068 0.2028
C4 C -0.11383(10) 0.0806(2) 0.12249(9)
C5 C -0.13517(11) 0.1087(2) 0.06174(10)
H4 H -0.1102 0.1449 0.0343
C6 C -0.19381(12) 0.0829(3) 0.04200(12)
H5 H -0.2080 0.1026 0.0013
C7 C -0.05113(9) 0.1142(2) 0.14747(9)
H6 H -0.0445 0.0838 0.1906
C8 C -0.00152(9) 0.0623(2) 0.11022(8)
H7 H -0.0047 0.1040 0.0691
C9 C 0.00107(10) -0.0870(2) 0.10197(9)
C10 C -0.01819(13) -0.1738(2) 0.15228(11)
H8 H -0.0611 -0.1724 0.1505
H9 H -0.0034 -0.1373 0.1921
C11 C 0.00201(15) -0.3166(3) 0.14951(13)
H10 H -0.0196 -0.3686 0.1777
H11 H -0.0076 -0.3499 0.1077
C12 C 0.06691(17) -0.3331(3) 0.16645(17)
H12 H 0.0886 -0.2901 0.1359
H13 H 0.0766 -0.4249 0.1677
H14 H 0.0772 -0.2948 0.2066
C13 C 0.05743(10) 0.1030(2) 0.14552(9)
C14 C 0.10441(10) 0.1500(2) 0.04685(9)
H15 H 0.0682 0.1118 0.0276
H16 H 0.1369 0.0939 0.0372
C15 C 0.15613(10) 0.1890(2) 0.15093(10)
H17 H 0.1462 0.2265 0.1901
H18 H 0.1757 0.2568 0.1286
C16 C 0.19904(10) 0.0767(2) 0.16461(9)
C17 C 0.18684(12) -0.0509(3) 0.14722(12)
H19 H 0.1504 -0.0712 0.1264
C18 C 0.22778(14) -0.1497(3) 0.16010(14)
H20 H 0.2189 -0.2355 0.1476
C19 C 0.28112(14) -0.1217(4) 0.19105(13)
H21 H 0.3087 -0.1883 0.1997
C20 C 0.29417(12) 0.0037(4) 0.20934(13)
H22 H 0.3305 0.0226 0.2307
C21 C 0.25353(11) 0.1028(3) 0.19622(11)
H23 H 0.2628 0.1883 0.2088
C22 C 0.11278(10) 0.2835(2) 0.01881(9)
C23 C 0.15331(12) 0.2986(3) -0.02468(11)
H24 H 0.1759 0.2270 -0.0352
C24 C 0.16088(15) 0.4183(3) -0.05294(13)
H25 H 0.1888 0.4270 -0.0819
C25 C 0.12787(15) 0.5230(3) -0.03873(14)
H26 H 0.1324 0.6031 -0.0585
C26 C 0.08785(14) 0.5106(3) 0.00473(15)
H27 H 0.0655 0.5828 0.0151
C27 C 0.08050(11) 0.3909(3) 0.03336(12)
H28 H 0.0532 0.3833 0.0630
loop_
_geom_bond_atom_site_label_1
_geom_bond_atom_site_label_2
_geom_bond_site_symmetry_1
_geom_bond_site_symmetry_2
O1 C9 1_555 1_555
O2 C13 1_555 1_555
N1 C13 1_555 1_555
N2 N3 1_555 1_555
N3 N4 1_555 1_555
N4 C7 1_555 1_555
C1 H1 1_555 1_555
C2 C1 1_555 1_555
H2 C2 1_555 1_555
C3 C2 1_555 1_555
H3 C3 1_555 1_555
C4 C3 1_555 1_555
C5 C4 1_555 1_555
H4 C5 1_555 1_555
C6 C1 1_555 1_555
H5 C6 1_555 1_555
C7 C4 1_555 1_555
H6 C7 1_555 1_555
C8 C7 1_555 1_555
H7 C8 1_555 1_555
C9 C8 1_555 1_555
C10 C9 1_555 1_555
H8 C10 1_555 1_555
H9 C10 1_555 1_555
C11 C10 1_555 1_555
H10 C11 1_555 1_555
H11 C11 1_555 1_555
C12 C11 1_555 1_555
H12 C12 1_555 1_555
H13 C12 1_555 1_555
H14 C12 1_555 1_555
C13 C8 1_555 1_555
C14 N1 1_555 1_555
H15 C14 1_555 1_555
H16 C14 1_555 1_555
C15 N1 1_555 1_555
H17 C15 1_555 1_555
H18 C15 1_555 1_555
C16 C15 1_555 1_555
C17 C16 1_555 1_555
H19 C17 1_555 1_555
C18 C17 1_555 1_555
H20 C18 1_555 1_555
C19 C18 1_555 1_555
H21 C19 1_555 1_555
C20 C19 1_555 1_555
H22 C20 1_555 1_555
C21 C16 1_555 1_555
H23 C21 1_555 1_555
C22 C14 1_555 1_555
C23 C22 1_555 1_555
H24 C23 1_555 1_555
C24 C23 1_555 1_555
H25 C24 1_555 1_555
C25 C24 1_555 1_555
H26 C25 1_555 1_555
C26 C25 1_555 1_555
H27 C26 1_555 1_555
C27 C22 1_555 1_555
H28 C27 1_555 1_555
C5 C6 1_555 1_555
C20 C21 1_555 1_555
C26 C27 1_555 1_555

#END
