
#######################################################################
#
#                 Cambridge Crystallographic Data Centre
#                                CCDC 
#
#######################################################################
#
# If this CIF has been generated from an entry in the Cambridge 
# Structural Database, then it will include bibliographic, chemical, 
# crystal, experimental, refinement or atomic coordinate data resulting 
# from the CCDC's data processing and validation procedures.
#
#######################################################################

data_DIJXIF
_chemical_formula_moiety         'C21 H21 O4 P1'
_chemical_name_systematic        
'Diethyl (1-(2-formylphenyl)-2-naphthyl)phosphonate'
_symmetry_cell_setting           monoclinic
_symmetry_space_group_name_H-M   'P 21'
_symmetry_Int_Tables_number      4
_space_group_name_Hall           'P 2yb'
loop_
_symmetry_equiv_pos_site_id
_symmetry_equiv_pos_as_xyz
1 x,y,z
2 -x,1/2+y,-z
_cell_length_a                   10.9251(3)
_cell_length_b                   7.6043(2)
_cell_length_c                   11.6088(3)
_cell_angle_alpha                90
_cell_angle_beta                 93.1670(10)
_cell_angle_gamma                90
_cell_volume                     962.96
_exptl_crystal_colour            colorless
_exptl_crystal_description       BLOCK
_cell_formula_units_Z            2
loop_
_atom_site_label
_atom_site_type_symbol
_atom_site_fract_x
_atom_site_fract_y
_atom_site_fract_z
P1 P 0.38217(2) 0.32512(5) 0.29125(2)
O1 O 0.46633(8) 0.41188(16) 0.37563(9)
O2 O 0.38071(8) 0.40039(14) 0.16496(8)
O3 O 0.41114(9) 0.12631(13) 0.27086(8)
O4 O 0.16532(12) 0.35949(16) -0.07324(8)
C1 C 0.22467(9) 0.35219(15) 0.32523(8)
C2 C 0.12630(10) 0.25971(14) 0.27507(9)
C3 C 0.00433(9) 0.30226(16) 0.30547(8)
C4 C -0.10004(11) 0.20916(19) 0.25980(10)
H1 H -0.0871(12) 0.1087(18) 0.2058(11)
C5 C -0.21446(12) 0.2566(2) 0.28928(12)
H2 H -0.2851(15) 0.193(2) 0.2595(14)
C6 C -0.23253(12) 0.3969(3) 0.36309(13)
H3 H -0.3116(16) 0.436(2) 0.3819(15)
C7 C -0.13499(13) 0.4880(2) 0.40999(12)
H4 H -0.1426(15) 0.585(2) 0.4543(14)
C8 C -0.01328(11) 0.44244(18) 0.38343(10)
C9 C 0.08941(13) 0.53194(19) 0.43312(11)
H5 H 0.0782(13) 0.619(2) 0.4860(12)
C10 C 0.20389(12) 0.48732(17) 0.40610(10)
H6 H 0.2782(14) 0.551(2) 0.4382(12)
C11 C 0.14240(10) 0.11252(15) 0.19109(9)
C12 C 0.14484(15) -0.05831(18) 0.23079(11)
H7 H 0.1378(13) -0.084(2) 0.3091(12)
C13 C 0.16116(15) -0.19834(18) 0.15649(13)
H8 H 0.1664(15) -0.329(2) 0.1882(14)
C14 C 0.17308(13) -0.1675(2) 0.04099(12)
H9 H 0.1812(16) -0.258(3) -0.0106(15)
C15 C 0.16822(13) -0.0002(2) -0.00080(11)
H10 H 0.1743(14) 0.017(2) -0.0852(13)
C16 C 0.15258(10) 0.14282(16) 0.07275(9)
C17 C 0.14525(11) 0.3227(2) 0.02474(10)
H11 H 0.1183(11) 0.4110(18) 0.0741(11)
C18 C 0.49501(15) 0.4432(3) 0.11378(14)
H12 H 0.5512 0.3446 0.1215
H13 H 0.5330 0.5440 0.1525
C19 C 0.46775(19) 0.4834(4) -0.00887(18)
H14 H 0.5424 0.5124 -0.0445
H15 H 0.4124 0.5813 -0.0156
H16 H 0.4307 0.3828 -0.0466
C20 C 0.44691(19) 0.0149(3) 0.36797(14)
H17 H 0.5024 0.0783 0.4212
H18 H 0.3750 -0.0177 0.4086
C21 C 0.5065(3) -0.1417(3) 0.32786(19)
H19 H 0.5769 -0.1088 0.2868
H20 H 0.4503 -0.2063 0.2774
H21 H 0.5319 -0.2138 0.3927
loop_
_geom_bond_atom_site_label_1
_geom_bond_atom_site_label_2
_geom_bond_site_symmetry_1
_geom_bond_site_symmetry_2
P1 O1 1_555 1_555
O2 P1 1_555 1_555
O3 P1 1_555 1_555
O4 C17 1_555 1_555
C1 P1 1_555 1_555
C2 C1 1_555 1_555
C3 C2 1_555 1_555
C4 C3 1_555 1_555
H1 C4 1_555 1_555
C5 C4 1_555 1_555
H2 C5 1_555 1_555
C6 C5 1_555 1_555
H3 C6 1_555 1_555
C7 C6 1_555 1_555
H4 C7 1_555 1_555
C8 C3 1_555 1_555
C9 C8 1_555 1_555
H5 C9 1_555 1_555
C10 C1 1_555 1_555
H6 C10 1_555 1_555
C11 C2 1_555 1_555
C12 C11 1_555 1_555
H7 C12 1_555 1_555
C13 C12 1_555 1_555
H8 C13 1_555 1_555
C14 C13 1_555 1_555
H9 C14 1_555 1_555
C15 C14 1_555 1_555
H10 C15 1_555 1_555
C16 C11 1_555 1_555
C17 C16 1_555 1_555
H11 C17 1_555 1_555
C18 O2 1_555 1_555
H12 C18 1_555 1_555
H13 C18 1_555 1_555
C19 C18 1_555 1_555
H14 C19 1_555 1_555
H15 C19 1_555 1_555
H16 C19 1_555 1_555
C20 O3 1_555 1_555
H17 C20 1_555 1_555
H18 C20 1_555 1_555
C21 C20 1_555 1_555
H19 C21 1_555 1_555
H20 C21 1_555 1_555
H21 C21 1_555 1_555
C7 C8 1_555 1_555
C9 C10 1_555 1_555
C15 C16 1_555 1_555

#END
