
#######################################################################
#
#                 Cambridge Crystallographic Data Centre
#                                CCDC 
#
#######################################################################
#
# If this CIF has been generated from an entry in the Cambridge 
# Structural Database, then it will include bibliographic, chemical, 
# crystal, experimental, refinement or atomic coordinate data resulting 
# from the CCDC's data processing and validation procedures.
#
#######################################################################

data_DIKTEX
_chemical_name_common            4-Chloro-4'-iodobenzalazine
_chemical_formula_moiety         'C14 H10 Cl1 I1 N2'
_chemical_name_systematic        
1-(4-Chlorobenzylidene)-2-(4-iodobenzylidene)diazane
_symmetry_cell_setting           monoclinic
_symmetry_space_group_name_H-M   'P c'
_symmetry_Int_Tables_number      7
_space_group_name_Hall           'P -2yc'
loop_
_symmetry_equiv_pos_site_id
_symmetry_equiv_pos_as_xyz
1 x,y,z
2 x,-y,1/2+z
_cell_length_a                   11.499(2)
_cell_length_b                   4.0006(7)
_cell_length_c                   14.717(3)
_cell_angle_alpha                90
_cell_angle_beta                 90.900(3)
_cell_angle_gamma                90
_cell_volume                     676.941
_exptl_crystal_colour            yellow
_exptl_crystal_description       plate
_cell_formula_units_Z            2
loop_
_atom_site_label
_atom_site_type_symbol
_atom_site_fract_x
_atom_site_fract_y
_atom_site_fract_z
C1 C 0.2105(10) 0.678(4) 0.2032(6)
C2 C 0.1493(7) 0.807(5) 0.2760(8)
H1 H 0.0687 0.8563 0.2700
C3 C 0.2079(8) 0.862(5) 0.3569(7)
H2 H 0.1678 0.9621 0.4060
C4 C 0.3247(8) 0.775(5) 0.3685(6)
C5 C 0.3808(9) 0.618(4) 0.2962(7)
H3 H 0.4582 0.5388 0.3044
C6 C 0.3250(10) 0.575(4) 0.2134(6)
H4 H 0.3646 0.4771 0.1639
C7 C 0.3862(12) 0.857(6) 0.4527(8)
H5 H 0.3520 1.0074 0.4945
N1 N 0.486(2) 0.728(8) 0.4713(15)
I1 I 0.1235(4) 0.5523(8) 0.0819(3)
C8 C 0.8013(12) 0.858(7) 0.8289(7)
C9 C 0.8598(12) 0.697(7) 0.7595(10)
H6 H 0.9377 0.6235 0.7682
C10 C 0.8026(12) 0.647(8) 0.6777(11)
H7 H 0.8418 0.5362 0.6300
C11 C 0.6883(11) 0.755(7) 0.6634(8)
C12 C 0.6333(13) 0.927(8) 0.7338(9)
H8 H 0.5558 1.0037 0.7252
C13 C 0.6904(16) 0.985(9) 0.8154(10)
H9 H 0.6540 1.1109 0.8617
C14 C 0.6301(17) 0.695(12) 0.5765(12)
H10 H 0.6710 0.5874 0.5291
N2 N 0.5236(17) 0.785(9) 0.5630(12)
Cl1 Cl 0.8762(8) 0.904(2) 0.9323(5)
C15? C 0.2116(14) 0.610(6) 0.1946(10)
C16? C 0.1596(12) 0.820(7) 0.2575(12)
H11? H 0.0858 0.9176 0.2449
C17? C 0.2173(12) 0.883(7) 0.3384(11)
H12? H 0.1825 1.0256 0.3818
C18? C 0.3259(12) 0.742(7) 0.3581(9)
C19? C 0.3787(12) 0.548(6) 0.2910(10)
H13? H 0.4532 0.4529 0.3026
C20? C 0.3237(14) 0.492(6) 0.2084(9)
H14? H 0.3621 0.3739 0.1616
C21? C 0.3816(18) 0.799(9) 0.4460(11)
H15? H 0.3431 0.9290 0.4904
N3? N 0.483(3) 0.675(12) 0.465(2)
Cl2? Cl 0.1289(14) 0.585(4) 0.0944(7)
C22? C 0.8080(17) 0.860(10) 0.8115(10)
C23? C 0.8602(16) 0.668(10) 0.7448(14)
H16? H 0.9355 0.5759 0.7546
C24? C 0.8003(16) 0.613(11) 0.6644(15)
H17? H 0.8369 0.4926 0.6171
C25? C 0.6872(14) 0.732(11) 0.6507(11)
C26? C 0.6333(17) 0.897(11) 0.7228(12)
H18? H 0.5545 0.9658 0.7164
C27? C 0.693(2) 0.962(12) 0.8027(15)
H19? H 0.6565 1.0758 0.8511
C28? C 0.628(3) 0.682(17) 0.5638(18)
H20? H 0.6642 0.5516 0.5182
N4? N 0.527(3) 0.812(13) 0.5477(18)
I2? I 0.8899(4) 0.9487(8) 0.9374(3)
loop_
_geom_bond_atom_site_label_1
_geom_bond_atom_site_label_2
_geom_bond_site_symmetry_1
_geom_bond_site_symmetry_2
C1 C2 1_555 1_555
C2 H1 1_555 1_555
C3 C2 1_555 1_555
H2 C3 1_555 1_555
C4 C3 1_555 1_555
C5 C4 1_555 1_555
H3 C5 1_555 1_555
C6 C1 1_555 1_555
H4 C6 1_555 1_555
C7 C4 1_555 1_555
H5 C7 1_555 1_555
N1 C7 1_555 1_555
I1 C1 1_555 1_555
C8 C9 1_555 1_555
C9 H6 1_555 1_555
C10 C9 1_555 1_555
H7 C10 1_555 1_555
C11 C10 1_555 1_555
C12 C11 1_555 1_555
H8 C12 1_555 1_555
C13 C8 1_555 1_555
H9 C13 1_555 1_555
C14 C11 1_555 1_555
H10 C14 1_555 1_555
N2 N1 1_555 1_555
Cl1 C8 1_555 1_555
C5 C6 1_555 1_555
C12 C13 1_555 1_555
C14 N2 1_555 1_555

#END
