
#######################################################################
#
#                 Cambridge Crystallographic Data Centre
#                                CCDC 
#
#######################################################################
#
# If this CIF has been generated from an entry in the Cambridge 
# Structural Database, then it will include bibliographic, chemical, 
# crystal, experimental, refinement or atomic coordinate data resulting 
# from the CCDC's data processing and validation procedures.
#
#######################################################################

data_DIKTAT02
_chemical_name_common            4,4'-Di-iodobenzalazine
_chemical_formula_moiety         'C14 H10 I2 N2'
_chemical_name_systematic        '4-Iodobenzaldehyde azine'
_symmetry_cell_setting           monoclinic
_symmetry_space_group_name_H-M   'P 21/c'
_symmetry_Int_Tables_number      14
_space_group_name_Hall           '-P 2ybc'
loop_
_symmetry_equiv_pos_site_id
_symmetry_equiv_pos_as_xyz
1 x,y,z
2 -x,1/2+y,1/2-z
3 -x,-y,-z
4 x,1/2-y,1/2+z
_cell_length_a                   7.2077(17)
_cell_length_b                   4.1543(10)
_cell_length_c                   23.317(6)
_cell_angle_alpha                90
_cell_angle_beta                 90.314(4)
_cell_angle_gamma                90
_cell_volume                     698.169
_exptl_crystal_colour            'pale yellow'
_exptl_crystal_description       needle
_cell_formula_units_Z            2
_exptl_crystal_recrystallization_method chloroform
loop_
_atom_site_label
_atom_site_type_symbol
_atom_site_fract_x
_atom_site_fract_y
_atom_site_fract_z
I1 I -0.36110(6) 0.86627(12) 0.308402(18)
C1 C -0.1234(9) 0.7210(17) 0.3534(3)
N1 N 0.4138(8) 0.5574(16) 0.4905(2)
C2 C 0.0112(9) 0.5424(17) 0.3250(3)
H1 H -0.0065 0.4805 0.2861
C3 C 0.1724(9) 0.4558(19) 0.3545(3)
H2 H 0.2649 0.3335 0.3355
C4 C 0.1998(9) 0.5447(18) 0.4110(3)
C5 C 0.0624(10) 0.7242(19) 0.4393(3)
H3 H 0.0803 0.7867 0.4781
C6 C -0.0992(10) 0.8102(18) 0.4105(3)
H4 H -0.1928 0.9294 0.4296
C7 C 0.3726(10) 0.4583(19) 0.4403(3)
H5 H 0.4579 0.3221 0.4211
I1B I 1.36110(6) 0.13373(12) 0.691598(18)
C1B C 1.1234(9) 0.2790(17) 0.6466(3)
N1B N 0.5862(8) 0.4426(16) 0.5095(2)
C2B C 0.9888(9) 0.4576(17) 0.6750(3)
H1B H 1.0065 0.5195 0.7139
C3B C 0.8276(9) 0.5442(19) 0.6455(3)
H2B H 0.7351 0.6665 0.6645
C4B C 0.8002(9) 0.4553(18) 0.5890(3)
C5B C 0.9376(10) 0.2758(19) 0.5607(3)
H3B H 0.9197 0.2133 0.5219
C6B C 1.0992(10) 0.1898(18) 0.5895(3)
H4B H 1.1928 0.0706 0.5704
C7B C 0.6274(10) 0.5417(19) 0.5597(3)
H5B H 0.5421 0.6779 0.5789
loop_
_geom_bond_atom_site_label_1
_geom_bond_atom_site_label_2
_geom_bond_site_symmetry_1
_geom_bond_site_symmetry_2
I1 C1 1_555 1_555
C1 C2 1_555 1_555
N1 C7 1_555 1_555
C2 H1 1_555 1_555
C3 C2 1_555 1_555
H2 C3 1_555 1_555
C4 C3 1_555 1_555
C5 C4 1_555 1_555
H3 C5 1_555 1_555
C6 C1 1_555 1_555
H4 C6 1_555 1_555
C7 C4 1_555 1_555
H5 C7 1_555 1_555
I1B C1B 1_555 1_555
C1B C2B 1_555 1_555
N1B N1 1_555 1_555
C2B H1B 1_555 1_555
C3B C2B 1_555 1_555
H2B C3B 1_555 1_555
C4B C3B 1_555 1_555
C5B C4B 1_555 1_555
H3B C5B 1_555 1_555
C6B C1B 1_555 1_555
H4B C6B 1_555 1_555
C7B N1B 1_555 1_555
H5B C7B 1_555 1_555
C5 C6 1_555 1_555
C4B C7B 1_555 1_555
C5B C6B 1_555 1_555

#END
