
#######################################################################
#
#                 Cambridge Crystallographic Data Centre
#                                CCDC 
#
#######################################################################
#
# If this CIF has been generated from an entry in the Cambridge 
# Structural Database, then it will include bibliographic, chemical, 
# crystal, experimental, refinement or atomic coordinate data resulting 
# from the CCDC's data processing and validation procedures.
#
#######################################################################

data_DILFAF
_chemical_compound_source        'liquor of Trichosanthin'
_chemical_name_common            'L-Citrulline dihydrate'
_chemical_formula_moiety         'C6 H13 N3 O3,2(H2 O1)'
_chemical_name_systematic        'N^5^-Aminocarbonyl-L-ornithine dihydrate'
_symmetry_cell_setting           orthorhombic
_symmetry_space_group_name_H-M   'P 21 21 21'
_symmetry_Int_Tables_number      19
_space_group_name_Hall           'P 2ac 2ab'
loop_
_symmetry_equiv_pos_site_id
_symmetry_equiv_pos_as_xyz
1 x,y,z
2 1/2+x,1/2-y,-z
3 -x,1/2+y,1/2-z
4 1/2-x,-y,1/2+z
_cell_length_a                   4.671(4)
_cell_length_b                   13.07(1)
_cell_length_c                   16.40(1)
_cell_angle_alpha                90
_cell_angle_beta                 90
_cell_angle_gamma                90
_cell_volume                     1001.22
_cell_formula_units_Z            4
loop_
_atom_site_label
_atom_site_type_symbol
_atom_site_fract_x
_atom_site_fract_y
_atom_site_fract_z
C1 C 0.1105(11) 0.1198(3) 0.4428(3)
C2 C 0.0403(12) 0.2851(3) 0.3772(3)
C3 C -0.0778(12) 0.2941(4) 0.2896(3)
C4 C 0.0633(12) 0.2183(3) 0.2339(3)
C5 C -0.0543(11) 0.2196(3) 0.1449(3)
C6 C 0.1245(12) 0.1467(4) 0.0947(3)
N1 N -0.0181(9) 0.0399(3) 0.4820(2)
N2 N -0.0613(9) 0.1939(3) 0.4172(2)
N3 N -0.0316(9) 0.3247(3) 0.1110(2)
O1 O 0.3706(8) 0.1184(2) 0.4298(2)
O2 O 0.3166(8) 0.1840(3) 0.0525(2)
O3 O 0.0661(8) 0.0538(2) 0.1028(2)
O4 O -0.5152(7) 0.4415(2) 0.1562(2)
O5 O -0.4191(9) -0.0100(3) 0.1856(2)
loop_
_geom_bond_atom_site_label_1
_geom_bond_atom_site_label_2
_geom_bond_site_symmetry_1
_geom_bond_site_symmetry_2
C1 N1 1_555 1_555
C2 C3 1_555 1_555
C3 C4 1_555 1_555
C4 C5 1_555 1_555
C5 C6 1_555 1_555
C6 O2 1_555 1_555
N2 C1 1_555 1_555
N3 C5 1_555 1_555
O1 C1 1_555 1_555
O3 C6 1_555 1_555
C2 N2 1_555 1_555

#END
