
#######################################################################
#
#                 Cambridge Crystallographic Data Centre
#                                CCDC 
#
#######################################################################
#
# If this CIF has been generated from an entry in the Cambridge 
# Structural Database, then it will include bibliographic, chemical, 
# crystal, experimental, refinement or atomic coordinate data resulting 
# from the CCDC's data processing and validation procedures.
#
#######################################################################

data_DILHAJ
_chemical_name_common            
'(mu!4$-eta$6!-eta$6!-26,28-bis(carboxymethoxy)-25,27-bis(carboxylatomethoxy)calix(4)arene)-bis(mu!2$-eta$6!-26,27,28-tris(carboxymethoxy)-25-carboxylatomethoxycalix(4)arene)-bis(mu!2$-methanol)-tetra-rubidium methanol solvate trihydrate'
_chemical_formula_moiety         'C110 H100 O38 Rb4,C1 H4 O1,3(H2 O1)'
_chemical_name_systematic        
"(\m~4~-\h^6^-\h^6^-2,2'-((26,28-bis(carboxymethoxy)pentacyclo[19.3.1.1^3,7^.1^9,13^.1^15,19^]octacosa-1(25),3(28),4,6,9(27),10,12,15(26),16,18,21,23-dodecaene-25,27-diyl)bis(oxy))diacetato)-bis(\m~2~-\h^6^-2,2'-((26,27,28-tris(carboxymethoxy)pentacyclo[19.3.1.1^3,7^.1^9,13^.1^15,19^]octacosa-1(25),3(28),4,6,9(27),10,12,15(26),16,18,21,23-dodecaene-25-yl))acetato)-bis(\m~2~-methanol)-tetra-rubidium methanol solvate trihydrate"
_symmetry_cell_setting           orthorhombic
_symmetry_space_group_name_H-M   'P b c n'
_symmetry_Int_Tables_number      60
_space_group_name_Hall           '-P 2n 2ab'
loop_
_symmetry_equiv_pos_site_id
_symmetry_equiv_pos_as_xyz
1 x,y,z
2 1/2-x,1/2-y,1/2+z
3 -x,y,1/2-z
4 1/2+x,1/2-y,-z
5 -x,-y,-z
6 1/2+x,1/2+y,1/2-z
7 x,-y,1/2+z
8 1/2-x,1/2+y,z
_cell_length_a                   30.8147(5)
_cell_length_b                   19.4575(3)
_cell_length_c                   17.4680(3)
_cell_angle_alpha                90
_cell_angle_beta                 90
_cell_angle_gamma                90
_cell_volume                     10473.4
_exptl_crystal_colour            colorless
_exptl_crystal_description       block
_cell_formula_units_Z            4
loop_
_atom_site_label
_atom_site_type_symbol
_atom_site_fract_x
_atom_site_fract_y
_atom_site_fract_z
O20 O 0.06986(17) 0.3301(2) 0.2133(3)
H51 H 0.0806 0.3553 0.2459
C57 C 0.0287(3) 0.3046(7) 0.2403(8)
H52 H 0.0316 0.2571 0.2540
H53 H 0.0074 0.3093 0.2005
H54 H 0.0198 0.3306 0.2843
O20B O -0.06986(17) 0.3301(2) 0.2867(3)
H51B H -0.0806 0.3553 0.2541
C57B C -0.0287(3) 0.3046(7) 0.2597(8)
H52B H -0.0316 0.2571 0.2460
H53B H -0.0074 0.3093 0.2995
H54B H -0.0198 0.3306 0.2157
O21 O 0.3270(4) 0.6205(8) 0.4656(6)
O22 O 0.3499(7) 0.5930(11) 0.4747(13)
Rb1 Rb 0.25790(2) 0.41470(3) 0.19515(3)
Rb2 Rb 0.40252(2) 0.36134(3) 0.17401(4)
O1 O 0.18160(11) 0.49923(17) 0.27409(19)
O2 O 0.26449(13) 0.5360(2) 0.2776(3)
O3 O 0.25255(16) 0.6173(2) 0.3640(2)
H1 H 0.2791 0.6082 0.3920
O4 O 0.13679(14) 0.2909(2) 0.3150(2)
O5 O 0.05886(19) 0.2156(3) 0.3117(3)
O6 O 0.08383(18) 0.1583(2) 0.4108(3)
O7 O 0.22396(12) 0.29226(19) 0.1134(2)
O8 O 0.31122(13) 0.3014(2) 0.1393(2)
O9 O 0.32340(13) 0.2129(2) 0.0606(2)
H2 H 0.3541 0.2248 0.0642
O10 O 0.10255(11) 0.42222(18) 0.0822(2)
O11 O 0.02368(13) 0.3643(2) 0.0812(3)
O12 O 0.00417(14) 0.4206(2) -0.0240(3)
H3 H -0.0244 0.3998 -0.0182
O13 O 0.43751(12) 0.45257(18) 0.3093(2)
O14 O 0.35137(13) 0.4427(2) 0.2724(3)
O15 O 0.34154(16) 0.5497(2) 0.3107(3)
H4 H 0.3126 0.5478 0.2884
O16 O 0.51618(13) 0.2776(2) 0.3696(2)
O17 O 0.59749(14) 0.2391(2) 0.4158(3)
O18 O 0.56765(12) 0.1471(2) 0.4695(2)
C1 C 0.13746(17) 0.4839(3) 0.2827(3)
C2 C 0.10830(17) 0.5104(3) 0.2296(3)
C3 C 0.0644(2) 0.4996(3) 0.2430(4)
H5 H 0.0440 0.5163 0.2085
C4 C 0.0510(2) 0.4640(3) 0.3078(4)
H6 H 0.0215 0.4589 0.3179
C5 C 0.0807(2) 0.4366(3) 0.3566(3)
H7 H 0.0711 0.4115 0.3988
C6 C 0.12483(19) 0.4451(3) 0.3451(3)
C7 C 0.1797(2) 0.3089(3) 0.3242(3)
C8 C 0.1907(2) 0.3667(3) 0.3680(3)
C9 C 0.2347(2) 0.3785(3) 0.3818(3)
H8 H 0.2428 0.4168 0.4104
C10 C 0.2666(2) 0.3350(3) 0.3544(3)
H9 H 0.2956 0.3420 0.3670
C11 C 0.2544(2) 0.2804(3) 0.3076(3)
H10 H 0.2759 0.2523 0.2870
C12 C 0.2115(2) 0.2665(3) 0.2905(3)
C13 C 0.18125(19) 0.2670(3) 0.1144(3)
C14 C 0.1692(2) 0.2225(3) 0.1736(3)
C15 C 0.1286(3) 0.1935(3) 0.1707(4)
H11 H 0.1204 0.1620 0.2080
C16 C 0.0995(2) 0.2104(3) 0.1128(4)
H12 H 0.0723 0.1899 0.1112
C17 C 0.1114(2) 0.2579(3) 0.0575(3)
H13 H 0.0915 0.2704 0.0200
C18 C 0.15283(18) 0.2874(3) 0.0573(3)
C19 C 0.14433(17) 0.4489(3) 0.0729(3)
C20 C 0.17467(17) 0.4110(3) 0.0312(3)
C21 C 0.21572(18) 0.4402(3) 0.0220(3)
H14 H 0.2368 0.4161 -0.0050
C22 C 0.22573(19) 0.5035(3) 0.0519(3)
H15 H 0.2527 0.5230 0.0424
C23 C 0.19585(19) 0.5377(3) 0.0955(3)
H16 H 0.2034 0.5797 0.1173
C24 C 0.15441(18) 0.5112(3) 0.1082(3)
C25 C 0.1572(2) 0.4143(3) 0.4012(3)
H17 H 0.1722 0.4517 0.4266
H18 H 0.1412 0.3893 0.4400
C26 C 0.1998(3) 0.2060(3) 0.2395(4)
H19 H 0.1865 0.1707 0.2710
H20 H 0.2263 0.1870 0.2185
C27 C 0.16402(18) 0.3409(3) -0.0017(3)
H21 H 0.1397 0.3456 -0.0367
H22 H 0.1887 0.3249 -0.0311
C28 C 0.12276(19) 0.5496(3) 0.1591(3)
H23 H 0.0973 0.5613 0.1291
H24 H 0.1362 0.5923 0.1753
C29 C 0.1924(2) 0.5623(3) 0.3124(3)
H25 H 0.1795 0.5621 0.3631
H26 H 0.1800 0.6005 0.2842
C30 C 0.2404(2) 0.5728(3) 0.3197(3)
C31 C 0.1204(3) 0.2558(5) 0.3791(6)
H27 H 0.1103 0.2899 0.4155
H28 H 0.1444 0.2317 0.4030
C32 C 0.0855(2) 0.2063(4) 0.3675(4)
C33 C 0.2523(2) 0.2493(4) 0.0694(4)
H29 H 0.2496 0.2606 0.0156
H30 H 0.2440 0.2016 0.0760
C34 C 0.2986(2) 0.2585(3) 0.0939(3)
C35 C 0.07310(18) 0.4441(3) 0.0248(4)
H31 H 0.0856 0.4361 -0.0254
H32 H 0.0677 0.4930 0.0301
C36 C 0.03124(19) 0.4055(3) 0.0319(4)
C37 C 0.47720(18) 0.4593(3) 0.3473(3)
C38 C 0.50751(19) 0.5077(3) 0.3218(3)
C39 C 0.54487(19) 0.5168(3) 0.3659(4)
H33 H 0.5654 0.5490 0.3508
C40 C 0.5517(2) 0.4792(4) 0.4306(4)
H34 H 0.5765 0.4871 0.4597
C41 C 0.5227(2) 0.4300(4) 0.4534(3)
H35 H 0.5283 0.4038 0.4968
C42 C 0.48450(19) 0.4189(3) 0.4114(3)
C43 C 0.4727(2) 0.2706(3) 0.3439(4)
C44 C 0.44131(19) 0.3110(3) 0.3787(3)
C45 C 0.3983(2) 0.2969(3) 0.3584(4)
H36 H 0.3761 0.3223 0.3806
C46 C 0.3881(2) 0.2461(4) 0.3061(4)
H37 H 0.3592 0.2368 0.2948
C47 C 0.4203(3) 0.2092(3) 0.2708(5)
H38 H 0.4131 0.1755 0.2352
C48 C 0.4640(2) 0.2222(3) 0.2881(4)
C49 C 0.5000 0.5497(4) 0.2500
H39 H 0.5250 0.5791 0.2419
C50 C 0.4514(2) 0.3649(4) 0.4358(3)
H40 H 0.4620 0.3426 0.4819
H41 H 0.4246 0.3882 0.4491
C51 C 0.5000 0.1804(4) 0.2500
H42 H 0.5130 0.1509 0.2884
C52 C 0.4078(2) 0.5036(4) 0.3376(4)
H43 H 0.4188 0.5490 0.3257
H44 H 0.4055 0.4996 0.3928
C53 C 0.3639(2) 0.4944(3) 0.3022(4)
C54 C 0.5226(3) 0.2418(4) 0.4397(5)
H45 H 0.4994 0.2087 0.4467
H46 H 0.5215 0.2741 0.4819
C55 C 0.5658(2) 0.2048(4) 0.4405(3)
O19 O 0.33180(16) 0.4648(3) 0.0962(4)
H47 H 0.3151 0.4506 0.0633
C56 C 0.3380(4) 0.5389(7) 0.0865(8)
H48 H 0.3211 0.5631 0.1239
H49 H 0.3290 0.5522 0.0361
H50 H 0.3682 0.5499 0.0933
O13B O 0.56249(12) 0.45257(18) 0.1907(2)
O14B O 0.64863(13) 0.4427(2) 0.2276(3)
O15B O 0.65846(16) 0.5497(2) 0.1893(3)
H4B H 0.6874 0.5478 0.2116
O16B O 0.48382(13) 0.2776(2) 0.1304(2)
O17B O 0.40251(14) 0.2391(2) 0.0842(3)
O18B O 0.43235(12) 0.1471(2) 0.0305(2)
C37B C 0.52280(18) 0.4593(3) 0.1527(3)
C38B C 0.49249(19) 0.5077(3) 0.1782(3)
C39B C 0.45513(19) 0.5168(3) 0.1341(4)
H33B H 0.4346 0.5490 0.1492
C40B C 0.4483(2) 0.4792(4) 0.0694(4)
H34B H 0.4235 0.4871 0.0403
C41B C 0.4773(2) 0.4300(4) 0.0466(3)
H35B H 0.4717 0.4038 0.0032
C42B C 0.51550(19) 0.4189(3) 0.0886(3)
C43B C 0.5273(2) 0.2706(3) 0.1561(4)
C44B C 0.55869(19) 0.3110(3) 0.1213(3)
C45B C 0.6017(2) 0.2969(3) 0.1416(4)
H36B H 0.6239 0.3223 0.1194
C46B C 0.6119(2) 0.2461(4) 0.1939(4)
H37B H 0.6408 0.2368 0.2052
C47B C 0.5797(3) 0.2092(3) 0.2292(5)
H38B H 0.5869 0.1755 0.2648
C48B C 0.5360(2) 0.2222(3) 0.2119(4)
H39B H 0.4750 0.5791 0.2581
C50B C 0.5486(2) 0.3649(4) 0.0642(3)
H40B H 0.5380 0.3426 0.0181
H41B H 0.5754 0.3882 0.0509
H42B H 0.4870 0.1509 0.2116
C52B C 0.5922(2) 0.5036(4) 0.1624(4)
H43B H 0.5812 0.5490 0.1743
H44B H 0.5945 0.4996 0.1072
C53B C 0.6361(2) 0.4944(3) 0.1978(4)
C54B C 0.4774(3) 0.2418(4) 0.0603(5)
H45B H 0.5006 0.2087 0.0533
H46B H 0.4785 0.2741 0.0181
C55B C 0.4342(2) 0.2048(4) 0.0595(3)
Rb1B Rb 0.74210(2) 0.41470(3) 0.30485(3)
Rb2B Rb 0.59748(2) 0.36134(3) 0.32599(4)
O1B O 0.81840(11) 0.49923(17) 0.22591(19)
O2B O 0.73551(13) 0.5360(2) 0.2224(3)
O3B O 0.74745(16) 0.6173(2) 0.1360(2)
H1B H 0.7209 0.6082 0.1080
O4B O 0.86321(14) 0.2909(2) 0.1850(2)
O5B O 0.94114(19) 0.2156(3) 0.1883(3)
O6B O 0.91617(18) 0.1583(2) 0.0892(3)
O7B O 0.77604(12) 0.29226(19) 0.3866(2)
O8B O 0.68878(13) 0.3014(2) 0.3607(2)
O9B O 0.67660(13) 0.2129(2) 0.4394(2)
H2B H 0.6459 0.2248 0.4358
O10B O 0.89745(11) 0.42222(18) 0.4178(2)
O11B O 0.97632(13) 0.3643(2) 0.4188(3)
O12B O 0.99583(14) 0.4206(2) 0.5240(3)
H3B H 1.0244 0.3998 0.5182
C1B C 0.86254(17) 0.4839(3) 0.2173(3)
C2B C 0.89170(17) 0.5104(3) 0.2704(3)
C3B C 0.9356(2) 0.4996(3) 0.2570(4)
H5B H 0.9560 0.5163 0.2915
C4B C 0.9490(2) 0.4640(3) 0.1922(4)
H6B H 0.9785 0.4589 0.1821
C5B C 0.9193(2) 0.4366(3) 0.1434(3)
H7B H 0.9289 0.4115 0.1012
C6B C 0.87517(19) 0.4451(3) 0.1549(3)
C7B C 0.8203(2) 0.3089(3) 0.1758(3)
C8B C 0.8093(2) 0.3667(3) 0.1320(3)
C9B C 0.7653(2) 0.3785(3) 0.1182(3)
H8B H 0.7572 0.4168 0.0896
C10B C 0.7334(2) 0.3350(3) 0.1456(3)
H9B H 0.7044 0.3420 0.1330
C11B C 0.7456(2) 0.2804(3) 0.1924(3)
H10B H 0.7241 0.2523 0.2130
C12B C 0.7885(2) 0.2665(3) 0.2095(3)
C13B C 0.81875(19) 0.2670(3) 0.3856(3)
C14B C 0.8308(2) 0.2225(3) 0.3264(3)
C15B C 0.8714(3) 0.1935(3) 0.3293(4)
H11B H 0.8796 0.1620 0.2920
C16B C 0.9005(2) 0.2104(3) 0.3872(4)
H12B H 0.9277 0.1899 0.3888
C17B C 0.8886(2) 0.2579(3) 0.4425(3)
H13B H 0.9085 0.2704 0.4800
C18B C 0.84717(18) 0.2874(3) 0.4427(3)
C19B C 0.85567(17) 0.4489(3) 0.4271(3)
C20B C 0.82533(17) 0.4110(3) 0.4688(3)
C21B C 0.78428(18) 0.4402(3) 0.4780(3)
H14B H 0.7632 0.4161 0.5050
C22B C 0.77427(19) 0.5035(3) 0.4481(3)
H15B H 0.7473 0.5230 0.4576
C23B C 0.80415(19) 0.5377(3) 0.4045(3)
H16B H 0.7966 0.5797 0.3827
C24B C 0.84559(18) 0.5112(3) 0.3918(3)
C25B C 0.8428(2) 0.4143(3) 0.0988(3)
H17B H 0.8278 0.4517 0.0734
H18B H 0.8588 0.3893 0.0600
C26B C 0.8002(3) 0.2060(3) 0.2605(4)
H19B H 0.8135 0.1707 0.2290
H20B H 0.7737 0.1870 0.2815
C27B C 0.83598(18) 0.3409(3) 0.5017(3)
H21B H 0.8603 0.3456 0.5367
H22B H 0.8113 0.3249 0.5311
C28B C 0.87724(19) 0.5496(3) 0.3409(3)
H23B H 0.9027 0.5613 0.3709
H24B H 0.8638 0.5923 0.3247
C29B C 0.8076(2) 0.5623(3) 0.1876(3)
H25B H 0.8205 0.5621 0.1369
H26B H 0.8200 0.6005 0.2158
C30B C 0.7596(2) 0.5728(3) 0.1803(3)
C31B C 0.8796(3) 0.2558(5) 0.1209(6)
H27B H 0.8897 0.2899 0.0845
H28B H 0.8556 0.2317 0.0970
C32B C 0.9145(2) 0.2063(4) 0.1325(4)
C33B C 0.7477(2) 0.2493(4) 0.4306(4)
H29B H 0.7504 0.2606 0.4844
H30B H 0.7560 0.2016 0.4240
C34B C 0.7014(2) 0.2585(3) 0.4061(3)
C35B C 0.92690(18) 0.4441(3) 0.4752(4)
H31B H 0.9144 0.4361 0.5254
H32B H 0.9323 0.4930 0.4699
C36B C 0.96876(19) 0.4055(3) 0.4681(4)
O19B O 0.66820(16) 0.4648(3) 0.4038(4)
H47B H 0.6849 0.4506 0.4367
C56B C 0.6620(4) 0.5389(7) 0.4135(8)
H48B H 0.6789 0.5631 0.3761
H49B H 0.6710 0.5522 0.4639
H50B H 0.6318 0.5499 0.4067
H55? H 0.0450 0.3487 0.1921
H56? H 0.0613 0.3023 0.2541
O23? O 0.06986(17) 0.3301(2) 0.2133(3)
loop_
_geom_bond_atom_site_label_1
_geom_bond_atom_site_label_2
_geom_bond_site_symmetry_1
_geom_bond_site_symmetry_2
Rb1 O1 1_555 1_555
Rb2 O8 1_555 1_555
O1 C1 1_555 1_555
O2 Rb1 1_555 1_555
O3 H1 1_555 1_555
O4 C7 1_555 1_555
O5 C32 1_555 1_555
O6 C32 1_555 1_555
O7 Rb1 1_555 1_555
O8 Rb1 1_555 1_555
O9 H2 1_555 1_555
O10 C19 1_555 1_555
O11 C36 1_555 1_555
O12 H3 1_555 1_555
O13 Rb2 1_555 1_555
O14 Rb1 1_555 1_555
O15 H4 1_555 1_555
O16 C43 1_555 1_555
O17 C55 1_555 1_555
O18 C55 1_555 1_555
C1 C2 1_555 1_555
C2 C3 1_555 1_555
C3 H5 1_555 1_555
C4 C3 1_555 1_555
H6 C4 1_555 1_555
C5 C4 1_555 1_555
H7 C5 1_555 1_555
C6 C1 1_555 1_555
C7 C8 1_555 1_555
C8 C9 1_555 1_555
C9 Rb1 1_555 1_555
H8 C9 1_555 1_555
C10 Rb1 1_555 1_555
H9 C10 1_555 1_555
C11 Rb1 1_555 1_555
H10 C11 1_555 1_555
C12 C7 1_555 1_555
C13 O7 1_555 1_555
C14 C13 1_555 1_555
C15 C14 1_555 1_555
H11 C15 1_555 1_555
C16 C15 1_555 1_555
H12 C16 1_555 1_555
C17 C16 1_555 1_555
H13 C17 1_555 1_555
C18 C13 1_555 1_555
C19 C20 1_555 1_555
C20 C21 1_555 1_555
C21 Rb1 1_555 1_555
H14 C21 1_555 1_555
C22 Rb1 1_555 1_555
H15 C22 1_555 1_555
C23 Rb1 1_555 1_555
H16 C23 1_555 1_555
C24 C19 1_555 1_555
C25 C6 1_555 1_555
H17 C25 1_555 1_555
H18 C25 1_555 1_555
C26 C12 1_555 1_555
H19 C26 1_555 1_555
H20 C26 1_555 1_555
C27 C18 1_555 1_555
H21 C27 1_555 1_555
H22 C27 1_555 1_555
C28 C2 1_555 1_555
H23 C28 1_555 1_555
H24 C28 1_555 1_555
C29 O1 1_555 1_555
H25 C29 1_555 1_555
H26 C29 1_555 1_555
C30 O2 1_555 1_555
C31 O4 1_555 1_555
H27 C31 1_555 1_555
H28 C31 1_555 1_555
C32 C31 1_555 1_555
C33 O7 1_555 1_555
H29 C33 1_555 1_555
H30 C33 1_555 1_555
C34 O8 1_555 1_555
C35 O10 1_555 1_555
H31 C35 1_555 1_555
H32 C35 1_555 1_555
C36 O12 1_555 1_555
C37 O13 1_555 1_555
C38 C37 1_555 1_555
C39 C38 1_555 1_555
H33 C39 1_555 1_555
C40 C39 1_555 1_555
H34 C40 1_555 1_555
C41 C40 1_555 1_555
H35 C41 1_555 1_555
C42 C37 1_555 1_555
C43 C44 1_555 1_555
C44 C45 1_555 1_555
C45 Rb2 1_555 1_555
H36 C45 1_555 1_555
C46 Rb2 1_555 1_555
H37 C46 1_555 1_555
C47 Rb2 1_555 1_555
H38 C47 1_555 1_555
C48 C43 1_555 1_555
C49 C38 1_555 1_555
H39 C49 1_555 1_555
C50 C42 1_555 1_555
H40 C50 1_555 1_555
H41 C50 1_555 1_555
C51 C48 1_555 1_555
H42 C51 1_555 1_555
C52 O13 1_555 1_555
H43 C52 1_555 1_555
H44 C52 1_555 1_555
C53 O14 1_555 1_555
C54 O16 1_555 1_555
H45 C54 1_555 1_555
H46 C54 1_555 1_555
C55 C54 1_555 1_555
O19 Rb1 1_555 1_555
H47 O19 1_555 1_555
C56 O19 1_555 1_555
H48 C56 1_555 1_555
H49 C56 1_555 1_555
H50 C56 1_555 1_555
O20 H51 1_555 1_555
C57 O20 1_555 1_555
H52 C57 1_555 1_555
H53 C57 1_555 1_555
H54 C57 1_555 1_555
O21 O22 1_555 1_555
O13B C37B 1_555 1_555
O14B C53B 1_555 1_555
O15B H4B 1_555 1_555
O16B Rb2 1_555 1_555
O17B Rb2 1_555 1_555
O18B C55B 1_555 1_555
C37B C38B 1_555 1_555
C38B C49 1_555 1_555
C39B Rb2 1_555 1_555
H33B C39B 1_555 1_555
C40B Rb2 1_555 1_555
H34B C40B 1_555 1_555
C41B Rb2 1_555 1_555
H35B C41B 1_555 1_555
C42B C37B 1_555 1_555
C43B O16B 1_555 1_555
C44B C43B 1_555 1_555
C45B C44B 1_555 1_555
H36B C45B 1_555 1_555
C46B C45B 1_555 1_555
H37B C46B 1_555 1_555
C47B C46B 1_555 1_555
H38B C47B 1_555 1_555
C48B C51 1_555 1_555
H39B C49 1_555 1_555
C50B C42B 1_555 1_555
H40B C50B 1_555 1_555
H41B C50B 1_555 1_555
H42B C51 1_555 1_555
C52B O13B 1_555 1_555
H43B C52B 1_555 1_555
H44B C52B 1_555 1_555
C53B O15B 1_555 1_555
C54B O16B 1_555 1_555
H45B C54B 1_555 1_555
H46B C54B 1_555 1_555
C55B O17B 1_555 1_555
Rb1B O14B 1_555 1_555
Rb2B O16 1_555 1_555
O1B Rb1B 1_555 1_555
O2B Rb1B 1_555 1_555
O3B H1B 1_555 1_555
O4B C7B 1_555 1_555
O5B C32B 1_555 1_555
O6B C32B 1_555 1_555
O7B Rb1B 1_555 1_555
O8B Rb1B 1_555 1_555
O9B H2B 1_555 1_555
O10B C19B 1_555 1_555
O11B C36B 1_555 1_555
O12B H3B 1_555 1_555
C1B O1B 1_555 1_555
C2B C1B 1_555 1_555
C3B C2B 1_555 1_555
H5B C3B 1_555 1_555
C4B C3B 1_555 1_555
H6B C4B 1_555 1_555
C5B C4B 1_555 1_555
H7B C5B 1_555 1_555
C6B C1B 1_555 1_555
C7B C8B 1_555 1_555
C8B C9B 1_555 1_555
C9B Rb1B 1_555 1_555
H8B C9B 1_555 1_555
C10B Rb1B 1_555 1_555
H9B C10B 1_555 1_555
C11B Rb1B 1_555 1_555
H10B C11B 1_555 1_555
C12B C7B 1_555 1_555
C13B O7B 1_555 1_555
C14B C13B 1_555 1_555
C15B C14B 1_555 1_555
H11B C15B 1_555 1_555
C16B C15B 1_555 1_555
H12B C16B 1_555 1_555
C17B C16B 1_555 1_555
H13B C17B 1_555 1_555
C18B C13B 1_555 1_555
C19B C20B 1_555 1_555
C20B C21B 1_555 1_555
C21B Rb1B 1_555 1_555
H14B C21B 1_555 1_555
C22B Rb1B 1_555 1_555
H15B C22B 1_555 1_555
C23B Rb1B 1_555 1_555
H16B C23B 1_555 1_555
C24B C19B 1_555 1_555
C25B C6B 1_555 1_555
H17B C25B 1_555 1_555
H18B C25B 1_555 1_555
C26B C12B 1_555 1_555
H19B C26B 1_555 1_555
H20B C26B 1_555 1_555
C27B C18B 1_555 1_555
H21B C27B 1_555 1_555
H22B C27B 1_555 1_555
C28B C2B 1_555 1_555
H23B C28B 1_555 1_555
H24B C28B 1_555 1_555
C29B O1B 1_555 1_555
H25B C29B 1_555 1_555
H26B C29B 1_555 1_555
C30B O2B 1_555 1_555
C31B O4B 1_555 1_555
H27B C31B 1_555 1_555
H28B C31B 1_555 1_555
C32B C31B 1_555 1_555
C33B O7B 1_555 1_555
H29B C33B 1_555 1_555
H30B C33B 1_555 1_555
C34B O8B 1_555 1_555
C35B O10B 1_555 1_555
H31B C35B 1_555 1_555
H32B C35B 1_555 1_555
C36B O12B 1_555 1_555
O19B Rb1B 1_555 1_555
H47B O19B 1_555 1_555
C56B O19B 1_555 1_555
H48B C56B 1_555 1_555
H49B C56B 1_555 1_555
H50B C56B 1_555 1_555
O20B H51B 1_555 1_555
C57B C57 1_555 1_555
H52B C57B 1_555 1_555
H53B C57B 1_555 1_555
H54B C57B 1_555 1_555
Rb2 O14 1_555 1_555
Rb2 O19 1_555 1_555
O3 C30 1_555 1_555
O9 C34 1_555 1_555
O15 C53 1_555 1_555
O17 Rb2B 1_555 1_555
C5 C6 1_555 1_555
C8 C25 1_555 1_555
C9 C10 1_555 1_555
C10 C11 1_555 1_555
C11 C12 1_555 1_555
C14 C26 1_555 1_555
C17 C18 1_555 1_555
C20 C27 1_555 1_555
C21 C22 1_555 1_555
C22 C23 1_555 1_555
C23 C24 1_555 1_555
C24 C28 1_555 1_555
C29 C30 1_555 1_555
C33 C34 1_555 1_555
C35 C36 1_555 1_555
C39 Rb2B 1_555 1_555
C40 Rb2B 1_555 1_555
C41 C42 1_555 1_555
C41 Rb2B 1_555 1_555
C44 C50 1_555 1_555
C45 C46 1_555 1_555
C46 C47 1_555 1_555
C47 C48 1_555 1_555
C52 C53 1_555 1_555
O13B Rb2B 1_555 1_555
O14B Rb2B 1_555 1_555
C38B C39B 1_555 1_555
C39B C40B 1_555 1_555
C40B C41B 1_555 1_555
C41B C42B 1_555 1_555
C43B C48B 1_555 1_555
C44B C50B 1_555 1_555
C45B Rb2B 1_555 1_555
C46B Rb2B 1_555 1_555
C47B C48B 1_555 1_555
C47B Rb2B 1_555 1_555
C52B C53B 1_555 1_555
C54B C55B 1_555 1_555
Rb2B O8B 1_555 1_555
Rb2B O19B 1_555 1_555
O3B C30B 1_555 1_555
O9B C34B 1_555 1_555
C5B C6B 1_555 1_555
C8B C25B 1_555 1_555
C9B C10B 1_555 1_555
C10B C11B 1_555 1_555
C11B C12B 1_555 1_555
C14B C26B 1_555 1_555
C17B C18B 1_555 1_555
C20B C27B 1_555 1_555
C21B C22B 1_555 1_555
C22B C23B 1_555 1_555
C23B C24B 1_555 1_555
C24B C28B 1_555 1_555
C29B C30B 1_555 1_555
C33B C34B 1_555 1_555
C35B C36B 1_555 1_555
O20B C57B 1_555 1_555

#END
