
#######################################################################
#
#                 Cambridge Crystallographic Data Centre
#                                CCDC 
#
#######################################################################
#
# If this CIF has been generated from an entry in the Cambridge 
# Structural Database, then it will include bibliographic, chemical, 
# crystal, experimental, refinement or atomic coordinate data resulting 
# from the CCDC's data processing and validation procedures.
#
#######################################################################

data_DILPAS
_chemical_formula_moiety         'C27 H32 N2 O4'
_chemical_name_systematic        
3-(2,3-dimethoxy-9H-[1,3]benzodioxolo[5,6-c]phenanthridin-12(13H)-yl)-N,N-diethylpropan-1-amine
_symmetry_cell_setting           monoclinic
_symmetry_space_group_name_H-M   'P 21/c'
_symmetry_Int_Tables_number      14
_space_group_name_Hall           '-P 2ybc'
loop_
_symmetry_equiv_pos_site_id
_symmetry_equiv_pos_as_xyz
1 x,y,z
2 -x,1/2+y,1/2-z
3 -x,-y,-z
4 x,1/2-y,1/2+z
_cell_length_a                   9.41991(12)
_cell_length_b                   10.11440(12)
_cell_length_c                   23.7285(4)
_cell_angle_alpha                90
_cell_angle_beta                 91.6653(13)
_cell_angle_gamma                90
_cell_volume                     2259.82
_exptl_crystal_colour            colorless
_exptl_crystal_description       block
_cell_formula_units_Z            4
loop_
_atom_site_label
_atom_site_type_symbol
_atom_site_fract_x
_atom_site_fract_y
_atom_site_fract_z
O1 O 0.74265(12) 0.18978(11) 0.52158(6)
O2 O 0.82331(12) -0.02096(11) 0.50167(6)
O3 O 0.07984(12) -0.36950(11) 0.15911(5)
O4 O -0.07017(12) -0.16529(11) 0.20085(6)
N1 N 0.51931(14) -0.21317(13) 0.33488(6)
N2 N 0.76174(14) -0.39295(13) 0.41175(7)
C1 C 0.34952(16) -0.03228(15) 0.31849(7)
C2 C 0.06838(16) -0.17596(15) 0.21905(8)
C3 C 0.70730(16) 0.00731(15) 0.46711(8)
C4 C 0.48091(16) 0.11621(15) 0.40672(8)
C5 C 0.46532(16) -0.08461(15) 0.34869(7)
C6 C 0.54728(17) 0.19113(15) 0.45092(8)
H1 H 0.514944 0.277351 0.459913
C7 C 0.13409(16) -0.09281(15) 0.25832(8)
H2 H 0.082892 -0.020904 0.273572
C8 C 0.14471(17) -0.28166(15) 0.19605(8)
C9 C 0.65808(17) 0.13527(16) 0.47972(8)
C10 C 0.30238(16) 0.09729(15) 0.33149(8)
H3 H 0.225394 0.134904 0.310290
C11 C 0.68980(17) -0.45546(16) 0.36282(8)
H4 H 0.721108 -0.548729 0.360792
H5 H 0.720879 -0.410579 0.328217
C12 C 0.28427(17) -0.30329(15) 0.21352(8)
H6 H 0.335495 -0.375074 0.198197
C13 C 0.50123(16) -0.23884(16) 0.27448(8)
H7 H 0.532037 -0.330403 0.266586
H8 H 0.563319 -0.178112 0.253665
C14 C 0.27588(16) -0.11456(15) 0.27559(7)
C15 C 0.36621(16) 0.16853(15) 0.37404(8)
H9 H 0.332858 0.255070 0.381849
C16 C 0.53199(16) -0.01369(15) 0.39388(7)
C17 C 0.35005(16) -0.22134(15) 0.25313(7)
C18 C 0.64943(16) -0.06795(15) 0.42534(8)
H10 H 0.685475 -0.153395 0.417287
C19 C 0.83276(17) 0.08486(16) 0.54180(8)
H11 H 0.801691 0.054076 0.579076
H12 H 0.932087 0.116222 0.545875
C20 C 0.73941(19) -0.47019(17) 0.46288(8)
H13 H 0.787029 -0.556879 0.459164
H14 H 0.636444 -0.486867 0.466245
C21 C 0.04245(19) -0.31386(18) 0.10515(8)
H15 H 0.014451 -0.384788 0.078974
H16 H 0.124306 -0.266484 0.090504
H17 H -0.036956 -0.252261 0.109062
C22 C 0.91426(18) -0.38026(17) 0.40092(8)
H18 H 0.950659 -0.466893 0.388359
H19 H 0.965306 -0.356944 0.436600
C23 C 0.46195(17) -0.31626(15) 0.37192(8)
H20 H 0.358000 -0.322327 0.365013
H21 H 0.478648 -0.289377 0.411679
C24 C -0.14950(17) -0.05671(16) 0.22213(9)
H22 H -0.245521 -0.057578 0.205087
H23 H -0.102273 0.026410 0.212721
H24 H -0.155138 -0.064499 0.263170
C25 C 0.52733(17) -0.45267(16) 0.36328(8)
H25 H 0.489977 -0.488971 0.327047
H26 H 0.495581 -0.511870 0.393658
C26 C 0.9468(2) -0.27660(18) 0.35665(9)
H27 H 0.905700 -0.304085 0.320087
H28 H 1.049894 -0.267292 0.353823
H29 H 0.905736 -0.191641 0.367536
C27 C 0.7949(2) -0.40347(19) 0.51641(9)
H30 H 0.898942 -0.403520 0.517082
H31 H 0.761214 -0.451651 0.549268
H32 H 0.760273 -0.312149 0.517436
loop_
_geom_bond_atom_site_label_1
_geom_bond_atom_site_label_2
_geom_bond_site_symmetry_1
_geom_bond_site_symmetry_2
O1 C9 1_555 1_555
O2 C3 1_555 1_555
O3 C8 1_555 1_555
O4 C2 1_555 1_555
N1 C5 1_555 1_555
N2 C11 1_555 1_555
C1 C5 1_555 1_555
C2 C7 1_555 1_555
C3 C9 1_555 1_555
C4 C6 1_555 1_555
C5 C16 1_555 1_555
C6 H1 1_555 1_555
C7 H2 1_555 1_555
C8 C2 1_555 1_555
C9 C6 1_555 1_555
C10 C1 1_555 1_555
H3 C10 1_555 1_555
C11 H4 1_555 1_555
H5 C11 1_555 1_555
C12 C8 1_555 1_555
H6 C12 1_555 1_555
C13 N1 1_555 1_555
H7 C13 1_555 1_555
H8 C13 1_555 1_555
C14 C1 1_555 1_555
C15 C4 1_555 1_555
H9 C15 1_555 1_555
C16 C4 1_555 1_555
C17 C12 1_555 1_555
C18 C3 1_555 1_555
H10 C18 1_555 1_555
C19 O1 1_555 1_555
H11 C19 1_555 1_555
H12 C19 1_555 1_555
C20 N2 1_555 1_555
H13 C20 1_555 1_555
H14 C20 1_555 1_555
C21 O3 1_555 1_555
H15 C21 1_555 1_555
H16 C21 1_555 1_555
H17 C21 1_555 1_555
C22 N2 1_555 1_555
H18 C22 1_555 1_555
H19 C22 1_555 1_555
C23 N1 1_555 1_555
H20 C23 1_555 1_555
H21 C23 1_555 1_555
C24 O4 1_555 1_555
H22 C24 1_555 1_555
H23 C24 1_555 1_555
H24 C24 1_555 1_555
C25 C11 1_555 1_555
H25 C25 1_555 1_555
H26 C25 1_555 1_555
C26 C22 1_555 1_555
H27 C26 1_555 1_555
H28 C26 1_555 1_555
H29 C26 1_555 1_555
C27 C20 1_555 1_555
H30 C27 1_555 1_555
H31 C27 1_555 1_555
H32 C27 1_555 1_555
O2 C19 1_555 1_555
C7 C14 1_555 1_555
C10 C15 1_555 1_555
C13 C17 1_555 1_555
C14 C17 1_555 1_555
C16 C18 1_555 1_555
C23 C25 1_555 1_555

#END
