
#######################################################################
#
#                 Cambridge Crystallographic Data Centre
#                                CCDC 
#
#######################################################################
#
# If this CIF has been generated from an entry in the Cambridge 
# Structural Database, then it will include bibliographic, chemical, 
# crystal, experimental, refinement or atomic coordinate data resulting 
# from the CCDC's data processing and validation procedures.
#
#######################################################################

data_DILSIC
_chemical_formula_moiety         'C27 H20 N2 O1'
_chemical_name_systematic        
1-(3-Phenyl-5-(pyren-1-yl)-4,5-dihydro-1H-pyrazol-1-yl)ethanone
_symmetry_cell_setting           monoclinic
_symmetry_space_group_name_H-M   'C 2/c'
_symmetry_Int_Tables_number      15
_space_group_name_Hall           '-C 2yn'
loop_
_symmetry_equiv_pos_site_id
_symmetry_equiv_pos_as_xyz
1 x,y,z
2 -x,y,1/2-z
3 1/2+x,1/2+y,z
4 1/2-x,1/2+y,1/2-z
5 -x,-y,-z
6 x,-y,1/2+z
7 1/2-x,1/2-y,-z
8 1/2+x,1/2-y,1/2+z
_cell_length_a                   30.305(6)
_cell_length_b                   8.0420(16)
_cell_length_c                   21.397(4)
_cell_angle_alpha                90
_cell_angle_beta                 129.08(3)
_cell_angle_gamma                90
_cell_volume                     4048.01
_cell_formula_units_Z            8
loop_
_atom_site_label
_atom_site_type_symbol
_atom_site_fract_x
_atom_site_fract_y
_atom_site_fract_z
O1 O 0.47026(9) 0.2666(3) 0.47053(12)
N1 N 0.44132(10) 0.1441(3) 0.35686(14)
C1 C 0.33568(14) 0.1481(4) 0.32452(17)
H1 H 0.3472 0.2340 0.3086
N2 N 0.43879(10) 0.1413(3) 0.28942(13)
C2 C 0.28686(14) 0.1672(5) 0.31598(18)
H2 H 0.2662 0.2654 0.2945
C3 C 0.26816(13) 0.0425(4) 0.33885(18)
C4 C 0.29912(12) -0.1093(4) 0.36889(15)
C5 C 0.21856(15) 0.0589(5) 0.3336(2)
H3 H 0.1979 0.1575 0.3143
C6 C 0.20180(16) -0.0637(6) 0.3559(2)
H4 H 0.1701 -0.0473 0.3529
C7 C 0.23028(14) -0.2185(5) 0.3839(2)
C8 C 0.27995(12) -0.2413(4) 0.39092(16)
C9 C 0.21220(16) -0.3486(6) 0.4056(2)
H5 H 0.1804 -0.3339 0.4025
C10 C 0.24026(19) -0.4982(6) 0.4317(2)
H6 H 0.2271 -0.5833 0.4456
C11 C 0.28739(16) -0.5235(4) 0.4374(2)
H7 H 0.3056 -0.6260 0.4544
C12 C 0.30823(14) -0.3961(4) 0.41790(18)
C13 C 0.35793(14) -0.4130(4) 0.42470(18)
H8 H 0.3773 -0.5139 0.4423
C14 C 0.37798(13) -0.2882(4) 0.40660(16)
H9 H 0.4111 -0.3044 0.4134
C15 C 0.34914(12) -0.1302(4) 0.37704(15)
C16 C 0.36803(12) 0.0034(4) 0.35642(15)
C17 C 0.42364(13) -0.0136(3) 0.37036(17)
H10 H 0.4535 -0.0521 0.4255
C18 C 0.42111(13) -0.1287(4) 0.31066(17)
H11 H 0.4520 -0.2087 0.3387
H12 H 0.3852 -0.1877 0.2767
C19 C 0.42708(11) -0.0097(4) 0.26222(16)
C20 C 0.42321(11) -0.0580(4) 0.19319(16)
C21 C 0.41829(14) -0.2231(4) 0.17249(19)
H13 H 0.4166 -0.3036 0.2021
C22 C 0.41583(16) -0.2708(5) 0.1085(2)
H14 H 0.4127 -0.3828 0.0955
C23 C 0.41792(16) -0.1537(6) 0.0642(2)
H15 H 0.4162 -0.1852 0.0209
C24 C 0.42261(14) 0.0124(5) 0.08452(19)
H16 H 0.4237 0.0927 0.0542
C25 C 0.42572(12) 0.0603(5) 0.14850(16)
H17 H 0.4295 0.1722 0.1620
C26 C 0.46446(13) 0.2741(4) 0.40838(18)
C27 C 0.48132(16) 0.4228(4) 0.3859(2)
H18 H 0.4972 0.5057 0.4273
H19 H 0.4485 0.4675 0.3359
H20 H 0.5091 0.3910 0.3801
loop_
_geom_bond_atom_site_label_1
_geom_bond_atom_site_label_2
_geom_bond_site_symmetry_1
_geom_bond_site_symmetry_2
O1 C26 1_555 1_555
N1 N2 1_555 1_555
C1 H1 1_555 1_555
N2 C19 1_555 1_555
C2 C1 1_555 1_555
H2 C2 1_555 1_555
C3 C2 1_555 1_555
C4 C3 1_555 1_555
C5 C3 1_555 1_555
H3 C5 1_555 1_555
C6 C5 1_555 1_555
H4 C6 1_555 1_555
C7 C6 1_555 1_555
C8 C4 1_555 1_555
C9 C7 1_555 1_555
H5 C9 1_555 1_555
C10 C9 1_555 1_555
H6 C10 1_555 1_555
C11 C10 1_555 1_555
H7 C11 1_555 1_555
C12 C8 1_555 1_555
C13 C12 1_555 1_555
H8 C13 1_555 1_555
C14 C13 1_555 1_555
H9 C14 1_555 1_555
C15 C4 1_555 1_555
C16 C1 1_555 1_555
C17 N1 1_555 1_555
H10 C17 1_555 1_555
C18 C17 1_555 1_555
H11 C18 1_555 1_555
H12 C18 1_555 1_555
C19 C18 1_555 1_555
C20 C19 1_555 1_555
C21 C20 1_555 1_555
H13 C21 1_555 1_555
C22 C21 1_555 1_555
H14 C22 1_555 1_555
C23 C22 1_555 1_555
H15 C23 1_555 1_555
C24 C23 1_555 1_555
H16 C24 1_555 1_555
C25 C20 1_555 1_555
H17 C25 1_555 1_555
C26 N1 1_555 1_555
C27 C26 1_555 1_555
H18 C27 1_555 1_555
H19 C27 1_555 1_555
H20 C27 1_555 1_555
C7 C8 1_555 1_555
C11 C12 1_555 1_555
C14 C15 1_555 1_555
C15 C16 1_555 1_555
C16 C17 1_555 1_555
C24 C25 1_555 1_555

#END
