
#######################################################################
#
#                 Cambridge Crystallographic Data Centre
#                                CCDC 
#
#######################################################################
#
# If this CIF has been generated from an entry in the Cambridge 
# Structural Database, then it will include bibliographic, chemical, 
# crystal, experimental, refinement or atomic coordinate data resulting 
# from the CCDC's data processing and validation procedures.
#
#######################################################################

data_DILVOM
_chemical_name_common            'pierisformoside F sesquihydrate'
_chemical_formula_moiety         'C26 H40 O8,1.5(H2 O1)'
_chemical_name_systematic        
'2-hydroxy-3,3,7-trimethyl-11-methylidene-7-{[3,4,5-trihydroxy-6-(hydroxymethyl)oxan-2-yl]oxy}dodecahydro-5a,8-methanocyclohepta[b]naphthalen-4(1H)-one sesquihydrate'
_symmetry_cell_setting           monoclinic
_symmetry_space_group_name_H-M   'P 21'
_symmetry_Int_Tables_number      4
_space_group_name_Hall           'P 2yb'
loop_
_symmetry_equiv_pos_site_id
_symmetry_equiv_pos_as_xyz
1 x,y,z
2 -x,1/2+y,-z
_cell_length_a                   14.587(7)
_cell_length_b                   6.027(5)
_cell_length_c                   15.222(8)
_cell_angle_alpha                90
_cell_angle_beta                 108.255(5)
_cell_angle_gamma                90
_cell_volume                     1270.9
_exptl_crystal_colour            colorless
_exptl_crystal_description       block
_cell_formula_units_Z            2
loop_
_atom_site_label
_atom_site_type_symbol
_atom_site_fract_x
_atom_site_fract_y
_atom_site_fract_z
C1 C 0.34409(11) 1.3652(3) 1.42393(11)
H1 H 0.3617 1.2214 1.4578
C2 C 0.33355(12) 1.5360(3) 1.49370(12)
H2 H 0.3960 1.5526 1.5434
H3 H 0.3165 1.6815 1.4627
C3 C 0.25615(12) 1.4676(3) 1.53588(12)
H4 H 0.2517 1.5834 1.5814
C4 C 0.15603(11) 1.4411(3) 1.46267(11)
C5 C 0.16367(11) 1.2900(3) 1.38495(11)
C6 C 0.24712(11) 1.3277(3) 1.34643(10)
H5 H 0.2326 1.4666 1.3086
C7 C 0.25647(10) 1.1406(3) 1.28210(10)
H6 H 0.1942 1.1220 1.2323
H7 H 0.2710 1.0001 1.3175
C8 C 0.33618(10) 1.1874(3) 1.23890(10)
C9 C 0.43363(10) 1.2316(3) 1.31607(10)
H8 H 0.4487 1.0937 1.3545
C10 C 0.42204(11) 1.4152(3) 1.37986(10)
C11 C 0.51605(11) 1.2603(3) 1.27345(11)
H9 H 0.5712 1.3336 1.3195
H10 H 0.5378 1.1116 1.2608
C12 C 0.48846(11) 1.3964(3) 1.18350(11)
H11 H 0.5357 1.3656 1.1504
H12 H 0.4928 1.5562 1.1993
C13 C 0.38611(12) 1.3462(3) 1.11828(11)
H13 H 0.3704 1.4419 1.0618
C14 C 0.31419(11) 1.3865(3) 1.17190(11)
H14 H 0.2466 1.3836 1.1304
H15 H 0.3267 1.5294 1.2057
C15 C 0.34887(11) 0.9943(3) 1.17671(10)
H16 H 0.2898 0.9020 1.1570
H17 H 0.4039 0.8992 1.2107
C16 C 0.36808(11) 1.1006(3) 1.09159(11)
C17 C 0.44550(12) 0.9885(4) 1.05931(12)
H18 H 0.4253 0.8367 1.0393
H19 H 0.5063 0.9845 1.1104
H20 H 0.4547 1.0721 1.0075
C18 C 0.11985(13) 1.6687(3) 1.41947(13)
H21 H 0.0522 1.6564 1.3811
H22 H 0.1590 1.7171 1.3811
H23 H 0.1254 1.7774 1.4687
C19 C 0.08298(13) 1.3480(3) 1.50649(13)
H24 H 0.0186 1.3466 1.4604
H25 H 0.0821 1.4414 1.5589
H26 H 0.1014 1.1965 1.5282
C20 C 0.47380(11) 1.6008(3) 1.39634(11)
H27 H 0.5218 1.6251 1.3673
H28 H 0.4628 1.7093 1.4372
O1 O 0.27784(8) 1.1078(2) 1.01413(8)
O2 O 0.10222(8) 1.1511(2) 1.35112(8)
O3 O 0.28811(10) 1.2647(3) 1.58427(9)
H29 H 0.2622 1.2492 1.6260
C21 C 0.23610(12) 0.9071(4) 0.97778(11)
H30 H 0.2623 0.7922 1.0244
C22 C 0.12763(12) 0.9231(3) 0.96272(11)
H31 H 0.1017 1.0631 0.9287
C23 C 0.07439(12) 0.7250(3) 0.90852(12)
H32 H 0.0932 0.5964 0.9496
C24 C 0.1015(7) 0.7077(15) 0.8167(7)
H33 H 0.0725 0.8350 0.7751
C25 C 0.2105(5) 0.7087(13) 0.8378(4)
H34 H 0.2381 0.5788 0.8783
C26 C 0.2411(3) 0.6959(10) 0.7533(3)
O4 O 0.11387(9) 0.9262(2) 1.05109(8)
H35 H 0.0902 1.0488 1.0590
O5 O -0.02711(8) 0.7485(2) 0.88832(9)
H36 H -0.0449 0.8698 0.8612
O6 O 0.0657(7) 0.5039(14) 0.7716(7)
H37 H 0.0087 0.5218 0.7369
O7 O 0.2486(4) 0.9118(10) 0.8879(4)
O8 O 0.2126(3) 0.8821(7) 0.7056(2)
H38 H 0.2170 0.9893 0.7399
O9 O 0.91993(9) 0.1577(2) 0.81830(8)
H39 H 0.9020 0.2327 0.8574
H40 H 0.9561 0.2447 0.7984
H41? H 0.2628 0.7899 1.0254
H42? H 0.0936 0.5938 0.9505
C27? C 0.0999(7) 0.6706(15) 0.8248(9)
H43? H 0.0815 0.7990 0.7811
C28? C 0.2103(5) 0.6392(10) 0.8520(4)
H44? H 0.2290 0.5189 0.8996
C29? C 0.2468(3) 0.5763(10) 0.7736(3)
O10? O 0.0542(8) 0.4764(15) 0.7776(9)
H45? H 0.0105 0.5131 0.7291
O11? O 0.2562(4) 0.8407(7) 0.8938(4)
O12? O 0.2185(2) 0.3522(7) 0.7385(2)
H46? H 0.1599 0.3321 0.7327
O13? O 0.1913(3) 1.1493(10) 0.7293(4)
loop_
_geom_bond_atom_site_label_1
_geom_bond_atom_site_label_2
_geom_bond_site_symmetry_1
_geom_bond_site_symmetry_2
C1 H1 1_555 1_555
C2 C1 1_555 1_555
H2 C2 1_555 1_555
H3 C2 1_555 1_555
C3 C2 1_555 1_555
H4 C3 1_555 1_555
C4 C3 1_555 1_555
C5 C4 1_555 1_555
C6 C1 1_555 1_555
H5 C6 1_555 1_555
C7 C6 1_555 1_555
H6 C7 1_555 1_555
H7 C7 1_555 1_555
C8 C7 1_555 1_555
C9 C8 1_555 1_555
H8 C9 1_555 1_555
C10 C1 1_555 1_555
C11 C9 1_555 1_555
H9 C11 1_555 1_555
H10 C11 1_555 1_555
C12 C11 1_555 1_555
H11 C12 1_555 1_555
H12 C12 1_555 1_555
C13 C12 1_555 1_555
H13 C13 1_555 1_555
C14 C8 1_555 1_555
H14 C14 1_555 1_555
H15 C14 1_555 1_555
C15 C8 1_555 1_555
H16 C15 1_555 1_555
H17 C15 1_555 1_555
C16 C13 1_555 1_555
C17 C16 1_555 1_555
H18 C17 1_555 1_555
H19 C17 1_555 1_555
H20 C17 1_555 1_555
C18 C4 1_555 1_555
H21 C18 1_555 1_555
H22 C18 1_555 1_555
H23 C18 1_555 1_555
C19 C4 1_555 1_555
H24 C19 1_555 1_555
H25 C19 1_555 1_555
H26 C19 1_555 1_555
C20 C10 1_555 1_555
H27 C20 1_555 1_555
H28 C20 1_555 1_555
O1 C16 1_555 1_555
O2 C5 1_555 1_555
O3 C3 1_555 1_555
H29 O3 1_555 1_555
C21 O1 1_555 1_555
H30 C21 1_555 1_555
C22 C21 1_555 1_555
H31 C22 1_555 1_555
C23 C22 1_555 1_555
H32 C23 1_555 1_555
C24 C23 1_555 1_555
H33 C24 1_555 1_555
C25 C24 1_555 1_555
H34 C25 1_555 1_555
C26 C25 1_555 1_555
O4 C22 1_555 1_555
H35 O4 1_555 1_555
O5 C23 1_555 1_555
H36 O5 1_555 1_555
O6 C24 1_555 1_555
H37 O6 1_555 1_555
O7 C21 1_555 1_555
O8 C26 1_555 1_555
H38 O8 1_555 1_555
O9 H39 1_555 1_555
H40 O9 1_555 1_555
C5 C6 1_555 1_555
C9 C10 1_555 1_555
C13 C14 1_555 1_555
C15 C16 1_555 1_555
C25 O7 1_555 1_555

#END
