
#######################################################################
#
#                 Cambridge Crystallographic Data Centre
#                                CCDC 
#
#######################################################################
#
# If this CIF has been generated from an entry in the Cambridge 
# Structural Database, then it will include bibliographic, chemical, 
# crystal, experimental, refinement or atomic coordinate data resulting 
# from the CCDC's data processing and validation procedures.
#
#######################################################################

data_DIMDOV
_chemical_formula_moiety         'C6 H8 N3 1+,I1 1-'
_chemical_name_systematic        
'1-(cyanomethyl)-3-methyl-1H-imidazol-3-ium iodide'
_symmetry_cell_setting           triclinic
_symmetry_space_group_name_H-M   'P -1'
_symmetry_Int_Tables_number      2
_space_group_name_Hall           '-P 1'
loop_
_symmetry_equiv_pos_site_id
_symmetry_equiv_pos_as_xyz
1 x,y,z
2 -x,-y,-z
_cell_length_a                   7.1247(4)
_cell_length_b                   8.1377(4)
_cell_length_c                   8.3935(6)
_cell_angle_alpha                66.814(4)
_cell_angle_beta                 72.991(5)
_cell_angle_gamma                82.447(5)
_cell_volume                     427.698
_exptl_crystal_colour            colorless
_exptl_crystal_description       prism
_cell_formula_units_Z            2
loop_
_atom_site_label
_atom_site_type_symbol
_atom_site_fract_x
_atom_site_fract_y
_atom_site_fract_z
I1 I 0.26222(4) 0.71792(3) 0.89481(3)
N1 N 0.2257(5) 0.3116(5) 0.4256(5)
N2 N 0.2763(6) 0.2989(5) 0.6724(5)
N3 N 0.2286(8) -0.0822(6) 0.3609(6)
C1 C 0.3065(7) 0.2259(6) 0.8548(6)
H1 H 0.325866 0.095930 0.893507
H2 H 0.190960 0.253728 0.938561
H3 H 0.422561 0.279634 0.853340
C2 C 0.2513(7) 0.2008(6) 0.5858(6)
H4 H 0.251607 0.073904 0.629851
C3 C 0.2671(6) 0.4784(6) 0.5653(6)
H5 H 0.280100 0.576762 0.595025
C4 C 0.2361(6) 0.4874(6) 0.4096(6)
H6 H 0.223892 0.592786 0.309709
C5 C 0.1924(7) 0.2634(6) 0.2855(6)
H7 H 0.287122 0.326496 0.169559
H8 H 0.058397 0.302491 0.272075
C6 C 0.2148(7) 0.0688(6) 0.3291(6)
loop_
_geom_bond_atom_site_label_1
_geom_bond_atom_site_label_2
_geom_bond_site_symmetry_1
_geom_bond_site_symmetry_2
N1 C2 1_555 1_555
N2 C1 1_555 1_555
N3 C6 1_555 1_555
C1 H1 1_555 1_555
H2 C1 1_555 1_555
H3 C1 1_555 1_555
C2 N2 1_555 1_555
H4 C2 1_555 1_555
C3 N2 1_555 1_555
H5 C3 1_555 1_555
C4 N1 1_555 1_555
H6 C4 1_555 1_555
C5 N1 1_555 1_555
H7 C5 1_555 1_555
H8 C5 1_555 1_555
C6 C5 1_555 1_555
C3 C4 1_555 1_555

#END
