
#######################################################################
#
#                 Cambridge Crystallographic Data Centre
#                                CCDC 
#
#######################################################################
#
# If this CIF has been generated from an entry in the Cambridge 
# Structural Database, then it will include bibliographic, chemical, 
# crystal, experimental, refinement or atomic coordinate data resulting 
# from the CCDC's data processing and validation procedures.
#
#######################################################################

data_DIMPHE12
_chemical_formula_moiety         'C8 H10 O1'
_chemical_name_systematic        2,3-Dimethylphenol
_symmetry_cell_setting           orthorhombic
_symmetry_space_group_name_H-M   'P 21 21 21'
_symmetry_Int_Tables_number      19
_space_group_name_Hall           'P 2n 2a'
loop_
_symmetry_equiv_pos_site_id
_symmetry_equiv_pos_as_xyz
1 x,y,z
2 1/2+x,-y,-z
3 -x,1/2+y,1/2-z
4 1/2-x,1/2-y,1/2+z
_cell_length_a                   4.81(4)
_cell_length_b                   5.72(4)
_cell_length_c                   23.93(6)
_cell_angle_alpha                90
_cell_angle_beta                 90
_cell_angle_gamma                90
_cell_volume                     658.391
_cell_formula_units_Z            4
loop_
_atom_site_label
_atom_site_type_symbol
_atom_site_fract_x
_atom_site_fract_y
_atom_site_fract_z
C1 C -0.03500 0.42000 0.42400
C2 C 0.15300 0.26500 0.40030
C3 C 0.20800 0.28200 0.34380
C4 C 0.07500 0.45000 0.31200
C5 C -0.11600 0.60200 0.33670
C6 C -0.17400 0.58700 0.39250
C7 C 0.28800 0.08200 0.43530
C8 C 0.41300 0.12100 0.31710
H1 H -0.20000 0.46000 0.48400
H2 H -0.29000 0.69000 0.40800
H3 H 0.47000 0.07000 0.43700
H4 H 0.22000 0.07000 0.46600
H5 H 0.24000 -0.09000 0.42500
H6 H 0.59000 0.15000 0.32800
H7 H 0.41000 0.16000 0.27800
H8 H 0.32000 -0.01000 0.31800
H9 H 0.13000 0.47000 0.27200
H10 H -0.24000 0.73000 0.31300
O1 O -0.08000 0.40600 0.48050
loop_
_geom_bond_atom_site_label_1
_geom_bond_atom_site_label_2
_geom_bond_site_symmetry_1
_geom_bond_site_symmetry_2
C1 C2 1_555 1_555
C2 C3 1_555 1_555
C3 C4 1_555 1_555
C4 C5 1_555 1_555
C5 C6 1_555 1_555
C6 C1 1_555 1_555
C7 C2 1_555 1_555
C8 C3 1_555 1_555
H1 O1 1_555 1_555
H2 C6 1_555 1_555
H3 C7 1_555 1_555
H4 C7 1_555 1_555
H5 C7 1_555 1_555
H6 C8 1_555 1_555
H7 C8 1_555 1_555
H8 C8 1_555 1_555
H9 C4 1_555 1_555
H10 C5 1_555 1_555
O1 C1 1_555 1_555

#END
