
#######################################################################
#
#                 Cambridge Crystallographic Data Centre
#                                CCDC 
#
#######################################################################
#
# If this CIF has been generated from an entry in the Cambridge 
# Structural Database, then it will include bibliographic, chemical, 
# crystal, experimental, refinement or atomic coordinate data resulting 
# from the CCDC's data processing and validation procedures.
#
#######################################################################

data_DIMVON
_chemical_formula_moiety         'C18 H24 N4 O1'
_chemical_name_systematic        
2-cyano-5,5-bis(dimethylamino)-N,N-dimethyl-3-phenylpenta-2,4-dienamide
_symmetry_cell_setting           triclinic
_symmetry_space_group_name_H-M   'P -1'
_symmetry_Int_Tables_number      2
_space_group_name_Hall           '-P 1'
loop_
_symmetry_equiv_pos_site_id
_symmetry_equiv_pos_as_xyz
1 x,y,z
2 -x,-y,-z
_cell_length_a                   10.0400(6)
_cell_length_b                   10.3977(7)
_cell_length_c                   10.6856(4)
_cell_angle_alpha                60.978(5)
_cell_angle_beta                 73.151(4)
_cell_angle_gamma                62.068(6)
_cell_volume                     858.964
_exptl_crystal_colour            yellow
_exptl_crystal_description       prism
_cell_formula_units_Z            2
loop_
_atom_site_label
_atom_site_type_symbol
_atom_site_fract_x
_atom_site_fract_y
_atom_site_fract_z
O1 O 0.18621(12) 0.25176(13) 0.17068(10)
N1 N 0.26267(14) 0.45520(14) 0.07419(11)
N2 N 0.50247(13) 0.32079(16) 0.33768(12)
N3 N -0.00349(12) 0.04782(13) 0.68357(10)
N4 N -0.21761(12) 0.26165(14) 0.57609(11)
C1 C 0.26977(18) 0.58860(17) 0.08007(15)
H1 H 0.2411 0.5815 0.1783
H2 H 0.1999 0.6893 0.0149
H3 H 0.3730 0.5849 0.0509
C2 C 0.2550(2) 0.4762(2) -0.06950(14)
H4 H 0.2926 0.3713 -0.0710
H5 H 0.3173 0.5345 -0.1392
H6 H 0.1498 0.5370 -0.0946
C3 C 0.23071(14) 0.33330(16) 0.18865(13)
C4 C 0.39194(15) 0.31007(16) 0.34017(12)
C5 C 0.25908(14) 0.29902(16) 0.33329(12)
C6 C 0.16514(14) 0.24931(15) 0.45767(12)
C7 C 0.21272(14) 0.20396(15) 0.59891(12)
C8 C 0.35214(15) 0.08540(17) 0.64719(13)
H7 H 0.4197 0.0299 0.5899
C9 C 0.39434(16) 0.04668(18) 0.77798(14)
H8 H 0.4896 -0.0355 0.8101
C10 C 0.29727(17) 0.12809(19) 0.86130(14)
H9 H 0.3261 0.1024 0.9504
C11 C 0.15820(17) 0.24685(18) 0.81478(14)
H10 H 0.0918 0.3028 0.8720
C12 C 0.11522(15) 0.28466(16) 0.68493(13)
H11 H 0.0191 0.3657 0.6541
C13 C 0.02455(14) 0.25671(16) 0.45234(13)
H12 H -0.0143 0.3123 0.3609
C14 C -0.06497(14) 0.18828(16) 0.57190(12)
C15 C 0.13492(16) -0.08227(17) 0.66744(15)
H13 H 0.1715 -0.0520 0.5657
H14 H 0.1145 -0.1783 0.7036
H15 H 0.2119 -0.1041 0.7222
C16 C -0.06843(17) 0.01417(19) 0.83107(13)
H16 H -0.1547 0.1102 0.8353
H17 H 0.0081 -0.0178 0.8916
H18 H -0.1025 -0.0726 0.8657
C17 C -0.31814(16) 0.17568(19) 0.64788(14)
H19 H -0.2580 0.0605 0.6800
H20 H -0.3890 0.2097 0.5808
H21 H -0.3747 0.1992 0.7310
C18 C -0.29193(16) 0.42995(18) 0.48381(16)
H22 H -0.2230 0.4837 0.4554
H23 H -0.3834 0.4798 0.5360
H24 H -0.3194 0.4396 0.3979
loop_
_geom_bond_atom_site_label_1
_geom_bond_atom_site_label_2
_geom_bond_site_symmetry_1
_geom_bond_site_symmetry_2
O1 C3 1_555 1_555
N1 C1 1_555 1_555
N2 C4 1_555 1_555
N3 C14 1_555 1_555
N4 C14 1_555 1_555
C1 H1 1_555 1_555
H2 C1 1_555 1_555
H3 C1 1_555 1_555
C2 N1 1_555 1_555
H4 C2 1_555 1_555
H5 C2 1_555 1_555
H6 C2 1_555 1_555
C3 N1 1_555 1_555
C4 C5 1_555 1_555
C5 C3 1_555 1_555
C6 C5 1_555 1_555
C7 C6 1_555 1_555
C8 C7 1_555 1_555
H7 C8 1_555 1_555
C9 C8 1_555 1_555
H8 C9 1_555 1_555
C10 C9 1_555 1_555
H9 C10 1_555 1_555
C11 C10 1_555 1_555
H10 C11 1_555 1_555
C12 C7 1_555 1_555
H11 C12 1_555 1_555
C13 C6 1_555 1_555
H12 C13 1_555 1_555
C14 C13 1_555 1_555
C15 N3 1_555 1_555
H13 C15 1_555 1_555
H14 C15 1_555 1_555
H15 C15 1_555 1_555
C16 N3 1_555 1_555
H16 C16 1_555 1_555
H17 C16 1_555 1_555
H18 C16 1_555 1_555
C17 N4 1_555 1_555
H19 C17 1_555 1_555
H20 C17 1_555 1_555
H21 C17 1_555 1_555
C18 N4 1_555 1_555
H22 C18 1_555 1_555
H23 C18 1_555 1_555
H24 C18 1_555 1_555
C11 C12 1_555 1_555

#END
