
#######################################################################
#
#                 Cambridge Crystallographic Data Centre
#                                CCDC 
#
#######################################################################
#
# If this CIF has been generated from an entry in the Cambridge 
# Structural Database, then it will include bibliographic, chemical, 
# crystal, experimental, refinement or atomic coordinate data resulting 
# from the CCDC's data processing and validation procedures.
#
#######################################################################

data_DINICA15
_chemical_name_common            'Dideuterodinicotinic Acid'
_chemical_formula_moiety         'C7 H3 D2 N1 O4'
_chemical_name_systematic        'Pyridine-3,5-bis(deuterocarboxylic acid)'
_symmetry_cell_setting           monoclinic
_symmetry_space_group_name_H-M   'P 21/c'
_symmetry_Int_Tables_number      14
_space_group_name_Hall           '-P 2ybc'
loop_
_symmetry_equiv_pos_site_id
_symmetry_equiv_pos_as_xyz
1 x,y,z
2 -x,1/2+y,1/2-z
3 -x,-y,-z
4 x,1/2-y,1/2+z
_cell_length_a                   9.7614(13)
_cell_length_b                   11.2243(17)
_cell_length_c                   6.6430(13)
_cell_angle_alpha                90
_cell_angle_beta                 108.304(10)
_cell_angle_gamma                90
_cell_volume                     691.013
_exptl_crystal_colour            'pale brown'
_exptl_crystal_description       plate
_cell_formula_units_Z            4
loop_
_atom_site_label
_atom_site_type_symbol
_atom_site_fract_x
_atom_site_fract_y
_atom_site_fract_z
C1 C -0.3163(2) -0.33893(17) 0.2298(4)
C2 C -0.3879(2) -0.44272(16) 0.2521(4)
C3 C -0.3179(2) -0.55204(16) 0.2625(4)
C4 C -0.1791(2) -0.55423(17) 0.2452(4)
C5 C -0.1149(2) -0.44649(17) 0.2235(4)
C6 C -0.5384(2) -0.43893(18) 0.2647(4)
C7 C -0.0964(2) -0.66798(17) 0.2550(4)
H1 H -0.3653(16) -0.2517(10) 0.227(3)
H2 H -0.3732(5) -0.6335(4) 0.2832(11)
H3 H -0.0081(14) -0.4433(12) 0.212(3)
D1 D -0.6857(3) -0.3225(3) 0.2687(7)
D2 D 0.0991(3) -0.7340(3) 0.2814(7)
N1 N -0.18269(16) -0.34204(13) 0.2142(3)
O1 O -0.5837(3) -0.3289(2) 0.2713(7)
O2 O -0.6091(3) -0.5270(2) 0.2646(5)
O3 O -0.1522(3) -0.7666(2) 0.2456(6)
O4 O 0.0372(3) -0.6504(2) 0.2729(6)
loop_
_geom_bond_atom_site_label_1
_geom_bond_atom_site_label_2
_geom_bond_site_symmetry_1
_geom_bond_site_symmetry_2
C1 C2 1_555 1_555
C2 C3 1_555 1_555
C3 C4 1_555 1_555
C4 C5 1_555 1_555
C5 H3 1_555 1_555
C6 C2 1_555 1_555
C7 C4 1_555 1_555
H1 C1 1_555 1_555
H2 C3 1_555 1_555
D1 O1 1_555 1_555
D2 O4 1_555 1_555
N1 C1 1_555 1_555
O1 C6 1_555 1_555
O2 C6 1_555 1_555
O3 C7 1_555 1_555
O4 C7 1_555 1_555
C5 N1 1_555 1_555

#END
