
#######################################################################
#
#                 Cambridge Crystallographic Data Centre
#                                CCDC 
#
#######################################################################
#
# If this CIF has been generated from an entry in the Cambridge 
# Structural Database, then it will include bibliographic, chemical, 
# crystal, experimental, refinement or atomic coordinate data resulting 
# from the CCDC's data processing and validation procedures.
#
#######################################################################

data_DIPFEQ
_chemical_name_common            
'bis(emodin) berberine chloride ethanol solvate'
_chemical_formula_moiety         
'C20 H18 N1 O4 1+,2(C15 H10 O5),C2 H6 O1,Cl1 1-'
_chemical_name_systematic        
'bis(1,3,8-trihydroxy-6-methylanthracene-9,10-dione) 9,10-dimethoxy-5,6-dihydro-2H-[1,3]dioxolo[4,5-g]isoquinolino[3,2-a]isoquinolin-7-ium chloride ethanol solvate'
_symmetry_cell_setting           monoclinic
_symmetry_space_group_name_H-M   'P 21/c'
_symmetry_Int_Tables_number      14
_space_group_name_Hall           '-P 2ybc'
loop_
_symmetry_equiv_pos_site_id
_symmetry_equiv_pos_as_xyz
1 x,y,z
2 -x,1/2+y,1/2-z
3 -x,-y,-z
4 x,1/2-y,1/2+z
_cell_length_a                   7.9754(2)
_cell_length_b                   31.2003(7)
_cell_length_c                   17.8186(4)
_cell_angle_alpha                90
_cell_angle_beta                 101.741(2)
_cell_angle_gamma                90
_cell_volume                     4341.12
_exptl_crystal_colour            yellow
_exptl_crystal_description       prism
_cell_formula_units_Z            4
loop_
_atom_site_label
_atom_site_type_symbol
_atom_site_fract_x
_atom_site_fract_y
_atom_site_fract_z
Cl1 Cl 0.21954(10) 0.38879(2) 0.30246(4)
O1 O 0.4616(2) 0.16205(6) 0.15745(10)
O2 O 0.1654(2) 0.14530(6) 0.40323(10)
O3 O 0.2188(2) 0.06430(7) 0.40608(11)
O4 O 0.1058(2) 0.22589(7) 0.40260(10)
O5 O 0.3113(2) 0.31077(6) 0.21932(11)
C1 C 0.4873(4) 0.00025(10) 0.2113(2)
H1 H 0.520121 -0.022223 0.249932
H2 H 0.586499 0.008057 0.189578
H3 H 0.395201 -0.010324 0.170471
C2 C 0.4262(3) 0.03880(9) 0.24793(16)
C3 C 0.3524(3) 0.03529(9) 0.31210(16)
H4 H 0.345305 0.007885 0.334477
C4 C 0.4381(3) 0.07981(9) 0.21658(15)
H5 H 0.489302 0.082973 0.173184
C5 C 0.2891(3) 0.07072(9) 0.34417(14)
C6 C 0.3768(3) 0.11540(8) 0.24786(14)
C7 C 0.2997(3) 0.11186(8) 0.31243(13)
C8 C 0.3938(3) 0.15814(8) 0.21280(13)
C9 C 0.2325(3) 0.14939(9) 0.34523(13)
C10 C 0.3249(3) 0.19612(8) 0.24778(13)
C11 C 0.2459(3) 0.19100(9) 0.31190(13)
C12 C 0.1850(3) 0.22832(9) 0.34235(13)
C13 C 0.3428(3) 0.23607(8) 0.21758(13)
H6 H 0.394435 0.238914 0.174270
C14 C 0.2850(3) 0.27259(8) 0.25057(14)
C15 C 0.2043(3) 0.26875(9) 0.31252(13)
H7 H 0.162991 0.293448 0.334148
H8 H 0.190(5) 0.0915(5) 0.405(2)
H9 H 0.108(3) 0.1962(10) 0.4129(16)
H10 H 0.279(5) 0.3323(13) 0.246(2)
O6 O 0.7866(2) 0.15712(6) 0.33244(10)
O7 O 0.4577(2) 0.13665(6) 0.56608(9)
O8 O 0.5316(2) 0.05666(6) 0.57461(10)
O9 O 0.3952(2) 0.21777(6) 0.56569(10)
O10 O 0.6601(2) 0.30519(6) 0.40597(11)
C16 C 0.8562(4) -0.00444(9) 0.39790(16)
H11 H 0.862077 -0.028322 0.434051
H12 H 0.972094 0.003013 0.391809
H13 H 0.787072 -0.012866 0.348141
C17 C 0.7756(3) 0.03374(8) 0.42812(14)
C18 C 0.6910(3) 0.02911(8) 0.48840(14)
H14 H 0.685519 0.001678 0.510917
C19 C 0.7846(3) 0.07462(8) 0.39583(13)
H15 H 0.841888 0.078199 0.354445
C20 C 0.7107(3) 0.10954(8) 0.42386(13)
C21 C 0.6221(3) 0.10502(8) 0.48462(13)
C22 C 0.6139(3) 0.06408(8) 0.51644(13)
C23 C 0.5422(3) 0.14191(8) 0.51396(12)
C24 C 0.7264(3) 0.15244(8) 0.38984(13)
C25 C 0.5632(3) 0.18396(8) 0.48394(12)
C26 C 0.6617(3) 0.19025(8) 0.42698(12)
C27 C 0.4940(3) 0.22071(8) 0.51314(13)
C28 C 0.5255(3) 0.26141(8) 0.48797(13)
H16 H 0.478772 0.285774 0.508267
C29 C 0.6950(3) 0.23059(8) 0.40309(13)
H17 H 0.765174 0.234161 0.366364
C30 C 0.6255(3) 0.26664(8) 0.43294(14)
H18 H 0.491(4) 0.0809(12) 0.5838(19)
H19 H 0.401(4) 0.1890(12) 0.5826(19)
H20 H 0.599(4) 0.3256(8) 0.4217(19)
O11 O 0.9836(2) 0.16355(5) 0.56468(9)
O12 O 0.8138(2) 0.12089(6) 0.66766(10)
O13 O 0.9838(3) 0.49741(7) 0.60678(14)
O14 O 0.9083(3) 0.46647(6) 0.71311(12)
N1 N 1.0153(2) 0.29366(7) 0.56632(11)
C31 C 0.7503(4) 0.10033(9) 0.72829(16)
H21 H 0.746690 0.069265 0.720039
H22 H 0.826075 0.106852 0.777514
H23 H 0.634686 0.110843 0.728728
C32 C 1.0620(3) 0.12182(8) 0.58158(14)
H24 H 1.106593 0.111738 0.537368
H25 H 1.156040 0.123996 0.626347
H26 H 0.976226 0.101513 0.592441
C33 C 0.9127(3) 0.18383(8) 0.61814(13)
C34 C 0.8274(3) 0.16432(8) 0.66987(13)
C35 C 0.7505(3) 0.18970(9) 0.71925(14)
H27 H 0.695439 0.175996 0.755275
C36 C 0.7533(3) 0.23350(9) 0.71649(13)
H28 H 0.697339 0.249745 0.749239
C37 C 0.8384(3) 0.25453(8) 0.66558(13)
C38 C 0.9195(3) 0.22937(8) 0.61651(12)
C39 C 1.0065(3) 0.25121(8) 0.56730(13)
H29 H 1.060765 0.235162 0.533671
C40 C 0.8492(3) 0.29928(8) 0.66156(13)
H30 H 0.792480 0.316227 0.693066
C41 C 0.9386(3) 0.31942(8) 0.61379(13)
C42 C 1.1207(3) 0.31472(8) 0.51661(14)
H31 H 1.135132 0.294910 0.474994
H32 H 1.235584 0.321479 0.547329
C43 C 1.0348(3) 0.35558(9) 0.48234(14)
H33 H 1.108400 0.370149 0.451696
H34 H 0.924172 0.348646 0.447958
C44 C 1.0047(3) 0.38483(9) 0.54590(15)
C45 C 0.9596(3) 0.36615(8) 0.61036(14)
C46 C 0.9258(3) 0.39174(8) 0.67112(14)
H35 H 0.895123 0.379386 0.715165
C47 C 0.9395(3) 0.43487(9) 0.66340(15)
C48 C 1.0176(3) 0.42953(9) 0.53981(17)
H36 H 1.048238 0.442608 0.496357
C49 C 0.9839(3) 0.45342(9) 0.59977(17)
C50 C 0.9663(4) 0.50528(9) 0.68431(19)
H37 H 1.077864 0.513944 0.716102
H38 H 0.882730 0.528579 0.685602
O15 O 0.4667(3) 0.36488(8) 0.44597(13)
C51 C 0.5280(7) 0.39754(12) 0.4933(3)
H39 H 0.653708 0.396067 0.498041
H40 H 0.506545 0.388636 0.543868
C52 C 0.4917(12) 0.44051(17) 0.4892(4)
H41 H 0.554149 0.454273 0.453746
H42 H 0.526647 0.453350 0.540227
H43 H 0.368386 0.444650 0.470819
H44 H 0.389877 0.377488 0.405200
loop_
_geom_bond_atom_site_label_1
_geom_bond_atom_site_label_2
_geom_bond_site_symmetry_1
_geom_bond_site_symmetry_2
O1 C8 1_555 1_555
O2 C9 1_555 1_555
O3 C5 1_555 1_555
O4 C12 1_555 1_555
O5 C14 1_555 1_555
C1 H1 1_555 1_555
H2 C1 1_555 1_555
H3 C1 1_555 1_555
C2 C1 1_555 1_555
C3 C2 1_555 1_555
H4 C3 1_555 1_555
C4 C2 1_555 1_555
H5 C4 1_555 1_555
C5 C3 1_555 1_555
C6 C4 1_555 1_555
C7 C5 1_555 1_555
C8 C6 1_555 1_555
C9 C7 1_555 1_555
C10 C8 1_555 1_555
C11 C9 1_555 1_555
C12 C11 1_555 1_555
C13 C10 1_555 1_555
H6 C13 1_555 1_555
C14 C13 1_555 1_555
C15 C12 1_555 1_555
H7 C15 1_555 1_555
H8 O3 1_555 1_555
H9 O4 1_555 1_555
H10 O5 1_555 1_555
O6 C24 1_555 1_555
O7 C23 1_555 1_555
O8 C22 1_555 1_555
O9 C27 1_555 1_555
O10 C30 1_555 1_555
C16 H11 1_555 1_555
H12 C16 1_555 1_555
H13 C16 1_555 1_555
C17 C16 1_555 1_555
C18 C17 1_555 1_555
H14 C18 1_555 1_555
C19 C17 1_555 1_555
H15 C19 1_555 1_555
C20 C19 1_555 1_555
C21 C20 1_555 1_555
C22 C18 1_555 1_555
C23 C21 1_555 1_555
C24 C20 1_555 1_555
C25 C23 1_555 1_555
C26 C24 1_555 1_555
C27 C25 1_555 1_555
C28 C27 1_555 1_555
H16 C28 1_555 1_555
C29 C26 1_555 1_555
H17 C29 1_555 1_555
C30 C28 1_555 1_555
H18 O8 1_555 1_555
H19 O9 1_555 1_555
H20 O10 1_555 1_555
O11 C32 1_555 1_555
O12 C31 1_555 1_555
O13 C49 1_555 1_555
O14 C47 1_555 1_555
N1 C39 1_555 1_555
C31 H21 1_555 1_555
H22 C31 1_555 1_555
H23 C31 1_555 1_555
C32 H24 1_555 1_555
H25 C32 1_555 1_555
H26 C32 1_555 1_555
C33 O11 1_555 1_555
C34 O12 1_555 1_555
C35 C34 1_555 1_555
H27 C35 1_555 1_555
C36 C35 1_555 1_555
H28 C36 1_555 1_555
C37 C36 1_555 1_555
C38 C33 1_555 1_555
C39 C38 1_555 1_555
H29 C39 1_555 1_555
C40 C37 1_555 1_555
H30 C40 1_555 1_555
C41 N1 1_555 1_555
C42 N1 1_555 1_555
H31 C42 1_555 1_555
H32 C42 1_555 1_555
C43 C42 1_555 1_555
H33 C43 1_555 1_555
H34 C43 1_555 1_555
C44 C43 1_555 1_555
C45 C41 1_555 1_555
C46 C45 1_555 1_555
H35 C46 1_555 1_555
C47 C46 1_555 1_555
C48 C44 1_555 1_555
H36 C48 1_555 1_555
C49 C47 1_555 1_555
C50 O13 1_555 1_555
H37 C50 1_555 1_555
H38 C50 1_555 1_555
O15 C51 1_555 1_555
C51 H39 1_555 1_555
H40 C51 1_555 1_555
C52 C51 1_555 1_555
H41 C52 1_555 1_555
H42 C52 1_555 1_555
H43 C52 1_555 1_555
H44 O15 1_555 1_555
C6 C7 1_555 1_555
C10 C11 1_555 1_555
C14 C15 1_555 1_555
C21 C22 1_555 1_555
C25 C26 1_555 1_555
C29 C30 1_555 1_555
O14 C50 1_555 1_555
C33 C34 1_555 1_555
C37 C38 1_555 1_555
C40 C41 1_555 1_555
C44 C45 1_555 1_555
C48 C49 1_555 1_555

#END
