
#######################################################################
#
#                 Cambridge Crystallographic Data Centre
#                                CCDC 
#
#######################################################################
#
# If this CIF has been generated from an entry in the Cambridge 
# Structural Database, then it will include bibliographic, chemical, 
# crystal, experimental, refinement or atomic coordinate data resulting 
# from the CCDC's data processing and validation procedures.
#
#######################################################################

data_DIQDAI
_chemical_formula_moiety         'C24 H32 S4'
_chemical_name_systematic        
1,4,7,10-tetrakis(Isopropyl)dibenzo[c,g][1,2,5,6]tetrathiocin
_symmetry_cell_setting           monoclinic
_symmetry_space_group_name_H-M   'P 21/n'
_symmetry_Int_Tables_number      14
_space_group_name_Hall           '-P 2yn'
loop_
_symmetry_equiv_pos_site_id
_symmetry_equiv_pos_as_xyz
1 x,y,z
2 1/2+x,1/2-y,1/2+z
3 -x,-y,-z
4 1/2-x,1/2+y,1/2-z
_cell_length_a                   11.471(1)
_cell_length_b                   5.958(1)
_cell_length_c                   18.039(1)
_cell_angle_alpha                90
_cell_angle_beta                 102.284(8)
_cell_angle_gamma                90
_cell_volume                     1204.64
_exptl_crystal_colour            yellow
_exptl_crystal_description       prismatic
_cell_formula_units_Z            2
loop_
_atom_site_label
_atom_site_type_symbol
_atom_site_fract_x
_atom_site_fract_y
_atom_site_fract_z
S1 S 0.05238(5) 0.4795(1) 0.60518(3)
S2 S 0.00029(5) 0.7833(1) 0.55425(4)
C1 C 0.1721(2) 0.3966(4) 0.5629(1)
C2 C -0.1487(2) 0.7259(4) 0.5059(1)
C3 C 0.2892(2) 0.4472(4) 0.5999(1)
C4 C 0.3802(2) 0.3721(5) 0.5667(2)
C5 C 0.3582(2) 0.2478(5) 0.5003(2)
C6 C -0.2427(2) 0.8067(4) 0.5373(1)
C7 C 0.3195(3) 0.5862(5) 0.6722(2)
C8 C 0.3406(5) 0.8266(7) 0.6538(2)
C9 C 0.4227(4) 0.4900(7) 0.7306(2)
C10 C -0.2228(3) 0.9461(5) 0.6092(2)
C11 C -0.2537(10) 0.823(1) 0.6717(3)
C12 C -0.2818(7) 1.1696(8) 0.5956(3)
H1 H 0.463(3) 0.415(6) 0.589(2)
H2 H 0.424(3) 0.187(6) 0.481(2)
H3 H 0.254(3) 0.564(5) 0.697(2)
H4 H 0.3524 0.9147 0.6987
H5 H 0.4092 0.8364 0.6324
H6 H 0.2731 0.8822 0.6183
H7 H 0.4359 0.5784 0.7753
H8 H 0.4927 0.4895 0.7102
H9 H 0.4044 0.3401 0.7424
H10 H -0.144(3) 0.988(6) 0.619(2)
H11 H -0.2037 0.6837 0.6785
H12 H -0.3315 0.7835 0.6629
H13 H -0.2283 0.9052 0.7177
H14 H -0.2567 1.2429 0.5561
H15 H -0.3666 1.1473 0.5828
H16 H -0.2629 1.2558 0.6410
C1B C -0.1721(2) 0.6034(4) 0.4371(1)
S1B S -0.05238(5) 0.5205(1) 0.39482(3)
S2B S -0.00029(5) 0.2167(1) 0.44575(4)
C2B C 0.1487(2) 0.2741(4) 0.4941(1)
C6B C 0.2427(2) 0.1933(4) 0.4627(1)
C10B C 0.2228(3) 0.0539(5) 0.3908(2)
C11B C 0.2537(10) 0.177(1) 0.3283(3)
H11B H 0.2037 0.3163 0.3215
H12B H 0.3315 0.2165 0.3371
H13B H 0.2283 0.0948 0.2823
C12B C 0.2818(7) -0.1696(8) 0.4044(3)
H14B H 0.2567 -0.2429 0.4439
H15B H 0.3666 -0.1473 0.4172
H16B H 0.2629 -0.2558 0.3590
H10B H 0.144(3) 0.012(6) 0.381(2)
C3B C -0.2892(2) 0.5528(4) 0.4001(1)
C4B C -0.3802(2) 0.6279(5) 0.4333(2)
C5B C -0.3582(2) 0.7522(5) 0.4997(2)
H2B H -0.424(3) 0.813(6) 0.519(2)
H1B H -0.463(3) 0.585(6) 0.411(2)
C7B C -0.3195(3) 0.4138(5) 0.3278(2)
C8B C -0.3406(5) 0.1734(7) 0.3462(2)
H4B H -0.3524 0.0853 0.3013
H5B H -0.4092 0.1636 0.3676
H6B H -0.2731 0.1178 0.3817
C9B C -0.4227(4) 0.5100(7) 0.2694(2)
H7B H -0.4359 0.4216 0.2247
H8B H -0.4927 0.5105 0.2898
H9B H -0.4044 0.6599 0.2576
H3B H -0.254(3) 0.436(5) 0.303(2)
loop_
_geom_bond_atom_site_label_1
_geom_bond_atom_site_label_2
_geom_bond_site_symmetry_1
_geom_bond_site_symmetry_2
S1 S2 1_555 1_555
S2 C2 1_555 1_555
C1 S1 1_555 1_555
C2 C6 1_555 1_555
C3 C1 1_555 1_555
C4 C3 1_555 1_555
C5 C4 1_555 1_555
C6 C10 1_555 1_555
C7 C3 1_555 1_555
C8 C7 1_555 1_555
C9 C7 1_555 1_555
C10 C11 1_555 1_555
C11 H11 1_555 1_555
C12 C10 1_555 1_555
H1 C4 1_555 1_555
H2 C5 1_555 1_555
H3 C7 1_555 1_555
H4 C8 1_555 1_555
H5 C8 1_555 1_555
H6 C8 1_555 1_555
H7 C9 1_555 1_555
H8 C9 1_555 1_555
H9 C9 1_555 1_555
H10 C10 1_555 1_555
H12 C11 1_555 1_555
H13 C11 1_555 1_555
H14 C12 1_555 1_555
H15 C12 1_555 1_555
H16 C12 1_555 1_555
C1B C2 1_555 1_555
S1B C1B 1_555 1_555
S2B S1B 1_555 1_555
C2B C1 1_555 1_555
C6B C5 1_555 1_555
C10B C6B 1_555 1_555
C11B C10B 1_555 1_555
H11B C11B 1_555 1_555
H12B C11B 1_555 1_555
H13B C11B 1_555 1_555
C12B C10B 1_555 1_555
H14B C12B 1_555 1_555
H15B C12B 1_555 1_555
H16B C12B 1_555 1_555
H10B C10B 1_555 1_555
C3B C1B 1_555 1_555
C4B C3B 1_555 1_555
C5B C6 1_555 1_555
H2B C5B 1_555 1_555
H1B C4B 1_555 1_555
C7B C3B 1_555 1_555
C8B C7B 1_555 1_555
H4B C8B 1_555 1_555
H5B C8B 1_555 1_555
H6B C8B 1_555 1_555
C9B C7B 1_555 1_555
H7B C9B 1_555 1_555
H8B C9B 1_555 1_555
H9B C9B 1_555 1_555
H3B C7B 1_555 1_555
S2B C2B 1_555 1_555
C2B C6B 1_555 1_555
C4B C5B 1_555 1_555

#END
