
#######################################################################
#
#                 Cambridge Crystallographic Data Centre
#                                CCDC 
#
#######################################################################
#
# If this CIF has been generated from an entry in the Cambridge 
# Structural Database, then it will include bibliographic, chemical, 
# crystal, experimental, refinement or atomic coordinate data resulting 
# from the CCDC's data processing and validation procedures.
#
#######################################################################

data_DIQZEK
_chemical_formula_moiety         'C25 H23 N1 O4'
_chemical_name_systematic        
'Ethyl (6-(4-methylbenzoyl)-7-phenyl-2,3-dihydro-1H-pyrrolizin-5-yl)(oxo)acetate'
_symmetry_cell_setting           monoclinic
_symmetry_space_group_name_H-M   'P 21/c'
_symmetry_Int_Tables_number      14
_space_group_name_Hall           '-P 2ybc'
loop_
_symmetry_equiv_pos_site_id
_symmetry_equiv_pos_as_xyz
1 x,y,z
2 -x,1/2+y,1/2-z
3 -x,-y,-z
4 x,1/2-y,1/2+z
_cell_length_a                   8.8949(18)
_cell_length_b                   9.0003(18)
_cell_length_c                   25.580(5)
_cell_angle_alpha                90
_cell_angle_beta                 96.75(3)
_cell_angle_gamma                90
_cell_volume                     2033.66
_exptl_crystal_colour            yellow
_exptl_crystal_description       needle
_cell_formula_units_Z            4
loop_
_atom_site_label
_atom_site_type_symbol
_atom_site_fract_x
_atom_site_fract_y
_atom_site_fract_z
O1 O 0.3855(4) 0.7209(3) 0.14060(9)
O2 O 0.5168(3) 1.0611(3) 0.16709(9)
O3 O 0.3842(3) 0.9266(3) 0.21838(8)
O4 O 0.3274(3) 1.2999(3) 0.07415(9)
N1 N 0.3342(3) 0.8148(3) 0.03486(9)
C1 C 0.2962(4) 0.7905(4) -0.05606(12)
H1 H 0.3753 0.8216 -0.0768
H2 H 0.2001 0.7897 -0.0783
C2 C 0.3308(4) 0.6400(4) -0.03159(13)
H3 H 0.4076 0.5900 -0.0491
H4 H 0.2404 0.5789 -0.0350
C3 C 0.3874(4) 0.6643(4) 0.02624(13)
H5 H 0.3434 0.5930 0.0485
H6 H 0.4969 0.6581 0.0326
C4 C 0.3345(3) 0.9074(3) 0.07784(11)
C5 C 0.2855(3) 1.0463(3) 0.05824(10)
C6 C 0.2560(3) 1.0339(3) 0.00275(11)
C7 C 0.2900(3) 0.8895(3) -0.00953(11)
C8 C 0.3779(4) 0.8520(4) 0.12995(12)
C9 C 0.4326(4) 0.9619(4) 0.17365(12)
C10 C 0.4400(5) 1.0161(5) 0.26432(12)
H7 H 0.4017 1.1169 0.2603
H8 H 0.5497 1.0193 0.2686
C11 C 0.3840(5) 0.9433(5) 0.31076(13)
H9 H 0.4207 0.9967 0.3422
H10 H 0.4199 0.8427 0.3135
H11 H 0.2753 0.9436 0.3065
C12 C 0.2684(3) 1.1863(3) 0.08767(11)
C13 C 0.1747(3) 1.1872(3) 0.13189(11)
C14 C 0.1881(4) 1.3048(4) 0.16630(14)
H12 H 0.2562 1.3811 0.1622
C15 C 0.0987(6) 1.3085(5) 0.20733(15)
H13 H 0.1109 1.3859 0.2316
C16 C -0.0070(4) 1.2007(5) 0.21290(13)
C17 C -0.0224(4) 1.0875(5) 0.17767(12)
H14 H -0.0952 1.0146 0.1805
C18 C 0.0685(3) 1.0794(4) 0.13783(11)
H15 H 0.0579 0.9997 0.1145
C19 C -0.1077(8) 1.2103(7) 0.2552(2)
H16 H -0.2045 1.1678 0.2429
H17 H -0.1206 1.3126 0.2644
H18 H -0.0632 1.1567 0.2856
C20 C 0.1933(3) 1.1473(3) -0.03498(11)
C21 C 0.0754(4) 1.2406(4) -0.02484(14)
H19 H 0.0359 1.2324 0.0071
C22 C 0.0156(4) 1.3444(4) -0.06075(17)
H20 H -0.0625 1.4061 -0.0528
C23 C 0.0712(5) 1.3571(5) -0.10828(18)
H21 H 0.0316 1.4277 -0.1326
C24 C 0.1858(5) 1.2647(5) -0.11977(14)
H22 H 0.2229 1.2722 -0.1522
C25 C 0.2464(4) 1.1607(4) -0.08351(12)
H23 H 0.3239 1.0988 -0.0918
loop_
_geom_bond_atom_site_label_1
_geom_bond_atom_site_label_2
_geom_bond_site_symmetry_1
_geom_bond_site_symmetry_2
O1 C8 1_555 1_555
O2 C9 1_555 1_555
O3 C9 1_555 1_555
O4 C12 1_555 1_555
N1 C3 1_555 1_555
C1 H1 1_555 1_555
H2 C1 1_555 1_555
C2 C1 1_555 1_555
H3 C2 1_555 1_555
H4 C2 1_555 1_555
C3 C2 1_555 1_555
H5 C3 1_555 1_555
H6 C3 1_555 1_555
C4 N1 1_555 1_555
C5 C4 1_555 1_555
C6 C5 1_555 1_555
C7 N1 1_555 1_555
C8 C4 1_555 1_555
C9 C8 1_555 1_555
C10 O3 1_555 1_555
H7 C10 1_555 1_555
H8 C10 1_555 1_555
C11 C10 1_555 1_555
H9 C11 1_555 1_555
H10 C11 1_555 1_555
H11 C11 1_555 1_555
C12 C5 1_555 1_555
C13 C12 1_555 1_555
C14 C13 1_555 1_555
H12 C14 1_555 1_555
C15 C14 1_555 1_555
H13 C15 1_555 1_555
C16 C15 1_555 1_555
C17 C16 1_555 1_555
H14 C17 1_555 1_555
C18 C13 1_555 1_555
H15 C18 1_555 1_555
C19 C16 1_555 1_555
H16 C19 1_555 1_555
H17 C19 1_555 1_555
H18 C19 1_555 1_555
C20 C6 1_555 1_555
C21 C20 1_555 1_555
H19 C21 1_555 1_555
C22 C21 1_555 1_555
H20 C22 1_555 1_555
C23 C22 1_555 1_555
H21 C23 1_555 1_555
C24 C23 1_555 1_555
H22 C24 1_555 1_555
C25 C20 1_555 1_555
H23 C25 1_555 1_555
C1 C7 1_555 1_555
C6 C7 1_555 1_555
C17 C18 1_555 1_555
C24 C25 1_555 1_555

#END
