
#######################################################################
#
#                 Cambridge Crystallographic Data Centre
#                                CCDC 
#
#######################################################################
#
# If this CIF has been generated from an entry in the Cambridge 
# Structural Database, then it will include bibliographic, chemical, 
# crystal, experimental, refinement or atomic coordinate data resulting 
# from the CCDC's data processing and validation procedures.
#
#######################################################################

data_DIRBAJ
_chemical_formula_moiety         'C24 H40 N4 S3 4+,2(F6 Si1 2-),3(C1 H4 O1)'
_chemical_name_systematic        
"N'-(2-Thienylmethyl)-N,N-bis(3-((2-thienylmethyl)ammonio)propyl)propane-1,3-diaminium bis(hexafluorosilicate) methanol solvate"
_symmetry_cell_setting           triclinic
_symmetry_space_group_name_H-M   'P -1'
_symmetry_Int_Tables_number      2
_space_group_name_Hall           '-P 1'
loop_
_symmetry_equiv_pos_site_id
_symmetry_equiv_pos_as_xyz
1 x,y,z
2 -x,-y,-z
_cell_length_a                   8.4854(4)
_cell_length_b                   12.5107(6)
_cell_length_c                   18.9003(10)
_cell_angle_alpha                89.024(2)
_cell_angle_beta                 87.750(2)
_cell_angle_gamma                72.206(3)
_cell_volume                     1908.94
_exptl_crystal_colour            colorless
_exptl_crystal_description       plate
_cell_formula_units_Z            2
loop_
_atom_site_label
_atom_site_type_symbol
_atom_site_fract_x
_atom_site_fract_y
_atom_site_fract_z
N1 N 0.13157(18) 0.16663(12) 0.44971(8)
H1 H 0.025(3) 0.1828(19) 0.4645(12)
C1 C 0.1602(2) 0.27924(14) 0.44162(10)
H2 H 0.1293 0.3205 0.4868
H3 H 0.0876 0.3233 0.4048
C2 C 0.3400(2) 0.26928(15) 0.42114(10)
H4 H 0.4114 0.2399 0.4617
H5 H 0.3790 0.2166 0.3811
C3 C 0.3505(2) 0.38465(15) 0.39995(10)
H6 H 0.2840 0.4119 0.3577
H7 H 0.3044 0.4382 0.4390
N2 N 0.52685(19) 0.37908(13) 0.38383(9)
H8 H 0.570(3) 0.376(2) 0.4221(10)
H9 H 0.576(3) 0.3214(16) 0.3613(11)
C4 C 0.53771(19) 0.47655(14) 0.34078(9)
H10 H 0.4614 0.5456 0.3623
H11 H 0.4985 0.4697 0.2929
C5 C 0.7067(2) 0.49026(14) 0.33317(11)
S1 S 0.77713(7) 0.56389(5) 0.39491(3)
C6 C 0.9620(3) 0.5433(2) 0.34880(15)
H12 H 1.0477 0.5719 0.3627
C7 C 0.9704(3) 0.4808(2) 0.28972(15)
H13 H 1.0636 0.4598 0.2576
C8 C 0.8239(4) 0.4505(3) 0.28160(17)
H14 H 0.8097 0.4064 0.2434
C9 C 0.2348(2) 0.09184(15) 0.50512(9)
H15 H 0.3507 0.0634 0.4866
H16 H 0.1940 0.0263 0.5133
C10 C 0.2323(2) 0.14949(15) 0.57565(9)
H17 H 0.3094 0.1951 0.5731
H18 H 0.1195 0.1996 0.5874
C11 C 0.2852(2) 0.05860(16) 0.63168(10)
H19 H 0.2107 0.0112 0.6318
H20 H 0.3989 0.0102 0.6197
N3 N 0.2812(2) 0.10644(14) 0.70420(9)
H21 H 0.291(3) 0.0564(17) 0.7339(11)
H22 H 0.186(2) 0.1499(18) 0.7114(13)
C12 C 0.4083(2) 0.16507(18) 0.71464(9)
H23 H 0.5163 0.1190 0.6940
H24 H 0.3757 0.2379 0.6892
C13 C 0.42679(18) 0.18499(18) 0.79115(10)
S2 S 0.36470(9) 0.31908(5) 0.82559(4)
C14 C 0.4257(3) 0.27031(19) 0.90860(11)
H25 H 0.4161 0.3169 0.9487
C15 C 0.4896(3) 0.15638(18) 0.90968(11)
H26 H 0.5300 0.1139 0.9509
C16 C 0.4891(5) 0.1083(3) 0.84208(15)
H27 H 0.5287 0.0298 0.8336
C17 C 0.1575(2) 0.10067(15) 0.38197(9)
H28 H 0.1239 0.0324 0.3908
H29 H 0.2772 0.0762 0.3688
C18 C 0.0627(2) 0.16447(16) 0.31978(10)
H30 H 0.1074 0.2259 0.3044
H31 H -0.0560 0.1973 0.3333
C19 C 0.0845(2) 0.07987(17) 0.26041(10)
H32 H 0.2037 0.0386 0.2533
H33 H 0.0265 0.0247 0.2744
N4 N 0.0187(2) 0.13442(16) 0.19252(9)
H34 H -0.084(2) 0.168(2) 0.1948(14)
H35 H 0.063(3) 0.1843(19) 0.1787(13)
C20 C 0.0497(3) 0.04944(17) 0.13373(9)
H36 H 0.1660 0.0004 0.1344
H37 H -0.0233 0.0017 0.1416
C21 C 0.0177(3) 0.10602(15) 0.06322(10)
S3 S 0.18115(8) 0.11894(7) 0.01032(3)
C22 C 0.0503(3) 0.1870(3) -0.05466(13)
H38 H 0.0857 0.2128 -0.0982
C23 C -0.1108(3) 0.1990(3) -0.03549(15)
H39 H -0.2017 0.2351 -0.0641
C24 C -0.1271(4) 0.1517(3) 0.03181(16)
H40 H -0.2308 0.1521 0.0529
Si1 Si 0.73108(6) 0.23998(4) 0.55231(3)
F1 F 0.57427(13) 0.35369(9) 0.52832(6)
F2 F 0.60821(13) 0.15817(9) 0.54819(7)
F3 F 0.67788(14) 0.26449(10) 0.63891(6)
F4 F 0.89313(13) 0.12794(9) 0.57423(7)
F5 F 0.85612(13) 0.32209(9) 0.55567(6)
F6 F 0.78968(14) 0.21482(10) 0.46498(6)
Si2 Si 0.56253(6) 0.18625(4) 0.22561(3)
F7 F 0.71772(14) 0.06581(9) 0.20444(6)
F8 F 0.45671(14) 0.10710(10) 0.26609(7)
F9 F 0.65991(14) 0.19000(9) 0.30210(6)
F10 F 0.41488(14) 0.30467(10) 0.24795(6)
F11 F 0.68021(16) 0.26028(10) 0.18600(7)
F12 F 0.47386(17) 0.18042(11) 0.14878(7)
O1 O -0.05819(18) 0.21010(13) 0.72577(8)
H50 H -0.1174 0.2165 0.6904
C37 C -0.1528(3) 0.2917(2) 0.77516(13)
H51 H -0.2085 0.3613 0.7499
H52 H -0.0793 0.3066 0.8098
H53 H -0.2359 0.2632 0.7997
O2 O 0.1189(3) 0.3171(2) 0.15212(11)
H54 H 0.2191 0.2785 0.1512
C38 C 0.0257(8) 0.3911(4) 0.0983(2)
H55 H 0.0258 0.4681 0.1069
H56 H -0.0886 0.3884 0.1000
H57 H 0.0768 0.3669 0.0515
O3 O 0.4231(5) 0.3749(2) 0.06952(15)
H58 H 0.3443 0.3593 0.0911
C39 C 0.4393(6) 0.4698(3) 0.0981(2)
H59 H 0.4004 0.4753 0.1478
H60 H 0.3733 0.5354 0.0719
H61 H 0.5560 0.4671 0.0952
C25? C 0.7048(4) 0.4918(4) 0.3297(3)
S4? S 0.8363(4) 0.4256(4) 0.2610(2)
C26? C 0.9851(9) 0.4837(8) 0.2850(6)
H41? H 1.0894 0.4708 0.2608
C27? C 0.9351(12) 0.5504(11) 0.3430(7)
H42? H 1.0007 0.5898 0.3640
C28? C 0.7739(10) 0.5543(9) 0.3684(5)
H43? H 0.7201 0.5965 0.4085
C29? C 0.4050(9) 0.1995(7) 0.7902(2)
S5? S 0.4924(16) 0.1029(9) 0.8549(3)
C30? C 0.438(2) 0.2041(13) 0.9192(5)
H44? H 0.4622 0.1903 0.9678
C31? C 0.357(3) 0.3066(11) 0.8918(6)
H45? H 0.3172 0.3730 0.9193
C32? C 0.338(2) 0.3031(9) 0.8178(6)
H46? H 0.2846 0.3672 0.7903
C33? C 0.0154(9) 0.1106(7) 0.0647(3)
S6? S -0.1832(8) 0.1641(9) 0.0348(4)
C34? C -0.1166(18) 0.2163(16) -0.0414(6)
H47? H -0.1874 0.2559 -0.0772
C35? C 0.0513(18) 0.194(2) -0.0437(8)
H48? H 0.1122 0.2153 -0.0815
C36? C 0.1238(15) 0.1333(18) 0.0173(7)
H49? H 0.2397 0.1108 0.0241
loop_
_geom_bond_atom_site_label_1
_geom_bond_atom_site_label_2
_geom_bond_site_symmetry_1
_geom_bond_site_symmetry_2
N1 H1 1_555 1_555
C1 N1 1_555 1_555
H2 C1 1_555 1_555
H3 C1 1_555 1_555
C2 C1 1_555 1_555
H4 C2 1_555 1_555
H5 C2 1_555 1_555
C3 C2 1_555 1_555
H6 C3 1_555 1_555
H7 C3 1_555 1_555
N2 C3 1_555 1_555
H8 N2 1_555 1_555
H9 N2 1_555 1_555
C4 N2 1_555 1_555
H10 C4 1_555 1_555
H11 C4 1_555 1_555
C5 C4 1_555 1_555
S1 C5 1_555 1_555
C6 S1 1_555 1_555
H12 C6 1_555 1_555
C7 C6 1_555 1_555
H13 C7 1_555 1_555
C8 C5 1_555 1_555
H14 C8 1_555 1_555
C9 N1 1_555 1_555
H15 C9 1_555 1_555
H16 C9 1_555 1_555
C10 C9 1_555 1_555
H17 C10 1_555 1_555
H18 C10 1_555 1_555
C11 C10 1_555 1_555
H19 C11 1_555 1_555
H20 C11 1_555 1_555
N3 C11 1_555 1_555
H21 N3 1_555 1_555
H22 N3 1_555 1_555
C12 N3 1_555 1_555
H23 C12 1_555 1_555
H24 C12 1_555 1_555
C13 C12 1_555 1_555
S2 C13 1_555 1_555
C14 S2 1_555 1_555
H25 C14 1_555 1_555
C15 C14 1_555 1_555
H26 C15 1_555 1_555
C16 C13 1_555 1_555
H27 C16 1_555 1_555
C17 N1 1_555 1_555
H28 C17 1_555 1_555
H29 C17 1_555 1_555
C18 C17 1_555 1_555
H30 C18 1_555 1_555
H31 C18 1_555 1_555
C19 C18 1_555 1_555
H32 C19 1_555 1_555
H33 C19 1_555 1_555
N4 C19 1_555 1_555
H34 N4 1_555 1_555
H35 N4 1_555 1_555
C20 N4 1_555 1_555
H36 C20 1_555 1_555
H37 C20 1_555 1_555
C21 C20 1_555 1_555
S3 C21 1_555 1_555
C22 S3 1_555 1_555
H38 C22 1_555 1_555
C23 C22 1_555 1_555
H39 C23 1_555 1_555
C24 C21 1_555 1_555
H40 C24 1_555 1_555
Si1 F1 1_555 1_555
F2 Si1 1_555 1_555
F3 Si1 1_555 1_555
F4 Si1 1_555 1_555
F5 Si1 1_555 1_555
F6 Si1 1_555 1_555
Si2 F7 1_555 1_555
F8 Si2 1_555 1_555
F9 Si2 1_555 1_555
F10 Si2 1_555 1_555
F11 Si2 1_555 1_555
F12 Si2 1_555 1_555
O1 H50 1_555 1_555
C37 O1 1_555 1_555
H51 C37 1_555 1_555
H52 C37 1_555 1_555
H53 C37 1_555 1_555
O2 H54 1_555 1_555
C38 O2 1_555 1_555
H55 C38 1_555 1_555
H56 C38 1_555 1_555
H57 C38 1_555 1_555
O3 H58 1_555 1_555
C39 O3 1_555 1_555
H59 C39 1_555 1_555
H60 C39 1_555 1_555
H61 C39 1_555 1_555
C7 C8 1_555 1_555
C15 C16 1_555 1_555
C23 C24 1_555 1_555

#END
