
#######################################################################
#
#                 Cambridge Crystallographic Data Centre
#                                CCDC 
#
#######################################################################
#
# If this CIF has been generated from an entry in the Cambridge 
# Structural Database, then it will include bibliographic, chemical, 
# crystal, experimental, refinement or atomic coordinate data resulting 
# from the CCDC's data processing and validation procedures.
#
#######################################################################

data_DIRQOM
_chemical_formula_moiety         'C44 H38 N4 O2 S4'
_chemical_name_systematic        
5,5'''-bis(2-methoxypropyl)-2,2',2'',2'''-tetraphenyl-4,5':4',4'':5'',4'''-quater-1,3-thiazole
_symmetry_cell_setting           orthorhombic
_symmetry_space_group_name_H-M   'P 21 21 21'
_symmetry_Int_Tables_number      19
_space_group_name_Hall           'P 2ac 2ab'
loop_
_symmetry_equiv_pos_site_id
_symmetry_equiv_pos_as_xyz
1 x,y,z
2 1/2+x,1/2-y,-z
3 -x,1/2+y,1/2-z
4 1/2-x,-y,1/2+z
_cell_length_a                   7.85781(14)
_cell_length_b                   22.0339(4)
_cell_length_c                   22.3295(4)
_cell_angle_alpha                90
_cell_angle_beta                 90
_cell_angle_gamma                90
_cell_volume                     3866.09
_exptl_crystal_colour            colorless
_exptl_crystal_description       block
_cell_formula_units_Z            4
loop_
_atom_site_label
_atom_site_type_symbol
_atom_site_fract_x
_atom_site_fract_y
_atom_site_fract_z
S1 S 0.78022(4) 0.535958(15) 0.558867(15)
S2 S 0.76903(4) 0.374020(15) 0.728621(14)
S3 S 0.34443(4) 0.622762(15) 0.744751(14)
S4 S 0.19873(4) 0.460495(16) 0.589125(15)
O1 O 0.81880(15) 0.65835(5) 0.62477(5)
O2 O 0.13642(14) 0.34241(5) 0.65414(5)
N1 N 0.65185(15) 0.43731(5) 0.60088(5)
N2 N 0.62600(15) 0.43753(5) 0.81081(5)
N3 N 0.55829(15) 0.56648(5) 0.81169(5)
N4 N 0.35696(15) 0.55977(5) 0.61378(5)
C1 C 0.67600(17) 0.46688(6) 0.55058(6)
C2 C 0.79468(18) 0.52390(6) 0.63482(6)
C3 C 0.71646(17) 0.46991(6) 0.64846(6)
C4 C 0.61229(18) 0.44589(6) 0.49219(6)
C5 C 0.5088(2) 0.39443(7) 0.49030(6)
C6 C 0.4415(2) 0.37434(8) 0.43619(7)
C7 C 0.4780(3) 0.40588(8) 0.38369(7)
C8 C 0.5806(2) 0.45702(8) 0.38513(7)
C9 C 0.6480(2) 0.47702(7) 0.43908(7)
C10 C 0.88524(18) 0.56713(6) 0.67557(6)
C11 C 0.79982(18) 0.62891(6) 0.68141(6)
C12 C 0.6914(3) 0.70293(8) 0.61435(8)
C13 C 0.8783(3) 0.66578(7) 0.73190(7)
C14 C 0.69863(18) 0.38510(6) 0.80171(6)
C15 C 0.69504(18) 0.44563(6) 0.70947(6)
C16 C 0.62137(17) 0.47152(6) 0.75903(6)
C17 C 0.71496(18) 0.33871(6) 0.84893(6)
C18 C 0.6437(2) 0.35031(7) 0.90515(7)
C19 C 0.6578(3) 0.30779(8) 0.95086(7)
C20 C 0.7427(3) 0.25325(7) 0.94066(7)
C21 C 0.8133(3) 0.24122(7) 0.88473(8)
C22 C 0.7994(3) 0.28367(7) 0.83916(7)
C23 C 0.46868(18) 0.61622(6) 0.80890(6)
C24 C 0.41602(17) 0.55246(6) 0.72110(6)
C25 C 0.53097(17) 0.53050(6) 0.76198(6)
C26 C 0.46243(18) 0.66140(6) 0.85764(6)
C27 C 0.5351(2) 0.64651(7) 0.91274(7)
C28 C 0.5202(3) 0.68591(7) 0.96104(7)
C29 C 0.4338(3) 0.74061(7) 0.95455(7)
C30 C 0.3653(3) 0.75663(7) 0.89939(7)
C31 C 0.3791(2) 0.71718(6) 0.85096(7)
C32 C 0.28557(17) 0.53014(6) 0.56946(6)
C33 C 0.26431(17) 0.47154(6) 0.66196(6)
C34 C 0.34619(17) 0.52620(6) 0.66578(6)
C35 C 0.28684(18) 0.55158(6) 0.50706(6)
C36 C 0.3818(2) 0.60316(7) 0.49246(7)
C37 C 0.3907(3) 0.62281(8) 0.43329(7)
C38 C 0.3065(3) 0.59102(8) 0.38877(7)
C39 C 0.2113(3) 0.54002(8) 0.40271(7)
C40 C 0.2012(2) 0.52027(7) 0.46188(7)
C41 C 0.23370(19) 0.42554(6) 0.71021(6)
C42 C 0.27668(19) 0.36085(6) 0.69045(6)
C43 C 0.1702(3) 0.29129(8) 0.61748(8)
C44 C 0.3007(3) 0.31887(7) 0.74378(7)
H1 H 0.4842 0.3730 0.5262
H2 H 0.3710 0.3393 0.4351
H3 H 0.4322 0.3923 0.3467
H4 H 0.6049 0.4784 0.3492
H5 H 0.7186 0.5120 0.4399
H6 H 1.0025 0.5731 0.6605
H7 H 0.8935 0.5486 0.7158
H8 H 0.6759 0.6229 0.6898
H9 H 0.7061 0.7201 0.5742
H10 H 0.7017 0.7353 0.6442
H11 H 0.5787 0.6842 0.6175
H12 H 0.8496 0.6471 0.7704
H13 H 0.8338 0.7073 0.7307
H14 H 1.0023 0.6667 0.7271
H15 H 0.5854 0.3874 0.9121
H16 H 0.6096 0.3159 0.9890
H17 H 0.7524 0.2242 0.9719
H18 H 0.8710 0.2040 0.8778
H19 H 0.8475 0.2753 0.8010
H20 H 0.5949 0.6093 0.9172
H21 H 0.5691 0.6755 0.9986
H22 H 0.4216 0.7671 0.9879
H23 H 0.3091 0.7945 0.8947
H24 H 0.3318 0.7281 0.8133
H25 H 0.4404 0.6248 0.5229
H26 H 0.4545 0.6581 0.4235
H27 H 0.3141 0.6043 0.3484
H28 H 0.1531 0.5186 0.3720
H29 H 0.1358 0.4854 0.4715
H30 H 0.1126 0.4272 0.7224
H31 H 0.3036 0.4361 0.7456
H32 H 0.3829 0.3613 0.6658
H33 H 0.0659 0.2794 0.5965
H34 H 0.2095 0.2575 0.6425
H35 H 0.2583 0.3016 0.5882
H36 H 0.1934 0.3155 0.7659
H37 H 0.3889 0.3354 0.7702
H38 H 0.3354 0.2786 0.7297
loop_
_geom_bond_atom_site_label_1
_geom_bond_atom_site_label_2
_geom_bond_site_symmetry_1
_geom_bond_site_symmetry_2
S1 C1 1_555 1_555
S2 C14 1_555 1_555
S3 C23 1_555 1_555
S4 C32 1_555 1_555
O1 C11 1_555 1_555
O2 C42 1_555 1_555
N1 C1 1_555 1_555
N2 C14 1_555 1_555
N3 C23 1_555 1_555
N4 C32 1_555 1_555
C1 C4 1_555 1_555
C2 S1 1_555 1_555
C3 N1 1_555 1_555
C4 C5 1_555 1_555
C5 C6 1_555 1_555
C6 C7 1_555 1_555
C7 C8 1_555 1_555
C8 C9 1_555 1_555
C9 C4 1_555 1_555
C10 C2 1_555 1_555
C11 C10 1_555 1_555
C12 O1 1_555 1_555
C13 C11 1_555 1_555
C14 C17 1_555 1_555
C15 S2 1_555 1_555
C16 N2 1_555 1_555
C17 C18 1_555 1_555
C18 C19 1_555 1_555
C19 C20 1_555 1_555
C20 C21 1_555 1_555
C21 C22 1_555 1_555
C22 C17 1_555 1_555
C23 C26 1_555 1_555
C24 S3 1_555 1_555
C25 N3 1_555 1_555
C26 C27 1_555 1_555
C27 C28 1_555 1_555
C28 C29 1_555 1_555
C29 C30 1_555 1_555
C30 C31 1_555 1_555
C31 C26 1_555 1_555
C32 C35 1_555 1_555
C33 S4 1_555 1_555
C34 N4 1_555 1_555
C35 C36 1_555 1_555
C36 C37 1_555 1_555
C37 C38 1_555 1_555
C38 C39 1_555 1_555
C39 C40 1_555 1_555
C40 C35 1_555 1_555
C41 C33 1_555 1_555
C42 C41 1_555 1_555
C43 O2 1_555 1_555
C44 C42 1_555 1_555
H1 C5 1_555 1_555
H2 C6 1_555 1_555
H3 C7 1_555 1_555
H4 C8 1_555 1_555
H5 C9 1_555 1_555
H6 C10 1_555 1_555
H7 C10 1_555 1_555
H8 C11 1_555 1_555
H9 C12 1_555 1_555
H10 C12 1_555 1_555
H11 C12 1_555 1_555
H12 C13 1_555 1_555
H13 C13 1_555 1_555
H14 C13 1_555 1_555
H15 C18 1_555 1_555
H16 C19 1_555 1_555
H17 C20 1_555 1_555
H18 C21 1_555 1_555
H19 C22 1_555 1_555
H20 C27 1_555 1_555
H21 C28 1_555 1_555
H22 C29 1_555 1_555
H23 C30 1_555 1_555
H24 C31 1_555 1_555
H25 C36 1_555 1_555
H26 C37 1_555 1_555
H27 C38 1_555 1_555
H28 C39 1_555 1_555
H29 C40 1_555 1_555
H30 C41 1_555 1_555
H31 C41 1_555 1_555
H32 C42 1_555 1_555
H33 C43 1_555 1_555
H34 C43 1_555 1_555
H35 C43 1_555 1_555
H36 C44 1_555 1_555
H37 C44 1_555 1_555
H38 C44 1_555 1_555
C2 C3 1_555 1_555
C3 C15 1_555 1_555
C15 C16 1_555 1_555
C16 C25 1_555 1_555
C24 C25 1_555 1_555
C24 C34 1_555 1_555
C33 C34 1_555 1_555

#END
