
#######################################################################
#
#                 Cambridge Crystallographic Data Centre
#                                CCDC 
#
#######################################################################
#
# If this CIF has been generated from an entry in the Cambridge 
# Structural Database, then it will include bibliographic, chemical, 
# crystal, experimental, refinement or atomic coordinate data resulting 
# from the CCDC's data processing and validation procedures.
#
#######################################################################

data_DIRWUY
_chemical_formula_moiety         'C17 H15 N1 O1'
_chemical_name_systematic        
2,10b-Dimethyl-6,10b-dihydronaphtho[1,2,3-cd]indol-1(2H)-one
_symmetry_cell_setting           monoclinic
_symmetry_space_group_name_H-M   'P 21/c'
_symmetry_Int_Tables_number      14
_space_group_name_Hall           '-P 2ybc'
loop_
_symmetry_equiv_pos_site_id
_symmetry_equiv_pos_as_xyz
1 x,y,z
2 -x,1/2+y,1/2-z
3 -x,-y,-z
4 x,1/2-y,1/2+z
_cell_length_a                   8.3846(11)
_cell_length_b                   18.822(3)
_cell_length_c                   9.0991(13)
_cell_angle_alpha                90
_cell_angle_beta                 115.428(17)
_cell_angle_gamma                90
_cell_volume                     1296.86
_exptl_crystal_colour            colorless
_exptl_crystal_description       prismatic
_cell_formula_units_Z            4
loop_
_atom_site_label
_atom_site_type_symbol
_atom_site_fract_x
_atom_site_fract_y
_atom_site_fract_z
O1 O 0.21020(13) 0.47986(6) 0.46889(11)
N1 N 0.27423(14) 0.48978(6) 0.24777(13)
C1 C 0.20233(15) 0.45701(7) 0.34079(14)
C2 C 0.13095(15) 0.38415(6) 0.26190(14)
C3 C -0.05896(15) 0.36477(6) 0.22325(14)
C4 C -0.14413(17) 0.38949(7) 0.31509(16)
H1 H -0.0841 0.4183 0.4052
C5 C -0.31837(19) 0.37113(8) 0.27207(19)
H2 H -0.3759 0.3885 0.3321
C6 C -0.40698(19) 0.32732(9) 0.1411(2)
H3 H -0.5239 0.3150 0.1132
C7 C -0.32208(18) 0.30152(8) 0.05064(18)
H4 H -0.3825 0.2715 -0.0371
C8 C -0.14776(17) 0.31981(7) 0.08921(15)
C9 C -0.05967(19) 0.29344(7) -0.01661(17)
H5 H 0.0080 0.2509 0.0312
H6 H -0.1495 0.2814 -0.1240
C10 C 0.06087(17) 0.34961(7) -0.03148(15)
C11 C 0.0805(2) 0.36832(8) -0.17179(17)
H7 H 0.0268 0.3411 -0.2657
C12 C 0.1802(2) 0.42745(9) -0.17084(18)
H8 H 0.1965 0.4379 -0.2633
C13 C 0.25630(18) 0.47157(8) -0.03525(17)
H9 H 0.3196 0.5119 -0.0368
C14 C 0.23386(15) 0.45286(7) 0.10140(15)
C15 C 0.14605(15) 0.39088(7) 0.10444(15)
C16 C 0.3627(2) 0.55805(8) 0.28881(19)
H10 H 0.3504 0.5817 0.1911
H11 H 0.4857 0.5510 0.3585
H12 H 0.3105 0.5866 0.3441
C17 C 0.25789(17) 0.32780(8) 0.37776(17)
H13 H 0.2246 0.2815 0.3303
H14 H 0.2510 0.3291 0.4803
H15 H 0.3766 0.3380 0.3944
H16? H 0.4140 0.5645 0.4047
H17? H 0.2787 0.5952 0.2373
H18? H 0.4539 0.5596 0.2517
loop_
_geom_bond_atom_site_label_1
_geom_bond_atom_site_label_2
_geom_bond_site_symmetry_1
_geom_bond_site_symmetry_2
O1 C1 1_555 1_555
N1 C1 1_555 1_555
C1 C2 1_555 1_555
C2 C3 1_555 1_555
C3 C4 1_555 1_555
C4 H1 1_555 1_555
C5 C4 1_555 1_555
H2 C5 1_555 1_555
C6 C5 1_555 1_555
H3 C6 1_555 1_555
C7 C6 1_555 1_555
H4 C7 1_555 1_555
C8 C3 1_555 1_555
C9 C8 1_555 1_555
H5 C9 1_555 1_555
H6 C9 1_555 1_555
C10 C9 1_555 1_555
C11 C10 1_555 1_555
H7 C11 1_555 1_555
C12 C11 1_555 1_555
H8 C12 1_555 1_555
C13 C12 1_555 1_555
H9 C13 1_555 1_555
C14 N1 1_555 1_555
C15 C2 1_555 1_555
C16 N1 1_555 1_555
H10 C16 1_555 1_555
H11 C16 1_555 1_555
H12 C16 1_555 1_555
C17 C2 1_555 1_555
H13 C17 1_555 1_555
H14 C17 1_555 1_555
H15 C17 1_555 1_555
C7 C8 1_555 1_555
C10 C15 1_555 1_555
C13 C14 1_555 1_555
C14 C15 1_555 1_555

#END
