
#######################################################################
#
#                 Cambridge Crystallographic Data Centre
#                                CCDC 
#
#######################################################################
#
# If this CIF has been generated from an entry in the Cambridge 
# Structural Database, then it will include bibliographic, chemical, 
# crystal, experimental, refinement or atomic coordinate data resulting 
# from the CCDC's data processing and validation procedures.
#
#######################################################################

data_DISREF
_chemical_formula_moiety         'C22 H13 N3'
_chemical_name_systematic        
6-phenyl-4c,5,7-triazaindeno[1,2,3-jk]fluorene
_symmetry_cell_setting           monoclinic
_symmetry_space_group_name_H-M   'P 21'
_symmetry_Int_Tables_number      4
_space_group_name_Hall           'P 2yb'
loop_
_symmetry_equiv_pos_site_id
_symmetry_equiv_pos_as_xyz
1 x,y,z
2 -x,1/2+y,-z
_cell_length_a                   10.831(10)
_cell_length_b                   6.097(6)
_cell_length_c                   12.152(11)
_cell_angle_alpha                90
_cell_angle_beta                 96.55(2)
_cell_angle_gamma                90
_cell_volume                     797.239
_exptl_crystal_colour            red
_exptl_crystal_description       needle-like
_cell_formula_units_Z            2
loop_
_atom_site_label
_atom_site_type_symbol
_atom_site_fract_x
_atom_site_fract_y
_atom_site_fract_z
C1 C 0.2114(11) 0.0953(19) 0.0966(9)
H1 H 0.281906 0.149370 0.068774
C2 C 0.1531(11) -0.098(2) 0.0501(10)
H2 H 0.185312 -0.167453 -0.008427
C3 C 0.0515(11) -0.181(2) 0.0899(10)
H3 H 0.015153 -0.309022 0.059770
C4 C 0.0020(11) -0.077(2) 0.1749(10)
H4 H -0.068156 -0.133978 0.202085
C5 C 0.0582(11) 0.119(2) 0.2216(10)
H5 H 0.023599 0.190906 0.278318
C6 C 0.1646(9) 0.2034(19) 0.1826(8)
C7 C 0.2256(9) 0.4120(18) 0.2312(8)
C8 C 0.2358(9) 0.6765(19) 0.3629(8)
C9 C 0.3756(9) 0.6682(19) 0.2256(8)
C10 C 0.4727(8) 0.8177(12) 0.2006(6)
C11 C 0.5526(9) 0.825(2) 0.1176(8)
H6 H 0.548274 0.715965 0.063767
C12 C 0.6391(11) 0.996(2) 0.1153(9)
H7 H 0.692625 0.998050 0.060623
C13 C 0.6454(9) 1.166(2) 0.1965(8)
H8 H 0.702663 1.278841 0.193515
C14 C 0.5668(9) 1.1660(19) 0.2805(8)
H9 H 0.570648 1.277285 0.333141
C15 C 0.4809(8) 0.9895(12) 0.2824(7)
C16 C 0.3885(8) 0.9529(17) 0.3589(7)
C17 C 0.3135(7) 0.9931(12) 0.4486(7)
C18 C 0.3229(8) 1.1741(18) 0.5239(7)
H10 H 0.383365 1.281662 0.521106
C19 C 0.2374(9) 1.183(2) 0.6021(8)
H11 H 0.242109 1.297472 0.653092
C20 C 0.1426(11) 1.019(2) 0.6050(9)
H12 H 0.085662 1.029380 0.656603
C21 C 0.1360(8) 0.841(2) 0.5290(7)
H13 H 0.075339 0.734161 0.531942
C22 C 0.2199(7) 0.8254(12) 0.4493(7)
N1 N 0.3221(7) 0.4865(17) 0.1798(7)
N2 N 0.1776(8) 0.4922(16) 0.3196(6)
N3 N 0.3336(7) 0.7624(15) 0.3168(6)
loop_
_geom_bond_atom_site_label_1
_geom_bond_atom_site_label_2
_geom_bond_site_symmetry_1
_geom_bond_site_symmetry_2
C1 H1 1_555 1_555
C2 C1 1_555 1_555
H2 C2 1_555 1_555
C3 C2 1_555 1_555
H3 C3 1_555 1_555
C4 C3 1_555 1_555
H4 C4 1_555 1_555
C5 C4 1_555 1_555
H5 C5 1_555 1_555
C6 C1 1_555 1_555
C7 C6 1_555 1_555
C8 C22 1_555 1_555
C9 C10 1_555 1_555
C10 C11 1_555 1_555
C11 H6 1_555 1_555
C12 C11 1_555 1_555
H7 C12 1_555 1_555
C13 C12 1_555 1_555
H8 C13 1_555 1_555
C14 C13 1_555 1_555
H9 C14 1_555 1_555
C15 C10 1_555 1_555
C16 C15 1_555 1_555
C17 C16 1_555 1_555
C18 C17 1_555 1_555
H10 C18 1_555 1_555
C19 C18 1_555 1_555
H11 C19 1_555 1_555
C20 C19 1_555 1_555
H12 C20 1_555 1_555
C21 C20 1_555 1_555
H13 C21 1_555 1_555
C22 C17 1_555 1_555
N1 C7 1_555 1_555
N2 C7 1_555 1_555
N3 C8 1_555 1_555
C5 C6 1_555 1_555
C8 N2 1_555 1_555
C9 N1 1_555 1_555
C9 N3 1_555 1_555
C14 C15 1_555 1_555
C16 N3 1_555 1_555
C21 C22 1_555 1_555

#END
