
#######################################################################
#
#                 Cambridge Crystallographic Data Centre
#                                CCDC 
#
#######################################################################
#
# If this CIF has been generated from an entry in the Cambridge 
# Structural Database, then it will include bibliographic, chemical, 
# crystal, experimental, refinement or atomic coordinate data resulting 
# from the CCDC's data processing and validation procedures.
#
#######################################################################

data_DISXEL
_chemical_formula_moiety         'C16 H20 Cl1 N1 O1'
_chemical_name_systematic        
5-(t-butyl)-2-((4-chlorophenyl)amino)cyclohex-2-en-1-one
_symmetry_cell_setting           orthorhombic
_symmetry_space_group_name_H-M   'P b c n'
_symmetry_Int_Tables_number      60
_space_group_name_Hall           '-P 2n 2ab'
loop_
_symmetry_equiv_pos_site_id
_symmetry_equiv_pos_as_xyz
1 x,y,z
2 1/2+x,1/2-y,-z
3 -x,y,1/2-z
4 1/2-x,1/2-y,1/2+z
5 -x,-y,-z
6 1/2-x,1/2+y,z
7 x,-y,1/2+z
8 1/2+x,1/2+y,1/2-z
_cell_length_a                   27.949(2)
_cell_length_b                   9.3887(8)
_cell_length_c                   11.0135(8)
_cell_angle_alpha                90
_cell_angle_beta                 90
_cell_angle_gamma                90
_cell_volume                     2890
_exptl_crystal_colour            colorless
_exptl_crystal_description       block
_cell_formula_units_Z            8
_exptl_crystal_recrystallization_method 'Vapour deposition'
loop_
_atom_site_label
_atom_site_type_symbol
_atom_site_fract_x
_atom_site_fract_y
_atom_site_fract_z
Cl1 Cl 0.660698(16) 0.56598(5) 0.70143(4)
O1 O 0.44168(5) 0.15814(14) 0.28930(11)
N1 N 0.50877(5) 0.23945(17) 0.44957(13)
H1 H 0.5158 0.2146 0.3746
C1 C 0.31096(7) -0.0519(2) 0.60486(19)
H2 H 0.2785 -0.0800 0.6283
H3 H 0.3336 -0.0821 0.6678
H4 H 0.3194 -0.0973 0.5276
C2 C 0.31326(6) 0.11078(19) 0.59051(16)
C3 C 0.36398(6) 0.16334(17) 0.55341(14)
H5 H 0.3613 0.2678 0.5372
C4 C 0.40183(6) 0.14466(19) 0.65209(15)
H6 H 0.3932 0.2045 0.7228
H7 H 0.4020 0.0441 0.6791
C5 C 0.45102(6) 0.1843(2) 0.60973(16)
H8 H 0.4747 0.2015 0.6699
C6 C 0.46411(6) 0.19725(18) 0.49290(15)
C7 C 0.54345(6) 0.31679(17) 0.51206(15)
C8 C 0.59089(6) 0.30791(19) 0.47270(16)
H9 H 0.5987 0.2479 0.4062
C9 C 0.62659(6) 0.3855(2) 0.52940(16)
H10 H 0.6586 0.3795 0.5012
C10 C 0.61546(6) 0.47177(18) 0.62732(15)
C11 C 0.53279(6) 0.40835(19) 0.60850(16)
H11 H 0.5006 0.4182 0.6346
C12 C 0.56853(6) 0.48505(18) 0.66669(16)
H12 H 0.5609 0.5460 0.7328
C13 C 0.29884(7) 0.1802(2) 0.71127(17)
H13 H 0.2669 0.1471 0.7348
H14 H 0.2984 0.2840 0.7018
H15 H 0.3220 0.1539 0.7743
C14 C 0.27687(7) 0.1556(3) 0.49337(19)
H16 H 0.2449 0.1225 0.5168
H17 H 0.2858 0.1134 0.4152
H18 H 0.2767 0.2597 0.4861
C15 C 0.38266(6) 0.09440(18) 0.43692(15)
H19 H 0.3858 -0.0095 0.4501
H20 H 0.3590 0.1092 0.3713
C16 C 0.43028(6) 0.15324(17) 0.39666(15)
loop_
_geom_bond_atom_site_label_1
_geom_bond_atom_site_label_2
_geom_bond_site_symmetry_1
_geom_bond_site_symmetry_2
Cl1 C10 1_555 1_555
O1 C16 1_555 1_555
N1 H1 1_555 1_555
C1 H2 1_555 1_555
H3 C1 1_555 1_555
H4 C1 1_555 1_555
C2 C1 1_555 1_555
C3 C2 1_555 1_555
H5 C3 1_555 1_555
C4 C3 1_555 1_555
H6 C4 1_555 1_555
H7 C4 1_555 1_555
C5 C4 1_555 1_555
H8 C5 1_555 1_555
C6 N1 1_555 1_555
C7 N1 1_555 1_555
C8 C7 1_555 1_555
H9 C8 1_555 1_555
C9 C8 1_555 1_555
H10 C9 1_555 1_555
C10 C9 1_555 1_555
C11 C7 1_555 1_555
H11 C11 1_555 1_555
C12 C10 1_555 1_555
H12 C12 1_555 1_555
C13 C2 1_555 1_555
H13 C13 1_555 1_555
H14 C13 1_555 1_555
H15 C13 1_555 1_555
C14 C2 1_555 1_555
H16 C14 1_555 1_555
H17 C14 1_555 1_555
H18 C14 1_555 1_555
C15 C3 1_555 1_555
H19 C15 1_555 1_555
H20 C15 1_555 1_555
C16 C6 1_555 1_555
C5 C6 1_555 1_555
C11 C12 1_555 1_555
C15 C16 1_555 1_555

#END
