
#######################################################################
#
#                 Cambridge Crystallographic Data Centre
#                                CCDC 
#
#######################################################################
#
# If this CIF has been generated from an entry in the Cambridge 
# Structural Database, then it will include bibliographic, chemical, 
# crystal, experimental, refinement or atomic coordinate data resulting 
# from the CCDC's data processing and validation procedures.
#
#######################################################################

data_DIVFAS
_chemical_formula_moiety         'C28 H28 N2 O4'
_chemical_name_systematic        
'(S)-(+)-diethyl 1,2,3,6-tetrahydro-1,2,3-triphenylpyrimidine-4,5-dicarboxylate'
_symmetry_cell_setting           monoclinic
_symmetry_space_group_name_H-M   'P 21'
_symmetry_Int_Tables_number      4
_space_group_name_Hall           'P 2yb'
loop_
_symmetry_equiv_pos_site_id
_symmetry_equiv_pos_as_xyz
1 x,y,z
2 -x,1/2+y,-z
_cell_length_a                   11.584(2)
_cell_length_b                   12.031(2)
_cell_length_c                   18.156(4)
_cell_angle_alpha                90
_cell_angle_beta                 96.06(3)
_cell_angle_gamma                90
_cell_volume                     2516.21
_exptl_crystal_colour            green
_exptl_crystal_description       'long strip'
_chemical_melting_point          '347.9-348.1 K'
_cell_formula_units_Z            4
_exptl_crystal_recrystallization_method dichloromethane/cyclohexane
_exptl_crystal_preparation       ', Luminescent'
loop_
_atom_site_label
_atom_site_type_symbol
_atom_site_fract_x
_atom_site_fract_y
_atom_site_fract_z
N1 N 0.1394(2) 0.0590(2) 1.02474(13)
N2 N 0.2552(2) -0.04762(19) 0.95149(15)
C1 C 0.1116(3) 0.0184(3) 1.09474(16)
C2 C 0.2887(3) -0.1561(2) 0.93807(16)
O1 O 0.4317(2) 0.23547(18) 0.90890(13)
C3 C 0.3251(3) 0.0460(2) 0.93270(19)
H1 H 0.3171 0.0559 0.8794
H2 H 0.4062 0.0311 0.9487
C4 C 0.0700(3) 0.0344(3) 0.89352(16)
C5 C 0.1361(3) -0.0178(3) 0.96220(16)
H3 H 0.0950 -0.0853 0.9748
C6 C 0.2106(3) 0.1502(2) 1.01890(16)
O2 O 0.2671(3) 0.2822(2) 1.11090(15)
C7 C 0.3418(3) 0.2550(3) 0.94782(19)
C8 C 0.3989(3) -0.1794(3) 0.91773(19)
H4 H 0.4484 -0.1210 0.9093
O3 O 0.0842(3) 0.2898(2) 1.05660(17)
O4 O 0.3098(3) 0.3477(2) 0.96161(18)
C9 C 0.2885(3) 0.1512(2) 0.96902(17)
C10 C 0.0063(4) -0.0344(3) 1.0984(2)
H5 H -0.0462 -0.0423 1.0563
C11 C 0.4357(4) -0.2870(3) 0.9099(2)
H6 H 0.5105 -0.3001 0.8976
C12 C -0.0129(3) 0.1153(3) 0.8996(2)
H7 H -0.0279 0.1401 0.9461
C13 C 0.1795(3) 0.2499(3) 1.06333(19)
C14 C 0.0885(4) -0.0023(4) 0.82379(19)
H8 H 0.1428 -0.0580 0.8187
C15 C -0.0742(4) 0.1599(3) 0.8368(2)
H9 H -0.1296 0.2148 0.8413
C16 C 0.1898(4) 0.0292(3) 1.15722(18)
H10 H 0.2613 0.0632 1.1546
C17 C 0.0552(6) -0.0622(4) 1.2283(3)
H11 H 0.0346 -0.0876 1.2736
C18 C 0.3660(5) -0.3734(3) 0.9197(3)
H12 H 0.3914 -0.4459 0.9141
C19 C 0.4946(4) 0.3307(3) 0.8846(2)
H13 H 0.5256 0.3748 0.9269
H14 H 0.4434 0.3772 0.8520
C20 C 0.2184(4) -0.2454(3) 0.9468(3)
H15 H 0.1432 -0.2339 0.9589
C21 C 0.2577(5) -0.3529(4) 0.9380(4)
H16 H 0.2085 -0.4123 0.9449
C22 C -0.0193(5) -0.0750(4) 1.1656(2)
H17 H -0.0891 -0.1122 1.1683
C23 C 0.0273(5) 0.0427(5) 0.7615(2)
H18 H 0.0408 0.0180 0.7147
C24 C 0.1592(6) -0.0123(4) 1.2246(2)
H19 H 0.2108 -0.0055 1.2672
C25 C 0.5898(6) 0.2873(5) 0.8449(4)
H20 H 0.6366 0.2372 0.8766
H21 H 0.6369 0.3479 0.8311
H22 H 0.5579 0.2485 0.8012
C26 C -0.0534(5) 0.1237(4) 0.7691(3)
H23 H -0.0944 0.1542 0.7271
C27 C 0.3046(18) 0.4737(13) 1.1312(19)
H24 H 0.3842 0.4552 1.1268
H25 H 0.3013 0.5333 1.1660
H26 H 0.2676 0.4963 1.0838
C28 C 0.2467(6) 0.3796(5) 1.1563(4)
H27 H 0.1641 0.3944 1.1535
H28 H 0.2747 0.3647 1.2076
N3 N 0.3899(2) 0.5101(2) 0.50828(13)
O5 O 0.2349(2) 0.3218(2) 0.59469(13)
O6 O 0.1080(3) 0.2982(2) 0.36618(15)
C30 C 0.2268(3) 0.6759(4) 0.41929(17)
O7 O 0.4226(3) 0.2906(3) 0.58140(15)
O8 O 0.2106(3) 0.2062(2) 0.45830(16)
N4 N 0.2960(3) 0.5876(3) 0.39557(14)
C31 C 0.3177(3) 0.4183(3) 0.50055(17)
C32 C 0.4071(3) 0.5706(3) 0.43962(16)
H34 H 0.4398 0.6437 0.4534
C33 C 0.4293(3) 0.5560(3) 0.57855(16)
C34 C 0.3587(4) 0.5561(3) 0.63559(19)
H35 H 0.2833 0.5287 0.6279
C35 C 0.5391(3) 0.6015(3) 0.58983(19)
H36 H 0.5861 0.6036 0.5514
C36 C 0.1902(3) 0.2917(4) 0.4238(2)
C37 C 0.2493(3) 0.3986(3) 0.43664(19)
C38 C 0.2660(4) 0.7837(4) 0.4145(2)
H37 H 0.3385 0.7966 0.3986
C39 C 0.5620(4) 0.4262(4) 0.4230(2)
H38 H 0.5571 0.4018 0.4712
C40 C 0.4918(3) 0.5105(3) 0.39495(17)
C41 C 0.3323(4) 0.3358(3) 0.56329(18)
C42 C 0.5790(4) 0.6441(4) 0.6589(2)
H39 H 0.6527 0.6755 0.6662
C43 C 0.4024(5) 0.5979(4) 0.7052(2)
H40 H 0.3565 0.5965 0.7443
C44 C 0.1185(4) 0.6581(5) 0.4432(2)
H41 H 0.0912 0.5860 0.4479
C45 C 0.5008(4) 0.5459(4) 0.3227(2)
H42 H 0.4538 0.6033 0.3025
C46 C 0.5790(6) 0.4960(5) 0.2812(3)
H43 H 0.5849 0.5208 0.2332
C47 C 0.5123(5) 0.6408(4) 0.7159(2)
H44 H 0.5412 0.6676 0.7622
C48 C 0.6404(4) 0.3763(5) 0.3808(3)
H45 H 0.6882 0.3193 0.4008
C49 C 0.0437(5) 0.1970(4) 0.3457(3)
H46 H 0.0960 0.1409 0.3300
H47 H 0.0085 0.1685 0.3880
C50 C 0.6475(5) 0.4114(5) 0.3090(3)
H48 H 0.6989 0.3772 0.2800
C51 C 0.2411(4) 0.4820(3) 0.37472(19)
H49 H 0.2773 0.4511 0.3335
H50 H 0.1599 0.4949 0.3580
C52 C 0.0512(5) 0.7475(9) 0.4599(3)
H51 H -0.0226 0.7358 0.4742
C53 C 0.2000(5) 0.8722(5) 0.4328(3)
H52 H 0.2283 0.9442 0.4296
C54 C 0.0937(7) 0.8549(8) 0.4554(3)
H53 H 0.0491 0.9150 0.4678
C55 C 0.2358(5) 0.2345(5) 0.6507(2)
H54 H 0.1611 0.1973 0.6463
H55 H 0.2947 0.1799 0.6424
C56 C 0.2592(9) 0.2796(7) 0.7229(3)
H56 H 0.3295 0.3225 0.7258
H57 H 0.2681 0.2203 0.7585
H58 H 0.1960 0.3266 0.7334
C57 C -0.0453(7) 0.2213(6) 0.2860(5)
H59 H -0.1032 0.2681 0.3040
H60 H -0.0805 0.1532 0.2675
H61 H -0.0112 0.2587 0.2469
H29? H 0.1855 0.4241 1.1304
H30? H 0.2198 0.3546 1.2023
C29? C 0.338(3) 0.442(3) 1.172(2)
H31? H 0.3955 0.4011 1.2024
H32? H 0.3165 0.5071 1.1972
H33? H 0.3682 0.4627 1.1265
loop_
_geom_bond_atom_site_label_1
_geom_bond_atom_site_label_2
_geom_bond_site_symmetry_1
_geom_bond_site_symmetry_2
N1 C1 1_555 1_555
N2 C2 1_555 1_555
C1 C10 1_555 1_555
C2 C8 1_555 1_555
O1 C7 1_555 1_555
C3 N2 1_555 1_555
H1 C3 1_555 1_555
H2 C3 1_555 1_555
C4 C5 1_555 1_555
C5 N1 1_555 1_555
H3 C5 1_555 1_555
C6 N1 1_555 1_555
O2 C13 1_555 1_555
C7 O4 1_555 1_555
C8 H4 1_555 1_555
O3 C13 1_555 1_555
C9 C3 1_555 1_555
C10 H5 1_555 1_555
C11 C8 1_555 1_555
H6 C11 1_555 1_555
C12 C4 1_555 1_555
H7 C12 1_555 1_555
C13 C6 1_555 1_555
C14 C4 1_555 1_555
H8 C14 1_555 1_555
C15 C12 1_555 1_555
H9 C15 1_555 1_555
C16 C1 1_555 1_555
H10 C16 1_555 1_555
C17 H11 1_555 1_555
C18 C11 1_555 1_555
H12 C18 1_555 1_555
C19 O1 1_555 1_555
H13 C19 1_555 1_555
H14 C19 1_555 1_555
C20 C2 1_555 1_555
H15 C20 1_555 1_555
C21 C18 1_555 1_555
H16 C21 1_555 1_555
C22 C10 1_555 1_555
H17 C22 1_555 1_555
C23 C14 1_555 1_555
H18 C23 1_555 1_555
C24 C16 1_555 1_555
H19 C24 1_555 1_555
C25 C19 1_555 1_555
H20 C25 1_555 1_555
H21 C25 1_555 1_555
H22 C25 1_555 1_555
C26 C15 1_555 1_555
H23 C26 1_555 1_555
C27 H24 1_555 1_555
H25 C27 1_555 1_555
H26 C27 1_555 1_555
C28 O2 1_555 1_555
H27 C28 1_555 1_555
H28 C28 1_555 1_555
N3 C31 1_555 1_555
O5 C41 1_555 1_555
O6 C36 1_555 1_555
C30 N4 1_555 1_555
O7 C41 1_555 1_555
O8 C36 1_555 1_555
N4 C32 1_555 1_555
C31 C37 1_555 1_555
C32 N3 1_555 1_555
H34 C32 1_555 1_555
C33 N3 1_555 1_555
C34 C33 1_555 1_555
H35 C34 1_555 1_555
C35 C33 1_555 1_555
H36 C35 1_555 1_555
C36 C37 1_555 1_555
C37 C51 1_555 1_555
C38 C30 1_555 1_555
H37 C38 1_555 1_555
C39 H38 1_555 1_555
C40 C32 1_555 1_555
C41 C31 1_555 1_555
C42 C35 1_555 1_555
H39 C42 1_555 1_555
C43 C34 1_555 1_555
H40 C43 1_555 1_555
C44 C30 1_555 1_555
H41 C44 1_555 1_555
C45 C40 1_555 1_555
H42 C45 1_555 1_555
C46 C45 1_555 1_555
H43 C46 1_555 1_555
C47 C42 1_555 1_555
H44 C47 1_555 1_555
C48 C39 1_555 1_555
H45 C48 1_555 1_555
C49 O6 1_555 1_555
H46 C49 1_555 1_555
H47 C49 1_555 1_555
C50 C46 1_555 1_555
H48 C50 1_555 1_555
C51 N4 1_555 1_555
H49 C51 1_555 1_555
H50 C51 1_555 1_555
C52 C44 1_555 1_555
H51 C52 1_555 1_555
C53 C38 1_555 1_555
H52 C53 1_555 1_555
C54 C52 1_555 1_555
H53 C54 1_555 1_555
C55 O5 1_555 1_555
H54 C55 1_555 1_555
H55 C55 1_555 1_555
C56 C55 1_555 1_555
H56 C56 1_555 1_555
H57 C56 1_555 1_555
H58 C56 1_555 1_555
C57 C49 1_555 1_555
H59 C57 1_555 1_555
H60 C57 1_555 1_555
H61 C57 1_555 1_555
N2 C5 1_555 1_555
C6 C9 1_555 1_555
C7 C9 1_555 1_555
C17 C22 1_555 1_555
C17 C24 1_555 1_555
C20 C21 1_555 1_555
C23 C26 1_555 1_555
C27 C28 1_555 1_555
C39 C40 1_555 1_555
C43 C47 1_555 1_555
C48 C50 1_555 1_555
C53 C54 1_555 1_555

#END
