
#######################################################################
#
#                 Cambridge Crystallographic Data Centre
#                                CCDC 
#
#######################################################################
#
# If this CIF has been generated from an entry in the Cambridge 
# Structural Database, then it will include bibliographic, chemical, 
# crystal, experimental, refinement or atomic coordinate data resulting 
# from the CCDC's data processing and validation procedures.
#
#######################################################################

data_DIVGOH
_chemical_formula_moiety         'C26 H23 Br1 N2 O4'
_chemical_name_systematic        
'(+-)-dimthyl 2-(4-bromophenyl)-1,2,3,6-tetrahydro-1,3-diphenylpyrimidine-4,5-dicarboxylate'
_symmetry_cell_setting           monoclinic
_symmetry_space_group_name_H-M   'P 21/c'
_symmetry_Int_Tables_number      14
_space_group_name_Hall           '-P 2ybc'
loop_
_symmetry_equiv_pos_site_id
_symmetry_equiv_pos_as_xyz
1 x,y,z
2 -x,1/2+y,1/2-z
3 -x,-y,-z
4 x,1/2-y,1/2+z
_cell_length_a                   10.863(4)
_cell_length_b                   11.675(4)
_cell_length_c                   19.581(7)
_cell_angle_alpha                90
_cell_angle_beta                 77.940(5)
_cell_angle_gamma                90
_cell_volume                     2428.56
_exptl_crystal_colour            colorless
_exptl_crystal_description       block
_chemical_melting_point          '442.1-442.7 K'
_cell_formula_units_Z            4
_exptl_crystal_recrystallization_method dichloromethane/cyclohexane
_exptl_crystal_preparation       ', Luminescent'
loop_
_atom_site_label
_atom_site_type_symbol
_atom_site_fract_x
_atom_site_fract_y
_atom_site_fract_z
Br1 Br 1.52708(6) 0.16350(6) 0.10206(4)
C1 C 1.1172(5) 0.0238(5) 0.1551(3)
C2 C 1.3260(6) 0.0203(5) 0.0842(3)
H1 H 1.3840 -0.0098 0.0468
C3 C 1.2750(6) 0.1513(5) 0.1790(3)
H2 H 1.2990 0.2094 0.2060
C4 C 0.9866(5) -0.0301(4) 0.1711(3)
H3 H 0.9928 -0.1047 0.1931
C5 C 1.2055(6) -0.0211(4) 0.0999(3)
H4 H 1.1825 -0.0802 0.0732
C6 C 1.3610(5) 0.1067(5) 0.1240(4)
C7 C 1.1534(6) 0.1104(5) 0.1945(3)
H5 H 1.0955 0.1413 0.2317
N1 N 0.8954(4) 0.0408(4) 0.2202(2)
N2 N 0.9426(4) -0.0490(4) 0.1064(2)
C8 C 0.9271(5) 0.0603(4) 0.0726(2)
H6 H 0.8759 0.0479 0.0382
H7 H 1.0092 0.0865 0.0480
C9 C 0.8482(4) 0.1355(4) 0.1918(3)
C10 C 0.8673(4) 0.1531(4) 0.1221(3)
C11 C 0.8391(5) 0.2644(5) 0.0940(3)
C12 C 0.7886(6) 0.2245(5) 0.2439(3)
O1 O 0.8276(4) 0.2510(3) 0.0270(2)
O2 O 0.8318(4) 0.3549(3) 0.1225(2)
O3 O 0.6730(4) 0.2498(3) 0.23561(18)
O4 O 0.8397(4) 0.2656(3) 0.2866(2)
C13 C 0.9004(5) -0.0575(5) 0.3292(3)
H8 H 0.9877 -0.0615 0.3167
C14 C 0.7021(6) -0.0034(5) 0.3038(3)
H9 H 0.6555 0.0271 0.2733
C15 C 0.8320(6) -0.0065(4) 0.2849(3)
C16 C 0.8372(8) -0.1022(5) 0.3920(3)
H10 H 0.8828 -0.1369 0.4216
C17 C 0.7095(8) -0.0968(6) 0.4117(4)
H11 H 0.6685 -0.1272 0.4543
C18 C 0.6416(6) -0.0457(5) 0.3679(4)
H12 H 0.5546 -0.0396 0.3817
C19 C 0.8552(5) -0.1379(5) 0.1078(3)
C20 C 0.7408(6) -0.1215(5) 0.0893(3)
H13 H 0.7161 -0.0481 0.0795
C21 C 0.6630(7) -0.2129(8) 0.0852(4)
H14 H 0.5887 -0.2008 0.0698
C22 C 0.8863(6) -0.2481(5) 0.1233(3)
H15 H 0.9637 -0.2617 0.1351
C23 C 0.8050(8) -0.3388(5) 0.1218(3)
H16 H 0.8274 -0.4121 0.1334
C24 C 0.6920(8) -0.3212(8) 0.1033(3)
H17 H 0.6360 -0.3814 0.1031
C25 C 0.6148(6) 0.3492(5) 0.2741(3)
H18 H 0.6221 0.3433 0.3220
H19 H 0.5275 0.3524 0.2718
H20 H 0.6564 0.4175 0.2540
C26 C 0.8038(6) 0.3552(5) -0.0082(3)
H21 H 0.7274 0.3899 0.0167
H22 H 0.7954 0.3374 -0.0549
H23 H 0.8726 0.4074 -0.0099
loop_
_geom_bond_atom_site_label_1
_geom_bond_atom_site_label_2
_geom_bond_site_symmetry_1
_geom_bond_site_symmetry_2
Br1 C6 1_555 1_555
C1 C4 1_555 1_555
C2 H1 1_555 1_555
C3 H2 1_555 1_555
C4 H3 1_555 1_555
C5 C1 1_555 1_555
H4 C5 1_555 1_555
C6 C2 1_555 1_555
C7 C1 1_555 1_555
H5 C7 1_555 1_555
N1 C4 1_555 1_555
N2 C4 1_555 1_555
C8 N2 1_555 1_555
H6 C8 1_555 1_555
H7 C8 1_555 1_555
C9 N1 1_555 1_555
C10 C8 1_555 1_555
C11 C10 1_555 1_555
C12 C9 1_555 1_555
O1 C11 1_555 1_555
O2 C11 1_555 1_555
O3 C12 1_555 1_555
O4 C12 1_555 1_555
C13 H8 1_555 1_555
C14 H9 1_555 1_555
C15 N1 1_555 1_555
C16 C13 1_555 1_555
H10 C16 1_555 1_555
C17 C16 1_555 1_555
H11 C17 1_555 1_555
C18 C14 1_555 1_555
H12 C18 1_555 1_555
C19 N2 1_555 1_555
C20 C19 1_555 1_555
H13 C20 1_555 1_555
C21 C20 1_555 1_555
H14 C21 1_555 1_555
C22 C19 1_555 1_555
H15 C22 1_555 1_555
C23 C22 1_555 1_555
H16 C23 1_555 1_555
C24 C21 1_555 1_555
H17 C24 1_555 1_555
C25 O3 1_555 1_555
H18 C25 1_555 1_555
H19 C25 1_555 1_555
H20 C25 1_555 1_555
C26 O1 1_555 1_555
H21 C26 1_555 1_555
H22 C26 1_555 1_555
H23 C26 1_555 1_555
C2 C5 1_555 1_555
C3 C6 1_555 1_555
C3 C7 1_555 1_555
C9 C10 1_555 1_555
C13 C15 1_555 1_555
C14 C15 1_555 1_555
C17 C18 1_555 1_555
C23 C24 1_555 1_555

#END
