
#######################################################################
#
#                 Cambridge Crystallographic Data Centre
#                                CCDC 
#
#######################################################################
#
# If this CIF has been generated from an entry in the Cambridge 
# Structural Database, then it will include bibliographic, chemical, 
# crystal, experimental, refinement or atomic coordinate data resulting 
# from the CCDC's data processing and validation procedures.
#
#######################################################################

data_DIVVOT01
_chemical_name_common            Octamethyl-perhydrocyclotetrafurfurylene
_chemical_formula_moiety         'C28 H48 O4'
_chemical_name_systematic        
2,2,7,7,12,12,17,17-Octamethyl-21,22,23,24-tetraoxapentacyclo(16.2.1.1^3,6^.1^8,11^.1^13,16^)tetracosane
_symmetry_cell_setting           triclinic
_symmetry_space_group_name_H-M   'P -1'
_symmetry_Int_Tables_number      2
_space_group_name_Hall           '-P 1'
loop_
_symmetry_equiv_pos_site_id
_symmetry_equiv_pos_as_xyz
1 x,y,z
2 -x,-y,-z
_cell_length_a                   12.909(5)
_cell_length_b                   10.422(4)
_cell_length_c                   11.052(4)
_cell_angle_alpha                108.35(3)
_cell_angle_beta                 100.07(3)
_cell_angle_gamma                70.06(3)
_cell_volume                     1322.89
_cell_formula_units_Z            2
loop_
_atom_site_label
_atom_site_type_symbol
_atom_site_fract_x
_atom_site_fract_y
_atom_site_fract_z
O1 O 0.7573(3) -0.2760(4) -0.2248(4)
O2 O 0.7271(3) 0.0104(4) -0.3512(4)
O3 O 0.7417(3) 0.3120(4) -0.0830(4)
O4 O 0.7552(3) 0.0338(4) 0.0436(3)
C1 C 0.6823(5) -0.2577(7) -0.3353(6)
C2 C 0.7460(5) -0.2458(6) -0.4360(5)
C3 C 0.8042(4) -0.1300(6) -0.3819(5)
C4 C 0.7932(5) 0.1047(6) -0.3268(6)
C5 C 0.7235(5) 0.2573(6) -0.3160(5)
C6 C 0.6633(5) 0.3308(7) -0.1896(6)
C7 C 0.6808(5) 0.3442(6) 0.0251(5)
C8 C 0.7603(5) 0.2817(6) 0.1302(6)
C9 C 0.8241(5) 0.1222(6) 0.0784(6)
C10 C 0.8287(5) -0.1087(6) 0.0197(5)
C11 C 0.7695(5) -0.2181(6) 0.0068(5)
C12 C 0.6944(5) -0.2360(6) -0.1187(6)
C13 C 0.9195(5) -0.1000(6) 0.1280(6)
C14 C 0.9174(6) 0.0562(7) 0.1687(7)
C15 C 0.5818(5) 0.2925(7) -0.0282(7)
C16 C 0.5747(5) 0.2725(7) -0.1702(6)
C17 C 0.8706(5) 0.0347(6) -0.4346(6)
C18 C 0.8804(5) -0.1235(7) -0.4697(6)
C19 C 0.5834(5) -0.1338(7) -0.2819(6)
C20 C 0.5967(5) -0.1131(7) -0.1414(6)
C21 C 0.8580(6) -0.3652(6) 0.0011(7)
C22 C 0.6984(6) -0.1778(8) 0.1182(6)
C23 C 0.6944(6) 0.3047(7) 0.2388(6)
C24 C 0.8474(6) 0.3610(7) 0.1745(6)
C25 C 0.8013(6) 0.3414(7) -0.3116(7)
C26 C 0.6356(6) 0.2734(8) -0.4262(6)
C27 C 0.6668(6) -0.2192(8) -0.5498(6)
C28 C 0.8349(6) -0.3887(6) -0.4780(7)
loop_
_geom_bond_atom_site_label_1
_geom_bond_atom_site_label_2
_geom_bond_site_symmetry_1
_geom_bond_site_symmetry_2
O1 C1 1_555 1_555
O2 C3 1_555 1_555
O3 C6 1_555 1_555
O4 C9 1_555 1_555
C1 C2 1_555 1_555
C2 C3 1_555 1_555
C3 C18 1_555 1_555
C4 O2 1_555 1_555
C5 C4 1_555 1_555
C6 C5 1_555 1_555
C7 O3 1_555 1_555
C8 C7 1_555 1_555
C9 C8 1_555 1_555
C10 O4 1_555 1_555
C11 C10 1_555 1_555
C12 O1 1_555 1_555
C13 C10 1_555 1_555
C14 C9 1_555 1_555
C15 C7 1_555 1_555
C16 C6 1_555 1_555
C17 C4 1_555 1_555
C18 C17 1_555 1_555
C19 C1 1_555 1_555
C20 C12 1_555 1_555
C21 C11 1_555 1_555
C22 C11 1_555 1_555
C23 C8 1_555 1_555
C24 C8 1_555 1_555
C25 C5 1_555 1_555
C26 C5 1_555 1_555
C27 C2 1_555 1_555
C28 C2 1_555 1_555
C11 C12 1_555 1_555
C13 C14 1_555 1_555
C15 C16 1_555 1_555
C19 C20 1_555 1_555

#END
