
#######################################################################
#
#                 Cambridge Crystallographic Data Centre
#                                CCDC 
#
#######################################################################
#
# If this CIF has been generated from an entry in the Cambridge 
# Structural Database, then it will include bibliographic, chemical, 
# crystal, experimental, refinement or atomic coordinate data resulting 
# from the CCDC's data processing and validation procedures.
#
#######################################################################

data_DIWFUN01
_chemical_formula_moiety         'C44 H22 F4 N4'
_chemical_name_systematic        5,10,15,20-tetrakis(3-fluorophenyl)porphyrin
_symmetry_cell_setting           monoclinic
_symmetry_space_group_name_H-M   'P 21/c'
_symmetry_Int_Tables_number      14
_space_group_name_Hall           '-P 2ybc'
loop_
_symmetry_equiv_pos_site_id
_symmetry_equiv_pos_as_xyz
1 x,y,z
2 -x,1/2+y,1/2-z
3 -x,-y,-z
4 x,1/2-y,1/2+z
_cell_length_a                   14.904(7)
_cell_length_b                   9.362(5)
_cell_length_c                   12.809(6)
_cell_angle_alpha                90
_cell_angle_beta                 112.563(7)
_cell_angle_gamma                90
_cell_volume                     1650.46
_exptl_crystal_colour            purple
_exptl_crystal_description       irregular
_cell_formula_units_Z            2
_chemical_properties_physical    Light-sensitive
_exptl_crystal_recrystallization_method 
'Re-crystallisation from solvent: 1,3-dichlorobenzene'
loop_
_atom_site_label
_atom_site_type_symbol
_atom_site_fract_x
_atom_site_fract_y
_atom_site_fract_z
F1 F 0.0322(3) 0.3792(4) -0.0724(3)
F2 F 0.6925(2) 0.4590(3) -0.0066(2)
N1 N 0.45977(15) 0.4071(2) 0.33986(18)
H1 H 0.473(3) 0.456(4) 0.414(3)
N2 N 0.63944(15) 0.5140(2) 0.51251(17)
C1 C 0.36791(19) 0.3595(2) 0.2738(2)
C2 C 0.37463(19) 0.2934(3) 0.1763(2)
H2 H 0.3225 0.2511 0.1155
C3 C 0.4676(2) 0.3014(3) 0.1855(2)
H3 H 0.4923 0.2646 0.1327
C4 C 0.52272(19) 0.3746(2) 0.2882(2)
C5 C 0.62183(18) 0.4044(2) 0.3294(2)
C6 C 0.67568(18) 0.4717(2) 0.4342(2)
C7 C 0.77748(18) 0.5078(2) 0.4701(2)
H4 H 0.8182 0.4908 0.4297
C8 C 0.80330(18) 0.5706(2) 0.5727(2)
H5 H 0.8660 0.6050 0.6189
C9 C 0.71712(19) 0.5751(2) 0.5984(2)
C10 C 0.28563(19) 0.3675(2) 0.3009(2)
C11 C 0.19221(19) 0.3108(3) 0.2151(2)
C12 C 0.1514(2) 0.3727(3) 0.1081(2)
H6 H 0.1830 0.4508 0.0891
C13 C 0.0649(2) 0.3205(4) 0.0293(3)
C14 C 0.0178(2) 0.2066(4) 0.0526(3)
H7 H -0.0409 0.1709 -0.0025
C15 C 0.0584(2) 0.1450(3) 0.1589(3)
C16 C 0.1453(2) 0.1943(3) 0.2403(3)
H8 H 0.1725 0.1492 0.3121
C17 C 0.67601(19) 0.3675(3) 0.2562(2)
C18 C 0.6541(2) 0.4327(3) 0.1521(2)
H9 H 0.6024 0.4996 0.1248
C19 C 0.7081(3) 0.3996(3) 0.0883(3)
C20 C 0.7851(2) 0.3047(3) 0.1256(3)
H10 H 0.8226 0.2855 0.0816
C21 C 0.8056(2) 0.2392(4) 0.2279(2)
C22 C 0.7520(2) 0.2675(3) 0.2927(2)
H11 H 0.7666 0.2190 0.3625
F1B F 0.9678(3) 0.6208(4) 1.0724(3)
F2B F 0.3075(2) 0.5410(3) 1.0066(2)
N1B N 0.54023(15) 0.5929(2) 0.66014(18)
H1B H 0.527(3) 0.544(4) 0.586(3)
N2B N 0.36056(15) 0.4860(2) 0.48749(17)
C1B C 0.63209(19) 0.6405(2) 0.7262(2)
C2B C 0.62537(19) 0.7066(3) 0.8237(2)
H2B H 0.6775 0.7489 0.8845
C3B C 0.5324(2) 0.6986(3) 0.8145(2)
H3B H 0.5077 0.7354 0.8673
C4B C 0.47728(19) 0.6254(2) 0.7118(2)
C5B C 0.37817(18) 0.5956(2) 0.6706(2)
C6B C 0.32432(18) 0.5283(2) 0.5658(2)
C7B C 0.22252(18) 0.4922(2) 0.5299(2)
H4B H 0.1818 0.5092 0.5703
C8B C 0.19670(18) 0.4294(2) 0.4273(2)
H5B H 0.1340 0.3950 0.3811
C9B C 0.28288(19) 0.4249(2) 0.4016(2)
C10B C 0.71437(19) 0.6325(2) 0.6991(2)
C11B C 0.80779(19) 0.6892(3) 0.7849(2)
C12B C 0.8486(2) 0.6273(3) 0.8919(2)
H6B H 0.8170 0.5492 0.9109
C13B C 0.9351(2) 0.6795(4) 0.9707(3)
C14B C 0.9822(2) 0.7934(4) 0.9474(3)
H7B H 1.0409 0.8291 1.0025
C15B C 0.9416(2) 0.8550(3) 0.8411(3)
C16B C 0.8547(2) 0.8057(3) 0.7597(3)
H8B H 0.8275 0.8508 0.6879
C17B C 0.32399(19) 0.6325(3) 0.7438(2)
C18B C 0.3459(2) 0.5673(3) 0.8479(2)
H9B H 0.3976 0.5004 0.8752
C19B C 0.2919(3) 0.6004(3) 0.9117(3)
C20B C 0.2149(2) 0.6953(3) 0.8744(3)
H10B H 0.1774 0.7145 0.9184
C21B C 0.1944(2) 0.7608(4) 0.7721(2)
C22B C 0.2480(2) 0.7325(3) 0.7073(2)
H11B H 0.2334 0.7810 0.6375
F3? F 0.0210(3) 0.0295(4) 0.1839(4)
F4? F 0.8797(4) 0.1744(5) 0.2556(4)
loop_
_geom_bond_atom_site_label_1
_geom_bond_atom_site_label_2
_geom_bond_site_symmetry_1
_geom_bond_site_symmetry_2
F1 C13 1_555 1_555
F2 C19 1_555 1_555
N1 H1 1_555 1_555
N2 C6 1_555 1_555
C1 N1 1_555 1_555
C2 C1 1_555 1_555
H2 C2 1_555 1_555
C3 C2 1_555 1_555
H3 C3 1_555 1_555
C4 N1 1_555 1_555
C5 C4 1_555 1_555
C6 C5 1_555 1_555
C7 C6 1_555 1_555
H4 C7 1_555 1_555
C8 C7 1_555 1_555
H5 C8 1_555 1_555
C9 N2 1_555 1_555
C10 C1 1_555 1_555
C11 C10 1_555 1_555
C12 C11 1_555 1_555
H6 C12 1_555 1_555
C13 C12 1_555 1_555
C14 C13 1_555 1_555
H7 C14 1_555 1_555
C15 C14 1_555 1_555
C16 C11 1_555 1_555
H8 C16 1_555 1_555
C17 C5 1_555 1_555
C18 C17 1_555 1_555
H9 C18 1_555 1_555
C19 C18 1_555 1_555
C20 C19 1_555 1_555
H10 C20 1_555 1_555
C21 C20 1_555 1_555
C22 C17 1_555 1_555
H11 C22 1_555 1_555
F1B C13B 1_555 1_555
F2B C19B 1_555 1_555
N1B H1B 1_555 1_555
N2B C6B 1_555 1_555
C1B N1B 1_555 1_555
C2B C1B 1_555 1_555
H2B C2B 1_555 1_555
C3B C2B 1_555 1_555
H3B C3B 1_555 1_555
C4B N1B 1_555 1_555
C5B C4B 1_555 1_555
C6B C5B 1_555 1_555
C7B C6B 1_555 1_555
H4B C7B 1_555 1_555
C8B C7B 1_555 1_555
H5B C8B 1_555 1_555
C9B C10 1_555 1_555
C10B C9 1_555 1_555
C11B C10B 1_555 1_555
C12B C11B 1_555 1_555
H6B C12B 1_555 1_555
C13B C12B 1_555 1_555
C14B C13B 1_555 1_555
H7B C14B 1_555 1_555
C15B C14B 1_555 1_555
C16B C11B 1_555 1_555
H8B C16B 1_555 1_555
C17B C5B 1_555 1_555
C18B C17B 1_555 1_555
H9B C18B 1_555 1_555
C19B C18B 1_555 1_555
C20B C19B 1_555 1_555
H10B C20B 1_555 1_555
C21B C20B 1_555 1_555
C22B C17B 1_555 1_555
H11B C22B 1_555 1_555
C3 C4 1_555 1_555
C8 C9 1_555 1_555
C15 C16 1_555 1_555
C21 C22 1_555 1_555
N2B C9B 1_555 1_555
C1B C10B 1_555 1_555
C3B C4B 1_555 1_555
C8B C9B 1_555 1_555
C15B C16B 1_555 1_555
C21B C22B 1_555 1_555

#END
