
#######################################################################
#
#                 Cambridge Crystallographic Data Centre
#                                CCDC 
#
#######################################################################
#
# If this CIF has been generated from an entry in the Cambridge 
# Structural Database, then it will include bibliographic, chemical, 
# crystal, experimental, refinement or atomic coordinate data resulting 
# from the CCDC's data processing and validation procedures.
#
#######################################################################

data_DIWRUY
_chemical_formula_moiety         'C14 H16 N2 O3'
_chemical_name_systematic        
'ethyl 1-acetamido-2-methyl-1H-indole-3-carboxylate'
_symmetry_cell_setting           monoclinic
_symmetry_space_group_name_H-M   'P 21/c'
_symmetry_Int_Tables_number      14
_space_group_name_Hall           '-P 2ybc'
loop_
_symmetry_equiv_pos_site_id
_symmetry_equiv_pos_as_xyz
1 x,y,z
2 -x,1/2+y,1/2-z
3 -x,-y,-z
4 x,1/2-y,1/2+z
_cell_length_a                   4.7179(9)
_cell_length_b                   31.177(6)
_cell_length_c                   9.2903(19)
_cell_angle_alpha                90
_cell_angle_beta                 91.99(3)
_cell_angle_gamma                90
_cell_volume                     1365.69
_exptl_crystal_colour            colorless
_exptl_crystal_description       Prism
_cell_formula_units_Z            4
loop_
_atom_site_label
_atom_site_type_symbol
_atom_site_fract_x
_atom_site_fract_y
_atom_site_fract_z
O1 O 0.1305(7) 0.40106(12) -0.1627(4)
O2 O 0.3939(9) 0.27887(12) 0.3169(4)
O3 O 0.1302(8) 0.32176(10) 0.4550(4)
N1 N 0.4710(8) 0.39548(13) 0.0750(4)
N2 N 0.5695(9) 0.40826(13) -0.0583(5)
H1 H 0.774(10) 0.4026(14) -0.075(5)
C1 C 0.6522(11) 0.32004(15) 0.0542(6)
H2 H 0.5560 0.3125 -0.0350
H3 H 0.6705 0.2951 0.1143
H4 H 0.8372 0.3310 0.0351
C2 C 0.4850(10) 0.35366(15) 0.1296(5)
C3 C 0.3255(9) 0.35228(15) 0.2503(5)
C4 C 0.1973(9) 0.39479(15) 0.2699(5)
C5 C 0.0071(10) 0.41258(15) 0.3666(5)
H5 H -0.0633 0.3962 0.4410
C6 C -0.0738(10) 0.45543(17) 0.3485(6)
H6 H -0.1949 0.4677 0.4137
C7 C 0.0229(11) 0.48026(17) 0.2347(6)
H7 H -0.0400 0.5084 0.2242
C8 C 0.2107(10) 0.46376(16) 0.1373(6)
H8 H 0.2806 0.4804 0.0635
C9 C 0.2903(9) 0.42044(15) 0.1559(5)
C10 C 0.3838(11) 0.40844(15) -0.1751(6)
C11 C 0.5138(11) 0.41890(17) -0.3180(6)
H9 H 0.4433 0.3992 -0.3902
H10 H 0.7164 0.4164 -0.3084
H11 H 0.4640 0.4477 -0.3458
C12 C 0.2920(11) 0.31392(17) 0.3396(6)
C13 C 0.0641(13) 0.28502(17) 0.5434(6)
H12 H 0.2373 0.2713 0.5790
H13 H -0.0463 0.2643 0.4876
C14 C -0.1018(14) 0.30108(19) 0.6660(7)
H14 H 0.0096 0.3216 0.7204
H15 H -0.1490 0.2775 0.7271
H16 H -0.2727 0.3145 0.6295
loop_
_geom_bond_atom_site_label_1
_geom_bond_atom_site_label_2
_geom_bond_site_symmetry_1
_geom_bond_site_symmetry_2
O1 C10 1_555 1_555
O2 C12 1_555 1_555
O3 C12 1_555 1_555
N1 N2 1_555 1_555
N2 H1 1_555 1_555
C1 H2 1_555 1_555
H3 C1 1_555 1_555
H4 C1 1_555 1_555
C2 N1 1_555 1_555
C3 C2 1_555 1_555
C4 C3 1_555 1_555
C5 C4 1_555 1_555
H5 C5 1_555 1_555
C6 C5 1_555 1_555
H6 C6 1_555 1_555
C7 C6 1_555 1_555
H7 C7 1_555 1_555
C8 C7 1_555 1_555
H8 C8 1_555 1_555
C9 N1 1_555 1_555
C10 N2 1_555 1_555
C11 C10 1_555 1_555
H9 C11 1_555 1_555
H10 C11 1_555 1_555
H11 C11 1_555 1_555
C12 C3 1_555 1_555
C13 O3 1_555 1_555
H12 C13 1_555 1_555
H13 C13 1_555 1_555
C14 C13 1_555 1_555
H14 C14 1_555 1_555
H15 C14 1_555 1_555
H16 C14 1_555 1_555
C1 C2 1_555 1_555
C4 C9 1_555 1_555
C8 C9 1_555 1_555

#END
