
#######################################################################
#
#                 Cambridge Crystallographic Data Centre
#                                CCDC 
#
#######################################################################
#
# If this CIF has been generated from an entry in the Cambridge 
# Structural Database, then it will include bibliographic, chemical, 
# crystal, experimental, refinement or atomic coordinate data resulting 
# from the CCDC's data processing and validation procedures.
#
#######################################################################

data_DIWSOU
_chemical_formula_moiety         'C23 H37 N1 O4 Si1'
_chemical_name_systematic        
't-butyl 4-{[t-butyl(dimethyl)silyl]oxy}-2-(2-oxo-2-phenylethyl)pyrrolidine-1-carboxylate'
_symmetry_cell_setting           orthorhombic
_symmetry_space_group_name_H-M   'P 21 21 21'
_symmetry_Int_Tables_number      19
_space_group_name_Hall           'P 2ac 2ab'
loop_
_symmetry_equiv_pos_site_id
_symmetry_equiv_pos_as_xyz
1 x,y,z
2 1/2-x,-y,1/2+z
3 -x,1/2+y,1/2-z
4 1/2+x,1/2-y,-z
_cell_length_a                   6.16520(10)
_cell_length_b                   19.3082(5)
_cell_length_c                   21.0271(5)
_cell_angle_alpha                90
_cell_angle_beta                 90
_cell_angle_gamma                90
_cell_volume                     2503.04
_exptl_crystal_colour            colorless
_exptl_crystal_description       prismatic
_cell_formula_units_Z            4
loop_
_atom_site_label
_atom_site_type_symbol
_atom_site_fract_x
_atom_site_fract_y
_atom_site_fract_z
Si1 Si 0.61342(12) 0.74773(4) 0.66014(3)
N1 N 0.5554(3) 0.54590(10) 0.55392(9)
O1 O 0.0117(3) 0.49289(14) 0.66616(9)
O2 O 0.8390(3) 0.50557(10) 0.49705(8)
O3 O 0.6108(3) 0.43291(9) 0.55026(8)
O4 O 0.4998(3) 0.67457(9) 0.63711(8)
C1 C 0.6000(5) 0.61771(13) 0.53846(11)
H1 H 0.5875 0.6257 0.4931
H2 H 0.7445 0.6308 0.5522
C2 C 0.4284(4) 0.65796(13) 0.57465(11)
H3 H 0.3854 0.6997 0.5514
C3 C 0.2422(4) 0.60676(13) 0.57870(12)
H4 H 0.1573 0.6073 0.5399
H5 H 0.1479 0.6178 0.6142
C4 C 0.3488(4) 0.53631(13) 0.58825(10)
H6 H 0.2622 0.5001 0.5677
C5 C 0.3877(4) 0.51794(13) 0.65804(11)
H7 H 0.4843 0.4784 0.6602
H8 H 0.4594 0.5566 0.6787
C6 C 0.1826(4) 0.50120(14) 0.69384(11)
C7 C 0.1917(4) 0.49571(12) 0.76454(11)
C8 C 0.3769(5) 0.51110(14) 0.79909(12)
H9 H 0.5028 0.5246 0.7781
C9 C 0.3746(6) 0.50631(17) 0.86490(13)
H10 H 0.4995 0.5164 0.8879
C10 C 0.1906(6) 0.48688(17) 0.89612(13)
H11 H 0.1898 0.4844 0.9403
C11 C 0.0075(6) 0.47112(17) 0.86256(14)
H12 H -0.1177 0.4577 0.8839
C12 C 0.0078(5) 0.47508(15) 0.79720(13)
H13 H -0.1171 0.4637 0.7747
C13 C 0.6830(4) 0.49508(13) 0.53090(10)
C14 C 0.7136(5) 0.36841(14) 0.52906(13)
C15 C 0.5944(7) 0.31518(17) 0.56813(19)
H14 H 0.6110 0.3257 0.6125
H15 H 0.6530 0.2701 0.5596
H16 H 0.4432 0.3159 0.5572
C16 C 0.6688(8) 0.35818(18) 0.45947(15)
H17 H 0.5153 0.3605 0.4520
H18 H 0.7222 0.3137 0.4464
H19 H 0.7403 0.3938 0.4355
C17 C 0.9539(6) 0.36795(19) 0.5438(2)
H20 H 1.0271 0.4001 0.5164
H21 H 1.0109 0.3223 0.5371
H22 H 0.9761 0.3812 0.5873
C18 C 0.8368(6) 0.77205(18) 0.60503(15)
H23 H 0.9485 0.7374 0.6066
H24 H 0.8960 0.8160 0.6175
H25 H 0.7814 0.7753 0.5625
C19 C 0.4123(6) 0.81897(16) 0.6586(2)
H26 H 0.3471 0.8214 0.6172
H27 H 0.4835 0.8620 0.6679
H28 H 0.3022 0.8104 0.6899
C20 C 0.7106(5) 0.72896(15) 0.74273(13)
C21 C 0.8123(7) 0.7938(2) 0.77271(17)
H29 H 0.7069 0.8304 0.7738
H30 H 0.9349 0.8081 0.7479
H31 H 0.8586 0.7834 0.8152
C22 C 0.5170(6) 0.70551(18) 0.78337(14)
H32 H 0.4554 0.6643 0.7654
H33 H 0.4095 0.7415 0.7842
H34 H 0.5653 0.6962 0.8259
C23 C 0.8793(6) 0.67089(19) 0.74148(17)
H35 H 0.9203 0.6593 0.7842
H36 H 1.0049 0.6861 0.7183
H37 H 0.8187 0.6308 0.7211
loop_
_geom_bond_atom_site_label_1
_geom_bond_atom_site_label_2
_geom_bond_site_symmetry_1
_geom_bond_site_symmetry_2
Si1 O4 1_555 1_555
N1 C1 1_555 1_555
O1 C6 1_555 1_555
O2 C13 1_555 1_555
O3 C13 1_555 1_555
O4 C2 1_555 1_555
C1 H1 1_555 1_555
H2 C1 1_555 1_555
C2 C1 1_555 1_555
H3 C2 1_555 1_555
C3 C2 1_555 1_555
H4 C3 1_555 1_555
H5 C3 1_555 1_555
C4 N1 1_555 1_555
H6 C4 1_555 1_555
C5 C4 1_555 1_555
H7 C5 1_555 1_555
H8 C5 1_555 1_555
C6 C5 1_555 1_555
C7 C6 1_555 1_555
C8 C7 1_555 1_555
H9 C8 1_555 1_555
C9 C8 1_555 1_555
H10 C9 1_555 1_555
C10 C9 1_555 1_555
H11 C10 1_555 1_555
C11 C10 1_555 1_555
H12 C11 1_555 1_555
C12 C7 1_555 1_555
H13 C12 1_555 1_555
C13 N1 1_555 1_555
C14 O3 1_555 1_555
C15 C14 1_555 1_555
H14 C15 1_555 1_555
H15 C15 1_555 1_555
H16 C15 1_555 1_555
C16 C14 1_555 1_555
H17 C16 1_555 1_555
H18 C16 1_555 1_555
H19 C16 1_555 1_555
C17 C14 1_555 1_555
H20 C17 1_555 1_555
H21 C17 1_555 1_555
H22 C17 1_555 1_555
C18 Si1 1_555 1_555
H23 C18 1_555 1_555
H24 C18 1_555 1_555
H25 C18 1_555 1_555
C19 Si1 1_555 1_555
H26 C19 1_555 1_555
H27 C19 1_555 1_555
H28 C19 1_555 1_555
C20 Si1 1_555 1_555
C21 C20 1_555 1_555
H29 C21 1_555 1_555
H30 C21 1_555 1_555
H31 C21 1_555 1_555
C22 C20 1_555 1_555
H32 C22 1_555 1_555
H33 C22 1_555 1_555
H34 C22 1_555 1_555
C23 C20 1_555 1_555
H35 C23 1_555 1_555
H36 C23 1_555 1_555
H37 C23 1_555 1_555
C3 C4 1_555 1_555
C11 C12 1_555 1_555

#END
