
#######################################################################
#
#                 Cambridge Crystallographic Data Centre
#                                CCDC 
#
#######################################################################
#
# If this CIF has been generated from an entry in the Cambridge 
# Structural Database, then it will include bibliographic, chemical, 
# crystal, experimental, refinement or atomic coordinate data resulting 
# from the CCDC's data processing and validation procedures.
#
#######################################################################

data_DIXQUY
_chemical_formula_moiety         'C20 H16 O2 S1'
_chemical_name_systematic        
(2-Methyl-7-(2-thienyl)-1-benzofuran-5-yl)(phenyl)methanol
_symmetry_cell_setting           monoclinic
_symmetry_space_group_name_H-M   'P 21/c'
_symmetry_Int_Tables_number      14
_space_group_name_Hall           '-P 2ybc'
loop_
_symmetry_equiv_pos_site_id
_symmetry_equiv_pos_as_xyz
1 x,y,z
2 -x,1/2+y,1/2-z
3 -x,-y,-z
4 x,1/2-y,1/2+z
_cell_length_a                   23.7084(18)
_cell_length_b                   5.5402(4)
_cell_length_c                   24.454(2)
_cell_angle_alpha                90
_cell_angle_beta                 97.866(2)
_cell_angle_gamma                90
_cell_volume                     3181.79
_exptl_crystal_colour            colorless
_exptl_crystal_description       prismatic
_cell_formula_units_Z            8
loop_
_atom_site_label
_atom_site_type_symbol
_atom_site_fract_x
_atom_site_fract_y
_atom_site_fract_z
O1 O 0.43669(7) 1.1679(3) 0.52123(8)
O2 O 0.26257(8) 0.5049(3) 0.61895(7)
H1 H 0.2506 0.3841 0.6329
C1 C 0.40284(10) 0.9903(5) 0.53979(11)
C2 C 0.39461(10) 0.9562(5) 0.59413(11)
C3 C 0.35651(11) 0.7694(5) 0.60201(11)
H2 H 0.3499 0.7345 0.6378
C4 C 0.32817(10) 0.6339(5) 0.55878(11)
C5 C 0.33883(11) 0.6773(5) 0.50528(11)
H3 H 0.3207 0.5861 0.4761
C6 C 0.37677(11) 0.8581(5) 0.49583(11)
C7 C 0.39505(12) 0.9646(6) 0.44759(12)
H4 H 0.3843 0.9169 0.4112
C8 C 0.43028(12) 1.1449(6) 0.46497(12)
C9 C 0.46183(14) 1.3237(6) 0.43586(14)
H5 H 0.4555 1.2920 0.3969
H6 H 0.5018 1.3119 0.4490
H7 H 0.4487 1.4832 0.4428
C10 C 0.28632(10) 0.4382(5) 0.57048(10)
H8 H 0.3076 0.2875 0.5782
C11 C 0.24061(10) 0.3953(4) 0.52227(10)
C12 C 0.24167(13) 0.1967(5) 0.48901(12)
H9 H 0.2705 0.0830 0.4970
C13 C 0.20056(16) 0.1626(6) 0.44374(13)
H10 H 0.2020 0.0270 0.4216
C14 C 0.15804(14) 0.3266(6) 0.43157(12)
H11 H 0.1306 0.3052 0.4009
C15 C 0.15613(12) 0.5225(6) 0.46483(12)
H12 H 0.1268 0.6341 0.4570
C16 C 0.19666(11) 0.5580(5) 0.50972(10)
H13 H 0.1945 0.6930 0.5319
C17 C 0.41975(12) 1.1076(5) 0.63970(12)
C18 C 0.4799(2) 1.3761(9) 0.6954(2)
C19 C 0.4363(2) 1.3439(8) 0.72295(17)
S1 S 0.38794(11) 1.1696(5) 0.69463(10)
C20 C 0.4677(6) 1.244(4) 0.6375(8)
H14 H 0.4886 1.2559 0.6082
H15 H 0.4302(15) 1.416(7) 0.7562(16)
H16 H 0.5174(19) 1.471(9) 0.7037(17)
O3 O 0.12301(7) -0.1104(3) 0.32459(7)
O4 O 0.23686(7) 0.4899(4) 0.15174(8)
H18 H 0.2527 0.6076 0.1404
C22 C 0.14555(10) 0.0451(5) 0.28892(9)
C23 C 0.20074(10) 0.0394(5) 0.27688(9)
C24 C 0.21198(11) 0.2152(5) 0.23837(9)
H19 H 0.2485 0.2223 0.2286
C25 C 0.17163(10) 0.3797(4) 0.21401(9)
C26 C 0.11723(11) 0.3769(5) 0.22867(10)
H20 H 0.0899 0.4865 0.2132
C27 C 0.10417(10) 0.2077(5) 0.26690(10)
C28 C 0.05367(11) 0.1458(5) 0.29054(10)
H21 H 0.0185 0.2222 0.2837
C29 C 0.06678(11) -0.0409(5) 0.32392(11)
C30 C 0.03441(13) -0.1859(7) 0.35999(13)
H22 H -0.0033 -0.1212 0.3587
H23 H 0.0534 -0.1803 0.3972
H24 H 0.0322 -0.3502 0.3474
C31 C 0.18689(10) 0.5662(5) 0.17335(10)
H25 H 0.1958 0.7173 0.1935
C32 C 0.13863(10) 0.6158(4) 0.12724(9)
C33 C 0.12725(11) 0.4555(5) 0.08388(10)
H26 H 0.1488 0.3156 0.0834
C34 C 0.08426(12) 0.5010(6) 0.04134(11)
H27 H 0.0773 0.3928 0.0121
C35 C 0.05164(12) 0.7048(6) 0.04187(12)
H28 H 0.0227 0.7358 0.0131
C36 C 0.06198(13) 0.8620(6) 0.08507(13)
H29 H 0.0394 0.9989 0.0859
C37 C 0.10575(12) 0.8196(5) 0.12765(11)
H30 H 0.1129 0.9294 0.1565
C38 C 0.24361(11) -0.1347(5) 0.29925(10)
C39 C 0.29130(17) -0.4615(7) 0.34681(14)
C40 C 0.32967(17) -0.3805(7) 0.31723(15)
S3 S 0.31003(9) -0.1419(7) 0.27805(11)
C41 C 0.2345(12) -0.300(4) 0.3366(8)
H31 H 0.2018 -0.3183 0.3533
H32 H 0.3006(13) -0.593(6) 0.3699(13)
H33 H 0.3679(16) -0.434(7) 0.3118(15)
S2? S 0.4813(3) 1.2388(17) 0.6483(3)
C21? C 0.4003(9) 1.121(5) 0.6895(8)
H17? H 0.3726 1.0246 0.7020
S4? S 0.2396(7) -0.346(2) 0.3441(5)
C42? C 0.2986(7) -0.147(6) 0.2879(10)
H34? H 0.3154 -0.0363 0.2665
loop_
_geom_bond_atom_site_label_1
_geom_bond_atom_site_label_2
_geom_bond_site_symmetry_1
_geom_bond_site_symmetry_2
O1 C1 1_555 1_555
O2 H1 1_555 1_555
C1 C2 1_555 1_555
C2 C3 1_555 1_555
C3 H2 1_555 1_555
C4 C3 1_555 1_555
C5 C4 1_555 1_555
H3 C5 1_555 1_555
C6 C1 1_555 1_555
C7 C6 1_555 1_555
H4 C7 1_555 1_555
C8 O1 1_555 1_555
C9 C8 1_555 1_555
H5 C9 1_555 1_555
H6 C9 1_555 1_555
H7 C9 1_555 1_555
C10 O2 1_555 1_555
H8 C10 1_555 1_555
C11 C10 1_555 1_555
C12 C11 1_555 1_555
H9 C12 1_555 1_555
C13 C12 1_555 1_555
H10 C13 1_555 1_555
C14 C13 1_555 1_555
H11 C14 1_555 1_555
C15 C14 1_555 1_555
H12 C15 1_555 1_555
C16 C11 1_555 1_555
H13 C16 1_555 1_555
C17 C2 1_555 1_555
C18 C19 1_555 1_555
C19 S1 1_555 1_555
S1 C17 1_555 1_555
C20 C17 1_555 1_555
H14 C20 1_555 1_555
H15 C19 1_555 1_555
H16 C18 1_555 1_555
O3 C22 1_555 1_555
O4 H18 1_555 1_555
C22 C23 1_555 1_555
C23 C24 1_555 1_555
C24 H19 1_555 1_555
C25 C24 1_555 1_555
C26 C25 1_555 1_555
H20 C26 1_555 1_555
C27 C22 1_555 1_555
C28 C27 1_555 1_555
H21 C28 1_555 1_555
C29 O3 1_555 1_555
C30 C29 1_555 1_555
H22 C30 1_555 1_555
H23 C30 1_555 1_555
H24 C30 1_555 1_555
C31 O4 1_555 1_555
H25 C31 1_555 1_555
C32 C31 1_555 1_555
C33 C32 1_555 1_555
H26 C33 1_555 1_555
C34 C33 1_555 1_555
H27 C34 1_555 1_555
C35 C34 1_555 1_555
H28 C35 1_555 1_555
C36 C35 1_555 1_555
H29 C36 1_555 1_555
C37 C32 1_555 1_555
H30 C37 1_555 1_555
C38 C23 1_555 1_555
C39 C40 1_555 1_555
C40 S3 1_555 1_555
S3 C38 1_555 1_555
C41 C38 1_555 1_555
H31 C41 1_555 1_555
H32 C39 1_555 1_555
H33 C40 1_555 1_555
C4 C10 1_555 1_555
C5 C6 1_555 1_555
C7 C8 1_555 1_555
C15 C16 1_555 1_555
C18 C20 1_555 1_555
C25 C31 1_555 1_555
C26 C27 1_555 1_555
C28 C29 1_555 1_555
C36 C37 1_555 1_555
C39 C41 1_555 1_555

#END
