
#######################################################################
#
#                 Cambridge Crystallographic Data Centre
#                                CCDC 
#
#######################################################################
#
# If this CIF has been generated from an entry in the Cambridge 
# Structural Database, then it will include bibliographic, chemical, 
# crystal, experimental, refinement or atomic coordinate data resulting 
# from the CCDC's data processing and validation procedures.
#
#######################################################################

data_DIXRAF
_chemical_formula_moiety         'C34 H27 N1 O3 S1'
_chemical_name_systematic        
N-((2,7-Diphenyl-1-benzofuran-5-yl)(phenyl)methyl)-4-methylbenzenesulfonamide
_symmetry_cell_setting           monoclinic
_symmetry_space_group_name_H-M   'C 2/c'
_symmetry_Int_Tables_number      15
_space_group_name_Hall           '-C 2yn'
loop_
_symmetry_equiv_pos_site_id
_symmetry_equiv_pos_as_xyz
1 x,y,z
2 -x,y,1/2-z
3 1/2+x,1/2+y,z
4 1/2-x,1/2+y,1/2-z
5 -x,-y,-z
6 x,-y,1/2+z
7 1/2-x,1/2-y,-z
8 1/2+x,1/2-y,1/2+z
_cell_length_a                   24.678(16)
_cell_length_b                   5.337(3)
_cell_length_c                   42.48(3)
_cell_angle_alpha                90
_cell_angle_beta                 99.98(3)
_cell_angle_gamma                90
_cell_volume                     5510.23
_exptl_crystal_colour            colorless
_exptl_crystal_description       prismatic
_cell_formula_units_Z            8
loop_
_atom_site_label
_atom_site_type_symbol
_atom_site_fract_x
_atom_site_fract_y
_atom_site_fract_z
S1 S 0.18729(5) 1.2820(3) 0.18125(3)
N1 N 0.18692(17) 1.0602(9) 0.15500(10)
O1 O 0.35249(11) 0.4917(6) 0.08242(6)
O2 O 0.17142(15) 1.5090(7) 0.16464(9)
O3 O 0.15659(16) 1.1872(8) 0.20434(9)
C1 C 0.31794(17) 0.6543(9) 0.09447(10)
C2 C 0.33367(17) 0.8355(9) 0.11812(10)
C3 C 0.28935(18) 0.9737(9) 0.12556(10)
H1 H 0.2969 1.0981 0.1410
C4 C 0.23496(16) 0.9369(9) 0.11134(10)
C5 C 0.22191(17) 0.7585(9) 0.08788(10)
H2 H 0.1858 0.7372 0.0776
C6 C 0.26409(17) 0.6103(9) 0.07988(10)
C7 C 0.26649(17) 0.4115(9) 0.05744(10)
H3 H 0.2368 0.3404 0.0439
C8 C 0.31930(18) 0.3474(9) 0.05953(10)
C9 C 0.34810(18) 0.1608(8) 0.04324(10)
C10 C 0.3192(2) -0.0022(10) 0.02151(12)
H4 H 0.2810 0.0043 0.0175
C11 C 0.3461(2) -0.1762(11) 0.00543(12)
H5 H 0.3258 -0.2867 -0.0090
C12 C 0.4018(3) -0.1848(12) 0.01074(14)
H6 H 0.4199 -0.3003 -0.0001
C13 C 0.4311(2) -0.0238(13) 0.03205(16)
H7 H 0.4693 -0.0298 0.0357
C14 C 0.40441(19) 0.1485(11) 0.04827(13)
H8 H 0.4249 0.2574 0.0628
C15 C 0.19012(17) 1.1048(9) 0.12136(10)
H9 H 0.2014 1.2793 0.1194
C16 C 0.13458(17) 1.0724(10) 0.10031(11)
C17 C 0.0966(2) 0.8980(12) 0.10677(13)
H10 H 0.1041 0.8042 0.1255
C18 C 0.0479(2) 0.8603(13) 0.08611(15)
H11 H 0.0229 0.7414 0.0909
C19 C 0.0358(2) 0.9998(12) 0.05810(14)
H12 H 0.0028 0.9775 0.0441
C20 C 0.0737(2) 1.1701(11) 0.05161(14)
H13 H 0.0665 1.2633 0.0328
C21 C 0.1220(2) 1.2058(10) 0.07228(12)
H14 H 0.1471 1.3231 0.0673
C22 C 0.39297(11) 0.8826(9) 0.13351(9)
C23 C 0.43620(16) 0.8120(11) 0.11836(8)
H15 H 0.4290 0.7389 0.0982
C24 C 0.49024(13) 0.8506(11) 0.13335(11)
H16 H 0.5192 0.8034 0.1232
C25 C 0.50105(11) 0.9599(9) 0.16349(11)
H17 H 0.5372 0.9858 0.1735
C26 C 0.45782(16) 1.0306(11) 0.17864(9)
H18 H 0.4651 1.1037 0.1988
C27 C 0.40378(14) 0.9919(11) 0.16365(10)
H19 H 0.3749 1.0392 0.1738
C28 C 0.2552(2) 1.3151(10) 0.20048(11)
C29 C 0.2888(2) 1.5016(11) 0.19155(14)
H20 H 0.2752 1.6116 0.1751
C30 C 0.3425(3) 1.5231(14) 0.20716(18)
H21 H 0.3647 1.6491 0.2012
C31 C 0.3640(3) 1.3583(17) 0.23182(16)
C32 C 0.3305(3) 1.1768(16) 0.23951(15)
H22 H 0.3445 1.0634 0.2555
C33 C 0.2768(3) 1.1527(12) 0.22476(13)
H23 H 0.2549 1.0271 0.2311
C34 C 0.4227(3) 1.3984(19) 0.24895(18)
H24 H 0.4271 1.3258 0.2699
H25 H 0.4303 1.5748 0.2507
H26 H 0.4477 1.3202 0.2370
H27 H 0.185(3) 0.908(6) 0.1614(18)
C35? C 0.39057(11) 0.8809(9) 0.13420(9)
C36? C 0.42864(17) 0.6866(7) 0.13865(13)
H28? H 0.4183 0.5264 0.1314
C37? C 0.48222(15) 0.7319(8) 0.15400(13)
H29? H 0.5077 0.6019 0.1570
C38? C 0.49771(12) 0.9713(9) 0.16488(10)
H30? H 0.5336 1.0016 0.1751
C39? C 0.45963(17) 1.1656(7) 0.16043(14)
H31? H 0.4700 1.3258 0.1677
C40? C 0.40606(15) 1.1204(8) 0.14508(13)
H32? H 0.3806 1.2504 0.1421
loop_
_geom_bond_atom_site_label_1
_geom_bond_atom_site_label_2
_geom_bond_site_symmetry_1
_geom_bond_site_symmetry_2
S1 N1 1_555 1_555
N1 C15 1_555 1_555
O1 C1 1_555 1_555
O2 S1 1_555 1_555
O3 S1 1_555 1_555
C1 C2 1_555 1_555
C2 C3 1_555 1_555
C3 H1 1_555 1_555
C4 C3 1_555 1_555
C5 C4 1_555 1_555
H2 C5 1_555 1_555
C6 C1 1_555 1_555
C7 C6 1_555 1_555
H3 C7 1_555 1_555
C8 O1 1_555 1_555
C9 C8 1_555 1_555
C10 C9 1_555 1_555
H4 C10 1_555 1_555
C11 C10 1_555 1_555
H5 C11 1_555 1_555
C12 C11 1_555 1_555
H6 C12 1_555 1_555
C13 C12 1_555 1_555
H7 C13 1_555 1_555
C14 C9 1_555 1_555
H8 C14 1_555 1_555
C15 C4 1_555 1_555
H9 C15 1_555 1_555
C16 C15 1_555 1_555
C17 C16 1_555 1_555
H10 C17 1_555 1_555
C18 C17 1_555 1_555
H11 C18 1_555 1_555
C19 C18 1_555 1_555
H12 C19 1_555 1_555
C20 C19 1_555 1_555
H13 C20 1_555 1_555
C21 C16 1_555 1_555
H14 C21 1_555 1_555
C22 C2 1_555 1_555
C23 C22 1_555 1_555
H15 C23 1_555 1_555
C24 C23 1_555 1_555
H16 C24 1_555 1_555
C25 C24 1_555 1_555
H17 C25 1_555 1_555
C26 C25 1_555 1_555
H18 C26 1_555 1_555
C27 C22 1_555 1_555
H19 C27 1_555 1_555
C28 S1 1_555 1_555
C29 C28 1_555 1_555
H20 C29 1_555 1_555
C30 C29 1_555 1_555
H21 C30 1_555 1_555
C31 C30 1_555 1_555
C32 C31 1_555 1_555
H22 C32 1_555 1_555
C33 C28 1_555 1_555
H23 C33 1_555 1_555
C34 C31 1_555 1_555
H24 C34 1_555 1_555
H25 C34 1_555 1_555
H26 C34 1_555 1_555
H27 N1 1_555 1_555
C5 C6 1_555 1_555
C7 C8 1_555 1_555
C13 C14 1_555 1_555
C20 C21 1_555 1_555
C26 C27 1_555 1_555
C32 C33 1_555 1_555

#END
