
#######################################################################
#
#                 Cambridge Crystallographic Data Centre
#                                CCDC 
#
#######################################################################
#
# If this CIF has been generated from an entry in the Cambridge 
# Structural Database, then it will include bibliographic, chemical, 
# crystal, experimental, refinement or atomic coordinate data resulting 
# from the CCDC's data processing and validation procedures.
#
#######################################################################

data_DIYLAA
_chemical_formula_moiety         'C24 H26 N2 O1'
_chemical_name_systematic        
1,2-diphenyl-2-(4-phenylpiperazin-1-yl)ethanol
_symmetry_cell_setting           monoclinic
_symmetry_space_group_name_H-M   'C 2'
_symmetry_Int_Tables_number      5
_space_group_name_Hall           'C 2y'
loop_
_symmetry_equiv_pos_site_id
_symmetry_equiv_pos_as_xyz
1 x,y,z
2 -x,y,-z
3 1/2+x,1/2+y,z
4 1/2-x,1/2+y,-z
_cell_length_a                   25.773(2)
_cell_length_b                   6.1262(5)
_cell_length_c                   12.9396(9)
_cell_angle_alpha                90
_cell_angle_beta                 100.252(4)
_cell_angle_gamma                90
_cell_volume                     2010.42
_exptl_crystal_colour            white
_cell_formula_units_Z            4
loop_
_atom_site_label
_atom_site_type_symbol
_atom_site_fract_x
_atom_site_fract_y
_atom_site_fract_z
C1 C 0.6054(3) 0.3091(13) 0.5263(5)
H1 H 0.6137 0.1917 0.4866
C2 C 0.5657(3) 0.2852(14) 0.5852(5)
H2 H 0.5473 0.1543 0.5839
C3 C 0.5537(3) 0.4562(17) 0.6452(5)
H3 H 0.5272 0.4428 0.6849
C4 C 0.5808(3) 0.6419(16) 0.6458(6)
H4 H 0.5730 0.7586 0.6864
C5 C 0.6201(3) 0.6626(12) 0.5871(4)
H5 H 0.6388 0.7929 0.5900
C6 C 0.6323(2) 0.4981(11) 0.5248(4)
C7 C 0.67450(18) 0.5268(11) 0.4585(3)
H6 H 0.6870 0.6780 0.4667
C8 C 0.65614(17) 0.4843(8) 0.3408(3)
H7 H 0.6450 0.3312 0.3350
C9 C 0.60911(16) 0.6145(9) 0.2894(3)
C10 C 0.5998(2) 0.8265(11) 0.3205(5)
H8 H 0.6239 0.8930 0.3731
C11 C 0.5555(3) 0.9388(14) 0.2745(6)
H9 H 0.5489 1.0776 0.2983
C12 C 0.5211(3) 0.846(2) 0.1937(7)
H10 H 0.4915 0.9242 0.1621
C13 C 0.5296(3) 0.6435(17) 0.1594(6)
H11 H 0.5062 0.5817 0.1041
C14 C 0.5735(2) 0.5287(13) 0.2079(4)
H12 H 0.5792 0.3887 0.1844
C15 C 0.72024(17) 0.7186(8) 0.2709(3)
H13 H 0.7221 0.8062 0.3339
H14 H 0.6947 0.7849 0.2158
C16 C 0.69934(18) 0.3746(8) 0.1920(3)
H15 H 0.6741 0.4451 0.1377
H16 H 0.6869 0.2279 0.2017
C17 C 0.77339(16) 0.7134(9) 0.2385(4)
H17 H 0.7836 0.8612 0.2241
H18 H 0.7992 0.6572 0.2961
C18 C 0.75253(18) 0.3644(9) 0.1587(4)
H19 H 0.7768 0.2846 0.2112
H20 H 0.7492 0.2849 0.0930
C19 C 0.8533(2) 0.7638(10) 0.1165(4)
H21 H 0.8457 0.8786 0.1584
C20 C 0.8978(2) 0.7765(12) 0.0706(4)
H22 H 0.9192 0.8996 0.0817
C21 C 0.9106(2) 0.6127(13) 0.0099(4)
H23 H 0.9411 0.6191 -0.0190
C22 C 0.8780(2) 0.4403(11) -0.0076(4)
H24 H 0.8855 0.3286 -0.0514
C23 C 0.8336(2) 0.4256(10) 0.0383(4)
H25 H 0.8122 0.3029 0.0256
C24 C 0.82037(18) 0.5878(9) 0.1021(3)
N1 N 0.70344(14) 0.4978(6) 0.2910(2)
N2 N 0.77401(14) 0.5786(7) 0.1454(3)
O1 O 0.7173(2) 0.3899(10) 0.4953(4)
H26 H 0.703(3) 0.273(8) 0.475(6)
loop_
_geom_bond_atom_site_label_1
_geom_bond_atom_site_label_2
_geom_bond_site_symmetry_1
_geom_bond_site_symmetry_2
C1 H1 1_555 1_555
C2 C1 1_555 1_555
H2 C2 1_555 1_555
C3 C2 1_555 1_555
H3 C3 1_555 1_555
C4 C3 1_555 1_555
H4 C4 1_555 1_555
C5 C4 1_555 1_555
H5 C5 1_555 1_555
C6 C1 1_555 1_555
C7 C6 1_555 1_555
H6 C7 1_555 1_555
C8 C7 1_555 1_555
H7 C8 1_555 1_555
C9 C8 1_555 1_555
C10 C9 1_555 1_555
H8 C10 1_555 1_555
C11 C10 1_555 1_555
H9 C11 1_555 1_555
C12 C11 1_555 1_555
H10 C12 1_555 1_555
C13 C12 1_555 1_555
H11 C13 1_555 1_555
C14 C9 1_555 1_555
H12 C14 1_555 1_555
C15 H13 1_555 1_555
H14 C15 1_555 1_555
C16 H15 1_555 1_555
H16 C16 1_555 1_555
C17 C15 1_555 1_555
H17 C17 1_555 1_555
H18 C17 1_555 1_555
C18 C16 1_555 1_555
H19 C18 1_555 1_555
H20 C18 1_555 1_555
C19 H21 1_555 1_555
C20 C19 1_555 1_555
H22 C20 1_555 1_555
C21 C20 1_555 1_555
H23 C21 1_555 1_555
C22 C21 1_555 1_555
H24 C22 1_555 1_555
C23 C22 1_555 1_555
H25 C23 1_555 1_555
C24 C19 1_555 1_555
N1 C8 1_555 1_555
N2 C17 1_555 1_555
O1 C7 1_555 1_555
H26 O1 1_555 1_555
C5 C6 1_555 1_555
C13 C14 1_555 1_555
C15 N1 1_555 1_555
C16 N1 1_555 1_555
C18 N2 1_555 1_555
C23 C24 1_555 1_555
C24 N2 1_555 1_555

#END
