
#######################################################################
#
#                 Cambridge Crystallographic Data Centre
#                                CCDC 
#
#######################################################################
#
# If this CIF has been generated from an entry in the Cambridge 
# Structural Database, then it will include bibliographic, chemical, 
# crystal, experimental, refinement or atomic coordinate data resulting 
# from the CCDC's data processing and validation procedures.
#
#######################################################################

data_DIYPOR
_chemical_formula_moiety         'C13 H10 F3 N3 O2'
_chemical_name_systematic        
1,1,1-trifluoro-N-(5-phenyl-1,2,4-oxadiazol-3-yl)-4-amino-pent-3-en-2-one
_symmetry_cell_setting           triclinic
_symmetry_space_group_name_H-M   'P -1'
_symmetry_Int_Tables_number      2
_space_group_name_Hall           '-P 1'
loop_
_symmetry_equiv_pos_site_id
_symmetry_equiv_pos_as_xyz
1 x,y,z
2 -x,-y,-z
_cell_length_a                   5.987(1)
_cell_length_b                   7.817(1)
_cell_length_c                   14.297(2)
_cell_angle_alpha                93.32(1)
_cell_angle_beta                 94.85(1)
_cell_angle_gamma                91.21(1)
_cell_volume                     665.363
_exptl_crystal_colour            colorless
_exptl_crystal_description       prism
_chemical_melting_point          '400-401 K'
_cell_formula_units_Z            2
_exptl_crystal_recrystallization_method ethanol
loop_
_atom_site_label
_atom_site_type_symbol
_atom_site_fract_x
_atom_site_fract_y
_atom_site_fract_z
O1 O 0.1391(2) 0.33192(16) 0.44155(8)
N1 N 0.2567(2) 0.3727(2) 0.53111(10)
C1 C 0.1275(3) 0.3007(2) 0.58666(12)
N2 N -0.0614(2) 0.21695(17) 0.54498(9)
C2 C -0.0448(3) 0.2405(2) 0.45664(11)
N3 N 0.1629(2) 0.30524(19) 0.68340(10)
C3 C 0.3427(3) 0.3634(2) 0.74104(13)
C4 C 0.3365(3) 0.3512(2) 0.83585(14)
C5 C 0.1539(4) 0.2808(2) 0.87745(12)
O2 O -0.0250(2) 0.22462(19) 0.83736(9)
C6 C 0.1832(7) 0.2627(5) 0.98367(17)
C7 C 0.5414(3) 0.4364(3) 0.70013(14)
H1 H 0.6584 0.4633 0.7493
H2 H 0.5004 0.5389 0.6697
H3 H 0.5937 0.3543 0.6550
C8 C -0.1984(3) 0.1823(2) 0.37602(11)
C9 C -0.4014(3) 0.1067(2) 0.39232(13)
C10 C -0.5509(4) 0.0491(3) 0.31843(15)
C11 C -0.5000(4) 0.0675(3) 0.22772(15)
C12 C -0.3001(4) 0.1428(3) 0.21094(14)
C13 C -0.1482(4) 0.2006(3) 0.28429(13)
F1 F -0.004(2) 0.290(3) 1.0219(8)
F2 F 0.336(3) 0.357(2) 1.0321(5)
F3 F 0.231(3) 0.1059(10) 1.0035(6)
H4 H 0.056(3) 0.257(2) 0.7118(12)
H5 H 0.464(3) 0.392(2) 0.8738(13)
H6 H -0.438(3) 0.103(2) 0.4542(12)
H7 H -0.692(3) 0.000(2) 0.3291(13)
H8 H -0.592(3) 0.028(2) 0.1768(14)
H9 H -0.269(4) 0.161(3) 0.1505(16)
H10 H -0.006(3) 0.256(2) 0.2757(12)
F4? F 0.010(3) 0.218(3) 1.0197(7)
F5? F 0.226(3) 0.4196(19) 1.0244(8)
F6? F 0.352(5) 0.169(4) 1.0042(7)
loop_
_geom_bond_atom_site_label_1
_geom_bond_atom_site_label_2
_geom_bond_site_symmetry_1
_geom_bond_site_symmetry_2
O1 N1 1_555 1_555
N1 C1 1_555 1_555
C1 N2 1_555 1_555
N2 C2 1_555 1_555
C2 O1 1_555 1_555
N3 C1 1_555 1_555
C3 N3 1_555 1_555
C4 C3 1_555 1_555
C5 C4 1_555 1_555
O2 C5 1_555 1_555
C6 C5 1_555 1_555
C7 C3 1_555 1_555
H1 C7 1_555 1_555
H2 C7 1_555 1_555
H3 C7 1_555 1_555
C8 C2 1_555 1_555
C9 C8 1_555 1_555
C10 C9 1_555 1_555
C11 C10 1_555 1_555
C12 C11 1_555 1_555
C13 C8 1_555 1_555
F1 C6 1_555 1_555
F2 C6 1_555 1_555
F3 C6 1_555 1_555
H4 N3 1_555 1_555
H5 C4 1_555 1_555
H6 C9 1_555 1_555
H7 C10 1_555 1_555
H8 C11 1_555 1_555
H9 C12 1_555 1_555
H10 C13 1_555 1_555
C12 C13 1_555 1_555

#END
