
#######################################################################
#
#                 Cambridge Crystallographic Data Centre
#                                CCDC 
#
#######################################################################
#
# If this CIF has been generated from an entry in the Cambridge 
# Structural Database, then it will include bibliographic, chemical, 
# crystal, experimental, refinement or atomic coordinate data resulting 
# from the CCDC's data processing and validation procedures.
#
#######################################################################

data_DIYWUE
_chemical_formula_moiety         'C16 H18 Cl1 N4 O3 P1'
_chemical_name_systematic        
'Diethyl 2-chloro-9-(phenylmethyl)purin-6-ylphosphonate'
_symmetry_cell_setting           triclinic
_symmetry_space_group_name_H-M   'P -1'
_symmetry_Int_Tables_number      2
_space_group_name_Hall           '-P 1'
loop_
_symmetry_equiv_pos_site_id
_symmetry_equiv_pos_as_xyz
1 x,y,z
2 -x,-y,-z
_cell_length_a                   8.5503(10)
_cell_length_b                   9.8828(12)
_cell_length_c                   11.4198(14)
_cell_angle_alpha                78.062(1)
_cell_angle_beta                 76.282(1)
_cell_angle_gamma                83.652(1)
_cell_volume                     915.259
_exptl_crystal_colour            colorless
_exptl_crystal_description       block
_cell_formula_units_Z            2
loop_
_atom_site_label
_atom_site_type_symbol
_atom_site_fract_x
_atom_site_fract_y
_atom_site_fract_z
Cl1 Cl 0.33962(7) 0.15526(6) 0.97548(6)
P1 P 0.32978(6) 0.66808(6) 0.74012(5)
O1 O 0.3306(2) 0.60847(17) 0.62324(15)
O2 O 0.43707(18) 0.79401(16) 0.68767(14)
O3 O 0.17106(17) 0.69724(16) 0.81583(15)
N1 N 0.36794(19) 0.41197(17) 0.86526(15)
N2 N 0.60261(19) 0.28570(19) 0.92517(15)
N3 N 0.83436(19) 0.4255(2) 0.87111(16)
N4 N 0.7204(2) 0.6289(2) 0.78732(19)
C1 C 0.4475(2) 0.5285(2) 0.81748(17)
C2 C 0.4493(2) 0.3014(2) 0.91545(18)
C3 C 0.6763(2) 0.4022(2) 0.87918(18)
C4 C 0.6070(2) 0.5297(2) 0.82561(18)
C5 C 0.8501(3) 0.5614(3) 0.8171(2)
H1 H 0.9468 0.6034 0.8024
C6 C 0.9644(3) 0.3198(3) 0.8977(2)
H2 H 0.9268 0.2600 0.9761
H3 H 1.0565 0.3653 0.9034
C7 C 1.0153(2) 0.2339(2) 0.7992(2)
C8 C 0.9560(3) 0.1054(3) 0.8130(3)
H4 H 0.8862 0.0696 0.8861
C9 C 0.9988(4) 0.0294(3) 0.7199(4)
H5 H 0.9584 -0.0570 0.7307
C10 C 1.0998(4) 0.0810(4) 0.6130(4)
H6 H 1.1258 0.0310 0.5496
C11 C 1.1641(4) 0.2068(4) 0.5972(3)
H7 H 1.2350 0.2407 0.5243
C12 C 1.1226(3) 0.2824(3) 0.6905(2)
H8 H 1.1672 0.3669 0.6802
C13 C 0.2425(5) 0.6861(3) 0.5323(3)
H9 H 0.1275 0.6868 0.5675
H10 H 0.2729 0.7813 0.5097
C14 C 0.2773(6) 0.6255(4) 0.4271(3)
H11 H 0.3918 0.6197 0.3952
H12 H 0.2253 0.6813 0.3660
H13 H 0.2384 0.5342 0.4482
C15 C 0.4387(3) 0.8988(3) 0.7606(2)
H14 H 0.4683 0.8555 0.8374
H15 H 0.3325 0.9456 0.7792
C16 C 0.5570(5) 0.9989(4) 0.6893(3)
H16 H 0.6626 0.9525 0.6751
H17 H 0.5562 1.0712 0.7341
H18 H 0.5293 1.0382 0.6120
loop_
_geom_bond_atom_site_label_1
_geom_bond_atom_site_label_2
_geom_bond_site_symmetry_1
_geom_bond_site_symmetry_2
Cl1 C2 1_555 1_555
P1 O1 1_555 1_555
O1 C13 1_555 1_555
O2 P1 1_555 1_555
O3 P1 1_555 1_555
N1 C1 1_555 1_555
N2 C2 1_555 1_555
N3 C3 1_555 1_555
N4 C4 1_555 1_555
C1 P1 1_555 1_555
C2 N1 1_555 1_555
C3 N2 1_555 1_555
C4 C1 1_555 1_555
C5 N3 1_555 1_555
H1 C5 1_555 1_555
C6 N3 1_555 1_555
H2 C6 1_555 1_555
H3 C6 1_555 1_555
C7 C6 1_555 1_555
C8 C7 1_555 1_555
H4 C8 1_555 1_555
C9 C8 1_555 1_555
H5 C9 1_555 1_555
C10 C9 1_555 1_555
H6 C10 1_555 1_555
C11 C10 1_555 1_555
H7 C11 1_555 1_555
C12 C7 1_555 1_555
H8 C12 1_555 1_555
C13 H9 1_555 1_555
H10 C13 1_555 1_555
C14 C13 1_555 1_555
H11 C14 1_555 1_555
H12 C14 1_555 1_555
H13 C14 1_555 1_555
C15 O2 1_555 1_555
H14 C15 1_555 1_555
H15 C15 1_555 1_555
C16 C15 1_555 1_555
H16 C16 1_555 1_555
H17 C16 1_555 1_555
H18 C16 1_555 1_555
N4 C5 1_555 1_555
C3 C4 1_555 1_555
C11 C12 1_555 1_555

#END
