
#######################################################################
#
#                 Cambridge Crystallographic Data Centre
#                                CCDC 
#
#######################################################################
#
# If this CIF has been generated from an entry in the Cambridge 
# Structural Database, then it will include bibliographic, chemical, 
# crystal, experimental, refinement or atomic coordinate data resulting 
# from the CCDC's data processing and validation procedures.
#
#######################################################################

data_DIYZOB
_chemical_formula_moiety         'C24 H22 O2'
_chemical_name_systematic        
1,3-Diphenyl-2-(1-phenylpropyl)propane-1,3-dione
_symmetry_cell_setting           orthorhombic
_symmetry_space_group_name_H-M   'P b c a'
_symmetry_Int_Tables_number      61
_space_group_name_Hall           '-P 2ac 2ab'
loop_
_symmetry_equiv_pos_site_id
_symmetry_equiv_pos_as_xyz
1 x,y,z
2 1/2-x,-y,1/2+z
3 1/2+x,1/2-y,-z
4 -x,1/2+y,1/2-z
5 -x,-y,-z
6 1/2+x,y,1/2-z
7 1/2-x,1/2+y,z
8 x,1/2-y,1/2+z
_cell_length_a                   17.0267(4)
_cell_length_b                   9.9384(2)
_cell_length_c                   22.3568(7)
_cell_angle_alpha                90
_cell_angle_beta                 90
_cell_angle_gamma                90
_cell_volume                     3783.18
_exptl_crystal_colour            colorless
_exptl_crystal_description       plate
_cell_formula_units_Z            8
loop_
_atom_site_label
_atom_site_type_symbol
_atom_site_fract_x
_atom_site_fract_y
_atom_site_fract_z
O1 O 0.32671(9) -0.15154(14) 0.36085(7)
O2 O 0.15235(8) -0.22873(13) 0.36788(6)
C1 C 0.28442(11) -0.06503(17) 0.38211(9)
C2 C 0.21161(10) -0.01793(17) 0.34777(8)
C3 C 0.14362(11) -0.10701(17) 0.37033(8)
C4 C 0.30062(11) -0.01055(17) 0.44306(9)
C5 C 0.25584(14) 0.0879(2) 0.46993(10)
C6 C 0.27344(16) 0.1319(3) 0.52712(12)
C7 C 0.33582(19) 0.0771(4) 0.55740(13)
C8 C 0.3815(2) -0.0188(3) 0.53089(15)
C9 C 0.36441(17) -0.0623(3) 0.47415(13)
C10 C 0.06939(11) -0.04858(17) 0.39369(8)
C11 C 0.05115(12) 0.0872(2) 0.38992(9)
C12 C -0.01966(13) 0.1344(3) 0.41224(10)
C13 C -0.07242(14) 0.0469(3) 0.43818(10)
C14 C -0.05460(13) -0.0875(3) 0.44170(10)
C15 C 0.01509(12) -0.1351(2) 0.41978(9)
C16 C 0.21998(10) -0.03656(17) 0.27941(8)
C17 C 0.29114(13) 0.0407(2) 0.25517(10)
C18 C 0.3049(2) 0.0210(4) 0.18927(13)
C19 C 0.14437(10) 0.00048(15) 0.24748(8)
C20 C 0.09313(11) -0.09767(19) 0.22703(8)
C21 C 0.02419(12) -0.0632(2) 0.19781(10)
C22 C 0.00591(13) 0.0688(2) 0.18781(10)
C23 C 0.05567(13) 0.1674(2) 0.20803(10)
C24 C 0.12334(12) 0.13406(18) 0.23812(9)
H1 H 0.2014(8) 0.0757(15) 0.3566(7)
H2 H 0.2116(13) 0.1268(19) 0.4471(10)
H3 H 0.2431(13) 0.205(2) 0.5437(11)
H4 H 0.3451(14) 0.105(2) 0.5952(12)
H5 H 0.4280(19) -0.054(3) 0.5503(14)
H6 H 0.3945(15) -0.131(3) 0.4547(12)
H7 H 0.0874(11) 0.1479(18) 0.3715(8)
H8 H -0.0311(12) 0.228(2) 0.4092(10)
H9 H -0.1217(15) 0.080(2) 0.4513(10)
H10 H -0.0927(14) -0.150(2) 0.4588(10)
H11 H 0.0306(11) -0.230(2) 0.4229(9)
H12 H 0.2283(9) -0.1336(17) 0.2722(7)
H13 H 0.2835(12) 0.140(2) 0.2638(10)
H14 H 0.3398(15) 0.007(2) 0.2760(11)
H15 H 0.264(2) 0.069(3) 0.1648(15)
H16 H 0.3554(17) 0.064(3) 0.1752(13)
H17 H 0.3059(15) -0.066(3) 0.1757(14)
H18 H 0.1069(10) -0.1939(19) 0.2337(8)
H19 H -0.0098(12) -0.135(2) 0.1858(10)
H20 H -0.0428(13) 0.0921(19) 0.1679(10)
H21 H 0.0437(11) 0.264(2) 0.2017(9)
H22 H 0.1564(11) 0.2042(18) 0.2531(8)
loop_
_geom_bond_atom_site_label_1
_geom_bond_atom_site_label_2
_geom_bond_site_symmetry_1
_geom_bond_site_symmetry_2
O1 C1 1_555 1_555
O2 C3 1_555 1_555
C1 C2 1_555 1_555
C2 C3 1_555 1_555
C3 C10 1_555 1_555
C4 C1 1_555 1_555
C5 C4 1_555 1_555
C6 C5 1_555 1_555
C7 C6 1_555 1_555
C8 C7 1_555 1_555
C9 C4 1_555 1_555
C10 C11 1_555 1_555
C11 C12 1_555 1_555
C12 C13 1_555 1_555
C13 C14 1_555 1_555
C14 C15 1_555 1_555
C15 C10 1_555 1_555
C16 C2 1_555 1_555
C17 C16 1_555 1_555
C18 C17 1_555 1_555
C19 C16 1_555 1_555
C20 C19 1_555 1_555
C21 C20 1_555 1_555
C22 C21 1_555 1_555
C23 C22 1_555 1_555
C24 C19 1_555 1_555
H1 C2 1_555 1_555
H2 C5 1_555 1_555
H3 C6 1_555 1_555
H4 C7 1_555 1_555
H5 C8 1_555 1_555
H6 C9 1_555 1_555
H7 C11 1_555 1_555
H8 C12 1_555 1_555
H9 C13 1_555 1_555
H10 C14 1_555 1_555
H11 C15 1_555 1_555
H12 C16 1_555 1_555
H13 C17 1_555 1_555
H14 C17 1_555 1_555
H15 C18 1_555 1_555
H16 C18 1_555 1_555
H17 C18 1_555 1_555
H18 C20 1_555 1_555
H19 C21 1_555 1_555
H20 C22 1_555 1_555
H21 C23 1_555 1_555
H22 C24 1_555 1_555
C8 C9 1_555 1_555
C23 C24 1_555 1_555

#END
