
#######################################################################
#
#                 Cambridge Crystallographic Data Centre
#                                CCDC 
#
#######################################################################
#
# If this CIF has been generated from an entry in the Cambridge 
# Structural Database, then it will include bibliographic, chemical, 
# crystal, experimental, refinement or atomic coordinate data resulting 
# from the CCDC's data processing and validation procedures.
#
#######################################################################

data_DIZFEY
_chemical_formula_moiety         'C24 H34 Br2 O2 Si3'
_chemical_name_systematic        
1-Bromo-4-(bromo(dimethoxy)silyl)-1,4-bis(trimethylsilyl)-2,3-diphenyl-1,3-butadiene
_symmetry_cell_setting           monoclinic
_symmetry_space_group_name_H-M   'P 21/c'
_symmetry_Int_Tables_number      14
_space_group_name_Hall           '-P 2ybc'
loop_
_symmetry_equiv_pos_site_id
_symmetry_equiv_pos_as_xyz
1 x,y,z
2 -x,1/2+y,1/2-z
3 -x,-y,-z
4 x,1/2-y,1/2+z
_cell_length_a                   14.4929(6)
_cell_length_b                   10.8030(4)
_cell_length_c                   18.5479(8)
_cell_angle_alpha                90
_cell_angle_beta                 109.920(2)
_cell_angle_gamma                90
_cell_volume                     2730.24
_exptl_crystal_colour            colorless
_exptl_crystal_description       rectangular
_chemical_melting_point          105-109deg.C
_cell_formula_units_Z            4
loop_
_atom_site_label
_atom_site_type_symbol
_atom_site_fract_x
_atom_site_fract_y
_atom_site_fract_z
Br1 Br 0.12554(4) 0.92640(4) 0.37290(3)
Si1 Si 0.34375(11) 0.41938(12) 0.28581(7)
Si2 Si 0.34173(10) 0.85484(12) 0.40075(7)
Si3 Si 0.20726(10) 0.64293(13) 0.20688(8)
C1 C 0.2562(3) 0.5457(4) 0.2937(2)
C2 C 0.2309(3) 0.5650(4) 0.3579(3)
C3 C 0.1757(3) 0.6751(4) 0.3702(2)
C4 C 0.2136(4) 0.7895(4) 0.3750(3)
C5 C 0.4209(4) 0.4847(5) 0.2316(3)
H1 H 0.4560 0.5580 0.2583
H2 H 0.3786 0.5078 0.1798
H3 H 0.4684 0.4223 0.2283
C6 C 0.2759(4) 0.2814(5) 0.2325(3)
H4 H 0.3228 0.2220 0.2248
H5 H 0.2300 0.3077 0.1826
H6 H 0.2395 0.2422 0.2622
C7 C 0.4336(4) 0.3678(5) 0.3801(3)
H7 H 0.3994 0.3186 0.4076
H8 H 0.4635 0.4404 0.4108
H9 H 0.4848 0.3173 0.3711
C8 C 0.3727(4) 0.9069(5) 0.5024(3)
H10 H 0.3780 0.8347 0.5355
H11 H 0.3210 0.9620 0.5065
H12 H 0.4354 0.9514 0.5185
C9 C 0.3425(4) 0.9912(5) 0.3397(3)
H13 H 0.4103 1.0167 0.3486
H14 H 0.3066 1.0596 0.3527
H15 H 0.3108 0.9691 0.2856
C10 C 0.4366(4) 0.7416(4) 0.3975(3)
H16 H 0.5020 0.7779 0.4214
H17 H 0.4270 0.7206 0.3440
H18 H 0.4311 0.6665 0.4254
C11 C 0.2515(3) 0.4679(4) 0.4202(3)
C12 C 0.2116(4) 0.3499(4) 0.4023(3)
H19 H 0.1707 0.3313 0.3513
C13 C 0.2312(4) 0.2601(5) 0.4583(3)
H20 H 0.2026 0.1803 0.4458
C14 C 0.2916(4) 0.2845(5) 0.5320(3)
H21 H 0.3069 0.2210 0.5696
C15 C 0.3306(4) 0.4033(4) 0.5512(3)
H22 H 0.3714 0.4217 0.6022
C16 C 0.3088(3) 0.4938(4) 0.4950(3)
H23 H 0.3337 0.5752 0.5081
C17 C 0.0812(3) 0.6448(4) 0.3823(3)
C18 C 0.0103(4) 0.5716(4) 0.3306(3)
H24 H 0.0216 0.5399 0.2866
C19 C -0.0769(4) 0.5443(5) 0.3427(3)
H25 H -0.1252 0.4951 0.3065
C20 C -0.0938(4) 0.5880(5) 0.4067(3)
H26 H -0.1541 0.5705 0.4142
C21 C -0.0227(4) 0.6577(5) 0.4601(3)
H27 H -0.0331 0.6865 0.5051
C22 C 0.0631(4) 0.6849(5) 0.4475(3)
H28 H 0.1116 0.7326 0.4845
Br2 Br 0.05696(8) 0.71843(8) 0.17927(6)
O1 O 0.2869(5) 0.7493(6) 0.2105(3)
C23 C 0.2880(6) 0.8231(7) 0.1485(5)
H29 H 0.3435 0.8808 0.1656
H30 H 0.2266 0.8700 0.1290
H31 H 0.2948 0.7702 0.1077
O2 O 0.2007(5) 0.5566(8) 0.1308(4)
C24 C 0.1198(8) 0.4944(10) 0.0809(6)
H32 H 0.1388 0.4523 0.0413
H33 H 0.0674 0.5539 0.0567
H34 H 0.0964 0.4332 0.1097
Br3? Br 0.1562(4) 0.5379(4) 0.1057(3)
Br4? Br 0.2883(7) 0.7736(8) 0.1757(6)
O3? O 0.1173(11) 0.7297(18) 0.2079(10)
C25? C 0.0151(12) 0.730(4) 0.169(2)
H35? H -0.0143 0.8005 0.1867
H36? H -0.0133 0.6530 0.1794
H37? H 0.0019 0.7381 0.1137
loop_
_geom_bond_atom_site_label_1
_geom_bond_atom_site_label_2
_geom_bond_site_symmetry_1
_geom_bond_site_symmetry_2
Br1 C4 1_555 1_555
Si1 C1 1_555 1_555
Si2 C4 1_555 1_555
Si3 C1 1_555 1_555
C1 C2 1_555 1_555
C2 C3 1_555 1_555
C3 C4 1_555 1_555
C5 Si1 1_555 1_555
H1 C5 1_555 1_555
H2 C5 1_555 1_555
H3 C5 1_555 1_555
C6 Si1 1_555 1_555
H4 C6 1_555 1_555
H5 C6 1_555 1_555
H6 C6 1_555 1_555
C7 Si1 1_555 1_555
H7 C7 1_555 1_555
H8 C7 1_555 1_555
H9 C7 1_555 1_555
C8 Si2 1_555 1_555
H10 C8 1_555 1_555
H11 C8 1_555 1_555
H12 C8 1_555 1_555
C9 Si2 1_555 1_555
H13 C9 1_555 1_555
H14 C9 1_555 1_555
H15 C9 1_555 1_555
C10 Si2 1_555 1_555
H16 C10 1_555 1_555
H17 C10 1_555 1_555
H18 C10 1_555 1_555
C11 C2 1_555 1_555
C12 C11 1_555 1_555
H19 C12 1_555 1_555
C13 C12 1_555 1_555
H20 C13 1_555 1_555
C14 C13 1_555 1_555
H21 C14 1_555 1_555
C15 C14 1_555 1_555
H22 C15 1_555 1_555
C16 C11 1_555 1_555
H23 C16 1_555 1_555
C17 C3 1_555 1_555
C18 C17 1_555 1_555
H24 C18 1_555 1_555
C19 C18 1_555 1_555
H25 C19 1_555 1_555
C20 C19 1_555 1_555
H26 C20 1_555 1_555
C21 C20 1_555 1_555
H27 C21 1_555 1_555
C22 C17 1_555 1_555
H28 C22 1_555 1_555
Br2 Si3 1_555 1_555
O1 Si3 1_555 1_555
C23 O1 1_555 1_555
H29 C23 1_555 1_555
H30 C23 1_555 1_555
H31 C23 1_555 1_555
O2 Si3 1_555 1_555
C24 O2 1_555 1_555
H32 C24 1_555 1_555
H33 C24 1_555 1_555
H34 C24 1_555 1_555
C15 C16 1_555 1_555
C21 C22 1_555 1_555

#END
