
#######################################################################
#
#                 Cambridge Crystallographic Data Centre
#                                CCDC 
#
#######################################################################
#
# If this CIF has been generated from an entry in the Cambridge 
# Structural Database, then it will include bibliographic, chemical, 
# crystal, experimental, refinement or atomic coordinate data resulting 
# from the CCDC's data processing and validation procedures.
#
#######################################################################

data_DIZNIK
_chemical_formula_moiety         'C28 H26 N2 O5,C1 D1 Cl3'
_chemical_name_systematic        
'Methyl N^\a^-(fluoren-9-ylmethoxycarbonyl)-5-methoxy-L-tryptophan deuterochloroform solvate'
_symmetry_cell_setting           monoclinic
_symmetry_space_group_name_H-M   'P 21'
_symmetry_Int_Tables_number      4
_space_group_name_Hall           'P 2yb'
loop_
_symmetry_equiv_pos_site_id
_symmetry_equiv_pos_as_xyz
1 x,y,z
2 -x,1/2+y,-z
_cell_length_a                   11.439(1)
_cell_length_b                   5.8672(3)
_cell_length_c                   21.531(2)
_cell_angle_alpha                90
_cell_angle_beta                 104.44(1)
_cell_angle_gamma                90
_cell_volume                     1399.4
_exptl_crystal_colour            colorless
_exptl_crystal_description       block
_chemical_melting_point          '139-143 deg.C'
_cell_formula_units_Z            2
loop_
_atom_site_label
_atom_site_type_symbol
_atom_site_fract_x
_atom_site_fract_y
_atom_site_fract_z
Cl1 Cl 0.90755(5) 1.00248(11) 0.78205(3)
Cl2 Cl 0.87515(6) 0.59092(12) 0.70574(3)
Cl3 Cl 0.96975(6) 0.56652(13) 0.84358(3)
C1 C 0.87010(19) 0.7103(4) 0.78007(11)
D1 D 0.7861(19) 0.696(4) 0.7840(10)
O1 O 0.52588(11) 0.2645(2) 0.77442(6)
O2 O 0.60878(11) 0.6172(2) 0.79142(7)
O3 O 0.24551(11) 1.0673(3) 0.68145(7)
O4 O 0.18911(12) 0.6997(3) 0.67375(7)
O5 O 0.09726(14) 0.9248(3) 0.42482(7)
N1 N 0.41661(14) 0.5631(3) 0.73155(7)
H1 H 0.3638(19) 0.466(4) 0.7150(10)
N2 N 0.47205(18) 0.3770(4) 0.54770(10)
H2 H 0.501(2) 0.272(5) 0.5350(12)
C2 C 0.36234(16) 0.0547(4) 0.85210(9)
H3 H 0.34087(16) 0.1903(4) 0.82782(9)
C3 C 0.27505(17) -0.1073(4) 0.85544(10)
H4 H 0.19346(17) -0.0813(4) 0.83303(10)
C4 C 0.30526(18) -0.3057(4) 0.89110(10)
H5 H 0.24464(18) -0.4154(4) 0.89208(10)
C5 C 0.42408(17) -0.3449(4) 0.92524(10)
H6 H 0.44487(17) -0.4786(4) 0.95047(10)
C6 C 0.71376(17) -0.3309(4) 0.99544(9)
H7 H 0.68035(17) -0.4651(4) 1.00871(9)
C7 C 0.83574(18) -0.2810(4) 1.01837(10)
H8 H 0.88604(18) -0.3817(4) 1.04793(10)
C8 C 0.88472(17) -0.0859(4) 0.99864(10)
H9 H 0.96853(17) -0.0561(4) 1.01435(10)
C9 C 0.81303(16) 0.0666(4) 0.95616(9)
H10 H 0.84684(16) 0.2003(4) 0.94285(9)
C10 C 0.59455(15) 0.1546(3) 0.88728(9)
H11 H 0.58675(15) 0.3106(3) 0.90454(9)
C11 C 0.48167(16) 0.0137(3) 0.88497(9)
C12 C 0.51150(16) -0.1846(4) 0.92182(9)
C13 C 0.64202(16) -0.1800(4) 0.95273(9)
C14 C 0.69100(16) 0.0186(3) 0.93361(9)
C15 C 0.62548(16) 0.1684(3) 0.82223(9)
H12 H 0.69810(16) 0.2645(3) 0.82611(9)
H13 H 0.64387(16) 0.0140(3) 0.80874(9)
C16 C 0.52389(16) 0.4927(3) 0.76800(9)
C17 C 0.39974(16) 0.7969(3) 0.71046(9)
H14 H 0.43222(16) 0.8969(3) 0.74845(9)
C18 C 0.26655(17) 0.8429(4) 0.68696(9)
C19 C 0.11914(18) 1.1337(4) 0.65993(11)
H15 H 0.11327(18) 1.3002(4) 0.65714(11)
H16 H 0.07505(18) 1.0782(4) 0.69054(11)
H17 H 0.08408(18) 1.0673(4) 0.61761(11)
C20 C 0.46807(17) 0.8555(4) 0.65845(9)
H18 H 0.44175(17) 1.0074(4) 0.64028(9)
H19 H 0.55560(17) 0.8641(4) 0.67903(9)
C21 C 0.44768(16) 0.6848(4) 0.60489(10)
C22 C 0.51535(19) 0.4941(4) 0.60333(11)
H20 H 0.58319(19) 0.4494(4) 0.63642(11)
C23 C 0.35584(17) 0.6856(4) 0.54565(10)
C24 C 0.26137(17) 0.8392(3) 0.51853(9)
H21 H 0.24601(17) 0.9692(3) 0.54160(9)
C25 C 0.19239(18) 0.7934(4) 0.45738(10)
C26 C 0.2155(2) 0.6031(4) 0.42228(10)
H22 H 0.1678(2) 0.5792(4) 0.37988(10)
C27 C 0.3059(2) 0.4519(4) 0.44830(11)
H23 H 0.3210(2) 0.3230(4) 0.42475(11)
C28 C 0.37486(18) 0.4934(4) 0.51043(10)
C29 C 0.05225(19) 1.0948(4) 0.45991(10)
H24 H -0.01442(19) 1.1763(4) 0.43106(10)
H25 H 0.11696(19) 1.2025(4) 0.47855(10)
H26 H 0.02323(19) 1.0225(4) 0.49429(10)
loop_
_geom_bond_atom_site_label_1
_geom_bond_atom_site_label_2
_geom_bond_site_symmetry_1
_geom_bond_site_symmetry_2
Cl1 C1 1_555 1_555
Cl2 C1 1_555 1_555
Cl3 C1 1_555 1_555
C1 D1 1_555 1_555
O1 C15 1_555 1_555
O2 C16 1_555 1_555
O3 C18 1_555 1_555
O4 C18 1_555 1_555
O5 C25 1_555 1_555
N1 H1 1_555 1_555
N2 H2 1_555 1_555
C2 H3 1_555 1_555
C3 C2 1_555 1_555
H4 C3 1_555 1_555
C4 C3 1_555 1_555
H5 C4 1_555 1_555
C5 C4 1_555 1_555
H6 C5 1_555 1_555
C6 H7 1_555 1_555
C7 C6 1_555 1_555
H8 C7 1_555 1_555
C8 C7 1_555 1_555
H9 C8 1_555 1_555
C9 C8 1_555 1_555
H10 C9 1_555 1_555
C10 H11 1_555 1_555
C11 C2 1_555 1_555
C12 C5 1_555 1_555
C13 C6 1_555 1_555
C14 C9 1_555 1_555
C15 C10 1_555 1_555
H12 C15 1_555 1_555
H13 C15 1_555 1_555
C16 O1 1_555 1_555
C17 N1 1_555 1_555
H14 C17 1_555 1_555
C18 C17 1_555 1_555
C19 O3 1_555 1_555
H15 C19 1_555 1_555
H16 C19 1_555 1_555
H17 C19 1_555 1_555
C20 C17 1_555 1_555
H18 C20 1_555 1_555
H19 C20 1_555 1_555
C21 C20 1_555 1_555
C22 N2 1_555 1_555
H20 C22 1_555 1_555
C23 C21 1_555 1_555
C24 C23 1_555 1_555
H21 C24 1_555 1_555
C25 C24 1_555 1_555
C26 C25 1_555 1_555
H22 C26 1_555 1_555
C27 C26 1_555 1_555
H23 C27 1_555 1_555
C28 N2 1_555 1_555
C29 O5 1_555 1_555
H24 C29 1_555 1_555
H25 C29 1_555 1_555
H26 C29 1_555 1_555
N1 C16 1_555 1_555
C10 C11 1_555 1_555
C10 C14 1_555 1_555
C11 C12 1_555 1_555
C12 C13 1_555 1_555
C13 C14 1_555 1_555
C21 C22 1_555 1_555
C23 C28 1_555 1_555
C27 C28 1_555 1_555

#END
