
#######################################################################
#
#                 Cambridge Crystallographic Data Centre
#                                CCDC 
#
#######################################################################
#
# If this CIF has been generated from an entry in the Cambridge 
# Structural Database, then it will include bibliographic, chemical, 
# crystal, experimental, refinement or atomic coordinate data resulting 
# from the CCDC's data processing and validation procedures.
#
#######################################################################

data_DIZXOB
_chemical_formula_moiety         'C12 H12 N2 O6,H2 O1'
_chemical_name_systematic        
'4-((4-nitrobenzoyl)oxy)pyrrolidinium-2-carboxylate monohydrate'
_symmetry_cell_setting           monoclinic
_symmetry_space_group_name_H-M   'P 21'
_symmetry_Int_Tables_number      4
_space_group_name_Hall           'P 2yb'
loop_
_symmetry_equiv_pos_site_id
_symmetry_equiv_pos_as_xyz
1 x,y,z
2 -x,1/2+y,-z
_cell_length_a                   12.8822(17)
_cell_length_b                   9.5928(13)
_cell_length_c                   22.444(3)
_cell_angle_alpha                90
_cell_angle_beta                 103.587(2)
_cell_angle_gamma                90
_cell_volume                     2695.93
_exptl_crystal_colour            colorless
_exptl_crystal_description       plate
_cell_formula_units_Z            8
loop_
_atom_site_label
_atom_site_type_symbol
_atom_site_fract_x
_atom_site_fract_y
_atom_site_fract_z
N1 N 0.8993(2) 0.5674(3) 0.95594(12)
H1 H 0.916(3) 0.639(3) 0.9827(13)
H2 H 0.850(2) 0.513(3) 0.9681(14)
N2 N 0.4895(2) -0.1177(3) 0.83229(13)
O1 O 1.18814(16) 0.5420(3) 0.98370(11)
O2 O 1.07881(19) 0.7030(3) 1.00517(13)
O3 O 0.82078(17) 0.3779(2) 0.85303(10)
O4 O 0.6868(2) 0.4760(3) 0.78378(12)
O5 O 0.5368(2) -0.2141(3) 0.86155(15)
O6 O 0.3970(2) -0.1243(3) 0.80312(11)
C1 C 1.0032(2) 0.4957(3) 0.95596(15)
H3 H 1.0084 0.4070 0.9799
C2 C 0.9975(2) 0.4625(4) 0.88847(16)
H4 H 1.0517 0.5168 0.8736
H5 H 1.0103 0.3620 0.8832
C3 C 0.8856(3) 0.5028(4) 0.85354(15)
H6 H 0.8841 0.5369 0.8112
C4 C 0.8508(3) 0.6135(3) 0.89246(15)
H7 H 0.8779 0.7064 0.8843
H8 H 0.7720 0.6174 0.8849
C5 C 1.0970(3) 0.5896(3) 0.98398(14)
C6 C 0.7217(3) 0.3810(4) 0.81726(14)
C7 C 0.6622(3) 0.2503(3) 0.82305(14)
C8 C 0.5565(3) 0.2400(3) 0.78994(14)
H9 H 0.5243 0.3152 0.7648
C9 C 0.4986(2) 0.1206(3) 0.79363(14)
H10 H 0.4266 0.1120 0.7712
C10 C 0.5483(2) 0.0143(3) 0.83074(14)
C11 C 0.6517(3) 0.0223(4) 0.86502(15)
H11 H 0.6828 -0.0527 0.8908
C12 C 0.7093(3) 0.1417(4) 0.86109(15)
H12 H 0.7809 0.1498 0.8843
N3 N 0.37823(19) 0.6218(3) 0.95826(11)
H13 H 0.416(2) 0.697(3) 0.9716(14)
H14 H 0.328(2) 0.605(3) 0.9783(13)
N4 N -0.0001(3) -0.1197(4) 0.82643(14)
O7 O 0.60470(16) 0.4247(2) 1.04399(9)
O8 O 0.57395(18) 0.6541(2) 1.03288(11)
O9 O 0.31513(17) 0.3880(2) 0.85659(9)
O10 O 0.19679(18) 0.4754(2) 0.77510(10)
O11 O 0.0508(2) -0.2212(3) 0.85059(16)
O12 O -0.0951(2) -0.1238(3) 0.80416(13)
C13 C 0.4528(2) 0.4989(3) 0.97009(13)
H15 H 0.4150 0.4148 0.9807
C14 C 0.4818(2) 0.4783(3) 0.90861(13)
H16 H 0.5406 0.5414 0.9046
H17 H 0.5038 0.3808 0.9039
C15 C 0.3801(2) 0.5133(3) 0.86174(14)
H18 H 0.3944 0.5411 0.8215
C16 C 0.3295(2) 0.6312(3) 0.89057(13)
H19 H 0.3456 0.7225 0.8743
H20 H 0.2510 0.6195 0.8821
C17 C 0.5513(2) 0.5303(3) 1.02098(13)
C18 C 0.2264(2) 0.3826(3) 0.81126(13)
C19 C 0.1694(2) 0.2483(3) 0.81304(13)
C20 C 0.0628(2) 0.2374(3) 0.78166(14)
H21 H 0.0293 0.3127 0.7570
C21 C 0.0057(2) 0.1177(3) 0.78617(13)
H22 H -0.0674 0.1097 0.7656
C22 C 0.0588(3) 0.0096(3) 0.82180(14)
C23 C 0.1646(3) 0.0161(4) 0.85200(15)
H23 H 0.1985 -0.0611 0.8752
C24 C 0.2204(2) 0.1369(3) 0.84800(14)
H24 H 0.2933 0.1443 0.8690
N5 N 0.6467(2) 0.4026(3) 0.52906(11)
H25 H 0.620(3) 0.323(4) 0.5109(15)
H26 H 0.672(2) 0.456(4) 0.5039(15)
N6 N 0.4112(3) -0.3270(3) 0.68609(15)
O13 O 0.43886(17) 0.6587(2) 0.51930(11)
O14 O 0.60556(18) 0.6848(2) 0.50675(11)
O15 O 0.62538(16) 0.2442(2) 0.63895(10)
O16 O 0.77357(18) 0.1396(3) 0.69266(11)
O17 O 0.3199(2) -0.3246(3) 0.65469(16)
O18 O 0.4479(2) -0.4226(3) 0.72010(14)
C25 C 0.5598(2) 0.4750(3) 0.55159(13)
H27 H 0.4940 0.4158 0.5429
C26 C 0.6041(2) 0.4872(3) 0.62114(14)
H28 H 0.6378 0.5794 0.6320
H29 H 0.5466 0.4745 0.6432
C27 C 0.6858(2) 0.3720(3) 0.63689(14)
H30 H 0.7393 0.3899 0.6763
C28 C 0.7364(2) 0.3683(3) 0.58267(13)
H31 H 0.7944 0.4381 0.5873
H32 H 0.7660 0.2748 0.5779
C29 C 0.5333(2) 0.6197(3) 0.52234(13)
C30 C 0.6795(2) 0.1362(3) 0.66960(13)
C31 C 0.6081(2) 0.0153(3) 0.67182(13)
C32 C 0.5013(2) 0.0172(3) 0.64132(14)
H33 H 0.4727 0.0961 0.6175
C33 C 0.4362(3) -0.0956(4) 0.64551(14)
H34 H 0.3630 -0.0960 0.6244
C34 C 0.4807(3) -0.2071(3) 0.68112(14)
C35 C 0.5866(3) -0.2121(3) 0.71230(14)
H35 H 0.6146 -0.2908 0.7364
C36 C 0.6506(2) -0.0991(3) 0.70735(13)
H36 H 0.7238 -0.0996 0.7283
N7 N 0.14689(19) 0.4028(3) 0.52552(11)
H37 H 0.118(2) 0.324(3) 0.5064(14)
H38 H 0.173(2) 0.454(3) 0.4992(12)
N8 N -0.0900(3) -0.3257(3) 0.68436(15)
O19 O -0.05953(17) 0.6592(2) 0.52206(10)
O20 O 0.10452(18) 0.6855(2) 0.50521(11)
O21 O 0.12884(16) 0.2397(2) 0.63440(9)
O22 O 0.27699(17) 0.1319(2) 0.68634(10)
O23 O -0.1837(2) -0.3170(3) 0.65802(17)
O24 O -0.0521(2) -0.4258(3) 0.71497(13)
C37 C 0.0613(2) 0.4740(3) 0.55007(13)
H39 H -0.0045 0.4149 0.5419
C38 C 0.1086(2) 0.4831(3) 0.61924(13)
H40 H 0.1431 0.5748 0.6303
H41 H 0.0525 0.4698 0.6422
C39 C 0.1898(2) 0.3674(3) 0.63301(13)
H42 H 0.2444 0.3832 0.6722
C40 C 0.2383(2) 0.3665(3) 0.57818(13)
H43 H 0.2962 0.4364 0.5828
H44 H 0.2675 0.2733 0.5723
C41 C 0.0340(2) 0.6195(3) 0.52230(13)
C42 C 0.1826(2) 0.1306(3) 0.66404(13)
C43 C 0.1102(2) 0.0108(3) 0.66672(13)
C44 C 0.0017(2) 0.0165(3) 0.63883(13)
H45 H -0.0271 0.0966 0.6160
C45 C -0.0643(2) -0.0941(4) 0.64430(14)
H46 H -0.1385 -0.0914 0.6254
C46 C -0.0194(3) -0.2082(3) 0.67791(14)
C47 C 0.0882(3) -0.2183(3) 0.70607(14)
H47 H 0.1165 -0.2990 0.7287
C48 C 0.1530(2) -0.1064(3) 0.70001(13)
H48 H 0.2272 -0.1098 0.7187
O25 O 0.7534(2) 0.3848(3) 0.97687(13)
H49 H 0.717(3) 0.397(5) 1.0040(14)
H50 H 0.797(2) 0.319(3) 0.9901(17)
O26 O 0.2196(2) 0.2550(3) 0.99232(16)
H51 H 0.215(3) 0.342(2) 0.987(2)
H52 H 0.278(2) 0.226(4) 0.987(2)
O27 O 0.79533(17) 0.4594(3) 0.45777(11)
H53 H 0.841(2) 0.519(3) 0.4788(15)
H54 H 0.827(3) 0.381(3) 0.4635(16)
O28 O 0.29602(17) 0.4604(3) 0.45374(11)
H55 H 0.340(3) 0.520(3) 0.4751(15)
H56 H 0.327(3) 0.381(3) 0.4606(16)
loop_
_geom_bond_atom_site_label_1
_geom_bond_atom_site_label_2
_geom_bond_site_symmetry_1
_geom_bond_site_symmetry_2
N1 H1 1_555 1_555
H2 N1 1_555 1_555
N2 O5 1_555 1_555
O1 C5 1_555 1_555
O2 C5 1_555 1_555
O3 C3 1_555 1_555
O4 C6 1_555 1_555
O6 N2 1_555 1_555
C1 N1 1_555 1_555
H3 C1 1_555 1_555
C2 C1 1_555 1_555
H4 C2 1_555 1_555
H5 C2 1_555 1_555
C3 C2 1_555 1_555
H6 C3 1_555 1_555
C4 N1 1_555 1_555
H7 C4 1_555 1_555
H8 C4 1_555 1_555
C5 C1 1_555 1_555
C6 O3 1_555 1_555
C7 C6 1_555 1_555
C8 C7 1_555 1_555
H9 C8 1_555 1_555
C9 C8 1_555 1_555
H10 C9 1_555 1_555
C10 N2 1_555 1_555
C11 C10 1_555 1_555
H11 C11 1_555 1_555
C12 C7 1_555 1_555
H12 C12 1_555 1_555
N3 H13 1_555 1_555
H14 N3 1_555 1_555
N4 O11 1_555 1_555
O7 C17 1_555 1_555
O8 C17 1_555 1_555
O9 C15 1_555 1_555
O10 C18 1_555 1_555
O12 N4 1_555 1_555
C13 N3 1_555 1_555
H15 C13 1_555 1_555
C14 C13 1_555 1_555
H16 C14 1_555 1_555
H17 C14 1_555 1_555
C15 C14 1_555 1_555
H18 C15 1_555 1_555
C16 N3 1_555 1_555
H19 C16 1_555 1_555
H20 C16 1_555 1_555
C17 C13 1_555 1_555
C18 O9 1_555 1_555
C19 C18 1_555 1_555
C20 C19 1_555 1_555
H21 C20 1_555 1_555
C21 C20 1_555 1_555
H22 C21 1_555 1_555
C22 N4 1_555 1_555
C23 C22 1_555 1_555
H23 C23 1_555 1_555
C24 C19 1_555 1_555
H24 C24 1_555 1_555
N5 H25 1_555 1_555
H26 N5 1_555 1_555
N6 O17 1_555 1_555
O13 C29 1_555 1_555
O14 C29 1_555 1_555
O15 C27 1_555 1_555
O16 C30 1_555 1_555
O18 N6 1_555 1_555
C25 N5 1_555 1_555
H27 C25 1_555 1_555
C26 C25 1_555 1_555
H28 C26 1_555 1_555
H29 C26 1_555 1_555
C27 C26 1_555 1_555
H30 C27 1_555 1_555
C28 N5 1_555 1_555
H31 C28 1_555 1_555
H32 C28 1_555 1_555
C29 C25 1_555 1_555
C30 O15 1_555 1_555
C31 C30 1_555 1_555
C32 C31 1_555 1_555
H33 C32 1_555 1_555
C33 C32 1_555 1_555
H34 C33 1_555 1_555
C34 N6 1_555 1_555
C35 C34 1_555 1_555
H35 C35 1_555 1_555
C36 C31 1_555 1_555
H36 C36 1_555 1_555
N7 H37 1_555 1_555
H38 N7 1_555 1_555
N8 O23 1_555 1_555
O19 C41 1_555 1_555
O20 C41 1_555 1_555
O21 C39 1_555 1_555
O22 C42 1_555 1_555
O24 N8 1_555 1_555
C37 N7 1_555 1_555
H39 C37 1_555 1_555
C38 C37 1_555 1_555
H40 C38 1_555 1_555
H41 C38 1_555 1_555
C39 C38 1_555 1_555
H42 C39 1_555 1_555
C40 N7 1_555 1_555
H43 C40 1_555 1_555
H44 C40 1_555 1_555
C41 C37 1_555 1_555
C42 O21 1_555 1_555
C43 C42 1_555 1_555
C44 C43 1_555 1_555
H45 C44 1_555 1_555
C45 C44 1_555 1_555
H46 C45 1_555 1_555
C46 N8 1_555 1_555
C47 C46 1_555 1_555
H47 C47 1_555 1_555
C48 C43 1_555 1_555
H48 C48 1_555 1_555
O25 H49 1_555 1_555
H50 O25 1_555 1_555
O26 H51 1_555 1_555
H52 O26 1_555 1_555
O27 H53 1_555 1_555
H54 O27 1_555 1_555
O28 H55 1_555 1_555
H56 O28 1_555 1_555
C3 C4 1_555 1_555
C9 C10 1_555 1_555
C11 C12 1_555 1_555
C15 C16 1_555 1_555
C21 C22 1_555 1_555
C23 C24 1_555 1_555
C27 C28 1_555 1_555
C33 C34 1_555 1_555
C35 C36 1_555 1_555
C39 C40 1_555 1_555
C45 C46 1_555 1_555
C47 C48 1_555 1_555

#END
