
#######################################################################
#
#                 Cambridge Crystallographic Data Centre
#                                CCDC 
#
#######################################################################
#
# If this CIF has been generated from an entry in the Cambridge 
# Structural Database, then it will include bibliographic, chemical, 
# crystal, experimental, refinement or atomic coordinate data resulting 
# from the CCDC's data processing and validation procedures.
#
#######################################################################

data_DIZZOD
_chemical_formula_moiety         'C15 H3 F15,C16 H10'
_chemical_name_systematic        
'1,2,3,5,7-pentakis(trifluoromethyl)azulene pyrene'
_symmetry_cell_setting           monoclinic
_symmetry_space_group_name_H-M   'P 21/n'
_symmetry_Int_Tables_number      14
_space_group_name_Hall           '-P 2yn'
loop_
_symmetry_equiv_pos_site_id
_symmetry_equiv_pos_as_xyz
1 x,y,z
2 1/2-x,1/2+y,1/2-z
3 -x,-y,-z
4 1/2+x,1/2-y,1/2+z
_cell_length_a                   7.2226(7)
_cell_length_b                   16.1783(17)
_cell_length_c                   21.334(2)
_cell_angle_alpha                90
_cell_angle_beta                 92.461(5)
_cell_angle_gamma                90
_cell_volume                     2490.57
_exptl_crystal_colour            purple
_exptl_crystal_description       rod
_cell_formula_units_Z            4
_exptl_crystal_recrystallization_method Dichloromethane
loop_
_atom_site_label
_atom_site_type_symbol
_atom_site_fract_x
_atom_site_fract_y
_atom_site_fract_z
C1 C 0.72979(14) 0.84108(6) 0.90389(5)
C2 C 0.73857(14) 0.81507(6) 0.96677(5)
C3 C 0.71749(14) 0.72844(6) 0.96945(5)
C4 C 0.69121(15) 0.61440(6) 0.89020(5)
H1 H 0.6890 0.5763 0.9241
C5 C 0.68034(15) 0.57933(6) 0.83062(5)
C6 C 0.68554(15) 0.61770(7) 0.77222(5)
H2 H 0.6769 0.5819 0.7369
C7 C 0.70165(15) 0.70153(7) 0.75890(5)
C8 C 0.71338(14) 0.76907(6) 0.79987(5)
H3 H 0.7225 0.8217 0.7804
C9 C 0.71356(14) 0.77001(6) 0.86515(5)
C10 C 0.70498(14) 0.69770(6) 0.90742(5)
C11 C 0.72396(15) 0.92940(7) 0.88209(5)
C12 C 0.77520(15) 0.87090(7) 1.02284(5)
C13 C 0.70436(15) 0.67795(7) 1.02810(5)
C14 C 0.66640(17) 0.48553(7) 0.82980(5)
F1 F 0.5601(3) 0.45702(8) 0.87348(7)
F2 F 0.82826(15) 0.44995(6) 0.83592(11)
F3 F 0.5885(3) 0.45673(6) 0.77581(5)
C15 C 0.70131(17) 0.72561(7) 0.69006(5)
F4 F 0.63670(12) 0.93733(5) 0.82532(4)
F5 F 0.89185(11) 0.96336(5) 0.87682(4)
F6 F 0.63127(11) 0.97785(4) 0.92067(4)
F7 F 0.87516(11) 0.93720(5) 1.00817(4)
F8 F 0.87169(10) 0.83181(5) 1.06889(3)
F9 F 0.61890(10) 0.89854(5) 1.04717(4)
F10 F 0.61877(11) 0.71855(5) 1.07315(3)
F11 F 0.87059(11) 0.65449(5) 1.05266(4)
F12 F 0.60695(11) 0.60786(5) 1.01805(3)
F13 F 0.71599(15) 0.66057(5) 0.65211(4)
F14 F 0.84011(10) 0.77720(5) 0.67797(3)
F15 F 0.54497(11) 0.76554(6) 0.67224(4)
C16 C 0.83335(17) 0.45633(7) 0.22129(6)
H4 H 0.8442 0.5148 0.2190
C17 C 0.83059(18) 0.41792(8) 0.27954(6)
H5 H 0.8391 0.4504 0.3167
C18 C 0.81552(16) 0.33244(7) 0.28398(5)
H6 H 0.8137 0.3070 0.3241
C19 C 0.79152(16) 0.19476(7) 0.23270(5)
H7 H 0.7925 0.1682 0.2724
C20 C 0.77933(17) 0.14850(7) 0.17984(6)
H8 H 0.7731 0.0900 0.1832
C21 C 0.75888(16) 0.13893(8) 0.06361(6)
H9 H 0.7486 0.0805 0.0661
C22 C 0.75716(16) 0.17740(9) 0.00530(6)
H10 H 0.7446 0.1449 -0.0318
C23 C 0.77353(16) 0.26260(9) 0.00055(6)
H11 H 0.7730 0.2877 -0.0397
C24 C 0.80813(17) 0.40057(8) 0.05188(6)
H12 H 0.8095 0.4271 0.0122
C25 C 0.82249(17) 0.44700(8) 0.10466(6)
H13 H 0.8342 0.5053 0.1012
C26 C 0.82037(15) 0.40976(7) 0.16590(5)
C27 C 0.80306(15) 0.28345(7) 0.22981(5)
C28 C 0.77563(15) 0.18591(7) 0.11872(5)
C29 C 0.79046(14) 0.27339(7) 0.11433(5)
C30 C 0.79079(15) 0.31210(8) 0.05450(5)
C31 C 0.80464(14) 0.32226(7) 0.17001(5)
F16? F 0.703(2) 0.4518(5) 0.7803(5)
F17? F 0.5275(15) 0.4557(7) 0.8532(8)
F18? F 0.7944(16) 0.4527(5) 0.8751(4)
loop_
_geom_bond_atom_site_label_1
_geom_bond_atom_site_label_2
_geom_bond_site_symmetry_1
_geom_bond_site_symmetry_2
C1 C2 1_555 1_555
C2 C3 1_555 1_555
C3 C10 1_555 1_555
C4 H1 1_555 1_555
C5 C4 1_555 1_555
C6 C5 1_555 1_555
H2 C6 1_555 1_555
C7 C6 1_555 1_555
C8 C7 1_555 1_555
H3 C8 1_555 1_555
C9 C1 1_555 1_555
C10 C4 1_555 1_555
C11 C1 1_555 1_555
C12 C2 1_555 1_555
C13 C3 1_555 1_555
C14 C5 1_555 1_555
F1 C14 1_555 1_555
F2 C14 1_555 1_555
F3 C14 1_555 1_555
C15 C7 1_555 1_555
F4 C11 1_555 1_555
F5 C11 1_555 1_555
F6 C11 1_555 1_555
F7 C12 1_555 1_555
F8 C12 1_555 1_555
F9 C12 1_555 1_555
F10 C13 1_555 1_555
F11 C13 1_555 1_555
F12 C13 1_555 1_555
F13 C15 1_555 1_555
F14 C15 1_555 1_555
F15 C15 1_555 1_555
C16 H4 1_555 1_555
C17 C16 1_555 1_555
H5 C17 1_555 1_555
C18 C17 1_555 1_555
H6 C18 1_555 1_555
C19 H7 1_555 1_555
C20 C19 1_555 1_555
H8 C20 1_555 1_555
C21 H9 1_555 1_555
C22 C21 1_555 1_555
H10 C22 1_555 1_555
C23 C22 1_555 1_555
H11 C23 1_555 1_555
C24 H12 1_555 1_555
C25 C24 1_555 1_555
H13 C25 1_555 1_555
C26 C16 1_555 1_555
C27 C18 1_555 1_555
C28 C20 1_555 1_555
C29 C28 1_555 1_555
C30 C23 1_555 1_555
C31 C26 1_555 1_555
C8 C9 1_555 1_555
C9 C10 1_555 1_555
C19 C27 1_555 1_555
C21 C28 1_555 1_555
C24 C30 1_555 1_555
C25 C26 1_555 1_555
C27 C31 1_555 1_555
C29 C30 1_555 1_555
C29 C31 1_555 1_555

#END
