
#######################################################################
#
#                 Cambridge Crystallographic Data Centre
#                                CCDC 
#
#######################################################################
#
# If this CIF has been generated from an entry in the Cambridge 
# Structural Database, then it will include bibliographic, chemical, 
# crystal, experimental, refinement or atomic coordinate data resulting 
# from the CCDC's data processing and validation procedures.
#
#######################################################################

data_DOBVAR
_chemical_formula_moiety         'C38 H38 S4'
_chemical_name_systematic        
11,14,32,35-Tetrathia(0^1,22^)(3.6.3.6)(1,3)-benzophane-2,23-diene
_symmetry_cell_setting           monoclinic
_symmetry_space_group_name_H-M   'P 21/c'
_symmetry_Int_Tables_number      14
_space_group_name_Hall           '-P 2ybc'
loop_
_symmetry_equiv_pos_site_id
_symmetry_equiv_pos_as_xyz
1 x,y,z
2 -x,1/2+y,1/2-z
3 -x,-y,-z
4 x,1/2-y,1/2+z
_cell_length_a                   11.556(4)
_cell_length_b                   8.489(2)
_cell_length_c                   17.104(5)
_cell_angle_alpha                90
_cell_angle_beta                 104.40(3)
_cell_angle_gamma                90
_cell_volume                     1625.17
_exptl_crystal_colour            colorless
_chemical_melting_point          'above 280deg.C(dec)'
_cell_formula_units_Z            2
loop_
_atom_site_label
_atom_site_type_symbol
_atom_site_fract_x
_atom_site_fract_y
_atom_site_fract_z
C1 C 0.0438(3) 0.9542(4) 0.5332(2)
C2 C 0.1432(3) 0.8810(4) 0.5023(2)
C3 C 0.2573(3) 0.8976(4) 0.5366(2)
C4 C 0.3475(3) 0.7545(4) 0.4380(2)
C5 C 0.4443(3) 0.6954(4) 0.4139(2)
C6 C 0.5555(3) 0.7112(5) 0.4657(3)
C7 C 0.5698(3) 0.7807(5) 0.5398(3)
C8 C 0.4731(3) 0.8390(5) 0.5631(2)
C9 C 0.3597(3) 0.8275(4) 0.5121(2)
C10 C 0.4339(4) 0.6151(5) 0.3345(3)
S1 S 0.3060(1) 0.6572(1) 0.2531(1)
C11 C 0.3256(5) 0.8627(5) 0.2331(3)
C12 C 0.2335(4) 0.9631(6) 0.2505(3)
S2 S 0.2494(1) 1.1664(2) 0.2228(1)
C13 C 0.1075(4) 1.2414(5) 0.2320(2)
C14 C 0.0380(3) 1.1539(4) 0.3532(2)
C15 C 0.0957(3) 1.2644(4) 0.3170(2)
C16 C 0.1415(3) 1.3955(4) 0.3621(2)
C17 C 0.1310(3) 1.4153(4) 0.4396(3)
C18 C 0.0753(3) 1.3027(4) 0.4747(2)
C19 C -0.0261(3) 0.8286(4) 0.5685(2)
H1 H 0.0803 1.0327 0.5719
H2 H 0.1213 0.8176 0.4544
H3 H 0.2769 0.9643 0.5833
H4 H 0.2694 0.7450 0.4022
H5 H 0.6241 0.6718 0.4497
H6 H 0.6480 0.7885 0.5757
H7 H 0.4839 0.8888 0.6148
H8 H 0.4971 0.6391 0.3091
H9 H 0.4299 0.5033 0.3417
H10 H 0.3053 0.8882 0.1767
H11 H 0.4017 0.9082 0.2586
H12 H 0.2137 0.9593 0.3017
H13 H 0.1615 0.9612 0.2079
H14 H 0.1048 1.3440 0.2081
H15 H 0.0417 1.1794 0.2023
H16 H 0.0057 1.0618 0.3230
H17 H 0.1815 1.4745 0.3384
H18 H 0.1638 1.5073 0.4697
H19 H 0.0700 1.3156 0.5294
C1B C -0.0438(3) 1.0458(4) 0.4668(2)
C19B C 0.0261(3) 1.1714(4) 0.4315(2)
C14B C -0.0380(3) 0.8461(4) 0.6468(2)
C18B C -0.0753(3) 0.6973(4) 0.5253(2)
C2B C -0.1432(3) 1.1190(4) 0.4977(2)
H1B H -0.0803 0.9673 0.4281
C15B C -0.0957(3) 0.7356(4) 0.6830(2)
H16B H -0.0057 0.9382 0.6770
C17B C -0.1310(3) 0.5847(4) 0.5604(3)
H19B H -0.0700 0.6844 0.4706
C3B C -0.2573(3) 1.1024(4) 0.4634(2)
H2B H -0.1213 1.1824 0.5456
C13B C -0.1075(4) 0.7586(5) 0.7680(2)
C16B C -0.1415(3) 0.6045(4) 0.6379(2)
H18B H -0.1638 0.4927 0.5303
C9B C -0.3597(3) 1.1725(4) 0.4879(2)
H3B H -0.2769 1.0357 0.4167
S2B S -0.2494(1) 0.8336(2) 0.7772(1)
H14B H -0.1048 0.6560 0.7919
H15B H -0.0417 0.8206 0.7977
H17B H -0.1815 0.5255 0.6616
C4B C -0.3475(3) 1.2455(4) 0.5620(2)
C8B C -0.4731(3) 1.1610(5) 0.4369(2)
C12B C -0.2335(4) 1.0369(6) 0.7495(3)
C5B C -0.4443(3) 1.3046(4) 0.5861(2)
H4B H -0.2694 1.2550 0.5978
C7B C -0.5698(3) 1.2193(5) 0.4602(3)
H7B H -0.4839 1.1112 0.3852
C11B C -0.3256(5) 1.1373(5) 0.7669(3)
H12B H -0.2137 1.0407 0.6983
H13B H -0.1615 1.0388 0.7921
C6B C -0.5555(3) 1.2888(5) 0.5343(3)
C10B C -0.4339(4) 1.3849(5) 0.6655(3)
H6B H -0.6480 1.2115 0.4243
S1B S -0.3060(1) 1.3428(1) 0.7469(1)
H10B H -0.3053 1.1118 0.8233
H11B H -0.4017 1.0918 0.7414
H5B H -0.6241 1.3282 0.5503
H8B H -0.4971 1.3609 0.6909
H9B H -0.4299 1.4967 0.6583
loop_
_geom_bond_atom_site_label_1
_geom_bond_atom_site_label_2
_geom_bond_site_symmetry_1
_geom_bond_site_symmetry_2
C1 C2 1_555 1_555
C2 C3 1_555 1_555
C3 C9 1_555 1_555
C4 C5 1_555 1_555
C5 C6 1_555 1_555
C6 C7 1_555 1_555
C7 C8 1_555 1_555
C8 C9 1_555 1_555
C9 C4 1_555 1_555
C10 C5 1_555 1_555
S1 C10 1_555 1_555
C11 S1 1_555 1_555
C12 C11 1_555 1_555
S2 C12 1_555 1_555
C13 S2 1_555 1_555
C14 C15 1_555 1_555
C15 C13 1_555 1_555
C16 C15 1_555 1_555
C17 C16 1_555 1_555
C18 C17 1_555 1_555
C19 C1 1_555 1_555
H1 C1 1_555 1_555
H2 C2 1_555 1_555
H3 C3 1_555 1_555
H4 C4 1_555 1_555
H5 C6 1_555 1_555
H6 C7 1_555 1_555
H7 C8 1_555 1_555
H8 C10 1_555 1_555
H9 C10 1_555 1_555
H10 C11 1_555 1_555
H11 C11 1_555 1_555
H12 C12 1_555 1_555
H13 C12 1_555 1_555
H14 C13 1_555 1_555
H15 C13 1_555 1_555
H16 C14 1_555 1_555
H17 C16 1_555 1_555
H18 C17 1_555 1_555
H19 C18 1_555 1_555
C1B C1 1_555 1_555
C19B C14 1_555 1_555
C14B C19 1_555 1_555
C18B C19 1_555 1_555
C2B C1B 1_555 1_555
H1B C1B 1_555 1_555
C15B C14B 1_555 1_555
H16B C14B 1_555 1_555
C17B C18B 1_555 1_555
H19B C18B 1_555 1_555
C3B C2B 1_555 1_555
H2B C2B 1_555 1_555
C13B C15B 1_555 1_555
C16B C15B 1_555 1_555
H18B C17B 1_555 1_555
C9B C3B 1_555 1_555
H3B C3B 1_555 1_555
S2B C13B 1_555 1_555
H14B C13B 1_555 1_555
H15B C13B 1_555 1_555
H17B C16B 1_555 1_555
C4B C9B 1_555 1_555
C8B C9B 1_555 1_555
C12B S2B 1_555 1_555
C5B C4B 1_555 1_555
H4B C4B 1_555 1_555
C7B C8B 1_555 1_555
H7B C8B 1_555 1_555
C11B C12B 1_555 1_555
H12B C12B 1_555 1_555
H13B C12B 1_555 1_555
C6B C5B 1_555 1_555
C10B C5B 1_555 1_555
H6B C7B 1_555 1_555
S1B C11B 1_555 1_555
H10B C11B 1_555 1_555
H11B C11B 1_555 1_555
H5B C6B 1_555 1_555
H8B C10B 1_555 1_555
H9B C10B 1_555 1_555
C18 C19B 1_555 1_555
C1B C19B 1_555 1_555
C17B C16B 1_555 1_555
C7B C6B 1_555 1_555
C10B S1B 1_555 1_555

#END
