
#######################################################################
#
#                 Cambridge Crystallographic Data Centre
#                                CCDC 
#
#######################################################################
#
# If this CIF has been generated from an entry in the Cambridge 
# Structural Database, then it will include bibliographic, chemical, 
# crystal, experimental, refinement or atomic coordinate data resulting 
# from the CCDC's data processing and validation procedures.
#
#######################################################################

data_DOBZUQ
_chemical_formula_moiety         'C84 H44 O11,2(C1 H2 Cl2)'
_chemical_name_systematic        
'6,12,15,18-tetrakis(t-Butylperoxy)-(2-(4-methoxyphenyl)-1,3-dioxolo)(4,5-1,9)C60fullerene dichloromethane solvate'
_symmetry_cell_setting           monoclinic
_symmetry_space_group_name_H-M   'P 21/c'
_symmetry_Int_Tables_number      14
_space_group_name_Hall           '-P 2ybc'
loop_
_symmetry_equiv_pos_site_id
_symmetry_equiv_pos_as_xyz
1 x,y,z
2 -x,1/2+y,1/2-z
3 -x,-y,-z
4 x,1/2-y,1/2+z
_cell_length_a                   23.525(5)
_cell_length_b                   14.298(3)
_cell_length_c                   18.395(4)
_cell_angle_alpha                90
_cell_angle_beta                 93.55(3)
_cell_angle_gamma                90
_cell_volume                     6175.48
_exptl_crystal_colour            red
_exptl_crystal_description       block
_cell_formula_units_Z            4
_exptl_crystal_recrystallization_method 
'carbon disulfide/hexane/ethanol/acetonitrile/dichloromethane/hexafluorobenzene'
loop_
_atom_site_label
_atom_site_type_symbol
_atom_site_fract_x
_atom_site_fract_y
_atom_site_fract_z
Cl1 Cl 0.43295(9) 0.17103(16) 0.12966(12)
Cl2 Cl 0.32754(10) 0.06608(17) 0.13232(14)
C85 C 0.3683(3) 0.1510(5) 0.0874(4)
H45 H 0.3734 0.1300 0.0381
H46 H 0.3472 0.2093 0.0844
Cl3 Cl 0.43736(12) 0.61217(18) 0.17809(19)
Cl4 Cl 0.38708(9) 0.78870(17) 0.21275(14)
C86 C 0.3779(3) 0.6647(5) 0.2057(5)
H47 H 0.3690 0.6397 0.2527
H48 H 0.3461 0.6510 0.1712
O1 O 0.15075(18) 0.5050(3) 0.0619(2)
O2 O 0.14537(17) 0.6056(3) 0.0612(2)
O3 O 0.13186(15) 0.7179(2) 0.2248(2)
O4 O 0.17632(16) 0.7718(2) 0.2683(2)
O5 O 0.26028(16) 0.6799(2) 0.3926(2)
O6 O 0.31949(16) 0.6643(3) 0.3778(2)
O7 O 0.36253(14) 0.4504(2) 0.3287(2)
O8 O 0.39269(15) 0.3940(3) 0.3887(2)
O9 O 0.29323(14) 0.4958(2) 0.15099(19)
O10 O 0.28974(15) 0.3410(2) 0.1283(2)
O11 O 0.4458(3) 0.4579(4) -0.1221(3)
C1 C 0.0398(2) 0.2999(4) 0.4495(3)
C2 C 0.0881(3) 0.2422(4) 0.4722(3)
C3 C 0.0939(3) 0.1716(4) 0.4162(3)
C4 C 0.0485(2) 0.1871(4) 0.3593(3)
C5 C 0.0156(2) 0.2670(4) 0.3821(3)
C6 C -0.0047(2) 0.3314(4) 0.3284(3)
C7 C -0.0029(2) 0.4293(4) 0.3424(3)
C8 C 0.0205(2) 0.4637(4) 0.4099(3)
C9 C 0.0427(2) 0.3969(4) 0.4654(3)
C10 C 0.0920(2) 0.4366(4) 0.5006(3)
C11 C 0.1386(2) 0.3812(4) 0.5222(3)
C12 C 0.1373(3) 0.2816(4) 0.5071(3)
C13 C 0.1929(3) 0.2528(4) 0.4871(3)
C14 C 0.1980(2) 0.1849(4) 0.4339(3)
C15 C 0.1483(3) 0.1455(4) 0.3971(3)
C16 C 0.1589(3) 0.1309(4) 0.3205(3)
C17 C 0.1152(3) 0.1458(4) 0.2670(3)
C18 C 0.0595(2) 0.1741(4) 0.2857(3)
C19 C 0.0373(2) 0.2413(4) 0.2313(3)
C20 C 0.0058(2) 0.3164(4) 0.2527(3)
C21 C 0.0141(2) 0.4074(4) 0.2198(3)
C22 C 0.0090(2) 0.4773(4) 0.2767(3)
C23 C 0.0446(2) 0.5546(4) 0.2788(3)
C24 C 0.0705(2) 0.5886(4) 0.3489(3)
C25 C 0.0577(2) 0.5433(4) 0.4130(3)
C26 C 0.1022(3) 0.5272(4) 0.4685(3)
C27 C 0.1574(2) 0.5551(4) 0.4564(3)
C28 C 0.2049(2) 0.4993(4) 0.4798(3)
C29 C 0.1961(2) 0.4114(4) 0.5122(3)
C30 C 0.2294(2) 0.3352(4) 0.4902(3)
C31 C 0.2697(2) 0.3471(4) 0.4399(3)
C32 C 0.2747(2) 0.2767(4) 0.3826(3)
C33 C 0.2405(2) 0.1994(4) 0.3812(3)
C34 C 0.2160(2) 0.1646(4) 0.3110(3)
C35 C 0.2271(2) 0.2130(4) 0.2487(3)
C36 C 0.1824(2) 0.2281(4) 0.1927(3)
C37 C 0.1282(2) 0.1949(4) 0.2006(3)
C38 C 0.0809(2) 0.2527(4) 0.1795(3)
C39 C 0.0895(2) 0.3397(4) 0.1503(3)
C40 C 0.0554(2) 0.4209(4) 0.1703(3)
C41 C 0.0908(2) 0.5025(4) 0.1699(3)
C42 C 0.0853(2) 0.5680(4) 0.2239(3)
C43 C 0.1360(2) 0.6251(3) 0.2561(3)
C44 C 0.1272(2) 0.6215(3) 0.3379(3)
C45 C 0.1691(2) 0.6045(3) 0.3920(3)
C46 C 0.2318(2) 0.5924(4) 0.3772(3)
C47 C 0.2491(2) 0.5116(4) 0.4302(3)
C48 C 0.2803(2) 0.4370(4) 0.4094(3)
C49 C 0.3036(2) 0.4265(4) 0.3330(3)
C50 C 0.2891(2) 0.3238(4) 0.3158(3)
C51 C 0.2650(2) 0.2920(4) 0.2513(3)
C52 C 0.2509(2) 0.3532(4) 0.1842(3)
C53 C 0.2537(2) 0.4615(3) 0.1999(3)
C54 C 0.2699(2) 0.4897(4) 0.2791(3)
C55 C 0.2362(2) 0.5577(4) 0.2997(3)
C56 C 0.1901(2) 0.5746(3) 0.2420(3)
C57 C 0.1957(2) 0.5126(3) 0.1875(3)
C58 C 0.1489(2) 0.4793(4) 0.1372(3)
C59 C 0.1465(2) 0.3720(4) 0.1373(3)
C60 C 0.1916(2) 0.3187(4) 0.1582(3)
C61 C 0.1108(3) 0.6294(4) -0.0069(4)
C62 C 0.1061(3) 0.7343(4) 0.0085(3)
H1 H 0.0830 0.7439 0.0491
H2 H 0.0890 0.7653 -0.0337
H3 H 0.1434 0.7596 0.0198
C63 C 0.1455(3) 0.6116(4) -0.0713(4)
H4 H 0.1807 0.6455 -0.0655
H5 H 0.1246 0.6320 -0.1149
H6 H 0.1533 0.5459 -0.0747
C64 C 0.0534(3) 0.5825(5) -0.0073(4)
H7 H 0.0348 0.6000 0.0357
H8 H 0.0583 0.5159 -0.0082
H9 H 0.0305 0.6019 -0.0497
C65 C 0.2011(2) 0.8368(4) 0.2170(3)
C66 C 0.2313(2) 0.7830(4) 0.1615(4)
H10 H 0.2590 0.7425 0.1856
H11 H 0.2501 0.8257 0.1306
H12 H 0.2043 0.7463 0.1326
C67 C 0.2448(2) 0.8870(4) 0.2705(3)
H13 H 0.2248 0.9213 0.3058
H14 H 0.2674 0.9293 0.2439
H15 H 0.2691 0.8414 0.2949
C68 C 0.1562(2) 0.9037(4) 0.1843(4)
H16 H 0.1388 0.9364 0.2226
H17 H 0.1277 0.8690 0.1561
H18 H 0.1738 0.9478 0.1534
C69 C 0.3554(3) 0.7023(4) 0.4386(4)
C70 C 0.4143(3) 0.6921(6) 0.4104(4)
H19 H 0.4228 0.6270 0.4046
H20 H 0.4419 0.7197 0.4445
H21 H 0.4154 0.7232 0.3643
C71 C 0.3418(3) 0.8003(5) 0.4517(5)
H22 H 0.3046 0.8046 0.4701
H23 H 0.3425 0.8346 0.4069
H24 H 0.3694 0.8261 0.4868
C72 C 0.3517(3) 0.6379(5) 0.5050(4)
H25 H 0.3612 0.5751 0.4918
H26 H 0.3137 0.6392 0.5211
H27 H 0.3779 0.6591 0.5436
C73 C 0.4458(3) 0.3629(5) 0.3623(4)
C74 C 0.4836(3) 0.4480(5) 0.3491(5)
H28 H 0.4887 0.4839 0.3931
H29 H 0.4657 0.4861 0.3113
H30 H 0.5200 0.4271 0.3346
C75 C 0.4356(3) 0.3015(6) 0.2948(5)
H31 H 0.4121 0.2492 0.3062
H32 H 0.4714 0.2792 0.2794
H33 H 0.4168 0.3375 0.2563
C76 C 0.4699(3) 0.3057(5) 0.4262(4)
H34 H 0.4762 0.3455 0.4679
H35 H 0.5053 0.2780 0.4142
H36 H 0.4434 0.2573 0.4369
C77 C 0.3189(6) 0.4248(6) 0.1282(7)
H37 H 0.3498 0.4153 0.1657
C78 C 0.3513(6) 0.4365(8) 0.0573(6)
C79 C 0.4030(6) 0.4204(6) 0.0595(5)
H38 H 0.4210 0.4023 0.1036
C80 C 0.4350(3) 0.4282(5) 0.0000(5)
H39 H 0.4741 0.4184 0.0046
C81 C 0.4088(3) 0.4504(4) -0.0658(4)
C82 C 0.3513(4) 0.4624(4) -0.0711(5)
H40 H 0.3322 0.4758 -0.1156
C83 C 0.3215(4) 0.4537(6) -0.0070(9)
H41 H 0.2821 0.4598 -0.0088
C84 C 0.4192(4) 0.4813(7) -0.1896(7)
H42 H 0.4472 0.4852 -0.2253
H43 H 0.4005 0.5406 -0.1860
H44 H 0.3917 0.4343 -0.2039
loop_
_geom_bond_atom_site_label_1
_geom_bond_atom_site_label_2
_geom_bond_site_symmetry_1
_geom_bond_site_symmetry_2
Cl1 C85 1_555 1_555
Cl2 C85 1_555 1_555
Cl3 C86 1_555 1_555
Cl4 C86 1_555 1_555
O1 O2 1_555 1_555
O2 C61 1_555 1_555
O3 O4 1_555 1_555
O4 C65 1_555 1_555
O5 O6 1_555 1_555
O6 C69 1_555 1_555
O7 O8 1_555 1_555
O8 C73 1_555 1_555
O9 C53 1_555 1_555
O10 C52 1_555 1_555
O11 C81 1_555 1_555
C1 C2 1_555 1_555
C2 C3 1_555 1_555
C3 C4 1_555 1_555
C4 C5 1_555 1_555
C5 C1 1_555 1_555
C6 C5 1_555 1_555
C7 C6 1_555 1_555
C8 C7 1_555 1_555
C9 C1 1_555 1_555
C10 C9 1_555 1_555
C11 C10 1_555 1_555
C12 C2 1_555 1_555
C13 C12 1_555 1_555
C14 C13 1_555 1_555
C15 C3 1_555 1_555
C16 C15 1_555 1_555
C17 C16 1_555 1_555
C18 C4 1_555 1_555
C19 C18 1_555 1_555
C20 C6 1_555 1_555
C21 C20 1_555 1_555
C22 C7 1_555 1_555
C23 C22 1_555 1_555
C24 C23 1_555 1_555
C25 C8 1_555 1_555
C26 C10 1_555 1_555
C27 C26 1_555 1_555
C28 C27 1_555 1_555
C29 C11 1_555 1_555
C30 C13 1_555 1_555
C31 C30 1_555 1_555
C32 C31 1_555 1_555
C33 C14 1_555 1_555
C34 C16 1_555 1_555
C35 C34 1_555 1_555
C36 C35 1_555 1_555
C37 C17 1_555 1_555
C38 C19 1_555 1_555
C39 C38 1_555 1_555
C40 C21 1_555 1_555
C41 C40 1_555 1_555
C42 C23 1_555 1_555
C43 O3 1_555 1_555
C44 C24 1_555 1_555
C45 C27 1_555 1_555
C46 O5 1_555 1_555
C47 C28 1_555 1_555
C48 C31 1_555 1_555
C49 O7 1_555 1_555
C50 C32 1_555 1_555
C51 C35 1_555 1_555
C52 C51 1_555 1_555
C53 C52 1_555 1_555
C54 C49 1_555 1_555
C55 C46 1_555 1_555
C56 C43 1_555 1_555
C57 C53 1_555 1_555
C58 O1 1_555 1_555
C59 C39 1_555 1_555
C60 C36 1_555 1_555
C61 C62 1_555 1_555
C62 H1 1_555 1_555
H2 C62 1_555 1_555
H3 C62 1_555 1_555
C63 C61 1_555 1_555
H4 C63 1_555 1_555
H5 C63 1_555 1_555
H6 C63 1_555 1_555
C64 C61 1_555 1_555
H7 C64 1_555 1_555
H8 C64 1_555 1_555
H9 C64 1_555 1_555
C65 C66 1_555 1_555
C66 H10 1_555 1_555
H11 C66 1_555 1_555
H12 C66 1_555 1_555
C67 C65 1_555 1_555
H13 C67 1_555 1_555
H14 C67 1_555 1_555
H15 C67 1_555 1_555
C68 C65 1_555 1_555
H16 C68 1_555 1_555
H17 C68 1_555 1_555
H18 C68 1_555 1_555
C69 C70 1_555 1_555
C70 H19 1_555 1_555
H20 C70 1_555 1_555
H21 C70 1_555 1_555
C71 C69 1_555 1_555
H22 C71 1_555 1_555
H23 C71 1_555 1_555
H24 C71 1_555 1_555
C72 C69 1_555 1_555
H25 C72 1_555 1_555
H26 C72 1_555 1_555
H27 C72 1_555 1_555
C73 C74 1_555 1_555
C74 H28 1_555 1_555
H29 C74 1_555 1_555
H30 C74 1_555 1_555
C75 C73 1_555 1_555
H31 C75 1_555 1_555
H32 C75 1_555 1_555
H33 C75 1_555 1_555
C76 C73 1_555 1_555
H34 C76 1_555 1_555
H35 C76 1_555 1_555
H36 C76 1_555 1_555
C77 O9 1_555 1_555
H37 C77 1_555 1_555
C78 C77 1_555 1_555
C79 C78 1_555 1_555
H38 C79 1_555 1_555
C80 C79 1_555 1_555
H39 C80 1_555 1_555
C81 C80 1_555 1_555
C82 C81 1_555 1_555
H40 C82 1_555 1_555
C83 C78 1_555 1_555
H41 C83 1_555 1_555
C84 O11 1_555 1_555
H42 C84 1_555 1_555
H43 C84 1_555 1_555
H44 C84 1_555 1_555
C85 H45 1_555 1_555
H46 C85 1_555 1_555
C86 H47 1_555 1_555
H48 C86 1_555 1_555
O10 C77 1_555 1_555
C8 C9 1_555 1_555
C11 C12 1_555 1_555
C14 C15 1_555 1_555
C17 C18 1_555 1_555
C19 C20 1_555 1_555
C21 C22 1_555 1_555
C24 C25 1_555 1_555
C25 C26 1_555 1_555
C28 C29 1_555 1_555
C29 C30 1_555 1_555
C32 C33 1_555 1_555
C33 C34 1_555 1_555
C36 C37 1_555 1_555
C37 C38 1_555 1_555
C39 C40 1_555 1_555
C41 C42 1_555 1_555
C41 C58 1_555 1_555
C42 C43 1_555 1_555
C43 C44 1_555 1_555
C44 C45 1_555 1_555
C45 C46 1_555 1_555
C46 C47 1_555 1_555
C47 C48 1_555 1_555
C48 C49 1_555 1_555
C49 C50 1_555 1_555
C50 C51 1_555 1_555
C52 C60 1_555 1_555
C53 C54 1_555 1_555
C54 C55 1_555 1_555
C55 C56 1_555 1_555
C56 C57 1_555 1_555
C57 C58 1_555 1_555
C58 C59 1_555 1_555
C59 C60 1_555 1_555
C82 C83 1_555 1_555

#END
