
#######################################################################
#
#                 Cambridge Crystallographic Data Centre
#                                CCDC 
#
#######################################################################
#
# If this CIF has been generated from an entry in the Cambridge 
# Structural Database, then it will include bibliographic, chemical, 
# crystal, experimental, refinement or atomic coordinate data resulting 
# from the CCDC's data processing and validation procedures.
#
#######################################################################

data_DOCCAZ
_chemical_formula_moiety         'C18 H17 Cl2 N1 O1'
_chemical_name_systematic        
cis-(11,12-Dichloro-3-phenyl-8,2-oxazatricyclo(8.4.0.0^4,9^)tetradeca-1(10),11,13-triene)
_symmetry_cell_setting           triclinic
_symmetry_space_group_name_H-M   'P -1'
_symmetry_Int_Tables_number      2
_space_group_name_Hall           '-P 1'
loop_
_symmetry_equiv_pos_site_id
_symmetry_equiv_pos_as_xyz
1 x,y,z
2 -x,-y,-z
_cell_length_a                   9.534(1)
_cell_length_b                   11.2904(8)
_cell_length_c                   8.0823(9)
_cell_angle_alpha                93.730(8)
_cell_angle_beta                 107.215(8)
_cell_angle_gamma                71.441(7)
_cell_volume                     787.401
_exptl_crystal_colour            colorless
_exptl_crystal_description       prismatic
_chemical_melting_point          198-200deg.C
_cell_formula_units_Z            2
loop_
_atom_site_label
_atom_site_type_symbol
_atom_site_fract_x
_atom_site_fract_y
_atom_site_fract_z
Cl1 Cl 0.17947(10) 0.37846(7) 0.48492(9)
Cl2 Cl 0.1300(1) 0.17347(8) 0.6831(1)
O1 O 0.3915(2) 0.5604(2) 0.6658(2)
N1 N 0.2750(3) 0.6067(2) 1.0555(3)
C1 C 0.4050(4) 0.6505(3) 0.5576(4)
C2 C 0.3959(4) 0.7726(3) 0.6469(4)
C3 C 0.2446(4) 0.8220(3) 0.6951(4)
C4 C 0.2183(3) 0.7225(2) 0.7919(3)
C5 C 0.2412(3) 0.6012(2) 0.6925(3)
C6 C 0.2261(3) 0.4983(2) 0.7873(3)
C7 C 0.2413(3) 0.5067(3) 0.9647(3)
C8 C 0.3220(3) 0.6954(3) 0.9797(3)
C9 C 0.1916(3) 0.3950(3) 0.7032(3)
C10 C 0.1682(3) 0.3040(3) 0.7888(4)
C11 C 0.1789(4) 0.3150(3) 0.9629(4)
C12 C 0.2154(4) 0.4143(3) 1.0483(4)
C13 C 0.3097(3) 0.8111(3) 1.0864(3)
C14 C 0.1798(4) 0.8698(3) 1.1396(4)
C15 C 0.1699(4) 0.9766(3) 1.2345(4)
C16 C 0.2885(5) 1.0268(3) 1.2777(4)
C17 C 0.4170(5) 0.9698(4) 1.2264(5)
C18 C 0.4285(4) 0.8627(3) 1.1320(4)
H1 H 0.3213 0.6584 0.4476
H2 H 0.5064 0.6109 0.5337
H3 H 0.3982 0.8371 0.5696
H4 H 0.4874 0.7630 0.7524
H5 H 0.2429 0.8896 0.7609
H6 H 0.1515 0.8464 0.5851
H7 H 0.1132 0.7475 0.7975
H8 H 0.1590 0.6204 0.5772
H9 H 0.3213 0.5957 1.1494
H10 H 0.4261 0.6577 0.9765
H11 H 0.1675 0.2353 1.0313
H12 H 0.2208 0.4268 1.1616
H13 H 0.0991 0.8364 1.1116
H14 H 0.0796 1.0131 1.2693
H15 H 0.2805 1.0957 1.3435
H16 H 0.4968 0.9986 1.2495
H17 H 0.5161 0.8248 1.0944
loop_
_geom_bond_atom_site_label_1
_geom_bond_atom_site_label_2
_geom_bond_site_symmetry_1
_geom_bond_site_symmetry_2
Cl1 C9 1_555 1_555
Cl2 C10 1_555 1_555
O1 C1 1_555 1_555
N1 C7 1_555 1_555
C1 C2 1_555 1_555
C2 C3 1_555 1_555
C3 C4 1_555 1_555
C4 C5 1_555 1_555
C5 O1 1_555 1_555
C6 C5 1_555 1_555
C7 C6 1_555 1_555
C8 N1 1_555 1_555
C9 C6 1_555 1_555
C10 C9 1_555 1_555
C11 C10 1_555 1_555
C12 C7 1_555 1_555
C13 C8 1_555 1_555
C14 C13 1_555 1_555
C15 C14 1_555 1_555
C16 C15 1_555 1_555
C17 C16 1_555 1_555
C18 C13 1_555 1_555
H1 C1 1_555 1_555
H2 C1 1_555 1_555
H3 C2 1_555 1_555
H4 C2 1_555 1_555
H5 C3 1_555 1_555
H6 C3 1_555 1_555
H7 C4 1_555 1_555
H8 C5 1_555 1_555
H9 N1 1_555 1_555
H10 C8 1_555 1_555
H11 C11 1_555 1_555
H12 C12 1_555 1_555
H13 C14 1_555 1_555
H14 C15 1_555 1_555
H15 C16 1_555 1_555
H16 C17 1_555 1_555
H17 C18 1_555 1_555
C4 C8 1_555 1_555
C11 C12 1_555 1_555
C17 C18 1_555 1_555

#END
