
#######################################################################
#
#                 Cambridge Crystallographic Data Centre
#                                CCDC 
#
#######################################################################
#
# If this CIF has been generated from an entry in the Cambridge 
# Structural Database, then it will include bibliographic, chemical, 
# crystal, experimental, refinement or atomic coordinate data resulting 
# from the CCDC's data processing and validation procedures.
#
#######################################################################

data_DOCDEF
_chemical_formula_moiety         'C17 H23 N1 O1'
_chemical_name_systematic        
(2R*,3S*)-2-(1-Hydroxycyclohexyl)-2-methyl-3-phenylbutyronitrile
_symmetry_cell_setting           monoclinic
_symmetry_space_group_name_H-M   'P 21/c'
_symmetry_Int_Tables_number      14
_space_group_name_Hall           '-P 2ybc'
loop_
_symmetry_equiv_pos_site_id
_symmetry_equiv_pos_as_xyz
1 x,y,z
2 -x,1/2+y,1/2-z
3 -x,-y,-z
4 x,1/2-y,1/2+z
_cell_length_a                   7.4177(3)
_cell_length_b                   10.1210(4)
_cell_length_c                   19.6430(8)
_cell_angle_alpha                90
_cell_angle_beta                 96.026(2)
_cell_angle_gamma                90
_cell_volume                     1466.54
_exptl_crystal_colour            colorless
_exptl_crystal_description       plate
_chemical_melting_point          '377-380 K'
_cell_formula_units_Z            4
_exptl_crystal_recrystallization_method 'ethyl acetate/hexanes'
loop_
_atom_site_label
_atom_site_type_symbol
_atom_site_fract_x
_atom_site_fract_y
_atom_site_fract_z
C1 C 0.8629(2) 0.33690(18) 0.36698(9)
C2 C 0.9064(3) 0.2278(2) 0.42031(11)
H1 H 0.9291 0.2679 0.4653
H2 H 0.8017 0.1705 0.4207
C3 C 1.0702(3) 0.1447(2) 0.40673(12)
H3 H 1.1783 0.1992 0.4124
H4 H 1.0855 0.0736 0.4399
C4 C 1.0489(4) 0.0869(3) 0.33506(14)
H5 H 1.1591 0.0407 0.3268
H6 H 0.9502 0.0235 0.3311
C5 C 1.0101(3) 0.1947(3) 0.28203(12)
H7 H 0.9892 0.1547 0.2370
H8 H 1.1153 0.2516 0.2825
C6 C 0.8460(3) 0.2776(2) 0.29487(10)
H9 H 0.7381 0.2229 0.2886
H10 H 0.8319 0.3485 0.2615
C7 C 0.6864(2) 0.41532(18) 0.38222(9)
C8 C 0.7366(3) 0.47859(19) 0.44942(9)
C9 C 0.5226(3) 0.3262(2) 0.39119(12)
H11 H 0.5473 0.2743 0.4320
H12 H 0.5008 0.2687 0.3523
H13 H 0.4175 0.3801 0.3949
C10 C 0.6375(3) 0.5281(2) 0.32745(9)
H14 H 0.7508 0.5520 0.3090
C11 C 0.5059(4) 0.4833(3) 0.26654(12)
H15 H 0.3897 0.4648 0.2818
H16 H 0.5520 0.4049 0.2469
H17 H 0.4935 0.5520 0.2327
C12 C 0.5690(3) 0.6528(2) 0.35954(10)
C13 C 0.6898(4) 0.7534(2) 0.37909(12)
H18 H 0.8109 0.7446 0.3714
C14 C 0.6329(5) 0.8677(3) 0.41002(14)
H19 H 0.7156 0.9343 0.4230
C15 C 0.4539(5) 0.8818(3) 0.42134(14)
H20 H 0.4155 0.9580 0.4420
C16 C 0.3335(4) 0.7840(3) 0.40228(13)
H21 H 0.2126 0.7940 0.4099
C17 C 0.3888(3) 0.6695(2) 0.37160(12)
H22 H 0.3048 0.6034 0.3590
N1 N 0.7799(3) 0.5226(2) 0.50188(9)
O1 O 1.00888(18) 0.42957(14) 0.36841(7)
H23 H 1.0601 0.4345 0.4074
loop_
_geom_bond_atom_site_label_1
_geom_bond_atom_site_label_2
_geom_bond_site_symmetry_1
_geom_bond_site_symmetry_2
C1 C2 1_555 1_555
C2 H1 1_555 1_555
H2 C2 1_555 1_555
C3 C2 1_555 1_555
H3 C3 1_555 1_555
H4 C3 1_555 1_555
C4 C3 1_555 1_555
H5 C4 1_555 1_555
H6 C4 1_555 1_555
C5 C4 1_555 1_555
H7 C5 1_555 1_555
H8 C5 1_555 1_555
C6 C1 1_555 1_555
H9 C6 1_555 1_555
H10 C6 1_555 1_555
C7 C1 1_555 1_555
C8 C7 1_555 1_555
C9 C7 1_555 1_555
H11 C9 1_555 1_555
H12 C9 1_555 1_555
H13 C9 1_555 1_555
C10 C7 1_555 1_555
H14 C10 1_555 1_555
C11 C10 1_555 1_555
H15 C11 1_555 1_555
H16 C11 1_555 1_555
H17 C11 1_555 1_555
C12 C10 1_555 1_555
C13 C12 1_555 1_555
H18 C13 1_555 1_555
C14 C13 1_555 1_555
H19 C14 1_555 1_555
C15 C14 1_555 1_555
H20 C15 1_555 1_555
C16 C15 1_555 1_555
H21 C16 1_555 1_555
C17 C12 1_555 1_555
H22 C17 1_555 1_555
N1 C8 1_555 1_555
O1 C1 1_555 1_555
H23 O1 1_555 1_555
C5 C6 1_555 1_555
C16 C17 1_555 1_555

#END
