
#######################################################################
#
#                 Cambridge Crystallographic Data Centre
#                                CCDC 
#
#######################################################################
#
# If this CIF has been generated from an entry in the Cambridge 
# Structural Database, then it will include bibliographic, chemical, 
# crystal, experimental, refinement or atomic coordinate data resulting 
# from the CCDC's data processing and validation procedures.
#
#######################################################################

data_DOCVUM06
_chemical_formula_moiety         '2(C42 H70 O35),2(C12 H15 N1 O3),24(H2 O1)'
_chemical_name_systematic        
'bis(\b-Cyclodextrin) bis(N-acetyl-L-phenylalanine methyl ester) clathrate hydrate'
_symmetry_cell_setting           triclinic
_symmetry_space_group_name_H-M   'P 1'
_symmetry_Int_Tables_number      1
_space_group_name_Hall           'P 1'
loop_
_symmetry_equiv_pos_site_id
_symmetry_equiv_pos_as_xyz
1 x,y,z
_cell_length_a                   18.071(4)
_cell_length_b                   15.375(3)
_cell_length_c                   15.554(3)
_cell_angle_alpha                104.07(3)
_cell_angle_beta                 113.02(3)
_cell_angle_gamma                98.53(3)
_cell_volume                     3711.94
_exptl_crystal_colour            colorless
_exptl_crystal_description       parallelepiped
_cell_formula_units_Z            1
_exptl_crystal_recrystallization_method 'aqueous solution'
loop_
_atom_site_label
_atom_site_type_symbol
_atom_site_fract_x
_atom_site_fract_y
_atom_site_fract_z
C1 C 0.2000(3) 0.0031(4) 0.2538(4)
H1 H 0.1871 -0.0539 0.2689
C2 C 0.2681(3) -0.0003(4) 0.2182(4)
H2 H 0.2473 -0.0556 0.1593
C3 C 0.2860(3) 0.0858(4) 0.1897(4)
H3 H 0.3085 0.1418 0.2482
C4 C 0.2049(3) 0.0908(4) 0.1119(4)
H4 H 0.1850 0.0375 0.0513
C5 C 0.1383(4) 0.0896(5) 0.1496(5)
H5 H 0.1588 0.1448 0.2085
C6 C 0.0552(6) 0.0907(7) 0.0786(7)
O1 O 0.0217(5) 0.0115(5) -0.0048(6)
O3 O 0.3413(3) -0.0077(3) 0.2927(3)
O4 O 0.3447(3) 0.0803(4) 0.1502(4)
O5 O 0.2209(2) 0.1750(3) 0.0913(3)
O6 O 0.1274(3) 0.0089(3) 0.1790(3)
C7 C 0.1993(3) 0.1713(4) -0.0072(4)
H6 H 0.1833 0.1061 -0.0488
C8 C 0.2762(3) 0.2241(4) -0.0100(4)
H7 H 0.2613 0.2223 -0.0782
C9 C 0.3015(3) 0.3245(4) 0.0545(4)
H8 H 0.3164 0.3279 0.1232
C10 C 0.2279(3) 0.3647(3) 0.0169(3)
H9 H 0.2175 0.3690 -0.0484
C11 C 0.1489(3) 0.3063(4) 0.0114(4)
H10 H 0.1554 0.3123 0.0784
C12 C 0.0720(3) 0.3353(4) -0.0446(4)
H11 H 0.0223 0.2920 -0.0542
H12 H 0.0751 0.3968 -0.0061
O7 O 0.3413(3) 0.1813(3) 0.0193(4)
O8 O 0.3701(3) 0.3777(3) 0.0496(4)
O9 O 0.2508(2) 0.4563(3) 0.0868(3)
O10 O 0.1318(2) 0.2098(3) -0.0439(3)
O11 O 0.0665(3) 0.3362(4) -0.1363(3)
C13 C 0.2400(3) 0.5310(4) 0.0482(3)
H13 H 0.2227 0.5079 -0.0232
C14 C 0.3231(3) 0.6059(4) 0.0991(4)
H14 H 0.3158 0.6563 0.0710
C15 C 0.3489(3) 0.6455(3) 0.2092(3)
H15 H 0.3579 0.5966 0.2393
C16 C 0.2789(3) 0.6831(4) 0.2225(4)
H16 H 0.2724 0.7349 0.1964
C17 C 0.1966(3) 0.6047(4) 0.1680(4)
H17 H 0.2022 0.5549 0.1974
C18 C 0.1242(3) 0.6399(5) 0.1716(5)
H18 H 0.0729 0.5900 0.1315
H19 H 0.1314 0.6584 0.2392
O12 O 0.3844(3) 0.5691(3) 0.0811(3)
O13 O 0.4231(2) 0.7206(3) 0.2562(3)
O14 O 0.3004(2) 0.7145(3) 0.3258(3)
O15 O 0.1783(2) 0.5682(3) 0.0656(3)
O16 O 0.1174(4) 0.7157(6) 0.1372(5)
C19 C 0.3011(3) 0.8078(3) 0.3675(4)
H20 H 0.2948 0.8399 0.3189
C20 C 0.3853(3) 0.8558(4) 0.4580(4)
H21 H 0.3866 0.9206 0.4867
C21 C 0.3960(3) 0.8085(4) 0.5345(4)
H22 H 0.3958 0.7439 0.5071
C22 C 0.3234(3) 0.8092(3) 0.5609(4)
H23 H 0.3276 0.8733 0.5960
C23 C 0.2395(3) 0.7683(4) 0.4683(4)
H24 H 0.2313 0.7013 0.4399
C24 C 0.1668(3) 0.7831(5) 0.4904(5)
H25 H 0.1151 0.7558 0.4297
H26 H 0.1639 0.7513 0.5362
O17 O 0.4517(2) 0.8560(3) 0.4289(3)
O18 O 0.4721(2) 0.8553(3) 0.6208(3)
O19 O 0.3294(2) 0.7545(3) 0.6246(3)
O20 O 0.2365(2) 0.8114(3) 0.3956(3)
O21 O 0.1744(3) 0.8794(4) 0.5320(4)
C25 C 0.3306(3) 0.7957(4) 0.7176(4)
H27 H 0.3334 0.8619 0.7281
C26 C 0.4087(3) 0.7866(4) 0.7979(4)
H28 H 0.4100 0.8160 0.8620
C27 C 0.4043(3) 0.6853(4) 0.7859(4)
H29 H 0.4036 0.6538 0.7226
C28 C 0.3260(3) 0.6393(3) 0.7896(4)
H30 H 0.3297 0.6660 0.8556
C29 C 0.2487(4) 0.6539(4) 0.7109(5)
H31 H 0.2385 0.6179 0.6441
C30 C 0.1720(6) 0.6263(6) 0.7281(7)
O22 O 0.0996(8) 0.6322(9) 0.6545(10)
O24 O 0.4818(3) 0.8343(3) 0.7979(3)
O25 O 0.4759(3) 0.6797(3) 0.8661(3)
O26 O 0.3179(2) 0.5418(3) 0.7675(3)
O27 O 0.2588(3) 0.7512(3) 0.7218(4)
C31 C 0.3107(3) 0.5005(3) 0.8368(3)
H32 H 0.3171 0.5490 0.8954
C32 C 0.3804(3) 0.4526(3) 0.8664(3)
H33 H 0.3748 0.4220 0.9128
C33 C 0.3714(3) 0.3791(3) 0.7761(4)
H34 H 0.3763 0.4081 0.7283
C34 C 0.2853(3) 0.3093(3) 0.7300(4)
H35 H 0.2832 0.2754 0.7753
C35 C 0.2159(3) 0.3589(3) 0.7095(4)
H36 H 0.2115 0.3831 0.6555
C36 C 0.1317(3) 0.2934(4) 0.6811(4)
H37 H 0.0910 0.3290 0.6761
H38 H 0.1130 0.2475 0.6165
O28 O 0.4602(2) 0.5183(3) 0.9141(3)
O29 O 0.4338(3) 0.3315(3) 0.8036(3)
O30 O 0.2736(2) 0.2449(3) 0.6394(3)
O31 O 0.2323(2) 0.4343(3) 0.7952(3)
O32 O 0.1344(3) 0.2468(3) 0.7492(4)
C37 C 0.2531(4) 0.1489(4) 0.6266(4)
H39 H 0.2527 0.1411 0.6871
C38 C 0.3194(4) 0.1083(4) 0.6082(4)
H40 H 0.3056 0.0421 0.6013
C39 C 0.3181(3) 0.1157(4) 0.5125(4)
H41 H 0.3308 0.1815 0.5174
C40 C 0.2325(3) 0.0644(4) 0.4281(4)
H42 H 0.2218 -0.0025 0.4183
C41 C 0.1658(3) 0.1021(4) 0.4521(4)
H43 H 0.1702 0.1655 0.4493
C42 C 0.0792(4) 0.0409(5) 0.3806(5)
H44 H 0.0386 0.0684 0.3951
H45 H 0.0693 0.0379 0.3138
O33 O 0.3986(3) 0.1521(3) 0.6884(3)
O34 O 0.3781(3) 0.0750(3) 0.4924(3)
O35 O 0.2310(3) 0.0806(3) 0.3407(3)
O36 O 0.1737(3) 0.1021(3) 0.5463(3)
O37 O 0.0673(4) -0.0521(4) 0.3857(4)
C43 C 0.7264(3) 0.2727(4) 0.8603(4)
H46 H 0.7257 0.2113 0.8682
C44 C 0.6606(3) 0.3079(3) 0.8844(4)
H47 H 0.6733 0.3119 0.9528
C45 C 0.6627(3) 0.4047(3) 0.8766(4)
H48 H 0.6499 0.4019 0.8085
C46 C 0.7502(3) 0.4689(3) 0.9464(4)
H49 H 0.7619 0.4762 1.0152
C47 C 0.8148(3) 0.4286(4) 0.9223(4)
H50 H 0.8083 0.4299 0.8571
C48 C 0.9028(4) 0.4806(5) 0.9997(6)
H51 H 0.9415 0.4543 0.9797
H52 H 0.9131 0.5451 1.0024
O38 O 0.5804(3) 0.2453(3) 0.8211(3)
O39 O 0.6029(2) 0.4386(3) 0.9025(3)
O40 O 0.7526(2) 0.5567(3) 0.9313(3)
O41 O 0.8062(3) 0.3346(3) 0.9243(3)
O42 O 0.9192(4) 0.4777(4) 1.0946(4)
C49 C 0.7836(3) 0.6380(3) 1.0145(4)
H53 H 0.7950 0.6203 1.0739
C50 C 0.7168(3) 0.6899(4) 0.9998(4)
H54 H 0.7374 0.7456 1.0583
C51 C 0.7002(3) 0.7207(4) 0.9099(4)
H55 H 0.6786 0.6657 0.8505
C52 C 0.7819(3) 0.7798(4) 0.9243(4)
H56 H 0.8010 0.8378 0.9798
C53 C 0.8488(3) 0.7268(4) 0.9437(4)
H57 H 0.8316 0.6727 0.8846
O43 O 0.6437(3) 0.6323(3) 0.9917(3)
O44 O 0.6404(3) 0.7732(3) 0.8992(4)
O45 O 0.7682(2) 0.8007(3) 0.8346(3)
O46 O 0.8575(2) 0.6948(3) 1.0261(3)
O47 O 0.9579(4) 0.8639(4) 1.0544(5)
C54 C 0.9334(4) 0.7854(5) 0.9686(5)
C55 C 0.7870(3) 0.8959(3) 0.8412(4)
H58 H 0.8011 0.9356 0.9083
C56 C 0.7092(3) 0.9109(4) 0.7674(4)
H59 H 0.7209 0.9762 0.7707
C57 C 0.6867(3) 0.8496(4) 0.6636(4)
H60 H 0.6747 0.7838 0.6586
C58 C 0.7603(3) 0.8752(3) 0.6410(4)
H61 H 0.7674 0.9385 0.6377
C59 C 0.8409(3) 0.8684(4) 0.7199(4)
H62 H 0.8364 0.8027 0.7136
C60 C 0.9174(3) 0.9080(4) 0.7103(4)
H63 H 0.9670 0.9060 0.7642
H64 H 0.9148 0.8711 0.6484
O48 O 0.6417(3) 0.8911(3) 0.7916(3)
O49 O 0.6155(2) 0.8669(3) 0.5940(3)
O50 O 0.7405(2) 0.8100(3) 0.5469(3)
O51 O 0.8543(2) 0.9187(3) 0.8189(3)
O52 O 0.9216(3) 1.0014(4) 0.7126(5)
C61 C 0.7524(3) 0.8457(4) 0.4767(4)
H65 H 0.7702 0.9139 0.5035
C62 C 0.6693(3) 0.8142(4) 0.3825(4)
H66 H 0.6771 0.8427 0.3356
C63 C 0.6429(3) 0.7093(4) 0.3347(4)
H67 H 0.6328 0.6801 0.3799
C64 C 0.7122(3) 0.6786(4) 0.3146(4)
H68 H 0.7202 0.7039 0.2658
C65 C 0.7941(4) 0.7137(5) 0.4121(5)
H69 H 0.7868 0.6851 0.4591
O53 O 0.6078(3) 0.8462(3) 0.4065(3)
O54 O 0.5677(3) 0.6823(3) 0.2449(3)
O55 O 0.6891(3) 0.5790(3) 0.2771(3)
O56 O 0.8140(3) 0.8133(3) 0.4534(3)
C66 C 0.8664(5) 0.6920(6) 0.3958(6)
O57 O 0.8754(6) 0.7240(7) 0.3218(7)
C67 C 0.6860(3) 0.5367(4) 0.1839(4)
H70 H 0.6922 0.5842 0.1532
C68 C 0.6018(3) 0.4656(4) 0.1196(4)
H71 H 0.5991 0.4356 0.0548
C69 C 0.5919(3) 0.3917(4) 0.1666(4)
H72 H 0.5930 0.4208 0.2307
C70 C 0.6630(3) 0.3472(4) 0.1821(4)
H73 H 0.6574 0.3101 0.1178
C71 C 0.7474(3) 0.4209(4) 0.2385(4)
H74 H 0.7570 0.4497 0.3068
C72 C 0.8185(4) 0.3792(5) 0.2395(5)
H75 H 0.8708 0.4280 0.2741
H76 H 0.8225 0.3346 0.2747
O59 O 0.5369(3) 0.5111(3) 0.1063(3)
O60 O 0.5144(3) 0.3222(3) 0.1040(4)
O61 O 0.6593(3) 0.2877(3) 0.2395(3)
O62 O 0.7500(2) 0.4918(3) 0.1939(3)
O63 O 0.8054(4) 0.3338(4) 0.1411(5)
C73 C 0.6544(4) 0.1928(4) 0.2002(5)
H77 H 0.6513 0.1807 0.1338
C74 C 0.5764(4) 0.1320(4) 0.1927(5)
H78 H 0.5741 0.0667 0.1646
C75 C 0.5805(3) 0.1468(4) 0.2940(4)
H79 H 0.5831 0.2118 0.3240
C76 C 0.6569(4) 0.1237(4) 0.3578(4)
H80 H 0.6504 0.0568 0.3318
C77 C 0.7344(4) 0.1777(6) 0.3582(6)
H81 H 0.7538 0.2426 0.4018
C78 C 0.8018(11) 0.1228(15) 0.3905(14)
O64 O 0.7618(13) 0.0141(15) 0.3221(16)
O66 O 0.5034(3) 0.1497(4) 0.1284(4)
O67 O 0.5069(3) 0.0858(4) 0.2843(4)
O68 O 0.6663(2) 0.1470(3) 0.4569(3)
O69 O 0.7257(3) 0.1702(4) 0.2610(4)
C80 C 0.6732(3) 0.0767(3) 0.5009(4)
H82 H 0.6678 0.0188 0.4523
C81 C 0.6018(3) 0.0609(3) 0.5298(4)
H83 H 0.6057 0.0109 0.5589
C82 C 0.6106(3) 0.1486(4) 0.6060(4)
H84 H 0.6061 0.1989 0.5774
C83 C 0.6951(3) 0.1752(3) 0.6945(3)
H85 H 0.6977 0.1285 0.7280
C84 C 0.7656(3) 0.1837(3) 0.6622(4)
H86 H 0.7678 0.2370 0.6382
C85 C 0.8505(3) 0.1975(4) 0.7474(4)
H87 H 0.8926 0.1990 0.7232
H88 H 0.8655 0.2571 0.7980
O70 O 0.5243(3) 0.0336(3) 0.4451(3)
O71 O 0.5456(3) 0.1326(3) 0.6355(3)
O72 O 0.7054(2) 0.2640(2) 0.7603(3)
O73 O 0.7515(2) 0.1009(3) 0.5847(3)
O74 O 0.8501(3) 0.1259(3) 0.7894(3)
O75 O 0.4673(6) 0.0236(6) 0.7535(7)
O77 O 0.0581(4) 0.0597(4) 0.6832(6)
O78 O 0.9694(4) 0.6451(6) 0.2447(6)
O80 O 0.769(2) 0.018(2) 0.140(3)
O81 O 0.753(2) 0.155(2) 0.041(3)
O82 O 0.8925(4) 0.1503(6) 0.9844(5)
O83 O 0.5277(9) 0.8920(11) 0.2407(11)
O85 O 0.359(2) 0.866(2) 0.140(3)
O86 O 0.381(2) 0.961(2) 0.997(2)
O89 O 0.475(2) 0.010(2) 0.949(2)
O91 O 0.607(2) 0.909(2) 0.036(3)
O92 O 0.1841(7) 0.9653(6) 0.7133(7)
O94 O 0.6419(10) 0.0609 0.8674(12)
O95 O 0.048(2) 0.794(2) 0.611(3)
O97 O 0.115(3) 0.825(3) 0.771(4)
O98 O 0.2130(19) 0.894(2) 0.868(2)
O99 O 0.0833(6) 0.8687(9) 0.9109(8)
O100 O 0.1772(12) 0.7723(9) 0.0144(10)
O101 O -0.0033(12) 0.3353(11) 0.1213(12)
O103 O 0.0302(4) 0.8079(5) 0.2185(4)
O104 O 0.4857(13) 0.2214(14) 0.9200(14)
O106 O 0.692(3) 0.927(4) 0.191(4)
O108 O 0.4495(10) 0.7249(11) 0.0484(12)
O109 O 0.6218(14) 0.7640(14) 0.1191(15)
O110 O 0.3297(15) 0.1010(19) 0.8375(18)
O113 O 0.9864(18) -0.075(2) 0.498(2)
O114 O 0.972(4) 0.042(4) 0.506(4)
O115 O 0.986(3) 0.693(4) 0.636(5)
O117 O 0.8984(14) 0.9548(16) 0.1730(16)
O118 O 0.825(2) 0.864(3) 0.263(3)
N2 N 0.2285(6) 0.4460(8) 0.4133(8)
C98 C 0.2748(6) 0.3767(6) 0.4101(7)
C99 C 0.3533(6) 0.4029(7) 0.5061(6)
O122 O 0.3760(7) 0.4791(9) 0.5745(6)
C100 C 0.3002(7) 0.3680(9) 0.3240(6)
C101 C 0.3898(7) 0.4216(12) 0.3522(8)
C102 C 0.4450(9) 0.3725(15) 0.3358(10)
C103 C 0.4180(8) 0.5182(11) 0.3985(12)
C104 C 0.5275(9) 0.4193(17) 0.3665(14)
C105 C 0.5006(8) 0.5652(14) 0.4286(15)
C106 C 0.5555(8) 0.5158(17) 0.4127(16)
C107 C 0.1074(8) 0.5071(12) 0.3511(13)
C108 C 0.1516(6) 0.4309(10) 0.3460(10)
O123 O 0.1159(6) 0.3543(11) 0.2797(10)
O124 O 0.4002(7) 0.3357(8) 0.5145(9)
C109 C 0.4728(7) 0.3702(12) 0.6079(10)
C122 C 0.9179(4) 0.4447(6) 0.5751(4)
C123 C 0.8342(5) 0.4672(6) 0.5198(4)
C124 C 0.7812(3) 0.4839(5) 0.5759(4)
C125 C 0.7818(4) 0.5751(5) 0.6201(6)
C126 C 0.7356(3) 0.4096(5) 0.5873(5)
C127 C 0.7382(5) 0.5918(6) 0.6761(7)
C128 C 0.6913(4) 0.4264(6) 0.6427(7)
C129 C 0.6929(4) 0.5174(7) 0.6873(7)
N4 N 0.9522(3) 0.5126(4) 0.6746(5)
C130 C 0.9672(3) 0.4922(5) 0.7562(4)
O128 O 0.9434(4) 0.4103(5) 0.7504(5)
C131 C 1.0130(4) 0.5691(6) 0.8554(4)
C132 C 0.9733(6) 0.4329(8) 0.5353(6)
O129 O 0.9963(7) 0.4821(10) 0.4913(8)
O130 O 0.9902(6) 0.3446(8) 0.5330(7)
C133 C 0.9951(6) 0.3261(6) 0.6205(8)
O2? O -0.0067(16) 0.0567(18) 0.0797(19)
O23? O 0.1878(13) 0.6842(14) 0.8239(15)
O58? O 0.949(5) 0.749(5) 0.490(6)
C79? C 0.8158(9) 0.1613(12) 0.4217(12)
O65? O 0.8022(9) 0.0599(11) 0.3758(11)
O76? O 0.4858(19) 0.018(2) 0.724(2)
O79? O 0.7796(12) 0.1488(11) 0.0602(12)
O84? O 0.4149(13) 0.8828(14) 0.2039(15)
O87? O 0.417(3) 0.974(3) 0.997(3)
O88? O 0.5203(16) 0.0035(15) 0.9579(16)
O90? O 0.570(3) 0.937(4) -0.002(4)
O93? O 0.6271(19) 0.0492 0.909(2)
O96? O 0.068(2) 0.797(2) 0.699(3)
O102? O -0.0413(9) 0.3300(9) 0.1254(10)
O105? O 0.5168(6) 0.1916(7) 0.9343(7)
O107? O 0.5681(14) 0.7369(15) 0.0848(16)
O111? O 0.3412(12) 0.0632(14) 0.8507(14)
O112? O 0.9430(12) -0.0274(15) 0.4633(14)
O116? O 0.9846(16) 0.7132(18) 0.711(2)
N1? N 0.2466(6) 0.4278(9) 0.4141(10)
C86? C 0.2904(6) 0.3597(7) 0.3916(9)
C87? C 0.3623(7) 0.3617(9) 0.4850(10)
O119? O 0.3832(8) 0.4208(12) 0.5680(8)
C88? C 0.3253(6) 0.3809(7) 0.3197(7)
C89? C 0.4106(6) 0.4537(7) 0.3674(6)
C90? C 0.4816(6) 0.4245(8) 0.3727(9)
C91? C 0.4187(6) 0.5480(6) 0.4094(8)
C92? C 0.5598(6) 0.4886(9) 0.4208(10)
C93? C 0.4969(7) 0.6122(7) 0.4569(10)
C94? C 0.5675(6) 0.5827(9) 0.4628(10)
C95? C 0.1270(8) 0.4937(14) 0.3812(17)
C96? C 0.1712(6) 0.4240(11) 0.3513(13)
O120? O 0.1368(5) 0.3634(12) 0.2686(12)
O121? O 0.4051(8) 0.2919(9) 0.4726(14)
C97? C 0.4717(9) 0.3030(14) 0.5659(15)
C110? C 0.9364(3) 0.4113(4) 0.5625(3)
C111? C 0.8602(3) 0.4452(4) 0.5060(3)
C112? C 0.8052(3) 0.4688(4) 0.5580(4)
C113? C 0.8105(4) 0.5622(4) 0.6011(5)
C114? C 0.7530(3) 0.3985(4) 0.5669(4)
C115? C 0.7651(4) 0.5849(5) 0.6535(6)
C116? C 0.7069(3) 0.4213(5) 0.6187(6)
C117? C 0.7132(4) 0.5144(6) 0.6622(6)
N3? N 0.9786(3) 0.4844(4) 0.6595(4)
C118? C 0.9901(3) 0.4720(4) 0.7442(3)
O125? O 0.9564(4) 0.3957(5) 0.7440(4)
C119? C 1.0442(4) 0.5511(6) 0.8401(4)
C120? C 0.9872(4) 0.3814(5) 0.5213(4)
O126? O 1.0624(4) 0.4215(6) 0.5469(5)
O127? O 0.9380(5) 0.3061(6) 0.4305(5)
C121? C 0.9874(6) 0.2868(7) 0.3792(6)
loop_
_geom_bond_atom_site_label_1
_geom_bond_atom_site_label_2
_geom_bond_site_symmetry_1
_geom_bond_site_symmetry_2
C1 H1 1_555 1_555
C2 C1 1_555 1_555
H2 C2 1_555 1_555
C3 C2 1_555 1_555
H3 C3 1_555 1_555
C4 C3 1_555 1_555
H4 C4 1_555 1_555
C5 C4 1_555 1_555
H5 C5 1_555 1_555
C6 C5 1_555 1_555
O1 C6 1_555 1_555
O3 C2 1_555 1_555
O4 C3 1_555 1_555
O5 C4 1_555 1_555
O6 C1 1_555 1_555
C7 O5 1_555 1_555
H6 C7 1_555 1_555
C8 C7 1_555 1_555
H7 C8 1_555 1_555
C9 C8 1_555 1_555
H8 C9 1_555 1_555
C10 C9 1_555 1_555
H9 C10 1_555 1_555
C11 C10 1_555 1_555
H10 C11 1_555 1_555
C12 C11 1_555 1_555
H11 C12 1_555 1_555
H12 C12 1_555 1_555
O7 C8 1_555 1_555
O8 C9 1_555 1_555
O9 C10 1_555 1_555
O10 C7 1_555 1_555
O11 C12 1_555 1_555
C13 O9 1_555 1_555
H13 C13 1_555 1_555
C14 C13 1_555 1_555
H14 C14 1_555 1_555
C15 C14 1_555 1_555
H15 C15 1_555 1_555
C16 C15 1_555 1_555
H16 C16 1_555 1_555
C17 C16 1_555 1_555
H17 C17 1_555 1_555
C18 C17 1_555 1_555
H18 C18 1_555 1_555
H19 C18 1_555 1_555
O12 C14 1_555 1_555
O13 C15 1_555 1_555
O14 C16 1_555 1_555
O15 C13 1_555 1_555
O16 C18 1_555 1_555
C19 O14 1_555 1_555
H20 C19 1_555 1_555
C20 C19 1_555 1_555
H21 C20 1_555 1_555
C21 C20 1_555 1_555
H22 C21 1_555 1_555
C22 C21 1_555 1_555
H23 C22 1_555 1_555
C23 C22 1_555 1_555
H24 C23 1_555 1_555
C24 C23 1_555 1_555
H25 C24 1_555 1_555
H26 C24 1_555 1_555
O17 C20 1_555 1_555
O18 C21 1_555 1_555
O19 C22 1_555 1_555
O20 C19 1_555 1_555
O21 C24 1_555 1_555
C25 O19 1_555 1_555
H27 C25 1_555 1_555
C26 C25 1_555 1_555
H28 C26 1_555 1_555
C27 C26 1_555 1_555
H29 C27 1_555 1_555
C28 C27 1_555 1_555
H30 C28 1_555 1_555
C29 C28 1_555 1_555
H31 C29 1_555 1_555
C30 C29 1_555 1_555
O22 C30 1_555 1_555
O24 C26 1_555 1_555
O25 C27 1_555 1_555
O26 C28 1_555 1_555
O27 C25 1_555 1_555
C31 O26 1_555 1_555
H32 C31 1_555 1_555
C32 C31 1_555 1_555
H33 C32 1_555 1_555
C33 C32 1_555 1_555
H34 C33 1_555 1_555
C34 C33 1_555 1_555
H35 C34 1_555 1_555
C35 C34 1_555 1_555
H36 C35 1_555 1_555
C36 C35 1_555 1_555
H37 C36 1_555 1_555
H38 C36 1_555 1_555
O28 C32 1_555 1_555
O29 C33 1_555 1_555
O30 C34 1_555 1_555
O31 C31 1_555 1_555
O32 C36 1_555 1_555
C37 O30 1_555 1_555
H39 C37 1_555 1_555
C38 C37 1_555 1_555
H40 C38 1_555 1_555
C39 C38 1_555 1_555
H41 C39 1_555 1_555
C40 C39 1_555 1_555
H42 C40 1_555 1_555
C41 C40 1_555 1_555
H43 C41 1_555 1_555
C42 C41 1_555 1_555
H44 C42 1_555 1_555
H45 C42 1_555 1_555
O33 C38 1_555 1_555
O34 C39 1_555 1_555
O35 C1 1_555 1_555
O36 C37 1_555 1_555
O37 C42 1_555 1_555
C43 H46 1_555 1_555
C44 C43 1_555 1_555
H47 C44 1_555 1_555
C45 C44 1_555 1_555
H48 C45 1_555 1_555
C46 C45 1_555 1_555
H49 C46 1_555 1_555
C47 C46 1_555 1_555
H50 C47 1_555 1_555
C48 C47 1_555 1_555
H51 C48 1_555 1_555
H52 C48 1_555 1_555
O38 C44 1_555 1_555
O39 C45 1_555 1_555
O40 C46 1_555 1_555
O41 C43 1_555 1_555
O42 C48 1_555 1_555
C49 O40 1_555 1_555
H53 C49 1_555 1_555
C50 C49 1_555 1_555
H54 C50 1_555 1_555
C51 C50 1_555 1_555
H55 C51 1_555 1_555
C52 C51 1_555 1_555
H56 C52 1_555 1_555
C53 C52 1_555 1_555
H57 C53 1_555 1_555
O43 C50 1_555 1_555
O44 C51 1_555 1_555
O45 C52 1_555 1_555
O46 C49 1_555 1_555
O47 C54 1_555 1_555
C54 C53 1_555 1_555
C55 O45 1_555 1_555
H58 C55 1_555 1_555
C56 C55 1_555 1_555
H59 C56 1_555 1_555
C57 C56 1_555 1_555
H60 C57 1_555 1_555
C58 C57 1_555 1_555
H61 C58 1_555 1_555
C59 C58 1_555 1_555
H62 C59 1_555 1_555
C60 C59 1_555 1_555
H63 C60 1_555 1_555
H64 C60 1_555 1_555
O48 C56 1_555 1_555
O49 C57 1_555 1_555
O50 C58 1_555 1_555
O51 C55 1_555 1_555
O52 C60 1_555 1_555
C61 O50 1_555 1_555
H65 C61 1_555 1_555
C62 C61 1_555 1_555
H66 C62 1_555 1_555
C63 C62 1_555 1_555
H67 C63 1_555 1_555
C64 C63 1_555 1_555
H68 C64 1_555 1_555
C65 C64 1_555 1_555
H69 C65 1_555 1_555
O53 C62 1_555 1_555
O54 C63 1_555 1_555
O55 C64 1_555 1_555
O56 C61 1_555 1_555
C66 C65 1_555 1_555
O57 C66 1_555 1_555
C67 O55 1_555 1_555
H70 C67 1_555 1_555
C68 C67 1_555 1_555
H71 C68 1_555 1_555
C69 C68 1_555 1_555
H72 C69 1_555 1_555
C70 C69 1_555 1_555
H73 C70 1_555 1_555
C71 C70 1_555 1_555
H74 C71 1_555 1_555
C72 C71 1_555 1_555
H75 C72 1_555 1_555
H76 C72 1_555 1_555
O59 C68 1_555 1_555
O60 C69 1_555 1_555
O61 C70 1_555 1_555
O62 C67 1_555 1_555
O63 C72 1_555 1_555
C73 O61 1_555 1_555
H77 C73 1_555 1_555
C74 C73 1_555 1_555
H78 C74 1_555 1_555
C75 C74 1_555 1_555
H79 C75 1_555 1_555
C76 C75 1_555 1_555
H80 C76 1_555 1_555
C77 C76 1_555 1_555
H81 C77 1_555 1_555
C78 C77 1_555 1_555
O64 C78 1_555 1_555
O66 C74 1_555 1_555
O67 C75 1_555 1_555
O68 C76 1_555 1_555
O69 C73 1_555 1_555
C80 O68 1_555 1_555
H82 C80 1_555 1_555
C81 C80 1_555 1_555
H83 C81 1_555 1_555
C82 C81 1_555 1_555
H84 C82 1_555 1_555
C83 C82 1_555 1_555
H85 C83 1_555 1_555
C84 C83 1_555 1_555
H86 C84 1_555 1_555
C85 C84 1_555 1_555
H87 C85 1_555 1_555
H88 C85 1_555 1_555
O70 C81 1_555 1_555
O71 C82 1_555 1_555
O72 C43 1_555 1_555
O73 C80 1_555 1_555
O74 C85 1_555 1_555
N2 C98 1_555 1_555
C98 C99 1_555 1_555
C99 O122 1_555 1_555
C100 C98 1_555 1_555
C101 C100 1_555 1_555
C102 C101 1_555 1_555
C103 C101 1_555 1_555
C104 C102 1_555 1_555
C105 C103 1_555 1_555
C106 C104 1_555 1_555
C107 C108 1_555 1_555
C108 N2 1_555 1_555
O123 C108 1_555 1_555
O124 C99 1_555 1_555
C109 O124 1_555 1_555
C122 C123 1_555 1_555
C123 C124 1_555 1_555
C124 C125 1_555 1_555
C125 C127 1_555 1_555
C126 C124 1_555 1_555
C127 C129 1_555 1_555
C128 C126 1_555 1_555
C129 C128 1_555 1_555
N4 C122 1_555 1_555
C130 N4 1_555 1_555
O128 C130 1_555 1_555
C131 C130 1_555 1_555
C132 C122 1_555 1_555
O129 C132 1_555 1_555
O130 C132 1_555 1_555
C133 O130 1_555 1_555
C5 O6 1_555 1_555
C11 O10 1_555 1_555
C17 O15 1_555 1_555
C23 O20 1_555 1_555
C29 O27 1_555 1_555
C35 O31 1_555 1_555
C40 O35 1_555 1_555
C41 O36 1_555 1_555
C47 O41 1_555 1_555
C53 O46 1_555 1_555
C59 O51 1_555 1_555
C65 O56 1_555 1_555
C71 O62 1_555 1_555
C77 O69 1_555 1_555
C83 O72 1_555 1_555
C84 O73 1_555 1_555
C105 C106 1_555 1_555

#END
