
#######################################################################
#
#                 Cambridge Crystallographic Data Centre
#                                CCDC 
#
#######################################################################
#
# If this CIF has been generated from an entry in the Cambridge 
# Structural Database, then it will include bibliographic, chemical, 
# crystal, experimental, refinement or atomic coordinate data resulting 
# from the CCDC's data processing and validation procedures.
#
#######################################################################

data_DOCYPO03
_chemical_formula_moiety         'C9 H14 N3 O7 P1,H2 O1'
_chemical_name_systematic        "2'-Deoxycytidine-5'-monophosphate monohydrate"
_symmetry_cell_setting           orthorhombic
_symmetry_space_group_name_H-M   'P 21 21 21'
_symmetry_Int_Tables_number      19
_space_group_name_Hall           'P 2ac 2ab'
loop_
_symmetry_equiv_pos_site_id
_symmetry_equiv_pos_as_xyz
1 x,y,z
2 1/2+x,1/2-y,-z
3 -x,1/2+y,1/2-z
4 1/2-x,-y,1/2+z
_cell_length_a                   6.7482(7)
_cell_length_b                   11.3307(12)
_cell_length_c                   16.5692(18)
_cell_angle_alpha                90
_cell_angle_beta                 90
_cell_angle_gamma                90
_cell_volume                     1266.91
_cell_formula_units_Z            4
loop_
_atom_site_label
_atom_site_type_symbol
_atom_site_fract_x
_atom_site_fract_y
_atom_site_fract_z
N1 N 0.30190(9) -0.02106(6) -0.00736(4)
C1 C 0.43205(10) 0.05014(6) -0.04815(4)
N2 N 0.35471(9) 0.15430(5) -0.07919(4)
C2 C 0.15800(11) 0.18180(6) -0.07811(4)
C3 C 0.02920(10) 0.10443(7) -0.03673(4)
C4 C 0.10480(10) 0.00523(6) -0.00351(4)
O1 O 0.60646(8) 0.02439(5) -0.05662(3)
N3 N 0.09337(11) 0.27722(6) -0.11499(4)
C5 C 0.38216(10) -0.13642(6) 0.02337(4)
C6 C 0.54862(10) -0.12103(6) 0.08561(4)
C7 C 0.48801(11) -0.20342(6) 0.15426(4)
C8 C 0.26388(11) -0.20855(7) 0.14645(5)
O2 O 0.22712(8) -0.19816(5) 0.06066(3)
O3 O 0.57212(9) -0.31814(5) 0.13944(3)
C9 C 0.15154(13) -0.11643(7) 0.19396(5)
O4 O 0.21625(9) -0.00028(5) 0.17105(3)
O5 O -0.13220(8) 0.07998(5) 0.18053(3)
O6 O 0.10100(8) 0.12012(5) 0.29064(3)
O7 O 0.16485(9) 0.21394(5) 0.15226(4)
P1 P 0.08116(3) 0.10995(2) 0.19624(1)
H1 H 0.4476(21) 0.2008(11) -0.1072(7)
H2 H 0.1852(22) 0.3240(14) -0.1409(8)
H3 H -0.0387(23) 0.2891(12) -0.1213(8)
H4 H -0.1069(20) 0.1211(11) -0.0343(7)
H5 H 0.0258(19) -0.0498(12) 0.0229(7)
H6 H 0.4207(17) -0.1793(9) -0.0221(6)
H7 H 0.5536(18) -0.0386(11) 0.1035(7)
H8 H 0.6729(18) -0.1442(10) 0.0618(6)
H9 H 0.5310(17) -0.1753(10) 0.2076(7)
H10 H 0.2097(16) -0.2866(10) 0.1634(6)
H11 H 0.5029(27) -0.3716(17) 0.1570(10)
H12 H 0.1763(17) -0.1298(10) 0.2513(7)
H13 H 0.0108(19) -0.1262(11) 0.1837(7)
H14 H 0.2268(26) 0.1461(14) 0.3096(9)
O8 O 0.36002(9) -0.49899(5) 0.19587(4)
H15 H 0.2778(23) -0.4748(14) 0.2377(9)
H16 H 0.2884(29) -0.5218(16) 0.1581(11)
loop_
_geom_bond_atom_site_label_1
_geom_bond_atom_site_label_2
_geom_bond_site_symmetry_1
_geom_bond_site_symmetry_2
N1 C1 1_555 1_555
C1 N2 1_555 1_555
N2 C2 1_555 1_555
C2 C3 1_555 1_555
C3 C4 1_555 1_555
C4 N1 1_555 1_555
O1 C1 1_555 1_555
N3 C2 1_555 1_555
C5 N1 1_555 1_555
C6 C5 1_555 1_555
C7 C6 1_555 1_555
C8 C7 1_555 1_555
O2 C5 1_555 1_555
O3 C7 1_555 1_555
C9 C8 1_555 1_555
O4 C9 1_555 1_555
O5 P1 1_555 1_555
O6 P1 1_555 1_555
O7 P1 1_555 1_555
P1 O4 1_555 1_555
O8 H15 1_555 1_555
H1 N2 1_555 1_555
H2 N3 1_555 1_555
H3 N3 1_555 1_555
H4 C3 1_555 1_555
H5 C4 1_555 1_555
H6 C5 1_555 1_555
H7 C6 1_555 1_555
H8 C6 1_555 1_555
H9 C7 1_555 1_555
H10 C8 1_555 1_555
H11 O3 1_555 1_555
H12 C9 1_555 1_555
H13 C9 1_555 1_555
H14 O6 1_555 1_555
H16 O8 1_555 1_555
C8 O2 1_555 1_555

#END
