
#######################################################################
#
#                 Cambridge Crystallographic Data Centre
#                                CCDC 
#
#######################################################################
#
# If this CIF has been generated from an entry in the Cambridge 
# Structural Database, then it will include bibliographic, chemical, 
# crystal, experimental, refinement or atomic coordinate data resulting 
# from the CCDC's data processing and validation procedures.
#
#######################################################################

data_DOFLER
_chemical_formula_moiety         
'C60 H44 N4 S16,C24 H20 P1 1+,Cl1 1-,2(C1 H2 Cl2)'
_chemical_name_systematic        
'6,14,22,30-tetrakis(1,3-Benzodithiol-2-ylidene)-2,2,10,10,18,18,26,26-octamethyl-5,7,13,15,21,23,29,31-octathia-33,34,35,36-tetraazanonacyclo[25.5.1.1^3,9^.1^11,17^.1^19,25^.0^4,8^.0^12,16^.0^20,24^.0^28,32^]hexatriaconta-1(32),3,8,11,16,19,24,27-octaene tetraphenylphosphonium chloride dichloromethane solvate'
_symmetry_cell_setting           triclinic
_symmetry_space_group_name_H-M   'P -1'
_symmetry_Int_Tables_number      2
_space_group_name_Hall           '-P 1'
loop_
_symmetry_equiv_pos_site_id
_symmetry_equiv_pos_as_xyz
1 x,y,z
2 -x,-y,-z
_cell_length_a                   16.634(3)
_cell_length_b                   17.060(4)
_cell_length_c                   17.591(4)
_cell_angle_alpha                85.805(12)
_cell_angle_beta                 69.782(11)
_cell_angle_gamma                65.015(10)
_cell_volume                     4230.37
_exptl_crystal_colour            yellow
_exptl_crystal_description       prisms
_cell_formula_units_Z            2
loop_
_atom_site_label
_atom_site_type_symbol
_atom_site_fract_x
_atom_site_fract_y
_atom_site_fract_z
Cl1 Cl -0.10808(4) 0.42661(3) 0.30688(3)
C1 C 0.07985(14) 0.17361(13) 0.33593(13)
C2 C 0.15094(14) 0.12527(13) 0.36553(13)
C3 C 0.16049(15) 0.18256(13) 0.41377(13)
C4 C 0.09541(15) 0.26524(13) 0.41256(13)
C5 C 0.30209(15) 0.03652(13) 0.39671(13)
C6 C 0.39370(16) -0.01610(14) 0.38005(13)
C7 C 0.57196(16) -0.06861(14) 0.35699(14)
C8 C 0.56792(15) -0.12332(14) 0.30455(14)
C9 C 0.65083(17) -0.18378(16) 0.24842(15)
H1 H 0.6481 -0.2196 0.2113
C10 C 0.73707(17) -0.19071(17) 0.24773(16)
H2 H 0.7940 -0.2324 0.2104
C11 C 0.74162(17) -0.13732(17) 0.30108(16)
H3 H 0.8014 -0.1431 0.3000
C12 C 0.65912(17) -0.07574(16) 0.35577(15)
H4 H 0.6620 -0.0390 0.3918
C13 C 0.03878(15) 0.15010(13) 0.28077(13)
C14 C -0.07023(15) 0.19680(14) 0.31582(14)
H5 H -0.0902 0.2597 0.3198
H6 H -0.0932 0.1783 0.3700
H7 H -0.0966 0.1821 0.2799
C15 C 0.06658(16) 0.05203(14) 0.27892(14)
H8 H 0.0399 0.0365 0.2438
H9 H 0.0419 0.0365 0.3341
H10 H 0.1357 0.0205 0.2577
C16 C 0.07775(15) 0.17410(13) 0.19552(13)
C17 C 0.16019(15) 0.13018(13) 0.13136(14)
C18 C 0.16336(15) 0.18380(14) 0.06591(13)
C19 C 0.08277(15) 0.26067(14) 0.08989(13)
C20 C 0.32036(17) 0.04422(15) 0.01727(15)
C21 C 0.40547(17) -0.01735(15) -0.02537(15)
C22 C 0.56198(16) -0.15940(15) -0.07056(14)
C23 C 0.56784(16) -0.10949(14) -0.13744(14)
C24 C 0.64728(17) -0.13968(15) -0.20792(14)
H11 H 0.6509 -0.1062 -0.2535
C25 C 0.72120(17) -0.21955(15) -0.21057(15)
H12 H 0.7762 -0.2404 -0.2581
C26 C 0.71581(17) -0.26960(15) -0.14436(15)
H13 H 0.7668 -0.3244 -0.1473
C27 C 0.63617(17) -0.23981(15) -0.07402(15)
H14 H 0.6324 -0.2739 -0.0289
C28 C 0.04955(15) 0.34324(14) 0.04769(13)
C29 C -0.05950(16) 0.39002(15) 0.07889(15)
H15 H -0.0830 0.4068 0.1373
H16 H -0.0851 0.3509 0.0694
H17 H -0.0796 0.4420 0.0498
C30 C 0.08374(17) 0.32110(15) -0.04459(14)
H18 H 0.0618 0.3746 -0.0712
H19 H 0.0582 0.2824 -0.0551
H20 H 0.1530 0.2922 -0.0662
C31 C 0.09018(15) 0.40276(13) 0.06381(13)
C32 C 0.16649(15) 0.41875(13) 0.01784(13)
C33 C 0.17348(15) 0.47868(13) 0.06507(13)
C34 C 0.10232(16) 0.49740(13) 0.13943(13)
C35 C 0.32591(16) 0.42142(14) -0.05789(13)
C36 C 0.42031(16) 0.38279(14) -0.09234(14)
C37 C 0.60017(16) 0.32962(14) -0.12104(14)
C38 C 0.59260(17) 0.26707(15) -0.16145(15)
C39 C 0.67319(17) 0.19191(15) -0.20114(15)
H21 H 0.6682 0.1484 -0.2275
C40 C 0.76063(17) 0.18208(15) -0.20135(16)
H22 H 0.8160 0.1318 -0.2287
C41 C 0.76782(18) 0.24502(16) -0.16195(17)
H23 H 0.8282 0.2376 -0.1632
C42 C 0.68749(17) 0.31910(16) -0.12049(16)
H24 H 0.6924 0.3615 -0.0925
C43 C 0.07829(16) 0.55055(13) 0.21623(13)
C44 C -0.02981(16) 0.60575(14) 0.25381(14)
H25 H -0.0517 0.6448 0.2144
H26 H -0.0440 0.6400 0.3030
H27 H -0.0621 0.5674 0.2679
C45 C 0.12592(18) 0.61297(14) 0.19505(14)
H28 H 0.1947 0.5796 0.1719
H29 H 0.1098 0.6479 0.2444
H30 H 0.1037 0.6513 0.1553
C46 C 0.11561(15) 0.48957(13) 0.27590(13)
C47 C 0.20575(16) 0.44926(14) 0.27902(13)
C48 C 0.20386(15) 0.39546(14) 0.34472(13)
C49 C 0.11328(15) 0.40199(13) 0.38114(13)
C50 C 0.37800(16) 0.34903(16) 0.26066(15)
C51 C 0.46761(17) 0.29155(17) 0.22156(15)
C52 C 0.62868(18) 0.19619(18) 0.11212(16)
C53 C 0.62039(17) 0.14713(18) 0.17855(16)
C54 C 0.6865(2) 0.06188(19) 0.17319(19)
H31 H 0.6799 0.0278 0.2182
C55 C 0.7625(2) 0.0273(2) 0.10077(19)
H32 H 0.8084 -0.0308 0.0964
C56 C 0.7717(2) 0.0766(2) 0.0350(2)
H33 H 0.8247 0.0525 -0.0136
C57 C 0.7044(2) 0.1609(2) 0.03938(19)
H34 H 0.7097 0.1940 -0.0064
C58 C 0.07412(15) 0.35272(13) 0.44898(13)
C59 C 0.12207(16) 0.33894(14) 0.51286(13)
H35 H 0.0991 0.3050 0.5551
H36 H 0.1068 0.3954 0.5376
H37 H 0.1908 0.3077 0.4865
C60 C -0.03322(15) 0.40310(14) 0.49214(14)
H38 H -0.0652 0.4136 0.4524
H39 H -0.0466 0.4587 0.5173
H40 H -0.0562 0.3690 0.5342
N1 N 0.04678(12) 0.25850(11) 0.36531(11)
H41 H 0.0006 0.3027 0.3553
N2 N 0.03188(13) 0.25338(11) 0.16878(11)
H42 H -0.0229 0.2941 0.1984
N3 N 0.05224(13) 0.45080(11) 0.13777(11)
H43 H 0.0027 0.4516 0.1784
N4 N 0.06007(13) 0.46018(11) 0.33895(11)
H44 H -0.0009 0.4764 0.3505
S1 S 0.22936(4) 0.01461(3) 0.35616(3)
S2 S 0.24517(4) 0.13353(3) 0.46130(3)
S3 S 0.46295(4) 0.00567(4) 0.42455(4)
S4 S 0.45410(4) -0.11263(4) 0.31534(4)
S5 S 0.25652(4) 0.02914(4) 0.11714(4)
S6 S 0.26464(4) 0.14273(4) -0.02260(4)
S7 S 0.47165(4) -0.00765(4) -0.12579(4)
S8 S 0.45848(4) -0.11564(4) 0.01541(4)
S9 S 0.25230(4) 0.38346(3) -0.08048(3)
S10 S 0.26533(4) 0.51105(3) 0.01603(3)
S11 S 0.49487(4) 0.42225(4) -0.07362(4)
S12 S 0.47951(4) 0.29036(4) -0.16248(4)
S13 S 0.31790(4) 0.44349(4) 0.21739(4)
S14 S 0.31201(4) 0.33590(4) 0.35974(4)
S15 S 0.52218(4) 0.19791(4) 0.26779(4)
S16 S 0.53945(5) 0.30271(5) 0.12508(4)
P1 P 0.61734(4) 0.30185(4) 0.45864(4)
C61 C 0.60790(17) 0.36468(16) 0.37313(15)
C62 C 0.52133(17) 0.40618(15) 0.36063(16)
H45 H 0.4659 0.4036 0.3986
C63 C 0.51738(19) 0.45129(17) 0.29187(17)
H46 H 0.4590 0.4793 0.2828
C64 C 0.5976(2) 0.45577(19) 0.23674(17)
H47 H 0.5936 0.4870 0.1902
C65 C 0.6838(2) 0.41523(19) 0.24840(18)
H48 H 0.7385 0.4192 0.2106
C66 C 0.68928(17) 0.36887(17) 0.31580(16)
H49 H 0.7484 0.3396 0.3234
C67 C 0.65860(16) 0.34444(16) 0.52122(15)
C68 C 0.69526(17) 0.40559(16) 0.49336(17)
H50 H 0.6966 0.4268 0.4417
C69 C 0.72949(18) 0.43520(17) 0.54076(17)
H51 H 0.7532 0.4775 0.5219
C70 C 0.72952(19) 0.40365(18) 0.61566(17)
H52 H 0.7552 0.4227 0.6471
C71 C 0.69163(19) 0.34364(18) 0.64461(17)
H53 H 0.6906 0.3227 0.6963
C72 C 0.65575(19) 0.31460(16) 0.59862(16)
H54 H 0.6291 0.2745 0.6190
C73 C 0.50329(16) 0.30646(16) 0.51798(15)
C74 C 0.43921(17) 0.37590(17) 0.57770(17)
H55 H 0.4587 0.4162 0.5915
C75 C 0.34669(19) 0.38474(19) 0.61632(18)
H56 H 0.3026 0.4314 0.6565
C76 C 0.31910(18) 0.32487(19) 0.59577(18)
H57 H 0.2559 0.3315 0.6220
C77 C 0.38195(18) 0.25639(18) 0.53824(17)
H58 H 0.3620 0.2162 0.5251
C78 C 0.47520(18) 0.24573(17) 0.49898(16)
H59 H 0.5190 0.1979 0.4599
C79 C 0.69990(16) 0.19164(15) 0.41905(15)
C80 C 0.72025(18) 0.16380(17) 0.33853(16)
H60 H 0.6889 0.2023 0.3056
C81 C 0.7861(2) 0.08008(18) 0.30726(18)
H61 H 0.8010 0.0618 0.2524
C82 C 0.83023(19) 0.02297(17) 0.35557(18)
H62 H 0.8752 -0.0344 0.3338
C83 C 0.80911(19) 0.04911(16) 0.43531(17)
H63 H 0.8392 0.0094 0.4683
C84 C 0.74381(17) 0.13346(16) 0.46768(16)
H64 H 0.7293 0.1512 0.5226
C85 C 0.9460(2) 0.19034(18) 0.55080(17)
Cl2 Cl 0.97625(6) 0.20440(5) 0.63457(4)
Cl3 Cl 0.90276(9) 0.11023(9) 0.56620(9)
Cl4? Cl 0.9460(4) 0.0912(4) 0.5405(4)
loop_
_geom_bond_atom_site_label_1
_geom_bond_atom_site_label_2
_geom_bond_site_symmetry_1
_geom_bond_site_symmetry_2
C1 C2 1_555 1_555
C2 C3 1_555 1_555
C3 C4 1_555 1_555
C4 C58 1_555 1_555
C5 C6 1_555 1_555
C6 S3 1_555 1_555
C7 C8 1_555 1_555
C8 C9 1_555 1_555
C9 H1 1_555 1_555
C10 C9 1_555 1_555
H2 C10 1_555 1_555
C11 C10 1_555 1_555
H3 C11 1_555 1_555
C12 C7 1_555 1_555
H4 C12 1_555 1_555
C13 C1 1_555 1_555
C14 C13 1_555 1_555
H5 C14 1_555 1_555
H6 C14 1_555 1_555
H7 C14 1_555 1_555
C15 C13 1_555 1_555
H8 C15 1_555 1_555
H9 C15 1_555 1_555
H10 C15 1_555 1_555
C16 C13 1_555 1_555
C17 C16 1_555 1_555
C18 C17 1_555 1_555
C19 C18 1_555 1_555
C20 C21 1_555 1_555
C21 S7 1_555 1_555
C22 C23 1_555 1_555
C23 C24 1_555 1_555
C24 H11 1_555 1_555
C25 C24 1_555 1_555
H12 C25 1_555 1_555
C26 C25 1_555 1_555
H13 C26 1_555 1_555
C27 C22 1_555 1_555
H14 C27 1_555 1_555
C28 C19 1_555 1_555
C29 C28 1_555 1_555
H15 C29 1_555 1_555
H16 C29 1_555 1_555
H17 C29 1_555 1_555
C30 C28 1_555 1_555
H18 C30 1_555 1_555
H19 C30 1_555 1_555
H20 C30 1_555 1_555
C31 C28 1_555 1_555
C32 C31 1_555 1_555
C33 C32 1_555 1_555
C34 C33 1_555 1_555
C35 C36 1_555 1_555
C36 S11 1_555 1_555
C37 C38 1_555 1_555
C38 C39 1_555 1_555
C39 H21 1_555 1_555
C40 C39 1_555 1_555
H22 C40 1_555 1_555
C41 C40 1_555 1_555
H23 C41 1_555 1_555
C42 C37 1_555 1_555
H24 C42 1_555 1_555
C43 C34 1_555 1_555
C44 C43 1_555 1_555
H25 C44 1_555 1_555
H26 C44 1_555 1_555
H27 C44 1_555 1_555
C45 C43 1_555 1_555
H28 C45 1_555 1_555
H29 C45 1_555 1_555
H30 C45 1_555 1_555
C46 C43 1_555 1_555
C47 C46 1_555 1_555
C48 C47 1_555 1_555
C49 C48 1_555 1_555
C50 C51 1_555 1_555
C51 S15 1_555 1_555
C52 C53 1_555 1_555
C53 C54 1_555 1_555
C54 H31 1_555 1_555
C55 C54 1_555 1_555
H32 C55 1_555 1_555
C56 C55 1_555 1_555
H33 C56 1_555 1_555
C57 C52 1_555 1_555
H34 C57 1_555 1_555
C58 C49 1_555 1_555
C59 C58 1_555 1_555
H35 C59 1_555 1_555
H36 C59 1_555 1_555
H37 C59 1_555 1_555
C60 C58 1_555 1_555
H38 C60 1_555 1_555
H39 C60 1_555 1_555
H40 C60 1_555 1_555
N1 C1 1_555 1_555
H41 N1 1_555 1_555
N2 C16 1_555 1_555
H42 N2 1_555 1_555
N3 C31 1_555 1_555
H43 N3 1_555 1_555
N4 C46 1_555 1_555
H44 N4 1_555 1_555
S1 C2 1_555 1_555
S2 C3 1_555 1_555
S3 C7 1_555 1_555
S4 C6 1_555 1_555
S5 C17 1_555 1_555
S6 C18 1_555 1_555
S7 C23 1_555 1_555
S8 C21 1_555 1_555
S9 C32 1_555 1_555
S10 C33 1_555 1_555
S11 C37 1_555 1_555
S12 C36 1_555 1_555
S13 C47 1_555 1_555
S14 C48 1_555 1_555
S15 C53 1_555 1_555
S16 C51 1_555 1_555
P1 C61 1_555 1_555
C61 C62 1_555 1_555
C62 H45 1_555 1_555
C63 C62 1_555 1_555
H46 C63 1_555 1_555
C64 C63 1_555 1_555
H47 C64 1_555 1_555
C65 C64 1_555 1_555
H48 C65 1_555 1_555
C66 C61 1_555 1_555
H49 C66 1_555 1_555
C67 P1 1_555 1_555
C68 C67 1_555 1_555
H50 C68 1_555 1_555
C69 C68 1_555 1_555
H51 C69 1_555 1_555
C70 C69 1_555 1_555
H52 C70 1_555 1_555
C71 C70 1_555 1_555
H53 C71 1_555 1_555
C72 C67 1_555 1_555
H54 C72 1_555 1_555
C73 P1 1_555 1_555
C74 C73 1_555 1_555
H55 C74 1_555 1_555
C75 C74 1_555 1_555
H56 C75 1_555 1_555
C76 C75 1_555 1_555
H57 C76 1_555 1_555
C77 C76 1_555 1_555
H58 C77 1_555 1_555
C78 C73 1_555 1_555
H59 C78 1_555 1_555
C79 P1 1_555 1_555
C80 C79 1_555 1_555
H60 C80 1_555 1_555
C81 C80 1_555 1_555
H61 C81 1_555 1_555
C82 C81 1_555 1_555
H62 C82 1_555 1_555
C83 C82 1_555 1_555
H63 C83 1_555 1_555
C84 C79 1_555 1_555
H64 C84 1_555 1_555
C85 Cl2 1_555 1_555
Cl3 C85 1_555 1_555
C4 N1 1_555 1_555
C5 S1 1_555 1_555
C5 S2 1_555 1_555
C8 S4 1_555 1_555
C11 C12 1_555 1_555
C19 N2 1_555 1_555
C20 S5 1_555 1_555
C20 S6 1_555 1_555
C22 S8 1_555 1_555
C26 C27 1_555 1_555
C34 N3 1_555 1_555
C35 S9 1_555 1_555
C35 S10 1_555 1_555
C38 S12 1_555 1_555
C41 C42 1_555 1_555
C49 N4 1_555 1_555
C50 S13 1_555 1_555
C50 S14 1_555 1_555
C52 S16 1_555 1_555
C56 C57 1_555 1_555
C65 C66 1_555 1_555
C71 C72 1_555 1_555
C77 C78 1_555 1_555
C83 C84 1_555 1_555

#END
