
#######################################################################
#
#                 Cambridge Crystallographic Data Centre
#                                CCDC 
#
#######################################################################
#
# If this CIF has been generated from an entry in the Cambridge 
# Structural Database, then it will include bibliographic, chemical, 
# crystal, experimental, refinement or atomic coordinate data resulting 
# from the CCDC's data processing and validation procedures.
#
#######################################################################

data_DOFXOM
_chemical_formula_moiety         'C11 H11 Cl1 O5 S1'
_chemical_name_systematic        
'Methyl 3-oxo-4-(4-chlorophenylsulfonyl)butanoate'
_symmetry_cell_setting           monoclinic
_symmetry_space_group_name_H-M   'P 21/c'
_symmetry_Int_Tables_number      14
_space_group_name_Hall           '-P 2ybc'
loop_
_symmetry_equiv_pos_site_id
_symmetry_equiv_pos_as_xyz
1 x,y,z
2 -x,1/2+y,1/2-z
3 -x,-y,-z
4 x,1/2-y,1/2+z
_cell_length_a                   15.488(3)
_cell_length_b                   8.5440(17)
_cell_length_c                   10.372(2)
_cell_angle_alpha                90
_cell_angle_beta                 108.95(3)
_cell_angle_gamma                90
_cell_volume                     1298.13
_exptl_crystal_colour            colorless
_exptl_crystal_description       prism
_cell_formula_units_Z            4
loop_
_atom_site_label
_atom_site_type_symbol
_atom_site_fract_x
_atom_site_fract_y
_atom_site_fract_z
Cl1 Cl 0.47550(6) 0.39143(16) 1.20699(13)
S1 S 0.08997(5) 0.14708(8) 0.86242(7)
O1 O 0.07957(13) -0.0074(2) 0.9089(2)
O2 O 0.08424(14) 0.1685(3) 0.72305(18)
O3 O -0.10912(14) 0.1388(2) 0.7293(2)
O4 O -0.30048(15) 0.1883(3) 0.7720(3)
O5 O -0.27791(13) 0.4075(2) 0.6782(2)
C1 C 0.19639(16) 0.2231(3) 0.9654(3)
C2 C 0.2454(2) 0.1468(4) 1.0818(3)
H1 H 0.2213 0.0586 1.1100
C3 C 0.3308(2) 0.2004(4) 1.1576(3)
H2 H 0.3643 0.1489 1.2371
C4 C 0.3655(2) 0.3284(4) 1.1156(4)
C5 C 0.3174(2) 0.4080(4) 1.0016(4)
H3 H 0.3417 0.4974 0.9755
C6 C 0.2318(2) 0.3550(4) 0.9249(3)
H4 H 0.1983 0.4081 0.8463
C7 C 0.00956(16) 0.2744(3) 0.8988(3)
H5 H 0.0181 0.2701 0.9956
H6 H 0.0214 0.3810 0.8769
C8 C -0.08836(17) 0.2335(3) 0.8202(3)
C9 C -0.15784(17) 0.3209(3) 0.8659(3)
H7 H -0.1546 0.2855 0.9563
H8 H -0.1436 0.4318 0.8713
C10 C -0.25314(19) 0.2961(4) 0.7694(3)
C11 C -0.3667(2) 0.3905(4) 0.5740(4)
H9 H -0.3777 0.4784 0.5131
H10 H -0.4133 0.3861 0.6164
H11 H -0.3677 0.2958 0.5236
loop_
_geom_bond_atom_site_label_1
_geom_bond_atom_site_label_2
_geom_bond_site_symmetry_1
_geom_bond_site_symmetry_2
Cl1 C4 1_555 1_555
S1 O1 1_555 1_555
O2 S1 1_555 1_555
O3 C8 1_555 1_555
O4 C10 1_555 1_555
O5 C10 1_555 1_555
C1 S1 1_555 1_555
C2 C1 1_555 1_555
H1 C2 1_555 1_555
C3 C2 1_555 1_555
H2 C3 1_555 1_555
C4 C3 1_555 1_555
C5 C4 1_555 1_555
H3 C5 1_555 1_555
C6 C1 1_555 1_555
H4 C6 1_555 1_555
C7 S1 1_555 1_555
H5 C7 1_555 1_555
H6 C7 1_555 1_555
C8 C7 1_555 1_555
C9 C8 1_555 1_555
H7 C9 1_555 1_555
H8 C9 1_555 1_555
C10 C9 1_555 1_555
C11 O5 1_555 1_555
H9 C11 1_555 1_555
H10 C11 1_555 1_555
H11 C11 1_555 1_555
C5 C6 1_555 1_555

#END
