
#######################################################################
#
#                 Cambridge Crystallographic Data Centre
#                                CCDC 
#
#######################################################################
#
# If this CIF has been generated from an entry in the Cambridge 
# Structural Database, then it will include bibliographic, chemical, 
# crystal, experimental, refinement or atomic coordinate data resulting 
# from the CCDC's data processing and validation procedures.
#
#######################################################################

data_DOFXEC
_chemical_formula_moiety         'C20 H28 Ba2 N12 O30'
_chemical_name_systematic        
bis(\m~2~-3,5-Dinitropyridin-4-one-O,O',O'')-deca-aqua-bis(3,5-dinitropyridin-4-one-N)-di-barium(ii)
_symmetry_cell_setting           monoclinic
_symmetry_space_group_name_H-M   'P 21/n'
_symmetry_Int_Tables_number      14
_space_group_name_Hall           '-P 2yn'
loop_
_symmetry_equiv_pos_site_id
_symmetry_equiv_pos_as_xyz
1 x,y,z
2 1/2-x,1/2+y,1/2-z
3 -x,-y,-z
4 1/2+x,1/2-y,1/2+z
_cell_length_a                   6.6707(8)
_cell_length_b                   13.6140(16)
_cell_length_c                   21.401(3)
_cell_angle_alpha                90
_cell_angle_beta                 92.0300(10)
_cell_angle_gamma                90
_cell_volume                     1942.31
_cell_formula_units_Z            2
loop_
_atom_site_label
_atom_site_type_symbol
_atom_site_fract_x
_atom_site_fract_y
_atom_site_fract_z
Ba1 Ba 0.451914(18) 0.319142(8) 0.061210(5)
O1 O 0.5054(3) 0.03541(13) 0.26912(9)
O2 O 0.7109(3) 0.06870(12) 0.34619(8)
O3 O 0.6464(3) 0.25874(11) 0.38640(6)
O4 O 0.7032(4) 0.45510(14) 0.38838(9)
O5 O 0.6070(4) 0.53636(13) 0.30842(9)
O6 O 0.3295(3) 0.49986(12) 0.13947(8)
O7 O 0.4266(3) 0.55882(12) 0.05256(7)
O8 O 0.6772(3) 0.25257(12) -0.03345(7)
O9 O 0.7315(5) 0.05670(15) -0.04236(10)
O10 O 0.6549(6) -0.01229(15) -0.12715(12)
O11 O 0.8292(3) 0.41140(12) 0.06581(8)
O12 O 0.7628(3) 0.17224(11) 0.08011(8)
O13 O 0.2409(4) 0.16388(12) 0.00871(9)
O14 O 0.1204(3) 0.27665(15) 0.13514(7)
O15 O 0.1358(3) 0.38463(11) -0.02085(7)
N1 N 0.5778(3) 0.30452(13) 0.19345(8)
N2 N 0.6060(3) 0.09394(13) 0.30066(8)
N3 N 0.6463(3) 0.45796(13) 0.33394(8)
N4 N 0.3781(3) 0.76278(14) 0.22813(8)
N5 N 0.3721(3) 0.57102(12) 0.10650(8)
N6 N 0.6835(3) 0.06181(14) -0.09699(9)
C1 C 0.5779(3) 0.21420(16) 0.21889(9)
H1 H 0.5570 0.1607 0.1924
C2 C 0.6071(3) 0.19626(14) 0.28192(9)
C3 C 0.6331(3) 0.27267(14) 0.32872(8)
C4 C 0.6289(3) 0.36779(14) 0.29790(9)
C5 C 0.6029(3) 0.37881(15) 0.23392(9)
H2 H 0.6029 0.4423 0.2179
C6 C 0.3780(3) 0.67668(15) 0.19766(10)
H3 H 0.3893 0.6192 0.2210
C7 C 0.3618(3) 0.66900(14) 0.13269(9)
C8 C 0.6595(3) 0.24709(15) -0.09153(9)
C9 C 0.6607(3) 0.15707(15) -0.12772(10)
C10 C 0.3588(3) 0.84380(16) 0.19220(10)
H4 H 0.3586 0.9045 0.2122
H5 H 0.8918 0.4272 0.0969
H6 H 0.9023 0.3900 0.0386
H7 H 0.7590 0.1125 0.0919
H8 H 0.7974 0.1685 0.0420
H9 H 0.2282 0.1629 -0.0295
H10 H 0.2514 0.1058 0.0199
H11 H 0.0470 0.2321 0.1223
H12 H 0.1243 0.2754 0.1742
H13 H 0.1762 0.4304 -0.0433
H14 H 0.0964 0.3398 -0.0431
Ba1B Ba 0.548086(18) 0.680858(8) -0.061210(5)
O1B O 0.4946(3) 0.96459(13) -0.26912(9)
O2B O 0.2891(3) 0.93130(12) -0.34619(8)
O3B O 0.3536(3) 0.74126(11) -0.38640(6)
O4B O 0.2968(4) 0.54490(14) -0.38838(9)
O5B O 0.3930(4) 0.46364(13) -0.30842(9)
O6B O 0.6705(3) 0.50014(12) -0.13947(8)
O7B O 0.5734(3) 0.44118(12) -0.05256(7)
O8B O 0.3228(3) 0.74743(12) 0.03345(7)
O9B O 0.2685(5) 0.94330(15) 0.04236(10)
O10B O 0.3451(6) 1.01229(15) 0.12715(12)
O11B O 0.1708(3) 0.58860(12) -0.06581(8)
O12B O 0.2372(3) 0.82776(11) -0.08011(8)
O13B O 0.7591(4) 0.83612(12) -0.00871(9)
O14B O 0.8796(3) 0.72335(15) -0.13514(7)
O15B O 0.8642(3) 0.61537(11) 0.02085(7)
N1B N 0.4222(3) 0.69548(13) -0.19345(8)
N2B N 0.3940(3) 0.90606(13) -0.30066(8)
N3B N 0.3537(3) 0.54204(13) -0.33394(8)
N4B N 0.6219(3) 0.23722(14) -0.22813(8)
N5B N 0.6279(3) 0.42898(12) -0.10650(8)
N6B N 0.3165(3) 0.93819(14) 0.09699(9)
C1B C 0.4221(3) 0.78580(16) -0.21889(9)
H1B H 0.4430 0.8393 -0.1924
C2B C 0.3929(3) 0.80374(14) -0.28192(9)
C3B C 0.3669(3) 0.72733(14) -0.32872(8)
C4B C 0.3711(3) 0.63221(14) -0.29790(9)
C5B C 0.3971(3) 0.62119(15) -0.23392(9)
H2B H 0.3971 0.5577 -0.2179
C6B C 0.6220(3) 0.32332(15) -0.19766(10)
H3B H 0.6107 0.3808 -0.2210
C7B C 0.6382(3) 0.33100(14) -0.13269(9)
C8B C 0.3405(3) 0.75291(15) 0.09153(9)
C9B C 0.3393(3) 0.84293(15) 0.12772(10)
C10B C 0.6412(3) 0.15620(16) -0.19220(10)
H4B H 0.6414 0.0955 -0.2122
H5B H 0.1082 0.5728 -0.0969
H6B H 0.0977 0.6100 -0.0386
H7B H 0.2410 0.8875 -0.0919
H8B H 0.2026 0.8315 -0.0420
H9B H 0.7718 0.8371 0.0295
H10B H 0.7486 0.8942 -0.0199
H11B H 0.9530 0.7679 -0.1223
H12B H 0.8757 0.7246 -0.1742
H13B H 0.8238 0.5696 0.0433
H14B H 0.9036 0.6602 0.0431
loop_
_geom_bond_atom_site_label_1
_geom_bond_atom_site_label_2
_geom_bond_site_symmetry_1
_geom_bond_site_symmetry_2
Ba1 O6 1_555 1_555
O1 N2 1_555 1_555
O2 N2 1_555 1_555
O3 C3 1_555 1_555
O4 N3 1_555 1_555
O5 N3 1_555 1_555
O6 N5 1_555 1_555
O7 Ba1 1_555 1_555
O8 Ba1 1_555 1_555
O9 N6 1_555 1_555
O10 N6 1_555 1_555
O11 Ba1 1_555 1_555
O12 Ba1 1_555 1_555
O13 Ba1 1_555 1_555
O14 Ba1 1_555 1_555
O15 Ba1 1_555 1_555
N1 Ba1 1_555 1_555
N2 C2 1_555 1_555
N3 C4 1_555 1_555
N4 C6 1_555 1_555
N5 O7 1_555 1_555
N6 C9 1_555 1_555
C1 N1 1_555 1_555
H1 C1 1_555 1_555
C2 C1 1_555 1_555
C3 C2 1_555 1_555
C4 C3 1_555 1_555
C5 N1 1_555 1_555
H2 C5 1_555 1_555
C6 H3 1_555 1_555
C7 N5 1_555 1_555
C8 O8 1_555 1_555
C9 C8 1_555 1_555
C10 N4 1_555 1_555
H4 C10 1_555 1_555
H5 O11 1_555 1_555
H6 O11 1_555 1_555
H7 O12 1_555 1_555
H8 O12 1_555 1_555
H9 O13 1_555 1_555
H10 O13 1_555 1_555
H11 O14 1_555 1_555
H12 O14 1_555 1_555
H13 O15 1_555 1_555
H14 O15 1_555 1_555
Ba1B O7 1_555 1_555
O1B N2B 1_555 1_555
O2B N2B 1_555 1_555
O3B C3B 1_555 1_555
O4B N3B 1_555 1_555
O5B N3B 1_555 1_555
O6B Ba1B 1_555 1_555
O7B Ba1 1_555 1_555
O8B Ba1B 1_555 1_555
O9B N6B 1_555 1_555
O10B N6B 1_555 1_555
O11B Ba1B 1_555 1_555
O12B Ba1B 1_555 1_555
O13B Ba1B 1_555 1_555
O14B Ba1B 1_555 1_555
O15B Ba1B 1_555 1_555
N1B Ba1B 1_555 1_555
N2B C2B 1_555 1_555
N3B C4B 1_555 1_555
N4B C6B 1_555 1_555
N5B O6B 1_555 1_555
N6B C9B 1_555 1_555
C1B N1B 1_555 1_555
H1B C1B 1_555 1_555
C2B C1B 1_555 1_555
C3B C2B 1_555 1_555
C4B C3B 1_555 1_555
C5B N1B 1_555 1_555
H2B C5B 1_555 1_555
C6B H3B 1_555 1_555
C7B C8 1_555 1_555
C8B C7 1_555 1_555
C9B C10 1_555 1_555
C10B C9 1_555 1_555
H4B C10B 1_555 1_555
H5B O11B 1_555 1_555
H6B O11B 1_555 1_555
H7B O12B 1_555 1_555
H8B O12B 1_555 1_555
H9B O13B 1_555 1_555
H10B O13B 1_555 1_555
H11B O14B 1_555 1_555
H12B O14B 1_555 1_555
H13B O15B 1_555 1_555
H14B O15B 1_555 1_555
C4 C5 1_555 1_555
C6 C7 1_555 1_555
Ba1B O7B 1_555 1_555
O7B N5B 1_555 1_555
O8B C8B 1_555 1_555
N4B C10B 1_555 1_555
N5B C7B 1_555 1_555
C4B C5B 1_555 1_555
C6B C7B 1_555 1_555
C8B C9B 1_555 1_555

#END
