
#######################################################################
#
#                 Cambridge Crystallographic Data Centre
#                                CCDC 
#
#######################################################################
#
# If this CIF has been generated from an entry in the Cambridge 
# Structural Database, then it will include bibliographic, chemical, 
# crystal, experimental, refinement or atomic coordinate data resulting 
# from the CCDC's data processing and validation procedures.
#
#######################################################################

data_DOGHUE
_chemical_formula_moiety         'C25 H24'
_chemical_name_systematic        
1,1'-((5-phenylcyclohex-2-en-1-yl)methylene)dibenzene
_symmetry_cell_setting           monoclinic
_symmetry_space_group_name_H-M   'P 21/c'
_symmetry_Int_Tables_number      14
_space_group_name_Hall           '-P 2ybc'
loop_
_symmetry_equiv_pos_site_id
_symmetry_equiv_pos_as_xyz
1 x,y,z
2 -x,1/2+y,1/2-z
3 -x,-y,-z
4 x,1/2-y,1/2+z
_cell_length_a                   18.8031(14)
_cell_length_b                   5.8211(5)
_cell_length_c                   17.3207(13)
_cell_angle_alpha                90
_cell_angle_beta                 103.022(4)
_cell_angle_gamma                90
_cell_volume                     1847.08
_cell_formula_units_Z            4
loop_
_atom_site_label
_atom_site_type_symbol
_atom_site_fract_x
_atom_site_fract_y
_atom_site_fract_z
C1 C 0.25836(12) 0.5999(5) 0.37321(14)
H1 H 0.2652 0.4438 0.3948
C2 C 0.32754(12) 0.6628(4) 0.34482(13)
H2 H 0.3407 0.5349 0.3149
H3 H 0.3170 0.7935 0.3094
C3 C 0.39163(13) 0.7204(5) 0.41133(15)
H4 H 0.4002 0.5856 0.4461
C4 C 0.37472(13) 0.9183(5) 0.46128(15)
H5 H 0.4109 0.9223 0.5110
H6 H 0.3778 1.0618 0.4338
C5 C 0.30031(13) 0.8965(5) 0.47782(15)
H7 H 0.2893 0.9879 0.5176
C6 C 0.24952(13) 0.7568(4) 0.43987(14)
H8 H 0.2051 0.7542 0.4550
C7 C 0.19031(13) 0.5970(4) 0.30647(15)
H9 H 0.1841 0.7543 0.2859
C8 C 0.19607(12) 0.4448(4) 0.23636(14)
C9 C 0.22874(13) 0.2295(4) 0.24320(14)
H10 H 0.2491 0.1703 0.2932
C10 C 0.23135(13) 0.1019(4) 0.17631(16)
H11 H 0.2539 -0.0412 0.1816
C11 C 0.20071(14) 0.1864(5) 0.10251(16)
H12 H 0.2019 0.1001 0.0576
C12 C 0.16823(14) 0.3986(5) 0.09499(16)
H13 H 0.1477 0.4560 0.0448
C13 C 0.16575(13) 0.5275(4) 0.16086(16)
H14 H 0.1436 0.6713 0.1548
C14 C 0.12092(12) 0.5408(4) 0.33504(14)
C15 C 0.06520(14) 0.7006(5) 0.32197(16)
H15 H 0.0699 0.8350 0.2945
C16 C 0.00226(15) 0.6631(6) 0.34928(19)
H16 H -0.0348 0.7723 0.3401
C17 C -0.00550(14) 0.4669(6) 0.38946(17)
H17 H -0.0471 0.4441 0.4091
C18 C 0.04834(15) 0.3032(5) 0.40079(17)
H18 H 0.0426 0.1673 0.4269
C19 C 0.11123(13) 0.3392(5) 0.37348(16)
H19 H 0.1472 0.2266 0.3811
C20 C 0.46183(12) 0.7607(4) 0.38311(13)
C21 C 0.51697(13) 0.6006(4) 0.39917(13)
H20 H 0.5102 0.4666 0.4259
C22 C 0.58197(13) 0.6338(4) 0.37662(14)
H21 H 0.6184 0.5230 0.3884
C23 C 0.59312(12) 0.8305(4) 0.33675(14)
H22 H 0.6374 0.8541 0.3226
C24 C 0.53837(13) 0.9925(4) 0.31791(13)
H23 H 0.5451 1.1236 0.2897
C25 C 0.47286(13) 0.9589(4) 0.34133(14)
H24 H 0.4362 1.0689 0.3291
loop_
_geom_bond_atom_site_label_1
_geom_bond_atom_site_label_2
_geom_bond_site_symmetry_1
_geom_bond_site_symmetry_2
C1 H1 1_555 1_555
C2 C1 1_555 1_555
H2 C2 1_555 1_555
H3 C2 1_555 1_555
C3 C2 1_555 1_555
H4 C3 1_555 1_555
C4 C3 1_555 1_555
H5 C4 1_555 1_555
H6 C4 1_555 1_555
C5 C4 1_555 1_555
H7 C5 1_555 1_555
C6 C1 1_555 1_555
H8 C6 1_555 1_555
C7 C1 1_555 1_555
H9 C7 1_555 1_555
C8 C7 1_555 1_555
C9 C8 1_555 1_555
H10 C9 1_555 1_555
C10 C9 1_555 1_555
H11 C10 1_555 1_555
C11 C10 1_555 1_555
H12 C11 1_555 1_555
C12 C11 1_555 1_555
H13 C12 1_555 1_555
C13 C8 1_555 1_555
H14 C13 1_555 1_555
C14 C7 1_555 1_555
C15 C14 1_555 1_555
H15 C15 1_555 1_555
C16 C15 1_555 1_555
H16 C16 1_555 1_555
C17 C16 1_555 1_555
H17 C17 1_555 1_555
C18 C17 1_555 1_555
H18 C18 1_555 1_555
C19 C14 1_555 1_555
H19 C19 1_555 1_555
C20 C3 1_555 1_555
C21 C20 1_555 1_555
H20 C21 1_555 1_555
C22 C21 1_555 1_555
H21 C22 1_555 1_555
C23 C22 1_555 1_555
H22 C23 1_555 1_555
C24 C23 1_555 1_555
H23 C24 1_555 1_555
C25 C20 1_555 1_555
H24 C25 1_555 1_555
C5 C6 1_555 1_555
C12 C13 1_555 1_555
C18 C19 1_555 1_555
C24 C25 1_555 1_555

#END
