
#######################################################################
#
#                 Cambridge Crystallographic Data Centre
#                                CCDC 
#
#######################################################################
#
# If this CIF has been generated from an entry in the Cambridge 
# Structural Database, then it will include bibliographic, chemical, 
# crystal, experimental, refinement or atomic coordinate data resulting 
# from the CCDC's data processing and validation procedures.
#
#######################################################################

data_DOHFAH
_chemical_name_common            'Panaxatriol monohydrate'
_chemical_formula_moiety         'C30 H52 O4,H2 O1'
_chemical_name_systematic        
'20,25-Epoxy-dammaran-3\b,6\b,12\b-triol monohydrate'
_symmetry_cell_setting           monoclinic
_symmetry_space_group_name_H-M   'P 21'
_symmetry_Int_Tables_number      4
_space_group_name_Hall           'P 2yb'
loop_
_symmetry_equiv_pos_site_id
_symmetry_equiv_pos_as_xyz
1 x,y,z
2 -x,1/2+y,-z
_cell_length_a                   6.681(4)
_cell_length_b                   13.422(7)
_cell_length_c                   15.868(4)
_cell_angle_alpha                90
_cell_angle_beta                 96.97(4)
_cell_angle_gamma                90
_cell_volume                     1412.41
_cell_formula_units_Z            2
loop_
_atom_site_label
_atom_site_type_symbol
_atom_site_fract_x
_atom_site_fract_y
_atom_site_fract_z
C1 C 0.4588(7) 0.3943(3) 0.2955(2)
C2 C 0.5015(7) 0.3462(3) 0.3824(3)
C3 C 0.6491(6) 0.4100(3) 0.4395(2)
O1 O 0.7076(4) 0.3626(3) 0.5188(2)
C4 C 0.5755(5) 0.5173(3) 0.4511(2)
C5 C 0.5155(5) 0.5641(3) 0.3606(2)
C6 C 0.4400(5) 0.6719(3) 0.3585(2)
O2 O 0.5479(4) 0.7371(3) 0.4187(2)
C7 C 0.4442(5) 0.7161(3) 0.2700(2)
C8 C 0.3170(5) 0.6598(3) 0.1988(2)
C9 C 0.3713(5) 0.5465(3) 0.2070(2)
C10 C 0.3696(5) 0.5000 0.2977(2)
C11 C 0.2544(6) 0.4862(3) 0.1348(2)
C12 C 0.2809(6) 0.5224(3) 0.0459(2)
O3 O 0.1446(5) 0.4636(2) -0.0098(2)
C13 C 0.2326(5) 0.6354(3) 0.0379(2)
C14 C 0.3641(5) 0.6944(3) 0.1089(2)
C15 C 0.3030(6) 0.8017(3) 0.0830(3)
C16 C 0.2775(8) 0.8026(4) -0.0145(3)
C17 C 0.2629(5) 0.6922(3) -0.0441(2)
C18 C 0.0935(5) 0.6796(4) 0.2076(2)
C19 C 0.1523(6) 0.4905(4) 0.3223(2)
C20 C 0.1083(5) 0.6761(3) -0.1234(2)
O4 O 0.1550(4) 0.5763(2) -0.1508(1)
C21 C -0.1098(6) 0.6833(4) -0.1040(2)
C22 C 0.1512(7) 0.7510(3) -0.1926(2)
C23 C 0.0615(7) 0.7191(3) -0.2813(3)
C24 C 0.1443(7) 0.6185(4) -0.3008(2)
C25 C 0.0980(7) 0.5390(3) -0.2365(2)
C26 C 0.2316(11) 0.4498(4) -0.2414(3)
C27 C -0.1215(8) 0.5078(4) -0.2492(3)
C28 C 0.4048(7) 0.5211(5) 0.5082(3)
C29 C 0.7599(7) 0.5714(4) 0.4988(3)
C30 C 0.5907(5) 0.6850(3) 0.0986(2)
H1 H 0.5983(7) 0.3986(3) 0.2677(2)
H2 H 0.3529(7) 0.3480(3) 0.2563(2)
H3 H 0.5659(7) 0.2732(3) 0.3758(3)
H4 H 0.3625(7) 0.3392(3) 0.4103(3)
H5 H 0.7809(6) 0.4173(3) 0.4067(2)
H6 H 0.6620(5) 0.5646(3) 0.3383(2)
H7 H 0.2885(5) 0.6668(3) 0.3754(2)
H8 H 0.3889(5) 0.7917(3) 0.2706(2)
H9 H 0.5986(5) 0.7165(3) 0.2562(2)
H10 H 0.5293(5) 0.5415(3) 0.1991(2)
H11 H 0.0959(6) 0.4898(3) 0.1422(2)
H12 H 0.3048(6) 0.4097(3) 0.1406(2)
H13 H 0.4334(6) 0.5140(3) 0.0308(2)
H14 H 0.0720(5) 0.6330(3) 0.0409(2)
H15 H 0.4192(6) 0.8535(3) 0.1078(3)
H16 H 0.1629(6) 0.8213(3) 0.1063(3)
H17 H 0.1415(8) 0.8422(4) -0.0384(3)
H18 H 0.4057(8) 0.8382(4) -0.0372(3)
H19 H 0.3952(5) 0.6639(3) -0.0690(2)
H20 H -0.0045(5) 0.6357(4) 0.1630(2)
H21 H 0.0664(5) 0.7578(4) 0.1949(2)
H22 H 0.0633(5) 0.6628(4) 0.2714(2)
H23 H 0.0733(6) 0.5584(4) 0.3338(2)
H24 H 0.1653(6) 0.4446(4) 0.3786(2)
H25 H 0.0697(6) 0.4505(4) 0.2702(2)
H26 H -0.1367(6) 0.7561(4) -0.0785(2)
H27 H -0.1393(6) 0.6268(4) -0.0586(2)
H28 H -0.2084(6) 0.6723(4) -0.1623(2)
H29 H 0.3125(7) 0.7581(3) -0.1916(2)
H30 H 0.0880(7) 0.8222(3) -0.1785(2)
H31 H 0.1009(7) 0.7729(3) -0.3272(3)
H32 H -0.1007(7) 0.7148(3) -0.2841(3)
H33 H 0.0781(7) 0.5958(4) -0.3633(2)
H34 H 0.3058(7) 0.6244(4) -0.2996(2)
H35 H 0.2129(11) 0.4162(4) -0.3036(3)
H36 H 0.1974(11) 0.3957(4) -0.1948(3)
H37 H 0.3855(11) 0.4749(4) -0.2264(3)
H38 H -0.1562(8) 0.4729(4) -0.3105(3)
H39 H -0.2118(8) 0.5742(4) -0.2466(3)
H40 H -0.1543(8) 0.4567(4) -0.2001(3)
H41 H 0.2787(7) 0.4771(5) 0.4801(3)
H42 H 0.3589(7) 0.5980(5) 0.5121(3)
H43 H 0.4549(7) 0.4935(5) 0.5712(3)
H44 H 0.7245(7) 0.6440(4) 0.5223(3)
H45 H 0.8780(7) 0.5783(4) 0.4584(3)
H46 H 0.8099(7) 0.5232(4) 0.5517(3)
H47 H 0.6383(5) 0.6085(3) 0.1079(2)
H48 H 0.6804(5) 0.7319(3) 0.1438(2)
H49 H 0.6107(5) 0.7080(3) 0.0349(2)
H50 H 0.603(2) 0.344(2) 0.542(2)
H51 H 0.740(2) 0.760(2) 0.419(2)
H52 H 0.107(2) 0.504(2) -0.081(2)
O5 O 0.0566(7) 1.2836(6) 0.5890(5)
H53 H 0.123(2) 1.326(2) 0.535(2)
H54 H -0.076(2) 1.314(2) 0.551(2)
loop_
_geom_bond_atom_site_label_1
_geom_bond_atom_site_label_2
_geom_bond_site_symmetry_1
_geom_bond_site_symmetry_2
C1 C2 1_555 1_555
C2 C3 1_555 1_555
C3 O1 1_555 1_555
O1 H50 1_555 1_555
C4 C3 1_555 1_555
C5 C4 1_555 1_555
C6 C5 1_555 1_555
O2 C6 1_555 1_555
C7 C6 1_555 1_555
C8 C7 1_555 1_555
C9 C8 1_555 1_555
C10 C1 1_555 1_555
C11 C9 1_555 1_555
C12 C11 1_555 1_555
O3 C12 1_555 1_555
C13 C12 1_555 1_555
C14 C8 1_555 1_555
C15 C14 1_555 1_555
C16 C15 1_555 1_555
C17 C13 1_555 1_555
C18 C8 1_555 1_555
C19 C10 1_555 1_555
C20 C17 1_555 1_555
O4 C20 1_555 1_555
C21 C20 1_555 1_555
C22 C20 1_555 1_555
C23 C22 1_555 1_555
C24 C23 1_555 1_555
C25 O4 1_555 1_555
C26 C25 1_555 1_555
C27 C25 1_555 1_555
C28 C4 1_555 1_555
C29 C4 1_555 1_555
C30 C14 1_555 1_555
O5 H53 1_555 1_555
H1 C1 1_555 1_555
H2 C1 1_555 1_555
H3 C2 1_555 1_555
H4 C2 1_555 1_555
H5 C3 1_555 1_555
H6 C5 1_555 1_555
H7 C6 1_555 1_555
H8 C7 1_555 1_555
H9 C7 1_555 1_555
H10 C9 1_555 1_555
H11 C11 1_555 1_555
H12 C11 1_555 1_555
H13 C12 1_555 1_555
H14 C13 1_555 1_555
H15 C15 1_555 1_555
H16 C15 1_555 1_555
H17 C16 1_555 1_555
H18 C16 1_555 1_555
H19 C17 1_555 1_555
H20 C18 1_555 1_555
H21 C18 1_555 1_555
H22 C18 1_555 1_555
H23 C19 1_555 1_555
H24 C19 1_555 1_555
H25 C19 1_555 1_555
H26 C21 1_555 1_555
H27 C21 1_555 1_555
H28 C21 1_555 1_555
H29 C22 1_555 1_555
H30 C22 1_555 1_555
H31 C23 1_555 1_555
H32 C23 1_555 1_555
H33 C24 1_555 1_555
H34 C24 1_555 1_555
H35 C26 1_555 1_555
H36 C26 1_555 1_555
H37 C26 1_555 1_555
H38 C27 1_555 1_555
H39 C27 1_555 1_555
H40 C27 1_555 1_555
H41 C28 1_555 1_555
H42 C28 1_555 1_555
H43 C28 1_555 1_555
H44 C29 1_555 1_555
H45 C29 1_555 1_555
H46 C29 1_555 1_555
H47 C30 1_555 1_555
H48 C30 1_555 1_555
H49 C30 1_555 1_555
H51 O2 1_555 1_555
H52 O3 1_555 1_555
H54 O5 1_555 1_555
C5 C10 1_555 1_555
C9 C10 1_555 1_555
C13 C14 1_555 1_555
C16 C17 1_555 1_555
C24 C25 1_555 1_555

#END
