
#######################################################################
#
#                 Cambridge Crystallographic Data Centre
#                                CCDC 
#
#######################################################################
#
# If this CIF has been generated from an entry in the Cambridge 
# Structural Database, then it will include bibliographic, chemical, 
# crystal, experimental, refinement or atomic coordinate data resulting 
# from the CCDC's data processing and validation procedures.
#
#######################################################################

data_DOHMAQ
_chemical_formula_moiety         'C44 H48 N2 P2 Si2'
_chemical_name_systematic        
5-(diphenylmethylene)-2,2,8,8-tetramethyl-4,4,6,6-tetraphenyl-3,7-diaza-4,6-diphospha-2,8-disilanona-3,6-diene
_symmetry_cell_setting           triclinic
_symmetry_space_group_name_H-M   'P -1'
_symmetry_Int_Tables_number      2
_space_group_name_Hall           '-P 1'
loop_
_symmetry_equiv_pos_site_id
_symmetry_equiv_pos_as_xyz
1 x,y,z
2 -x,-y,-z
_cell_length_a                   11.3423(7)
_cell_length_b                   19.2758(12)
_cell_length_c                   19.5602(12)
_cell_angle_alpha                100.383(2)
_cell_angle_beta                 104.904(2)
_cell_angle_gamma                90.477(2)
_cell_volume                     4058.21
_exptl_crystal_colour            colorless
_exptl_crystal_description       column
_cell_formula_units_Z            4
loop_
_atom_site_label
_atom_site_type_symbol
_atom_site_fract_x
_atom_site_fract_y
_atom_site_fract_z
C1 C 0.7020(2) 0.34593(14) 0.25640(14)
P1 P 0.73636(6) 0.31050(4) 0.17045(4)
C2 C 0.5951(2) 0.26088(14) 0.11554(15)
C3 C 0.5355(3) 0.21078(15) 0.13967(16)
H1 H 0.5688 0.2008 0.1864
C4 C 0.4278(3) 0.17504(16) 0.09619(16)
H2 H 0.3889 0.1401 0.1128
C5 C 0.3771(3) 0.19039(16) 0.02863(16)
H3 H 0.3030 0.1664 -0.0009
C6 C 0.4348(3) 0.24092(15) 0.00429(15)
H4 H 0.3999 0.2517 -0.0419
C7 C 0.5440(2) 0.27593(15) 0.04740(15)
H5 H 0.5836 0.3102 0.0303
C8 C 0.8424(2) 0.24112(14) 0.18630(14)
C9 C 0.8219(2) 0.18350(15) 0.21681(15)
H6 H 0.7529 0.1816 0.2356
C10 C 0.9008(3) 0.12922(15) 0.21995(16)
H7 H 0.8849 0.0900 0.2402
C11 C 1.0034(3) 0.13159(16) 0.19362(16)
H8 H 1.0567 0.0938 0.1951
C12 C 1.0271(3) 0.18935(16) 0.16526(16)
H9 H 1.0980 0.1917 0.1482
C13 C 0.9476(2) 0.24406(16) 0.16151(15)
H10 H 0.9648 0.2836 0.1421
N1 N 0.7835(2) 0.36739(12) 0.13670(12)
Si1 Si 0.82785(7) 0.38550(4) 0.06557(4)
C14 C 0.7180(3) 0.44480(18) 0.01976(19)
H11 H 0.7126 0.4873 0.0545
H12 H 0.6372 0.4200 0.0003
H13 H 0.7464 0.4582 -0.0196
C15 C 0.9812(3) 0.43304(18) 0.09549(19)
H14 H 0.9792 0.4762 0.1303
H15 H 1.0033 0.4454 0.0537
H16 H 1.0419 0.4026 0.1182
C16 C 0.8357(3) 0.30548(17) -0.00346(17)
H17 H 0.9050 0.2784 0.0161
H18 H 0.8465 0.3204 -0.0469
H19 H 0.7598 0.2759 -0.0156
P2 P 0.81751(6) 0.34522(4) 0.34105(4)
C17 C 0.8148(2) 0.43208(16) 0.39617(16)
C18 C 0.8034(3) 0.49390(16) 0.36801(18)
H20 H 0.7894 0.4912 0.3176
C19 C 0.8123(3) 0.55957(18) 0.4131(2)
H21 H 0.8052 0.6015 0.3936
C20 C 0.8316(3) 0.5633(2) 0.4863(2)
H22 H 0.8382 0.6080 0.5173
C21 C 0.8415(3) 0.5026(2) 0.5147(2)
H23 H 0.8539 0.5056 0.5651
C22 C 0.8333(3) 0.4368(2) 0.46980(17)
H24 H 0.8403 0.3950 0.4897
C23 C 0.9653(2) 0.35086(15) 0.32125(14)
C24 C 1.0467(3) 0.29939(15) 0.34119(15)
H25 H 1.0219 0.2621 0.3612
C25 C 1.1639(3) 0.30277(17) 0.33177(16)
H26 H 1.2193 0.2681 0.3458
C26 C 1.1998(3) 0.35636(17) 0.30210(16)
H27 H 1.2800 0.3585 0.2959
C27 C 1.1193(3) 0.40708(17) 0.28134(16)
H28 H 1.1442 0.4437 0.2605
C28 C 1.0021(3) 0.40446(16) 0.29094(15)
H29 H 0.9471 0.4393 0.2768
N2 N 0.8006(2) 0.28112(14) 0.37485(13)
Si2 Si 0.83235(8) 0.23220(5) 0.43972(5)
C29 C 0.8302(4) 0.13713(19) 0.3971(2)
H30 H 0.7517 0.1234 0.3614
H31 H 0.8412 0.1080 0.4342
H32 H 0.8966 0.1302 0.3733
C30 C 0.7153(3) 0.2407(2) 0.49216(19)
H33 H 0.7126 0.2903 0.5140
H34 H 0.7369 0.2125 0.5301
H35 H 0.6350 0.2236 0.4599
C31 C 0.9860(3) 0.2568(2) 0.50489(19)
H36 H 0.9947 0.3081 0.5218
H37 H 1.0501 0.2420 0.4809
H38 H 0.9935 0.2332 0.5461
C32 C 0.5913(2) 0.37242(15) 0.25624(15)
C33 C 0.5441(2) 0.39275(16) 0.32177(15)
C34 C 0.5410(3) 0.34509(18) 0.36687(16)
H39 H 0.5746 0.3003 0.3587
C35 C 0.4882(3) 0.3634(2) 0.42440(17)
H40 H 0.4851 0.3308 0.4550
C36 C 0.4409(3) 0.4284(2) 0.43687(18)
H41 H 0.4065 0.4408 0.4766
C37 C 0.4430(3) 0.47595(19) 0.39192(19)
H42 H 0.4100 0.5208 0.4008
C38 C 0.4933(3) 0.45813(17) 0.33393(18)
H43 H 0.4932 0.4904 0.3025
C39 C 0.5006(2) 0.38498(15) 0.19022(15)
C40 C 0.3838(3) 0.34987(16) 0.17002(16)
H44 H 0.3640 0.3185 0.1983
C41 C 0.2981(3) 0.36102(17) 0.10915(17)
H45 H 0.2206 0.3359 0.0946
C42 C 0.3248(3) 0.40850(17) 0.06939(18)
H46 H 0.2653 0.4164 0.0278
C43 C 0.4383(3) 0.44477(17) 0.09002(18)
H47 H 0.4559 0.4781 0.0631
C44 C 0.5261(3) 0.43251(16) 0.14980(17)
H48 H 0.6042 0.4568 0.1632
C45 C 1.3277(2) 0.86360(14) 0.22726(14)
P3 P 1.23599(6) 0.94002(4) 0.21231(4)
C46 C 1.0781(2) 0.90738(15) 0.19547(15)
C47 C 1.0015(3) 0.95059(16) 0.22700(17)
H49 H 1.0337 0.9925 0.2608
C48 C 0.8760(3) 0.93145(18) 0.20828(19)
H50 H 0.8227 0.9607 0.2294
C49 C 0.8299(3) 0.87063(19) 0.15951(19)
H51 H 0.7446 0.8587 0.1464
C50 C 0.9060(3) 0.82663(18) 0.12918(18)
H52 H 0.8736 0.7841 0.0964
C51 C 1.0308(3) 0.84507(16) 0.14707(16)
H53 H 1.0836 0.8152 0.1263
C52 C 1.2294(2) 0.95398(15) 0.12165(14)
C53 C 1.2165(3) 0.89911(16) 0.06212(16)
H54 H 1.2251 0.8518 0.0693
C54 C 1.1913(3) 0.91285(17) -0.00695(16)
H55 H 1.1849 0.8751 -0.0466
C55 C 1.1755(3) 0.98140(17) -0.01860(17)
H56 H 1.1559 0.9907 -0.0662
C56 C 1.1883(3) 1.03611(17) 0.03952(17)
H57 H 1.1773 1.0832 0.0318
C57 C 1.2172(2) 1.02269(16) 0.10939(16)
H58 H 1.2288 1.0609 0.1491
N3 N 1.2695(2) 1.00686(13) 0.27041(13)
Si3 Si 1.32210(7) 1.07975(4) 0.33250(4)
C58 C 1.4556(3) 1.06429(18) 0.40688(17)
H59 H 1.4309 1.0292 0.4318
H60 H 1.4830 1.1087 0.4411
H61 H 1.5226 1.0469 0.3865
C59 C 1.3734(3) 1.15126(16) 0.29129(18)
H62 H 1.3030 1.1659 0.2572
H63 H 1.4342 1.1334 0.2659
H64 H 1.4097 1.1918 0.3293
C60 C 1.2002(3) 1.11508(16) 0.37559(16)
H65 H 1.1324 1.1288 0.3391
H66 H 1.2338 1.1564 0.4132
H67 H 1.1706 1.0785 0.3970
P4 P 1.28217(6) 0.79937(4) 0.27712(4)
C61 C 1.4259(3) 0.78570(16) 0.34044(15)
C62 C 1.4489(3) 0.71714(17) 0.35063(17)
H68 H 1.3908 0.6796 0.3249
C63 C 1.5566(3) 0.70293(19) 0.39829(19)
H69 H 1.5715 0.6560 0.4053
C64 C 1.6415(3) 0.7578(2) 0.43535(18)
H70 H 1.7150 0.7484 0.4678
C65 C 1.6197(3) 0.8258(2) 0.42523(18)
H71 H 1.6783 0.8632 0.4509
C66 C 1.5130(3) 0.84023(18) 0.37784(16)
H72 H 1.4990 0.8873 0.3708
C67 C 1.1942(3) 0.84823(15) 0.33439(15)
C68 C 1.2432(3) 0.90485(16) 0.39028(17)
H73 H 1.3265 0.9203 0.3998
C69 C 1.1713(3) 0.93882(18) 0.43214(18)
H74 H 1.2054 0.9771 0.4704
C70 C 1.0492(3) 0.91664(18) 0.41784(19)
H75 H 0.9994 0.9405 0.4458
C71 C 1.0002(3) 0.86060(18) 0.36372(18)
H76 H 0.9169 0.8453 0.3547
C72 C 1.0719(3) 0.82591(16) 0.32179(16)
H77 H 1.0374 0.7869 0.2844
N4 N 1.2124(2) 0.73192(13) 0.22947(13)
Si4 Si 1.14237(8) 0.65202(4) 0.22182(5)
C73 C 1.1192(4) 0.6339(2) 0.3088(2)
H78 H 1.1985 0.6363 0.3443
H79 H 1.0794 0.5867 0.3006
H80 H 1.0675 0.6693 0.3270
C74 C 0.9873(3) 0.64563(19) 0.1566(2)
H81 H 0.9962 0.6493 0.1088
H82 H 0.9392 0.6841 0.1730
H83 H 0.9455 0.6001 0.1539
C75 C 1.2341(3) 0.58029(17) 0.1877(2)
H84 H 1.2444 0.5868 0.1410
H85 H 1.1916 0.5343 0.1822
H86 H 1.3145 0.5821 0.2221
C76 C 1.4320(2) 0.85588(15) 0.20458(15)
C77 C 1.5023(3) 0.79092(15) 0.20304(15)
C78 C 1.4467(3) 0.72492(15) 0.16686(16)
H87 H 1.3613 0.7206 0.1448
C79 C 1.5150(3) 0.66570(17) 0.16290(18)
H88 H 1.4765 0.6211 0.1376
C80 C 1.6395(3) 0.67153(18) 0.1959(2)
H89 H 1.6861 0.6309 0.1935
C81 C 1.6957(3) 0.73639(17) 0.2323(2)
H90 H 1.7807 0.7401 0.2555
C82 C 1.6288(3) 0.79593(17) 0.23503(17)
H91 H 1.6687 0.8406 0.2587
C83 C 1.4875(2) 0.91390(15) 0.17953(15)
C84 C 1.5022(3) 0.90385(16) 0.10946(16)
H92 H 1.4769 0.8598 0.0777
C85 C 1.5535(3) 0.95780(17) 0.08636(17)
H93 H 1.5605 0.9511 0.0383
C86 C 1.5943(3) 1.02126(16) 0.13269(18)
H94 H 1.6291 1.0582 0.1165
C87 C 1.5844(3) 1.03079(16) 0.20283(18)
H95 H 1.6150 1.0738 0.2353
C88 C 1.5300(2) 0.97791(16) 0.22596(16)
H96 H 1.5217 0.9854 0.2738
loop_
_geom_bond_atom_site_label_1
_geom_bond_atom_site_label_2
_geom_bond_site_symmetry_1
_geom_bond_site_symmetry_2
C1 P1 1_555 1_555
P1 C2 1_555 1_555
C2 C3 1_555 1_555
C3 H1 1_555 1_555
C4 C3 1_555 1_555
H2 C4 1_555 1_555
C5 C4 1_555 1_555
H3 C5 1_555 1_555
C6 C5 1_555 1_555
H4 C6 1_555 1_555
C7 C2 1_555 1_555
H5 C7 1_555 1_555
C8 P1 1_555 1_555
C9 C8 1_555 1_555
H6 C9 1_555 1_555
C10 C9 1_555 1_555
H7 C10 1_555 1_555
C11 C10 1_555 1_555
H8 C11 1_555 1_555
C12 C11 1_555 1_555
H9 C12 1_555 1_555
C13 C8 1_555 1_555
H10 C13 1_555 1_555
N1 P1 1_555 1_555
Si1 N1 1_555 1_555
C14 Si1 1_555 1_555
H11 C14 1_555 1_555
H12 C14 1_555 1_555
H13 C14 1_555 1_555
C15 Si1 1_555 1_555
H14 C15 1_555 1_555
H15 C15 1_555 1_555
H16 C15 1_555 1_555
C16 Si1 1_555 1_555
H17 C16 1_555 1_555
H18 C16 1_555 1_555
H19 C16 1_555 1_555
P2 C1 1_555 1_555
C17 P2 1_555 1_555
C18 C17 1_555 1_555
H20 C18 1_555 1_555
C19 C18 1_555 1_555
H21 C19 1_555 1_555
C20 C19 1_555 1_555
H22 C20 1_555 1_555
C21 C20 1_555 1_555
H23 C21 1_555 1_555
C22 C17 1_555 1_555
H24 C22 1_555 1_555
C23 P2 1_555 1_555
C24 C23 1_555 1_555
H25 C24 1_555 1_555
C25 C24 1_555 1_555
H26 C25 1_555 1_555
C26 C25 1_555 1_555
H27 C26 1_555 1_555
C27 C26 1_555 1_555
H28 C27 1_555 1_555
C28 C23 1_555 1_555
H29 C28 1_555 1_555
N2 P2 1_555 1_555
Si2 N2 1_555 1_555
C29 Si2 1_555 1_555
H30 C29 1_555 1_555
H31 C29 1_555 1_555
H32 C29 1_555 1_555
C30 Si2 1_555 1_555
H33 C30 1_555 1_555
H34 C30 1_555 1_555
H35 C30 1_555 1_555
C31 Si2 1_555 1_555
H36 C31 1_555 1_555
H37 C31 1_555 1_555
H38 C31 1_555 1_555
C32 C1 1_555 1_555
C33 C32 1_555 1_555
C34 C33 1_555 1_555
H39 C34 1_555 1_555
C35 C34 1_555 1_555
H40 C35 1_555 1_555
C36 C35 1_555 1_555
H41 C36 1_555 1_555
C37 C36 1_555 1_555
H42 C37 1_555 1_555
C38 C33 1_555 1_555
H43 C38 1_555 1_555
C39 C32 1_555 1_555
C40 C39 1_555 1_555
H44 C40 1_555 1_555
C41 C40 1_555 1_555
H45 C41 1_555 1_555
C42 C41 1_555 1_555
H46 C42 1_555 1_555
C43 C42 1_555 1_555
H47 C43 1_555 1_555
C44 C39 1_555 1_555
H48 C44 1_555 1_555
C45 P3 1_555 1_555
P3 C46 1_555 1_555
C46 C47 1_555 1_555
C47 H49 1_555 1_555
C48 C47 1_555 1_555
H50 C48 1_555 1_555
C49 C48 1_555 1_555
H51 C49 1_555 1_555
C50 C49 1_555 1_555
H52 C50 1_555 1_555
C51 C46 1_555 1_555
H53 C51 1_555 1_555
C52 P3 1_555 1_555
C53 C52 1_555 1_555
H54 C53 1_555 1_555
C54 C53 1_555 1_555
H55 C54 1_555 1_555
C55 C54 1_555 1_555
H56 C55 1_555 1_555
C56 C55 1_555 1_555
H57 C56 1_555 1_555
C57 C52 1_555 1_555
H58 C57 1_555 1_555
N3 P3 1_555 1_555
Si3 N3 1_555 1_555
C58 Si3 1_555 1_555
H59 C58 1_555 1_555
H60 C58 1_555 1_555
H61 C58 1_555 1_555
C59 Si3 1_555 1_555
H62 C59 1_555 1_555
H63 C59 1_555 1_555
H64 C59 1_555 1_555
C60 Si3 1_555 1_555
H65 C60 1_555 1_555
H66 C60 1_555 1_555
H67 C60 1_555 1_555
P4 C45 1_555 1_555
C61 P4 1_555 1_555
C62 C61 1_555 1_555
H68 C62 1_555 1_555
C63 C62 1_555 1_555
H69 C63 1_555 1_555
C64 C63 1_555 1_555
H70 C64 1_555 1_555
C65 C64 1_555 1_555
H71 C65 1_555 1_555
C66 C61 1_555 1_555
H72 C66 1_555 1_555
C67 P4 1_555 1_555
C68 C67 1_555 1_555
H73 C68 1_555 1_555
C69 C68 1_555 1_555
H74 C69 1_555 1_555
C70 C69 1_555 1_555
H75 C70 1_555 1_555
C71 C70 1_555 1_555
H76 C71 1_555 1_555
C72 C67 1_555 1_555
H77 C72 1_555 1_555
N4 P4 1_555 1_555
Si4 N4 1_555 1_555
C73 Si4 1_555 1_555
H78 C73 1_555 1_555
H79 C73 1_555 1_555
H80 C73 1_555 1_555
C74 Si4 1_555 1_555
H81 C74 1_555 1_555
H82 C74 1_555 1_555
H83 C74 1_555 1_555
C75 Si4 1_555 1_555
H84 C75 1_555 1_555
H85 C75 1_555 1_555
H86 C75 1_555 1_555
C76 C45 1_555 1_555
C77 C76 1_555 1_555
C78 C77 1_555 1_555
H87 C78 1_555 1_555
C79 C78 1_555 1_555
H88 C79 1_555 1_555
C80 C79 1_555 1_555
H89 C80 1_555 1_555
C81 C80 1_555 1_555
H90 C81 1_555 1_555
C82 C77 1_555 1_555
H91 C82 1_555 1_555
C83 C76 1_555 1_555
C84 C83 1_555 1_555
H92 C84 1_555 1_555
C85 C84 1_555 1_555
H93 C85 1_555 1_555
C86 C85 1_555 1_555
H94 C86 1_555 1_555
C87 C86 1_555 1_555
H95 C87 1_555 1_555
C88 C83 1_555 1_555
H96 C88 1_555 1_555
C6 C7 1_555 1_555
C12 C13 1_555 1_555
C21 C22 1_555 1_555
C27 C28 1_555 1_555
C37 C38 1_555 1_555
C43 C44 1_555 1_555
C50 C51 1_555 1_555
C56 C57 1_555 1_555
C65 C66 1_555 1_555
C71 C72 1_555 1_555
C81 C82 1_555 1_555
C87 C88 1_555 1_555

#END
