
#######################################################################
#
#                 Cambridge Crystallographic Data Centre
#                                CCDC 
#
#######################################################################
#
# If this CIF has been generated from an entry in the Cambridge 
# Structural Database, then it will include bibliographic, chemical, 
# crystal, experimental, refinement or atomic coordinate data resulting 
# from the CCDC's data processing and validation procedures.
#
#######################################################################

data_DOHYIK
_chemical_formula_moiety         'C24 H28 N2 Si2'
_chemical_name_systematic        
2,4-diphenyl-5-(trimethylsilyl)-6-((trimethylsilyl)ethynyl)pyrimidine
_symmetry_cell_setting           monoclinic
_symmetry_space_group_name_H-M   'P 21/c'
_symmetry_Int_Tables_number      14
_space_group_name_Hall           '-P 2ybc'
loop_
_symmetry_equiv_pos_site_id
_symmetry_equiv_pos_as_xyz
1 x,y,z
2 -x,1/2+y,1/2-z
3 -x,-y,-z
4 x,1/2-y,1/2+z
_cell_length_a                   10.2367(2)
_cell_length_b                   20.4680(4)
_cell_length_c                   11.2708(2)
_cell_angle_alpha                90
_cell_angle_beta                 103.545(1)
_cell_angle_gamma                90
_cell_volume                     2295.83
_exptl_crystal_colour            colorless
_exptl_crystal_description       prism
_cell_formula_units_Z            4
loop_
_atom_site_label
_atom_site_type_symbol
_atom_site_fract_x
_atom_site_fract_y
_atom_site_fract_z
C1 C -0.08763(16) 0.08109(8) 0.85145(14)
C2 C 0.04642(16) 0.05874(8) 0.87215(15)
C3 C 0.15084(17) 0.08921(9) 0.96428(16)
C4 C 0.23385(18) 0.11694(9) 1.04095(17)
C5 C -0.17925(16) 0.03994(8) 0.77286(14)
C6 C -0.00875(16) -0.01722(8) 0.72129(15)
C7 C -0.29500(19) 0.19609(10) 0.82707(19)
H1 H -0.3644 0.1728 0.8573
H2 H -0.3086 0.1887 0.7391
H3 H -0.3010 0.2430 0.8427
C8 C -0.1113(2) 0.16387(10) 1.07492(17)
H4 H -0.1362 0.2067 1.1016
H5 H -0.0185 0.1537 1.1172
H6 H -0.1716 0.1305 1.0943
C9 C -0.00342(19) 0.22324(9) 0.86363(17)
H7 H -0.0284 0.2682 0.8785
H8 H -0.0052 0.2178 0.7769
H9 H 0.0872 0.2141 0.9125
C10 C -0.32723(16) 0.04536(8) 0.75948(15)
C11 C -0.41255(17) 0.05027(9) 0.64378(17)
H10 H -0.3766 0.0496 0.5734
C12 C -0.55024(18) 0.05612(11) 0.63138(19)
H11 H -0.6080 0.0609 0.5525
C13 C -0.60360(18) 0.05508(10) 0.7332(2)
H12 H -0.6979 0.0590 0.7243
C14 C -0.51988(18) 0.04832(10) 0.84797(18)
H13 H -0.5568 0.0466 0.9178
C15 C -0.38139(17) 0.04401(9) 0.86149(16)
H14 H -0.3239 0.0401 0.9406
C16 C 0.03554(16) -0.06191(8) 0.63465(15)
C17 C 0.17002(17) -0.08014(9) 0.65313(16)
H15 H 0.2333 -0.0661 0.7243
C18 C 0.21172(19) -0.11879(9) 0.56785(18)
H16 H 0.3034 -0.1313 0.5812
C19 C 0.1208(2) -0.13926(9) 0.46364(17)
H17 H 0.1500 -0.1655 0.4053
C20 C -0.0130(2) -0.12143(9) 0.44443(16)
H18 H -0.0755 -0.1354 0.3727
C21 C -0.05613(18) -0.08327(9) 0.52957(16)
H19 H -0.1482 -0.0716 0.5164
N1 N 0.08684(14) 0.00977(7) 0.80962(13)
N2 N -0.14095(13) -0.00688(7) 0.70503(13)
Si1 Si -0.12548(5) 0.16526(2) 0.90745(4)
Si2 Si 0.35702(5) 0.16640(3) 1.15120(5)
C22 C 0.2912(5) 0.25083(14) 1.1512(5)
H20 H 0.3556 0.2776 1.2092
H21 H 0.2052 0.2500 1.1751
H22 H 0.2781 0.2695 1.0692
C23 C 0.3825(5) 0.1307(2) 1.3065(2)
H23 H 0.4478 0.1572 1.3644
H24 H 0.4164 0.0860 1.3060
H25 H 0.2969 0.1302 1.3312
C24 C 0.5185(3) 0.1661(3) 1.1029(5)
H26 H 0.5850 0.1922 1.1603
H27 H 0.5047 0.1849 1.0210
H28 H 0.5510 0.1211 1.1020
C25? C 0.3347(8) 0.1503(4) 1.3073(3)
H29? H 0.3996 0.1763 1.3664
H30? H 0.3496 0.1038 1.3264
H31? H 0.2433 0.1623 1.3116
C26? C 0.3248(7) 0.25382(14) 1.1115(7)
H32? H 0.3891 0.2810 1.1688
H33? H 0.2331 0.2651 1.1163
H34? H 0.3351 0.2615 1.0283
C27? C 0.5269(3) 0.1420(3) 1.1360(6)
H35? H 0.5949 0.1674 1.1932
H36? H 0.5349 0.1504 1.0524
H37? H 0.5405 0.0954 1.1543
loop_
_geom_bond_atom_site_label_1
_geom_bond_atom_site_label_2
_geom_bond_site_symmetry_1
_geom_bond_site_symmetry_2
C1 C2 1_555 1_555
C2 C3 1_555 1_555
C3 C4 1_555 1_555
C4 Si2 1_555 1_555
C5 C1 1_555 1_555
C6 C16 1_555 1_555
C7 H1 1_555 1_555
H2 C7 1_555 1_555
H3 C7 1_555 1_555
C8 H4 1_555 1_555
H5 C8 1_555 1_555
H6 C8 1_555 1_555
C9 H7 1_555 1_555
H8 C9 1_555 1_555
H9 C9 1_555 1_555
C10 C5 1_555 1_555
C11 C10 1_555 1_555
H10 C11 1_555 1_555
C12 C11 1_555 1_555
H11 C12 1_555 1_555
C13 C12 1_555 1_555
H12 C13 1_555 1_555
C14 C13 1_555 1_555
H13 C14 1_555 1_555
C15 C10 1_555 1_555
H14 C15 1_555 1_555
C16 C17 1_555 1_555
C17 H15 1_555 1_555
C18 C17 1_555 1_555
H16 C18 1_555 1_555
C19 C18 1_555 1_555
H17 C19 1_555 1_555
C20 C19 1_555 1_555
H18 C20 1_555 1_555
C21 C16 1_555 1_555
H19 C21 1_555 1_555
N1 C2 1_555 1_555
N2 C5 1_555 1_555
Si1 C1 1_555 1_555
Si2 C22 1_555 1_555
C22 H20 1_555 1_555
H21 C22 1_555 1_555
H22 C22 1_555 1_555
C23 Si2 1_555 1_555
H23 C23 1_555 1_555
H24 C23 1_555 1_555
H25 C23 1_555 1_555
C24 Si2 1_555 1_555
H26 C24 1_555 1_555
H27 C24 1_555 1_555
H28 C24 1_555 1_555
C6 N1 1_555 1_555
C6 N2 1_555 1_555
C7 Si1 1_555 1_555
C8 Si1 1_555 1_555
C9 Si1 1_555 1_555
C14 C15 1_555 1_555
C20 C21 1_555 1_555

#END
