
#######################################################################
#
#                 Cambridge Crystallographic Data Centre
#                                CCDC 
#
#######################################################################
#
# If this CIF has been generated from an entry in the Cambridge 
# Structural Database, then it will include bibliographic, chemical, 
# crystal, experimental, refinement or atomic coordinate data resulting 
# from the CCDC's data processing and validation procedures.
#
#######################################################################

data_DOKLOF
_chemical_compound_source        'soft coral Lobophytum crassum'
_chemical_formula_moiety         'C20 H28 O5,H2 O1'
_chemical_name_systematic        
'10-Hydroxy-1a-(hydroxymethyl)-5,9-dimethyl-13-methylene-2,3,6,7,10,10a,13,13a,14,14a-decahydrooxireno[4,5]cyclotetradeca[1,2-b]furan-12(1aH)-one monohydrate'
_chemical_properties_biological  
'anti-inflammatory and antibacterial activities and inhibition activity against Human cytomegalovirus endonuclease'
_symmetry_cell_setting           orthorhombic
_symmetry_space_group_name_H-M   'P 21 21 21'
_symmetry_Int_Tables_number      19
_space_group_name_Hall           'P 2ac 2ab'
loop_
_symmetry_equiv_pos_site_id
_symmetry_equiv_pos_as_xyz
1 x,y,z
2 1/2-x,-y,1/2+z
3 -x,1/2+y,1/2-z
4 1/2+x,1/2-y,-z
_cell_length_a                   9.2869(19)
_cell_length_b                   9.3375(19)
_cell_length_c                   21.969(4)
_cell_angle_alpha                90
_cell_angle_beta                 90
_cell_angle_gamma                90
_cell_volume                     1905.07
_exptl_crystal_colour            colorless
_exptl_crystal_description       prism
_cell_formula_units_Z            4
_exptl_crystal_recrystallization_method dichloromethane/methanol
loop_
_atom_site_label
_atom_site_type_symbol
_atom_site_fract_x
_atom_site_fract_y
_atom_site_fract_z
O1 O 0.31012(15) 0.56011(16) 0.09994(8)
O2 O 0.2831(2) 0.23704(16) 0.04987(8)
O3 O 1.05846(17) 0.7355(2) 0.07476(8)
O4 O 0.81652(16) 0.89412(16) 0.05177(7)
O5 O 0.67336(19) 1.08369(16) 0.03943(7)
C1 C 0.6562(2) 0.7282(2) 0.10013(9)
H1 H 0.6707 0.7297 0.1443
C2 C 0.5802(2) 0.5892(2) 0.08350(10)
H2 H 0.5458 0.5960 0.0419
H3 H 0.6492 0.5113 0.0852
C3 C 0.4549(2) 0.5538(2) 0.12449(10)
H4 H 0.4643 0.5894 0.1663
C4 C 0.3699(2) 0.4224(2) 0.11839(9)
C5 C 0.3022(2) 0.3583(3) 0.17445(10)
H5 H 0.2146 0.3087 0.1629
H6 H 0.2761 0.4348 0.2022
C6 C 0.4023(3) 0.2536(3) 0.20717(10)
H7 H 0.3493 0.2082 0.2400
H8 H 0.4305 0.1792 0.1788
C7 C 0.5365(2) 0.3213(3) 0.23321(9)
H9 H 0.5221 0.4035 0.2563
C8 C 0.6720(2) 0.2791(2) 0.22745(9)
C9 C 0.7920(2) 0.3499(3) 0.26330(9)
H10 H 0.8213 0.2852 0.2955
H11 H 0.7536 0.4353 0.2825
C10 C 0.9268(2) 0.3924(3) 0.22680(10)
H12 H 1.0078 0.3981 0.2546
H13 H 0.9475 0.3170 0.1977
C11 C 0.9157(2) 0.5321(2) 0.19289(9)
H14 H 0.8979 0.6128 0.2165
C12 C 0.9283(2) 0.5546(2) 0.13341(9)
C13 C 0.9311(2) 0.7074(2) 0.10972(10)
H15 H 0.9300 0.7725 0.1447
C14 C 0.8042(2) 0.7435(2) 0.06921(9)
H16 H 0.8071 0.6834 0.0326
C15 C 0.5803(2) 0.8639(2) 0.08215(9)
C16 C 0.6885(2) 0.9606(2) 0.05547(9)
C17 C 0.4430(3) 0.8997(3) 0.08614(11)
H17 H 0.4121 0.9882 0.0719
H18 H 0.3772 0.8362 0.1032
C18 C 0.4040(2) 0.3226(2) 0.06690(10)
H19 H 0.4354 0.3780 0.0320
H20 H 0.4827 0.2603 0.0788
C19 C 0.7176(3) 0.1523(3) 0.18983(13)
H21 H 0.6339 0.1003 0.1769
H22 H 0.7780 0.0908 0.2138
H23 H 0.7700 0.1849 0.1548
C20 C 0.9484(3) 0.4376(2) 0.08681(10)
H24 H 0.9224 0.3471 0.1044
H25 H 1.0474 0.4349 0.0742
H26 H 0.8883 0.4565 0.0522
H27 H 0.235(3) 0.282(3) 0.0244(13)
H28 H 1.130(3) 0.680(3) 0.0873(13)
O6 O 0.0813(4) 0.0647(3) 0.11836(13)
H29 H 0.156(4) 0.107(5) 0.0876(18)
H30 H 0.054(6) -0.021(4) 0.092(2)
loop_
_geom_bond_atom_site_label_1
_geom_bond_atom_site_label_2
_geom_bond_site_symmetry_1
_geom_bond_site_symmetry_2
O1 C3 1_555 1_555
O2 C18 1_555 1_555
O3 C13 1_555 1_555
O4 C14 1_555 1_555
O5 C16 1_555 1_555
C1 H1 1_555 1_555
C2 C1 1_555 1_555
H2 C2 1_555 1_555
H3 C2 1_555 1_555
C3 C2 1_555 1_555
H4 C3 1_555 1_555
C4 O1 1_555 1_555
C5 C4 1_555 1_555
H5 C5 1_555 1_555
H6 C5 1_555 1_555
C6 C5 1_555 1_555
H7 C6 1_555 1_555
H8 C6 1_555 1_555
C7 C6 1_555 1_555
H9 C7 1_555 1_555
C8 C7 1_555 1_555
C9 C8 1_555 1_555
H10 C9 1_555 1_555
H11 C9 1_555 1_555
C10 C9 1_555 1_555
H12 C10 1_555 1_555
H13 C10 1_555 1_555
C11 C10 1_555 1_555
H14 C11 1_555 1_555
C12 C11 1_555 1_555
C13 C12 1_555 1_555
H15 C13 1_555 1_555
C14 C1 1_555 1_555
H16 C14 1_555 1_555
C15 C1 1_555 1_555
C16 O4 1_555 1_555
C17 C15 1_555 1_555
H17 C17 1_555 1_555
H18 C17 1_555 1_555
C18 C4 1_555 1_555
H19 C18 1_555 1_555
H20 C18 1_555 1_555
C19 C8 1_555 1_555
H21 C19 1_555 1_555
H22 C19 1_555 1_555
H23 C19 1_555 1_555
C20 C12 1_555 1_555
H24 C20 1_555 1_555
H25 C20 1_555 1_555
H26 C20 1_555 1_555
H27 O2 1_555 1_555
H28 O3 1_555 1_555
O6 H29 1_555 1_555
H30 O6 1_555 1_555
C3 C4 1_555 1_555
C13 C14 1_555 1_555
C15 C16 1_555 1_555

#END
