
#######################################################################
#
#                 Cambridge Crystallographic Data Centre
#                                CCDC 
#
#######################################################################
#
# If this CIF has been generated from an entry in the Cambridge 
# Structural Database, then it will include bibliographic, chemical, 
# crystal, experimental, refinement or atomic coordinate data resulting 
# from the CCDC's data processing and validation procedures.
#
#######################################################################

data_DOKMOH
_chemical_formula_moiety         'C5 H6 N3 O2 1+,I1 1-'
_chemical_name_systematic        '2-Amino-3-nitropyridinium iodide'
_symmetry_cell_setting           orthorhombic
_symmetry_space_group_name_H-M   'P 21 21 21'
_symmetry_Int_Tables_number      19
_space_group_name_Hall           'P 2ac 2ab'
loop_
_symmetry_equiv_pos_site_id
_symmetry_equiv_pos_as_xyz
1 x,y,z
2 1/2-x,-y,1/2+z
3 1/2+x,1/2-y,-z
4 -x,1/2+y,1/2-z
_cell_length_a                   6.702(3)
_cell_length_b                   9.243(4)
_cell_length_c                   13.476(5)
_cell_angle_alpha                90
_cell_angle_beta                 90
_cell_angle_gamma                90
_cell_volume                     834.792
_cell_formula_units_Z            4
_exptl_crystal_recrystallization_method ethanol
_exptl_crystal_preparation       'Nonliear optical'
loop_
_atom_site_label
_atom_site_type_symbol
_atom_site_fract_x
_atom_site_fract_y
_atom_site_fract_z
I1 I 0.76497(5) 0.56949(4) 0.08176(3)
C1 C 0.2465(8) 0.6874(5) 0.2455(4)
N1 N 0.2380(9) 0.7328(6) 0.1515(4)
H1 H 0.1337 0.7115 0.1146
H2 H 0.3366 0.7839 0.1264
O1 O 0.7213(7) 0.7920(6) 0.3418(4)
N2 N 0.0894(8) 0.6089(6) 0.2798(4)
H3 H -0.0096 0.5922 0.2384
C2 C 0.2229(10) 0.5772(7) 0.4402(5)
H4 H 0.2125 0.5405 0.5059
O2 O 0.5595(8) 0.8779(5) 0.2151(4)
C3 C 0.4015(9) 0.7098(7) 0.3150(5)
C4 C 0.3909(9) 0.6560(7) 0.4096(6)
H5 H 0.4977 0.6721 0.4547
N3 N 0.5717(8) 0.7984(6) 0.2884(4)
C5 C 0.0737(9) 0.5551(7) 0.3716(5)
H6 H -0.0414 0.5012 0.3897
loop_
_geom_bond_atom_site_label_1
_geom_bond_atom_site_label_2
_geom_bond_site_symmetry_1
_geom_bond_site_symmetry_2
C1 N1 1_555 1_555
N1 H1 1_555 1_555
H2 N1 1_555 1_555
O1 N3 1_555 1_555
N2 C1 1_555 1_555
H3 N2 1_555 1_555
C2 H4 1_555 1_555
O2 N3 1_555 1_555
C3 C1 1_555 1_555
C4 C2 1_555 1_555
H5 C4 1_555 1_555
N3 C3 1_555 1_555
C5 N2 1_555 1_555
H6 C5 1_555 1_555
C2 C5 1_555 1_555
C3 C4 1_555 1_555

#END
