
#######################################################################
#
#                 Cambridge Crystallographic Data Centre
#                                CCDC 
#
#######################################################################
#
# If this CIF has been generated from an entry in the Cambridge 
# Structural Database, then it will include bibliographic, chemical, 
# crystal, experimental, refinement or atomic coordinate data resulting 
# from the CCDC's data processing and validation procedures.
#
#######################################################################

data_DOKMOG
_chemical_formula_moiety         'C13 H15 N2 O4 1+,C6 H2 N3 O7 1-'
_chemical_name_systematic        
'cis-3-(Methoxycarbonyl)-5-methyl-2-(4-nitrophenyl)-2,5-dihydro-1H-pyrrolium 2,4,6-trinitrophenolate'
_symmetry_cell_setting           triclinic
_symmetry_space_group_name_H-M   'P -1'
_symmetry_Int_Tables_number      2
_space_group_name_Hall           '-P 1'
loop_
_symmetry_equiv_pos_site_id
_symmetry_equiv_pos_as_xyz
1 x,y,z
2 -x,-y,-z
_cell_length_a                   8.250(2)
_cell_length_b                   10.100(3)
_cell_length_c                   13.805(4)
_cell_angle_alpha                87.412(5)
_cell_angle_beta                 80.926(5)
_cell_angle_gamma                74.698(4)
_cell_volume                     1095.63
_chemical_melting_point          '166-168 deg.C'
_cell_formula_units_Z            2
loop_
_atom_site_label
_atom_site_type_symbol
_atom_site_fract_x
_atom_site_fract_y
_atom_site_fract_z
O1 O 1.1529(2) 0.4215(2) 0.75732(14)
O2 O 0.9324(2) 0.55751(19) 0.83118(12)
O3 O 0.5982(2) 0.84513(15) 0.60400(13)
O4 O 0.5095(2) 0.74257(17) 0.49831(13)
O5 O 0.8538(2) 0.29490(14) 0.39042(10)
O6 O 0.9360(2) 0.15212(13) 0.50196(11)
O7 O 1.06982(16) 0.25839(12) 0.63633(11)
N1 N 1.0080(2) 0.48852(16) 0.76148(13)
N2 N 0.6020(2) 0.74311(17) 0.55851(13)
N3 N 0.8861(2) 0.26971(15) 0.47375(11)
C1 C 0.9613(2) 0.36547(17) 0.61910(13)
C2 C 0.9216(2) 0.48934(17) 0.67670(13)
C3 C 0.8052(2) 0.60784(18) 0.65909(13)
H1 H 0.7820 0.6827 0.7006
C4 C 0.7219(2) 0.61550(17) 0.57875(13)
C5 C 0.7501(2) 0.50360(18) 0.51915(13)
H2 H 0.6931 0.5096 0.4655
C6 C 0.8629(2) 0.38320(16) 0.53958(13)
O8 O 0.5919(2) 0.40409(16) 0.25419(13)
O9 O 0.5657(3) 0.42065(18) 0.10286(14)
N4 N 0.5383(2) 0.46748(17) 0.18456(14)
N5 N -0.06175(18) 1.00117(13) 0.31620(10)
C7 C 0.4330(2) 0.60953(17) 0.20007(14)
C8 C 0.4492(2) 0.6798(2) 0.27875(14)
H3 H 0.5277 0.6401 0.3201
C9 C 0.3461(2) 0.81161(19) 0.29539(14)
H4 H 0.3576 0.8620 0.3475
C10 C 0.2266(2) 0.86905(17) 0.23562(13)
C11 C 0.2144(2) 0.79521(18) 0.15591(14)
H5 H 0.1354 0.8339 0.1147
C12 C 0.3191(2) 0.66433(19) 0.13734(14)
H6 H 0.3123 0.6148 0.0836
C13 C 0.1086(2) 1.01002(17) 0.25961(13)
H7 H 0.1620 1.0598 0.2990
C14 C 0.0568(3) 1.09583(18) 0.17404(14)
C15 C -0.1061(3) 1.1259(2) 0.17277(16)
H8 H -0.1580 1.1795 0.1240
C16 C -0.2017(2) 1.06672(19) 0.25627(15)
H9 H -0.2853 1.1411 0.2941
C17 C -0.2889(3) 0.9635(2) 0.2293(2)
H10 H -0.3765 1.0077 0.1915
H11 H -0.3385 0.9253 0.2879
H12 H -0.2075 0.8914 0.1913
O10 O 0.3395(3) 1.1339(3) 0.14080(17)
O11 O 0.1590(3) 1.2047(2) 0.03166(14)
C18 C 0.2081(3) 1.1451(3) 0.11383(18)
C19 C 0.2808(5) 1.2667(4) -0.0265(3)
H13 H 0.2345 1.3108 -0.0829
H14 H 0.3834 1.1972 -0.0476
H15 H 0.3056 1.3336 0.0121
H19 H -0.078(2) 1.0485(8) 0.3732(6)
H20 H -0.062(2) 0.9120(7) 0.3303(10)
O12? O 0.0767(7) 1.1749(6) 0.0047(3)
O13? O 0.3009(6) 1.1284(6) 0.0947(4)
C20? C 0.1411(7) 1.1383(7) 0.0768(4)
C21? C 0.3900(11) 1.1900(10) 0.0168(6)
H16? H 0.4922 1.2015 0.0362
H17? H 0.3195 1.2779 0.0014
H18? H 0.4187 1.1321 -0.0400
loop_
_geom_bond_atom_site_label_1
_geom_bond_atom_site_label_2
_geom_bond_site_symmetry_1
_geom_bond_site_symmetry_2
O1 N1 1_555 1_555
O2 N1 1_555 1_555
O3 N2 1_555 1_555
O4 N2 1_555 1_555
O5 N3 1_555 1_555
O6 N3 1_555 1_555
O7 C1 1_555 1_555
O8 N4 1_555 1_555
O9 N4 1_555 1_555
N1 C2 1_555 1_555
N2 C4 1_555 1_555
N3 C6 1_555 1_555
N4 C7 1_555 1_555
N5 C13 1_555 1_555
C1 C2 1_555 1_555
C2 C3 1_555 1_555
C3 H1 1_555 1_555
C4 C3 1_555 1_555
C5 C4 1_555 1_555
H2 C5 1_555 1_555
C6 C1 1_555 1_555
C7 C8 1_555 1_555
C8 H3 1_555 1_555
C9 C8 1_555 1_555
H4 C9 1_555 1_555
C10 C9 1_555 1_555
C11 C10 1_555 1_555
H5 C11 1_555 1_555
C12 C7 1_555 1_555
H6 C12 1_555 1_555
C13 C10 1_555 1_555
H7 C13 1_555 1_555
C14 C13 1_555 1_555
C15 C14 1_555 1_555
H8 C15 1_555 1_555
C16 N5 1_555 1_555
H9 C16 1_555 1_555
C17 C16 1_555 1_555
H10 C17 1_555 1_555
H11 C17 1_555 1_555
H12 C17 1_555 1_555
O10 C18 1_555 1_555
O11 C18 1_555 1_555
C18 C14 1_555 1_555
C19 O11 1_555 1_555
H13 C19 1_555 1_555
H14 C19 1_555 1_555
H15 C19 1_555 1_555
H19 N5 1_555 1_555
H20 N5 1_555 1_555
C5 C6 1_555 1_555
C11 C12 1_555 1_555
C15 C16 1_555 1_555

#END
