
#######################################################################
#
#                 Cambridge Crystallographic Data Centre
#                                CCDC 
#
#######################################################################
#
# If this CIF has been generated from an entry in the Cambridge 
# Structural Database, then it will include bibliographic, chemical, 
# crystal, experimental, refinement or atomic coordinate data resulting 
# from the CCDC's data processing and validation procedures.
#
#######################################################################

data_DOKNAT
_chemical_formula_moiety         'C23 H25 N3 O2'
_chemical_name_systematic        
'Ethyl 2-(4-(dimethylamino)phenyl)-4-methyl-6-(4-methylphenyl)-5-pyrimidinecarboxylate'
_chemical_properties_biological  
'activities against Yarrowia lipolytica, Gram-negative Escherichia coli and Gram-positive Staphylococcus aureus'
_symmetry_cell_setting           monoclinic
_symmetry_space_group_name_H-M   'P 21/c'
_symmetry_Int_Tables_number      14
_space_group_name_Hall           '-P 2ybc'
loop_
_symmetry_equiv_pos_site_id
_symmetry_equiv_pos_as_xyz
1 x,y,z
2 -x,1/2+y,1/2-z
3 -x,-y,-z
4 x,1/2-y,1/2+z
_cell_length_a                   9.2990(7)
_cell_length_b                   17.7576(14)
_cell_length_c                   12.6159(10)
_cell_angle_alpha                90
_cell_angle_beta                 97.7180(10)
_cell_angle_gamma                90
_cell_volume                     2064.37
_exptl_crystal_colour            yellow
_exptl_crystal_description       block
_chemical_melting_point          '117-119 deg.C'
_cell_formula_units_Z            4
loop_
_atom_site_label
_atom_site_type_symbol
_atom_site_fract_x
_atom_site_fract_y
_atom_site_fract_z
O1 O 0.98755(18) 0.40222(10) 0.89397(15)
O2 O 0.76247(18) 0.44511(9) 0.84702(14)
N1 N 0.66746(19) 0.21004(10) 0.88774(13)
N2 N 0.80671(19) 0.19768(9) 0.74368(13)
N3 N 0.6065(2) -0.14428(11) 0.78118(18)
C1 C 1.0029(2) 0.25091(13) 0.61051(17)
H1 H 1.0132 0.2009 0.6319
C2 C 1.0701(3) 0.27589(15) 0.52611(18)
H2 H 1.1258 0.2424 0.4922
C3 C 1.0567(3) 0.34935(14) 0.49064(18)
C4 C 0.9683(3) 0.39633(14) 0.5409(2)
H3 H 0.9532 0.4455 0.5163
C5 C 0.9020(3) 0.37240(13) 0.62639(19)
H4 H 0.8444 0.4057 0.6591
C6 C 0.9203(2) 0.29917(12) 0.66404(16)
C7 C 0.8426(2) 0.27046(11) 0.75136(15)
C8 C 0.7245(2) 0.16927(12) 0.81329(15)
C9 C 0.6932(2) 0.08848(12) 0.80576(16)
C10 C 0.7543(2) 0.04265(13) 0.73421(18)
H5 H 0.8151 0.0643 0.6899
C11 C 0.7281(3) -0.03318(13) 0.72682(19)
H6 H 0.7724 -0.0617 0.6785
C12 C 0.6358(2) -0.06866(13) 0.79060(18)
C13 C 0.5746(3) -0.02268(14) 0.8631(2)
H7 H 0.5138 -0.0441 0.9076
C14 C 0.6024(3) 0.05295(14) 0.86973(18)
H8 H 0.5594 0.0816 0.9185
C15 C 0.7074(2) 0.28204(12) 0.89869(15)
C16 C 0.8015(2) 0.31474(12) 0.83412(15)
C17 C 0.8627(2) 0.39125(13) 0.86087(17)
C18 C 0.8088(3) 0.52053(15) 0.8824(3)
H9 H 0.8639 0.5181 0.9533
H10 H 0.8706 0.5418 0.8340
C19 C 0.6826(4) 0.5673(2) 0.8844(4)
H11 H 0.6301 0.5706 0.8137
H12 H 0.7123 0.6167 0.9091
H13 H 0.6214 0.5456 0.9318
C20 C 0.6475(3) 0.32554(14) 0.98500(18)
H14 H 0.5791 0.2948 1.0160
H15 H 0.5997 0.3701 0.9549
H16 H 0.7253 0.3395 1.0393
C21 C 0.5305(3) -0.18235(14) 0.8586(2)
H17 H 0.5886 -0.1810 0.9275
H18 H 0.5130 -0.2338 0.8371
H19 H 0.4397 -0.1576 0.8625
C22 C 0.6785(3) -0.19087(14) 0.7112(2)
H20 H 0.6634 -0.1704 0.6402
H21 H 0.6397 -0.2410 0.7105
H22 H 0.7806 -0.1923 0.7364
C23 C 1.1308(4) 0.37713(18) 0.3984(2)
H23 H 1.2175 0.4040 0.4257
H24 H 1.0666 0.4101 0.3541
H25 H 1.1555 0.3350 0.3567
loop_
_geom_bond_atom_site_label_1
_geom_bond_atom_site_label_2
_geom_bond_site_symmetry_1
_geom_bond_site_symmetry_2
O1 C17 1_555 1_555
O2 C17 1_555 1_555
N1 C8 1_555 1_555
N2 C7 1_555 1_555
N3 C12 1_555 1_555
C1 H1 1_555 1_555
C2 C1 1_555 1_555
H2 C2 1_555 1_555
C3 C2 1_555 1_555
C4 C3 1_555 1_555
H3 C4 1_555 1_555
C5 C4 1_555 1_555
H4 C5 1_555 1_555
C6 C1 1_555 1_555
C7 C6 1_555 1_555
C8 N2 1_555 1_555
C9 C8 1_555 1_555
C10 C9 1_555 1_555
H5 C10 1_555 1_555
C11 C10 1_555 1_555
H6 C11 1_555 1_555
C12 C11 1_555 1_555
C13 C12 1_555 1_555
H7 C13 1_555 1_555
C14 C9 1_555 1_555
H8 C14 1_555 1_555
C15 N1 1_555 1_555
C16 C7 1_555 1_555
C17 C16 1_555 1_555
C18 O2 1_555 1_555
H9 C18 1_555 1_555
H10 C18 1_555 1_555
C19 C18 1_555 1_555
H11 C19 1_555 1_555
H12 C19 1_555 1_555
H13 C19 1_555 1_555
C20 C15 1_555 1_555
H14 C20 1_555 1_555
H15 C20 1_555 1_555
H16 C20 1_555 1_555
C21 N3 1_555 1_555
H17 C21 1_555 1_555
H18 C21 1_555 1_555
H19 C21 1_555 1_555
C22 N3 1_555 1_555
H20 C22 1_555 1_555
H21 C22 1_555 1_555
H22 C22 1_555 1_555
C23 C3 1_555 1_555
H23 C23 1_555 1_555
H24 C23 1_555 1_555
H25 C23 1_555 1_555
C5 C6 1_555 1_555
C13 C14 1_555 1_555
C15 C16 1_555 1_555

#END
