
#######################################################################
#
#                 Cambridge Crystallographic Data Centre
#                                CCDC 
#
#######################################################################
#
# If this CIF has been generated from an entry in the Cambridge 
# Structural Database, then it will include bibliographic, chemical, 
# crystal, experimental, refinement or atomic coordinate data resulting 
# from the CCDC's data processing and validation procedures.
#
#######################################################################

data_DOLBIQ
_chemical_formula_moiety         'C21 H25 Cl2 N1 O1'
_chemical_name_systematic        
4-Chloro-2-((1R)-1-(((R)-(2-chlorophenyl)(cyclopentyl)methyl)amino)propyl)phenol
_symmetry_cell_setting           orthorhombic
_symmetry_space_group_name_H-M   'P 21 21 21'
_symmetry_Int_Tables_number      19
_space_group_name_Hall           'P 2ac 2ab'
loop_
_symmetry_equiv_pos_site_id
_symmetry_equiv_pos_as_xyz
1 x,y,z
2 1/2-x,-y,1/2+z
3 -x,1/2+y,1/2-z
4 1/2+x,1/2-y,-z
_cell_length_a                   10.9802(17)
_cell_length_b                   11.5607(18)
_cell_length_c                   15.536(2)
_cell_angle_alpha                90
_cell_angle_beta                 90
_cell_angle_gamma                90
_cell_volume                     1972.12
_exptl_crystal_colour            colorless
_exptl_crystal_description       block
_cell_formula_units_Z            4
_exptl_crystal_recrystallization_method n-hexane
loop_
_atom_site_label
_atom_site_type_symbol
_atom_site_fract_x
_atom_site_fract_y
_atom_site_fract_z
C1 C 0.4025(2) 0.9204(2) 0.46157(14)
C2 C 0.3358(3) 0.8241(2) 0.43935(15)
H1 H 0.3513 0.7853 0.3881
C3 C 0.2468(3) 0.7864(2) 0.49342(16)
H2 H 0.2013 0.7216 0.4786
C4 C 0.2227(2) 0.84331(19) 0.57058(15)
C5 C 0.29329(17) 0.93830(17) 0.59471(12)
C6 C 0.38307(18) 0.97536(19) 0.53893(13)
H3 H 0.4312 1.0384 0.5539
C7 C 0.26917(18) 1.00349(17) 0.67807(13)
H4 H 0.3437 1.0439 0.6955
C8 C 0.1659(2) 1.0917(2) 0.66944(15)
H5 H 0.0917 1.0509 0.6542
H6 H 0.1528 1.1279 0.7250
C9 C 0.1884(3) 1.1847(2) 0.60364(17)
H7 H 0.2633 1.2238 0.6167
H8 H 0.1225 1.2393 0.6048
H9 H 0.1937 1.1506 0.5475
C10 C 0.33131(17) 0.84631(17) 0.77983(12)
H10 H 0.3589 0.7969 0.7324
C11 C 0.27940(18) 0.76780(18) 0.84923(13)
H11 H 0.2531 0.8162 0.8976
C12 C 0.1718(2) 0.6922(2) 0.82169(16)
H12 H 0.0968 0.7366 0.8208
H13 H 0.1855 0.6594 0.7650
C13 C 0.1665(3) 0.5979(3) 0.8899(2)
H14 H 0.1118 0.6201 0.9360
H15 H 0.1376 0.5261 0.8649
C14 C 0.2942(2) 0.5833(2) 0.92374(19)
H16 H 0.3261 0.5080 0.9081
H17 H 0.2951 0.5901 0.9860
C15 C 0.3705(2) 0.67875(19) 0.88315(15)
H18 H 0.4197 0.6482 0.8365
H19 H 0.4240 0.7135 0.9256
C16 C 0.44189(17) 0.91271(16) 0.81295(12)
C17 C 0.55907(18) 0.89656(17) 0.78285(13)
C18 C 0.6565(2) 0.9581(2) 0.81494(16)
H20 H 0.7342 0.9451 0.7932
C19 C 0.6393(2) 1.0384(2) 0.87866(16)
H21 H 0.7048 1.0806 0.8999
C20 C 0.5237(2) 1.0559(2) 0.91091(15)
H22 H 0.5112 1.1094 0.9547
C21 C 0.4275(2) 0.99458(18) 0.87846(14)
H23 H 0.3501 1.0078 0.9007
Cl1 Cl 0.58898(6) 0.79389(6) 0.70334(4)
Cl2 Cl 0.51106(6) 0.97523(8) 0.39044(4)
N1 N 0.23430(14) 0.92140(16) 0.74620(11)
H24 H 0.1982(19) 0.9534(18) 0.7882(11)
O1 O 0.13051(17) 0.80387(17) 0.62012(11)
H25 H 0.1323 0.8364 0.6670
loop_
_geom_bond_atom_site_label_1
_geom_bond_atom_site_label_2
_geom_bond_site_symmetry_1
_geom_bond_site_symmetry_2
C1 C2 1_555 1_555
C2 H1 1_555 1_555
C3 C2 1_555 1_555
H2 C3 1_555 1_555
C4 C3 1_555 1_555
C5 C4 1_555 1_555
C6 C1 1_555 1_555
H3 C6 1_555 1_555
C7 C5 1_555 1_555
H4 C7 1_555 1_555
C8 C7 1_555 1_555
H5 C8 1_555 1_555
H6 C8 1_555 1_555
C9 C8 1_555 1_555
H7 C9 1_555 1_555
H8 C9 1_555 1_555
H9 C9 1_555 1_555
C10 H10 1_555 1_555
C11 C10 1_555 1_555
H11 C11 1_555 1_555
C12 C11 1_555 1_555
H12 C12 1_555 1_555
H13 C12 1_555 1_555
C13 C12 1_555 1_555
H14 C13 1_555 1_555
H15 C13 1_555 1_555
C14 C13 1_555 1_555
H16 C14 1_555 1_555
H17 C14 1_555 1_555
C15 C11 1_555 1_555
H18 C15 1_555 1_555
H19 C15 1_555 1_555
C16 C10 1_555 1_555
C17 C16 1_555 1_555
C18 C17 1_555 1_555
H20 C18 1_555 1_555
C19 C18 1_555 1_555
H21 C19 1_555 1_555
C20 C19 1_555 1_555
H22 C20 1_555 1_555
C21 C16 1_555 1_555
H23 C21 1_555 1_555
Cl1 C17 1_555 1_555
Cl2 C1 1_555 1_555
N1 C7 1_555 1_555
H24 N1 1_555 1_555
O1 C4 1_555 1_555
H25 O1 1_555 1_555
C5 C6 1_555 1_555
C10 N1 1_555 1_555
C14 C15 1_555 1_555
C20 C21 1_555 1_555

#END
