
#######################################################################
#
#                 Cambridge Crystallographic Data Centre
#                                CCDC 
#
#######################################################################
#
# If this CIF has been generated from an entry in the Cambridge 
# Structural Database, then it will include bibliographic, chemical, 
# crystal, experimental, refinement or atomic coordinate data resulting 
# from the CCDC's data processing and validation procedures.
#
#######################################################################

data_DOLBOX
_chemical_name_common            
"tri-cesium bis(25,27-(2,2'-[(5,10,10,15,20,20-hexamethyl-5,10,15,20,22,24-hexahydroporphyrin-5,15-diyl)bis(benzene-4,1-diyloxy)]diethanolate)-26,28-dihydroxycalix(4)arene) tris(chloride) dichloromethane ethanol solvate"
_chemical_formula_moiety         
'2(C70 H68 N4 O6),2(C2 H6 O1),3(Cs1 1+),3(Cl1 1-),C1 H1 Cl3'
_chemical_name_systematic        
'tri-cesium bis(1,37,42,42,51,51-hexamethyl-6,9,29,32-tetraoxa-56,57,58,59-tetraazatridecacyclo[35.9.9.7^11,27^.2^2,5^.2^33,36^.1^17,21^.1^38,41^.1^43,46^.1^47,50^.1^52,55^.1^63,67^.0^10,15^.0^23,28^]doheptaconta-2,4,10,12,14,17(69),18,20,23,25,27,33,35,38,40,43,45,47,49,52,54,60,63(72),64,66,70-hexacosaene-69,72-diol) tris(chloride) dichloromethane ethanol solvate'
_symmetry_cell_setting           triclinic
_symmetry_space_group_name_H-M   'P -1'
_symmetry_Int_Tables_number      2
_space_group_name_Hall           '-P 1'
loop_
_symmetry_equiv_pos_site_id
_symmetry_equiv_pos_as_xyz
1 x,y,z
2 -x,-y,-z
_cell_length_a                   11.649(3)
_cell_length_b                   18.299(5)
_cell_length_c                   18.362(5)
_cell_angle_alpha                60.833(5)
_cell_angle_beta                 80.132(6)
_cell_angle_gamma                86.221(6)
_cell_volume                     3366.56
_exptl_crystal_colour            colorless
_exptl_crystal_description       prism
_cell_formula_units_Z            1
loop_
_atom_site_label
_atom_site_type_symbol
_atom_site_fract_x
_atom_site_fract_y
_atom_site_fract_z
Cs1 Cs 0.73985(8) 0.26810(5) 0.28697(5)
Cs2 Cs 0.9910(5) -0.0073(4) 0.0645(2)
N1 N 0.8067(6) -0.0487(4) 0.2532(4)
H1 H 0.8031 0.0048 0.2386
N2 N 1.0559(6) 0.0564(4) 0.2026(4)
H2 H 0.9899 0.0832 0.2000
N3 N 0.9820(6) 0.1954(4) 0.0112(4)
H3 H 0.9363 0.1965 0.0541
N4 N 0.7356(6) 0.0853(4) 0.0638(4)
H4 H 0.7555 0.1035 0.0965
O1 O 0.7654(6) 0.1229(4) 0.4834(4)
O2 O 0.6183(5) 0.2529(4) 0.4916(4)
O3 O 0.6702(5) 0.4618(4) 0.1820(3)
O4 O 0.5904(5) 0.4306(4) 0.0487(4)
O5 O 0.7597(5) 0.4008(4) 0.3474(4)
O6 O 0.4984(5) 0.3484(4) 0.3396(3)
C1 C 0.7333(7) -0.0899(5) 0.2324(5)
C2 C 0.7673(8) -0.1728(5) 0.2687(5)
H5 H 0.7322 -0.2172 0.2670
C3 C 0.8613(8) -0.1788(6) 0.3076(5)
H6 H 0.9032 -0.2286 0.3356
C4 C 0.8859(8) -0.1030(5) 0.3001(5)
C5 C 0.9741(8) -0.0755(5) 0.3336(5)
C6 C 1.0718(8) -0.0233(6) 0.2624(6)
C7 C 1.1853(8) -0.0429(6) 0.2441(6)
H7 H 1.2211 -0.0949 0.2748
C8 C 1.2394(8) 0.0284(6) 0.1711(6)
H8 H 1.3179 0.0328 0.1443
C9 C 1.1584(7) 0.0897(5) 0.1463(5)
C10 C 1.1669(7) 0.1789(6) 0.0729(6)
C11 C 1.1029(7) 0.1858(5) 0.0039(5)
C12 C 1.1419(8) 0.1876(6) -0.0699(6)
H9 H 1.2206 0.1823 -0.0910
C13 C 1.0439(8) 0.1991(6) -0.1113(6)
H10 H 1.0466 0.2034 -0.1653
C14 C 0.9454(7) 0.2030(5) -0.0609(5)
C15 C 0.8200(8) 0.2130(5) -0.0715(5)
C16 C 0.7580(7) 0.1276(5) -0.0228(5)
C17 C 0.7155(8) 0.0785(6) -0.0505(6)
H11 H 0.7195 0.0915 -0.1077
C18 C 0.6654(9) 0.0059(6) 0.0211(7)
H12 H 0.6293 -0.0388 0.0205
C19 C 0.6771(7) 0.0100(5) 0.0930(6)
C20 C 0.6333(8) -0.0478(5) 0.1858(6)
C21 C 1.0264(8) -0.1554(5) 0.4018(6)
H13 H 0.9646 -0.1875 0.4491
H14 H 1.0869 -0.1389 0.4224
H15 H 1.0606 -0.1901 0.3768
C22 C 1.2976(8) 0.2013(7) 0.0342(6)
H16 H 1.3309 0.1602 0.0174
H17 H 1.3398 0.2007 0.0763
H18 H 1.3043 0.2573 -0.0154
C23 C 1.1201(9) 0.2407(6) 0.1046(7)
H19 H 1.1290 0.2979 0.0572
H20 H 1.1640 0.2354 0.1479
H21 H 1.0375 0.2281 0.1288
C24 C 0.8133(7) 0.2491(5) -0.1660(5)
H22 H 0.8536 0.3037 -0.1984
H23 H 0.7315 0.2557 -0.1740
H24 H 0.8506 0.2108 -0.1856
C25 C 0.5499(9) -0.1136(6) 0.1939(7)
H25 H 0.4859 -0.0856 0.1624
H26 H 0.5182 -0.1495 0.2536
H27 H 0.5921 -0.1479 0.1708
C26 C 0.5634(8) 0.0040(6) 0.2248(7)
H28 H 0.6162 0.0438 0.2244
H29 H 0.5278 -0.0339 0.2831
H30 H 0.5022 0.0347 0.1914
C27 C 0.9155(8) -0.0240(5) 0.3757(5)
C28 C 0.9782(8) 0.0352(6) 0.3804(6)
H31 H 1.0584 0.0444 0.3564
C29 C 0.9282(8) 0.0811(6) 0.4186(5)
H32 H 0.9738 0.1206 0.4214
C30 C 0.8112(9) 0.0692(6) 0.4528(6)
C31 C 0.7464(9) 0.0091(6) 0.4520(6)
H33 H 0.6665 -0.0003 0.4770
C32 C 0.7987(9) -0.0375(6) 0.4143(6)
H34 H 0.7541 -0.0794 0.4149
C33 C 0.6488(10) 0.1079(7) 0.5248(7)
H35 H 0.6384 0.0496 0.5716
H36 H 0.5957 0.1165 0.4847
C34 C 0.6215(9) 0.1687(6) 0.5590(6)
H37 H 0.5452 0.1533 0.5966
H38 H 0.6816 0.1650 0.5927
C35 C 0.5697(8) 0.3067(5) 0.5232(5)
C36 C 0.4493(7) 0.3154(6) 0.5337(5)
C37 C 0.4029(9) 0.3662(6) 0.5667(6)
H39 H 0.3208 0.3723 0.5754
C38 C 0.4729(10) 0.4079(6) 0.5872(6)
H40 H 0.4392 0.4415 0.6113
C39 C 0.5929(9) 0.4017(6) 0.5732(6)
H41 H 0.6413 0.4320 0.5863
C40 C 0.6426(8) 0.3508(6) 0.5399(6)
C41 C 0.7748(8) 0.3515(6) 0.5174(7)
H42 H 0.8101 0.3387 0.5675
H43 H 0.7973 0.3071 0.5019
C42 C 0.8222(7) 0.4345(6) 0.4452(6)
C43 C 0.8107(7) 0.4578(6) 0.3618(6)
C44 C 0.8481(8) 0.5354(7) 0.2954(6)
C45 C 0.9021(7) 0.5912(6) 0.3124(6)
H44 H 0.9298 0.6444 0.2673
C46 C 0.9147(8) 0.5689(6) 0.3935(6)
H45 H 0.9509 0.6067 0.4045
C47 C 0.8748(8) 0.4917(6) 0.4588(6)
H46 H 0.8834 0.4772 0.5148
C48 C 0.8262(8) 0.5620(8) 0.2062(6)
H47 H 0.8750 0.6120 0.1650
H48 H 0.8486 0.5164 0.1926
C49 C 0.7000(7) 0.5815(6) 0.1991(5)
C50 C 0.6243(8) 0.5306(5) 0.1896(5)
C51 C 0.5040(8) 0.5430(5) 0.1938(5)
C52 C 0.4609(8) 0.6118(6) 0.2011(5)
H49 H 0.3796 0.6219 0.2034
C53 C 0.5332(9) 0.6661(6) 0.2053(6)
H50 H 0.5022 0.7144 0.2076
C54 C 0.6495(8) 0.6501(6) 0.2060(6)
H51 H 0.6976 0.6866 0.2114
C55 C 0.4198(8) 0.4820(6) 0.1949(5)
H52 H 0.3719 0.5125 0.1496
H53 H 0.4642 0.4393 0.1842
C56 C 0.3413(7) 0.4397(6) 0.2798(6)
C57 C 0.3849(8) 0.3752(6) 0.3504(6)
C58 C 0.3190(7) 0.3373(6) 0.4300(6)
C59 C 0.2056(8) 0.3653(6) 0.4375(6)
H54 H 0.1575 0.3399 0.4913
C60 C 0.1611(8) 0.4278(7) 0.3702(7)
H55 H 0.0837 0.4459 0.3775
C61 C 0.2303(8) 0.4646(6) 0.2914(6)
H56 H 0.1995 0.5081 0.2445
C62 C 0.3704(9) 0.2734(6) 0.5060(6)
H57 H 0.4159 0.2330 0.4920
H58 H 0.3067 0.2420 0.5531
C63 C 0.7298(7) 0.4866(6) 0.0970(5)
H59 H 0.7828 0.4414 0.0986
H60 H 0.7782 0.5373 0.0770
C64 C 0.6492(8) 0.5042(5) 0.0354(5)
H61 H 0.5900 0.5441 0.0391
H62 H 0.6943 0.5316 -0.0225
C65 C 0.6520(7) 0.3820(5) 0.0163(5)
C66 C 0.5883(7) 0.3162(5) 0.0238(5)
H63 H 0.5084 0.3078 0.0484
C67 C 0.6414(7) 0.2635(5) -0.0045(5)
H64 H 0.5973 0.2184 0.0016
C68 C 0.7572(7) 0.2740(5) -0.0417(5)
C69 C 0.8176(8) 0.3417(5) -0.0505(5)
H65 H 0.8967 0.3512 -0.0772
C70 C 0.7671(7) 0.3960(5) -0.0221(5)
H66 H 0.8107 0.4416 -0.0288
Cl1 Cl 0.8027(2) 0.15331(14) 0.18852(15)
O7 O 0.9567(9) 0.3731(7) 0.1838(8)
C71 C 1.0541(13) 0.3774(10) 0.2181(12)
H67 H 1.0487 0.4269 0.2268
H68 H 1.1266 0.3831 0.1785
C72 C 1.0572(16) 0.2978(9) 0.3023(11)
H69 H 1.1234 0.2998 0.3261
H70 H 0.9871 0.2931 0.3405
H71 H 1.0627 0.2503 0.2931
Cl2 Cl 0.4911(10) 0.1185(8) 0.3660(8)
Cl3 Cl 0.2839(14) 0.1273(12) 0.3045(15)
Cl4 Cl 0.4512(18) 0.2564(11) 0.2144(11)
C73 C 0.3894(14) 0.1814(10) 0.3103(10)
H72 H 0.3515 0.2106 0.3419
Cl5 Cl 1.0000 0.5000 0.0000
Cs3? Cs 1.0011(12) -0.0048(7) 0.0333(6)
Cl6? Cl 0.5344(13) 0.1330(10) 0.3274(10)
Cl7? Cl 0.3185(16) 0.1107(14) 0.2913(18)
Cl8? Cl 0.410(2) 0.2719(10) 0.2258(14)
C74? C 0.4388(17) 0.1706(10) 0.2603(16)
H73? H 0.4795 0.1682 0.2090
loop_
_geom_bond_atom_site_label_1
_geom_bond_atom_site_label_2
_geom_bond_site_symmetry_1
_geom_bond_site_symmetry_2
N1 H1 1_555 1_555
N2 H2 1_555 1_555
N3 H3 1_555 1_555
N4 H4 1_555 1_555
O1 C30 1_555 1_555
O2 C34 1_555 1_555
O3 C50 1_555 1_555
O4 C64 1_555 1_555
O5 C43 1_555 1_555
O6 C57 1_555 1_555
C1 N1 1_555 1_555
C2 C1 1_555 1_555
H5 C2 1_555 1_555
C3 C2 1_555 1_555
H6 C3 1_555 1_555
C4 N1 1_555 1_555
C5 C4 1_555 1_555
C6 N2 1_555 1_555
C7 C6 1_555 1_555
H7 C7 1_555 1_555
C8 C7 1_555 1_555
H8 C8 1_555 1_555
C9 N2 1_555 1_555
C10 C9 1_555 1_555
C11 N3 1_555 1_555
C12 C11 1_555 1_555
H9 C12 1_555 1_555
C13 C12 1_555 1_555
H10 C13 1_555 1_555
C14 N3 1_555 1_555
C15 C14 1_555 1_555
C16 N4 1_555 1_555
C17 C16 1_555 1_555
H11 C17 1_555 1_555
C18 C17 1_555 1_555
H12 C18 1_555 1_555
C19 N4 1_555 1_555
C20 C1 1_555 1_555
C21 C5 1_555 1_555
H13 C21 1_555 1_555
H14 C21 1_555 1_555
H15 C21 1_555 1_555
C22 C10 1_555 1_555
H16 C22 1_555 1_555
H17 C22 1_555 1_555
H18 C22 1_555 1_555
C23 C10 1_555 1_555
H19 C23 1_555 1_555
H20 C23 1_555 1_555
H21 C23 1_555 1_555
C24 C15 1_555 1_555
H22 C24 1_555 1_555
H23 C24 1_555 1_555
H24 C24 1_555 1_555
C25 C20 1_555 1_555
H25 C25 1_555 1_555
H26 C25 1_555 1_555
H27 C25 1_555 1_555
C26 C20 1_555 1_555
H28 C26 1_555 1_555
H29 C26 1_555 1_555
H30 C26 1_555 1_555
C27 C5 1_555 1_555
C28 C27 1_555 1_555
H31 C28 1_555 1_555
C29 C28 1_555 1_555
H32 C29 1_555 1_555
C30 C29 1_555 1_555
C31 C30 1_555 1_555
H33 C31 1_555 1_555
C32 C27 1_555 1_555
H34 C32 1_555 1_555
C33 O1 1_555 1_555
H35 C33 1_555 1_555
H36 C33 1_555 1_555
C34 C33 1_555 1_555
H37 C34 1_555 1_555
H38 C34 1_555 1_555
C35 O2 1_555 1_555
C36 C35 1_555 1_555
C37 C36 1_555 1_555
H39 C37 1_555 1_555
C38 C37 1_555 1_555
H40 C38 1_555 1_555
C39 C38 1_555 1_555
H41 C39 1_555 1_555
C40 C35 1_555 1_555
C41 C40 1_555 1_555
H42 C41 1_555 1_555
H43 C41 1_555 1_555
C42 C41 1_555 1_555
C43 C42 1_555 1_555
C44 C43 1_555 1_555
C45 C44 1_555 1_555
H44 C45 1_555 1_555
C46 C45 1_555 1_555
H45 C46 1_555 1_555
C47 C42 1_555 1_555
H46 C47 1_555 1_555
C48 C44 1_555 1_555
H47 C48 1_555 1_555
H48 C48 1_555 1_555
C49 C48 1_555 1_555
C50 C49 1_555 1_555
C51 C50 1_555 1_555
C52 C51 1_555 1_555
H49 C52 1_555 1_555
C53 C52 1_555 1_555
H50 C53 1_555 1_555
C54 C49 1_555 1_555
H51 C54 1_555 1_555
C55 C51 1_555 1_555
H52 C55 1_555 1_555
H53 C55 1_555 1_555
C56 C55 1_555 1_555
C57 C56 1_555 1_555
C58 C57 1_555 1_555
C59 C58 1_555 1_555
H54 C59 1_555 1_555
C60 C59 1_555 1_555
H55 C60 1_555 1_555
C61 C56 1_555 1_555
H56 C61 1_555 1_555
C62 C36 1_555 1_555
H57 C62 1_555 1_555
H58 C62 1_555 1_555
C63 O3 1_555 1_555
H59 C63 1_555 1_555
H60 C63 1_555 1_555
C64 C63 1_555 1_555
H61 C64 1_555 1_555
H62 C64 1_555 1_555
C65 O4 1_555 1_555
C66 C65 1_555 1_555
H63 C66 1_555 1_555
C67 C66 1_555 1_555
H64 C67 1_555 1_555
C68 C15 1_555 1_555
C69 C68 1_555 1_555
H65 C69 1_555 1_555
C70 C65 1_555 1_555
H66 C70 1_555 1_555
O7 C71 1_555 1_555
C71 H67 1_555 1_555
H68 C71 1_555 1_555
C72 C71 1_555 1_555
H69 C72 1_555 1_555
H70 C72 1_555 1_555
H71 C72 1_555 1_555
Cl2 C73 1_555 1_555
Cl3 C73 1_555 1_555
Cl4 C73 1_555 1_555
C73 H72 1_555 1_555
C3 C4 1_555 1_555
C5 C6 1_555 1_555
C8 C9 1_555 1_555
C10 C11 1_555 1_555
C13 C14 1_555 1_555
C15 C16 1_555 1_555
C18 C19 1_555 1_555
C19 C20 1_555 1_555
C31 C32 1_555 1_555
C39 C40 1_555 1_555
C46 C47 1_555 1_555
C53 C54 1_555 1_555
C58 C62 1_555 1_555
C60 C61 1_555 1_555
C67 C68 1_555 1_555
C69 C70 1_555 1_555

#END
