
#######################################################################
#
#                 Cambridge Crystallographic Data Centre
#                                CCDC 
#
#######################################################################
#
# If this CIF has been generated from an entry in the Cambridge 
# Structural Database, then it will include bibliographic, chemical, 
# crystal, experimental, refinement or atomic coordinate data resulting 
# from the CCDC's data processing and validation procedures.
#
#######################################################################

data_DOLBIR10
_chemical_formula_moiety         'C2 H5 N1 O2'
_chemical_name_systematic        glycine
_symmetry_cell_setting           monoclinic
_symmetry_space_group_name_H-M   'P 21/n'
_symmetry_Int_Tables_number      14
_space_group_name_Hall           '-P 2yn'
loop_
_symmetry_equiv_pos_site_id
_symmetry_equiv_pos_as_xyz
1 x,y,z
2 1/2-x,1/2+y,1/2-z
3 -x,-y,-z
4 1/2+x,1/2-y,1/2+z
_cell_length_a                   5.124(6)
_cell_length_b                   12.042(14)
_cell_length_c                   5.496(7)
_cell_angle_alpha                90
_cell_angle_beta                 111.647(14)
_cell_angle_gamma                90
_cell_volume                     315.204
_exptl_crystal_colour            colorless
_exptl_crystal_description       plate
_cell_formula_units_Z            4
loop_
_atom_site_label
_atom_site_type_symbol
_atom_site_fract_x
_atom_site_fract_y
_atom_site_fract_z
O1 O 0.6943(2) 0.09429(11) 0.2645(2)
O2 O 1.1472(3) 0.14178(12) 0.3929(2)
N1 N 0.6985(3) 0.08995(12) 0.7590(3)
H1 H 0.5368 0.1185 0.6519
H2 H 0.7150 0.1007 0.9243
H3 H 0.7019 0.0175 0.7286
C1 C 0.9244(3) 0.12494(13) 0.4334(3)
C2 C 0.9347(3) 0.14509(14) 0.7128(3)
H4 H 1.1109 0.1171 0.8373
H5 H 0.9275 0.2243 0.7418
loop_
_geom_bond_atom_site_label_1
_geom_bond_atom_site_label_2
_geom_bond_site_symmetry_1
_geom_bond_site_symmetry_2
O1 C1 1_555 1_555
O2 C1 1_555 1_555
N1 H1 1_555 1_555
H2 N1 1_555 1_555
H3 N1 1_555 1_555
C1 C2 1_555 1_555
C2 N1 1_555 1_555
H4 C2 1_555 1_555
H5 C2 1_555 1_555

#END
