
#######################################################################
#
#                 Cambridge Crystallographic Data Centre
#                                CCDC 
#
#######################################################################
#
# If this CIF has been generated from an entry in the Cambridge 
# Structural Database, then it will include bibliographic, chemical, 
# crystal, experimental, refinement or atomic coordinate data resulting 
# from the CCDC's data processing and validation procedures.
#
#######################################################################

data_DOLCOY
_chemical_name_common            
"25,27-(2,2'-[(5,10,10,15,20,20-hexamethyl-5,10,15,20,22,24-hexahydroporphyrin-5,15-diyl)bis(benzene-4,1-diyloxy)]diethanolate)-26,28-dimethoxycalix(4)arene acetonitrile solvate"
_chemical_formula_moiety         'C72 H72 N4 O6,3(C2 H3 N1)'
_chemical_name_systematic        
'69,72-dimethoxy-1,37,42,42,51,51-hexamethyl-6,9,29,32-tetraoxa-56,57,58,59-tetraazatridecacyclo[35.9.9.7^11,27^.2^2,5^.2^33,36^.1^17,21^.1^38,41^.1^43,46^.1^47,50^.1^52,55^.1^63,67^.0^10,15^.0^23,28^]doheptaconta-2,4,10,12,14,17(69),18,20,23,25,27,33,35,38,40,43,45,47,49,52,54,60,63(72),64,66,70-hexacosaene acetonitrile  solvate'
_symmetry_cell_setting           monoclinic
_symmetry_space_group_name_H-M   'P 21/n'
_symmetry_Int_Tables_number      14
_space_group_name_Hall           '-P 2yn'
loop_
_symmetry_equiv_pos_site_id
_symmetry_equiv_pos_as_xyz
1 x,y,z
2 1/2-x,1/2+y,1/2-z
3 -x,-y,-z
4 1/2+x,1/2-y,1/2+z
_cell_length_a                   19.8344(3)
_cell_length_b                   17.7442(3)
_cell_length_c                   20.5845(4)
_cell_angle_alpha                90
_cell_angle_beta                 109.128(2)
_cell_angle_gamma                90
_cell_volume                     6844.64
_exptl_crystal_colour            colorless
_exptl_crystal_description       needle
_cell_formula_units_Z            4
loop_
_atom_site_label
_atom_site_type_symbol
_atom_site_fract_x
_atom_site_fract_y
_atom_site_fract_z
C1 C 0.32288(19) -0.28501(18) 0.55209(16)
C2 C 0.2626(2) -0.3036(2) 0.4987(2)
H1 H 0.2547 -0.3498 0.4741
C3 C 0.2146(2) -0.2429(2) 0.4866(2)
H2 H 0.1692 -0.2408 0.4520
C4 C 0.24442(16) -0.18802(19) 0.53289(15)
C5 C 0.21764(15) -0.11122(18) 0.54438(15)
C6 C 0.18525(15) -0.11612(18) 0.60081(15)
C7 C 0.11534(17) -0.1169(3) 0.59957(19)
H3 H 0.0745 -0.1121 0.5596
C8 C 0.11447(17) -0.1259(2) 0.6667(2)
H4 H 0.0731 -0.1286 0.6802
C9 C 0.18416(15) -0.13023(16) 0.70999(16)
C10 C 0.21449(16) -0.13421(16) 0.78703(16)
C11 C 0.25643(15) -0.20537(16) 0.81252(15)
C12 C 0.24458(17) -0.2632(2) 0.85119(19)
H5 H 0.2041 -0.2685 0.8658
C13 C 0.30281(17) -0.31380(19) 0.86587(18)
H6 H 0.3081 -0.3590 0.8918
C14 C 0.35021(14) -0.28595(15) 0.83594(14)
C15 C 0.42337(14) -0.31268(15) 0.83796(14)
C16 C 0.41811(13) -0.34883(15) 0.76957(15)
C17 C 0.41533(16) -0.42292(17) 0.75093(18)
H7 H 0.4201 -0.4649 0.7807
C18 C 0.40414(16) -0.42626(17) 0.68001(18)
H8 H 0.3999 -0.4710 0.6537
C19 C 0.40031(15) -0.35453(16) 0.65517(16)
C20 C 0.39331(19) -0.32524(19) 0.58465(17)
C21 C 0.15875(17) -0.0864(2) 0.47767(17)
H9 H 0.1375 -0.0390 0.4859
H10 H 0.1218 -0.1254 0.4637
H11 H 0.1797 -0.0790 0.4411
C22 C 0.1525(2) -0.1310(2) 0.8168(2)
H12 H 0.1251 -0.0846 0.8015
H13 H 0.1718 -0.1317 0.8672
H14 H 0.1213 -0.1747 0.8007
C23 C 0.26292(19) -0.06482(17) 0.81316(17)
H15 H 0.3021 -0.0656 0.7941
H16 H 0.2824 -0.0662 0.8635
H17 H 0.2349 -0.0187 0.7985
C24 C 0.44956(16) -0.37274(18) 0.89487(17)
H18 H 0.4568 -0.3494 0.9398
H19 H 0.4947 -0.3941 0.8938
H20 H 0.4138 -0.4128 0.8872
C25 C 0.3970(3) -0.3922(3) 0.5382(2)
H21 H 0.4418 -0.4197 0.5590
H22 H 0.3951 -0.3734 0.4929
H23 H 0.3566 -0.4260 0.5332
C26 C 0.45568(19) -0.2710(2) 0.58991(19)
H24 H 0.4541 -0.2285 0.6198
H25 H 0.4515 -0.2521 0.5440
H26 H 0.5010 -0.2978 0.6092
C27 C 0.27810(14) -0.05257(17) 0.55958(14)
C28 C 0.28011(16) 0.00970(17) 0.60083(18)
H27 H 0.2440 0.0158 0.6213
C29 C 0.33354(18) 0.06304(17) 0.61278(19)
H28 H 0.3340 0.1050 0.6416
C30 C 0.38656(15) 0.05566(16) 0.58280(15)
C31 C 0.38516(16) -0.00519(18) 0.54062(15)
H29 H 0.4209 -0.0108 0.5195
C32 C 0.33102(16) -0.05807(19) 0.52946(15)
H30 H 0.3302 -0.0996 0.5001
C33 C 0.49363(16) 0.10423(18) 0.56904(15)
H31 H 0.4726 0.0968 0.5187
H32 H 0.5241 0.0602 0.5887
C34 C 0.53732(17) 0.17437(18) 0.58374(15)
H33 H 0.5708 0.1741 0.5571
H34 H 0.5057 0.2188 0.5693
C35 C 0.62633(16) 0.23819(16) 0.66908(15)
C36 C 0.60662(17) 0.30956(17) 0.68376(17)
C37 C 0.6548(2) 0.3687(2) 0.6915(2)
H35 H 0.6418 0.4181 0.7008
C38 C 0.7205(2) 0.3563(2) 0.6858(3)
H36 H 0.7525 0.3972 0.6894
C39 C 0.7402(2) 0.2845(2) 0.6749(3)
H37 H 0.7869 0.2761 0.6732
C40 C 0.69410(17) 0.22367(19) 0.66634(18)
C41 C 0.71908(17) 0.1456(2) 0.65752(18)
H38 H 0.7364 0.1450 0.6176
H39 H 0.6783 0.1103 0.6477
C42 C 0.77788(16) 0.11895(18) 0.72036(19)
C43 C 0.76421(15) 0.10203(16) 0.78104(18)
C44 C 0.81740(17) 0.07861(17) 0.8410(2)
C45 C 0.88695(18) 0.0743(2) 0.8382(3)
H40 H 0.9246 0.0592 0.8781
C46 C 0.90195(19) 0.0911(2) 0.7799(3)
H41 H 0.9497 0.0878 0.7798
C47 C 0.84888(19) 0.1129(2) 0.7213(2)
H42 H 0.8602 0.1239 0.6809
C48 C 0.80025(19) 0.06420(19) 0.9062(2)
H43 H 0.8417 0.0399 0.9404
H44 H 0.7593 0.0292 0.8962
C49 C 0.78237(18) 0.13644(19) 0.93605(17)
C50 C 0.71325(17) 0.15301(18) 0.93553(15)
C51 C 0.69489(18) 0.22399(19) 0.95371(16)
C52 C 0.7495(2) 0.2767(2) 0.97813(18)
H45 H 0.7387 0.3250 0.9921
C53 C 0.8183(2) 0.2602(2) 0.9824(2)
H46 H 0.8549 0.2964 1.0006
C54 C 0.8345(2) 0.1912(2) 0.9605(2)
H47 H 0.8820 0.1810 0.9621
C55 C 0.61801(19) 0.2459(2) 0.94566(18)
H48 H 0.5869 0.2011 0.9321
H49 H 0.6155 0.2643 0.9902
O1 O 0.57385(15) 0.21488(13) 0.80412(14)
C56 C 0.59219(19) 0.3058(2) 0.8927(2)
C57 C 0.5700(5) 0.2888(7) 0.8228(6)
C58 C 0.55176(18) 0.34399(19) 0.7719(2)
C59 C 0.55034(19) 0.4190(2) 0.7920(2)
H50 H 0.5371 0.4576 0.7583
C60 C 0.5682(2) 0.4372(2) 0.8614(3)
H51 H 0.5660 0.4881 0.8748
C61 C 0.5891(2) 0.3819(2) 0.9105(2)
H52 H 0.6017 0.3953 0.9576
C62 C 0.5074(3) 0.1766(3) 0.7928(3)
H53 H 0.4768 0.2067 0.8117
H54 H 0.5163 0.1274 0.8156
H55 H 0.4837 0.1695 0.7433
C63 C 0.53635(18) 0.32358(18) 0.69619(18)
H56 H 0.5062 0.2778 0.6847
H57 H 0.5103 0.3653 0.6665
C64 C 0.64914(17) 0.0515(2) 0.76552(19)
H58 H 0.6491 0.0306 0.7214
H59 H 0.6008 0.0679 0.7617
H60 H 0.6651 0.0129 0.8013
C65 C 0.6611(2) 0.0528(2) 0.97459(17)
H61 H 0.6572 0.0864 1.0115
H62 H 0.7067 0.0248 0.9924
C66 C 0.6003(2) -0.0017(2) 0.95524(18)
H63 H 0.5960 -0.0257 0.9971
H64 H 0.5552 0.0254 0.9318
C67 C 0.56614(16) -0.11934(17) 0.89553(17)
C68 C 0.5127(2) -0.1307(2) 0.92380(19)
H65 H 0.5063 -0.0959 0.9563
C69 C 0.46862(18) -0.1926(2) 0.90471(17)
H66 H 0.4323 -0.1997 0.9248
C70 C 0.47545(14) -0.24528(16) 0.85704(15)
C71 C 0.53048(14) -0.23391(16) 0.83034(17)
H67 H 0.5378 -0.2693 0.7987
C72 C 0.57491(15) -0.17190(17) 0.84907(18)
H68 H 0.6120 -0.1652 0.8298
N1 N 0.30943(13) -0.21516(15) 0.57328(12)
H69 H 0.3388 -0.1907 0.6084
N2 N 0.22608(11) -0.12453(13) 0.66886(12)
H70 H 0.2730 -0.1261 0.6840
N3 N 0.32107(12) -0.22029(13) 0.80394(12)
H71 H 0.3411 -0.1913 0.7808
N4 N 0.40861(12) -0.30754(13) 0.71062(12)
H72 H 0.4079 -0.2580 0.7086
O2 O 0.43811(11) 0.11066(11) 0.59884(11)
O3 O 0.57680(10) 0.17984(11) 0.65563(10)
O4 O 0.66125(12) 0.09688(12) 0.91645(10)
O5 O 0.61231(12) -0.05891(13) 0.90977(13)
O6 O 0.69618(10) 0.11417(12) 0.78305(11)
C80 C 0.3528(2) 0.1193(2) 0.8649(3)
C81 C 0.2911(3) 0.1703(3) 0.8398(3)
H79 H 0.2699 0.1654 0.7898
H80 H 0.3068 0.2225 0.8514
H81 H 0.2555 0.1572 0.8615
N5 N 0.3979(2) 0.0763(2) 0.8786(3)
N7 N 0.3947(6) -0.1275(6) 0.7042(3)
C84 C 0.4306(4) -0.0740(4) 0.7095(3)
C85 C 0.4956(3) -0.0288(4) 0.7303(4)
H85 H 0.5314 -0.0524 0.7135
H86 H 0.5141 -0.0255 0.7806
H87 H 0.4849 0.0220 0.7109
N8 N 0.3982(4) 0.0799(5) 0.3839(4)
C86 C 0.3412(3) 0.0923(4) 0.3835(3)
C87 C 0.2638(3) 0.0749(3) 0.3678(3)
H88 H 0.2486 0.0387 0.3298
H89 H 0.2359 0.1213 0.3547
H90 H 0.2562 0.0532 0.4086
O7? O 0.6155(7) 0.3447(7) 0.8307(6)
C73? C 0.5606(10) 0.2445(11) 0.8658(10)
C74? C 0.576(3) 0.290(4) 0.817(3)
C75? C 0.5221(10) 0.2788(11) 0.7460(10)
C76? C 0.4695(10) 0.2226(11) 0.7348(10)
H73? H 0.4395 0.2140 0.6889
C77? C 0.4596(12) 0.1834(11) 0.7811(10)
H74? H 0.4205 0.1493 0.7695
C78? C 0.5061(10) 0.1882(11) 0.8521(10)
H75? H 0.5007 0.1562 0.8870
C79? C 0.5842(12) 0.4152(13) 0.8424(12)
H76? H 0.5384 0.4230 0.8059
H77? H 0.6165 0.4569 0.8423
H78? H 0.5764 0.4133 0.8870
N6? N 0.3936(9) -0.1341(8) 0.7208(5)
C82? C 0.4346(5) -0.0843(5) 0.7350(4)
C83? C 0.4632(6) -0.0117(5) 0.7630(6)
H82? H 0.4446 0.0021 0.8000
H83? H 0.4489 0.0265 0.7266
H84? H 0.5154 -0.0145 0.7813
N9? N 0.3924(18) 0.0645(16) 0.3767(19)
C88? C 0.3602(14) 0.1107(12) 0.3387(12)
C89? C 0.3421(14) 0.1923(12) 0.3290(13)
H91? H 0.3129 0.2065 0.3573
H92? H 0.3154 0.2020 0.2805
H93? H 0.3861 0.2221 0.3427
loop_
_geom_bond_atom_site_label_1
_geom_bond_atom_site_label_2
_geom_bond_site_symmetry_1
_geom_bond_site_symmetry_2
C1 C2 1_555 1_555
C2 H1 1_555 1_555
C3 C2 1_555 1_555
H2 C3 1_555 1_555
C4 C3 1_555 1_555
C5 C4 1_555 1_555
C6 C5 1_555 1_555
C7 C6 1_555 1_555
H3 C7 1_555 1_555
C8 C7 1_555 1_555
H4 C8 1_555 1_555
C9 C8 1_555 1_555
C10 C9 1_555 1_555
C11 C10 1_555 1_555
C12 C11 1_555 1_555
H5 C12 1_555 1_555
C13 C12 1_555 1_555
H6 C13 1_555 1_555
C14 C13 1_555 1_555
C15 C14 1_555 1_555
C16 C15 1_555 1_555
C17 C16 1_555 1_555
H7 C17 1_555 1_555
C18 C17 1_555 1_555
H8 C18 1_555 1_555
C19 C18 1_555 1_555
C20 C1 1_555 1_555
C21 C5 1_555 1_555
H9 C21 1_555 1_555
H10 C21 1_555 1_555
H11 C21 1_555 1_555
C22 C10 1_555 1_555
H12 C22 1_555 1_555
H13 C22 1_555 1_555
H14 C22 1_555 1_555
C23 C10 1_555 1_555
H15 C23 1_555 1_555
H16 C23 1_555 1_555
H17 C23 1_555 1_555
C24 C15 1_555 1_555
H18 C24 1_555 1_555
H19 C24 1_555 1_555
H20 C24 1_555 1_555
C25 C20 1_555 1_555
H21 C25 1_555 1_555
H22 C25 1_555 1_555
H23 C25 1_555 1_555
C26 C20 1_555 1_555
H24 C26 1_555 1_555
H25 C26 1_555 1_555
H26 C26 1_555 1_555
C27 C5 1_555 1_555
C28 C27 1_555 1_555
H27 C28 1_555 1_555
C29 C28 1_555 1_555
H28 C29 1_555 1_555
C30 C29 1_555 1_555
C31 C30 1_555 1_555
H29 C31 1_555 1_555
C32 C27 1_555 1_555
H30 C32 1_555 1_555
C33 H31 1_555 1_555
H32 C33 1_555 1_555
C34 C33 1_555 1_555
H33 C34 1_555 1_555
H34 C34 1_555 1_555
C35 C36 1_555 1_555
C36 C37 1_555 1_555
C37 H35 1_555 1_555
C38 C37 1_555 1_555
H36 C38 1_555 1_555
C39 C38 1_555 1_555
H37 C39 1_555 1_555
C40 C35 1_555 1_555
C41 C40 1_555 1_555
H38 C41 1_555 1_555
H39 C41 1_555 1_555
C42 C41 1_555 1_555
C43 C42 1_555 1_555
C44 C43 1_555 1_555
C45 C44 1_555 1_555
H40 C45 1_555 1_555
C46 C45 1_555 1_555
H41 C46 1_555 1_555
C47 C42 1_555 1_555
H42 C47 1_555 1_555
C48 C44 1_555 1_555
H43 C48 1_555 1_555
H44 C48 1_555 1_555
C49 C48 1_555 1_555
C50 C49 1_555 1_555
C51 C50 1_555 1_555
C52 C51 1_555 1_555
H45 C52 1_555 1_555
C53 C52 1_555 1_555
H46 C53 1_555 1_555
C54 C49 1_555 1_555
H47 C54 1_555 1_555
C55 C51 1_555 1_555
H48 C55 1_555 1_555
H49 C55 1_555 1_555
O1 C57 1_555 1_555
C56 C55 1_555 1_555
C57 C56 1_555 1_555
C58 C57 1_555 1_555
C59 C58 1_555 1_555
H50 C59 1_555 1_555
C60 C59 1_555 1_555
H51 C60 1_555 1_555
C61 C56 1_555 1_555
H52 C61 1_555 1_555
C62 O1 1_555 1_555
H53 C62 1_555 1_555
H54 C62 1_555 1_555
H55 C62 1_555 1_555
C63 C36 1_555 1_555
H56 C63 1_555 1_555
H57 C63 1_555 1_555
C64 H58 1_555 1_555
H59 C64 1_555 1_555
H60 C64 1_555 1_555
C65 H61 1_555 1_555
H62 C65 1_555 1_555
C66 C65 1_555 1_555
H63 C66 1_555 1_555
H64 C66 1_555 1_555
C67 C68 1_555 1_555
C68 H65 1_555 1_555
C69 C68 1_555 1_555
H66 C69 1_555 1_555
C70 C15 1_555 1_555
C71 C70 1_555 1_555
H67 C71 1_555 1_555
C72 C67 1_555 1_555
H68 C72 1_555 1_555
N1 C1 1_555 1_555
H69 N1 1_555 1_555
N2 C6 1_555 1_555
H70 N2 1_555 1_555
N3 C11 1_555 1_555
H71 N3 1_555 1_555
N4 C16 1_555 1_555
H72 N4 1_555 1_555
O2 C30 1_555 1_555
O3 C34 1_555 1_555
O4 C50 1_555 1_555
O5 C66 1_555 1_555
O6 C43 1_555 1_555
C80 C81 1_555 1_555
C81 H79 1_555 1_555
H80 C81 1_555 1_555
H81 C81 1_555 1_555
N5 C80 1_555 1_555
N7 C84 1_555 1_555
C84 C85 1_555 1_555
C85 H85 1_555 1_555
H86 C85 1_555 1_555
H87 C85 1_555 1_555
N8 C86 1_555 1_555
C86 C87 1_555 1_555
C87 H88 1_555 1_555
H89 C87 1_555 1_555
H90 C87 1_555 1_555
C4 N1 1_555 1_555
C9 N2 1_555 1_555
C14 N3 1_555 1_555
C19 C20 1_555 1_555
C19 N4 1_555 1_555
C31 C32 1_555 1_555
C33 O2 1_555 1_555
C35 O3 1_555 1_555
C39 C40 1_555 1_555
C46 C47 1_555 1_555
C53 C54 1_555 1_555
C58 C63 1_555 1_555
C60 C61 1_555 1_555
C64 O6 1_555 1_555
C65 O4 1_555 1_555
C67 O5 1_555 1_555
C69 C70 1_555 1_555
C71 C72 1_555 1_555

#END
