
#######################################################################
#
#                 Cambridge Crystallographic Data Centre
#                                CCDC 
#
#######################################################################
#
# If this CIF has been generated from an entry in the Cambridge 
# Structural Database, then it will include bibliographic, chemical, 
# crystal, experimental, refinement or atomic coordinate data resulting 
# from the CCDC's data processing and validation procedures.
#
#######################################################################

data_DOLKEU01
_chemical_compound_source        
'dried leaves of Primsatomoris malayana Ridley (Rubiaceae)'
_chemical_name_common            'Methyl 3-oxours-12-en-28-oate'
_chemical_formula_moiety         'C31 H48 O3'
_chemical_name_systematic        'Methyl 3-dehydroxy-3-oxoursolate'
_symmetry_cell_setting           orthorhombic
_symmetry_space_group_name_H-M   'P 21 21 21'
_symmetry_Int_Tables_number      19
_space_group_name_Hall           'P 2ac 2ab'
loop_
_symmetry_equiv_pos_site_id
_symmetry_equiv_pos_as_xyz
1 x,y,z
2 1/2-x,-y,1/2+z
3 -x,1/2+y,1/2-z
4 1/2+x,1/2-y,-z
_cell_length_a                   8.0298(2)
_cell_length_b                   8.4775(2)
_cell_length_c                   39.0492(7)
_cell_angle_alpha                90
_cell_angle_beta                 90
_cell_angle_gamma                90
_cell_volume                     2658.18
_exptl_crystal_colour            colorless
_exptl_crystal_description       block
_cell_formula_units_Z            4
loop_
_atom_site_label
_atom_site_type_symbol
_atom_site_fract_x
_atom_site_fract_y
_atom_site_fract_z
O1 O 1.36083(18) -0.12139(18) 0.89475(4)
O2 O 1.10487(18) -0.22743(17) 0.89389(4)
O3 O 0.49772(19) 0.76407(17) 0.78616(4)
C1 C 1.4023(3) -0.2216(3) 0.86615(6)
H1 H 1.5215 -0.2127 0.8612
H2 H 1.3381 -0.1889 0.8460
H3 H 1.3753 -0.3313 0.8718
C2 C 1.2031(2) -0.1362(2) 0.90610(5)
C3 C 1.1709(2) -0.0328(2) 0.93751(4)
C4 C 1.2429(2) -0.1294(2) 0.96749(4)
H4 H 1.2020 -0.2393 0.9659
H5 H 1.3659 -0.1319 0.9656
C5 C 1.1951(2) -0.0617(2) 1.00218(5)
H6 H 1.2394 -0.1304 1.0206
H7 H 1.2454 0.0442 1.0049
C6 C 1.0070(2) -0.0492(2) 1.00570(4)
H8 H 0.9602 -0.1575 1.0026
C7 C 0.9619(3) 0.0053(3) 1.04214(5)
H9 H 1.0134 -0.0657 1.0589
H10 H 0.8407 0.0034 1.0450
H11 H 1.0030 0.1129 1.0458
C8 C 0.9321(2) 0.0558(2) 0.97752(4)
H12 H 0.9783 0.1647 0.9802
C9 C 0.7425(2) 0.0651(3) 0.98027(5)
H13 H 0.7117 0.1085 1.0026
H14 H 0.6950 -0.0408 0.9778
H15 H 0.6991 0.1335 0.9621
C10 C 0.9816(2) -0.0071(2) 0.94123(4)
H16 H 0.9292 -0.1136 0.9390
C11 C 0.9163(2) 0.0908(2) 0.91111(4)
C12 C 1.0129(2) 0.2364(2) 0.89869(4)
C13 C 0.9586(2) 0.3774(2) 0.92132(4)
H17 H 0.9966 0.3603 0.9449
H18 H 0.8369 0.3864 0.9210
H19 H 1.0080 0.4748 0.9124
C14 C 1.2042(2) 0.2181(2) 0.90294(4)
H20 H 1.2488 0.1635 0.8825
H21 H 1.2548 0.3245 0.9037
C15 C 1.2586(2) 0.1272(2) 0.93475(4)
H22 H 1.2333 0.1907 0.9554
H23 H 1.3806 0.1105 0.9339
C16 C 0.7737(2) 0.0499(2) 0.89632(5)
H24 H 0.7174 -0.0390 0.9056
C17 C 0.6929(2) 0.1307(2) 0.86633(5)
H25 H 0.5766 0.1572 0.8725
H26 H 0.6892 0.0562 0.8468
C18 C 0.7820(2) 0.2819(2) 0.85481(4)
H27 H 0.7494 0.3637 0.8720
C19 C 0.9742(2) 0.2627(2) 0.85904(4)
C20 C 1.0371(2) 0.1194(2) 0.83823(5)
H28 H 0.9927 0.1248 0.8149
H29 H 0.9994 0.0218 0.8492
H30 H 1.1591 0.1209 0.8374
C21 C 1.0636(2) 0.4126(2) 0.84642(5)
H31 H 1.0470 0.4976 0.8635
H32 H 1.1846 0.3910 0.8450
C22 C 1.0031(2) 0.4709(2) 0.81144(4)
H33 H 1.0630 0.5688 0.8051
H34 H 1.0266 0.3903 0.7938
C23 C 0.8158(2) 0.5030(2) 0.81302(4)
H35 H 0.8002 0.5650 0.8346
C24 C 0.7187(2) 0.3472(2) 0.81932(4)
C25 C 0.7322(2) 0.2282(2) 0.78945(5)
H36 H 0.6512 0.2556 0.7717
H37 H 0.7091 0.1216 0.7979
H38 H 0.8448 0.2318 0.7798
C26 C 0.5327(2) 0.3877(2) 0.82365(5)
H39 H 0.4680 0.2885 0.8252
H40 H 0.5173 0.4457 0.8454
C27 C 0.4635(2) 0.4882(2) 0.79402(5)
H41 H 0.4628 0.4242 0.7728
H42 H 0.3470 0.5180 0.7992
C28 C 0.5640(2) 0.6353(2) 0.78803(4)
C29 C 0.7522(2) 0.6149(2) 0.78399(5)
C30 C 0.8357(3) 0.7772(2) 0.78758(5)
H43 H 0.7833 0.8518 0.7717
H44 H 0.9545 0.7680 0.7822
H45 H 0.8225 0.8152 0.8111
C31 C 0.7843(3) 0.5552(2) 0.74714(5)
H46 H 0.7515 0.6368 0.7307
H47 H 0.7188 0.4595 0.7430
H48 H 0.9030 0.5314 0.7443
loop_
_geom_bond_atom_site_label_1
_geom_bond_atom_site_label_2
_geom_bond_site_symmetry_1
_geom_bond_site_symmetry_2
O1 C1 1_555 1_555
O2 C2 1_555 1_555
O3 C28 1_555 1_555
C1 H1 1_555 1_555
H2 C1 1_555 1_555
H3 C1 1_555 1_555
C2 O1 1_555 1_555
C3 C2 1_555 1_555
C4 C3 1_555 1_555
H4 C4 1_555 1_555
H5 C4 1_555 1_555
C5 C4 1_555 1_555
H6 C5 1_555 1_555
H7 C5 1_555 1_555
C6 C5 1_555 1_555
H8 C6 1_555 1_555
C7 C6 1_555 1_555
H9 C7 1_555 1_555
H10 C7 1_555 1_555
H11 C7 1_555 1_555
C8 C6 1_555 1_555
H12 C8 1_555 1_555
C9 C8 1_555 1_555
H13 C9 1_555 1_555
H14 C9 1_555 1_555
H15 C9 1_555 1_555
C10 C3 1_555 1_555
H16 C10 1_555 1_555
C11 C10 1_555 1_555
C12 C11 1_555 1_555
C13 C12 1_555 1_555
H17 C13 1_555 1_555
H18 C13 1_555 1_555
H19 C13 1_555 1_555
C14 C12 1_555 1_555
H20 C14 1_555 1_555
H21 C14 1_555 1_555
C15 C3 1_555 1_555
H22 C15 1_555 1_555
H23 C15 1_555 1_555
C16 C11 1_555 1_555
H24 C16 1_555 1_555
C17 C16 1_555 1_555
H25 C17 1_555 1_555
H26 C17 1_555 1_555
C18 C17 1_555 1_555
H27 C18 1_555 1_555
C19 C12 1_555 1_555
C20 C19 1_555 1_555
H28 C20 1_555 1_555
H29 C20 1_555 1_555
H30 C20 1_555 1_555
C21 C19 1_555 1_555
H31 C21 1_555 1_555
H32 C21 1_555 1_555
C22 C21 1_555 1_555
H33 C22 1_555 1_555
H34 C22 1_555 1_555
C23 C22 1_555 1_555
H35 C23 1_555 1_555
C24 C18 1_555 1_555
C25 C24 1_555 1_555
H36 C25 1_555 1_555
H37 C25 1_555 1_555
H38 C25 1_555 1_555
C26 C24 1_555 1_555
H39 C26 1_555 1_555
H40 C26 1_555 1_555
C27 C26 1_555 1_555
H41 C27 1_555 1_555
H42 C27 1_555 1_555
C28 C27 1_555 1_555
C29 C23 1_555 1_555
C30 C29 1_555 1_555
H43 C30 1_555 1_555
H44 C30 1_555 1_555
H45 C30 1_555 1_555
C31 C29 1_555 1_555
H46 C31 1_555 1_555
H47 C31 1_555 1_555
H48 C31 1_555 1_555
C8 C10 1_555 1_555
C14 C15 1_555 1_555
C18 C19 1_555 1_555
C23 C24 1_555 1_555
C28 C29 1_555 1_555

#END
