
#######################################################################
#
#                 Cambridge Crystallographic Data Centre
#                                CCDC 
#
#######################################################################
#
# If this CIF has been generated from an entry in the Cambridge 
# Structural Database, then it will include bibliographic, chemical, 
# crystal, experimental, refinement or atomic coordinate data resulting 
# from the CCDC's data processing and validation procedures.
#
#######################################################################

data_DOMGOD
_chemical_formula_moiety         'C21 H28 N4 O1'
_chemical_name_systematic        
'1-Benzyl-5-t-butyl-2-(4-(dimethylamino)pyridin-3-yl)pyrazolidin-3-one unknown solvate'
_symmetry_cell_setting           trigonal
_symmetry_space_group_name_H-M   'P 32'
_symmetry_Int_Tables_number      145
_space_group_name_Hall           'P 32'
loop_
_symmetry_equiv_pos_site_id
_symmetry_equiv_pos_as_xyz
1 x,y,z
2 -y,x-y,2/3+z
3 -x+y,-x,1/3+z
_cell_length_a                   13.2040(2)
_cell_length_b                   13.2040(2)
_cell_length_c                   11.50280(10)
_cell_angle_alpha                90
_cell_angle_beta                 90
_cell_angle_gamma                120
_cell_volume                     1736.78
_exptl_crystal_colour            colorless
_exptl_crystal_description       plate
_chemical_melting_point          '140-142 deg.C'
_cell_formula_units_Z            3
loop_
_atom_site_label
_atom_site_type_symbol
_atom_site_fract_x
_atom_site_fract_y
_atom_site_fract_z
O1 O 1.02455(9) 0.08583(10) 0.22048(9)
N1 N 0.79689(11) 0.11282(10) 0.09452(10)
N2 N 0.84556(10) 0.06410(11) 0.17414(10)
N3 N 0.82035(13) -0.15353(12) 0.27572(10)
N4 N 0.67945(12) 0.03396(12) 0.44082(11)
C1 C 0.55488(16) 0.15253(16) -0.21426(16)
H1 H 0.5231 0.1856 -0.2658
C2 C 0.61293(15) 0.09880(15) -0.25773(14)
H2 H 0.6200 0.0931 -0.3393
C3 C 0.66121(13) 0.05284(14) -0.18174(13)
H3 H 0.7013 0.0157 -0.2122
C4 C 0.65215(13) 0.06007(13) -0.06201(13)
C5 C 0.71158(13) 0.01614(13) 0.01839(13)
H4 H 0.6523 -0.0480 0.0671
H5 H 0.7529 -0.0153 -0.0278
C6 C 0.78362(13) 0.01207(13) 0.27869(12)
C7 C 0.77886(13) -0.08878(13) 0.32750(12)
C8 C 0.84053(16) -0.23304(15) 0.34568(15)
H6 H 0.8847 -0.1924 0.4155
H7 H 0.8853 -0.2602 0.3005
H8 H 0.7653 -0.3002 0.3684
C9 C 0.81369(17) -0.17308(15) 0.15068(14)
H9 H 0.7557 -0.1559 0.1171
H10 H 0.7906 -0.2548 0.1351
H11 H 0.8903 -0.1216 0.1157
C10 C 0.90065(13) 0.20392(12) 0.02853(12)
H12 H 0.8790 0.1991 -0.0554
C11 C 0.99302(13) 0.16725(13) 0.04117(13)
H13 H 0.9887 0.1161 -0.0239
H14 H 1.0727 0.2363 0.0442
C12 C 0.96097(13) 0.10178(13) 0.15496(12)
C13 C 0.93986(14) 0.32903(13) 0.07320(14)
C14 C 0.83469(16) 0.34881(14) 0.07335(18)
H15 H 0.8605 0.4296 0.0962
H16 H 0.7759 0.2950 0.1287
H17 H 0.8005 0.3344 -0.0047
C15 C 1.03196(16) 0.41645(15) -0.01129(17)
H18 H 1.0004 0.4001 -0.0905
H19 H 1.1021 0.4090 -0.0080
H20 H 1.0522 0.4961 0.0106
C16 C 0.99167(16) 0.35017(15) 0.19560(15)
H21 H 1.0614 0.3419 0.1951
H22 H 0.9336 0.2929 0.2493
H23 H 1.0132 0.4293 0.2209
C17 C 0.54261(16) 0.15865(16) -0.09468(17)
H24 H 0.5018 0.1953 -0.0648
C18 C 0.58962(14) 0.11160(15) -0.01925(15)
H25 H 0.5793 0.1143 0.0622
C19 C 0.73095(13) 0.06547(14) 0.33674(13)
H26 H 0.7315 0.1299 0.2995
C20 C 0.68110(14) -0.05730(15) 0.48992(13)
H27 H 0.6475 -0.0811 0.5650
C21 C 0.72794(14) -0.11871(14) 0.43924(13)
H28 H 0.7261 -0.1823 0.4799
loop_
_geom_bond_atom_site_label_1
_geom_bond_atom_site_label_2
_geom_bond_site_symmetry_1
_geom_bond_site_symmetry_2
O1 C12 1_555 1_555
N1 N2 1_555 1_555
N2 C6 1_555 1_555
N3 C7 1_555 1_555
N4 C19 1_555 1_555
C1 H1 1_555 1_555
C2 C1 1_555 1_555
H2 C2 1_555 1_555
C3 C2 1_555 1_555
H3 C3 1_555 1_555
C4 C3 1_555 1_555
C5 N1 1_555 1_555
H4 C5 1_555 1_555
H5 C5 1_555 1_555
C6 C7 1_555 1_555
C7 C21 1_555 1_555
C8 N3 1_555 1_555
H6 C8 1_555 1_555
H7 C8 1_555 1_555
H8 C8 1_555 1_555
C9 N3 1_555 1_555
H9 C9 1_555 1_555
H10 C9 1_555 1_555
H11 C9 1_555 1_555
C10 N1 1_555 1_555
H12 C10 1_555 1_555
C11 C10 1_555 1_555
H13 C11 1_555 1_555
H14 C11 1_555 1_555
C12 N2 1_555 1_555
C13 C10 1_555 1_555
C14 C13 1_555 1_555
H15 C14 1_555 1_555
H16 C14 1_555 1_555
H17 C14 1_555 1_555
C15 C13 1_555 1_555
H18 C15 1_555 1_555
H19 C15 1_555 1_555
H20 C15 1_555 1_555
C16 C13 1_555 1_555
H21 C16 1_555 1_555
H22 C16 1_555 1_555
H23 C16 1_555 1_555
C17 C1 1_555 1_555
H24 C17 1_555 1_555
C18 C4 1_555 1_555
H25 C18 1_555 1_555
C19 C6 1_555 1_555
H26 C19 1_555 1_555
C20 N4 1_555 1_555
H27 C20 1_555 1_555
C21 C20 1_555 1_555
H28 C21 1_555 1_555
C4 C5 1_555 1_555
C11 C12 1_555 1_555
C17 C18 1_555 1_555

#END
