
#######################################################################
#
#                 Cambridge Crystallographic Data Centre
#                                CCDC 
#
#######################################################################
#
# If this CIF has been generated from an entry in the Cambridge 
# Structural Database, then it will include bibliographic, chemical, 
# crystal, experimental, refinement or atomic coordinate data resulting 
# from the CCDC's data processing and validation procedures.
#
#######################################################################

data_DONKAS
_chemical_compound_source        
'Toxic medicinal plant Kou-Wen (gelsemuim elegans Benth.)'
_chemical_formula_moiety         'C20 H24 N2 O1'
_chemical_name_systematic        Neo-dihydrokoumine
_symmetry_cell_setting           orthorhombic
_symmetry_space_group_name_H-M   'P 21 21 21'
_symmetry_Int_Tables_number      19
_space_group_name_Hall           'P 2ac 2ab'
loop_
_symmetry_equiv_pos_site_id
_symmetry_equiv_pos_as_xyz
1 x,y,z
2 1/2+x,1/2-y,-z
3 -x,1/2+y,1/2-z
4 1/2-x,-y,1/2+z
_cell_length_a                   12.671(4)
_cell_length_b                   13.634(5)
_cell_length_c                   9.653(3)
_cell_angle_alpha                90
_cell_angle_beta                 90
_cell_angle_gamma                90
_cell_volume                     1667.62
_exptl_crystal_colour            yellow
_cell_formula_units_Z            4
loop_
_atom_site_label
_atom_site_type_symbol
_atom_site_fract_x
_atom_site_fract_y
_atom_site_fract_z
N1 N 0.3856(5) 0.8856(5) 0.4848(7)
C1 C 0.4451(6) 0.8450(6) 0.3775(8)
C2 C 0.6167(7) 0.5820(7) 0.4209(10)
N2 N 0.4906(5) 0.8515(5) 0.0920(7)
C3 C 0.5905(6) 0.8068(6) 0.1482(9)
C4 C 0.6292(6) 0.8647(6) 0.2741(9)
C5 C 0.5419(6) 0.8878(6) 0.3746(8)
C6 C 0.5455(6) 0.9593(6) 0.4823(9)
C7 C 0.6240(6) 1.0257(6) 0.5280(9)
C8 C 0.5977(7) 1.0870(6) 0.6370(10)
C9 C 0.4978(8) 1.0841(6) 0.6989(8)
C10 C 0.4196(7) 1.0181(6) 0.6601(9)
C11 C 0.4456(6) 0.9565(6) 0.5495(8)
C12 C 0.5207(7) 0.6470(7) 0.4266(9)
C13 C 0.4825(6) 0.6754(6) 0.2800(9)
C14 C 0.5709(6) 0.6963(6) 0.1736(9)
C15 C 0.6726(7) 0.6377(6) 0.2021(9)
C16 C 0.2091(9) 0.7240(9) 0.2837(12)
C17 C 0.2968(7) 0.7259(7) 0.3405(10)
C18 C 0.4004(6) 0.7644(6) 0.2850(9)
C19 C 0.3934(7) 0.8035(6) 0.1351(9)
C20 C 0.4927(8) 0.8608(7) -0.0594(9)
O1 O 0.6994(4) 0.6320(4) 0.3457(6)
loop_
_geom_bond_atom_site_label_1
_geom_bond_atom_site_label_2
_geom_bond_site_symmetry_1
_geom_bond_site_symmetry_2
N1 C1 1_555 1_555
C1 C5 1_555 1_555
C2 C12 1_555 1_555
N2 C3 1_555 1_555
C3 C4 1_555 1_555
C4 C5 1_555 1_555
C5 C6 1_555 1_555
C6 C7 1_555 1_555
C7 C8 1_555 1_555
C8 C9 1_555 1_555
C9 C10 1_555 1_555
C10 C11 1_555 1_555
C11 N1 1_555 1_555
C12 C13 1_555 1_555
C13 C14 1_555 1_555
C14 C3 1_555 1_555
C15 C14 1_555 1_555
C16 C17 1_555 1_555
C17 C18 1_555 1_555
C18 C1 1_555 1_555
C19 N2 1_555 1_555
C20 N2 1_555 1_555
O1 C2 1_555 1_555
C6 C11 1_555 1_555
C13 C18 1_555 1_555
C15 O1 1_555 1_555
C18 C19 1_555 1_555

#END
