
#######################################################################
#
#                 Cambridge Crystallographic Data Centre
#                                CCDC 
#
#######################################################################
#
# If this CIF has been generated from an entry in the Cambridge 
# Structural Database, then it will include bibliographic, chemical, 
# crystal, experimental, refinement or atomic coordinate data resulting 
# from the CCDC's data processing and validation procedures.
#
#######################################################################

data_DONLAT
_chemical_compound_source        'Artemisia anomala S.Moore'
_chemical_formula_moiety         'C19 H24 O6'
_chemical_name_systematic        Arteanomalactone
_symmetry_cell_setting           monoclinic
_symmetry_space_group_name_H-M   'P 21'
_symmetry_Int_Tables_number      4
_space_group_name_Hall           'P 2yb'
loop_
_symmetry_equiv_pos_site_id
_symmetry_equiv_pos_as_xyz
1 x,y,z
2 -x,1/2+y,-z
_cell_length_a                   12.184(7)
_cell_length_b                   7.480(14)
_cell_length_c                   10.424(9)
_cell_angle_alpha                90
_cell_angle_beta                 104.44(6)
_cell_angle_gamma                90
_cell_volume                     919.994
_chemical_melting_point          133-135deg.C
_cell_formula_units_Z            2
loop_
_atom_site_label
_atom_site_type_symbol
_atom_site_fract_x
_atom_site_fract_y
_atom_site_fract_z
O1 O 0.7597(4) 0.2415(8) 0.1626(4)
O2 O 0.9343(5) 0.1287(9) 0.2425(7)
O3 O 1.0454(4) 0.6119(5) 0.2828(5)
O4 O 1.1741(6) 0.7158(10) 0.4597(7)
O5 O 0.3009(4) 0.4190(8) 0.2000(5)
O6 O 0.3187(5) 0.1444(9) 0.1190(6)
C1 C 0.5529(6) 0.6215(11) 0.4237(6)
C2 C 0.4294(5) 0.5776(11) 0.3636(7)
C3 C 0.4209(5) 0.4181(11) 0.2713(6)
C4 C 0.4984(5) 0.4382(10) 0.1784(6)
C5 C 0.6029(5) 0.3755(9) 0.2251(7)
C6 C 0.7012(5) 0.4117(11) 0.1681(7)
C7 C 0.7932(5) 0.5276(10) 0.2556(7)
C8 C 0.7784(6) 0.7236(11) 0.2864(9)
C9 C 0.7363(7) 0.7560(12) 0.4140(18)
C10 C 0.6100(6) 0.7509(11) 0.3832(7)
C11 C 0.8895(5) 0.4337(11) 0.2926(7)
C12 C 0.8682(6) 0.2536(12) 0.2349(9)
C13 C 1.0027(6) 0.4930(13) 0.3713(8)
C14 C 1.1298(6) 0.7221(12) 0.3413(9)
C15 C 1.1588(7) 0.8459(14) 0.2399(11)
C16 C 0.4549(6) 0.5427(12) 0.0522(6)
C17 C 0.5533(7) 0.9052(13) 0.2949(8)
C18 C 0.2595(6) 0.2747(13) 0.1247(8)
C19 C 0.1366(6) 0.2962(15) 0.0520(9)
loop_
_geom_bond_atom_site_label_1
_geom_bond_atom_site_label_2
_geom_bond_site_symmetry_1
_geom_bond_site_symmetry_2
O1 C6 1_555 1_555
O2 C12 1_555 1_555
O3 C13 1_555 1_555
O4 C14 1_555 1_555
O5 C3 1_555 1_555
O6 C18 1_555 1_555
C1 C2 1_555 1_555
C2 C3 1_555 1_555
C3 C4 1_555 1_555
C4 C5 1_555 1_555
C5 C6 1_555 1_555
C6 C7 1_555 1_555
C7 C8 1_555 1_555
C8 C9 1_555 1_555
C9 C10 1_555 1_555
C10 C1 1_555 1_555
C11 C7 1_555 1_555
C12 O1 1_555 1_555
C13 C11 1_555 1_555
C14 O3 1_555 1_555
C15 C14 1_555 1_555
C16 C4 1_555 1_555
C17 C10 1_555 1_555
C18 O5 1_555 1_555
C19 C18 1_555 1_555
C11 C12 1_555 1_555

#END
