
#######################################################################
#
#                 Cambridge Crystallographic Data Centre
#                                CCDC 
#
#######################################################################
#
# If this CIF has been generated from an entry in the Cambridge 
# Structural Database, then it will include bibliographic, chemical, 
# crystal, experimental, refinement or atomic coordinate data resulting 
# from the CCDC's data processing and validation procedures.
#
#######################################################################

data_DOPHIB
_chemical_formula_moiety         'C22 H20 Br1 N2 O2 P1,0.5(C1 H2 Cl2)'
_chemical_name_systematic        
'1-((2-bromophenyl)(diphenylphosphoryl)methyl)pyrazolidin-3-one dichloromethane solvate'
_symmetry_cell_setting           monoclinic
_symmetry_space_group_name_H-M   'P 21'
_symmetry_Int_Tables_number      4
_space_group_name_Hall           'P 2yb'
loop_
_symmetry_equiv_pos_site_id
_symmetry_equiv_pos_as_xyz
1 x,y,z
2 -x,1/2+y,-z
_cell_length_a                   8.671(3)
_cell_length_b                   15.948(6)
_cell_length_c                   15.692(6)
_cell_angle_alpha                90
_cell_angle_beta                 94.150(7)
_cell_angle_gamma                90
_cell_volume                     2164.28
_exptl_crystal_colour            colorless
_exptl_crystal_description       block
_cell_formula_units_Z            4
loop_
_atom_site_label
_atom_site_type_symbol
_atom_site_fract_x
_atom_site_fract_y
_atom_site_fract_z
Br1 Br 0.52054(15) 0.94143(8) 0.61800(7)
N1 N 0.4169(9) 0.8832(5) 0.3652(5)
N2 N 0.2698(9) 0.8885(5) 0.3156(5)
H1 H 0.2260 0.8450 0.2892
O1 O 0.2844(7) 0.7068(4) 0.3452(4)
O2 O 0.0824(11) 0.9810(6) 0.2732(6)
P1 P 0.3932(3) 0.72637(15) 0.42047(14)
C1 C 0.4043(11) 0.8405(6) 0.4486(6)
H2 H 0.5046 0.8494 0.4829
C2 C 0.4594(12) 0.9738(6) 0.3772(7)
H3 H 0.5279 0.9919 0.3329
H4 H 0.5141 0.9826 0.4341
C3 C 0.3079(14) 1.0238(6) 0.3696(7)
H5 H 0.2661 1.0324 0.4260
H6 H 0.3213 1.0788 0.3419
C4 C 0.2057(12) 0.9652(6) 0.3131(6)
C5 C 0.2775(12) 0.8702(6) 0.5025(6)
C6 C 0.3115(15) 0.9183(7) 0.5745(6)
C7 C 0.1999(18) 0.9531(7) 0.6203(8)
H7 H 0.2269 0.9891 0.6673
C8 C 0.0446(14) 0.9345(8) 0.5969(7)
H8 H -0.0348 0.9555 0.6297
C9 C 0.0078(14) 0.8858(8) 0.5265(8)
H9 H -0.0974 0.8743 0.5093
C10 C 0.1232(12) 0.8540(7) 0.4810(7)
H10 H 0.0961 0.8195 0.4328
C11 C 0.3352(11) 0.6735(6) 0.5144(6)
C12 C 0.2322(11) 0.6071(7) 0.5043(7)
H11 H 0.2034 0.5873 0.4483
C13 C 0.1715(12) 0.5696(7) 0.5714(7)
H12 H 0.0996 0.5250 0.5627
C14 C 0.2176(12) 0.5983(7) 0.6562(6)
H13 H 0.1750 0.5736 0.7042
C15 C 0.3231(14) 0.6615(7) 0.6670(7)
H14 H 0.3554 0.6793 0.7232
C16 C 0.3844(13) 0.7004(7) 0.5987(7)
H15 H 0.4579 0.7443 0.6076
C17 C 0.5901(10) 0.7008(6) 0.4034(5)
C18 C 0.7100(12) 0.7006(7) 0.4703(7)
H16 H 0.6869 0.7110 0.5276
C19 C 0.8567(13) 0.6855(7) 0.4514(8)
H17 H 0.9360 0.6855 0.4965
C20 C 0.8956(12) 0.6702(7) 0.3704(9)
H18 H 1.0002 0.6604 0.3589
C21 C 0.7805(13) 0.6692(8) 0.3058(7)
H19 H 0.8068 0.6581 0.2492
C22 C 0.6271(12) 0.6839(6) 0.3203(6)
H20 H 0.5491 0.6825 0.2746
Br2 Br 0.41145(15) 0.56264(7) -0.10880(7)
N3 N 0.4188(10) 0.6314(5) 0.1390(4)
N4 N 0.2960(9) 0.6140(5) 0.1928(5)
H21 H 0.2468 0.6530 0.2197
O3 O 0.2561(8) 0.8045(4) 0.1571(4)
O4 O 0.1722(10) 0.5004(5) 0.2445(5)
P2 P 0.3541(3) 0.78590(14) 0.08500(14)
C23 C 0.3617(11) 0.6741(6) 0.0577(5)
H22 H 0.4466 0.6684 0.0182
C24 C 0.4874(12) 0.5486(6) 0.1264(6)
H23 H 0.5749 0.5386 0.1692
H24 H 0.5255 0.5443 0.0686
C25 C 0.3594(13) 0.4859(6) 0.1370(6)
H25 H 0.2998 0.4746 0.0820
H26 H 0.4005 0.4325 0.1614
C26 C 0.2635(13) 0.5309(6) 0.1981(7)
C27 C 0.2173(11) 0.6424(6) 0.0084(6)
C28 C 0.2205(13) 0.5960(7) -0.0648(7)
C29 C 0.0874(14) 0.5742(7) -0.1115(7)
H27 H 0.0933 0.5420 -0.1621
C30 C -0.0547(15) 0.5981(8) -0.0867(9)
H28 H -0.1464 0.5845 -0.1207
C31 C -0.0621(14) 0.6425(7) -0.0111(8)
H29 H -0.1600 0.6578 0.0077
C32 C 0.0694(12) 0.6645(6) 0.0367(7)
H30 H 0.0628 0.6945 0.0887
C33 C 0.5521(12) 0.8173(6) 0.1056(6)
C34 C 0.6037(12) 0.8421(6) 0.1871(6)
H31 H 0.5323 0.8440 0.2302
C35 C 0.7588(12) 0.8644(7) 0.2083(7)
H32 H 0.7923 0.8827 0.2642
C36 C 0.8608(13) 0.8588(7) 0.1445(8)
H33 H 0.9672 0.8707 0.1578
C37 C 0.8114(14) 0.8364(7) 0.0625(7)
H34 H 0.8826 0.8356 0.0192
C38 C 0.6592(12) 0.8150(7) 0.0428(6)
H35 H 0.6263 0.7986 -0.0139
C39 C 0.2801(11) 0.8360(6) -0.0139(6)
C40 C 0.1817(11) 0.9043(6) -0.0059(6)
H36 H 0.1597 0.9231 0.0494
C41 C 0.1170(12) 0.9443(7) -0.0760(7)
H37 H 0.0486 0.9901 -0.0701
C42 C 0.1523(12) 0.9172(6) -0.1571(7)
H38 H 0.1056 0.9436 -0.2068
C43 C 0.2553(12) 0.8520(7) -0.1648(6)
H39 H 0.2853 0.8359 -0.2195
C44 C 0.3133(12) 0.8113(6) -0.0938(7)
H40 H 0.3788 0.7643 -0.0997
Cl1 Cl 0.6624(4) 0.7441(2) 0.7984(3)
Cl2 Cl 0.9288(5) 0.7352(3) 0.6981(3)
C45 C 0.8486(15) 0.7851(8) 0.7822(8)
H41 H 0.8401 0.8459 0.7701
H42 H 0.9171 0.7776 0.8349
loop_
_geom_bond_atom_site_label_1
_geom_bond_atom_site_label_2
_geom_bond_site_symmetry_1
_geom_bond_site_symmetry_2
Br1 C6 1_555 1_555
N1 N2 1_555 1_555
N2 H1 1_555 1_555
O1 P1 1_555 1_555
O2 C4 1_555 1_555
P1 C1 1_555 1_555
C1 N1 1_555 1_555
H2 C1 1_555 1_555
C2 N1 1_555 1_555
H3 C2 1_555 1_555
H4 C2 1_555 1_555
C3 C2 1_555 1_555
H5 C3 1_555 1_555
H6 C3 1_555 1_555
C4 N2 1_555 1_555
C5 C1 1_555 1_555
C6 C5 1_555 1_555
C7 C6 1_555 1_555
H7 C7 1_555 1_555
C8 C7 1_555 1_555
H8 C8 1_555 1_555
C9 C8 1_555 1_555
H9 C9 1_555 1_555
C10 C5 1_555 1_555
H10 C10 1_555 1_555
C11 P1 1_555 1_555
C12 C11 1_555 1_555
H11 C12 1_555 1_555
C13 C12 1_555 1_555
H12 C13 1_555 1_555
C14 C13 1_555 1_555
H13 C14 1_555 1_555
C15 C14 1_555 1_555
H14 C15 1_555 1_555
C16 C11 1_555 1_555
H15 C16 1_555 1_555
C17 P1 1_555 1_555
C18 C17 1_555 1_555
H16 C18 1_555 1_555
C19 C18 1_555 1_555
H17 C19 1_555 1_555
C20 C19 1_555 1_555
H18 C20 1_555 1_555
C21 C20 1_555 1_555
H19 C21 1_555 1_555
C22 C17 1_555 1_555
H20 C22 1_555 1_555
Br2 C28 1_555 1_555
N3 N4 1_555 1_555
N4 H21 1_555 1_555
O3 P2 1_555 1_555
O4 C26 1_555 1_555
P2 C23 1_555 1_555
C23 N3 1_555 1_555
H22 C23 1_555 1_555
C24 N3 1_555 1_555
H23 C24 1_555 1_555
H24 C24 1_555 1_555
C25 C24 1_555 1_555
H25 C25 1_555 1_555
H26 C25 1_555 1_555
C26 N4 1_555 1_555
C27 C23 1_555 1_555
C28 C27 1_555 1_555
C29 C28 1_555 1_555
H27 C29 1_555 1_555
C30 C29 1_555 1_555
H28 C30 1_555 1_555
C31 C30 1_555 1_555
H29 C31 1_555 1_555
C32 C27 1_555 1_555
H30 C32 1_555 1_555
C33 P2 1_555 1_555
C34 C33 1_555 1_555
H31 C34 1_555 1_555
C35 C34 1_555 1_555
H32 C35 1_555 1_555
C36 C35 1_555 1_555
H33 C36 1_555 1_555
C37 C36 1_555 1_555
H34 C37 1_555 1_555
C38 C33 1_555 1_555
H35 C38 1_555 1_555
C39 P2 1_555 1_555
C40 C39 1_555 1_555
H36 C40 1_555 1_555
C41 C40 1_555 1_555
H37 C41 1_555 1_555
C42 C41 1_555 1_555
H38 C42 1_555 1_555
C43 C42 1_555 1_555
H39 C43 1_555 1_555
C44 C39 1_555 1_555
H40 C44 1_555 1_555
Cl1 C45 1_555 1_555
Cl2 C45 1_555 1_555
C45 H41 1_555 1_555
H42 C45 1_555 1_555
C3 C4 1_555 1_555
C9 C10 1_555 1_555
C15 C16 1_555 1_555
C21 C22 1_555 1_555
C25 C26 1_555 1_555
C31 C32 1_555 1_555
C37 C38 1_555 1_555
C43 C44 1_555 1_555

#END
