
#######################################################################
#
#                 Cambridge Crystallographic Data Centre
#                                CCDC 
#
#######################################################################
#
# If this CIF has been generated from an entry in the Cambridge 
# Structural Database, then it will include bibliographic, chemical, 
# crystal, experimental, refinement or atomic coordinate data resulting 
# from the CCDC's data processing and validation procedures.
#
#######################################################################

data_DOPSIM
_chemical_formula_moiety         'C20 H16 N2 O4 S1'
_chemical_name_systematic        
2-((5-(dimethylamino)-1-naphthyl)sulfonyl)-1H-isoindole-1,3(2H)-dione
_symmetry_cell_setting           orthorhombic
_symmetry_space_group_name_H-M   'P b c a'
_symmetry_Int_Tables_number      61
_space_group_name_Hall           '-P 2ac 2ab'
loop_
_symmetry_equiv_pos_site_id
_symmetry_equiv_pos_as_xyz
1 x,y,z
2 1/2-x,-y,1/2+z
3 1/2+x,1/2-y,-z
4 -x,1/2+y,1/2-z
5 -x,-y,-z
6 1/2+x,y,1/2-z
7 1/2-x,1/2+y,z
8 x,1/2-y,1/2+z
_cell_length_a                   10.0878(14)
_cell_length_b                   12.7641(16)
_cell_length_c                   28.139(4)
_cell_angle_alpha                90
_cell_angle_beta                 90
_cell_angle_gamma                90
_cell_volume                     3623.23
_cell_formula_units_Z            8
loop_
_atom_site_label
_atom_site_type_symbol
_atom_site_fract_x
_atom_site_fract_y
_atom_site_fract_z
S1 S -0.08092(5) 0.54348(4) 0.566710(18)
O1 O -0.11964(14) 0.43742(12) 0.57378(5)
O2 O -0.12654(14) 0.59720(13) 0.52544(5)
O3 O 0.14420(15) 0.37828(12) 0.59357(6)
O4 O 0.10942(15) 0.71658(12) 0.53744(6)
N1 N 0.08540(15) 0.54452(13) 0.56465(6)
N2 N -0.1276(2) 0.69447(15) 0.78736(6)
C1 C -0.11668(19) 0.62080(16) 0.61708(7)
C2 C 0.1748(2) 0.46124(16) 0.57738(7)
C3 C 0.29921(19) 0.60352(15) 0.54990(7)
C4 C 0.1583(2) 0.63472(16) 0.54834(7)
C5 C 0.30860(19) 0.50272(15) 0.56734(7)
C6 C -0.09532(19) 0.58320(16) 0.66441(7)
C7 C -0.12282(19) 0.65447(16) 0.70233(7)
C8 C 0.4101(2) 0.66112(17) 0.53795(7)
H1 H 0.4036 0.7291 0.5262
C9 C 0.4292(2) 0.45482(17) 0.57401(8)
H2 H 0.4354 0.3871 0.5860
C10 C -0.1651(2) 0.75696(18) 0.69140(8)
H3 H -0.1801 0.8039 0.7161
C11 C -0.0458(2) 0.48268(17) 0.67540(8)
H4 H -0.0279 0.4353 0.6511
C12 C -0.1604(2) 0.72094(17) 0.60839(8)
H5 H -0.1738 0.7431 0.5773
C13 C -0.1848(2) 0.78949(18) 0.64595(8)
H6 H -0.2143 0.8572 0.6399
C14 C -0.1014(2) 0.62165(17) 0.75051(7)
C15 C 0.5414(2) 0.51212(19) 0.56212(8)
H7 H 0.6246 0.4822 0.5663
C16 C 0.5321(2) 0.61225(19) 0.54433(8)
H8 H 0.6092 0.6481 0.5364
C17 C -0.0243(3) 0.45490(19) 0.72125(9)
H9 H 0.0088 0.3885 0.7279
C18 C -0.0506(3) 0.52363(19) 0.75887(8)
H10 H -0.0334 0.5026 0.7899
C19 C -0.2678(3) 0.7091(3) 0.79788(11)
H11 H -0.3160 0.7178 0.7687
H12 H -0.2789 0.7702 0.8174
H13 H -0.3008 0.6488 0.8145
C20 C -0.0506(3) 0.6789(2) 0.83084(8)
H14 H -0.0834 0.6186 0.8475
H15 H -0.0587 0.7396 0.8508
H16 H 0.0410 0.6682 0.8228
loop_
_geom_bond_atom_site_label_1
_geom_bond_atom_site_label_2
_geom_bond_site_symmetry_1
_geom_bond_site_symmetry_2
S1 O1 1_555 1_555
O2 S1 1_555 1_555
O3 C2 1_555 1_555
O4 C4 1_555 1_555
N1 S1 1_555 1_555
N2 C14 1_555 1_555
C1 S1 1_555 1_555
C2 N1 1_555 1_555
C3 C4 1_555 1_555
C4 N1 1_555 1_555
C5 C2 1_555 1_555
C6 C1 1_555 1_555
C7 C6 1_555 1_555
C8 C3 1_555 1_555
H1 C8 1_555 1_555
C9 C5 1_555 1_555
H2 C9 1_555 1_555
C10 C7 1_555 1_555
H3 C10 1_555 1_555
C11 C6 1_555 1_555
H4 C11 1_555 1_555
C12 C1 1_555 1_555
H5 C12 1_555 1_555
C13 C10 1_555 1_555
H6 C13 1_555 1_555
C14 C7 1_555 1_555
C15 C9 1_555 1_555
H7 C15 1_555 1_555
C16 C8 1_555 1_555
H8 C16 1_555 1_555
C17 C11 1_555 1_555
H9 C17 1_555 1_555
C18 C14 1_555 1_555
H10 C18 1_555 1_555
C19 N2 1_555 1_555
H11 C19 1_555 1_555
H12 C19 1_555 1_555
H13 C19 1_555 1_555
C20 N2 1_555 1_555
H14 C20 1_555 1_555
H15 C20 1_555 1_555
H16 C20 1_555 1_555
C3 C5 1_555 1_555
C12 C13 1_555 1_555
C15 C16 1_555 1_555
C17 C18 1_555 1_555

#END
