
#######################################################################
#
#                 Cambridge Crystallographic Data Centre
#                                CCDC 
#
#######################################################################
#
# If this CIF has been generated from an entry in the Cambridge 
# Structural Database, then it will include bibliographic, chemical, 
# crystal, experimental, refinement or atomic coordinate data resulting 
# from the CCDC's data processing and validation procedures.
#
#######################################################################

data_DOQKEA
_chemical_formula_moiety         'C24 H38 N4 O4 2+,2(Cl1 1-),3.25(H2 O1)'
_chemical_name_systematic        
"2,2'-(1,5-Naphthalenediylbis(oxy(1-oxo-2,1-ethanediyl)imino))bis(N,N,N-trimethylethanaminium) dichloride hydrate"
_symmetry_cell_setting           triclinic
_symmetry_space_group_name_H-M   'P -1'
_symmetry_Int_Tables_number      2
_space_group_name_Hall           '-P 1'
loop_
_symmetry_equiv_pos_site_id
_symmetry_equiv_pos_as_xyz
1 x,y,z
2 -x,-y,-z
_cell_length_a                   10.5572(3)
_cell_length_b                   11.3888(3)
_cell_length_c                   13.1194(4)
_cell_angle_alpha                73.187(2)
_cell_angle_beta                 82.840(2)
_cell_angle_gamma                83.681(2)
_cell_volume                     1493.64
_exptl_crystal_colour            colorless
_exptl_crystal_description       block
_chemical_melting_point          'above 250deg.C(dec.)'
_cell_formula_units_Z            2
_exptl_crystal_recrystallization_method methanol
loop_
_atom_site_label
_atom_site_type_symbol
_atom_site_fract_x
_atom_site_fract_y
_atom_site_fract_z
Cl1 Cl 0.04311(5) 0.15013(4) 0.10642(4)
Cl2 Cl -0.03380(5) 0.31076(5) 0.44055(4)
O1 O -0.53269(12) 0.02604(11) 0.12962(10)
O2 O -0.54009(14) 0.34197(12) 0.11908(14)
O3 O -0.48980(12) -0.51583(11) 0.34218(11)
O4 O -0.41612(15) -0.83669(12) 0.44798(13)
N1 N -0.38697(14) 0.21494(13) 0.06169(12)
H1 H -0.3671 0.1421 0.0508
N2 N -0.18653(14) 0.45471(14) -0.13266(12)
N3 N -0.57921(15) -0.70673(14) 0.48865(12)
H2 H -0.6189 -0.6328 0.4690
N4 N -0.81062(15) -0.94372(14) 0.64238(12)
C1 C -0.57768(17) -0.08178(16) 0.19647(14)
C2 C -0.69002(18) -0.08662(17) 0.26181(16)
H3 H -0.7454 -0.0143 0.2587
C3 C -0.72272(18) -0.20032(17) 0.33398(16)
H4 H -0.7998 -0.2034 0.3802
C4 C -0.64544(17) -0.30593(16) 0.33850(14)
H5 H -0.6681 -0.3812 0.3885
C5 C -0.44799(17) -0.41046(15) 0.26961(14)
C6 C -0.33631(18) -0.40632(17) 0.20316(15)
H6 H -0.2820 -0.4790 0.2050
C7 C -0.30335(18) -0.29239(17) 0.13202(14)
H7 H -0.2258 -0.2892 0.0864
C8 C -0.38047(17) -0.18616(16) 0.12710(14)
H8 H -0.3565 -0.1107 0.0783
C9 C -0.49631(16) -0.18956(15) 0.19532(13)
C10 C -0.53146(16) -0.30283(15) 0.26832(13)
C11 C -0.59126(17) 0.13732(16) 0.14913(16)
H9 H -0.6128 0.1242 0.2270
H10 H -0.6718 0.1607 0.1142
C12 C -0.50289(17) 0.24035(16) 0.10643(15)
C13 C -0.29249(17) 0.30606(17) 0.03041(15)
H11 H -0.2059 0.2648 0.0426
H12 H -0.3108 0.3645 0.0745
C14 C -0.29698(17) 0.37545(17) -0.08735(15)
H13 H -0.2968 0.3153 -0.1288
H14 H -0.3782 0.4282 -0.0962
C15 C -0.1716(2) 0.53479(18) -0.06297(17)
H15 H -0.1430 0.4836 0.0053
H16 H -0.2539 0.5795 -0.0499
H17 H -0.1079 0.5937 -0.0987
C16 C -0.2153(2) 0.5356(2) -0.24107(16)
H18 H -0.1428 0.5851 -0.2738
H19 H -0.2923 0.5901 -0.2338
H20 H -0.2294 0.4843 -0.2865
C17 C -0.0644(2) 0.3779(2) -0.1449(2)
H21 H -0.0451 0.3237 -0.0747
H22 H 0.0054 0.4316 -0.1751
H23 H -0.0735 0.3281 -0.1929
C18 C -0.41113(19) -0.62724(16) 0.34854(16)
H24 H -0.3252 -0.6181 0.3668
H25 H -0.4009 -0.6448 0.2782
C19 C -0.47061(18) -0.73273(17) 0.43259(15)
C20 C -0.63326(18) -0.79811(17) 0.58145(14)
H26 H -0.6775 -0.7568 0.6343
H27 H -0.5636 -0.8560 0.6156
C21 C -0.72775(18) -0.86899(17) 0.54852(14)
H28 H -0.7837 -0.8100 0.4988
H29 H -0.6796 -0.9250 0.5095
C22 C -0.89982(19) -0.86205(19) 0.69515(18)
H30 H -0.9580 -0.9123 0.7507
H31 H -0.9497 -0.8034 0.6416
H32 H -0.8501 -0.8171 0.7276
C23 C -0.8889(2) -1.0171(2) 0.59946(19)
H33 H -0.9464 -1.0642 0.6578
H34 H -0.8320 -1.0738 0.5676
H35 H -0.9396 -0.9615 0.5448
C24 C -0.73140(19) -1.03015(17) 0.72375(15)
H36 H -0.7873 -1.0834 0.7791
H37 H -0.6851 -0.9828 0.7566
H38 H -0.6700 -1.0808 0.6888
O5 O -0.11337(15) 0.35197(14) 0.20743(12)
H39 H -0.090(3) 0.343(3) 0.2783(16)
H40 H -0.071(3) 0.284(2) 0.181(2)
O6 O -1.17731(16) -0.94411(18) 1.00013(18)
H41 H -1.149(3) -1.008(2) 0.965(2)
H42 H -1.104(2) -0.923(3) 1.029(2)
O7 O 0.18275(15) 0.44630(15) 0.51210(15)
H43 H 0.121(3) 0.405(3) 0.490(3)
H44 H 0.145(3) 0.515(2) 0.537(3)
O8 O 0.1583(6) 0.1645(6) 0.3142(5)
H45 H 0.118(9) 0.158(11) 0.251(6)
H46 H 0.091(8) 0.200(11) 0.361(7)
loop_
_geom_bond_atom_site_label_1
_geom_bond_atom_site_label_2
_geom_bond_site_symmetry_1
_geom_bond_site_symmetry_2
O1 C1 1_555 1_555
O2 C12 1_555 1_555
O3 C5 1_555 1_555
O4 C19 1_555 1_555
N1 H1 1_555 1_555
N2 C14 1_555 1_555
N3 H2 1_555 1_555
N4 C21 1_555 1_555
C1 C2 1_555 1_555
C2 H3 1_555 1_555
C3 C2 1_555 1_555
H4 C3 1_555 1_555
C4 C3 1_555 1_555
H5 C4 1_555 1_555
C5 C6 1_555 1_555
C6 H6 1_555 1_555
C7 C6 1_555 1_555
H7 C7 1_555 1_555
C8 C7 1_555 1_555
H8 C8 1_555 1_555
C9 C1 1_555 1_555
C10 C4 1_555 1_555
C11 O1 1_555 1_555
H9 C11 1_555 1_555
H10 C11 1_555 1_555
C12 N1 1_555 1_555
C13 N1 1_555 1_555
H11 C13 1_555 1_555
H12 C13 1_555 1_555
C14 C13 1_555 1_555
H13 C14 1_555 1_555
H14 C14 1_555 1_555
C15 N2 1_555 1_555
H15 C15 1_555 1_555
H16 C15 1_555 1_555
H17 C15 1_555 1_555
C16 N2 1_555 1_555
H18 C16 1_555 1_555
H19 C16 1_555 1_555
H20 C16 1_555 1_555
C17 N2 1_555 1_555
H21 C17 1_555 1_555
H22 C17 1_555 1_555
H23 C17 1_555 1_555
C18 O3 1_555 1_555
H24 C18 1_555 1_555
H25 C18 1_555 1_555
C19 N3 1_555 1_555
C20 N3 1_555 1_555
H26 C20 1_555 1_555
H27 C20 1_555 1_555
C21 C20 1_555 1_555
H28 C21 1_555 1_555
H29 C21 1_555 1_555
C22 N4 1_555 1_555
H30 C22 1_555 1_555
H31 C22 1_555 1_555
H32 C22 1_555 1_555
C23 N4 1_555 1_555
H33 C23 1_555 1_555
H34 C23 1_555 1_555
H35 C23 1_555 1_555
C24 N4 1_555 1_555
H36 C24 1_555 1_555
H37 C24 1_555 1_555
H38 C24 1_555 1_555
O5 H39 1_555 1_555
H40 O5 1_555 1_555
O6 H41 1_555 1_555
H42 O6 1_555 1_555
O7 H43 1_555 1_555
H44 O7 1_555 1_555
O8 H45 1_555 1_555
H46 O8 1_555 1_555
C5 C10 1_555 1_555
C8 C9 1_555 1_555
C9 C10 1_555 1_555
C11 C12 1_555 1_555
C18 C19 1_555 1_555

#END
