
#######################################################################
#
#                 Cambridge Crystallographic Data Centre
#                                CCDC 
#
#######################################################################
#
# If this CIF has been generated from an entry in the Cambridge 
# Structural Database, then it will include bibliographic, chemical, 
# crystal, experimental, refinement or atomic coordinate data resulting 
# from the CCDC's data processing and validation procedures.
#
#######################################################################

data_DOQNED
_chemical_formula_moiety         'C15 H16 O3 S1'
_chemical_name_systematic        
(1R,2S)-1-Phenyl-2-(phenylsulfonyl)-1-propanol
_symmetry_cell_setting           monoclinic
_symmetry_space_group_name_H-M   'P 21'
_symmetry_Int_Tables_number      4
_space_group_name_Hall           'P 2yb'
loop_
_symmetry_equiv_pos_site_id
_symmetry_equiv_pos_as_xyz
1 x,y,z
2 -x,1/2+y,-z
_cell_length_a                   10.4899(19)
_cell_length_b                   11.433(2)
_cell_length_c                   11.813(2)
_cell_angle_alpha                90
_cell_angle_beta                 100.702(4)
_cell_angle_gamma                90
_cell_volume                     1392.1
_exptl_crystal_colour            colorless
_exptl_crystal_description       block
_cell_formula_units_Z            4
_exptl_crystal_recrystallization_method 'ethyl acetate/petroleum'
loop_
_atom_site_label
_atom_site_type_symbol
_atom_site_fract_x
_atom_site_fract_y
_atom_site_fract_z
S1 S 0.56153(8) 0.16372(8) 0.10842(7)
O1 O 0.8684(2) 0.1385(3) 0.2058(2)
H1 H 0.8615 0.1432 0.1357
O2 O 0.6134(2) 0.0691(3) 0.0490(2)
O3 O 0.5538(3) 0.2783(3) 0.0575(2)
C1 C 0.7916(3) 0.2254(3) 0.2446(3)
H3 H 0.7817 0.2908 0.1901
C2 C 0.6561(3) 0.1769(3) 0.2515(3)
H4 H 0.6129 0.2345 0.2930
C3 C 0.6612(4) 0.0628(4) 0.3166(3)
H5 H 0.7038 0.0047 0.2782
H6 H 0.5746 0.0375 0.3194
H7 H 0.7085 0.0738 0.3936
C4 C 0.4057(3) 0.1205(3) 0.1286(3)
C5 C 0.3231(3) 0.2015(4) 0.1631(3)
H8 H 0.3487 0.2791 0.1750
C6 C 0.2028(3) 0.1665(4) 0.1797(3)
H9 H 0.1467 0.2206 0.2031
C7 C 0.1652(4) 0.0532(4) 0.1623(3)
H10 H 0.0842 0.0299 0.1755
C8 C 0.2456(4) -0.0272(4) 0.1254(4)
H11 H 0.2181 -0.1040 0.1117
C9 C 0.3679(3) 0.0058(3) 0.1083(3)
H12 H 0.4231 -0.0482 0.0837
C10 C 0.8602(3) 0.2691(3) 0.3617(3)
C11 C 0.9720(4) 0.2183(4) 0.4182(4)
H13 H 1.0070 0.1552 0.3848
C12 C 1.0339(5) 0.2598(5) 0.5244(4)
H14 H 1.1088 0.2227 0.5621
C13 C 0.9884(5) 0.3519(5) 0.5739(4)
H15 H 1.0315 0.3795 0.6448
C14 C 0.8764(5) 0.4054(5) 0.5182(5)
H16 H 0.8432 0.4696 0.5515
C15 C 0.8133(4) 0.3634(4) 0.4121(4)
H17 H 0.7379 0.4001 0.3748
S2 S 0.08339(9) 0.59433(8) 0.10946(7)
O4 O 0.3693(3) 0.5040(2) 0.1824(2)
H2 H 0.3785 0.5075 0.1151
O5 O 0.0659(3) 0.4727(3) 0.0843(3)
O6 O 0.1278(2) 0.6701(3) 0.0265(2)
C16 C 0.3340(3) 0.6154(3) 0.2184(3)
H18 H 0.3372 0.6715 0.1563
C17 C 0.1957(3) 0.6135(3) 0.2432(3)
H19 H 0.1788 0.6903 0.2742
C18 C 0.1733(4) 0.5217(4) 0.3309(3)
H20 H 0.1890 0.4453 0.3027
H21 H 0.0854 0.5265 0.3427
H22 H 0.2315 0.5355 0.4025
C19 C -0.0645(3) 0.6512(3) 0.1335(3)
C20 C -0.0915(4) 0.7675(4) 0.1091(3)
H23 H -0.0315 0.8143 0.0815
C21 C -0.2084(4) 0.8142(4) 0.1258(4)
H24 H -0.2268 0.8927 0.1100
C22 C -0.2951(4) 0.7460(6) 0.1648(4)
H25 H -0.3730 0.7779 0.1769
C23 C -0.2700(4) 0.6311(6) 0.1867(4)
H26 H -0.3319 0.5846 0.2121
C24 C -0.1534(4) 0.5819(4) 0.1719(3)
H27 H -0.1362 0.5032 0.1878
C25 C 0.4285(3) 0.6547(3) 0.3245(3)
C26 C 0.5069(4) 0.5771(4) 0.3933(4)
H28 H 0.5030 0.4980 0.3743
C27 C 0.5919(4) 0.6144(6) 0.4908(4)
H29 H 0.6436 0.5604 0.5372
C28 C 0.5997(5) 0.7291(6) 0.5183(4)
H30 H 0.6557 0.7538 0.5844
C29 C 0.5268(6) 0.8077(5) 0.4505(4)
H31 H 0.5347 0.8869 0.4681
C30 C 0.4395(5) 0.7701(4) 0.3541(4)
H32 H 0.3875 0.8248 0.3089
loop_
_geom_bond_atom_site_label_1
_geom_bond_atom_site_label_2
_geom_bond_site_symmetry_1
_geom_bond_site_symmetry_2
S1 O2 1_555 1_555
S2 O5 1_555 1_555
O1 H1 1_555 1_555
O3 S1 1_555 1_555
O4 H2 1_555 1_555
O6 S2 1_555 1_555
C1 O1 1_555 1_555
H3 C1 1_555 1_555
C2 S1 1_555 1_555
H4 C2 1_555 1_555
C3 C2 1_555 1_555
H5 C3 1_555 1_555
H6 C3 1_555 1_555
H7 C3 1_555 1_555
C4 S1 1_555 1_555
C5 C4 1_555 1_555
H8 C5 1_555 1_555
C6 C5 1_555 1_555
H9 C6 1_555 1_555
C7 C6 1_555 1_555
H10 C7 1_555 1_555
C8 C7 1_555 1_555
H11 C8 1_555 1_555
C9 C4 1_555 1_555
H12 C9 1_555 1_555
C10 C1 1_555 1_555
C11 C10 1_555 1_555
H13 C11 1_555 1_555
C12 C11 1_555 1_555
H14 C12 1_555 1_555
C13 C12 1_555 1_555
H15 C13 1_555 1_555
C14 C13 1_555 1_555
H16 C14 1_555 1_555
C15 C10 1_555 1_555
H17 C15 1_555 1_555
C16 O4 1_555 1_555
H18 C16 1_555 1_555
C17 S2 1_555 1_555
H19 C17 1_555 1_555
C18 C17 1_555 1_555
H20 C18 1_555 1_555
H21 C18 1_555 1_555
H22 C18 1_555 1_555
C19 S2 1_555 1_555
C20 C19 1_555 1_555
H23 C20 1_555 1_555
C21 C20 1_555 1_555
H24 C21 1_555 1_555
C22 C21 1_555 1_555
H25 C22 1_555 1_555
C23 C22 1_555 1_555
H26 C23 1_555 1_555
C24 C19 1_555 1_555
H27 C24 1_555 1_555
C25 C16 1_555 1_555
C26 C25 1_555 1_555
H28 C26 1_555 1_555
C27 C26 1_555 1_555
H29 C27 1_555 1_555
C28 C27 1_555 1_555
H30 C28 1_555 1_555
C29 C28 1_555 1_555
H31 C29 1_555 1_555
C30 C25 1_555 1_555
H32 C30 1_555 1_555
C1 C2 1_555 1_555
C8 C9 1_555 1_555
C14 C15 1_555 1_555
C16 C17 1_555 1_555
C23 C24 1_555 1_555
C29 C30 1_555 1_555

#END
