
#######################################################################
#
#                 Cambridge Crystallographic Data Centre
#                                CCDC 
#
#######################################################################
#
# If this CIF has been generated from an entry in the Cambridge 
# Structural Database, then it will include bibliographic, chemical, 
# crystal, experimental, refinement or atomic coordinate data resulting 
# from the CCDC's data processing and validation procedures.
#
#######################################################################

data_DOQYIT
_chemical_formula_moiety         'C20 H13 Br1 N4 S1,C1 H1 Cl3'
_chemical_name_systematic        
'1-Allyl-2-(5-bromo-2-thienyl)-1H-imidazo[4,5-f][1,10]phenanthroline chloroform solvate'
_symmetry_cell_setting           triclinic
_symmetry_space_group_name_H-M   'P -1'
_symmetry_Int_Tables_number      2
_space_group_name_Hall           '-P 1'
loop_
_symmetry_equiv_pos_site_id
_symmetry_equiv_pos_as_xyz
1 x,y,z
2 -x,-y,-z
_cell_length_a                   10.4047(14)
_cell_length_b                   11.1026(15)
_cell_length_c                   11.5275(15)
_cell_angle_alpha                108.065(2)
_cell_angle_beta                 91.890(2)
_cell_angle_gamma                114.925(2)
_cell_volume                     1127.21
_exptl_crystal_colour            yellow
_exptl_crystal_description       block
_cell_formula_units_Z            2
loop_
_atom_site_label
_atom_site_type_symbol
_atom_site_fract_x
_atom_site_fract_y
_atom_site_fract_z
Br1 Br 0.96145(6) -0.08433(5) 0.31655(5)
C1 C 0.5600(4) 0.8112(4) 0.4944(4)
H1 H 0.5214 0.8744 0.5011
C2 C 0.5723(4) 0.7380(4) 0.3772(4)
H2 H 0.5459 0.7543 0.3078
C3 C 0.6245(4) 0.6406(4) 0.3658(3)
H3 H 0.6329 0.5895 0.2880
C4 C 0.6648(3) 0.6186(3) 0.4711(3)
C5 C 0.7189(3) 0.5200(3) 0.4744(3)
C6 C 0.7623(3) 0.5080(3) 0.5829(3)
C7 C 0.7514(3) 0.5920(3) 0.7012(3)
C8 C 0.7912(4) 0.5819(4) 0.8133(3)
H4 H 0.8259 0.5175 0.8148
C9 C 0.7781(4) 0.6690(4) 0.9211(4)
H5 H 0.8027 0.6640 0.9971
C10 C 0.7273(4) 0.7654(4) 0.9155(4)
H6 H 0.7217 0.8255 0.9899
C11 C 0.6985(3) 0.6911(3) 0.7039(3)
C12 C 0.6532(3) 0.7025(3) 0.5883(3)
C13 C 0.7995(3) 0.3592(3) 0.4380(3)
C14 C 0.8441(3) 0.2528(3) 0.3721(3)
C15 C 0.8889(4) 0.2291(4) 0.2616(3)
H7 H 0.8931 0.2816 0.2115
C16 C 0.9284(4) 0.1179(4) 0.2297(4)
H8 H 0.9597 0.0878 0.1566
C17 C 0.9149(4) 0.0614(3) 0.3181(3)
C18 C 0.6837(4) 0.3697(4) 0.2472(3)
H9 H 0.5910 0.3702 0.2377
H10 H 0.6667 0.2717 0.2110
C19 C 0.7752(5) 0.4506(4) 0.1756(4)
H11 H 0.7357 0.4249 0.0929
C20 C 0.9033(5) 0.5524(5) 0.2161(5)
H12 H 0.9474 0.5819 0.2981
H13 H 0.9523 0.5968 0.1635
N1 N 0.5999(3) 0.7967(3) 0.5974(3)
N2 N 0.6869(3) 0.7766(3) 0.8112(3)
N3 N 0.7417(3) 0.4217(3) 0.3797(2)
N4 N 0.8125(3) 0.4080(3) 0.5598(2)
S1 S 0.85303(12) 0.13902(11) 0.44079(9)
C21 C 0.6660(4) 0.0758(4) 0.8189(3)
H14 H 0.6534 -0.0192 0.7695
Cl1 Cl 0.71627(12) 0.18278(11) 0.72843(11)
Cl2 Cl 0.8004(2) 0.14790(16) 0.94879(12)
Cl3 Cl 0.50134(18) 0.06172(18) 0.8615(2)
loop_
_geom_bond_atom_site_label_1
_geom_bond_atom_site_label_2
_geom_bond_site_symmetry_1
_geom_bond_site_symmetry_2
Br1 C17 1_555 1_555
C1 H1 1_555 1_555
C2 C1 1_555 1_555
H2 C2 1_555 1_555
C3 C2 1_555 1_555
H3 C3 1_555 1_555
C4 C3 1_555 1_555
C5 C4 1_555 1_555
C6 C5 1_555 1_555
C7 C6 1_555 1_555
C8 C7 1_555 1_555
H4 C8 1_555 1_555
C9 C8 1_555 1_555
H5 C9 1_555 1_555
C10 C9 1_555 1_555
H6 C10 1_555 1_555
C11 C7 1_555 1_555
C12 C4 1_555 1_555
C13 C14 1_555 1_555
C14 C15 1_555 1_555
C15 H7 1_555 1_555
C16 C15 1_555 1_555
H8 C16 1_555 1_555
C17 C16 1_555 1_555
C18 H9 1_555 1_555
H10 C18 1_555 1_555
C19 C18 1_555 1_555
H11 C19 1_555 1_555
C20 C19 1_555 1_555
H12 C20 1_555 1_555
H13 C20 1_555 1_555
N1 C1 1_555 1_555
N2 C10 1_555 1_555
N3 C5 1_555 1_555
N4 C6 1_555 1_555
S1 C14 1_555 1_555
C21 H14 1_555 1_555
Cl1 C21 1_555 1_555
Cl2 C21 1_555 1_555
Cl3 C21 1_555 1_555
C11 C12 1_555 1_555
C11 N2 1_555 1_555
C12 N1 1_555 1_555
C13 N3 1_555 1_555
C13 N4 1_555 1_555
C17 S1 1_555 1_555
C18 N3 1_555 1_555

#END
