
#######################################################################
#
#                 Cambridge Crystallographic Data Centre
#                                CCDC 
#
#######################################################################
#
# If this CIF has been generated from an entry in the Cambridge 
# Structural Database, then it will include bibliographic, chemical, 
# crystal, experimental, refinement or atomic coordinate data resulting 
# from the CCDC's data processing and validation procedures.
#
#######################################################################

data_DOQYAK
_chemical_formula_moiety         'C110 H66,3(C5 H12)'
_chemical_name_systematic        
'1,6,9,12,15,18-hexahydro-6,9,12,15,18-pentakis(4-t-butylphenyl)C60fullerene n-pentane solvate'
_symmetry_cell_setting           orthorhombic
_symmetry_space_group_name_H-M   'P n m a'
_symmetry_Int_Tables_number      62
_space_group_name_Hall           '-P 2ac 2n'
loop_
_symmetry_equiv_pos_site_id
_symmetry_equiv_pos_as_xyz
1 x,y,z
2 1/2-x,-y,1/2+z
3 -x,1/2+y,-z
4 1/2+x,1/2-y,1/2-z
5 -x,-y,-z
6 1/2+x,y,1/2-z
7 x,1/2-y,z
8 1/2-x,1/2+y,1/2+z
_cell_length_a                   21.661(3)
_cell_length_b                   22.721(4)
_cell_length_c                   17.128(3)
_cell_angle_alpha                90
_cell_angle_beta                 90
_cell_angle_gamma                90
_cell_volume                     8429.71
_cell_formula_units_Z            4
_exptl_crystal_recrystallization_method n-pentane/1-chloronaphthalene
loop_
_atom_site_label
_atom_site_type_symbol
_atom_site_fract_x
_atom_site_fract_y
_atom_site_fract_z
C1 C 0.17424(10) 0.64932(10) 0.85742(13)
C2 C 0.17503(10) 0.69824(10) 0.90411(13)
C3 C 0.22018(14) 0.7500 0.89581(18)
C4 C 0.24597(18) 0.7500 0.81253(19)
C5 C 0.24168(11) 0.69873(10) 0.76212(14)
C6 C 0.21854(10) 0.63882(10) 0.78802(13)
C7 C 0.17194(10) 0.61726(10) 0.72614(14)
C8 C 0.17082(10) 0.63571(10) 0.65041(14)
C9 C 0.21526(10) 0.68185(10) 0.61601(13)
C10 C 0.23790(10) 0.71861(10) 0.68371(13)
C11 C 0.16908(10) 0.72000(11) 0.56983(13)
C12 C 0.11206(11) 0.68877(11) 0.55949(14)
C13 C 0.11280(11) 0.63719(11) 0.60869(14)
C14 C 0.05842(11) 0.61729(11) 0.64339(15)
C15 C 0.05974(11) 0.59779(11) 0.72284(16)
C16 C 0.11553(11) 0.59956(10) 0.76358(15)
C17 C 0.11676(11) 0.61900(10) 0.84365(14)
C18 C 0.06238(11) 0.63644(11) 0.88049(15)
C19 C 0.06351(11) 0.68780(12) 0.92975(14)
C20 C 0.11857(11) 0.71846(10) 0.93927(13)
C21 C 0.00595(11) 0.71947(12) 0.91833(15)
C22 C -0.03043(11) 0.68738(13) 0.86129(17)
C23 C 0.00452(11) 0.63591(12) 0.83795(17)
C24 C 0.00318(11) 0.61723(12) 0.76093(17)
C25 C -0.03309(11) 0.64888(13) 0.70339(17)
C26 C 0.00083(11) 0.64908(13) 0.63091(17)
C27 C 0.00011(11) 0.69856(13) 0.58327(16)
C28 C 0.05656(11) 0.71855(12) 0.54590(14)
C29 C -0.03483(16) 0.7500 0.6067(2)
C30 C -0.06794(15) 0.7500 0.6765(3)
C31 C -0.06695(11) 0.69836(14) 0.72593(18)
C32 C -0.06563(10) 0.71813(13) 0.80624(18)
C33 C 0.27005(14) 0.7500 0.95940(17)
C34 C 0.31310(19) 0.70156(19) 0.9615(3)
H1 H 0.3109 0.6712 0.9234
C35 C 0.35816(19) 0.69976(19) 1.0202(3)
H2 H 0.3855 0.6672 1.0241
C38 C 0.36261(16) 0.7500 1.0768(2)
C39 C 0.41167(17) 0.7500 1.1408(2)
C40 C 0.45261(13) 0.69529(15) 1.13558(17)
H5 H 0.4272 0.6600 1.1423
H6 H 0.4841 0.6967 1.1767
H7 H 0.4728 0.6941 1.0844
C41 C 0.3793(2) 0.7500 1.2214(2)
H8 H 0.3572 0.7128 1.2285
C42 C 0.26848(10) 0.59313(9) 0.80573(13)
C43 C 0.31416(18) 0.58231(19) 0.7471(3)
H11 H 0.3142 0.6042 0.6999
C44 C 0.35905(19) 0.53861(19) 0.7607(2)
H12 H 0.3883 0.5292 0.7214
C45 C 0.36038(11) 0.50737(11) 0.83686(17)
C46 C 0.3132(2) 0.5171(2) 0.8831(3)
H13 H 0.3096 0.4937 0.9287
C47 C 0.2681(2) 0.5594(2) 0.8698(3)
H14 H 0.2361 0.5645 0.9071
C52 C 0.41000(12) 0.46071(12) 0.85365(18)
C53 C 0.45056(15) 0.45083(14) 0.78160(19)
H19 H 0.4807 0.4197 0.7925
H20 H 0.4724 0.4874 0.7688
H21 H 0.4246 0.4391 0.7374
C54 C 0.45130(15) 0.47993(15) 0.9210(2)
H22 H 0.4829 0.4498 0.9304
H23 H 0.4263 0.4850 0.9682
H24 H 0.4713 0.5173 0.9078
C55 C 0.37893(15) 0.40203(14) 0.8745(3)
H25 H 0.4107 0.3723 0.8848
H26 H 0.3530 0.3891 0.8309
H27 H 0.3533 0.4072 0.9212
C56 C 0.26616(10) 0.65601(10) 0.56450(13)
C57 C 0.2602(2) 0.6027(2) 0.5297(3)
H28 H 0.2245 0.5798 0.5399
C58 C 0.3050(2) 0.5808(2) 0.4796(3)
H29 H 0.2975 0.5447 0.4532
C59 C 0.35932(12) 0.60926(12) 0.46713(17)
C60 C 0.36100(19) 0.6701(2) 0.4909(3)
H30 H 0.3926 0.6953 0.4716
C61 C 0.31699(19) 0.69208(19) 0.5415(3)
C62 C 0.41070(14) 0.58642(15) 0.4126(2)
C63 C 0.3897(3) 0.5363(3) 0.3661(5)
H32 H 0.3500 0.5458 0.3418
H33 H 0.3848 0.5018 0.4000
H34 H 0.4202 0.5276 0.3255
C64 C 0.4112(4) 0.6298(4) 0.3364(5)
H35 H 0.4234 0.6696 0.3524
H36 H 0.3699 0.6311 0.3133
H37 H 0.4407 0.6149 0.2978
C65 C 0.4676(3) 0.5887(5) 0.4489(5)
H38 H 0.4748 0.6285 0.4690
H39 H 0.5000 0.5787 0.4112
H40 H 0.4685 0.5605 0.4922
C1F C 0.17424(10) 0.85068(10) 0.85742(13)
C2F C 0.17503(10) 0.80176(10) 0.90411(13)
C5F C 0.24168(11) 0.80127(10) 0.76212(14)
C6F C 0.21854(10) 0.86118(10) 0.78802(13)
C7F C 0.17194(10) 0.88274(10) 0.72614(14)
C8F C 0.17082(10) 0.86429(10) 0.65041(14)
C9F C 0.21526(10) 0.81815(10) 0.61601(13)
C10F C 0.23790(10) 0.78139(10) 0.68371(13)
C11F C 0.16908(10) 0.78000(11) 0.56983(13)
C12F C 0.11206(11) 0.81123(11) 0.55949(14)
C13F C 0.11280(11) 0.86281(11) 0.60869(14)
C14F C 0.05842(11) 0.88271(11) 0.64339(15)
C15F C 0.05974(11) 0.90221(11) 0.72284(16)
C16F C 0.11553(11) 0.90044(10) 0.76358(15)
C17F C 0.11676(11) 0.88100(10) 0.84365(14)
C18F C 0.06238(11) 0.86356(11) 0.88049(15)
C19F C 0.06351(11) 0.81220(12) 0.92975(14)
C20F C 0.11857(11) 0.78154(10) 0.93927(13)
C21F C 0.00595(11) 0.78053(12) 0.91833(15)
C22F C -0.03043(11) 0.81262(13) 0.86129(17)
C23F C 0.00452(11) 0.86409(12) 0.83795(17)
C24F C 0.00318(11) 0.88277(12) 0.76093(17)
C25F C -0.03309(11) 0.85112(13) 0.70339(17)
C26F C 0.00083(11) 0.85092(13) 0.63091(17)
C27F C 0.00011(11) 0.80144(13) 0.58327(16)
C28F C 0.05656(11) 0.78145(12) 0.54590(14)
C31F C -0.06695(11) 0.80164(14) 0.72593(18)
C32F C -0.06563(10) 0.78187(13) 0.80624(18)
C34F C 0.31310(19) 0.79844(19) 0.9615(3)
H1F H 0.3109 0.8288 0.9234
C35F C 0.35816(19) 0.80024(19) 1.0202(3)
H2F H 0.3855 0.8328 1.0241
C40F C 0.45261(13) 0.80471(15) 1.13558(17)
H5F H 0.4272 0.8400 1.1423
H6F H 0.4841 0.8033 1.1767
H7F H 0.4728 0.8059 1.0844
H8F H 0.3572 0.7872 1.2285
C42F C 0.26848(10) 0.90687(9) 0.80573(13)
C43F C 0.31416(18) 0.91769(19) 0.7471(3)
H11F H 0.3142 0.8958 0.6999
C44F C 0.35905(19) 0.96139(19) 0.7607(2)
H12F H 0.3883 0.9708 0.7214
C45F C 0.36038(11) 0.99263(11) 0.83686(17)
C46F C 0.3132(2) 0.9829(2) 0.8831(3)
H13F H 0.3096 1.0063 0.9287
C47F C 0.2681(2) 0.9406(2) 0.8698(3)
H14F H 0.2361 0.9355 0.9071
C52F C 0.41000(12) 1.03929(12) 0.85365(18)
C53F C 0.45056(15) 1.04917(14) 0.78160(19)
H19F H 0.4807 1.0803 0.7925
H20F H 0.4724 1.0126 0.7688
H21F H 0.4246 1.0609 0.7374
C54F C 0.45130(15) 1.02007(15) 0.9210(2)
H22F H 0.4829 1.0502 0.9304
H23F H 0.4263 1.0150 0.9682
H24F H 0.4713 0.9827 0.9078
C55F C 0.37893(15) 1.09797(14) 0.8745(3)
H25F H 0.4107 1.1277 0.8848
H26F H 0.3530 1.1109 0.8309
H27F H 0.3533 1.0928 0.9212
C56F C 0.26616(10) 0.84399(10) 0.56450(13)
C57F C 0.2602(2) 0.8973(2) 0.5297(3)
H28F H 0.2245 0.9202 0.5399
C58F C 0.3050(2) 0.9192(2) 0.4796(3)
H29F H 0.2975 0.9553 0.4532
C59F C 0.35932(12) 0.89074(12) 0.46713(17)
C60F C 0.36100(19) 0.8299(2) 0.4909(3)
H30F H 0.3926 0.8047 0.4716
C61F C 0.31699(19) 0.80792(19) 0.5415(3)
C62F C 0.41070(14) 0.91358(15) 0.4126(2)
C63F C 0.3897(3) 0.9637(3) 0.3661(5)
H32F H 0.3500 0.9542 0.3418
H33F H 0.3848 0.9982 0.4000
H34F H 0.4202 0.9724 0.3255
C64F C 0.4112(4) 0.8702(4) 0.3364(5)
H35F H 0.4234 0.8304 0.3524
H36F H 0.3699 0.8689 0.3133
H37F H 0.4407 0.8851 0.2978
C65F C 0.4676(3) 0.9113(5) 0.4489(5)
H38F H 0.4748 0.8715 0.4690
H39F H 0.5000 0.9213 0.4112
H40F H 0.4685 0.9395 0.4922
C73 C 0.36513(16) 0.53470(16) 0.1303(2)
H54 H 0.3968 0.5378 0.1709
H55 H 0.3802 0.5530 0.0821
H56 H 0.3559 0.4931 0.1205
C74 C 0.3072(2) 0.5658(3) 0.1570(4)
H60 H 0.3164 0.6082 0.1636
H61 H 0.2951 0.5500 0.2086
C75 C 0.25350(17) 0.55908(18) 0.1012(2)
H62 H 0.2416 0.5171 0.0989
H63 H 0.2671 0.5710 0.0483
C76 C 0.1969(2) 0.5954(3) 0.1238(4)
H66 H 0.1856 0.5862 0.1785
H67 H 0.2076 0.6377 0.1212
C77 C 0.14262(18) 0.5841(2) 0.0725(2)
H68 H 0.1093 0.6114 0.0860
H69 H 0.1284 0.5435 0.0799
H70 H 0.1545 0.5899 0.0178
C36? C 0.2728(2) 0.7108(2) 1.0181(3)
H3? H 0.2425 0.6806 1.0205
C37? C 0.3176(2) 0.7126(2) 1.0749(3)
H4? H 0.3153 0.6844 1.1158
H9? H 0.3500 0.7828 1.2239
H10? H 0.4103 0.7545 1.2627
C48? C 0.2674(3) 0.5372(2) 0.7776(4)
H15? H 0.2341 0.5260 0.7448
C49? C 0.3120(3) 0.4959(2) 0.7942(4)
H16? H 0.3074 0.4573 0.7736
C50? C 0.3603(2) 0.5632(2) 0.8801(3)
H17? H 0.3904 0.5706 0.9193
C51? C 0.3152(2) 0.6054(2) 0.8628(3)
H18? H 0.3156 0.6423 0.8889
H31? H 0.3205 0.7311 0.5609
C66? C 0.2654(2) 0.6594(3) 0.4856(3)
H41? H 0.2315 0.6783 0.4609
C67? C 0.3119(3) 0.6364(3) 0.4397(3)
H42? H 0.3087 0.6409 0.3847
C68? C 0.3611(2) 0.5982(2) 0.5533(3)
H43? H 0.3932 0.5753 0.5758
C69? C 0.3150(2) 0.6221(2) 0.5994(3)
H44? H 0.3156 0.6161 0.6543
C70? C 0.3805(12) 0.5725(12) 0.3279(14)
H45? H 0.3561 0.6064 0.3107
H46? H 0.3537 0.5379 0.3319
H47? H 0.4134 0.5648 0.2900
C71? C 0.4534(3) 0.6357(3) 0.3890(3)
H48? H 0.4704 0.6544 0.4359
H49? H 0.4304 0.6649 0.3586
H50? H 0.4872 0.6199 0.3573
C72? C 0.4562(4) 0.5409(3) 0.4629(5)
H51? H 0.4715 0.5610 0.5096
H52? H 0.4911 0.5290 0.4302
H53? H 0.4326 0.5060 0.4783
H57? H 0.3667 0.5005 0.1651
H58? H 0.3602 0.5706 0.1614
H59? H 0.4035 0.5370 0.1002
H64? H 0.2628 0.6013 0.1094
H65? H 0.2406 0.5425 0.1521
H71? H 0.1327 0.6167 0.0373
H72? H 0.1489 0.5993 0.1255
H73? H 0.1085 0.5557 0.0727
C78? C 0.3115(6) 0.5285(16) 0.0754(12)
H74? H 0.3024 0.4861 0.0687
H75? H 0.3237 0.5443 0.0238
C79? C 0.2005(6) 0.5542(16) 0.0451(11)
H76? H 0.1915 0.5120 0.0361
H77? H 0.2130 0.5715 -0.0055
C80? C 0.2346(4) 0.7189(4) 0.3383(4)
H78? H 0.2089 0.6848 0.3516
H79? H 0.2363 0.7458 0.3830
H80? H 0.2764 0.7056 0.3254
C81? C 0.2073(3) 0.7500 0.2698(5)
H81? H 0.2186 0.7919 0.2764
H82? H 0.2307 0.7358 0.2238
C82? C 0.1440(3) 0.7500 0.2464(4)
H83? H 0.1258 0.7153 0.2727
C83? C 0.1172(4) 0.7500 0.1703(6)
H84? H 0.1351 0.7848 0.1439
C84? C 0.0562(3) 0.7500 0.1492(4)
H85? H 0.0529 0.7500 0.0922
H86? H 0.0360 0.7852 0.1702
loop_
_geom_bond_atom_site_label_1
_geom_bond_atom_site_label_2
_geom_bond_site_symmetry_1
_geom_bond_site_symmetry_2
C1 C2 1_555 1_555
C2 C3 1_555 1_555
C3 C4 1_555 1_555
C4 C5 1_555 1_555
C5 C6 1_555 1_555
C6 C1 1_555 1_555
C7 C6 1_555 1_555
C8 C7 1_555 1_555
C9 C8 1_555 1_555
C10 C5 1_555 1_555
C11 C9 1_555 1_555
C12 C11 1_555 1_555
C13 C8 1_555 1_555
C14 C13 1_555 1_555
C15 C14 1_555 1_555
C16 C7 1_555 1_555
C17 C1 1_555 1_555
C18 C17 1_555 1_555
C19 C18 1_555 1_555
C20 C2 1_555 1_555
C21 C19 1_555 1_555
C22 C21 1_555 1_555
C23 C18 1_555 1_555
C24 C15 1_555 1_555
C25 C24 1_555 1_555
C26 C14 1_555 1_555
C27 C26 1_555 1_555
C28 C12 1_555 1_555
C29 C27 1_555 1_555
C30 C29 1_555 1_555
C31 C25 1_555 1_555
C32 C22 1_555 1_555
C33 C3 1_555 1_555
C34 C33 1_555 1_555
H1 C34 1_555 1_555
C35 C34 1_555 1_555
H2 C35 1_555 1_555
C38 C35 1_555 1_555
C39 C38 1_555 1_555
C40 C39 1_555 1_555
H5 C40 1_555 1_555
H6 C40 1_555 1_555
H7 C40 1_555 1_555
C41 C39 1_555 1_555
H8 C41 1_555 1_555
C42 C6 1_555 1_555
C43 C42 1_555 1_555
H11 C43 1_555 1_555
C44 C43 1_555 1_555
H12 C44 1_555 1_555
C45 C44 1_555 1_555
C46 C45 1_555 1_555
H13 C46 1_555 1_555
C47 C42 1_555 1_555
H14 C47 1_555 1_555
C52 C45 1_555 1_555
C53 C52 1_555 1_555
H19 C53 1_555 1_555
H20 C53 1_555 1_555
H21 C53 1_555 1_555
C54 C52 1_555 1_555
H22 C54 1_555 1_555
H23 C54 1_555 1_555
H24 C54 1_555 1_555
C55 C52 1_555 1_555
H25 C55 1_555 1_555
H26 C55 1_555 1_555
H27 C55 1_555 1_555
C56 C9 1_555 1_555
C57 C56 1_555 1_555
H28 C57 1_555 1_555
C58 C57 1_555 1_555
H29 C58 1_555 1_555
C59 C58 1_555 1_555
C60 C59 1_555 1_555
H30 C60 1_555 1_555
C61 C56 1_555 1_555
C62 C59 1_555 1_555
C63 C62 1_555 1_555
H32 C63 1_555 1_555
H33 C63 1_555 1_555
H34 C63 1_555 1_555
C64 C62 1_555 1_555
H35 C64 1_555 1_555
H36 C64 1_555 1_555
H37 C64 1_555 1_555
C65 C62 1_555 1_555
H38 C65 1_555 1_555
H39 C65 1_555 1_555
H40 C65 1_555 1_555
C73 H54 1_555 1_555
H55 C73 1_555 1_555
H56 C73 1_555 1_555
C74 C73 1_555 1_555
H60 C74 1_555 1_555
H61 C74 1_555 1_555
C75 C74 1_555 1_555
H62 C75 1_555 1_555
H63 C75 1_555 1_555
C76 C75 1_555 1_555
H66 C76 1_555 1_555
H67 C76 1_555 1_555
C77 C76 1_555 1_555
H68 C77 1_555 1_555
H69 C77 1_555 1_555
H70 C77 1_555 1_555
C1F C2F 1_555 1_555
C2F C3 1_555 1_555
C5F C4 1_555 1_555
C6F C1F 1_555 1_555
C7F C6F 1_555 1_555
C8F C7F 1_555 1_555
C9F C8F 1_555 1_555
C10F C10 1_555 1_555
C11F C11 1_555 1_555
C12F C11F 1_555 1_555
C13F C8F 1_555 1_555
C14F C13F 1_555 1_555
C15F C14F 1_555 1_555
C16F C7F 1_555 1_555
C17F C1F 1_555 1_555
C18F C17F 1_555 1_555
C19F C18F 1_555 1_555
C20F C20 1_555 1_555
C21F C21 1_555 1_555
C22F C21F 1_555 1_555
C23F C18F 1_555 1_555
C24F C15F 1_555 1_555
C25F C24F 1_555 1_555
C26F C14F 1_555 1_555
C27F C29 1_555 1_555
C28F C28 1_555 1_555
C31F C30 1_555 1_555
C32F C32 1_555 1_555
C34F C33 1_555 1_555
H1F C34F 1_555 1_555
C35F C38 1_555 1_555
H2F C35F 1_555 1_555
C40F C39 1_555 1_555
H5F C40F 1_555 1_555
H6F C40F 1_555 1_555
H7F C40F 1_555 1_555
H8F C41 1_555 1_555
C42F C6F 1_555 1_555
C43F C42F 1_555 1_555
H11F C43F 1_555 1_555
C44F C43F 1_555 1_555
H12F C44F 1_555 1_555
C45F C44F 1_555 1_555
C46F C45F 1_555 1_555
H13F C46F 1_555 1_555
C47F C42F 1_555 1_555
H14F C47F 1_555 1_555
C52F C45F 1_555 1_555
C53F C52F 1_555 1_555
H19F C53F 1_555 1_555
H20F C53F 1_555 1_555
H21F C53F 1_555 1_555
C54F C52F 1_555 1_555
H22F C54F 1_555 1_555
H23F C54F 1_555 1_555
H24F C54F 1_555 1_555
C55F C52F 1_555 1_555
H25F C55F 1_555 1_555
H26F C55F 1_555 1_555
H27F C55F 1_555 1_555
C56F C9F 1_555 1_555
C57F C56F 1_555 1_555
H28F C57F 1_555 1_555
C58F C57F 1_555 1_555
H29F C58F 1_555 1_555
C59F C58F 1_555 1_555
C60F C59F 1_555 1_555
H30F C60F 1_555 1_555
C61F C56F 1_555 1_555
C62F C59F 1_555 1_555
C63F C62F 1_555 1_555
H32F C63F 1_555 1_555
H33F C63F 1_555 1_555
H34F C63F 1_555 1_555
C64F C62F 1_555 1_555
H35F C64F 1_555 1_555
H36F C64F 1_555 1_555
H37F C64F 1_555 1_555
C65F C62F 1_555 1_555
H38F C65F 1_555 1_555
H39F C65F 1_555 1_555
H40F C65F 1_555 1_555
C9 C10 1_555 1_555
C12 C13 1_555 1_555
C15 C16 1_555 1_555
C16 C17 1_555 1_555
C19 C20 1_555 1_555
C22 C23 1_555 1_555
C23 C24 1_555 1_555
C25 C26 1_555 1_555
C27 C28 1_555 1_555
C30 C31 1_555 1_555
C31 C32 1_555 1_555
C46 C47 1_555 1_555
C60 C61 1_555 1_555
C2F C20F 1_555 1_555
C5F C6F 1_555 1_555
C5F C10F 1_555 1_555
C9F C10F 1_555 1_555
C9F C11F 1_555 1_555
C12F C13F 1_555 1_555
C12F C28F 1_555 1_555
C15F C16F 1_555 1_555
C16F C17F 1_555 1_555
C19F C20F 1_555 1_555
C19F C21F 1_555 1_555
C22F C23F 1_555 1_555
C22F C32F 1_555 1_555
C23F C24F 1_555 1_555
C25F C26F 1_555 1_555
C25F C31F 1_555 1_555
C26F C27F 1_555 1_555
C27F C28F 1_555 1_555
C31F C32F 1_555 1_555
C34F C35F 1_555 1_555
C46F C47F 1_555 1_555
C60F C61F 1_555 1_555

#END
