
#######################################################################
#
#                 Cambridge Crystallographic Data Centre
#                                CCDC 
#
#######################################################################
#
# If this CIF has been generated from an entry in the Cambridge 
# Structural Database, then it will include bibliographic, chemical, 
# crystal, experimental, refinement or atomic coordinate data resulting 
# from the CCDC's data processing and validation procedures.
#
#######################################################################

data_DOQZAM
_chemical_formula_moiety         'C66 H82 N8 S2,2(C2 H6 O1),2(C1 H1 Cl3)'
_chemical_name_systematic        
"2,2'-(2,2'-Bithiene-5,5'-diyl)bis(1-hexadecyl-1H-imidazo[4,5-f][1,10]phenanthroline) chloroform ethanol solvate"
_symmetry_cell_setting           triclinic
_symmetry_space_group_name_H-M   'P -1'
_symmetry_Int_Tables_number      2
_space_group_name_Hall           '-P 1'
loop_
_symmetry_equiv_pos_site_id
_symmetry_equiv_pos_as_xyz
1 x,y,z
2 -x,-y,-z
_cell_length_a                   6.545(4)
_cell_length_b                   14.021(8)
_cell_length_c                   22.089(13)
_cell_angle_alpha                98.833(9)
_cell_angle_beta                 95.201(9)
_cell_angle_gamma                101.557(9)
_cell_volume                     1946.91
_exptl_crystal_colour            yellow
_exptl_crystal_description       block
_cell_formula_units_Z            1
loop_
_atom_site_label
_atom_site_type_symbol
_atom_site_fract_x
_atom_site_fract_y
_atom_site_fract_z
C1 C 1.5652(11) 0.6089(5) 0.3015(3)
H1 H 1.5229 0.6583 0.2830
C2 C 1.4230(10) 0.5194(5) 0.2963(3)
H2 H 1.2917 0.5089 0.2733
C3 C 1.4754(9) 0.4480(5) 0.3245(3)
H3 H 1.3793 0.3885 0.3219
C4 C 1.6761(8) 0.4632(4) 0.3582(2)
C5 C 1.7610(8) 0.3944(4) 0.3895(2)
C6 C 1.9635(8) 0.4157(4) 0.4180(2)
C7 C 2.1007(8) 0.5108(4) 0.4230(3)
C8 C 2.3034(8) 0.5364(4) 0.4557(3)
H4 H 2.3559 0.4912 0.4759
C9 C 2.4223(9) 0.6289(4) 0.4573(3)
H5 H 2.5564 0.6486 0.4791
C10 C 2.3370(10) 0.6935(5) 0.4250(3)
H6 H 2.4202 0.7558 0.4256
C11 C 2.0238(8) 0.5806(4) 0.3931(3)
C12 C 1.8134(9) 0.5560(4) 0.3603(3)
C13 C 1.8331(8) 0.2667(4) 0.4279(2)
C14 C 1.8279(8) 0.1697(4) 0.4443(3)
C15 C 1.6874(11) 0.0828(5) 0.4268(4)
H7 H 1.5612 0.0759 0.4019
C16 C 1.7492(12) 0.0048(5) 0.4495(4)
H8 H 1.6684 -0.0595 0.4409
C17 C 1.9388(9) 0.0303(4) 0.4856(3)
C18 C 1.4539(8) 0.2483(4) 0.3843(3)
H9 H 1.3711 0.2980 0.3924
H10 H 1.4244 0.2030 0.4131
C19 C 1.3820(8) 0.1914(5) 0.3192(3)
H11 H 1.4401 0.1327 0.3135
H12 H 1.4336 0.2321 0.2897
C20 C 1.1431(8) 0.1615(5) 0.3073(3)
H13 H 1.0858 0.2203 0.3146
H14 H 1.0927 0.1195 0.3363
C21 C 1.0630(8) 0.1062(5) 0.2413(3)
H15 H 1.1144 0.1477 0.2122
H16 H 1.1180 0.0467 0.2341
C22 C 0.8227(9) 0.0782(5) 0.2302(3)
H17 H 0.7718 0.0381 0.2600
H18 H 0.7684 0.1380 0.2368
C23 C 0.7389(9) 0.0213(5) 0.1652(3)
H19 H 0.7923 0.0611 0.1354
H20 H 0.7919 -0.0389 0.1589
C24 C 0.5015(9) -0.0056(6) 0.1529(3)
H21 H 0.4482 0.0543 0.1607
H22 H 0.4483 -0.0475 0.1816
C25 C 0.4176(9) -0.0590(6) 0.0871(3)
H23 H 0.4689 -0.0168 0.0583
H24 H 0.4714 -0.1187 0.0790
C26 C 0.1796(10) -0.0861(6) 0.0760(3)
H25 H 0.1259 -0.0265 0.0849
H26 H 0.1285 -0.1292 0.1043
C27 C 0.0937(10) -0.1383(7) 0.0093(3)
H27 H 0.1444 -0.0951 -0.0190
H28 H 0.1481 -0.1978 0.0004
C28 C -0.1398(10) -0.1655(6) -0.0017(3)
H29 H -0.1938 -0.1059 0.0068
H30 H -0.1903 -0.2079 0.0270
C29 C -0.2289(11) -0.2194(7) -0.0684(4)
H31 H -0.1779 -0.1771 -0.0972
H32 H -0.1754 -0.2792 -0.0769
C30 C -0.4611(11) -0.2462(7) -0.0796(4)
H33 H -0.5143 -0.1865 -0.0702
H34 H -0.5115 -0.2893 -0.0512
C31 C -0.5518(12) -0.2974(7) -0.1450(4)
H35 H -0.5023 -0.2550 -0.1739
H36 H -0.5029 -0.3582 -0.1546
C32 C -0.7862(13) -0.3203(9) -0.1525(5)
H37 H -0.8355 -0.3617 -0.1231
H38 H -0.8349 -0.2593 -0.1435
C33 C -0.8747(17) -0.3710(9) -0.2149(6)
H39 H -0.7893 -0.3444 -0.2441
H40 H -1.0150 -0.3615 -0.2235
H41 H -0.8781 -0.4404 -0.2182
N1 N 1.7568(8) 0.6281(4) 0.3311(3)
N2 N 2.1462(8) 0.6720(3) 0.3938(2)
N3 N 1.6789(6) 0.2978(3) 0.3969(2)
N4 N 2.0096(7) 0.3358(3) 0.4420(2)
S1 S 2.0407(2) 0.15454(10) 0.48907(8)
C1A C 2.4348(11) -0.6089(5) 0.6985(3)
H1A H 2.4771 -0.6583 0.7170
C2A C 2.5770(10) -0.5194(5) 0.7037(3)
H2A H 2.7083 -0.5089 0.7267
C3A C 2.5246(9) -0.4480(5) 0.6755(3)
H3A H 2.6207 -0.3885 0.6781
C4A C 2.3239(8) -0.4632(4) 0.6418(2)
C5A C 2.2390(8) -0.3944(4) 0.6105(2)
C6A C 2.0365(8) -0.4157(4) 0.5820(2)
C7A C 1.8993(8) -0.5108(4) 0.5770(3)
C8A C 1.6966(8) -0.5364(4) 0.5443(3)
H4A H 1.6441 -0.4912 0.5241
C9A C 1.5777(9) -0.6289(4) 0.5427(3)
H5A H 1.4436 -0.6486 0.5209
C10A C 1.6630(10) -0.6935(5) 0.5750(3)
H6A H 1.5798 -0.7558 0.5744
C11A C 1.9762(8) -0.5806(4) 0.6069(3)
C12A C 2.1866(9) -0.5560(4) 0.6397(3)
C13A C 2.1669(8) -0.2667(4) 0.5721(2)
C14A C 2.1721(8) -0.1697(4) 0.5557(3)
C15A C 2.3126(11) -0.0828(5) 0.5732(4)
H7A H 2.4388 -0.0759 0.5981
C16A C 2.2508(12) -0.0048(5) 0.5505(4)
H8A H 2.3316 0.0595 0.5591
C17A C 2.0612(9) -0.0303(4) 0.5144(3)
C18A C 2.5461(8) -0.2483(4) 0.6157(3)
H9A H 2.6289 -0.2980 0.6076
H10A H 2.5756 -0.2030 0.5869
C19A C 2.6180(8) -0.1914(5) 0.6808(3)
H11A H 2.5599 -0.1327 0.6865
H12A H 2.5664 -0.2321 0.7103
C20A C 2.8569(8) -0.1615(5) 0.6927(3)
H13A H 2.9142 -0.2203 0.6854
H14A H 2.9073 -0.1195 0.6637
C21A C 2.9370(8) -0.1062(5) 0.7587(3)
H15A H 2.8856 -0.1477 0.7878
H16A H 2.8820 -0.0467 0.7659
C22A C 3.1773(9) -0.0782(5) 0.7698(3)
H17A H 3.2282 -0.0381 0.7400
H18A H 3.2316 -0.1380 0.7632
C23A C 3.2611(9) -0.0213(5) 0.8348(3)
H19A H 3.2077 -0.0611 0.8646
H20A H 3.2081 0.0389 0.8411
C24A C 3.4985(9) 0.0056(6) 0.8471(3)
H21A H 3.5518 -0.0543 0.8393
H22A H 3.5517 0.0475 0.8184
C25A C 3.5824(9) 0.0590(6) 0.9129(3)
H23A H 3.5311 0.0168 0.9417
H24A H 3.5286 0.1187 0.9210
C26A C 3.8204(10) 0.0861(6) 0.9240(3)
H25A H 3.8741 0.0265 0.9151
H26A H 3.8715 0.1292 0.8957
C27A C 3.9063(10) 0.1383(7) 0.9907(3)
H27A H 3.8556 0.0951 1.0190
H28A H 3.8519 0.1978 0.9996
C28A C 4.1398(10) 0.1655(6) 1.0017(3)
H29A H 4.1938 0.1059 0.9932
H30A H 4.1903 0.2079 0.9730
C29A C 4.2289(11) 0.2194(7) 1.0684(4)
H31A H 4.1779 0.1771 1.0972
H32A H 4.1754 0.2792 1.0769
C30A C 4.4611(11) 0.2462(7) 1.0796(4)
H33A H 4.5143 0.1865 1.0702
H34A H 4.5115 0.2893 1.0512
C31A C 4.5518(12) 0.2974(7) 1.1450(4)
H35A H 4.5023 0.2550 1.1739
H36A H 4.5029 0.3582 1.1546
C32A C 4.7862(13) 0.3203(9) 1.1525(5)
H37A H 4.8355 0.3617 1.1231
H38A H 4.8349 0.2593 1.1435
C33A C 4.8747(17) 0.3710(9) 1.2149(6)
H39A H 4.7893 0.3444 1.2441
H40A H 5.0150 0.3615 1.2235
H41A H 4.8781 0.4404 1.2182
N1A N 2.2432(8) -0.6281(4) 0.6689(3)
N2A N 1.8538(8) -0.6720(3) 0.6062(2)
N3A N 2.3211(6) -0.2978(3) 0.6031(2)
N4A N 1.9904(7) -0.3358(3) 0.5580(2)
S1A S 1.9593(2) -0.15454(10) 0.51093(8)
C34 C 0.0641(14) 0.8165(6) 0.3042(5)
H42 H 0.0370 0.7555 0.3208
Cl1 Cl -0.1590(10) 0.8546(5) 0.2828(6)
Cl2 Cl 0.2427(16) 0.9084(5) 0.3475(5)
Cl3 Cl 0.1440(18) 0.7555(8) 0.2397(4)
C35 C 0.339(5) 0.608(3) 0.0677(13)
H43 H 0.2679 0.6593 0.0575
H44 H 0.3677 0.5682 0.0309
C36 C 0.237(4) 0.5475(18) 0.1164(13)
H45 H 0.0991 0.5080 0.1011
H46 H 0.3319 0.5051 0.1231
H47 H 0.2315 0.5894 0.1546
O1 O 0.535(4) 0.647(3) 0.1210(10)
H48 H 0.6218 0.6891 0.1071
Cl4? Cl -0.043(2) 0.7967(8) 0.2294(3)
Cl5? Cl -0.021(3) 0.9045(7) 0.3478(5)
Cl6? Cl 0.3442(14) 0.8581(11) 0.3001(7)
loop_
_geom_bond_atom_site_label_1
_geom_bond_atom_site_label_2
_geom_bond_site_symmetry_1
_geom_bond_site_symmetry_2
C1 H1 1_555 1_555
C2 C1 1_555 1_555
H2 C2 1_555 1_555
C3 C2 1_555 1_555
H3 C3 1_555 1_555
C4 C3 1_555 1_555
C5 C4 1_555 1_555
C6 C5 1_555 1_555
C7 C6 1_555 1_555
C8 C7 1_555 1_555
H4 C8 1_555 1_555
C9 C8 1_555 1_555
H5 C9 1_555 1_555
C10 C9 1_555 1_555
H6 C10 1_555 1_555
C11 C7 1_555 1_555
C12 C4 1_555 1_555
C13 C14 1_555 1_555
C14 C15 1_555 1_555
C15 H7 1_555 1_555
C16 C15 1_555 1_555
H8 C16 1_555 1_555
C17 C16 1_555 1_555
C18 H9 1_555 1_555
H10 C18 1_555 1_555
C19 C18 1_555 1_555
H11 C19 1_555 1_555
H12 C19 1_555 1_555
C20 C19 1_555 1_555
H13 C20 1_555 1_555
H14 C20 1_555 1_555
C21 C20 1_555 1_555
H15 C21 1_555 1_555
H16 C21 1_555 1_555
C22 C21 1_555 1_555
H17 C22 1_555 1_555
H18 C22 1_555 1_555
C23 C22 1_555 1_555
H19 C23 1_555 1_555
H20 C23 1_555 1_555
C24 C23 1_555 1_555
H21 C24 1_555 1_555
H22 C24 1_555 1_555
C25 C24 1_555 1_555
H23 C25 1_555 1_555
H24 C25 1_555 1_555
C26 C25 1_555 1_555
H25 C26 1_555 1_555
H26 C26 1_555 1_555
C27 C26 1_555 1_555
H27 C27 1_555 1_555
H28 C27 1_555 1_555
C28 C27 1_555 1_555
H29 C28 1_555 1_555
H30 C28 1_555 1_555
C29 C28 1_555 1_555
H31 C29 1_555 1_555
H32 C29 1_555 1_555
C30 C29 1_555 1_555
H33 C30 1_555 1_555
H34 C30 1_555 1_555
C31 C30 1_555 1_555
H35 C31 1_555 1_555
H36 C31 1_555 1_555
C32 C31 1_555 1_555
H37 C32 1_555 1_555
H38 C32 1_555 1_555
C33 C32 1_555 1_555
H39 C33 1_555 1_555
H40 C33 1_555 1_555
H41 C33 1_555 1_555
N1 C1 1_555 1_555
N2 C10 1_555 1_555
N3 C5 1_555 1_555
N4 C6 1_555 1_555
S1 C14 1_555 1_555
C34 H42 1_555 1_555
Cl1 C34 1_555 1_555
Cl2 C34 1_555 1_555
Cl3 C34 1_555 1_555
C35 H43 1_555 1_555
H44 C35 1_555 1_555
C36 C35 1_555 1_555
H45 C36 1_555 1_555
H46 C36 1_555 1_555
H47 C36 1_555 1_555
O1 C35 1_555 1_555
H48 O1 1_555 1_555
C1A H1A 1_555 1_555
C2A C1A 1_555 1_555
H2A C2A 1_555 1_555
C3A C2A 1_555 1_555
H3A C3A 1_555 1_555
C4A C3A 1_555 1_555
C5A C4A 1_555 1_555
C6A C5A 1_555 1_555
C7A C6A 1_555 1_555
C8A C7A 1_555 1_555
H4A C8A 1_555 1_555
C9A C8A 1_555 1_555
H5A C9A 1_555 1_555
C10A C9A 1_555 1_555
H6A C10A 1_555 1_555
C11A C7A 1_555 1_555
C12A C4A 1_555 1_555
C13A C14A 1_555 1_555
C14A C15A 1_555 1_555
C15A H7A 1_555 1_555
C16A C15A 1_555 1_555
H8A C16A 1_555 1_555
C17A C17 1_555 1_555
C18A H9A 1_555 1_555
H10A C18A 1_555 1_555
C19A C18A 1_555 1_555
H11A C19A 1_555 1_555
H12A C19A 1_555 1_555
C20A C19A 1_555 1_555
H13A C20A 1_555 1_555
H14A C20A 1_555 1_555
C21A C20A 1_555 1_555
H15A C21A 1_555 1_555
H16A C21A 1_555 1_555
C22A C21A 1_555 1_555
H17A C22A 1_555 1_555
H18A C22A 1_555 1_555
C23A C22A 1_555 1_555
H19A C23A 1_555 1_555
H20A C23A 1_555 1_555
C24A C23A 1_555 1_555
H21A C24A 1_555 1_555
H22A C24A 1_555 1_555
C25A C24A 1_555 1_555
H23A C25A 1_555 1_555
H24A C25A 1_555 1_555
C26A C25A 1_555 1_555
H25A C26A 1_555 1_555
H26A C26A 1_555 1_555
C27A C26A 1_555 1_555
H27A C27A 1_555 1_555
H28A C27A 1_555 1_555
C28A C27A 1_555 1_555
H29A C28A 1_555 1_555
H30A C28A 1_555 1_555
C29A C28A 1_555 1_555
H31A C29A 1_555 1_555
H32A C29A 1_555 1_555
C30A C29A 1_555 1_555
H33A C30A 1_555 1_555
H34A C30A 1_555 1_555
C31A C30A 1_555 1_555
H35A C31A 1_555 1_555
H36A C31A 1_555 1_555
C32A C31A 1_555 1_555
H37A C32A 1_555 1_555
H38A C32A 1_555 1_555
C33A C32A 1_555 1_555
H39A C33A 1_555 1_555
H40A C33A 1_555 1_555
H41A C33A 1_555 1_555
N1A C1A 1_555 1_555
N2A C10A 1_555 1_555
N3A C5A 1_555 1_555
N4A C6A 1_555 1_555
S1A C14A 1_555 1_555
C11 C12 1_555 1_555
C11 N2 1_555 1_555
C12 N1 1_555 1_555
C13 N3 1_555 1_555
C13 N4 1_555 1_555
C17 S1 1_555 1_555
C18 N3 1_555 1_555
C11A C12A 1_555 1_555
C11A N2A 1_555 1_555
C12A N1A 1_555 1_555
C13A N3A 1_555 1_555
C13A N4A 1_555 1_555
C16A C17A 1_555 1_555
C17A S1A 1_555 1_555
C18A N3A 1_555 1_555

#END
