
#######################################################################
#
#                 Cambridge Crystallographic Data Centre
#                                CCDC 
#
#######################################################################
#
# If this CIF has been generated from an entry in the Cambridge 
# Structural Database, then it will include bibliographic, chemical, 
# crystal, experimental, refinement or atomic coordinate data resulting 
# from the CCDC's data processing and validation procedures.
#
#######################################################################

data_DORSOT
_chemical_formula_moiety         'C23 H16 N4,0.75(C2 H6 O1)'
_chemical_name_systematic        
"5'-Amino-4,4''-dimethyl-1,1':2',1''-terphenyl-3',4',6'-tricarbonitrile ethanol solvate"
_symmetry_cell_setting           triclinic
_symmetry_space_group_name_H-M   'P -1'
_symmetry_Int_Tables_number      2
_space_group_name_Hall           '-P 1'
loop_
_symmetry_equiv_pos_site_id
_symmetry_equiv_pos_as_xyz
1 x,y,z
2 -x,-y,-z
_cell_length_a                   12.0489(16)
_cell_length_b                   13.7719(18)
_cell_length_c                   15.829(2)
_cell_angle_alpha                111.578(2)
_cell_angle_beta                 92.637(2)
_cell_angle_gamma                96.848(2)
_cell_volume                     2413.59
_cell_formula_units_Z            4
loop_
_atom_site_label
_atom_site_type_symbol
_atom_site_fract_x
_atom_site_fract_y
_atom_site_fract_z
C1 C 0.1636(3) 0.2239(3) 0.1118(3)
C25 C 0.1613(3) 0.0468(3) 0.1038(3)
C26 C 0.1166(3) 0.1416(3) 0.1363(3)
C27 C 0.2497(3) 0.0367(3) 0.0483(3)
C28 C 0.2504(3) 0.2132(3) 0.0544(3)
C29 C 0.2949(4) 0.1181(3) 0.0186(3)
N5 N 0.3745(3) 0.1047(3) -0.0377(3)
H17 H 0.4011 0.1554 -0.0538
H18 H 0.3997 0.0453 -0.0582
C30 C 0.1196(4) -0.0447(3) 0.1290(3)
C31 C 0.1266(4) 0.3247(4) 0.1472(3)
N6 N 0.3369(4) -0.1333(3) -0.0183(3)
C32 C 0.0216(4) 0.1559(3) 0.1942(3)
C33 C 0.2955(4) -0.0588(3) 0.0134(3)
N7 N 0.1026(4) 0.4085(3) 0.1763(3)
C34 C 0.2944(4) 0.3014(4) 0.0314(3)
C35 C -0.0771(4) 0.1859(3) 0.1670(3)
H19 H -0.0831 0.1970 0.1126
N8 N 0.3282(4) 0.3713(3) 0.0135(4)
C36 C 0.0266(4) 0.1402(3) 0.2771(3)
H20 H 0.0907 0.1205 0.2975
C37 C 0.1900(4) -0.0848(4) 0.1751(3)
H21 H 0.2645 -0.0535 0.1921
C38 C 0.0089(4) -0.0912(4) 0.1055(3)
H22 H -0.0401 -0.0646 0.0754
C39 C -0.0649(5) 0.1544(4) 0.3284(3)
H23 H -0.0611 0.1430 0.3828
C40 C -0.1650(4) 0.1987(4) 0.2205(3)
H24 H -0.2298 0.2178 0.2006
C41 C 0.0406(6) -0.2187(4) 0.1717(4)
C42 C -0.1615(4) 0.1847(4) 0.3015(4)
C43 C -0.0295(5) -0.1782(4) 0.1269(4)
H25 H -0.1042 -0.2093 0.1104
C44 C 0.1522(5) -0.1692(4) 0.1960(4)
H26 H 0.2012 -0.1947 0.2270
C45 C -0.2569(5) 0.2011(6) 0.3607(5)
H27 H -0.3059 0.1355 0.3452
H28 H -0.2982 0.2522 0.3510
H29 H -0.2277 0.2261 0.4236
C46 C -0.0031(7) -0.3160(6) 0.1934(6)
H30 H -0.0232 -0.2934 0.2549
H31 H 0.0547 -0.3600 0.1867
H32 H -0.0678 -0.3553 0.1520
C2 C 0.4566(4) 0.2788(3) 0.2433(3)
C3 C 0.4988(4) 0.3531(3) 0.2074(3)
C4 C 0.3886(3) 0.3059(3) 0.3160(3)
C5 C 0.3615(4) 0.4087(3) 0.3564(3)
C6 C 0.2892(4) 0.4324(3) 0.4334(3)
C7 C 0.4043(3) 0.4840(3) 0.3231(3)
C8 C 0.4703(4) 0.4560(3) 0.2500(3)
N1 N 0.5065(4) 0.0906(3) 0.1684(3)
N2 N 0.5631(3) 0.3295(3) 0.1374(3)
H1 H 0.5799 0.2668 0.1130
H2 H 0.5876 0.3772 0.1171
C9 C 0.3827(4) 0.5953(3) 0.3621(3)
C10 C 0.4825(4) 0.1732(3) 0.2026(3)
C11 C 0.3498(4) 0.2256(3) 0.3493(3)
C12 C 0.2773(4) 0.6199(3) 0.3505(3)
H3 H 0.2180 0.5662 0.3209
N3 N 0.3226(4) 0.1594(4) 0.3737(3)
C13 C 0.3448(5) 0.8051(4) 0.4290(3)
C14 C 0.5097(5) 0.5327(4) 0.2138(4)
N4 N 0.5417(6) 0.5922(4) 0.1823(4)
C15 C 0.1519(5) 0.4704(4) 0.5793(4)
C16 C 0.1769(4) 0.3899(4) 0.4194(4)
H4 H 0.1458 0.3474 0.3606
C17 C 0.3314(4) 0.4972(4) 0.5221(3)
H5 H 0.4060 0.5291 0.5339
C18 C 0.4662(4) 0.6767(3) 0.4099(4)
H6 H 0.5380 0.6620 0.4196
C19 C 0.2636(5) 0.5150(4) 0.5933(4)
H7 H 0.2942 0.5582 0.6521
C20 C 0.2589(5) 0.7250(4) 0.3831(4)
H8 H 0.1876 0.7410 0.3737
C21 C 0.4460(5) 0.7791(4) 0.4437(4)
H9 H 0.5038 0.8321 0.4779
C22 C 0.1096(5) 0.4090(4) 0.4907(4)
H10 H 0.0342 0.3798 0.4786
C23 C 0.0800(5) 0.4901(5) 0.6575(4)
H11 H 0.1158 0.4729 0.7045
H12 H 0.0080 0.4469 0.6363
H13 H 0.0701 0.5631 0.6816
C24 C 0.3256(6) 0.9208(4) 0.4618(5)
H14 H 0.3877 0.9646 0.5042
H15 H 0.2575 0.9286 0.4912
H16 H 0.3197 0.9418 0.4104
O1 O 0.6566(8) 0.4342(6) 0.0288(6)
H33 H 0.6117 0.4400 -0.0090
C47 C 0.7515(13) 0.4012(10) -0.0117(9)
H35 H 0.7300 0.3333 -0.0614
H36 H 0.7821 0.4509 -0.0379
C48 C 0.8309(12) 0.3921(11) 0.0441(9)
H37 H 0.8425 0.4539 0.0993
H38 H 0.8995 0.3847 0.0153
H39 H 0.8086 0.3309 0.0582
O2 O 0.4524(11) 0.2188(5) 0.8599(6)
H34 H 0.4963 0.2608 0.9022
C49 C 0.5151(13) 0.1648(13) 0.7833(12)
H40 H 0.5512 0.2127 0.7574
H41 H 0.5703 0.1277 0.8003
C50 C 0.440(2) 0.1071(15) 0.7349(10)
H42 H 0.4215 0.0484 0.7532
H43 H 0.4600 0.0820 0.6733
H44 H 0.3759 0.1435 0.7382
C51 C 0.152(3) 0.1754(19) 0.5688(19)
H45 H 0.1182 0.2376 0.5745
H46 H 0.2317 0.1958 0.5892
O3 O 0.1329(14) 0.0976(17) 0.4777(16)
H47 H 0.0871 0.1146 0.4478
C52 C 0.092(4) 0.1123(19) 0.621(2)
H48 H 0.0130 0.1136 0.6144
H49 H 0.1201 0.1435 0.6840
H50 H 0.1068 0.0406 0.5957
loop_
_geom_bond_atom_site_label_1
_geom_bond_atom_site_label_2
_geom_bond_site_symmetry_1
_geom_bond_site_symmetry_2
C1 C26 1_555 1_555
C2 C3 1_555 1_555
C3 C8 1_555 1_555
C4 C2 1_555 1_555
C5 C4 1_555 1_555
C6 C5 1_555 1_555
C7 C5 1_555 1_555
C8 C7 1_555 1_555
N1 C10 1_555 1_555
N2 C3 1_555 1_555
H1 N2 1_555 1_555
H2 N2 1_555 1_555
C9 C7 1_555 1_555
C10 C2 1_555 1_555
C11 C4 1_555 1_555
C12 C9 1_555 1_555
H3 C12 1_555 1_555
N3 C11 1_555 1_555
C13 C20 1_555 1_555
C14 C8 1_555 1_555
N4 C14 1_555 1_555
C15 C19 1_555 1_555
C16 C6 1_555 1_555
H4 C16 1_555 1_555
C17 C6 1_555 1_555
H5 C17 1_555 1_555
C18 C9 1_555 1_555
H6 C18 1_555 1_555
C19 C17 1_555 1_555
H7 C19 1_555 1_555
C20 C12 1_555 1_555
H8 C20 1_555 1_555
C21 C13 1_555 1_555
H9 C21 1_555 1_555
C22 C15 1_555 1_555
H10 C22 1_555 1_555
C23 C15 1_555 1_555
H11 C23 1_555 1_555
H12 C23 1_555 1_555
H13 C23 1_555 1_555
C24 C13 1_555 1_555
H14 C24 1_555 1_555
H15 C24 1_555 1_555
H16 C24 1_555 1_555
C25 C26 1_555 1_555
C26 C32 1_555 1_555
C27 C25 1_555 1_555
C28 C1 1_555 1_555
C29 C27 1_555 1_555
N5 C29 1_555 1_555
H17 N5 1_555 1_555
H18 N5 1_555 1_555
C30 C25 1_555 1_555
C31 C1 1_555 1_555
N6 C33 1_555 1_555
C32 C35 1_555 1_555
C33 C27 1_555 1_555
N7 C31 1_555 1_555
C34 C28 1_555 1_555
C35 H19 1_555 1_555
N8 C34 1_555 1_555
C36 C32 1_555 1_555
H20 C36 1_555 1_555
C37 C30 1_555 1_555
H21 C37 1_555 1_555
C38 C30 1_555 1_555
H22 C38 1_555 1_555
C39 C36 1_555 1_555
H23 C39 1_555 1_555
C40 C35 1_555 1_555
H24 C40 1_555 1_555
C41 C43 1_555 1_555
C42 C39 1_555 1_555
C43 C38 1_555 1_555
H25 C43 1_555 1_555
C44 C37 1_555 1_555
H26 C44 1_555 1_555
C45 C42 1_555 1_555
H27 C45 1_555 1_555
H28 C45 1_555 1_555
H29 C45 1_555 1_555
C46 C41 1_555 1_555
H30 C46 1_555 1_555
H31 C46 1_555 1_555
H32 C46 1_555 1_555
O1 H33 1_555 1_555
O2 H34 1_555 1_555
C47 O1 1_555 1_555
H35 C47 1_555 1_555
H36 C47 1_555 1_555
C48 C47 1_555 1_555
H37 C48 1_555 1_555
H38 C48 1_555 1_555
H39 C48 1_555 1_555
C49 O2 1_555 1_555
H40 C49 1_555 1_555
H41 C49 1_555 1_555
C50 C49 1_555 1_555
H42 C50 1_555 1_555
H43 C50 1_555 1_555
H44 C50 1_555 1_555
C51 H45 1_555 1_555
H46 C51 1_555 1_555
O3 C51 1_555 1_555
H47 O3 1_555 1_555
C52 C51 1_555 1_555
H48 C52 1_555 1_555
H49 C52 1_555 1_555
H50 C52 1_555 1_555
C16 C22 1_555 1_555
C18 C21 1_555 1_555
C28 C29 1_555 1_555
C40 C42 1_555 1_555
C41 C44 1_555 1_555

#END
