
#######################################################################
#
#                 Cambridge Crystallographic Data Centre
#                                CCDC 
#
#######################################################################
#
# If this CIF has been generated from an entry in the Cambridge 
# Structural Database, then it will include bibliographic, chemical, 
# crystal, experimental, refinement or atomic coordinate data resulting 
# from the CCDC's data processing and validation procedures.
#
#######################################################################

data_DORYIU
_chemical_formula_moiety         'C6 H2 N9 O8 1-,C2 H7 N6 1+'
_chemical_name_systematic        
'4,5-diamino-2,4-dihydro-3H-1,2,4-triazol-3-iminium 4-(4-amino-3,5-dinitro-1H-pyrazol-1-yl)-3,5-dinitropyrazol-1-ide'
_symmetry_cell_setting           monoclinic
_symmetry_space_group_name_H-M   'P 21/n'
_symmetry_Int_Tables_number      14
_space_group_name_Hall           '-P 2yn'
loop_
_symmetry_equiv_pos_site_id
_symmetry_equiv_pos_as_xyz
1 x,y,z
2 1/2-x,1/2+y,1/2-z
3 -x,-y,-z
4 1/2+x,1/2-y,1/2+z
_cell_length_a                   13.012(3)
_cell_length_b                   6.3771(12)
_cell_length_c                   19.435(4)
_cell_angle_alpha                90
_cell_angle_beta                 90.668(2)
_cell_angle_gamma                90
_cell_volume                     1612.58
_exptl_crystal_colour            yellow
_exptl_crystal_description       Prism
_cell_formula_units_Z            4
loop_
_atom_site_label
_atom_site_type_symbol
_atom_site_fract_x
_atom_site_fract_y
_atom_site_fract_z
O1 O 0.71706(8) 1.12946(16) 0.44529(5)
O2 O 0.60869(7) 0.89598(16) 0.48120(5)
O3 O 0.89105(8) 0.92084(18) 0.75456(5)
O4 O 0.72826(8) 0.84675(17) 0.76087(5)
O5 O 0.37585(9) 1.07784(19) 0.73364(6)
O6 O 0.28733(7) 0.80913(19) 0.69673(5)
O7 O 0.71178(7) 0.51303(16) 0.56430(5)
O8 O 0.56765(8) 0.33898(16) 0.55371(6)
N1 N 0.83678(8) 1.06418(17) 0.55713(5)
N2 N 0.86957(8) 1.03367(18) 0.62256(5)
N3 N 0.60788(8) 0.83335(17) 0.63127(5)
N4 N 0.54048(8) 0.94710(18) 0.66626(5)
N5 N 0.39533(9) 0.4826(2) 0.62537(7)
N6 N 0.68471(8) 1.00831(18) 0.48859(5)
N7 N 0.80497(8) 0.90208(18) 0.72894(5)
N8 N 0.36709(9) 0.9124(2) 0.70144(6)
N9 N 0.61803(8) 0.49171(18) 0.57386(6)
C1 C 0.73975(9) 0.9953(2) 0.55297(6)
C2 C 0.70491(9) 0.9184(2) 0.61552(6)
C3 C 0.79136(9) 0.9484(2) 0.65709(6)
C4 C 0.45549(9) 0.8312(2) 0.66729(6)
C5 C 0.46398(9) 0.6366(2) 0.63290(6)
C6 C 0.56522(9) 0.6462(2) 0.60981(6)
H1 H 0.3368(17) 0.492(3) 0.6474(11)
H2 H 0.4138(16) 0.369(3) 0.6062(11)
N10 N 0.16412(9) 0.4754(2) 0.55563(6)
N11 N 0.18150(9) 0.28772(19) 0.59127(6)
N12 N 0.03560(8) 0.44050(18) 0.62181(5)
N13 N -0.05374(9) 0.4980(2) 0.65668(6)
N14 N 0.03565(9) 0.7405(2) 0.54889(6)
N15 N 0.08654(9) 0.12692(19) 0.68143(6)
C7 C 0.07713(10) 0.5661(2) 0.57338(6)
C8 C 0.10263(9) 0.2729(2) 0.63185(6)
H3 H -0.0395(16) 0.515(3) 0.7018(11)
H4 H 0.0218(16) 0.079(3) 0.6844(10)
H5 H -0.0983(14) 0.395(3) 0.6523(9)
H6 H -0.0178(17) 0.793(3) 0.5725(11)
H7 H 0.1307(16) 0.031(3) 0.6847(10)
H8 H 0.0750(16) 0.816(3) 0.5193(11)
H9 H 0.2056(16) 0.519(3) 0.5235(10)
loop_
_geom_bond_atom_site_label_1
_geom_bond_atom_site_label_2
_geom_bond_site_symmetry_1
_geom_bond_site_symmetry_2
O1 N6 1_555 1_555
O2 N6 1_555 1_555
O3 N7 1_555 1_555
O4 N7 1_555 1_555
O5 N8 1_555 1_555
O6 N8 1_555 1_555
O7 N9 1_555 1_555
O8 N9 1_555 1_555
N1 N2 1_555 1_555
N2 C3 1_555 1_555
N3 N4 1_555 1_555
N4 C4 1_555 1_555
N5 C5 1_555 1_555
N6 C1 1_555 1_555
N7 C3 1_555 1_555
N8 C4 1_555 1_555
N9 C6 1_555 1_555
C1 N1 1_555 1_555
C2 N3 1_555 1_555
C3 C2 1_555 1_555
C4 C5 1_555 1_555
C5 C6 1_555 1_555
C6 N3 1_555 1_555
H1 N5 1_555 1_555
H2 N5 1_555 1_555
N10 N11 1_555 1_555
N11 C8 1_555 1_555
N12 N13 1_555 1_555
N13 H3 1_555 1_555
N14 C7 1_555 1_555
N15 C8 1_555 1_555
C7 N10 1_555 1_555
C8 N12 1_555 1_555
H4 N15 1_555 1_555
H5 N13 1_555 1_555
H6 N14 1_555 1_555
H7 N15 1_555 1_555
H8 N14 1_555 1_555
H9 N10 1_555 1_555
C1 C2 1_555 1_555
N12 C7 1_555 1_555

#END
