
#######################################################################
#
#                 Cambridge Crystallographic Data Centre
#                                CCDC 
#
#######################################################################
#
# If this CIF has been generated from an entry in the Cambridge 
# Structural Database, then it will include bibliographic, chemical, 
# crystal, experimental, refinement or atomic coordinate data resulting 
# from the CCDC's data processing and validation procedures.
#
#######################################################################

data_DOSBET
_chemical_formula_moiety         'C13 H15 F9 N3 O2 1+,C2 F6 N1 O4 S2 1-'
_chemical_name_systematic        
'1,3-bis(2,2,2-Trifluoroethyl)-5-(2-(2,2,2-trifluoroethylamino)-2-(methoxycarbonyl)ethyl)-1H-imidazol-3-ium bis(trifluoromethanesulfonyl)imide'
_symmetry_cell_setting           monoclinic
_symmetry_space_group_name_H-M   'P 21'
_symmetry_Int_Tables_number      4
_space_group_name_Hall           'P 2yb'
loop_
_symmetry_equiv_pos_site_id
_symmetry_equiv_pos_as_xyz
1 x,y,z
2 -x,1/2+y,-z
_cell_length_a                   9.4561(19)
_cell_length_b                   12.914(3)
_cell_length_c                   11.470(2)
_cell_angle_alpha                90
_cell_angle_beta                 109.58(3)
_cell_angle_gamma                90
_cell_volume                     1319.68
_exptl_crystal_colour            colorless
_exptl_crystal_description       plate
_cell_formula_units_Z            2
loop_
_atom_site_label
_atom_site_type_symbol
_atom_site_fract_x
_atom_site_fract_y
_atom_site_fract_z
S1 S 0.21130(8) 0.4200 0.78678(6)
S2 S 0.14701(6) 0.63007(7) 0.73229(5)
O1 O 0.2070(4) 0.33211(18) 0.7099(3)
O2 O 0.1285(2) 0.41833(19) 0.8688(2)
O3 O 0.0254(3) 0.6681(2) 0.63024(19)
O4 O 0.1413(2) 0.64625(17) 0.85327(17)
N1 N 0.1900(3) 0.51799(18) 0.70180(19)
C1 C 0.4078(4) 0.4238(4) 0.8906(4)
C2 C 0.3080(5) 0.7034(3) 0.7241(4)
F1 F 0.4373(4) 0.3347(3) 0.9511(4)
F2 F 0.4990(2) 0.4341(2) 0.8269(3)
F3 F 0.4299(3) 0.5011(3) 0.9685(2)
F4 F 0.3231(4) 0.6913(2) 0.6146(3)
F5 F 0.4323(2) 0.6741(2) 0.8092(3)
F6 F 0.2864(3) 0.80266(17) 0.7422(3)
F7 F 0.37513(18) 0.02559(15) 0.76214(15)
F8 F 0.35016(19) 0.13787(16) 0.61732(16)
F9 F 0.2580(2) -0.01446(14) 0.57322(15)
F10 F -0.4084(2) -0.03114(16) 0.52102(19)
F11 F -0.50390(19) -0.18317(17) 0.50690(19)
F12 F -0.40107(19) -0.11247(17) 0.68467(17)
F13 F -0.1781(3) 0.2247(2) 0.67354(16)
F14 F -0.2447(2) 0.10142(17) 0.7698(2)
F15 F -0.3449(2) 0.25247(18) 0.7584(2)
N2 N 0.0435(2) 0.18147(16) 0.90560(17)
H1 H 0.1179 0.2252 0.9429
N3 N 0.0457(2) 0.01614(16) 0.68842(16)
N4 N -0.1186(2) -0.10639(15) 0.64744(17)
O5 O 0.2035(2) 0.19181(15) 1.15974(15)
O6 O 0.1962(2) 0.01951(15) 1.17856(14)
C3 C 0.1642(2) 0.10800(18) 1.11566(19)
C4 C 0.0732(2) 0.08709(18) 0.98020(19)
H2 H -0.0214 0.0578 0.9768
C5 C 0.1552(3) 0.00766(18) 0.92534(19)
H3 H 0.2434 0.0390 0.9169
H4 H 0.1863 -0.0502 0.9806
C6 C -0.0597(3) -0.03203(19) 0.5975(2)
H5 H -0.0883 -0.0160 0.5110
C7 C -0.0478(2) -0.10561(18) 0.77424(19)
H6 H -0.0685 -0.1514 0.8325
C8 C 0.0553(2) -0.02938(18) 0.80164(18)
C9 C 0.1358(3) 0.10122(19) 0.6666(2)
H7 H 0.1572 0.1497 0.7337
H8 H 0.0796 0.1367 0.5919
C10 C 0.2803(3) 0.0625(2) 0.6556(2)
C11 C -0.2437(3) -0.1725(2) 0.5785(2)
H9 H -0.2337 -0.2390 0.6177
H10 H -0.2421 -0.1824 0.4960
C12 C -0.3897(3) -0.1245(2) 0.5733(3)
C13 C -0.0977(3) 0.23462(19) 0.8909(2)
H11 H -0.0826 0.3081 0.8907
H12 H -0.1304 0.2181 0.9595
C14 C -0.2154(3) 0.2032(3) 0.7733(3)
C15 C 0.2796(4) 0.0275(3) 1.3104(2)
H13 H 0.3714 0.0645 1.3223
H14 H 0.3021 -0.0407 1.3450
H15 H 0.2204 0.0639 1.3506
loop_
_geom_bond_atom_site_label_1
_geom_bond_atom_site_label_2
_geom_bond_site_symmetry_1
_geom_bond_site_symmetry_2
S1 O1 1_555 1_555
S2 O3 1_555 1_555
O2 S1 1_555 1_555
O4 S2 1_555 1_555
N1 S1 1_555 1_555
C1 S1 1_555 1_555
C2 S2 1_555 1_555
F1 C1 1_555 1_555
F2 C1 1_555 1_555
F3 C1 1_555 1_555
F4 C2 1_555 1_555
F5 C2 1_555 1_555
F6 C2 1_555 1_555
F7 C10 1_555 1_555
F8 C10 1_555 1_555
F9 C10 1_555 1_555
F10 C12 1_555 1_555
F11 C12 1_555 1_555
F12 C12 1_555 1_555
F13 C14 1_555 1_555
F14 C14 1_555 1_555
F15 C14 1_555 1_555
N2 H1 1_555 1_555
N3 C6 1_555 1_555
N4 C6 1_555 1_555
O5 C3 1_555 1_555
O6 C3 1_555 1_555
C3 C4 1_555 1_555
C4 N2 1_555 1_555
H2 C4 1_555 1_555
C5 C4 1_555 1_555
H3 C5 1_555 1_555
H4 C5 1_555 1_555
C6 H5 1_555 1_555
C7 N4 1_555 1_555
H6 C7 1_555 1_555
C8 N3 1_555 1_555
C9 N3 1_555 1_555
H7 C9 1_555 1_555
H8 C9 1_555 1_555
C10 C9 1_555 1_555
C11 N4 1_555 1_555
H9 C11 1_555 1_555
H10 C11 1_555 1_555
C12 C11 1_555 1_555
C13 N2 1_555 1_555
H11 C13 1_555 1_555
H12 C13 1_555 1_555
C14 C13 1_555 1_555
C15 O6 1_555 1_555
H13 C15 1_555 1_555
H14 C15 1_555 1_555
H15 C15 1_555 1_555
S2 N1 1_555 1_555
C5 C8 1_555 1_555
C7 C8 1_555 1_555

#END
