
#######################################################################
#
#                 Cambridge Crystallographic Data Centre
#                                CCDC 
#
#######################################################################
#
# If this CIF has been generated from an entry in the Cambridge 
# Structural Database, then it will include bibliographic, chemical, 
# crystal, experimental, refinement or atomic coordinate data resulting 
# from the CCDC's data processing and validation procedures.
#
#######################################################################

data_DOWGIG
_chemical_formula_moiety         'C17 H14 N2 O1'
_chemical_name_systematic        
3-(4-Benzyl-4,5-dihydro-1,3-oxazol-2-yl)benzonitrile
_symmetry_cell_setting           orthorhombic
_symmetry_space_group_name_H-M   'P 21 21 21'
_symmetry_Int_Tables_number      19
_space_group_name_Hall           'P 2ac 2ab'
loop_
_symmetry_equiv_pos_site_id
_symmetry_equiv_pos_as_xyz
1 x,y,z
2 1/2-x,-y,1/2+z
3 -x,1/2+y,1/2-z
4 1/2+x,1/2-y,-z
_cell_length_a                   7.8004(7)
_cell_length_b                   11.6387(11)
_cell_length_c                   30.824(3)
_cell_angle_alpha                90
_cell_angle_beta                 90
_cell_angle_gamma                90
_cell_volume                     2798.4
_exptl_crystal_colour            colorless
_exptl_crystal_description       prismatic
_cell_formula_units_Z            8
loop_
_atom_site_label
_atom_site_type_symbol
_atom_site_fract_x
_atom_site_fract_y
_atom_site_fract_z
N1 N 0.8148(4) 0.2180(2) 0.14090(7)
N2 N 0.7871(6) 0.4096(4) 0.35981(10)
O1 O 0.7721(3) 0.39120(17) 0.17139(6)
C1 C 0.8089(4) 0.2774(2) 0.17490(9)
C2 C 0.7561(5) 0.4138(3) 0.12572(9)
H1 H 0.8453 0.4657 0.1159
H2 H 0.6452 0.4471 0.1191
C3 C 0.7753(4) 0.2959(3) 0.10449(9)
H3 H 0.8737 0.2978 0.0847
C4 C 0.6199(4) 0.2557(3) 0.07977(9)
H4 H 0.5190 0.2666 0.0977
H5 H 0.6311 0.1741 0.0740
C5 C 0.5948(4) 0.3182(3) 0.03729(9)
C6 C 0.4982(4) 0.4183(3) 0.03424(10)
H6 H 0.4467 0.4478 0.0591
C7 C 0.4770(5) 0.4742(3) -0.00416(11)
H7 H 0.4116 0.5409 -0.0053
C8 C 0.5521(5) 0.4321(4) -0.04127(11)
H8 H 0.5391 0.4706 -0.0675
C9 C 0.6463(5) 0.3329(4) -0.03910(10)
H9 H 0.6969 0.3038 -0.0641
C10 C 0.6668(5) 0.2761(3) -0.00048(10)
H10 H 0.7300 0.2084 0.0003
C11 C 0.8393(4) 0.2371(3) 0.21934(9)
C12 C 0.9029(4) 0.1266(3) 0.22653(11)
H11 H 0.9237 0.0777 0.2032
C13 C 0.9347(5) 0.0901(3) 0.26859(12)
H12 H 0.9771 0.0165 0.2733
C14 C 0.9048(5) 0.1603(3) 0.30294(12)
H13 H 0.9271 0.1346 0.3310
C15 C 0.8410(4) 0.2704(3) 0.29638(9)
C16 C 0.8104(4) 0.3074(3) 0.25396(9)
H14 H 0.7694 0.3813 0.2492
C17 C 0.8112(6) 0.3472(4) 0.33194(11)
N3 N 0.3083(5) 0.2019(2) 0.35365(8)
N4 N 0.2297(5) 0.4095(4) 0.13925(10)
O2 O 0.2972(4) 0.3824(2) 0.32841(7)
C18 C 0.3152(4) 0.2675(3) 0.32185(10)
C19 C 0.2683(6) 0.3959(3) 0.37471(10)
H15 H 0.1534 0.4240 0.3804
H16 H 0.3507 0.4487 0.3873
C20 C 0.2919(5) 0.2761(3) 0.39255(9)
H17 H 0.1893 0.2538 0.4088
C21 C 0.4487(4) 0.2601(3) 0.42101(9)
H18 H 0.4641 0.1786 0.4263
H19 H 0.5485 0.2870 0.4052
C22 C 0.4423(4) 0.3211(3) 0.46395(9)
C23 C 0.5156(4) 0.4284(3) 0.46999(11)
H20 H 0.5677 0.4651 0.4467
C24 C 0.5129(5) 0.4811(3) 0.50941(12)
H21 H 0.5631 0.5530 0.5128
C25 C 0.4357(5) 0.4280(5) 0.54417(12)
H22 H 0.4325 0.4640 0.5711
C26 C 0.3639(5) 0.3221(4) 0.53887(11)
H23 H 0.3132 0.2854 0.5624
C27 C 0.3661(5) 0.2690(3) 0.49893(11)
H24 H 0.3155 0.1972 0.4956
C28 C 0.3423(4) 0.2339(3) 0.27651(9)
C29 C 0.4060(4) 0.1250(3) 0.26681(11)
H25 H 0.4333 0.0749 0.2893
C30 C 0.4289(5) 0.0907(3) 0.22468(11)
H26 H 0.4750 0.0187 0.2187
C31 C 0.3837(5) 0.1629(3) 0.19105(11)
H27 H 0.3957 0.1388 0.1624
C32 C 0.3201(4) 0.2714(3) 0.20023(10)
C33 C 0.3011(4) 0.3067(3) 0.24304(9)
H28 H 0.2604 0.3801 0.2491
C34 C 0.2702(5) 0.3482(3) 0.16598(12)
loop_
_geom_bond_atom_site_label_1
_geom_bond_atom_site_label_2
_geom_bond_site_symmetry_1
_geom_bond_site_symmetry_2
N1 C1 1_555 1_555
N2 C17 1_555 1_555
O1 C1 1_555 1_555
C1 C11 1_555 1_555
C2 O1 1_555 1_555
H1 C2 1_555 1_555
H2 C2 1_555 1_555
C3 N1 1_555 1_555
H3 C3 1_555 1_555
C4 C3 1_555 1_555
H4 C4 1_555 1_555
H5 C4 1_555 1_555
C5 C4 1_555 1_555
C6 C5 1_555 1_555
H6 C6 1_555 1_555
C7 C6 1_555 1_555
H7 C7 1_555 1_555
C8 C7 1_555 1_555
H8 C8 1_555 1_555
C9 C8 1_555 1_555
H9 C9 1_555 1_555
C10 C5 1_555 1_555
H10 C10 1_555 1_555
C11 C12 1_555 1_555
C12 H11 1_555 1_555
C13 C12 1_555 1_555
H12 C13 1_555 1_555
C14 C13 1_555 1_555
H13 C14 1_555 1_555
C15 C14 1_555 1_555
C16 C11 1_555 1_555
H14 C16 1_555 1_555
C17 C15 1_555 1_555
N3 C18 1_555 1_555
N4 C34 1_555 1_555
O2 C18 1_555 1_555
C18 C28 1_555 1_555
C19 O2 1_555 1_555
H15 C19 1_555 1_555
H16 C19 1_555 1_555
C20 N3 1_555 1_555
H17 C20 1_555 1_555
C21 C20 1_555 1_555
H18 C21 1_555 1_555
H19 C21 1_555 1_555
C22 C21 1_555 1_555
C23 C22 1_555 1_555
H20 C23 1_555 1_555
C24 C23 1_555 1_555
H21 C24 1_555 1_555
C25 C24 1_555 1_555
H22 C25 1_555 1_555
C26 C25 1_555 1_555
H23 C26 1_555 1_555
C27 C22 1_555 1_555
H24 C27 1_555 1_555
C28 C29 1_555 1_555
C29 H25 1_555 1_555
C30 C29 1_555 1_555
H26 C30 1_555 1_555
C31 C30 1_555 1_555
H27 C31 1_555 1_555
C32 C31 1_555 1_555
C33 C28 1_555 1_555
H28 C33 1_555 1_555
C34 C32 1_555 1_555
C2 C3 1_555 1_555
C9 C10 1_555 1_555
C15 C16 1_555 1_555
C19 C20 1_555 1_555
C26 C27 1_555 1_555
C32 C33 1_555 1_555

#END
