
#######################################################################
#
#                 Cambridge Crystallographic Data Centre
#                                CCDC 
#
#######################################################################
#
# If this CIF has been generated from an entry in the Cambridge 
# Structural Database, then it will include bibliographic, chemical, 
# crystal, experimental, refinement or atomic coordinate data resulting 
# from the CCDC's data processing and validation procedures.
#
#######################################################################

data_DOWMIN
_chemical_formula_moiety         'C2 F4 O8 P3 5-,5(H4 N1 1+),2(H2 O1)'
_chemical_name_systematic        
'pentakis(Ammonium) (phosphinatobis(difluoromethylene))bis(phosphonate) dihydrate'
_symmetry_cell_setting           triclinic
_symmetry_space_group_name_H-M   'P 1'
_symmetry_Int_Tables_number      1
_space_group_name_Hall           'P 1'
loop_
_symmetry_equiv_pos_site_id
_symmetry_equiv_pos_as_xyz
1 x,y,z
_cell_length_a                   6.6805(6)
_cell_length_b                   6.7884(6)
_cell_length_c                   10.5904(10)
_cell_angle_alpha                77.1930(10)
_cell_angle_beta                 75.8220(10)
_cell_angle_gamma                65.9530(10)
_cell_volume                     421.185
_exptl_crystal_colour            colorless
_exptl_crystal_description       prism
_cell_formula_units_Z            1
loop_
_atom_site_label
_atom_site_type_symbol
_atom_site_fract_x
_atom_site_fract_y
_atom_site_fract_z
P1 P 0.57991(12) 0.07104(13) 0.52052(7)
P2 P 0.29112(12) 0.29973(12) 0.76717(7)
P3 P 0.24079(12) -0.01354(13) 1.05049(7)
C1 C 0.3769(5) 0.0651(5) 0.6758(3)
C2 C 0.1273(5) 0.2351(5) 0.9302(3)
F1 F 0.4653(3) -0.1293(3) 0.75564(18)
F2 F 0.1871(3) 0.0591(3) 0.64844(18)
F3 F -0.0731(3) 0.2454(3) 0.90759(18)
F4 F 0.0673(3) 0.4209(3) 0.98950(18)
O1 O 0.4759(4) 0.2981(4) 0.4490(2)
O2 O 0.5830(4) -0.1091(4) 0.4548(2)
O3 O 0.7971(4) 0.0262(4) 0.5608(2)
O4 O 0.4970(4) 0.3142(4) 0.7899(2)
O5 O 0.1267(4) 0.4907(4) 0.6979(2)
O6 O 0.4888(4) -0.0722(4) 1.0231(2)
O7 O 0.1622(4) -0.1736(4) 1.0176(2)
O8 O 0.1337(4) 0.0518(4) 1.1866(2)
O9 O 0.7290(5) 0.3751(5) 0.2196(2)
H1 H 0.667(8) 0.336(8) 0.283(4)
H2 H 0.848(8) 0.262(7) 0.210(4)
O10 O 0.1353(6) 0.3681(6) 0.3217(4)
H3 H 0.224(9) 0.329(9) 0.367(5)
H4 H 0.177(14) 0.290(15) 0.273(7)
N1 N 0.7903(6) 0.4671(6) 0.5869(3)
H5 H 0.896(8) 0.463(8) 0.616(4)
H6 H 0.670(8) 0.449(8) 0.651(5)
H7 H 0.846(8) 0.386(9) 0.527(5)
H8 H 0.715(7) 0.608(8) 0.540(4)
N2 N 0.8759(5) 0.8637(5) 0.8317(3)
H9 H 0.965(7) 0.881(7) 0.882(4)
H10 H 0.755(7) 0.881(7) 0.884(4)
H11 H 0.849(6) 0.963(7) 0.770(4)
H12 H 0.952(9) 0.746(10) 0.793(5)
N3 N 0.4629(6) 0.4126(6) 0.0446(4)
H13 H 0.563(8) 0.402(8) 0.090(5)
H14 H 0.374(9) 0.351(9) 0.113(6)
H15 H 0.355(7) 0.568(8) 0.040(4)
H16 H 0.507(9) 0.382(9) -0.026(5)
N4 N 0.7824(5) 0.7756(6) 0.1988(3)
H17 H 0.731(6) 0.824(6) 0.276(4)
H18 H 0.807(8) 0.625(10) 0.224(5)
H19 H 0.687(8) 0.837(8) 0.152(4)
H20 H 0.902(8) 0.794(8) 0.154(4)
N5 N 0.2190(5) 0.7850(6) 0.4370(3)
H21 H 0.308(7) 0.845(7) 0.454(4)
H22 H 0.088(7) 0.846(7) 0.482(4)
H23 H 0.266(7) 0.647(8) 0.455(4)
H24 H 0.198(7) 0.836(7) 0.344(4)
loop_
_geom_bond_atom_site_label_1
_geom_bond_atom_site_label_2
_geom_bond_site_symmetry_1
_geom_bond_site_symmetry_2
P1 C1 1_555 1_555
P2 C1 1_555 1_555
P3 C2 1_555 1_555
C1 F1 1_555 1_555
C2 P2 1_555 1_555
F2 C1 1_555 1_555
F3 C2 1_555 1_555
F4 C2 1_555 1_555
O1 P1 1_555 1_555
O2 P1 1_555 1_555
O3 P1 1_555 1_555
O4 P2 1_555 1_555
O5 P2 1_555 1_555
O6 P3 1_555 1_555
O7 P3 1_555 1_555
O8 P3 1_555 1_555
O9 H1 1_555 1_555
H2 O9 1_555 1_555
O10 H3 1_555 1_555
H4 O10 1_555 1_555
N1 H5 1_555 1_555
H6 N1 1_555 1_555
H7 N1 1_555 1_555
H8 N1 1_555 1_555
N2 H9 1_555 1_555
H10 N2 1_555 1_555
H11 N2 1_555 1_555
H12 N2 1_555 1_555
N3 H13 1_555 1_555
H14 N3 1_555 1_555
H15 N3 1_555 1_555
H16 N3 1_555 1_555
N4 H17 1_555 1_555
H18 N4 1_555 1_555
H19 N4 1_555 1_555
H20 N4 1_555 1_555
N5 H21 1_555 1_555
H22 N5 1_555 1_555
H23 N5 1_555 1_555
H24 N5 1_555 1_555

#END
