
#######################################################################
#
#                 Cambridge Crystallographic Data Centre
#                                CCDC 
#
#######################################################################
#
# If this CIF has been generated from an entry in the Cambridge 
# Structural Database, then it will include bibliographic, chemical, 
# crystal, experimental, refinement or atomic coordinate data resulting 
# from the CCDC's data processing and validation procedures.
#
#######################################################################

data_DOWVOC02
_chemical_formula_moiety         'C10 H6 O6 S2 2-,C5 H6 N1 1+,C1 H6 N3 1+'
_chemical_name_systematic        
'guanidinium pyridinium naphthalene-1,5-disulfonate'
_symmetry_cell_setting           triclinic
_symmetry_space_group_name_H-M   'P -1'
_symmetry_Int_Tables_number      2
_space_group_name_Hall           '-P 1'
loop_
_symmetry_equiv_pos_site_id
_symmetry_equiv_pos_as_xyz
1 x,y,z
2 -x,-y,-z
_cell_length_a                   8.057(4)
_cell_length_b                   8.208(4)
_cell_length_c                   14.116(7)
_cell_angle_alpha                92.274(5)
_cell_angle_beta                 101.962(8)
_cell_angle_gamma                90.103(7)
_cell_volume                     912.479
_exptl_crystal_colour            colorless
_exptl_crystal_description       block
_cell_formula_units_Z            2
loop_
_atom_site_label
_atom_site_type_symbol
_atom_site_fract_x
_atom_site_fract_y
_atom_site_fract_z
C1 C 0.7841(4) 0.3098(4) 0.7373(3)
H1 H 0.7189 0.4032 0.7364
C2 C 0.8313(5) 0.2316(5) 0.8191(2)
H2 H 0.8008 0.2709 0.8757
C3 C 0.9255(4) 0.0921(4) 0.8193(2)
H3 H 0.9612 0.0367 0.8760
C4 C 0.9658(4) 0.0363(4) 0.7338(3)
H4 H 1.0268 -0.0594 0.7317
C5 C 0.9168(3) 0.1202(3) 0.65424(18)
H5 H 0.9444 0.0831 0.5964
N1 N 0.8303(3) 0.2544(3) 0.65654(18)
H6 H 0.8024 0.3083 0.6047
C6 C 0.6105(3) 0.7981(3) 0.51986(15)
C7 C 0.5082(3) 0.7198(3) 0.56997(16)
H7 H 0.5335 0.6143 0.5898
C8 C 0.6353(3) 1.2016(3) 0.40838(17)
H8 H 0.7051 1.2566 0.3752
C9 C 0.6738(3) 1.0469(3) 0.43506(16)
H9 H 0.7679 0.9968 0.4186
C10 C 0.5721(2) 0.9602(2) 0.48793(14)
O1 O 0.7616(3) 0.6645(2) 0.39139(12)
O2 O 0.8004(2) 0.5439(2) 0.54839(14)
O3 O 0.9367(2) 0.7991(2) 0.53171(14)
S1 S 0.79200(7) 0.69210(7) 0.49592(4)
C6A C 0.3895(3) 1.2019(3) 0.48014(15)
C7A C 0.4918(3) 1.2802(3) 0.43003(16)
H7A H 0.4665 1.3857 0.4102
C8A C 0.3647(3) 0.7984(3) 0.59162(17)
H8A H 0.2949 0.7434 0.6248
C9A C 0.3262(3) 0.9531(3) 0.56494(16)
H9A H 0.2321 1.0032 0.5814
C10A C 0.4279(2) 1.0398(2) 0.51207(14)
O1A O 0.2384(3) 1.3355(2) 0.60861(12)
O2A O 0.1996(2) 1.4561(2) 0.45161(14)
O3A O 0.0633(2) 1.2009(2) 0.46829(14)
S1A S 0.20800(7) 1.30790(7) 0.50408(4)
C11 C 0.5902(3) 0.8730(2) 0.90971(15)
C12 C 0.5236(3) 0.9478(3) 0.82540(16)
H10 H 0.5497 0.9092 0.7674
C13 C 0.4156(3) 1.0829(3) 0.82578(17)
H11 H 0.3696 1.1321 0.7681
C14 C 0.6214(3) 0.8588(3) 1.08931(16)
H12 H 0.6921 0.7692 1.0899
C15 C 0.5547(3) 0.9312(2) 1.00033(15)
O4 O 0.6375(2) 0.56355(19) 0.93350(12)
O5 O 0.8858(2) 0.7407(2) 0.96721(12)
O6 O 0.7384(2) 0.6848(2) 0.80185(11)
S2 S 0.72441(7) 0.70273(7) 0.90278(4)
C11A C 0.4098(3) 1.1270(2) 1.09029(15)
C12A C 0.4764(3) 1.0522(3) 1.17460(16)
H10A H 0.4503 1.0908 1.2326
C13A C 0.5844(3) 0.9171(3) 1.17422(17)
H11A H 0.6304 0.8679 1.2319
C14A C 0.3786(3) 1.1412(3) 0.91069(16)
H12A H 0.3079 1.2308 0.9101
C15A C 0.4453(3) 1.0688(2) 0.99967(15)
O4A O 0.3625(2) 1.43645(19) 1.06650(12)
O5A O 0.1142(2) 1.2593(2) 1.03279(12)
O6A O 0.2616(2) 1.3152(2) 1.19815(11)
S2A S 0.27559(7) 1.29727(7) 1.09722(4)
C16 C 0.8117(3) 0.4215(3) 0.18929(15)
N2 N 0.8118(3) 0.3760(3) 0.09822(14)
H13 H 0.7237 0.3918 0.0535
H14 H 0.8999 0.3306 0.0838
N3 N 0.6773(2) 0.4909(2) 0.21153(14)
H15 H 0.6761 0.5172 0.2710
H16 H 0.5904 0.5099 0.1667
N4 N 0.9450(3) 0.3922(3) 0.25786(14)
H17 H 0.9441 0.4184 0.3173
H18 H 1.0329 0.3467 0.2431
loop_
_geom_bond_atom_site_label_1
_geom_bond_atom_site_label_2
_geom_bond_site_symmetry_1
_geom_bond_site_symmetry_2
C1 H1 1_555 1_555
C2 C1 1_555 1_555
H2 C2 1_555 1_555
C3 C2 1_555 1_555
H3 C3 1_555 1_555
C4 C3 1_555 1_555
H4 C4 1_555 1_555
C5 C4 1_555 1_555
H5 C5 1_555 1_555
N1 C1 1_555 1_555
H6 N1 1_555 1_555
C6 C7 1_555 1_555
C7 H7 1_555 1_555
C8 H8 1_555 1_555
C9 C8 1_555 1_555
H9 C9 1_555 1_555
C10 C6 1_555 1_555
O1 S1 1_555 1_555
O2 S1 1_555 1_555
O3 S1 1_555 1_555
S1 C6 1_555 1_555
C11 C12 1_555 1_555
C12 H10 1_555 1_555
C13 C12 1_555 1_555
H11 C13 1_555 1_555
C14 H12 1_555 1_555
C15 C11 1_555 1_555
O4 S2 1_555 1_555
O5 S2 1_555 1_555
O6 S2 1_555 1_555
S2 C11 1_555 1_555
C16 N2 1_555 1_555
N2 H13 1_555 1_555
H14 N2 1_555 1_555
N3 C16 1_555 1_555
H15 N3 1_555 1_555
H16 N3 1_555 1_555
N4 C16 1_555 1_555
H17 N4 1_555 1_555
H18 N4 1_555 1_555
C6A C7A 1_555 1_555
C7A C8 1_555 1_555
H7A C7A 1_555 1_555
C8A C7 1_555 1_555
H8A C8A 1_555 1_555
C9A C8A 1_555 1_555
H9A C9A 1_555 1_555
C10A C10 1_555 1_555
O1A S1A 1_555 1_555
O2A S1A 1_555 1_555
O3A S1A 1_555 1_555
S1A C6A 1_555 1_555
C11A C12A 1_555 1_555
C12A H10A 1_555 1_555
C13A C14 1_555 1_555
H11A C13A 1_555 1_555
C14A C13 1_555 1_555
H12A C14A 1_555 1_555
C15A C15 1_555 1_555
O4A S2A 1_555 1_555
O5A S2A 1_555 1_555
O6A S2A 1_555 1_555
S2A C11A 1_555 1_555
C5 N1 1_555 1_555
C9 C10 1_555 1_555
C14 C15 1_555 1_555
C6A C10A 1_555 1_555
C9A C10A 1_555 1_555
C11A C15A 1_555 1_555
C12A C13A 1_555 1_555
C14A C15A 1_555 1_555

#END
