
#######################################################################
#
#                 Cambridge Crystallographic Data Centre
#                                CCDC 
#
#######################################################################
#
# If this CIF has been generated from an entry in the Cambridge 
# Structural Database, then it will include bibliographic, chemical, 
# crystal, experimental, refinement or atomic coordinate data resulting 
# from the CCDC's data processing and validation procedures.
#
#######################################################################

data_DOWVUI
_chemical_formula_moiety         'C10 H6 O6 S2 2-,C4 H7 N2 1+,C1 H6 N3 1+,H2 O1'
_chemical_name_systematic        
'guanidinium 2-methyl-1H-imidazol-3-ium naphthalene-1,5-disulfonate monohydrate'
_symmetry_cell_setting           orthorhombic
_symmetry_space_group_name_H-M   'P n m a'
_symmetry_Int_Tables_number      62
_space_group_name_Hall           '-P 2ac 2n'
loop_
_symmetry_equiv_pos_site_id
_symmetry_equiv_pos_as_xyz
1 x,y,z
2 1/2-x,-y,1/2+z
3 -x,1/2+y,-z
4 1/2+x,1/2-y,1/2-z
5 -x,-y,-z
6 1/2+x,y,1/2-z
7 x,1/2-y,z
8 1/2-x,1/2+y,1/2+z
_cell_length_a                   19.191(4)
_cell_length_b                   13.172(3)
_cell_length_c                   7.9418(16)
_cell_angle_alpha                90
_cell_angle_beta                 90
_cell_angle_gamma                90
_cell_volume                     2007.56
_exptl_crystal_colour            colorless
_exptl_crystal_description       block
_cell_formula_units_Z            4
loop_
_atom_site_label
_atom_site_type_symbol
_atom_site_fract_x
_atom_site_fract_y
_atom_site_fract_z
O1 O 0.7200(2) 0.2500 0.1940(7)
H1 H 0.741(3) 0.205(4) 0.179(8)
H1F H 0.741(3) 0.295(4) 0.179(8)
S1 S 0.35085(4) 0.03228(5) 0.26515(9)
O2 O 0.36039(11) -0.05793(17) 0.1638(3)
O3 O 0.28064(10) 0.04141(17) 0.3296(3)
C1 C 0.40619(13) 0.01916(19) 0.4441(3)
O4 O 0.37379(10) 0.12350(15) 0.1787(3)
C2 C 0.47935(13) 0.00455(19) 0.4253(3)
C3 C 0.51276(15) -0.0015(2) 0.2669(3)
H2 H 0.4853 0.0037 0.1663
C4 C 0.37618(15) 0.0232(2) 0.6000(4)
H3 H 0.3268 0.0332 0.6100
C5 C 0.58290(17) -0.0142(3) 0.2544(4)
H4 H 0.6045 -0.0166 0.1455
S1D S 0.64915(4) -0.03228(5) 0.73485(9)
O2D O 0.63961(11) 0.05793(17) 0.8362(3)
O3D O 0.71936(10) -0.04141(17) 0.6704(3)
C1D C 0.59381(13) -0.01916(19) 0.5559(3)
O4D O 0.62621(10) -0.12350(15) 0.8213(3)
C2D C 0.52065(13) -0.00455(19) 0.5747(3)
C3D C 0.48724(15) 0.0015(2) 0.7331(3)
H2D H 0.5147 -0.0037 0.8337
C4D C 0.62382(15) -0.0232(2) 0.4000(4)
H3D H 0.6732 -0.0332 0.3900
C5D C 0.41710(17) 0.0142(3) 0.7456(4)
H4D H 0.3955 0.0166 0.8545
C6 C 0.25590(19) 0.2500 0.8413(5)
N1 N 0.21181(19) 0.2500 0.7131(5)
H5 H 0.1968 0.1908 0.6696
N2 N 0.27765(13) 0.16350(18) 0.9053(3)
H6 H 0.2626 0.1045 0.8612
H7 H 0.3077 0.1632 0.9923
H5F H 0.1968 0.3092 0.6696
N2F N 0.27765(13) 0.33650(18) 0.9053(3)
H6F H 0.2626 0.3955 0.8612
H7F H 0.3077 0.3368 0.9923
N3 N 0.48053(19) 0.2500 0.3258(5)
H8 H 0.4361 0.2500 0.2896
N4 N 0.5909(2) 0.2500 0.3284(8)
H9 H 0.6356 0.2500 0.2944
C7 C 0.5005(3) 0.2500 0.4922(7)
H10 H 0.4700 0.2500 0.5879
C8 C 0.5350(2) 0.2500 0.2255(7)
C9 C 0.5689(3) 0.2500 0.4918(9)
H11 H 0.5982 0.2500 0.5898
C10 C 0.5359(3) 0.2500 0.0394(9)
H12 H 0.4887 0.2500 -0.0009
H13 H 0.5595 0.3095 -0.0009
H13F H 0.5595 0.1905 -0.0009
loop_
_geom_bond_atom_site_label_1
_geom_bond_atom_site_label_2
_geom_bond_site_symmetry_1
_geom_bond_site_symmetry_2
O1 H1 1_555 1_555
S1 O2 1_555 1_555
O3 S1 1_555 1_555
C1 S1 1_555 1_555
O4 S1 1_555 1_555
C2 C1 1_555 1_555
C3 C2 1_555 1_555
H2 C3 1_555 1_555
C4 C1 1_555 1_555
H3 C4 1_555 1_555
C5 C3 1_555 1_555
H4 C5 1_555 1_555
C6 N1 1_555 1_555
N1 H5 1_555 1_555
N2 C6 1_555 1_555
H6 N2 1_555 1_555
H7 N2 1_555 1_555
N3 H8 1_555 1_555
N4 H9 1_555 1_555
C7 N3 1_555 1_555
H10 C7 1_555 1_555
C8 N3 1_555 1_555
C9 N4 1_555 1_555
H11 C9 1_555 1_555
C10 C8 1_555 1_555
H12 C10 1_555 1_555
H13 C10 1_555 1_555
H1F O1 1_555 1_555
S1D O2D 1_555 1_555
O3D S1D 1_555 1_555
C1D S1D 1_555 1_555
O4D S1D 1_555 1_555
C2D C2 1_555 1_555
C3D C2D 1_555 1_555
H2D C3D 1_555 1_555
C4D C5 1_555 1_555
H3D C4D 1_555 1_555
C5D C4 1_555 1_555
H4D C5D 1_555 1_555
H5F N1 1_555 1_555
N2F C6 1_555 1_555
H6F N2F 1_555 1_555
H7F N2F 1_555 1_555
H13F C10 1_555 1_555
N4 C8 1_555 1_555
C7 C9 1_555 1_555
C1D C2D 1_555 1_555
C1D C4D 1_555 1_555
C3D C5D 1_555 1_555

#END
