
#######################################################################
#
#                 Cambridge Crystallographic Data Centre
#                                CCDC 
#
#######################################################################
#
# If this CIF has been generated from an entry in the Cambridge 
# Structural Database, then it will include bibliographic, chemical, 
# crystal, experimental, refinement or atomic coordinate data resulting 
# from the CCDC's data processing and validation procedures.
#
#######################################################################

data_DOWVOC45
_chemical_formula_moiety         'C10 H6 O6 S2 2-,C5 H6 N1 1+,C1 H6 N3 1+'
_chemical_name_systematic        
'guanidinium pyridinium naphthalene-1,5-disulfonate'
_symmetry_cell_setting           triclinic
_symmetry_space_group_name_H-M   'P -1'
_symmetry_Int_Tables_number      2
_space_group_name_Hall           '-P 1'
loop_
_symmetry_equiv_pos_site_id
_symmetry_equiv_pos_as_xyz
1 x,y,z
2 -x,-y,-z
_cell_length_a                   8.049(4)
_cell_length_b                   8.192(4)
_cell_length_c                   14.109(8)
_cell_angle_alpha                92.270(5)
_cell_angle_beta                 101.820(9)
_cell_angle_gamma                90.263(7)
_cell_volume                     909.793
_exptl_crystal_colour            colorless
_exptl_crystal_description       block
_cell_formula_units_Z            2
loop_
_atom_site_label
_atom_site_type_symbol
_atom_site_fract_x
_atom_site_fract_y
_atom_site_fract_z
C1 C 0.7850(5) 0.3067(4) 0.7385(3)
H1 H 0.7192 0.3998 0.7380
C2 C 0.8347(5) 0.2274(5) 0.8204(3)
H2 H 0.8057 0.2662 0.8776
C3 C 0.9270(5) 0.0909(5) 0.8193(3)
H3 H 0.9636 0.0355 0.8759
C4 C 0.9665(4) 0.0344(4) 0.7341(3)
H4 H 1.0278 -0.0612 0.7320
C5 C 0.9166(4) 0.1175(4) 0.6542(2)
H5 H 0.9433 0.0797 0.5962
N1 N 0.8309(4) 0.2507(4) 0.6567(2)
H6 H 0.8028 0.3046 0.6048
C6 C 0.6113(3) 0.7985(3) 0.52020(17)
C7 C 0.5080(4) 0.7209(3) 0.5700(2)
H7 H 0.5326 0.6150 0.5893
C8 C 0.6338(4) 1.2024(3) 0.4074(2)
H8 H 0.7022 1.2577 0.3732
C9 C 0.6740(3) 1.0467(3) 0.43484(19)
H9 H 0.7688 0.9970 0.4189
C10 C 0.5717(3) 0.9610(3) 0.48747(17)
O1 O 0.9379(2) 0.8018(3) 0.53164(16)
O2 O 0.8018(3) 0.5452(2) 0.54826(16)
O3 O 0.7633(3) 0.6656(3) 0.39134(14)
S1 S 0.79316(9) 0.69328(8) 0.49586(5)
C6A C 0.3887(3) 1.2015(3) 0.47980(17)
C7A C 0.4920(4) 1.2791(3) 0.4300(2)
H7A H 0.4674 1.3850 0.4107
C8A C 0.3662(4) 0.7976(3) 0.5926(2)
H8A H 0.2978 0.7423 0.6268
C9A C 0.3260(3) 0.9533(3) 0.56516(19)
H9A H 0.2312 1.0030 0.5811
C10A C 0.4283(3) 1.0390(3) 0.51253(17)
O1A O 0.0621(2) 1.1982(3) 0.46836(16)
O2A O 0.1982(3) 1.4548(2) 0.45174(16)
O3A O 0.2367(3) 1.3344(3) 0.60866(14)
S1A S 0.20684(9) 1.30672(8) 0.50414(5)
C11 C 0.5907(3) 0.8735(3) 0.90995(18)
C12 C 0.5247(3) 0.9475(3) 0.82606(19)
H10 H 0.5520 0.9091 0.7683
C13 C 0.4152(4) 1.0822(3) 0.8255(2)
H11 H 0.3685 1.1304 0.7677
C14 C 0.6211(4) 0.8594(3) 1.0895(2)
H12 H 0.6913 0.7695 1.0899
C15 C 0.5556(3) 0.9314(3) 1.00093(18)
O4 O 0.6384(2) 0.5628(2) 0.93376(14)
O5 O 0.8866(2) 0.7415(2) 0.96761(14)
O6 O 0.7398(3) 0.6847(2) 0.80204(13)
S2 S 0.72486(8) 0.70297(8) 0.90269(5)
C11A C 0.4093(3) 1.1265(3) 1.09005(18)
C12A C 0.4753(3) 1.0525(3) 1.17394(19)
H10A H 0.4480 1.0909 1.2317
C13A C 0.5848(4) 0.9178(3) 1.1745(2)
H11A H 0.6315 0.8696 1.2323
C14A C 0.3789(4) 1.1406(3) 0.9105(2)
H12A H 0.3087 1.2305 0.9101
C15A C 0.4444(3) 1.0686(3) 0.99907(18)
O4A O 0.3616(2) 1.4372(2) 1.06624(14)
O5A O 0.1134(2) 1.2585(2) 1.03239(14)
O6A O 0.2602(3) 1.3153(2) 1.19796(13)
S2A S 0.27514(8) 1.29703(8) 1.09731(5)
C16 C 0.8115(3) 0.4215(3) 0.18968(18)
N2 N 0.6758(3) 0.4925(3) 0.21138(17)
H13 H 0.6740 0.5200 0.2706
H14 H 0.5894 0.5113 0.1662
N3 N 0.9441(3) 0.3923(3) 0.25801(17)
H15 H 0.9433 0.4194 0.3174
H16 H 1.0317 0.3462 0.2433
N4 N 0.8115(3) 0.3752(3) 0.09810(16)
H17 H 0.8981 0.3263 0.0839
H18 H 0.7248 0.3941 0.0532
loop_
_geom_bond_atom_site_label_1
_geom_bond_atom_site_label_2
_geom_bond_site_symmetry_1
_geom_bond_site_symmetry_2
C1 H1 1_555 1_555
C2 C1 1_555 1_555
H2 C2 1_555 1_555
C3 C2 1_555 1_555
H3 C3 1_555 1_555
C4 C3 1_555 1_555
H4 C4 1_555 1_555
C5 C4 1_555 1_555
H5 C5 1_555 1_555
N1 C1 1_555 1_555
H6 N1 1_555 1_555
C6 C7 1_555 1_555
C7 H7 1_555 1_555
C8 H8 1_555 1_555
C9 C8 1_555 1_555
H9 C9 1_555 1_555
C10 C6 1_555 1_555
O1 S1 1_555 1_555
O2 S1 1_555 1_555
O3 S1 1_555 1_555
S1 C6 1_555 1_555
C11 C12 1_555 1_555
C12 H10 1_555 1_555
C13 C12 1_555 1_555
H11 C13 1_555 1_555
C14 H12 1_555 1_555
C15 C11 1_555 1_555
O4 S2 1_555 1_555
O5 S2 1_555 1_555
O6 S2 1_555 1_555
S2 C11 1_555 1_555
C16 N2 1_555 1_555
N2 H13 1_555 1_555
H14 N2 1_555 1_555
N3 C16 1_555 1_555
H15 N3 1_555 1_555
H16 N3 1_555 1_555
N4 C16 1_555 1_555
H17 N4 1_555 1_555
H18 N4 1_555 1_555
C6A C7A 1_555 1_555
C7A C8 1_555 1_555
H7A C7A 1_555 1_555
C8A C7 1_555 1_555
H8A C8A 1_555 1_555
C9A C8A 1_555 1_555
H9A C9A 1_555 1_555
C10A C10 1_555 1_555
O1A S1A 1_555 1_555
O2A S1A 1_555 1_555
O3A S1A 1_555 1_555
S1A C6A 1_555 1_555
C11A C12A 1_555 1_555
C12A H10A 1_555 1_555
C13A C14 1_555 1_555
H11A C13A 1_555 1_555
C14A C13 1_555 1_555
H12A C14A 1_555 1_555
C15A C15 1_555 1_555
O4A S2A 1_555 1_555
O5A S2A 1_555 1_555
O6A S2A 1_555 1_555
S2A C11A 1_555 1_555
C5 N1 1_555 1_555
C9 C10 1_555 1_555
C14 C15 1_555 1_555
C6A C10A 1_555 1_555
C9A C10A 1_555 1_555
C11A C15A 1_555 1_555
C12A C13A 1_555 1_555
C14A C15A 1_555 1_555

#END
