
#######################################################################
#
#                 Cambridge Crystallographic Data Centre
#                                CCDC 
#
#######################################################################
#
# If this CIF has been generated from an entry in the Cambridge 
# Structural Database, then it will include bibliographic, chemical, 
# crystal, experimental, refinement or atomic coordinate data resulting 
# from the CCDC's data processing and validation procedures.
#
#######################################################################

data_DOXKOS
_chemical_formula_moiety         'C11 H12 N3 1+,F6 P1 1-'
_chemical_name_systematic        
'3-((pyridin-4-ylmethyl)amino)pyridinium hexafluorophosphate'
_symmetry_cell_setting           monoclinic
_symmetry_space_group_name_H-M   'P 21/c'
_symmetry_Int_Tables_number      14
_space_group_name_Hall           '-P 2ybc'
loop_
_symmetry_equiv_pos_site_id
_symmetry_equiv_pos_as_xyz
1 x,y,z
2 -x,1/2+y,1/2-z
3 -x,-y,-z
4 x,1/2-y,1/2+z
_cell_length_a                   9.6040(10)
_cell_length_b                   13.6650(10)
_cell_length_c                   13.3341(15)
_cell_angle_alpha                90
_cell_angle_beta                 129.859(7)
_cell_angle_gamma                90
_cell_volume                     1343.3
_exptl_crystal_colour            colorless
_exptl_crystal_description       prism
_cell_formula_units_Z            4
loop_
_atom_site_label
_atom_site_type_symbol
_atom_site_fract_x
_atom_site_fract_y
_atom_site_fract_z
P1 P 0.47473(18) -0.26001(9) 0.53432(13)
F1 F 0.5000(4) -0.2811(2) 0.6618(3)
F2 F 0.4678(4) -0.14695(17) 0.5525(3)
F3 F 0.4474(4) -0.23985(19) 0.4051(3)
F4 F 0.4809(4) -0.37380(16) 0.5140(3)
F5 F 0.2609(4) -0.2660(2) 0.4475(3)
F6 F 0.6867(3) -0.25344(19) 0.6180(3)
N1 N 0.1522(5) 0.1321(2) 0.1142(4)
H1 H 0.098(5) 0.1867(17) 0.077(4)
N2 N 0.0884(6) -0.0759(2) 0.2490(4)
H2 H 0.147(5) -0.1299(18) 0.281(4)
N3 N 0.0553(6) 0.1848(3) 0.5089(4)
C1 C 0.0863(6) 0.0772(3) 0.1591(4)
H3 H -0.0038 0.1020 0.1592
C2 C 0.1529(6) -0.0163(3) 0.2051(4)
C3 C 0.2853(7) -0.0482(3) 0.2003(4)
H4 H 0.3328 -0.1108 0.2299
C4 C 0.3478(7) 0.0095(3) 0.1534(5)
H5 H 0.4367 -0.0136 0.1510
C5 C 0.2786(7) 0.1014(3) 0.1101(5)
H6 H 0.3200 0.1419 0.0780
C6 C -0.0562(6) -0.0484(3) 0.2495(4)
H7 H -0.0922 -0.1059 0.2708
H8 H -0.1598 -0.0283 0.1619
C7 C -0.1102(7) 0.1653(4) 0.3999(5)
H9 H -0.2056 0.2037 0.3790
C8 C -0.1486(6) 0.0908(3) 0.3155(5)
H10 H -0.2675 0.0803 0.2399
C9 C -0.0122(6) 0.0324(3) 0.3430(4)
C10 C 0.1594(6) 0.0517(3) 0.4563(4)
H11 H 0.2572 0.0140 0.4801
C11 C 0.1850(7) 0.1279(3) 0.5344(5)
H12 H 0.3026 0.1398 0.6107
loop_
_geom_bond_atom_site_label_1
_geom_bond_atom_site_label_2
_geom_bond_site_symmetry_1
_geom_bond_site_symmetry_2
P1 F1 1_555 1_555
F2 P1 1_555 1_555
F3 P1 1_555 1_555
F4 P1 1_555 1_555
F5 P1 1_555 1_555
F6 P1 1_555 1_555
N1 H1 1_555 1_555
N2 H2 1_555 1_555
N3 C7 1_555 1_555
C1 N1 1_555 1_555
H3 C1 1_555 1_555
C2 N2 1_555 1_555
C3 C2 1_555 1_555
H4 C3 1_555 1_555
C4 C3 1_555 1_555
H5 C4 1_555 1_555
C5 N1 1_555 1_555
H6 C5 1_555 1_555
C6 N2 1_555 1_555
H7 C6 1_555 1_555
H8 C6 1_555 1_555
C7 H9 1_555 1_555
C8 C7 1_555 1_555
H10 C8 1_555 1_555
C9 C6 1_555 1_555
C10 C9 1_555 1_555
H11 C10 1_555 1_555
C11 N3 1_555 1_555
H12 C11 1_555 1_555
C1 C2 1_555 1_555
C4 C5 1_555 1_555
C8 C9 1_555 1_555
C10 C11 1_555 1_555

#END
