
#######################################################################
#
#                 Cambridge Crystallographic Data Centre
#                                CCDC 
#
#######################################################################
#
# If this CIF has been generated from an entry in the Cambridge 
# Structural Database, then it will include bibliographic, chemical, 
# crystal, experimental, refinement or atomic coordinate data resulting 
# from the CCDC's data processing and validation procedures.
#
#######################################################################

data_DOXLOT
_chemical_formula_moiety         'C11 H13 N3 2+,2(Cl1 O4 1-)'
_chemical_name_systematic        
'3-((pyridinium-2-ylmethyl)amino)pyridinium diperchlorate'
_symmetry_cell_setting           monoclinic
_symmetry_space_group_name_H-M   'C 2/c'
_symmetry_Int_Tables_number      15
_space_group_name_Hall           '-C 2yn'
loop_
_symmetry_equiv_pos_site_id
_symmetry_equiv_pos_as_xyz
1 x,y,z
2 -x,y,1/2-z
3 1/2+x,1/2+y,z
4 1/2-x,1/2+y,1/2-z
5 -x,-y,-z
6 x,-y,1/2+z
7 1/2-x,1/2-y,-z
8 1/2+x,1/2-y,1/2+z
_cell_length_a                   33.867(3)
_cell_length_b                   5.2822(4)
_cell_length_c                   18.0416(12)
_cell_angle_alpha                90
_cell_angle_beta                 108.621(7)
_cell_angle_gamma                90
_cell_volume                     3058.55
_exptl_crystal_colour            colorless
_exptl_crystal_description       prism
_cell_formula_units_Z            8
loop_
_atom_site_label
_atom_site_type_symbol
_atom_site_fract_x
_atom_site_fract_y
_atom_site_fract_z
Cl1 Cl 0.20421(2) -0.78673(15) 0.32711(4)
O1 O 0.21811(9) -0.9304(6) 0.27334(14)
O2 O 0.16222(9) -0.8541(7) 0.3175(2)
O3 O 0.20529(11) -0.5221(5) 0.31114(16)
O4 O 0.22915(9) -0.8335(5) 0.40560(13)
Cl2 Cl 0.05041(3) -0.85860(16) -0.07736(5)
O5 O 0.05802(10) -0.5993(5) -0.05511(17)
O6 O 0.01555(11) -0.8756(7) -0.1435(2)
O7 O 0.08620(10) -0.9567(6) -0.0943(2)
O8 O 0.04534(9) -1.0039(6) -0.01401(17)
N1 N 0.20801(9) -0.7458(6) 0.11100(16)
H1 H 0.2229(10) -0.824(7) 0.1525(14)
N2 N 0.13222(10) -0.2397(6) 0.06459(18)
H2 H 0.1208(12) -0.164(7) 0.0212(13)
N3 N 0.07090(9) -0.4871(6) 0.11167(16)
H3 H 0.0718(13) -0.479(8) 0.0644(10)
C1 C 0.18368(9) -0.5589(6) 0.12213(16)
H4 H 0.1840 -0.5170 0.1724
C2 C 0.15807(9) -0.4289(6) 0.05803(17)
C3 C 0.15994(10) -0.4997(7) -0.01531(17)
H5 H 0.1439 -0.4129 -0.0595
C4 C 0.18462(11) -0.6919(7) -0.02328(19)
H6 H 0.1849 -0.7387 -0.0728
C5 C 0.20909(11) -0.8173(7) 0.0410(2)
H7 H 0.2261 -0.9498 0.0360
C6 C 0.12641(11) -0.1706(7) 0.1378(2)
H8 H 0.1150 -0.0007 0.1328
H9 H 0.1535 -0.1660 0.1779
C7 C 0.09851(9) -0.3423(6) 0.16505(19)
C8 C 0.09867(12) -0.3549(7) 0.2404(2)
H10 H 0.1165 -0.2513 0.2781
C9 C 0.07255(13) -0.5207(8) 0.2611(2)
H11 H 0.0730 -0.5308 0.3129
C10 C 0.04596(12) -0.6698(8) 0.2055(2)
H12 H 0.0288 -0.7855 0.2192
C11 C 0.04484(11) -0.6479(7) 0.1305(2)
H13 H 0.0261 -0.7438 0.0918
loop_
_geom_bond_atom_site_label_1
_geom_bond_atom_site_label_2
_geom_bond_site_symmetry_1
_geom_bond_site_symmetry_2
Cl1 O1 1_555 1_555
O2 Cl1 1_555 1_555
O3 Cl1 1_555 1_555
O4 Cl1 1_555 1_555
Cl2 O5 1_555 1_555
O6 Cl2 1_555 1_555
O7 Cl2 1_555 1_555
O8 Cl2 1_555 1_555
N1 H1 1_555 1_555
N2 H2 1_555 1_555
N3 H3 1_555 1_555
C1 N1 1_555 1_555
H4 C1 1_555 1_555
C2 N2 1_555 1_555
C3 C2 1_555 1_555
H5 C3 1_555 1_555
C4 C3 1_555 1_555
H6 C4 1_555 1_555
C5 N1 1_555 1_555
H7 C5 1_555 1_555
C6 N2 1_555 1_555
H8 C6 1_555 1_555
H9 C6 1_555 1_555
C7 N3 1_555 1_555
C8 C7 1_555 1_555
H10 C8 1_555 1_555
C9 C8 1_555 1_555
H11 C9 1_555 1_555
C10 C9 1_555 1_555
H12 C10 1_555 1_555
C11 N3 1_555 1_555
H13 C11 1_555 1_555
C1 C2 1_555 1_555
C4 C5 1_555 1_555
C6 C7 1_555 1_555
C10 C11 1_555 1_555

#END
