
#######################################################################
#
#                 Cambridge Crystallographic Data Centre
#                                CCDC 
#
#######################################################################
#
# If this CIF has been generated from an entry in the Cambridge 
# Structural Database, then it will include bibliographic, chemical, 
# crystal, experimental, refinement or atomic coordinate data resulting 
# from the CCDC's data processing and validation procedures.
#
#######################################################################

data_DOXMAG
_chemical_formula_moiety         'C11 H13 N3 2+,2(N1 O3 1-)'
_chemical_name_systematic        
'3-((pyridinium-3-ylmethyl)amino)pyridinium dinitrate'
_symmetry_cell_setting           monoclinic
_symmetry_space_group_name_H-M   'C 2/c'
_symmetry_Int_Tables_number      15
_space_group_name_Hall           '-C 2yn'
loop_
_symmetry_equiv_pos_site_id
_symmetry_equiv_pos_as_xyz
1 x,y,z
2 -x,y,1/2-z
3 1/2+x,1/2+y,z
4 1/2-x,1/2+y,1/2-z
5 -x,-y,-z
6 x,-y,1/2+z
7 1/2-x,1/2-y,-z
8 1/2+x,1/2-y,1/2+z
_cell_length_a                   13.1572(19)
_cell_length_b                   5.4000(6)
_cell_length_c                   20.553(2)
_cell_angle_alpha                90
_cell_angle_beta                 111.060(14)
_cell_angle_gamma                90
_cell_volume                     1362.73
_exptl_crystal_colour            colorless
_exptl_crystal_description       prism
_cell_formula_units_Z            4
loop_
_atom_site_label
_atom_site_type_symbol
_atom_site_fract_x
_atom_site_fract_y
_atom_site_fract_z
N3 N 0.2931(2) 1.1337(5) 0.37139(16)
O1 O 0.2801(2) 0.9915(5) 0.32056(12)
O2 O 0.3616(2) 1.0791(5) 0.42798(13)
O3 O 0.2389(2) 1.3226(5) 0.36472(15)
N1 N 0.4465(2) 0.6392(5) 0.36575(12)
H1 H 0.3930 0.7418 0.3550
N2 N 0.5398(2) 0.1259(5) 0.28535(14)
H2 H 0.5910 0.0174 0.2975
C1 C 0.4488(2) 0.4735(5) 0.31759(14)
H3 H 0.3944 0.4730 0.2736
C2 C 0.5330(2) 0.3035(5) 0.33409(14)
C3 C 0.6123(3) 0.3139(6) 0.40068(16)
H4 H 0.6694 0.2008 0.4136
C4 C 0.6068(3) 0.4901(7) 0.44749(17)
H5 H 0.6606 0.4978 0.4916
C5 C 0.5226(3) 0.6528(6) 0.42916(16)
H6 H 0.5182 0.7725 0.4606
N1A N 0.5535(2) 0.6392(5) 0.13425(12)
H1A H 0.6070 0.7418 0.1450
N2A N 0.4602(2) 0.1259(5) 0.21465(14)
H2A H 0.4090 0.0174 0.2025
C1A C 0.5512(2) 0.4735(5) 0.18241(14)
H3A H 0.6056 0.4730 0.2264
C2A C 0.4670(2) 0.3035(5) 0.16591(14)
C3A C 0.3877(3) 0.3139(6) 0.09932(16)
H4A H 0.3306 0.2008 0.0864
C4A C 0.3932(3) 0.4901(7) 0.05251(17)
H5A H 0.3394 0.4978 0.0084
C5A C 0.4774(3) 0.6528(6) 0.07084(16)
H6A H 0.4818 0.7725 0.0394
C6? C 0.5398(2) 0.1259(5) 0.28535(14)
H7? H 0.5373 -0.0363 0.3050
H8? H 0.6112 0.1422 0.2820
loop_
_geom_bond_atom_site_label_1
_geom_bond_atom_site_label_2
_geom_bond_site_symmetry_1
_geom_bond_site_symmetry_2
N1 H1 1_555 1_555
N2 H2 1_555 1_555
C1 N1 1_555 1_555
H3 C1 1_555 1_555
C2 N2 1_555 1_555
C3 C2 1_555 1_555
H4 C3 1_555 1_555
C4 C3 1_555 1_555
H5 C4 1_555 1_555
C5 N1 1_555 1_555
H6 C5 1_555 1_555
N3 O1 1_555 1_555
O2 N3 1_555 1_555
O3 N3 1_555 1_555
N1A H1A 1_555 1_555
N2A N2 1_555 1_555
H2A N2A 1_555 1_555
C1A N1A 1_555 1_555
H3A C1A 1_555 1_555
C2A N2A 1_555 1_555
C3A C2A 1_555 1_555
H4A C3A 1_555 1_555
C4A C3A 1_555 1_555
H5A C4A 1_555 1_555
C5A N1A 1_555 1_555
H6A C5A 1_555 1_555
C1 C2 1_555 1_555
C4 C5 1_555 1_555
C1A C2A 1_555 1_555
C4A C5A 1_555 1_555

#END
