
#######################################################################
#
#                 Cambridge Crystallographic Data Centre
#                                CCDC 
#
#######################################################################
#
# If this CIF has been generated from an entry in the Cambridge 
# Structural Database, then it will include bibliographic, chemical, 
# crystal, experimental, refinement or atomic coordinate data resulting 
# from the CCDC's data processing and validation procedures.
#
#######################################################################

data_DOXVUJ
_chemical_compound_source        'aerial parts of Isodon tenuifolius'
_chemical_name_common            'Bistenuifolin A'
_chemical_formula_moiety         'C52 H68 O18'
_chemical_name_systematic        
"2',6-dihydroxy-5,5,5',5',9,9'-hexamethyl-3,3',15'-trioxo-18-oxaspiro[pentacyclo[11.6.1.0^1,10^.0^4,9^.0^14,19^]icosane-17,14'-tetracyclo[11.2.1.0^1,10^.0^4,9^]hexadecane]-14(19)-ene-2,6',8,8',11,11'-hexayl hexaacetate"
_symmetry_cell_setting           monoclinic
_symmetry_space_group_name_H-M   'P 21'
_symmetry_Int_Tables_number      4
_space_group_name_Hall           'P 2yb'
loop_
_symmetry_equiv_pos_site_id
_symmetry_equiv_pos_as_xyz
1 x,y,z
2 -x,1/2+y,-z
_cell_length_a                   14.0764(4)
_cell_length_b                   10.8065(3)
_cell_length_c                   16.5499(5)
_cell_angle_alpha                90
_cell_angle_beta                 98.0850(10)
_cell_angle_gamma                90
_cell_volume                     2492.49
_exptl_crystal_colour            colorless
_exptl_crystal_description       prism
_chemical_melting_point          '256-257 deg.C'
_cell_formula_units_Z            2
loop_
_atom_site_label
_atom_site_type_symbol
_atom_site_fract_x
_atom_site_fract_y
_atom_site_fract_z
O1 O 0.0627(5) 0.8197(8) 0.0723(5)
O2 O 0.1141(3) 0.6867(4) 0.1713(3)
O3 O 0.3069(3) 0.2789(3) 0.5988(2)
O4 O 0.3574(3) -0.0553(4) 0.8835(3)
O5 O 0.0369(3) 0.6488(5) 0.4601(3)
O6 O 0.2627(3) 0.6286(4) 0.4246(3)
H1 H 0.3097 0.5823 0.4206
O7 O 0.2637(3) 0.2283(4) 0.3166(2)
O8 O 0.2130(5) 0.0824(7) 0.2262(5)
O9 O 0.4656(3) 0.4592(4) 0.8961(2)
O10 O 0.1694(3) 0.2197(4) 0.9483(2)
H2 H 0.1360 0.1562 0.9524
O11 O 0.2195(4) -0.1219(5) 0.8156(5)
O12 O 0.2820(2) 0.4256(3) 0.7478(2)
O13 O 0.3053(3) 0.5551(4) 0.6454(3)
O14 O 0.3714(3) 0.0025(4) 0.6712(2)
O15 O 0.4300(5) -0.1885(5) 0.6962(4)
O16 O 0.3698(3) 0.4197(4) 0.4557(2)
O17 O 0.0233(3) 0.3173(4) 0.1930(2)
O18 O 0.0983(4) 0.3207(6) 0.0827(3)
C1 C 0.1260(6) 0.7698(8) 0.1117(4)
C2 C 0.0177(4) 0.6628(7) 0.1887(4)
H3 H -0.0281 0.7187 0.1544
C3 C 0.0136(4) 0.6901(6) 0.2790(4)
C4 C 0.0816(4) 0.5944(6) 0.3278(3)
H4 H 0.1460 0.6125 0.3115
C5 C 0.0964(4) 0.6105(5) 0.4198(4)
C6 C 0.1908(4) 0.5604(5) 0.4593(4)
H5 H 0.1981 0.5755 0.5194
C7 C 0.1942(4) 0.4206(5) 0.4429(3)
C8 C 0.2975(4) 0.3706(4) 0.4678(3)
C9 C 0.2920(4) 0.2434(5) 0.5120(3)
C10 C 0.3995(3) 0.2674(5) 0.6375(3)
C11 C 0.4205(4) 0.2860(5) 0.7296(3)
C12 C 0.3875(4) 0.1648(5) 0.7694(3)
H6 H 0.3181 0.1544 0.7471
C13 C 0.3920(4) 0.1663(5) 0.8667(3)
C14 C 0.3205(4) 0.0675(5) 0.8904(3)
H7 H 0.2587 0.0754 0.8527
C15 C 0.2978(5) -0.1431(6) 0.8506(4)
C16 C 0.3406(5) -0.2682(6) 0.8606(5)
H8 H 0.2894 -0.3304 0.8551
H9 H 0.3786 -0.2751 0.9148
H10 H 0.3822 -0.2820 0.8187
C17 C 0.2290(6) 0.7820(10) 0.1038(6)
H11 H 0.2357 0.8072 0.0480
H12 H 0.2611 0.7023 0.1159
H13 H 0.2584 0.8446 0.1423
C18 C 0.0547(5) 0.8183(6) 0.3003(4)
H14 H 0.0181 0.8802 0.2655
H15 H 0.1221 0.8207 0.2914
H16 H 0.0504 0.8365 0.3577
C19 C 0.0665(4) 0.4533(6) 0.3100(3)
C20 C 0.1631(3) 0.3895(5) 0.3514(3)
H17 H 0.2145 0.4255 0.3225
C21 C 0.1384(4) 0.3427(5) 0.4992(3)
H18 H 0.1477 0.3752 0.5557
H19 H 0.0689 0.3404 0.4784
C22 C 0.1840(4) 0.2159(5) 0.4947(3)
H20 H 0.1642 0.1595 0.5373
C23 C 0.1517(4) 0.1638(5) 0.4085(3)
H21 H 0.1857 0.0846 0.4034
H22 H 0.0823 0.1448 0.4036
C24 C 0.1680(4) 0.2465(5) 0.3363(3)
H23 H 0.1204 0.2241 0.2878
C25 C 0.2765(5) 0.1439(6) 0.2588(4)
C26 C 0.3773(5) 0.1402(8) 0.2446(5)
H24 H 0.4175 0.1105 0.2940
H25 H 0.3979 0.2235 0.2314
H26 H 0.3836 0.0842 0.1991
C27 C 0.4728(4) 0.2223(6) 0.6058(3)
C28 C 0.4653(4) 0.1730(6) 0.5209(4)
H27 H 0.5040 0.0967 0.5201
H28 H 0.4896 0.2348 0.4847
C29 C 0.3597(4) 0.1451(6) 0.4914(3)
H29 H 0.3511 0.1340 0.4314
H30 H 0.3427 0.0660 0.5159
C30 C 0.5520(4) 0.1972(6) 0.6758(3)
H31 H 0.6171 0.2074 0.6591
C31 C 0.5386(4) 0.0686(6) 0.7116(4)
H32 H 0.5890 0.0555 0.7589
H33 H 0.5476 0.0054 0.6701
C32 C 0.4397(4) 0.0489(5) 0.7393(3)
H34 H 0.4465 -0.0146 0.7837
C33 C 0.3846(4) 0.4063(5) 0.7648(4)
H35 H 0.4192 0.4791 0.7457
C34 C 0.4063(4) 0.3954(5) 0.8584(4)
C35 C 0.3486(4) 0.2924(5) 0.8908(3)
H36 H 0.2841 0.2969 0.8568
C36 C 0.3284(4) 0.3110(5) 0.9799(3)
C37 C 0.2786(5) 0.4356(6) 0.9852(4)
H37 H 0.2523 0.4408 1.0368
H38 H 0.2264 0.4436 0.9395
H39 H 0.3250 0.5025 0.9825
C38 C 0.2610(4) 0.2051(5) 0.9975(3)
H40 H 0.2523 0.2079 1.0564
C39 C 0.3001(4) 0.0817(6) 0.9791(3)
H41 H 0.2537 0.0171 0.9901
H42 H 0.3604 0.0672 1.0165
C40 C 0.4947(4) 0.1434(5) 0.9113(3)
H43 H 0.4912 0.1095 0.9658
H44 H 0.5302 0.2216 0.9165
H45 H 0.5278 0.0844 0.8800
C41 C 0.4154(5) 0.3106(6) 1.0463(3)
H46 H 0.4650 0.3654 1.0302
H47 H 0.4408 0.2263 1.0535
H48 H 0.3962 0.3398 1.0977
C42 C 0.2523(4) 0.5135(5) 0.6899(4)
C43 C 0.1527(5) 0.5505(7) 0.6945(4)
H49 H 0.1514 0.6076 0.7404
H50 H 0.1144 0.4770 0.7026
H51 H 0.1260 0.5918 0.6436
C44 C 0.5321(4) 0.2941(6) 0.7389(3)
H52 H 0.5540 0.3775 0.7250
H53 H 0.5622 0.2715 0.7946
C45 C 0.3739(6) -0.1195(6) 0.6579(5)
C46 C 0.2978(8) -0.1582(8) 0.5898(5)
H54 H 0.3272 -0.1733 0.5404
H55 H 0.2498 -0.0923 0.5792
H56 H 0.2668 -0.2341 0.6053
C47 C -0.0240(4) 0.3997(6) 0.3383(3)
H57 H -0.0323 0.4356 0.3913
H58 H -0.0176 0.3097 0.3436
H59 H -0.0800 0.4196 0.2982
C48 C 0.0599(4) 0.4388(6) 0.2156(3)
H60 H 0.1258 0.4469 0.2000
C49 C 0.0446(5) 0.2668(6) 0.1226(4)
C50 C 0.0001(7) 0.1467(9) 0.1054(5)
H61 H 0.0146 0.1165 0.0527
H62 H -0.0696 0.1543 0.1035
H63 H 0.0251 0.0882 0.1485
C51 C -0.0063(5) 0.5316(7) 0.1664(4)
H64 H -0.0024 0.5197 0.1076
H65 H -0.0733 0.5149 0.1751
C52 C -0.0908(5) 0.6884(7) 0.2934(4)
H66 H -0.0940 0.6991 0.3518
H67 H -0.1199 0.6091 0.2751
H68 H -0.1256 0.7559 0.2628
loop_
_geom_bond_atom_site_label_1
_geom_bond_atom_site_label_2
_geom_bond_site_symmetry_1
_geom_bond_site_symmetry_2
O1 C1 1_555 1_555
O2 C1 1_555 1_555
O3 C9 1_555 1_555
O4 C14 1_555 1_555
O5 C5 1_555 1_555
O6 H1 1_555 1_555
O7 C24 1_555 1_555
O8 C25 1_555 1_555
O9 C34 1_555 1_555
O10 H2 1_555 1_555
O11 C15 1_555 1_555
O12 C33 1_555 1_555
O13 C42 1_555 1_555
O14 C32 1_555 1_555
O15 C45 1_555 1_555
O16 C8 1_555 1_555
O17 C48 1_555 1_555
O18 C49 1_555 1_555
C1 C17 1_555 1_555
C2 O2 1_555 1_555
H3 C2 1_555 1_555
C3 C2 1_555 1_555
C4 C3 1_555 1_555
H4 C4 1_555 1_555
C5 C4 1_555 1_555
C6 O6 1_555 1_555
H5 C6 1_555 1_555
C7 C6 1_555 1_555
C8 C7 1_555 1_555
C9 C8 1_555 1_555
C10 O3 1_555 1_555
C11 C10 1_555 1_555
C12 C11 1_555 1_555
H6 C12 1_555 1_555
C13 C12 1_555 1_555
C14 C13 1_555 1_555
H7 C14 1_555 1_555
C15 O4 1_555 1_555
C16 C15 1_555 1_555
H8 C16 1_555 1_555
H9 C16 1_555 1_555
H10 C16 1_555 1_555
C17 H11 1_555 1_555
H12 C17 1_555 1_555
H13 C17 1_555 1_555
C18 C3 1_555 1_555
H14 C18 1_555 1_555
H15 C18 1_555 1_555
H16 C18 1_555 1_555
C19 C4 1_555 1_555
C20 C7 1_555 1_555
H17 C20 1_555 1_555
C21 C7 1_555 1_555
H18 C21 1_555 1_555
H19 C21 1_555 1_555
C22 C9 1_555 1_555
H20 C22 1_555 1_555
C23 C22 1_555 1_555
H21 C23 1_555 1_555
H22 C23 1_555 1_555
C24 C20 1_555 1_555
H23 C24 1_555 1_555
C25 O7 1_555 1_555
C26 C25 1_555 1_555
H24 C26 1_555 1_555
H25 C26 1_555 1_555
H26 C26 1_555 1_555
C27 C10 1_555 1_555
C28 C27 1_555 1_555
H27 C28 1_555 1_555
H28 C28 1_555 1_555
C29 C9 1_555 1_555
H29 C29 1_555 1_555
H30 C29 1_555 1_555
C30 C27 1_555 1_555
H31 C30 1_555 1_555
C31 C30 1_555 1_555
H32 C31 1_555 1_555
H33 C31 1_555 1_555
C32 C12 1_555 1_555
H34 C32 1_555 1_555
C33 C11 1_555 1_555
H35 C33 1_555 1_555
C34 C33 1_555 1_555
C35 C13 1_555 1_555
H36 C35 1_555 1_555
C36 C35 1_555 1_555
C37 C36 1_555 1_555
H37 C37 1_555 1_555
H38 C37 1_555 1_555
H39 C37 1_555 1_555
C38 O10 1_555 1_555
H40 C38 1_555 1_555
C39 C14 1_555 1_555
H41 C39 1_555 1_555
H42 C39 1_555 1_555
C40 C13 1_555 1_555
H43 C40 1_555 1_555
H44 C40 1_555 1_555
H45 C40 1_555 1_555
C41 C36 1_555 1_555
H46 C41 1_555 1_555
H47 C41 1_555 1_555
H48 C41 1_555 1_555
C42 O12 1_555 1_555
C43 C42 1_555 1_555
H49 C43 1_555 1_555
H50 C43 1_555 1_555
H51 C43 1_555 1_555
C44 C11 1_555 1_555
H52 C44 1_555 1_555
H53 C44 1_555 1_555
C45 O14 1_555 1_555
C46 C45 1_555 1_555
H54 C46 1_555 1_555
H55 C46 1_555 1_555
H56 C46 1_555 1_555
C47 C19 1_555 1_555
H57 C47 1_555 1_555
H58 C47 1_555 1_555
H59 C47 1_555 1_555
C48 C19 1_555 1_555
H60 C48 1_555 1_555
C49 O17 1_555 1_555
C50 C49 1_555 1_555
H61 C50 1_555 1_555
H62 C50 1_555 1_555
H63 C50 1_555 1_555
C51 C2 1_555 1_555
H64 C51 1_555 1_555
H65 C51 1_555 1_555
C52 C3 1_555 1_555
H66 C52 1_555 1_555
H67 C52 1_555 1_555
H68 C52 1_555 1_555
C5 C6 1_555 1_555
C19 C20 1_555 1_555
C21 C22 1_555 1_555
C23 C24 1_555 1_555
C28 C29 1_555 1_555
C30 C44 1_555 1_555
C31 C32 1_555 1_555
C34 C35 1_555 1_555
C36 C38 1_555 1_555
C38 C39 1_555 1_555
C48 C51 1_555 1_555

#END
