
#######################################################################
#
#                 Cambridge Crystallographic Data Centre
#                                CCDC 
#
#######################################################################
#
# If this CIF has been generated from an entry in the Cambridge 
# Structural Database, then it will include bibliographic, chemical, 
# crystal, experimental, refinement or atomic coordinate data resulting 
# from the CCDC's data processing and validation procedures.
#
#######################################################################

data_DOYCOL
_chemical_formula_moiety         'C33 H40 O5,0.5(C3 H6 O1)'
_chemical_name_systematic        
'9-Benzoyl-5-hydroxy-4,4,8,8-tetramethyl-11-(3-methylbut-2-en-1-yl)-3-(prop-1-en-2-yl)tetracyclo[7.3.1.1^7,11^.0^1,6^]tetradecane-10,12,13-trione acetone solvate'
_symmetry_cell_setting           orthorhombic
_symmetry_space_group_name_H-M   'P 21 21 21'
_symmetry_Int_Tables_number      19
_space_group_name_Hall           'P 2ac 2ab'
loop_
_symmetry_equiv_pos_site_id
_symmetry_equiv_pos_as_xyz
1 x,y,z
2 1/2+x,1/2-y,-z
3 -x,1/2+y,1/2-z
4 1/2-x,-y,1/2+z
_cell_length_a                   11.7131(4)
_cell_length_b                   13.2133(4)
_cell_length_c                   38.0111(12)
_cell_angle_alpha                90
_cell_angle_beta                 90
_cell_angle_gamma                90
_cell_volume                     5882.93
_exptl_crystal_colour            colorless
_exptl_crystal_description       prism
_cell_formula_units_Z            8
loop_
_atom_site_label
_atom_site_type_symbol
_atom_site_fract_x
_atom_site_fract_y
_atom_site_fract_z
O1 O 0.1910(2) 0.5011(2) 0.13580(7)
O2 O 0.5700(3) 0.67330(19) 0.13281(7)
H1 H 0.6321 0.6453 0.1381
O3 O 0.4219(2) 0.27511(19) 0.16797(7)
O4 O 0.4390(3) 0.2791(2) 0.25859(7)
O5 O 0.2159(2) 0.4585(2) 0.24401(7)
C1 C 0.4600(4) 0.3762(3) 0.02894(12)
H2 H 0.5216 0.4199 0.0204
H3 H 0.4261 0.3396 0.0091
H4 H 0.4909 0.3276 0.0459
C2 C 0.3712(4) 0.4391(3) 0.04623(10)
C3 C 0.3910(3) 0.4850(3) 0.08243(10)
H5 H 0.3236 0.5297 0.0869
C4 C 0.3838(4) 0.4006(3) 0.11011(10)
H6 H 0.3134 0.3606 0.1062
H7 H 0.4499 0.3546 0.1074
C5 C 0.3827(3) 0.4433(3) 0.14752(10)
C6 C 0.3945(3) 0.3603(3) 0.17500(11)
C7 C 0.3808(3) 0.3964(3) 0.21323(10)
C8 C 0.3656(4) 0.3026(3) 0.23690(10)
C9 C 0.2595(3) 0.2414(3) 0.23278(9)
C10 C 0.1871(3) 0.2471(3) 0.20352(10)
H8 H 0.2036 0.2937 0.1852
C11 C 0.0919(4) 0.1856(3) 0.20107(11)
H9 H 0.0434 0.1902 0.1811
C12 C 0.0674(4) 0.1177(3) 0.22754(11)
H10 H 0.0034 0.0739 0.2256
C13 C 0.0399(4) 0.8193(4) 0.19707(14)
H11 H 0.0480 0.7763 0.1762
H12 H 0.0687 0.8872 0.1918
H13 H -0.0409 0.8234 0.2037
C14 C 0.1065(4) 0.7748(3) 0.22679(12)
C15 C 0.1559(3) 0.6840(3) 0.22629(11)
H14 H 0.1952 0.6635 0.2470
C16 C 0.1549(4) 0.6111(3) 0.19610(11)
H15 H 0.1397 0.6491 0.1741
H16 H 0.0915 0.5626 0.1995
C17 C 0.2665(4) 0.5517(3) 0.19173(10)
C18 C 0.2718(3) 0.5004(3) 0.15593(11)
C19 C 0.4875(3) 0.5144(3) 0.15413(10)
H17 H 0.5588 0.4735 0.1514
C20 C 0.4872(3) 0.5983(3) 0.12539(10)
H18 H 0.4110 0.6323 0.1266
C21 C 0.4989(3) 0.5544(3) 0.08772(10)
C22 C 0.4898(4) 0.6420(3) 0.06125(10)
H19 H 0.4884 0.6148 0.0373
H20 H 0.5557 0.6870 0.0640
H21 H 0.4194 0.6801 0.0656
C23 C 0.2669(4) 0.4508(3) 0.03190(11)
H22 H 0.2489 0.4184 0.0103
H23 H 0.2114 0.4914 0.0434
C24 C 0.6135(4) 0.5017(3) 0.08250(11)
H24 H 0.6751 0.5460 0.0907
H25 H 0.6245 0.4868 0.0575
H26 H 0.6147 0.4385 0.0960
C25 C 0.4827(3) 0.5540(3) 0.19198(10)
H27 H 0.5499 0.5995 0.1955
C26 C 0.3747(3) 0.6176(3) 0.19696(10)
H28 H 0.3744 0.6739 0.1798
H29 H 0.3743 0.6471 0.2209
C27 C 0.4915(3) 0.4663(3) 0.21962(10)
C28 C 0.2334(4) 0.1741(3) 0.25945(11)
H30 H 0.2818 0.1692 0.2794
C29 C 0.1367(4) 0.1138(3) 0.25705(11)
H31 H 0.1178 0.0694 0.2758
C30 C 0.2786(3) 0.4666(3) 0.21815(9)
C31 C 0.6025(4) 0.4068(3) 0.21486(11)
H32 H 0.6138 0.3618 0.2351
H33 H 0.6668 0.4540 0.2132
H34 H 0.5981 0.3664 0.1933
C32 C 0.4911(4) 0.5097(3) 0.25703(10)
H35 H 0.5551 0.5569 0.2597
H36 H 0.4989 0.4545 0.2741
H37 H 0.4191 0.5456 0.2612
C33 C 0.1106(4) 0.8392(3) 0.25911(13)
H38 H 0.1513 0.9023 0.2539
H39 H 0.1505 0.8027 0.2779
H40 H 0.0326 0.8549 0.2667
O6 O 0.4814(3) -0.1483(2) 0.16274(7)
H41 H 0.5122 -0.2042 0.1583
O7 O 0.6079(2) 0.22783(18) 0.10628(7)
O8 O 0.9070(3) 0.2239(2) 0.12483(7)
O9 O 0.8775(2) 0.04862(19) 0.05636(7)
O10 O 0.5428(2) -0.0248(2) 0.03895(7)
C34 C 0.1854(4) 0.1479(3) 0.09560(14)
H42 H 0.1043 0.1570 0.0901
H43 H 0.2298 0.2020 0.0845
H44 H 0.1964 0.1504 0.1211
C35 C 0.2245(4) 0.0482(3) 0.08205(11)
C36 C 0.3416(3) 0.0077(3) 0.09172(10)
H45 H 0.3629 -0.0411 0.0727
C37 C 0.4318(3) 0.0927(3) 0.09058(10)
H46 H 0.4277 0.1271 0.0675
H47 H 0.4136 0.1434 0.1089
C38 C 0.5526(3) 0.0546(3) 0.09627(9)
C39 C 0.6378(4) 0.1413(3) 0.10133(9)
C40 C 0.7627(3) 0.1094(3) 0.10398(10)
C41 C 0.8411(3) 0.2022(3) 0.10076(10)
C42 C 0.8426(3) 0.2645(3) 0.06806(10)
C43 C 0.9320(4) 0.3312(3) 0.06338(11)
H48 H 0.9900 0.3355 0.0808
C44 C 0.9388(4) 0.3922(3) 0.03374(11)
H49 H 1.0013 0.4373 0.0309
C45 C 0.8540(4) 0.3872(3) 0.00836(10)
H50 H 0.8574 0.4297 -0.0118
C46 C 0.8268(5) -0.3259(4) 0.00826(15)
H51 H 0.7554 -0.2904 0.0029
H52 H 0.8098 -0.3884 0.0211
H53 H 0.8663 -0.3426 -0.0137
C47 C 0.9009(4) -0.2600(3) 0.03014(11)
C48 C 0.8666(4) -0.1735(3) 0.04471(10)
H54 H 0.9203 -0.1388 0.0590
C49 C 0.7511(4) -0.1259(3) 0.04068(11)
H55 H 0.6933 -0.1801 0.0384
H56 H 0.7501 -0.0859 0.0186
C50 C 0.7174(3) -0.0571(3) 0.07110(10)
C51 C 0.7174(3) -0.1134(3) 0.10717(11)
H57 H 0.6631 -0.1708 0.1062
H58 H 0.7945 -0.1411 0.1118
C52 C 0.6837(3) -0.0424(3) 0.13681(9)
H59 H 0.6864 -0.0817 0.1593
C53 C 0.5607(3) -0.0070(3) 0.13128(10)
H60 H 0.5416 0.0402 0.1510
C54 C 0.4707(3) -0.0914(3) 0.13126(10)
H61 H 0.4877 -0.1376 0.1111
C55 C 0.3467(4) -0.0530(3) 0.12704(11)
C56 C 0.3094(4) 0.0091(3) 0.15912(11)
H62 H 0.3227 -0.0302 0.1806
H63 H 0.2279 0.0252 0.1572
H64 H 0.3536 0.0720 0.1601
C57 C 0.1574(4) -0.0055(4) 0.05941(13)
H65 H 0.0856 0.0209 0.0523
H66 H 0.1825 -0.0692 0.0508
C58 C 0.7700(4) 0.0474(3) 0.14016(10)
C59 C 0.7410(4) 0.1140(3) 0.17201(10)
H67 H 0.7988 0.1672 0.1744
H68 H 0.7399 0.0724 0.1933
H69 H 0.6658 0.1450 0.1686
C60 C 0.8908(4) 0.0060(3) 0.14550(11)
H70 H 0.8908 -0.0423 0.1651
H71 H 0.9429 0.0619 0.1508
H72 H 0.9160 -0.0283 0.1240
C61 C 0.7589(3) 0.2580(3) 0.04127(10)
H73 H 0.6985 0.2104 0.0433
C62 C 0.7645(4) 0.3198(3) 0.01243(11)
H74 H 0.7063 0.3165 -0.0050
C63 C 0.7932(3) 0.0354(3) 0.07471(9)
C64 C 0.5980(3) -0.0116(3) 0.06595(10)
C65 C 0.2685(4) -0.1458(3) 0.12420(12)
H75 H 0.1889 -0.1236 0.1223
H76 H 0.2775 -0.1881 0.1452
H77 H 0.2891 -0.1851 0.1033
C66 C 1.0210(4) -0.2967(3) 0.03447(13)
H78 H 1.0645 -0.2475 0.0484
H79 H 1.0564 -0.3044 0.0113
H80 H 1.0206 -0.3621 0.0466
O11 O 0.7686(3) 0.5857(3) 0.15802(9)
C67 C 0.8538(4) 0.5512(3) 0.14374(11)
C68 C 0.9005(5) 0.4518(3) 0.15382(13)
H81 H 0.8845 0.4025 0.1352
H82 H 0.8649 0.4293 0.1758
H83 H 0.9833 0.4574 0.1572
C69 C 0.9124(5) 0.6060(5) 0.11465(16)
H84 H 0.8747 0.6712 0.1107
H85 H 0.9086 0.5654 0.0931
H86 H 0.9925 0.6174 0.1210
loop_
_geom_bond_atom_site_label_1
_geom_bond_atom_site_label_2
_geom_bond_site_symmetry_1
_geom_bond_site_symmetry_2
O1 C18 1_555 1_555
O2 H1 1_555 1_555
O3 C6 1_555 1_555
O4 C8 1_555 1_555
O5 C30 1_555 1_555
C1 H2 1_555 1_555
H3 C1 1_555 1_555
H4 C1 1_555 1_555
C2 C1 1_555 1_555
C3 C2 1_555 1_555
H5 C3 1_555 1_555
C4 C3 1_555 1_555
H6 C4 1_555 1_555
H7 C4 1_555 1_555
C5 C4 1_555 1_555
C6 C5 1_555 1_555
C7 C6 1_555 1_555
C8 C7 1_555 1_555
C9 C8 1_555 1_555
C10 C9 1_555 1_555
H8 C10 1_555 1_555
C11 C10 1_555 1_555
H9 C11 1_555 1_555
C12 C11 1_555 1_555
H10 C12 1_555 1_555
C13 H11 1_555 1_555
H12 C13 1_555 1_555
H13 C13 1_555 1_555
C14 C13 1_555 1_555
C15 C14 1_555 1_555
H14 C15 1_555 1_555
C16 C15 1_555 1_555
H15 C16 1_555 1_555
H16 C16 1_555 1_555
C17 C16 1_555 1_555
C18 C5 1_555 1_555
C19 C5 1_555 1_555
H17 C19 1_555 1_555
C20 O2 1_555 1_555
H18 C20 1_555 1_555
C21 C3 1_555 1_555
C22 C21 1_555 1_555
H19 C22 1_555 1_555
H20 C22 1_555 1_555
H21 C22 1_555 1_555
C23 C2 1_555 1_555
H22 C23 1_555 1_555
H23 C23 1_555 1_555
C24 C21 1_555 1_555
H24 C24 1_555 1_555
H25 C24 1_555 1_555
H26 C24 1_555 1_555
C25 C19 1_555 1_555
H27 C25 1_555 1_555
C26 C17 1_555 1_555
H28 C26 1_555 1_555
H29 C26 1_555 1_555
C27 C7 1_555 1_555
C28 C9 1_555 1_555
H30 C28 1_555 1_555
C29 C12 1_555 1_555
H31 C29 1_555 1_555
C30 C7 1_555 1_555
C31 C27 1_555 1_555
H32 C31 1_555 1_555
H33 C31 1_555 1_555
H34 C31 1_555 1_555
C32 C27 1_555 1_555
H35 C32 1_555 1_555
H36 C32 1_555 1_555
H37 C32 1_555 1_555
C33 C14 1_555 1_555
H38 C33 1_555 1_555
H39 C33 1_555 1_555
H40 C33 1_555 1_555
O6 H41 1_555 1_555
O7 C39 1_555 1_555
O8 C41 1_555 1_555
O9 C63 1_555 1_555
O10 C64 1_555 1_555
C34 H42 1_555 1_555
H43 C34 1_555 1_555
H44 C34 1_555 1_555
C35 C34 1_555 1_555
C36 C35 1_555 1_555
H45 C36 1_555 1_555
C37 C36 1_555 1_555
H46 C37 1_555 1_555
H47 C37 1_555 1_555
C38 C37 1_555 1_555
C39 C38 1_555 1_555
C40 C39 1_555 1_555
C41 C40 1_555 1_555
C42 C41 1_555 1_555
C43 C42 1_555 1_555
H48 C43 1_555 1_555
C44 C43 1_555 1_555
H49 C44 1_555 1_555
C45 C44 1_555 1_555
H50 C45 1_555 1_555
C46 H51 1_555 1_555
H52 C46 1_555 1_555
H53 C46 1_555 1_555
C47 C46 1_555 1_555
C48 C47 1_555 1_555
H54 C48 1_555 1_555
C49 C48 1_555 1_555
H55 C49 1_555 1_555
H56 C49 1_555 1_555
C50 C49 1_555 1_555
C51 C50 1_555 1_555
H57 C51 1_555 1_555
H58 C51 1_555 1_555
C52 C51 1_555 1_555
H59 C52 1_555 1_555
C53 C38 1_555 1_555
H60 C53 1_555 1_555
C54 O6 1_555 1_555
H61 C54 1_555 1_555
C55 C36 1_555 1_555
C56 C55 1_555 1_555
H62 C56 1_555 1_555
H63 C56 1_555 1_555
H64 C56 1_555 1_555
C57 C35 1_555 1_555
H65 C57 1_555 1_555
H66 C57 1_555 1_555
C58 C40 1_555 1_555
C59 C58 1_555 1_555
H67 C59 1_555 1_555
H68 C59 1_555 1_555
H69 C59 1_555 1_555
C60 C58 1_555 1_555
H70 C60 1_555 1_555
H71 C60 1_555 1_555
H72 C60 1_555 1_555
C61 C42 1_555 1_555
H73 C61 1_555 1_555
C62 C45 1_555 1_555
H74 C62 1_555 1_555
C63 C40 1_555 1_555
C64 C38 1_555 1_555
C65 C55 1_555 1_555
H75 C65 1_555 1_555
H76 C65 1_555 1_555
H77 C65 1_555 1_555
C66 C47 1_555 1_555
H78 C66 1_555 1_555
H79 C66 1_555 1_555
H80 C66 1_555 1_555
O11 C67 1_555 1_555
C67 C68 1_555 1_555
C68 H81 1_555 1_555
H82 C68 1_555 1_555
H83 C68 1_555 1_555
C69 C67 1_555 1_555
H84 C69 1_555 1_555
H85 C69 1_555 1_555
H86 C69 1_555 1_555
C17 C18 1_555 1_555
C17 C30 1_555 1_555
C19 C20 1_555 1_555
C20 C21 1_555 1_555
C25 C26 1_555 1_555
C25 C27 1_555 1_555
C28 C29 1_555 1_555
C50 C63 1_555 1_555
C50 C64 1_555 1_555
C52 C53 1_555 1_555
C52 C58 1_555 1_555
C53 C54 1_555 1_555
C54 C55 1_555 1_555
C61 C62 1_555 1_555

#END
