
#######################################################################
#
#                 Cambridge Crystallographic Data Centre
#                                CCDC 
#
#######################################################################
#
# If this CIF has been generated from an entry in the Cambridge 
# Structural Database, then it will include bibliographic, chemical, 
# crystal, experimental, refinement or atomic coordinate data resulting 
# from the CCDC's data processing and validation procedures.
#
#######################################################################

data_DOYHAC
_chemical_formula_moiety         'C59 H18 F25 N6'
_chemical_name_systematic        
'10,15,20-tris(2,3,4,5,6-pentafluorocyclohexa-2,5-dien-1-ylidene)-5-(pentafluorophenyl)-5-(2-((pentafluorophenyl)(1H-pyrrol-2-yl)methylene)-2H-pyrrol-5-yl)-5,10,15,20,22,24-hexahydroporphyrin unknown solvate'
_symmetry_cell_setting           triclinic
_symmetry_space_group_name_H-M   'P -1'
_symmetry_Int_Tables_number      2
_space_group_name_Hall           '-P 1'
loop_
_symmetry_equiv_pos_site_id
_symmetry_equiv_pos_as_xyz
1 x,y,z
2 -x,-y,-z
_cell_length_a                   14.3298(13)
_cell_length_b                   15.1659(17)
_cell_length_c                   17.3878(16)
_cell_angle_alpha                100.8040(10)
_cell_angle_beta                 113.243(2)
_cell_angle_gamma                106.8440(10)
_cell_volume                     3121.32
_exptl_crystal_description       block
_cell_formula_units_Z            2
loop_
_atom_site_label
_atom_site_type_symbol
_atom_site_fract_x
_atom_site_fract_y
_atom_site_fract_z
F1 F 0.0506(3) 0.2106(3) 0.3341(2)
F2 F -0.1485(3) 0.1220(3) 0.3246(3)
F3 F -0.1941(3) -0.0427(2) 0.3675(2)
F4 F -0.0412(3) -0.1185(2) 0.4201(2)
F5 F 0.1588(3) -0.0299(2) 0.4325(2)
F6 F 0.2367(9) 0.1484(8) 0.0318(4)
F7 F 0.1802(11) 0.0316(8) -0.1290(6)
F8 F 0.295(2) -0.093(2) -0.1335(17)
F9 F 0.4310(9) -0.1046(7) 0.0070(5)
F10 F 0.4826(8) 0.0103(7) 0.1667(5)
F11 F 0.7100(2) 0.5500(2) 0.29321(18)
F12 F 0.8980(3) 0.6839(2) 0.3196(2)
F13 F 1.0905(3) 0.7373(3) 0.4709(3)
F14 F 1.0918(2) 0.6502(3) 0.5947(2)
F15 F 0.9045(2) 0.5127(2) 0.56723(19)
F16 F 0.5143(3) 0.1682(2) 0.6341(3)
F17 F 0.6433(5) 0.0711(3) 0.6668(4)
F18 F 0.8634(4) 0.1613(4) 0.7204(3)
F19 F 0.9486(3) 0.3522(4) 0.7330(3)
F20 F 0.8235(2) 0.4525(3) 0.70309(19)
F21 F 0.5960(3) 0.4718(3) 1.0277(2)
F22 F 0.5882(3) 0.6016(3) 1.1524(2)
F23 F 0.7433(3) 0.7872(3) 1.2326(2)
F24 F 0.9065(4) 0.8447(3) 1.1893(3)
F25 F 0.9107(4) 0.7188(3) 1.0599(3)
N1 N 0.4135(3) 0.2593(2) 0.5064(2)
H1 H 0.4442 0.2556 0.4730
N2 N 0.3355(3) 0.1702(3) 0.3134(2)
N3 N 0.5317(3) 0.2970(3) 0.3184(2)
H2 H 0.4979 0.2973 0.3497
N4 N 0.6297(3) 0.3984(3) 0.5207(2)
H3 H 0.6141 0.3371 0.4983
N5 N 0.6878(3) 0.4403(3) 0.8101(2)
N6 N 0.8626(18) 0.4261(16) 0.9440(8)
H4 H 0.8505 0.4253 0.8913
C1 C 0.4672(3) 0.3164(3) 0.5951(3)
C2 C 0.3886(4) 0.3016(3) 0.6245(3)
H5 H 0.4016 0.3307 0.6818
C3 C 0.2873(4) 0.2353(3) 0.5528(3)
H6 H 0.2204 0.2125 0.5540
C4 C 0.3022(4) 0.2089(3) 0.4796(3)
C5 C 0.2228(4) 0.1440(3) 0.3917(3)
C6 C 0.2374(4) 0.1235(3) 0.3175(3)
C7 C 0.1569(4) 0.0476(4) 0.2325(3)
H7 H 0.0848 0.0076 0.2172
C8 C 0.2033(4) 0.0449(4) 0.1802(3)
H8 H 0.1711 0.0017 0.1223
C9 C 0.3142(4) 0.1223(3) 0.2307(3)
C10 C 0.3895(4) 0.1462(4) 0.1964(3)
C11 C 0.4918(4) 0.2265(4) 0.2389(3)
C12 C 0.5727(5) 0.2542(4) 0.2098(3)
H9 H 0.5667 0.2204 0.1564
C13 C 0.6583(4) 0.3361(4) 0.2714(3)
H10 H 0.7228 0.3675 0.2691
C14 C 0.6341(4) 0.3682(4) 0.3424(3)
C15 C 0.6960(4) 0.4517(3) 0.4169(3)
C16 C 0.6680(3) 0.4701(3) 0.4887(3)
C17 C 0.6789(4) 0.5570(3) 0.5403(3)
H11 H 0.7026 0.6177 0.5338
C18 C 0.6477(4) 0.5376(3) 0.6046(3)
H12 H 0.6459 0.5832 0.6474
C19 C 0.6202(3) 0.4389(3) 0.5933(3)
C20 C 0.5915(3) 0.3783(3) 0.6461(3)
C21 C 0.6183(3) 0.4446(3) 0.7363(3)
C22 C 0.5727(4) 0.5153(3) 0.7535(3)
H13 H 0.5216 0.5303 0.7111
C23 C 0.6186(4) 0.5546(3) 0.8424(3)
H14 H 0.6058 0.6025 0.8737
C24 C 0.6905(4) 0.5089(4) 0.8794(3)
C25 C 0.7550(5) 0.5220(5) 0.9675(3)
C26 C 0.8220(7) 0.4695(6) 0.9959(5)
C27 C 0.856(2) 0.4551(16) 1.0800(10)
H15 H 0.8427 0.4794 1.1260
C28 C 0.915(3) 0.396(3) 1.077(3)
H16 H 0.9424 0.3678 1.1198
C29 C 0.927(3) 0.385(3) 0.997(3)
H17 H 0.9691 0.3555 0.9826
C30 C 0.1108(4) 0.0922(3) 0.3820(3)
C31 C 0.0278(4) 0.1264(4) 0.3538(3)
C32 C -0.0740(4) 0.0820(5) 0.3492(3)
C33 C -0.0969(4) -0.0007(4) 0.3696(3)
C34 C -0.0194(5) -0.0380(4) 0.3971(3)
C35 C 0.0835(4) 0.0081(4) 0.4030(3)
C36 C 0.3590(5) 0.0808(4) 0.1054(3)
C37 C 0.283(2) 0.086(2) 0.029(2)
C38 C 0.257(4) 0.029(6) -0.054(5)
C39 C 0.31(3) -0.04(2) -0.06(3)
C40 C 0.3820(17) -0.0423(14) 0.0131(12)
C41 C 0.4094(17) 0.0173(14) 0.0958(13)
C42 C 0.7989(4) 0.5253(3) 0.4305(3)
C43 C 0.8032(4) 0.5720(4) 0.3683(3)
C44 C 0.8996(4) 0.6425(4) 0.3818(4)
C45 C 0.9963(4) 0.6690(4) 0.4570(4)
C46 C 0.9975(4) 0.6269(4) 0.5208(4)
C47 C 0.8998(4) 0.5566(4) 0.5063(3)
C48 C 0.6620(4) 0.3165(4) 0.6641(3)
C49 C 0.6218(5) 0.2193(4) 0.6578(4)
C50 C 0.6909(7) 0.1676(5) 0.6762(4)
C51 C 0.7957(7) 0.2095(7) 0.7011(4)
C52 C 0.8406(5) 0.3054(6) 0.7090(3)
C53 C 0.7723(4) 0.3569(4) 0.6906(3)
C54 C 0.7524(6) 0.5935(5) 1.0379(3)
C55 C 0.6717(6) 0.5658(5) 1.0641(3)
C56 C 0.6671(5) 0.6303(5) 1.1290(3)
C57 C 0.7459(6) 0.7241(5) 1.1682(3)
C58 C 0.8259(6) 0.7520(5) 1.1446(4)
C59 C 0.8286(6) 0.6874(5) 1.0807(4)
F26? F 0.3342(15) 0.1945(8) 0.0414(6)
F27? F 0.2729(16) 0.0736(10) -0.1213(8)
F28? F 0.250(3) -0.117(3) -0.152(2)
F29? F 0.3102(13) -0.1742(9) -0.0021(6)
F30? F 0.3747(12) -0.0514(7) 0.1610(6)
N7? N 0.796(3) 0.374(2) 0.9460(10)
H18? H 0.7398 0.3392 0.8944
C60? C 0.923(3) 0.504(2) 1.0765(12)
H19? H 0.9574 0.5639 1.1219
C61? C 0.962(5) 0.428(4) 1.074(4)
H20? H 1.0292 0.4316 1.1162
C62? C 0.879(4) 0.345(4) 0.995(4)
H21? H 0.8793 0.2833 0.9799
C63? C 0.331(3) 0.106(3) 0.030(3)
C64? C 0.297(7) 0.042(8) -0.052(7)
C65? C 0.29(5) -0.05(3) -0.06(4)
C66? C 0.317(3) -0.0814(19) 0.0115(17)
C67? C 0.350(2) -0.0161(19) 0.0933(18)
loop_
_geom_bond_atom_site_label_1
_geom_bond_atom_site_label_2
_geom_bond_site_symmetry_1
_geom_bond_site_symmetry_2
F1 C31 1_555 1_555
F2 C32 1_555 1_555
F3 C33 1_555 1_555
F4 C34 1_555 1_555
F5 C35 1_555 1_555
F6 C37 1_555 1_555
F7 C38 1_555 1_555
F8 C39 1_555 1_555
F9 C40 1_555 1_555
F10 C41 1_555 1_555
F11 C43 1_555 1_555
F12 C44 1_555 1_555
F13 C45 1_555 1_555
F14 C46 1_555 1_555
F15 C47 1_555 1_555
F16 C49 1_555 1_555
F17 C50 1_555 1_555
F18 C51 1_555 1_555
F19 C52 1_555 1_555
F20 C53 1_555 1_555
F21 C55 1_555 1_555
F22 C56 1_555 1_555
F23 C57 1_555 1_555
F24 C58 1_555 1_555
F25 C59 1_555 1_555
N1 H1 1_555 1_555
N2 C6 1_555 1_555
N3 H2 1_555 1_555
N4 H3 1_555 1_555
N5 C21 1_555 1_555
N6 H4 1_555 1_555
C1 N1 1_555 1_555
C2 C1 1_555 1_555
H5 C2 1_555 1_555
C3 C2 1_555 1_555
H6 C3 1_555 1_555
C4 N1 1_555 1_555
C5 C4 1_555 1_555
C6 C5 1_555 1_555
C7 C6 1_555 1_555
H7 C7 1_555 1_555
C8 C7 1_555 1_555
H8 C8 1_555 1_555
C9 N2 1_555 1_555
C10 C9 1_555 1_555
C11 N3 1_555 1_555
C12 C11 1_555 1_555
H9 C12 1_555 1_555
C13 C12 1_555 1_555
H10 C13 1_555 1_555
C14 N3 1_555 1_555
C15 C14 1_555 1_555
C16 N4 1_555 1_555
C17 C16 1_555 1_555
H11 C17 1_555 1_555
C18 C17 1_555 1_555
H12 C18 1_555 1_555
C19 N4 1_555 1_555
C20 C1 1_555 1_555
C21 C20 1_555 1_555
C22 C21 1_555 1_555
H13 C22 1_555 1_555
C23 C22 1_555 1_555
H14 C23 1_555 1_555
C24 N5 1_555 1_555
C25 C24 1_555 1_555
C26 N6 1_555 1_555
C27 C26 1_555 1_555
H15 C27 1_555 1_555
C28 C27 1_555 1_555
H16 C28 1_555 1_555
C29 N6 1_555 1_555
H17 C29 1_555 1_555
C30 C5 1_555 1_555
C31 C30 1_555 1_555
C32 C31 1_555 1_555
C33 C32 1_555 1_555
C34 C33 1_555 1_555
C35 C30 1_555 1_555
C36 C10 1_555 1_555
C37 C36 1_555 1_555
C38 C37 1_555 1_555
C39 C38 1_555 1_555
C40 C39 1_555 1_555
C41 C36 1_555 1_555
C42 C15 1_555 1_555
C43 C42 1_555 1_555
C44 C43 1_555 1_555
C45 C44 1_555 1_555
C46 C45 1_555 1_555
C47 C42 1_555 1_555
C48 C20 1_555 1_555
C49 C48 1_555 1_555
C50 C49 1_555 1_555
C51 C50 1_555 1_555
C52 C51 1_555 1_555
C53 C48 1_555 1_555
C54 C25 1_555 1_555
C55 C54 1_555 1_555
C56 C55 1_555 1_555
C57 C56 1_555 1_555
C58 C57 1_555 1_555
C59 C54 1_555 1_555
C3 C4 1_555 1_555
C8 C9 1_555 1_555
C10 C11 1_555 1_555
C13 C14 1_555 1_555
C15 C16 1_555 1_555
C18 C19 1_555 1_555
C19 C20 1_555 1_555
C23 C24 1_555 1_555
C25 C26 1_555 1_555
C28 C29 1_555 1_555
C34 C35 1_555 1_555
C40 C41 1_555 1_555
C46 C47 1_555 1_555
C52 C53 1_555 1_555
C58 C59 1_555 1_555

#END
