
#######################################################################
#
#                 Cambridge Crystallographic Data Centre
#                                CCDC 
#
#######################################################################
#
# If this CIF has been generated from an entry in the Cambridge 
# Structural Database, then it will include bibliographic, chemical, 
# crystal, experimental, refinement or atomic coordinate data resulting 
# from the CCDC's data processing and validation procedures.
#
#######################################################################

data_DOYMEK
_chemical_formula_moiety         'C20 H16 Br1 N3'
_chemical_name_systematic        
((2E)-3-(4-Bromophenyl)-1-(4-(dimethylamino)phenyl)prop-2-en-1-ylidene)malononitrile
_symmetry_cell_setting           monoclinic
_symmetry_space_group_name_H-M   'P 21/c'
_symmetry_Int_Tables_number      14
_space_group_name_Hall           '-P 2ybc'
loop_
_symmetry_equiv_pos_site_id
_symmetry_equiv_pos_as_xyz
1 x,y,z
2 -x,1/2+y,1/2-z
3 -x,-y,-z
4 x,1/2-y,1/2+z
_cell_length_a                   9.4778(3)
_cell_length_b                   7.9420(3)
_cell_length_c                   24.0757(9)
_cell_angle_alpha                90
_cell_angle_beta                 93.4125(14)
_cell_angle_gamma                90
_cell_volume                     1809.03
_exptl_crystal_colour            brown
_exptl_crystal_description       plate
_chemical_melting_point          '196-197 deg.C'
_cell_formula_units_Z            4
_exptl_crystal_recrystallization_method pentane/chloroform
loop_
_atom_site_label
_atom_site_type_symbol
_atom_site_fract_x
_atom_site_fract_y
_atom_site_fract_z
Br1 Br -0.70983(4) 0.45791(7) 0.433492(17)
N1 N 0.1762(4) -0.0253(5) 0.47192(14)
N2 N 0.3993(4) -0.1252(6) 0.32404(15)
C1 C 0.0734(3) 0.0863(4) 0.33405(13)
C2 C 0.0920(3) 0.1237(4) 0.27507(12)
C3 C -0.0108(3) 0.0870(4) 0.23296(12)
C4 C 0.0105(3) 0.1175(4) 0.17763(12)
C5 C 0.1374(3) 0.1904(4) 0.16125(12)
C6 C 0.2394(3) 0.2331(4) 0.20384(12)
C7 C 0.2173(3) 0.1988(4) 0.25872(12)
C8 C -0.0556(3) 0.1303(4) 0.36022(13)
C9 C -0.1586(3) 0.2272(4) 0.33633(12)
C10 C -0.2909(3) 0.2766(4) 0.36073(12)
C11 C -0.3911(3) 0.3655(4) 0.32780(12)
C12 C -0.5156(3) 0.4192(4) 0.34907(13)
C13 C -0.5413(3) 0.3808(4) 0.40328(13)
C14 C -0.4445(3) 0.2912(5) 0.43718(13)
C15 C -0.3195(3) 0.2392(4) 0.41588(13)
C16 C 0.1824(4) 0.0118(4) 0.36562(13)
C17 C 0.3034(4) -0.0600(5) 0.34209(15)
C18 C 0.1784(4) -0.0083(5) 0.42491(16)
N3 N 0.1594(3) 0.2196(4) 0.10629(10)
C19 C 0.0683(4) 0.1428(5) 0.06310(13)
C20 C 0.2964(3) 0.2765(5) 0.08961(15)
H1 H -0.0997 0.0397 0.2420
H2 H -0.0612 0.0877 0.1495
H3 H 0.3260 0.2868 0.1950
H4 H 0.2912 0.2275 0.2861
H5 H -0.0716 0.0875 0.3966
H6 H -0.1481 0.2730 0.2999
H7 H -0.3753 0.3927 0.2898
H8 H -0.5824 0.4830 0.3261
H9 H -0.4649 0.2664 0.4749
H10 H -0.2523 0.1779 0.4394
H11 H 0.0982 0.1756 0.0273
H12 H -0.0275 0.1782 0.0667
H13 H 0.0742 0.0226 0.0667
H14 H 0.2944 0.2902 0.0499
H15 H 0.3675 0.1955 0.1010
H16 H 0.3180 0.3825 0.1073
loop_
_geom_bond_atom_site_label_1
_geom_bond_atom_site_label_2
_geom_bond_site_symmetry_1
_geom_bond_site_symmetry_2
Br1 C13 1_555 1_555
N1 C18 1_555 1_555
N2 C17 1_555 1_555
C1 C2 1_555 1_555
C2 C3 1_555 1_555
C3 C4 1_555 1_555
C4 C5 1_555 1_555
C5 C6 1_555 1_555
C6 C7 1_555 1_555
C7 C2 1_555 1_555
C8 C1 1_555 1_555
C9 C8 1_555 1_555
C10 C9 1_555 1_555
C11 C10 1_555 1_555
C12 C11 1_555 1_555
C13 C12 1_555 1_555
C14 C13 1_555 1_555
C15 C10 1_555 1_555
C16 C1 1_555 1_555
C17 C16 1_555 1_555
C18 C16 1_555 1_555
N3 C5 1_555 1_555
C19 N3 1_555 1_555
C20 N3 1_555 1_555
H1 C3 1_555 1_555
H2 C4 1_555 1_555
H3 C6 1_555 1_555
H4 C7 1_555 1_555
H5 C8 1_555 1_555
H6 C9 1_555 1_555
H7 C11 1_555 1_555
H8 C12 1_555 1_555
H9 C14 1_555 1_555
H10 C15 1_555 1_555
H11 C19 1_555 1_555
H12 C19 1_555 1_555
H13 C19 1_555 1_555
H14 C20 1_555 1_555
H15 C20 1_555 1_555
H16 C20 1_555 1_555
C14 C15 1_555 1_555

#END
