
#######################################################################
#
#                 Cambridge Crystallographic Data Centre
#                                CCDC 
#
#######################################################################
#
# If this CIF has been generated from an entry in the Cambridge 
# Structural Database, then it will include bibliographic, chemical, 
# crystal, experimental, refinement or atomic coordinate data resulting 
# from the CCDC's data processing and validation procedures.
#
#######################################################################

data_DOYSIU
_chemical_formula_moiety         'C27 H27 N2 O7 P1'
_chemical_name_systematic        
'Methyl N-(((5,7-dimethoxy-2-(4-methylphenyl)-4-quinolinyl)oxy)(phenoxy)phosphoryl)glycinate'
_symmetry_cell_setting           triclinic
_symmetry_space_group_name_H-M   'P -1'
_symmetry_Int_Tables_number      2
_space_group_name_Hall           '-P 1'
loop_
_symmetry_equiv_pos_site_id
_symmetry_equiv_pos_as_xyz
1 x,y,z
2 -x,-y,-z
_cell_length_a                   10.141(2)
_cell_length_b                   11.095(2)
_cell_length_c                   11.614(2)
_cell_angle_alpha                81.32(3)
_cell_angle_beta                 86.27(3)
_cell_angle_gamma                84.79(3)
_cell_volume                     1284.69
_exptl_crystal_colour            colorless
_exptl_crystal_description       prismatic
_chemical_melting_point          '176-177 deg.C'
_cell_formula_units_Z            2
loop_
_atom_site_label
_atom_site_type_symbol
_atom_site_fract_x
_atom_site_fract_y
_atom_site_fract_z
P1 P 0.10521(5) 0.10225(5) 0.11576(5)
O1 O 0.14732(16) -0.01660(15) 0.07950(15)
O2 O 0.07835(14) 0.09973(15) 0.25240(13)
O3 O 0.21338(15) 0.19929(14) 0.09399(14)
O4 O -0.0668(14) 0.394(2) -0.1013(17)
O5 O -0.2520(2) 0.4275(2) -0.0044(2)
O6 O -0.3019(2) 0.28509(19) 0.66430(18)
O7 O 0.02324(19) 0.29425(17) 0.35282(17)
N1 N -0.23790(19) -0.05573(19) 0.45302(18)
N2 N -0.0229(2) 0.1705(2) 0.0520(2)
C1 C -0.2031(3) -0.2738(3) 0.2449(3)
H1 H -0.1533 -0.2312 0.1847
C2 C -0.2547(3) -0.3811(3) 0.2277(3)
H2 H -0.2406 -0.4077 0.1554
C3 C -0.3268(3) -0.4494(2) 0.3158(3)
C4 C -0.3457(3) -0.4065(3) 0.4214(3)
H3 H -0.3921 -0.4513 0.4825
C5 C -0.2971(3) -0.2980(3) 0.4390(3)
H4 H -0.3132 -0.2709 0.5110
C6 C -0.2245(2) -0.2289(2) 0.3507(2)
C7 C -0.1746(2) -0.1116(2) 0.3700(2)
C8 C -0.0663(2) -0.0623(2) 0.3009(2)
H5 H -0.0210 -0.1053 0.2456
C9 C -0.0295(2) 0.0490(2) 0.3166(2)
C10 C -0.0966(2) 0.1161(2) 0.40144(19)
C11 C -0.1998(2) 0.0553(2) 0.4702(2)
C12 C -0.2717(2) 0.1109(2) 0.5596(2)
H6 H -0.3393 0.0715 0.6037
C13 C -0.2412(3) 0.2227(2) 0.5807(2)
C14 C -0.1410(3) 0.2857(2) 0.5118(2)
H7 H -0.1227 0.3624 0.5265
C15 C -0.0712(2) 0.2348(2) 0.4239(2)
C16 C -0.3828(3) -0.5666(3) 0.2976(3)
H8 H -0.3603 -0.5823 0.2194
H9 H -0.4775 -0.5586 0.3102
H10 H -0.3461 -0.6333 0.3518
C17 C -0.3915(3) 0.2199(3) 0.7471(3)
H11 H -0.4277 0.2720 0.8022
H12 H -0.3445 0.1486 0.7875
H13 H -0.4621 0.1956 0.7068
C18 C 0.0433(3) 0.4169(3) 0.3678(3)
H14 H 0.1113 0.4474 0.3125
H15 H 0.0698 0.4177 0.4455
H16 H -0.0378 0.4677 0.3554
C19 C 0.3439(2) 0.1676(2) 0.1326(2)
C20 C 0.4433(3) 0.1479(3) 0.0509(3)
H17 H 0.4252 0.1532 -0.0273
C21 C 0.5721(3) 0.1198(3) 0.0866(3)
H18 H 0.6411 0.1061 0.0321
C22 C 0.5976(3) 0.1124(3) 0.2021(3)
H19 H 0.6836 0.0924 0.2259
C23 C 0.4963(3) 0.1343(3) 0.2827(3)
H20 H 0.5147 0.1297 0.3608
C24 C 0.3671(3) 0.1633(3) 0.2491(2)
H21 H 0.2985 0.1792 0.3032
C25 C -0.0962(3) 0.2808(3) 0.0813(3)
H22 H -0.0395 0.3250 0.1211
H23 H -0.1709 0.2587 0.1344
C26 C -0.1457(3) 0.3620(3) -0.0238(3)
C27 C -0.3108(5) 0.5106(4) -0.0982(4)
H24 H -0.3914 0.5508 -0.0694
H25 H -0.3300 0.4659 -0.1588
H26 H -0.2502 0.5706 -0.1287
H27 H -0.056(3) 0.135(3) 0.006(3)
O8? O -0.139(3) 0.3292(17) -0.1221(11)
loop_
_geom_bond_atom_site_label_1
_geom_bond_atom_site_label_2
_geom_bond_site_symmetry_1
_geom_bond_site_symmetry_2
P1 O1 1_555 1_555
O2 P1 1_555 1_555
O3 P1 1_555 1_555
O4 C26 1_555 1_555
O5 C26 1_555 1_555
O6 C13 1_555 1_555
O7 C15 1_555 1_555
N1 C7 1_555 1_555
N2 P1 1_555 1_555
C1 H1 1_555 1_555
C2 C1 1_555 1_555
H2 C2 1_555 1_555
C3 C2 1_555 1_555
C4 C3 1_555 1_555
H3 C4 1_555 1_555
C5 C4 1_555 1_555
H4 C5 1_555 1_555
C6 C1 1_555 1_555
C7 C6 1_555 1_555
C8 C7 1_555 1_555
H5 C8 1_555 1_555
C9 O2 1_555 1_555
C10 C9 1_555 1_555
C11 N1 1_555 1_555
C12 C11 1_555 1_555
H6 C12 1_555 1_555
C13 C12 1_555 1_555
C14 C13 1_555 1_555
H7 C14 1_555 1_555
C15 C10 1_555 1_555
C16 C3 1_555 1_555
H8 C16 1_555 1_555
H9 C16 1_555 1_555
H10 C16 1_555 1_555
C17 O6 1_555 1_555
H11 C17 1_555 1_555
H12 C17 1_555 1_555
H13 C17 1_555 1_555
C18 O7 1_555 1_555
H14 C18 1_555 1_555
H15 C18 1_555 1_555
H16 C18 1_555 1_555
C19 O3 1_555 1_555
C20 C19 1_555 1_555
H17 C20 1_555 1_555
C21 C20 1_555 1_555
H18 C21 1_555 1_555
C22 C21 1_555 1_555
H19 C22 1_555 1_555
C23 C22 1_555 1_555
H20 C23 1_555 1_555
C24 C19 1_555 1_555
H21 C24 1_555 1_555
C25 N2 1_555 1_555
H22 C25 1_555 1_555
H23 C25 1_555 1_555
C26 C25 1_555 1_555
C27 O5 1_555 1_555
H24 C27 1_555 1_555
H25 C27 1_555 1_555
H26 C27 1_555 1_555
H27 N2 1_555 1_555
C5 C6 1_555 1_555
C8 C9 1_555 1_555
C10 C11 1_555 1_555
C14 C15 1_555 1_555
C23 C24 1_555 1_555

#END
