
#######################################################################
#
#                 Cambridge Crystallographic Data Centre
#                                CCDC 
#
#######################################################################
#
# If this CIF has been generated from an entry in the Cambridge 
# Structural Database, then it will include bibliographic, chemical, 
# crystal, experimental, refinement or atomic coordinate data resulting 
# from the CCDC's data processing and validation procedures.
#
#######################################################################

data_DOZDIH
_chemical_formula_moiety         'C24 H21 Cl2 N1 O4'
_chemical_name_systematic        
"5'-chloro-2-(4-chlorophenyl)-3-(methoxycarbonyl)-2'-methyl-5-vinylspiro[cyclopentane-1,3'-indole]-3-carboxylic acid unknown solvate"
_symmetry_cell_setting           monoclinic
_symmetry_space_group_name_H-M   'C 2'
_symmetry_Int_Tables_number      5
_space_group_name_Hall           'C 2y'
loop_
_symmetry_equiv_pos_site_id
_symmetry_equiv_pos_as_xyz
1 x,y,z
2 -x,y,-z
3 1/2+x,1/2+y,z
4 1/2-x,1/2+y,-z
_cell_length_a                   21.3083(15)
_cell_length_b                   16.6395(6)
_cell_length_c                   17.8923(7)
_cell_angle_alpha                90
_cell_angle_beta                 118.967(4)
_cell_angle_gamma                90
_cell_volume                     5550.26
_exptl_crystal_colour            colorless
_exptl_crystal_description       block
_cell_formula_units_Z            8
loop_
_atom_site_label
_atom_site_type_symbol
_atom_site_fract_x
_atom_site_fract_y
_atom_site_fract_z
Cl1 Cl 0.64698(8) 0.64648(8) 0.55394(9)
Cl2 Cl 1.09268(8) 0.59999(12) 0.78835(10)
O1 O 0.7719(2) 0.5597(2) 0.4157(2)
O2 O 0.8757(2) 0.52649(19) 0.4211(2)
O3 O 0.89559(17) 0.3288(2) 0.43189(17)
O4 O 0.81225(16) 0.38343(19) 0.31088(16)
H1 H 0.8345 0.3602 0.2905
N1 N 0.7909(2) 0.3375(2) 0.68319(19)
C1 C 0.8087(2) 0.4216(2) 0.4361(2)
C2 C 0.8460(2) 0.3994(2) 0.5346(2)
H2 H 0.8701 0.3482 0.5382
C3 C 0.7305(2) 0.3954(3) 0.4005(2)
H3 H 0.7002 0.4414 0.3935
H4 H 0.7133 0.3694 0.3454
C4 C 0.8452(2) 0.3727(2) 0.3942(2)
C5 C 0.7298(2) 0.3368(3) 0.4655(2)
H5 H 0.7507 0.2861 0.4604
C6 C 0.7829(2) 0.3755(2) 0.5521(2)
C7 C 0.7483(2) 0.4394(2) 0.5813(2)
C8 C 0.8077(2) 0.3162(2) 0.6259(2)
C9 C 0.7139(2) 0.5108(3) 0.5475(2)
H6 H 0.7076 0.5293 0.4953
C10 C 0.6889(3) 0.5545(3) 0.5940(3)
C11 C 0.9056(2) 0.4533(2) 0.5974(2)
C12 C 0.7558(2) 0.4126(3) 0.6590(2)
C13 C 0.9517(3) 0.5708(3) 0.6851(3)
H7 H 0.9436 0.6191 0.7051
C14 C 0.7303(3) 0.4570(3) 0.7045(3)
H8 H 0.7363 0.4389 0.7567
C15 C 0.9746(2) 0.4291(3) 0.6243(3)
H9 H 0.9829 0.3812 0.6037
C16 C 0.6569(3) 0.3195(4) 0.4524(3)
H10 H 0.6295 0.3631 0.4524
C17 C 1.0331(3) 0.4752(3) 0.6826(3)
H11 H 1.0799 0.4585 0.7003
C18 C 1.0199(3) 0.5447(3) 0.7124(3)
C19 C 0.8149(3) 0.5102(3) 0.4223(2)
C20 C 0.8462(3) 0.2407(3) 0.6329(3)
H12 H 0.8504 0.2104 0.6808
H13 H 0.8931 0.2527 0.6409
H14 H 0.8200 0.2099 0.5816
C21 C 0.8951(3) 0.5254(3) 0.6278(3)
H15 H 0.8485 0.5436 0.6091
C22 C 0.6967(3) 0.5271(3) 0.6710(3)
H16 H 0.6785 0.5572 0.7000
C23 C 0.8893(5) 0.6103(4) 0.4114(6)
H17 H 0.8477 0.6332 0.3640
H18 H 0.9295 0.6141 0.4013
H19 H 0.8998 0.6392 0.4626
C24 C 0.6287(4) 0.2505(5) 0.4414(5)
H20 H 0.6542 0.2053 0.4411
H21 H 0.5825 0.2451 0.4337
Cl3 Cl 0.12125(10) 0.49515(11) 0.06960(11)
Cl4 Cl 0.55862(9) 0.52985(10) 0.28008(11)
O5 O 0.4048(2) 0.5900(3) -0.0282(3)
O6 O 0.2927(2) 0.6047(3) -0.1291(2)
O7 O 0.25773(19) 0.8102(3) -0.14034(19)
O8 O 0.33251(19) 0.7511(2) -0.17689(17)
H22 H 0.3064 0.7717 -0.2235
N2 N 0.36307(19) 0.7981(2) 0.22334(19)
C25 C 0.4631(2) 0.6432(3) 0.1852(3)
H23 H 0.4698 0.6260 0.1401
C26 C 0.4981(2) 0.6067(3) 0.2643(3)
C27 C 0.3438(2) 0.8173(3) 0.1461(2)
C28 C 0.3473(2) 0.7156(3) -0.0426(2)
C29 C 0.4180(2) 0.7059(3) 0.1756(2)
C30 C 0.3054(3) 0.7634(3) -0.1257(2)
C31 C 0.3739(2) 0.7634(2) 0.1029(2)
C32 C 0.4089(2) 0.7306(3) 0.2443(2)
C33 C 0.3130(2) 0.7289(3) 0.0173(2)
H24 H 0.2804 0.7745 -0.0087
C34 C 0.2663(2) 0.6645(3) 0.0256(2)
C35 C 0.4440(3) 0.6934(3) 0.3229(3)
H25 H 0.4376 0.7106 0.3682
C36 C 0.4203(2) 0.8110(3) 0.0723(2)
H26 H 0.3933 0.8589 0.0416
C37 C 0.4919(3) 0.8375(4) 0.1394(3)
H27 H 0.5236 0.7974 0.1724
C38 C 0.1774(3) 0.5589(4) 0.0505(3)
C39 C 0.4219(2) 0.7530(3) 0.0070(2)
H28 H 0.4576 0.7115 0.0358
H29 H 0.4339 0.7816 -0.0316
C40 C 0.2451(3) 0.5366(3) 0.0729(3)
H30 H 0.2618 0.4861 0.0965
C41 C 0.3506(3) 0.6294(3) -0.0656(3)
C42 C 0.2898(2) 0.5897(3) 0.0606(3)
H31 H 0.3365 0.5742 0.0763
C43 C 0.1513(3) 0.6323(4) 0.0135(3)
H32 H 0.1042 0.6469 -0.0028
C44 C 0.4886(3) 0.6304(3) 0.3324(3)
H33 H 0.5124 0.6035 0.3844
C45 C 0.2966(3) 0.8882(3) 0.1039(3)
H34 H 0.3227 0.9368 0.1287
H35 H 0.2552 0.8858 0.1119
H36 H 0.2815 0.8875 0.0439
C46 C 0.1957(3) 0.6843(3) 0.0007(3)
H37 H 0.1779 0.7337 -0.0253
C47 C 0.5147(4) 0.9095(5) 0.1567(4)
H38 H 0.4851 0.9519 0.1257
H39 H 0.5609 0.9196 0.2005
C48 C 0.2966(6) 0.5302(5) -0.1672(6)
H40 H 0.3278 0.5364 -0.1914
H41 H 0.2495 0.5155 -0.2112
H42 H 0.3150 0.4890 -0.1243
loop_
_geom_bond_atom_site_label_1
_geom_bond_atom_site_label_2
_geom_bond_site_symmetry_1
_geom_bond_site_symmetry_2
Cl1 C10 1_555 1_555
Cl2 C18 1_555 1_555
O1 C19 1_555 1_555
O2 C19 1_555 1_555
O3 C4 1_555 1_555
O4 H1 1_555 1_555
N1 C8 1_555 1_555
C1 C2 1_555 1_555
C2 H2 1_555 1_555
C3 C1 1_555 1_555
H3 C3 1_555 1_555
H4 C3 1_555 1_555
C4 O4 1_555 1_555
C5 C3 1_555 1_555
H5 C5 1_555 1_555
C6 C2 1_555 1_555
C7 C6 1_555 1_555
C8 C6 1_555 1_555
C9 C7 1_555 1_555
H6 C9 1_555 1_555
C10 C9 1_555 1_555
C11 C2 1_555 1_555
C12 N1 1_555 1_555
C13 H7 1_555 1_555
C14 C12 1_555 1_555
H8 C14 1_555 1_555
C15 C11 1_555 1_555
H9 C15 1_555 1_555
C16 C5 1_555 1_555
H10 C16 1_555 1_555
C17 C15 1_555 1_555
H11 C17 1_555 1_555
C18 C13 1_555 1_555
C19 C1 1_555 1_555
C20 C8 1_555 1_555
H12 C20 1_555 1_555
H13 C20 1_555 1_555
H14 C20 1_555 1_555
C21 C11 1_555 1_555
H15 C21 1_555 1_555
C22 C10 1_555 1_555
H16 C22 1_555 1_555
C23 O2 1_555 1_555
H17 C23 1_555 1_555
H18 C23 1_555 1_555
H19 C23 1_555 1_555
C24 C16 1_555 1_555
H20 C24 1_555 1_555
H21 C24 1_555 1_555
Cl3 C38 1_555 1_555
Cl4 C26 1_555 1_555
O5 C41 1_555 1_555
O6 C41 1_555 1_555
O7 C30 1_555 1_555
O8 H22 1_555 1_555
N2 C27 1_555 1_555
C25 H23 1_555 1_555
C26 C25 1_555 1_555
C27 C31 1_555 1_555
C28 C30 1_555 1_555
C29 C25 1_555 1_555
C30 O8 1_555 1_555
C31 C29 1_555 1_555
C32 N2 1_555 1_555
C33 C28 1_555 1_555
H24 C33 1_555 1_555
C34 C33 1_555 1_555
C35 C32 1_555 1_555
H25 C35 1_555 1_555
C36 C31 1_555 1_555
H26 C36 1_555 1_555
C37 C36 1_555 1_555
H27 C37 1_555 1_555
C38 C40 1_555 1_555
C39 C28 1_555 1_555
H28 C39 1_555 1_555
H29 C39 1_555 1_555
C40 H30 1_555 1_555
C41 C28 1_555 1_555
C42 C34 1_555 1_555
H31 C42 1_555 1_555
C43 C38 1_555 1_555
H32 C43 1_555 1_555
C44 C26 1_555 1_555
H33 C44 1_555 1_555
C45 C27 1_555 1_555
H34 C45 1_555 1_555
H35 C45 1_555 1_555
H36 C45 1_555 1_555
C46 C34 1_555 1_555
H37 C46 1_555 1_555
C47 C37 1_555 1_555
H38 C47 1_555 1_555
H39 C47 1_555 1_555
C48 O6 1_555 1_555
H40 C48 1_555 1_555
H41 C48 1_555 1_555
H42 C48 1_555 1_555
C1 C4 1_555 1_555
C5 C6 1_555 1_555
C7 C12 1_555 1_555
C13 C21 1_555 1_555
C14 C22 1_555 1_555
C17 C18 1_555 1_555
C29 C32 1_555 1_555
C31 C33 1_555 1_555
C35 C44 1_555 1_555
C36 C39 1_555 1_555
C40 C42 1_555 1_555
C43 C46 1_555 1_555

#END
