
#######################################################################
#
#                 Cambridge Crystallographic Data Centre
#                                CCDC 
#
#######################################################################
#
# If this CIF has been generated from an entry in the Cambridge 
# Structural Database, then it will include bibliographic, chemical, 
# crystal, experimental, refinement or atomic coordinate data resulting 
# from the CCDC's data processing and validation procedures.
#
#######################################################################

data_DOZJIN
_chemical_formula_moiety         'C25 H33 O2 P1'
_chemical_name_systematic        
1-((2-isopropyl-5-methylcyclohexyl)(phenyl)phosphoryl)-3-phenylprop-2-en-1-ol
_symmetry_cell_setting           orthorhombic
_symmetry_space_group_name_H-M   'P 21 21 21'
_symmetry_Int_Tables_number      19
_space_group_name_Hall           'P 2ac 2ab'
loop_
_symmetry_equiv_pos_site_id
_symmetry_equiv_pos_as_xyz
1 x,y,z
2 1/2-x,-y,1/2+z
3 -x,1/2+y,1/2-z
4 1/2+x,1/2-y,-z
_cell_length_a                   8.1842(6)
_cell_length_b                   11.2368(11)
_cell_length_c                   24.851(2)
_cell_angle_alpha                90
_cell_angle_beta                 90
_cell_angle_gamma                90
_cell_volume                     2285.4
_exptl_crystal_colour            colorless
_exptl_crystal_description       block
_cell_formula_units_Z            4
loop_
_atom_site_label
_atom_site_type_symbol
_atom_site_fract_x
_atom_site_fract_y
_atom_site_fract_z
P1 P 0.65130(7) 0.22343(6) 0.23535(3)
O1 O 0.67660(18) 0.44857(13) 0.26376(7)
H1 H 0.6238 0.5106 0.2639
O2 O 0.53843(19) 0.12070(14) 0.23895(7)
C1 C 0.6839(3) 0.2746(2) 0.16637(9)
H2 H 0.7746 0.3316 0.1667
C2 C 0.8422(3) 0.19244(18) 0.26817(9)
C3 C 0.5712(3) 0.3518(2) 0.27236(10)
H3 H 0.4651 0.3723 0.2566
C4 C 0.9681(3) 0.2748(2) 0.27110(10)
H4 H 0.9568 0.3492 0.2551
C5 C 0.5434(3) 0.3230(2) 0.33021(10)
H5 H 0.4877 0.2530 0.3380
C6 C 0.5302(3) 0.3409(2) 0.14810(10)
H6 H 0.4376 0.2875 0.1512
H7 H 0.5115 0.4070 0.1724
C7 C 0.5911(3) 0.3885(2) 0.37095(10)
H8 H 0.6558 0.4542 0.3629
C8 C 1.0047(4) 0.0567(3) 0.32028(11)
H9 H 1.0160 -0.0163 0.3376
C9 C 1.1295(4) 0.1372(3) 0.32156(12)
H10 H 1.2273 0.1181 0.3385
C10 C 0.8612(3) 0.0834(2) 0.29323(10)
H11 H 0.7772 0.0278 0.2919
C11 C 0.8811(3) 0.1017(2) 0.14030(11)
H12 H 0.8687 0.0738 0.1774
C12 C 0.7351(4) 0.2246(3) 0.06943(11)
H13 H 0.8266 0.2791 0.0670
H14 H 0.7549 0.1601 0.0443
C13 C 0.7283(3) 0.1732(2) 0.12674(10)
H15 H 0.6368 0.1170 0.1274
C14 C 0.5530(3) 0.3688(2) 0.42761(11)
C15 C 0.5925(4) 0.4545(3) 0.46557(13)
H16 H 0.6474 0.5230 0.4548
C16 C 0.5364(3) 0.3883(2) 0.09099(10)
H17 H 0.6236 0.4480 0.0894
C17 C 0.4759(4) 0.2685(3) 0.44662(11)
H18 H 0.4502 0.2078 0.4226
C18 C 0.5807(4) 0.2897(3) 0.05261(12)
H19 H 0.5962 0.3229 0.0169
H20 H 0.4911 0.2334 0.0508
C19 C 1.0408(3) 0.1729(3) 0.13795(13)
H21 H 1.1283 0.1258 0.1524
H22 H 1.0294 0.2444 0.1587
H23 H 1.0647 0.1931 0.1013
C20 C 1.1102(3) 0.2457(3) 0.29783(12)
H24 H 1.1944 0.3011 0.2997
C21 C 0.4742(4) 0.3399(4) 0.53629(14)
H25 H 0.4481 0.3301 0.5724
C22 C 0.8980(4) -0.0093(3) 0.10479(13)
H26 H 0.7981 -0.0541 0.1059
H27 H 0.9861 -0.0578 0.1179
H28 H 0.9202 0.0143 0.0684
C23 C 0.3771(4) 0.4497(3) 0.07551(13)
H29 H 0.3880 0.4843 0.0404
H30 H 0.3529 0.5110 0.1012
H31 H 0.2900 0.3925 0.0752
C24 C 0.5518(5) 0.4402(4) 0.51912(14)
H32 H 0.5776 0.4996 0.5437
C25 C 0.4356(4) 0.2548(4) 0.50005(14)
H33 H 0.3814 0.1865 0.5113
loop_
_geom_bond_atom_site_label_1
_geom_bond_atom_site_label_2
_geom_bond_site_symmetry_1
_geom_bond_site_symmetry_2
P1 O2 1_555 1_555
O1 H1 1_555 1_555
C1 P1 1_555 1_555
H2 C1 1_555 1_555
C2 P1 1_555 1_555
C3 P1 1_555 1_555
H3 C3 1_555 1_555
C4 C2 1_555 1_555
H4 C4 1_555 1_555
C5 C3 1_555 1_555
H5 C5 1_555 1_555
C6 C1 1_555 1_555
H6 C6 1_555 1_555
H7 C6 1_555 1_555
C7 C5 1_555 1_555
H8 C7 1_555 1_555
C8 H9 1_555 1_555
C9 C8 1_555 1_555
H10 C9 1_555 1_555
C10 C2 1_555 1_555
H11 C10 1_555 1_555
C11 H12 1_555 1_555
C12 H13 1_555 1_555
H14 C12 1_555 1_555
C13 C1 1_555 1_555
H15 C13 1_555 1_555
C14 C7 1_555 1_555
C15 C14 1_555 1_555
H16 C15 1_555 1_555
C16 C6 1_555 1_555
H17 C16 1_555 1_555
C17 C14 1_555 1_555
H18 C17 1_555 1_555
C18 C12 1_555 1_555
H19 C18 1_555 1_555
H20 C18 1_555 1_555
C19 C11 1_555 1_555
H21 C19 1_555 1_555
H22 C19 1_555 1_555
H23 C19 1_555 1_555
C20 C4 1_555 1_555
H24 C20 1_555 1_555
C21 H25 1_555 1_555
C22 C11 1_555 1_555
H26 C22 1_555 1_555
H27 C22 1_555 1_555
H28 C22 1_555 1_555
C23 C16 1_555 1_555
H29 C23 1_555 1_555
H30 C23 1_555 1_555
H31 C23 1_555 1_555
C24 C15 1_555 1_555
H32 C24 1_555 1_555
C25 C17 1_555 1_555
H33 C25 1_555 1_555
O1 C3 1_555 1_555
C8 C10 1_555 1_555
C9 C20 1_555 1_555
C11 C13 1_555 1_555
C12 C13 1_555 1_555
C16 C18 1_555 1_555
C21 C24 1_555 1_555
C21 C25 1_555 1_555

#END
