
#######################################################################
#
#                 Cambridge Crystallographic Data Centre
#                                CCDC 
#
#######################################################################
#
# If this CIF has been generated from an entry in the Cambridge 
# Structural Database, then it will include bibliographic, chemical, 
# crystal, experimental, refinement or atomic coordinate data resulting 
# from the CCDC's data processing and validation procedures.
#
#######################################################################

data_DUBVED
_chemical_formula_moiety         'C7 H9 F1 N1 1+,Br1 1-'
_chemical_name_systematic        '(4-fluorophenyl)methanaminium bromide'
_symmetry_cell_setting           triclinic
_symmetry_space_group_name_H-M   'P -1'
_symmetry_Int_Tables_number      2
_space_group_name_Hall           '-P 1'
loop_
_symmetry_equiv_pos_site_id
_symmetry_equiv_pos_as_xyz
1 x,y,z
2 -x,-y,-z
_cell_length_a                   4.4752(9)
_cell_length_b                   6.0498(12)
_cell_length_c                   15.442(3)
_cell_angle_alpha                82.25(3)
_cell_angle_beta                 83.87(3)
_cell_angle_gamma                86.33(3)
_cell_volume                     411.368
_exptl_crystal_colour            yellow
_exptl_crystal_description       needle
_cell_formula_units_Z            2
loop_
_atom_site_label
_atom_site_type_symbol
_atom_site_fract_x
_atom_site_fract_y
_atom_site_fract_z
N1 N -0.0360(8) 0.7688(5) 0.4140(2)
H1 H 0.0538 0.7809 0.4617
H2 H -0.0977 0.6307 0.4169
H3 H -0.1936 0.8659 0.4108
C1 C 0.1820(10) 0.8171(7) 0.3339(3)
H4 H 0.2525 0.9662 0.3319
H5 H 0.3547 0.7122 0.3382
C2 C 0.0455(9) 0.8009(6) 0.2509(3)
C3 C 0.0979(11) 0.6085(7) 0.2110(3)
H6 H 0.2113 0.4890 0.2375
C4 C -0.0155(14) 0.5911(9) 0.1326(4)
H7 H 0.0223 0.4626 0.1054
C5 C -0.1853(13) 0.7690(9) 0.0961(3)
C6 C -0.2430(12) 0.9610(8) 0.1329(3)
H8 H -0.3595 1.0786 0.1064
C7 C -0.1245(10) 0.9769(7) 0.2103(3)
H9 H -0.1590 1.1079 0.2360
F1 F -0.3005(9) 0.7514(6) 0.0189(2)
Br1 Br 0.37726(9) 0.72037(6) 0.58533(3)
loop_
_geom_bond_atom_site_label_1
_geom_bond_atom_site_label_2
_geom_bond_site_symmetry_1
_geom_bond_site_symmetry_2
N1 H1 1_555 1_555
H2 N1 1_555 1_555
H3 N1 1_555 1_555
C1 N1 1_555 1_555
H4 C1 1_555 1_555
H5 C1 1_555 1_555
C2 C1 1_555 1_555
C3 C2 1_555 1_555
H6 C3 1_555 1_555
C4 C3 1_555 1_555
H7 C4 1_555 1_555
C5 C4 1_555 1_555
C6 C5 1_555 1_555
H8 C6 1_555 1_555
C7 C2 1_555 1_555
H9 C7 1_555 1_555
F1 C5 1_555 1_555
C6 C7 1_555 1_555

#END
