
#######################################################################
#
#                 Cambridge Crystallographic Data Centre
#                                CCDC 
#
#######################################################################
#
# If this CIF has been generated from an entry in the Cambridge 
# Structural Database, then it will include bibliographic, chemical, 
# crystal, experimental, refinement or atomic coordinate data resulting 
# from the CCDC's data processing and validation procedures.
#
#######################################################################

data_DUBVAZ
_chemical_formula_moiety         'C7 H9 F1 N1 1+,Cl1 1-'
_chemical_name_systematic        '(4-fluorophenyl)methanaminium chloride'
_symmetry_cell_setting           triclinic
_symmetry_space_group_name_H-M   'P -1'
_symmetry_Int_Tables_number      2
_space_group_name_Hall           '-P 1'
loop_
_symmetry_equiv_pos_site_id
_symmetry_equiv_pos_as_xyz
1 x,y,z
2 -x,-y,-z
_cell_length_a                   4.4218(9)
_cell_length_b                   5.8558(12)
_cell_length_c                   15.434(3)
_cell_angle_alpha                82.64(3)
_cell_angle_beta                 84.69(3)
_cell_angle_gamma                86.90(3)
_cell_volume                     394.281
_exptl_crystal_colour            colorless
_exptl_crystal_description       needle
_cell_formula_units_Z            2
loop_
_atom_site_label
_atom_site_type_symbol
_atom_site_fract_x
_atom_site_fract_y
_atom_site_fract_z
C1 C 0.6684(9) 0.3089(7) 0.8439(3)
H1 H 0.8338 0.1939 0.8505
H2 H 0.7518 0.4592 0.8428
C2 C 0.5367(9) 0.2969(6) 0.7585(3)
C3 C 0.3612(10) 0.4765(7) 0.7190(3)
H3 H 0.3185 0.6077 0.7469
C4 C 0.2482(11) 0.4661(8) 0.6395(3)
H4 H 0.1278 0.5865 0.6138
C5 C 0.3194(12) 0.2719(9) 0.5995(3)
C6 C 0.4948(13) 0.0915(8) 0.6360(3)
H5 H 0.5405 -0.0378 0.6072
C7 C 0.6014(11) 0.1047(7) 0.7154(3)
H6 H 0.7195 -0.0175 0.7409
F1 F 0.2124(8) 0.2598(6) 0.52023(19)
N1 N 0.4407(7) 0.2699(5) 0.92052(19)
H7 H 0.5288 0.2787 0.9695
H8 H 0.3664 0.1309 0.9226
H9 H 0.2903 0.3767 0.9154
Cl1 Cl 0.1376(2) 0.77811(14) 0.91969(6)
loop_
_geom_bond_atom_site_label_1
_geom_bond_atom_site_label_2
_geom_bond_site_symmetry_1
_geom_bond_site_symmetry_2
C1 H1 1_555 1_555
H2 C1 1_555 1_555
C2 C1 1_555 1_555
C3 C2 1_555 1_555
H3 C3 1_555 1_555
C4 C3 1_555 1_555
H4 C4 1_555 1_555
C5 C4 1_555 1_555
C6 C5 1_555 1_555
H5 C6 1_555 1_555
C7 C2 1_555 1_555
H6 C7 1_555 1_555
F1 C5 1_555 1_555
N1 C1 1_555 1_555
H7 N1 1_555 1_555
H8 N1 1_555 1_555
H9 N1 1_555 1_555
C6 C7 1_555 1_555

#END
