
#######################################################################
#
#                 Cambridge Crystallographic Data Centre
#                                CCDC 
#
#######################################################################
#
# If this CIF has been generated from an entry in the Cambridge 
# Structural Database, then it will include bibliographic, chemical, 
# crystal, experimental, refinement or atomic coordinate data resulting 
# from the CCDC's data processing and validation procedures.
#
#######################################################################

data_DUCTUS
_chemical_formula_moiety         'C12 H12 N5 1+,C5 H5 O5 1-'
_chemical_name_systematic        
'6-(benzylamino)-7H-purin-3-ium 4-carboxy-2-oxobutanoate'
_symmetry_cell_setting           monoclinic
_symmetry_space_group_name_H-M   'P 21/c'
_symmetry_Int_Tables_number      14
_space_group_name_Hall           '-P 2ybc'
loop_
_symmetry_equiv_pos_site_id
_symmetry_equiv_pos_as_xyz
1 x,y,z
2 -x,1/2+y,1/2-z
3 -x,-y,-z
4 x,1/2-y,1/2+z
_cell_length_a                   5.2150(6)
_cell_length_b                   47.960(3)
_cell_length_c                   7.3909(8)
_cell_angle_alpha                90
_cell_angle_beta                 113.882(2)
_cell_angle_gamma                90
_cell_volume                     1690.28
_exptl_crystal_colour            colorless
_exptl_crystal_description       block
_cell_formula_units_Z            4
loop_
_atom_site_label
_atom_site_type_symbol
_atom_site_fract_x
_atom_site_fract_y
_atom_site_fract_z
N1 N 0.5252(10) 0.06687(10) 0.7338(7)
N2 N 0.3072(10) 0.08636(9) 0.9070(7)
H1 H 0.2212 0.0880 0.9842
N3 N 0.5998(10) 0.11024(11) 0.5907(7)
H2 H 0.6799 0.1027 0.5216
N4 N 0.4388(11) 0.15137(10) 0.6886(8)
N5 N 0.2162(11) 0.14988(10) 0.9037(7)
H3 H 0.1555 0.1401 0.9758
C1 C 0.3984(12) 0.06246(13) 0.8565(9)
H4 H 0.3756 0.0449 0.9018
C2 C 0.3780(12) 0.10759(11) 0.8115(8)
C3 C 0.5083(12) 0.09486(11) 0.7066(8)
C4 C 0.5592(13) 0.13797(13) 0.5890(9)
H5 H 0.6222 0.1486 0.5100
C5 C 0.3395(12) 0.13644(12) 0.8040(8)
C6 C 0.1757(15) 0.18004(13) 0.9001(10)
H6 H -0.0170 0.1839 0.8789
H7 H 0.2064 0.1878 0.7894
C7 C 0.3678(16) 0.19433(13) 1.0870(10)
C8 C 0.6382(18) 0.18490(16) 1.1933(12)
H8 H 0.7044 0.1692 1.1518
C9 C 0.807(2) 0.1989(2) 1.3598(14)
H9 H 0.9874 0.1924 1.4325
C10 C 0.717(3) 0.2221(2) 1.4219(16)
H10 H 0.8374 0.2316 1.5343
C11 C 0.456(3) 0.2315(2) 1.3207(16)
H11 H 0.3935 0.2473 1.3632
C12 C 0.274(2) 0.21722(16) 1.1500(13)
H12 H 0.0915 0.2235 1.0809
O1 O 0.0563(9) 0.10930(9) 0.1167(7)
O2 O -0.1268(11) 0.12266(9) 0.3277(7)
O3 O 0.3407(10) 0.00433(9) 0.1561(7)
O4 O 0.1822(11) -0.02288(9) 0.3323(7)
H13 H 0.2678 -0.0349 0.3003
O5 O -0.1848(10) 0.06959(9) 0.4058(7)
C13 C -0.0431(12) 0.10466(12) 0.2438(8)
C14 C -0.0595(11) 0.07445(11) 0.3041(8)
C15 C 0.0825(12) 0.05204(11) 0.2360(8)
H14 H 0.2803 0.0565 0.2815
H15 H 0.0031 0.0517 0.0925
C16 C 0.0518(13) 0.02348(12) 0.3112(9)
H16 H 0.1199 0.0241 0.4542
H17 H -0.1456 0.0186 0.2587
C17 C 0.2067(12) 0.00128(12) 0.2555(9)
loop_
_geom_bond_atom_site_label_1
_geom_bond_atom_site_label_2
_geom_bond_site_symmetry_1
_geom_bond_site_symmetry_2
N1 C1 1_555 1_555
N2 H1 1_555 1_555
N3 H2 1_555 1_555
N4 C4 1_555 1_555
N5 H3 1_555 1_555
C1 N2 1_555 1_555
H4 C1 1_555 1_555
C2 N2 1_555 1_555
C3 N1 1_555 1_555
C4 N3 1_555 1_555
H5 C4 1_555 1_555
C5 N4 1_555 1_555
C6 N5 1_555 1_555
H6 C6 1_555 1_555
H7 C6 1_555 1_555
C7 C6 1_555 1_555
C8 C7 1_555 1_555
H8 C8 1_555 1_555
C9 C8 1_555 1_555
H9 C9 1_555 1_555
C10 C9 1_555 1_555
H10 C10 1_555 1_555
C11 C10 1_555 1_555
H11 C11 1_555 1_555
C12 C7 1_555 1_555
H12 C12 1_555 1_555
O1 C13 1_555 1_555
O2 C13 1_555 1_555
O3 C17 1_555 1_555
O4 H13 1_555 1_555
O5 C14 1_555 1_555
C13 C14 1_555 1_555
C14 C15 1_555 1_555
C15 H14 1_555 1_555
H15 C15 1_555 1_555
C16 C15 1_555 1_555
H16 C16 1_555 1_555
H17 C16 1_555 1_555
C17 O4 1_555 1_555
N3 C3 1_555 1_555
N5 C5 1_555 1_555
C2 C3 1_555 1_555
C2 C5 1_555 1_555
C11 C12 1_555 1_555
C16 C17 1_555 1_555

#END
