
#######################################################################
#
#                 Cambridge Crystallographic Data Centre
#                                CCDC 
#
#######################################################################
#
# If this CIF has been generated from an entry in the Cambridge 
# Structural Database, then it will include bibliographic, chemical, 
# crystal, experimental, refinement or atomic coordinate data resulting 
# from the CCDC's data processing and validation procedures.
#
#######################################################################

data_DUCTOM
_chemical_formula_moiety         '2(C12 H12 N5 1+),C10 H6 O6 S2 2-'
_chemical_name_systematic        
'bis(6-(benzylamino)-7H-purin-3-ium) naphthalene-1,5-disulfonate'
_symmetry_cell_setting           triclinic
_symmetry_space_group_name_H-M   'P -1'
_symmetry_Int_Tables_number      2
_space_group_name_Hall           '-P 1'
loop_
_symmetry_equiv_pos_site_id
_symmetry_equiv_pos_as_xyz
1 x,y,z
2 -x,-y,-z
_cell_length_a                   7.3941(9)
_cell_length_b                   10.4623(11)
_cell_length_c                   11.7424(12)
_cell_angle_alpha                102.0570(10)
_cell_angle_beta                 102.6580(10)
_cell_angle_gamma                110.254(2)
_cell_volume                     790.249
_exptl_crystal_colour            colorless
_exptl_crystal_description       block
_cell_formula_units_Z            1
loop_
_atom_site_label
_atom_site_type_symbol
_atom_site_fract_x
_atom_site_fract_y
_atom_site_fract_z
N1 N 0.5936(4) 0.9708(3) 1.3539(2)
N2 N 0.3925(4) 0.7373(3) 1.2693(2)
H1 H 0.3133 0.6519 1.2632
N3 N 0.6819(4) 1.0045(3) 1.1712(2)
H2 H 0.7608 1.0941 1.2046
N4 N 0.5281(4) 0.8024(3) 0.9940(2)
N5 N 0.3119(4) 0.5811(2) 0.9920(2)
H3 H 0.2469 0.5249 1.0272
C1 C 0.4756(5) 0.8528(3) 1.3693(3)
H4 H 0.4519 0.8499 1.4435
C2 C 0.4590(4) 0.7827(3) 1.1786(3)
C3 C 0.5829(4) 0.9257(3) 1.2349(3)
C4 C 0.6509(5) 0.9365(3) 1.0553(3)
H5 H 0.7236 0.9893 1.0131
C5 C 0.4282(4) 0.7183(3) 1.0552(3)
C6 C 0.2937(5) 0.5254(3) 0.8638(3)
H6 H 0.4287 0.5440 0.8578
H7 H 0.2384 0.5777 0.8177
C7 C 0.1627(4) 0.3678(3) 0.8046(3)
C8 C 0.0839(5) 0.2731(3) 0.8649(3)
H8 H 0.1081 0.3064 0.9491
C9 C -0.0310(5) 0.1289(3) 0.8018(3)
H9 H -0.0830 0.0665 0.8440
C10 C -0.0690(5) 0.0770(4) 0.6779(3)
H10 H -0.1452 -0.0201 0.6361
C11 C 0.0067(5) 0.1703(4) 0.6160(3)
H11 H -0.0199 0.1364 0.5317
C12 C 0.1220(5) 0.3138(3) 0.6786(3)
H12 H 0.1734 0.3757 0.6358
O1 O 0.1604(3) 0.4419(2) 0.17759(18)
O2 O 0.1113(3) 0.1922(2) 0.12714(18)
O3 O -0.0390(3) 0.2838(2) 0.26943(19)
S1 S 0.12924(12) 0.31539(8) 0.21880(7)
C13 C 0.6618(5) 0.3385(3) 0.4214(3)
H13 H 0.7450 0.2908 0.4107
C14 C 0.4775(5) 0.2982(3) 0.3285(3)
H14 H 0.4402 0.2242 0.2566
C15 C 0.3537(4) 0.3665(3) 0.3429(3)
C16 C 0.4061(4) 0.4801(3) 0.4528(3)
C17 C 0.2816(4) 0.5537(3) 0.4737(3)
H15 H 0.1582 0.5273 0.4140
O1A O 0.8396(3) 0.5581(2) 0.82241(18)
O2A O 0.8887(3) 0.8078(2) 0.87286(18)
O3A O 1.0390(3) 0.7162(2) 0.73057(19)
S1A S 0.87076(12) 0.68461(8) 0.78120(7)
C13A C 0.3382(5) 0.6615(3) 0.5786(3)
H13A H 0.2550 0.7092 0.5893
C14A C 0.5225(5) 0.7018(3) 0.6715(3)
H14A H 0.5598 0.7758 0.7434
C15A C 0.6463(4) 0.6335(3) 0.6571(3)
C16A C 0.5939(4) 0.5199(3) 0.5472(3)
C17A C 0.7184(4) 0.4463(3) 0.5263(3)
H15A H 0.8418 0.4727 0.5860
loop_
_geom_bond_atom_site_label_1
_geom_bond_atom_site_label_2
_geom_bond_site_symmetry_1
_geom_bond_site_symmetry_2
N1 C1 1_555 1_555
N2 H1 1_555 1_555
N3 H2 1_555 1_555
N4 C4 1_555 1_555
N5 H3 1_555 1_555
C1 N2 1_555 1_555
H4 C1 1_555 1_555
C2 N2 1_555 1_555
C3 N1 1_555 1_555
C4 N3 1_555 1_555
H5 C4 1_555 1_555
C5 N4 1_555 1_555
C6 N5 1_555 1_555
H6 C6 1_555 1_555
H7 C6 1_555 1_555
C7 C6 1_555 1_555
C8 C7 1_555 1_555
H8 C8 1_555 1_555
C9 C8 1_555 1_555
H9 C9 1_555 1_555
C10 C9 1_555 1_555
H10 C10 1_555 1_555
C11 C10 1_555 1_555
H11 C11 1_555 1_555
C12 C7 1_555 1_555
H12 C12 1_555 1_555
O1 S1 1_555 1_555
O2 S1 1_555 1_555
O3 S1 1_555 1_555
S1 C15 1_555 1_555
C13 H13 1_555 1_555
C14 C13 1_555 1_555
H14 C14 1_555 1_555
C15 C14 1_555 1_555
C16 C15 1_555 1_555
C17 C16 1_555 1_555
H15 C17 1_555 1_555
O1A S1A 1_555 1_555
O2A S1A 1_555 1_555
O3A S1A 1_555 1_555
S1A C15A 1_555 1_555
C13A C17 1_555 1_555
H13A C13A 1_555 1_555
C14A C13A 1_555 1_555
H14A C14A 1_555 1_555
C15A C14A 1_555 1_555
C16A C16 1_555 1_555
C17A C13 1_555 1_555
H15A C17A 1_555 1_555
N3 C3 1_555 1_555
N5 C5 1_555 1_555
C2 C3 1_555 1_555
C2 C5 1_555 1_555
C11 C12 1_555 1_555
C15A C16A 1_555 1_555
C16A C17A 1_555 1_555

#END
