
#######################################################################
#
#                 Cambridge Crystallographic Data Centre
#                                CCDC 
#
#######################################################################
#
# If this CIF has been generated from an entry in the Cambridge 
# Structural Database, then it will include bibliographic, chemical, 
# crystal, experimental, refinement or atomic coordinate data resulting 
# from the CCDC's data processing and validation procedures.
#
#######################################################################

data_DUCWUV
_chemical_formula_moiety         'C13 H9 O3 1-,C4 H12 N1 1+'
_chemical_name_systematic        
'tetramethylammonium 4-(4-hydroxybenzoyl)phenolate'
_symmetry_cell_setting           orthorhombic
_symmetry_space_group_name_H-M   'P n a 21'
_symmetry_Int_Tables_number      33
_space_group_name_Hall           'P 2c -2n'
loop_
_symmetry_equiv_pos_site_id
_symmetry_equiv_pos_as_xyz
1 x,y,z
2 -x,-y,1/2+z
3 1/2+x,1/2-y,z
4 1/2-x,1/2+y,1/2+z
_cell_length_a                   13.3205(2)
_cell_length_b                   16.3147(3)
_cell_length_c                   7.40470(10)
_cell_angle_alpha                90
_cell_angle_beta                 90
_cell_angle_gamma                90
_cell_volume                     1609.19
_cell_formula_units_Z            4
loop_
_atom_site_label
_atom_site_type_symbol
_atom_site_fract_x
_atom_site_fract_y
_atom_site_fract_z
C1 C -0.03819(13) 0.64786(11) 0.9224(2)
O1 O -0.11723(9) 0.62757(10) 0.9953(2)
C2 C 0.05935(12) 0.62891(11) 1.0087(2)
O2 O 0.32982(10) 0.57223(8) 1.25643(18)
C3 C 0.14115(12) 0.68232(11) 0.9987(2)
H1 H 0.1354 0.7304 0.9319
O3 O -0.04423(9) 0.81801(9) 0.26326(18)
H2 H -0.0933(14) 0.8520(13) 0.256(4)
C4 C 0.23003(13) 0.66531(11) 1.0855(2)
H3 H 0.2824 0.7030 1.0802
C5 C 0.24295(13) 0.59222(11) 1.1819(2)
C6 C 0.16026(14) 0.53930(11) 1.1947(3)
H4 H 0.1659 0.4909 1.2603
C7 C 0.07100(14) 0.55807(12) 1.1114(3)
H5 H 0.0169 0.5225 1.1240
C8 C -0.04011(12) 0.68975(11) 0.7456(2)
C9 C 0.03856(13) 0.68486(12) 0.6214(3)
H6 H 0.0949 0.6538 0.6498
C10 C 0.03487(13) 0.72464(12) 0.4588(2)
H7 H 0.0875 0.7185 0.3773
C11 C -0.04682(12) 0.77441(11) 0.4134(2)
C12 C -0.12849(12) 0.77579(12) 0.5334(3)
H8 H -0.1858 0.8053 0.5035
C13 C -0.12468(13) 0.73416(12) 0.6940(3)
H9 H -0.1800 0.7356 0.7706
N1 N 0.67490(12) 0.53953(10) 0.2300(2)
C14 C 0.5882(2) 0.4898(2) 0.2880(6)
H10 H 0.5317 0.5250 0.3099
H11 H 0.6049 0.4609 0.3969
H12 H 0.5716 0.4511 0.1950
C15 C 0.64767(16) 0.58358(16) 0.0608(3)
H13 H 0.5922 0.6197 0.0839
H14 H 0.6290 0.5445 -0.0302
H15 H 0.7042 0.6149 0.0196
C16 C 0.76094(14) 0.48307(13) 0.1949(3)
H16 H 0.8190 0.5145 0.1619
H17 H 0.7439 0.4464 0.0983
H18 H 0.7752 0.4520 0.3021
C17 C 0.7038(3) 0.6001(2) 0.3670(5)
H19 H 0.6486 0.6366 0.3887
H20 H 0.7605 0.6308 0.3248
H21 H 0.7210 0.5724 0.4771
loop_
_geom_bond_atom_site_label_1
_geom_bond_atom_site_label_2
_geom_bond_site_symmetry_1
_geom_bond_site_symmetry_2
C1 O1 1_555 1_555
C2 C1 1_555 1_555
O2 C5 1_555 1_555
C3 C2 1_555 1_555
H1 C3 1_555 1_555
O3 H2 1_555 1_555
C4 C3 1_555 1_555
H3 C4 1_555 1_555
C5 C4 1_555 1_555
C6 C5 1_555 1_555
H4 C6 1_555 1_555
C7 C2 1_555 1_555
H5 C7 1_555 1_555
C8 C1 1_555 1_555
C9 C8 1_555 1_555
H6 C9 1_555 1_555
C10 C9 1_555 1_555
H7 C10 1_555 1_555
C11 O3 1_555 1_555
C12 C11 1_555 1_555
H8 C12 1_555 1_555
C13 C8 1_555 1_555
H9 C13 1_555 1_555
N1 C14 1_555 1_555
C14 H10 1_555 1_555
H11 C14 1_555 1_555
H12 C14 1_555 1_555
C15 N1 1_555 1_555
H13 C15 1_555 1_555
H14 C15 1_555 1_555
H15 C15 1_555 1_555
C16 N1 1_555 1_555
H16 C16 1_555 1_555
H17 C16 1_555 1_555
H18 C16 1_555 1_555
C17 N1 1_555 1_555
H19 C17 1_555 1_555
H20 C17 1_555 1_555
H21 C17 1_555 1_555
C6 C7 1_555 1_555
C10 C11 1_555 1_555
C12 C13 1_555 1_555

#END
