
#######################################################################
#
#                 Cambridge Crystallographic Data Centre
#                                CCDC 
#
#######################################################################
#
# If this CIF has been generated from an entry in the Cambridge 
# Structural Database, then it will include bibliographic, chemical, 
# crystal, experimental, refinement or atomic coordinate data resulting 
# from the CCDC's data processing and validation procedures.
#
#######################################################################

data_DUCXAB
_chemical_formula_moiety         'C6 H4 Cl1 N3 O5'
_chemical_name_systematic        3-Chloro-5-methoxy-2,6-dinitropyridine
_symmetry_cell_setting           monoclinic
_symmetry_space_group_name_H-M   'P 21/n'
_symmetry_Int_Tables_number      14
_space_group_name_Hall           '-P 2yn'
loop_
_symmetry_equiv_pos_site_id
_symmetry_equiv_pos_as_xyz
1 x,y,z
2 1/2-x,1/2+y,1/2-z
3 -x,-y,-z
4 1/2+x,1/2-y,1/2+z
_cell_length_a                   6.6490(13)
_cell_length_b                   10.842(2)
_cell_length_c                   12.715(3)
_cell_angle_alpha                90
_cell_angle_beta                 95.55(3)
_cell_angle_gamma                90
_cell_volume                     912.308
_exptl_crystal_colour            colorless
_exptl_crystal_description       block
_cell_formula_units_Z            4
_exptl_crystal_recrystallization_method 1,2-dichloroethane
loop_
_atom_site_label
_atom_site_type_symbol
_atom_site_fract_x
_atom_site_fract_y
_atom_site_fract_z
Cl1 Cl 0.17055(10) 0.52802(8) 0.42365(6)
O1 O 0.8010(3) 0.77739(16) 0.37270(12)
O2 O 0.2241(4) 0.3362(2) 0.27062(18)
O3 O 0.2590(3) 0.4071(2) 0.11455(16)
O4 O 0.8115(4) 0.7839(2) 0.14363(19)
O5 O 0.9482(4) 0.6061(2) 0.1524(2)
N1 N 0.5510(3) 0.55114(17) 0.20338(15)
N2 N 0.2845(3) 0.4126(2) 0.2107(2)
N3 N 0.8230(3) 0.6789(2) 0.17477(16)
C1 C 0.4068(3) 0.5141(2) 0.25985(18)
C2 C 0.3749(3) 0.5646(2) 0.35677(18)
C3 C 0.5061(3) 0.6544(2) 0.39881(17)
H1 H 0.4898 0.6885 0.4645
C4 C 0.6614(3) 0.6929(2) 0.34246(16)
C5 C 0.6705(3) 0.6373(2) 0.24397(16)
C6 C 0.7921(5) 0.8349(3) 0.47424(19)
H2 H 0.6641 0.8754 0.4761
H3 H 0.8989 0.8944 0.4857
H4 H 0.8073 0.7732 0.5286
loop_
_geom_bond_atom_site_label_1
_geom_bond_atom_site_label_2
_geom_bond_site_symmetry_1
_geom_bond_site_symmetry_2
Cl1 C2 1_555 1_555
O1 C4 1_555 1_555
O2 N2 1_555 1_555
O3 N2 1_555 1_555
O4 N3 1_555 1_555
O5 N3 1_555 1_555
N1 C1 1_555 1_555
N2 C1 1_555 1_555
N3 C5 1_555 1_555
C1 C2 1_555 1_555
C2 C3 1_555 1_555
C3 H1 1_555 1_555
C4 C3 1_555 1_555
C5 N1 1_555 1_555
C6 O1 1_555 1_555
H2 C6 1_555 1_555
H3 C6 1_555 1_555
H4 C6 1_555 1_555
C4 C5 1_555 1_555

#END
