
#######################################################################
#
#                 Cambridge Crystallographic Data Centre
#                                CCDC 
#
#######################################################################
#
# If this CIF has been generated from an entry in the Cambridge 
# Structural Database, then it will include bibliographic, chemical, 
# crystal, experimental, refinement or atomic coordinate data resulting 
# from the CCDC's data processing and validation procedures.
#
#######################################################################

data_DUDVIJ
_chemical_name_common            (1R,3R,4S,11S,12R)-sinuflexolide
_chemical_formula_moiety         'C20 H32 O5'
_chemical_name_systematic        
4,5,12-trihydroxy-4,8,12-trimethyl-16-methylene-14-oxabicyclo[11.3.1]heptadec-8-en-15-one
_symmetry_cell_setting           monoclinic
_symmetry_space_group_name_H-M   'P 21'
_symmetry_Int_Tables_number      4
_space_group_name_Hall           'P 2yb'
loop_
_symmetry_equiv_pos_site_id
_symmetry_equiv_pos_as_xyz
1 x,y,z
2 -x,1/2+y,-z
_cell_length_a                   10.2341(15)
_cell_length_b                   10.4857(16)
_cell_length_c                   10.2341(15)
_cell_angle_alpha                90
_cell_angle_beta                 116.97
_cell_angle_gamma                90
_cell_volume                     978.799
_exptl_crystal_colour            colorless
_exptl_crystal_description       block
_cell_formula_units_Z            2
loop_
_atom_site_label
_atom_site_type_symbol
_atom_site_fract_x
_atom_site_fract_y
_atom_site_fract_z
O1 O 0.28757(17) 0.99270(17) 0.41023(19)
H1 H 0.344(4) 1.062(4) 0.444(4)
O2 O 0.53759(18) 0.72280(14) 0.46233(17)
H2 H 0.602(4) 0.743(4) 0.445(4)
O3 O 0.0168(2) 0.5427(2) 0.7168(2)
H3 H -0.069(5) 0.558(4) 0.692(5)
O4 O -0.08978(17) 0.7611(2) 0.53141(17)
O5 O -0.28571(17) 0.7841(2) 0.32544(19)
C1 C 0.4373(4) 0.9979(3) 0.8105(4)
H4 H 0.3478 1.0062 0.7213
H5 H 0.5060 1.0614 0.8130
H6 H 0.4175 1.0093 0.8929
C2 C 0.5010(2) 0.8674(2) 0.8172(2)
C3 C 0.6247(2) 0.8591(2) 0.7752(2)
H7 H 0.6549 0.7707 0.7811
H8 H 0.7077 0.9071 0.8459
C4 C 0.5852(2) 0.9097(2) 0.6202(2)
H9 H 0.5482 0.9961 0.6111
H10 H 0.6730 0.9123 0.6067
C5 C 0.4705(2) 0.8270(2) 0.5012(2)
H11 H 0.4120 0.7885 0.5446
C6 C 0.3613(2) 0.8991(2) 0.3630(2)
C7 C 0.2443(2) 0.8088(2) 0.2533(2)
H12 H 0.1620 0.8604 0.1876
H13 H 0.2853 0.7690 0.1945
C8 C 0.1845(2) 0.7028(2) 0.3142(2)
H14 H 0.2663 0.6512 0.3809
H15 H 0.1214 0.6484 0.2335
C9 C 0.0977(2) 0.7477(2) 0.3956(2)
H16 H 0.1291 0.8352 0.4283
C10 C -0.0666(2) 0.7512(2) 0.3046(2)
C11 C -0.1394(3) 0.7421(5) 0.1621(3)
H17 H -0.2412 0.7457 0.1163
H18 H -0.0893 0.7320 0.1063
C12 C 0.4555(2) 0.7640(2) 0.8611(2)
H19 H 0.4978 0.6871 0.8553
C13 C 0.3442(3) 0.7567(3) 0.9187(2)
H20 H 0.2854 0.8337 0.8904
H21 H 0.3956 0.7545 1.0249
C14 C 0.2408(2) 0.6405(3) 0.8647(2)
H22 H 0.2435 0.5976 0.9498
H23 H 0.2799 0.5817 0.8181
C15 C 0.0789(2) 0.6666(3) 0.7567(2)
C16 C 0.0670(2) 0.7378(2) 0.6208(2)
H24 H 0.1166 0.8202 0.6522
C17 C -0.1556(2) 0.7671(3) 0.3850(2)
C18 C 0.1306(2) 0.6693(3) 0.5325(2)
H25 H 0.0873 0.5852 0.5050
H26 H 0.2357 0.6595 0.5906
C19 C 0.0047(3) 0.7421(4) 0.8316(3)
H27 H -0.0968 0.7544 0.7643
H28 H 0.0518 0.8235 0.8619
H29 H 0.0125 0.6959 0.9158
C20 C 0.4371(3) 0.9693(2) 0.2852(3)
H30 H 0.3648 1.0111 0.1994
H31 H 0.4907 0.9093 0.2572
H32 H 0.5035 1.0317 0.3503
loop_
_geom_bond_atom_site_label_1
_geom_bond_atom_site_label_2
_geom_bond_site_symmetry_1
_geom_bond_site_symmetry_2
O1 H1 1_555 1_555
O2 H2 1_555 1_555
O3 H3 1_555 1_555
O4 C16 1_555 1_555
O5 C17 1_555 1_555
C1 H4 1_555 1_555
H5 C1 1_555 1_555
H6 C1 1_555 1_555
C2 C1 1_555 1_555
C3 C2 1_555 1_555
H7 C3 1_555 1_555
H8 C3 1_555 1_555
C4 C3 1_555 1_555
H9 C4 1_555 1_555
H10 C4 1_555 1_555
C5 O2 1_555 1_555
H11 C5 1_555 1_555
C6 O1 1_555 1_555
C7 C6 1_555 1_555
H12 C7 1_555 1_555
H13 C7 1_555 1_555
C8 C7 1_555 1_555
H14 C8 1_555 1_555
H15 C8 1_555 1_555
C9 C8 1_555 1_555
H16 C9 1_555 1_555
C10 C9 1_555 1_555
C11 C10 1_555 1_555
H17 C11 1_555 1_555
H18 C11 1_555 1_555
C12 C2 1_555 1_555
H19 C12 1_555 1_555
C13 C12 1_555 1_555
H20 C13 1_555 1_555
H21 C13 1_555 1_555
C14 C13 1_555 1_555
H22 C14 1_555 1_555
H23 C14 1_555 1_555
C15 O3 1_555 1_555
C16 C15 1_555 1_555
H24 C16 1_555 1_555
C17 O4 1_555 1_555
C18 C9 1_555 1_555
H25 C18 1_555 1_555
H26 C18 1_555 1_555
C19 C15 1_555 1_555
H27 C19 1_555 1_555
H28 C19 1_555 1_555
H29 C19 1_555 1_555
C20 C6 1_555 1_555
H30 C20 1_555 1_555
H31 C20 1_555 1_555
H32 C20 1_555 1_555
C4 C5 1_555 1_555
C5 C6 1_555 1_555
C10 C17 1_555 1_555
C14 C15 1_555 1_555
C16 C18 1_555 1_555

#END
