
#######################################################################
#
#                 Cambridge Crystallographic Data Centre
#                                CCDC 
#
#######################################################################
#
# If this CIF has been generated from an entry in the Cambridge 
# Structural Database, then it will include bibliographic, chemical, 
# crystal, experimental, refinement or atomic coordinate data resulting 
# from the CCDC's data processing and validation procedures.
#
#######################################################################

data_DUDWIJ
_chemical_formula_moiety         'C20 H16 O2'
_chemical_name_systematic        
1-Methyl-3,5-diphenyl-5,6-dihydro-4H-cyclopenta[c]furan-4-one
_symmetry_cell_setting           triclinic
_symmetry_space_group_name_H-M   'P -1'
_symmetry_Int_Tables_number      2
_space_group_name_Hall           '-P 1'
loop_
_symmetry_equiv_pos_site_id
_symmetry_equiv_pos_as_xyz
1 x,y,z
2 -x,-y,-z
_cell_length_a                   10.0215(5)
_cell_length_b                   11.1798(6)
_cell_length_c                   15.5716(8)
_cell_angle_alpha                69.2610(10)
_cell_angle_beta                 83.8580(10)
_cell_angle_gamma                65.9790(10)
_cell_volume                     1488.86
_exptl_crystal_colour            yellow
_exptl_crystal_description       block
_chemical_melting_point          '139-141 deg.C'
_cell_formula_units_Z            4
loop_
_atom_site_label
_atom_site_type_symbol
_atom_site_fract_x
_atom_site_fract_y
_atom_site_fract_z
O1 O 0.20194(12) 0.90731(12) 0.30251(8)
O2 O 0.63191(11) 0.54536(10) 0.41588(7)
C1 C 0.45436(16) 0.54053(16) 0.32609(10)
C2 C 0.33321(18) 0.61212(19) 0.26504(12)
H1 H 0.2812 0.7074 0.2521
C3 C 0.2899(2) 0.5422(2) 0.22356(14)
H2 H 0.2090 0.5907 0.1827
C4 C 0.3660(2) 0.4006(2) 0.24249(15)
H3 H 0.3367 0.3538 0.2145
C5 C 0.4847(2) 0.3299(2) 0.30262(14)
H4 H 0.5359 0.2346 0.3155
C6 C 0.52980(19) 0.39795(17) 0.34449(12)
H5 H 0.6110 0.3483 0.3852
C7 C 0.21768(16) 1.06761(15) 0.41438(11)
C8 C 0.18882(18) 1.01416(18) 0.50557(12)
H6 H 0.2543 0.9276 0.5423
C9 C 0.06466(19) 1.0867(2) 0.54329(13)
H7 H 0.0469 1.0487 0.6047
C10 C -0.0321(2) 1.2143(2) 0.49015(15)
H8 H -0.1158 1.2632 0.5153
C11 C -0.0054(2) 1.26973(19) 0.39991(16)
H9 H -0.0711 1.3567 0.3639
C12 C 0.11939(19) 1.19679(17) 0.36161(13)
H10 H 0.1366 1.2353 0.3001
C13 C 0.49966(15) 0.61516(15) 0.36832(10)
C14 C 0.44239(15) 0.74785(15) 0.37113(10)
C15 C 0.54415(15) 0.75901(16) 0.42094(10)
C16 C 0.65821(16) 0.63553(17) 0.44805(11)
C17 C 0.49321(17) 0.90011(17) 0.42915(12)
H11 H 0.5635 0.9417 0.4049
H12 H 0.4775 0.8950 0.4927
C18 C 0.34760(17) 0.98415(16) 0.37089(11)
H13 H 0.3655 1.0502 0.3147
C19 C 0.31441(16) 0.87924(15) 0.34197(10)
C20 C 0.79659(18) 0.5792(2) 0.50146(14)
H14 H 0.8024 0.6502 0.5201
H15 H 0.8775 0.5494 0.4642
H16 H 0.8000 0.5013 0.5549
O3 O 0.31108(12) 1.18662(11) 0.14196(8)
O4 O 0.52408(11) 0.77555(10) 0.09115(7)
C21 C 0.00990(15) 1.26419(15) 0.06928(11)
C22 C -0.03552(18) 1.21745(18) 0.15663(12)
H17 H 0.0230 1.1309 0.1973
C23 C -0.16533(19) 1.2959(2) 0.18490(13)
H18 H -0.1943 1.2619 0.2442
C24 C -0.25258(19) 1.42394(18) 0.12632(14)
H19 H -0.3403 1.4770 0.1460
C25 C -0.21088(18) 1.47388(17) 0.03913(15)
H20 H -0.2701 1.5609 -0.0007
C26 C -0.07943(18) 1.39423(17) 0.00992(12)
H21 H -0.0512 1.4281 -0.0496
C27 C 0.64198(15) 0.84966(16) 0.17661(10)
C28 C 0.75676(17) 0.71861(17) 0.20449(11)
H22 H 0.7503 0.6451 0.1928
C29 C 0.87992(19) 0.6978(2) 0.24938(13)
H23 H 0.9562 0.6101 0.2677
C30 C 0.8910(2) 0.8051(2) 0.26720(14)
H24 H 0.9750 0.7907 0.2966
C31 C 0.7770(2) 0.9344(2) 0.24134(13)
H25 H 0.7839 1.0071 0.2539
C32 C 0.65255(17) 0.95667(18) 0.19689(11)
H26 H 0.5755 1.0439 0.1805
C33 C 0.51421(15) 0.87571(15) 0.12538(10)
C34 C 0.37859(15) 0.98174(15) 0.09940(10)
C35 C 0.30371(15) 0.94290(16) 0.04881(10)
C36 C 0.39361(16) 0.81845(16) 0.04357(11)
C37 C 0.15116(16) 1.04958(17) 0.01994(12)
H27 H 0.0798 1.0177 0.0567
H28 H 0.1298 1.0713 -0.0444
C38 C 0.15210(16) 1.17817(16) 0.03756(11)
H29 H 0.1707 1.2390 -0.0212
C39 C 0.28761(15) 1.12085(16) 0.10240(10)
C40 C 0.38556(19) 0.72445(18) -0.00097(13)
H30 H 0.2912 0.7639 -0.0313
H31 H 0.4003 0.6353 0.0447
H32 H 0.4600 0.7132 -0.0452
loop_
_geom_bond_atom_site_label_1
_geom_bond_atom_site_label_2
_geom_bond_site_symmetry_1
_geom_bond_site_symmetry_2
O1 C19 1_555 1_555
O2 C13 1_555 1_555
C1 C2 1_555 1_555
C2 H1 1_555 1_555
C3 C2 1_555 1_555
H2 C3 1_555 1_555
C4 C3 1_555 1_555
H3 C4 1_555 1_555
C5 C4 1_555 1_555
H4 C5 1_555 1_555
C6 C1 1_555 1_555
H5 C6 1_555 1_555
C7 C8 1_555 1_555
C8 H6 1_555 1_555
C9 C8 1_555 1_555
H7 C9 1_555 1_555
C10 C9 1_555 1_555
H8 C10 1_555 1_555
C11 C10 1_555 1_555
H9 C11 1_555 1_555
C12 C7 1_555 1_555
H10 C12 1_555 1_555
C13 C1 1_555 1_555
C14 C13 1_555 1_555
C15 C14 1_555 1_555
C16 O2 1_555 1_555
C17 C15 1_555 1_555
H11 C17 1_555 1_555
H12 C17 1_555 1_555
C18 C7 1_555 1_555
H13 C18 1_555 1_555
C19 C14 1_555 1_555
C20 C16 1_555 1_555
H14 C20 1_555 1_555
H15 C20 1_555 1_555
H16 C20 1_555 1_555
O3 C39 1_555 1_555
O4 C33 1_555 1_555
C21 C22 1_555 1_555
C22 H17 1_555 1_555
C23 C22 1_555 1_555
H18 C23 1_555 1_555
C24 C23 1_555 1_555
H19 C24 1_555 1_555
C25 C24 1_555 1_555
H20 C25 1_555 1_555
C26 C21 1_555 1_555
H21 C26 1_555 1_555
C27 C28 1_555 1_555
C28 H22 1_555 1_555
C29 C28 1_555 1_555
H23 C29 1_555 1_555
C30 C29 1_555 1_555
H24 C30 1_555 1_555
C31 C30 1_555 1_555
H25 C31 1_555 1_555
C32 C27 1_555 1_555
H26 C32 1_555 1_555
C33 C27 1_555 1_555
C34 C33 1_555 1_555
C35 C34 1_555 1_555
C36 O4 1_555 1_555
C37 C35 1_555 1_555
H27 C37 1_555 1_555
H28 C37 1_555 1_555
C38 C21 1_555 1_555
H29 C38 1_555 1_555
C39 C34 1_555 1_555
C40 C36 1_555 1_555
H30 C40 1_555 1_555
H31 C40 1_555 1_555
H32 C40 1_555 1_555
C5 C6 1_555 1_555
C11 C12 1_555 1_555
C15 C16 1_555 1_555
C17 C18 1_555 1_555
C18 C19 1_555 1_555
C25 C26 1_555 1_555
C31 C32 1_555 1_555
C35 C36 1_555 1_555
C37 C38 1_555 1_555
C38 C39 1_555 1_555

#END
