
#######################################################################
#
#                 Cambridge Crystallographic Data Centre
#                                CCDC 
#
#######################################################################
#
# If this CIF has been generated from an entry in the Cambridge 
# Structural Database, then it will include bibliographic, chemical, 
# crystal, experimental, refinement or atomic coordinate data resulting 
# from the CCDC's data processing and validation procedures.
#
#######################################################################

data_DUDWUV
_chemical_formula_moiety         'C27 H20 O3'
_chemical_name_systematic        
6-Benzoyl-1-methyl-3,5-diphenyl-5,6-dihydro-4H-cyclopenta[c]furan-4-one
_symmetry_cell_setting           triclinic
_symmetry_space_group_name_H-M   'P -1'
_symmetry_Int_Tables_number      2
_space_group_name_Hall           '-P 1'
loop_
_symmetry_equiv_pos_site_id
_symmetry_equiv_pos_as_xyz
1 x,y,z
2 -x,-y,-z
_cell_length_a                   8.3671(3)
_cell_length_b                   10.0366(4)
_cell_length_c                   13.2986(5)
_cell_angle_alpha                72.260(2)
_cell_angle_beta                 78.058(2)
_cell_angle_gamma                73.230(2)
_cell_volume                     1009.73
_exptl_crystal_colour            yellow
_exptl_crystal_description       block
_cell_formula_units_Z            2
loop_
_atom_site_label
_atom_site_type_symbol
_atom_site_fract_x
_atom_site_fract_y
_atom_site_fract_z
O1 O 0.28163(16) 0.65909(14) 0.08893(10)
O2 O 0.24683(12) 0.44268(10) 0.47784(7)
O3 O 0.08830(18) 0.92182(12) 0.33649(12)
C1 C 0.16512(17) 0.46637(16) 0.10271(11)
C2 C 0.2824(2) 0.42341(19) 0.02054(12)
H1 H 0.3636 0.4748 -0.0135
C3 C 0.2789(2) 0.3056(2) -0.01053(14)
H2 H 0.3571 0.2782 -0.0658
C4 C 0.1605(2) 0.2283(2) 0.03981(15)
H3 H 0.1597 0.1479 0.0192
C5 C 0.0436(2) 0.26937(19) 0.12032(15)
H4 H -0.0367 0.2170 0.1542
C6 C 0.04468(19) 0.38838(17) 0.15128(12)
H5 H -0.0361 0.4166 0.2053
C7 C 0.17501(18) 0.59330(16) 0.13423(11)
C8 C 0.05425(17) 0.63801(14) 0.22824(11)
H6 H -0.0536 0.6146 0.2334
C9 C 0.13058(16) 0.56240(14) 0.33086(10)
C10 C 0.15277(16) 0.66231(14) 0.37996(11)
C11 C 0.09114(19) 0.80973(16) 0.31845(13)
C12 C 0.02496(18) 0.80082(15) 0.22171(12)
H7 H 0.0926 0.8442 0.1571
C13 C -0.15693(18) 0.88338(14) 0.21677(11)
C14 C -0.2803(2) 0.84303(17) 0.29799(13)
H8 H -0.2499 0.7676 0.3571
C15 C -0.4480(2) 0.91281(19) 0.29281(15)
H9 H -0.5296 0.8841 0.3480
C16 C -0.4940(2) 1.02438(19) 0.20618(16)
H10 H -0.6071 1.0699 0.2016
C17 C -0.3735(2) 1.06846(18) 0.12665(14)
H11 H -0.4045 1.1456 0.0686
C18 C -0.2056(2) 0.99898(15) 0.13197(12)
H12 H -0.1244 1.0306 0.0777
C19 C 0.22467(16) 0.58524(14) 0.47043(11)
C20 C 0.18915(17) 0.42854(14) 0.39176(10)
C21 C 0.27776(17) 0.61857(16) 0.55560(11)
C22 C 0.36671(18) 0.50971(17) 0.63168(12)
H13 H 0.3937 0.4148 0.6274
C23 C 0.4152(2) 0.5408(2) 0.71307(13)
H14 H 0.4746 0.4670 0.7633
C24 C 0.3763(2) 0.6798(2) 0.72034(15)
H15 H 0.4084 0.7004 0.7758
C25 C 0.2898(2) 0.7890(2) 0.64576(16)
H16 H 0.2642 0.8835 0.6508
C26 C 0.2398(2) 0.76002(18) 0.56260(14)
H17 H 0.1815 0.8346 0.5122
C27 C 0.2081(2) 0.27758(15) 0.39135(12)
H18 H 0.1650 0.2763 0.3302
H19 H 0.1465 0.2304 0.4549
H20 H 0.3250 0.2280 0.3886
loop_
_geom_bond_atom_site_label_1
_geom_bond_atom_site_label_2
_geom_bond_site_symmetry_1
_geom_bond_site_symmetry_2
O1 C7 1_555 1_555
O2 C19 1_555 1_555
O3 C11 1_555 1_555
C1 C2 1_555 1_555
C2 H1 1_555 1_555
C3 C2 1_555 1_555
H2 C3 1_555 1_555
C4 C3 1_555 1_555
H3 C4 1_555 1_555
C5 C4 1_555 1_555
H4 C5 1_555 1_555
C6 C1 1_555 1_555
H5 C6 1_555 1_555
C7 C1 1_555 1_555
C8 C7 1_555 1_555
H6 C8 1_555 1_555
C9 C8 1_555 1_555
C10 C9 1_555 1_555
C11 C10 1_555 1_555
C12 C8 1_555 1_555
H7 C12 1_555 1_555
C13 C12 1_555 1_555
C14 C13 1_555 1_555
H8 C14 1_555 1_555
C15 C14 1_555 1_555
H9 C15 1_555 1_555
C16 C15 1_555 1_555
H10 C16 1_555 1_555
C17 C16 1_555 1_555
H11 C17 1_555 1_555
C18 C13 1_555 1_555
H12 C18 1_555 1_555
C19 C10 1_555 1_555
C20 O2 1_555 1_555
C21 C19 1_555 1_555
C22 C21 1_555 1_555
H13 C22 1_555 1_555
C23 C22 1_555 1_555
H14 C23 1_555 1_555
C24 C23 1_555 1_555
H15 C24 1_555 1_555
C25 C24 1_555 1_555
H16 C25 1_555 1_555
C26 C21 1_555 1_555
H17 C26 1_555 1_555
C27 C20 1_555 1_555
H18 C27 1_555 1_555
H19 C27 1_555 1_555
H20 C27 1_555 1_555
C5 C6 1_555 1_555
C9 C20 1_555 1_555
C11 C12 1_555 1_555
C17 C18 1_555 1_555
C25 C26 1_555 1_555

#END
