
#######################################################################
#
#                 Cambridge Crystallographic Data Centre
#                                CCDC 
#
#######################################################################
#
# If this CIF has been generated from an entry in the Cambridge 
# Structural Database, then it will include bibliographic, chemical, 
# crystal, experimental, refinement or atomic coordinate data resulting 
# from the CCDC's data processing and validation procedures.
#
#######################################################################

data_DUDXIL
_chemical_formula_moiety         'C14 H15 N3 O2'
_chemical_name_systematic        4-(azidomethyl)-6-t-butyl-2H-chromen-2-one
_symmetry_cell_setting           monoclinic
_symmetry_space_group_name_H-M   'P 21/c'
_symmetry_Int_Tables_number      14
_space_group_name_Hall           '-P 2ybc'
loop_
_symmetry_equiv_pos_site_id
_symmetry_equiv_pos_as_xyz
1 x,y,z
2 -x,1/2+y,1/2-z
3 -x,-y,-z
4 x,1/2-y,1/2+z
_cell_length_a                   10.6816(7)
_cell_length_b                   11.1416(8)
_cell_length_c                   11.5409(8)
_cell_angle_alpha                90
_cell_angle_beta                 100.674(4)
_cell_angle_gamma                90
_cell_volume                     1349.72
_exptl_crystal_colour            'pale yellow'
_exptl_crystal_description       block
_cell_formula_units_Z            4
loop_
_atom_site_label
_atom_site_type_symbol
_atom_site_fract_x
_atom_site_fract_y
_atom_site_fract_z
O1 O 0.59056(12) 0.02266(11) 0.31873(10)
O2 O 0.43714(15) 0.00517(14) 0.16423(12)
N1 N 0.32064(15) -0.31631(13) 0.42079(19)
N2 N 0.29968(12) -0.42384(13) 0.41655(12)
N3 N 0.26741(17) -0.51960(15) 0.40562(16)
C1 C 0.79791(14) -0.09815(13) 0.63907(13)
C2 C 0.68585(13) -0.15469(12) 0.58820(12)
C3 C 0.61248(13) -0.11775(12) 0.48071(12)
C4 C 0.49582(14) -0.17576(13) 0.42299(13)
C5 C 0.43662(16) -0.13424(15) 0.31759(14)
C6 C 0.48347(19) -0.03397(17) 0.26019(15)
C7 C 0.65570(15) -0.01975(13) 0.42495(13)
C8 C 0.76681(17) 0.03930(15) 0.47367(16)
C9 C 0.83629(16) -0.00013(14) 0.57861(16)
C10 C 0.88114(15) -0.14115(14) 0.75389(14)
C11 C 0.9105(3) -0.0370(2) 0.8404(2)
C12 C 1.0051(2) -0.1916(3) 0.7259(2)
C13 C 0.8160(2) -0.2375(2) 0.81437(18)
C14 C 0.44697(15) -0.27965(14) 0.48332(16)
H1 H 0.65810 -0.21990 0.62690
H2 H 0.36230 -0.17200 0.28040
H3 H 0.79420 0.10520 0.43560
H4 H 0.91130 0.03960 0.61060
H5 H 0.83230 -0.00230 0.85410
H6 H 0.95900 0.02280 0.80810
H7 H 0.95890 -0.06580 0.91360
H8 H 1.05700 -0.22160 0.79690
H9 H 1.05020 -0.12930 0.69340
H10 H 0.98610 -0.25570 0.66980
H11 H 0.73560 -0.20790 0.82820
H12 H 0.86890 -0.25830 0.88820
H13 H 0.80210 -0.30740 0.76490
H14 H 0.50560 -0.34650 0.48640
H15 H 0.44200 -0.25750 0.56360
loop_
_geom_bond_atom_site_label_1
_geom_bond_atom_site_label_2
_geom_bond_site_symmetry_1
_geom_bond_site_symmetry_2
O1 C6 1_555 1_555
O2 C6 1_555 1_555
N1 N2 1_555 1_555
N2 N3 1_555 1_555
C1 C2 1_555 1_555
C2 C3 1_555 1_555
C3 C4 1_555 1_555
C4 C5 1_555 1_555
C5 C6 1_555 1_555
C7 O1 1_555 1_555
C8 C7 1_555 1_555
C9 C1 1_555 1_555
C10 C1 1_555 1_555
C11 C10 1_555 1_555
C12 C10 1_555 1_555
C13 C10 1_555 1_555
C14 N1 1_555 1_555
H1 C2 1_555 1_555
H2 C5 1_555 1_555
H3 C8 1_555 1_555
H4 C9 1_555 1_555
H5 C11 1_555 1_555
H6 C11 1_555 1_555
H7 C11 1_555 1_555
H8 C12 1_555 1_555
H9 C12 1_555 1_555
H10 C12 1_555 1_555
H11 C13 1_555 1_555
H12 C13 1_555 1_555
H13 C13 1_555 1_555
H14 C14 1_555 1_555
H15 C14 1_555 1_555
C3 C7 1_555 1_555
C4 C14 1_555 1_555
C8 C9 1_555 1_555

#END
