
#######################################################################
#
#                 Cambridge Crystallographic Data Centre
#                                CCDC 
#
#######################################################################
#
# If this CIF has been generated from an entry in the Cambridge 
# Structural Database, then it will include bibliographic, chemical, 
# crystal, experimental, refinement or atomic coordinate data resulting 
# from the CCDC's data processing and validation procedures.
#
#######################################################################

data_DUGNUQ
_chemical_formula_moiety         'C19 H18 N2 O2'
_chemical_name_systematic        3,4-bis(4-methoxyphenyl)-6-methylpyridazine
_symmetry_cell_setting           triclinic
_symmetry_space_group_name_H-M   'P -1'
_symmetry_Int_Tables_number      2
_space_group_name_Hall           '-P 1'
loop_
_symmetry_equiv_pos_site_id
_symmetry_equiv_pos_as_xyz
1 x,y,z
2 -x,-y,-z
_cell_length_a                   9.7886(6)
_cell_length_b                   11.7178(7)
_cell_length_c                   14.1885(8)
_cell_angle_alpha                83.246(3)
_cell_angle_beta                 82.337(3)
_cell_angle_gamma                82.341(3)
_cell_volume                     1590.23
_exptl_crystal_colour            colorless
_exptl_crystal_description       Tabullar
_cell_formula_units_Z            4
loop_
_atom_site_label
_atom_site_type_symbol
_atom_site_fract_x
_atom_site_fract_y
_atom_site_fract_z
O1 O 0.54881(19) 0.39193(16) -0.17130(13)
O2 O 0.4555(2) -0.14551(17) 0.21932(13)
N1 N 0.0617(2) 0.4783(2) 0.15239(16)
N2 N -0.0283(2) 0.5041(2) 0.22965(16)
C1 C 0.6920(3) 0.3556(3) -0.1615(2)
H1 H 0.7211 0.3975 -0.1132
H2 H 0.7482 0.3722 -0.2229
H3 H 0.7050 0.2723 -0.1418
C2 C 0.4568(3) 0.3797(2) -0.09017(18)
C3 C 0.3170(3) 0.4120(2) -0.10126(19)
H4 H 0.2901 0.4350 -0.1632
C4 C 0.2179(3) 0.4108(2) -0.02259(18)
H5 H 0.1234 0.4360 -0.0307
C5 C 0.2540(3) 0.3731(2) 0.06880(19)
C6 C 0.1498(3) 0.3815(2) 0.15462(19)
C7 C 0.1476(3) 0.2973(2) 0.23603(19)
C8 C 0.2294(3) 0.1805(2) 0.23411(18)
C9 C 0.3081(3) 0.1338(2) 0.30769(19)
H6 H 0.3089 0.1772 0.3601
C10 C 0.3851(3) 0.0256(2) 0.30614(19)
H7 H 0.4383 -0.0045 0.3568
C11 C 0.3838(3) -0.0383(2) 0.2297(2)
C12 C 0.5459(3) -0.1939(3) 0.2890(2)
H8 H 0.6160 -0.1420 0.2906
H9 H 0.5918 -0.2695 0.2719
H10 H 0.4916 -0.2033 0.3520
C13 C 0.2273(3) 0.1139(2) 0.1588(2)
H11 H 0.1728 0.1431 0.1087
C14 C 0.3036(3) 0.0065(2) 0.1567(2)
H12 H 0.3016 -0.0375 0.1049
C15 C -0.0246(3) 0.4337(2) 0.31062(19)
C16 C 0.0608(3) 0.3295(2) 0.31536(19)
H13 H 0.0593 0.2802 0.3735
C17 C -0.1241(3) 0.4729(3) 0.3938(2)
H14 H -0.1460 0.5573 0.3852
H15 H -0.0815 0.4504 0.4530
H16 H -0.2095 0.4367 0.3976
C18 C 0.4953(3) 0.3391(2) 0.00006(19)
H17 H 0.5898 0.3138 0.0079
C19 C 0.3940(3) 0.3362(2) 0.07788(19)
H18 H 0.4202 0.3084 0.1393
O3 O -0.0460(2) 1.23996(16) 0.57031(14)
O4 O 0.0614(2) 0.87363(16) 1.06984(13)
N3 N 0.4236(2) 0.8206(2) 0.54679(16)
N4 N 0.5110(2) 0.7220(2) 0.54175(16)
C20 C -0.1913(3) 1.2324(3) 0.5961(2)
H19 H -0.2180 1.1688 0.5661
H20 H -0.2444 1.3053 0.5740
H21 H -0.2108 1.2179 0.6657
C21 C 0.0433(3) 1.1411(2) 0.58848(19)
C22 C 0.1818(3) 1.1466(2) 0.55586(19)
H22 H 0.2110 1.2171 0.5250
C23 C 0.2781(3) 1.0502(2) 0.56776(18)
H23 H 0.3725 1.0540 0.5424
C24 C 0.2378(3) 0.9467(2) 0.61691(18)
C25 C 0.3383(3) 0.8407(2) 0.62622(18)
C26 C 0.3409(3) 0.7639(2) 0.71108(18)
C27 C 0.2627(3) 0.7913(2) 0.80489(18)
C28 C 0.1858(3) 0.7115(2) 0.86100(19)
H24 H 0.1806 0.6393 0.8384
C29 C 0.1160(3) 0.7356(2) 0.95001(19)
H25 H 0.0629 0.6807 0.9875
C30 C 0.1249(3) 0.8407(2) 0.98333(18)
C31 C -0.0284(3) 0.7979(3) 1.1265(2)
H26 H -0.1021 0.7855 1.0897
H27 H -0.0698 0.8329 1.1847
H28 H 0.0254 0.7234 1.1439
C32 C 0.5084(3) 0.6415(2) 0.61696(19)
C33 C 0.6036(3) 0.5317(3) 0.6044(2)
H29 H 0.6242 0.5215 0.5362
H30 H 0.5587 0.4660 0.6380
H31 H 0.6901 0.5358 0.6309
C34 C 0.4259(3) 0.6605(2) 0.70311(19)
H32 H 0.4280 0.6027 0.7560
C35 C 0.0003(3) 1.0387(2) 0.63717(19)
H33 H -0.0948 1.0340 0.6598
C36 C 0.0991(3) 0.9443(2) 0.65166(19)
H34 H 0.0708 0.8755 0.6867
C37 C 0.2704(3) 0.8967(2) 0.83961(19)
H35 H 0.3229 0.9521 0.8022
C38 C 0.2020(3) 0.9212(2) 0.92828(19)
H36 H 0.2078 0.9931 0.9514
loop_
_geom_bond_atom_site_label_1
_geom_bond_atom_site_label_2
_geom_bond_site_symmetry_1
_geom_bond_site_symmetry_2
O1 C1 1_555 1_555
O2 C11 1_555 1_555
N1 N2 1_555 1_555
N2 C15 1_555 1_555
C1 H1 1_555 1_555
H2 C1 1_555 1_555
H3 C1 1_555 1_555
C2 O1 1_555 1_555
C3 C2 1_555 1_555
H4 C3 1_555 1_555
C4 C3 1_555 1_555
H5 C4 1_555 1_555
C5 C4 1_555 1_555
C6 N1 1_555 1_555
C7 C6 1_555 1_555
C8 C7 1_555 1_555
C9 C8 1_555 1_555
H6 C9 1_555 1_555
C10 C9 1_555 1_555
H7 C10 1_555 1_555
C11 C10 1_555 1_555
C12 O2 1_555 1_555
H8 C12 1_555 1_555
H9 C12 1_555 1_555
H10 C12 1_555 1_555
C13 C8 1_555 1_555
H11 C13 1_555 1_555
C14 C11 1_555 1_555
H12 C14 1_555 1_555
C15 C16 1_555 1_555
C16 C7 1_555 1_555
H13 C16 1_555 1_555
C17 C15 1_555 1_555
H14 C17 1_555 1_555
H15 C17 1_555 1_555
H16 C17 1_555 1_555
C18 C2 1_555 1_555
H17 C18 1_555 1_555
C19 C5 1_555 1_555
H18 C19 1_555 1_555
O3 C20 1_555 1_555
O4 C30 1_555 1_555
N3 N4 1_555 1_555
N4 C32 1_555 1_555
C20 H19 1_555 1_555
H20 C20 1_555 1_555
H21 C20 1_555 1_555
C21 O3 1_555 1_555
C22 C21 1_555 1_555
H22 C22 1_555 1_555
C23 C22 1_555 1_555
H23 C23 1_555 1_555
C24 C23 1_555 1_555
C25 N3 1_555 1_555
C26 C25 1_555 1_555
C27 C26 1_555 1_555
C28 C27 1_555 1_555
H24 C28 1_555 1_555
C29 C28 1_555 1_555
H25 C29 1_555 1_555
C30 C29 1_555 1_555
C31 O4 1_555 1_555
H26 C31 1_555 1_555
H27 C31 1_555 1_555
H28 C31 1_555 1_555
C32 C33 1_555 1_555
C33 H29 1_555 1_555
H30 C33 1_555 1_555
H31 C33 1_555 1_555
C34 C26 1_555 1_555
H32 C34 1_555 1_555
C35 C21 1_555 1_555
H33 C35 1_555 1_555
C36 C24 1_555 1_555
H34 C36 1_555 1_555
C37 C27 1_555 1_555
H35 C37 1_555 1_555
C38 C30 1_555 1_555
H36 C38 1_555 1_555
C5 C6 1_555 1_555
C13 C14 1_555 1_555
C18 C19 1_555 1_555
C24 C25 1_555 1_555
C32 C34 1_555 1_555
C35 C36 1_555 1_555
C37 C38 1_555 1_555

#END
