
#######################################################################
#
#                 Cambridge Crystallographic Data Centre
#                                CCDC 
#
#######################################################################
#
# If this CIF has been generated from an entry in the Cambridge 
# Structural Database, then it will include bibliographic, chemical, 
# crystal, experimental, refinement or atomic coordinate data resulting 
# from the CCDC's data processing and validation procedures.
#
#######################################################################

data_DUGVAE
_chemical_formula_moiety         'C25 H32 N3 O3 P1 S1,2(C1 H2 Cl2)'
_chemical_name_systematic        
'3-(2-(diphenylphosphino)-3-(2-(piperidin-1-yl)ethyl)-1H-imidazol-3-ium-1-yl)propane-1-sulfonate dichloromethane solvate'
_symmetry_cell_setting           monoclinic
_symmetry_space_group_name_H-M   'P 21/c'
_symmetry_Int_Tables_number      14
_space_group_name_Hall           '-P 2ybc'
loop_
_symmetry_equiv_pos_site_id
_symmetry_equiv_pos_as_xyz
1 x,y,z
2 -x,1/2+y,1/2-z
3 -x,-y,-z
4 x,1/2-y,1/2+z
_cell_length_a                   11.9331(11)
_cell_length_b                   31.431(3)
_cell_length_c                   8.5828(8)
_cell_angle_alpha                90
_cell_angle_beta                 101.486(3)
_cell_angle_gamma                90
_cell_volume                     3154.68
_exptl_crystal_colour            colorless
_exptl_crystal_description       block
_cell_formula_units_Z            4
loop_
_atom_site_label
_atom_site_type_symbol
_atom_site_fract_x
_atom_site_fract_y
_atom_site_fract_z
S1 S 0.62308(16) -0.06894(7) 2.0438(2)
P1 P 0.87271(16) 0.05852(7) 1.5518(2)
O1 O 0.6374(5) -0.10063(18) 1.9270(6)
O2 O 0.5049(4) -0.05690(19) 2.0324(6)
O3 O 0.6787(5) -0.0803(2) 2.2050(6)
N1 N 0.6524(5) 0.0539(2) 1.6448(7)
N2 N 0.6467(5) 0.0768(2) 1.4070(7)
N3 N 0.7516(6) 0.1616(2) 1.3706(7)
C1 C 0.9246(6) 0.0941(2) 1.7196(8)
C2 C 1.0429(7) 0.0968(3) 1.7739(8)
H1 H 1.0923 0.0778 1.7342
C3 C 1.0885(7) 0.1274(3) 1.8858(9)
H2 H 1.1689 0.1293 1.9219
C4 C 1.0173(8) 0.1546(3) 1.9438(9)
H3 H 1.0484 0.1751 2.0217
C5 C 0.8998(7) 0.1524(3) 1.8895(9)
H4 H 0.8510 0.1720 1.9278
C6 C 0.8545(6) 0.1223(2) 1.7813(8)
H5 H 0.7739 0.1205 1.7473
C7 C 0.8900(6) 0.0039(2) 1.6265(8)
C8 C 0.8330(6) -0.0274(3) 1.5258(9)
H6 H 0.7896 -0.0196 1.4247
C9 C 0.8389(7) -0.0695(3) 1.5710(9)
H7 H 0.7969 -0.0903 1.5031
C10 C 0.9053(7) -0.0816(3) 1.7142(9)
H8 H 0.9082 -0.1106 1.7455
C11 C 0.9685(7) -0.0511(3) 1.8133(9)
H9 H 1.0169 -0.0595 1.9101
C12 C 0.9602(6) -0.0086(3) 1.7701(8)
H10 H 1.0024 0.0121 1.8380
C13 C 0.8652(8) 0.1636(3) 1.3273(11)
H11 H 0.8592 0.1794 1.2262
H12 H 0.8917 0.1344 1.3107
C14 C 0.9519(9) 0.1854(3) 1.4559(12)
H13 H 0.9626 0.1685 1.5551
H14 H 1.0264 0.1872 1.4224
C15 C 0.9111(9) 0.2290(3) 1.4855(11)
H15 H 0.9656 0.2423 1.5743
H16 H 0.9088 0.2467 1.3896
C16 C 0.7955(9) 0.2279(3) 1.5252(12)
H17 H 0.7681 0.2573 1.5348
H18 H 0.7996 0.2135 1.6288
C17 C 0.7122(8) 0.2045(3) 1.3979(10)
H19 H 0.6372 0.2026 1.4300
H20 H 0.7017 0.2208 1.2975
C18 C 0.6701(7) 0.1401(3) 1.2489(9)
H21 H 0.6825 0.1492 1.1431
H22 H 0.5918 0.1488 1.2576
C19 C 0.6792(8) 0.0923(3) 1.2607(8)
H23 H 0.6287 0.0793 1.1674
H24 H 0.7588 0.0835 1.2598
C20 C 0.5365(6) 0.0771(3) 1.4306(9)
H25 H 0.4703 0.0857 1.3562
C21 C 0.5402(7) 0.0628(3) 1.5818(10)
H26 H 0.4772 0.0597 1.6333
C22 C 0.7188(6) 0.0629(2) 1.5384(8)
C23 C 0.6939(6) 0.0382(2) 1.8087(8)
H27 H 0.6677 0.0575 1.8851
H28 H 0.7786 0.0380 1.8326
C24 C 0.6496(6) -0.0067(3) 1.8282(8)
H29 H 0.6756 -0.0262 1.7520
H30 H 0.5649 -0.0066 1.8053
C25 C 0.6941(6) -0.0222(3) 1.9981(8)
H31 H 0.6838 0.0006 2.0735
H32 H 0.7771 -0.0281 2.0124
Cl1 Cl 0.5781(3) 0.17449(13) 0.7602(5)
C26 C 0.4617(11) 0.1807(4) 0.8532(16)
H33 H 0.4502 0.1543 0.9108
H34 H 0.3916 0.1860 0.7721
Cl2 Cl 0.4854(3) 0.22379(11) 0.9883(4)
C27 C 1.3195(13) 0.1901(5) 1.2637(16)
H35 H 1.3042 0.1674 1.1825
H36 H 1.3972 0.2014 1.2652
Cl3 Cl 1.2203(4) 0.23086(15) 1.2112(6)
Cl4 Cl 1.3145(5) 0.16926(15) 1.4444(5)
loop_
_geom_bond_atom_site_label_1
_geom_bond_atom_site_label_2
_geom_bond_site_symmetry_1
_geom_bond_site_symmetry_2
S1 O1 1_555 1_555
P1 C1 1_555 1_555
O2 S1 1_555 1_555
O3 S1 1_555 1_555
N1 C21 1_555 1_555
N2 C19 1_555 1_555
N3 C13 1_555 1_555
C1 C2 1_555 1_555
C2 H1 1_555 1_555
C3 C2 1_555 1_555
H2 C3 1_555 1_555
C4 C3 1_555 1_555
H3 C4 1_555 1_555
C5 C4 1_555 1_555
H4 C5 1_555 1_555
C6 C1 1_555 1_555
H5 C6 1_555 1_555
C7 P1 1_555 1_555
C8 C7 1_555 1_555
H6 C8 1_555 1_555
C9 C8 1_555 1_555
H7 C9 1_555 1_555
C10 C9 1_555 1_555
H8 C10 1_555 1_555
C11 C10 1_555 1_555
H9 C11 1_555 1_555
C12 C7 1_555 1_555
H10 C12 1_555 1_555
C13 H11 1_555 1_555
H12 C13 1_555 1_555
C14 C13 1_555 1_555
H13 C14 1_555 1_555
H14 C14 1_555 1_555
C15 C14 1_555 1_555
H15 C15 1_555 1_555
H16 C15 1_555 1_555
C16 C15 1_555 1_555
H17 C16 1_555 1_555
H18 C16 1_555 1_555
C17 N3 1_555 1_555
H19 C17 1_555 1_555
H20 C17 1_555 1_555
C18 N3 1_555 1_555
H21 C18 1_555 1_555
H22 C18 1_555 1_555
C19 C18 1_555 1_555
H23 C19 1_555 1_555
H24 C19 1_555 1_555
C20 N2 1_555 1_555
H25 C20 1_555 1_555
C21 C20 1_555 1_555
H26 C21 1_555 1_555
C22 P1 1_555 1_555
C23 N1 1_555 1_555
H27 C23 1_555 1_555
H28 C23 1_555 1_555
C24 C23 1_555 1_555
H29 C24 1_555 1_555
H30 C24 1_555 1_555
C25 S1 1_555 1_555
H31 C25 1_555 1_555
H32 C25 1_555 1_555
Cl1 C26 1_555 1_555
C26 H33 1_555 1_555
H34 C26 1_555 1_555
Cl2 C26 1_555 1_555
C27 H35 1_555 1_555
H36 C27 1_555 1_555
Cl3 C27 1_555 1_555
Cl4 C27 1_555 1_555
N1 C22 1_555 1_555
N2 C22 1_555 1_555
C5 C6 1_555 1_555
C11 C12 1_555 1_555
C16 C17 1_555 1_555
C24 C25 1_555 1_555

#END
