
#######################################################################
#
#                 Cambridge Crystallographic Data Centre
#                                CCDC 
#
#######################################################################
#
# If this CIF has been generated from an entry in the Cambridge 
# Structural Database, then it will include bibliographic, chemical, 
# crystal, experimental, refinement or atomic coordinate data resulting 
# from the CCDC's data processing and validation procedures.
#
#######################################################################

data_DUHXOU
_chemical_formula_moiety         'C14 H16 N2 O2 S1'
_chemical_name_systematic        
5-Acetyl-4-(4-methoxyphenyl)-6-methyl-3,4-dihydropyrimidine-2(1H)-thione
_symmetry_cell_setting           monoclinic
_symmetry_space_group_name_H-M   'P 21/n'
_symmetry_Int_Tables_number      14
_space_group_name_Hall           '-P 2yn'
loop_
_symmetry_equiv_pos_site_id
_symmetry_equiv_pos_as_xyz
1 x,y,z
2 1/2-x,1/2+y,1/2-z
3 -x,-y,-z
4 1/2+x,1/2-y,1/2+z
_cell_length_a                   12.0415(2)
_cell_length_b                   6.22190(10)
_cell_length_c                   18.0192(3)
_cell_angle_alpha                90
_cell_angle_beta                 100.9010(10)
_cell_angle_gamma                90
_cell_volume                     1325.66
_exptl_crystal_colour            colorless
_exptl_crystal_description       needle
_chemical_melting_point          '469.5 K'
_cell_formula_units_Z            4
_exptl_crystal_recrystallization_method ethanol
loop_
_atom_site_label
_atom_site_type_symbol
_atom_site_fract_x
_atom_site_fract_y
_atom_site_fract_z
S1 S 0.88945(3) 0.40406(6) 0.57843(2)
O1 O 0.29443(9) 0.06284(18) 0.34383(6)
O2 O 0.74168(10) -0.43229(18) 0.35876(6)
N1 N 0.90803(10) 0.2225(2) 0.44765(7)
N2 N 0.80719(10) 0.0321(2) 0.52096(7)
C1 C 0.86586(11) 0.2080(2) 0.51219(8)
C2 C 0.75819(12) -0.1161(2) 0.45957(8)
C3 C 0.82669(12) -0.1056(2) 0.39675(8)
C4 C 0.89493(12) 0.0647(2) 0.39170(8)
C5 C 0.26371(13) 0.2480(3) 0.29726(9)
C6 C 0.80594(12) -0.2907(2) 0.34489(8)
C7 C 0.85846(12) -0.3124(2) 0.27577(8)
C8 C 0.63430(12) -0.0628(2) 0.43028(8)
C9 C 0.60296(12) 0.1390(3) 0.40073(8)
C10 C 0.49062(12) 0.1883(2) 0.37094(8)
C11 C 0.40836(12) 0.0309(3) 0.37140(8)
C12 C 0.43784(12) -0.1707(3) 0.40213(8)
C13 C 0.55023(12) -0.2172(2) 0.43155(8)
C14 C 0.96218(13) 0.1116(2) 0.33106(8)
H1 H 0.9539(17) 0.328(3) 0.4448(11)
H2 H 0.7815(18) 0.021(4) 0.5615(12)
H3 H 0.76299 -0.26565 0.48025
H4 H 0.30923 0.25272 0.25759
H5 H 0.18337 0.23987 0.27404
H6 H 0.27750 0.37814 0.32827
H7 H 0.83989 -0.45371 0.25270
H8 H 0.82891 -0.19969 0.23937
H9 H 0.94075 -0.29797 0.29024
H10 H 0.65940 0.24570 0.40083
H11 H 0.47036 0.32683 0.35065
H12 H 0.38117 -0.27642 0.40300
H13 H 0.57023 -0.35485 0.45271
H14 H 0.91214 0.10624 0.28142
H15 H 0.99595 0.25503 0.33916
H16 H 1.02218 0.00414 0.33314
loop_
_geom_bond_atom_site_label_1
_geom_bond_atom_site_label_2
_geom_bond_site_symmetry_1
_geom_bond_site_symmetry_2
S1 C1 1_555 1_555
O1 C5 1_555 1_555
O2 C6 1_555 1_555
N1 C1 1_555 1_555
N2 C1 1_555 1_555
C2 N2 1_555 1_555
C3 C2 1_555 1_555
C4 N1 1_555 1_555
C5 H4 1_555 1_555
C6 C3 1_555 1_555
C7 C6 1_555 1_555
C8 C2 1_555 1_555
C9 C8 1_555 1_555
C10 C9 1_555 1_555
C11 O1 1_555 1_555
C12 C11 1_555 1_555
C13 C8 1_555 1_555
C14 C4 1_555 1_555
H1 N1 1_555 1_555
H2 N2 1_555 1_555
H3 C2 1_555 1_555
H5 C5 1_555 1_555
H6 C5 1_555 1_555
H7 C7 1_555 1_555
H8 C7 1_555 1_555
H9 C7 1_555 1_555
H10 C9 1_555 1_555
H11 C10 1_555 1_555
H12 C12 1_555 1_555
H13 C13 1_555 1_555
H14 C14 1_555 1_555
H15 C14 1_555 1_555
H16 C14 1_555 1_555
C3 C4 1_555 1_555
C10 C11 1_555 1_555
C12 C13 1_555 1_555

#END
