
#######################################################################
#
#                 Cambridge Crystallographic Data Centre
#                                CCDC 
#
#######################################################################
#
# If this CIF has been generated from an entry in the Cambridge 
# Structural Database, then it will include bibliographic, chemical, 
# crystal, experimental, refinement or atomic coordinate data resulting 
# from the CCDC's data processing and validation procedures.
#
#######################################################################

data_DUJDUI
_chemical_formula_moiety         'C27 H23 N3'
_chemical_name_systematic        
2-(1-Propyl-2,6-distyryl-1,4-dihydropyridin-4-ylidene)malononitrile
_symmetry_cell_setting           monoclinic
_symmetry_space_group_name_H-M   'P 21/c'
_symmetry_Int_Tables_number      14
_space_group_name_Hall           '-P 2ybc'
loop_
_symmetry_equiv_pos_site_id
_symmetry_equiv_pos_as_xyz
1 x,y,z
2 -x,1/2+y,1/2-z
3 -x,-y,-z
4 x,1/2-y,1/2+z
_cell_length_a                   16.586(2)
_cell_length_b                   17.827(2)
_cell_length_c                   7.4543(9)
_cell_angle_alpha                90
_cell_angle_beta                 99.790(3)
_cell_angle_gamma                90
_cell_volume                     2171.98
_exptl_crystal_colour            orange
_exptl_crystal_description       stick
_chemical_melting_point          '252-253 deg.C'
_cell_formula_units_Z            4
_exptl_crystal_recrystallization_method chloroform/ethanol
loop_
_atom_site_label
_atom_site_type_symbol
_atom_site_fract_x
_atom_site_fract_y
_atom_site_fract_z
N1 N 0.35774(14) 0.08906(10) 0.2536(3)
N2 N 0.3616(3) 0.42152(17) 0.2101(5)
N3 N 0.1110(3) 0.3314(2) 0.1271(6)
C1 C 0.4116(2) 0.14869(13) 0.2691(3)
C2 C 0.3815(2) 0.21977(15) 0.2438(4)
H1 H 0.4182 0.2596 0.2518
C3 C 0.2971(3) 0.23522(16) 0.2060(4)
C4 C 0.2452(2) 0.17187(15) 0.1836(4)
H2 H 0.1889 0.1791 0.1539
C5 C 0.27456(19) 0.10081(14) 0.2040(4)
C6 C 0.49940(19) 0.13383(15) 0.3018(4)
H3 H 0.5171 0.0897 0.2545
C7 C 0.5559(2) 0.17842(14) 0.3937(4)
H4 H 0.5369 0.2203 0.4483
C8 C 0.6446(2) 0.16912(15) 0.4189(4)
C9 C 0.6811(2) 0.10774(16) 0.3513(4)
H5 H 0.6487 0.0697 0.2918
C10 C 0.7643(3) 0.1027(2) 0.3714(5)
H6 H 0.7879 0.0614 0.3243
C11 C 0.8137(2) 0.1581(2) 0.4608(5)
H7 H 0.8703 0.1547 0.4722
C12 C 0.7787(3) 0.2177(2) 0.5321(5)
H8 H 0.8116 0.2549 0.5942
C13 C 0.6951(2) 0.22324(18) 0.5128(4)
H9 H 0.6720 0.2639 0.5635
C14 C 0.2655(3) 0.30813(17) 0.1869(4)
C15 C 0.3178(3) 0.3705(2) 0.2000(5)
C16 C 0.1804(4) 0.3210(2) 0.1529(6)
C17 C 0.22033(18) 0.03589(15) 0.1665(4)
H10 H 0.2284 -0.0049 0.2451
C18 C 0.1602(2) 0.03298(17) 0.0248(5)
H11 H 0.1523 0.0759 -0.0471
C19 C 0.1048(2) -0.0295(2) -0.0320(6)
C20 C 0.0541(2) -0.0257(2) -0.1978(6)
H12 H 0.0540 0.0172 -0.2686
C21 C 0.0036(3) -0.0844(3) -0.2604(8)
H13 H -0.0296 -0.0811 -0.3740
C22 C 0.0015(3) -0.1471(3) -0.1589(12)
H14 H -0.0327 -0.1867 -0.2026
C23 C 0.0501(3) -0.1516(3) 0.0085(10)
H15 H 0.0485 -0.1942 0.0800
C24 C 0.1018(2) -0.0927(2) 0.0712(7)
H16 H 0.1348 -0.0960 0.1849
C25 C 0.38929(15) 0.01206(12) 0.2886(3)
H17 H 0.3520 -0.0159 0.3506
H18 H 0.4418 0.0142 0.3687
C26 C 0.39921(16) -0.02907(13) 0.1163(3)
H19 H 0.3472 -0.0299 0.0341
H20 H 0.4382 -0.0024 0.0565
C27 C 0.4281(3) -0.10736(17) 0.1544(5)
H21 H 0.4785 -0.1069 0.2395
H22 H 0.4368 -0.1307 0.0432
H23 H 0.3876 -0.1350 0.2049
loop_
_geom_bond_atom_site_label_1
_geom_bond_atom_site_label_2
_geom_bond_site_symmetry_1
_geom_bond_site_symmetry_2
N1 C1 1_555 1_555
N2 C15 1_555 1_555
N3 C16 1_555 1_555
C1 C2 1_555 1_555
C2 H1 1_555 1_555
C3 C2 1_555 1_555
C4 C3 1_555 1_555
H2 C4 1_555 1_555
C5 N1 1_555 1_555
C6 C1 1_555 1_555
H3 C6 1_555 1_555
C7 C6 1_555 1_555
H4 C7 1_555 1_555
C8 C7 1_555 1_555
C9 C8 1_555 1_555
H5 C9 1_555 1_555
C10 C9 1_555 1_555
H6 C10 1_555 1_555
C11 C10 1_555 1_555
H7 C11 1_555 1_555
C12 C11 1_555 1_555
H8 C12 1_555 1_555
C13 C8 1_555 1_555
H9 C13 1_555 1_555
C14 C3 1_555 1_555
C15 C14 1_555 1_555
C16 C14 1_555 1_555
C17 C5 1_555 1_555
H10 C17 1_555 1_555
C18 C17 1_555 1_555
H11 C18 1_555 1_555
C19 C18 1_555 1_555
C20 C19 1_555 1_555
H12 C20 1_555 1_555
C21 C20 1_555 1_555
H13 C21 1_555 1_555
C22 C21 1_555 1_555
H14 C22 1_555 1_555
C23 C22 1_555 1_555
H15 C23 1_555 1_555
C24 C19 1_555 1_555
H16 C24 1_555 1_555
C25 N1 1_555 1_555
H17 C25 1_555 1_555
H18 C25 1_555 1_555
C26 C25 1_555 1_555
H19 C26 1_555 1_555
H20 C26 1_555 1_555
C27 C26 1_555 1_555
H21 C27 1_555 1_555
H22 C27 1_555 1_555
H23 C27 1_555 1_555
C4 C5 1_555 1_555
C12 C13 1_555 1_555
C23 C24 1_555 1_555

#END
