
#######################################################################
#
#                 Cambridge Crystallographic Data Centre
#                                CCDC 
#
#######################################################################
#
# If this CIF has been generated from an entry in the Cambridge 
# Structural Database, then it will include bibliographic, chemical, 
# crystal, experimental, refinement or atomic coordinate data resulting 
# from the CCDC's data processing and validation procedures.
#
#######################################################################

data_DUJDIV
_chemical_formula_moiety         'C84 H112 Li4 O14 P4'
_chemical_name_systematic        
(\m~2~-1,4-Dioxane-O,O')-bis((bis(\m~2~-diphenylphosphino)-dimethylene)-tris(1,4-dioxane)-di-lithium)
_symmetry_cell_setting           triclinic
_symmetry_space_group_name_H-M   'P -1'
_symmetry_Int_Tables_number      2
_space_group_name_Hall           '-P 1'
loop_
_symmetry_equiv_pos_site_id
_symmetry_equiv_pos_as_xyz
1 x,y,z
2 -x,-y,-z
_cell_length_a                   13.529(3)
_cell_length_b                   14.472(1)
_cell_length_c                   11.771(1)
_cell_angle_alpha                109.017(8)
_cell_angle_beta                 90.05(1)
_cell_angle_gamma                94.009(9)
_cell_volume                     2172.86
_exptl_crystal_colour            'pale yellow'
_cell_formula_units_Z            1
_chemical_properties_physical    Air-sensitive
loop_
_atom_site_label
_atom_site_type_symbol
_atom_site_fract_x
_atom_site_fract_y
_atom_site_fract_z
P1 P 0.7099(1) 0.4502(1) 0.1358(2)
P2 P 0.6601(1) 0.1436(1) 0.2955(2)
O1 O 0.9123(5) 0.2122(5) 0.0265(6)
O2 O 0.9498(4) 0.2799(4) 0.3043(6)
O3 O 0.4047(4) 0.2560(5) 0.1815(6)
O4 O 0.4663(5) 0.4326(5) 0.3901(5)
Li1 Li 0.833(1) 0.265(1) 0.183(1)
C1 C 0.8026(7) 0.4202(6) 0.2111(8)
C2 C 0.6009(7) 0.3803(7) 0.1257(8)
H1 H 0.864(5) 0.463(5) 0.219(5)
H2 H 0.786(4) 0.427(4) 0.292(5)
H3 H 0.550(5) 0.409(5) 0.093(7)
H4 H 0.612(4) 0.322(5) 0.079(6)
Li2 Li 0.5378(9) 0.3260(9) 0.262(1)
C3 C 0.6138(7) 0.2543(7) 0.3656(8)
C4 C 0.7264(7) 0.1423(7) 0.1716(8)
H5 H 0.585(4) 0.251(4) 0.423(6)
H6 H 0.670(4) 0.299(4) 0.397(5)
H7 H 0.743(4) 0.087(4) 0.141(5)
H8 H 0.675(5) 0.154(4) 0.123(5)
C5 C 0.927(2) 0.111(2) -0.027(2)
C6 C 1.015(2) 0.098(2) -0.093(2)
O5 O 0.996(1) 0.141(1) -0.197(1)
C7 C 1.010(2) 0.246(2) -0.127(2)
C8 C 0.928(2) 0.266(2) -0.060(2)
C9 C 1.006(2) 0.200(2) 0.283(3)
C10 C 1.072(3) 0.199(2) 0.365(4)
O6 O 1.083(4) 0.286(4) 0.485(5)
C11 C 1.043(3) 0.360(3) 0.487(3)
C12 C 0.979(3) 0.360(2) 0.399(4)
C13 C 0.350(2) 0.187(2) 0.216(3)
C14 C 0.276(3) 0.124(3) 0.115(5)
O7 O 0.225(2) 0.160(2) 0.068(3)
C15 C 0.264(4) 0.268(4) 0.071(5)
C16 C 0.334(2) 0.324(3) 0.161(4)
C17 C 0.494(2) 0.538(1) 0.406(2)
C18 C 0.425(2) 0.420(1) 0.494(2)
C19 C 0.6761(3) 0.5779(4) 0.1961(4)
C20 C 0.7285(3) 0.6424(4) 0.2959(4)
C21 C 0.7019(3) 0.7385(4) 0.3455(4)
C22 C 0.6229(3) 0.7701(4) 0.2952(4)
C23 C 0.5705(3) 0.7056(4) 0.1954(4)
C24 C 0.5971(3) 0.6095(4) 0.1458(4)
C25 C 0.7604(3) 0.4507(4) -0.0093(6)
C26 C 0.7068(3) 0.3982(4) -0.1146(6)
C27 C 0.7439(3) 0.3958(4) -0.2260(6)
C28 C 0.8346(3) 0.4459(4) -0.2321(6)
C29 C 0.8882(3) 0.4984(4) -0.1269(6)
C30 C 0.8511(3) 0.5008(4) -0.0155(6)
C31 C 0.5538(4) 0.0531(3) 0.2748(3)
C32 C 0.4952(4) 0.0502(3) 0.3712(3)
C33 C 0.4140(4) -0.0183(3) 0.3528(3)
C34 C 0.3914(4) -0.0840(3) 0.2379(3)
C35 C 0.4500(4) -0.0811(3) 0.1415(3)
C36 C 0.5312(4) -0.0126(3) 0.1599(3)
C37 C 0.7425(4) 0.0982(3) 0.3863(5)
C38 C 0.7688(4) 0.1603(3) 0.5020(5)
C39 C 0.8338(4) 0.1309(3) 0.5735(5)
C40 C 0.8724(4) 0.0394(3) 0.5293(5)
C41 C 0.8461(4) -0.0227(3) 0.4137(5)
C42 C 0.7811(4) 0.0066(3) 0.3421(5)
H9 H 0.7824(3) 0.6209(4) 0.3302(4)
H10 H 0.7376(3) 0.7824(4) 0.4134(4)
H11 H 0.6048(3) 0.8356(4) 0.3289(4)
H12 H 0.5167(3) 0.7271(4) 0.1611(4)
H13 H 0.5614(3) 0.5656(4) 0.0779(4)
H14 H 0.6451(3) 0.3641(4) -0.1104(6)
H15 H 0.7074(3) 0.3600(4) -0.2977(6)
H16 H 0.8599(3) 0.4442(4) -0.3080(6)
H17 H 0.9500(3) 0.5325(4) -0.1311(6)
H18 H 0.8876(3) 0.5366(4) 0.0562(6)
H19 H 0.5106(4) 0.0950(3) 0.4494(3)
H20 H 0.3741(4) -0.0203(3) 0.4185(3)
H21 H 0.3361(4) -0.1307(3) 0.2254(3)
H22 H 0.4346(4) -0.1259(3) 0.0633(3)
H23 H 0.5711(4) -0.0106(3) 0.0942(3)
H24 H 0.7425(4) 0.2226(3) 0.5321(5)
H25 H 0.8517(4) 0.1732(3) 0.6523(5)
H26 H 0.9167(4) 0.0194(3) 0.5780(5)
H27 H 0.8724(4) -0.0850(3) 0.3836(5)
H28 H 0.7632(4) -0.0357(3) 0.2634(5)
H29 H 0.930(2) 0.082(2) 0.035(2)
H30 H 0.874(2) 0.079(2) -0.082(2)
H31 H 1.068(2) 0.135(2) -0.041(2)
H32 H 1.030(2) 0.031(2) -0.124(2)
H33 H 1.015(2) 0.282(2) -0.182(2)
H34 H 1.066(2) 0.263(2) -0.075(2)
H35 H 0.927(2) 0.334(2) -0.018(2)
H36 H 0.873(2) 0.245(2) -0.115(2)
H37 H 1.038(2) 0.192(2) 0.209(3)
H38 H 0.960(2) 0.144(2) 0.274(3)
H39 H 1.066(3) 0.139(2) 0.381(4)
H40 H 1.136(3) 0.209(2) 0.336(4)
H41 H 1.021(3) 0.398(3) 0.564(3)
H42 H 1.104(3) 0.389(3) 0.471(3)
H43 H 1.001(3) 0.408(2) 0.363(4)
H44 H 0.920(3) 0.378(2) 0.440(4)
H45 H 0.395(2) 0.152(2) 0.246(3)
H46 H 0.308(2) 0.220(2) 0.279(3)
H47 H 0.241(3) 0.080(3) 0.148(5)
H48 H 0.319(3) 0.089(3) 0.055(5)
H49 H 0.206(4) 0.300(4) 0.065(5)
H50 H 0.301(4) 0.257(4) -0.001(5)
H51 H 0.368(2) 0.377(3) 0.141(4)
H52 H 0.296(2) 0.350(3) 0.230(4)
H53 H 0.516(2) 0.543(1) 0.332(2)
H54 H 0.437(2) 0.574(1) 0.430(2)
H55 H 0.368(2) 0.455(1) 0.515(2)
H56 H 0.409(2) 0.352(1) 0.482(2)
C18A C 0.575(2) 0.580(1) 0.506(2)
C17A C 0.506(2) 0.462(1) 0.594(2)
O4A O 0.5337(5) 0.5674(5) 0.6099(5)
H55A H 0.632(2) 0.545(1) 0.485(2)
H56A H 0.591(2) 0.648(1) 0.518(2)
H53A H 0.484(2) 0.457(1) 0.668(2)
H54A H 0.563(2) 0.426(1) 0.570(2)
Li2A Li 0.4622(9) 0.6740(9) 0.738(1)
O3A O 0.5953(4) 0.7440(5) 0.8185(6)
C2A C 0.3991(7) 0.6197(7) 0.8743(8)
C3A C 0.3862(7) 0.7457(7) 0.6344(8)
C13A C 0.650(2) 0.813(2) 0.784(3)
C16A C 0.666(2) 0.676(3) 0.839(4)
P1A P 0.2901(1) 0.5498(1) 0.8642(2)
H3A H 0.450(5) 0.591(5) 0.907(7)
H4A H 0.388(4) 0.678(5) 0.921(6)
P2A P 0.3399(1) 0.8564(1) 0.7045(2)
H5A H 0.415(4) 0.749(4) 0.577(6)
H6A H 0.330(4) 0.701(4) 0.603(5)
C14A C 0.724(3) 0.876(3) 0.885(5)
H45A H 0.605(2) 0.848(2) 0.754(3)
H46A H 0.692(2) 0.780(2) 0.721(3)
C15A C 0.736(4) 0.732(4) 0.929(5)
H51A H 0.632(2) 0.623(3) 0.859(4)
H52A H 0.704(2) 0.650(3) 0.770(4)
C1A C 0.1974(7) 0.5798(6) 0.7889(8)
C19A C 0.3239(3) 0.4221(4) 0.8039(4)
C25A C 0.2396(3) 0.5493(4) 1.0093(6)
C4A C 0.2736(7) 0.8577(7) 0.8284(8)
C31A C 0.4462(4) 0.9469(3) 0.7252(3)
C37A C 0.2575(4) 0.9018(3) 0.6137(5)
O7A O 0.775(2) 0.840(2) 0.932(3)
H47A H 0.759(3) 0.920(3) 0.852(5)
H48A H 0.681(3) 0.911(3) 0.945(5)
H49A H 0.794(4) 0.700(4) 0.935(5)
H50A H 0.699(4) 0.743(4) 1.001(5)
Li1A Li 0.167(1) 0.735(1) 0.817(1)
H1A H 0.136(5) 0.537(5) 0.781(5)
H2A H 0.214(4) 0.573(4) 0.708(5)
C20A C 0.2715(3) 0.3576(4) 0.7041(4)
C24A C 0.4029(3) 0.3905(4) 0.8542(4)
C26A C 0.2932(3) 0.6018(4) 1.1146(6)
C30A C 0.1489(3) 0.4992(4) 1.0155(6)
H7A H 0.257(4) 0.913(4) 0.859(5)
H8A H 0.325(5) 0.846(4) 0.877(5)
C32A C 0.5048(4) 0.9498(3) 0.6288(3)
C36A C 0.4688(4) 1.0126(3) 0.8401(3)
C38A C 0.2312(4) 0.8397(3) 0.4980(5)
C42A C 0.2189(4) 0.9934(3) 0.6579(5)
O1A O 0.0877(5) 0.7878(5) 0.9735(6)
O2A O 0.0502(4) 0.7201(4) 0.6957(6)
C21A C 0.2981(3) 0.2615(4) 0.6545(4)
H9A H 0.2176(3) 0.3791(4) 0.6698(4)
C23A C 0.4295(3) 0.2944(4) 0.8046(4)
H13A H 0.4386(3) 0.4344(4) 0.9221(4)
C27A C 0.2561(3) 0.6042(4) 1.2260(6)
H14A H 0.3549(3) 0.6359(4) 1.1104(6)
C29A C 0.1118(3) 0.5016(4) 1.1269(6)
H18A H 0.1124(3) 0.4634(4) 0.9438(6)
C33A C 0.5860(4) 1.0183(3) 0.6472(3)
H19A H 0.4894(4) 0.9050(3) 0.5506(3)
C35A C 0.5500(4) 1.0811(3) 0.8585(3)
H23A H 0.4289(4) 1.0106(3) 0.9058(3)
C39A C 0.1662(4) 0.8691(3) 0.4265(5)
H24A H 0.2575(4) 0.7774(3) 0.4679(5)
C41A C 0.1539(4) 1.0227(3) 0.5863(5)
H28A H 0.2368(4) 1.0357(3) 0.7366(5)
C5A C 0.073(2) 0.889(2) 1.027(2)
C8A C 0.072(2) 0.734(2) 1.060(2)
C9A C -0.006(2) 0.800(2) 0.717(3)
C12A C 0.021(3) 0.640(2) 0.601(4)
C22A C 0.3771(3) 0.2299(4) 0.7048(4)
H10A H 0.2624(3) 0.2176(4) 0.5866(4)
H12A H 0.4833(3) 0.2729(4) 0.8389(4)
C28A C 0.1654(3) 0.5541(4) 1.2321(6)
H15A H 0.2926(3) 0.6400(4) 1.2977(6)
H17A H 0.0500(3) 0.4675(4) 1.1311(6)
C34A C 0.6086(4) 1.0840(3) 0.7621(3)
H20A H 0.6259(4) 1.0203(3) 0.5815(3)
H22A H 0.5654(4) 1.1259(3) 0.9367(3)
C40A C 0.1276(4) 0.9606(3) 0.4707(5)
H25A H 0.1483(4) 0.8268(3) 0.3477(5)
H27A H 0.1276(4) 1.0850(3) 0.6164(5)
C6A C -0.015(2) 0.902(2) 1.093(2)
H29A H 0.070(2) 0.918(2) 0.965(2)
H30A H 0.126(2) 0.921(2) 1.082(2)
C7A C -0.010(2) 0.754(2) 1.127(2)
H35A H 0.073(2) 0.666(2) 1.018(2)
H36A H 0.127(2) 0.755(2) 1.115(2)
C10A C -0.072(3) 0.801(2) 0.635(4)
H37A H -0.038(2) 0.808(2) 0.791(3)
H38A H 0.040(2) 0.856(2) 0.726(3)
C11A C -0.043(3) 0.640(3) 0.513(3)
H43A H -0.001(3) 0.592(2) 0.637(4)
H44A H 0.080(3) 0.622(2) 0.560(4)
H11A H 0.3952(3) 0.1644(4) 0.6711(4)
H16A H 0.1401(3) 0.5558(4) 1.3080(6)
H21A H 0.6639(4) 1.1307(3) 0.7746(3)
H26A H 0.0833(4) 0.9806(3) 0.4220(5)
O5A O 0.004(1) 0.859(1) 1.197(1)
H31A H -0.068(2) 0.865(2) 1.041(2)
H32A H -0.030(2) 0.969(2) 1.124(2)
H33A H -0.015(2) 0.718(2) 1.182(2)
H34A H -0.066(2) 0.737(2) 1.075(2)
O6A O -0.083(4) 0.714(4) 0.515(5)
H39A H -0.066(3) 0.861(2) 0.619(4)
H40A H -0.136(3) 0.791(2) 0.664(4)
H41A H -0.021(3) 0.602(3) 0.436(3)
H42A H -0.104(3) 0.611(3) 0.529(3)
loop_
_geom_bond_atom_site_label_1
_geom_bond_atom_site_label_2
_geom_bond_site_symmetry_1
_geom_bond_site_symmetry_2
P1 C1 1_555 1_555
P2 C3 1_555 1_555
O1 Li1 1_555 1_555
O2 Li1 1_555 1_555
O3 Li2 1_555 1_555
O4 Li2 1_555 1_555
Li1 C1 1_555 1_555
C1 H1 1_555 1_555
C2 P1 1_555 1_555
H2 C1 1_555 1_555
H3 C2 1_555 1_555
H4 C2 1_555 1_555
Li2 C2 1_555 1_555
C3 Li2 1_555 1_555
C4 P2 1_555 1_555
H5 C3 1_555 1_555
H6 C3 1_555 1_555
H7 C4 1_555 1_555
H8 C4 1_555 1_555
C5 O1 1_555 1_555
C6 C5 1_555 1_555
O5 C6 1_555 1_555
C7 O5 1_555 1_555
C8 O1 1_555 1_555
C9 O2 1_555 1_555
C10 C9 1_555 1_555
O6 C10 1_555 1_555
C11 O6 1_555 1_555
C12 O2 1_555 1_555
C13 O3 1_555 1_555
C14 C13 1_555 1_555
O7 C14 1_555 1_555
C15 O7 1_555 1_555
C16 O3 1_555 1_555
C17 O4 1_555 1_555
C18 O4 1_555 1_555
C19 P1 1_555 1_555
C20 C19 1_555 1_555
C21 C20 1_555 1_555
C22 C21 1_555 1_555
C23 C22 1_555 1_555
C24 C19 1_555 1_555
C25 P1 1_555 1_555
C26 C25 1_555 1_555
C27 C26 1_555 1_555
C28 C27 1_555 1_555
C29 C28 1_555 1_555
C30 C25 1_555 1_555
C31 P2 1_555 1_555
C32 C31 1_555 1_555
C33 C32 1_555 1_555
C34 C33 1_555 1_555
C35 C34 1_555 1_555
C36 C31 1_555 1_555
C37 P2 1_555 1_555
C38 C37 1_555 1_555
C39 C38 1_555 1_555
C40 C39 1_555 1_555
C41 C40 1_555 1_555
C42 C37 1_555 1_555
H9 C20 1_555 1_555
H10 C21 1_555 1_555
H11 C22 1_555 1_555
H12 C23 1_555 1_555
H13 C24 1_555 1_555
H14 C26 1_555 1_555
H15 C27 1_555 1_555
H16 C28 1_555 1_555
H17 C29 1_555 1_555
H18 C30 1_555 1_555
H19 C32 1_555 1_555
H20 C33 1_555 1_555
H21 C34 1_555 1_555
H22 C35 1_555 1_555
H23 C36 1_555 1_555
H24 C38 1_555 1_555
H25 C39 1_555 1_555
H26 C40 1_555 1_555
H27 C41 1_555 1_555
H28 C42 1_555 1_555
H29 C5 1_555 1_555
H30 C5 1_555 1_555
H31 C6 1_555 1_555
H32 C6 1_555 1_555
H33 C7 1_555 1_555
H34 C7 1_555 1_555
H35 C8 1_555 1_555
H36 C8 1_555 1_555
H37 C9 1_555 1_555
H38 C9 1_555 1_555
H39 C10 1_555 1_555
H40 C10 1_555 1_555
H41 C11 1_555 1_555
H42 C11 1_555 1_555
H43 C12 1_555 1_555
H44 C12 1_555 1_555
H45 C13 1_555 1_555
H46 C13 1_555 1_555
H47 C14 1_555 1_555
H48 C14 1_555 1_555
H49 C15 1_555 1_555
H50 C15 1_555 1_555
H51 C16 1_555 1_555
H52 C16 1_555 1_555
H53 C17 1_555 1_555
H54 C17 1_555 1_555
H55 C18 1_555 1_555
H56 C18 1_555 1_555
C18A C17 1_555 1_555
C17A C18 1_555 1_555
O4A C18A 1_555 1_555
H55A C18A 1_555 1_555
H56A C18A 1_555 1_555
H53A C17A 1_555 1_555
H54A C17A 1_555 1_555
Li2A O4A 1_555 1_555
O3A Li2A 1_555 1_555
C2A Li2A 1_555 1_555
C3A Li2A 1_555 1_555
C13A O3A 1_555 1_555
C16A O3A 1_555 1_555
P1A C2A 1_555 1_555
H3A C2A 1_555 1_555
H4A C2A 1_555 1_555
P2A C3A 1_555 1_555
H5A C3A 1_555 1_555
H6A C3A 1_555 1_555
C14A C13A 1_555 1_555
H45A C13A 1_555 1_555
H46A C13A 1_555 1_555
C15A C16A 1_555 1_555
H51A C16A 1_555 1_555
H52A C16A 1_555 1_555
C1A P1A 1_555 1_555
C19A P1A 1_555 1_555
C25A P1A 1_555 1_555
C4A P2A 1_555 1_555
C31A P2A 1_555 1_555
C37A P2A 1_555 1_555
O7A C14A 1_555 1_555
H47A C14A 1_555 1_555
H48A C14A 1_555 1_555
H49A C15A 1_555 1_555
H50A C15A 1_555 1_555
Li1A C1A 1_555 1_555
H1A C1A 1_555 1_555
H2A C1A 1_555 1_555
C20A C19A 1_555 1_555
C24A C19A 1_555 1_555
C26A C25A 1_555 1_555
C30A C25A 1_555 1_555
H7A C4A 1_555 1_555
H8A C4A 1_555 1_555
C32A C31A 1_555 1_555
C36A C31A 1_555 1_555
C38A C37A 1_555 1_555
C42A C37A 1_555 1_555
O1A Li1A 1_555 1_555
O2A Li1A 1_555 1_555
C21A C20A 1_555 1_555
H9A C20A 1_555 1_555
C23A C24A 1_555 1_555
H13A C24A 1_555 1_555
C27A C26A 1_555 1_555
H14A C26A 1_555 1_555
C29A C30A 1_555 1_555
H18A C30A 1_555 1_555
C33A C32A 1_555 1_555
H19A C32A 1_555 1_555
C35A C36A 1_555 1_555
H23A C36A 1_555 1_555
C39A C38A 1_555 1_555
H24A C38A 1_555 1_555
C41A C42A 1_555 1_555
H28A C42A 1_555 1_555
C5A O1A 1_555 1_555
C8A O1A 1_555 1_555
C9A O2A 1_555 1_555
C12A O2A 1_555 1_555
C22A C21A 1_555 1_555
H10A C21A 1_555 1_555
H12A C23A 1_555 1_555
C28A C27A 1_555 1_555
H15A C27A 1_555 1_555
H17A C29A 1_555 1_555
C34A C33A 1_555 1_555
H20A C33A 1_555 1_555
H22A C35A 1_555 1_555
C40A C39A 1_555 1_555
H25A C39A 1_555 1_555
H27A C41A 1_555 1_555
C6A C5A 1_555 1_555
H29A C5A 1_555 1_555
H30A C5A 1_555 1_555
C7A C8A 1_555 1_555
H35A C8A 1_555 1_555
H36A C8A 1_555 1_555
C10A C9A 1_555 1_555
H37A C9A 1_555 1_555
H38A C9A 1_555 1_555
C11A C12A 1_555 1_555
H43A C12A 1_555 1_555
H44A C12A 1_555 1_555
H11A C22A 1_555 1_555
H16A C28A 1_555 1_555
H21A C34A 1_555 1_555
H26A C40A 1_555 1_555
O5A C6A 1_555 1_555
H31A C6A 1_555 1_555
H32A C6A 1_555 1_555
H33A C7A 1_555 1_555
H34A C7A 1_555 1_555
O6A C10A 1_555 1_555
H39A C10A 1_555 1_555
H40A C10A 1_555 1_555
H41A C11A 1_555 1_555
H42A C11A 1_555 1_555
Li1 C4 1_555 1_555
C7 C8 1_555 1_555
C11 C12 1_555 1_555
C15 C16 1_555 1_555
C23 C24 1_555 1_555
C29 C30 1_555 1_555
C35 C36 1_555 1_555
C41 C42 1_555 1_555
C17A O4A 1_555 1_555
C15A O7A 1_555 1_555
C4A Li1A 1_555 1_555
C23A C22A 1_555 1_555
C29A C28A 1_555 1_555
C35A C34A 1_555 1_555
C41A C40A 1_555 1_555
C7A O5A 1_555 1_555
C11A O6A 1_555 1_555

#END
