
#######################################################################
#
#                 Cambridge Crystallographic Data Centre
#                                CCDC 
#
#######################################################################
#
# If this CIF has been generated from an entry in the Cambridge 
# Structural Database, then it will include bibliographic, chemical, 
# crystal, experimental, refinement or atomic coordinate data resulting 
# from the CCDC's data processing and validation procedures.
#
#######################################################################

data_DUJMUS
_chemical_formula_moiety         'C8 H8 O8 2-,2(C9 H8 N1 O1 1+),2(H2 O1)'
_chemical_name_systematic        
'bis(8-hydroxyquinolin-1-ium) 2,3-bis(carboxymethyl)succinate dihydrate'
_symmetry_cell_setting           triclinic
_symmetry_space_group_name_H-M   'P -1'
_symmetry_Int_Tables_number      2
_space_group_name_Hall           '-P 1'
loop_
_symmetry_equiv_pos_site_id
_symmetry_equiv_pos_as_xyz
1 x,y,z
2 -x,-y,-z
_cell_length_a                   7.0968(6)
_cell_length_b                   8.6854(7)
_cell_length_c                   11.0494(11)
_cell_angle_alpha                105.169(2)
_cell_angle_beta                 90.3700(10)
_cell_angle_gamma                106.031(2)
_cell_volume                     629.498
_exptl_crystal_colour            colorless
_exptl_crystal_description       block
_cell_formula_units_Z            1
loop_
_atom_site_label
_atom_site_type_symbol
_atom_site_fract_x
_atom_site_fract_y
_atom_site_fract_z
N1 N 0.2689(6) 0.3989(5) 1.1092(5)
H1 H 0.2972 0.4491 1.1880
O1 O 0.3554(6) 0.7313(5) 1.1972(4)
H2 H 0.3793 0.8328 1.2137
C1 C 0.2338(8) 0.2347(7) 1.0718(7)
H3 H 0.2445 0.1765 1.1299
C2 C 0.1814(9) 0.1505(8) 0.9464(7)
H4 H 0.1540 0.0351 0.9199
C3 C 0.1703(8) 0.2372(8) 0.8623(6)
H5 H 0.1385 0.1806 0.7775
C4 C 0.2057(8) 0.4105(7) 0.9003(6)
C5 C 0.2618(8) 0.4910(7) 1.0274(6)
C6 C 0.3040(8) 0.6633(6) 1.0725(6)
C7 C 0.2957(8) 0.7550(7) 0.9906(6)
H6 H 0.3252 0.8703 1.0199
C8 C 0.2423(9) 0.6754(8) 0.8615(7)
H7 H 0.2367 0.7389 0.8063
C9 C 0.1991(8) 0.5083(8) 0.8171(6)
H8 H 0.1651 0.4574 0.7317
O2 O 0.4136(6) 0.0420(5) 0.2676(4)
O3 O 0.5310(6) 0.2711(4) 0.4243(4)
O4 O 0.9228(6) 0.1234(5) 0.3258(5)
O5 O 1.0621(7) 0.3217(6) 0.4976(5)
H9 H 1.1405 0.3538 0.4490
C10 C 0.5044(8) 0.1180(7) 0.3745(6)
C11 C 0.5749(7) 0.0214(7) 0.4533(6)
H10 H 0.5875 -0.0825 0.3970
C12 C 0.7785(7) 0.1246(7) 0.5220(6)
H11 H 0.7631 0.2189 0.5869
H12 H 0.8290 0.0563 0.5630
C13 C 0.9264(9) 0.1876(8) 0.4359(7)
O2A O 0.5864(6) -0.0420(5) 0.7324(4)
O3A O 0.4690(6) -0.2711(4) 0.5757(4)
O4A O 0.0772(6) -0.1234(5) 0.6742(5)
O5A O -0.0621(7) -0.3217(6) 0.5024(5)
H9A H -0.1405 -0.3538 0.5510
C10A C 0.4956(8) -0.1180(7) 0.6255(6)
C11A C 0.4251(7) -0.0214(7) 0.5467(6)
H10A H 0.4125 0.0825 0.6030
C12A C 0.2215(7) -0.1246(7) 0.4780(6)
H11A H 0.2369 -0.2189 0.4131
H12A H 0.1710 -0.0563 0.4370
C13A C 0.0736(9) -0.1876(8) 0.5641(7)
O6 O 0.6586(5) 0.5332(4) 0.6382(4)
H13 H 0.6264 0.4474 0.5754
H14 H 0.6029 0.6031 0.6254
loop_
_geom_bond_atom_site_label_1
_geom_bond_atom_site_label_2
_geom_bond_site_symmetry_1
_geom_bond_site_symmetry_2
N1 H1 1_555 1_555
O1 H2 1_555 1_555
C1 N1 1_555 1_555
H3 C1 1_555 1_555
C2 C1 1_555 1_555
H4 C2 1_555 1_555
C3 C2 1_555 1_555
H5 C3 1_555 1_555
C4 C3 1_555 1_555
C5 N1 1_555 1_555
C6 O1 1_555 1_555
C7 C6 1_555 1_555
H6 C7 1_555 1_555
C8 C7 1_555 1_555
H7 C8 1_555 1_555
C9 C4 1_555 1_555
H8 C9 1_555 1_555
O2 C10 1_555 1_555
O3 C10 1_555 1_555
O4 C13 1_555 1_555
O5 H9 1_555 1_555
C10 C11 1_555 1_555
C11 H10 1_555 1_555
C12 C11 1_555 1_555
H11 C12 1_555 1_555
H12 C12 1_555 1_555
C13 O5 1_555 1_555
O6 H13 1_555 1_555
H14 O6 1_555 1_555
O2A C10A 1_555 1_555
O3A C10A 1_555 1_555
O4A C13A 1_555 1_555
O5A H9A 1_555 1_555
C10A C11A 1_555 1_555
C11A C11 1_555 1_555
H10A C11A 1_555 1_555
C12A C11A 1_555 1_555
H11A C12A 1_555 1_555
H12A C12A 1_555 1_555
C13A O5A 1_555 1_555
C4 C5 1_555 1_555
C5 C6 1_555 1_555
C8 C9 1_555 1_555
C12 C13 1_555 1_555
C12A C13A 1_555 1_555

#END
