
#######################################################################
#
#                 Cambridge Crystallographic Data Centre
#                                CCDC 
#
#######################################################################
#
# If this CIF has been generated from an entry in the Cambridge 
# Structural Database, then it will include bibliographic, chemical, 
# crystal, experimental, refinement or atomic coordinate data resulting 
# from the CCDC's data processing and validation procedures.
#
#######################################################################

data_DUJTEH
_chemical_formula_moiety         '2(C26 H22),C8 H10'
_chemical_name_systematic        
'bis(1,1,2,2-Tetraphenylethane) p-xylene clathrate'
_symmetry_cell_setting           triclinic
_symmetry_space_group_name_H-M   'P -1'
_symmetry_Int_Tables_number      2
_space_group_name_Hall           '-P 1'
loop_
_symmetry_equiv_pos_site_id
_symmetry_equiv_pos_as_xyz
1 x,y,z
2 -x,-y,-z
_cell_length_a                   5.941(1)
_cell_length_b                   9.269(1)
_cell_length_c                   20.81(3)
_cell_angle_alpha                95.92(1)
_cell_angle_beta                 90.34(5)
_cell_angle_gamma                106.14(7)
_cell_volume                     1094.19
_cell_formula_units_Z            1
loop_
_atom_site_label
_atom_site_type_symbol
_atom_site_fract_x
_atom_site_fract_y
_atom_site_fract_z
C1 C 1.240(3) 0.634(2) 0.3364(6)
C2 C 1.121(3) 0.741(2) 0.3237(6)
C3 C 1.229(3) 0.890(1) 0.3434(6)
C4 C 1.452(3) 0.931(2) 0.3742(6)
C5 C 1.551(3) 0.826(2) 0.3856(6)
C6 C 1.447(3) 0.685(2) 0.3679(7)
C7 C 1.067(3) 0.383(1) 0.3770(6)
C8 C 0.875(3) 0.393(2) 0.4116(7)
C9 C 0.827(3) 0.316(2) 0.4670(6)
C10 C 0.952(3) 0.230(2) 0.4830(7)
C11 C 1.130(3) 0.220(2) 0.4483(6)
C12 C 1.188(3) 0.290(2) 0.3934(6)
C13 C 1.043(3) 0.240(2) 0.2390(6)
C14 C 0.772(3) -0.008(2) 0.2297(6)
C15 C 0.832(3) 0.142(2) 0.2505(6)
C16 C 0.935(3) -0.062(2) 0.1976(6)
C17 C 1.157(3) 0.030(2) 0.1871(6)
C18 C 1.205(3) 0.181(2) 0.2088(6)
C19 C 1.144(3) 0.492(2) 0.1999(6)
C20 C 1.350(3) 0.588(2) 0.1841(6)
C21 C 1.176(3) 0.634(2) 0.0890(6)
C22 C 0.969(3) 0.544(2) 0.1051(6)
C23 C 0.951(3) 0.471(2) 0.1590(6)
C24 C 1.128(4) 0.463(2) 0.3172(6)
C25 C 1.124(4) 0.406(2) 0.2573(6)
C26 C 1.365(3) 0.660(2) 0.1290(6)
H1 H 0.9567 0.7059 0.3065
H2 H 1.1573 0.9701 0.3349
H3 H 1.5255 1.0413 0.3847
H4 H 1.7164 0.8745 0.4093
H5 H 1.5463 0.6152 0.3824
H6 H 0.7637 0.4515 0.3959
H7 H 0.6940 0.3394 0.4982
H8 H 0.8937 0.1684 0.5159
H9 H 1.2256 0.1499 0.4686
H10 H 1.3381 0.2795 0.3698
H11 H 0.7120 0.1891 0.2757
H12 H 0.6076 -0.0702 0.2395
H13 H 0.8811 -0.1781 0.1806
H14 H 1.2691 -0.0312 0.1625
H15 H 1.3825 0.2410 0.2035
H16 H 1.5005 0.6061 0.2143
H17 H 1.5192 0.7252 0.1136
H18 H 1.1843 0.6814 0.0479
H19 H 0.8126 0.5395 0.0769
H20 H 0.7965 0.3940 0.1675
C27 C 0.423(3) 0.119(2) 0.0209(6)
C28 C 0.609(2) 0.097(2) 0.0536(6)
C29 C 0.300(3) 0.017(2) -0.0358(6)
C30 C 0.329(3) 0.254(2) 0.0361(7)
H21 H 0.1943 0.2255 0.0026
H22 H 0.2484 0.2726 0.0761
H23 H 0.4117 0.3588 0.0262
H24 H 0.6803 0.1910 0.0853
C29A C 0.700(3) -0.017(2) 0.0358(6)
C28A C 0.391(2) -0.097(2) -0.0536(6)
C27A C 0.577(3) -0.119(2) -0.0209(6)
H24A H 0.3197 -0.1910 -0.0853
C30A C 0.671(3) -0.254(2) -0.0361(7)
H21A H 0.8057 -0.2255 -0.0026
H22A H 0.7516 -0.2726 -0.0761
H23A H 0.5883 -0.3588 -0.0262
loop_
_geom_bond_atom_site_label_1
_geom_bond_atom_site_label_2
_geom_bond_site_symmetry_1
_geom_bond_site_symmetry_2
C1 C2 1_555 1_555
C2 C3 1_555 1_555
C3 C4 1_555 1_555
C4 C5 1_555 1_555
C5 C6 1_555 1_555
C6 C1 1_555 1_555
C7 C8 1_555 1_555
C8 C9 1_555 1_555
C9 C10 1_555 1_555
C10 C11 1_555 1_555
C11 C12 1_555 1_555
C12 C7 1_555 1_555
C13 C15 1_555 1_555
C14 C15 1_555 1_555
C15 H11 1_555 1_555
C16 C14 1_555 1_555
C17 C16 1_555 1_555
C18 C13 1_555 1_555
C19 C20 1_555 1_555
C20 C26 1_555 1_555
C21 C22 1_555 1_555
C22 C23 1_555 1_555
C23 C19 1_555 1_555
C24 C1 1_555 1_555
C25 C13 1_555 1_555
C26 C21 1_555 1_555
H1 C2 1_555 1_555
H2 C3 1_555 1_555
H3 C4 1_555 1_555
H4 C5 1_555 1_555
H5 C6 1_555 1_555
H6 C8 1_555 1_555
H7 C9 1_555 1_555
H8 C10 1_555 1_555
H9 C11 1_555 1_555
H10 C12 1_555 1_555
H12 C14 1_555 1_555
H13 C16 1_555 1_555
H14 C17 1_555 1_555
H15 C18 1_555 1_555
H16 C20 1_555 1_555
H17 C26 1_555 1_555
H18 C21 1_555 1_555
H19 C22 1_555 1_555
H20 C23 1_555 1_555
C27 C28 1_555 1_555
C28 H24 1_555 1_555
C29 C27 1_555 1_555
C30 C27 1_555 1_555
H21 C30 1_555 1_555
H22 C30 1_555 1_555
H23 C30 1_555 1_555
C29A C28 1_555 1_555
C28A C29 1_555 1_555
C27A C29A 1_555 1_555
H24A C28A 1_555 1_555
C30A C27A 1_555 1_555
H21A C30A 1_555 1_555
H22A C30A 1_555 1_555
H23A C30A 1_555 1_555
C7 C24 1_555 1_555
C17 C18 1_555 1_555
C19 C25 1_555 1_555
C24 C25 1_555 1_555
C28A C27A 1_555 1_555

#END
