
#######################################################################
#
#                 Cambridge Crystallographic Data Centre
#                                CCDC 
#
#######################################################################
#
# If this CIF has been generated from an entry in the Cambridge 
# Structural Database, then it will include bibliographic, chemical, 
# crystal, experimental, refinement or atomic coordinate data resulting 
# from the CCDC's data processing and validation procedures.
#
#######################################################################

data_DUJWEK
_chemical_formula_moiety         'C11 H22 N1 O1 1+,I1 1-'
_chemical_name_systematic        '(+)-Epilupinine methiodide'
_symmetry_cell_setting           hexagonal
_symmetry_space_group_name_H-M   'P 61'
_symmetry_Int_Tables_number      169
_space_group_name_Hall           'P 61'
loop_
_symmetry_equiv_pos_site_id
_symmetry_equiv_pos_as_xyz
1 x,y,z
2 -y,x-y,1/3+z
3 -x+y,-x,2/3+z
4 -x,-y,1/2+z
5 y,-x+y,5/6+z
6 x-y,x,1/6+z
_cell_length_a                   7.600(1)
_cell_length_b                   7.600(1)
_cell_length_c                   38.659(9)
_cell_angle_alpha                90
_cell_angle_beta                 90
_cell_angle_gamma                120
_cell_volume                     1933.79
_cell_formula_units_Z            6
loop_
_atom_site_label
_atom_site_type_symbol
_atom_site_fract_x
_atom_site_fract_y
_atom_site_fract_z
C1 C 0.408(2) 0.343(2) 0.8935(3)
C2 C 0.368(2) 0.422(2) 0.8602(4)
C3 C 0.291(2) 0.568(2) 0.8687(4)
C4 C 0.101(2) 0.468(2) 0.8912(5)
C5 C 0.134(2) 0.377(2) 0.9236(4)
C6 C 0.258(2) 0.168(2) 0.9494(4)
C7 C 0.349(3) 0.032(2) 0.9464(4)
C8 C 0.539(2) 0.136(2) 0.9234(5)
C9 C 0.496(2) 0.206(2) 0.8896(4)
C10 C 0.045(2) 0.050(2) 0.8969(4)
C11 C 0.557(2) 0.522(2) 0.8386(4)
N1 N 0.211(1) 0.232(1) 0.9156(3)
O1 O 0.725(2) 0.682(2) 0.8559(3)
I1 I 0.7674(1) 0.0980(1) 0.8089(1)
loop_
_geom_bond_atom_site_label_1
_geom_bond_atom_site_label_2
_geom_bond_site_symmetry_1
_geom_bond_site_symmetry_2
C1 C2 1_555 1_555
C2 C3 1_555 1_555
C3 C4 1_555 1_555
C4 C5 1_555 1_555
C5 N1 1_555 1_555
C6 C7 1_555 1_555
C7 C8 1_555 1_555
C8 C9 1_555 1_555
C9 C1 1_555 1_555
C10 N1 1_555 1_555
C11 C2 1_555 1_555
N1 C1 1_555 1_555
O1 C11 1_555 1_555
C6 N1 1_555 1_555

#END
