
#######################################################################
#
#                 Cambridge Crystallographic Data Centre
#                                CCDC 
#
#######################################################################
#
# If this CIF has been generated from an entry in the Cambridge 
# Structural Database, then it will include bibliographic, chemical, 
# crystal, experimental, refinement or atomic coordinate data resulting 
# from the CCDC's data processing and validation procedures.
#
#######################################################################

data_DUKHOI
_chemical_formula_moiety         'C33 H29 N1 O5 S2'
_chemical_name_systematic        
3-((4-Methylphenyl)sulfonyl)-N-(((4-methylphenyl)sulfonyl)methyl)-4,6-diphenylhex-3-en-5-ynamide
_symmetry_cell_setting           triclinic
_symmetry_space_group_name_H-M   'P -1'
_symmetry_Int_Tables_number      2
_space_group_name_Hall           '-P 1'
loop_
_symmetry_equiv_pos_site_id
_symmetry_equiv_pos_as_xyz
1 x,y,z
2 -x,-y,-z
_cell_length_a                   15.4070(7)
_cell_length_b                   17.9000(9)
_cell_length_c                   22.8419(11)
_cell_angle_alpha                95.8410(10)
_cell_angle_beta                 109.2350(10)
_cell_angle_gamma                99.1820(10)
_cell_volume                     5790.53
_exptl_crystal_colour            yellow
_exptl_crystal_description       block
_cell_formula_units_Z            8
loop_
_atom_site_label
_atom_site_type_symbol
_atom_site_fract_x
_atom_site_fract_y
_atom_site_fract_z
S1 S 0.18732(6) 0.81033(5) 0.35070(4)
S2 S -0.17494(6) 0.88580(6) 0.33776(4)
O1 O 0.23659(18) 0.75444(14) 0.33476(12)
O2 O 0.08788(17) 0.78585(15) 0.33807(12)
O3 O 0.08663(17) 0.99317(15) 0.34747(12)
N1 N -0.04484(19) 0.90920(17) 0.28136(13)
C1 C 0.3664(3) 0.9095(2) 0.35318(18)
O4 O -0.24401(18) 0.92760(17) 0.34505(12)
O5 O -0.20551(18) 0.81042(15) 0.29985(12)
C2 C 0.4402(3) 0.8986(2) 0.38675(17)
C3 C 0.1967(2) 0.8896(2) 0.30910(16)
C4 C 0.2820(3) 0.9278(2) 0.31383(17)
C5 C 0.5229(3) 0.8836(2) 0.43241(17)
C6 C 0.1042(2) 0.9038(2) 0.26781(16)
H1 H 0.0660 0.8555 0.2424
H2 H 0.1157 0.9377 0.2394
C7 C 0.0492(2) 0.9391(2) 0.30407(16)
C8 C 0.2444(2) 0.8489(2) 0.43164(17)
C9 C 0.2783(3) 1.0636(2) 0.30038(18)
H3 H 0.2424 1.0653 0.3260
C10 C 0.2385(3) 0.9208(2) 0.45555(18)
H4 H 0.2058 0.9513 0.4294
C11 C 0.3002(2) 0.9952(2) 0.28251(17)
C12 C 0.0311(3) 0.8333(2) 0.47744(19)
H5 H 0.0785 0.8057 0.4813
C13 C -0.0297(3) 0.8356(2) 0.41871(18)
H6 H -0.0257 0.8081 0.3832
C14 C 0.2825(3) 0.9467(2) 0.51965(18)
H7 H 0.2799 0.9956 0.5362
C15 C -0.1057(3) 0.9194(2) 0.46586(17)
H8 H -0.1505 0.9495 0.4620
C16 C 0.3335(3) 0.8297(2) 0.53407(18)
H9 H 0.3645 0.7984 0.5602
C17 C 0.0241(3) 0.8711(2) 0.53143(18)
C18 C -0.1083(2) 0.9449(2) 0.30189(17)
H10 H -0.1517 0.9605 0.2661
H11 H -0.0729 0.9909 0.3318
C19 C -0.0981(2) 0.8800(2) 0.41308(16)
C20 C 0.5874(3) 0.8501(3) 0.4159(2)
H12 H 0.5784 0.8362 0.3736
C21 C 0.3301(3) 0.9017(2) 0.55985(18)
C22 C 0.3099(3) 1.1306(3) 0.2802(2)
H13 H 0.2983 1.1773 0.2943
C23 C 0.0933(3) 0.8688(3) 0.5953(2)
H14 H 0.0781 0.8976 0.6270
H15 H 0.1556 0.8908 0.5974
H16 H 0.0904 0.8165 0.6020
C24 C -0.0457(3) 0.9132(2) 0.52414(18)
H17 H -0.0522 0.9381 0.5598
C25 C 0.3460(3) 0.9920(3) 0.23992(19)
H18 H 0.3585 0.9456 0.2262
C26 C 0.3789(3) 0.9308(3) 0.62953(19)
H19 H 0.4074 0.8917 0.6495
H20 H 0.3339 0.9436 0.6475
H21 H 0.4265 0.9757 0.6358
C27 C 0.2917(3) 0.8029(2) 0.47006(18)
H22 H 0.2955 0.7544 0.4533
C28 C 0.3582(3) 1.1267(3) 0.2392(2)
H23 H 0.3805 1.1711 0.2262
C29 C 0.5329(3) 0.9023(3) 0.4950(2)
H24 H 0.4876 0.9229 0.5060
C30 C 0.6792(4) 0.8572(4) 0.5234(3)
H25 H 0.7328 0.8500 0.5542
C31 C 0.6660(3) 0.8366(3) 0.4618(3)
H26 H 0.7093 0.8136 0.4503
C32 C 0.3736(3) 1.0575(3) 0.2174(2)
H27 H 0.4025 1.0545 0.1876
C33 C 0.6113(4) 0.8898(4) 0.5408(2)
H28 H 0.6196 0.9027 0.5830
S3 S 0.15629(6) 1.33370(5) 0.12784(4)
S4 S 0.45058(6) 1.37083(5) 0.04177(4)
O6 O 0.40863(16) 1.30066(14) 0.17793(11)
O7 O 0.34905(16) 1.35498(14) 0.01935(11)
O8 O 0.49587(18) 1.38640(15) -0.00280(11)
O9 O 0.11679(17) 1.32334(15) 0.06021(11)
N2 N 0.26604(19) 1.23836(16) 0.10834(13)
O10 O 0.22050(17) 1.40437(14) 0.16111(12)
C34 C 0.4545(3) 1.5319(2) 0.17879(17)
H29 H 0.4117 1.5460 0.1962
C35 C 0.5715(2) 1.2767(2) 0.09129(15)
C36 C 0.6151(3) 1.1339(2) 0.20360(19)
H30 H 0.6066 1.1253 0.2410
C37 C 0.5795(2) 1.4930(2) 0.12321(17)
H31 H 0.6209 1.4809 0.1037
C38 C 0.3601(2) 1.26245(19) 0.12670(15)
C39 C 0.4826(2) 1.2890(2) 0.07622(15)
C40 C 0.5470(3) 1.5743(2) 0.20124(17)
C41 C 0.4012(2) 1.23338(19) 0.07954(15)
H32 H 0.4215 1.1864 0.0901
H33 H 0.3523 1.2209 0.0383
C42 C 0.6002(2) 1.20906(19) 0.12058(16)
C43 C 0.0644(2) 1.3168(2) 0.15768(15)
C44 C -0.0788(2) 1.2844(2) 0.20530(17)
C45 C 0.7071(2) 1.3655(2) 0.07072(17)
C46 C 0.4882(2) 1.4502(2) 0.10334(15)
C47 C -0.0132(2) 1.2576(2) 0.12457(16)
H34 H -0.0172 1.2294 0.0869
C48 C -0.0839(2) 1.2421(2) 0.14913(17)
H35 H -0.1357 1.2027 0.1278
C49 C 0.2127(2) 1.2538(2) 0.14774(16)
H36 H 0.2541 1.2654 0.1914
H37 H 0.1654 1.2085 0.1428
C50 C 0.7455(3) 1.4760(2) 0.02218(17)
H38 H 0.6821 1.4780 0.0073
C51 C -0.0014(2) 1.3434(2) 0.23652(16)
H39 H 0.0024 1.3722 0.2738
C52 C 0.4260(3) 1.4692(2) 0.13100(17)
H40 H 0.3652 1.4402 0.1177
C53 C 0.0703(2) 1.3599(2) 0.21297(16)
H41 H 0.1217 1.3995 0.2342
C54 C 0.5865(2) 1.1956(2) 0.17643(17)
H42 H 0.5582 1.2281 0.1953
C55 C 0.9033(3) 1.5260(2) 0.03168(18)
H43 H 0.9465 1.5621 0.0235
C56 C 0.6703(3) 1.0987(2) 0.1206(2)
H44 H 0.6980 1.0657 0.1018
C57 C 0.8098(3) 1.5294(2) 0.01003(17)
H45 H 0.7899 1.5675 -0.0127
C58 C 0.6446(2) 1.3262(2) 0.07987(17)
C59 C 0.5798(3) 1.6393(2) 0.25606(19)
H46 H 0.5285 1.6452 0.2700
H47 H 0.6018 1.6859 0.2433
H48 H 0.6300 1.6280 0.2898
C60 C 0.6078(3) 1.5537(2) 0.17236(18)
H49 H 0.6693 1.5814 0.1864
C61 C 0.6559(3) 1.0854(2) 0.1760(2)
H50 H 0.6740 1.0435 0.1941
C62 C 0.6436(2) 1.1612(2) 0.09347(18)
H51 H 0.6549 1.1710 0.0571
C63 C 0.9339(3) 1.4694(2) 0.06551(19)
H52 H 0.9973 1.4674 0.0798
C64 C 0.7750(2) 1.4192(2) 0.05666(16)
C65 C -0.1566(3) 1.2650(2) 0.23138(19)
H53 H -0.2037 1.2228 0.2036
H54 H -0.1843 1.3088 0.2349
H55 H -0.1312 1.2509 0.2721
C66 C 0.8698(3) 1.4158(2) 0.07798(18)
H56 H 0.8900 1.3776 0.1006
S5 S 0.06017(6) 1.13327(5) -0.03605(4)
S6 S 0.35001(6) 1.17381(5) -0.12446(4)
O11 O 0.09971(16) 1.20466(14) -0.17293(10)
O12 O 0.16225(16) 1.15112(14) -0.01362(11)
O13 O 0.01475(18) 1.11783(15) 0.00843(11)
N3 N 0.24178(19) 1.26969(17) -0.10391(13)
O14 O 0.38935(17) 1.18328(15) -0.05683(11)
C67 C 0.0254(2) 1.21359(19) -0.07142(14)
O15 O 0.28557(17) 1.10338(14) -0.15815(12)
C68 C -0.0633(3) 1.0068(2) -0.11388(17)
H57 H -0.1043 1.0167 -0.0933
C69 C 0.4412(2) 1.1905(2) -0.15440(15)
C70 C 0.1479(2) 1.24362(19) -0.12200(15)
C71 C 0.0249(2) 1.0538(2) -0.09666(15)
C72 C -0.0641(2) 1.2236(2) -0.08739(15)
C73 C 0.0604(3) 0.9740(2) -0.17275(18)
H58 H 0.1031 0.9623 -0.1913
C74 C 0.5834(2) 1.2239(2) -0.20356(16)
C75 C -0.0893(3) 0.9450(2) -0.16207(18)
H59 H -0.1489 0.9142 -0.1742
C76 C -0.0289(3) 0.9276(2) -0.19282(17)
C77 C -0.1406(2) 1.3366(2) -0.08995(17)
H60 H -0.1531 1.3253 -0.0543
C78 C 0.5182(2) 1.2506(2) -0.12233(16)
H61 H 0.5226 1.2791 -0.0847
C79 C 0.1061(2) 1.27079(19) -0.07439(15)
H62 H 0.1550 1.2832 -0.0331
H63 H 0.0846 1.3176 -0.0845
C80 C -0.1065(3) 1.3699(2) -0.19704(19)
H64 H -0.0954 1.3806 -0.2332
C81 C 0.5075(2) 1.1627(2) -0.23309(16)
H65 H 0.5049 1.1323 -0.2694
C82 C -0.2722(2) 1.0802(2) -0.05723(17)
C83 C -0.2011(3) 1.1327(2) -0.06913(17)
C84 C 0.2948(2) 1.2544(2) -0.14352(16)
H66 H 0.3427 1.2995 -0.1382
H67 H 0.2534 1.2436 -0.1872
C85 C -0.3149(3) 0.9698(2) -0.01254(18)
H68 H -0.2980 0.9307 0.0099
C86 C 0.4359(2) 1.1462(2) -0.20931(16)
H69 H 0.3850 1.1060 -0.2300
C87 C -0.0780(2) 1.3077(2) -0.17053(16)
H70 H -0.0476 1.2770 -0.1891
C88 C 0.0869(3) 1.0372(2) -0.12564(17)
H71 H 0.1464 1.0684 -0.1136
C89 C -0.1369(2) 1.1724(2) -0.07682(16)
C90 C -0.2471(3) 1.0216(2) -0.02328(18)
H72 H -0.1845 1.0173 -0.0078
C91 C 0.6592(3) 1.2428(3) -0.23075(19)
H73 H 0.7055 1.2863 -0.2044
H74 H 0.6322 1.2546 -0.2722
H75 H 0.6883 1.1995 -0.2331
C92 C -0.3659(3) 1.0864(2) -0.07954(18)
H76 H -0.3834 1.1255 -0.1019
C93 C -0.1684(3) 1.3991(2) -0.1162(2)
H77 H -0.1985 1.4302 -0.0978
C94 C -0.0598(3) 0.8626(2) -0.24758(19)
H78 H -0.0090 0.8596 -0.2626
H79 H -0.1125 0.8718 -0.2807
H80 H -0.0776 0.8153 -0.2342
C95 C -0.1514(3) 1.4158(2) -0.1700(2)
H81 H -0.1702 1.4577 -0.1877
C96 C -0.4329(3) 1.0348(2) -0.06852(19)
H82 H -0.4955 1.0391 -0.0835
C97 C 0.5878(2) 1.2666(2) -0.14781(17)
H83 H 0.6387 1.3069 -0.1272
C98 C -0.0942(2) 1.29051(19) -0.11665(16)
C99 C -0.4074(3) 0.9765(2) -0.03523(19)
H84 H -0.4531 0.9416 -0.0282
S7 S 0.33270(6) 1.38952(6) 0.33830(4)
S8 S 0.70862(7) 1.31770(5) 0.36565(4)
O16 O 0.75840(18) 1.26238(14) 0.34918(12)
O17 O 0.29819(18) 1.31607(15) 0.29797(11)
O18 O 0.26697(18) 1.43484(17) 0.34553(12)
O19 O 0.60952(17) 1.29333(15) 0.35266(12)
O20 O 0.60171(17) 1.49079(15) 0.36254(12)
N4 N 0.47295(19) 1.41221(17) 0.28868(13)
C100 C 0.7186(2) 1.3963(2) 0.32419(15)
C101 C 0.4020(3) 1.3759(2) 0.41301(17)
C102 C 0.8194(2) 1.5011(2) 0.29543(17)
C103 C 0.5667(2) 1.4411(2) 0.31620(16)
C104 C 0.8402(3) 1.4906(2) 0.24112(19)
H85 H 0.8371 1.4411 0.2223
C105 C 0.6263(2) 1.4093(2) 0.28151(16)
H86 H 0.5904 1.3610 0.2549
H87 H 0.6385 1.4447 0.2544
C106 C 0.9644(3) 1.4034(2) 0.39678(18)
C107 C 0.4540(3) 1.3199(3) 0.41904(19)
H88 H 0.4550 1.2900 0.3836
C108 C 0.4064(2) 1.4485(2) 0.30644(17)
H89 H 0.3664 1.4651 0.2698
H90 H 0.4406 1.4939 0.3374
C109 C 0.8036(3) 1.4353(2) 0.32903(16)
C110 C 0.7634(3) 1.3548(2) 0.44678(16)
C111 C 0.8895(3) 1.4168(2) 0.36748(18)
C112 C 0.8453(3) 1.4050(2) 0.57615(17)
C113 C 0.4523(3) 1.4079(2) 0.52472(18)
H91 H 0.4516 1.4385 0.5599
C114 C 0.5042(3) 1.3520(2) 0.53275(18)
C115 C 0.4010(3) 1.4198(2) 0.46558(18)
H92 H 0.3656 1.4577 0.4613
C116 C 0.8655(3) 1.5523(3) 0.2144(2)
H93 H 0.8789 1.5444 0.1778
C117 C 1.0478(3) 1.3797(2) 0.4305(2)
C118 C 0.8707(3) 1.6256(3) 0.2422(2)
H94 H 0.8892 1.6675 0.2248
C119 C 0.8488(3) 1.6369(3) 0.2951(2)
H95 H 0.8511 1.6864 0.3132
C120 C 0.8230(3) 1.5750(2) 0.3220(2)
H96 H 0.8081 1.5832 0.3581
C121 C 0.8484(3) 1.3365(2) 0.48080(18)
H97 H 0.8779 1.3072 0.4604
C122 C 0.5051(3) 1.3085(3) 0.4789(2)
H98 H 0.5408 1.2708 0.4832
C123 C 0.7193(3) 1.3971(2) 0.47768(18)
H99 H 0.6622 1.4092 0.4556
C124 C 0.8886(3) 1.3621(2) 0.54468(18)
H100 H 0.9458 1.3504 0.5670
C125 C 0.8892(3) 1.4324(3) 0.64571(18)
H101 H 0.9476 1.4158 0.6616
H102 H 0.8475 1.4114 0.6660
H103 H 0.9004 1.4874 0.6540
C126 C 1.1137(3) 1.4240(3) 0.4853(2)
H104 H 1.1036 1.4707 0.5009
C127 C 0.7612(3) 1.4215(2) 0.54229(19)
H105 H 0.7312 1.4497 0.5630
C128 C 0.5611(3) 1.3390(3) 0.59733(19)
H106 H 0.5925 1.2976 0.5933
H107 H 0.5201 1.3264 0.6203
H108 H 0.6068 1.3849 0.6194
C129 C 1.0644(4) 1.3116(3) 0.4086(3)
H109 H 1.0225 1.2823 0.3710
C130 C 1.1944(3) 1.3989(4) 0.5168(3)
H110 H 1.2390 1.4293 0.5529
C131 C 1.2086(4) 1.3311(4) 0.4954(4)
H111 H 1.2628 1.3145 0.5168
C132 C 1.1439(4) 1.2861(4) 0.4422(4)
H112 H 1.1530 1.2383 0.4286
loop_
_geom_bond_atom_site_label_1
_geom_bond_atom_site_label_2
_geom_bond_site_symmetry_1
_geom_bond_site_symmetry_2
S1 O1 1_555 1_555
S2 O4 1_555 1_555
O2 S1 1_555 1_555
O3 C7 1_555 1_555
N1 C7 1_555 1_555
C1 C2 1_555 1_555
O5 S2 1_555 1_555
C2 C5 1_555 1_555
C3 S1 1_555 1_555
C4 C1 1_555 1_555
C5 C20 1_555 1_555
C6 C3 1_555 1_555
H1 C6 1_555 1_555
H2 C6 1_555 1_555
C7 C6 1_555 1_555
C8 S1 1_555 1_555
C9 H3 1_555 1_555
C10 C8 1_555 1_555
H4 C10 1_555 1_555
C11 C4 1_555 1_555
C12 H5 1_555 1_555
C13 C12 1_555 1_555
H6 C13 1_555 1_555
C14 C10 1_555 1_555
H7 C14 1_555 1_555
C15 H8 1_555 1_555
C16 H9 1_555 1_555
C17 C12 1_555 1_555
C18 S2 1_555 1_555
H10 C18 1_555 1_555
H11 C18 1_555 1_555
C19 S2 1_555 1_555
C20 H12 1_555 1_555
C21 C14 1_555 1_555
C22 C9 1_555 1_555
H13 C22 1_555 1_555
C23 C17 1_555 1_555
H14 C23 1_555 1_555
H15 C23 1_555 1_555
H16 C23 1_555 1_555
C24 C15 1_555 1_555
H17 C24 1_555 1_555
C25 C11 1_555 1_555
H18 C25 1_555 1_555
C26 C21 1_555 1_555
H19 C26 1_555 1_555
H20 C26 1_555 1_555
H21 C26 1_555 1_555
C27 C8 1_555 1_555
H22 C27 1_555 1_555
C28 C22 1_555 1_555
H23 C28 1_555 1_555
C29 C5 1_555 1_555
H24 C29 1_555 1_555
C30 H25 1_555 1_555
C31 C20 1_555 1_555
H26 C31 1_555 1_555
C32 C25 1_555 1_555
H27 C32 1_555 1_555
C33 C29 1_555 1_555
H28 C33 1_555 1_555
S3 O9 1_555 1_555
S4 O7 1_555 1_555
O6 C38 1_555 1_555
O8 S4 1_555 1_555
N2 C38 1_555 1_555
O10 S3 1_555 1_555
C34 H29 1_555 1_555
C35 C39 1_555 1_555
C36 H30 1_555 1_555
C37 H31 1_555 1_555
C38 C41 1_555 1_555
C39 S4 1_555 1_555
C40 C34 1_555 1_555
C41 C39 1_555 1_555
H32 C41 1_555 1_555
H33 C41 1_555 1_555
C42 C35 1_555 1_555
C43 S3 1_555 1_555
C44 C48 1_555 1_555
C45 C58 1_555 1_555
C46 S4 1_555 1_555
C47 C43 1_555 1_555
H34 C47 1_555 1_555
C48 C47 1_555 1_555
H35 C48 1_555 1_555
C49 S3 1_555 1_555
H36 C49 1_555 1_555
H37 C49 1_555 1_555
C50 H38 1_555 1_555
C51 C44 1_555 1_555
H39 C51 1_555 1_555
C52 C34 1_555 1_555
H40 C52 1_555 1_555
C53 C43 1_555 1_555
H41 C53 1_555 1_555
C54 C36 1_555 1_555
H42 C54 1_555 1_555
C55 H43 1_555 1_555
C56 H44 1_555 1_555
C57 C50 1_555 1_555
H45 C57 1_555 1_555
C58 C35 1_555 1_555
C59 C40 1_555 1_555
H46 C59 1_555 1_555
H47 C59 1_555 1_555
H48 C59 1_555 1_555
C60 C37 1_555 1_555
H49 C60 1_555 1_555
C61 C36 1_555 1_555
H50 C61 1_555 1_555
C62 C42 1_555 1_555
H51 C62 1_555 1_555
C63 C55 1_555 1_555
H52 C63 1_555 1_555
C64 C45 1_555 1_555
C65 C44 1_555 1_555
H53 C65 1_555 1_555
H54 C65 1_555 1_555
H55 C65 1_555 1_555
C66 C63 1_555 1_555
H56 C66 1_555 1_555
S5 O12 1_555 1_555
S6 O14 1_555 1_555
O11 C70 1_555 1_555
O13 S5 1_555 1_555
N3 C70 1_555 1_555
C67 S5 1_555 1_555
O15 S6 1_555 1_555
C68 H57 1_555 1_555
C69 S6 1_555 1_555
C70 C79 1_555 1_555
C71 S5 1_555 1_555
C72 C67 1_555 1_555
C73 H58 1_555 1_555
C74 C81 1_555 1_555
C75 C68 1_555 1_555
H59 C75 1_555 1_555
C76 C73 1_555 1_555
C77 H60 1_555 1_555
C78 C69 1_555 1_555
H61 C78 1_555 1_555
C79 C67 1_555 1_555
H62 C79 1_555 1_555
H63 C79 1_555 1_555
C80 H64 1_555 1_555
C81 H65 1_555 1_555
C82 C83 1_555 1_555
C83 C89 1_555 1_555
C84 S6 1_555 1_555
H66 C84 1_555 1_555
H67 C84 1_555 1_555
C85 H68 1_555 1_555
C86 C69 1_555 1_555
H69 C86 1_555 1_555
C87 C80 1_555 1_555
H70 C87 1_555 1_555
C88 C71 1_555 1_555
H71 C88 1_555 1_555
C89 C72 1_555 1_555
C90 C82 1_555 1_555
H72 C90 1_555 1_555
C91 C74 1_555 1_555
H73 C91 1_555 1_555
H74 C91 1_555 1_555
H75 C91 1_555 1_555
C92 C82 1_555 1_555
H76 C92 1_555 1_555
C93 C77 1_555 1_555
H77 C93 1_555 1_555
C94 C76 1_555 1_555
H78 C94 1_555 1_555
H79 C94 1_555 1_555
H80 C94 1_555 1_555
C95 C80 1_555 1_555
H81 C95 1_555 1_555
C96 C92 1_555 1_555
H82 C96 1_555 1_555
C97 C74 1_555 1_555
H83 C97 1_555 1_555
C98 C72 1_555 1_555
C99 C85 1_555 1_555
H84 C99 1_555 1_555
S7 O17 1_555 1_555
S8 O16 1_555 1_555
O18 S7 1_555 1_555
O19 S8 1_555 1_555
O20 C103 1_555 1_555
N4 C103 1_555 1_555
C100 S8 1_555 1_555
C101 S7 1_555 1_555
C102 C104 1_555 1_555
C103 C105 1_555 1_555
C104 H85 1_555 1_555
C105 C100 1_555 1_555
H86 C105 1_555 1_555
H87 C105 1_555 1_555
C106 C111 1_555 1_555
C107 C101 1_555 1_555
H88 C107 1_555 1_555
C108 S7 1_555 1_555
H89 C108 1_555 1_555
H90 C108 1_555 1_555
C109 C100 1_555 1_555
C110 S8 1_555 1_555
C111 C109 1_555 1_555
C112 C124 1_555 1_555
C113 H91 1_555 1_555
C114 C113 1_555 1_555
C115 C101 1_555 1_555
H92 C115 1_555 1_555
C116 C104 1_555 1_555
H93 C116 1_555 1_555
C117 C106 1_555 1_555
C118 C116 1_555 1_555
H94 C118 1_555 1_555
C119 C118 1_555 1_555
H95 C119 1_555 1_555
C120 C102 1_555 1_555
H96 C120 1_555 1_555
C121 C110 1_555 1_555
H97 C121 1_555 1_555
C122 C107 1_555 1_555
H98 C122 1_555 1_555
C123 C110 1_555 1_555
H99 C123 1_555 1_555
C124 C121 1_555 1_555
H100 C124 1_555 1_555
C125 C112 1_555 1_555
H101 C125 1_555 1_555
H102 C125 1_555 1_555
H103 C125 1_555 1_555
C126 C117 1_555 1_555
H104 C126 1_555 1_555
C127 C112 1_555 1_555
H105 C127 1_555 1_555
C128 C114 1_555 1_555
H106 C128 1_555 1_555
H107 C128 1_555 1_555
H108 C128 1_555 1_555
C129 C117 1_555 1_555
H109 C129 1_555 1_555
C130 C126 1_555 1_555
H110 C130 1_555 1_555
C131 C130 1_555 1_555
H111 C131 1_555 1_555
C132 C129 1_555 1_555
H112 C132 1_555 1_555
N1 C18 1_555 1_555
C3 C4 1_555 1_555
C9 C11 1_555 1_555
C13 C19 1_555 1_555
C15 C19 1_555 1_555
C16 C21 1_555 1_555
C16 C27 1_555 1_555
C17 C24 1_555 1_555
C28 C32 1_555 1_555
C30 C31 1_555 1_555
C30 C33 1_555 1_555
N2 C49 1_555 1_555
C37 C46 1_555 1_555
C40 C60 1_555 1_555
C42 C54 1_555 1_555
C46 C52 1_555 1_555
C50 C64 1_555 1_555
C51 C53 1_555 1_555
C55 C57 1_555 1_555
C56 C61 1_555 1_555
C56 C62 1_555 1_555
C64 C66 1_555 1_555
N3 C84 1_555 1_555
C68 C71 1_555 1_555
C73 C88 1_555 1_555
C75 C76 1_555 1_555
C77 C98 1_555 1_555
C78 C97 1_555 1_555
C81 C86 1_555 1_555
C85 C90 1_555 1_555
C87 C98 1_555 1_555
C93 C95 1_555 1_555
C96 C99 1_555 1_555
N4 C108 1_555 1_555
C102 C109 1_555 1_555
C113 C115 1_555 1_555
C114 C122 1_555 1_555
C119 C120 1_555 1_555
C123 C127 1_555 1_555
C131 C132 1_555 1_555

#END
