
#######################################################################
#
#                 Cambridge Crystallographic Data Centre
#                                CCDC 
#
#######################################################################
#
# If this CIF has been generated from an entry in the Cambridge 
# Structural Database, then it will include bibliographic, chemical, 
# crystal, experimental, refinement or atomic coordinate data resulting 
# from the CCDC's data processing and validation procedures.
#
#######################################################################

data_DUKHEX01
_chemical_formula_moiety         'C14 H11 N1 O2'
_chemical_name_systematic        2-(4H-1,3-benzoxazin-2-yl)phenol
_symmetry_cell_setting           monoclinic
_symmetry_space_group_name_H-M   'P 2/n'
_symmetry_Int_Tables_number      13
_space_group_name_Hall           '-P 2yac'
loop_
_symmetry_equiv_pos_site_id
_symmetry_equiv_pos_as_xyz
1 x,y,z
2 1/2-x,y,1/2-z
3 -x,-y,-z
4 1/2+x,-y,1/2+z
_cell_length_a                   14.175(7)
_cell_length_b                   5.208(3)
_cell_length_c                   16.102(9)
_cell_angle_alpha                90
_cell_angle_beta                 114.365(15)
_cell_angle_gamma                90
_cell_volume                     1082.83
_exptl_crystal_colour            colorless
_exptl_crystal_description       block
_cell_formula_units_Z            4
loop_
_atom_site_label
_atom_site_type_symbol
_atom_site_fract_x
_atom_site_fract_y
_atom_site_fract_z
N1 N 0.78208(10) 0.1900(2) 0.65755(9)
O1 O 0.84519(9) 0.3345(2) 0.55219(8)
C1 C 0.93476(11) 0.0044(3) 0.65505(10)
C2 C 0.68949(11) 0.5333(3) 0.54778(10)
C3 C 0.84700(12) 0.1847(3) 0.62259(10)
C4 C 0.76520(12) 0.5138(3) 0.51606(10)
O2 O 0.87947(9) -0.1779(2) 0.76481(9)
H1 H 0.8359 -0.0648 0.7433
C5 C 0.76758(14) 0.6700(3) 0.44749(12)
H2 H 0.8202 0.6543 0.4275
C6 C 0.94486(12) -0.1734(3) 0.72376(11)
C7 C 1.02560(14) -0.3505(3) 0.75184(12)
H3 H 1.0322 -0.4686 0.7973
C8 C 0.61307(13) 0.7181(3) 0.50834(12)
H4 H 0.5611 0.7361 0.5290
C9 C 0.69202(13) 0.3587(3) 0.62288(12)
H5 H 0.6915 0.4624 0.6727
H6 H 0.6298 0.2543 0.6004
C10 C 1.00713(13) -0.0009(3) 0.61750(11)
H7 H 1.0018 0.1170 0.5724
C11 C 1.09506(14) -0.3524(3) 0.71330(13)
H8 H 1.1485 -0.4720 0.7325
C12 C 1.08667(15) -0.1774(3) 0.64580(13)
H9 H 1.1343 -0.1789 0.6198
C13 C 0.61287(14) 0.8745(3) 0.43945(12)
H10 H 0.5608 0.9960 0.4135
C14 C 0.68982(15) 0.8504(3) 0.40920(12)
H11 H 0.6898 0.9560 0.3626
loop_
_geom_bond_atom_site_label_1
_geom_bond_atom_site_label_2
_geom_bond_site_symmetry_1
_geom_bond_site_symmetry_2
N1 C3 1_555 1_555
O1 C3 1_555 1_555
C1 C3 1_555 1_555
C2 C4 1_555 1_555
C4 O1 1_555 1_555
O2 H1 1_555 1_555
C5 C4 1_555 1_555
H2 C5 1_555 1_555
C6 C1 1_555 1_555
C7 C6 1_555 1_555
H3 C7 1_555 1_555
C8 C2 1_555 1_555
H4 C8 1_555 1_555
C9 N1 1_555 1_555
H5 C9 1_555 1_555
H6 C9 1_555 1_555
C10 C1 1_555 1_555
H7 C10 1_555 1_555
C11 C7 1_555 1_555
H8 C11 1_555 1_555
C12 C10 1_555 1_555
H9 C12 1_555 1_555
C13 C8 1_555 1_555
H10 C13 1_555 1_555
C14 C5 1_555 1_555
H11 C14 1_555 1_555
C2 C9 1_555 1_555
O2 C6 1_555 1_555
C11 C12 1_555 1_555
C13 C14 1_555 1_555

#END
