
#######################################################################
#
#                 Cambridge Crystallographic Data Centre
#                                CCDC 
#
#######################################################################
#
# If this CIF has been generated from an entry in the Cambridge 
# Structural Database, then it will include bibliographic, chemical, 
# crystal, experimental, refinement or atomic coordinate data resulting 
# from the CCDC's data processing and validation procedures.
#
#######################################################################

data_DUKRAE
_chemical_formula_moiety         'C32 H36 N2'
_chemical_name_systematic        N,N,N',N'-Tetrabenzylbutane-1,4-diamine
_symmetry_cell_setting           triclinic
_symmetry_space_group_name_H-M   'P -1'
_symmetry_Int_Tables_number      2
_space_group_name_Hall           '-P 1'
loop_
_symmetry_equiv_pos_site_id
_symmetry_equiv_pos_as_xyz
1 x,y,z
2 -x,-y,-z
_cell_length_a                   5.8685(9)
_cell_length_b                   9.7542(16)
_cell_length_c                   12.3062(19)
_cell_angle_alpha                107.978(11)
_cell_angle_beta                 95.253(12)
_cell_angle_gamma                94.608(14)
_cell_volume                     662.83
_exptl_crystal_colour            colorless
_exptl_crystal_description       plate
_cell_formula_units_Z            1
_exptl_crystal_recrystallization_method ethanol
loop_
_atom_site_label
_atom_site_type_symbol
_atom_site_fract_x
_atom_site_fract_y
_atom_site_fract_z
N1 N 0.7383(5) 0.8485(3) 0.6631(2)
C1 C 0.6262(9) 0.3849(6) 0.7653(4)
H1 H 0.6035 0.3168 0.8031
C2 C 0.8128(7) 0.3864(5) 0.7065(4)
H2 H 0.9173 0.3188 0.7035
C3 C 0.8443(7) 0.4897(5) 0.6517(3)
H3 H 0.9729 0.4917 0.6131
C4 C 0.6920(6) 0.5887(5) 0.6526(3)
C5 C 0.7256(7) 0.6974(5) 0.5890(3)
H4 H 0.8665 0.6837 0.5534
H5 H 0.5989 0.6786 0.5280
C6 C 0.7357(6) 0.9451(4) 0.5939(3)
H6 H 0.8365 0.9137 0.5349
H7 H 0.7978 1.0420 0.6426
C7 C 0.5012(6) 0.9518(4) 0.5368(3)
H8 H 0.4374 0.8545 0.4897
H9 H 0.4015 0.9856 0.5959
C8 C 0.9473(5) 0.8854(4) 0.7464(3)
H10 H 1.0811 0.8890 0.7061
H11 H 0.9590 0.8099 0.7819
C9 C 0.9483(5) 1.0292(4) 0.8390(3)
C10 C 1.1342(6) 1.1370(5) 0.8643(4)
H12 H 1.2572 1.1215 0.8211
C11 C 1.1393(7) 1.2644(5) 0.9510(4)
H13 H 1.2662 1.3340 0.9666
C12 C 0.9602(8) 1.2914(5) 1.0155(4)
H14 H 0.9637 1.3789 1.0742
C13 C 0.7756(7) 1.1871(5) 0.9917(4)
H15 H 0.6530 1.2040 1.0350
C14 C 0.7689(6) 1.0578(5) 0.9049(3)
H16 H 0.6419 0.9885 0.8903
C15 C 0.4723(8) 0.4848(6) 0.7680(5)
H17 H 0.3447 0.4829 0.8074
C16 C 0.5039(6) 0.5877(5) 0.7135(4)
H18 H 0.4003 0.6559 0.7174
N1A N 0.2617(5) 1.1515(3) 0.3369(2)
C1A C 0.3738(9) 1.6151(6) 0.2347(4)
H1A H 0.3965 1.6832 0.1969
C2A C 0.1872(7) 1.6136(5) 0.2935(4)
H2A H 0.0827 1.6812 0.2965
C3A C 0.1557(7) 1.5103(5) 0.3483(3)
H3A H 0.0271 1.5083 0.3869
C4A C 0.3080(6) 1.4113(5) 0.3474(3)
C5A C 0.2744(7) 1.3026(5) 0.4110(3)
H4A H 0.1335 1.3163 0.4466
H5A H 0.4011 1.3214 0.4720
C6A C 0.2643(6) 1.0549(4) 0.4061(3)
H6A H 0.1635 1.0863 0.4651
H7A H 0.2022 0.9580 0.3574
C7A C 0.4988(6) 1.0482(4) 0.4632(3)
H8A H 0.5626 1.1455 0.5103
H9A H 0.5985 1.0144 0.4041
C8A C 0.0527(5) 1.1146(4) 0.2536(3)
H10A H -0.0811 1.1110 0.2939
H11A H 0.0410 1.1901 0.2181
C9A C 0.0517(5) 0.9708(4) 0.1610(3)
C10A C -0.1342(6) 0.8630(5) 0.1357(4)
H12A H -0.2572 0.8785 0.1789
C11A C -0.1393(7) 0.7356(5) 0.0490(4)
H13A H -0.2662 0.6660 0.0334
C12A C 0.0398(8) 0.7086(5) -0.0155(4)
H14A H 0.0363 0.6211 -0.0742
C13A C 0.2244(7) 0.8129(5) 0.0083(4)
H15A H 0.3470 0.7960 -0.0350
C14A C 0.2311(6) 0.9422(5) 0.0951(3)
H16A H 0.3581 1.0115 0.1097
C15A C 0.5277(8) 1.5152(6) 0.2320(5)
H17A H 0.6553 1.5171 0.1926
C16A C 0.4961(6) 1.4123(5) 0.2865(4)
H18A H 0.5997 1.3441 0.2826
loop_
_geom_bond_atom_site_label_1
_geom_bond_atom_site_label_2
_geom_bond_site_symmetry_1
_geom_bond_site_symmetry_2
N1 C5 1_555 1_555
C1 H1 1_555 1_555
C2 C1 1_555 1_555
H2 C2 1_555 1_555
C3 C2 1_555 1_555
H3 C3 1_555 1_555
C4 C3 1_555 1_555
C5 C4 1_555 1_555
H4 C5 1_555 1_555
H5 C5 1_555 1_555
C6 N1 1_555 1_555
H6 C6 1_555 1_555
H7 C6 1_555 1_555
C7 C6 1_555 1_555
H8 C7 1_555 1_555
H9 C7 1_555 1_555
C8 N1 1_555 1_555
H10 C8 1_555 1_555
H11 C8 1_555 1_555
C9 C8 1_555 1_555
C10 C9 1_555 1_555
H12 C10 1_555 1_555
C11 C10 1_555 1_555
H13 C11 1_555 1_555
C12 C11 1_555 1_555
H14 C12 1_555 1_555
C13 C12 1_555 1_555
H15 C13 1_555 1_555
C14 C9 1_555 1_555
H16 C14 1_555 1_555
C15 C1 1_555 1_555
H17 C15 1_555 1_555
C16 C4 1_555 1_555
H18 C16 1_555 1_555
N1A C5A 1_555 1_555
C1A H1A 1_555 1_555
C2A C1A 1_555 1_555
H2A C2A 1_555 1_555
C3A C2A 1_555 1_555
H3A C3A 1_555 1_555
C4A C3A 1_555 1_555
C5A C4A 1_555 1_555
H4A C5A 1_555 1_555
H5A C5A 1_555 1_555
C6A N1A 1_555 1_555
H6A C6A 1_555 1_555
H7A C6A 1_555 1_555
C7A C7 1_555 1_555
H8A C7A 1_555 1_555
H9A C7A 1_555 1_555
C8A N1A 1_555 1_555
H10A C8A 1_555 1_555
H11A C8A 1_555 1_555
C9A C8A 1_555 1_555
C10A C9A 1_555 1_555
H12A C10A 1_555 1_555
C11A C10A 1_555 1_555
H13A C11A 1_555 1_555
C12A C11A 1_555 1_555
H14A C12A 1_555 1_555
C13A C12A 1_555 1_555
H15A C13A 1_555 1_555
C14A C9A 1_555 1_555
H16A C14A 1_555 1_555
C15A C1A 1_555 1_555
H17A C15A 1_555 1_555
C16A C4A 1_555 1_555
H18A C16A 1_555 1_555
C13 C14 1_555 1_555
C15 C16 1_555 1_555
C6A C7A 1_555 1_555
C13A C14A 1_555 1_555
C15A C16A 1_555 1_555

#END
