
#######################################################################
#
#                 Cambridge Crystallographic Data Centre
#                                CCDC 
#
#######################################################################
#
# If this CIF has been generated from an entry in the Cambridge 
# Structural Database, then it will include bibliographic, chemical, 
# crystal, experimental, refinement or atomic coordinate data resulting 
# from the CCDC's data processing and validation procedures.
#
#######################################################################

data_DULZOZ01
_chemical_formula_moiety         'C4 H12 N1 1+,I5 1-'
_chemical_name_systematic        'Tetramethylammonium pentaiodide'
_symmetry_cell_setting           monoclinic
_symmetry_space_group_name_H-M   'C 2/c'
_symmetry_Int_Tables_number      15
_space_group_name_Hall           '-C 2yn'
loop_
_symmetry_equiv_pos_site_id
_symmetry_equiv_pos_as_xyz
1 x,y,z
2 1/2+x,1/2+y,z
3 x,-y,1/2+z
4 1/2+x,1/2-y,1/2+z
5 -x,-y,-z
6 1/2-x,1/2-y,-z
7 -x,y,1/2-z
8 1/2-x,1/2+y,1/2-z
_cell_length_a                   13.3110(10)
_cell_length_b                   13.5395(11)
_cell_length_c                   8.8727(7)
_cell_angle_alpha                90
_cell_angle_beta                 107.801(2)
_cell_angle_gamma                90
_cell_volume                     1522.52
_exptl_crystal_colour            'dark purple'
_exptl_crystal_description       prism
_chemical_melting_point          398-400K
_cell_formula_units_Z            4
loop_
_atom_site_label
_atom_site_type_symbol
_atom_site_fract_x
_atom_site_fract_y
_atom_site_fract_z
I1 I 0.0000 0.17657(6) 0.2500
I2 I 0.16060(4) 0.01915(4) 0.19877(6)
I3 I 0.30588(5) -0.12546(5) 0.18005(8)
I2F I -0.16060(4) 0.01915(4) 0.30123(6)
I3F I -0.30588(5) -0.12546(5) 0.31995(8)
N1 N 0.0000 0.6882(8) 0.2500
C1 C 0.032(2) 0.6330(18) 0.135(2)
H1 H -0.0277 0.5980 0.0673
H2 H 0.0859 0.5868 0.1872
H3 H 0.0589 0.6774 0.0718
C2 C 0.084(3) 0.748(3) 0.333(4)
H4 H 0.1427 0.7387 0.2930
H5 H 0.1050 0.7316 0.4436
H6 H 0.0626 0.8164 0.3201
C1F C -0.032(2) 0.6330(18) 0.365(2)
H1F H 0.0277 0.5980 0.4327
H2F H -0.0859 0.5868 0.3128
H3F H -0.0589 0.6774 0.4282
C2F C -0.084(3) 0.748(3) 0.167(4)
H4F H -0.1427 0.7387 0.2070
H5F H -0.1050 0.7316 0.0564
H6F H -0.0626 0.8164 0.1799
loop_
_geom_bond_atom_site_label_1
_geom_bond_atom_site_label_2
_geom_bond_site_symmetry_1
_geom_bond_site_symmetry_2
I1 I2 1_555 1_555
I2 I3 1_555 1_555
N1 C1 1_555 1_555
C1 H1 1_555 1_555
H2 C1 1_555 1_555
H3 C1 1_555 1_555
C2 N1 1_555 1_555
H4 C2 1_555 1_555
H5 C2 1_555 1_555
H6 C2 1_555 1_555
I2F I1 1_555 1_555
I3F I2F 1_555 1_555
C1F N1 1_555 1_555
H1F C1F 1_555 1_555
H2F C1F 1_555 1_555
H3F C1F 1_555 1_555
C2F N1 1_555 1_555
H4F C2F 1_555 1_555
H5F C2F 1_555 1_555
H6F C2F 1_555 1_555

#END
