
#######################################################################
#
#                 Cambridge Crystallographic Data Centre
#                                CCDC 
#
#######################################################################
#
# If this CIF has been generated from an entry in the Cambridge 
# Structural Database, then it will include bibliographic, chemical, 
# crystal, experimental, refinement or atomic coordinate data resulting 
# from the CCDC's data processing and validation procedures.
#
#######################################################################

data_DUMPIL
_chemical_formula_moiety         'C29 H29 N3 O3'
_chemical_name_systematic        
'Ethyl 2-([(1Z)-(3-methyl-5-oxo-1-phenyl-4,5-dihydro-1H-pyrazol-4-ylidene)(p-tolyl)methyl]amino)-3-phenylpropanoate'
_symmetry_cell_setting           triclinic
_symmetry_space_group_name_H-M   'P -1'
_symmetry_Int_Tables_number      2
_space_group_name_Hall           '-P 1'
loop_
_symmetry_equiv_pos_site_id
_symmetry_equiv_pos_as_xyz
1 x,y,z
2 -x,-y,-z
_cell_length_a                   11.0637(11)
_cell_length_b                   13.2746(14)
_cell_length_c                   20.299(2)
_cell_angle_alpha                101.869(2)
_cell_angle_beta                 97.923(2)
_cell_angle_gamma                112.861(2)
_cell_volume                     2608.78
_exptl_crystal_colour            yellow
_exptl_crystal_description       block
_cell_formula_units_Z            4
_exptl_crystal_recrystallization_method ethanol
loop_
_atom_site_label
_atom_site_type_symbol
_atom_site_fract_x
_atom_site_fract_y
_atom_site_fract_z
O1 O 0.71923(17) 0.81845(14) 0.49334(9)
O2 O 0.3638(2) 0.8629(2) 0.49767(10)
O3 O 0.29842(17) 0.92431(15) 0.59120(9)
N1 N 0.77524(18) 0.66606(16) 0.49565(9)
N2 N 0.74399(19) 0.57817(16) 0.52761(9)
N3 N 0.55387(18) 0.82573(16) 0.57946(9)
H1 H 0.5857 0.8429 0.5449
C1 C 0.9533(3) 0.6259(2) 0.45793(15)
H3 H 0.9543 0.5868 0.4910
C2 C 1.0407(3) 0.6352(3) 0.4136(2)
H4 H 1.1001 0.6016 0.4171
C3 C 1.0397(4) 0.6932(3) 0.3653(2)
H5 H 1.0988 0.6993 0.3364
C4 C 0.9522(3) 0.7420(3) 0.35953(17)
H6 H 0.9515 0.7809 0.3263
C5 C 0.8643(3) 0.7342(2) 0.40263(14)
H7 H 0.8050 0.7679 0.3987
C6 C 0.8655(2) 0.6759(2) 0.45169(13)
C7 C 0.7118(2) 0.7346(2) 0.51423(11)
C8 C 0.6389(2) 0.68835(18) 0.56273(10)
C9 C 0.6635(2) 0.59172(19) 0.56667(11)
C10 C 0.6086(3) 0.5064(2) 0.60524(12)
H8 H 0.6391 0.4479 0.5940
H9 H 0.5116 0.4729 0.5923
H10 H 0.6397 0.5435 0.6542
C11 C 0.5662(2) 0.73839(18) 0.59647(10)
C12 C 0.5048(2) 0.69619(18) 0.65205(10)
C13 C 0.3756(2) 0.6121(2) 0.63623(11)
H11 H 0.3223 0.5857 0.5912
C14 C 0.3246(3) 0.5665(2) 0.68735(12)
H12 H 0.2368 0.5095 0.6760
C15 C 0.3998(3) 0.6030(2) 0.75424(12)
C16 C 0.5282(3) 0.6890(2) 0.76938(12)
H13 H 0.5810 0.7159 0.8145
C17 C 0.5807(2) 0.7364(2) 0.71958(11)
H14 H 0.6672 0.7954 0.7315
C18 C 0.3415(3) 0.5521(3) 0.80965(15)
H15 H 0.2749 0.5776 0.8210
H16 H 0.4126 0.5760 0.8504
H17 H 0.3003 0.4704 0.7925
C19 C 0.4935(2) 0.89585(19) 0.61186(11)
H18 H 0.4596 0.8685 0.6500
C20 C 0.5985(2) 1.0210(2) 0.64057(12)
H19 H 0.6400 1.0446 0.6039
H20 H 0.5525 1.0681 0.6543
C21 C 0.7078(2) 1.04170(19) 0.70174(12)
C22 C 0.8205(2) 1.0246(2) 0.69331(13)
H21 H 0.8304 0.9999 0.6489
C23 C 0.9190(3) 1.0439(2) 0.75043(16)
H22 H 0.9946 1.0320 0.7443
C24 C 0.9055(3) 1.0806(2) 0.81618(15)
H23 H 0.9723 1.0943 0.8545
C25 C 0.7943(3) 1.0970(2) 0.82516(14)
H24 H 0.7846 1.1215 0.8696
C26 C 0.6963(3) 1.0772(2) 0.76821(13)
H25 H 0.6202 1.0880 0.7748
C27 C 0.3774(3) 0.8892(2) 0.55943(14)
C28 C 0.1891(3) 0.9351(3) 0.54875(16)
H26 H 0.1342 0.8644 0.5125
H27 H 0.2257 0.9955 0.5271
C29 C 0.1067(3) 0.9618(3) 0.59471(19)
H28 H 0.0646 0.8986 0.6126
H29 H 0.0384 0.9759 0.5690
H30 H 0.1636 1.0284 0.6325
O4 O 0.24307(14) 0.80519(12) 1.00473(7)
O5 O -0.08684(17) 0.87650(15) 1.01365(8)
O6 O -0.25145(15) 0.84962(13) 0.92501(7)
N4 N 0.29698(16) 0.65042(14) 0.99683(9)
N5 N 0.23374(18) 0.53247(14) 0.96488(9)
N6 N -0.01134(18) 0.73294(15) 0.92980(9)
H2 H 0.0499 0.7785 0.9666
C30 C 0.4752(2) 0.7986(2) 1.09284(12)
H31 H 0.4203 0.8358 1.1002
C31 C 0.6034(3) 0.8419(2) 1.13540(14)
H32 H 0.6349 0.9087 1.1714
C32 C 0.6846(3) 0.7867(3) 1.12470(16)
H33 H 0.7700 0.8153 1.1541
C33 C 0.6400(3) 0.6900(3) 1.07104(16)
H34 H 0.6958 0.6537 1.0633
C34 C 0.5129(2) 0.6461(2) 1.02831(13)
H35 H 0.4828 0.5801 0.9918
C35 C 0.4297(2) 0.70014(18) 1.03960(11)
C36 C 0.2138(2) 0.70135(18) 0.98212(10)
C37 C 0.0921(2) 0.61086(17) 0.93655(10)
C38 C 0.1131(2) 0.50964(17) 0.92975(10)
C39 C 0.0195(2) 0.38911(18) 0.89275(12)
H36 H 0.0112 0.3770 0.8437
H37 H -0.0676 0.3725 0.9024
H38 H 0.0544 0.3399 0.9082
C40 C -0.0169(2) 0.62915(18) 0.90837(10)
C41 C -0.1392(2) 0.54022(17) 0.85620(10)
C42 C -0.1335(2) 0.4956(2) 0.78968(11)
H39 H -0.0510 0.5193 0.7775
C43 C -0.2494(3) 0.4158(2) 0.74106(12)
H40 H -0.2436 0.3865 0.6965
C44 C -0.3731(3) 0.3787(2) 0.75699(13)
C45 C -0.3777(2) 0.4225(2) 0.82360(14)
H41 H -0.4601 0.3975 0.8358
C46 C -0.2635(2) 0.5025(2) 0.87262(12)
H42 H -0.2698 0.5314 0.9171
C47 C -0.5008(3) 0.2919(2) 0.70330(15)
H43 H -0.4778 0.2659 0.6612
H44 H -0.5607 0.3265 0.6942
H45 H -0.5448 0.2283 0.7206
C48 C -0.0969(2) 0.77755(18) 0.89797(11)
H46 H -0.1760 0.7146 0.8644
C49 C -0.0201(2) 0.86357(19) 0.86083(12)
H47 H -0.0807 0.8914 0.8401
H48 H 0.0539 0.9282 0.8950
C50 C 0.0360(2) 0.81547(19) 0.80509(12)
C51 C 0.1668(3) 0.8278(2) 0.81830(15)
H49 H 0.2226 0.8663 0.8626
C52 C 0.2163(3) 0.7838(3) 0.76661(19)
H50 H 0.3050 0.7924 0.7764
C53 C 0.1357(4) 0.7275(3) 0.70104(17)
H51 H 0.1699 0.6993 0.6660
C54 C 0.0062(3) 0.7131(3) 0.68762(14)
H52 H -0.0496 0.6736 0.6434
C55 C -0.0432(3) 0.7568(2) 0.73906(13)
H53 H -0.1326 0.7464 0.7290
C56 C -0.1432(2) 0.83904(18) 0.95348(12)
C57 C -0.3000(2) 0.9187(2) 0.96945(12)
H54 H -0.2362 0.9984 0.9827
H55 H -0.3104 0.8949 1.0112
C58 C -0.4329(3) 0.9022(2) 0.92927(14)
H56 H -0.4228 0.9202 0.8863
H57 H -0.4643 0.9516 0.9558
H58 H -0.4973 0.8244 0.9199
loop_
_geom_bond_atom_site_label_1
_geom_bond_atom_site_label_2
_geom_bond_site_symmetry_1
_geom_bond_site_symmetry_2
O1 C7 1_555 1_555
O2 C27 1_555 1_555
O3 C27 1_555 1_555
O4 C36 1_555 1_555
O5 C56 1_555 1_555
O6 C56 1_555 1_555
N1 N2 1_555 1_555
N2 C9 1_555 1_555
N3 H1 1_555 1_555
N4 N5 1_555 1_555
N5 C38 1_555 1_555
N6 H2 1_555 1_555
C1 H3 1_555 1_555
C2 C1 1_555 1_555
H4 C2 1_555 1_555
C3 C2 1_555 1_555
H5 C3 1_555 1_555
C4 C3 1_555 1_555
H6 C4 1_555 1_555
C5 C4 1_555 1_555
H7 C5 1_555 1_555
C6 N1 1_555 1_555
C7 N1 1_555 1_555
C8 C7 1_555 1_555
C9 C8 1_555 1_555
C10 C9 1_555 1_555
H8 C10 1_555 1_555
H9 C10 1_555 1_555
H10 C10 1_555 1_555
C11 N3 1_555 1_555
C12 C11 1_555 1_555
C13 C12 1_555 1_555
H11 C13 1_555 1_555
C14 C13 1_555 1_555
H12 C14 1_555 1_555
C15 C14 1_555 1_555
C16 C15 1_555 1_555
H13 C16 1_555 1_555
C17 C12 1_555 1_555
H14 C17 1_555 1_555
C18 C15 1_555 1_555
H15 C18 1_555 1_555
H16 C18 1_555 1_555
H17 C18 1_555 1_555
C19 N3 1_555 1_555
H18 C19 1_555 1_555
C20 C19 1_555 1_555
H19 C20 1_555 1_555
H20 C20 1_555 1_555
C21 C20 1_555 1_555
C22 C21 1_555 1_555
H21 C22 1_555 1_555
C23 C22 1_555 1_555
H22 C23 1_555 1_555
C24 C23 1_555 1_555
H23 C24 1_555 1_555
C25 C24 1_555 1_555
H24 C25 1_555 1_555
C26 C21 1_555 1_555
H25 C26 1_555 1_555
C27 C19 1_555 1_555
C28 O3 1_555 1_555
H26 C28 1_555 1_555
H27 C28 1_555 1_555
C29 C28 1_555 1_555
H28 C29 1_555 1_555
H29 C29 1_555 1_555
H30 C29 1_555 1_555
C30 H31 1_555 1_555
C31 C30 1_555 1_555
H32 C31 1_555 1_555
C32 C31 1_555 1_555
H33 C32 1_555 1_555
C33 C32 1_555 1_555
H34 C33 1_555 1_555
C34 C33 1_555 1_555
H35 C34 1_555 1_555
C35 N4 1_555 1_555
C36 N4 1_555 1_555
C37 C36 1_555 1_555
C38 C37 1_555 1_555
C39 C38 1_555 1_555
H36 C39 1_555 1_555
H37 C39 1_555 1_555
H38 C39 1_555 1_555
C40 N6 1_555 1_555
C41 C40 1_555 1_555
C42 C41 1_555 1_555
H39 C42 1_555 1_555
C43 C42 1_555 1_555
H40 C43 1_555 1_555
C44 C43 1_555 1_555
C45 C44 1_555 1_555
H41 C45 1_555 1_555
C46 C41 1_555 1_555
H42 C46 1_555 1_555
C47 C44 1_555 1_555
H43 C47 1_555 1_555
H44 C47 1_555 1_555
H45 C47 1_555 1_555
C48 N6 1_555 1_555
H46 C48 1_555 1_555
C49 C48 1_555 1_555
H47 C49 1_555 1_555
H48 C49 1_555 1_555
C50 C49 1_555 1_555
C51 C50 1_555 1_555
H49 C51 1_555 1_555
C52 C51 1_555 1_555
H50 C52 1_555 1_555
C53 C52 1_555 1_555
H51 C53 1_555 1_555
C54 C53 1_555 1_555
H52 C54 1_555 1_555
C55 C50 1_555 1_555
H53 C55 1_555 1_555
C56 C48 1_555 1_555
C57 O6 1_555 1_555
H54 C57 1_555 1_555
H55 C57 1_555 1_555
C58 C57 1_555 1_555
H56 C58 1_555 1_555
H57 C58 1_555 1_555
H58 C58 1_555 1_555
C1 C6 1_555 1_555
C5 C6 1_555 1_555
C8 C11 1_555 1_555
C16 C17 1_555 1_555
C25 C26 1_555 1_555
C30 C35 1_555 1_555
C34 C35 1_555 1_555
C37 C40 1_555 1_555
C45 C46 1_555 1_555
C54 C55 1_555 1_555

#END
