
#######################################################################
#
#                 Cambridge Crystallographic Data Centre
#                                CCDC 
#
#######################################################################
#
# If this CIF has been generated from an entry in the Cambridge 
# Structural Database, then it will include bibliographic, chemical, 
# crystal, experimental, refinement or atomic coordinate data resulting 
# from the CCDC's data processing and validation procedures.
#
#######################################################################

data_DUMVOX
_chemical_formula_moiety         'C21 H22 N2 O5'
_chemical_name_systematic        
"Ethyl 2-amino-7,7-dimethyl-2',5-dioxospiro[5,6,7,8-tetrahydro-4H-chromene-4,3'(2'H)-1H-indole]-3-carboxylate"
_symmetry_cell_setting           monoclinic
_symmetry_space_group_name_H-M   'P 21/n'
_symmetry_Int_Tables_number      14
_space_group_name_Hall           '-P 2yn'
loop_
_symmetry_equiv_pos_site_id
_symmetry_equiv_pos_as_xyz
1 x,y,z
2 1/2-x,1/2+y,1/2-z
3 -x,-y,-z
4 1/2+x,1/2-y,1/2+z
_cell_length_a                   8.4298(14)
_cell_length_b                   11.6791(17)
_cell_length_c                   19.024(3)
_cell_angle_alpha                90
_cell_angle_beta                 99.136(4)
_cell_angle_gamma                90
_cell_volume                     1849.2
_exptl_crystal_colour            colorless
_exptl_crystal_description       block
_chemical_melting_point          '518-519 K'
_cell_formula_units_Z            4
_exptl_crystal_recrystallization_method ethanol
loop_
_atom_site_label
_atom_site_type_symbol
_atom_site_fract_x
_atom_site_fract_y
_atom_site_fract_z
O1 O 0.58254(15) 0.33374(11) 0.25244(6)
O2 O 0.34545(16) 0.04523(12) 0.09660(7)
O3 O 0.76243(15) 0.05137(11) 0.13053(7)
O4 O 0.93311(15) 0.42547(11) 0.12924(7)
O5 O 0.84779(15) 0.28028(12) 0.05510(7)
N1 N 0.7795(2) 0.45339(14) 0.23971(9)
H1 H 0.8561 0.4825 0.2187
H2 H 0.7603 0.4822 0.2803
N2 N 0.62096(18) 0.09772(13) 0.02113(8)
H3 H 0.6506 0.0396 -0.0032
C1 C 0.4876(2) 0.24020(15) 0.23304(9)
C2 C 0.4815(2) 0.18729(15) 0.17020(9)
C3 C 0.5860(2) 0.22220(15) 0.11542(9)
C4 C 0.7072(2) 0.31183(15) 0.14793(9)
C5 C 0.6927(2) 0.36589(16) 0.21015(9)
C6 C 0.3686(2) 0.09070(16) 0.15531(10)
C7 C 0.2872(2) 0.04575(16) 0.21471(10)
H4 H 0.3577 -0.0125 0.2415
H5 H 0.1864 0.0070 0.1936
C8 C 0.2471(2) 0.13669(16) 0.26702(9)
C9 C 0.3984(2) 0.20711(17) 0.29162(10)
H6 H 0.3679 0.2775 0.3152
H7 H 0.4710 0.1624 0.3275
C10 C 0.1122(2) 0.21397(18) 0.23047(11)
H8 H 0.1494 0.2558 0.1915
H9 H 0.0818 0.2686 0.2651
H10 H 0.0189 0.1670 0.2114
C11 C 0.1937(2) 0.07742(18) 0.33125(10)
H11 H 0.0951 0.0339 0.3155
H12 H 0.1734 0.1352 0.3661
H13 H 0.2784 0.0253 0.3532
C12 C 0.6698(2) 0.11300(15) 0.09176(9)
C13 C 0.5176(2) 0.18514(15) -0.00876(9)
C14 C 0.4506(2) 0.20069(17) -0.07895(10)
H14 H 0.4678 0.1471 -0.1145
C15 C 0.3570(2) 0.29760(18) -0.09573(11)
H15 H 0.3084 0.3103 -0.1437
C16 C 0.3332(2) 0.37610(18) -0.04389(11)
H16 H 0.2705 0.4427 -0.0567
C17 C 0.4006(2) 0.35815(16) 0.02711(10)
H17 H 0.3839 0.4116 0.0629
C18 C 0.4919(2) 0.26158(15) 0.04424(9)
C19 C 0.8378(2) 0.34677(16) 0.11166(9)
C20 C 0.9853(2) 0.29242(19) 0.01860(11)
H18 H 1.0827 0.3117 0.0529
H19 H 0.9661 0.3540 -0.0175
C21 C 1.0062(3) 0.1792(2) -0.01643(12)
H20 H 1.0244 0.1191 0.0199
H21 H 1.0986 0.1833 -0.0417
H22 H 0.9091 0.1615 -0.0503
loop_
_geom_bond_atom_site_label_1
_geom_bond_atom_site_label_2
_geom_bond_site_symmetry_1
_geom_bond_site_symmetry_2
O1 C1 1_555 1_555
O2 C6 1_555 1_555
O3 C12 1_555 1_555
O4 C19 1_555 1_555
O5 C19 1_555 1_555
N1 H1 1_555 1_555
H2 N1 1_555 1_555
N2 H3 1_555 1_555
C1 C2 1_555 1_555
C2 C3 1_555 1_555
C3 C4 1_555 1_555
C4 C5 1_555 1_555
C5 O1 1_555 1_555
C6 C2 1_555 1_555
C7 C6 1_555 1_555
H4 C7 1_555 1_555
H5 C7 1_555 1_555
C8 C7 1_555 1_555
C9 C1 1_555 1_555
H6 C9 1_555 1_555
H7 C9 1_555 1_555
C10 C8 1_555 1_555
H8 C10 1_555 1_555
H9 C10 1_555 1_555
H10 C10 1_555 1_555
C11 C8 1_555 1_555
H11 C11 1_555 1_555
H12 C11 1_555 1_555
H13 C11 1_555 1_555
C12 N2 1_555 1_555
C13 N2 1_555 1_555
C14 C13 1_555 1_555
H14 C14 1_555 1_555
C15 C14 1_555 1_555
H15 C15 1_555 1_555
C16 C15 1_555 1_555
H16 C16 1_555 1_555
C17 C16 1_555 1_555
H17 C17 1_555 1_555
C18 C3 1_555 1_555
C19 C4 1_555 1_555
C20 O5 1_555 1_555
H18 C20 1_555 1_555
H19 C20 1_555 1_555
C21 C20 1_555 1_555
H20 C21 1_555 1_555
H21 C21 1_555 1_555
H22 C21 1_555 1_555
N1 C5 1_555 1_555
C3 C12 1_555 1_555
C8 C9 1_555 1_555
C13 C18 1_555 1_555
C17 C18 1_555 1_555

#END
