
#######################################################################
#
#                 Cambridge Crystallographic Data Centre
#                                CCDC 
#
#######################################################################
#
# If this CIF has been generated from an entry in the Cambridge 
# Structural Database, then it will include bibliographic, chemical, 
# crystal, experimental, refinement or atomic coordinate data resulting 
# from the CCDC's data processing and validation procedures.
#
#######################################################################

data_DUNZAO
_chemical_formula_moiety         'C6 H10 Cl1 N1 O1'
_chemical_name_systematic        3-Chloroazepan-2-one
_symmetry_cell_setting           monoclinic
_symmetry_space_group_name_H-M   'C 2/c'
_symmetry_Int_Tables_number      15
_space_group_name_Hall           '-C 2yn'
loop_
_symmetry_equiv_pos_site_id
_symmetry_equiv_pos_as_xyz
1 x,y,z
2 -x,y,1/2-z
3 1/2+x,1/2+y,z
4 1/2-x,1/2+y,1/2-z
5 -x,-y,-z
6 x,-y,1/2+z
7 1/2-x,1/2-y,-z
8 1/2+x,1/2-y,1/2+z
_cell_length_a                   18.776(4)
_cell_length_b                   7.3440(15)
_cell_length_c                   11.109(2)
_cell_angle_alpha                90
_cell_angle_beta                 103.65(3)
_cell_angle_gamma                90
_cell_volume                     1488.56
_exptl_crystal_colour            colorless
_exptl_crystal_description       block
_cell_formula_units_Z            8
_exptl_crystal_recrystallization_method 'acetic acid'
loop_
_atom_site_label
_atom_site_type_symbol
_atom_site_fract_x
_atom_site_fract_y
_atom_site_fract_z
Cl1 Cl 0.05987(4) 0.14400(11) 0.65254(6)
O1 O 0.24623(10) 0.2773(2) 0.75479(18)
N1 N 0.17420(10) 0.4720(2) 0.62946(16)
H1 H 0.2035 0.5567 0.6645
C1 C 0.08706(17) 0.2590(4) 0.3877(2)
H2 H 0.0840 0.2264 0.3020
H3 H 0.0383 0.2471 0.4022
C2 C 0.11018(17) 0.4574(4) 0.4058(2)
H4 H 0.1587 0.4702 0.3906
H5 H 0.0768 0.5305 0.3446
C3 C 0.11132(14) 0.5312(3) 0.5331(2)
H6 H 0.1113 0.6632 0.5295
H7 H 0.0668 0.4936 0.5560
C4 C 0.19194(12) 0.3048(3) 0.66976(19)
C5 C 0.14703(13) 0.1426(3) 0.6099(2)
H8 H 0.1731 0.0334 0.6475
C6 C 0.13727(15) 0.1235(4) 0.4704(2)
H9 H 0.1853 0.1320 0.4525
H10 H 0.1188 0.0021 0.4469
loop_
_geom_bond_atom_site_label_1
_geom_bond_atom_site_label_2
_geom_bond_site_symmetry_1
_geom_bond_site_symmetry_2
Cl1 C5 1_555 1_555
O1 C4 1_555 1_555
N1 H1 1_555 1_555
C1 H2 1_555 1_555
H3 C1 1_555 1_555
C2 C1 1_555 1_555
H4 C2 1_555 1_555
H5 C2 1_555 1_555
C3 N1 1_555 1_555
H6 C3 1_555 1_555
H7 C3 1_555 1_555
C4 N1 1_555 1_555
C5 C4 1_555 1_555
H8 C5 1_555 1_555
C6 C1 1_555 1_555
H9 C6 1_555 1_555
H10 C6 1_555 1_555
C2 C3 1_555 1_555
C5 C6 1_555 1_555

#END
