
#######################################################################
#
#                 Cambridge Crystallographic Data Centre
#                                CCDC 
#
#######################################################################
#
# If this CIF has been generated from an entry in the Cambridge 
# Structural Database, then it will include bibliographic, chemical, 
# crystal, experimental, refinement or atomic coordinate data resulting 
# from the CCDC's data processing and validation procedures.
#
#######################################################################

data_DUPCAT
_chemical_formula_moiety         'C14 H11 Br1 N4'
_chemical_name_systematic        N^4^-(3-Bromophenyl)quinazoline-4,6-diamine
_symmetry_cell_setting           triclinic
_symmetry_space_group_name_H-M   'P -1'
_symmetry_Int_Tables_number      2
_space_group_name_Hall           '-P 1'
loop_
_symmetry_equiv_pos_site_id
_symmetry_equiv_pos_as_xyz
1 x,y,z
2 -x,-y,-z
_cell_length_a                   7.5579(15)
_cell_length_b                   11.743(2)
_cell_length_c                   15.554(3)
_cell_angle_alpha                110.24(3)
_cell_angle_beta                 96.79(3)
_cell_angle_gamma                96.75(3)
_cell_volume                     1267.4
_exptl_crystal_colour            colorless
_exptl_crystal_description       block
_cell_formula_units_Z            4
_exptl_crystal_recrystallization_method 'ethyl acetate'
loop_
_atom_site_label
_atom_site_type_symbol
_atom_site_fract_x
_atom_site_fract_y
_atom_site_fract_z
Br1 Br 0.32081(4) 0.54984(3) 0.19450(3)
N1 N 0.7074(3) 0.7482(2) 0.01210(19)
H1 H 0.622(5) 0.800(4) 0.026(3)
N2 N 0.9911(3) 0.7443(2) -0.03199(19)
N3 N 1.0997(3) 0.8702(2) -0.11423(19)
N4 N 0.4365(3) 1.0316(2) -0.13941(19)
H2 H 0.3481 1.0082 -0.1139
H3 H 0.4225 1.0832 -0.1684
C1 C 0.5318(4) 0.5673(3) 0.1418(2)
C2 C 0.6659(4) 0.4991(3) 0.1522(2)
H4 H 0.6528 0.4433 0.1839
C3 C 0.8198(4) 0.5164(3) 0.1143(2)
H5 H 0.9136 0.4711 0.1204
C4 C 0.8412(4) 0.5974(3) 0.0679(2)
H6 H 0.9484 0.6074 0.0431
C5 C 0.7044(4) 0.6642(3) 0.0580(2)
C6 C 0.5474(4) 0.6477(3) 0.0953(2)
H7 H 0.4524 0.6918 0.0885
C7 C 0.8344(4) 0.7850(3) -0.0327(2)
C8 C 1.1141(4) 0.7914(3) -0.0728(2)
H8 H 1.2267 0.7632 -0.0710
C9 C 0.9338(4) 0.9078(3) -0.1195(2)
C10 C 0.7933(4) 0.8659(3) -0.0804(2)
C11 C 0.6255(4) 0.9061(3) -0.0889(2)
H9 H 0.5295 0.8771 -0.0633
C12 C 0.5995(4) 0.9869(3) -0.1338(2)
C13 C 0.7425(4) 1.0290(3) -0.1721(2)
H10 H 0.7256 1.0854 -0.2026
C14 C 0.9041(4) 0.9895(3) -0.1658(2)
H11 H 0.9980 1.0175 -0.1929
Br2 Br 0.47743(6) 0.69252(4) 0.64544(4)
N5 N 0.0018(4) 0.2805(3) 0.5104(2)
H12 H -0.105(6) 0.250(4) 0.497(3)
N6 N 0.2839(4) 0.2212(3) 0.5094(2)
N7 N 0.3236(3) 0.0159(3) 0.4224(2)
N8 N -0.4215(4) -0.1290(3) 0.3066(2)
H13 H -0.470(5) -0.207(4) 0.292(3)
H14 H -0.467(5) -0.080(4) 0.339(3)
C15 C 0.2510(5) 0.5963(3) 0.6368(3)
C16 C 0.1242(5) 0.6528(4) 0.6842(3)
H15 H 0.1503 0.7376 0.7228
C17 C -0.0417(5) 0.5833(4) 0.6743(3)
H16 H -0.1317 0.6202 0.7067
C18 C -0.0788(5) 0.4601(3) 0.6177(3)
H17 H -0.1943 0.4132 0.6112
C19 C 0.0523(5) 0.4039(3) 0.5700(2)
C20 C 0.2198(5) 0.4734(3) 0.5799(3)
H18 H 0.3112 0.4375 0.5483
C21 C 0.1078(4) 0.1919(3) 0.4798(2)
C22 C 0.3821(4) 0.1307(3) 0.4780(2)
H19 H 0.5091 0.1530 0.4988
C23 C 0.1403(4) -0.0162(3) 0.3923(2)
C24 C 0.0232(4) 0.0702(3) 0.4192(2)
C25 C -0.1655(4) 0.0310(3) 0.3887(2)
H20 H -0.2446 0.0894 0.4047
C26 C -0.2359(4) -0.0901(3) 0.3363(2)
C27 C -0.1169(4) -0.1752(3) 0.3086(2)
H21 H -0.1645 -0.2585 0.2707
C28 C 0.0670(4) -0.1386(3) 0.3358(2)
H22 H 0.1452 -0.1968 0.3162
loop_
_geom_bond_atom_site_label_1
_geom_bond_atom_site_label_2
_geom_bond_site_symmetry_1
_geom_bond_site_symmetry_2
Br1 C1 1_555 1_555
N1 H1 1_555 1_555
N2 C7 1_555 1_555
N3 C8 1_555 1_555
N4 H2 1_555 1_555
H3 N4 1_555 1_555
C1 C2 1_555 1_555
C2 H4 1_555 1_555
C3 C2 1_555 1_555
H5 C3 1_555 1_555
C4 C3 1_555 1_555
H6 C4 1_555 1_555
C5 N1 1_555 1_555
C6 C1 1_555 1_555
H7 C6 1_555 1_555
C7 N1 1_555 1_555
C8 N2 1_555 1_555
H8 C8 1_555 1_555
C9 N3 1_555 1_555
C10 C7 1_555 1_555
C11 C10 1_555 1_555
H9 C11 1_555 1_555
C12 N4 1_555 1_555
C13 C12 1_555 1_555
H10 C13 1_555 1_555
C14 C9 1_555 1_555
H11 C14 1_555 1_555
Br2 C15 1_555 1_555
N5 H12 1_555 1_555
N6 C21 1_555 1_555
N7 C22 1_555 1_555
N8 H13 1_555 1_555
H14 N8 1_555 1_555
C15 C16 1_555 1_555
C16 H15 1_555 1_555
C17 C16 1_555 1_555
H16 C17 1_555 1_555
C18 C17 1_555 1_555
H17 C18 1_555 1_555
C19 N5 1_555 1_555
C20 C15 1_555 1_555
H18 C20 1_555 1_555
C21 N5 1_555 1_555
C22 N6 1_555 1_555
H19 C22 1_555 1_555
C23 N7 1_555 1_555
C24 C21 1_555 1_555
C25 C24 1_555 1_555
H20 C25 1_555 1_555
C26 N8 1_555 1_555
C27 C26 1_555 1_555
H21 C27 1_555 1_555
C28 C23 1_555 1_555
H22 C28 1_555 1_555
C4 C5 1_555 1_555
C5 C6 1_555 1_555
C9 C10 1_555 1_555
C11 C12 1_555 1_555
C13 C14 1_555 1_555
C18 C19 1_555 1_555
C19 C20 1_555 1_555
C23 C24 1_555 1_555
C25 C26 1_555 1_555
C27 C28 1_555 1_555

#END
