
#######################################################################
#
#                 Cambridge Crystallographic Data Centre
#                                CCDC 
#
#######################################################################
#
# If this CIF has been generated from an entry in the Cambridge 
# Structural Database, then it will include bibliographic, chemical, 
# crystal, experimental, refinement or atomic coordinate data resulting 
# from the CCDC's data processing and validation procedures.
#
#######################################################################

data_DUPDAV
_chemical_name_common            (R)-2-((Neopentoxy)(phenyl)methyl)phenol
_chemical_formula_moiety         'C18 H22 O2'
_chemical_name_systematic        
(R)-2-((2,2-dimethylpropoxy)(phenyl)methyl)phenol
_symmetry_cell_setting           orthorhombic
_symmetry_space_group_name_H-M   'P 21 21 21'
_symmetry_Int_Tables_number      19
_space_group_name_Hall           'P 2ac 2ab'
loop_
_symmetry_equiv_pos_site_id
_symmetry_equiv_pos_as_xyz
1 x,y,z
2 1/2-x,-y,1/2+z
3 1/2+x,1/2-y,-z
4 -x,1/2+y,1/2-z
_cell_length_a                   9.0068(2)
_cell_length_b                   10.4780(3)
_cell_length_c                   16.4734(4)
_cell_angle_alpha                90
_cell_angle_beta                 90
_cell_angle_gamma                90
_cell_volume                     1554.65
_exptl_crystal_colour            colorless
_exptl_crystal_description       block
_cell_formula_units_Z            4
_exptl_crystal_recrystallization_method 
'Re-crystallisation from solvent: hexane and diethyl ether'
loop_
_atom_site_label
_atom_site_type_symbol
_atom_site_fract_x
_atom_site_fract_y
_atom_site_fract_z
O1 O 0.56541(15) 0.31613(15) 0.18709(9)
O2 O 0.36657(16) 0.14261(16) 0.16209(11)
H1 H 0.4504 0.1766 0.1567
C1 C 0.3532(2) 0.2954(2) 0.27272(13)
C2 C 0.2888(2) 0.2048(2) 0.22203(14)
C3 C 0.1396(3) 0.1735(3) 0.23102(17)
H2 H 0.0959 0.1116 0.1964
C4 C 0.0547(3) 0.2323(3) 0.29016(17)
H3 H -0.0467 0.2095 0.2965
C5 C 0.1160(3) 0.3232(3) 0.33971(17)
H4 H 0.0571 0.3641 0.3799
C6 C 0.2649(3) 0.3552(3) 0.33087(15)
H5 H 0.3070 0.4188 0.3649
C7 C 0.5172(2) 0.3303(2) 0.26978(13)
H6 H 0.5273 0.4222 0.2851
C8 C 0.6093(2) 0.2515(2) 0.32863(12)
C9 C 0.6399(2) 0.1240(2) 0.31399(14)
H7 H 0.6058 0.0853 0.2653
C10 C 0.7197(2) 0.0523(2) 0.36943(15)
H8 H 0.7399 -0.0351 0.3587
C11 C 0.7699(2) 0.1078(2) 0.44059(14)
H9 H 0.8235 0.0585 0.4791
C12 C 0.7418(3) 0.2350(2) 0.45521(14)
H10 H 0.7771 0.2736 0.5037
C13 C 0.6618(2) 0.3074(2) 0.39918(13)
H11 H 0.6433 0.3952 0.4095
C14 C 0.7065(2) 0.3741(2) 0.17098(14)
H12 H 0.7838 0.3337 0.2051
H13 H 0.7025 0.4660 0.1846
C15 C 0.7454(2) 0.3575(2) 0.08178(14)
C16 C 0.8966(2) 0.4204(3) 0.06857(15)
H14 H 0.8912 0.5104 0.0843
H15 H 0.9241 0.4140 0.0111
H16 H 0.9715 0.3770 0.1018
C17 C 0.7555(3) 0.2163(3) 0.06018(18)
H17 H 0.8322 0.1756 0.0935
H18 H 0.7812 0.2073 0.0027
H19 H 0.6595 0.1752 0.0705
C18 C 0.6290(3) 0.4226(3) 0.02869(15)
H20 H 0.5324 0.3816 0.0370
H21 H 0.6577 0.4151 -0.0285
H22 H 0.6221 0.5130 0.0435
loop_
_geom_bond_atom_site_label_1
_geom_bond_atom_site_label_2
_geom_bond_site_symmetry_1
_geom_bond_site_symmetry_2
O1 C7 1_555 1_555
O2 H1 1_555 1_555
C1 C2 1_555 1_555
C2 O2 1_555 1_555
C3 C2 1_555 1_555
H2 C3 1_555 1_555
C4 C3 1_555 1_555
H3 C4 1_555 1_555
C5 C4 1_555 1_555
H4 C5 1_555 1_555
C6 C1 1_555 1_555
H5 C6 1_555 1_555
C7 C1 1_555 1_555
H6 C7 1_555 1_555
C8 C7 1_555 1_555
C9 C8 1_555 1_555
H7 C9 1_555 1_555
C10 C9 1_555 1_555
H8 C10 1_555 1_555
C11 C10 1_555 1_555
H9 C11 1_555 1_555
C12 C11 1_555 1_555
H10 C12 1_555 1_555
C13 C8 1_555 1_555
H11 C13 1_555 1_555
C14 O1 1_555 1_555
H12 C14 1_555 1_555
H13 C14 1_555 1_555
C15 C14 1_555 1_555
C16 C15 1_555 1_555
H14 C16 1_555 1_555
H15 C16 1_555 1_555
H16 C16 1_555 1_555
C17 C15 1_555 1_555
H17 C17 1_555 1_555
H18 C17 1_555 1_555
H19 C17 1_555 1_555
C18 C15 1_555 1_555
H20 C18 1_555 1_555
H21 C18 1_555 1_555
H22 C18 1_555 1_555
C5 C6 1_555 1_555
C12 C13 1_555 1_555

#END
