
#######################################################################
#
#                 Cambridge Crystallographic Data Centre
#                                CCDC 
#
#######################################################################
#
# If this CIF has been generated from an entry in the Cambridge 
# Structural Database, then it will include bibliographic, chemical, 
# crystal, experimental, refinement or atomic coordinate data resulting 
# from the CCDC's data processing and validation procedures.
#
#######################################################################

data_DUQJAB
_chemical_formula_moiety         'C30 H68 Li4 N8'
_chemical_name_systematic        
bis(\m~3~-1,4,7-Trimethyl-1,4,7,10-tetra-azacyclododecane)-bis(\m~2~-n-butyl)-tetra-lithium
_symmetry_cell_setting           monoclinic
_symmetry_space_group_name_H-M   'P 21/n'
_symmetry_Int_Tables_number      14
_space_group_name_Hall           '-P 2yn'
loop_
_symmetry_equiv_pos_site_id
_symmetry_equiv_pos_as_xyz
1 x,y,z
2 1/2-x,1/2+y,1/2-z
3 -x,-y,-z
4 1/2+x,1/2-y,1/2+z
_cell_length_a                   15.4509(11)
_cell_length_b                   9.1904(6)
_cell_length_c                   25.5757(18)
_cell_angle_alpha                90
_cell_angle_beta                 91.591(2)
_cell_angle_gamma                90
_cell_volume                     3630.35
_exptl_crystal_colour            colorless
_exptl_crystal_description       plate
_cell_formula_units_Z            4
loop_
_atom_site_label
_atom_site_type_symbol
_atom_site_fract_x
_atom_site_fract_y
_atom_site_fract_z
Li1 Li 0.4360(2) 0.6911(3) 0.85277(12)
Li2 Li 0.5660(2) 0.8967(3) 0.64459(12)
Li3 Li 0.5223(2) 0.8087(4) 0.79263(12)
Li4 Li 0.4727(2) 0.7892(4) 0.70402(12)
N1 N 0.42461(10) 0.67676(18) 0.76648(6)
N2 N 0.32966(10) 0.85717(17) 0.83971(6)
N3 N 0.35827(10) 0.63905(18) 0.92062(6)
N4 N 0.45069(11) 0.45316(18) 0.85035(7)
N5 N 0.57161(10) 0.91858(16) 0.73054(6)
N6 N 0.66823(10) 0.72398(16) 0.66357(6)
N7 N 0.65232(10) 0.93755(17) 0.57954(6)
N8 N 0.55691(11) 1.13716(17) 0.64405(6)
C1 C 0.33289(13) 0.7081(2) 0.75875(8)
H1 H 0.2982 0.6321 0.7759
H2 H 0.3175 0.7078 0.7209
C2 C 0.31283(14) 0.8551(2) 0.78184(8)
H3 H 0.3489 0.9301 0.7652
H4 H 0.2513 0.8793 0.7742
C3 C 0.25810(13) 0.7931(2) 0.86759(8)
H5 H 0.2351 0.7087 0.8476
H6 H 0.2110 0.8656 0.8702
C4 C 0.28576(13) 0.7443(2) 0.92170(8)
H7 H 0.3038 0.8302 0.9427
H8 H 0.2359 0.6987 0.9389
C5 C 0.32742(14) 0.4925(2) 0.90804(9)
H9 H 0.2847 0.4978 0.8786
H10 H 0.2979 0.4517 0.9386
C6 C 0.40036(15) 0.3932(2) 0.89351(8)
H11 H 0.4393 0.3782 0.9245
H12 H 0.3764 0.2974 0.8830
C7 C 0.41098(14) 0.4180(2) 0.79924(8)
H13 H 0.3472 0.4237 0.8015
H14 H 0.4262 0.3169 0.7898
C8 C 0.44085(13) 0.5215(2) 0.75633(7)
H15 H 0.5037 0.5075 0.7518
H16 H 0.4111 0.4943 0.7230
C9 C 0.34625(14) 1.0063(2) 0.85709(9)
H17 H 0.2959 1.0672 0.8481
H18 H 0.3973 1.0443 0.8397
H19 H 0.3567 1.0073 0.8951
C10 C 0.40877(14) 0.6416(3) 0.96979(8)
H20 H 0.3742 0.6005 0.9978
H21 H 0.4244 0.7422 0.9785
H22 H 0.4615 0.5838 0.9661
C11 C 0.54056(14) 0.4028(2) 0.85341(9)
H23 H 0.5419 0.2965 0.8507
H24 H 0.5673 0.4329 0.8869
H25 H 0.5727 0.4454 0.8247
C12 C 0.68114(13) 0.7319(2) 0.72130(7)
H26 H 0.7417 0.7056 0.7309
H27 H 0.6425 0.6610 0.7381
C13 C 0.66203(12) 0.8834(2) 0.74118(7)
H28 H 0.6747 0.8883 0.7793
H29 H 0.6994 0.9550 0.7237
C14 C 0.74421(12) 0.7809(2) 0.63716(8)
H30 H 0.7896 0.7049 0.6366
H31 H 0.7678 0.8652 0.6570
C15 C 0.72166(13) 0.8274(2) 0.58166(8)
H32 H 0.7740 0.8676 0.5655
H33 H 0.7029 0.7411 0.5611
C16 C 0.68563(13) 1.0832(2) 0.59190(8)
H34 H 0.7195 1.1191 0.5622
H35 H 0.7250 1.0775 0.6230
C17 C 0.61334(14) 1.1900(2) 0.60254(8)
H36 H 0.6387 1.2848 0.6131
H37 H 0.5782 1.2054 0.5700
C18 C 0.59234(13) 1.1733(2) 0.69662(7)
H38 H 0.5777 1.2754 0.7050
H39 H 0.6562 1.1649 0.6967
C19 C 0.55695(13) 1.0735(2) 0.73877(7)
H40 H 0.5838 1.1014 0.7729
H41 H 0.4939 1.0903 0.7409
C20 C 0.65036(13) 0.5743(2) 0.64719(8)
H42 H 0.6989 0.5117 0.6582
H43 H 0.6429 0.5707 0.6090
H44 H 0.5973 0.5402 0.6634
C21 C 0.60793(14) 0.9361(2) 0.52805(8)
H45 H 0.5584 1.0027 0.5283
H46 H 0.5875 0.8373 0.5202
H47 H 0.6482 0.9672 0.5013
C22 C 0.46903(14) 1.1939(2) 0.63721(9)
H48 H 0.4323 1.1531 0.6642
H49 H 0.4457 1.1664 0.6026
H50 H 0.4701 1.3002 0.6403
C23 C 0.56423(13) 0.7873(2) 0.87151(8)
H51 H 0.5587(16) 0.711(3) 0.8996(10)
H52 H 0.6199(17) 0.760(3) 0.8630(9)
C24 C 0.57620(14) 0.9361(2) 0.89839(8)
H53 H 0.5890 1.0086 0.8710
H54 H 0.5202 0.9638 0.9134
C25 C 0.64629(15) 0.9497(2) 0.94175(8)
H55 H 0.7023 0.9174 0.9279
H56 H 0.6523 1.0533 0.9518
C26 C 0.62705(15) 0.8611(3) 0.99017(8)
H57 H 0.5739 0.8973 1.0057
H58 H 0.6753 0.8703 1.0156
H59 H 0.6195 0.7587 0.9805
C27 C 0.43702(14) 0.8061(2) 0.62408(8)
H60 H 0.4388(15) 0.883(3) 0.5983(9)
H61 H 0.3796(17) 0.827(3) 0.6310(10)
C28 C 0.43369(13) 0.6633(2) 0.59220(8)
H62 H 0.4905 0.6506 0.5758
H63 H 0.4269 0.5817 0.6171
C29 C 0.36382(14) 0.6487(2) 0.54972(8)
H64 H 0.3676 0.7331 0.5258
H65 H 0.3066 0.6525 0.5661
C30 C 0.36919(14) 0.5091(2) 0.51752(8)
H66 H 0.4220 0.5105 0.4972
H67 H 0.3186 0.5024 0.4937
H68 H 0.3704 0.4248 0.5410
loop_
_geom_bond_atom_site_label_1
_geom_bond_atom_site_label_2
_geom_bond_site_symmetry_1
_geom_bond_site_symmetry_2
Li1 N1 1_555 1_555
Li2 N5 1_555 1_555
Li3 N1 1_555 1_555
Li4 N1 1_555 1_555
N1 C1 1_555 1_555
N2 Li1 1_555 1_555
N3 Li1 1_555 1_555
N4 Li1 1_555 1_555
N5 Li3 1_555 1_555
N6 Li2 1_555 1_555
N7 Li2 1_555 1_555
N8 Li2 1_555 1_555
C1 H1 1_555 1_555
H2 C1 1_555 1_555
C2 N2 1_555 1_555
H3 C2 1_555 1_555
H4 C2 1_555 1_555
C3 N2 1_555 1_555
H5 C3 1_555 1_555
H6 C3 1_555 1_555
C4 N3 1_555 1_555
H7 C4 1_555 1_555
H8 C4 1_555 1_555
C5 N3 1_555 1_555
H9 C5 1_555 1_555
H10 C5 1_555 1_555
C6 N4 1_555 1_555
H11 C6 1_555 1_555
H12 C6 1_555 1_555
C7 N4 1_555 1_555
H13 C7 1_555 1_555
H14 C7 1_555 1_555
C8 N1 1_555 1_555
H15 C8 1_555 1_555
H16 C8 1_555 1_555
C9 N2 1_555 1_555
H17 C9 1_555 1_555
H18 C9 1_555 1_555
H19 C9 1_555 1_555
C10 N3 1_555 1_555
H20 C10 1_555 1_555
H21 C10 1_555 1_555
H22 C10 1_555 1_555
C11 N4 1_555 1_555
H23 C11 1_555 1_555
H24 C11 1_555 1_555
H25 C11 1_555 1_555
C12 N6 1_555 1_555
H26 C12 1_555 1_555
H27 C12 1_555 1_555
C13 N5 1_555 1_555
H28 C13 1_555 1_555
H29 C13 1_555 1_555
C14 N6 1_555 1_555
H30 C14 1_555 1_555
H31 C14 1_555 1_555
C15 N7 1_555 1_555
H32 C15 1_555 1_555
H33 C15 1_555 1_555
C16 N7 1_555 1_555
H34 C16 1_555 1_555
H35 C16 1_555 1_555
C17 N8 1_555 1_555
H36 C17 1_555 1_555
H37 C17 1_555 1_555
C18 N8 1_555 1_555
H38 C18 1_555 1_555
H39 C18 1_555 1_555
C19 N5 1_555 1_555
H40 C19 1_555 1_555
H41 C19 1_555 1_555
C20 N6 1_555 1_555
H42 C20 1_555 1_555
H43 C20 1_555 1_555
H44 C20 1_555 1_555
C21 N7 1_555 1_555
H45 C21 1_555 1_555
H46 C21 1_555 1_555
H47 C21 1_555 1_555
C22 N8 1_555 1_555
H48 C22 1_555 1_555
H49 C22 1_555 1_555
H50 C22 1_555 1_555
C23 Li1 1_555 1_555
H51 C23 1_555 1_555
H52 C23 1_555 1_555
C24 C23 1_555 1_555
H53 C24 1_555 1_555
H54 C24 1_555 1_555
C25 C24 1_555 1_555
H55 C25 1_555 1_555
H56 C25 1_555 1_555
C26 C25 1_555 1_555
H57 C26 1_555 1_555
H58 C26 1_555 1_555
H59 C26 1_555 1_555
C27 Li2 1_555 1_555
H60 C27 1_555 1_555
H61 C27 1_555 1_555
C28 C27 1_555 1_555
H62 C28 1_555 1_555
H63 C28 1_555 1_555
C29 C28 1_555 1_555
H64 C29 1_555 1_555
H65 C29 1_555 1_555
C30 C29 1_555 1_555
H66 C30 1_555 1_555
H67 C30 1_555 1_555
H68 C30 1_555 1_555
Li3 C23 1_555 1_555
Li4 N5 1_555 1_555
Li4 C27 1_555 1_555
C1 C2 1_555 1_555
C3 C4 1_555 1_555
C5 C6 1_555 1_555
C7 C8 1_555 1_555
C12 C13 1_555 1_555
C14 C15 1_555 1_555
C16 C17 1_555 1_555
C18 C19 1_555 1_555

#END
