
#######################################################################
#
#                 Cambridge Crystallographic Data Centre
#                                CCDC 
#
#######################################################################
#
# If this CIF has been generated from an entry in the Cambridge 
# Structural Database, then it will include bibliographic, chemical, 
# crystal, experimental, refinement or atomic coordinate data resulting 
# from the CCDC's data processing and validation procedures.
#
#######################################################################

data_DUSFOO01
_chemical_formula_moiety         'C18 H11 F3 N2 O1'
_chemical_name_systematic        
2'-oxo-3-(4-(trifluoromethyl)phenyl)-1',2'-dihydrospiro[cyclopropane-1,3'-indole]-2-carbonitrile
_symmetry_cell_setting           monoclinic
_symmetry_space_group_name_H-M   'P 21/n'
_symmetry_Int_Tables_number      14
_space_group_name_Hall           '-P 2yn'
loop_
_symmetry_equiv_pos_site_id
_symmetry_equiv_pos_as_xyz
1 x,y,z
2 1/2-x,1/2+y,1/2-z
3 -x,-y,-z
4 1/2+x,1/2-y,1/2+z
_cell_length_a                   13.58(2)
_cell_length_b                   7.753(12)
_cell_length_c                   14.56(2)
_cell_angle_alpha                90
_cell_angle_beta                 102.012(19)
_cell_angle_gamma                90
_cell_volume                     1499.39
_cell_formula_units_Z            4
loop_
_atom_site_label
_atom_site_type_symbol
_atom_site_fract_x
_atom_site_fract_y
_atom_site_fract_z
F1 F 0.6253(11) 1.3426(15) -0.0229(5)
F2 F 0.6133(8) 1.4831(9) 0.0971(8)
F3 F 0.7417(5) 1.3532(12) 0.0934(8)
O1 O 0.45662(12) 0.9867(2) 0.37276(10)
N1 N 0.56176(12) 0.7998(2) 0.47041(12)
H1 H 0.5790 0.8655 0.5187
N2 N 0.31336(16) 0.3971(3) 0.20661(16)
C1 C 0.49916(15) 0.7267(3) 0.21942(14)
H2 H 0.5249 0.6254 0.1918
C2 C 0.49617(14) 0.6994(3) 0.32228(14)
C3 C 0.40062(15) 0.6917(3) 0.24638(14)
H3 H 0.3557 0.7913 0.2436
C4 C 0.59298(15) 0.6273(3) 0.46650(14)
C5 C 0.53033(15) 0.8912(3) 0.18080(14)
C6 C 0.60213(17) 1.1853(3) 0.10717(15)
C7 C 0.55245(15) 0.5582(3) 0.37898(14)
C8 C 0.50170(15) 0.8492(3) 0.38932(14)
C9 C 0.35148(17) 0.5282(3) 0.22333(15)
C10 C 0.6418(2) 1.3419(3) 0.06726(19)
C11 C 0.46652(17) 1.0265(3) 0.14912(17)
H4 H 0.3991 1.0199 0.1527
C12 C 0.65518(16) 0.5330(3) 0.53505(16)
H5 H 0.6823 0.5810 0.5934
C13 C 0.57408(16) 0.3893(3) 0.35903(17)
H6 H 0.5475 0.3416 0.3005
C14 C 0.62948(16) 0.9043(3) 0.17411(17)
H7 H 0.6731 0.8129 0.1940
C15 C 0.66563(17) 1.0510(3) 0.13830(18)
H8 H 0.7333 1.0583 0.1354
C16 C 0.50260(17) 1.1731(3) 0.11177(17)
H9 H 0.4589 1.2633 0.0898
C17 C 0.63599(17) 0.2928(3) 0.4279(2)
H10 H 0.6505 0.1789 0.4157
C18 C 0.67622(18) 0.3638(3) 0.5142(2)
H11 H 0.7181 0.2974 0.5593
F4? F 0.5771(9) 1.4735(13) 0.0510(9)
F5? F 0.7195(9) 1.4049(15) 0.1198(8)
F6? F 0.6646(10) 1.3203(13) -0.0097(6)
loop_
_geom_bond_atom_site_label_1
_geom_bond_atom_site_label_2
_geom_bond_site_symmetry_1
_geom_bond_site_symmetry_2
F1 C10 1_555 1_555
F2 C10 1_555 1_555
F3 C10 1_555 1_555
O1 C8 1_555 1_555
N1 H1 1_555 1_555
N2 C9 1_555 1_555
C1 H2 1_555 1_555
C2 C1 1_555 1_555
C3 C1 1_555 1_555
H3 C3 1_555 1_555
C4 N1 1_555 1_555
C5 C1 1_555 1_555
C6 C10 1_555 1_555
C7 C2 1_555 1_555
C8 N1 1_555 1_555
C9 C3 1_555 1_555
C11 C5 1_555 1_555
H4 C11 1_555 1_555
C12 C4 1_555 1_555
H5 C12 1_555 1_555
C13 C7 1_555 1_555
H6 C13 1_555 1_555
C14 C5 1_555 1_555
H7 C14 1_555 1_555
C15 C6 1_555 1_555
H8 C15 1_555 1_555
C16 C6 1_555 1_555
H9 C16 1_555 1_555
C17 C13 1_555 1_555
H10 C17 1_555 1_555
C18 C12 1_555 1_555
H11 C18 1_555 1_555
C2 C3 1_555 1_555
C2 C8 1_555 1_555
C4 C7 1_555 1_555
C11 C16 1_555 1_555
C14 C15 1_555 1_555
C17 C18 1_555 1_555

#END
