
#######################################################################
#
#                 Cambridge Crystallographic Data Centre
#                                CCDC 
#
#######################################################################
#
# If this CIF has been generated from an entry in the Cambridge 
# Structural Database, then it will include bibliographic, chemical, 
# crystal, experimental, refinement or atomic coordinate data resulting 
# from the CCDC's data processing and validation procedures.
#
#######################################################################

data_DUSFOO
_chemical_formula_moiety         'C18 H11 F3 N2 O1'
_chemical_name_systematic        
2'-oxo-3-(4-(trifluoromethyl)phenyl)-1',2'-dihydrospiro[cyclopropane-1,3'-indole]-2-carbonitrile
_symmetry_cell_setting           monoclinic
_symmetry_space_group_name_H-M   'P 21/n'
_symmetry_Int_Tables_number      14
_space_group_name_Hall           '-P 2yn'
loop_
_symmetry_equiv_pos_site_id
_symmetry_equiv_pos_as_xyz
1 x,y,z
2 1/2-x,1/2+y,1/2-z
3 -x,-y,-z
4 1/2+x,1/2-y,1/2+z
_cell_length_a                   9.2346(9)
_cell_length_b                   14.9985(14)
_cell_length_c                   22.396(2)
_cell_angle_alpha                90
_cell_angle_beta                 94.0950(10)
_cell_angle_gamma                90
_cell_volume                     3094.04
_cell_formula_units_Z            8
loop_
_atom_site_label
_atom_site_type_symbol
_atom_site_fract_x
_atom_site_fract_y
_atom_site_fract_z
C1 C 0.3706(4) 0.0346(2) 0.17941(16)
C2 C 0.1233(3) 0.02224(19) 0.16898(13)
C3 C -0.0130(4) -0.0129(2) 0.15857(16)
H1 H -0.0265 -0.0727 0.1486
C4 C -0.1302(4) 0.0438(3) 0.16337(17)
H2 H -0.2240 0.0215 0.1570
C5 C -0.1101(3) 0.1330(2) 0.17741(15)
H3 H -0.1904 0.1699 0.1798
C6 C 0.0285(3) 0.1680(2) 0.18791(14)
H4 H 0.0417 0.2279 0.1976
C7 C 0.1467(3) 0.11212(18) 0.18368(12)
C8 C 0.3066(3) 0.12463(18) 0.19127(14)
C9 C 0.3957(3) 0.20599(19) 0.17801(14)
H5 H 0.4878 0.1922 0.1609
C10 C 0.3894(3) 0.17704(19) 0.24189(14)
H6 H 0.4772 0.1484 0.2601
C11 C 0.3083(4) 0.2290(2) 0.28137(14)
C12 C 0.3286(3) 0.29157(18) 0.15635(13)
C13 C 0.2370(4) 0.2958(2) 0.10466(13)
H7 H 0.2156 0.2440 0.0830
C14 C 0.1772(4) 0.3756(2) 0.08488(14)
H8 H 0.1163 0.3777 0.0500
C15 C 0.2085(3) 0.45265(19) 0.11729(13)
C16 C 0.3016(4) 0.4493(2) 0.16821(14)
H9 H 0.3237 0.5013 0.1896
C17 C 0.3617(3) 0.3700(2) 0.18745(14)
H10 H 0.4252 0.3686 0.2216
C18 C 0.1418(4) 0.5391(2) 0.09903(15)
F1 F 0.2399(3) 0.60262(16) 0.09270(16)
F2 F 0.0566(3) 0.57090(19) 0.13905(12)
F3 F 0.0611(3) 0.53687(16) 0.04815(11)
N1 N 0.2568(3) -0.02119(16) 0.16626(13)
H11 H 0.2658 -0.0766 0.1573
N2 N 0.2444(4) 0.2720(2) 0.31278(14)
O1 O 0.4991(3) 0.01561(16) 0.18221(14)
C19 C 0.5552(3) 0.8908(2) 0.04684(14)
C20 C 0.7852(3) 0.88377(18) 0.01634(13)
C21 C 0.9068(4) 0.9025(2) -0.01327(14)
H12 H 0.9073 0.9484 -0.0412
C22 C 1.0283(4) 0.8505(2) -0.00002(16)
H13 H 1.1125 0.8619 -0.0191
C23 C 1.0270(4) 0.7819(2) 0.04107(16)
H14 H 1.1101 0.7477 0.0491
C24 C 0.9028(3) 0.7632(2) 0.07059(14)
H15 H 0.9019 0.7167 0.0980
C25 C 0.7813(3) 0.81510(18) 0.05823(12)
C26 C 0.6345(3) 0.81714(19) 0.08126(13)
C27 C 0.5479(3) 0.74146(19) 0.10531(13)
H16 H 0.4433 0.7461 0.0948
C28 C 0.6054(3) 0.8128(2) 0.14793(13)
H17 H 0.5330 0.8551 0.1609
C29 C 0.7282(4) 0.7977(2) 0.18989(14)
C30 C 0.6030(3) 0.6481(2) 0.10586(13)
C31 C 0.6304(4) 0.6013(2) 0.15832(16)
H18 H 0.6193 0.6292 0.1948
C32 C 0.6746(4) 0.5125(2) 0.15745(19)
H19 H 0.6932 0.4817 0.1932
C33 C 0.6905(4) 0.4707(2) 0.10386(19)
C34 C 0.6625(5) 0.5170(2) 0.05158(19)
H20 H 0.6726 0.4887 0.0152
C35 C 0.6193(4) 0.6053(2) 0.05236(16)
H21 H 0.6012 0.6359 0.0165
C36 C 0.7373(7) 0.3755(3) 0.1028(3)
F4 F 0.6516(5) 0.32243(19) 0.1159(4)
F5 F 0.8419(9) 0.3582(4) 0.1503(3)
F6 F 0.8193(5) 0.3560(2) 0.0641(2)
N3 N 0.6493(3) 0.92679(18) 0.01056(12)
H22 H 0.6290 0.9707 -0.0133
N4 N 0.8268(4) 0.7879(2) 0.22225(15)
O2 O 0.4287(2) 0.91329(16) 0.05207(11)
loop_
_geom_bond_atom_site_label_1
_geom_bond_atom_site_label_2
_geom_bond_site_symmetry_1
_geom_bond_site_symmetry_2
C1 C8 1_555 1_555
C2 C3 1_555 1_555
C3 H1 1_555 1_555
C4 C3 1_555 1_555
H2 C4 1_555 1_555
C5 C4 1_555 1_555
H3 C5 1_555 1_555
C6 C5 1_555 1_555
H4 C6 1_555 1_555
C7 C2 1_555 1_555
C8 C7 1_555 1_555
C9 C8 1_555 1_555
H5 C9 1_555 1_555
C10 C8 1_555 1_555
H6 C10 1_555 1_555
C11 C10 1_555 1_555
C12 C9 1_555 1_555
C13 C12 1_555 1_555
H7 C13 1_555 1_555
C14 C13 1_555 1_555
H8 C14 1_555 1_555
C15 C14 1_555 1_555
C16 C15 1_555 1_555
H9 C16 1_555 1_555
C17 C12 1_555 1_555
H10 C17 1_555 1_555
C18 C15 1_555 1_555
F1 C18 1_555 1_555
F2 C18 1_555 1_555
F3 C18 1_555 1_555
N1 C1 1_555 1_555
H11 N1 1_555 1_555
N2 C11 1_555 1_555
O1 C1 1_555 1_555
C19 C26 1_555 1_555
C20 C21 1_555 1_555
C21 H12 1_555 1_555
C22 C21 1_555 1_555
H13 C22 1_555 1_555
C23 C22 1_555 1_555
H14 C23 1_555 1_555
C24 C23 1_555 1_555
H15 C24 1_555 1_555
C25 C20 1_555 1_555
C26 C25 1_555 1_555
C27 C26 1_555 1_555
H16 C27 1_555 1_555
C28 C26 1_555 1_555
H17 C28 1_555 1_555
C29 C28 1_555 1_555
C30 C27 1_555 1_555
C31 C30 1_555 1_555
H18 C31 1_555 1_555
C32 C31 1_555 1_555
H19 C32 1_555 1_555
C33 C32 1_555 1_555
C34 C33 1_555 1_555
H20 C34 1_555 1_555
C35 C30 1_555 1_555
H21 C35 1_555 1_555
C36 C33 1_555 1_555
F4 C36 1_555 1_555
F5 C36 1_555 1_555
F6 C36 1_555 1_555
N3 C19 1_555 1_555
H22 N3 1_555 1_555
N4 C29 1_555 1_555
O2 C19 1_555 1_555
C2 N1 1_555 1_555
C6 C7 1_555 1_555
C9 C10 1_555 1_555
C16 C17 1_555 1_555
C20 N3 1_555 1_555
C24 C25 1_555 1_555
C27 C28 1_555 1_555
C34 C35 1_555 1_555

#END
