
#######################################################################
#
#                 Cambridge Crystallographic Data Centre
#                                CCDC 
#
#######################################################################
#
# If this CIF has been generated from an entry in the Cambridge 
# Structural Database, then it will include bibliographic, chemical, 
# crystal, experimental, refinement or atomic coordinate data resulting 
# from the CCDC's data processing and validation procedures.
#
#######################################################################

data_DUSGAA01
_chemical_formula_moiety         'C19 H24 O6'
_chemical_name_systematic        
'diethyl 4-hydroxy-4-methyl-6-oxo-2-phenylcyclohexane-1,3-dicarboxylate'
_symmetry_cell_setting           monoclinic
_symmetry_space_group_name_H-M   'P 21/n'
_symmetry_Int_Tables_number      14
_space_group_name_Hall           '-P 2yn'
loop_
_symmetry_equiv_pos_site_id
_symmetry_equiv_pos_as_xyz
1 x,y,z
2 1/2-x,1/2+y,1/2-z
3 -x,-y,-z
4 1/2+x,1/2-y,1/2+z
_cell_length_a                   5.8138(5)
_cell_length_b                   16.0715(15)
_cell_length_c                   20.3032(17)
_cell_angle_alpha                90
_cell_angle_beta                 97.238(5)
_cell_angle_gamma                90
_cell_volume                     1881.94
_cell_formula_units_Z            4
loop_
_atom_site_label
_atom_site_type_symbol
_atom_site_fract_x
_atom_site_fract_y
_atom_site_fract_z
C1 C 1.0265(5) 0.74110(19) 0.93317(15)
C2 C 1.0442(5) 0.82648(19) 0.96824(15)
C3 C 0.8329(5) 0.68859(19) 0.95886(15)
C4 C 1.2505(6) 0.8742(2) 0.94935(16)
C5 C 0.8731(5) 0.6781(2) 1.03510(16)
C6 C 0.9902(5) 0.7520(2) 0.85838(16)
C7 C 1.0626(6) 0.8178(2) 1.04361(17)
C8 C 0.8217(6) 0.6059(2) 0.92419(18)
C9 C 0.6837(6) 0.6249(3) 1.0598(2)
H1 H 0.6877 0.5699 1.0415
H2 H 0.5350 0.6496 1.0462
H3 H 0.7093 0.6217 1.1074
C10 C 0.8823(6) 0.7635(2) 1.06784(17)
H4 H 0.7320 0.7901 1.0585
H5 H 0.9161 0.7570 1.1156
C11 C 1.1539(6) 0.7234(2) 0.81995(17)
H6 H 1.2870 0.6974 0.8404
C12 C 0.7648(7) 0.7998(3) 0.75823(19)
H7 H 0.6324 0.8259 0.7374
C13 C 0.7943(6) 0.7905(2) 0.82657(17)
H8 H 0.6816 0.8104 0.8513
C14 C 0.9291(8) 0.7709(3) 0.7209(2)
H9 H 0.9082 0.7772 0.6750
C15 C 1.1233(8) 0.7329(3) 0.7517(2)
H10 H 1.2354 0.7133 0.7267
C16 C 0.6079(9) 0.5252(3) 0.8389(2)
H11 H 0.6775 0.4777 0.8632
H12 H 0.4448 0.5133 0.8262
C17 C 1.3774(8) 1.0047(3) 0.9130(3)
H13 H 1.3690 1.0593 0.9328
H14 H 1.5280 0.9810 0.9285
C18 C 1.3526(14) 1.0123(5) 0.8431(3)
H15 H 1.3591 0.9581 0.8235
H16 H 1.4757 1.0462 0.8304
H17 H 1.2061 1.0378 0.8279
C19 C 0.7187(13) 0.5383(4) 0.7804(3)
H18 H 0.6681 0.5903 0.7603
H19 H 0.6783 0.4939 0.7495
H20 H 0.8838 0.5394 0.7923
H21 H 0.6908 0.7154 0.9460
H22 H 0.9059 0.8570 0.9544
H23 H 1.1710 0.7124 0.9453
H24 H 1.0962 0.5925 1.0434
O1 O 0.9658(5) 0.55259(16) 0.93363(16)
O2 O 0.6317(4) 0.59839(16) 0.88108(14)
O3 O 1.1962(5) 0.95172(15) 0.93359(15)
O4 O 1.4396(4) 0.84483(15) 0.94953(14)
O5 O 1.2089(6) 0.8532(2) 1.08000(14)
O6 O 1.0952(4) 0.64208(15) 1.05568(12)
loop_
_geom_bond_atom_site_label_1
_geom_bond_atom_site_label_2
_geom_bond_site_symmetry_1
_geom_bond_site_symmetry_2
C1 C2 1_555 1_555
C2 C4 1_555 1_555
C3 C1 1_555 1_555
C4 O3 1_555 1_555
C5 C3 1_555 1_555
C6 C1 1_555 1_555
C7 C2 1_555 1_555
C8 C3 1_555 1_555
C9 C5 1_555 1_555
H1 C9 1_555 1_555
H2 C9 1_555 1_555
H3 C9 1_555 1_555
C10 C5 1_555 1_555
H4 C10 1_555 1_555
H5 C10 1_555 1_555
C11 C6 1_555 1_555
H6 C11 1_555 1_555
C12 H7 1_555 1_555
C13 C6 1_555 1_555
H8 C13 1_555 1_555
C14 C12 1_555 1_555
H9 C14 1_555 1_555
C15 C11 1_555 1_555
H10 C15 1_555 1_555
C16 H11 1_555 1_555
H12 C16 1_555 1_555
C17 H13 1_555 1_555
H14 C17 1_555 1_555
C18 C17 1_555 1_555
H15 C18 1_555 1_555
H16 C18 1_555 1_555
H17 C18 1_555 1_555
C19 C16 1_555 1_555
H18 C19 1_555 1_555
H19 C19 1_555 1_555
H20 C19 1_555 1_555
H21 C3 1_555 1_555
H22 C2 1_555 1_555
H23 C1 1_555 1_555
H24 O6 1_555 1_555
O1 C8 1_555 1_555
O2 C8 1_555 1_555
O3 C17 1_555 1_555
O4 C4 1_555 1_555
O5 C7 1_555 1_555
O6 C5 1_555 1_555
C7 C10 1_555 1_555
C12 C13 1_555 1_555
C14 C15 1_555 1_555
C16 O2 1_555 1_555

#END
