
#######################################################################
#
#                 Cambridge Crystallographic Data Centre
#                                CCDC 
#
#######################################################################
#
# If this CIF has been generated from an entry in the Cambridge 
# Structural Database, then it will include bibliographic, chemical, 
# crystal, experimental, refinement or atomic coordinate data resulting 
# from the CCDC's data processing and validation procedures.
#
#######################################################################

data_DUSROZ
_chemical_formula_moiety         'C17 H13 Cl1 N2 O2,H2 O1'
_chemical_name_systematic        
'N-(4-Chlorophenyl)-2-(8-quinolyloxy)acetamide monohydrate'
_symmetry_cell_setting           orthorhombic
_symmetry_space_group_name_H-M   'P b c a'
_symmetry_Int_Tables_number      61
_space_group_name_Hall           '-P 2ac 2ab'
loop_
_symmetry_equiv_pos_site_id
_symmetry_equiv_pos_as_xyz
1 x,y,z
2 1/2-x,-y,1/2+z
3 1/2+x,1/2-y,-z
4 -x,1/2+y,1/2-z
5 -x,-y,-z
6 1/2+x,y,1/2-z
7 1/2-x,1/2+y,z
8 x,1/2-y,1/2+z
_cell_length_a                   19.4984(19)
_cell_length_b                   5.2601(6)
_cell_length_c                   29.851(3)
_cell_angle_alpha                90
_cell_angle_beta                 90
_cell_angle_gamma                90
_cell_volume                     3061.62
_exptl_crystal_colour            colorless
_exptl_crystal_description       block
_cell_formula_units_Z            8
_exptl_crystal_recrystallization_method dimethylformamide
loop_
_atom_site_label
_atom_site_type_symbol
_atom_site_fract_x
_atom_site_fract_y
_atom_site_fract_z
Cl1 Cl 0.32260(4) 0.36909(15) 0.044180(19)
O1 O 0.40858(7) 0.1726(3) 0.32297(4)
N1 N 0.34502(9) 0.5390(3) 0.36817(6)
N2 N 0.38877(10) 0.1567(3) 0.23341(6)
C1 C 0.47572(12) 0.0589(4) 0.38814(7)
H1 H 0.4991 -0.0675 0.3726
C2 C 0.39211(11) 0.3959(4) 0.39023(6)
C3 C 0.40699(12) 0.4337(4) 0.43606(7)
C4 C 0.42016(11) -0.0454(4) 0.25142(7)
C5 C 0.42715(11) 0.2012(4) 0.36669(6)
C6 C 0.49027(12) 0.1029(5) 0.43328(8)
H2 H 0.5238 0.0060 0.4474
C7 C 0.45676(13) 0.2827(4) 0.45688(7)
H3 H 0.4667 0.3065 0.4871
C8 C 0.37041(14) 0.6238(5) 0.45851(7)
H4 H 0.3782 0.6522 0.4888
O2 O 0.43645(9) -0.2349(3) 0.23095(5)
C9 C 0.34138(12) 0.3011(5) 0.09954(7)
C10 C 0.43823(12) -0.0380(4) 0.30005(7)
H5 H 0.4228 -0.1942 0.3141
H6 H 0.4877 -0.0298 0.3030
C11 C 0.37288(11) 0.1944(4) 0.18780(7)
C12 C 0.33244(12) 0.3998(4) 0.17682(7)
H7 H 0.3155 0.5039 0.1995
C13 C 0.31662(12) 0.4537(5) 0.13280(7)
H8 H 0.2893 0.5930 0.1258
C14 C 0.31355(12) 0.7171(5) 0.39060(7)
H9 H 0.2822 0.8181 0.3753
C15 C 0.38144(13) 0.0964(5) 0.10979(7)
H10 H 0.3982 -0.0070 0.0870
C16 C 0.39718(13) 0.0424(4) 0.15377(7)
H11 H 0.4244 -0.0977 0.1605
C17 C 0.32395(14) 0.7662(5) 0.43632(8)
H12 H 0.2995 0.8934 0.4509
H13 H 0.3792(14) 0.272(4) 0.2514(7)
O3 O 0.28141(9) 0.4811(3) 0.28357(5)
H14 H 0.2599(13) 0.621(3) 0.2800(7)
H15 H 0.3043(12) 0.488(5) 0.3078(6)
loop_
_geom_bond_atom_site_label_1
_geom_bond_atom_site_label_2
_geom_bond_site_symmetry_1
_geom_bond_site_symmetry_2
Cl1 C9 1_555 1_555
O1 C5 1_555 1_555
N1 C2 1_555 1_555
N2 C4 1_555 1_555
C1 H1 1_555 1_555
C2 C3 1_555 1_555
C3 C7 1_555 1_555
C4 O2 1_555 1_555
C5 C1 1_555 1_555
C6 C1 1_555 1_555
H2 C6 1_555 1_555
C7 C6 1_555 1_555
H3 C7 1_555 1_555
C8 C3 1_555 1_555
H4 C8 1_555 1_555
C9 C13 1_555 1_555
C10 O1 1_555 1_555
H5 C10 1_555 1_555
H6 C10 1_555 1_555
C11 N2 1_555 1_555
C12 C11 1_555 1_555
H7 C12 1_555 1_555
C13 C12 1_555 1_555
H8 C13 1_555 1_555
C14 N1 1_555 1_555
H9 C14 1_555 1_555
C15 C9 1_555 1_555
H10 C15 1_555 1_555
C16 C11 1_555 1_555
H11 C16 1_555 1_555
C17 C8 1_555 1_555
H12 C17 1_555 1_555
O3 H14 1_555 1_555
H13 N2 1_555 1_555
H15 O3 1_555 1_555
C2 C5 1_555 1_555
C4 C10 1_555 1_555
C14 C17 1_555 1_555
C15 C16 1_555 1_555

#END
