
#######################################################################
#
#                 Cambridge Crystallographic Data Centre
#                                CCDC 
#
#######################################################################
#
# If this CIF has been generated from an entry in the Cambridge 
# Structural Database, then it will include bibliographic, chemical, 
# crystal, experimental, refinement or atomic coordinate data resulting 
# from the CCDC's data processing and validation procedures.
#
#######################################################################

data_DUSSEQ
_chemical_formula_moiety         'C12 H14 F2 N4 O3'
_chemical_name_systematic        
(E)-3-(1-(2,4-Difluorophenyl)ethyl)-5-methyl-N-nitro-1,3,5-oxadiazinan-4-imine
_symmetry_cell_setting           monoclinic
_symmetry_space_group_name_H-M   'P 21/c'
_symmetry_Int_Tables_number      14
_space_group_name_Hall           '-P 2ybc'
loop_
_symmetry_equiv_pos_site_id
_symmetry_equiv_pos_as_xyz
1 x,y,z
2 -x,1/2+y,1/2-z
3 -x,-y,-z
4 x,1/2-y,1/2+z
_cell_length_a                   13.385(3)
_cell_length_b                   6.7470(13)
_cell_length_c                   15.073(3)
_cell_angle_alpha                90
_cell_angle_beta                 101.25(3)
_cell_angle_gamma                90
_cell_volume                     1335.07
_exptl_crystal_colour            colorless
_exptl_crystal_description       prism
_cell_formula_units_Z            4
_exptl_crystal_recrystallization_method ethanol
loop_
_atom_site_label
_atom_site_type_symbol
_atom_site_fract_x
_atom_site_fract_y
_atom_site_fract_z
F1 F 0.40932(6) 0.24125(13) 0.33990(6)
F2 F 0.67967(7) 0.68795(18) 0.36250(8)
O1 O 0.23598(6) 0.67016(13) 0.16461(6)
O2 O 0.04094(7) 0.32758(14) 0.35714(7)
O3 O 0.09896(7) 0.03447(15) 0.39933(6)
N1 N 0.13558(7) 0.38098(16) 0.16500(6)
N2 N 0.21022(7) 0.52761(15) 0.29879(6)
N3 N 0.16278(8) 0.18616(15) 0.29436(7)
N4 N 0.09994(7) 0.18567(15) 0.35200(7)
C1 C 0.16316(9) 0.5470(2) 0.11134(8)
H1 H 0.1910 0.4946 0.0598
H2 H 0.1015 0.6254 0.0866
C2 C 0.16748(8) 0.36822(18) 0.25358(8)
C3 C 0.20435(10) 0.71093(19) 0.24732(8)
H3 H 0.1336 0.7618 0.2352
H4 H 0.2492 0.8126 0.2820
C4 C 0.07765(10) 0.2205(2) 0.11312(9)
H5 H 0.1237 0.1110 0.1065
H6 H 0.0455 0.2697 0.0532
H7 H 0.0250 0.1736 0.1450
C5 C 0.27466(9) 0.51446(19) 0.39058(7)
H8 H 0.2741 0.3734 0.4108
C6 C 0.22926(10) 0.6404(2) 0.45658(8)
H9 H 0.2235 0.7781 0.4355
H10 H 0.2735 0.6344 0.5165
H11 H 0.1615 0.5897 0.4602
C7 C 0.38383(9) 0.5676(2) 0.38557(8)
C8 C 0.44655(10) 0.4260(2) 0.35833(8)
C9 C 0.54602(10) 0.4619(3) 0.34965(9)
H12 H 0.5870 0.3615 0.3307
C10 C 0.58224(10) 0.6488(3) 0.36972(11)
C11 C 0.52547(12) 0.7976(3) 0.39754(12)
H13 H 0.5533 0.9261 0.4112
C12 C 0.42598(11) 0.7545(2) 0.40513(10)
H14 H 0.3856 0.8557 0.4242
loop_
_geom_bond_atom_site_label_1
_geom_bond_atom_site_label_2
_geom_bond_site_symmetry_1
_geom_bond_site_symmetry_2
F1 C8 1_555 1_555
F2 C10 1_555 1_555
O1 C1 1_555 1_555
O2 N4 1_555 1_555
O3 N4 1_555 1_555
N1 C1 1_555 1_555
N2 C2 1_555 1_555
N3 N4 1_555 1_555
C1 H1 1_555 1_555
H2 C1 1_555 1_555
C2 N1 1_555 1_555
C3 O1 1_555 1_555
H3 C3 1_555 1_555
H4 C3 1_555 1_555
C4 N1 1_555 1_555
H5 C4 1_555 1_555
H6 C4 1_555 1_555
H7 C4 1_555 1_555
C5 N2 1_555 1_555
H8 C5 1_555 1_555
C6 C5 1_555 1_555
H9 C6 1_555 1_555
H10 C6 1_555 1_555
H11 C6 1_555 1_555
C7 C5 1_555 1_555
C8 C7 1_555 1_555
C9 C8 1_555 1_555
H12 C9 1_555 1_555
C10 C9 1_555 1_555
C11 C10 1_555 1_555
H13 C11 1_555 1_555
C12 C7 1_555 1_555
H14 C12 1_555 1_555
N2 C3 1_555 1_555
N3 C2 1_555 1_555
C11 C12 1_555 1_555

#END
