
#######################################################################
#
#                 Cambridge Crystallographic Data Centre
#                                CCDC 
#
#######################################################################
#
# If this CIF has been generated from an entry in the Cambridge 
# Structural Database, then it will include bibliographic, chemical, 
# crystal, experimental, refinement or atomic coordinate data resulting 
# from the CCDC's data processing and validation procedures.
#
#######################################################################

data_DUSXOG
_chemical_formula_moiety         'C22 H26 N2 O6'
_chemical_name_systematic        
'Diethyl 2-cyano-4-(2-(4-(dimethylamino)phenyl)-2-oxoethylidene)-3-ethoxypent-2-enedioate'
_symmetry_cell_setting           monoclinic
_symmetry_space_group_name_H-M   'P 21/c'
_symmetry_Int_Tables_number      14
_space_group_name_Hall           '-P 2ybc'
loop_
_symmetry_equiv_pos_site_id
_symmetry_equiv_pos_as_xyz
1 x,y,z
2 -x,1/2+y,1/2-z
3 -x,-y,-z
4 x,1/2-y,1/2+z
_cell_length_a                   14.0585(8)
_cell_length_b                   12.3850(6)
_cell_length_c                   14.7990(8)
_cell_angle_alpha                90
_cell_angle_beta                 121.324(4)
_cell_angle_gamma                90
_cell_volume                     2201.14
_exptl_crystal_colour            orange
_exptl_crystal_description       plate
_cell_formula_units_Z            4
loop_
_atom_site_label
_atom_site_type_symbol
_atom_site_fract_x
_atom_site_fract_y
_atom_site_fract_z
O1 O 0.00050(10) 0.69865(10) 0.38461(10)
O2 O 0.16111(11) 0.60565(10) 0.44799(11)
O3 O 0.27128(10) 0.87582(9) 0.35557(9)
O4 O 0.37425(10) 0.86147(9) 0.58952(9)
O5 O 0.23883(10) 0.63373(9) 0.26958(9)
O6 O 0.37549(10) 0.52905(9) 0.39390(9)
N1 N 0.73529(13) 0.71820(11) 1.05957(11)
N2 N 0.00740(13) 0.94044(13) 0.28424(13)
C1 C 0.81164(16) 0.62662(15) 1.09727(15)
H1 H 0.7698 0.5606 1.0776
H2 H 0.8585 0.6302 1.1729
H3 H 0.8569 0.6288 1.0661
C2 C 0.66019(14) 0.73042(13) 0.95451(13)
C3 C 0.59458(14) 0.82513(13) 0.91430(13)
H4 H 0.6009 0.8795 0.9605
C4 C 0.52194(14) 0.83703(13) 0.80778(13)
H5 H 0.4799 0.8999 0.7833
C5 C 0.50860(14) 0.75790(13) 0.73414(13)
C6 C 0.42947(14) 0.77767(14) 0.62145(14)
C7 C 0.41388(14) 0.69432(14) 0.54233(13)
H6 H 0.4634 0.6367 0.5643
C8 C 0.33179(14) 0.69913(13) 0.44141(13)
C9 C 0.24757(14) 0.78831(13) 0.39263(13)
C10 C 0.14290(15) 0.78081(13) 0.37479(14)
C11 C 0.10576(15) 0.68535(15) 0.40666(14)
C12 C -0.04117(18) 0.61085(16) 0.41962(18)
H7 H 0.0161 0.5873 0.4897
H8 H -0.0618 0.5501 0.3716
C13 C -0.1394(2) 0.6500(2) 0.4217(2)
H9 H -0.1191 0.7123 0.4665
H10 H -0.1654 0.5941 0.4485
H11 H -0.1974 0.6689 0.3513
C14 C 0.38308(15) 0.89185(15) 0.37558(15)
H12 H 0.4049 0.8311 0.3490
H13 H 0.4360 0.8987 0.4509
C15 C 0.38015(17) 0.99377(16) 0.31911(18)
H14 H 0.3284 0.9854 0.2446
H15 H 0.4530 1.0082 0.3314
H16 H 0.3571 1.0529 0.3453
C16 C 0.75708(16) 0.80663(15) 1.13294(14)
H17 H 0.7822 0.8687 1.1122
H18 H 0.8134 0.7852 1.2031
H19 H 0.6899 0.8243 1.1318
C17 C 0.64516(15) 0.64937(14) 0.88092(14)
H20 H 0.6852 0.5853 0.9050
C18 C 0.57236(15) 0.66371(14) 0.77436(14)
H21 H 0.5652 0.6095 0.7277
C19 C 0.31933(14) 0.60970(13) 0.36774(13)
C20 C 0.21359(16) 0.55358(15) 0.18869(14)
H22 H 0.1924 0.4858 0.2062
H23 H 0.2780 0.5411 0.1823
C21 C 0.11929(17) 0.59802(17) 0.08782(15)
H24 H 0.0556 0.6080 0.0947
H25 H 0.1010 0.5485 0.0311
H26 H 0.1407 0.6662 0.0728
C22 C 0.06719(15) 0.86881(14) 0.32419(14)
H27? H 0.0126 0.5524 0.4470
H28? H -0.1101 0.5835 0.3602
C23? C -0.061(2) 0.6494(16) 0.5027(18)
H29? H 0.0077 0.6476 0.5698
H30? H -0.1146 0.6037 0.5051
H31? H -0.0885 0.7221 0.4872
loop_
_geom_bond_atom_site_label_1
_geom_bond_atom_site_label_2
_geom_bond_site_symmetry_1
_geom_bond_site_symmetry_2
O1 C11 1_555 1_555
O2 C11 1_555 1_555
O3 C9 1_555 1_555
O4 C6 1_555 1_555
O5 C19 1_555 1_555
O6 C19 1_555 1_555
N1 C1 1_555 1_555
N2 C22 1_555 1_555
C1 H1 1_555 1_555
H2 C1 1_555 1_555
H3 C1 1_555 1_555
C2 N1 1_555 1_555
C3 C2 1_555 1_555
H4 C3 1_555 1_555
C4 C3 1_555 1_555
H5 C4 1_555 1_555
C5 C4 1_555 1_555
C6 C5 1_555 1_555
C7 C6 1_555 1_555
H6 C7 1_555 1_555
C8 C7 1_555 1_555
C9 C8 1_555 1_555
C10 C9 1_555 1_555
C11 C10 1_555 1_555
C12 O1 1_555 1_555
H7 C12 1_555 1_555
H8 C12 1_555 1_555
C13 C12 1_555 1_555
H9 C13 1_555 1_555
H10 C13 1_555 1_555
H11 C13 1_555 1_555
C14 O3 1_555 1_555
H12 C14 1_555 1_555
H13 C14 1_555 1_555
C15 C14 1_555 1_555
H14 C15 1_555 1_555
H15 C15 1_555 1_555
H16 C15 1_555 1_555
C16 N1 1_555 1_555
H17 C16 1_555 1_555
H18 C16 1_555 1_555
H19 C16 1_555 1_555
C17 C2 1_555 1_555
H20 C17 1_555 1_555
C18 C5 1_555 1_555
H21 C18 1_555 1_555
C19 C8 1_555 1_555
C20 O5 1_555 1_555
H22 C20 1_555 1_555
H23 C20 1_555 1_555
C21 C20 1_555 1_555
H24 C21 1_555 1_555
H25 C21 1_555 1_555
H26 C21 1_555 1_555
C22 C10 1_555 1_555
C17 C18 1_555 1_555

#END
