
#######################################################################
#
#                 Cambridge Crystallographic Data Centre
#                                CCDC 
#
#######################################################################
#
# If this CIF has been generated from an entry in the Cambridge 
# Structural Database, then it will include bibliographic, chemical, 
# crystal, experimental, refinement or atomic coordinate data resulting 
# from the CCDC's data processing and validation procedures.
#
#######################################################################

data_DUSYEX
_chemical_formula_moiety         'C20 H21 N3 O4'
_chemical_name_systematic        
'Diethyl (3,3-dicyano-2-(4-(dimethylamino)phenyl)prop-2-en-1-ylidene)malonate'
_symmetry_cell_setting           triclinic
_symmetry_space_group_name_H-M   'P -1'
_symmetry_Int_Tables_number      2
_space_group_name_Hall           '-P 1'
loop_
_symmetry_equiv_pos_site_id
_symmetry_equiv_pos_as_xyz
1 x,y,z
2 -x,-y,-z
_cell_length_a                   7.1137(14)
_cell_length_b                   11.174(3)
_cell_length_c                   13.276(3)
_cell_angle_alpha                104.444(9)
_cell_angle_beta                 95.541(8)
_cell_angle_gamma                105.628(9)
_cell_volume                     968.863
_exptl_crystal_colour            'brownish red'
_exptl_crystal_description       plate
_cell_formula_units_Z            2
loop_
_atom_site_label
_atom_site_type_symbol
_atom_site_fract_x
_atom_site_fract_y
_atom_site_fract_z
O1 O 0.45519(14) 0.87847(11) 0.11748(8)
O2 O 0.33361(15) 0.70993(11) 0.18132(8)
O3 O 0.83080(14) 0.68930(11) -0.01262(7)
O4 O 0.50262(15) 0.64360(12) -0.06175(8)
N1 N 0.69742(18) 0.37633(13) 0.50076(10)
N2 N 0.74967(18) 1.01109(13) 0.54334(10)
N3 N 0.9128(2) 1.08723(14) 0.25865(11)
C1 C 0.3132(3) 1.0456(2) 0.10453(18)
H1 H 0.4406 1.1097 0.1408
H2 H 0.2054 1.0823 0.1208
H3 H 0.3107 1.0226 0.0281
C2 C 0.2868(2) 0.92588(17) 0.14128(13)
H4 H 0.2851 0.9472 0.2181
H5 H 0.1604 0.8591 0.1037
C3 C 0.4588(2) 0.77158(15) 0.14312(10)
C4 C 0.6436(2) 0.73706(14) 0.11915(11)
C5 C 0.7838(2) 0.74077(14) 0.19486(11)
H6 H 0.8951 0.7155 0.1745
C6 C 0.77672(19) 0.78205(15) 0.30935(11)
C7 C 0.75450(19) 0.68200(14) 0.36235(11)
C8 C 0.8184(2) 0.70597(15) 0.47144(11)
H7 H 0.8746 0.7931 0.5145
C9 C 0.8018(2) 0.60720(15) 0.51713(11)
H8 H 0.8489 0.6274 0.5907
C10 C 0.7156(2) 0.47554(15) 0.45702(11)
C11 C 0.7704(2) 0.40072(18) 0.61249(12)
H9 H 0.9146 0.4405 0.6274
H10 H 0.7373 0.3186 0.6306
H11 H 0.7084 0.4595 0.6547
C12 C 0.6489(2) 0.68550(15) 0.00515(11)
C13 C 0.8473(2) 0.63129(18) -0.12169(11)
H12 H 0.7984 0.6764 -0.1690
H13 H 0.7681 0.5385 -0.1459
C14 C 1.0621(3) 0.6457(2) -0.12257(15)
H14 H 1.1389 0.7378 -0.0963
H15 H 1.0809 0.6104 -0.1949
H16 H 1.1073 0.5984 -0.0771
C15 C 0.6736(2) 0.55100(15) 0.30263(11)
H17 H 0.6322 0.5311 0.2286
C16 C 0.6520(2) 0.45080(15) 0.34733(11)
H18 H 0.5939 0.3639 0.3042
C17 C 0.6172(2) 0.24293(17) 0.43522(14)
H19 H 0.4821 0.2283 0.3998
H20 H 0.6146 0.1844 0.4795
H21 H 0.7006 0.2260 0.3821
C18 C 0.7966(2) 0.91069(15) 0.35371(11)
C19 C 0.7705(2) 0.96386(15) 0.45959(11)
C20 C 0.8577(2) 1.00647(16) 0.29829(11)
loop_
_geom_bond_atom_site_label_1
_geom_bond_atom_site_label_2
_geom_bond_site_symmetry_1
_geom_bond_site_symmetry_2
O1 C2 1_555 1_555
O2 C3 1_555 1_555
O3 C12 1_555 1_555
O4 C12 1_555 1_555
N1 C10 1_555 1_555
N2 C19 1_555 1_555
N3 C20 1_555 1_555
C1 H1 1_555 1_555
H2 C1 1_555 1_555
H3 C1 1_555 1_555
C2 C1 1_555 1_555
H4 C2 1_555 1_555
H5 C2 1_555 1_555
C3 O1 1_555 1_555
C4 C3 1_555 1_555
C5 C4 1_555 1_555
H6 C5 1_555 1_555
C6 C5 1_555 1_555
C7 C6 1_555 1_555
C8 C7 1_555 1_555
H7 C8 1_555 1_555
C9 C8 1_555 1_555
H8 C9 1_555 1_555
C10 C9 1_555 1_555
C11 N1 1_555 1_555
H9 C11 1_555 1_555
H10 C11 1_555 1_555
H11 C11 1_555 1_555
C12 C4 1_555 1_555
C13 O3 1_555 1_555
H12 C13 1_555 1_555
H13 C13 1_555 1_555
C14 C13 1_555 1_555
H14 C14 1_555 1_555
H15 C14 1_555 1_555
H16 C14 1_555 1_555
C15 C7 1_555 1_555
H17 C15 1_555 1_555
C16 C10 1_555 1_555
H18 C16 1_555 1_555
C17 N1 1_555 1_555
H19 C17 1_555 1_555
H20 C17 1_555 1_555
H21 C17 1_555 1_555
C18 C6 1_555 1_555
C19 C18 1_555 1_555
C20 C18 1_555 1_555
C15 C16 1_555 1_555

#END
