
#######################################################################
#
#                 Cambridge Crystallographic Data Centre
#                                CCDC 
#
#######################################################################
#
# If this CIF has been generated from an entry in the Cambridge 
# Structural Database, then it will include bibliographic, chemical, 
# crystal, experimental, refinement or atomic coordinate data resulting 
# from the CCDC's data processing and validation procedures.
#
#######################################################################

data_DUSZOH
_chemical_name_common            Propachlor
_chemical_formula_moiety         'C11 H14 Cl1 N1 O1'
_chemical_name_systematic        2-Chloro-N-isopropyl-N-phenylacetamide
_chemical_properties_biological  
'Propachlor is a pre-emergent herbicide used to control broadleaf weeds and grasses'
_symmetry_cell_setting           monoclinic
_symmetry_space_group_name_H-M   'P 21/n'
_symmetry_Int_Tables_number      14
_space_group_name_Hall           '-P 2yn'
loop_
_symmetry_equiv_pos_site_id
_symmetry_equiv_pos_as_xyz
1 x,y,z
2 1/2-x,1/2+y,1/2-z
3 -x,-y,-z
4 1/2+x,1/2-y,1/2+z
_cell_length_a                   11.9190(11)
_cell_length_b                   7.8042(8)
_cell_length_c                   12.3789(13)
_cell_angle_alpha                90
_cell_angle_beta                 98.9630(10)
_cell_angle_gamma                90
_cell_volume                     1137.4
_exptl_crystal_colour            colorless
_exptl_crystal_description       block
_cell_formula_units_Z            4
loop_
_atom_site_label
_atom_site_type_symbol
_atom_site_fract_x
_atom_site_fract_y
_atom_site_fract_z
Cl1 Cl 0.57852(5) 0.22476(9) 0.44873(5)
N1 N 0.25393(14) 0.3526(2) 0.40187(13)
O1 O 0.40481(14) 0.4455(2) 0.32694(12)
C1 C 0.36637(17) 0.3629(3) 0.39670(16)
C2 C 0.44299(18) 0.2648(3) 0.48500(18)
H1 H 0.4074 0.1566 0.4980
H2 H 0.4520 0.3301 0.5525
C3 C 0.21346(16) 0.2664(3) 0.49159(15)
C4 C 0.17401(18) 0.0998(3) 0.47994(18)
H3 H 0.1734 0.0423 0.4140
C5 C 0.1354(2) 0.0186(3) 0.5666(2)
H4 H 0.1097 -0.0939 0.5592
C6 C 0.1349(2) 0.1042(4) 0.6635(2)
H5 H 0.1073 0.0504 0.7211
C7 C 0.1751(2) 0.2691(4) 0.67528(19)
H6 H 0.1757 0.3260 0.7414
C8 C 0.21471(19) 0.3513(3) 0.58983(17)
H7 H 0.2420 0.4629 0.5983
C9 C 0.1714(2) 0.4559(3) 0.32459(18)
H8 H 0.2083 0.4850 0.2615
C10 C 0.1415(3) 0.6210(3) 0.3759(3)
H9 H 0.1033 0.5964 0.4368
H10 H 0.0926 0.6875 0.3228
H11 H 0.2097 0.6845 0.4006
C11 C 0.0654(3) 0.3538(4) 0.2827(3)
H12 H 0.0865 0.2471 0.2530
H13 H 0.0186 0.4179 0.2267
H14 H 0.0240 0.3318 0.3418
loop_
_geom_bond_atom_site_label_1
_geom_bond_atom_site_label_2
_geom_bond_site_symmetry_1
_geom_bond_site_symmetry_2
Cl1 C2 1_555 1_555
N1 C1 1_555 1_555
O1 C1 1_555 1_555
C1 C2 1_555 1_555
C2 H1 1_555 1_555
H2 C2 1_555 1_555
C3 N1 1_555 1_555
C4 C3 1_555 1_555
H3 C4 1_555 1_555
C5 C4 1_555 1_555
H4 C5 1_555 1_555
C6 C5 1_555 1_555
H5 C6 1_555 1_555
C7 C6 1_555 1_555
H6 C7 1_555 1_555
C8 C3 1_555 1_555
H7 C8 1_555 1_555
C9 N1 1_555 1_555
H8 C9 1_555 1_555
C10 C9 1_555 1_555
H9 C10 1_555 1_555
H10 C10 1_555 1_555
H11 C10 1_555 1_555
C11 C9 1_555 1_555
H12 C11 1_555 1_555
H13 C11 1_555 1_555
H14 C11 1_555 1_555
C7 C8 1_555 1_555

#END
