
#######################################################################
#
#                 Cambridge Crystallographic Data Centre
#                                CCDC 
#
#######################################################################
#
# If this CIF has been generated from an entry in the Cambridge 
# Structural Database, then it will include bibliographic, chemical, 
# crystal, experimental, refinement or atomic coordinate data resulting 
# from the CCDC's data processing and validation procedures.
#
#######################################################################

data_DUTTIW
_chemical_formula_moiety         'C24 H20 Br2 N2 O4'
_chemical_name_systematic        
2,10-bis(3-bromophenyl)-3,7,11,15-tetraoxa-8,16-diazatricyclo[12.2.1.1^6,9^]octadeca-1(16),6(18),8,14(17)-tetraene
_symmetry_cell_setting           triclinic
_symmetry_space_group_name_H-M   'P -1'
_symmetry_Int_Tables_number      2
_space_group_name_Hall           '-P 1'
loop_
_symmetry_equiv_pos_site_id
_symmetry_equiv_pos_as_xyz
1 x,y,z
2 -x,-y,-z
_cell_length_a                   5.6446(4)
_cell_length_b                   7.3703(5)
_cell_length_c                   13.7010(10)
_cell_angle_alpha                93.7350(10)
_cell_angle_beta                 99.5640(10)
_cell_angle_gamma                102.3630(10)
_cell_volume                     546.028
_exptl_crystal_colour            colorless
_exptl_crystal_description       plate
_cell_formula_units_Z            1
loop_
_atom_site_label
_atom_site_type_symbol
_atom_site_fract_x
_atom_site_fract_y
_atom_site_fract_z
Br1 Br 0.78777(12) 0.13416(10) 0.45968(6)
O1 O -0.0873(7) 0.2957(6) -0.0511(3)
O2 O -0.0557(7) -0.0026(5) 0.2100(3)
N1 N -0.1737(8) 0.2688(7) 0.0394(4)
C1 C 0.5786(11) 0.2773(8) 0.3908(4)
C2 C 0.3670(11) 0.1843(8) 0.3295(4)
H1 H 0.3226 0.0517 0.3216
C3 C 0.2166(10) 0.2874(8) 0.2784(4)
C4 C 0.2855(12) 0.4808(8) 0.2927(5)
H2 H 0.1827 0.5521 0.2588
C5 C 0.5037(13) 0.5714(9) 0.3561(5)
H3 H 0.5493 0.7040 0.3655
C6 C 0.6540(12) 0.4683(9) 0.4054(5)
H4 H 0.8049 0.5278 0.4482
C7 C -0.0170(10) 0.1934(7) 0.2048(4)
H5 H -0.1606 0.2385 0.2229
C8 C 0.0115(9) 0.2363(7) 0.1015(4)
C9 C 0.2206(10) 0.2402(7) 0.0570(4)
H6 H 0.3764 0.2208 0.0867
C10 C 0.1503(9) 0.2772(7) -0.0368(4)
C11 C 0.2785(10) 0.2954(8) -0.1230(4)
H7 H 0.4454 0.3774 -0.1016
H8 H 0.1857 0.3539 -0.1749
C12 C -0.2998(10) -0.1054(8) 0.1658(4)
H9 H -0.3729 -0.0385 0.1125
H10 H -0.4066 -0.1201 0.2166
Br1A Br -0.78777(12) -0.13416(10) -0.45968(6)
O1A O 0.0873(7) -0.2957(6) 0.0511(3)
O2A O 0.0557(7) 0.0026(5) -0.2100(3)
N1A N 0.1737(8) -0.2688(7) -0.0394(4)
C1A C -0.5786(11) -0.2773(8) -0.3908(4)
C2A C -0.3670(11) -0.1843(8) -0.3295(4)
H1A H -0.3226 -0.0517 -0.3216
C3A C -0.2166(10) -0.2874(8) -0.2784(4)
C4A C -0.2855(12) -0.4808(8) -0.2927(5)
H2A H -0.1827 -0.5521 -0.2588
C5A C -0.5037(13) -0.5714(9) -0.3561(5)
H3A H -0.5493 -0.7040 -0.3655
C6A C -0.6540(12) -0.4683(9) -0.4054(5)
H4A H -0.8049 -0.5278 -0.4482
C7A C 0.0170(10) -0.1934(7) -0.2048(4)
H5A H 0.1606 -0.2385 -0.2229
C8A C -0.0115(9) -0.2363(7) -0.1015(4)
C9A C -0.2206(10) -0.2402(7) -0.0570(4)
H6A H -0.3764 -0.2208 -0.0867
C10A C -0.1503(9) -0.2772(7) 0.0368(4)
C11A C -0.2785(10) -0.2954(8) 0.1230(4)
H7A H -0.4454 -0.3774 0.1016
H8A H -0.1857 -0.3539 0.1749
C12A C 0.2998(10) 0.1054(8) -0.1658(4)
H9A H 0.3729 0.0385 -0.1125
H10A H 0.4066 0.1201 -0.2166
loop_
_geom_bond_atom_site_label_1
_geom_bond_atom_site_label_2
_geom_bond_site_symmetry_1
_geom_bond_site_symmetry_2
Br1 C1 1_555 1_555
O1 N1 1_555 1_555
O2 C7 1_555 1_555
N1 C8 1_555 1_555
C1 C2 1_555 1_555
C2 H1 1_555 1_555
C3 C2 1_555 1_555
C4 C3 1_555 1_555
H2 C4 1_555 1_555
C5 C4 1_555 1_555
H3 C5 1_555 1_555
C6 C1 1_555 1_555
H4 C6 1_555 1_555
C7 C3 1_555 1_555
H5 C7 1_555 1_555
C8 C7 1_555 1_555
C9 C8 1_555 1_555
H6 C9 1_555 1_555
C10 O1 1_555 1_555
C11 C10 1_555 1_555
H7 C11 1_555 1_555
H8 C11 1_555 1_555
C12 O2 1_555 1_555
H9 C12 1_555 1_555
H10 C12 1_555 1_555
Br1A C1A 1_555 1_555
O1A N1A 1_555 1_555
O2A C7A 1_555 1_555
N1A C8A 1_555 1_555
C1A C2A 1_555 1_555
C2A H1A 1_555 1_555
C3A C2A 1_555 1_555
C4A C3A 1_555 1_555
H2A C4A 1_555 1_555
C5A C4A 1_555 1_555
H3A C5A 1_555 1_555
C6A C1A 1_555 1_555
H4A C6A 1_555 1_555
C7A C3A 1_555 1_555
H5A C7A 1_555 1_555
C8A C7A 1_555 1_555
C9A C8A 1_555 1_555
H6A C9A 1_555 1_555
C10A O1A 1_555 1_555
C11A C12 1_555 1_555
H7A C11A 1_555 1_555
H8A C11A 1_555 1_555
C12A C11 1_555 1_555
H9A C12A 1_555 1_555
H10A C12A 1_555 1_555
C5 C6 1_555 1_555
C9 C10 1_555 1_555
O2A C12A 1_555 1_555
C5A C6A 1_555 1_555
C9A C10A 1_555 1_555
C10A C11A 1_555 1_555

#END
