
#######################################################################
#
#                 Cambridge Crystallographic Data Centre
#                                CCDC 
#
#######################################################################
#
# If this CIF has been generated from an entry in the Cambridge 
# Structural Database, then it will include bibliographic, chemical, 
# crystal, experimental, refinement or atomic coordinate data resulting 
# from the CCDC's data processing and validation procedures.
#
#######################################################################

data_DUVFIL
_chemical_formula_moiety         'C48 H64 O12'
_chemical_name_systematic        
4,5,7-trimethoxy-2-methyl-1-(4-methyl-3,5-bis(2,4,5-trimethoxyphenyl)heptan-2-yl)-3-(2,4,5-trimethoxyphenyl)indane
_symmetry_cell_setting           orthorhombic
_symmetry_space_group_name_H-M   'F d d 2'
_symmetry_Int_Tables_number      43
_space_group_name_Hall           'F 2 -2d'
loop_
_symmetry_equiv_pos_site_id
_symmetry_equiv_pos_as_xyz
1 x,y,z
2 -x,-y,z
3 1/4+x,1/4-y,1/4+z
4 1/4-x,1/4+y,1/4+z
5 x,1/2+y,1/2+z
6 -x,1/2-y,1/2+z
7 1/4+x,3/4-y,3/4+z
8 1/4-x,3/4+y,3/4+z
9 1/2+x,y,1/2+z
10 1/2-x,-y,1/2+z
11 3/4+x,1/4-y,3/4+z
12 3/4-x,1/4+y,3/4+z
13 1/2+x,1/2+y,z
14 1/2-x,1/2-y,z
15 3/4+x,3/4-y,1/4+z
16 3/4-x,3/4+y,1/4+z
_cell_length_a                   61.796(5)
_cell_length_b                   10.2319(9)
_cell_length_c                   30.175(3)
_cell_angle_alpha                90
_cell_angle_beta                 90
_cell_angle_gamma                90
_cell_volume                     19079.4
_exptl_crystal_colour            colorless
_exptl_crystal_description       prismatic
_cell_formula_units_Z            16
loop_
_atom_site_label
_atom_site_type_symbol
_atom_site_fract_x
_atom_site_fract_y
_atom_site_fract_z
O1 O 0.03017(7) 1.0476(5) 0.30470(14)
O2 O 0.02073(9) 1.1708(6) 0.45940(17)
O3 O 0.05535(11) 1.0179(6) 0.48036(17)
O4 O 0.07886(10) 0.4382(7) 0.5253(2)
O5 O 0.11565(6) 0.7340(4) 0.42642(14)
O6 O 0.10671(9) 0.3585(6) 0.3546(2)
O7 O 0.14261(8) 0.4725(6) 0.32997(19)
O8 O 0.10175(7) 0.7821(5) 0.24206(17)
O9 O 0.07191(7) 0.3132(4) 0.23123(15)
O10 O 0.02061(10) 0.0792(5) 0.1381(2)
O11 O 0.00279(8) 0.3074(5) 0.11563(18)
C1 C 0.05218(8) 0.9624(5) 0.36079(19)
C2 C 0.03533(9) 1.0443(6) 0.3489(2)
C3 C 0.02465(10) 1.1142(7) 0.3816(2)
H1 H 0.0131 1.1677 0.3740
C4 C 0.03111(11) 1.1052(7) 0.4258(2)
C5 C 0.04880(11) 1.0299(7) 0.4370(2)
C6 C 0.05901(9) 0.9573(6) 0.40485(19)
C7 C 0.07940(9) 0.8756(6) 0.40945(19)
H2 H 0.0906 0.9336 0.4212
C8 C 0.08565(8) 0.8458(6) 0.35992(17)
H3 H 0.0900 0.7542 0.3569
C9 C 0.06537(9) 0.8727(6) 0.33124(18)
H4 H 0.0700 0.9231 0.3053
C10 C 0.05152(8) 0.7547(6) 0.31444(18)
H5 H 0.0382 0.7937 0.3028
C11 C 0.06205(8) 0.6853(6) 0.27447(18)
H6 H 0.0652 0.7545 0.2530
C12 C 0.04687(8) 0.5879(6) 0.24998(18)
H7 H 0.0464 0.5074 0.2676
C13 C 0.05668(9) 0.5523(5) 0.20375(17)
H8 H 0.0721 0.5364 0.2085
C14 C 0.05503(10) 0.6653(6) 0.17047(19)
H9 H 0.0400 0.6769 0.1622
H10 H 0.0599 0.7451 0.1847
C15 C 0.06819(15) 0.6439(8) 0.1291(2)
H11 H 0.0831 0.6326 0.1369
H12 H 0.0667 0.7183 0.1100
H13 H 0.0631 0.5672 0.1141
C16 C 0.02368(8) 0.6383(7) 0.2458(2)
H14 H 0.0168 0.6351 0.2743
H15 H 0.0158 0.5846 0.2253
H16 H 0.0239 0.7268 0.2353
C17 C 0.04424(10) 0.6655(6) 0.3517(2)
H17 H 0.0359 0.5945 0.3397
H18 H 0.0355 0.7140 0.3722
H19 H 0.0567 0.6314 0.3669
C18 C 0.10430(10) 0.9362(7) 0.3458(2)
H20 H 0.0999 1.0257 0.3491
H21 H 0.1079 0.9196 0.3153
H22 H 0.1167 0.9197 0.3641
C19 C 0.07868(9) 0.7580(6) 0.43936(18)
C20 C 0.06008(10) 0.7143(7) 0.4603(2)
H23 H 0.0472 0.7593 0.4557
C21 C 0.06001(11) 0.6052(8) 0.4881(2)
C22 C 0.07934(12) 0.5397(7) 0.4958(3)
C23 C 0.09798(11) 0.5796(7) 0.4748(2)
H24 H 0.1108 0.5342 0.4792
C24 C 0.09757(9) 0.6881(6) 0.4470(2)
C25 C 0.08389(9) 0.6227(6) 0.2852(2)
C26 C 0.08516(10) 0.5144(7) 0.3125(2)
H25 H 0.0724 0.4738 0.3214
C27 C 0.10458(12) 0.4645(7) 0.3268(2)
C28 C 0.12370(11) 0.5259(9) 0.3120(3)
C29 C 0.12305(10) 0.6274(9) 0.2837(3)
H26 H 0.1359 0.6647 0.2735
C30 C 0.10310(9) 0.6767(7) 0.2696(2)
C31 C 0.04721(9) 0.4258(5) 0.18660(17)
C32 C 0.05532(9) 0.3069(6) 0.20039(19)
C33 C 0.04724(10) 0.1891(6) 0.1846(3)
H27 H 0.0533 0.1105 0.1939
C34 C 0.03026(11) 0.1895(6) 0.1551(3)
C35 C 0.02104(10) 0.3064(6) 0.1422(2)
C36 C 0.02976(9) 0.4202(6) 0.1573(2)
H28 H 0.0238 0.4984 0.1475
C37 C 0.01599(12) 1.1492(9) 0.2899(2)
H29 H 0.0018 1.1347 0.3016
H30 H 0.0154 1.1490 0.2581
H31 H 0.0213 1.2322 0.3000
C38 C 0.00068(19) 1.2325(15) 0.4489(4)
H32 H 0.0034 1.3101 0.4319
H33 H -0.0067 1.2553 0.4758
H34 H -0.0081 1.1736 0.4319
C39 C 0.0624(2) 1.1150(14) 0.5011(4)
H35 H 0.0679 1.1782 0.4804
H36 H 0.0739 1.0878 0.5205
H37 H 0.0510 1.1533 0.5182
O12 O 0.0413(3) 0.5894(14) 0.5137(5)
C40 C 0.0315(3) 0.4732(19) 0.4993(7)
H38 H 0.0284 0.4791 0.4682
H39 H 0.0182 0.4600 0.5153
H40 H 0.0410 0.4010 0.5047
C41 C 0.09863(18) 0.3837(15) 0.5379(5)
H41 H 0.1083 0.4519 0.5470
H42 H 0.1048 0.3375 0.5132
H43 H 0.0964 0.3242 0.5620
C42 C 0.13523(10) 0.6648(9) 0.4312(3)
H44 H 0.1401 0.6709 0.4614
H45 H 0.1460 0.7016 0.4119
H46 H 0.1330 0.5747 0.4237
C43 C 0.08881(18) 0.3198(9) 0.3794(3)
H47 H 0.0825 0.3947 0.3934
H48 H 0.0933 0.2583 0.4016
H49 H 0.0784 0.2795 0.3602
C44 C 0.16234(12) 0.5413(11) 0.3221(3)
H50 H 0.1662 0.5338 0.2914
H51 H 0.1736 0.5046 0.3401
H52 H 0.1605 0.6318 0.3296
C45 C 0.11934(15) 0.8216(10) 0.2171(4)
H53 H 0.1309 0.8472 0.2364
H54 H 0.1153 0.8944 0.1988
H55 H 0.1241 0.7506 0.1986
C46 C 0.08026(13) 0.1956(7) 0.2486(3)
H56 H 0.0689 0.1481 0.2631
H57 H 0.0915 0.2149 0.2695
H58 H 0.0861 0.1436 0.2249
C47 C 0.03059(17) -0.0410(8) 0.1496(5)
H59 H 0.0449 -0.0439 0.1374
H60 H 0.0222 -0.1121 0.1380
H61 H 0.0314 -0.0483 0.1813
C48 C 0.0062(2) 0.3145(16) 0.0716(4)
H62 H 0.0158 0.3862 0.0653
H63 H -0.0073 0.3279 0.0567
H64 H 0.0127 0.2345 0.0615
O13? O 0.0400(6) 0.548(3) 0.4990(8)
C49? C 0.0365(3) 0.502(2) 0.5397(8)
H65? H 0.0472 0.4375 0.5468
H66? H 0.0224 0.4624 0.5409
H67? H 0.0372 0.5722 0.5607
loop_
_geom_bond_atom_site_label_1
_geom_bond_atom_site_label_2
_geom_bond_site_symmetry_1
_geom_bond_site_symmetry_2
O1 C2 1_555 1_555
O2 C4 1_555 1_555
O3 C5 1_555 1_555
O4 C22 1_555 1_555
O5 C24 1_555 1_555
O6 C27 1_555 1_555
O7 C28 1_555 1_555
O8 C30 1_555 1_555
O9 C32 1_555 1_555
O10 C34 1_555 1_555
O11 C35 1_555 1_555
C1 C2 1_555 1_555
C2 C3 1_555 1_555
C3 H1 1_555 1_555
C4 C3 1_555 1_555
C5 C4 1_555 1_555
C6 C1 1_555 1_555
C7 C6 1_555 1_555
H2 C7 1_555 1_555
C8 C7 1_555 1_555
H3 C8 1_555 1_555
C9 C1 1_555 1_555
H4 C9 1_555 1_555
C10 C9 1_555 1_555
H5 C10 1_555 1_555
C11 C10 1_555 1_555
H6 C11 1_555 1_555
C12 C11 1_555 1_555
H7 C12 1_555 1_555
C13 C12 1_555 1_555
H8 C13 1_555 1_555
C14 C13 1_555 1_555
H9 C14 1_555 1_555
H10 C14 1_555 1_555
C15 C14 1_555 1_555
H11 C15 1_555 1_555
H12 C15 1_555 1_555
H13 C15 1_555 1_555
C16 C12 1_555 1_555
H14 C16 1_555 1_555
H15 C16 1_555 1_555
H16 C16 1_555 1_555
C17 C10 1_555 1_555
H17 C17 1_555 1_555
H18 C17 1_555 1_555
H19 C17 1_555 1_555
C18 C8 1_555 1_555
H20 C18 1_555 1_555
H21 C18 1_555 1_555
H22 C18 1_555 1_555
C19 C7 1_555 1_555
C20 C19 1_555 1_555
H23 C20 1_555 1_555
C21 C20 1_555 1_555
C22 C21 1_555 1_555
C23 C22 1_555 1_555
H24 C23 1_555 1_555
C24 C19 1_555 1_555
C25 C11 1_555 1_555
C26 C25 1_555 1_555
H25 C26 1_555 1_555
C27 C26 1_555 1_555
C28 C27 1_555 1_555
C29 C28 1_555 1_555
H26 C29 1_555 1_555
C30 C25 1_555 1_555
C31 C13 1_555 1_555
C32 C31 1_555 1_555
C33 C32 1_555 1_555
H27 C33 1_555 1_555
C34 C33 1_555 1_555
C35 C34 1_555 1_555
C36 C31 1_555 1_555
H28 C36 1_555 1_555
C37 O1 1_555 1_555
H29 C37 1_555 1_555
H30 C37 1_555 1_555
H31 C37 1_555 1_555
C38 O2 1_555 1_555
H32 C38 1_555 1_555
H33 C38 1_555 1_555
H34 C38 1_555 1_555
C39 O3 1_555 1_555
H35 C39 1_555 1_555
H36 C39 1_555 1_555
H37 C39 1_555 1_555
O12 C21 1_555 1_555
C40 O12 1_555 1_555
H38 C40 1_555 1_555
H39 C40 1_555 1_555
H40 C40 1_555 1_555
C41 O4 1_555 1_555
H41 C41 1_555 1_555
H42 C41 1_555 1_555
H43 C41 1_555 1_555
C42 O5 1_555 1_555
H44 C42 1_555 1_555
H45 C42 1_555 1_555
H46 C42 1_555 1_555
C43 O6 1_555 1_555
H47 C43 1_555 1_555
H48 C43 1_555 1_555
H49 C43 1_555 1_555
C44 O7 1_555 1_555
H50 C44 1_555 1_555
H51 C44 1_555 1_555
H52 C44 1_555 1_555
C45 O8 1_555 1_555
H53 C45 1_555 1_555
H54 C45 1_555 1_555
H55 C45 1_555 1_555
C46 O9 1_555 1_555
H56 C46 1_555 1_555
H57 C46 1_555 1_555
H58 C46 1_555 1_555
C47 O10 1_555 1_555
H59 C47 1_555 1_555
H60 C47 1_555 1_555
H61 C47 1_555 1_555
C48 O11 1_555 1_555
H62 C48 1_555 1_555
H63 C48 1_555 1_555
H64 C48 1_555 1_555
C5 C6 1_555 1_555
C8 C9 1_555 1_555
C23 C24 1_555 1_555
C29 C30 1_555 1_555
C35 C36 1_555 1_555

#END
