
#######################################################################
#
#                 Cambridge Crystallographic Data Centre
#                                CCDC 
#
#######################################################################
#
# If this CIF has been generated from an entry in the Cambridge 
# Structural Database, then it will include bibliographic, chemical, 
# crystal, experimental, refinement or atomic coordinate data resulting 
# from the CCDC's data processing and validation procedures.
#
#######################################################################

data_DUWBAY
_chemical_compound_source        
'Eleutherine americana MERR. et HEYNE (Iridaceae)'
_chemical_name_common            Hongconin
_chemical_formula_moiety         'C16 H16 O5'
_chemical_name_systematic        
5,10-Dihydroxy-1,3-dihydro-1,3-dimethyl-9-methoxy-2H-naphtho(2,3-c)pyran-4-one
_symmetry_cell_setting           orthorhombic
_symmetry_space_group_name_H-M   'P 21 21 21'
_symmetry_Int_Tables_number      19
_space_group_name_Hall           'P 2ac 2ab'
loop_
_symmetry_equiv_pos_site_id
_symmetry_equiv_pos_as_xyz
1 x,y,z
2 1/2+x,1/2-y,-z
3 -x,1/2+y,1/2-z
4 1/2-x,-y,1/2+z
_cell_length_a                   16.037(8)
_cell_length_b                   20.092(10)
_cell_length_c                   4.315(2)
_cell_angle_alpha                90
_cell_angle_beta                 90
_cell_angle_gamma                90
_cell_volume                     1390.36
_exptl_crystal_colour            yellow
_chemical_melting_point          '135 deg.C'
_cell_formula_units_Z            4
loop_
_atom_site_label
_atom_site_type_symbol
_atom_site_fract_x
_atom_site_fract_y
_atom_site_fract_z
C1 C 0.2514(6) 0.2355(4) -0.1390(22)
C2 C 0.2199(7) 0.3462(4) 0.0429(26)
C3 C 0.1374(6) 0.3227(4) 0.1849(25)
C4 C 0.1214(5) 0.2527(4) 0.1871(23)
C5 C 0.0527(5) 0.2276(5) 0.3445(26)
C6 C 0.0367(6) 0.1575(5) 0.3501(27)
C7 C -0.0361(6) 0.1330(5) 0.4971(33)
C8 C -0.0533(7) 0.0646(5) 0.4993(35)
C9 C 0.0006(7) 0.0205(5) 0.3374(31)
C10 C 0.0715(6) 0.0448(5) 0.1984(29)
C11 C 0.0930(6) 0.1134(4) 0.1932(25)
C12 C 0.1640(5) 0.1412(5) 0.0409(26)
C13 C 0.1783(5) 0.2084(4) 0.0343(23)
C14 C 0.3352(5) 0.2276(5) 0.0291(28)
C15 C 0.2144(8) 0.4203(5) -0.0749(32)
C16 C 0.1076(8) -0.0668(5) 0.0050(36)
O1 O 0.2377(4) 0.3047(3) -0.2159(16)
O2 O 0.0884(4) 0.3644(3) 0.3040(21)
O3 O -0.0006(4) 0.2676(3) 0.4950(21)
O4 O 0.2204(4) 0.1011(3) -0.1114(19)
O5 O 0.1267(5) 0.0038(3) 0.0417(24)
loop_
_geom_bond_atom_site_label_1
_geom_bond_atom_site_label_2
_geom_bond_site_symmetry_1
_geom_bond_site_symmetry_2
C1 C13 1_555 1_555
C2 C3 1_555 1_555
C3 C4 1_555 1_555
C4 C5 1_555 1_555
C5 C6 1_555 1_555
C6 C7 1_555 1_555
C7 C8 1_555 1_555
C8 C9 1_555 1_555
C9 C10 1_555 1_555
C10 C11 1_555 1_555
C11 C6 1_555 1_555
C12 C11 1_555 1_555
C13 C4 1_555 1_555
C14 C1 1_555 1_555
C15 C2 1_555 1_555
C16 O5 1_555 1_555
O1 C1 1_555 1_555
O2 C3 1_555 1_555
O3 C5 1_555 1_555
O4 C12 1_555 1_555
O5 C10 1_555 1_555
C2 O1 1_555 1_555
C12 C13 1_555 1_555

#END
