
#######################################################################
#
#                 Cambridge Crystallographic Data Centre
#                                CCDC 
#
#######################################################################
#
# If this CIF has been generated from an entry in the Cambridge 
# Structural Database, then it will include bibliographic, chemical, 
# crystal, experimental, refinement or atomic coordinate data resulting 
# from the CCDC's data processing and validation procedures.
#
#######################################################################

data_DUXHIP
_chemical_formula_moiety         'C19 H25 B1 N1 O4 P1'
_chemical_name_systematic        
'Diethyl (1-hydroxy-2-(1-phenylethyl)-2,3-dihydro-1H-2,1-benzazaborol-3-yl)phosphonate'
_symmetry_cell_setting           orthorhombic
_symmetry_space_group_name_H-M   'P 21 21 21'
_symmetry_Int_Tables_number      19
_space_group_name_Hall           'P 2ac 2ab'
loop_
_symmetry_equiv_pos_site_id
_symmetry_equiv_pos_as_xyz
1 x,y,z
2 1/2-x,-y,1/2+z
3 -x,1/2+y,1/2-z
4 1/2+x,1/2-y,-z
_cell_length_a                   8.6690(5)
_cell_length_b                   14.2065(5)
_cell_length_c                   16.6943(7)
_cell_angle_alpha                90
_cell_angle_beta                 90
_cell_angle_gamma                90
_cell_volume                     2056.01
_exptl_crystal_colour            white
_exptl_crystal_description       block
_cell_formula_units_Z            4
loop_
_atom_site_label
_atom_site_type_symbol
_atom_site_fract_x
_atom_site_fract_y
_atom_site_fract_z
P1 P 0.60515(10) 0.30250(5) 0.13454(4)
C1 C 0.7113(3) 0.19881(18) 0.16671(15)
H1 H 0.8225 0.2110 0.1647
C2 C 0.9003(4) 0.1992(2) 0.33103(15)
O1 O 0.5413(3) 0.04274(14) 0.31863(12)
H2 H 0.4917 -0.0046 0.3074
N1 N 0.6648(3) 0.17344(14) 0.24875(13)
O2 O 0.6546(3) 0.31759(15) 0.04562(12)
O3 O 0.4335(2) 0.27200(15) 0.12407(12)
O4 O 0.6280(3) 0.38352(13) 0.18790(12)
C3 C 0.6720(3) 0.11357(18) 0.11665(16)
C4 C 0.7337(3) 0.22829(19) 0.31412(16)
H3 H 0.7356 0.2942 0.2969
C5 C 0.5453(4) -0.0359(2) 0.12526(19)
H4 H 0.4908 -0.0809 0.1542
C6 C 0.5927(4) 0.04697(17) 0.16224(16)
C7 C 0.5793(5) -0.0511(2) 0.04596(19)
H5 H 0.5480 -0.1068 0.0215
C8 C 0.7074(4) 0.0981(2) 0.03700(18)
H6 H 0.7622 0.1424 0.0075
B1 B 0.5911(4) 0.0842(2) 0.25053(18)
C9 C 0.6588(5) 0.0146(2) 0.0025(2)
H7 H 0.6805 0.0030 -0.0512
C10 C 0.6380(4) 0.2236(2) 0.39022(17)
H8 H 0.5342 0.2429 0.3788
H9 H 0.6819 0.2646 0.4298
H10 H 0.6375 0.1602 0.4101
C11 C 0.9958(4) 0.2594(3) 0.3723(2)
H11 H 0.9588 0.3181 0.3879
C12 C 1.1470(5) 0.2342(4) 0.3910(2)
H12 H 1.2102 0.2757 0.4191
C13 C 0.9595(4) 0.1128(2) 0.3080(2)
H13 H 0.8984 0.0709 0.2794
C14 C 1.2011(5) 0.1492(4) 0.3681(3)
H14 H 1.3021 0.1324 0.3804
C15 C 1.1100(5) 0.0886(3) 0.3277(3)
H15 H 1.1484 0.0299 0.3129
C16 C 0.7370(6) 0.3974(3) 0.0146(3)
H16 H 0.7785 0.4335 0.0589
H17 H 0.8232 0.3753 -0.0174
C17 C 0.3265(5) 0.2692(4) 0.1901(2)
H18 H 0.3126 0.2044 0.2070
H19 H 0.3695 0.3039 0.2349
C18 C 0.6448(8) 0.4558(4) -0.0323(5)
H20 H 0.6096 0.4218 -0.0785
H21 H 0.7036 0.5095 -0.0492
H22 H 0.5575 0.4764 -0.0015
C19 C 0.1793(6) 0.3084(5) 0.1699(3)
H23 H 0.1922 0.3727 0.1535
H24 H 0.1126 0.3058 0.2157
H25 H 0.1345 0.2730 0.1268
loop_
_geom_bond_atom_site_label_1
_geom_bond_atom_site_label_2
_geom_bond_site_symmetry_1
_geom_bond_site_symmetry_2
P1 C1 1_555 1_555
C1 H1 1_555 1_555
C2 C4 1_555 1_555
O1 H2 1_555 1_555
N1 C1 1_555 1_555
O2 P1 1_555 1_555
O3 P1 1_555 1_555
O4 P1 1_555 1_555
C3 C1 1_555 1_555
C4 N1 1_555 1_555
H3 C4 1_555 1_555
C5 H4 1_555 1_555
C6 C3 1_555 1_555
C7 C5 1_555 1_555
H5 C7 1_555 1_555
C8 C3 1_555 1_555
H6 C8 1_555 1_555
B1 O1 1_555 1_555
C9 C7 1_555 1_555
H7 C9 1_555 1_555
C10 C4 1_555 1_555
H8 C10 1_555 1_555
H9 C10 1_555 1_555
H10 C10 1_555 1_555
C11 C2 1_555 1_555
H11 C11 1_555 1_555
C12 C11 1_555 1_555
H12 C12 1_555 1_555
C13 C2 1_555 1_555
H13 C13 1_555 1_555
C14 C12 1_555 1_555
H14 C14 1_555 1_555
C15 C13 1_555 1_555
H15 C15 1_555 1_555
C16 O2 1_555 1_555
H16 C16 1_555 1_555
H17 C16 1_555 1_555
C17 O3 1_555 1_555
H18 C17 1_555 1_555
H19 C17 1_555 1_555
C18 C16 1_555 1_555
H20 C18 1_555 1_555
H21 C18 1_555 1_555
H22 C18 1_555 1_555
C19 C17 1_555 1_555
H23 C19 1_555 1_555
H24 C19 1_555 1_555
H25 C19 1_555 1_555
N1 B1 1_555 1_555
C5 C6 1_555 1_555
C6 B1 1_555 1_555
C8 C9 1_555 1_555
C14 C15 1_555 1_555

#END
