
#######################################################################
#
#                 Cambridge Crystallographic Data Centre
#                                CCDC 
#
#######################################################################
#
# If this CIF has been generated from an entry in the Cambridge 
# Structural Database, then it will include bibliographic, chemical, 
# crystal, experimental, refinement or atomic coordinate data resulting 
# from the CCDC's data processing and validation procedures.
#
#######################################################################

data_DUZCIL
_chemical_formula_moiety         'C13 H14 O1 S3'
_chemical_name_systematic        
2-(Butylsulfanyl)-3,3'-bithiophene-5-carbaldehyde
_symmetry_cell_setting           monoclinic
_symmetry_space_group_name_H-M   'P 21/c'
_symmetry_Int_Tables_number      14
_space_group_name_Hall           '-P 2ybc'
loop_
_symmetry_equiv_pos_site_id
_symmetry_equiv_pos_as_xyz
1 x,y,z
2 -x,1/2+y,1/2-z
3 -x,-y,-z
4 x,1/2-y,1/2+z
_cell_length_a                   10.7974(15)
_cell_length_b                   9.9673(14)
_cell_length_c                   13.4751(18)
_cell_angle_alpha                90
_cell_angle_beta                 111.692(2)
_cell_angle_gamma                90
_cell_volume                     1347.51
_exptl_crystal_colour            'light yellow'
_exptl_crystal_description       block
_chemical_melting_point          55-57deg.C
_cell_formula_units_Z            4
loop_
_atom_site_label
_atom_site_type_symbol
_atom_site_fract_x
_atom_site_fract_y
_atom_site_fract_z
O1 O 0.0571(2) 0.2502(2) -0.19079(18)
S1 S 0.19426(8) 0.36803(8) 0.03890(6)
S2 S 0.23941(10) 1.00186(8) 0.15145(8)
S3 S 0.31873(9) 0.53187(8) 0.23961(6)
C1 C 0.0533(3) 0.3711(4) -0.1801(3)
H1 H 0.0078 0.4208 -0.2412
C2 C 0.1121(3) 0.4443(3) -0.0824(2)
C3 C 0.1135(3) 0.5804(3) -0.0717(2)
H2 H 0.0731 0.6375 -0.1292
C4 C 0.1806(3) 0.6279(3) 0.0329(2)
C5 C 0.2305(3) 0.5219(3) 0.1030(2)
C6 C 0.2422(3) 0.8306(3) 0.1567(3)
H3 H 0.2741 0.7823 0.2202
C7 C 0.1936(3) 0.7726(3) 0.0595(2)
C8 C 0.1537(3) 0.8724(3) -0.0211(3)
H4 H 0.1182 0.8524 -0.0936
C9 C 0.1720(3) 0.9989(3) 0.0169(3)
H5 H 0.1500 1.0752 -0.0258
C10 C 0.3546(3) 0.3580(3) 0.2773(2)
H6 H 0.2719 0.3083 0.2597
H7 H 0.4052 0.3188 0.2383
C11 C 0.4341(3) 0.3490(3) 0.3967(2)
H8 H 0.5171 0.3979 0.4136
H9 H 0.3840 0.3906 0.4352
C12 C 0.4643(3) 0.2045(3) 0.4324(2)
H10 H 0.5153 0.1635 0.3945
H11 H 0.3812 0.1554 0.4144
C13 C 0.5428(3) 0.1940(3) 0.5529(2)
H12 H 0.5596 0.1013 0.5726
H13 H 0.4920 0.2334 0.5907
H14 H 0.6260 0.2407 0.5708
loop_
_geom_bond_atom_site_label_1
_geom_bond_atom_site_label_2
_geom_bond_site_symmetry_1
_geom_bond_site_symmetry_2
O1 C1 1_555 1_555
S1 C2 1_555 1_555
S2 C6 1_555 1_555
S3 C5 1_555 1_555
C1 H1 1_555 1_555
C2 C1 1_555 1_555
C3 C2 1_555 1_555
H2 C3 1_555 1_555
C4 C3 1_555 1_555
C5 S1 1_555 1_555
C6 H3 1_555 1_555
C7 C4 1_555 1_555
C8 C7 1_555 1_555
H4 C8 1_555 1_555
C9 S2 1_555 1_555
H5 C9 1_555 1_555
C10 S3 1_555 1_555
H6 C10 1_555 1_555
H7 C10 1_555 1_555
C11 C10 1_555 1_555
H8 C11 1_555 1_555
H9 C11 1_555 1_555
C12 C11 1_555 1_555
H10 C12 1_555 1_555
H11 C12 1_555 1_555
C13 C12 1_555 1_555
H12 C13 1_555 1_555
H13 C13 1_555 1_555
H14 C13 1_555 1_555
C4 C5 1_555 1_555
C6 C7 1_555 1_555
C8 C9 1_555 1_555

#END
