
#######################################################################
#
#                 Cambridge Crystallographic Data Centre
#                                CCDC 
#
#######################################################################
#
# If this CIF has been generated from an entry in the Cambridge 
# Structural Database, then it will include bibliographic, chemical, 
# crystal, experimental, refinement or atomic coordinate data resulting 
# from the CCDC's data processing and validation procedures.
#
#######################################################################

data_DUZFIO
_chemical_formula_moiety         'C19 H22 N4 O4'
_chemical_name_systematic        
'Diethyl 1-(diphenylcarbohydrazonoyl)hydrazine-1,2-dicarboxylate'
_symmetry_cell_setting           monoclinic
_symmetry_space_group_name_H-M   'P 21/c'
_symmetry_Int_Tables_number      14
_space_group_name_Hall           '-P 2ybc'
loop_
_symmetry_equiv_pos_site_id
_symmetry_equiv_pos_as_xyz
1 x,y,z
2 -x,1/2+y,1/2-z
3 -x,-y,-z
4 x,1/2-y,1/2+z
_cell_length_a                   10.4777(5)
_cell_length_b                   11.1093(6)
_cell_length_c                   17.6140(8)
_cell_angle_alpha                90
_cell_angle_beta                 108.3643(12)
_cell_angle_gamma                90
_cell_volume                     1945.85
_exptl_crystal_colour            colorless
_exptl_crystal_description       chunk
_chemical_melting_point          123-124deg.C
_cell_formula_units_Z            4
loop_
_atom_site_label
_atom_site_type_symbol
_atom_site_fract_x
_atom_site_fract_y
_atom_site_fract_z
O1 O 0.7526(2) 0.25460(17) 0.51423(12)
O2 O 0.7838(2) 0.30047(19) 0.39575(12)
O3 O 1.03538(19) 0.43848(18) 0.60385(11)
O4 O 0.93425(18) 0.53738(18) 0.68197(10)
N1 N 0.6132(2) 0.51222(19) 0.59444(12)
N2 N 0.6160(2) 0.39197(19) 0.60527(13)
N3 N 0.8129(2) 0.48941(18) 0.55852(12)
N4 N 0.8001(2) 0.44533(18) 0.48288(12)
C1 C 0.7050(2) 0.5607(2) 0.57032(13)
C2 C 0.5276(2) 0.3365(2) 0.63910(14)
C3 C 0.5319(2) 0.2116(2) 0.64482(17)
C4 C 0.4515(3) 0.1516(2) 0.68101(19)
C5 C 0.3659(3) 0.2136(3) 0.7116(2)
C6 C 0.3598(3) 0.3370(3) 0.70481(19)
C7 C 0.4402(2) 0.3992(2) 0.66862(16)
C8 C 0.7075(2) 0.6913(2) 0.55831(13)
C9 C 0.6156(3) 0.7654(2) 0.57818(17)
C10 C 0.6189(3) 0.8884(2) 0.5686(2)
C11 C 0.7125(3) 0.9402(2) 0.5386(2)
C12 C 0.8019(3) 0.8682(2) 0.5179(2)
C13 C 0.8004(2) 0.7446(2) 0.52762(19)
C14 C 0.7775(2) 0.3262(2) 0.46877(16)
C15 C 0.7356(5) 0.1801(3) 0.3656(2)
C16 C 0.8256(4) 0.1331(4) 0.3208(3)
C17 C 0.9382(2) 0.4849(2) 0.61499(14)
C18 C 1.0607(2) 0.5511(3) 0.74596(18)
C19 C 1.0381(4) 0.6418(3) 0.8027(2)
H1 H 0.5893 0.1684 0.6241
H2 H 0.4555 0.0681 0.6847
H3 H 0.3126 0.1729 0.7366
H4 H 0.3008 0.3795 0.7248
H5 H 0.4350 0.4827 0.6644
H6 H 0.5514 0.7316 0.5981
H7 H 0.5573 0.9369 0.5824
H8 H 0.7147 1.0232 0.5325
H9 H 0.8647 0.9027 0.4971
H10 H 0.8622 0.6969 0.5134
H11 H 0.6438 0.1850 0.3301
H12 H 0.7393 0.1270 0.4100
H13 H 0.9171 0.1544 0.3490
H14 H 0.7996 0.1678 0.2682
H15 H 0.8176 0.0471 0.3166
H16 H 1.1301 0.5790 0.7245
H17 H 1.0877 0.4749 0.7731
H18 H 1.1208 0.6557 0.8449
H19 H 0.9714 0.6123 0.8249
H20 H 1.0076 0.7158 0.7747
H21 H 0.6730 0.3491 0.5911
H22 H 0.8065 0.4927 0.4456
loop_
_geom_bond_atom_site_label_1
_geom_bond_atom_site_label_2
_geom_bond_site_symmetry_1
_geom_bond_site_symmetry_2
O1 C14 1_555 1_555
O2 C14 1_555 1_555
O3 C17 1_555 1_555
O4 C17 1_555 1_555
N1 N2 1_555 1_555
N2 C2 1_555 1_555
N3 N4 1_555 1_555
N4 C14 1_555 1_555
C1 N1 1_555 1_555
C2 C3 1_555 1_555
C3 C4 1_555 1_555
C4 C5 1_555 1_555
C5 C6 1_555 1_555
C6 C7 1_555 1_555
C7 C2 1_555 1_555
C8 C1 1_555 1_555
C9 C8 1_555 1_555
C10 C9 1_555 1_555
C11 C10 1_555 1_555
C12 C11 1_555 1_555
C13 C8 1_555 1_555
C15 O2 1_555 1_555
C16 C15 1_555 1_555
C17 N3 1_555 1_555
C18 O4 1_555 1_555
C19 C18 1_555 1_555
H1 C3 1_555 1_555
H2 C4 1_555 1_555
H3 C5 1_555 1_555
H4 C6 1_555 1_555
H5 C7 1_555 1_555
H6 C9 1_555 1_555
H7 C10 1_555 1_555
H8 C11 1_555 1_555
H9 C12 1_555 1_555
H10 C13 1_555 1_555
H11 C15 1_555 1_555
H12 C15 1_555 1_555
H13 C16 1_555 1_555
H14 C16 1_555 1_555
H15 C16 1_555 1_555
H16 C18 1_555 1_555
H17 C18 1_555 1_555
H18 C19 1_555 1_555
H19 C19 1_555 1_555
H20 C19 1_555 1_555
H21 N2 1_555 1_555
H22 N4 1_555 1_555
N3 C1 1_555 1_555
C12 C13 1_555 1_555

#END
