
#######################################################################
#
#                 Cambridge Crystallographic Data Centre
#                                CCDC 
#
#######################################################################
#
# If this CIF has been generated from an entry in the Cambridge 
# Structural Database, then it will include bibliographic, chemical, 
# crystal, experimental, refinement or atomic coordinate data resulting 
# from the CCDC's data processing and validation procedures.
#
#######################################################################

data_DXEPAN
_chemical_formula_moiety         'C22 H32 O6'
_chemical_name_systematic        
7,2'-Spiro(1',3'-dioxolane)-2-isopropyl-4b,8-dimethyl-4,4a-epoxy-8a,10a-ethano-9-oxaperhydrophenanthrene-10-one
_symmetry_cell_setting           monoclinic
_symmetry_space_group_name_H-M   'P 21/c'
_symmetry_Int_Tables_number      14
_space_group_name_Hall           '-P 2ybc'
loop_
_symmetry_equiv_pos_site_id
_symmetry_equiv_pos_as_xyz
1 x,y,z
2 -x,1/2+y,1/2-z
3 -x,-y,-z
4 x,1/2-y,1/2+z
_cell_length_a                   11.394(3)
_cell_length_b                   7.607(1)
_cell_length_c                   23.227(4)
_cell_angle_alpha                90
_cell_angle_beta                 97.47(2)
_cell_angle_gamma                90
_cell_volume                     1996.09
_chemical_melting_point          214-5deg.C
_cell_formula_units_Z            4
loop_
_atom_site_label
_atom_site_type_symbol
_atom_site_fract_x
_atom_site_fract_y
_atom_site_fract_z
O1 O 0.26392 0.19908 0.28868
O2 O 0.44303 0.12857 0.26120
O3 O 0.11585 -0.07864 0.12932
O4 O -0.04530 0.40306 0.14893
O5 O -0.20734 0.60127 0.05143
O6 O -0.01108 -0.15304 0.05329
C1 C 0.19655 0.38547 0.17677
C2 C 0.32224 0.33988 0.20335
C3 C 0.32337 0.17242 0.23932
C4 C 0.26723 0.01655 0.20360
C5 C 0.14339 0.06301 0.17261
C6 C 0.04379 0.05937 0.21166
C7 C -0.07730 0.04607 0.17368
C8 C -0.06111 0.09833 0.11043
C9 C 0.01030 0.27006 0.11736
C10 C 0.14132 0.23733 0.13753
C11 C -0.03572 0.43053 0.08797
C12 C -0.15268 0.43244 0.04931
C13 C -0.23626 0.29314 0.06821
C14 C -0.17537 0.11336 0.06775
C15 C -0.35942 0.30118 0.03171
C16 C -0.35988 0.25210 -0.03171
C17 C -0.44994 0.19540 0.05966
C18 C 0.27037 -0.15100 0.24024
C19 C 0.20527 0.21898 0.08327
C20 C 0.01525 -0.05145 0.09331
C21 C 0.35142 0.24440 0.33551
C22 C 0.46000 0.15840 0.32157
loop_
_geom_bond_atom_site_label_1
_geom_bond_atom_site_label_2
_geom_bond_site_symmetry_1
_geom_bond_site_symmetry_2
O1 C3 1_555 1_555
O2 C3 1_555 1_555
O3 C5 1_555 1_555
O4 C9 1_555 1_555
O5 C12 1_555 1_555
O6 C20 1_555 1_555
C1 C2 1_555 1_555
C2 C3 1_555 1_555
C3 C4 1_555 1_555
C4 C5 1_555 1_555
C5 C6 1_555 1_555
C6 C7 1_555 1_555
C7 C8 1_555 1_555
C8 C9 1_555 1_555
C9 C10 1_555 1_555
C10 C1 1_555 1_555
C11 O4 1_555 1_555
C12 C11 1_555 1_555
C13 C12 1_555 1_555
C14 C8 1_555 1_555
C15 C13 1_555 1_555
C16 C15 1_555 1_555
C17 C15 1_555 1_555
C18 C4 1_555 1_555
C19 C10 1_555 1_555
C20 O3 1_555 1_555
C21 O1 1_555 1_555
C22 O2 1_555 1_555
C5 C10 1_555 1_555
C8 C20 1_555 1_555
C9 C11 1_555 1_555
C13 C14 1_555 1_555
C21 C22 1_555 1_555

#END
