
#######################################################################
#
#                 Cambridge Crystallographic Data Centre
#                                CCDC 
#
#######################################################################
#
# If this CIF has been generated from an entry in the Cambridge 
# Structural Database, then it will include bibliographic, chemical, 
# crystal, experimental, refinement or atomic coordinate data resulting 
# from the CCDC's data processing and validation procedures.
#
#######################################################################

data_EACJOH
_chemical_formula_moiety         'C28 H26 O2 S4'
_chemical_name_systematic        
25,26-m-Phenylene-3,7,15,19-tetrathiatricyclo(19.3.1.1^9,13^)hexacosa-1(25),9,11,13(26),21,23-hexaene-5,17-dione
_symmetry_cell_setting           triclinic
_symmetry_space_group_name_H-M   'P -1'
_symmetry_Int_Tables_number      2
_space_group_name_Hall           '-P 1'
loop_
_symmetry_equiv_pos_site_id
_symmetry_equiv_pos_as_xyz
1 x,y,z
2 -x,-y,-z
_cell_length_a                   10.932(4)
_cell_length_b                   13.260(6)
_cell_length_c                   9.372(4)
_cell_angle_alpha                90.45(4)
_cell_angle_beta                 105.92(3)
_cell_angle_gamma                74.63(3)
_cell_volume                     1256.63
_chemical_melting_point          263deg.C
_cell_formula_units_Z            2
loop_
_atom_site_label
_atom_site_type_symbol
_atom_site_fract_x
_atom_site_fract_y
_atom_site_fract_z
S1 S 0.284(2) 0.2795(9) -0.441(2)
S3 S 0.5721(7) 0.4987(5) -0.1418(6)
S5 S 0.8381(2) 0.2601(1) 0.5047(2)
S6 S 0.5218(2) 0.0817(1) 0.3673(2)
O1 O 0.538(3) 0.337(2) -0.421(2)
O3 O 0.8234(5) 0.0114(4) 0.4302(6)
C1 C 0.3879(6) 0.2144(4) 0.1232(8)
C2 C 0.2556(8) 0.2302(5) 0.1151(9)
C3 C 0.1634(7) 0.2331(5) -0.020(1)
C4 C 0.2018(7) 0.2195(5) -0.1480(9)
C5 C 0.3336(7) 0.2028(5) -0.1433(8)
C6 C 0.3712(7) 0.1917(5) -0.2865(8)
C7 C 0.337(5) 0.394(3) -0.368(4)
C9 C 0.460(3) 0.405(2) -0.381(2)
C11 C 0.486(2) 0.506(1) -0.336(2)
C13 C 0.733(2) 0.418(2) -0.136(2)
C15 C 0.8292(6) 0.4006(4) 0.0239(7)
C16 C 0.8811(7) 0.4814(5) 0.0807(9)
C17 C 0.9497(7) 0.4781(5) 0.2291(9)
C18 C 0.9652(6) 0.3933(6) 0.3198(8)
C19 C 0.9130(6) 0.3112(5) 0.2685(7)
C20 C 0.8403(6) 0.3152(4) 0.1189(7)
C21 C 0.7747(6) 0.2323(4) 0.0623(6)
C22 C 0.8420(6) 0.1336(5) 0.0305(7)
C23 C 0.7758(7) 0.0591(4) -0.0121(8)
C24 C 0.6446(7) 0.0783(5) -0.0239(7)
C25 C 0.5729(6) 0.1757(5) 0.0037(6)
C26 C 0.4289(6) 0.1976(4) -0.0061(8)
C27 C 0.6402(6) 0.2506(4) 0.0456(6)
C28 C 0.9347(6) 0.2192(5) 0.3753(7)
C29 C 0.8710(7) 0.1349(6) 0.6050(7)
C30 C 0.7851(7) 0.0727(5) 0.5143(8)
C31 C 0.6471(7) 0.0946(5) 0.5298(8)
C32 C 0.4831(7) 0.2094(5) 0.2759(7)
H1 H 0.7674 0.4510 -0.1994
H2 H 0.7246 0.3521 -0.1714
H5 H 0.2282 0.2392 0.2032
H6 H 0.0728 0.2448 -0.0247
H7 H 0.1376 0.2213 -0.2406
H8 H 0.3659 0.1242 -0.3173
H9 H 0.4603 0.1945 -0.2632
H10 H 0.2703 0.4542 -0.4163
H11 H 0.3432 0.3916 -0.2640
H14 H 0.4043 0.5591 -0.3562
H15 H 0.5385 0.5233 -0.3933
H18 H 0.8696 0.5404 0.0165
H19 H 0.9855 0.5340 0.2671
H20 H 1.0132 0.3904 0.4215
H21 H 0.9336 0.1182 0.0386
H22 H 0.8226 -0.0077 -0.0341
H23 H 0.6019 0.0244 -0.0514
H24 H 0.5921 0.3180 0.0639
H25 H 1.0257 0.1954 0.4284
H26 H 0.9078 0.1641 0.3215
H27 H 0.9613 0.0976 0.6216
H28 H 0.8519 0.1462 0.6977
H29 H 0.6227 0.1644 0.5579
H30 H 0.6491 0.0473 0.6065
H31 H 0.4437 0.2608 0.3330
H32 H 0.5619 0.2225 0.2665
S2? S 0.282(2) 0.3193(9) -0.405(2)
S4? S 0.6870(4) 0.5140(3) -0.2469(4)
O2? O 0.553(3) 0.347(2) -0.351(2)
C8? C 0.342(4) 0.417(3) -0.301(3)
C10? C 0.484(3) 0.415(2) -0.299(2)
C12? C 0.536(2) 0.507(1) -0.226(2)
C14? C 0.798(2) 0.393(1) -0.140(2)
H3? H 0.7573 0.3378 -0.1657
H4? H 0.8785 0.3771 -0.1671
H12? H 0.2865 0.4840 -0.3444
H13? H 0.3405 0.4084 -0.2021
H16? H 0.5447 0.5012 -0.1230
H17? H 0.4719 0.5707 -0.2698
loop_
_geom_bond_atom_site_label_1
_geom_bond_atom_site_label_2
_geom_bond_site_symmetry_1
_geom_bond_site_symmetry_2
S1 C6 1_555 1_555
S3 C11 1_555 1_555
S5 C28 1_555 1_555
S6 C31 1_555 1_555
O1 C9 1_555 1_555
O3 C30 1_555 1_555
C1 C2 1_555 1_555
C2 C3 1_555 1_555
C3 C4 1_555 1_555
C4 C5 1_555 1_555
C5 C6 1_555 1_555
C6 H8 1_555 1_555
C7 S1 1_555 1_555
C9 C7 1_555 1_555
C11 C9 1_555 1_555
C13 S3 1_555 1_555
C15 C13 1_555 1_555
C16 C15 1_555 1_555
C17 C16 1_555 1_555
C18 C17 1_555 1_555
C19 C18 1_555 1_555
C20 C15 1_555 1_555
C21 C20 1_555 1_555
C22 C21 1_555 1_555
C23 C22 1_555 1_555
C24 C23 1_555 1_555
C25 C24 1_555 1_555
C26 C1 1_555 1_555
C27 C21 1_555 1_555
C28 C19 1_555 1_555
C29 S5 1_555 1_555
C30 C29 1_555 1_555
C31 C30 1_555 1_555
C32 S6 1_555 1_555
H1 C13 1_555 1_555
H2 C13 1_555 1_555
H5 C2 1_555 1_555
H6 C3 1_555 1_555
H7 C4 1_555 1_555
H9 C6 1_555 1_555
H10 C7 1_555 1_555
H11 C7 1_555 1_555
H14 C11 1_555 1_555
H15 C11 1_555 1_555
H18 C16 1_555 1_555
H19 C17 1_555 1_555
H20 C18 1_555 1_555
H21 C22 1_555 1_555
H22 C23 1_555 1_555
H23 C24 1_555 1_555
H24 C27 1_555 1_555
H25 C28 1_555 1_555
H26 C28 1_555 1_555
H27 C29 1_555 1_555
H28 C29 1_555 1_555
H29 C31 1_555 1_555
H30 C31 1_555 1_555
H31 C32 1_555 1_555
H32 C32 1_555 1_555
C1 C32 1_555 1_555
C5 C26 1_555 1_555
C19 C20 1_555 1_555
C25 C26 1_555 1_555
C25 C27 1_555 1_555

#END
