
#######################################################################
#
#                 Cambridge Crystallographic Data Centre
#                                CCDC 
#
#######################################################################
#
# If this CIF has been generated from an entry in the Cambridge 
# Structural Database, then it will include bibliographic, chemical, 
# crystal, experimental, refinement or atomic coordinate data resulting 
# from the CCDC's data processing and validation procedures.
#
#######################################################################

data_EBABIT
_chemical_formula_moiety         'C18 H15 Br1 Cl2 O4'
_chemical_name_systematic        
'(2S,4R)-2-Bromomethyl-2-(2,4-dichlorophenyl)-1,3-dioxolan-4-methyl benzoate'
_symmetry_cell_setting           orthorhombic
_symmetry_space_group_name_H-M   'P 21 21 21'
_symmetry_Int_Tables_number      19
_space_group_name_Hall           'P 2ac 2ab'
loop_
_symmetry_equiv_pos_site_id
_symmetry_equiv_pos_as_xyz
1 x,y,z
2 1/2+x,1/2-y,-z
3 -x,1/2+y,1/2-z
4 1/2-x,-y,1/2+z
_cell_length_a                   7.1540(7)
_cell_length_b                   23.367(2)
_cell_length_c                   11.161(1)
_cell_angle_alpha                90
_cell_angle_beta                 90
_cell_angle_gamma                90
_cell_volume                     1865.76
_exptl_crystal_colour            colorless
_exptl_crystal_description       platelet
_chemical_melting_point          '120-121 deg.C'
_cell_formula_units_Z            4
loop_
_atom_site_label
_atom_site_type_symbol
_atom_site_fract_x
_atom_site_fract_y
_atom_site_fract_z
Br1 Br 0.08056(7) 0.38010(3) 0.74910(6)
Cl1 Cl 0.2933(3) 0.27308(7) 1.1042(1)
Cl2 Cl 0.3532(3) 0.40257(9) 1.4947(1)
O1 O 0.4351(5) 0.3449(1) 0.9060(3)
O2 O 0.3814(5) 0.4406(1) 0.9048(3)
O3 O 0.6281(5) 0.5288(1) 0.8155(3)
O4 O 0.6548(6) 0.5616(2) 0.6285(4)
C1 C 0.3198(7) 0.3883(2) 0.9552(4)
C2 C 0.5781(8) 0.3700(2) 0.8361(6)
C3 C 0.5722(8) 0.4331(2) 0.8702(5)
C4 C 0.6147(7) 0.4718(2) 0.7673(5)
C5 C 0.6490(7) 0.5704(2) 0.7337(6)
C6 C 0.6609(8) 0.6278(3) 0.7904(5)
C7 C 0.653(1) 0.6353(3) 0.9126(6)
C8 C 0.665(1) 0.6896(3) 0.9613(7)
C9 C 0.685(1) 0.7368(3) 0.8868(9)
C10 C 0.694(1) 0.7290(3) 0.7681(9)
C11 C 0.6831(9) 0.6752(3) 0.7166(6)
C12 C 0.1180(7) 0.3792(3) 0.9217(4)
C13 C 0.3358(7) 0.3899(2) 1.0914(4)
C14 C 0.3527(8) 0.4416(3) 1.1501(5)
C15 C 0.3603(8) 0.4461(3) 1.2720(6)
C16 C 0.3485(9) 0.3974(3) 1.3397(5)
C17 C 0.330(1) 0.3450(3) 1.2861(5)
C18 C 0.3235(9) 0.3408(2) 1.1641(5)
H1 H 0.6982 0.3526 0.8532
H2 H 0.5499 0.3659 0.7516
H3 H 0.6578 0.4411 0.9367
H4 H 0.5117 0.4698 0.7109
H5 H 0.7298 0.4611 0.7271
H6 H 0.6403 0.6035 0.9622
H7 H 0.6604 0.6947 1.0439
H8 H 0.6927 0.7735 0.9186
H9 H 0.7069 0.7606 0.7181
H10 H 0.6913 0.6704 0.6341
H11 H 0.0436 0.4095 0.9572
H12 H 0.0777 0.3426 0.9532
H13 H 0.3599 0.4745 1.1036
H14 H 0.3730 0.4814 1.3097
H15 H 0.3216 0.3124 1.3335
loop_
_geom_bond_atom_site_label_1
_geom_bond_atom_site_label_2
_geom_bond_site_symmetry_1
_geom_bond_site_symmetry_2
Br1 C12 1_555 1_555
Cl1 C18 1_555 1_555
Cl2 C16 1_555 1_555
O1 C1 1_555 1_555
O2 C1 1_555 1_555
O3 C4 1_555 1_555
O4 C5 1_555 1_555
C1 C12 1_555 1_555
C2 O1 1_555 1_555
C3 O2 1_555 1_555
C4 C3 1_555 1_555
C5 O3 1_555 1_555
C6 C5 1_555 1_555
C7 C6 1_555 1_555
C8 C7 1_555 1_555
C9 C8 1_555 1_555
C10 C9 1_555 1_555
C11 C6 1_555 1_555
C12 H11 1_555 1_555
C13 C1 1_555 1_555
C14 C13 1_555 1_555
C15 C14 1_555 1_555
C16 C15 1_555 1_555
C17 C16 1_555 1_555
C18 C13 1_555 1_555
H1 C2 1_555 1_555
H2 C2 1_555 1_555
H3 C3 1_555 1_555
H4 C4 1_555 1_555
H5 C4 1_555 1_555
H6 C7 1_555 1_555
H7 C8 1_555 1_555
H8 C9 1_555 1_555
H9 C10 1_555 1_555
H10 C11 1_555 1_555
H12 C12 1_555 1_555
H13 C14 1_555 1_555
H14 C15 1_555 1_555
H15 C17 1_555 1_555
C2 C3 1_555 1_555
C10 C11 1_555 1_555
C17 C18 1_555 1_555

#END
