
#######################################################################
#
#                 Cambridge Crystallographic Data Centre
#                                CCDC 
#
#######################################################################
#
# If this CIF has been generated from an entry in the Cambridge 
# Structural Database, then it will include bibliographic, chemical, 
# crystal, experimental, refinement or atomic coordinate data resulting 
# from the CCDC's data processing and validation procedures.
#
#######################################################################

data_EBAGUM
_chemical_formula_moiety         'C15 H10 N2'
_chemical_name_systematic        2-phenyl-1H-indole-1-carbonitrile
_symmetry_cell_setting           orthorhombic
_symmetry_space_group_name_H-M   'P b c a'
_symmetry_Int_Tables_number      61
_space_group_name_Hall           '-P 2ac 2ab'
loop_
_symmetry_equiv_pos_site_id
_symmetry_equiv_pos_as_xyz
1 x,y,z
2 1/2+x,1/2-y,-z
3 -x,1/2+y,1/2-z
4 1/2-x,-y,1/2+z
5 -x,-y,-z
6 1/2-x,1/2+y,z
7 x,1/2-y,1/2+z
8 1/2+x,y,1/2-z
_cell_length_a                   13.936(7)
_cell_length_b                   7.077(3)
_cell_length_c                   22.807(10)
_cell_angle_alpha                90
_cell_angle_beta                 90
_cell_angle_gamma                90
_cell_volume                     2249.34
_exptl_crystal_colour            colorless
_exptl_crystal_description       prism
_cell_formula_units_Z            8
loop_
_atom_site_label
_atom_site_type_symbol
_atom_site_fract_x
_atom_site_fract_y
_atom_site_fract_z
C1 C 0.0725(2) 0.6898(4) 0.40901(11)
C2 C 0.1117(2) 0.9035(4) 0.48806(11)
C3 C 0.0852(2) 0.7998(4) 0.53637(12)
H1 H 0.0552 0.6798 0.5329
C4 C 0.1048(2) 0.8802(4) 0.59046(12)
H2 H 0.0880 0.8138 0.6252
C5 C 0.1485(2) 1.0561(4) 0.59487(12)
H3 H 0.1619 1.1067 0.6326
C6 C 0.1728(2) 1.1584(4) 0.54586(12)
H4 H 0.2011 1.2800 0.5495
C7 C 0.15509(19) 1.0809(4) 0.49081(11)
C8 C 0.1705(2) 1.1441(4) 0.43161(11)
H5 H 0.1993 1.2606 0.4207
C9 C 0.1374(2) 1.0114(4) 0.39376(11)
C10 C 0.1338(2) 1.0111(4) 0.32957(11)
C11 C 0.2066(2) 1.0992(4) 0.29844(12)
H6 H 0.2590 1.1542 0.3189
C12 C 0.2036(3) 1.1077(4) 0.23766(12)
H7 H 0.2537 1.1694 0.2169
C13 C 0.1290(2) 1.0281(4) 0.20737(13)
H8 H 0.1273 1.0343 0.1658
C14 C 0.0560(2) 0.9386(4) 0.23764(11)
H9 H 0.0041 0.8831 0.2168
C15 C 0.0583(2) 0.9297(4) 0.29840(11)
H10 H 0.0081 0.8677 0.3189
N1 N 0.0481(2) 0.5417(4) 0.39492(10)
N2 N 0.09984(16) 0.8602(3) 0.42803(9)
loop_
_geom_bond_atom_site_label_1
_geom_bond_atom_site_label_2
_geom_bond_site_symmetry_1
_geom_bond_site_symmetry_2
C1 N1 1_555 1_555
C2 C3 1_555 1_555
C3 H1 1_555 1_555
C4 C3 1_555 1_555
H2 C4 1_555 1_555
C5 C4 1_555 1_555
H3 C5 1_555 1_555
C6 C5 1_555 1_555
H4 C6 1_555 1_555
C7 C2 1_555 1_555
C8 C7 1_555 1_555
H5 C8 1_555 1_555
C9 C8 1_555 1_555
C10 C9 1_555 1_555
C11 C10 1_555 1_555
H6 C11 1_555 1_555
C12 C11 1_555 1_555
H7 C12 1_555 1_555
C13 C12 1_555 1_555
H8 C13 1_555 1_555
C14 C13 1_555 1_555
H9 C14 1_555 1_555
C15 C10 1_555 1_555
H10 C15 1_555 1_555
N2 C1 1_555 1_555
C2 N2 1_555 1_555
C6 C7 1_555 1_555
C9 N2 1_555 1_555
C14 C15 1_555 1_555

#END
