
#######################################################################
#
#                 Cambridge Crystallographic Data Centre
#                                CCDC 
#
#######################################################################
#
# If this CIF has been generated from an entry in the Cambridge 
# Structural Database, then it will include bibliographic, chemical, 
# crystal, experimental, refinement or atomic coordinate data resulting 
# from the CCDC's data processing and validation procedures.
#
#######################################################################

data_EBIFUR
_chemical_formula_moiety         'C14 H15 N1 O1'
_chemical_name_systematic        3-(2-(4-Aminophenyl)ethyl)phenol
_symmetry_cell_setting           orthorhombic
_symmetry_space_group_name_H-M   'P n a 21'
_symmetry_Int_Tables_number      33
_space_group_name_Hall           'P 2c -2n'
loop_
_symmetry_equiv_pos_site_id
_symmetry_equiv_pos_as_xyz
1 x,y,z
2 -x,-y,1/2+z
3 1/2+x,1/2-y,z
4 1/2-x,1/2+y,1/2+z
_cell_length_a                   7.6679(2)
_cell_length_b                   26.1975(6)
_cell_length_c                   11.1698(2)
_cell_angle_alpha                90
_cell_angle_beta                 90
_cell_angle_gamma                90
_cell_volume                     2243.79
_exptl_crystal_colour            colorless
_exptl_crystal_description       block
_chemical_melting_point          142deg.C
_cell_formula_units_Z            8
loop_
_atom_site_label
_atom_site_type_symbol
_atom_site_fract_x
_atom_site_fract_y
_atom_site_fract_z
O1 O 0.48903(19) 0.71400(5) 0.37102(16)
N1 N 0.3238(3) 0.31059(7) 0.1126(2)
C1 C 0.3364(3) 0.40114(8) 0.0627(2)
C2 C 0.5656(3) 0.60861(7) 0.15823(19)
C3 C 0.3803(3) 0.36111(7) 0.1388(2)
C4 C 0.5529(3) 0.68576(7) 0.2764(2)
C5 C 0.5002(3) 0.63585(8) 0.2562(2)
C6 C 0.4783(2) 0.46203(7) 0.19453(19)
C7 C 0.6747(3) 0.70868(8) 0.2021(2)
C8 C 0.6857(3) 0.63219(8) 0.0835(2)
C9 C 0.4706(3) 0.37174(8) 0.2440(2)
C10 C 0.5371(3) 0.51545(8) 0.2271(2)
C11 C 0.3858(3) 0.45067(8) 0.09044(19)
C12 C 0.5182(3) 0.42153(8) 0.2708(2)
C13 C 0.7421(3) 0.68157(9) 0.1063(2)
C14 C 0.5015(3) 0.55529(8) 0.1315(2)
H1 H 0.476(3) 0.5257(8) 0.303(3)
H2 H 0.727(3) 0.6126(7) 0.016(2)
H3 H 0.705(3) 0.7437(7) 0.215(2)
H4 H 0.350(3) 0.4767(8) 0.030(2)
H5 H 0.829(3) 0.6992(9) 0.051(2)
H6 H 0.275(3) 0.3931(8) -0.013(2)
H7 H 0.501(2) 0.3451(8) 0.297(2)
H8 H 0.415(3) 0.6189(8) 0.311(2)
H9 H 0.583(3) 0.4284(8) 0.350(2)
H10 H 0.558(3) 0.5431(8) 0.055(2)
H11 H 0.366(4) 0.7000(10) 0.401(3)
H12 H 0.402(3) 0.2852(9) 0.155(2)
H13 H 0.376(3) 0.5566(8) 0.1208(18)
H14 H 0.322(3) 0.3030(10) 0.033(3)
H15 H 0.665(3) 0.5147(8) 0.246(2)
O2 O 0.0037(2) 0.28318(5) 0.19684(16)
N2 N 0.1579(2) 0.68478(7) 0.4525(2)
C15 C 0.1190(3) 0.63245(7) 0.4284(2)
C16 C -0.0556(3) 0.30943(7) 0.2959(2)
C17 C -0.0807(3) 0.38646(7) 0.41231(19)
C18 C -0.0159(2) 0.36092(8) 0.3129(2)
C19 C 0.1779(3) 0.59476(8) 0.5056(2)
C20 C -0.1837(3) 0.35986(8) 0.4933(2)
C21 C 0.0347(3) 0.61791(8) 0.3239(2)
C22 C 0.0737(3) 0.52821(7) 0.37275(18)
C23 C -0.2261(3) 0.30939(8) 0.4743(2)
C24 C -0.1610(3) 0.28345(7) 0.3752(2)
C25 C 0.1547(3) 0.54365(8) 0.4780(2)
C26 C -0.0475(3) 0.44275(8) 0.4346(2)
C27 C 0.0132(3) 0.56676(8) 0.2971(2)
C28 C 0.0533(3) 0.47220(7) 0.3413(2)
H16 H 0.236(3) 0.6021(8) 0.574(2)
H17 H -0.188(3) 0.2470(8) 0.355(2)
H18 H -0.304(3) 0.2918(8) 0.530(2)
H19 H 0.055(2) 0.3774(7) 0.2581(19)
H20 H 0.198(3) 0.5159(7) 0.534(2)
H21 H -0.228(3) 0.3765(7) 0.563(2)
H22 H -0.007(3) 0.4692(9) 0.265(3)
H23 H 0.012(3) 0.4464(7) 0.520(2)
H24 H 0.086(4) 0.7081(9) 0.417(3)
H25 H 0.146(3) 0.6910(9) 0.530(3)
H26 H 0.108(3) 0.2973(9) 0.169(2)
H27 H 0.170(3) 0.4570(8) 0.332(2)
H28 H -0.168(3) 0.4611(8) 0.447(2)
H29 H -0.047(3) 0.5573(8) 0.227(2)
H30 H -0.009(3) 0.6449(9) 0.270(3)
loop_
_geom_bond_atom_site_label_1
_geom_bond_atom_site_label_2
_geom_bond_site_symmetry_1
_geom_bond_site_symmetry_2
O1 C4 1_555 1_555
N1 C3 1_555 1_555
C1 C3 1_555 1_555
C2 C5 1_555 1_555
C3 C9 1_555 1_555
C4 C5 1_555 1_555
C5 H8 1_555 1_555
C6 C10 1_555 1_555
C7 C4 1_555 1_555
C8 C2 1_555 1_555
C9 C12 1_555 1_555
C10 C14 1_555 1_555
C11 C1 1_555 1_555
C12 C6 1_555 1_555
C13 C7 1_555 1_555
C14 C2 1_555 1_555
H1 C10 1_555 1_555
H2 C8 1_555 1_555
H3 C7 1_555 1_555
H4 C11 1_555 1_555
H5 C13 1_555 1_555
H6 C1 1_555 1_555
H7 C9 1_555 1_555
H9 C12 1_555 1_555
H10 C14 1_555 1_555
H11 O1 1_555 1_555
H12 N1 1_555 1_555
H13 C14 1_555 1_555
H14 N1 1_555 1_555
H15 C10 1_555 1_555
O2 C16 1_555 1_555
N2 C15 1_555 1_555
C15 C19 1_555 1_555
C16 C18 1_555 1_555
C17 C18 1_555 1_555
C18 H19 1_555 1_555
C19 C25 1_555 1_555
C20 C17 1_555 1_555
C21 C15 1_555 1_555
C22 C25 1_555 1_555
C23 C20 1_555 1_555
C24 C16 1_555 1_555
C25 H20 1_555 1_555
C26 C17 1_555 1_555
C27 C21 1_555 1_555
C28 C22 1_555 1_555
H16 C19 1_555 1_555
H17 C24 1_555 1_555
H18 C23 1_555 1_555
H21 C20 1_555 1_555
H22 C28 1_555 1_555
H23 C26 1_555 1_555
H24 N2 1_555 1_555
H25 N2 1_555 1_555
H26 O2 1_555 1_555
H27 C28 1_555 1_555
H28 C26 1_555 1_555
H29 C27 1_555 1_555
H30 C21 1_555 1_555
C6 C11 1_555 1_555
C8 C13 1_555 1_555
C22 C27 1_555 1_555
C23 C24 1_555 1_555
C26 C28 1_555 1_555

#END
