
#######################################################################
#
#                 Cambridge Crystallographic Data Centre
#                                CCDC 
#
#######################################################################
#
# If this CIF has been generated from an entry in the Cambridge 
# Structural Database, then it will include bibliographic, chemical, 
# crystal, experimental, refinement or atomic coordinate data resulting 
# from the CCDC's data processing and validation procedures.
#
#######################################################################

data_EBITUH
_chemical_formula_moiety         'C57 H33 N5 O2 S2,1.5(C1 H2 Cl2)'
_chemical_name_systematic        
"2-cyano-3-(5'-(1-cyano-2-(4-(9'H-9,3':6',9''-tercarbazol-9'-yl)phenyl)vinyl)-2,2'-bithiophen-5-yl)acrylic acid dichloromethane solvate"
_symmetry_cell_setting           monoclinic
_symmetry_space_group_name_H-M   'P 21/c'
_symmetry_Int_Tables_number      14
_space_group_name_Hall           '-P 2ybc'
loop_
_symmetry_equiv_pos_site_id
_symmetry_equiv_pos_as_xyz
1 x,y,z
2 -x,1/2+y,1/2-z
3 -x,-y,-z
4 x,1/2-y,1/2+z
_cell_length_a                   48.302(10)
_cell_length_b                   10.519(2)
_cell_length_c                   19.524(4)
_cell_angle_alpha                90
_cell_angle_beta                 97.43(3)
_cell_angle_gamma                90
_cell_volume                     9836.63
_exptl_crystal_colour            'dark green'
_exptl_crystal_description       plate
_cell_formula_units_Z            8
loop_
_atom_site_label
_atom_site_type_symbol
_atom_site_fract_x
_atom_site_fract_y
_atom_site_fract_z
S1 S 0.27916(4) 1.13281(16) 0.62400(11)
S2 S 0.30910(4) 0.75232(16) 0.58499(10)
C1 C 0.36614(19) -0.6215(6) 0.3700(3)
N1 N 0.37532(12) -0.0283(5) 0.6029(3)
C2 C 0.39142(15) -0.0933(6) 0.6586(4)
N2 N 0.35800(13) -0.4245(5) 0.4120(3)
O1 O 0.24745(11) 1.5912(5) 0.5063(3)
H1 H 0.2414 1.6642 0.5028
O2 O 0.24340(11) 1.6274(5) 0.6184(3)
C3 C 0.36945(15) -0.1121(6) 0.5460(4)
C4 C 0.32033(15) 0.6807(6) 0.6631(4)
C5 C 0.33195(15) 0.5547(6) 0.6678(4)
C6 C 0.34501(16) 0.2627(6) 0.6677(4)
H2 H 0.3379 0.2894 0.7074
C7 C 0.36227(16) -0.3184(6) 0.4584(4)
C8 C 0.36544(14) 0.0978(6) 0.6058(4)
C9 C 0.35460(15) 0.1398(6) 0.6636(4)
H3 H 0.3537 0.0845 0.7005
C10 C 0.38169(15) -0.2313(6) 0.5658(4)
C11 C 0.34572(15) 0.3467(6) 0.6138(4)
C12 C 0.41258(16) -0.3005(7) 0.6777(4)
H4 H 0.4156 -0.3831 0.6634
C13 C 0.4075(2) -0.5022(7) 0.4161(4)
H5 H 0.4156 -0.4294 0.437
C14 C 0.33524(15) 0.4779(6) 0.6141(4)
H6 H 0.3301 0.5133 0.5706
C15 C 0.37769(15) -0.3332(6) 0.5217(4)
H7 H 0.3854 -0.4119 0.5349
C16 C 0.39583(15) -0.2187(6) 0.6356(4)
C17 C 0.33679(18) -0.6019(6) 0.3625(3)
N3 N 0.44580(14) -0.3354(5) 0.7805(3)
C18 C 0.37879(18) -0.5131(6) 0.4010(4)
C19 C 0.36660(15) 0.1825(6) 0.5521(4)
H8 H 0.3743 0.1564 0.5132
C20 C 0.3835(2) -0.7217(7) 0.3541(4)
H9 H 0.3757 -0.7952 0.3332
C21 C 0.42465(16) -0.2583(6) 0.7405(4)
C22 C 0.35081(15) -0.1992(6) 0.4374(4)
H10 H 0.3407 -0.1899 0.3938
C23 C 0.30495(16) 0.8818(7) 0.6953(5)
H11 H 0.3011 0.9457 0.7256
C24 C 0.25892(16) 1.4302(7) 0.5878(5)
C25 C 0.4119(2) -0.7107(7) 0.3697(4)
H12 H 0.4235 -0.7775 0.3602
C26 C 0.3324(2) -0.4809(7) 0.3911(4)
C27 C 0.41945(16) -0.1339(6) 0.7617(4)
H13 H 0.4278 -0.1069 0.8048
C28 C 0.29969(16) 0.8896(6) 0.6255(5)
C29 C 0.42184(19) -0.4058(7) 0.8809(5)
H14 H 0.4049 -0.3657 0.8666
C30 C 0.3132(2) -0.6760(7) 0.3380(4)
H15 H 0.3156 -0.7563 0.3198
C31 C 0.4878(2) -0.4288(7) 0.8124(5)
C32 C 0.35660(16) 0.3043(6) 0.5549(4)
H16 H 0.3571 0.3587 0.5175
C33 C 0.42341(17) -0.6007(7) 0.3995(4)
H17 H 0.4427 -0.5939 0.4085
C34 C 0.27460(17) 1.2173(7) 0.5474(4)
C35 C 0.44367(19) -0.3972(7) 0.8427(5)
C36 C 0.4515(3) -0.5346(8) 0.9620(5)
H18 H 0.4538 -0.5802 1.0032
C37 C 0.47167(19) -0.3533(7) 0.7639(5)
C38 C 0.3055(2) -0.4363(7) 0.3937(4)
H19 H 0.3028 -0.3561 0.4117
C39 C 0.35451(15) -0.0951(6) 0.4819(4)
H20 H 0.347 -0.0161 0.4684
C40 C 0.4696(2) -0.4557(7) 0.8626(5)
C41 C 0.4834(2) -0.3012(8) 0.7065(5)
H21 H 0.4727 -0.2503 0.6743
C42 C 0.31709(19) 0.7621(7) 0.7158(5)
H22 H 0.3224 0.7411 0.7619
C43 C 0.29019(15) 0.9998(7) 0.5835(5)
C44 C 0.4723(2) -0.5276(7) 0.9254(5)
H23 H 0.4889 -0.5696 0.9403
C45 C 0.24966(17) 1.5575(7) 0.5676(6)
C46 C 0.40275(15) -0.0516(6) 0.7221(4)
H24 H 0.3992 0.0296 0.7376
C47 C 0.28275(18) -0.5107(8) 0.3696(4)
H25 H 0.2648 -0.4816 0.3724
C48 C 0.2869(2) -0.6306(8) 0.3407(4)
H26 H 0.2716 -0.6796 0.3233
C49 C 0.26550(15) 1.3439(7) 0.5397(4)
H27 H 0.2636 1.3742 0.4946
C50 C 0.5159(2) -0.4526(8) 0.8039(6)
H28 H 0.5271 -0.5023 0.8358
N4 N 0.2643(2) 1.3733(8) 0.7152(6)
C51 C 0.4257(2) -0.4754(8) 0.9412(5)
H29 H 0.4112 -0.4833 0.968
C52 C 0.2616(2) 1.3990(8) 0.6585(6)
C53 C 0.28114(18) 1.1412(8) 0.4934(5)
H30 H 0.2804 1.1693 0.448
C54 C 0.5265(2) -0.4022(10) 0.7489(7)
H31 H 0.545 -0.4183 0.7438
C55 C 0.3404(2) 0.5157(7) 0.7390(6)
C56 C 0.28884(18) 1.0196(8) 0.5145(5)
H32 H 0.2928 0.9564 0.4839
N5 N 0.3479(2) 0.4953(6) 0.7951(5)
C57 C 0.5108(2) -0.3278(10) 0.6999(5)
H33 H 0.5187 -0.2958 0.6625
S3 S 0.19301(5) -0.67473(17) 0.48020(12)
S4 S 0.16111(5) -0.31548(18) 0.54887(12)
C58 C -0.0142(6) 0.836(2) 0.2534(13)
H34 H -0.0204 0.8594 0.208
O3 O 0.22600(12) -1.1472(5) 0.5768(4)
H35 H 0.2317 -1.2207 0.5798
N6 N 0.09892(14) 0.4612(6) 0.6004(4)
C59 C 0.0115(6) 0.772(3) 0.2748(10)
H36 H 0.0221 0.7531 0.2397
C60 C 0.13020(17) 0.1017(7) 0.5577(5)
C61 C 0.14085(15) -0.0273(6) 0.5465(4)
H37 H 0.1449 -0.0759 0.5863
C62 C 0.18642(16) -0.5849(7) 0.6003(5)
H38 H 0.1834 -0.5298 0.6358
C63 C 0.11635(16) 0.3127(7) 0.5234(5)
H39 H 0.1142 0.3745 0.4891
C64 C 0.09817(18) 0.6688(7) 0.6316(4)
N7 N 0.13979(17) 0.8788(6) 0.7569(3)
C65 C 0.07687(19) 0.5187(7) 0.5577(5)
C66 C 0.10954(17) 0.3400(7) 0.5886(5)
C67 C 0.18365(16) -0.5510(7) 0.5318(5)
C68 C 0.12416(16) 0.1288(6) 0.6240(5)
H40 H 0.1269 0.0669 0.6582
C69 C 0.11185(18) 0.5529(6) 0.6459(4)
C70 C 0.14293(19) 0.6489(7) 0.7335(4)
H41 H 0.158 0.6431 0.7682
C71 C 0.1340(2) 0.5432(7) 0.6972(5)
H42 H 0.1427 0.4654 0.7071
C72 C 0.11418(17) 0.2464(7) 0.6392(4)
H43 H 0.1105 0.2637 0.6839
C73 C 0.1567(2) -0.2127(8) 0.4800(4)
C74 C 0.19438(17) -0.7123(8) 0.6102(5)
H44 H 0.1963 -0.7516 0.6533
C75 C 0.17553(17) -0.4287(7) 0.5002(5)
C76 C 0.1080(2) 0.7782(7) 0.6682(5)
H45 H 0.0998 0.8571 0.6578
C77 C 0.19904(18) -0.7737(7) 0.5511(5)
C78 C 0.12625(16) 0.1942(7) 0.5095(5)
H46 H 0.1304 0.1771 0.4652
C79 C 0.1299(2) 0.7655(7) 0.7193(5)
C80 C 0.1236(3) 0.9649(8) 0.7864(5)
C81 C 0.1657(3) 0.9355(8) 0.7537(5)
O4 O 0.23202(17) -1.1763(5) 0.4659(3)
C82 C 0.20851(16) -0.9025(7) 0.5512(5)
H47 H 0.2105 -0.9401 0.5947
C83 C 0.2247(2) -1.1108(9) 0.5158(7)
C84 C 0.1377(3) 1.0756(9) 0.8029(5)
C85 C 0.0759(2) 0.6468(8) 0.5780(5)
C86 C 0.2149(2) -0.9780(7) 0.5026(6)
C87 C 0.1455 -0.0851 0.4882
C88 C 0.1658(3) -0.2629(8) 0.4238(5)
H48 H 0.1651 -0.2197 0.3821
C89 C 0.1763(2) -0.3874(8) 0.4340(5)
H49 H 0.183 -0.4358 0.3998
C90 C 0.1659(3) 1.0577(9) 0.7833(5)
N8 N 0.0129(2) 0.7437(9) 0.4612(7)
C91 C 0.0581(2) 0.4657(8) 0.5056(6)
H50 H 0.0597 0.3814 0.4922
C92 C 0.1255(4) 1.1756(14) 0.8305(8)
H51 H 0.1353 1.2508 0.8408
C93 C 0.2123(2) 0.9672(12) 0.7314(5)
H52 H 0.2279 0.9376 0.7127
C94 C 0.1887(3) 0.8877(10) 0.7273(5)
H53 H 0.1887 0.807 0.7077
C95 C 0.0361(2) 0.6708(10) 0.4932(7)
C96 C -0.0084(3) 0.8011(9) 0.4953(11)
C97 C -0.0523(3) 0.9141(12) 0.4671(13)
H54 H -0.066 0.9504 0.4352
C98 C 0.0372(2) 0.5413(9) 0.4748(6)
H55 H 0.0236 0.5077 0.4416
C99 C 0.0541(2) 0.7266(9) 0.5424(7)
H56 H 0.0526 0.8123 0.5531
C100 C -0.0279(3) 0.8554(11) 0.4405(12)
C101 C 0.0960(3) 0.9514(11) 0.7975(5)
H57 H 0.086 0.8773 0.7856
C102 C 0.0993(6) 1.1637(19) 0.8424(8)
H58 H 0.091 1.2324 0.8617
C103 C -0.0100(3) 0.8011(10) 0.5692(9)
H59 H 0.0028 0.7641 0.6032
C104 C 0.0836(3) 1.0557(14) 0.8278(6)
H60 H 0.0653 1.0513 0.8377
C105 C 0.1912(4) 1.1316(10) 0.7853(6)
H61 H 0.1921 1.2133 0.8036
C106 C 0.2138(3) 1.0803(16) 0.7600(7)
H62 H 0.2304 1.126 0.763
C107 C -0.0334(5) 0.8651(19) 0.5794(11)
H63 H -0.0357 0.8774 0.6255
C108 C -0.0558(4) 0.9181(14) 0.5297(13)
H64 H -0.0718 0.9531 0.5438
C109 C 0.2127(4) -0.9403(11) 0.4328(9)
N9 N 0.2115(5) -0.9042(14) 0.3776(8)
C110 C 0.1408 -0.0181 0.4206
N10 N 0.1376 0.0243 0.3691
C111 C 0.0066(4) 0.7599(12) 0.3912(10)
C112 C -0.0179(4) 0.8248(15) 0.3716(11)
C113 C -0.0278(6) 0.8583(18) 0.3054(13)
H65 H -0.045 0.8987 0.2971
C114 C 0.0239(5) 0.7316(18) 0.3459(15)
H66 H 0.0411 0.6922 0.3566
Cl1 Cl 0.42155(6) 0.3481(2) 0.70888(12)
Cl2 Cl 0.43729(6) 0.3605(3) 0.57223(13)
C115 C 0.44913(17) 0.3663(8) 0.6598(4)
H67 H 0.4583 0.4471 0.6709
H68 H 0.4627 0.2992 0.6715
Cl3 Cl 0.48573(5) 0.6017(2) 0.39902(14)
Cl4 Cl 0.46457(8) 0.6928(3) 0.52283(16)
C116 C 0.4926(3) 0.6894(9) 0.4724(5)
H69 H 0.4969 0.7759 0.4601
H70 H 0.509 0.6549 0.5002
Cl5 Cl 0.0677(2) 0.0103(11) 0.2677(6)
Cl6 Cl 0.0298(3) -0.0110(16) 0.1589(7)
C117 C 0.0341(7) -0.056(6) 0.2471(11)
H71 H 0.0204 -0.0167 0.2726
H72 H 0.034 -0.1475 0.2533
loop_
_geom_bond_atom_site_label_1
_geom_bond_atom_site_label_2
_geom_bond_site_symmetry_1
_geom_bond_site_symmetry_2
S1 C34 1_555 1_555
S2 C4 1_555 1_555
C1 C17 1_555 1_555
N1 C2 1_555 1_555
C2 C16 1_555 1_555
N2 C7 1_555 1_555
O1 H1 1_555 1_555
O2 C45 1_555 1_555
C3 N1 1_555 1_555
C4 C5 1_555 1_555
C5 C14 1_555 1_555
C6 H2 1_555 1_555
C7 C15 1_555 1_555
C8 N1 1_555 1_555
C9 C6 1_555 1_555
H3 C9 1_555 1_555
C10 C3 1_555 1_555
C11 C6 1_555 1_555
C12 H4 1_555 1_555
C13 H5 1_555 1_555
C14 C11 1_555 1_555
H6 C14 1_555 1_555
C15 C10 1_555 1_555
H7 C15 1_555 1_555
C16 C10 1_555 1_555
C17 C26 1_555 1_555
N3 C21 1_555 1_555
C18 C1 1_555 1_555
C19 C8 1_555 1_555
H8 C19 1_555 1_555
C20 C1 1_555 1_555
H9 C20 1_555 1_555
C21 C12 1_555 1_555
C22 C7 1_555 1_555
H10 C22 1_555 1_555
C23 H11 1_555 1_555
C24 C45 1_555 1_555
C25 C20 1_555 1_555
H12 C25 1_555 1_555
C26 N2 1_555 1_555
C27 C21 1_555 1_555
H13 C27 1_555 1_555
C28 S2 1_555 1_555
C29 H14 1_555 1_555
C30 C17 1_555 1_555
H15 C30 1_555 1_555
C31 C37 1_555 1_555
C32 C11 1_555 1_555
H16 C32 1_555 1_555
C33 C13 1_555 1_555
H17 C33 1_555 1_555
C34 C49 1_555 1_555
C35 N3 1_555 1_555
C36 H18 1_555 1_555
C37 N3 1_555 1_555
C38 C26 1_555 1_555
H19 C38 1_555 1_555
C39 C3 1_555 1_555
H20 C39 1_555 1_555
C40 C31 1_555 1_555
C41 C37 1_555 1_555
H21 C41 1_555 1_555
C42 C4 1_555 1_555
H22 C42 1_555 1_555
C43 S1 1_555 1_555
C44 C36 1_555 1_555
H23 C44 1_555 1_555
C45 O1 1_555 1_555
C46 C2 1_555 1_555
H24 C46 1_555 1_555
C47 C38 1_555 1_555
H25 C47 1_555 1_555
C48 C30 1_555 1_555
H26 C48 1_555 1_555
C49 C24 1_555 1_555
H27 C49 1_555 1_555
C50 C31 1_555 1_555
H28 C50 1_555 1_555
N4 C52 1_555 1_555
C51 C29 1_555 1_555
H29 C51 1_555 1_555
C52 C24 1_555 1_555
C53 C34 1_555 1_555
H30 C53 1_555 1_555
C54 C50 1_555 1_555
H31 C54 1_555 1_555
C55 C5 1_555 1_555
C56 C43 1_555 1_555
H32 C56 1_555 1_555
N5 C55 1_555 1_555
C57 C41 1_555 1_555
H33 C57 1_555 1_555
S3 C67 1_555 1_555
S4 C73 1_555 1_555
C58 H34 1_555 1_555
O3 H35 1_555 1_555
N6 C65 1_555 1_555
C59 C58 1_555 1_555
H36 C59 1_555 1_555
C60 C61 1_555 1_555
C61 H37 1_555 1_555
C62 H38 1_555 1_555
C63 H39 1_555 1_555
C64 C69 1_555 1_555
N7 C79 1_555 1_555
C65 C85 1_555 1_555
C66 N6 1_555 1_555
C67 C62 1_555 1_555
C68 C60 1_555 1_555
H40 C68 1_555 1_555
C69 N6 1_555 1_555
C70 H41 1_555 1_555
C71 C69 1_555 1_555
H42 C71 1_555 1_555
C72 C66 1_555 1_555
H43 C72 1_555 1_555
C73 C87 1_555 1_555
C74 C62 1_555 1_555
H44 C74 1_555 1_555
C75 S4 1_555 1_555
C76 C64 1_555 1_555
H45 C76 1_555 1_555
C77 S3 1_555 1_555
C78 C60 1_555 1_555
H46 C78 1_555 1_555
C79 C70 1_555 1_555
C80 N7 1_555 1_555
C81 N7 1_555 1_555
O4 C83 1_555 1_555
C82 C77 1_555 1_555
H47 C82 1_555 1_555
C83 O3 1_555 1_555
C84 C80 1_555 1_555
C85 C64 1_555 1_555
C86 C82 1_555 1_555
C87 C61 1_555 1_555
C88 C73 1_555 1_555
H48 C88 1_555 1_555
C89 C75 1_555 1_555
H49 C89 1_555 1_555
C90 C81 1_555 1_555
N8 C95 1_555 1_555
C91 C65 1_555 1_555
H50 C91 1_555 1_555
C92 C84 1_555 1_555
H51 C92 1_555 1_555
C93 H52 1_555 1_555
C94 C81 1_555 1_555
H53 C94 1_555 1_555
C95 C98 1_555 1_555
C96 N8 1_555 1_555
C97 H54 1_555 1_555
C98 C91 1_555 1_555
H55 C98 1_555 1_555
C99 C85 1_555 1_555
H56 C99 1_555 1_555
C100 C96 1_555 1_555
C101 C80 1_555 1_555
H57 C101 1_555 1_555
C102 C92 1_555 1_555
H58 C102 1_555 1_555
C103 C96 1_555 1_555
H59 C103 1_555 1_555
C104 C101 1_555 1_555
H60 C104 1_555 1_555
C105 C90 1_555 1_555
H61 C105 1_555 1_555
C106 C93 1_555 1_555
H62 C106 1_555 1_555
C107 C103 1_555 1_555
H63 C107 1_555 1_555
C108 C97 1_555 1_555
H64 C108 1_555 1_555
C109 C86 1_555 1_555
N9 C109 1_555 1_555
C110 C87 1_555 1_555
N10 C110 1_555 1_555
C111 N8 1_555 1_555
C112 C100 1_555 1_555
C113 C58 1_555 1_555
H65 C113 1_555 1_555
C114 C59 1_555 1_555
H66 C114 1_555 1_555
Cl1 C115 1_555 1_555
Cl2 C115 1_555 1_555
C115 H67 1_555 1_555
H68 C115 1_555 1_555
Cl3 C116 1_555 1_555
Cl4 C116 1_555 1_555
C116 H69 1_555 1_555
H70 C116 1_555 1_555
Cl5 C117 1_555 1_555
Cl6 C117 1_555 1_555
C117 H71 1_555 1_555
H72 C117 1_555 1_555
N2 C18 1_555 1_555
C8 C9 1_555 1_555
C12 C16 1_555 1_555
C13 C18 1_555 1_555
C19 C32 1_555 1_555
C22 C39 1_555 1_555
C23 C28 1_555 1_555
C23 C42 1_555 1_555
C25 C33 1_555 1_555
C27 C46 1_555 1_555
C28 C43 1_555 1_555
C29 C35 1_555 1_555
C35 C40 1_555 1_555
C36 C51 1_555 1_555
C40 C44 1_555 1_555
C47 C48 1_555 1_555
C53 C56 1_555 1_555
C54 C57 1_555 1_555
C63 C66 1_555 1_555
C63 C78 1_555 1_555
C67 C75 1_555 1_555
C68 C72 1_555 1_555
C70 C71 1_555 1_555
C74 C77 1_555 1_555
C76 C79 1_555 1_555
C83 C86 1_555 1_555
C84 C90 1_555 1_555
C88 C89 1_555 1_555
C93 C94 1_555 1_555
C95 C99 1_555 1_555
C97 C100 1_555 1_555
C102 C104 1_555 1_555
C105 C106 1_555 1_555
C107 C108 1_555 1_555
C111 C112 1_555 1_555
C111 C114 1_555 1_555
C112 C113 1_555 1_555

#END
