
#######################################################################
#
#                 Cambridge Crystallographic Data Centre
#                                CCDC 
#
#######################################################################
#
# If this CIF has been generated from an entry in the Cambridge 
# Structural Database, then it will include bibliographic, chemical, 
# crystal, experimental, refinement or atomic coordinate data resulting 
# from the CCDC's data processing and validation procedures.
#
#######################################################################

data_EBONUH
_chemical_formula_moiety         'C14 H12 Br2 O4 S1'
_chemical_name_systematic        
'diethyl 1,3-dibromo-2-benzothiophene-5,6-dicarboxylate'
_symmetry_cell_setting           monoclinic
_symmetry_space_group_name_H-M   'P 21/c'
_symmetry_Int_Tables_number      14
_space_group_name_Hall           '-P 2ybc'
loop_
_symmetry_equiv_pos_site_id
_symmetry_equiv_pos_as_xyz
1 x,y,z
2 -x,1/2+y,1/2-z
3 -x,-y,-z
4 x,1/2-y,1/2+z
_cell_length_a                   7.135(2)
_cell_length_b                   14.736(4)
_cell_length_c                   15.012(4)
_cell_angle_alpha                90
_cell_angle_beta                 93.911(6)
_cell_angle_gamma                90
_cell_volume                     1574.71
_exptl_crystal_colour            colorless
_exptl_crystal_description       Prism
_cell_formula_units_Z            4
loop_
_atom_site_label
_atom_site_type_symbol
_atom_site_fract_x
_atom_site_fract_y
_atom_site_fract_z
Br1 Br 0.11139(4) -0.136266(16) 0.300219(17)
Br2 Br 0.38723(4) -0.147756(16) 0.689906(17)
S1 S 0.24971(9) -0.18729(4) 0.49355(4)
O1 O 0.0706(2) 0.25041(11) 0.35294(12)
O2 O 0.3448(2) 0.28653(11) 0.42795(11)
O3 O 0.1576(2) 0.28264(10) 0.58789(11)
O4 O 0.4216(2) 0.23694(12) 0.66582(12)
C1 C 0.1916(3) -0.10479(16) 0.41685(16)
C2 C 0.2142(3) -0.01866(16) 0.45277(16)
C3 C 0.1793(3) 0.06719(15) 0.41085(16)
H1 H 0.1315 0.0701 0.3503
C4 C 0.2147(3) 0.14484(15) 0.45789(17)
C5 C 0.2831(3) 0.14191(15) 0.55033(17)
C6 C 0.3183(3) 0.06076(15) 0.59208(16)
H2 H 0.3654 0.0595 0.6528
C7 C 0.2845(3) -0.02167(16) 0.54479(16)
C8 C 0.3075(3) -0.10992(16) 0.57507(15)
C9 C 0.1958(4) 0.23254(16) 0.40769(17)
C10 C 0.3486(4) 0.37053(17) 0.3786(2)
H3 H 0.2488 0.4118 0.3969
H4 H 0.3273 0.3586 0.3138
C11 C 0.5381(4) 0.41287(19) 0.3984(2)
H5 H 0.5602 0.4217 0.4630
H6 H 0.5426 0.4717 0.3681
H7 H 0.6353 0.3729 0.3771
C12 C 0.3014(4) 0.22497(16) 0.60700(17)
C13 C 0.1515(4) 0.36113(16) 0.64510(19)
H8 H 0.2647 0.3990 0.6396
H9 H 0.1477 0.3420 0.7082
C14 C -0.0221(4) 0.41414(18) 0.6166(2)
H10 H -0.0211 0.4290 0.5530
H11 H -0.0248 0.4703 0.6515
H12 H -0.1335 0.3777 0.6267
loop_
_geom_bond_atom_site_label_1
_geom_bond_atom_site_label_2
_geom_bond_site_symmetry_1
_geom_bond_site_symmetry_2
Br1 C1 1_555 1_555
Br2 C8 1_555 1_555
S1 C1 1_555 1_555
O1 C9 1_555 1_555
O2 C9 1_555 1_555
O3 C12 1_555 1_555
O4 C12 1_555 1_555
C1 C2 1_555 1_555
C2 C3 1_555 1_555
C3 H1 1_555 1_555
C4 C3 1_555 1_555
C5 C4 1_555 1_555
C6 C5 1_555 1_555
H2 C6 1_555 1_555
C7 C2 1_555 1_555
C8 S1 1_555 1_555
C9 C4 1_555 1_555
C10 O2 1_555 1_555
H3 C10 1_555 1_555
H4 C10 1_555 1_555
C11 C10 1_555 1_555
H5 C11 1_555 1_555
H6 C11 1_555 1_555
H7 C11 1_555 1_555
C12 C5 1_555 1_555
C13 O3 1_555 1_555
H8 C13 1_555 1_555
H9 C13 1_555 1_555
C14 C13 1_555 1_555
H10 C14 1_555 1_555
H11 C14 1_555 1_555
H12 C14 1_555 1_555
C6 C7 1_555 1_555
C7 C8 1_555 1_555

#END
