
#######################################################################
#
#                 Cambridge Crystallographic Data Centre
#                                CCDC 
#
#######################################################################
#
# If this CIF has been generated from an entry in the Cambridge 
# Structural Database, then it will include bibliographic, chemical, 
# crystal, experimental, refinement or atomic coordinate data resulting 
# from the CCDC's data processing and validation procedures.
#
#######################################################################

data_EBONEO
_chemical_formula_moiety         'C6 H4 B1 Cl1 O2'
_chemical_name_systematic        2-Chloro-1,3,2-benzodioxaborole
_symmetry_cell_setting           monoclinic
_symmetry_space_group_name_H-M   'C 2/c'
_symmetry_Int_Tables_number      15
_space_group_name_Hall           '-C 2yn'
loop_
_symmetry_equiv_pos_site_id
_symmetry_equiv_pos_as_xyz
1 x,y,z
2 1/2+x,1/2+y,z
3 x,-y,1/2+z
4 1/2+x,1/2-y,1/2+z
5 -x,-y,-z
6 1/2-x,1/2-y,-z
7 -x,y,1/2-z
8 1/2-x,1/2+y,1/2-z
_cell_length_a                   10.5584(8)
_cell_length_b                   9.8180(8)
_cell_length_c                   7.1370(5)
_cell_angle_alpha                90
_cell_angle_beta                 118.75(1)
_cell_angle_gamma                90
_cell_volume                     648.636
_exptl_crystal_colour            colorless
_exptl_crystal_description       prism
_cell_formula_units_Z            4
loop_
_atom_site_label
_atom_site_type_symbol
_atom_site_fract_x
_atom_site_fract_y
_atom_site_fract_z
Cl1 Cl 1.0000 0.09423(6) 0.7500
O1 O 0.88279(11) 0.34848(11) 0.72328(17)
B1 B 1.0000 0.2719(3) 0.7500
C1 C 0.92954(14) 0.48263(16) 0.7343(2)
C2 C 0.85551(16) 0.60175(17) 0.7191(2)
H1 H 0.759(2) 0.6006(18) 0.700(3)
C3 C 0.92959(16) 0.72326(17) 0.7357(2)
H2 H 0.882(2) 0.810(2) 0.727(3)
C1F C 1.07046(14) 0.48263(16) 0.7657(2)
O1F O 1.11721(11) 0.34848(11) 0.77672(17)
C2F C 1.14449(16) 0.60175(17) 0.7809(2)
H1F H 1.241(2) 0.6006(18) 0.800(3)
C3F C 1.07041(16) 0.72326(17) 0.7643(2)
H2F H 1.118(2) 0.810(2) 0.773(3)
loop_
_geom_bond_atom_site_label_1
_geom_bond_atom_site_label_2
_geom_bond_site_symmetry_1
_geom_bond_site_symmetry_2
Cl1 B1 1_555 1_555
O1 B1 1_555 1_555
B1 O1F 1_555 1_555
C1 O1 1_555 1_555
C2 C1 1_555 1_555
H1 C2 1_555 1_555
C3 C2 1_555 1_555
H2 C3 1_555 1_555
C1F C1 1_555 1_555
O1F C1F 1_555 1_555
C2F C1F 1_555 1_555
H1F C2F 1_555 1_555
C3F C3 1_555 1_555
H2F C3F 1_555 1_555
C2F C3F 1_555 1_555

#END
