
#######################################################################
#
#                 Cambridge Crystallographic Data Centre
#                                CCDC 
#
#######################################################################
#
# If this CIF has been generated from an entry in the Cambridge 
# Structural Database, then it will include bibliographic, chemical, 
# crystal, experimental, refinement or atomic coordinate data resulting 
# from the CCDC's data processing and validation procedures.
#
#######################################################################

data_EBOPAP
_chemical_formula_moiety         'C14 H12 Br2 O5 S1'
_chemical_name_systematic        
'diethyl 1,1-dibromo-3-oxo-1,3-dihydro-2-benzothiophene-5,6-dicarboxylate'
_symmetry_cell_setting           triclinic
_symmetry_space_group_name_H-M   'P -1'
_symmetry_Int_Tables_number      2
_space_group_name_Hall           '-P 1'
loop_
_symmetry_equiv_pos_site_id
_symmetry_equiv_pos_as_xyz
1 x,y,z
2 -x,-y,-z
_cell_length_a                   8.703(5)
_cell_length_b                   10.075(7)
_cell_length_c                   10.774(7)
_cell_angle_alpha                109.858(12)
_cell_angle_beta                 98.733(6)
_cell_angle_gamma                100.347(6)
_cell_volume                     850.629
_exptl_crystal_colour            colorless
_exptl_crystal_description       Prism
_cell_formula_units_Z            2
loop_
_atom_site_label
_atom_site_type_symbol
_atom_site_fract_x
_atom_site_fract_y
_atom_site_fract_z
Br1 Br -0.55143(6) 0.72470(6) 0.15676(6)
Br2 Br -0.33564(8) 0.60747(7) 0.33372(8)
S1 S -0.33949(17) 0.92858(16) 0.43639(16)
O1 O -0.1046(4) 1.1618(4) 0.4986(4)
O2 O 0.2968(4) 1.0851(4) 0.1887(4)
O3 O 0.2067(4) 0.9259(4) -0.0215(4)
O4 O 0.1253(4) 0.6240(3) -0.0308(3)
O5 O -0.1013(4) 0.6226(3) -0.1516(3)
C1 C -0.1642(6) 1.0394(5) 0.4201(5)
C2 C -0.3473(5) 0.7765(5) 0.2878(5)
C3 C -0.2077(5) 0.8144(4) 0.2293(4)
C4 C -0.1703(5) 0.7229(4) 0.1163(4)
H1 H -0.2345 0.6290 0.0680
C5 C -0.0341(5) 0.7739(4) 0.0756(4)
C6 C 0.0593(5) 0.9159(4) 0.1450(5)
C7 C 0.0198(5) 1.0049(4) 0.2572(5)
H2 H 0.0830 1.0991 0.3055
C8 C -0.1153(5) 0.9537(5) 0.2985(5)
C9 C 0.1963(6) 0.9734(5) 0.0916(6)
C10 C 0.4362(7) 1.1565(8) 0.1508(7)
H3 H 0.4644 1.0848 0.0775
H4 H 0.4080 1.2302 0.1191
C11 C 0.5617(6) 1.2180(6) 0.2568(8)
H5 H 0.5344 1.2903 0.3287
H6 H 0.6511 1.2633 0.2305
H7 H 0.5900 1.1449 0.2877
C12 C 0.0107(6) 0.6675(5) -0.0398(5)
C13 C -0.0743(7) 0.5111(6) -0.2691(5)
H8 H 0.0373 0.5343 -0.2737
H9 H -0.0988 0.4170 -0.2611
C14 C -0.1747(9) 0.5061(7) -0.3883(6)
H10 H -0.2849 0.4829 -0.3832
H11 H -0.1583 0.4328 -0.4660
H12 H -0.1488 0.5992 -0.3962
loop_
_geom_bond_atom_site_label_1
_geom_bond_atom_site_label_2
_geom_bond_site_symmetry_1
_geom_bond_site_symmetry_2
Br1 C2 1_555 1_555
Br2 C2 1_555 1_555
S1 C1 1_555 1_555
O1 C1 1_555 1_555
O2 C9 1_555 1_555
O3 C9 1_555 1_555
O4 C12 1_555 1_555
O5 C12 1_555 1_555
C1 C8 1_555 1_555
C2 S1 1_555 1_555
C3 C2 1_555 1_555
C4 C3 1_555 1_555
H1 C4 1_555 1_555
C5 C4 1_555 1_555
C6 C5 1_555 1_555
C7 C6 1_555 1_555
H2 C7 1_555 1_555
C8 C3 1_555 1_555
C9 C6 1_555 1_555
C10 O2 1_555 1_555
H3 C10 1_555 1_555
H4 C10 1_555 1_555
C11 C10 1_555 1_555
H5 C11 1_555 1_555
H6 C11 1_555 1_555
H7 C11 1_555 1_555
C12 C5 1_555 1_555
C13 O5 1_555 1_555
H8 C13 1_555 1_555
H9 C13 1_555 1_555
C14 C13 1_555 1_555
H10 C14 1_555 1_555
H11 C14 1_555 1_555
H12 C14 1_555 1_555
C7 C8 1_555 1_555

#END
