
#######################################################################
#
#                 Cambridge Crystallographic Data Centre
#                                CCDC 
#
#######################################################################
#
# If this CIF has been generated from an entry in the Cambridge 
# Structural Database, then it will include bibliographic, chemical, 
# crystal, experimental, refinement or atomic coordinate data resulting 
# from the CCDC's data processing and validation procedures.
#
#######################################################################

data_EBOXIF
_chemical_formula_moiety         'C8 H9 F3 N1 O1 1+,I1 1-'
_chemical_name_systematic        
'4-[(2,2,2-trifluoroethoxy)methyl]pyridin-1-ium iodide'
_symmetry_cell_setting           monoclinic
_symmetry_space_group_name_H-M   'P 21/n'
_symmetry_Int_Tables_number      14
_space_group_name_Hall           '-P 2yn'
loop_
_symmetry_equiv_pos_site_id
_symmetry_equiv_pos_as_xyz
1 x,y,z
2 1/2-x,1/2+y,1/2-z
3 -x,-y,-z
4 1/2+x,1/2-y,1/2+z
_cell_length_a                   7.8651(3)
_cell_length_b                   9.2595(3)
_cell_length_c                   14.7958(5)
_cell_angle_alpha                90
_cell_angle_beta                 101.1510(10)
_cell_angle_gamma                90
_cell_volume                     1057.19
_exptl_crystal_colour            colorless
_exptl_crystal_description       prism
_cell_formula_units_Z            4
loop_
_atom_site_label
_atom_site_type_symbol
_atom_site_fract_x
_atom_site_fract_y
_atom_site_fract_z
I1 I 0.55550(2) 0.18787(2) 0.60106(2)
F1 F 0.53198(12) 0.89861(11) 0.14989(7)
F2 F 0.25938(12) 0.90209(10) 0.09319(8)
F3 F 0.44127(15) 0.84459(11) 0.00801(7)
O1 O 0.55327(13) 0.61073(11) 0.11764(7)
N1 N 0.57467(18) 0.25969(17) 0.37582(10)
C1 C 0.5954(2) 0.4026(2) 0.37325(11)
C2 C 0.58878(19) 0.47115(18) 0.29023(10)
C3 C 0.55746(18) 0.39042(16) 0.20962(10)
C4 C 0.5348(2) 0.24154(17) 0.21537(11)
C5 C 0.5452(2) 0.17803(19) 0.29976(12)
C6 C 0.5508(2) 0.45735(16) 0.11656(10)
C7 C 0.3901(2) 0.67462(16) 0.11850(11)
C8 C 0.4061(2) 0.83010(16) 0.09243(11)
H1 H 0.578(3) 0.221(3) 0.4284(17)
H2 H 0.614(2) 0.453(2) 0.4302(14)
H3 H 0.602(2) 0.569(2) 0.2885(12)
H4 H 0.515(3) 0.183(2) 0.1622(15)
H5 H 0.531(3) 0.078(2) 0.3074(14)
H6 H 0.655(2) 0.425(2) 0.0941(12)
H7 H 0.449(2) 0.423(2) 0.0749(13)
H8 H 0.359(2) 0.673(2) 0.1800(14)
H9 H 0.295(3) 0.630(2) 0.0728(13)
loop_
_geom_bond_atom_site_label_1
_geom_bond_atom_site_label_2
_geom_bond_site_symmetry_1
_geom_bond_site_symmetry_2
F1 C8 1_555 1_555
F2 C8 1_555 1_555
F3 C8 1_555 1_555
O1 C6 1_555 1_555
N1 C1 1_555 1_555
C1 C2 1_555 1_555
C2 C3 1_555 1_555
C3 C4 1_555 1_555
C4 C5 1_555 1_555
C5 N1 1_555 1_555
C6 C3 1_555 1_555
C7 O1 1_555 1_555
C8 C7 1_555 1_555
H1 N1 1_555 1_555
H2 C1 1_555 1_555
H3 C2 1_555 1_555
H4 C4 1_555 1_555
H5 C5 1_555 1_555
H6 C6 1_555 1_555
H7 C6 1_555 1_555
H8 C7 1_555 1_555
H9 C7 1_555 1_555

#END
