
#######################################################################
#
#                 Cambridge Crystallographic Data Centre
#                                CCDC 
#
#######################################################################
#
# If this CIF has been generated from an entry in the Cambridge 
# Structural Database, then it will include bibliographic, chemical, 
# crystal, experimental, refinement or atomic coordinate data resulting 
# from the CCDC's data processing and validation procedures.
#
#######################################################################

data_ECACER
_chemical_formula_moiety         'C19 H19 N1 O6'
_chemical_name_systematic        
2,2-Dimethyl-3a,4a,5,7a,13b,13c-hexahydro-4H-bis[1,3]dioxolo[4,5-a:4',5'-j]pyrrolo[3,2,1-de]phenanthridine-6,8-dione
_symmetry_cell_setting           monoclinic
_symmetry_space_group_name_H-M   'P 21'
_symmetry_Int_Tables_number      4
_space_group_name_Hall           'P 2yb'
loop_
_symmetry_equiv_pos_site_id
_symmetry_equiv_pos_as_xyz
1 x,y,z
2 -x,1/2+y,-z
_cell_length_a                   9.9530(15)
_cell_length_b                   6.9505(11)
_cell_length_c                   11.7107(18)
_cell_angle_alpha                90
_cell_angle_beta                 98.204(3)
_cell_angle_gamma                90
_cell_volume                     801.836
_exptl_crystal_colour            colorless
_exptl_crystal_description       plate
_chemical_melting_point          217-220deg.C(dec.)
_cell_formula_units_Z            2
loop_
_atom_site_label
_atom_site_type_symbol
_atom_site_fract_x
_atom_site_fract_y
_atom_site_fract_z
C1 C 0.6071(4) 0.8662(6) 0.9603(3)
H1 H 0.5367 0.8712 1.0120
H2 H 0.6536 0.7403 0.9716
C2 C 0.5391(4) 0.8829(8) 0.8350(3)
H3 H 0.4770 0.9968 0.8271
C3 C 0.5057(4) 0.6292(6) 0.7037(4)
C4 C 0.6426(3) 0.9012(8) 0.7464(3)
H4 H 0.6259 1.0224 0.7005
C5 C 0.7883(3) 0.8949(6) 0.8074(3)
H5 H 0.8041 0.7649 0.8434
C6 C 0.8968(3) 0.9281(6) 0.7308(3)
C7 C 0.8721(4) 0.9123(7) 0.6095(3)
H6 H 0.7840 0.8841 0.5704
C8 C 0.9793(4) 0.9391(7) 0.5501(3)
C9 C 1.1177(4) 0.9423(7) 0.4161(3)
H7 H 1.1480 0.8127 0.3958
H8 H 1.1310 1.0322 0.3531
C10 C 1.1077(3) 0.9803(6) 0.6040(3)
C11 C 1.1364(3) 1.0003(6) 0.7212(3)
H9 H 1.2249 1.0323 0.7580
C12 C 1.0278(3) 0.9709(5) 0.7845(3)
C13 C 1.0593(3) 0.9904(6) 0.9124(3)
C14 C 0.9433(3) 0.9845(5) 1.0869(2)
C15 C 0.7973(3) 0.9990(6) 1.1097(2)
H10 H 0.7865 1.1097 1.1608
H11 H 0.7707 0.8803 1.1475
C16 C 0.7094(3) 1.0261(6) 0.9928(3)
H12 H 0.6591 1.1504 0.9941
C17 C 0.8098(3) 1.0429(5) 0.9030(3)
H13 H 0.8048 1.1752 0.8691
N1 N 0.9459(2) 1.0109(5) 0.9692(2)
O1 O 0.4629(3) 0.7135(6) 0.8014(3)
O2 O 0.6143(3) 0.7372(6) 0.6738(2)
O3 O 0.9765(3) 0.9377(5) 0.43217(19)
O4 O 1.1936(2) 1.0053(5) 0.52267(19)
O5 O 1.1744(2) 0.9874(4) 0.96310(18)
O6 O 1.0409(2) 0.9538(4) 1.15788(18)
C18 C 0.4008(6) 0.5866(10) 0.6131(5)
H14 H 0.4400 0.5357 0.5472
H15 H 0.3495 0.7040 0.5901
H16 H 0.3399 0.4904 0.6393
C19 C 0.5876(6) 0.4649(10) 0.7609(5)
H17 H 0.6524 0.5140 0.8251
H18 H 0.6369 0.4017 0.7046
H19 H 0.5267 0.3721 0.7901
C20? C 0.3941(8) 0.7060(13) 0.6056(7)
H20? H 0.3987 0.6337 0.5344
H21? H 0.4099 0.8428 0.5922
H22? H 0.3042 0.6894 0.6291
C21? C 0.5087(11) 0.3996(17) 0.6955(9)
H23? H 0.5903 0.3506 0.7434
H24? H 0.5098 0.3611 0.6151
H25? H 0.4279 0.3464 0.7229
loop_
_geom_bond_atom_site_label_1
_geom_bond_atom_site_label_2
_geom_bond_site_symmetry_1
_geom_bond_site_symmetry_2
C1 H1 1_555 1_555
H2 C1 1_555 1_555
C2 C1 1_555 1_555
H3 C2 1_555 1_555
C3 O1 1_555 1_555
C4 C2 1_555 1_555
H4 C4 1_555 1_555
C5 C4 1_555 1_555
H5 C5 1_555 1_555
C6 C5 1_555 1_555
C7 C6 1_555 1_555
H6 C7 1_555 1_555
C8 C7 1_555 1_555
C9 H7 1_555 1_555
H8 C9 1_555 1_555
C10 C8 1_555 1_555
C11 C10 1_555 1_555
H9 C11 1_555 1_555
C12 C6 1_555 1_555
C13 C12 1_555 1_555
C14 C15 1_555 1_555
C15 H10 1_555 1_555
H11 C15 1_555 1_555
C16 C1 1_555 1_555
H12 C16 1_555 1_555
C17 C5 1_555 1_555
H13 C17 1_555 1_555
N1 C13 1_555 1_555
O1 C2 1_555 1_555
O2 C3 1_555 1_555
O3 C8 1_555 1_555
O4 C9 1_555 1_555
O5 C13 1_555 1_555
O6 C14 1_555 1_555
C18 C3 1_555 1_555
H14 C18 1_555 1_555
H15 C18 1_555 1_555
H16 C18 1_555 1_555
C19 C3 1_555 1_555
H17 C19 1_555 1_555
H18 C19 1_555 1_555
H19 C19 1_555 1_555
C4 O2 1_555 1_555
C9 O3 1_555 1_555
C10 O4 1_555 1_555
C11 C12 1_555 1_555
C14 N1 1_555 1_555
C15 C16 1_555 1_555
C16 C17 1_555 1_555
C17 N1 1_555 1_555

#END
