
#######################################################################
#
#                 Cambridge Crystallographic Data Centre
#                                CCDC 
#
#######################################################################
#
# If this CIF has been generated from an entry in the Cambridge 
# Structural Database, then it will include bibliographic, chemical, 
# crystal, experimental, refinement or atomic coordinate data resulting 
# from the CCDC's data processing and validation procedures.
#
#######################################################################

data_ECACAN
_chemical_formula_moiety         'C20 H25 N1 O5'
_chemical_name_systematic        
't-Butyl 2,3,3a,4,5,6-hexahydro-5-hydroxy-3a-methyl-2-oxo-6-phenoxyindole-1-carboxylate'
_symmetry_cell_setting           orthorhombic
_symmetry_space_group_name_H-M   'P 21 21 21'
_symmetry_Int_Tables_number      19
_space_group_name_Hall           'P 2ac 2ab'
loop_
_symmetry_equiv_pos_site_id
_symmetry_equiv_pos_as_xyz
1 x,y,z
2 1/2-x,-y,1/2+z
3 -x,1/2+y,1/2-z
4 1/2+x,1/2-y,-z
_cell_length_a                   5.6458(2)
_cell_length_b                   14.9698(4)
_cell_length_c                   22.1670(6)
_cell_angle_alpha                90
_cell_angle_beta                 90
_cell_angle_gamma                90
_cell_volume                     1873.48
_exptl_crystal_colour            colorless
_chemical_melting_point          126-128deg.C
_cell_formula_units_Z            4
loop_
_atom_site_label
_atom_site_type_symbol
_atom_site_fract_x
_atom_site_fract_y
_atom_site_fract_z
C1 C 0.5655(3) 0.11147(10) 0.15899(7)
C2 C 0.6793(3) 0.02010(11) 0.15572(8)
H1 H 0.7296 -0.0003 0.1962
H2 H 0.8189 0.0208 0.1287
C3 C 0.4842(3) -0.04025(10) 0.13040(7)
C4 C 0.5696(3) -0.12091(10) 0.09378(8)
H3 H 0.7040 -0.1030 0.0678
H4 H 0.6253 -0.1684 0.1215
C5 C 0.3694(3) -0.15636(10) 0.05509(7)
H5 H 0.2323 -0.1687 0.0824
C6 C 0.2885(3) -0.08638(11) 0.00898(7)
H6 H 0.1346 -0.1052 -0.0094
C7 C 0.2639(3) 0.00538(10) 0.03571(7)
H7 H 0.1806 0.0502 0.0140
C8 C 0.3566(3) 0.02493(9) 0.08913(7)
C9 C 0.2298(3) 0.18403(11) 0.09995(8)
C10 C 0.1592(3) 0.34194(10) 0.12021(8)
C11 C -0.1070(4) 0.33601(13) 0.11978(12)
H8 H -0.1744 0.3962 0.1171
H9 H -0.1614 0.3073 0.1570
H10 H -0.1586 0.3007 0.0850
C12 C 0.2590(4) 0.37424(13) 0.06109(9)
H11 H 0.2051 0.4355 0.0535
H12 H 0.2043 0.3352 0.0284
H13 H 0.4324 0.3731 0.0628
C13 C 0.2468(4) 0.39899(12) 0.17260(9)
H14 H 0.4204 0.3987 0.1732
H15 H 0.1866 0.3745 0.2106
H16 H 0.1899 0.4604 0.1676
C14 C 0.3206(4) -0.06917(11) 0.18249(7)
H17 H 0.2715 -0.0164 0.2055
H18 H 0.4058 -0.1104 0.2091
H19 H 0.1803 -0.0991 0.1660
C15 C 0.4120(3) -0.10918(10) -0.09506(7)
C16 C 0.5855(3) -0.15618(11) -0.12593(7)
H20 H 0.7318 -0.1697 -0.1068
C17 C 0.5449(4) -0.18352(11) -0.18499(8)
H21 H 0.6635 -0.2158 -0.2062
C18 C 0.3328(4) -0.16396(13) -0.21284(8)
H22 H 0.3037 -0.1835 -0.2529
C19 C 0.1623(4) -0.11560(12) -0.18201(8)
H23 H 0.0172 -0.1013 -0.2014
C20 C 0.2009(3) -0.08783(11) -0.12321(7)
H24 H 0.0834 -0.0544 -0.1024
N1 N 0.3739(3) 0.11089(8) 0.11755(6)
O1 O 0.6257(2) 0.17308(7) 0.19031(5)
O2 O 0.0929(3) 0.17884(9) 0.05937(7)
O3 O 0.2693(2) 0.25365(7) 0.13491(5)
O4 O 0.4695(2) -0.08155(7) -0.03744(5)
O5 O 0.4271(2) -0.23779(7) 0.02521(5)
H25 H 0.5599 -0.2328 0.0085
loop_
_geom_bond_atom_site_label_1
_geom_bond_atom_site_label_2
_geom_bond_site_symmetry_1
_geom_bond_site_symmetry_2
C1 C2 1_555 1_555
C2 H1 1_555 1_555
H2 C2 1_555 1_555
C3 C2 1_555 1_555
C4 C3 1_555 1_555
H3 C4 1_555 1_555
H4 C4 1_555 1_555
C5 C4 1_555 1_555
H5 C5 1_555 1_555
C6 C5 1_555 1_555
H6 C6 1_555 1_555
C7 C6 1_555 1_555
H7 C7 1_555 1_555
C8 C3 1_555 1_555
C9 N1 1_555 1_555
C10 C11 1_555 1_555
C11 H8 1_555 1_555
H9 C11 1_555 1_555
H10 C11 1_555 1_555
C12 C10 1_555 1_555
H11 C12 1_555 1_555
H12 C12 1_555 1_555
H13 C12 1_555 1_555
C13 C10 1_555 1_555
H14 C13 1_555 1_555
H15 C13 1_555 1_555
H16 C13 1_555 1_555
C14 C3 1_555 1_555
H17 C14 1_555 1_555
H18 C14 1_555 1_555
H19 C14 1_555 1_555
C15 C16 1_555 1_555
C16 H20 1_555 1_555
C17 C16 1_555 1_555
H21 C17 1_555 1_555
C18 C17 1_555 1_555
H22 C18 1_555 1_555
C19 C18 1_555 1_555
H23 C19 1_555 1_555
C20 C15 1_555 1_555
H24 C20 1_555 1_555
N1 C1 1_555 1_555
O1 C1 1_555 1_555
O2 C9 1_555 1_555
O3 C9 1_555 1_555
O4 C6 1_555 1_555
O5 C5 1_555 1_555
H25 O5 1_555 1_555
C7 C8 1_555 1_555
C8 N1 1_555 1_555
C10 O3 1_555 1_555
C15 O4 1_555 1_555
C19 C20 1_555 1_555

#END
