
#######################################################################
#
#                 Cambridge Crystallographic Data Centre
#                                CCDC 
#
#######################################################################
#
# If this CIF has been generated from an entry in the Cambridge 
# Structural Database, then it will include bibliographic, chemical, 
# crystal, experimental, refinement or atomic coordinate data resulting 
# from the CCDC's data processing and validation procedures.
#
#######################################################################

data_ECAZAM
_chemical_formula_moiety         'C46 H32'
_chemical_name_systematic        
6,12-bis(4-methylphenyl)-5,11-diphenylindeno[1,2-b]fluorene
_symmetry_cell_setting           orthorhombic
_symmetry_space_group_name_H-M   'P n a 21'
_symmetry_Int_Tables_number      33
_space_group_name_Hall           'P 2c -2n'
loop_
_symmetry_equiv_pos_site_id
_symmetry_equiv_pos_as_xyz
1 x,y,z
2 -x,-y,1/2+z
3 1/2+x,1/2-y,z
4 1/2-x,1/2+y,1/2+z
_cell_length_a                   16.8864(4)
_cell_length_b                   7.4906(2)
_cell_length_c                   24.7447(7)
_cell_angle_alpha                90
_cell_angle_beta                 90
_cell_angle_gamma                90
_cell_volume                     3129.94
_exptl_crystal_colour            red
_exptl_crystal_description       needle
_cell_formula_units_Z            4
loop_
_atom_site_label
_atom_site_type_symbol
_atom_site_fract_x
_atom_site_fract_y
_atom_site_fract_z
C1 C 0.46550(11) 0.7925(3) 0.08865(9)
C2 C 0.41615(12) 0.6517(3) 0.10288(8)
C3 C 0.35134(11) 0.5674(3) 0.07413(8)
C4 C 0.31566(11) 0.4237(3) 0.09791(8)
C5 C 0.24884(11) 0.3114(3) 0.07950(9)
C6 C 0.20296(12) 0.3085(3) 0.03313(9)
H1 H 0.2135 0.3879 0.0041
C7 C 0.14079(13) 0.1858(3) 0.03008(9)
H2 H 0.1088 0.1830 -0.0015
C8 C 0.12461(13) 0.0688(3) 0.07160(10)
H3 H 0.0809 -0.0105 0.0688
C9 C 0.17186(11) 0.0659(3) 0.11759(9)
H4 H 0.1621 -0.0174 0.1458
C10 C 0.23371(11) 0.1876(3) 0.12146(9)
C11 C 0.29170(11) 0.2133(3) 0.16446(10)
C12 C 0.34012(11) 0.3551(3) 0.15070(8)
C13 C 0.40459(11) 0.4392(3) 0.17942(8)
C14 C 0.44073(11) 0.5823(3) 0.15598(8)
C15 C 0.50787(11) 0.6923(3) 0.17393(9)
C16 C 0.55353(12) 0.6974(3) 0.22057(9)
H5 H 0.5419 0.6207 0.2501
C17 C 0.61677(12) 0.8173(3) 0.22336(9)
H6 H 0.6494 0.8183 0.2546
C18 C 0.63285(13) 0.9343(3) 0.18164(10)
H7 H 0.6765 1.0138 0.1845
C19 C 0.58609(12) 0.9372(3) 0.13566(9)
H8 H 0.5965 1.0194 0.1073
C20 C 0.52327(11) 0.8164(3) 0.13203(8)
C21 C 0.46599(11) 0.9042(3) 0.03958(8)
C22 C 0.53053(12) 0.8988(3) 0.00451(9)
H9 H 0.5746 0.8251 0.0129
C23 C 0.53107(12) 0.9998(3) -0.04243(9)
H10 H 0.5755 0.9933 -0.0659
C24 C 0.46823(13) 1.1101(3) -0.05597(9)
C25 C 0.40453(13) 1.1191(3) -0.01999(9)
H11 H 0.3611 1.1954 -0.0280
C26 C 0.40345(12) 1.0191(3) 0.02707(9)
H12 H 0.3598 1.0287 0.0511
C27 C 0.46881(17) 1.2181(4) -0.10777(14)
H13 H 0.4212 1.2926 -0.1094
H14 H 0.4697 1.1371 -0.1389
H15 H 0.5159 1.2945 -0.1085
C28 C 0.32616(11) 0.6348(3) 0.02034(9)
C29 C 0.37227(12) 0.6029(3) -0.02517(8)
H16 H 0.4202 0.5375 -0.0220
C30 C 0.34850(13) 0.6662(3) -0.07508(10)
H17 H 0.3803 0.6439 -0.1060
C31 C 0.27911(15) 0.7613(3) -0.08040(13)
H18 H 0.2630 0.8036 -0.1149
C32 C 0.23303(14) 0.7950(3) -0.03536(11)
H19 H 0.1853 0.8609 -0.0389
C33 C 0.25628(13) 0.7329(3) 0.01479(12)
H20 H 0.2246 0.7571 0.0457
C34 C 0.29124(11) 0.1001(3) 0.21373(8)
C35 C 0.22592(11) 0.1018(3) 0.24766(9)
H21 H 0.1815 0.1736 0.2385
C36 C 0.22390(12) 0.0017(3) 0.29436(9)
H22 H 0.1786 0.0072 0.3171
C37 C 0.28744(13) -0.1076(3) 0.30883(9)
C38 C 0.35192(13) -0.1132(3) 0.27393(9)
H23 H 0.3957 -0.1877 0.2825
C39 C 0.35388(12) -0.0130(3) 0.22704(9)
H24 H 0.3983 -0.0212 0.2037
C40 C 0.28531(15) -0.2157(4) 0.36020(13)
H25 H 0.2572 -0.1485 0.3883
H26 H 0.3396 -0.2401 0.3722
H27 H 0.2578 -0.3287 0.3535
C41 C 0.43060(11) 0.3713(3) 0.23343(9)
C42 C 0.38616(12) 0.4071(3) 0.27917(9)
H28 H 0.3384 0.4735 0.2761
C43 C 0.41074(15) 0.3470(3) 0.32928(10)
H29 H 0.3799 0.3724 0.3605
C44 C 0.48036(17) 0.2496(4) 0.33410(15)
H30 H 0.4971 0.2072 0.3684
C45 C 0.52499(14) 0.2150(4) 0.28872(12)
H31 H 0.5730 0.1497 0.2919
C46 C 0.50040(13) 0.2749(3) 0.23833(12)
H32 H 0.5314 0.2498 0.2072
loop_
_geom_bond_atom_site_label_1
_geom_bond_atom_site_label_2
_geom_bond_site_symmetry_1
_geom_bond_site_symmetry_2
C1 C2 1_555 1_555
C2 C3 1_555 1_555
C3 C4 1_555 1_555
C4 C5 1_555 1_555
C5 C6 1_555 1_555
C6 H1 1_555 1_555
C7 C6 1_555 1_555
H2 C7 1_555 1_555
C8 C7 1_555 1_555
H3 C8 1_555 1_555
C9 C8 1_555 1_555
H4 C9 1_555 1_555
C10 C5 1_555 1_555
C11 C10 1_555 1_555
C12 C4 1_555 1_555
C13 C12 1_555 1_555
C14 C2 1_555 1_555
C15 C14 1_555 1_555
C16 C15 1_555 1_555
H5 C16 1_555 1_555
C17 C16 1_555 1_555
H6 C17 1_555 1_555
C18 C17 1_555 1_555
H7 C18 1_555 1_555
C19 C18 1_555 1_555
H8 C19 1_555 1_555
C20 C1 1_555 1_555
C21 C1 1_555 1_555
C22 C21 1_555 1_555
H9 C22 1_555 1_555
C23 C22 1_555 1_555
H10 C23 1_555 1_555
C24 C23 1_555 1_555
C25 C24 1_555 1_555
H11 C25 1_555 1_555
C26 C21 1_555 1_555
H12 C26 1_555 1_555
C27 C24 1_555 1_555
H13 C27 1_555 1_555
H14 C27 1_555 1_555
H15 C27 1_555 1_555
C28 C3 1_555 1_555
C29 C28 1_555 1_555
H16 C29 1_555 1_555
C30 C29 1_555 1_555
H17 C30 1_555 1_555
C31 C30 1_555 1_555
H18 C31 1_555 1_555
C32 C31 1_555 1_555
H19 C32 1_555 1_555
C33 C28 1_555 1_555
H20 C33 1_555 1_555
C34 C11 1_555 1_555
C35 C34 1_555 1_555
H21 C35 1_555 1_555
C36 C35 1_555 1_555
H22 C36 1_555 1_555
C37 C36 1_555 1_555
C38 C37 1_555 1_555
H23 C38 1_555 1_555
C39 C34 1_555 1_555
H24 C39 1_555 1_555
C40 C37 1_555 1_555
H25 C40 1_555 1_555
H26 C40 1_555 1_555
H27 C40 1_555 1_555
C41 C13 1_555 1_555
C42 C41 1_555 1_555
H28 C42 1_555 1_555
C43 C42 1_555 1_555
H29 C43 1_555 1_555
C44 C43 1_555 1_555
H30 C44 1_555 1_555
C45 C44 1_555 1_555
H31 C45 1_555 1_555
C46 C41 1_555 1_555
H32 C46 1_555 1_555
C9 C10 1_555 1_555
C11 C12 1_555 1_555
C13 C14 1_555 1_555
C15 C20 1_555 1_555
C19 C20 1_555 1_555
C25 C26 1_555 1_555
C32 C33 1_555 1_555
C38 C39 1_555 1_555
C45 C46 1_555 1_555

#END
