
#######################################################################
#
#                 Cambridge Crystallographic Data Centre
#                                CCDC 
#
#######################################################################
#
# If this CIF has been generated from an entry in the Cambridge 
# Structural Database, then it will include bibliographic, chemical, 
# crystal, experimental, refinement or atomic coordinate data resulting 
# from the CCDC's data processing and validation procedures.
#
#######################################################################

data_ECEBOF
_chemical_formula_moiety         'C23 H21 Cl1 F3 N1 O5'
_chemical_name_systematic        
'(2R,3S,4R,5S)-4-Ethyl 2-methyl 1-benzoyl-5-(4-chlorophenyl)-3-(trifluoromethyl)pyrrolidine-2,4-dicarboxylate'
_symmetry_cell_setting           orthorhombic
_symmetry_space_group_name_H-M   'P 21 21 21'
_symmetry_Int_Tables_number      19
_space_group_name_Hall           'P 2ac 2ab'
loop_
_symmetry_equiv_pos_site_id
_symmetry_equiv_pos_as_xyz
1 x,y,z
2 1/2-x,-y,1/2+z
3 -x,1/2+y,1/2-z
4 1/2+x,1/2-y,-z
_cell_length_a                   8.6745(12)
_cell_length_b                   13.3919(18)
_cell_length_c                   19.262(3)
_cell_angle_alpha                90
_cell_angle_beta                 90
_cell_angle_gamma                90
_cell_volume                     2237.63
_exptl_crystal_description       block
_chemical_melting_point          '160 deg.C'
_cell_formula_units_Z            4
loop_
_atom_site_label
_atom_site_type_symbol
_atom_site_fract_x
_atom_site_fract_y
_atom_site_fract_z
C1 C 0.8060(3) 0.66515(16) 0.79507(11)
C2 C 0.8531(3) 0.62126(16) 0.73467(12)
H1 H 0.9515 0.5942 0.7311
C3 C 0.7523(3) 0.61755(16) 0.67870(11)
H2 H 0.7838 0.5886 0.6372
C4 C 0.6060(2) 0.65638(14) 0.68432(9)
C5 C 0.5620(3) 0.69944(16) 0.74635(10)
H3 H 0.4634 0.7261 0.7505
C6 C 0.6612(3) 0.70370(16) 0.80234(11)
H4 H 0.6300 0.7322 0.8441
C7 C 0.4911(2) 0.65505(14) 0.62483(9)
H5 H 0.4580 0.7241 0.6169
C8 C 0.3445(2) 0.59217(15) 0.63839(10)
H6 H 0.2621 0.6355 0.6557
C9 C 0.3034(2) 0.55505(15) 0.56517(10)
H7 H 0.2646 0.6142 0.5408
C10 C 0.4596(2) 0.53274(14) 0.53133(9)
H8 H 0.4481 0.5425 0.4812
C11 C 0.6320(3) 0.68034(14) 0.51750(10)
C12 C 0.6658(3) 0.65086(14) 0.44423(10)
C13 C 0.7759(3) 0.58086(17) 0.42847(13)
H9 H 0.8264 0.5466 0.4638
C14 C 0.8115(3) 0.5615(2) 0.35932(17)
H10 H 0.8861 0.5142 0.3485
C15 C 0.7385(4) 0.6110(2) 0.30760(14)
H11 H 0.7644 0.5981 0.2616
C16 C 0.6280(3) 0.67925(19) 0.32249(11)
H12 H 0.5770 0.7121 0.2867
C17 C 0.5907(3) 0.70024(17) 0.39111(11)
H13 H 0.5154 0.7474 0.4013
C18 C 0.3719(2) 0.50783(16) 0.68949(10)
C19 C 0.2774(4) 0.4308(2) 0.79139(12)
H14 H 0.2080 0.3770 0.7786
H15 H 0.3814 0.4043 0.7931
C20 C 0.2359(5) 0.4696(3) 0.85688(15)
H16 H 0.2983 0.5269 0.8671
H17 H 0.2519 0.4195 0.8918
H18 H 0.1292 0.4886 0.8563
C21 C 0.1728(3) 0.48091(18) 0.56259(12)
C22 C 0.5272(2) 0.42915(15) 0.54272(10)
C23 C 0.7470(4) 0.3344(2) 0.56539(19)
H19 H 0.6904 0.2959 0.5988
H20 H 0.8513 0.3426 0.5810
H21 H 0.7467 0.3004 0.5215
Cl1 Cl 0.93225(9) 0.66989(5) 0.86545(4)
F1 F 0.14798(18) 0.44664(11) 0.49896(7)
F2 F 0.18464(16) 0.40296(10) 0.60419(7)
F3 F 0.04131(16) 0.52782(12) 0.58123(9)
N1 N 0.55186(19) 0.61640(11) 0.55838(7)
O1 O 0.6773(2) 0.76051(12) 0.54005(8)
O2 O 0.47186(18) 0.44716(11) 0.68434(7)
O3 O 0.26834(19) 0.51115(13) 0.74002(8)
O4 O 0.67592(18) 0.43094(10) 0.55758(8)
O5 O 0.45310(19) 0.35518(11) 0.53343(9)
loop_
_geom_bond_atom_site_label_1
_geom_bond_atom_site_label_2
_geom_bond_site_symmetry_1
_geom_bond_site_symmetry_2
C1 C2 1_555 1_555
C2 H1 1_555 1_555
C3 C2 1_555 1_555
H2 C3 1_555 1_555
C4 C3 1_555 1_555
C5 C4 1_555 1_555
H3 C5 1_555 1_555
C6 C1 1_555 1_555
H4 C6 1_555 1_555
C7 C4 1_555 1_555
H5 C7 1_555 1_555
C8 C7 1_555 1_555
H6 C8 1_555 1_555
C9 C8 1_555 1_555
H7 C9 1_555 1_555
C10 C9 1_555 1_555
H8 C10 1_555 1_555
C11 C12 1_555 1_555
C12 C13 1_555 1_555
C13 H9 1_555 1_555
C14 C13 1_555 1_555
H10 C14 1_555 1_555
C15 C14 1_555 1_555
H11 C15 1_555 1_555
C16 C15 1_555 1_555
H12 C16 1_555 1_555
C17 C12 1_555 1_555
H13 C17 1_555 1_555
C18 C8 1_555 1_555
C19 H14 1_555 1_555
H15 C19 1_555 1_555
C20 C19 1_555 1_555
H16 C20 1_555 1_555
H17 C20 1_555 1_555
H18 C20 1_555 1_555
C21 C9 1_555 1_555
C22 C10 1_555 1_555
C23 H19 1_555 1_555
H20 C23 1_555 1_555
H21 C23 1_555 1_555
Cl1 C1 1_555 1_555
F1 C21 1_555 1_555
F2 C21 1_555 1_555
F3 C21 1_555 1_555
N1 C7 1_555 1_555
O1 C11 1_555 1_555
O2 C18 1_555 1_555
O3 C18 1_555 1_555
O4 C22 1_555 1_555
O5 C22 1_555 1_555
C5 C6 1_555 1_555
C10 N1 1_555 1_555
C11 N1 1_555 1_555
C16 C17 1_555 1_555
C19 O3 1_555 1_555
C23 O4 1_555 1_555

#END
