
#######################################################################
#
#                 Cambridge Crystallographic Data Centre
#                                CCDC 
#
#######################################################################
#
# If this CIF has been generated from an entry in the Cambridge 
# Structural Database, then it will include bibliographic, chemical, 
# crystal, experimental, refinement or atomic coordinate data resulting 
# from the CCDC's data processing and validation procedures.
#
#######################################################################

data_ECEMEE
_chemical_compound_source        'Fritillaria wabuensis'
_chemical_formula_moiety         'C27 H43 N1 O4,3(H2 O1)'
_chemical_name_systematic        'Imperialine \b-N-oxide trihydrate'
_chemical_properties_biological  
'against coughs and dry throats in folk medicine'
_symmetry_cell_setting           monoclinic
_symmetry_space_group_name_H-M   'P 21'
_symmetry_Int_Tables_number      4
_space_group_name_Hall           'P 2yb'
loop_
_symmetry_equiv_pos_site_id
_symmetry_equiv_pos_as_xyz
1 x,y,z
2 -x,1/2+y,-z
_cell_length_a                   8.229(2)
_cell_length_b                   13.112(4)
_cell_length_c                   12.786(3)
_cell_angle_alpha                90
_cell_angle_beta                 102.87(2)
_cell_angle_gamma                90
_cell_volume                     1344.93
_exptl_crystal_colour            colorless
_exptl_crystal_description       needles
_chemical_melting_point          268-270deg.C
_cell_formula_units_Z            2
_exptl_crystal_recrystallization_method chloroform
loop_
_atom_site_label
_atom_site_type_symbol
_atom_site_fract_x
_atom_site_fract_y
_atom_site_fract_z
O1 O 0.2688(3) 0.4040(2) 0.1176(2)
O2 O -0.0270(4) 0.3400(2) 0.0330(2)
O3 O -0.2470(4) -0.1838(2) 0.3949(3)
O4 O -0.4340(4) 0.0011(3) 0.7095(2)
C1 C 0.4879(7) 0.5000 -0.0069(4)
C2 C 0.5216(5) 0.3851(4) -0.0149(3)
C3 C 0.4116(6) 0.3357(4) -0.1128(3)
C4 C 0.2337(5) 0.3210(3) -0.0989(3)
C5 C 0.2229(5) 0.2587(3) -0.0011(3)
N1 N 0.3343(4) 0.3088(3) 0.0991(2)
C6 C 0.5093(6) 0.3235(3) 0.0834(3)
C7 C 0.3399(5) 0.2408(3) 0.1947(3)
C8 C 0.1687(5) 0.2251(3) 0.2155(3)
C9 C 0.0523(5) 0.1762(3) 0.1186(3)
C10 C 0.0445(5) 0.2424(3) 0.0176(3)
C11 C -0.0680(6) 0.1945(4) -0.0807(4)
C12 C 0.0933(5) 0.0624(3) 0.1030(3)
C13 C 0.2008(5) 0.0100(3) 0.2011(3)
C14 C 0.1705(5) 0.0458(3) 0.3081(3)
C15 C 0.1697(5) 0.1644(3) 0.3195(3)
C16 C 0.0179(5) 0.1891(3) 0.3664(3)
C17 C -0.0193(5) 0.0893(3) 0.4175(3)
C18 C 0.0075(5) 0.0114(3) 0.3346(3)
C19 C 0.0002(5) -0.0978(3) 0.3752(3)
C20 C -0.1511(5) -0.1133(3) 0.4217(3)
C21 C -0.1736(5) -0.0352(3) 0.5042(3)
C22 C -0.1816(5) 0.0746(3) 0.4556(3)
C23 C -0.3350(5) 0.0873(4) 0.3624(3)
C24 C -0.1898(6) 0.1514(3) 0.5452(3)
C25 C -0.3242(6) 0.1284(3) 0.6068(3)
C26 C -0.3083(5) 0.0214(4) 0.6515(3)
C27 C -0.3124(5) -0.0573(3) 0.5615(3)
H1 H 0.0717(49) 0.3809(37) 0.0654(37)
H2 H 0.5160(44) 0.5320(29) -0.0660(27)
H3 H 0.3716(48) 0.5070(50) 0.0004(46)
H4 H 0.5490(54) 0.5270(36) 0.0631(29)
H5 H 0.6308(46) 0.3799(31) -0.0203(29)
H6 H 0.4595(55) 0.2682(37) -0.1234(36)
H7 H 0.4133(46) 0.3713(30) -0.1757(29)
H8 H 0.1815(43) 0.3893(29) -0.0984(27)
H9 H 0.1645(50) 0.2879(33) -0.1547(30)
H10 H 0.2819(39) 0.1957(26) -0.0060(24)
H11 H 0.5657(43) 0.3572(29) 0.1467(27)
H12 H 0.5617(49) 0.2509(30) 0.0727(33)
H13 H 0.4014(37) 0.2764(24) 0.2525(22)
H14 H 0.3879(38) 0.1776(26) 0.1821(24)
H15 H 0.1340(36) 0.2901(23) 0.2225(22)
H16 H -0.0654(41) 0.1763(28) 0.1367(25)
H17 H -0.1702(47) 0.1823(32) -0.0615(29)
H18 H -0.0913(52) 0.2435(29) -0.1369(29)
H19 H -0.0065(55) 0.1339(35) -0.1078(34)
H20 H -0.0187(42) 0.0307(27) 0.0805(26)
H21 H 0.1480(47) 0.0575(29) 0.0406(29)
H22 H 0.1814(50) -0.0602(35) 0.1984(32)
H23 H 0.3236(46) 0.0159(31) 0.2025(27)
H24 H 0.2547(45) 0.0114(31) 0.3630(28)
H25 H 0.2706(34) 0.1832(26) 0.3676(22)
H26 H -0.0862(40) 0.2112(26) 0.3053(25)
H27 H 0.0335(50) 0.2506(31) 0.4125(32)
H28 H 0.0761(42) 0.0778(28) 0.4824(28)
H29 H -0.0826(38) 0.0264(25) 0.2645(24)
H30 H 0.1039(39) -0.1083(26) 0.4415(26)
H31 H 0.0102(44) -0.1507(25) 0.3272(25)
H32 H -0.0581(39) -0.0368(27) 0.5689(26)
H33 H -0.4329(50) 0.0857(35) 0.3895(33)
H34 H -0.3299(49) 0.0335(32) 0.3042(30)
H35 H -0.3320(66) 0.1666(44) 0.3256(41)
H36 H -0.0671(53) 0.1513(33) 0.5972(34)
H37 H -0.1997(44) 0.2199(29) 0.5167(27)
H38 H -0.4218(48) 0.1370(30) 0.5571(30)
H39 H -0.3127(48) 0.1817(32) 0.6663(31)
H40 H -0.1883(41) 0.0197(28) 0.6983(25)
H41 H -0.4272(42) -0.0521(30) 0.5063(27)
H42 H -0.2929(45) -0.1284(29) 0.5942(28)
O5 O 0.8783(5) 0.4424(4) 0.2257(4)
O6 O 0.7159(5) 0.6206(3) 0.2733(4)
O7 O 0.7065(6) 0.3700(4) 0.3796(4)
loop_
_geom_bond_atom_site_label_1
_geom_bond_atom_site_label_2
_geom_bond_site_symmetry_1
_geom_bond_site_symmetry_2
O1 N1 1_555 1_555
O2 C10 1_555 1_555
O3 C20 1_555 1_555
O4 C26 1_555 1_555
C1 C2 1_555 1_555
C2 C3 1_555 1_555
C3 C4 1_555 1_555
C4 C5 1_555 1_555
C5 N1 1_555 1_555
N1 C6 1_555 1_555
C6 C2 1_555 1_555
C7 N1 1_555 1_555
C8 C7 1_555 1_555
C9 C8 1_555 1_555
C10 C5 1_555 1_555
C11 C10 1_555 1_555
C12 C9 1_555 1_555
C13 C12 1_555 1_555
C14 C13 1_555 1_555
C15 C8 1_555 1_555
C16 C15 1_555 1_555
C17 C16 1_555 1_555
C18 C14 1_555 1_555
C19 C18 1_555 1_555
C20 C19 1_555 1_555
C21 C20 1_555 1_555
C22 C17 1_555 1_555
C23 C22 1_555 1_555
C24 C22 1_555 1_555
C25 C24 1_555 1_555
C26 C25 1_555 1_555
C27 C21 1_555 1_555
H1 O2 1_555 1_555
H2 C1 1_555 1_555
H3 C1 1_555 1_555
H4 C1 1_555 1_555
H5 C2 1_555 1_555
H6 C3 1_555 1_555
H7 C3 1_555 1_555
H8 C4 1_555 1_555
H9 C4 1_555 1_555
H10 C5 1_555 1_555
H11 C6 1_555 1_555
H12 C6 1_555 1_555
H13 C7 1_555 1_555
H14 C7 1_555 1_555
H15 C8 1_555 1_555
H16 C9 1_555 1_555
H17 C11 1_555 1_555
H18 C11 1_555 1_555
H19 C11 1_555 1_555
H20 C12 1_555 1_555
H21 C12 1_555 1_555
H22 C13 1_555 1_555
H23 C13 1_555 1_555
H24 C14 1_555 1_555
H25 C15 1_555 1_555
H26 C16 1_555 1_555
H27 C16 1_555 1_555
H28 C17 1_555 1_555
H29 C18 1_555 1_555
H30 C19 1_555 1_555
H31 C19 1_555 1_555
H32 C21 1_555 1_555
H33 C23 1_555 1_555
H34 C23 1_555 1_555
H35 C23 1_555 1_555
H36 C24 1_555 1_555
H37 C24 1_555 1_555
H38 C25 1_555 1_555
H39 C25 1_555 1_555
H40 C26 1_555 1_555
H41 C27 1_555 1_555
H42 C27 1_555 1_555
C9 C10 1_555 1_555
C14 C15 1_555 1_555
C17 C18 1_555 1_555
C21 C22 1_555 1_555
C26 C27 1_555 1_555

#END
