
#######################################################################
#
#                 Cambridge Crystallographic Data Centre
#                                CCDC 
#
#######################################################################
#
# If this CIF has been generated from an entry in the Cambridge 
# Structural Database, then it will include bibliographic, chemical, 
# crystal, experimental, refinement or atomic coordinate data resulting 
# from the CCDC's data processing and validation procedures.
#
#######################################################################

data_ECEMIK
_chemical_formula_moiety         'C16 H25 B2 N1 O6'
_chemical_name_systematic        
8-(2-methyl-4-(4,4,5,5-tetramethyl-1,3,2-dioxaborolan-2-yl)buta-1,3-dien-1-yl)-4-methyl-2,6-dioxotetrahydro[1,3,2]oxazaborolo[2,3-b][1,3,2]oxazaborol-4-ium-8-ide
_symmetry_cell_setting           monoclinic
_symmetry_space_group_name_H-M   'P 21/c'
_symmetry_Int_Tables_number      14
_space_group_name_Hall           '-P 2ybc'
loop_
_symmetry_equiv_pos_site_id
_symmetry_equiv_pos_as_xyz
1 x,y,z
2 -x,1/2+y,1/2-z
3 -x,-y,-z
4 x,1/2-y,1/2+z
_cell_length_a                   13.6774(5)
_cell_length_b                   10.5104(4)
_cell_length_c                   13.8877(4)
_cell_angle_alpha                90
_cell_angle_beta                 110.777(2)
_cell_angle_gamma                90
_cell_volume                     1866.59
_exptl_crystal_colour            colorless
_exptl_crystal_description       plate
_cell_formula_units_Z            4
_exptl_crystal_recrystallization_method acetonitrile/tetrahydrofuran
loop_
_atom_site_label
_atom_site_type_symbol
_atom_site_fract_x
_atom_site_fract_y
_atom_site_fract_z
B1 B 0.10856(19) 0.2819(3) 0.13761(18)
B2 B 0.34589(19) 0.5436(3) 0.5828(2)
O1 O 0.14260(12) 0.14914(16) 0.13396(11)
O2 O 0.08349(15) -0.05064(15) 0.11519(12)
O3 O -0.01116(16) 0.39135(17) -0.11619(11)
O4 O 0.10129(13) 0.34719(16) 0.04066(11)
O5 O 0.31740(12) 0.66770(17) 0.55700(12)
O6 O 0.41466(13) 0.53004(17) 0.68248(12)
N1 N -0.01885(12) 0.25887(15) 0.11838(11)
C1 C 0.07108(18) 0.0618(2) 0.12375(14)
C2 C -0.02780(17) 0.1192(2) 0.12917(16)
H1 H -0.0896 0.0857 0.0729
H2 H -0.0351 0.0986 0.1959
C3 C -0.07285(17) 0.3029(2) 0.01013(15)
H3 H -0.1121 0.2317 -0.0330
H4 H -0.1229 0.3718 0.0083
C4 C 0.00799(19) 0.3505(2) -0.02979(15)
C5 C -0.05914(19) 0.3287(2) 0.19022(18)
H5 H -0.1326 0.3062 0.1752
H6 H -0.0534 0.4205 0.1812
H7 H -0.0179 0.3051 0.2614
C6 C 0.17012(16) 0.3665(2) 0.23335(16)
H8 H 0.1695 0.4548 0.2185
C7 C 0.22362(15) 0.3368(2) 0.33254(15)
C8 C 0.26590(16) 0.4400(2) 0.40684(16)
H9 H 0.2639 0.5229 0.3790
C9 C 0.30702(16) 0.4300(2) 0.50952(17)
H10 H 0.3125 0.3475 0.5389
C10 C 0.24014(19) 0.2021(2) 0.37297(17)
H11 H 0.2195 0.1424 0.3150
H12 H 0.1975 0.1870 0.4156
H13 H 0.3141 0.1894 0.4146
C11 C 0.38792(18) 0.7466(3) 0.64099(19)
C12 C 0.41958(19) 0.6529(3) 0.73277(19)
C13 C 0.3301(2) 0.8623(3) 0.6557(2)
H14 H 0.3144 0.9179 0.5955
H15 H 0.3736 0.9084 0.7174
H16 H 0.2648 0.8361 0.6639
C14 C 0.4774(2) 0.7844(3) 0.6073(2)
H17 H 0.4504 0.8339 0.5435
H18 H 0.5123 0.7078 0.5953
H19 H 0.5275 0.8361 0.6611
C15 C 0.3411(3) 0.6451(3) 0.7881(2)
H20 H 0.2711 0.6292 0.7376
H21 H 0.3411 0.7256 0.8237
H22 H 0.3608 0.5756 0.8383
C16 C 0.5291(2) 0.6738(3) 0.8113(2)
H23 H 0.5433 0.6107 0.8665
H24 H 0.5340 0.7595 0.8404
H25 H 0.5806 0.6647 0.7774
loop_
_geom_bond_atom_site_label_1
_geom_bond_atom_site_label_2
_geom_bond_site_symmetry_1
_geom_bond_site_symmetry_2
B1 O1 1_555 1_555
B2 O5 1_555 1_555
O1 C1 1_555 1_555
O2 C1 1_555 1_555
O3 C4 1_555 1_555
O4 B1 1_555 1_555
O5 C11 1_555 1_555
O6 B2 1_555 1_555
N1 B1 1_555 1_555
C1 C2 1_555 1_555
C2 N1 1_555 1_555
H1 C2 1_555 1_555
H2 C2 1_555 1_555
C3 N1 1_555 1_555
H3 C3 1_555 1_555
H4 C3 1_555 1_555
C4 O4 1_555 1_555
C5 N1 1_555 1_555
H5 C5 1_555 1_555
H6 C5 1_555 1_555
H7 C5 1_555 1_555
C6 B1 1_555 1_555
H8 C6 1_555 1_555
C7 C6 1_555 1_555
C8 C7 1_555 1_555
H9 C8 1_555 1_555
C9 B2 1_555 1_555
H10 C9 1_555 1_555
C10 C7 1_555 1_555
H11 C10 1_555 1_555
H12 C10 1_555 1_555
H13 C10 1_555 1_555
C11 C12 1_555 1_555
C12 O6 1_555 1_555
C13 C11 1_555 1_555
H14 C13 1_555 1_555
H15 C13 1_555 1_555
H16 C13 1_555 1_555
C14 C11 1_555 1_555
H17 C14 1_555 1_555
H18 C14 1_555 1_555
H19 C14 1_555 1_555
C15 C12 1_555 1_555
H20 C15 1_555 1_555
H21 C15 1_555 1_555
H22 C15 1_555 1_555
C16 C12 1_555 1_555
H23 C16 1_555 1_555
H24 C16 1_555 1_555
H25 C16 1_555 1_555
C3 C4 1_555 1_555
C8 C9 1_555 1_555

#END
