
#######################################################################
#
#                 Cambridge Crystallographic Data Centre
#                                CCDC 
#
#######################################################################
#
# If this CIF has been generated from an entry in the Cambridge 
# Structural Database, then it will include bibliographic, chemical, 
# crystal, experimental, refinement or atomic coordinate data resulting 
# from the CCDC's data processing and validation procedures.
#
#######################################################################

data_ECIJEI
_chemical_formula_moiety         'C40 H28 N2'
_chemical_name_systematic        
2,2'-[anthracene-9,10-diylbis(1-phenylethene-2,1-diyl)]dipyridine
_symmetry_cell_setting           monoclinic
_symmetry_space_group_name_H-M   'P 21/c'
_symmetry_Int_Tables_number      14
_space_group_name_Hall           '-P 2ybc'
loop_
_symmetry_equiv_pos_site_id
_symmetry_equiv_pos_as_xyz
1 x,y,z
2 -x,1/2+y,1/2-z
3 -x,-y,-z
4 x,1/2-y,1/2+z
_cell_length_a                   14.768(3)
_cell_length_b                   7.4142(15)
_cell_length_c                   13.346(3)
_cell_angle_alpha                90
_cell_angle_beta                 91.12(3)
_cell_angle_gamma                90
_cell_volume                     1461.01
_cell_formula_units_Z            2
loop_
_atom_site_label
_atom_site_type_symbol
_atom_site_fract_x
_atom_site_fract_y
_atom_site_fract_z
C1 C 0.8262(6) -0.4095(11) 0.9775(6)
H1 H 0.8554 -0.5025 0.9445
C2 C 0.8026(5) -0.4277(10) 1.0664(6)
H2 H 0.8135 -0.5404 1.0947
C3 C 0.7654(5) -0.3121(9) 1.1236(5)
H3 H 0.7528 -0.3383 1.1900
C4 C 0.7421(4) -0.1233(8) 1.0760(4)
H4 H 0.7144 -0.0310 1.1112
C5 C 0.7663(3) -0.1075(6) 0.9780(3)
C6 C 0.7480(3) 0.0582(5) 0.9192(3)
C7 C 0.8272(3) 0.1424(5) 0.8706(3)
C8 C 0.8164(3) 0.2401(6) 0.7851(3)
H5 H 0.7594 0.2523 0.7548
C9 C 0.8899(4) 0.3197(8) 0.7444(4)
H6 H 0.8826 0.3832 0.6847
C10 C 0.9740(3) 0.3097(7) 0.7881(5)
H7 H 1.0231 0.3686 0.7602
C11 C 0.9842(3) 0.2097(7) 0.8749(4)
H8 H 1.0410 0.1992 0.9057
C12 C 0.9116(3) 0.1269(6) 0.9153(3)
H9 H 0.9189 0.0592 0.9736
C13 C 0.6652(3) 0.1269(6) 0.9093(4)
H10 H 0.6593 0.2288 0.8690
C14 C 0.5814(3) 0.0594(6) 0.9552(3)
C15 C 0.5392(3) 0.1657(6) 1.0278(3)
C16 C 0.4576(3) 0.1056(6) 1.0746(3)
C17 C 0.4206(3) 0.2186(7) 1.1498(4)
H11 H 0.3673 0.1833 1.1802
C18 C 0.4597(4) 0.3741(8) 1.1785(4)
H12 H 0.4341 0.4434 1.2286
C19 C 0.5393(4) 0.4318(8) 1.1325(5)
H13 H 0.5658 0.5404 1.1519
C20 C 0.5776(3) 0.3325(7) 1.0610(4)
H14 H 0.6307 0.3733 1.0322
N1 N 0.8079(4) -0.2480(7) 0.9295(4)
C1B C 0.1738(6) 0.4095(11) 1.0225(6)
H1B H 0.1446 0.5025 1.0555
C2B C 0.1974(5) 0.4277(10) 0.9336(6)
H2B H 0.1865 0.5404 0.9053
C3B C 0.2346(5) 0.3121(9) 0.8764(5)
H3B H 0.2472 0.3383 0.8100
C4B C 0.2579(4) 0.1233(8) 0.9240(4)
H4B H 0.2856 0.0310 0.8888
C5B C 0.2337(3) 0.1075(6) 1.0220(3)
C6B C 0.2520(3) -0.0582(5) 1.0808(3)
C7B C 0.1728(3) -0.1424(5) 1.1294(3)
C8B C 0.1836(3) -0.2401(6) 1.2149(3)
H5B H 0.2406 -0.2523 1.2452
C9B C 0.1101(4) -0.3197(8) 1.2556(4)
H6B H 0.1174 -0.3832 1.3153
C10B C 0.0260(3) -0.3097(7) 1.2119(5)
H7B H -0.0231 -0.3686 1.2398
C11B C 0.0158(3) -0.2097(7) 1.1251(4)
H8B H -0.0410 -0.1992 1.0943
C12B C 0.0884(3) -0.1269(6) 1.0847(3)
H9B H 0.0811 -0.0592 1.0264
C13B C 0.3348(3) -0.1269(6) 1.0907(4)
H10B H 0.3407 -0.2288 1.1310
C14B C 0.4186(3) -0.0594(6) 1.0448(3)
C15B C 0.4608(3) -0.1657(6) 0.9722(3)
C16B C 0.5424(3) -0.1056(6) 0.9254(3)
C17B C 0.5794(3) -0.2186(7) 0.8502(4)
H11B H 0.6327 -0.1833 0.8198
C18B C 0.5403(4) -0.3741(8) 0.8215(4)
H12B H 0.5659 -0.4434 0.7714
C19B C 0.4607(4) -0.4318(8) 0.8675(5)
H13B H 0.4342 -0.5404 0.8481
C20B C 0.4224(3) -0.3325(7) 0.9390(4)
H14B H 0.3693 -0.3733 0.9678
N1B N 0.1921(4) 0.2480(7) 1.0705(4)
loop_
_geom_bond_atom_site_label_1
_geom_bond_atom_site_label_2
_geom_bond_site_symmetry_1
_geom_bond_site_symmetry_2
C1 H1 1_555 1_555
C2 C1 1_555 1_555
H2 C2 1_555 1_555
C3 C2 1_555 1_555
H3 C3 1_555 1_555
C4 C3 1_555 1_555
H4 C4 1_555 1_555
C5 C4 1_555 1_555
C6 C5 1_555 1_555
C7 C6 1_555 1_555
C8 C7 1_555 1_555
H5 C8 1_555 1_555
C9 C8 1_555 1_555
H6 C9 1_555 1_555
C10 C9 1_555 1_555
H7 C10 1_555 1_555
C11 C10 1_555 1_555
H8 C11 1_555 1_555
C12 C7 1_555 1_555
H9 C12 1_555 1_555
C13 C6 1_555 1_555
H10 C13 1_555 1_555
C14 C13 1_555 1_555
C15 C14 1_555 1_555
C16 C15 1_555 1_555
C17 C16 1_555 1_555
H11 C17 1_555 1_555
C18 C17 1_555 1_555
H12 C18 1_555 1_555
C19 C18 1_555 1_555
H13 C19 1_555 1_555
C20 C15 1_555 1_555
H14 C20 1_555 1_555
N1 C1 1_555 1_555
C1B H1B 1_555 1_555
C2B C1B 1_555 1_555
H2B C2B 1_555 1_555
C3B C2B 1_555 1_555
H3B C3B 1_555 1_555
C4B C3B 1_555 1_555
H4B C4B 1_555 1_555
C5B C4B 1_555 1_555
C6B C5B 1_555 1_555
C7B C6B 1_555 1_555
C8B C7B 1_555 1_555
H5B C8B 1_555 1_555
C9B C8B 1_555 1_555
H6B C9B 1_555 1_555
C10B C9B 1_555 1_555
H7B C10B 1_555 1_555
C11B C10B 1_555 1_555
H8B C11B 1_555 1_555
C12B C7B 1_555 1_555
H9B C12B 1_555 1_555
C13B C6B 1_555 1_555
H10B C13B 1_555 1_555
C14B C16 1_555 1_555
C15B C14B 1_555 1_555
C16B C14 1_555 1_555
C17B C16B 1_555 1_555
H11B C17B 1_555 1_555
C18B C17B 1_555 1_555
H12B C18B 1_555 1_555
C19B C18B 1_555 1_555
H13B C19B 1_555 1_555
C20B C15B 1_555 1_555
H14B C20B 1_555 1_555
N1B C1B 1_555 1_555
C5 N1 1_555 1_555
C11 C12 1_555 1_555
C19 C20 1_555 1_555
C5B N1B 1_555 1_555
C11B C12B 1_555 1_555
C13B C14B 1_555 1_555
C15B C16B 1_555 1_555
C19B C20B 1_555 1_555

#END
