
#######################################################################
#
#                 Cambridge Crystallographic Data Centre
#                                CCDC 
#
#######################################################################
#
# If this CIF has been generated from an entry in the Cambridge 
# Structural Database, then it will include bibliographic, chemical, 
# crystal, experimental, refinement or atomic coordinate data resulting 
# from the CCDC's data processing and validation procedures.
#
#######################################################################

data_ECILIN
_chemical_formula_moiety         'C20 H21 N3 O2 S1'
_chemical_name_systematic        
5-(2-(Allyloxy)phenyl)-3-(2-hydroxy-5-methylphenyl)-4,5-dihydro-1H-pyrazole-1-carbothioamide
_symmetry_cell_setting           monoclinic
_symmetry_space_group_name_H-M   'C 2/c'
_symmetry_Int_Tables_number      15
_space_group_name_Hall           '-C 2yn'
loop_
_symmetry_equiv_pos_site_id
_symmetry_equiv_pos_as_xyz
1 x,y,z
2 -x,y,1/2-z
3 1/2+x,1/2+y,z
4 1/2-x,1/2+y,1/2-z
5 -x,-y,-z
6 x,-y,1/2+z
7 1/2-x,1/2-y,-z
8 1/2+x,1/2-y,1/2+z
_cell_length_a                   26.280(10)
_cell_length_b                   10.188(4)
_cell_length_c                   16.786(6)
_cell_angle_alpha                90
_cell_angle_beta                 124.377(7)
_cell_angle_gamma                90
_cell_volume                     3709.32
_chemical_melting_point          '222-223 deg.C'
_cell_formula_units_Z            8
_exptl_crystal_recrystallization_method ethanol
loop_
_atom_site_label
_atom_site_type_symbol
_atom_site_fract_x
_atom_site_fract_y
_atom_site_fract_z
S1 S 0.17743(5) 0.67484(12) 0.14496(8)
C1 C 0.17545(15) 0.1670(4) -0.0620(2)
C2 C 0.16678(14) 0.2982(4) -0.0366(2)
C3 C 0.19958(17) 0.0640(4) 0.0046(3)
C4 C 0.15735(15) 0.1390(4) -0.1561(3)
H1 H 0.1420 0.2072 -0.2007
C5 C 0.18718(17) 0.5140(4) 0.1380(3)
C6 C 0.16111(17) 0.0156(4) -0.1863(3)
C7 C 0.20399(19) -0.0594(4) -0.0241(3)
H2 H 0.2204 -0.1275 0.0206
C8 C 0.13755(17) 0.4114(4) -0.1051(3)
H3 H 0.0972 0.3878 -0.1611
H4 H 0.1632 0.4409 -0.1263
C9 C 0.13243(17) 0.5178(4) -0.0449(3)
H5 H 0.1550 0.5961 -0.0423
C10 C 0.18445(19) -0.0838(4) -0.1179(3)
H6 H 0.1869 -0.1687 -0.1358
C11 C 0.06701(18) 0.5563(4) -0.0818(3)
C12 C 0.0241(2) 0.4660(5) -0.0928(3)
C13 C 0.13904(19) -0.0104(4) -0.2892(3)
H7 H 0.0972 -0.0412 -0.3246
H8 H 0.1648 -0.0759 -0.2908
H9 H 0.1410 0.0691 -0.3180
C14 C -0.0368(2) 0.5017(5) -0.1305(3)
H10 H -0.0647 0.4405 -0.1355
C15 C 0.0476(2) 0.6838(5) -0.1118(3)
H11 H 0.0754 0.7459 -0.1063
C16 C 0.0030(2) 0.2384(5) -0.0882(4)
H12 H -0.0282 0.2355 -0.1563
H13 H -0.0160 0.2480 -0.0537
C17 C -0.0134(3) 0.7200(6) -0.1507(4)
H14 H -0.0262 0.8062 -0.1701
C18 C -0.0544(2) 0.6276(7) -0.1598(4)
H15 H -0.0951 0.6516 -0.1867
N1 N 0.21491(14) 0.4357(3) 0.2152(2)
H16 H 0.2189 0.3533 0.2087
H17 H 0.2288 0.4676 0.2714
N2 N 0.18267(12) 0.3250(3) 0.0502(2)
N3 N 0.16673(13) 0.4546(3) 0.0524(2)
O1 O 0.22027(15) 0.0810(3) 0.09865(19)
H18 H 0.2164 0.1582 0.1080
O2 O 0.04594(13) 0.3425(3) -0.0641(2)
C19 C 0.0431(8) 0.1143(13) -0.0624(15)
H19 H 0.0732 0.0837 0.0018
C20 C 0.0267(7) 0.0604(17) -0.1451(12)
H20 H -0.0038 0.0948 -0.2078
H21 H 0.0485 -0.0186 -0.1392
C21? C 0.0332(9) 0.1107(14) -0.0406(15)
C22? C 0.0519(7) 0.0058(15) -0.0597(13)
H22? H 0.0483 0.1103 0.0266
H23? H 0.0373 0.0034 -0.1265
H24? H 0.0751 -0.0666 -0.0181
loop_
_geom_bond_atom_site_label_1
_geom_bond_atom_site_label_2
_geom_bond_site_symmetry_1
_geom_bond_site_symmetry_2
S1 C5 1_555 1_555
C1 C2 1_555 1_555
C2 C8 1_555 1_555
C3 C1 1_555 1_555
C4 C1 1_555 1_555
H1 C4 1_555 1_555
C5 N1 1_555 1_555
C6 C4 1_555 1_555
C7 C3 1_555 1_555
H2 C7 1_555 1_555
C8 H3 1_555 1_555
H4 C8 1_555 1_555
C9 C8 1_555 1_555
H5 C9 1_555 1_555
C10 C6 1_555 1_555
H6 C10 1_555 1_555
C11 C9 1_555 1_555
C12 C11 1_555 1_555
C13 C6 1_555 1_555
H7 C13 1_555 1_555
H8 C13 1_555 1_555
H9 C13 1_555 1_555
C14 C12 1_555 1_555
H10 C14 1_555 1_555
C15 C11 1_555 1_555
H11 C15 1_555 1_555
C16 H12 1_555 1_555
H13 C16 1_555 1_555
C17 C15 1_555 1_555
H14 C17 1_555 1_555
C18 C14 1_555 1_555
H15 C18 1_555 1_555
N1 H16 1_555 1_555
H17 N1 1_555 1_555
N2 C2 1_555 1_555
N3 C5 1_555 1_555
O1 C3 1_555 1_555
H18 O1 1_555 1_555
O2 C12 1_555 1_555
C19 C16 1_555 1_555
H19 C19 1_555 1_555
C20 C19 1_555 1_555
H20 C20 1_555 1_555
H21 C20 1_555 1_555
C7 C10 1_555 1_555
C9 N3 1_555 1_555
C16 O2 1_555 1_555
C17 C18 1_555 1_555
N2 N3 1_555 1_555

#END
