
#######################################################################
#
#                 Cambridge Crystallographic Data Centre
#                                CCDC 
#
#######################################################################
#
# If this CIF has been generated from an entry in the Cambridge 
# Structural Database, then it will include bibliographic, chemical, 
# crystal, experimental, refinement or atomic coordinate data resulting 
# from the CCDC's data processing and validation procedures.
#
#######################################################################

data_ECILUZ
_chemical_formula_moiety         'C11 H16 O2'
_chemical_name_systematic        
syn-7-Allyl-5-(hydroxymethyl)bicyclo[2.2.1]hept-2-en-7-ol
_symmetry_cell_setting           monoclinic
_symmetry_space_group_name_H-M   'P 21/n'
_symmetry_Int_Tables_number      14
_space_group_name_Hall           '-P 2yn'
loop_
_symmetry_equiv_pos_site_id
_symmetry_equiv_pos_as_xyz
1 x,y,z
2 1/2-x,1/2+y,1/2-z
3 -x,-y,-z
4 1/2+x,1/2-y,1/2+z
_cell_length_a                   11.3188(14)
_cell_length_b                   7.8255(10)
_cell_length_c                   11.8409(15)
_cell_angle_alpha                90
_cell_angle_beta                 107.7750(18)
_cell_angle_gamma                90
_cell_volume                     998.743
_exptl_crystal_colour            colorless
_exptl_crystal_description       tablet
_chemical_melting_point          '96-97 deg.C'
_cell_formula_units_Z            4
loop_
_atom_site_label
_atom_site_type_symbol
_atom_site_fract_x
_atom_site_fract_y
_atom_site_fract_z
O1 O 0.37404(5) 0.04096(7) 0.79369(5)
H1 H 0.3576 -0.0546 0.8175
C1 C 0.49572(7) 0.03635(10) 0.78060(7)
C2 C 0.51887(8) 0.20243(11) 0.71900(7)
H2 H 0.4682 0.2167 0.6341
C3 C 0.65772(9) 0.19017(14) 0.74291(9)
H3 H 0.7026 0.2277 0.6915
C4 C 0.70616(8) 0.11714(12) 0.84910(8)
H4 H 0.7915 0.0938 0.8869
C5 C 0.60027(7) 0.07841(10) 0.89816(7)
H5 H 0.6169 -0.0114 0.9612
C6 C 0.55306(8) 0.25416(10) 0.93041(7)
H6 H 0.4835 0.2333 0.9643
C7 C 0.50013(9) 0.34099(11) 0.80680(8)
H7 H 0.5464 0.4467 0.8020
H8 H 0.4112 0.3692 0.7902
C8 C 0.51324(8) -0.13361(11) 0.72280(8)
H9 H 0.5981 -0.1374 0.7156
H10 H 0.5055 -0.2289 0.7751
C9 C 0.42127(9) -0.15931(12) 0.60253(8)
H11 H 0.4232 -0.0807 0.5420
C10 C 0.33824(12) -0.28210(16) 0.57436(10)
H12 H 0.3334 -0.3632 0.6324
H13 H 0.2831 -0.2897 0.4959
C11 C 0.65197(8) 0.36001(11) 1.01765(8)
H14 H 0.7229 0.3785 0.9866
H15 H 0.6177 0.4729 1.0288
O2 O 0.69274(7) 0.27124(9) 1.12852(6)
H16 H 0.7446 0.3316 1.1785
loop_
_geom_bond_atom_site_label_1
_geom_bond_atom_site_label_2
_geom_bond_site_symmetry_1
_geom_bond_site_symmetry_2
O1 H1 1_555 1_555
C1 O1 1_555 1_555
C2 C1 1_555 1_555
H2 C2 1_555 1_555
C3 C2 1_555 1_555
H3 C3 1_555 1_555
C4 C3 1_555 1_555
H4 C4 1_555 1_555
C5 C1 1_555 1_555
H5 C5 1_555 1_555
C6 C5 1_555 1_555
H6 C6 1_555 1_555
C7 C2 1_555 1_555
H7 C7 1_555 1_555
H8 C7 1_555 1_555
C8 C1 1_555 1_555
H9 C8 1_555 1_555
H10 C8 1_555 1_555
C9 C8 1_555 1_555
H11 C9 1_555 1_555
C10 C9 1_555 1_555
H12 C10 1_555 1_555
H13 C10 1_555 1_555
C11 C6 1_555 1_555
H14 C11 1_555 1_555
H15 C11 1_555 1_555
O2 C11 1_555 1_555
H16 O2 1_555 1_555
C4 C5 1_555 1_555
C6 C7 1_555 1_555

#END
