
#######################################################################
#
#                 Cambridge Crystallographic Data Centre
#                                CCDC 
#
#######################################################################
#
# If this CIF has been generated from an entry in the Cambridge 
# Structural Database, then it will include bibliographic, chemical, 
# crystal, experimental, refinement or atomic coordinate data resulting 
# from the CCDC's data processing and validation procedures.
#
#######################################################################

data_ECIRAM
_chemical_formula_moiety         'C2 H8 N6 O2'
_chemical_name_systematic        N''-(hydrazinocarbonyl)carbonohydrazide
_symmetry_cell_setting           orthorhombic
_symmetry_space_group_name_H-M   'P n a 21'
_symmetry_Int_Tables_number      33
_space_group_name_Hall           'P 2c -2n'
loop_
_symmetry_equiv_pos_site_id
_symmetry_equiv_pos_as_xyz
1 x,y,z
2 -x,-y,1/2+z
3 1/2+x,1/2-y,z
4 1/2-x,1/2+y,1/2+z
_cell_length_a                   9.280(3)
_cell_length_b                   4.5988(16)
_cell_length_c                   14.376(5)
_cell_angle_alpha                90
_cell_angle_beta                 90
_cell_angle_gamma                90
_cell_volume                     613.523
_exptl_crystal_colour            colorless
_exptl_crystal_description       Prism
_cell_formula_units_Z            4
loop_
_atom_site_label
_atom_site_type_symbol
_atom_site_fract_x
_atom_site_fract_y
_atom_site_fract_z
O1 O 0.08554(10) 0.5203(2) 0.56585(7)
O2 O 0.62632(10) 0.5314(2) 0.74646(7)
N1 N 0.24030(15) 0.8960(3) 0.45393(9)
N2 N 0.29906(13) 0.7327(2) 0.52806(9)
N3 N 0.28178(12) 0.4144(2) 0.65210(8)
N4 N 0.43056(12) 0.4156(2) 0.66129(8)
N5 N 0.41399(12) 0.7576(2) 0.77839(9)
N6 N 0.47267(14) 0.9460(3) 0.84578(9)
C1 C 0.21665(13) 0.5567(3) 0.57989(9)
C2 C 0.49562(13) 0.5684(2) 0.73120(9)
H1 H 0.3247(18) 0.771(4) 0.7650(13)
H2 H 0.3871(19) 0.759(4) 0.5380(16)
H3 H 0.232(2) 0.280(4) 0.6825(13)
H4 H 0.1764(19) 1.022(4) 0.4778(15)
H5 H 0.194(2) 0.771(5) 0.4163(15)
H6 H 0.481(2) 0.272(4) 0.6391(14)
H7 H 0.506(2) 0.836(5) 0.8919(19)
H8 H 0.552(2) 1.025(5) 0.8246(17)
loop_
_geom_bond_atom_site_label_1
_geom_bond_atom_site_label_2
_geom_bond_site_symmetry_1
_geom_bond_site_symmetry_2
O1 C1 1_555 1_555
O2 C2 1_555 1_555
N1 N2 1_555 1_555
N2 C1 1_555 1_555
N3 N4 1_555 1_555
N4 C2 1_555 1_555
N5 N6 1_555 1_555
N6 H7 1_555 1_555
C1 N3 1_555 1_555
C2 N5 1_555 1_555
H1 N5 1_555 1_555
H2 N2 1_555 1_555
H3 N3 1_555 1_555
H4 N1 1_555 1_555
H5 N1 1_555 1_555
H6 N4 1_555 1_555
H8 N6 1_555 1_555

#END
