
#######################################################################
#
#                 Cambridge Crystallographic Data Centre
#                                CCDC 
#
#######################################################################
#
# If this CIF has been generated from an entry in the Cambridge 
# Structural Database, then it will include bibliographic, chemical, 
# crystal, experimental, refinement or atomic coordinate data resulting 
# from the CCDC's data processing and validation procedures.
#
#######################################################################

data_ECONIT
_chemical_formula_moiety         'C10 H8 S8,C10 H8 S8 1+,C2 H1 F8 O3 S2 1-'
_chemical_name_systematic        
'bis(bis(Ethylenedithio)tetrathiafulvalenium) 1-pentafluorothio-1,2,2-trifluoro-ethylsulfonate'
_symmetry_cell_setting           triclinic
_symmetry_space_group_name_H-M   'P -1'
_symmetry_Int_Tables_number      2
_space_group_name_Hall           '-P 1'
loop_
_symmetry_equiv_pos_site_id
_symmetry_equiv_pos_as_xyz
1 x,y,z
2 -x,-y,-z
_cell_length_a                   9.2462(4)
_cell_length_b                   11.3610(5)
_cell_length_c                   17.7145(8)
_cell_angle_alpha                94.1210(10)
_cell_angle_beta                 94.9140(10)
_cell_angle_gamma                103.1390(10)
_cell_volume                     1797.45
_exptl_crystal_colour            black
_exptl_crystal_description       rod
_cell_formula_units_Z            2
loop_
_atom_site_label
_atom_site_type_symbol
_atom_site_fract_x
_atom_site_fract_y
_atom_site_fract_z
S1 S 0.81987(10) 0.12458(8) 0.45931(5)
S2 S 0.61805(10) -0.11715(8) 0.45488(5)
S3 S 0.97338(10) 0.08416(8) 0.62587(5)
S4 S 0.77293(9) -0.15923(7) 0.61588(4)
S5 S 0.71209(11) 0.17610(8) 0.30751(5)
S6 S 0.47296(12) -0.11430(9) 0.30027(6)
S7 S 1.10539(11) 0.07713(8) 0.78381(5)
S8 S 0.85550(10) -0.21049(8) 0.77175(5)
C1 C 0.7673(4) -0.0086(3) 0.50368(18)
C2 C 0.8323(4) -0.0261(3) 0.57259(18)
C3 C 0.6990(4) 0.0720(3) 0.37581(18)
C4 C 0.6073(4) -0.0391(3) 0.37368(19)
C5 C 0.9810(4) 0.0023(3) 0.70628(18)
C6 C 0.8868(4) -0.1092(3) 0.70170(18)
C7 C 0.5831(5) 0.0916(4) 0.2289(2)
H1 H 0.5552 0.1499 0.1947
H2 H 0.6351 0.0395 0.1995
C8 C 0.4430(4) 0.0133(4) 0.2517(2)
H3 H 0.3724 -0.0171 0.2055
H4 H 0.3958 0.0636 0.2853
C9 C 1.0252(4) -0.0065(3) 0.86012(19)
H5 H 1.0909 0.0219 0.9081
H6 H 0.9269 0.0112 0.8670
C10 C 1.0054(4) -0.1417(3) 0.84453(18)
H7 H 0.9857 -0.1802 0.8922
H8 H 1.0997 -0.1582 0.8288
S9 S 0.97294(10) 0.59070(8) 0.62353(5)
S10 S 0.77462(9) 0.34705(8) 0.61265(4)
S11 S 0.82337(10) 0.62916(7) 0.45571(5)
S12 S 0.61981(10) 0.38890(8) 0.45226(5)
S13 S 1.11400(10) 0.57860(8) 0.77883(5)
S14 S 0.86935(10) 0.29020(8) 0.76472(5)
S15 S 0.71786(11) 0.67982(8) 0.30368(5)
S16 S 0.47456(12) 0.39191(10) 0.29752(6)
C11 C 0.8338(4) 0.4802(3) 0.56997(17)
C12 C 0.7692(4) 0.4966(3) 0.50021(18)
C13 C 0.9861(4) 0.5066(3) 0.70180(17)
C14 C 0.8930(4) 0.3947(3) 0.69713(17)
C15 C 0.7029(4) 0.5768(3) 0.37245(18)
C16 C 0.6100(4) 0.4658(3) 0.37091(18)
C17 C 1.0314(5) 0.4960(4) 0.8548(2)
H9 H 1.0953 0.5254 0.9033
H10 H 0.9323 0.5130 0.8604
C18 C 1.0138(4) 0.3612(3) 0.84005(19)
H11 H 0.9906 0.3230 0.8874
H12 H 1.1100 0.3455 0.8267
C19 C 0.5853(4) 0.5972(3) 0.2257(2)
H13 H 0.5582 0.6558 0.1915
H14 H 0.6339 0.5428 0.1959
C20 C 0.4445(4) 0.5223(4) 0.2513(2)
H15 H 0.3694 0.4943 0.2066
H16 H 0.4034 0.5742 0.2870
S17 S 0.65978(10) 0.20141(8) -0.02649(5)
F1 F 0.5381(3) 0.0830(2) -0.05613(14)
F2 F 0.7904(3) 0.3155(2) 0.00113(17)
F3 F 0.6363(4) 0.2582(3) -0.1066(2)
F4 F 0.6883(4) 0.1478(4) 0.0496(2)
F5 F 0.7762(4) 0.1396(3) -0.0618(2)
C21 C 0.5345(5) 0.2942(4) 0.0138(3)
H17 H 0.5568 0.3753 -0.0068
F6 F 0.5689(4) 0.3109(3) 0.09059(17)
C22 C 0.3670(5) 0.2376(4) -0.0037(3)
F7 F 0.3262(3) 0.1361(3) 0.03288(18)
F8 F 0.3343(4) 0.2048(3) -0.07959(17)
O1 O 0.1029(5) 0.2709(4) -0.0028(2)
O2 O 0.2802(5) 0.3753(5) 0.1002(3)
S18 S 0.25016(10) 0.34173(8) 0.02140(5)
O5 O 0.3019(3) 0.4384(2) -0.02578(18)
F9? F 0.6763(11) 0.2255(9) -0.1089(5)
F10? F 0.6416(12) 0.1476(10) 0.0597(6)
F11? F 0.7884(10) 0.1249(8) -0.0300(5)
C23? C 0.4981(13) 0.2705(11) -0.0281(7)
H18? H 0.5350 0.3576 -0.0371
F12? F 0.3977(10) 0.2158(7) -0.0906(5)
C24? C 0.4128(13) 0.2682(11) 0.0413(7)
F13? F 0.3597(9) 0.1559(8) 0.0610(5)
F14? F 0.5070(10) 0.3280(7) 0.1019(4)
O3? O 0.1256(12) 0.2371(10) -0.0140(6)
O4? O 0.2268(15) 0.3698(12) 0.1038(7)
loop_
_geom_bond_atom_site_label_1
_geom_bond_atom_site_label_2
_geom_bond_site_symmetry_1
_geom_bond_site_symmetry_2
S1 C1 1_555 1_555
S2 C1 1_555 1_555
S3 C2 1_555 1_555
S4 C2 1_555 1_555
S5 C3 1_555 1_555
S6 C4 1_555 1_555
S7 C5 1_555 1_555
S8 C6 1_555 1_555
C1 C2 1_555 1_555
C3 S1 1_555 1_555
C4 S2 1_555 1_555
C5 S3 1_555 1_555
C6 S4 1_555 1_555
C7 S5 1_555 1_555
H1 C7 1_555 1_555
H2 C7 1_555 1_555
C8 S6 1_555 1_555
H3 C8 1_555 1_555
H4 C8 1_555 1_555
C9 S7 1_555 1_555
H5 C9 1_555 1_555
H6 C9 1_555 1_555
C10 S8 1_555 1_555
H7 C10 1_555 1_555
H8 C10 1_555 1_555
S9 C11 1_555 1_555
S10 C11 1_555 1_555
S11 C12 1_555 1_555
S12 C12 1_555 1_555
S13 C13 1_555 1_555
S14 C14 1_555 1_555
S15 C15 1_555 1_555
S16 C16 1_555 1_555
C11 C12 1_555 1_555
C13 S9 1_555 1_555
C14 S10 1_555 1_555
C15 S11 1_555 1_555
C16 S12 1_555 1_555
C17 S13 1_555 1_555
H9 C17 1_555 1_555
H10 C17 1_555 1_555
C18 S14 1_555 1_555
H11 C18 1_555 1_555
H12 C18 1_555 1_555
C19 S15 1_555 1_555
H13 C19 1_555 1_555
H14 C19 1_555 1_555
C20 S16 1_555 1_555
H15 C20 1_555 1_555
H16 C20 1_555 1_555
S17 F1 1_555 1_555
F2 S17 1_555 1_555
F3 S17 1_555 1_555
F4 S17 1_555 1_555
F5 S17 1_555 1_555
C21 S17 1_555 1_555
H17 C21 1_555 1_555
F6 C21 1_555 1_555
C22 C21 1_555 1_555
F7 C22 1_555 1_555
F8 C22 1_555 1_555
O1 S18 1_555 1_555
O2 S18 1_555 1_555
S18 C22 1_555 1_555
O5 S18 1_555 1_555
C3 C4 1_555 1_555
C5 C6 1_555 1_555
C7 C8 1_555 1_555
C9 C10 1_555 1_555
C13 C14 1_555 1_555
C15 C16 1_555 1_555
C17 C18 1_555 1_555
C19 C20 1_555 1_555

#END
