
#######################################################################
#
#                 Cambridge Crystallographic Data Centre
#                                CCDC 
#
#######################################################################
#
# If this CIF has been generated from an entry in the Cambridge 
# Structural Database, then it will include bibliographic, chemical, 
# crystal, experimental, refinement or atomic coordinate data resulting 
# from the CCDC's data processing and validation procedures.
#
#######################################################################

data_ECOWIF
_chemical_formula_moiety         'C15 H16 N2 O2 S1'
_chemical_name_systematic        
N'-[(4-methoxyphenyl)methylidene]-N-methyl-2-(thiophen-2-yl)acetohydrazide
_symmetry_cell_setting           triclinic
_symmetry_space_group_name_H-M   'P -1'
_symmetry_Int_Tables_number      2
_space_group_name_Hall           '-P 1'
loop_
_symmetry_equiv_pos_site_id
_symmetry_equiv_pos_as_xyz
1 x,y,z
2 -x,-y,-z
_cell_length_a                   7.2148(5)
_cell_length_b                   8.8307(5)
_cell_length_c                   24.1120(17)
_cell_angle_alpha                80.025(6)
_cell_angle_beta                 87.601(7)
_cell_angle_gamma                76.097(6)
_cell_volume                     1468.67
_exptl_crystal_colour            colorless
_exptl_crystal_description       slab
_cell_formula_units_Z            4
loop_
_atom_site_label
_atom_site_type_symbol
_atom_site_fract_x
_atom_site_fract_y
_atom_site_fract_z
C1 C 0.67008(18) 0.60106(16) -0.02475(6)
C2 C 0.5794(2) 0.75469(16) -0.01600(6)
H1 H 0.5751 0.7804 0.0208
C3 C 0.4965(2) 0.86847(16) -0.06029(6)
H2 H 0.4357 0.9720 -0.0539
C4 C 0.50131(19) 0.83212(16) -0.11471(6)
C5 C 0.5850(2) 0.67911(16) -0.12395(6)
H3 H 0.5857 0.6529 -0.1606
C6 C 0.66768(19) 0.56475(16) -0.07866(6)
H4 H 0.7235 0.4600 -0.0847
C7 C 0.76607(19) 0.48091(16) 0.02163(6)
H5 H 0.8145 0.3742 0.0166
C8 C 0.9558(2) 0.24722(16) 0.10720(6)
H6 H 0.8552 0.1999 0.0968
H7 H 1.0132 0.1882 0.1430
H8 H 1.0541 0.2431 0.0778
C9 C 0.8960(2) 0.46599(17) 0.16159(6)
C10 C 0.8168(2) 0.64228(17) 0.16296(6)
H9 H 0.6984 0.6816 0.1403
H10 H 0.7852 0.6583 0.2022
C11 C 0.9622(2) 0.73367(16) 0.13961(6)
C12 C 1.13089(14) 0.74915(10) 0.17678(4)
H11 H 1.1602 0.7098 0.2154
C13 C 1.2333(2) 0.84657(19) 0.13194(8)
H12 H 1.3437 0.8787 0.1407
C14 C 1.1583(2) 0.88417(18) 0.07941(8)
H13 H 1.2118 0.9443 0.0492
C15 C 0.4195(3) 0.9248(2) -0.21167(7)
H14 H 0.3625 1.0230 -0.2370
H15 H 0.3453 0.8461 -0.2132
H16 H 0.5512 0.8841 -0.2234
N1 N 0.78323(16) 0.52285(13) 0.06906(5)
N2 N 0.87351(17) 0.41187(13) 0.11301(5)
O1 O 0.98112(17) 0.37640(13) 0.20239(4)
O2 O 0.41861(15) 0.95573(12) -0.15535(4)
S1 S 0.96968(7) 0.81888(6) 0.07181(2)
C17 C 0.7764(2) 0.37271(18) 0.53247(6)
C18 C 0.8223(2) 0.21881(18) 0.51957(6)
H18 H 0.8225 0.2045 0.4814
C19 C 0.8670(2) 0.08863(18) 0.56149(7)
H19 H 0.8965 -0.0147 0.5522
C20 C 0.8691(2) 0.10806(18) 0.61799(6)
C21 C 0.8182(2) 0.25909(19) 0.63179(6)
H20 H 0.8150 0.2731 0.6700
C22 C 0.7718(2) 0.38993(18) 0.58890(7)
H21 H 0.7363 0.4931 0.5984
C23 C 0.7391(2) 0.51354(18) 0.48843(6)
H22 H 0.6957 0.6158 0.4983
C24 C 0.6759(2) 0.79073(19) 0.40919(7)
H23 H 0.5514 0.8036 0.4280
H24 H 0.6659 0.8684 0.3744
H25 H 0.7702 0.8073 0.4342
C25 C 0.7715(2) 0.60876(19) 0.34096(7)
C26 C 0.8229(2) 0.43990(19) 0.32963(6)
H26 H 0.8984 0.4346 0.2945
H27 H 0.9018 0.3700 0.3609
C27 C 0.6444(2) 0.38433(19) 0.32416(7)
C28 C 0.58683(12) 0.23749(10) 0.36718(4)
H28 H 0.6492 0.1698 0.3994
C29 C 0.3942(3) 0.2460(3) 0.33734(10)
H29 H 0.3185 0.1725 0.3502
C30 C 0.3408(3) 0.3617(3) 0.29275(9)
H30 H 0.2236 0.3762 0.2737
C31 C 0.9352(3) -0.0128(2) 0.71366(7)
H31 H 0.9796 -0.1178 0.7365
H32 H 0.8089 0.0380 0.7268
H33 H 1.0253 0.0522 0.7172
N3 N 0.76545(17) 0.49815(15) 0.43654(5)
N4 N 0.73577(18) 0.63152(15) 0.39574(5)
O3 O 0.7577(2) 0.72180(15) 0.30224(5)
O4 O 0.92322(17) -0.02841(13) 0.65599(5)
S3 S 0.48492(10) 0.47394(10) 0.27350(3)
S2? S 1.13089(14) 0.74915(10) 0.17678(4)
C16? C 0.96968(7) 0.81888(6) 0.07181(2)
H17? H 0.8915 0.8263 0.0402
S4? S 0.58683(12) 0.23749(10) 0.36718(4)
C32? C 0.48492(10) 0.47394(10) 0.27350(3)
H34? H 0.4809 0.5607 0.2438
loop_
_geom_bond_atom_site_label_1
_geom_bond_atom_site_label_2
_geom_bond_site_symmetry_1
_geom_bond_site_symmetry_2
C1 C2 1_555 1_555
C2 H1 1_555 1_555
C3 C2 1_555 1_555
H2 C3 1_555 1_555
C4 C3 1_555 1_555
C5 C4 1_555 1_555
H3 C5 1_555 1_555
C6 C1 1_555 1_555
H4 C6 1_555 1_555
C7 C1 1_555 1_555
H5 C7 1_555 1_555
C8 H6 1_555 1_555
H7 C8 1_555 1_555
H8 C8 1_555 1_555
C9 C10 1_555 1_555
C10 H9 1_555 1_555
H10 C10 1_555 1_555
C11 C10 1_555 1_555
C12 C11 1_555 1_555
H11 C12 1_555 1_555
C13 C12 1_555 1_555
H12 C13 1_555 1_555
C14 C13 1_555 1_555
H13 C14 1_555 1_555
C15 H14 1_555 1_555
H15 C15 1_555 1_555
H16 C15 1_555 1_555
N1 C7 1_555 1_555
N2 C8 1_555 1_555
O1 C9 1_555 1_555
O2 C4 1_555 1_555
S1 C11 1_555 1_555
C17 C18 1_555 1_555
C18 H18 1_555 1_555
C19 C18 1_555 1_555
H19 C19 1_555 1_555
C20 C19 1_555 1_555
C21 C20 1_555 1_555
H20 C21 1_555 1_555
C22 C17 1_555 1_555
H21 C22 1_555 1_555
C23 C17 1_555 1_555
H22 C23 1_555 1_555
C24 H23 1_555 1_555
H24 C24 1_555 1_555
H25 C24 1_555 1_555
C25 C26 1_555 1_555
C26 H26 1_555 1_555
H27 C26 1_555 1_555
C27 C26 1_555 1_555
C28 C27 1_555 1_555
H28 C28 1_555 1_555
C29 C28 1_555 1_555
H29 C29 1_555 1_555
C30 C29 1_555 1_555
H30 C30 1_555 1_555
C31 H31 1_555 1_555
H32 C31 1_555 1_555
H33 C31 1_555 1_555
N3 C23 1_555 1_555
N4 C24 1_555 1_555
O3 C25 1_555 1_555
O4 C20 1_555 1_555
S3 C27 1_555 1_555
C5 C6 1_555 1_555
C9 N2 1_555 1_555
C14 S1 1_555 1_555
C15 O2 1_555 1_555
N1 N2 1_555 1_555
C21 C22 1_555 1_555
C25 N4 1_555 1_555
C30 S3 1_555 1_555
C31 O4 1_555 1_555
N3 N4 1_555 1_555

#END
