
#######################################################################
#
#                 Cambridge Crystallographic Data Centre
#                                CCDC 
#
#######################################################################
#
# If this CIF has been generated from an entry in the Cambridge 
# Structural Database, then it will include bibliographic, chemical, 
# crystal, experimental, refinement or atomic coordinate data resulting 
# from the CCDC's data processing and validation procedures.
#
#######################################################################

data_ECUHUI
_chemical_formula_moiety         'C30 H23 N2 O3 P1'
_chemical_name_systematic        
3-(diphenylphosphoryl)-2,5-bis(phenylamino)cyclohexa-2,5-diene-1,4-dione
_symmetry_cell_setting           monoclinic
_symmetry_space_group_name_H-M   'P 21/c'
_symmetry_Int_Tables_number      14
_space_group_name_Hall           '-P 2ybc'
loop_
_symmetry_equiv_pos_site_id
_symmetry_equiv_pos_as_xyz
1 x,y,z
2 -x,1/2+y,1/2-z
3 -x,-y,-z
4 x,1/2-y,1/2+z
_cell_length_a                   12.3674(9)
_cell_length_b                   11.1919(6)
_cell_length_c                   17.8285(12)
_cell_angle_alpha                90
_cell_angle_beta                 106.077(7)
_cell_angle_gamma                90
_cell_volume                     2371.21
_exptl_crystal_colour            red
_exptl_crystal_description       parallelepiped
_cell_formula_units_Z            4
loop_
_atom_site_label
_atom_site_type_symbol
_atom_site_fract_x
_atom_site_fract_y
_atom_site_fract_z
P1 P -0.05291(5) 0.01614(5) 0.15531(3)
O1 O -0.04985(12) -0.07898(12) 0.09647(8)
O2 O 0.00939(12) 0.17363(13) 0.29524(9)
O3 O 0.37610(13) -0.02836(14) 0.24954(9)
N1 N 0.20175(16) 0.20285(16) 0.40619(10)
H1 H 0.143(2) 0.250(2) 0.4012(14)
N2 N 0.16867(17) -0.11965(19) 0.16712(13)
H2 H 0.096(3) -0.133(3) 0.1364(18)
C1 C 0.08104(17) 0.02980(17) 0.22598(12)
C2 C 0.09046(18) 0.11615(17) 0.28690(12)
C3 C 0.20462(18) 0.13569(17) 0.34394(12)
C4 C 0.29771(18) 0.08758(18) 0.32947(12)
H3 H 0.3695 0.1074 0.3632
C5 C 0.29224(18) 0.00889(18) 0.26594(12)
C6 C 0.17557(18) -0.03039(18) 0.21730(12)
C7 C 0.28991(18) 0.21860(18) 0.47578(12)
C8 C 0.2959(2) 0.32452(19) 0.51643(13)
H4 H 0.2418 0.3854 0.4973
C9 C 0.3805(2) 0.3425(2) 0.58488(14)
H5 H 0.3841 0.4158 0.6124
C10 C 0.4600(2) 0.2546(2) 0.61353(13)
H6 H 0.5200 0.2683 0.6592
C11 C 0.4507(2) 0.1470(2) 0.57498(13)
H7 H 0.5032 0.0852 0.5953
C12 C 0.36593(19) 0.12766(19) 0.50701(12)
H8 H 0.3595 0.0523 0.4816
C13 C 0.25524(18) -0.18097(19) 0.14282(13)
C14 C 0.3011(2) -0.2849(2) 0.17904(14)
H9 H 0.2800 -0.3141 0.2230
C15 C 0.3783(2) -0.3461(2) 0.15074(15)
H10 H 0.4113 -0.4175 0.1758
C16 C 0.40771(19) -0.3044(2) 0.08637(14)
H11 H 0.4607 -0.3471 0.0670
C17 C 0.3607(2) -0.2013(2) 0.05029(14)
H12 H 0.3815 -0.1724 0.0061
C18 C 0.2835(2) -0.1395(2) 0.07778(14)
H13 H 0.2498 -0.0688 0.0522
C19 C -0.16238(18) -0.01793(18) 0.20012(12)
C20 C -0.1401(2) -0.0768(2) 0.27114(13)
H14 H -0.0647 -0.0848 0.3026
C21 C -0.2276(2) -0.1241(2) 0.29642(15)
H15 H -0.2122 -0.1641 0.3452
C22 C -0.3374(2) -0.1127(2) 0.25028(16)
H16 H -0.3972 -0.1457 0.2674
C23 C -0.3605(2) -0.0539(2) 0.17982(16)
H17 H -0.4360 -0.0459 0.1485
C24 C -0.27358(19) -0.0066(2) 0.15504(14)
H18 H -0.2896 0.0343 0.1065
C25 C -0.07818(18) 0.16005(18) 0.10824(12)
C26 C -0.14526(19) 0.24882(19) 0.12677(13)
H19 H -0.1806 0.2360 0.1671
C27 C -0.1605(2) 0.3560(2) 0.08628(14)
H20 H -0.2083 0.4154 0.0979
C28 C -0.1072(2) 0.3772(2) 0.02937(15)
H21 H -0.1178 0.4512 0.0021
C29 C -0.0379(2) 0.2906(2) 0.01176(14)
H22 H 0.0005 0.3057 -0.0266
C30 C -0.0248(2) 0.1818(2) 0.05047(13)
H23 H 0.0210 0.1216 0.0374
loop_
_geom_bond_atom_site_label_1
_geom_bond_atom_site_label_2
_geom_bond_site_symmetry_1
_geom_bond_site_symmetry_2
P1 O1 1_555 1_555
O2 C2 1_555 1_555
O3 C5 1_555 1_555
N1 H1 1_555 1_555
N2 H2 1_555 1_555
C1 P1 1_555 1_555
C2 C1 1_555 1_555
C3 N1 1_555 1_555
C4 C3 1_555 1_555
H3 C4 1_555 1_555
C5 C4 1_555 1_555
C6 N2 1_555 1_555
C7 N1 1_555 1_555
C8 C7 1_555 1_555
H4 C8 1_555 1_555
C9 C8 1_555 1_555
H5 C9 1_555 1_555
C10 C9 1_555 1_555
H6 C10 1_555 1_555
C11 C10 1_555 1_555
H7 C11 1_555 1_555
C12 C7 1_555 1_555
H8 C12 1_555 1_555
C13 N2 1_555 1_555
C14 C13 1_555 1_555
H9 C14 1_555 1_555
C15 C14 1_555 1_555
H10 C15 1_555 1_555
C16 C15 1_555 1_555
H11 C16 1_555 1_555
C17 C16 1_555 1_555
H12 C17 1_555 1_555
C18 C13 1_555 1_555
H13 C18 1_555 1_555
C19 P1 1_555 1_555
C20 C19 1_555 1_555
H14 C20 1_555 1_555
C21 C20 1_555 1_555
H15 C21 1_555 1_555
C22 C21 1_555 1_555
H16 C22 1_555 1_555
C23 C22 1_555 1_555
H17 C23 1_555 1_555
C24 C19 1_555 1_555
H18 C24 1_555 1_555
C25 P1 1_555 1_555
C26 C25 1_555 1_555
H19 C26 1_555 1_555
C27 C26 1_555 1_555
H20 C27 1_555 1_555
C28 C27 1_555 1_555
H21 C28 1_555 1_555
C29 C28 1_555 1_555
H22 C29 1_555 1_555
C30 C25 1_555 1_555
H23 C30 1_555 1_555
C1 C6 1_555 1_555
C2 C3 1_555 1_555
C5 C6 1_555 1_555
C11 C12 1_555 1_555
C17 C18 1_555 1_555
C23 C24 1_555 1_555
C29 C30 1_555 1_555

#END
