
#######################################################################
#
#                 Cambridge Crystallographic Data Centre
#                                CCDC 
#
#######################################################################
#
# If this CIF has been generated from an entry in the Cambridge 
# Structural Database, then it will include bibliographic, chemical, 
# crystal, experimental, refinement or atomic coordinate data resulting 
# from the CCDC's data processing and validation procedures.
#
#######################################################################

data_ECUJOE
_chemical_formula_moiety         'C52 H40 N2 O6 P2'
_chemical_name_systematic        
1,1'-bis(bis(4-methylphenyl)phosphoryl]-10H,10'H-[3,3'-biphenoxazine)-2,2'-diol
_symmetry_cell_setting           triclinic
_symmetry_space_group_name_H-M   'P -1'
_symmetry_Int_Tables_number      2
_space_group_name_Hall           '-P 1'
loop_
_symmetry_equiv_pos_site_id
_symmetry_equiv_pos_as_xyz
1 x,y,z
2 -x,-y,-z
_cell_length_a                   9.6979(18)
_cell_length_b                   13.866(3)
_cell_length_c                   15.246(3)
_cell_angle_alpha                85.620(6)
_cell_angle_beta                 84.981(6)
_cell_angle_gamma                89.855(6)
_cell_volume                     2036.3
_exptl_crystal_colour            red
_exptl_crystal_description       parallelepiped
_cell_formula_units_Z            2
loop_
_atom_site_label
_atom_site_type_symbol
_atom_site_fract_x
_atom_site_fract_y
_atom_site_fract_z
P1 P 0.18186(15) 0.95735(11) 0.27825(9)
O1 O 0.3180(4) 0.9227(3) 0.3081(2)
O2 O 0.4084(4) 0.8961(3) -0.0362(2)
O3 O -0.0458(4) 1.0029(3) 0.1702(3)
N1 N 0.4180(5) 0.8956(3) 0.1453(3)
H1 H 0.4233 0.8969 0.2025
C1 C 0.1808(5) 0.9496(4) 0.1613(3)
C2 C 0.2985(5) 0.9230(4) 0.1112(3)
C3 C 0.5334(5) 0.8654(4) 0.0931(4)
C4 C 0.6555(6) 0.8373(4) 0.1287(4)
H2 H 0.6627 0.8374 0.1905
C5 C 0.7680(6) 0.8088(4) 0.0727(4)
H3 H 0.8517 0.7893 0.0969
C6 C 0.7591(6) 0.8087(4) -0.0169(4)
H4 H 0.8362 0.7894 -0.0542
C7 C 0.6366(6) 0.8368(4) -0.0526(4)
H5 H 0.6285 0.8356 -0.1142
C8 C 0.5284(6) 0.8661(4) 0.0024(4)
C9 C 0.2940(6) 0.9236(4) 0.0164(3)
C10 C 0.1813(5) 0.9512(4) -0.0242(4)
H6 H 0.1842 0.9492 -0.0865
C11 C 0.0572(6) 0.9833(4) 0.0221(3)
C12 C 0.0575(5) 0.9797(4) 0.1203(3)
C13 C 0.1559(6) 1.0833(4) 0.2959(3)
C14 C 0.2733(6) 1.1418(4) 0.2889(4)
H7 H 0.3624 1.1130 0.2869
C15 C 0.2612(6) 1.2426(4) 0.2848(4)
H8 H 0.3420 1.2819 0.2799
C16 C 0.1320(6) 1.2852(4) 0.2879(4)
C17 C 0.0167(6) 1.2256(5) 0.2997(4)
H9 H -0.0724 1.2543 0.3054
C18 C 0.0261(6) 1.1271(4) 0.3034(4)
H10 H -0.0555 1.0884 0.3112
C19 C 0.1170(7) 1.3938(5) 0.2761(5)
H11 H 0.0185 1.4107 0.2803
H12 H 0.1622 1.4237 0.3224
H13 H 0.1604 1.4176 0.2181
C20 C 0.0380(6) 0.8900(4) 0.3321(3)
C21 C -0.0048(6) 0.9036(4) 0.4199(4)
H14 H 0.0440 0.9478 0.4506
C22 C -0.1176(7) 0.8534(4) 0.4630(4)
H15 H -0.1446 0.8628 0.5232
C23 C -0.1925(6) 0.7886(4) 0.4183(4)
C24 C -0.1469(6) 0.7723(4) 0.3327(4)
H16 H -0.1939 0.7266 0.3027
C25 C -0.0329(6) 0.8218(4) 0.2895(4)
H17 H -0.0028 0.8092 0.2305
C26 C -0.3203(8) 0.7409(5) 0.4626(5)
H18 H -0.3363 0.7611 0.5229
H19 H -0.3995 0.7596 0.4295
H20 H -0.3090 0.6705 0.4647
P1A P -0.18186(15) 1.04265(11) -0.27825(9)
O1A O -0.3180(4) 1.0773(3) -0.3081(2)
O2A O -0.4084(4) 1.1039(3) 0.0362(2)
O3A O 0.0458(4) 0.9971(3) -0.1702(3)
N1A N -0.4180(5) 1.1044(3) -0.1453(3)
H1A H -0.4233 1.1031 -0.2025
C1A C -0.1808(5) 1.0504(4) -0.1613(3)
C2A C -0.2985(5) 1.0770(4) -0.1112(3)
C3A C -0.5334(5) 1.1346(4) -0.0931(4)
C4A C -0.6555(6) 1.1627(4) -0.1287(4)
H2A H -0.6627 1.1626 -0.1905
C5A C -0.7680(6) 1.1912(4) -0.0727(4)
H3A H -0.8517 1.2107 -0.0969
C6A C -0.7591(6) 1.1913(4) 0.0169(4)
H4A H -0.8362 1.2106 0.0542
C7A C -0.6366(6) 1.1632(4) 0.0526(4)
H5A H -0.6285 1.1644 0.1142
C8A C -0.5284(6) 1.1339(4) -0.0024(4)
C9A C -0.2940(6) 1.0764(4) -0.0164(3)
C10A C -0.1813(5) 1.0488(4) 0.0242(4)
H6A H -0.1842 1.0508 0.0865
C11A C -0.0572(6) 1.0167(4) -0.0221(3)
C12A C -0.0575(5) 1.0203(4) -0.1203(3)
C13A C -0.1559(6) 0.9167(4) -0.2959(3)
C14A C -0.2733(6) 0.8582(4) -0.2889(4)
H7A H -0.3624 0.8870 -0.2869
C15A C -0.2612(6) 0.7574(4) -0.2848(4)
H8A H -0.3420 0.7181 -0.2799
C16A C -0.1320(6) 0.7148(4) -0.2879(4)
C17A C -0.0167(6) 0.7744(5) -0.2997(4)
H9A H 0.0724 0.7457 -0.3054
C18A C -0.0261(6) 0.8729(4) -0.3034(4)
H10A H 0.0555 0.9116 -0.3112
C19A C -0.1170(7) 0.6062(5) -0.2761(5)
H11A H -0.0185 0.5893 -0.2803
H12A H -0.1622 0.5763 -0.3224
H13A H -0.1604 0.5824 -0.2181
C20A C -0.0380(6) 1.1100(4) -0.3321(3)
C21A C 0.0048(6) 1.0964(4) -0.4199(4)
H14A H -0.0440 1.0522 -0.4506
C22A C 0.1176(7) 1.1466(4) -0.4630(4)
H15A H 0.1446 1.1372 -0.5232
C23A C 0.1925(6) 1.2114(4) -0.4183(4)
C24A C 0.1469(6) 1.2277(4) -0.3327(4)
H16A H 0.1939 1.2734 -0.3027
C25A C 0.0329(6) 1.1782(4) -0.2895(4)
H17A H 0.0028 1.1908 -0.2305
C26A C 0.3203(8) 1.2591(5) -0.4626(5)
H18A H 0.3363 1.2389 -0.5229
H19A H 0.3995 1.2404 -0.4295
H20A H 0.3090 1.3295 -0.4647
P2 P 0.65791(15) 0.47315(11) 0.28602(9)
O4 O 0.7820(4) 0.5136(3) 0.3244(2)
O5 O 0.9080(4) 0.6064(3) -0.0164(2)
O6 O 0.4513(4) 0.4385(3) 0.1659(3)
N2 N 0.9012(5) 0.5675(3) 0.1661(3)
H21 H 0.8999 0.5558 0.2238
C27 C 0.6693(6) 0.5046(4) 0.1699(4)
C28 C 0.7883(5) 0.5458(3) 0.1251(3)
C29 C 1.0206(6) 0.6081(4) 0.1188(4)
C30 C 1.1375(6) 0.6293(4) 0.1610(4)
H22 H 1.1382 0.6169 0.2231
C31 C 1.2534(6) 0.6689(4) 0.1105(4)
H23 H 1.3343 0.6826 0.1383
C32 C 1.2516(6) 0.6886(4) 0.0201(4)
H24 H 1.3312 0.7158 -0.0134
C33 C 1.1344(6) 0.6689(4) -0.0221(4)
H25 H 1.1325 0.6832 -0.0839
C34 C 1.0219(6) 0.6283(4) 0.0278(4)
C35 C 0.7909(6) 0.5681(4) 0.0312(4)
C36 C 0.6815(5) 0.5521(4) -0.0151(4)
H26 H 0.6889 0.5703 -0.0766
C37 C 0.5553(5) 0.5090(4) 0.0247(4)
C38 C 0.5512(5) 0.4818(4) 0.1225(4)
C39 C 0.4989(6) 0.5226(4) 0.3339(4)
C40 C 0.4615(6) 0.6167(4) 0.3109(4)
H27 H 0.5193 0.6551 0.2683
C41 C 0.3411(7) 0.6562(5) 0.3487(4)
H28 H 0.3178 0.7210 0.3314
C42 C 0.2546(7) 0.6033(5) 0.4108(4)
C43 C 0.2920(8) 0.5109(5) 0.4357(5)
H29 H 0.2349 0.4738 0.4795
C44 C 0.4124(7) 0.4699(5) 0.3978(4)
H30 H 0.4355 0.4052 0.4159
C45 C 0.1181(8) 0.6429(6) 0.4485(5)
H31 H 0.1072 0.7097 0.4241
H32 H 0.0419 0.6032 0.4328
H33 H 0.1169 0.6416 0.5129
C46 C 0.6495(5) 0.3428(4) 0.3041(4)
C47 C 0.6575(6) 0.3010(4) 0.3902(4)
H34 H 0.6633 0.3416 0.4373
C48 C 0.6572(6) 0.2019(5) 0.4076(4)
H35 H 0.6615 0.1756 0.4667
C49 C 0.6506(6) 0.1392(4) 0.3404(5)
C50 C 0.6446(6) 0.1804(4) 0.2552(4)
H36 H 0.6413 0.1395 0.2082
C51 C 0.6434(6) 0.2805(4) 0.2367(4)
H37 H 0.6384 0.3066 0.1776
C52 C 0.6477(8) 0.0311(5) 0.3588(6)
H38 H 0.6527 0.0149 0.4221
H39 H 0.5615 0.0053 0.3407
H40 H 0.7268 0.0028 0.3256
P2A P 0.34209(15) 0.52685(11) -0.28602(9)
O4A O 0.2180(4) 0.4864(3) -0.3244(2)
O5A O 0.0920(4) 0.3936(3) 0.0164(2)
O6A O 0.5487(4) 0.5615(3) -0.1659(3)
N2A N 0.0988(5) 0.4325(3) -0.1661(3)
H21A H 0.1001 0.4442 -0.2238
C27A C 0.3307(6) 0.4954(4) -0.1699(4)
C28A C 0.2117(5) 0.4542(3) -0.1251(3)
C29A C -0.0206(6) 0.3919(4) -0.1188(4)
C30A C -0.1375(6) 0.3707(4) -0.1610(4)
H22A H -0.1382 0.3831 -0.2231
C31A C -0.2534(6) 0.3311(4) -0.1105(4)
H23A H -0.3343 0.3174 -0.1383
C32A C -0.2516(6) 0.3114(4) -0.0201(4)
H24A H -0.3312 0.2842 0.0134
C33A C -0.1344(6) 0.3311(4) 0.0221(4)
H25A H -0.1325 0.3168 0.0839
C34A C -0.0219(6) 0.3717(4) -0.0278(4)
C35A C 0.2091(6) 0.4319(4) -0.0312(4)
C36A C 0.3185(5) 0.4479(4) 0.0151(4)
H26A H 0.3111 0.4297 0.0766
C37A C 0.4447(5) 0.4910(4) -0.0247(4)
C38A C 0.4488(5) 0.5182(4) -0.1225(4)
C39A C 0.5011(6) 0.4774(4) -0.3339(4)
C40A C 0.5385(6) 0.3833(4) -0.3109(4)
H27A H 0.4807 0.3449 -0.2683
C41A C 0.6589(7) 0.3438(5) -0.3487(4)
H28A H 0.6822 0.2790 -0.3314
C42A C 0.7454(7) 0.3967(5) -0.4108(4)
C43A C 0.7080(8) 0.4891(5) -0.4357(5)
H29A H 0.7651 0.5262 -0.4795
C44A C 0.5876(7) 0.5301(5) -0.3978(4)
H30A H 0.5645 0.5948 -0.4159
C45A C 0.8819(8) 0.3571(6) -0.4485(5)
H31A H 0.8928 0.2903 -0.4241
H32A H 0.9581 0.3968 -0.4328
H33A H 0.8831 0.3584 -0.5129
C46A C 0.3505(5) 0.6572(4) -0.3041(4)
C47A C 0.3425(6) 0.6990(4) -0.3902(4)
H34A H 0.3367 0.6584 -0.4373
C48A C 0.3428(6) 0.7981(5) -0.4076(4)
H35A H 0.3385 0.8244 -0.4667
C49A C 0.3494(6) 0.8608(4) -0.3404(5)
C50A C 0.3554(6) 0.8196(4) -0.2552(4)
H36A H 0.3587 0.8605 -0.2082
C51A C 0.3566(6) 0.7195(4) -0.2367(4)
H37A H 0.3616 0.6934 -0.1776
C52A C 0.3523(8) 0.9689(5) -0.3588(6)
H38A H 0.3473 0.9851 -0.4221
H39A H 0.4385 0.9947 -0.3407
H40A H 0.2732 0.9972 -0.3256
loop_
_geom_bond_atom_site_label_1
_geom_bond_atom_site_label_2
_geom_bond_site_symmetry_1
_geom_bond_site_symmetry_2
P1 O1 1_555 1_555
O2 C8 1_555 1_555
O3 C12 1_555 1_555
N1 H1 1_555 1_555
C1 P1 1_555 1_555
C2 N1 1_555 1_555
C3 N1 1_555 1_555
C4 C3 1_555 1_555
H2 C4 1_555 1_555
C5 C4 1_555 1_555
H3 C5 1_555 1_555
C6 C5 1_555 1_555
H4 C6 1_555 1_555
C7 C6 1_555 1_555
H5 C7 1_555 1_555
C8 C3 1_555 1_555
C9 O2 1_555 1_555
C10 C9 1_555 1_555
H6 C10 1_555 1_555
C11 C10 1_555 1_555
C12 C1 1_555 1_555
C13 P1 1_555 1_555
C14 C13 1_555 1_555
H7 C14 1_555 1_555
C15 C14 1_555 1_555
H8 C15 1_555 1_555
C16 C15 1_555 1_555
C17 C16 1_555 1_555
H9 C17 1_555 1_555
C18 C13 1_555 1_555
H10 C18 1_555 1_555
C19 C16 1_555 1_555
H11 C19 1_555 1_555
H12 C19 1_555 1_555
H13 C19 1_555 1_555
C20 P1 1_555 1_555
C21 C20 1_555 1_555
H14 C21 1_555 1_555
C22 C21 1_555 1_555
H15 C22 1_555 1_555
C23 C22 1_555 1_555
C24 C23 1_555 1_555
H16 C24 1_555 1_555
C25 C20 1_555 1_555
H17 C25 1_555 1_555
C26 C23 1_555 1_555
H18 C26 1_555 1_555
H19 C26 1_555 1_555
H20 C26 1_555 1_555
P2 O4 1_555 1_555
O5 C34 1_555 1_555
O6 C38 1_555 1_555
N2 H21 1_555 1_555
C27 P2 1_555 1_555
C28 N2 1_555 1_555
C29 N2 1_555 1_555
C30 C29 1_555 1_555
H22 C30 1_555 1_555
C31 C30 1_555 1_555
H23 C31 1_555 1_555
C32 C31 1_555 1_555
H24 C32 1_555 1_555
C33 C32 1_555 1_555
H25 C33 1_555 1_555
C34 C29 1_555 1_555
C35 O5 1_555 1_555
C36 C35 1_555 1_555
H26 C36 1_555 1_555
C37 C36 1_555 1_555
C38 C27 1_555 1_555
C39 P2 1_555 1_555
C40 C39 1_555 1_555
H27 C40 1_555 1_555
C41 C40 1_555 1_555
H28 C41 1_555 1_555
C42 C41 1_555 1_555
C43 C42 1_555 1_555
H29 C43 1_555 1_555
C44 C39 1_555 1_555
H30 C44 1_555 1_555
C45 C42 1_555 1_555
H31 C45 1_555 1_555
H32 C45 1_555 1_555
H33 C45 1_555 1_555
C46 P2 1_555 1_555
C47 C46 1_555 1_555
H34 C47 1_555 1_555
C48 C47 1_555 1_555
H35 C48 1_555 1_555
C49 C48 1_555 1_555
C50 C49 1_555 1_555
H36 C50 1_555 1_555
C51 C46 1_555 1_555
H37 C51 1_555 1_555
C52 C49 1_555 1_555
H38 C52 1_555 1_555
H39 C52 1_555 1_555
H40 C52 1_555 1_555
P1A O1A 1_555 1_555
O2A C8A 1_555 1_555
O3A C12A 1_555 1_555
N1A H1A 1_555 1_555
C1A P1A 1_555 1_555
C2A N1A 1_555 1_555
C3A N1A 1_555 1_555
C4A C3A 1_555 1_555
H2A C4A 1_555 1_555
C5A C4A 1_555 1_555
H3A C5A 1_555 1_555
C6A C5A 1_555 1_555
H4A C6A 1_555 1_555
C7A C6A 1_555 1_555
H5A C7A 1_555 1_555
C8A C3A 1_555 1_555
C9A O2A 1_555 1_555
C10A C9A 1_555 1_555
H6A C10A 1_555 1_555
C11A C11 1_555 1_555
C12A C1A 1_555 1_555
C13A P1A 1_555 1_555
C14A C13A 1_555 1_555
H7A C14A 1_555 1_555
C15A C14A 1_555 1_555
H8A C15A 1_555 1_555
C16A C15A 1_555 1_555
C17A C16A 1_555 1_555
H9A C17A 1_555 1_555
C18A C13A 1_555 1_555
H10A C18A 1_555 1_555
C19A C16A 1_555 1_555
H11A C19A 1_555 1_555
H12A C19A 1_555 1_555
H13A C19A 1_555 1_555
C20A P1A 1_555 1_555
C21A C20A 1_555 1_555
H14A C21A 1_555 1_555
C22A C21A 1_555 1_555
H15A C22A 1_555 1_555
C23A C22A 1_555 1_555
C24A C23A 1_555 1_555
H16A C24A 1_555 1_555
C25A C20A 1_555 1_555
H17A C25A 1_555 1_555
C26A C23A 1_555 1_555
H18A C26A 1_555 1_555
H19A C26A 1_555 1_555
H20A C26A 1_555 1_555
P2A O4A 1_555 1_555
O5A C34A 1_555 1_555
O6A C38A 1_555 1_555
N2A H21A 1_555 1_555
C27A P2A 1_555 1_555
C28A N2A 1_555 1_555
C29A N2A 1_555 1_555
C30A C29A 1_555 1_555
H22A C30A 1_555 1_555
C31A C30A 1_555 1_555
H23A C31A 1_555 1_555
C32A C31A 1_555 1_555
H24A C32A 1_555 1_555
C33A C32A 1_555 1_555
H25A C33A 1_555 1_555
C34A C29A 1_555 1_555
C35A O5A 1_555 1_555
C36A C35A 1_555 1_555
H26A C36A 1_555 1_555
C37A C37 1_555 1_555
C38A C27A 1_555 1_555
C39A P2A 1_555 1_555
C40A C39A 1_555 1_555
H27A C40A 1_555 1_555
C41A C40A 1_555 1_555
H28A C41A 1_555 1_555
C42A C41A 1_555 1_555
C43A C42A 1_555 1_555
H29A C43A 1_555 1_555
C44A C39A 1_555 1_555
H30A C44A 1_555 1_555
C45A C42A 1_555 1_555
H31A C45A 1_555 1_555
H32A C45A 1_555 1_555
H33A C45A 1_555 1_555
C46A P2A 1_555 1_555
C47A C46A 1_555 1_555
H34A C47A 1_555 1_555
C48A C47A 1_555 1_555
H35A C48A 1_555 1_555
C49A C48A 1_555 1_555
C50A C49A 1_555 1_555
H36A C50A 1_555 1_555
C51A C46A 1_555 1_555
H37A C51A 1_555 1_555
C52A C49A 1_555 1_555
H38A C52A 1_555 1_555
H39A C52A 1_555 1_555
H40A C52A 1_555 1_555
C1 C2 1_555 1_555
C2 C9 1_555 1_555
C7 C8 1_555 1_555
C11 C12 1_555 1_555
C17 C18 1_555 1_555
C24 C25 1_555 1_555
C27 C28 1_555 1_555
C28 C35 1_555 1_555
C33 C34 1_555 1_555
C37 C38 1_555 1_555
C43 C44 1_555 1_555
C50 C51 1_555 1_555
C1A C2A 1_555 1_555
C2A C9A 1_555 1_555
C7A C8A 1_555 1_555
C10A C11A 1_555 1_555
C11A C12A 1_555 1_555
C17A C18A 1_555 1_555
C24A C25A 1_555 1_555
C27A C28A 1_555 1_555
C28A C35A 1_555 1_555
C33A C34A 1_555 1_555
C36A C37A 1_555 1_555
C37A C38A 1_555 1_555
C43A C44A 1_555 1_555
C50A C51A 1_555 1_555

#END
