
#######################################################################
#
#                 Cambridge Crystallographic Data Centre
#                                CCDC 
#
#######################################################################
#
# If this CIF has been generated from an entry in the Cambridge 
# Structural Database, then it will include bibliographic, chemical, 
# crystal, experimental, refinement or atomic coordinate data resulting 
# from the CCDC's data processing and validation procedures.
#
#######################################################################

data_ECUJER
_chemical_formula_moiety         'C13 H21 N1 O4'
_chemical_name_systematic        
'(3S,6S,7aR)-3-t-Butyl-1,6,7,7a-tetrahydro-6-methyl-5-oxopyrrolo(1,2-c)oxazole-7a-carboxylic acid methyl ester'
_symmetry_cell_setting           orthorhombic
_symmetry_space_group_name_H-M   'P 21 21 21'
_symmetry_Int_Tables_number      19
_space_group_name_Hall           'P 2ac 2ab'
loop_
_symmetry_equiv_pos_site_id
_symmetry_equiv_pos_as_xyz
1 x,y,z
2 1/2-x,-y,1/2+z
3 -x,1/2+y,1/2-z
4 1/2+x,1/2-y,-z
_cell_length_a                   6.2471(5)
_cell_length_b                   12.7278(10)
_cell_length_c                   17.0378(14)
_cell_angle_alpha                90
_cell_angle_beta                 90
_cell_angle_gamma                90
_cell_volume                     1354.71
_chemical_melting_point          '107-108 deg.C'
_cell_formula_units_Z            4
loop_
_atom_site_label
_atom_site_type_symbol
_atom_site_fract_x
_atom_site_fract_y
_atom_site_fract_z
C1 C 0.8537(2) 0.46445(12) 0.44258(8)
H1 H 0.9216 0.3967 0.4503
H2 H 0.9497 0.5097 0.4132
O1 O 0.79558(16) 0.51114(8) 0.51608(6)
C2 C 0.6007(2) 0.46431(11) 0.54165(8)
H3 H 0.6343 0.4027 0.5738
C3 C 0.4770(2) 0.54359(12) 0.59182(8)
C4 C 0.4277(3) 0.64402(12) 0.54600(10)
H4 H 0.3381 0.6275 0.5019
H5 H 0.5589 0.6747 0.5277
H6 H 0.3550 0.6930 0.5796
C5 C 0.6201(3) 0.56766(13) 0.66284(9)
H7 H 0.5495 0.6173 0.6964
H8 H 0.7534 0.5967 0.6451
H9 H 0.6469 0.5040 0.6914
C6 C 0.2691(3) 0.49342(13) 0.62065(10)
H10 H 0.1787 0.4781 0.5765
H11 H 0.1968 0.5411 0.6553
H12 H 0.3012 0.4295 0.6482
N1 N 0.49837(18) 0.42882(9) 0.46780(6)
C7 C 0.4028(2) 0.33206(10) 0.46136(8)
O2 O 0.30820(16) 0.28783(7) 0.51453(6)
C8 C 0.4308(2) 0.29097(10) 0.37813(8)
H13 H 0.4782 0.2176 0.3806
C9 C 0.2228(2) 0.29633(11) 0.33096(9)
H14 H 0.1166 0.2527 0.3554
H15 H 0.2485 0.2720 0.2785
H16 H 0.1727 0.3676 0.3294
C10 C 0.6131(2) 0.35812(11) 0.34424(8)
H17 H 0.5772 0.3822 0.2919
H18 H 0.7446 0.3178 0.3416
C11 C 0.6392(2) 0.45285(11) 0.40094(8)
C12 C 0.5748(2) 0.55527(11) 0.36030(8)
C13 C 0.2863(3) 0.65869(13) 0.31581(10)
H19 H 0.1329 0.6568 0.3124
H20 H 0.3458 0.6649 0.2641
H21 H 0.3295 0.7179 0.3469
O3 O 0.69936(19) 0.61919(9) 0.33552(7)
O4 O 0.36261(16) 0.56282(8) 0.35202(6)
loop_
_geom_bond_atom_site_label_1
_geom_bond_atom_site_label_2
_geom_bond_site_symmetry_1
_geom_bond_site_symmetry_2
C1 H1 1_555 1_555
H2 C1 1_555 1_555
O1 C1 1_555 1_555
C2 O1 1_555 1_555
H3 C2 1_555 1_555
C3 C2 1_555 1_555
C4 C3 1_555 1_555
H4 C4 1_555 1_555
H5 C4 1_555 1_555
H6 C4 1_555 1_555
C5 C3 1_555 1_555
H7 C5 1_555 1_555
H8 C5 1_555 1_555
H9 C5 1_555 1_555
C6 C3 1_555 1_555
H10 C6 1_555 1_555
H11 C6 1_555 1_555
H12 C6 1_555 1_555
N1 C2 1_555 1_555
C7 N1 1_555 1_555
O2 C7 1_555 1_555
C8 C7 1_555 1_555
H13 C8 1_555 1_555
C9 C8 1_555 1_555
H14 C9 1_555 1_555
H15 C9 1_555 1_555
H16 C9 1_555 1_555
C10 C8 1_555 1_555
H17 C10 1_555 1_555
H18 C10 1_555 1_555
C11 C1 1_555 1_555
C12 C11 1_555 1_555
C13 H19 1_555 1_555
H20 C13 1_555 1_555
H21 C13 1_555 1_555
O3 C12 1_555 1_555
O4 C12 1_555 1_555
N1 C11 1_555 1_555
C10 C11 1_555 1_555
C13 O4 1_555 1_555

#END
