
#######################################################################
#
#                 Cambridge Crystallographic Data Centre
#                                CCDC 
#
#######################################################################
#
# If this CIF has been generated from an entry in the Cambridge 
# Structural Database, then it will include bibliographic, chemical, 
# crystal, experimental, refinement or atomic coordinate data resulting 
# from the CCDC's data processing and validation procedures.
#
#######################################################################

data_ECUJUK
_chemical_formula_moiety         'C48 H31 Cl1 N2 O6 P2'
_chemical_name_systematic        
'5-chloro-3-(diphenylphosphoryl)-2-((6-(diphenylphosphoryl)-7H-[1]benzofuro[2,3-b]phenoxazin-3-yl)amino)cyclohexa-2,5-diene-1,4-dione unknown solvate'
_symmetry_cell_setting           triclinic
_symmetry_space_group_name_H-M   'P -1'
_symmetry_Int_Tables_number      2
_space_group_name_Hall           '-P 1'
loop_
_symmetry_equiv_pos_site_id
_symmetry_equiv_pos_as_xyz
1 x,y,z
2 -x,-y,-z
_cell_length_a                   9.0683(4)
_cell_length_b                   13.6628(7)
_cell_length_c                   18.3104(9)
_cell_angle_alpha                74.1801(16)
_cell_angle_beta                 86.1230(16)
_cell_angle_gamma                73.3444(16)
_cell_volume                     2090.99
_exptl_crystal_colour            black
_exptl_crystal_description       parallelepiped
_cell_formula_units_Z            2
loop_
_atom_site_label
_atom_site_type_symbol
_atom_site_fract_x
_atom_site_fract_y
_atom_site_fract_z
P1 P 0.74646(6) 0.16001(5) 1.12841(3)
P2 P 0.69814(6) 0.15509(4) 0.54618(3)
Cl1 Cl 1.32477(7) -0.01074(5) 1.03018(4)
O1 O 1.07921(19) 0.03562(14) 1.13468(9)
O2 O 0.9593(2) 0.31177(16) 0.87610(10)
O3 O 0.2288(2) 0.49536(14) 0.48715(10)
O4 O 0.67913(17) 0.23750(11) 0.69324(8)
O5 O 0.59155(19) 0.22808(14) 1.09577(9)
O6 O 0.65386(19) 0.14797(12) 0.47082(8)
N1 N 0.6985(2) 0.26537(16) 0.95260(11)
H1 H 0.627(4) 0.262(3) 0.988(2)
N2 N 0.4523(3) 0.33878(18) 0.44025(11)
H2 H 0.509(3) 0.287(2) 0.4315(15)
C1 C 0.8819(2) 0.15429(18) 1.05151(12)
C2 C 1.0373(2) 0.08795(18) 1.06996(12)
C3 C 1.1498(3) 0.08066(19) 1.00619(13)
C4 C 1.1190(3) 0.1451(2) 0.93689(13)
H3 H 1.1904 0.1377 0.8970
C5 C 0.9728(3) 0.22749(19) 0.92354(12)
C6 C 0.8413(3) 0.21186(17) 0.97703(12)
C7 C 0.6425(3) 0.30118(18) 0.87618(12)
C8 C 0.5162(3) 0.3910(2) 0.85859(13)
H4 H 0.4759 0.4273 0.8962
C9 C 0.4491(3) 0.42783(18) 0.78702(13)
H5 H 0.3629 0.4887 0.7752
C10 C 0.5105(2) 0.37390(17) 0.73268(12)
C11 C 0.4719(2) 0.38277(16) 0.65543(12)
C12 C 0.3549(3) 0.44972(17) 0.60393(12)
H6 H 0.2804 0.5073 0.6166
C13 C 0.3509(3) 0.43007(17) 0.53480(12)
C14 C 0.2272(3) 0.48607(18) 0.41344(12)
C15 C 0.1079(3) 0.5546(2) 0.36661(15)
H7 H 0.0306 0.6056 0.3848
C16 C 0.1014(3) 0.5484(2) 0.29284(16)
H8 H 0.0197 0.5955 0.2599
C17 C 0.2137(4) 0.4739(2) 0.26738(15)
H9 H 0.2105 0.4707 0.2164
C18 C 0.3316(3) 0.4036(2) 0.31555(13)
H10 H 0.4083 0.3519 0.2977
C19 C 0.3377(3) 0.40866(18) 0.38976(12)
C20 C 0.4606(3) 0.34653(17) 0.51309(12)
C21 C 0.5740(2) 0.27446(16) 0.56585(11)
C22 C 0.5754(2) 0.29808(16) 0.63527(11)
C23 C 0.6364(2) 0.28443(17) 0.75241(12)
C24 C 0.7045(3) 0.24445(17) 0.82351(12)
H11 H 0.7884 0.1821 0.8357
C25 C 0.8219(3) 0.21555(18) 1.19124(12)
C26 C 0.8906(3) 0.2964(2) 1.16030(14)
H12 H 0.9020 0.3187 1.1069
C27 C 0.9422(3) 0.3445(2) 1.20685(15)
H13 H 0.9900 0.3992 1.1854
C28 C 0.9244(3) 0.3128(2) 1.28489(15)
H14 H 0.9608 0.3455 1.3168
C29 C 0.8542(3) 0.2344(2) 1.31595(14)
H15 H 0.8411 0.2135 1.3693
C30 C 0.8022(3) 0.1854(2) 1.26955(13)
H16 H 0.7534 0.1314 1.2913
C31 C 0.7351(3) 0.02984(19) 1.18032(12)
C32 C 0.8483(3) -0.0434(2) 1.23089(13)
H17 H 0.9382 -0.0255 1.2396
C33 C 0.8305(4) -0.1419(2) 1.26847(15)
H18 H 0.9086 -0.1921 1.3022
C34 C 0.6983(4) -0.1668(3) 1.25655(17)
H19 H 0.6854 -0.2342 1.2825
C35 C 0.5852(3) -0.0949(3) 1.20740(17)
H20 H 0.4949 -0.1129 1.1997
C36 C 0.6021(3) 0.0036(2) 1.16913(14)
H21 H 0.5235 0.0531 1.1354
C37 C 0.6807(2) 0.04148(16) 0.61978(12)
C38 C 0.5849(3) -0.01414(18) 0.60358(12)
H22 H 0.5297 0.0111 0.5568
C39 C 0.5703(3) -0.1056(2) 0.65530(14)
H23 H 0.5045 -0.1427 0.6440
C40 C 0.6507(3) -0.14324(19) 0.72326(14)
H24 H 0.6411 -0.2065 0.7584
C41 C 0.7457(3) -0.08863(18) 0.74019(13)
H25 H 0.8008 -0.1145 0.7871
C42 C 0.7605(3) 0.00341(17) 0.68902(12)
H26 H 0.8251 0.0408 0.7010
C43 C 0.8920(3) 0.16268(18) 0.54709(12)
C44 C 1.0163(3) 0.07198(19) 0.56339(13)
H27 H 0.9988 0.0043 0.5819
C45 C 1.1655(3) 0.0802(2) 0.55263(15)
H28 H 1.2502 0.0183 0.5650
C46 C 1.1909(3) 0.1783(2) 0.52399(17)
H29 H 1.2932 0.1836 0.5157
C47 C 1.0689(3) 0.2685(2) 0.50735(18)
H30 H 1.0871 0.3359 0.4880
C48 C 0.9191(3) 0.2609(2) 0.51883(14)
H31 H 0.8350 0.3232 0.5073
loop_
_geom_bond_atom_site_label_1
_geom_bond_atom_site_label_2
_geom_bond_site_symmetry_1
_geom_bond_site_symmetry_2
P1 O5 1_555 1_555
P2 O6 1_555 1_555
Cl1 C3 1_555 1_555
O1 C2 1_555 1_555
O2 C5 1_555 1_555
O3 C13 1_555 1_555
O4 C22 1_555 1_555
N1 H1 1_555 1_555
N2 H2 1_555 1_555
C1 P1 1_555 1_555
C2 C1 1_555 1_555
C3 C2 1_555 1_555
C4 C3 1_555 1_555
H3 C4 1_555 1_555
C5 C4 1_555 1_555
C6 N1 1_555 1_555
C7 N1 1_555 1_555
C8 C7 1_555 1_555
H4 C8 1_555 1_555
C9 C8 1_555 1_555
H5 C9 1_555 1_555
C10 C9 1_555 1_555
C11 C10 1_555 1_555
C12 C11 1_555 1_555
H6 C12 1_555 1_555
C13 C12 1_555 1_555
C14 O3 1_555 1_555
C15 C14 1_555 1_555
H7 C15 1_555 1_555
C16 C15 1_555 1_555
H8 C16 1_555 1_555
C17 C16 1_555 1_555
H9 C17 1_555 1_555
C18 C17 1_555 1_555
H10 C18 1_555 1_555
C19 N2 1_555 1_555
C20 N2 1_555 1_555
C21 P2 1_555 1_555
C22 C11 1_555 1_555
C23 O4 1_555 1_555
C24 C7 1_555 1_555
H11 C24 1_555 1_555
C25 P1 1_555 1_555
C26 C25 1_555 1_555
H12 C26 1_555 1_555
C27 C26 1_555 1_555
H13 C27 1_555 1_555
C28 C27 1_555 1_555
H14 C28 1_555 1_555
C29 C28 1_555 1_555
H15 C29 1_555 1_555
C30 C25 1_555 1_555
H16 C30 1_555 1_555
C31 P1 1_555 1_555
C32 C31 1_555 1_555
H17 C32 1_555 1_555
C33 C32 1_555 1_555
H18 C33 1_555 1_555
C34 C33 1_555 1_555
H19 C34 1_555 1_555
C35 C34 1_555 1_555
H20 C35 1_555 1_555
C36 C31 1_555 1_555
H21 C36 1_555 1_555
C37 P2 1_555 1_555
C38 C37 1_555 1_555
H22 C38 1_555 1_555
C39 C38 1_555 1_555
H23 C39 1_555 1_555
C40 C39 1_555 1_555
H24 C40 1_555 1_555
C41 C40 1_555 1_555
H25 C41 1_555 1_555
C42 C37 1_555 1_555
H26 C42 1_555 1_555
C43 P2 1_555 1_555
C44 C43 1_555 1_555
H27 C44 1_555 1_555
C45 C44 1_555 1_555
H28 C45 1_555 1_555
C46 C45 1_555 1_555
H29 C46 1_555 1_555
C47 C46 1_555 1_555
H30 C47 1_555 1_555
C48 C43 1_555 1_555
H31 C48 1_555 1_555
C1 C6 1_555 1_555
C5 C6 1_555 1_555
C10 C23 1_555 1_555
C13 C20 1_555 1_555
C14 C19 1_555 1_555
C18 C19 1_555 1_555
C20 C21 1_555 1_555
C21 C22 1_555 1_555
C23 C24 1_555 1_555
C29 C30 1_555 1_555
C35 C36 1_555 1_555
C41 C42 1_555 1_555
C47 C48 1_555 1_555

#END
