
#######################################################################
#
#                 Cambridge Crystallographic Data Centre
#                                CCDC 
#
#######################################################################
#
# If this CIF has been generated from an entry in the Cambridge 
# Structural Database, then it will include bibliographic, chemical, 
# crystal, experimental, refinement or atomic coordinate data resulting 
# from the CCDC's data processing and validation procedures.
#
#######################################################################

data_ECUNIC
_chemical_formula_moiety         'C13 H12 F4 O5 S1'
_chemical_name_systematic        
'dimethyl fluoro(1,1,1-trifluoro-4-oxo-4-(thiophen-2-yl)butan-2-yl)propanedioate'
_symmetry_cell_setting           monoclinic
_symmetry_space_group_name_H-M   'P 21'
_symmetry_Int_Tables_number      4
_space_group_name_Hall           'P 2yb'
loop_
_symmetry_equiv_pos_site_id
_symmetry_equiv_pos_as_xyz
1 x,y,z
2 -x,1/2+y,-z
_cell_length_a                   5.5663(15)
_cell_length_b                   8.223(2)
_cell_length_c                   16.824(5)
_cell_angle_alpha                90
_cell_angle_beta                 91.880(9)
_cell_angle_gamma                90
_cell_volume                     769.648
_exptl_crystal_colour            colorless
_exptl_crystal_description       block
_cell_formula_units_Z            2
loop_
_atom_site_label
_atom_site_type_symbol
_atom_site_fract_x
_atom_site_fract_y
_atom_site_fract_z
S1 S 0.0722(4) 0.2641(4) 0.01558(17)
F1 F 0.7331(6) 0.0692(5) -0.3227(3)
F2 F 0.4533(9) -0.1793(5) -0.2811(3)
F3 F 0.1893(9) -0.0879(5) -0.3651(3)
F4 F 0.0985(8) -0.1236(6) -0.2436(3)
O1 O 0.0389(9) 0.2316(9) -0.1599(3)
O2 O 0.5312(12) 0.1055(9) -0.4661(4)
O3 O 0.2496(9) 0.2666(6) -0.4186(3)
O4 O 0.4847(9) 0.4259(7) -0.2611(4)
O5 O 0.8107(8) 0.3755(5) -0.3312(3)
C1 C 0.2658(13) 0.1760(8) -0.0455(4)
C2 C 0.4598(12) 0.0992(9) 0.0009(4)
H1 H 0.5842 0.0392 -0.0202
C3 C 0.432(2) 0.1285(16) 0.0807(6)
H2 H 0.5406 0.0929 0.1202
C4 C 0.222(3) 0.2180(18) 0.0968(6)
H3 H 0.1760 0.2468 0.1475
C5 C 0.2269(11) 0.1777(8) -0.1310(4)
C6 C 0.4186(11) 0.1066(9) -0.1821(4)
H4 H 0.4568 -0.0023 -0.1635
H5 H 0.5631 0.1719 -0.1761
C7 C 0.3437(11) 0.0988(7) -0.2694(4)
H6 H 0.1984 0.1652 -0.2766
C8 C 0.5282(10) 0.1644(8) -0.3261(4)
C9 C 0.4459(12) 0.1702(9) -0.4109(4)
C10 C 0.1333(17) 0.2811(12) -0.4949(5)
H7 H -0.0033 0.3517 -0.4914
H8 H 0.0811 0.1757 -0.5129
H9 H 0.2436 0.3256 -0.5318
C11 C 0.6088(10) 0.3371(8) -0.3013(4)
C12 C 0.9143(14) 0.5334(8) -0.3092(6)
H10 H 1.0633 0.5479 -0.3355
H11 H 0.9431 0.5375 -0.2527
H12 H 0.8045 0.6183 -0.3250
C13 C 0.2759(12) -0.0740(8) -0.2901(4)
loop_
_geom_bond_atom_site_label_1
_geom_bond_atom_site_label_2
_geom_bond_site_symmetry_1
_geom_bond_site_symmetry_2
S1 C1 1_555 1_555
F1 C8 1_555 1_555
F2 C13 1_555 1_555
F3 C13 1_555 1_555
F4 C13 1_555 1_555
O1 C5 1_555 1_555
O2 C9 1_555 1_555
O3 C9 1_555 1_555
O4 C11 1_555 1_555
O5 C11 1_555 1_555
C1 C2 1_555 1_555
C2 H1 1_555 1_555
C3 C2 1_555 1_555
H2 C3 1_555 1_555
C4 S1 1_555 1_555
H3 C4 1_555 1_555
C5 C1 1_555 1_555
C6 C5 1_555 1_555
H4 C6 1_555 1_555
H5 C6 1_555 1_555
C7 C6 1_555 1_555
H6 C7 1_555 1_555
C8 C7 1_555 1_555
C9 C8 1_555 1_555
C10 O3 1_555 1_555
H7 C10 1_555 1_555
H8 C10 1_555 1_555
H9 C10 1_555 1_555
C11 C8 1_555 1_555
C12 O5 1_555 1_555
H10 C12 1_555 1_555
H11 C12 1_555 1_555
H12 C12 1_555 1_555
C13 C7 1_555 1_555
C3 C4 1_555 1_555

#END
