
#######################################################################
#
#                 Cambridge Crystallographic Data Centre
#                                CCDC 
#
#######################################################################
#
# If this CIF has been generated from an entry in the Cambridge 
# Structural Database, then it will include bibliographic, chemical, 
# crystal, experimental, refinement or atomic coordinate data resulting 
# from the CCDC's data processing and validation procedures.
#
#######################################################################

data_ECUSAY
_chemical_formula_moiety         'C17 H19 N1 O1'
_chemical_name_systematic        Diphenyl(pyrrolidin-2-yl)methanol
_symmetry_cell_setting           orthorhombic
_symmetry_space_group_name_H-M   'P 21 21 21'
_symmetry_Int_Tables_number      19
_space_group_name_Hall           'P 2ac 2ab'
loop_
_symmetry_equiv_pos_site_id
_symmetry_equiv_pos_as_xyz
1 x,y,z
2 1/2-x,-y,1/2+z
3 -x,1/2+y,1/2-z
4 1/2+x,1/2-y,-z
_cell_length_a                   8.9000(18)
_cell_length_b                   9.2405(18)
_cell_length_c                   16.671(3)
_cell_angle_alpha                90
_cell_angle_beta                 90
_cell_angle_gamma                90
_cell_volume                     1371.03
_cell_formula_units_Z            4
loop_
_atom_site_label
_atom_site_type_symbol
_atom_site_fract_x
_atom_site_fract_y
_atom_site_fract_z
O1 O 0.21683(14) 0.51476(14) 0.05416(7)
H1 H 0.2852 0.5740 0.0508
N1 N 0.26452(19) 0.77250(18) 0.12862(10)
C1 C 0.2409(3) 0.9199(2) 0.09895(14)
H2 H 0.3311 0.9573 0.0737
H3 H 0.2117 0.9844 0.1422
C2 C 0.1171(4) 0.9037(3) 0.03938(19)
H4 H 0.1578 0.8886 -0.0140
H5 H 0.0547 0.9898 0.0386
C3 C 0.0262(2) 0.7734(2) 0.06560(11)
H6 H 0.0154 0.7052 0.0218
H7 H -0.0730 0.8027 0.0834
C4 C 0.1151(2) 0.7050(2) 0.13525(11)
H8 H 0.0686 0.7289 0.1869
C5 C 0.1344(2) 0.5390(2) 0.12656(10)
C6 C -0.0168(2) 0.46293(19) 0.11912(10)
C7 C -0.1349(2) 0.4984(2) 0.17044(11)
H9 H -0.1213 0.5693 0.2093
C8 C -0.2724(2) 0.4289(2) 0.16402(11)
H10 H -0.3507 0.4541 0.1982
C9 C -0.2935(2) 0.3225(2) 0.10702(11)
H11 H -0.3860 0.2764 0.1025
C10 C -0.1764(2) 0.2847(2) 0.05677(11)
H12 H -0.1895 0.2119 0.0189
C11 C -0.0393(2) 0.3554(2) 0.06281(11)
H13 H 0.0386 0.3300 0.0284
C12 C 0.2213(2) 0.4701(2) 0.19697(10)
C13 C 0.3033(2) 0.3441(2) 0.18294(11)
H14 H 0.3074 0.3061 0.1313
C14 C 0.3787(2) 0.2746(2) 0.24458(12)
H15 H 0.4327 0.1905 0.2341
C15 C 0.3740(2) 0.3300(2) 0.32163(12)
H16 H 0.4240 0.2831 0.3632
C16 C 0.2945(2) 0.4556(2) 0.33642(11)
H17 H 0.2923 0.4942 0.3879
C17 C 0.2178(2) 0.5244(2) 0.27478(11)
H18 H 0.1633 0.6080 0.2856
H19 H 0.308(3) 0.775(3) 0.1775(8)
loop_
_geom_bond_atom_site_label_1
_geom_bond_atom_site_label_2
_geom_bond_site_symmetry_1
_geom_bond_site_symmetry_2
O1 H1 1_555 1_555
N1 C1 1_555 1_555
C1 H2 1_555 1_555
H3 C1 1_555 1_555
C2 C1 1_555 1_555
H4 C2 1_555 1_555
H5 C2 1_555 1_555
C3 C2 1_555 1_555
H6 C3 1_555 1_555
H7 C3 1_555 1_555
C4 N1 1_555 1_555
H8 C4 1_555 1_555
C5 O1 1_555 1_555
C6 C5 1_555 1_555
C7 C6 1_555 1_555
H9 C7 1_555 1_555
C8 C7 1_555 1_555
H10 C8 1_555 1_555
C9 C8 1_555 1_555
H11 C9 1_555 1_555
C10 C9 1_555 1_555
H12 C10 1_555 1_555
C11 C6 1_555 1_555
H13 C11 1_555 1_555
C12 C5 1_555 1_555
C13 C12 1_555 1_555
H14 C13 1_555 1_555
C14 C13 1_555 1_555
H15 C14 1_555 1_555
C15 C14 1_555 1_555
H16 C15 1_555 1_555
C16 C15 1_555 1_555
H17 C16 1_555 1_555
C17 C12 1_555 1_555
H18 C17 1_555 1_555
H19 N1 1_555 1_555
C3 C4 1_555 1_555
C4 C5 1_555 1_555
C10 C11 1_555 1_555
C16 C17 1_555 1_555

#END
