
#######################################################################
#
#                 Cambridge Crystallographic Data Centre
#                                CCDC 
#
#######################################################################
#
# If this CIF has been generated from an entry in the Cambridge 
# Structural Database, then it will include bibliographic, chemical, 
# crystal, experimental, refinement or atomic coordinate data resulting 
# from the CCDC's data processing and validation procedures.
#
#######################################################################

data_ECUXEI
_chemical_formula_moiety         'C76 H15 N1 O2 S1,C1 S2'
_chemical_name_systematic        
'(1-(4-methylbenzene-1-sulfonyl)-1H-indole-2,3-diyl)-C60-fullerene carbon disulfide unknown solvate'
_symmetry_cell_setting           monoclinic
_symmetry_space_group_name_H-M   'P 21/n'
_symmetry_Int_Tables_number      14
_space_group_name_Hall           '-P 2yn'
loop_
_symmetry_equiv_pos_site_id
_symmetry_equiv_pos_as_xyz
1 x,y,z
2 1/2-x,1/2+y,1/2-z
3 -x,-y,-z
4 1/2+x,1/2-y,1/2+z
_cell_length_a                   9.9333(2)
_cell_length_b                   32.2929(6)
_cell_length_c                   28.6843(6)
_cell_angle_alpha                90
_cell_angle_beta                 96.813(2)
_cell_angle_gamma                90
_cell_volume                     9136.23
_exptl_crystal_colour            black
_exptl_crystal_description       block
_cell_formula_units_Z            8
loop_
_atom_site_label
_atom_site_type_symbol
_atom_site_fract_x
_atom_site_fract_y
_atom_site_fract_z
S1 S -0.11427(8) 0.79915(2) 0.16907(3)
O1 O -0.0996(3) 0.76913(7) 0.20583(9)
O2 O -0.2451(2) 0.81127(8) 0.14785(10)
C1 C -0.0130(3) 0.78436(10) 0.12601(11)
N1 N -0.0411(3) 0.84208(8) 0.19137(9)
C2 C 0.0364(3) 0.90880(9) 0.19864(10)
C3 C 0.2566(3) 0.88440(9) 0.25991(10)
C4 C 0.0331(3) 0.95147(10) 0.19080(11)
H1 H 0.0996 0.9686 0.2060
C5 C -0.0670(3) 0.88356(9) 0.17562(10)
C6 C 0.0811(3) 0.84252(9) 0.22148(11)
C7 C 0.1274(3) 0.88140(9) 0.22687(10)
C8 C 0.2316(3) 0.90413(10) 0.30595(10)
C9 C 0.2422(3) 0.88292(14) 0.38869(13)
C10 C 0.2856(3) 0.95476(12) 0.36812(13)
C11 C 0.3585(3) 0.96773(10) 0.29458(13)
C12 C 0.2267(3) 0.87293(11) 0.34149(12)
C13 C 0.2724(3) 0.92578(15) 0.40189(14)
C14 C 0.3684(3) 0.90911(11) 0.23595(11)
H2 H 0.3314 0.9149 0.2034
C15 C 0.3497(4) 0.80832(11) 0.35721(14)
C16 C -0.0716(4) 0.96762(11) 0.15987(13)
H3 H -0.0751 0.9960 0.1542
C17 C 0.7251(4) 0.83812(14) 0.45492(16)
C18 C 0.1525(4) 0.76341(11) 0.05861(12)
C19 C 0.3174(3) 0.85558(15) 0.42134(13)
C20 C 0.2636(3) 0.94411(10) 0.31906(12)
C21 C 0.2858(3) 0.83557(9) 0.27365(12)
C22 C 0.7456(4) 0.90638(16) 0.25887(15)
C23 C -0.0009(5) 0.81099(12) 0.08894(13)
H4 H -0.0487 0.8358 0.0864
C24 C 0.7837(4) 0.81909(12) 0.41947(18)
C25 C 0.2754(3) 0.83448(10) 0.32551(12)
C26 C 0.4153(3) 0.94992(11) 0.25881(13)
C27 C 0.3952(4) 0.98499(11) 0.37521(15)
C28 C 0.8699(4) 0.86177(17) 0.31172(18)
C29 C 0.7575(4) 0.87948(14) 0.46785(14)
C30 C 0.6699(4) 0.99844(11) 0.36997(17)
C31 C 0.1643(4) 0.80990(10) 0.24693(14)
H5 H 0.1966 0.7901 0.2254
H6 H 0.1138 0.7954 0.2688
C32 C -0.1718(3) 0.89979(11) 0.14479(12)
H7 H -0.2395 0.8829 0.1298
C33 C 0.7719(4) 0.86353(17) 0.27026(16)
C34 C 0.8667(4) 0.95272(13) 0.38887(18)
C35 C 0.0535(4) 0.74720(12) 0.12898(14)
H8 H 0.0442 0.7291 0.1537
C36 C 0.9022(4) 0.90521(17) 0.32615(19)
C37 C 0.0825(5) 0.80034(13) 0.05608(14)
H9 H 0.0920 0.8185 0.0315
C38 C 0.6129(4) 0.91802(15) 0.24146(13)
C39 C 0.3679(4) 0.92426(17) 0.44397(14)
C40 C 0.8800(4) 0.84196(14) 0.39435(17)
C41 C 0.5120(4) 0.79591(10) 0.30112(17)
C42 C 0.4721(4) 0.78833(10) 0.34418(17)
C43 C -0.1716(4) 0.94203(11) 0.13722(13)
H10 H -0.2401 0.9537 0.1164
C44 C 0.2504(5) 0.75334(15) 0.02387(16)
H11 H 0.2059 0.7567 -0.0075
H12 H 0.2806 0.7252 0.0283
H13 H 0.3269 0.7716 0.0287
C45 C 0.5817(4) 0.83186(16) 0.45843(15)
C46 C 0.7904(4) 0.97955(12) 0.35698(17)
C47 C 0.3721(4) 0.81944(14) 0.40613(14)
C48 C 0.7702(4) 0.96855(14) 0.30793(18)
C49 C 0.5070(4) 0.80685(13) 0.42525(16)
C50 C 0.4261(4) 0.81794(11) 0.26174(14)
H14 H 0.4060 0.7979 0.2363
C51 C 0.3948(4) 0.88113(17) 0.45569(13)
C52 C 0.9230(3) 0.91479(15) 0.37260(18)
C53 C 0.6280(4) 0.99055(12) 0.41280(17)
C54 C 0.8585(4) 0.83131(15) 0.34512(19)
C55 C 0.6343(5) 0.89901(18) 0.48045(14)
C56 C 0.5293(4) 0.84831(14) 0.24623(13)
C57 C 0.1348(5) 0.73680(13) 0.09485(15)
H15 H 0.1785 0.7113 0.0964
C58 C 0.5037(4) 0.88804(14) 0.23512(12)
C59 C 0.8207(4) 0.94463(13) 0.43330(16)
C60 C 0.7050(4) 0.96309(14) 0.44570(16)
C61 C 0.6661(4) 0.83555(15) 0.26453(16)
C62 C 0.6341(4) 0.98112(12) 0.28918(17)
C63 C 0.4856(4) 0.98377(13) 0.41634(16)
C64 C 0.5577(4) 0.95574(13) 0.25661(14)
C65 C 0.4716(4) 0.95258(15) 0.45082(14)
C66 C 0.5248(4) 0.86921(18) 0.47367(13)
C67 C 0.9112(3) 0.88285(13) 0.40767(16)
C68 C 0.6540(4) 0.80384(13) 0.29847(18)
C69 C 0.8243(4) 0.93245(16) 0.29253(16)
C70 C 0.7483(5) 0.80131(13) 0.33835(19)
C71 C 0.4387(4) 0.99279(10) 0.33005(17)
C72 C 0.8494(4) 0.90149(13) 0.44481(15)
C73 C 0.5711(4) 0.99995(11) 0.32804(17)
C74 C 0.6078(5) 0.93970(17) 0.46922(14)
C75 C 0.7050(5) 0.79358(12) 0.3841(2)
C76 C 0.5690(5) 0.78746(12) 0.3869(2)
S2 S 0.42195(8) 0.69573(2) 0.19030(3)
O3 O 0.2824(2) 0.68447(9) 0.18236(9)
O4 O 0.4648(3) 0.73213(7) 0.21570(8)
N2 N 0.4995(3) 0.65695(8) 0.22047(9)
C77 C 0.4903(3) 0.69594(10) 0.13691(11)
C78 C 0.8905(3) 0.54011(9) 0.33808(14)
C79 C 0.5755(3) 0.59124(9) 0.23825(10)
C80 C 0.6251(3) 0.65931(9) 0.24830(11)
C81 C 0.6704(3) 0.62126(9) 0.25939(11)
C82 C 0.4698(3) 0.61442(10) 0.21342(10)
C83 C 0.5680(3) 0.54829(10) 0.23830(12)
H16 H 0.6356 0.5326 0.2552
C84 C 0.8865(4) 0.59877(14) 0.48079(12)
C85 C 0.4490(4) 0.66645(11) 0.10304(12)
H17 H 0.3826 0.6472 0.1080
C86 C 0.8865(3) 0.70533(10) 0.38003(12)
C87 C 0.7699(3) 0.63567(13) 0.41860(12)
C88 C 1.0566(4) 0.71087(10) 0.32561(13)
C89 C 0.9147(4) 0.64233(15) 0.48731(12)
C90 C 0.7599(3) 0.64087(10) 0.37046(12)
C91 C 0.7943(3) 0.56727(10) 0.35837(12)
C92 C 1.3150(4) 0.69683(11) 0.44869(15)
C93 C 0.7683(3) 0.60631(10) 0.34023(11)
C94 C 0.8135(3) 0.67680(9) 0.35070(12)
C95 C 0.8434(3) 0.66515(12) 0.44892(11)
C96 C 0.7996(3) 0.62052(9) 0.29267(11)
C97 C 1.0116(4) 0.72279(9) 0.36664(13)
C98 C 1.4088(4) 0.64300(15) 0.34929(16)
C99 C 1.4112(3) 0.67065(13) 0.42849(15)
C100 C 0.8094(3) 0.56144(12) 0.40859(13)
C101 C 0.9021(4) 0.69897(11) 0.42987(13)
C102 C 0.7958(3) 0.59411(13) 0.43800(13)
C103 C 0.9526(3) 0.55398(10) 0.30092(13)
C104 C 0.7122(4) 0.69396(10) 0.26848(13)
H18 H 0.6631 0.7121 0.2875
H19 H 0.7470 0.7101 0.2440
C105 C 1.2891(4) 0.70662(12) 0.36663(15)
C106 C 0.5838(4) 0.72518(12) 0.12882(13)
H20 H 0.6083 0.7455 0.1512
C107 C 0.4588(4) 0.52937(11) 0.21301(13)
H21 H 0.4539 0.5006 0.2121
C108 C 0.9156(4) 0.53104(11) 0.42033(15)
C109 C 1.0368(4) 0.71218(11) 0.44884(13)
C110 C 0.3587(3) 0.59528(11) 0.18856(12)
H22 H 0.2889 0.6106 0.1724
C111 C 1.4375(3) 0.60091(16) 0.36861(17)
C112 C 0.9725(4) 0.68615(11) 0.28739(12)
H23 H 0.9564 0.7039 0.2595
C113 C 1.3962(3) 0.67655(14) 0.37821(15)
C114 C 0.3557(4) 0.55265(11) 0.18870(13)
H24 H 0.2826 0.5391 0.1721
C115 C 1.3179(4) 0.53097(12) 0.40646(18)
C116 C 0.9893(4) 0.57019(14) 0.49266(13)
C117 C 0.6067(4) 0.69460(12) 0.05347(13)
C118 C 0.9108(3) 0.59267(11) 0.27315(12)
H25 H 0.8759 0.5842 0.2412
C119 C 1.2400(4) 0.71940(11) 0.40967(15)
C120 C 1.2871(4) 0.59479(14) 0.30030(15)
C121 C 0.8301(3) 0.67034(9) 0.29950(12)
C122 C 1.3155(4) 0.63795(14) 0.30711(14)
C123 C 0.6421(5) 0.72456(15) 0.08733(15)
H26 H 0.7061 0.7445 0.0821
C124 C 1.1468(4) 0.52712(12) 0.46145(17)
C125 C 1.2513(4) 0.68253(12) 0.48542(13)
C126 C 1.1076(4) 0.69050(13) 0.48592(13)
C127 C 1.1932(4) 0.51455(11) 0.42041(18)
C128 C 1.3609(4) 0.57154(14) 0.33768(16)
C129 C 1.0762(4) 0.65296(13) 0.27742(12)
C130 C 1.1050(4) 0.72686(10) 0.40962(15)
C131 C 1.1510(4) 0.62514(15) 0.51731(12)
C132 C 1.0461(4) 0.65493(15) 0.50552(12)
C133 C 0.9646(4) 0.51825(10) 0.37737(17)
C134 C 1.4400(3) 0.63125(13) 0.44691(16)
C135 C 1.1553(4) 0.58281(14) 0.28311(13)
C136 C 0.5074(5) 0.66619(12) 0.06210(13)
H27 H 0.4798 0.6464 0.0394
C137 C 1.2114(4) 0.66606(13) 0.29607(13)
C138 C 1.1977(4) 0.70122(12) 0.32574(14)
C139 C 1.4517(3) 0.59570(14) 0.41618(18)
C140 C 1.3027(4) 0.53736(13) 0.35650(17)
C141 C 1.1677(4) 0.52430(12) 0.33761(17)
C142 C 1.0053(4) 0.53563(13) 0.46185(16)
C143 C 1.0487(4) 0.61241(13) 0.27133(12)
C144 C 1.0996(4) 0.50975(10) 0.37751(18)
C145 C 1.2797(4) 0.64180(14) 0.50440(13)
C146 C 1.1241(4) 0.58388(16) 0.51105(14)
C147 C 1.3925(4) 0.56023(12) 0.43626(18)
C148 C 1.0954(4) 0.54697(12) 0.30159(15)
C149 C 1.3715(4) 0.61696(13) 0.48590(15)
C150 C 1.2224(4) 0.55658(13) 0.49119(15)
C151 C 1.3423(4) 0.57272(13) 0.47925(16)
C152 C 0.6742(6) 0.69298(18) 0.00958(17)
H28 H 0.7094 0.7198 0.0034
H29 H 0.6093 0.6848 -0.0163
H30 H 0.7470 0.6733 0.0134
S3 S 0.1397(2) 0.93974(7) 0.52072(9)
S4 S -0.1081(3) 0.95939(8) 0.56955(7)
C153 C 0.0178(6) 0.94944(18) 0.54617(18)
S5 S 0.5309(3) 0.89622(10) 0.59598(9)
S6 S 0.2991(5) 0.87349(19) 0.64993(11)
C154 C 0.4185(10) 0.8817(3) 0.6242(2)
loop_
_geom_bond_atom_site_label_1
_geom_bond_atom_site_label_2
_geom_bond_site_symmetry_1
_geom_bond_site_symmetry_2
S1 O1 1_555 1_555
O2 S1 1_555 1_555
C1 S1 1_555 1_555
N1 S1 1_555 1_555
C2 C4 1_555 1_555
C3 C7 1_555 1_555
C4 H1 1_555 1_555
C5 N1 1_555 1_555
C6 N1 1_555 1_555
C7 C2 1_555 1_555
C8 C3 1_555 1_555
C9 C12 1_555 1_555
C10 C13 1_555 1_555
C11 C20 1_555 1_555
C12 C8 1_555 1_555
C13 C9 1_555 1_555
C14 C3 1_555 1_555
H2 C14 1_555 1_555
C15 C25 1_555 1_555
C16 C4 1_555 1_555
H3 C16 1_555 1_555
C17 C24 1_555 1_555
C18 C37 1_555 1_555
C19 C9 1_555 1_555
C20 C8 1_555 1_555
C21 C3 1_555 1_555
C22 C33 1_555 1_555
C23 C1 1_555 1_555
H4 C23 1_555 1_555
C24 C40 1_555 1_555
C25 C12 1_555 1_555
C26 C11 1_555 1_555
C27 C10 1_555 1_555
C28 C33 1_555 1_555
C29 C17 1_555 1_555
C30 C46 1_555 1_555
C31 C6 1_555 1_555
H5 C31 1_555 1_555
H6 C31 1_555 1_555
C32 C5 1_555 1_555
H7 C32 1_555 1_555
C33 C61 1_555 1_555
C34 C46 1_555 1_555
C35 C1 1_555 1_555
H8 C35 1_555 1_555
C36 C28 1_555 1_555
C37 C23 1_555 1_555
H9 C37 1_555 1_555
C38 C22 1_555 1_555
C39 C13 1_555 1_555
C40 C54 1_555 1_555
C41 C42 1_555 1_555
C42 C15 1_555 1_555
C43 C16 1_555 1_555
H10 C43 1_555 1_555
C44 C18 1_555 1_555
H11 C44 1_555 1_555
H12 C44 1_555 1_555
H13 C44 1_555 1_555
C45 C17 1_555 1_555
C46 C48 1_555 1_555
C47 C15 1_555 1_555
C48 C62 1_555 1_555
C49 C45 1_555 1_555
C50 C21 1_555 1_555
H14 C50 1_555 1_555
C51 C19 1_555 1_555
C52 C34 1_555 1_555
C53 C30 1_555 1_555
C54 C28 1_555 1_555
C55 C29 1_555 1_555
C56 C50 1_555 1_555
C57 C18 1_555 1_555
H15 C57 1_555 1_555
C58 C14 1_555 1_555
C59 C34 1_555 1_555
C60 C53 1_555 1_555
C61 C56 1_555 1_555
C62 C64 1_555 1_555
C63 C27 1_555 1_555
C64 C26 1_555 1_555
C65 C39 1_555 1_555
C66 C45 1_555 1_555
C67 C40 1_555 1_555
C68 C41 1_555 1_555
C69 C22 1_555 1_555
C70 C54 1_555 1_555
C71 C11 1_555 1_555
C72 C29 1_555 1_555
C73 C30 1_555 1_555
C74 C55 1_555 1_555
C75 C24 1_555 1_555
C76 C42 1_555 1_555
S2 O3 1_555 1_555
O4 S2 1_555 1_555
N2 S2 1_555 1_555
C77 S2 1_555 1_555
C78 C91 1_555 1_555
C79 C81 1_555 1_555
C80 N2 1_555 1_555
C81 C80 1_555 1_555
C82 N2 1_555 1_555
C83 C79 1_555 1_555
H16 C83 1_555 1_555
C84 C89 1_555 1_555
C85 C77 1_555 1_555
H17 C85 1_555 1_555
C86 C94 1_555 1_555
C87 C90 1_555 1_555
C88 C97 1_555 1_555
C89 C95 1_555 1_555
C90 C93 1_555 1_555
C91 C93 1_555 1_555
C92 C99 1_555 1_555
C93 C96 1_555 1_555
C94 C90 1_555 1_555
C95 C87 1_555 1_555
C96 C81 1_555 1_555
C97 C86 1_555 1_555
C98 C111 1_555 1_555
C99 C113 1_555 1_555
C100 C91 1_555 1_555
C101 C86 1_555 1_555
C102 C84 1_555 1_555
C103 C78 1_555 1_555
C104 C80 1_555 1_555
H18 C104 1_555 1_555
H19 C104 1_555 1_555
C105 C113 1_555 1_555
C106 C77 1_555 1_555
H20 C106 1_555 1_555
C107 C83 1_555 1_555
H21 C107 1_555 1_555
C108 C100 1_555 1_555
C109 C101 1_555 1_555
C110 C82 1_555 1_555
H22 C110 1_555 1_555
C111 C128 1_555 1_555
C112 C88 1_555 1_555
H23 C112 1_555 1_555
C113 C98 1_555 1_555
C114 C107 1_555 1_555
H24 C114 1_555 1_555
C115 C127 1_555 1_555
C116 C84 1_555 1_555
C117 C123 1_555 1_555
C118 C96 1_555 1_555
H25 C118 1_555 1_555
C119 C92 1_555 1_555
C120 C122 1_555 1_555
C121 C94 1_555 1_555
C122 C98 1_555 1_555
C123 C106 1_555 1_555
H26 C123 1_555 1_555
C124 C127 1_555 1_555
C125 C92 1_555 1_555
C126 C109 1_555 1_555
C127 C144 1_555 1_555
C128 C120 1_555 1_555
C129 C112 1_555 1_555
C130 C97 1_555 1_555
C131 C132 1_555 1_555
C132 C89 1_555 1_555
C133 C78 1_555 1_555
C134 C99 1_555 1_555
C135 C120 1_555 1_555
C136 C85 1_555 1_555
H27 C136 1_555 1_555
C137 C122 1_555 1_555
C138 C88 1_555 1_555
C139 C111 1_555 1_555
C140 C115 1_555 1_555
C141 C140 1_555 1_555
C142 C108 1_555 1_555
C143 C118 1_555 1_555
C144 C133 1_555 1_555
C145 C125 1_555 1_555
C146 C116 1_555 1_555
C147 C115 1_555 1_555
C148 C103 1_555 1_555
C149 C134 1_555 1_555
C150 C124 1_555 1_555
C151 C147 1_555 1_555
C152 C117 1_555 1_555
H28 C152 1_555 1_555
H29 C152 1_555 1_555
H30 C152 1_555 1_555
S3 C153 1_555 1_555
S4 C153 1_555 1_555
S5 C154 1_555 1_555
S6 C154 1_555 1_555
C2 C5 1_555 1_555
C6 C7 1_555 1_555
C10 C20 1_555 1_555
C14 C26 1_555 1_555
C19 C47 1_555 1_555
C21 C25 1_555 1_555
C21 C31 1_555 1_555
C27 C71 1_555 1_555
C32 C43 1_555 1_555
C35 C57 1_555 1_555
C36 C52 1_555 1_555
C36 C69 1_555 1_555
C38 C58 1_555 1_555
C38 C64 1_555 1_555
C39 C51 1_555 1_555
C41 C50 1_555 1_555
C47 C49 1_555 1_555
C48 C69 1_555 1_555
C49 C76 1_555 1_555
C51 C66 1_555 1_555
C52 C67 1_555 1_555
C53 C63 1_555 1_555
C55 C66 1_555 1_555
C56 C58 1_555 1_555
C59 C60 1_555 1_555
C59 C72 1_555 1_555
C60 C74 1_555 1_555
C61 C68 1_555 1_555
C62 C73 1_555 1_555
C63 C65 1_555 1_555
C65 C74 1_555 1_555
C67 C72 1_555 1_555
C68 C70 1_555 1_555
C70 C75 1_555 1_555
C71 C73 1_555 1_555
C75 C76 1_555 1_555
C79 C82 1_555 1_555
C87 C102 1_555 1_555
C95 C101 1_555 1_555
C96 C121 1_555 1_555
C100 C102 1_555 1_555
C103 C118 1_555 1_555
C104 C121 1_555 1_555
C105 C119 1_555 1_555
C105 C138 1_555 1_555
C108 C133 1_555 1_555
C109 C130 1_555 1_555
C110 C114 1_555 1_555
C112 C121 1_555 1_555
C116 C142 1_555 1_555
C117 C136 1_555 1_555
C119 C130 1_555 1_555
C124 C142 1_555 1_555
C125 C126 1_555 1_555
C126 C132 1_555 1_555
C128 C140 1_555 1_555
C129 C137 1_555 1_555
C129 C143 1_555 1_555
C131 C145 1_555 1_555
C131 C146 1_555 1_555
C134 C139 1_555 1_555
C135 C143 1_555 1_555
C135 C148 1_555 1_555
C137 C138 1_555 1_555
C139 C147 1_555 1_555
C141 C144 1_555 1_555
C141 C148 1_555 1_555
C145 C149 1_555 1_555
C146 C150 1_555 1_555
C149 C151 1_555 1_555
C150 C151 1_555 1_555

#END
