
#######################################################################
#
#                 Cambridge Crystallographic Data Centre
#                                CCDC 
#
#######################################################################
#
# If this CIF has been generated from an entry in the Cambridge 
# Structural Database, then it will include bibliographic, chemical, 
# crystal, experimental, refinement or atomic coordinate data resulting 
# from the CCDC's data processing and validation procedures.
#
#######################################################################

data_ECUYOT
_chemical_formula_moiety         'C17 H22 B10 N2 O2'
_chemical_name_systematic        
6-((1H-indole-2-carbonyl)oxy)-2-methyl-1-(pyridin-2-yl)-1,2-dicarba-closo-dodecaborane(9)
_symmetry_cell_setting           triclinic
_symmetry_space_group_name_H-M   'P -1'
_symmetry_Int_Tables_number      2
_space_group_name_Hall           '-P 1'
loop_
_symmetry_equiv_pos_site_id
_symmetry_equiv_pos_as_xyz
1 x,y,z
2 -x,-y,-z
_cell_length_a                   7.8102(18)
_cell_length_b                   10.484(2)
_cell_length_c                   14.408(3)
_cell_angle_alpha                101.922(5)
_cell_angle_beta                 101.787(4)
_cell_angle_gamma                102.815(4)
_cell_volume                     1086.2
_exptl_crystal_colour            colorless
_exptl_crystal_description       block
_cell_formula_units_Z            2
loop_
_atom_site_label
_atom_site_type_symbol
_atom_site_fract_x
_atom_site_fract_y
_atom_site_fract_z
O1 O 0.5595(2) 0.32859(13) 0.80785(10)
O2 O 0.7821(2) 0.47710(15) 0.93256(10)
N1 N 0.9679(3) 0.27217(18) 0.93946(11)
C1 C 0.8027(3) 0.25372(19) 0.87561(13)
C2 C 0.4798(2) 0.46032(18) 0.67153(13)
C3 C 0.7200(3) 0.3652(2) 0.87783(13)
C4 C 0.2929(2) 0.34548(18) 0.67175(15)
N2 N 0.2808(3) 0.1700(2) 0.53073(16)
C5 C 0.2696(3) 0.19720(19) 0.62269(17)
C6 C 0.8839(3) 0.06125(19) 0.83995(14)
C7 C 0.7462(3) 0.1255(2) 0.81407(15)
C8 C 1.0211(3) 0.1555(2) 0.91789(13)
C9 C 0.6206(4) 0.4110(3) 0.6268(2)
C10 C 0.9067(4) -0.0680(2) 0.80406(18)
B1 B 0.4623(3) 0.4186(2) 0.78175(16)
C11 C 1.1796(4) 0.1261(3) 0.96078(18)
C12 C 0.2384(3) 0.1002(2) 0.6738(2)
B2 B 0.5489(3) 0.5878(2) 0.77713(17)
C13 C 1.1973(4) -0.0005(3) 0.9240(2)
C14 C 1.0614(4) -0.0964(3) 0.8473(2)
B3 B 0.3717(4) 0.6671(3) 0.7740(2)
C15 C 0.2335(4) -0.0630(3) 0.5337(3)
C16 C 0.2208(4) -0.0327(3) 0.6274(3)
B4 B 0.4326(4) 0.6092(2) 0.6649(2)
B5 B 0.2287(4) 0.3928(2) 0.7769(2)
C17 C 0.2607(4) 0.0382(4) 0.4872(3)
B6 B 0.2735(4) 0.4533(3) 0.5964(2)
B7 B 0.3904(4) 0.5490(3) 0.8463(2)
B8 B 0.1139(4) 0.4133(3) 0.6650(3)
B9 B 0.1745(4) 0.5455(3) 0.7741(3)
B10 B 0.2019(4) 0.5834(3) 0.6639(3)
H1 H 0.165(3) 0.307(2) 0.8035(15)
H2 H 0.407(3) 0.780(2) 0.8077(13)
H3 H 0.632(3) 0.088(2) 0.7632(15)
H4 H 0.686(3) 0.6309(18) 0.8049(13)
H5 H 0.516(3) 0.673(2) 0.6278(15)
H6 H 0.433(3) 0.580(2) 0.9263(17)
H7 H -0.022(4) 0.343(2) 0.6264(17)
H8 H 0.723(4) 0.487(3) 0.637(2)
H9 H 0.806(4) -0.139(2) 0.7474(17)
H10 H 0.665(6) 0.345(4) 0.663(3)
H11 H 0.571(5) 0.376(3) 0.556(3)
H12 H 0.252(3) 0.414(2) 0.5192(17)
H13 H 1.279(4) 0.197(3) 1.0110(19)
H14 H 1.317(4) -0.020(3) 0.9526(19)
H15 H 1.082(4) -0.185(3) 0.8234(17)
H16 H 0.247(4) 0.130(2) 0.7467(19)
H17 H 1.042(4) 0.360(3) 0.9850(18)
H18 H 0.066(4) 0.569(3) 0.806(2)
H19 H 0.130(4) 0.631(3) 0.6240(19)
H20 H 0.217(4) -0.153(3) 0.5009(19)
H21 H 0.271(4) 0.025(3) 0.422(2)
H22 H 0.204(4) -0.103(3) 0.662(2)
loop_
_geom_bond_atom_site_label_1
_geom_bond_atom_site_label_2
_geom_bond_site_symmetry_1
_geom_bond_site_symmetry_2
O1 C3 1_555 1_555
O2 C3 1_555 1_555
N1 C1 1_555 1_555
C1 C3 1_555 1_555
C2 C4 1_555 1_555
C4 C5 1_555 1_555
N2 C5 1_555 1_555
C5 C12 1_555 1_555
C6 C7 1_555 1_555
C7 C1 1_555 1_555
C8 N1 1_555 1_555
C9 C2 1_555 1_555
C10 C6 1_555 1_555
B1 O1 1_555 1_555
C11 C8 1_555 1_555
C12 C16 1_555 1_555
B2 C2 1_555 1_555
C13 C11 1_555 1_555
C14 C10 1_555 1_555
B3 B2 1_555 1_555
C15 C16 1_555 1_555
C16 H22 1_555 1_555
B4 C2 1_555 1_555
B5 C4 1_555 1_555
C17 N2 1_555 1_555
B6 C2 1_555 1_555
B7 B1 1_555 1_555
B8 C4 1_555 1_555
B9 B3 1_555 1_555
B10 B3 1_555 1_555
H1 B5 1_555 1_555
H2 B3 1_555 1_555
H3 C7 1_555 1_555
H4 B2 1_555 1_555
H5 B4 1_555 1_555
H6 B7 1_555 1_555
H7 B8 1_555 1_555
H8 C9 1_555 1_555
H9 C10 1_555 1_555
H10 C9 1_555 1_555
H11 C9 1_555 1_555
H12 B6 1_555 1_555
H13 C11 1_555 1_555
H14 C13 1_555 1_555
H15 C14 1_555 1_555
H16 C12 1_555 1_555
H17 N1 1_555 1_555
H18 B9 1_555 1_555
H19 B10 1_555 1_555
H20 C15 1_555 1_555
H21 C17 1_555 1_555
C2 B1 1_555 1_555
C4 B1 1_555 1_555
C4 B6 1_555 1_555
C6 C8 1_555 1_555
B1 B2 1_555 1_555
B1 B5 1_555 1_555
B2 B4 1_555 1_555
B2 B7 1_555 1_555
C13 C14 1_555 1_555
B3 B4 1_555 1_555
B3 B7 1_555 1_555
C15 C17 1_555 1_555
B4 B6 1_555 1_555
B4 B10 1_555 1_555
B5 B7 1_555 1_555
B5 B8 1_555 1_555
B5 B9 1_555 1_555
B6 B8 1_555 1_555
B6 B10 1_555 1_555
B7 B9 1_555 1_555
B8 B9 1_555 1_555
B8 B10 1_555 1_555
B9 B10 1_555 1_555

#END
