
#######################################################################
#
#                 Cambridge Crystallographic Data Centre
#                                CCDC 
#
#######################################################################
#
# If this CIF has been generated from an entry in the Cambridge 
# Structural Database, then it will include bibliographic, chemical, 
# crystal, experimental, refinement or atomic coordinate data resulting 
# from the CCDC's data processing and validation procedures.
#
#######################################################################

data_EDAJOK
_chemical_formula_moiety         'C45 H34 N4 O4'
_chemical_name_systematic        
"Dimethyl 4,4'-((4-(2-(4-(2,2':6',2''-terpyridin-4'-yl)phenyl)vinyl)phenyl)imino)dibenzoate"
_symmetry_cell_setting           monoclinic
_symmetry_space_group_name_H-M   'P 21/c'
_symmetry_Int_Tables_number      14
_space_group_name_Hall           '-P 2ybc'
loop_
_symmetry_equiv_pos_site_id
_symmetry_equiv_pos_as_xyz
1 x,y,z
2 -x,1/2+y,1/2-z
3 -x,-y,-z
4 x,1/2-y,1/2+z
_cell_length_a                   16.892(8)
_cell_length_b                   19.541(7)
_cell_length_c                   11.714(8)
_cell_angle_alpha                90
_cell_angle_beta                 108.830(7)
_cell_angle_gamma                90
_cell_volume                     3659.69
_cell_formula_units_Z            4
loop_
_atom_site_label
_atom_site_type_symbol
_atom_site_fract_x
_atom_site_fract_y
_atom_site_fract_z
N1 N 0.55257(19) 0.16628(16) -0.0657(3)
N2 N 0.0668(2) 0.18181(16) 0.8102(3)
O1 O -0.2195(2) 0.40081(15) 0.5944(3)
C1 C 0.4927(2) 0.11963(19) -0.0743(3)
C2 C 0.4317(2) 0.1519(2) 0.2026(3)
C3 C 0.5742(2) 0.2073(2) 0.0310(3)
O2 O 0.0366(2) 0.02044(15) 1.2625(3)
C4 C 0.0750(3) 0.13859(19) 0.9098(3)
C5 C 0.0057(2) 0.2354(2) 0.7850(4)
C6 C 0.1225(2) 0.1792(2) 0.7420(3)
C7 C 0.5375(2) 0.20301(19) 0.1199(3)
H1 H 0.5544 0.2324 0.1859
N3 N 0.4137(2) 0.0270(2) -0.1918(3)
C8 C 0.0911(3) 0.0590(2) 1.1139(4)
C9 C 0.4753(2) 0.1551(2) 0.1116(3)
C10 C -0.1121(2) 0.3403(2) 0.7339(4)
C11 C 0.6724(2) 0.2647(2) -0.0571(4)
H2 H 0.6588 0.2328 -0.1193
C12 C 0.4690(3) 0.0769(2) -0.1858(3)
O3 O -0.1795(2) 0.43617(17) 0.7866(3)
N4 N 0.6574(2) 0.3025(2) 0.1281(4)
C13 C 0.4529(2) 0.11263(19) 0.0108(3)
H3 H 0.4114 0.0798 0.0010
C14 C 0.5013(3) 0.0900(2) -0.2780(4)
H4 H 0.5400 0.1249 -0.2711
C15 C 0.1507(3) 0.1087(2) 0.9733(4)
H5 H 0.1970 0.1155 0.9480
C16 C 0.6379(2) 0.2604(2) 0.0341(4)
C17 C -0.0551(3) 0.3334(2) 0.8472(4)
H6 H -0.0562 0.3641 0.9074
O4 O 0.1677(2) -0.00914(19) 1.2802(3)
C18 C -0.1099(2) 0.2948(2) 0.6459(4)
H7 H -0.1479 0.2991 0.5686
C19 C 0.0146(3) 0.0875(2) 1.0489(4)
H8 H -0.0316 0.0801 1.0740
C20 C 0.0062(3) 0.1264(2) 0.9481(4)
H9 H -0.0457 0.1447 0.9052
C21 C -0.1735(3) 0.3977(2) 0.7097(5)
C22 C 0.3544(3) 0.0892(3) 0.3074(4)
H10 H 0.3315 0.0479 0.3206
C23 C -0.0514(3) 0.2426(2) 0.6714(4)
H11 H -0.0506 0.2120 0.6109
C24 C 0.1582(3) 0.0694(2) 1.0731(4)
H12 H 0.2094 0.0492 1.1140
C25 C 0.1044(4) 0.0202(2) 1.2270(5)
C26 C 0.1530(2) 0.2391(2) 0.7098(4)
H13 H 0.1384 0.2808 0.7357
C27 C 0.2802(3) 0.1829(3) 0.5185(5)
H14 H 0.3042 0.2255 0.5168
C28 C 0.2043(3) 0.2381(3) 0.6406(4)
H15 H 0.2244 0.2793 0.6212
C29 C 0.2271(3) 0.1783(3) 0.5988(4)
C30 C 0.0038(3) 0.2818(2) 0.8737(4)
H16 H 0.0422 0.2782 0.9508
C31 C 0.1460(3) 0.1176(2) 0.7044(4)
H17 H 0.1271 0.0766 0.7263
C32 C 0.1985(3) 0.1176(3) 0.6335(4)
H18 H 0.2147 0.0761 0.6090
C33 C 0.3960(2) 0.0915(2) 0.2253(3)
H19 H 0.4006 0.0520 0.1837
C34 C 0.3829(3) 0.2058(3) 0.3518(4)
H20 H 0.3799 0.2446 0.3960
C35 C 0.4249(3) 0.2088(3) 0.2679(4)
H21 H 0.4488 0.2498 0.2556
C36 C 0.7273(3) 0.3170(3) -0.0547(5)
H22 H 0.7504 0.3223 -0.1164
C37 C 0.2967(3) 0.1399(4) 0.4556(4)
H23 H 0.2756 0.0966 0.4612
C38 C 0.3453(3) 0.1455(3) 0.3708(4)
C39 C 0.4191(3) -0.0014(3) -0.3868(4)
H24 H 0.4009 -0.0292 -0.4547
C40 C 0.7470(3) 0.3610(3) 0.0415(6)
H25 H 0.7844 0.3968 0.0467
C41 C 0.4747(3) 0.0500(3) -0.3808(4)
H26 H 0.4946 0.0580 -0.4450
C42 C 0.3901(3) -0.0115(3) -0.2916(4)
H27 H 0.3522 -0.0468 -0.2965
C43 C 0.7115(3) 0.3520(3) 0.1290(5)
H28 H 0.7259 0.3823 0.1936
C44 C -0.2850(3) 0.4525(2) 0.5622(5)
H29 H -0.3240 0.4438 0.6048
H30 H -0.3138 0.4509 0.4769
H31 H -0.2606 0.4970 0.5837
C45 C 0.0465(3) -0.0147(3) 1.3747(4)
H32 H 0.0495 -0.0631 1.3629
H33 H -0.0004 -0.0047 1.4013
H34 H 0.0970 0.0005 1.4346
loop_
_geom_bond_atom_site_label_1
_geom_bond_atom_site_label_2
_geom_bond_site_symmetry_1
_geom_bond_site_symmetry_2
N1 C1 1_555 1_555
N2 C4 1_555 1_555
O1 C21 1_555 1_555
C1 C12 1_555 1_555
C2 C9 1_555 1_555
C3 N1 1_555 1_555
O2 C25 1_555 1_555
C4 C15 1_555 1_555
C5 N2 1_555 1_555
C6 N2 1_555 1_555
C7 C3 1_555 1_555
H1 C7 1_555 1_555
N3 C12 1_555 1_555
C8 C19 1_555 1_555
C9 C7 1_555 1_555
C10 C17 1_555 1_555
C11 H2 1_555 1_555
C12 C14 1_555 1_555
O3 C21 1_555 1_555
N4 C16 1_555 1_555
C13 C1 1_555 1_555
H3 C13 1_555 1_555
C14 H4 1_555 1_555
C15 H5 1_555 1_555
C16 C3 1_555 1_555
C17 H6 1_555 1_555
O4 C25 1_555 1_555
C18 C10 1_555 1_555
H7 C18 1_555 1_555
C19 H8 1_555 1_555
C20 C4 1_555 1_555
H9 C20 1_555 1_555
C21 C10 1_555 1_555
C22 H10 1_555 1_555
C23 C5 1_555 1_555
H11 C23 1_555 1_555
C24 C8 1_555 1_555
H12 C24 1_555 1_555
C25 C8 1_555 1_555
C26 C6 1_555 1_555
H13 C26 1_555 1_555
C27 H14 1_555 1_555
C28 C26 1_555 1_555
H15 C28 1_555 1_555
C29 C27 1_555 1_555
C30 C5 1_555 1_555
H16 C30 1_555 1_555
C31 C6 1_555 1_555
H17 C31 1_555 1_555
C32 C29 1_555 1_555
H18 C32 1_555 1_555
C33 C2 1_555 1_555
H19 C33 1_555 1_555
C34 H20 1_555 1_555
C35 C2 1_555 1_555
H21 C35 1_555 1_555
C36 C11 1_555 1_555
H22 C36 1_555 1_555
C37 C27 1_555 1_555
H23 C37 1_555 1_555
C38 C22 1_555 1_555
C39 H24 1_555 1_555
C40 C36 1_555 1_555
H25 C40 1_555 1_555
C41 C14 1_555 1_555
H26 C41 1_555 1_555
C42 N3 1_555 1_555
H27 C42 1_555 1_555
C43 N4 1_555 1_555
H28 C43 1_555 1_555
C44 O1 1_555 1_555
H29 C44 1_555 1_555
H30 C44 1_555 1_555
H31 C44 1_555 1_555
C45 O2 1_555 1_555
H32 C45 1_555 1_555
H33 C45 1_555 1_555
H34 C45 1_555 1_555
C9 C13 1_555 1_555
C11 C16 1_555 1_555
C15 C24 1_555 1_555
C17 C30 1_555 1_555
C18 C23 1_555 1_555
C19 C20 1_555 1_555
C22 C33 1_555 1_555
C28 C29 1_555 1_555
C31 C32 1_555 1_555
C34 C35 1_555 1_555
C34 C38 1_555 1_555
C37 C38 1_555 1_555
C39 C41 1_555 1_555
C39 C42 1_555 1_555
C40 C43 1_555 1_555

#END
