
#######################################################################
#
#                 Cambridge Crystallographic Data Centre
#                                CCDC 
#
#######################################################################
#
# If this CIF has been generated from an entry in the Cambridge 
# Structural Database, then it will include bibliographic, chemical, 
# crystal, experimental, refinement or atomic coordinate data resulting 
# from the CCDC's data processing and validation procedures.
#
#######################################################################

data_EDALUS
_chemical_formula_moiety         'C31 H33 O6 S2 Si1'
_chemical_name_systematic        
(E)-2-((S)-2-(t-Butyldimethylsilyloxy)-6-((S)-1-phenyl-2,2-bis(phenylsulfonyl)ethyl)cyclohex-2-enylidene)acetaldehyde
_symmetry_cell_setting           monoclinic
_symmetry_space_group_name_H-M   'P 21'
_symmetry_Int_Tables_number      4
_space_group_name_Hall           'P 2yb'
loop_
_symmetry_equiv_pos_site_id
_symmetry_equiv_pos_as_xyz
1 x,y,z
2 -x,1/2+y,-z
_cell_length_a                   8.39375(13)
_cell_length_b                   9.36061(12)
_cell_length_c                   21.2883(4)
_cell_angle_alpha                90
_cell_angle_beta                 97.9774(15)
_cell_angle_gamma                90
_cell_volume                     1656.45
_exptl_crystal_colour            'light colorless'
_exptl_crystal_description       plate
_cell_formula_units_Z            2
loop_
_atom_site_label
_atom_site_type_symbol
_atom_site_fract_x
_atom_site_fract_y
_atom_site_fract_z
S1 S 0.15523(6) 0.30715(6) 0.38039(3)
S2 S -0.14455(6) 0.49223(5) 0.33892(3)
Si1 Si -0.13228(8) 0.75340(7) 0.07327(3)
O1 O 0.29351(18) 0.26566(17) 0.35111(7)
C1 C 0.0607(2) 0.4422(2) 0.32625(10)
H1 H 0.0471 0.3952 0.2837
O2 O -0.06920(19) 0.66353(18) 0.13895(8)
O3 O 0.17715(19) 0.35851(17) 0.44406(7)
C2 C -0.0032(3) 0.0782(2) 0.32048(11)
H2 H 0.0528 0.0987 0.2857
C3 C -0.2650(2) 0.3671(2) 0.29121(11)
O4 O -0.17454(17) 0.62962(15) 0.30925(8)
O5 O 0.1336(2) 0.17127(19) 0.15582(9)
O6 O -0.16468(18) 0.47290(17) 0.40416(7)
C4 C 0.1098(3) 0.4194(3) 0.16877(11)
H3 H 0.0348 0.4267 0.1311
C5 C 0.4251(3) 0.5861(2) 0.40061(11)
H4 H 0.4716 0.5120 0.3787
C6 C 0.1713(3) 0.2784(3) 0.18631(11)
H5 H 0.2458 0.2692 0.2240
C7 C 0.1691(2) 0.5762(2) 0.31874(10)
H6 H 0.0920 0.6552 0.3048
C8 C 0.1353(3) 0.8048(3) 0.19845(11)
H7 H 0.0796 0.8889 0.1831
C9 C 0.0193(3) 0.1622(2) 0.37489(11)
C10 C -0.0578(3) 0.1318(2) 0.42689(12)
H8 H -0.0389 0.1888 0.4641
C11 C 0.2690(2) 0.6306(2) 0.37948(10)
C12 C -0.1086(3) -0.0358(2) 0.31793(12)
H9 H -0.1272 -0.0934 0.2809
C13 C -0.4414(3) 0.1664(2) 0.28000(13)
H10 H -0.5034 0.0966 0.2981
C14 C -0.3527(2) 0.2655(2) 0.31908(11)
H11 H -0.3522 0.2635 0.3637
C15 C 0.2669(2) 0.5530(2) 0.26203(10)
H12 H 0.3309 0.4629 0.2688
C16 C 0.1491(3) 0.5414(2) 0.20098(11)
C17 C -0.1628(3) 0.0169(2) 0.42364(12)
H13 H -0.2177 -0.0047 0.4586
C18 C 0.4468(3) 0.7559(3) 0.48622(11)
H14 H 0.5081 0.7988 0.5222
C19 C 0.5135(3) 0.6485(2) 0.45316(11)
H15 H 0.6205 0.6176 0.4667
C20 C 0.2014(3) 0.7385(2) 0.41323(10)
H16 H 0.0944 0.7697 0.3997
C21 C 0.0740(3) 0.6779(3) 0.17920(11)
C22 C -0.1875(3) -0.0659(2) 0.36975(12)
H17 H -0.2594 -0.1447 0.3679
C23 C -0.3213(3) 0.6594(3) 0.03869(12)
C24 C -0.2672(3) 0.3741(3) 0.22599(12)
H18 H -0.2101 0.4471 0.2076
C25 C 0.3802(3) 0.6788(3) 0.25366(12)
H19 H 0.4618 0.6866 0.2918
H20 H 0.4372 0.6599 0.2168
C26 C 0.2891(3) 0.8194(3) 0.24346(12)
H21 H 0.2640 0.8548 0.2848
H22 H 0.3587 0.8910 0.2265
C27 C 0.2906(3) 0.7999(3) 0.46643(11)
H23 H 0.2440 0.8723 0.4893
C28 C -0.3753(3) 0.7064(4) -0.02895(14)
H24 H -0.2956 0.6762 -0.0558
H25 H -0.3857 0.8106 -0.0304
H26 H -0.4795 0.6627 -0.0444
C29 C -0.3546(3) 0.2726(3) 0.18807(13)
H27 H -0.3557 0.2744 0.1434
C30 C -0.4403(3) 0.1683(3) 0.21556(14)
H28 H -0.4985 0.0979 0.1896
C31 C -0.1413(8) 0.9467(6) 0.0716(3)
H29 H -0.2056 0.9804 0.1037
H30 H -0.1910 0.9786 0.0296
H31 H -0.0321 0.9858 0.0806
C32? C -0.2104(8) 0.9325(6) 0.1062(3)
H32? H -0.2676 0.9116 0.1423
H33? H -0.2837 0.9799 0.0728
H34? H -0.1189 0.9954 0.1201
C33? C -0.2580(7) 0.4996(6) 0.0229(3)
H35? H -0.1660 0.5080 -0.0007
H36? H -0.3450 0.4473 -0.0028
H37? H -0.2252 0.4480 0.0626
C34? C -0.3303(9) 0.5098(7) 0.0571(4)
H38? H -0.2543 0.4535 0.0362
H39? H -0.4397 0.4741 0.0442
H40? H -0.3028 0.5013 0.1032
C35? C 0.0255(6) 0.6935(7) 0.0183(3)
H41? H 0.1324 0.7286 0.0359
H42? H -0.0048 0.7330 -0.0243
H43? H 0.0275 0.5890 0.0159
C36? C 0.0219(7) 0.7863(7) 0.0279(3)
H44? H 0.0998 0.8526 0.0507
H45? H -0.0235 0.8284 -0.0128
H46? H 0.0758 0.6963 0.0204
C37? C -0.4497(6) 0.6445(10) 0.0781(3)
H47? H -0.4095 0.5907 0.1166
H48? H -0.5406 0.5933 0.0544
H49? H -0.4850 0.7394 0.0899
C38? C -0.4590(7) 0.7447(11) 0.0755(3)
H50? H -0.4203 0.7509 0.1210
H51? H -0.5606 0.6917 0.0689
H52? H -0.4762 0.8411 0.0580
loop_
_geom_bond_atom_site_label_1
_geom_bond_atom_site_label_2
_geom_bond_site_symmetry_1
_geom_bond_site_symmetry_2
S1 O1 1_555 1_555
S2 C1 1_555 1_555
Si1 O2 1_555 1_555
C1 S1 1_555 1_555
H1 C1 1_555 1_555
O2 C21 1_555 1_555
O3 S1 1_555 1_555
C2 H2 1_555 1_555
C3 S2 1_555 1_555
O4 S2 1_555 1_555
O5 C6 1_555 1_555
O6 S2 1_555 1_555
C4 H3 1_555 1_555
C5 H4 1_555 1_555
C6 C4 1_555 1_555
H5 C6 1_555 1_555
C7 C1 1_555 1_555
H6 C7 1_555 1_555
C8 H7 1_555 1_555
C9 S1 1_555 1_555
C10 C9 1_555 1_555
H8 C10 1_555 1_555
C11 C5 1_555 1_555
C12 C2 1_555 1_555
H9 C12 1_555 1_555
C13 H10 1_555 1_555
C14 C3 1_555 1_555
H11 C14 1_555 1_555
C15 C7 1_555 1_555
H12 C15 1_555 1_555
C16 C4 1_555 1_555
C17 C10 1_555 1_555
H13 C17 1_555 1_555
C18 H14 1_555 1_555
C19 C5 1_555 1_555
H15 C19 1_555 1_555
C20 C11 1_555 1_555
H16 C20 1_555 1_555
C21 C8 1_555 1_555
C22 C12 1_555 1_555
H17 C22 1_555 1_555
C23 Si1 1_555 1_555
C24 C3 1_555 1_555
H18 C24 1_555 1_555
C25 C15 1_555 1_555
H19 C25 1_555 1_555
H20 C25 1_555 1_555
C26 C8 1_555 1_555
H21 C26 1_555 1_555
H22 C26 1_555 1_555
C27 C18 1_555 1_555
H23 C27 1_555 1_555
C28 C23 1_555 1_555
H24 C28 1_555 1_555
H25 C28 1_555 1_555
H26 C28 1_555 1_555
C29 C24 1_555 1_555
H27 C29 1_555 1_555
C30 C13 1_555 1_555
H28 C30 1_555 1_555
C31 Si1 1_555 1_555
H29 C31 1_555 1_555
H30 C31 1_555 1_555
H31 C31 1_555 1_555
C2 C9 1_555 1_555
C7 C11 1_555 1_555
C13 C14 1_555 1_555
C15 C16 1_555 1_555
C16 C21 1_555 1_555
C17 C22 1_555 1_555
C18 C19 1_555 1_555
C20 C27 1_555 1_555
C25 C26 1_555 1_555
C29 C30 1_555 1_555

#END
