
#######################################################################
#
#                 Cambridge Crystallographic Data Centre
#                                CCDC 
#
#######################################################################
#
# If this CIF has been generated from an entry in the Cambridge 
# Structural Database, then it will include bibliographic, chemical, 
# crystal, experimental, refinement or atomic coordinate data resulting 
# from the CCDC's data processing and validation procedures.
#
#######################################################################

data_EDAROT
_chemical_formula_moiety         'C34 H26 I4 N2 O4'
_chemical_name_systematic        
4,7,11,14-tetraiodo-2,9-bis(pentan-3-yl)isoquinolino[4',5',6':6,5,10]anthra[2,1,9-def]isoquinoline-1,3,8,10(2H,9H)-tetrone
_symmetry_cell_setting           monoclinic
_symmetry_space_group_name_H-M   'P 21/c'
_symmetry_Int_Tables_number      14
_space_group_name_Hall           '-P 2ybc'
loop_
_symmetry_equiv_pos_site_id
_symmetry_equiv_pos_as_xyz
1 x,y,z
2 -x,1/2+y,1/2-z
3 -x,-y,-z
4 x,1/2-y,1/2+z
_cell_length_a                   18.7978(9)
_cell_length_b                   5.0125(2)
_cell_length_c                   18.4802(9)
_cell_angle_alpha                90
_cell_angle_beta                 116.925(6)
_cell_angle_gamma                90
_cell_volume                     1552.52
_exptl_crystal_colour            'light colorless'
_exptl_crystal_description       block
_cell_formula_units_Z            2
loop_
_atom_site_label
_atom_site_type_symbol
_atom_site_fract_x
_atom_site_fract_y
_atom_site_fract_z
I1 I 0.75834(2) 1.20902(8) 0.06192(2)
I2 I 0.60670(2) 0.06435(9) 0.31648(2)
O1 O 0.7594(3) 0.3326(10) 0.3480(3)
O2 O 0.8096(3) 1.0597(10) 0.2329(3)
N1 N 0.7829(3) 0.7051(11) 0.2935(3)
C1 C 0.6587(4) 0.4548(13) 0.2185(4)
C2 C 0.6127(4) 0.8838(13) 0.0055(4)
H1 H 0.6041 0.9784 -0.0423
C3 C 0.6965(4) 0.8023(12) 0.1487(4)
C4 C 0.6816(4) 0.9337(13) 0.0774(4)
C5 C 0.5708(4) 0.5521(13) 0.0738(4)
C6 C 0.5162(4) 0.3556(12) 0.0728(4)
C7 C 0.5567(4) 0.6996(12) 0.0024(4)
C8 C 0.5331(4) 0.2203(13) 0.1439(4)
H2 H 0.4967 0.0893 0.1442
C9 C 0.6023(4) 0.2714(12) 0.2152(4)
C10 C 0.7369(4) 0.4882(13) 0.2915(4)
C11 C 0.7667(4) 0.8692(13) 0.2271(4)
C12 C 0.6419(4) 0.6053(12) 0.1472(4)
C13 C 0.9027(4) 0.9377(15) 0.5124(4)
H3 H 0.8966 1.1244 0.4949
H4 H 0.9569 0.8772 0.5259
H5 H 0.8935 0.9219 0.5604
C14 C 0.8578(4) 0.7625(14) 0.3694(4)
H6 H 0.8752 0.9462 0.3634
C15 C 0.8427(4) 0.7668(14) 0.4445(4)
H7 H 0.7883 0.8362 0.4287
H8 H 0.8452 0.5821 0.4645
C16 C 0.9244(4) 0.5722(15) 0.3773(4)
H9 H 0.9717 0.6066 0.4298
H10 H 0.9068 0.3870 0.3786
C17 C 0.9493(5) 0.5943(19) 0.3097(5)
H11 H 0.9048 0.5398 0.2581
H12 H 0.9953 0.4780 0.3219
H13 H 0.9639 0.7794 0.3055
I1B I 0.24166(2) -0.20902(8) -0.06192(2)
I2B I 0.39330(2) 0.93565(9) -0.31648(2)
O1B O 0.2406(3) 0.6674(10) -0.3480(3)
O2B O 0.1904(3) -0.0597(10) -0.2329(3)
N1B N 0.2171(3) 0.2949(11) -0.2935(3)
C1B C 0.3413(4) 0.5452(13) -0.2185(4)
C2B C 0.3873(4) 0.1162(13) -0.0055(4)
H1B H 0.3959 0.0216 0.0423
C3B C 0.3035(4) 0.1977(12) -0.1487(4)
C4B C 0.3184(4) 0.0663(13) -0.0774(4)
C5B C 0.4292(4) 0.4479(13) -0.0738(4)
C6B C 0.4838(4) 0.6444(12) -0.0728(4)
C7B C 0.4433(4) 0.3004(12) -0.0024(4)
C8B C 0.4669(4) 0.7797(13) -0.1439(4)
H2B H 0.5033 0.9107 -0.1442
C9B C 0.3977(4) 0.7286(12) -0.2152(4)
C10B C 0.2631(4) 0.5118(13) -0.2915(4)
C11B C 0.2333(4) 0.1308(13) -0.2271(4)
C12B C 0.3581(4) 0.3947(12) -0.1472(4)
C13B C 0.0973(4) 0.0623(15) -0.5124(4)
H3B H 0.1034 -0.1244 -0.4949
H4B H 0.0431 0.1228 -0.5259
H5B H 0.1065 0.0781 -0.5604
C14B C 0.1422(4) 0.2375(14) -0.3694(4)
H6B H 0.1248 0.0538 -0.3634
C15B C 0.1573(4) 0.2332(14) -0.4445(4)
H7B H 0.2117 0.1638 -0.4287
H8B H 0.1548 0.4179 -0.4645
C16B C 0.0756(4) 0.4278(15) -0.3773(4)
H9B H 0.0283 0.3934 -0.4298
H10B H 0.0932 0.6130 -0.3786
C17B C 0.0507(5) 0.4057(19) -0.3097(5)
H11B H 0.0952 0.4602 -0.2581
H12B H 0.0047 0.5220 -0.3219
H13B H 0.0361 0.2206 -0.3055
loop_
_geom_bond_atom_site_label_1
_geom_bond_atom_site_label_2
_geom_bond_site_symmetry_1
_geom_bond_site_symmetry_2
I1 C4 1_555 1_555
I2 C9 1_555 1_555
O1 C10 1_555 1_555
O2 C11 1_555 1_555
N1 C10 1_555 1_555
C1 C9 1_555 1_555
C2 H1 1_555 1_555
C3 C4 1_555 1_555
C4 C2 1_555 1_555
C5 C6 1_555 1_555
C6 C8 1_555 1_555
C7 C2 1_555 1_555
C8 H2 1_555 1_555
C9 C8 1_555 1_555
C10 C1 1_555 1_555
C11 N1 1_555 1_555
C12 C1 1_555 1_555
C13 H3 1_555 1_555
H4 C13 1_555 1_555
H5 C13 1_555 1_555
C14 N1 1_555 1_555
H6 C14 1_555 1_555
C15 C13 1_555 1_555
H7 C15 1_555 1_555
H8 C15 1_555 1_555
C16 C14 1_555 1_555
H9 C16 1_555 1_555
H10 C16 1_555 1_555
C17 C16 1_555 1_555
H11 C17 1_555 1_555
H12 C17 1_555 1_555
H13 C17 1_555 1_555
I1B C4B 1_555 1_555
I2B C9B 1_555 1_555
O1B C10B 1_555 1_555
O2B C11B 1_555 1_555
N1B C10B 1_555 1_555
C1B C9B 1_555 1_555
C2B H1B 1_555 1_555
C3B C4B 1_555 1_555
C4B C2B 1_555 1_555
C5B C6B 1_555 1_555
C6B C7 1_555 1_555
C7B C6 1_555 1_555
C8B C6B 1_555 1_555
H2B C8B 1_555 1_555
C9B C8B 1_555 1_555
C10B C1B 1_555 1_555
C11B N1B 1_555 1_555
C12B C1B 1_555 1_555
C13B H3B 1_555 1_555
H4B C13B 1_555 1_555
H5B C13B 1_555 1_555
C14B N1B 1_555 1_555
H6B C14B 1_555 1_555
C15B C13B 1_555 1_555
H7B C15B 1_555 1_555
H8B C15B 1_555 1_555
C16B C14B 1_555 1_555
H9B C16B 1_555 1_555
H10B C16B 1_555 1_555
C17B C16B 1_555 1_555
H11B C17B 1_555 1_555
H12B C17B 1_555 1_555
H13B C17B 1_555 1_555
C3 C11 1_555 1_555
C3 C12 1_555 1_555
C5 C7 1_555 1_555
C5 C12 1_555 1_555
C14 C15 1_555 1_555
C2B C7B 1_555 1_555
C3B C11B 1_555 1_555
C3B C12B 1_555 1_555
C5B C7B 1_555 1_555
C5B C12B 1_555 1_555
C14B C15B 1_555 1_555

#END
