
#######################################################################
#
#                 Cambridge Crystallographic Data Centre
#                                CCDC 
#
#######################################################################
#
# If this CIF has been generated from an entry in the Cambridge 
# Structural Database, then it will include bibliographic, chemical, 
# crystal, experimental, refinement or atomic coordinate data resulting 
# from the CCDC's data processing and validation procedures.
#
#######################################################################

data_EDAWAH
_chemical_formula_moiety         'C10 F8,C10 H10 N2'
_chemical_name_systematic        'Octafluoronaphthalene 1,8-diaminonaphthalene'
_symmetry_cell_setting           monoclinic
_symmetry_space_group_name_H-M   'P 21'
_symmetry_Int_Tables_number      4
_space_group_name_Hall           'P 2yb'
loop_
_symmetry_equiv_pos_site_id
_symmetry_equiv_pos_as_xyz
1 x,y,z
2 -x,1/2+y,-z
_cell_length_a                   7.3090(10)
_cell_length_b                   8.5410(10)
_cell_length_c                   13.4120(10)
_cell_angle_alpha                90
_cell_angle_beta                 96.890(10)
_cell_angle_gamma                90
_cell_volume                     831.213
_exptl_crystal_colour            colorless
_exptl_crystal_description       prism
_chemical_melting_point          460-463K
_cell_formula_units_Z            2
loop_
_atom_site_label
_atom_site_type_symbol
_atom_site_fract_x
_atom_site_fract_y
_atom_site_fract_z
C1 C 0.4880(3) 0.6679(2) 0.14591(15)
C2 C 0.5736(3) 0.7814(2) 0.20627(16)
C3 C 0.6344(3) 0.7500(2) 0.30716(16)
C4 C 0.6113(3) 0.6045(2) 0.34654(15)
C5 C 0.4895(3) 0.3325(2) 0.32491(15)
C6 C 0.4026(3) 0.2189(2) 0.26514(17)
C7 C 0.3439(3) 0.2495(2) 0.16366(16)
C8 C 0.3687(3) 0.3944(2) 0.12439(15)
C9 C 0.4582(3) 0.5159(2) 0.18366(14)
C10 C 0.5216(3) 0.4835(2) 0.28690(15)
F1 F 0.43168(17) 0.70269(16) 0.04966(9)
F2 F 0.60029(17) 0.92489(15) 0.17016(9)
F3 F 0.71630(17) 0.86499(15) 0.36456(9)
F4 F 0.67412(18) 0.57857(16) 0.44334(9)
F5 F 0.54090(18) 0.29900(15) 0.42232(9)
F6 F 0.37167(17) 0.07699(15) 0.30315(10)
F7 F 0.26213(17) 0.13435(15) 0.10652(10)
F8 F 0.30499(17) 0.41987(16) 0.02788(8)
C11 C -0.0138(3) 0.3281(2) 0.32066(16)
C12 C -0.0915(3) 0.2169(3) 0.25333(17)
H1 H -0.115(4) 0.117(4) 0.282(2)
C13 C -0.1409(3) 0.2532(3) 0.15134(17)
H2 H -0.195(4) 0.178(4) 0.107(2)
C14 C -0.1175(3) 0.4012(3) 0.11670(17)
H3 H -0.149(4) 0.424(4) 0.049(2)
C15 C -0.0126(3) 0.6747(3) 0.14585(18)
H4 H -0.055(4) 0.698(4) 0.079(2)
C16 C 0.0673(3) 0.7881(3) 0.20902(19)
H5 H 0.074(4) 0.895(4) 0.183(2)
C17 C 0.1338(3) 0.7522(3) 0.30868(19)
H6 H 0.196(4) 0.827(4) 0.356(2)
C18 C 0.1183(3) 0.6029(2) 0.34760(16)
C19 C 0.0226(3) 0.4834(2) 0.28554(16)
C20 C -0.0364(3) 0.5194(2) 0.18235(15)
N1 N 0.0334(3) 0.2868(2) 0.42147(15)
H7 H 0.003(4) 0.360(3) 0.468(2)
H8 H -0.028(4) 0.193(4) 0.435(2)
N2 N 0.1944(3) 0.5725(3) 0.44685(15)
H9 H 0.232(4) 0.474(4) 0.454(3)
H10 H 0.286(4) 0.647(4) 0.470(2)
loop_
_geom_bond_atom_site_label_1
_geom_bond_atom_site_label_2
_geom_bond_site_symmetry_1
_geom_bond_site_symmetry_2
C1 C2 1_555 1_555
C2 C3 1_555 1_555
C3 C4 1_555 1_555
C4 C10 1_555 1_555
C5 C6 1_555 1_555
C6 C7 1_555 1_555
C7 C8 1_555 1_555
C8 C9 1_555 1_555
C9 C1 1_555 1_555
C10 C5 1_555 1_555
F1 C1 1_555 1_555
F2 C2 1_555 1_555
F3 C3 1_555 1_555
F4 C4 1_555 1_555
F5 C5 1_555 1_555
F6 C6 1_555 1_555
F7 C7 1_555 1_555
F8 C8 1_555 1_555
C11 C12 1_555 1_555
C12 H1 1_555 1_555
C13 C12 1_555 1_555
H2 C13 1_555 1_555
C14 C13 1_555 1_555
H3 C14 1_555 1_555
C15 H4 1_555 1_555
C16 C15 1_555 1_555
H5 C16 1_555 1_555
C17 C16 1_555 1_555
H6 C17 1_555 1_555
C18 C17 1_555 1_555
C19 C11 1_555 1_555
C20 C14 1_555 1_555
N1 C11 1_555 1_555
H7 N1 1_555 1_555
H8 N1 1_555 1_555
N2 C18 1_555 1_555
H9 N2 1_555 1_555
H10 N2 1_555 1_555
C9 C10 1_555 1_555
C15 C20 1_555 1_555
C18 C19 1_555 1_555
C19 C20 1_555 1_555

#END
