
#######################################################################
#
#                 Cambridge Crystallographic Data Centre
#                                CCDC 
#
#######################################################################
#
# If this CIF has been generated from an entry in the Cambridge 
# Structural Database, then it will include bibliographic, chemical, 
# crystal, experimental, refinement or atomic coordinate data resulting 
# from the CCDC's data processing and validation procedures.
#
#######################################################################

data_EDEJUU
_chemical_formula_moiety         'C58 H76 B2 Li2 O12'
_chemical_name_systematic        
bis(\m~2~-2,2,3,3-tetramethyl-8,9-diphenyl-1,4,6-trioxa-5-boraspiro[4.4]non-8-en-7-one)-tetrakis(tetrahydrofuran)-di-lithium
_symmetry_cell_setting           monoclinic
_symmetry_space_group_name_H-M   'P 21/c'
_symmetry_Int_Tables_number      14
_space_group_name_Hall           '-P 2ybc'
loop_
_symmetry_equiv_pos_site_id
_symmetry_equiv_pos_as_xyz
1 x,y,z
2 -x,1/2+y,1/2-z
3 -x,-y,-z
4 x,1/2-y,1/2+z
_cell_length_a                   13.943(7)
_cell_length_b                   20.195(10)
_cell_length_c                   10.094(5)
_cell_angle_alpha                90
_cell_angle_beta                 99.507(11)
_cell_angle_gamma                90
_cell_volume                     2803.22
_exptl_crystal_colour            colorless
_exptl_crystal_description       block
_cell_formula_units_Z            2
loop_
_atom_site_label
_atom_site_type_symbol
_atom_site_fract_x
_atom_site_fract_y
_atom_site_fract_z
C1 C 0.4470(4) -0.00287(18) 0.8428(3)
C2 C 0.3775(3) 0.05343(16) 0.8093(3)
C3 C 0.2856(4) 0.03264(17) 0.8043(4)
C4 C 0.1969(3) 0.07293(18) 0.7668(5)
C5 C 0.1879(3) 0.13563(19) 0.8179(5)
H1 H 0.2399 0.1540 0.8796
C6 C 0.1032(4) 0.1720(2) 0.7797(7)
H2 H 0.0969 0.2143 0.8190
C7 C 0.0288(5) 0.1482(3) 0.6867(8)
H3 H -0.0284 0.1736 0.6603
C8 C 0.0385(5) 0.0864(3) 0.6319(8)
H4 H -0.0121 0.0695 0.5659
C9 C 0.1216(4) 0.0487(2) 0.6721(6)
H5 H 0.1268 0.0060 0.6345
C10 C 0.4159(3) 0.11996(16) 0.7784(4)
C11 C 0.4860(3) 0.15116(17) 0.8683(4)
H6 H 0.5115 0.1302 0.9509
C12 C 0.5198(3) 0.21322(18) 0.8391(4)
H7 H 0.5680 0.2349 0.9018
C13 C 0.4834(4) 0.2433(2) 0.7191(5)
H8 H 0.5067 0.2857 0.6986
C14 C 0.4136(5) 0.2122(2) 0.6291(5)
H9 H 0.3891 0.2328 0.5458
C15 C 0.3790(4) 0.15130(19) 0.6592(4)
H10 H 0.3293 0.1305 0.5975
C16 C 0.1957(4) -0.1411(2) 0.8237(7)
C17 C 0.2721(4) -0.19653(19) 0.8411(6)
H11 H 0.3323 -0.1802 0.8952
H12 H 0.2850 -0.2104 0.7527
H13 H 0.2476 -0.2343 0.8865
C18 C 0.1014(4) -0.1670(2) 0.7390(8)
H14 H 0.0523 -0.1318 0.7280
H15 H 0.0774 -0.2049 0.7845
H16 H 0.1144 -0.1808 0.6506
C19 C 0.1840(3) -0.1085(2) 0.9597(6)
C20 C 0.0887(4) -0.0692(2) 0.9514(8)
H17 H 0.0816 -0.0394 0.8738
H18 H 0.0902 -0.0432 1.0337
H19 H 0.0336 -0.1000 0.9414
C21 C 0.1943(4) -0.1551(2) 1.0790(6)
H20 H 0.1856 -0.1302 1.1596
H21 H 0.2591 -0.1752 1.0927
H22 H 0.1448 -0.1899 1.0619
O1 O 0.7018(6) 0.0554(6) 0.6997(11)
C22 C 0.6359(13) 0.0988(12) 0.6193(17)
H23 H 0.6261 0.1392 0.6709
H24 H 0.5721 0.0767 0.5935
C23 C 0.6757(7) 0.1164(5) 0.4998(11)
H25 H 0.6614 0.1631 0.4744
H26 H 0.6491 0.0875 0.4232
C24 C 0.7807(7) 0.1057(5) 0.5404(9)
H27 H 0.8125 0.1445 0.5891
H28 H 0.8127 0.0959 0.4622
C25 C 0.7815(6) 0.0475(4) 0.6299(10)
H29 H 0.7745 0.0061 0.5766
H30 H 0.8434 0.0456 0.6940
Li1 Li 0.6673(6) 0.0195(3) 0.8593(7)
B1 B 0.2891(4) -0.0453(2) 0.8477(5)
O2 O 0.3999(2) -0.05818(11) 0.8595(2)
O3 O 0.5355(2) -0.00081(12) 0.8520(3)
O4 O 0.2317(3) -0.08802(13) 0.7520(3)
O5 O 0.26342(19) -0.06147(11) 0.9788(3)
O6 O 0.7292(2) -0.06785(13) 0.8381(4)
C26 C 0.6803(9) -0.1209(6) 0.7760(16)
H31 H 0.6313 -0.1055 0.6999
H32 H 0.6459 -0.1446 0.8401
C27 C 0.7495(8) -0.1664(5) 0.7260(14)
H33 H 0.7630 -0.1524 0.6369
H34 H 0.7250 -0.2125 0.7203
C28 C 0.8390(6) -0.1592(4) 0.8339(11)
H35 H 0.8345 -0.1884 0.9114
H36 H 0.8988 -0.1702 0.7978
C29 C 0.8389(7) -0.0883(4) 0.8741(13)
H37 H 0.8798 -0.0615 0.8231
H38 H 0.8630 -0.0830 0.9714
C1B C 0.5530(4) 0.00287(18) 1.1572(3)
C2B C 0.6225(3) -0.05343(16) 1.1907(3)
C3B C 0.7144(4) -0.03264(17) 1.1957(4)
C4B C 0.8031(3) -0.07293(18) 1.2332(5)
C5B C 0.8121(3) -0.13563(19) 1.1821(5)
H1B H 0.7601 -0.1540 1.1204
C6B C 0.8968(4) -0.1720(2) 1.2203(7)
H2B H 0.9031 -0.2143 1.1810
C7B C 0.9712(5) -0.1482(3) 1.3133(8)
H3B H 1.0284 -0.1736 1.3397
C8B C 0.9615(5) -0.0864(3) 1.3681(8)
H4B H 1.0121 -0.0695 1.4341
C9B C 0.8784(4) -0.0487(2) 1.3279(6)
H5B H 0.8732 -0.0060 1.3655
C10B C 0.5841(3) -0.11996(16) 1.2216(4)
C11B C 0.5140(3) -0.15116(17) 1.1317(4)
H6B H 0.4885 -0.1302 1.0491
C12B C 0.4802(3) -0.21322(18) 1.1609(4)
H7B H 0.4320 -0.2349 1.0982
C13B C 0.5166(4) -0.2433(2) 1.2809(5)
H8B H 0.4933 -0.2857 1.3014
C14B C 0.5864(5) -0.2122(2) 1.3709(5)
H9B H 0.6109 -0.2328 1.4542
C15B C 0.6210(4) -0.15130(19) 1.3408(4)
H10B H 0.6707 -0.1305 1.4025
C16B C 0.8043(4) 0.1411(2) 1.1763(7)
C17B C 0.7279(4) 0.19653(19) 1.1589(6)
H11B H 0.6677 0.1802 1.1048
H12B H 0.7150 0.2104 1.2473
H13B H 0.7524 0.2343 1.1135
C18B C 0.8986(4) 0.1670(2) 1.2610(8)
H14B H 0.9477 0.1318 1.2720
H15B H 0.9226 0.2049 1.2155
H16B H 0.8856 0.1808 1.3494
C19B C 0.8160(3) 0.1085(2) 1.0403(6)
C20B C 0.9113(4) 0.0692(2) 1.0486(8)
H17B H 0.9184 0.0394 1.1262
H18B H 0.9098 0.0432 0.9663
H19B H 0.9664 0.1000 1.0586
C21B C 0.8057(4) 0.1551(2) 0.9210(6)
H20B H 0.8144 0.1302 0.8404
H21B H 0.7409 0.1752 0.9073
H22B H 0.8552 0.1899 0.9381
O1B O 0.2982(6) -0.0554(6) 1.3003(11)
C22B C 0.3641(13) -0.0988(12) 1.3807(17)
H23B H 0.3739 -0.1392 1.3291
H24B H 0.4279 -0.0767 1.4065
C23B C 0.3243(7) -0.1164(5) 1.5002(11)
H25B H 0.3386 -0.1631 1.5256
H26B H 0.3509 -0.0875 1.5768
C24B C 0.2193(7) -0.1057(5) 1.4596(9)
H27B H 0.1875 -0.1445 1.4109
H28B H 0.1873 -0.0959 1.5378
C25B C 0.2185(6) -0.0475(4) 1.3701(10)
H29B H 0.2255 -0.0061 1.4234
H30B H 0.1566 -0.0456 1.3060
Li1B Li 0.3327(6) -0.0195(3) 1.1407(7)
B1B B 0.7109(4) 0.0453(2) 1.1523(5)
O2B O 0.6001(2) 0.05818(11) 1.1405(2)
O3B O 0.4645(2) 0.00081(12) 1.1480(3)
O4B O 0.7683(3) 0.08802(13) 1.2480(3)
O5B O 0.73658(19) 0.06147(11) 1.0212(3)
O6B O 0.2708(2) 0.06785(13) 1.1619(4)
C26B C 0.3197(9) 0.1209(6) 1.2240(16)
H31B H 0.3687 0.1055 1.3001
H32B H 0.3541 0.1446 1.1599
C27B C 0.2505(8) 0.1664(5) 1.2740(14)
H33B H 0.2370 0.1524 1.3631
H34B H 0.2750 0.2125 1.2797
C28B C 0.1610(6) 0.1592(4) 1.1661(11)
H35B H 0.1655 0.1884 1.0886
H36B H 0.1012 0.1702 1.2022
C29B C 0.1611(7) 0.0883(4) 1.1259(13)
H37B H 0.1202 0.0615 1.1769
H38B H 0.1370 0.0830 1.0286
C30? C 0.6428(11) 0.1159(5) 0.5933(14)
C31? C 0.5674(8) 0.1141(4) 0.4722(9)
C32? C 0.5224(7) 0.0483(4) 0.4853(9)
C33? C 0.6052(7) 0.0094(4) 0.5559(8)
C34? C 0.6674(10) -0.1284(7) 0.8174(18)
C35? C 0.7326(9) -0.1779(6) 0.7660(17)
C36? C 0.8080(8) -0.1376(4) 0.7006(12)
C37? C 0.8070(8) -0.0732(4) 0.7674(14)
H39? H 0.7050 0.1310 0.5685
H40? H 0.6238 0.1481 0.6583
H41? H 0.5963 0.1170 0.3892
H42? H 0.5195 0.1503 0.4728
H43? H 0.4691 0.0510 0.5389
H44? H 0.4969 0.0290 0.3963
H45? H 0.5818 -0.0302 0.5990
H46? H 0.6480 -0.0052 0.4924
H47? H 0.6080 -0.1204 0.7508
H48? H 0.6485 -0.1435 0.9028
H49? H 0.6943 -0.2073 0.6987
H50? H 0.7662 -0.2054 0.8407
H51? H 0.8732 -0.1582 0.7191
H52? H 0.7874 -0.1335 0.6023
H53? H 0.8688 -0.0673 0.8304
H54? H 0.8023 -0.0376 0.6994
O7? O 0.6558(9) 0.0528(5) 0.6543(9)
loop_
_geom_bond_atom_site_label_1
_geom_bond_atom_site_label_2
_geom_bond_site_symmetry_1
_geom_bond_site_symmetry_2
C1 C2 1_555 1_555
C2 C3 1_555 1_555
C3 C4 1_555 1_555
C4 C5 1_555 1_555
C5 H1 1_555 1_555
C6 C5 1_555 1_555
H2 C6 1_555 1_555
C7 C6 1_555 1_555
H3 C7 1_555 1_555
C8 C7 1_555 1_555
H4 C8 1_555 1_555
C9 C4 1_555 1_555
H5 C9 1_555 1_555
C10 C2 1_555 1_555
C11 C10 1_555 1_555
H6 C11 1_555 1_555
C12 C11 1_555 1_555
H7 C12 1_555 1_555
C13 C12 1_555 1_555
H8 C13 1_555 1_555
C14 C13 1_555 1_555
H9 C14 1_555 1_555
C15 C10 1_555 1_555
H10 C15 1_555 1_555
C16 C17 1_555 1_555
C17 H11 1_555 1_555
H12 C17 1_555 1_555
H13 C17 1_555 1_555
C18 C16 1_555 1_555
H14 C18 1_555 1_555
H15 C18 1_555 1_555
H16 C18 1_555 1_555
C19 C16 1_555 1_555
C20 C19 1_555 1_555
H17 C20 1_555 1_555
H18 C20 1_555 1_555
H19 C20 1_555 1_555
C21 C19 1_555 1_555
H20 C21 1_555 1_555
H21 C21 1_555 1_555
H22 C21 1_555 1_555
O1 C22 1_555 1_555
C22 H23 1_555 1_555
H24 C22 1_555 1_555
C23 C22 1_555 1_555
H25 C23 1_555 1_555
H26 C23 1_555 1_555
C24 C23 1_555 1_555
H27 C24 1_555 1_555
H28 C24 1_555 1_555
C25 O1 1_555 1_555
H29 C25 1_555 1_555
H30 C25 1_555 1_555
Li1 O1 1_555 1_555
B1 C3 1_555 1_555
O2 C1 1_555 1_555
O3 C1 1_555 1_555
O4 C16 1_555 1_555
O5 C19 1_555 1_555
O6 Li1 1_555 1_555
C26 O6 1_555 1_555
H31 C26 1_555 1_555
H32 C26 1_555 1_555
C27 C26 1_555 1_555
H33 C27 1_555 1_555
H34 C27 1_555 1_555
C28 C27 1_555 1_555
H35 C28 1_555 1_555
H36 C28 1_555 1_555
C29 O6 1_555 1_555
H37 C29 1_555 1_555
H38 C29 1_555 1_555
C1B C2B 1_555 1_555
C2B C3B 1_555 1_555
C3B C4B 1_555 1_555
C4B C5B 1_555 1_555
C5B H1B 1_555 1_555
C6B C5B 1_555 1_555
H2B C6B 1_555 1_555
C7B C6B 1_555 1_555
H3B C7B 1_555 1_555
C8B C7B 1_555 1_555
H4B C8B 1_555 1_555
C9B C4B 1_555 1_555
H5B C9B 1_555 1_555
C10B C2B 1_555 1_555
C11B C10B 1_555 1_555
H6B C11B 1_555 1_555
C12B C11B 1_555 1_555
H7B C12B 1_555 1_555
C13B C12B 1_555 1_555
H8B C13B 1_555 1_555
C14B C13B 1_555 1_555
H9B C14B 1_555 1_555
C15B C10B 1_555 1_555
H10B C15B 1_555 1_555
C16B C17B 1_555 1_555
C17B H11B 1_555 1_555
H12B C17B 1_555 1_555
H13B C17B 1_555 1_555
C18B C16B 1_555 1_555
H14B C18B 1_555 1_555
H15B C18B 1_555 1_555
H16B C18B 1_555 1_555
C19B C16B 1_555 1_555
C20B C19B 1_555 1_555
H17B C20B 1_555 1_555
H18B C20B 1_555 1_555
H19B C20B 1_555 1_555
C21B C19B 1_555 1_555
H20B C21B 1_555 1_555
H21B C21B 1_555 1_555
H22B C21B 1_555 1_555
O1B C22B 1_555 1_555
C22B H23B 1_555 1_555
H24B C22B 1_555 1_555
C23B C22B 1_555 1_555
H25B C23B 1_555 1_555
H26B C23B 1_555 1_555
C24B C23B 1_555 1_555
H27B C24B 1_555 1_555
H28B C24B 1_555 1_555
C25B O1B 1_555 1_555
H29B C25B 1_555 1_555
H30B C25B 1_555 1_555
Li1B O5 1_555 1_555
B1B C3B 1_555 1_555
O2B C1B 1_555 1_555
O3B C1B 1_555 1_555
O4B C16B 1_555 1_555
O5B Li1 1_555 1_555
O6B Li1B 1_555 1_555
C26B O6B 1_555 1_555
H31B C26B 1_555 1_555
H32B C26B 1_555 1_555
C27B C26B 1_555 1_555
H33B C27B 1_555 1_555
H34B C27B 1_555 1_555
C28B C27B 1_555 1_555
H35B C28B 1_555 1_555
H36B C28B 1_555 1_555
C29B O6B 1_555 1_555
H37B C29B 1_555 1_555
H38B C29B 1_555 1_555
C8 C9 1_555 1_555
C14 C15 1_555 1_555
C24 C25 1_555 1_555
Li1 O3 1_555 1_555
B1 O2 1_555 1_555
B1 O4 1_555 1_555
B1 O5 1_555 1_555
C28 C29 1_555 1_555
C8B C9B 1_555 1_555
C14B C15B 1_555 1_555
C19B O5B 1_555 1_555
O1B Li1B 1_555 1_555
C24B C25B 1_555 1_555
Li1B O3B 1_555 1_555
B1B O2B 1_555 1_555
B1B O4B 1_555 1_555
B1B O5B 1_555 1_555
C28B C29B 1_555 1_555

#END
