
#######################################################################
#
#                 Cambridge Crystallographic Data Centre
#                                CCDC 
#
#######################################################################
#
# If this CIF has been generated from an entry in the Cambridge 
# Structural Database, then it will include bibliographic, chemical, 
# crystal, experimental, refinement or atomic coordinate data resulting 
# from the CCDC's data processing and validation procedures.
#
#######################################################################

data_EDEJAB
_chemical_formula_moiety         'C3 H7 N8 1+,C3 H1 N4 O4 1-,H2 O1'
_chemical_name_systematic        
'3,6,7-triamino-7H-[1,2,4]triazolo[4,3-b][1,2,4]triazol-2-ium 4,5-dinitroimidazol-1-ide monohydrate'
_symmetry_cell_setting           triclinic
_symmetry_space_group_name_H-M   'P -1'
_symmetry_Int_Tables_number      2
_space_group_name_Hall           '-P 1'
loop_
_symmetry_equiv_pos_site_id
_symmetry_equiv_pos_as_xyz
1 x,y,z
2 -x,-y,-z
_cell_length_a                   6.9967(5)
_cell_length_b                   9.5508(6)
_cell_length_c                   10.4083(7)
_cell_angle_alpha                79.688(5)
_cell_angle_beta                 74.117(6)
_cell_angle_gamma                80.828(5)
_cell_volume                     653.671
_exptl_crystal_colour            colorless
_exptl_crystal_description       block
_cell_formula_units_Z            2
loop_
_atom_site_label
_atom_site_type_symbol
_atom_site_fract_x
_atom_site_fract_y
_atom_site_fract_z
O1 O 0.6221(3) 0.30289(17) 0.1732(2)
O2 O 0.4097(3) 0.44144(18) 0.30010(18)
O3 O 0.5055(3) 0.87927(16) 0.25097(16)
O4 O 0.5117(3) 0.67230(17) 0.37369(16)
N1 N 0.5524(3) 0.42155(18) 0.20464(19)
N2 N 0.7481(3) 0.53050(18) -0.00553(17)
N3 N 0.7251(3) 0.76091(18) 0.03129(17)
N4 N 0.5405(3) 0.74817(19) 0.26332(18)
C1 C 0.6414(3) 0.5428(2) 0.1210(2)
C2 C 0.7945(3) 0.6645(2) -0.0540(2)
H1 H 0.8702 0.6886 -0.1417
C3 C 0.6271(3) 0.6830(2) 0.1437(2)
O5 O 0.8842(3) 0.40842(17) 0.4124(2)
H2 H 0.9248 0.4816 0.3582
H3 H 0.7951 0.4351 0.4801
N5 N 1.0132(3) 0.68437(17) 0.26396(17)
N6 N 1.1388(3) 0.71920(18) 0.13492(18)
H4 H 1.190(4) 0.647(3) 0.080(2)
N7 N 1.2581(3) 0.93081(18) -0.00987(18)
H5 H 1.3277 0.8860 -0.0753
H6 H 1.2550 1.0222 -0.0171
N8 N 1.0442(3) 0.91716(16) 0.21086(16)
N9 N 0.9888(3) 1.05288(17) 0.25198(17)
N10 N 0.7781(3) 1.11267(19) 0.45828(18)
H7 H 0.7919 1.2023 0.4360
H8 H 0.7038 1.0825 0.5358
N11 N 0.8489(3) 0.87579(17) 0.40966(16)
N12 N 0.7438(3) 0.8193(2) 0.53756(19)
H9 H 0.8218 0.7541 0.5731
H10 H 0.635(5) 0.782(3) 0.534(3)
C4 C 1.1564(3) 0.8595(2) 0.1013(2)
C5 C 0.8716(3) 1.0207(2) 0.3729(2)
C6 C 0.9631(3) 0.8101(2) 0.3036(2)
loop_
_geom_bond_atom_site_label_1
_geom_bond_atom_site_label_2
_geom_bond_site_symmetry_1
_geom_bond_site_symmetry_2
O1 N1 1_555 1_555
O2 N1 1_555 1_555
O3 N4 1_555 1_555
O4 N4 1_555 1_555
N1 C1 1_555 1_555
N2 C1 1_555 1_555
N3 C2 1_555 1_555
N4 C3 1_555 1_555
C1 C3 1_555 1_555
C2 N2 1_555 1_555
H1 C2 1_555 1_555
C3 N3 1_555 1_555
O5 H2 1_555 1_555
H3 O5 1_555 1_555
N5 N6 1_555 1_555
N6 H4 1_555 1_555
N7 H5 1_555 1_555
H6 N7 1_555 1_555
N8 N9 1_555 1_555
N9 C5 1_555 1_555
N10 H7 1_555 1_555
H8 N10 1_555 1_555
N11 N12 1_555 1_555
N12 H9 1_555 1_555
H10 N12 1_555 1_555
C4 N6 1_555 1_555
C5 N10 1_555 1_555
C6 N5 1_555 1_555
N7 C4 1_555 1_555
N8 C4 1_555 1_555
N8 C6 1_555 1_555
N11 C5 1_555 1_555
N11 C6 1_555 1_555

#END
