
#######################################################################
#
#                 Cambridge Crystallographic Data Centre
#                                CCDC 
#
#######################################################################
#
# If this CIF has been generated from an entry in the Cambridge 
# Structural Database, then it will include bibliographic, chemical, 
# crystal, experimental, refinement or atomic coordinate data resulting 
# from the CCDC's data processing and validation procedures.
#
#######################################################################

data_EDEKIJ
_chemical_formula_moiety         'C76 H104 B4 Li4 O20'
_chemical_name_systematic        
'bis(\m~3~-2,2,3,3-tetramethyl-8-phenyl-1,4,6-trioxa-5-boraspiro[4.4]non-8-en-7-one)-bis(\m~2~-2,2,3,3-tetramethyl-8-phenyl-1,4,6-trioxa-5-boraspiro[4.4]non-8-en-7-one)-tetrakis(tetrahydrofuran)-tetra-lithium unknown solvate'
_symmetry_cell_setting           monoclinic
_symmetry_space_group_name_H-M   'C 2/c'
_symmetry_Int_Tables_number      15
_space_group_name_Hall           '-C 2yn'
loop_
_symmetry_equiv_pos_site_id
_symmetry_equiv_pos_as_xyz
1 x,y,z
2 -x,y,1/2-z
3 1/2+x,1/2+y,z
4 1/2-x,1/2+y,1/2-z
5 -x,-y,-z
6 x,-y,1/2+z
7 1/2-x,1/2-y,-z
8 1/2+x,1/2-y,1/2+z
_cell_length_a                   47.510(7)
_cell_length_b                   17.784(3)
_cell_length_c                   19.386(3)
_cell_angle_alpha                90
_cell_angle_beta                 92.437(3)
_cell_angle_gamma                90
_cell_volume                     16364.8
_exptl_crystal_colour            colorless
_cell_formula_units_Z            8
loop_
_atom_site_label
_atom_site_type_symbol
_atom_site_fract_x
_atom_site_fract_y
_atom_site_fract_z
C1 C 0.12958(8) 0.0621(2) 0.56361(18)
C2 C 0.14155(7) -0.0134(2) 0.54832(17)
C3 C 0.17066(7) -0.0224(2) 0.52379(18)
C4 C 0.18235(8) 0.0286(2) 0.4789(2)
H1 H 0.1716 0.0704 0.4624
C5 C 0.20959(9) 0.0184(3) 0.4583(2)
H2 H 0.2174 0.0533 0.4275
C6 C 0.22527(9) -0.0411(3) 0.4816(2)
H3 H 0.2440 -0.0473 0.4674
C7 C 0.21396(9) -0.0922(3) 0.5257(2)
H4 H 0.2247 -0.1341 0.5419
C8 C 0.18677(8) -0.0819(2) 0.5462(2)
H5 H 0.1790 -0.1173 0.5767
C9 C 0.12242(8) -0.0658(2) 0.56173(18)
C10 C 0.05839(8) -0.0785(2) 0.6535(2)
C11 C 0.04225(9) -0.0607(3) 0.7171(2)
H6 H 0.0389 -0.0064 0.7195
H7 H 0.0532 -0.0770 0.7584
H8 H 0.0242 -0.0872 0.7146
C12 C 0.06369(9) -0.1618(2) 0.6473(2)
H9 H 0.0721 -0.1808 0.6909
H10 H 0.0766 -0.1710 0.6101
H11 H 0.0458 -0.1878 0.6369
C13 C 0.04558(8) -0.0440(3) 0.5868(2)
C14 C 0.03459(8) 0.0367(3) 0.5959(2)
H12 H 0.0491 0.0671 0.6201
H13 H 0.0176 0.0356 0.6228
H14 H 0.0301 0.0588 0.5504
C15 C 0.02297(8) -0.0922(3) 0.5503(2)
H15 H 0.0157 -0.0661 0.5087
H16 H 0.0076 -0.1008 0.5814
H17 H 0.0311 -0.1405 0.5374
C16 C 0.12479(8) 0.3854(2) 0.68961(19)
C17 C 0.12416(8) 0.4403(2) 0.6325(2)
C18 C 0.10274(9) 0.5027(3) 0.6221(2)
C19 C 0.09370(11) 0.5418(3) 0.6784(3)
H18 H 0.1002 0.5284 0.7237
C20 C 0.07450(13) 0.6026(4) 0.6676(4)
H19 H 0.0679 0.6297 0.7060
C21 C 0.06585(12) 0.6213(4) 0.6037(4)
H20 H 0.0525 0.6608 0.5973
C22 C 0.07497(11) 0.5875(3) 0.5496(4)
H21 H 0.0687 0.6024 0.5044
C23 C 0.09444(10) 0.5280(3) 0.5595(3)
H22 H 0.1020 0.5050 0.5201
C24 C 0.14634(8) 0.4290(2) 0.5936(2)
C25 C 0.21246(7) 0.3420(2) 0.60508(18)
C26 C 0.24043(7) 0.3274(3) 0.6425(2)
H23 H 0.2378 0.2921 0.6806
H24 H 0.2481 0.3748 0.6610
H25 H 0.2536 0.3057 0.6104
C27 C 0.21633(8) 0.3971(2) 0.54578(19)
H26 H 0.1981 0.4059 0.5214
H27 H 0.2296 0.3760 0.5137
H28 H 0.2237 0.4448 0.5642
C28 C 0.19612(7) 0.2705(2) 0.58130(19)
C29 C 0.19965(8) 0.2059(2) 0.6316(2)
H29 H 0.1956 0.2232 0.6781
H30 H 0.2191 0.1872 0.6314
H31 H 0.1866 0.1653 0.6179
C30 C 0.20215(8) 0.2434(3) 0.5091(2)
H32 H 0.1999 0.2853 0.4765
H33 H 0.1890 0.2031 0.4956
H34 H 0.2215 0.2243 0.5085
C31 C 0.15033(9) 0.3875(2) 0.8887(2)
C32 C 0.17054(8) 0.3910(2) 0.94996(18)
C33 C 0.16792(8) 0.3442(2) 1.01182(19)
C34 C 0.14161(9) 0.3231(2) 1.0351(2)
H35 H 0.1250 0.3382 1.0100
C35 C 0.13961(10) 0.2805(2) 1.0942(2)
H36 H 0.1216 0.2667 1.1095
C36 C 0.16350(13) 0.2578(3) 1.1313(2)
H37 H 0.1621 0.2286 1.1720
C37 C 0.18948(11) 0.2780(3) 1.1085(2)
H38 H 0.2061 0.2621 1.1333
C38 C 0.19151(8) 0.3207(2) 1.0505(2)
H39 H 0.2096 0.3347 1.0361
C39 C 0.19006(9) 0.4403(3) 0.9347(2)
C40 C 0.18988(12) 0.5895(3) 0.8006(3)
C41 C 0.19725(13) 0.6719(3) 0.8140(3)
H40 H 0.2125 0.6751 0.8497
H41 H 0.1806 0.6984 0.8297
H42 H 0.2034 0.6950 0.7713
C42 C 0.16587(12) 0.5852(3) 0.7441(3)
H43 H 0.1607 0.5325 0.7358
H44 H 0.1723 0.6075 0.7013
H45 H 0.1494 0.6129 0.7594
C43 C 0.21451(11) 0.5378(3) 0.7862(2)
C44 C 0.24059(10) 0.5546(3) 0.8322(3)
H46 H 0.2354 0.5564 0.8806
H47 H 0.2485 0.6031 0.8192
H48 H 0.2546 0.5150 0.8265
C45 C 0.22289(12) 0.5359(3) 0.7114(2)
H49 H 0.2062 0.5257 0.6813
H50 H 0.2369 0.4962 0.7055
H51 H 0.2309 0.5846 0.6991
C46 C 0.08759(8) 0.2331(2) 0.6424(2)
C47 C 0.05692(7) 0.2468(3) 0.64956(19)
C48 C 0.04006(8) 0.2906(2) 0.5955(2)
C49 C 0.04845(8) 0.3613(2) 0.5737(3)
H52 H 0.0653 0.3831 0.5925
C50 C 0.03214(11) 0.4002(3) 0.5243(3)
H53 H 0.0385 0.4474 0.5083
C51 C 0.00685(11) 0.3716(3) 0.4979(3)
H54 H -0.0046 0.3990 0.4653
C52 C -0.00104(9) 0.3011(3) 0.5211(3)
H55 H -0.0169 0.2763 0.5002
C53 C 0.01431(10) 0.2668(3) 0.5751(3)
H56 H 0.0063 0.2253 0.5981
C54 C 0.04953(8) 0.2172(2) 0.7105(2)
C55 C 0.09038(7) 0.1687(2) 0.87015(18)
C56 C 0.12211(8) 0.1559(2) 0.8766(2)
H57 H 0.1287 0.1361 0.8330
H58 H 0.1264 0.1198 0.9137
H59 H 0.1316 0.2037 0.8873
C57 C 0.07991(8) 0.2001(2) 0.93673(17)
H60 H 0.0595 0.2080 0.9320
H61 H 0.0893 0.2482 0.9470
H62 H 0.0842 0.1646 0.9744
C58 C 0.07435(8) 0.0977(2) 0.84315(19)
C59 C 0.04286(8) 0.1013(3) 0.8564(2)
H63 H 0.0351 0.1491 0.8392
H64 H 0.0401 0.0975 0.9061
H65 H 0.0331 0.0596 0.8325
C60 C 0.08668(9) 0.0236(2) 0.8692(2)
H66 H 0.0755 -0.0181 0.8498
H67 H 0.0864 0.0222 0.9197
H68 H 0.1061 0.0190 0.8549
C61 C 0.14228(10) -0.0657(3) 0.7465(3)
H69 H 0.1352 -0.0980 0.7080
H70 H 0.1329 -0.0806 0.7890
C62 C 0.1774(3) -0.0726(9) 0.7575(12)
H71 H 0.1834 -0.1071 0.7955
H72 H 0.1867 -0.0864 0.7146
C63 C 0.1813(3) 0.0130(6) 0.7772(11)
H73 H 0.1759 0.0224 0.8252
H74 H 0.2011 0.0291 0.7723
C64 C 0.16373(10) 0.0493(3) 0.7312(3)
H75 H 0.1714 0.0478 0.6845
H76 H 0.1616 0.1026 0.7449
C65 C 0.1064(3) 0.1931(6) 0.4287(7)
H77 H 0.1157 0.1532 0.4022
H78 H 0.0965 0.1694 0.4671
C66 C 0.0867(3) 0.2353(6) 0.3843(7)
H79 H 0.0865 0.2150 0.3368
H80 H 0.0674 0.2312 0.4016
C67 C 0.0956(3) 0.3133(6) 0.3845(7)
H81 H 0.0800 0.3457 0.3992
H82 H 0.1004 0.3284 0.3373
C68 C 0.1208(5) 0.3238(6) 0.4328(10)
H83 H 0.1367 0.3461 0.4087
H84 H 0.1162 0.3563 0.4723
C69 C 0.18706(9) 0.2318(3) 0.8222(2)
H85 H 0.1668 0.2443 0.8235
H86 H 0.1893 0.1927 0.7865
C70 C 0.19656(16) 0.2046(5) 0.8860(4)
H87 H 0.1954 0.1490 0.8867
H88 H 0.1849 0.2247 0.9228
C71 C 0.2264(2) 0.2292(7) 0.8976(4)
H89 H 0.2396 0.1880 0.8877
H90 H 0.2300 0.2468 0.9456
C72 C 0.22891(8) 0.2957(3) 0.8444(2)
H91 H 0.2321 0.3440 0.8689
H92 H 0.2448 0.2868 0.8139
O1 O 0.0689(6) 0.3879(11) 0.851(4)
C73 C 0.0721(4) 0.4663(11) 0.8554(13)
H93 H 0.0888 0.4833 0.8307
H94 H 0.0743 0.4824 0.9043
C74 C 0.0458(3) 0.4971(8) 0.8225(12)
H95 H 0.0385 0.5380 0.8516
H96 H 0.0498 0.5186 0.7769
C75 C 0.0263(3) 0.4431(9) 0.8147(11)
H97 H 0.0168 0.4460 0.7683
H98 H 0.0119 0.4480 0.8499
C76 C 0.0418(4) 0.3710(8) 0.8233(12)
H99 H 0.0320 0.3373 0.8550
H100 H 0.0431 0.3454 0.7782
Li1 Li 0.09988(14) 0.0526(4) 0.7025(3)
Li2 Li 0.13564(12) 0.2288(3) 0.5541(3)
Li3 Li 0.18786(13) 0.3820(4) 0.7520(3)
Li4 Li 0.09924(12) 0.3259(4) 0.8167(3)
B1 B 0.09429(9) -0.0284(3) 0.5869(2)
B2 B 0.16479(8) 0.3603(2) 0.6260(2)
B3 B 0.18414(11) 0.4791(3) 0.8622(3)
B4 B 0.07687(9) 0.1827(3) 0.7516(2)
O2 O 0.10428(5) 0.05659(13) 0.58835(12)
O3 O 0.14165(5) 0.12191(15) 0.55624(14)
O4 O 0.08576(5) -0.04153(14) 0.65886(12)
O5 O 0.06965(5) -0.04038(14) 0.54341(12)
O6 O 0.14812(5) 0.34399(13) 0.69127(11)
O7 O 0.10636(5) 0.37628(16) 0.73105(13)
O8 O 0.19344(4) 0.37594(13) 0.65223(11)
O9 O 0.16716(4) 0.29485(13) 0.58103(11)
O10 O 0.15751(5) 0.43260(15) 0.83941(14)
O11 O 0.12956(6) 0.34626(16) 0.88419(13)
O12 O 0.20377(6) 0.46553(15) 0.80567(13)
O13 O 0.17954(6) 0.55836(16) 0.86341(15)
O14 O 0.09871(5) 0.19408(14) 0.69629(12)
O15 O 0.10124(5) 0.25380(15) 0.59482(12)
O16 O 0.07772(5) 0.10306(15) 0.76893(12)
O17 O 0.08458(5) 0.22301(14) 0.81537(12)
O18 O 0.13735(5) 0.01202(16) 0.73112(14)
O19 O 0.12708(6) 0.24809(19) 0.45514(14)
O20 O 0.20265(5) 0.29737(15) 0.80491(13)
H101 H 0.1511(6) 0.4609(19) 0.5560(17)
H102 H 0.1266(7) -0.115(2) 0.5597(17)
H103 H 0.2032(7) 0.451(2) 0.9593(18)
H104 H 0.0295(7) 0.2236(18) 0.7225(16)
C77? C 0.1670(4) -0.0718(9) 0.7770(11)
C78? C 0.1862(3) -0.0095(11) 0.7423(10)
C79? C 0.1258(4) 0.2084(7) 0.3937(5)
C80? C 0.1129(4) 0.2570(7) 0.3381(6)
C81? C 0.1107(4) 0.3355(7) 0.3638(5)
C82? C 0.1216(6) 0.3255(6) 0.4366(8)
C83? C 0.2079(2) 0.1781(7) 0.8422(6)
C84? C 0.2316(3) 0.2254(10) 0.8702(6)
C85? C 0.0771(4) 0.4646(14) 0.8719(17)
C86? C 0.0511(3) 0.5118(9) 0.8716(16)
C87? C 0.0293(3) 0.4676(10) 0.8536(15)
C88? C 0.0426(4) 0.3989(13) 0.8174(15)
H105? H 0.1748 -0.1227 0.7700
H106? H 0.1659 -0.0626 0.8272
H107? H 0.2018 0.0079 0.7740
H108? H 0.1939 -0.0270 0.6984
H109? H 0.1143 0.1625 0.3988
H110? H 0.1450 0.1931 0.3815
H111? H 0.1247 0.2559 0.2973
H112? H 0.0940 0.2379 0.3241
H113? H 0.0910 0.3536 0.3615
H114? H 0.1226 0.3705 0.3379
H115? H 0.1393 0.3546 0.4434
H116? H 0.1077 0.3465 0.4680
H117? H 0.2136 0.1481 0.8021
H118? H 0.2010 0.1437 0.8779
H119? H 0.2313 0.2269 0.9212
H120? H 0.2497 0.2035 0.8571
H121? H 0.0905 0.4850 0.8389
H122? H 0.0864 0.4641 0.9185
H123? H 0.0486 0.5334 0.9180
H124? H 0.0525 0.5536 0.8382
H125? H 0.0159 0.4942 0.8216
H126? H 0.0192 0.4515 0.8948
H127? H 0.0310 0.3531 0.8227
H128? H 0.0448 0.4088 0.7677
O21? O 0.0688(8) 0.3919(15) 0.853(5)
loop_
_geom_bond_atom_site_label_1
_geom_bond_atom_site_label_2
_geom_bond_site_symmetry_1
_geom_bond_site_symmetry_2
C1 C2 1_555 1_555
C2 C3 1_555 1_555
C3 C4 1_555 1_555
C4 H1 1_555 1_555
C5 C4 1_555 1_555
H2 C5 1_555 1_555
C6 C5 1_555 1_555
H3 C6 1_555 1_555
C7 C6 1_555 1_555
H4 C7 1_555 1_555
C8 C3 1_555 1_555
H5 C8 1_555 1_555
C9 C2 1_555 1_555
C10 C11 1_555 1_555
C11 H6 1_555 1_555
H7 C11 1_555 1_555
H8 C11 1_555 1_555
C12 C10 1_555 1_555
H9 C12 1_555 1_555
H10 C12 1_555 1_555
H11 C12 1_555 1_555
C13 C10 1_555 1_555
C14 C13 1_555 1_555
H12 C14 1_555 1_555
H13 C14 1_555 1_555
H14 C14 1_555 1_555
C15 C13 1_555 1_555
H15 C15 1_555 1_555
H16 C15 1_555 1_555
H17 C15 1_555 1_555
C16 C17 1_555 1_555
C17 C18 1_555 1_555
C18 C19 1_555 1_555
C19 H18 1_555 1_555
C20 C19 1_555 1_555
H19 C20 1_555 1_555
C21 C20 1_555 1_555
H20 C21 1_555 1_555
C22 C21 1_555 1_555
H21 C22 1_555 1_555
C23 C18 1_555 1_555
H22 C23 1_555 1_555
C24 C17 1_555 1_555
C25 C26 1_555 1_555
C26 H23 1_555 1_555
H24 C26 1_555 1_555
H25 C26 1_555 1_555
C27 C25 1_555 1_555
H26 C27 1_555 1_555
H27 C27 1_555 1_555
H28 C27 1_555 1_555
C28 C25 1_555 1_555
C29 C28 1_555 1_555
H29 C29 1_555 1_555
H30 C29 1_555 1_555
H31 C29 1_555 1_555
C30 C28 1_555 1_555
H32 C30 1_555 1_555
H33 C30 1_555 1_555
H34 C30 1_555 1_555
C31 C32 1_555 1_555
C32 C33 1_555 1_555
C33 C34 1_555 1_555
C34 H35 1_555 1_555
C35 C34 1_555 1_555
H36 C35 1_555 1_555
C36 C35 1_555 1_555
H37 C36 1_555 1_555
C37 C36 1_555 1_555
H38 C37 1_555 1_555
C38 C33 1_555 1_555
H39 C38 1_555 1_555
C39 C32 1_555 1_555
C40 C41 1_555 1_555
C41 H40 1_555 1_555
H41 C41 1_555 1_555
H42 C41 1_555 1_555
C42 C40 1_555 1_555
H43 C42 1_555 1_555
H44 C42 1_555 1_555
H45 C42 1_555 1_555
C43 C40 1_555 1_555
C44 C43 1_555 1_555
H46 C44 1_555 1_555
H47 C44 1_555 1_555
H48 C44 1_555 1_555
C45 C43 1_555 1_555
H49 C45 1_555 1_555
H50 C45 1_555 1_555
H51 C45 1_555 1_555
C46 C47 1_555 1_555
C47 C48 1_555 1_555
C48 C49 1_555 1_555
C49 H52 1_555 1_555
C50 C49 1_555 1_555
H53 C50 1_555 1_555
C51 C50 1_555 1_555
H54 C51 1_555 1_555
C52 C51 1_555 1_555
H55 C52 1_555 1_555
C53 C48 1_555 1_555
H56 C53 1_555 1_555
C54 C47 1_555 1_555
C55 C56 1_555 1_555
C56 H57 1_555 1_555
H58 C56 1_555 1_555
H59 C56 1_555 1_555
C57 C55 1_555 1_555
H60 C57 1_555 1_555
H61 C57 1_555 1_555
H62 C57 1_555 1_555
C58 C55 1_555 1_555
C59 C58 1_555 1_555
H63 C59 1_555 1_555
H64 C59 1_555 1_555
H65 C59 1_555 1_555
C60 C58 1_555 1_555
H66 C60 1_555 1_555
H67 C60 1_555 1_555
H68 C60 1_555 1_555
C61 H69 1_555 1_555
H70 C61 1_555 1_555
C62 C61 1_555 1_555
H71 C62 1_555 1_555
H72 C62 1_555 1_555
C63 C62 1_555 1_555
H73 C63 1_555 1_555
H74 C63 1_555 1_555
C64 C63 1_555 1_555
H75 C64 1_555 1_555
H76 C64 1_555 1_555
C65 H77 1_555 1_555
H78 C65 1_555 1_555
C66 C65 1_555 1_555
H79 C66 1_555 1_555
H80 C66 1_555 1_555
C67 C66 1_555 1_555
H81 C67 1_555 1_555
H82 C67 1_555 1_555
C68 C67 1_555 1_555
H83 C68 1_555 1_555
H84 C68 1_555 1_555
C69 H85 1_555 1_555
H86 C69 1_555 1_555
C70 C69 1_555 1_555
H87 C70 1_555 1_555
H88 C70 1_555 1_555
C71 C70 1_555 1_555
H89 C71 1_555 1_555
H90 C71 1_555 1_555
C72 C71 1_555 1_555
H91 C72 1_555 1_555
H92 C72 1_555 1_555
O1 C73 1_555 1_555
C73 H93 1_555 1_555
H94 C73 1_555 1_555
C74 C73 1_555 1_555
H95 C74 1_555 1_555
H96 C74 1_555 1_555
C75 C74 1_555 1_555
H97 C75 1_555 1_555
H98 C75 1_555 1_555
C76 O1 1_555 1_555
H99 C76 1_555 1_555
H100 C76 1_555 1_555
Li1 O2 1_555 1_555
Li2 O3 1_555 1_555
Li3 O6 1_555 1_555
Li4 O1 1_555 1_555
B1 C9 1_555 1_555
B2 C24 1_555 1_555
B3 C39 1_555 1_555
B4 C54 1_555 1_555
O2 C1 1_555 1_555
O3 C1 1_555 1_555
O4 C10 1_555 1_555
O5 C13 1_555 1_555
O6 C16 1_555 1_555
O7 C16 1_555 1_555
O8 C25 1_555 1_555
O9 C28 1_555 1_555
O10 C31 1_555 1_555
O11 C31 1_555 1_555
O12 C43 1_555 1_555
O13 C40 1_555 1_555
O14 C46 1_555 1_555
O15 C46 1_555 1_555
O16 C58 1_555 1_555
O17 C55 1_555 1_555
O18 C61 1_555 1_555
O19 C65 1_555 1_555
O20 C69 1_555 1_555
H101 C24 1_555 1_555
H102 C9 1_555 1_555
H103 C39 1_555 1_555
H104 C54 1_555 1_555
C7 C8 1_555 1_555
C22 C23 1_555 1_555
C37 C38 1_555 1_555
C52 C53 1_555 1_555
C64 O18 1_555 1_555
C68 O19 1_555 1_555
C72 O20 1_555 1_555
C75 C76 1_555 1_555
Li1 O4 1_555 1_555
Li1 O16 1_555 1_555
Li1 O18 1_555 1_555
Li2 O9 1_555 1_555
Li2 O15 1_555 1_555
Li2 O19 1_555 1_555
Li3 O8 1_555 1_555
Li3 O12 1_555 1_555
Li3 O20 1_555 1_555
Li4 O7 1_555 1_555
Li4 O11 1_555 1_555
Li4 O17 1_555 1_555
B1 O2 1_555 1_555
B1 O4 1_555 1_555
B1 O5 1_555 1_555
B2 O6 1_555 1_555
B2 O8 1_555 1_555
B2 O9 1_555 1_555
B3 O10 1_555 1_555
B3 O12 1_555 1_555
B3 O13 1_555 1_555
B4 O14 1_555 1_555
B4 O16 1_555 1_555
B4 O17 1_555 1_555

#END
