
#######################################################################
#
#                 Cambridge Crystallographic Data Centre
#                                CCDC 
#
#######################################################################
#
# If this CIF has been generated from an entry in the Cambridge 
# Structural Database, then it will include bibliographic, chemical, 
# crystal, experimental, refinement or atomic coordinate data resulting 
# from the CCDC's data processing and validation procedures.
#
#######################################################################

data_EDIZAU
_chemical_formula_moiety         'C38 H34 N4 O4'
_chemical_name_systematic        
N,N,N',N'-tetrakis(4-methoxyphenyl)-2,2'-bipyridine-5,5'-diamine
_symmetry_cell_setting           orthorhombic
_symmetry_space_group_name_H-M   'P n a 21'
_symmetry_Int_Tables_number      33
_space_group_name_Hall           'P 2c -2n'
loop_
_symmetry_equiv_pos_site_id
_symmetry_equiv_pos_as_xyz
1 x,y,z
2 -x,-y,1/2+z
3 1/2+x,1/2-y,z
4 1/2-x,1/2+y,1/2+z
_cell_length_a                   15.075(4)
_cell_length_b                   10.227(3)
_cell_length_c                   20.695(6)
_cell_angle_alpha                90
_cell_angle_beta                 90
_cell_angle_gamma                90
_cell_volume                     3190.59
_exptl_crystal_colour            red
_exptl_crystal_description       block
_cell_formula_units_Z            4
loop_
_atom_site_label
_atom_site_type_symbol
_atom_site_fract_x
_atom_site_fract_y
_atom_site_fract_z
O1 O 0.6648(2) -0.2158(3) 0.71015(14)
O2 O 0.56107(18) -0.0877(3) 0.25446(12)
O3 O 1.14470(18) 1.1730(3) 0.71926(12)
O4 O 1.13060(16) 1.0979(2) 0.25950(11)
N1 N 0.73160(19) 0.0597(3) 0.48206(13)
N2 N 0.87842(18) 0.6421(3) 0.44803(12)
N3 N 0.86813(18) 0.3379(3) 0.53659(13)
N4 N 1.0109(2) 0.9237(3) 0.50013(13)
C1 C 0.6425(3) -0.1510(6) 0.7669(2)
H1 H 0.6369 -0.2146 0.8021
H2 H 0.5860 -0.1053 0.7610
H3 H 0.6890 -0.0876 0.7776
C2 C 0.6784(3) -0.1409(4) 0.65552(18)
C3 C 0.7126(2) -0.2058(4) 0.60327(18)
H4 H 0.7244 -0.2968 0.6063
C4 C 0.7302(2) -0.1408(3) 0.54616(18)
H5 H 0.7547 -0.1868 0.5105
C5 C 0.7120(2) -0.0079(3) 0.54096(16)
C6 C 0.6748(3) 0.0559(4) 0.59318(18)
H6 H 0.6595 0.1457 0.5895
C7 C 0.6592(3) -0.0098(4) 0.65127(19)
H7 H 0.6357 0.0357 0.6874
C8 C 0.6113(3) -0.1202(4) 0.19781(17)
H8 H 0.5707 -0.1458 0.1630
H9 H 0.6513 -0.1931 0.2076
H10 H 0.6460 -0.0441 0.1842
C9 C 0.6078(2) -0.0551(4) 0.30939(17)
C10 C 0.5578(3) -0.0327(4) 0.36412(18)
H11 H 0.4951 -0.0422 0.3623
C11 C 0.5976(2) 0.0031(3) 0.42109(17)
H12 H 0.5624 0.0189 0.4584
C12 C 0.6893(2) 0.0165(3) 0.42443(16)
C13 C 0.7387(2) -0.0081(4) 0.36972(17)
H13 H 0.8014 -0.0012 0.3717
C14 C 0.6986(3) -0.0427(4) 0.31201(18)
H14 H 0.7335 -0.0578 0.2745
C15 C 0.8297(2) 0.2203(3) 0.53225(16)
H15 H 0.8425 0.1578 0.5649
C16 C 0.77194(19) 0.1839(3) 0.48264(15)
C17 C 0.7589(2) 0.2739(3) 0.43324(16)
H16 H 0.7227 0.2525 0.3972
C18 C 0.7991(2) 0.3944(3) 0.43716(15)
H17 H 0.7905 0.4565 0.4036
C19 C 0.8521(2) 0.4258(3) 0.48971(16)
C20 C 0.8927(2) 0.5569(3) 0.49688(15)
C21 C 0.9428(2) 0.5910(3) 0.55005(15)
H18 H 0.9500 0.5307 0.5846
C22 C 0.9825(2) 0.7122(3) 0.55333(17)
H19 H 1.0172 0.7355 0.5899
C23 C 0.9713(2) 0.8002(3) 0.50257(16)
C24 C 0.9167(2) 0.7595(3) 0.45193(16)
H20 H 0.9061 0.8197 0.4178
C25 C 1.0434(2) 0.9852(3) 0.55711(15)
C26 C 1.1299(2) 1.0326(3) 0.55968(17)
H21 H 1.1676 1.0233 0.5232
C27 C 1.1610(3) 1.0925(3) 0.61425(17)
H22 H 1.2203 1.1240 0.6154
C28 C 1.1068(2) 1.1076(3) 0.66806(16)
C29 C 1.0209(2) 1.0605(3) 0.66701(17)
H23 H 0.9835 1.0693 0.7037
C30 C 0.9902(2) 0.9997(3) 0.61106(17)
H24 H 0.9312 0.9673 0.6099
C31 C 1.0943(3) 1.1842(4) 0.77673(18)
H25 H 1.1281 1.2336 0.8090
H26 H 1.0811 1.0968 0.7936
H27 H 1.0386 1.2301 0.7674
C32 C 1.0408(2) 0.9713(4) 0.43849(17)
C33 C 1.0950(2) 0.8941(3) 0.39902(18)
H28 H 1.1128 0.8098 0.4134
C34 C 1.1227(2) 0.9387(3) 0.33988(17)
H29 H 1.1582 0.8843 0.3131
C35 C 1.0993(2) 1.0630(4) 0.31878(17)
C36 C 1.0466(2) 1.1411(3) 0.35811(16)
H30 H 1.0302 1.2263 0.3442
C37 C 1.0179(2) 1.0950(3) 0.41771(17)
H31 H 0.9821 1.1492 0.4444
C38 C 1.1031(3) 1.2213(4) 0.23411(19)
H32 H 1.1314 1.2358 0.1921
H33 H 1.1205 1.2911 0.2640
H34 H 1.0385 1.2217 0.2288
loop_
_geom_bond_atom_site_label_1
_geom_bond_atom_site_label_2
_geom_bond_site_symmetry_1
_geom_bond_site_symmetry_2
O1 C1 1_555 1_555
O2 C8 1_555 1_555
O3 C28 1_555 1_555
O4 C35 1_555 1_555
N1 C5 1_555 1_555
N2 C20 1_555 1_555
N3 C15 1_555 1_555
N4 C23 1_555 1_555
C1 H1 1_555 1_555
H2 C1 1_555 1_555
H3 C1 1_555 1_555
C2 O1 1_555 1_555
C3 C2 1_555 1_555
H4 C3 1_555 1_555
C4 C3 1_555 1_555
H5 C4 1_555 1_555
C5 C4 1_555 1_555
C6 C5 1_555 1_555
H6 C6 1_555 1_555
C7 C2 1_555 1_555
H7 C7 1_555 1_555
C8 H8 1_555 1_555
H9 C8 1_555 1_555
H10 C8 1_555 1_555
C9 O2 1_555 1_555
C10 C9 1_555 1_555
H11 C10 1_555 1_555
C11 C10 1_555 1_555
H12 C11 1_555 1_555
C12 N1 1_555 1_555
C13 C12 1_555 1_555
H13 C13 1_555 1_555
C14 C9 1_555 1_555
H14 C14 1_555 1_555
C15 H15 1_555 1_555
C16 N1 1_555 1_555
C17 C16 1_555 1_555
H16 C17 1_555 1_555
C18 C17 1_555 1_555
H17 C18 1_555 1_555
C19 N3 1_555 1_555
C20 C19 1_555 1_555
C21 C20 1_555 1_555
H18 C21 1_555 1_555
C22 C21 1_555 1_555
H19 C22 1_555 1_555
C23 C22 1_555 1_555
C24 N2 1_555 1_555
H20 C24 1_555 1_555
C25 N4 1_555 1_555
C26 C25 1_555 1_555
H21 C26 1_555 1_555
C27 C26 1_555 1_555
H22 C27 1_555 1_555
C28 C27 1_555 1_555
C29 C28 1_555 1_555
H23 C29 1_555 1_555
C30 C25 1_555 1_555
H24 C30 1_555 1_555
C31 O3 1_555 1_555
H25 C31 1_555 1_555
H26 C31 1_555 1_555
H27 C31 1_555 1_555
C32 N4 1_555 1_555
C33 C32 1_555 1_555
H28 C33 1_555 1_555
C34 C33 1_555 1_555
H29 C34 1_555 1_555
C35 C34 1_555 1_555
C36 C35 1_555 1_555
H30 C36 1_555 1_555
C37 C32 1_555 1_555
H31 C37 1_555 1_555
C38 O4 1_555 1_555
H32 C38 1_555 1_555
H33 C38 1_555 1_555
H34 C38 1_555 1_555
C6 C7 1_555 1_555
C11 C12 1_555 1_555
C13 C14 1_555 1_555
C15 C16 1_555 1_555
C18 C19 1_555 1_555
C23 C24 1_555 1_555
C29 C30 1_555 1_555
C36 C37 1_555 1_555

#END
