
#######################################################################
#
#                 Cambridge Crystallographic Data Centre
#                                CCDC 
#
#######################################################################
#
# If this CIF has been generated from an entry in the Cambridge 
# Structural Database, then it will include bibliographic, chemical, 
# crystal, experimental, refinement or atomic coordinate data resulting 
# from the CCDC's data processing and validation procedures.
#
#######################################################################

data_EDOCIL
_chemical_formula_moiety         'C15 H13 B1 F2 N4'
_chemical_name_systematic        
13,13-Difluoro-2,4-dimethyl-13H-12\l^5^,13\l^5^-pyrido[1',2':3,4][1,3,5,2]triazaborinino[1,6-a][1,8]naphthyridine
_symmetry_cell_setting           monoclinic
_symmetry_space_group_name_H-M   'P 21/n'
_symmetry_Int_Tables_number      14
_space_group_name_Hall           '-P 2yn'
loop_
_symmetry_equiv_pos_site_id
_symmetry_equiv_pos_as_xyz
1 x,y,z
2 1/2-x,1/2+y,1/2-z
3 -x,-y,-z
4 1/2+x,1/2-y,1/2+z
_cell_length_a                   7.507(4)
_cell_length_b                   12.712(6)
_cell_length_c                   14.451(7)
_cell_angle_alpha                90
_cell_angle_beta                 102.309(7)
_cell_angle_gamma                90
_cell_volume                     1347.34
_exptl_crystal_colour            colorless
_exptl_crystal_description       prism
_cell_formula_units_Z            4
loop_
_atom_site_label
_atom_site_type_symbol
_atom_site_fract_x
_atom_site_fract_y
_atom_site_fract_z
F1 F 0.22193(10) 0.29837(6) 0.55139(5)
F2 F 0.34785(11) 0.14658(6) 0.50829(5)
B1 B 0.2912(2) 0.20081(12) 0.58063(11)
N1 N 0.59624(15) 0.31815(9) 0.58392(8)
N2 N 0.44999(14) 0.20581(9) 0.67016(7)
N3 N 0.30525(16) 0.08717(9) 0.75995(8)
N4 N 0.13206(15) 0.13604(8) 0.60884(8)
C1 C 0.7270(2) 0.43471(12) 0.48488(10)
H1 H 0.6438 0.3975 0.4339
H2 H 0.8477 0.4397 0.4695
H3 H 0.6799 0.5056 0.4917
C2 C 0.74169(19) 0.37561(10) 0.57595(10)
C3 C 0.89988(19) 0.38060(11) 0.64783(10)
H4 H 1.0008 0.4214 0.6387
C4 C 0.90996(19) 0.32695(11) 0.73133(10)
C5 C 0.75608(18) 0.26793(10) 0.74210(9)
C6 C 0.74543(19) 0.21032(11) 0.82572(10)
H5 H 0.8445 0.2118 0.8790
C7 C 0.59549(19) 0.15407(11) 0.82896(10)
H6 H 0.5893 0.1171 0.8853
C8 C 0.44443(18) 0.14854(10) 0.74932(9)
C9 C 0.60452(18) 0.26584(10) 0.66539(9)
C10 C 1.0787(2) 0.33079(12) 0.80919(11)
H7 H 1.1696 0.3765 0.7900
H8 H 1.1287 0.2597 0.8213
H9 H 1.0476 0.3587 0.8670
C11 C 0.15213(19) 0.08253(10) 0.69189(9)
C12 C 0.00407(19) 0.02094(11) 0.70831(10)
H10 H 0.0175 -0.0190 0.7650
C13 C -0.1575(2) 0.01854(11) 0.64336(10)
H11 H -0.2565 -0.0223 0.6548
C14 C -0.17558(19) 0.07708(11) 0.55952(10)
H12 H -0.2875 0.0771 0.5141
C15 C -0.03088(19) 0.13375(11) 0.54412(10)
H13 H -0.0429 0.1728 0.4871
loop_
_geom_bond_atom_site_label_1
_geom_bond_atom_site_label_2
_geom_bond_site_symmetry_1
_geom_bond_site_symmetry_2
F1 B1 1_555 1_555
F2 B1 1_555 1_555
B1 N2 1_555 1_555
N1 C2 1_555 1_555
N2 C8 1_555 1_555
N3 C8 1_555 1_555
N4 B1 1_555 1_555
C1 H1 1_555 1_555
H2 C1 1_555 1_555
H3 C1 1_555 1_555
C2 C1 1_555 1_555
C3 C2 1_555 1_555
H4 C3 1_555 1_555
C4 C3 1_555 1_555
C5 C4 1_555 1_555
C6 C5 1_555 1_555
H5 C6 1_555 1_555
C7 C6 1_555 1_555
H6 C7 1_555 1_555
C8 C7 1_555 1_555
C9 N1 1_555 1_555
C10 C4 1_555 1_555
H7 C10 1_555 1_555
H8 C10 1_555 1_555
H9 C10 1_555 1_555
C11 N3 1_555 1_555
C12 C11 1_555 1_555
H10 C12 1_555 1_555
C13 C12 1_555 1_555
H11 C13 1_555 1_555
C14 C13 1_555 1_555
H12 C14 1_555 1_555
C15 N4 1_555 1_555
H13 C15 1_555 1_555
N2 C9 1_555 1_555
N4 C11 1_555 1_555
C5 C9 1_555 1_555
C14 C15 1_555 1_555

#END
