
#######################################################################
#
#                 Cambridge Crystallographic Data Centre
#                                CCDC 
#
#######################################################################
#
# If this CIF has been generated from an entry in the Cambridge 
# Structural Database, then it will include bibliographic, chemical, 
# crystal, experimental, refinement or atomic coordinate data resulting 
# from the CCDC's data processing and validation procedures.
#
#######################################################################

data_EDOFOS
_chemical_formula_moiety         'C16 H33 B10 Cl1 Si1'
_chemical_name_systematic        
1-(2-(Chloromethyl)benzyl)-2-(t-butyldimethylsilyl)-1,2-dicarba-closo-dodecaborane(10)
_symmetry_cell_setting           triclinic
_symmetry_space_group_name_H-M   'P -1'
_symmetry_Int_Tables_number      2
_space_group_name_Hall           '-P 1'
loop_
_symmetry_equiv_pos_site_id
_symmetry_equiv_pos_as_xyz
1 x,y,z
2 -x,-y,-z
_cell_length_a                   7.4663(15)
_cell_length_b                   10.056(2)
_cell_length_c                   16.135(3)
_cell_angle_alpha                107.79(3)
_cell_angle_beta                 91.10(3)
_cell_angle_gamma                99.24(3)
_cell_volume                     1135.53
_exptl_crystal_colour            colorless
_exptl_crystal_description       Block
_cell_formula_units_Z            2
loop_
_atom_site_label
_atom_site_type_symbol
_atom_site_fract_x
_atom_site_fract_y
_atom_site_fract_z
C1 C 1.2467(2) 0.48720(13) 0.69494(9)
C2 C 1.2399(2) 0.62265(14) 0.78792(9)
B1 B 1.0814(2) 0.59236(16) 0.70181(11)
H1 H 0.9329 0.5522 0.7030
B2 B 1.1859(3) 0.76731(16) 0.76467(11)
H2 H 1.1061 0.8435 0.8072
B3 B 1.4133(3) 0.76142(17) 0.79631(11)
H3 H 1.4834 0.8337 0.8598
B4 B 1.4486(2) 0.58281(16) 0.75272(11)
H4 H 1.5403 0.5357 0.7873
B5 B 1.2007(3) 0.54008(17) 0.60543(11)
H5 H 1.1309 0.4656 0.5425
B6 B 1.1621(2) 0.71841(13) 0.64842(8)
H6 H 1.0666 0.7623 0.6137
B7 B 1.3691(3) 0.82421(17) 0.70728(12)
H7 H 1.4102 0.9383 0.7113
B8 B 1.5342(3) 0.71015(18) 0.70073(12)
H8 H 1.6835 0.7488 0.7009
B9 B 1.4281(3) 0.53589(17) 0.63730(11)
H9 H 1.5077 0.4590 0.5952
B10 B 1.3783(2) 0.68424(13) 0.60859(8)
H10 H 1.4252 0.7064 0.5478
Si1 Si 1.18151(6) 0.28622(4) 0.68706(3)
C3 C 1.3025(2) 0.19171(16) 0.59230(11)
H11 H 1.2722 0.0892 0.5820
H12 H 1.4341 0.2228 0.6051
H13 H 1.2646 0.2136 0.5402
C4 C 1.2728(2) 0.25525(15) 0.78763(11)
H14 H 1.2828 0.1550 0.7744
H15 H 1.1901 0.2805 0.8341
H16 H 1.3932 0.3141 0.8068
C5 C 0.9277(2) 0.21095(14) 0.66656(10)
C6 C 0.8125(2) 0.27310(16) 0.74303(11)
H17 H 0.6903 0.2157 0.7331
H18 H 0.8039 0.3709 0.7467
H19 H 0.8705 0.2720 0.7978
C7 C 0.8468(2) 0.22370(17) 0.58173(11)
H20 H 0.7244 0.1667 0.5674
H21 H 0.9243 0.1893 0.5342
H22 H 0.8402 0.3232 0.5894
C8 C 0.9126(3) 0.04976(16) 0.65556(12)
H23 H 0.7842 0.0047 0.6465
H24 H 0.9669 0.0384 0.7082
H25 H 0.9773 0.0050 0.6051
C9 C 1.1763(2) 0.58246(14) 0.86916(9)
H26 H 1.0512 0.5272 0.8553
H27 H 1.2560 0.5202 0.8817
C10 C 1.1775(2) 0.70832(14) 0.95080(9)
C11 C 1.3379(2) 0.76251(15) 1.00489(10)
H28 H 1.4426 0.7203 0.9895
C12 C 1.3475(2) 0.87710(15) 1.08086(10)
H29 H 1.4582 0.9132 1.1165
C13 C 1.1936(3) 0.93850(15) 1.10424(10)
H30 H 1.1996 1.0179 1.1553
C14 C 1.0323(2) 0.88342(15) 1.05285(10)
H31 H 0.9270 0.9241 1.0698
C15 C 1.0214(2) 0.76824(14) 0.97589(9)
C16 C 0.8412(2) 0.71024(15) 0.92490(11)
H32 H 0.8590 0.6843 0.8617
H33 H 0.7629 0.7836 0.9389
Cl1 Cl 0.73053(5) 0.55419(4) 0.95126(2)
loop_
_geom_bond_atom_site_label_1
_geom_bond_atom_site_label_2
_geom_bond_site_symmetry_1
_geom_bond_site_symmetry_2
C1 C2 1_555 1_555
C2 B1 1_555 1_555
B1 C1 1_555 1_555
H1 B1 1_555 1_555
B2 C2 1_555 1_555
H2 B2 1_555 1_555
B3 C2 1_555 1_555
H3 B3 1_555 1_555
B4 C1 1_555 1_555
H4 B4 1_555 1_555
B5 C1 1_555 1_555
H5 B5 1_555 1_555
B6 B1 1_555 1_555
H6 B6 1_555 1_555
B7 B2 1_555 1_555
H7 B7 1_555 1_555
B8 B3 1_555 1_555
H8 B8 1_555 1_555
B9 C1 1_555 1_555
H9 B9 1_555 1_555
B10 B5 1_555 1_555
H10 B10 1_555 1_555
Si1 C1 1_555 1_555
C3 Si1 1_555 1_555
H11 C3 1_555 1_555
H12 C3 1_555 1_555
H13 C3 1_555 1_555
C4 Si1 1_555 1_555
H14 C4 1_555 1_555
H15 C4 1_555 1_555
H16 C4 1_555 1_555
C5 Si1 1_555 1_555
C6 C5 1_555 1_555
H17 C6 1_555 1_555
H18 C6 1_555 1_555
H19 C6 1_555 1_555
C7 C5 1_555 1_555
H20 C7 1_555 1_555
H21 C7 1_555 1_555
H22 C7 1_555 1_555
C8 C5 1_555 1_555
H23 C8 1_555 1_555
H24 C8 1_555 1_555
H25 C8 1_555 1_555
C9 C2 1_555 1_555
H26 C9 1_555 1_555
H27 C9 1_555 1_555
C10 C9 1_555 1_555
C11 C10 1_555 1_555
H28 C11 1_555 1_555
C12 C11 1_555 1_555
H29 C12 1_555 1_555
C13 C12 1_555 1_555
H30 C13 1_555 1_555
C14 C13 1_555 1_555
H31 C14 1_555 1_555
C15 C10 1_555 1_555
C16 C15 1_555 1_555
H32 C16 1_555 1_555
H33 C16 1_555 1_555
Cl1 C16 1_555 1_555
C2 B4 1_555 1_555
B1 B5 1_555 1_555
B1 B2 1_555 1_555
B2 B6 1_555 1_555
B2 B3 1_555 1_555
B3 B4 1_555 1_555
B3 B7 1_555 1_555
B4 B9 1_555 1_555
B4 B8 1_555 1_555
B5 B6 1_555 1_555
B5 B9 1_555 1_555
B6 B10 1_555 1_555
B6 B7 1_555 1_555
B7 B10 1_555 1_555
B7 B8 1_555 1_555
B8 B9 1_555 1_555
B8 B10 1_555 1_555
B9 B10 1_555 1_555
C14 C15 1_555 1_555

#END
