
#######################################################################
#
#                 Cambridge Crystallographic Data Centre
#                                CCDC 
#
#######################################################################
#
# If this CIF has been generated from an entry in the Cambridge 
# Structural Database, then it will include bibliographic, chemical, 
# crystal, experimental, refinement or atomic coordinate data resulting 
# from the CCDC's data processing and validation procedures.
#
#######################################################################

data_EDULEX
_chemical_formula_moiety         'C90 H116 N4 O6 S6'
_chemical_name_systematic        
3,3'-[{5,10-bis[(2-ethylhexyl)oxy]naphtho[2,3-b:6,7-b']bisthiene-2,7-diyl}bis(thiene-5,2-diyl)]bis[2,5-bis(2-ethylhexyl)-6-(thiophen-2-yl)-2,5-dihydropyrrolo[3,4-c]pyrrole-1,4-dione]
_symmetry_cell_setting           triclinic
_symmetry_space_group_name_H-M   'P -1'
_symmetry_Int_Tables_number      2
_space_group_name_Hall           '-P 1'
loop_
_symmetry_equiv_pos_site_id
_symmetry_equiv_pos_as_xyz
1 x,y,z
2 -x,-y,-z
_cell_length_a                   6.3929(5)
_cell_length_b                   17.4732(13)
_cell_length_c                   18.4977(15)
_cell_angle_alpha                90.241(6)
_cell_angle_beta                 93.609(6)
_cell_angle_gamma                97.132(6)
_cell_volume                     2046.07
_exptl_crystal_colour            brown
_exptl_crystal_description       needle
_cell_formula_units_Z            1
loop_
_atom_site_label
_atom_site_type_symbol
_atom_site_fract_x
_atom_site_fract_y
_atom_site_fract_z
S1 S 1.7883(4) 0.25906(18) 0.41444(15)
S2 S 0.4923(3) 0.04552(14) 0.21475(12)
S3 S 0.0281(3) 0.15442(13) 0.08083(12)
O1 O 1.1908(9) 0.0164(4) 0.4097(4)
O2 O 1.0748(9) 0.2918(4) 0.2338(3)
O3 O -0.3954(9) 0.1747(4) -0.0046(4)
N1 N 0.9265(10) 0.0472(5) 0.3252(4)
N2 N 1.3406(10) 0.2572(4) 0.3148(4)
C1 C 1.9122(14) 0.2044(6) 0.4728(5)
H1 H 2.0518 0.2191 0.4930
C2 C 1.7952(14) 0.1371(7) 0.4888(5)
H2 H 1.8476 0.1026 0.5231
C3 C 1.5903(10) 0.1196(5) 0.4524(4)
H3 H 1.4912 0.0749 0.4571
C4 C 1.5682(12) 0.1886(6) 0.4046(5)
C5 C 1.3819(12) 0.1951(6) 0.3576(5)
C6 C 1.2114(12) 0.1389(5) 0.3447(5)
C7 C 1.1275(13) 0.0612(6) 0.3677(5)
C8 C 0.8860(12) 0.1100(5) 0.2827(5)
C9 C 1.0615(12) 0.1658(5) 0.2942(5)
C10 C 1.1420(12) 0.2428(5) 0.2735(5)
C11 C 0.6995(11) 0.1169(5) 0.2382(5)
C12 C 0.6614(12) 0.1850(5) 0.2037(5)
H4 H 0.7571 0.2312 0.2085
C13 C 0.4745(12) 0.1801(5) 0.1621(5)
H5 H 0.4271 0.2225 0.1366
C14 C 0.3635(12) 0.1079(5) 0.1611(5)
C15 C 0.1590(12) 0.0821(6) 0.1224(5)
C16 C 0.0516(12) 0.0114(5) 0.1137(4)
H6 H 0.1012 -0.0338 0.1332
C17 C -0.1480(11) 0.0107(5) 0.0715(4)
C18 C -0.1801(12) 0.0846(5) 0.0495(4)
C19 C -0.3597(12) 0.0995(5) 0.0110(5)
C20 C -0.2976(11) -0.0509(5) 0.0521(4)
H7 H -0.2757 -0.1017 0.0660
C21 C -0.4829(12) -0.0377(5) 0.0115(4)
C22 C 1.4735(13) 0.3310(6) 0.3039(5)
H8 H 1.4415 0.3492 0.2542
H9 H 1.6238 0.3221 0.3078
C23 C 1.441(3) 0.3944(7) 0.3584(9)
H10 H 1.5626 0.3870 0.3935
C24 C 1.534(3) 0.4769(14) 0.3289(14)
H11 H 1.4867 0.4820 0.2774
H12 H 1.4842 0.5185 0.3571
C25 C 1.773(4) 0.4833(16) 0.3369(19)
H13 H 1.8185 0.4452 0.3033
H14 H 1.8136 0.4678 0.3867
C26 C 1.902(6) 0.564(2) 0.323(2)
H15 H 1.8196 0.5977 0.2925
H16 H 2.0377 0.5591 0.3008
C27 C 1.935(10) 0.592(3) 0.406(3)
H17 H 2.0209 0.5578 0.4330
H18 H 1.7973 0.5903 0.4265
H19 H 2.0072 0.6449 0.4086
C28 C 1.304(4) 0.3960(10) 0.4038(12)
H20 H 1.3301 0.3526 0.4359
H21 H 1.1712 0.3776 0.3749
C29 C 1.237(2) 0.4507(8) 0.4529(8)
H22 H 1.1944 0.4949 0.4257
H23 H 1.3533 0.4684 0.4883
H24 H 1.1163 0.4261 0.4783
C30 C 0.7841(13) -0.0217(6) 0.3405(5)
H25 H 0.6377 -0.0088 0.3406
H26 H 0.8236 -0.0411 0.3891
C31 C 0.7969(15) -0.0897(6) 0.2783(8)
H27 H 0.7733 -0.0665 0.2296
C32 C 0.6140(18) -0.1471(7) 0.2899(7)
H28 H 0.5943 -0.1833 0.2480
H29 H 0.4869 -0.1200 0.2898
C33 C 0.624(2) -0.1946(8) 0.3593(7)
H30 H 0.6263 -0.1586 0.4009
H31 H 0.7605 -0.2159 0.3622
C34 C 0.446(3) -0.2631(9) 0.3701(11)
H32 H 0.3136 -0.2407 0.3776
H33 H 0.4221 -0.2932 0.3242
C35 C 0.474(4) -0.3117(11) 0.4229(11)
H34 H 0.6153 -0.3276 0.4219
H35 H 0.3675 -0.3571 0.4167
H36 H 0.4598 -0.2865 0.4695
C36 C 0.9996(18) -0.1137(7) 0.2823(7)
H37 H 1.0333 -0.1337 0.3311
H38 H 1.1079 -0.0701 0.2724
C37 C 0.9943(19) -0.1763(6) 0.2258(6)
H39 H 0.9091 -0.2230 0.2416
H40 H 1.1385 -0.1874 0.2193
H41 H 0.9320 -0.1592 0.1799
C38 C -0.2978(17) 0.2054(7) -0.0631(6)
H42 H -0.3503 0.1748 -0.1072
H43 H -0.1435 0.2041 -0.0560
C39 C -0.346(2) 0.2910(8) -0.0723(8)
H44 H -0.2588 0.3123 -0.1110
C40 C -0.277(2) 0.3412(13) -0.0066(11)
H45 H -0.3368 0.3156 0.0364
H46 H -0.3356 0.3907 -0.0127
C41 C -0.034(2) 0.3581(8) 0.0073(8)
H47 H 0.0268 0.3088 0.0115
H48 H 0.0266 0.3863 -0.0343
C42 C 0.026(3) 0.4061(10) 0.0766(9)
H49 H -0.0381 0.3786 0.1180
H50 H -0.0313 0.4560 0.0718
C43 C 0.267(3) 0.4214(11) 0.0924(10)
H51 H 0.2997 0.4608 0.1307
H52 H 0.3338 0.4395 0.0483
H53 H 0.3202 0.3736 0.1083
C44 C -0.550(3) 0.2918(11) -0.0986(12)
H54 H -0.6452 0.2803 -0.0587
H55 H -0.5861 0.2506 -0.1359
C45 C -0.591(4) 0.3722(14) -0.1329(16)
H56 H -0.4987 0.3836 -0.1730
H57 H -0.5593 0.4130 -0.0959
H58 H -0.7387 0.3697 -0.1511
S1A S -2.7883(4) -0.25906(18) -0.41444(15)
S2A S -1.4923(3) -0.04552(14) -0.21475(12)
S3A S -1.0281(3) -0.15442(13) -0.08083(12)
O1A O -2.1908(9) -0.0164(4) -0.4097(4)
O2A O -2.0748(9) -0.2918(4) -0.2338(3)
O3A O -0.6046(9) -0.1747(4) 0.0046(4)
N1A N -1.9265(10) -0.0472(5) -0.3252(4)
N2A N -2.3406(10) -0.2572(4) -0.3148(4)
C1A C -2.9122(14) -0.2044(6) -0.4728(5)
H1A H -3.0518 -0.2191 -0.4930
C2A C -2.7952(14) -0.1371(7) -0.4888(5)
H2A H -2.8476 -0.1026 -0.5231
C3A C -2.5903(10) -0.1196(5) -0.4524(4)
H3A H -2.4912 -0.0749 -0.4571
C4A C -2.5682(12) -0.1886(6) -0.4046(5)
C5A C -2.3819(12) -0.1951(6) -0.3576(5)
C6A C -2.2114(12) -0.1389(5) -0.3447(5)
C7A C -2.1275(13) -0.0612(6) -0.3677(5)
C8A C -1.8860(12) -0.1100(5) -0.2827(5)
C9A C -2.0615(12) -0.1658(5) -0.2942(5)
C10A C -2.1420(12) -0.2428(5) -0.2735(5)
C11A C -1.6995(11) -0.1169(5) -0.2382(5)
C12A C -1.6614(12) -0.1850(5) -0.2037(5)
H4A H -1.7571 -0.2312 -0.2085
C13A C -1.4745(12) -0.1801(5) -0.1621(5)
H5A H -1.4271 -0.2225 -0.1366
C14A C -1.3635(12) -0.1079(5) -0.1611(5)
C15A C -1.1590(12) -0.0821(6) -0.1224(5)
C16A C -1.0516(12) -0.0114(5) -0.1137(4)
H6A H -1.1012 0.0338 -0.1332
C17A C -0.8520(11) -0.0107(5) -0.0715(4)
C18A C -0.8199(12) -0.0846(5) -0.0495(4)
C19A C -0.6403(12) -0.0995(5) -0.0110(5)
C20A C -0.7024(11) 0.0509(5) -0.0521(4)
H7A H -0.7243 0.1017 -0.0660
C21A C -0.5171(12) 0.0377(5) -0.0115(4)
C22A C -2.4735(13) -0.3310(6) -0.3039(5)
H8A H -2.4415 -0.3492 -0.2542
H9A H -2.6238 -0.3221 -0.3078
C23A C -2.441(3) -0.3944(7) -0.3584(9)
H10A H -2.5626 -0.3870 -0.3935
C24A C -2.534(3) -0.4769(14) -0.3289(14)
H11A H -2.4867 -0.4820 -0.2774
H12A H -2.4842 -0.5185 -0.3571
C25A C -2.773(4) -0.4833(16) -0.3369(19)
H13A H -2.8185 -0.4452 -0.3033
H14A H -2.8136 -0.4678 -0.3867
C26A C -2.902(6) -0.564(2) -0.323(2)
H15A H -2.8196 -0.5977 -0.2925
H16A H -3.0377 -0.5591 -0.3008
C27A C -2.935(10) -0.592(3) -0.406(3)
H17A H -3.0209 -0.5578 -0.4330
H18A H -2.7973 -0.5903 -0.4265
H19A H -3.0072 -0.6449 -0.4086
C28A C -2.304(4) -0.3960(10) -0.4038(12)
H20A H -2.3301 -0.3526 -0.4359
H21A H -2.1712 -0.3776 -0.3749
C29A C -2.237(2) -0.4507(8) -0.4529(8)
H22A H -2.1944 -0.4949 -0.4257
H23A H -2.3533 -0.4684 -0.4883
H24A H -2.1163 -0.4261 -0.4783
C30A C -1.7841(13) 0.0217(6) -0.3405(5)
H25A H -1.6377 0.0088 -0.3406
H26A H -1.8236 0.0411 -0.3891
C31A C -1.7969(15) 0.0897(6) -0.2783(8)
H27A H -1.7733 0.0665 -0.2296
C32A C -1.6140(18) 0.1471(7) -0.2899(7)
H28A H -1.5943 0.1833 -0.2480
H29A H -1.4869 0.1200 -0.2898
C33A C -1.624(2) 0.1946(8) -0.3593(7)
H30A H -1.6263 0.1586 -0.4009
H31A H -1.7605 0.2159 -0.3622
C34A C -1.446(3) 0.2631(9) -0.3701(11)
H32A H -1.3136 0.2407 -0.3776
H33A H -1.4221 0.2932 -0.3242
C35A C -1.474(4) 0.3117(11) -0.4229(11)
H34A H -1.6153 0.3276 -0.4219
H35A H -1.3675 0.3571 -0.4167
H36A H -1.4598 0.2865 -0.4695
C36A C -1.9996(18) 0.1137(7) -0.2823(7)
H37A H -2.0333 0.1337 -0.3311
H38A H -2.1079 0.0701 -0.2724
C37A C -1.9943(19) 0.1763(6) -0.2258(6)
H39A H -1.9091 0.2230 -0.2416
H40A H -2.1385 0.1874 -0.2193
H41A H -1.9320 0.1592 -0.1799
C38A C -0.7022(17) -0.2054(7) 0.0631(6)
H42A H -0.6497 -0.1748 0.1072
H43A H -0.8565 -0.2041 0.0560
C39A C -0.654(2) -0.2910(8) 0.0723(8)
H44A H -0.7412 -0.3123 0.1110
C40A C -0.723(2) -0.3412(13) 0.0066(11)
H45A H -0.6632 -0.3156 -0.0364
H46A H -0.6644 -0.3907 0.0127
C41A C -0.966(2) -0.3581(8) -0.0073(8)
H47A H -1.0268 -0.3088 -0.0115
H48A H -1.0266 -0.3863 0.0343
C42A C -1.026(3) -0.4061(10) -0.0766(9)
H49A H -0.9619 -0.3786 -0.1180
H50A H -0.9687 -0.4560 -0.0718
C43A C -1.267(3) -0.4214(11) -0.0924(10)
H51A H -1.2997 -0.4608 -0.1307
H52A H -1.3338 -0.4395 -0.0483
H53A H -1.3202 -0.3736 -0.1083
C44A C -0.450(3) -0.2918(11) 0.0986(12)
H54A H -0.3548 -0.2803 0.0587
H55A H -0.4139 -0.2506 0.1359
C45A C -0.409(4) -0.3722(14) 0.1329(16)
H56A H -0.5013 -0.3836 0.1730
H57A H -0.4407 -0.4130 0.0959
H58A H -0.2613 -0.3697 0.1511
S4? S 1.5903(10) 0.1196(5) 0.4524(4)
C46? C 1.7883(4) 0.25906(18) 0.41444(15)
H59? H 1.8234 0.3087 0.3945
H60? H 1.3676 0.4242 0.3224
C47? C 1.643(8) 0.455(2) 0.3653(19)
H61? H 1.6181 0.4982 0.3977
H62? H 1.7636 0.4311 0.3873
C48? C 1.699(7) 0.488(2) 0.2917(19)
H63? H 1.7645 0.4481 0.2656
H64? H 1.5662 0.4952 0.2639
C49? C 1.839(6) 0.559(3) 0.2910(19)
H65? H 1.9127 0.5693 0.3393
H66? H 1.7570 0.6021 0.2789
C50? C 1.996(6) 0.552(3) 0.236(2)
H67? H 2.1282 0.5843 0.2503
H68? H 1.9400 0.5692 0.1887
H69? H 2.0218 0.4982 0.2316
H70? H 0.4538 -0.2857 0.3225
H71? H 0.5343 -0.2921 0.4011
C51? C 0.238(8) -0.313(3) 0.386(3)
H72? H 0.1407 -0.2807 0.4056
H73? H 0.2684 -0.3527 0.4213
H74? H 0.1740 -0.3383 0.3410
H75? H -0.2704 0.3049 -0.1171
C52? C -0.207(15) 0.344(9) -0.017(8)
H76? H -0.0751 0.3416 -0.0415
H77? H -0.2019 0.3035 0.0205
C53? C -0.116(12) 0.411(5) 0.034(5)
H78? H -0.0512 0.4550 0.0068
H79? H -0.0097 0.3945 0.0701
C54? C -0.313(12) 0.431(6) 0.071(5)
H80? H -0.4014 0.3837 0.0860
H81? H -0.3992 0.4612 0.0387
C55? C -0.21(2) 0.479(8) 0.137(5)
H82? H -0.2722 0.4579 0.1814
H83? H -0.2398 0.5326 0.1316
H84? H -0.0587 0.4772 0.1406
loop_
_geom_bond_atom_site_label_1
_geom_bond_atom_site_label_2
_geom_bond_site_symmetry_1
_geom_bond_site_symmetry_2
S1 C1 1_555 1_555
S2 C11 1_555 1_555
S3 C15 1_555 1_555
O1 C7 1_555 1_555
O2 C10 1_555 1_555
O3 C19 1_555 1_555
N1 C7 1_555 1_555
N2 C5 1_555 1_555
C1 H1 1_555 1_555
C2 C1 1_555 1_555
H2 C2 1_555 1_555
C3 C2 1_555 1_555
H3 C3 1_555 1_555
C4 S1 1_555 1_555
C5 C4 1_555 1_555
C6 C5 1_555 1_555
C7 C6 1_555 1_555
C8 N1 1_555 1_555
C9 C6 1_555 1_555
C10 N2 1_555 1_555
C11 C8 1_555 1_555
C12 C11 1_555 1_555
H4 C12 1_555 1_555
C13 C12 1_555 1_555
H5 C13 1_555 1_555
C14 S2 1_555 1_555
C15 C14 1_555 1_555
C16 C15 1_555 1_555
H6 C16 1_555 1_555
C17 C16 1_555 1_555
C18 S3 1_555 1_555
C19 C18 1_555 1_555
C20 C17 1_555 1_555
H7 C20 1_555 1_555
C21 C20 1_555 1_555
C22 N2 1_555 1_555
H8 C22 1_555 1_555
H9 C22 1_555 1_555
C23 C22 1_555 1_555
H10 C23 1_555 1_555
C24 C23 1_555 1_555
H11 C24 1_555 1_555
H12 C24 1_555 1_555
C25 C24 1_555 1_555
H13 C25 1_555 1_555
H14 C25 1_555 1_555
C26 C25 1_555 1_555
H15 C26 1_555 1_555
H16 C26 1_555 1_555
C27 C26 1_555 1_555
H17 C27 1_555 1_555
H18 C27 1_555 1_555
H19 C27 1_555 1_555
C28 C23 1_555 1_555
H20 C28 1_555 1_555
H21 C28 1_555 1_555
C29 C28 1_555 1_555
H22 C29 1_555 1_555
H23 C29 1_555 1_555
H24 C29 1_555 1_555
C30 N1 1_555 1_555
H25 C30 1_555 1_555
H26 C30 1_555 1_555
C31 C30 1_555 1_555
H27 C31 1_555 1_555
C32 C31 1_555 1_555
H28 C32 1_555 1_555
H29 C32 1_555 1_555
C33 C32 1_555 1_555
H30 C33 1_555 1_555
H31 C33 1_555 1_555
C34 C33 1_555 1_555
H32 C34 1_555 1_555
H33 C34 1_555 1_555
C35 C34 1_555 1_555
H34 C35 1_555 1_555
H35 C35 1_555 1_555
H36 C35 1_555 1_555
C36 C31 1_555 1_555
H37 C36 1_555 1_555
H38 C36 1_555 1_555
C37 C36 1_555 1_555
H39 C37 1_555 1_555
H40 C37 1_555 1_555
H41 C37 1_555 1_555
C38 O3 1_555 1_555
H42 C38 1_555 1_555
H43 C38 1_555 1_555
C39 C38 1_555 1_555
H44 C39 1_555 1_555
C40 C39 1_555 1_555
H45 C40 1_555 1_555
H46 C40 1_555 1_555
C41 C40 1_555 1_555
H47 C41 1_555 1_555
H48 C41 1_555 1_555
C42 C41 1_555 1_555
H49 C42 1_555 1_555
H50 C42 1_555 1_555
C43 C42 1_555 1_555
H51 C43 1_555 1_555
H52 C43 1_555 1_555
H53 C43 1_555 1_555
C44 C39 1_555 1_555
H54 C44 1_555 1_555
H55 C44 1_555 1_555
C45 C44 1_555 1_555
H56 C45 1_555 1_555
H57 C45 1_555 1_555
H58 C45 1_555 1_555
S1A C1A 1_555 1_555
S2A C11A 1_555 1_555
S3A C15A 1_555 1_555
O1A C7A 1_555 1_555
O2A C10A 1_555 1_555
O3A C19A 1_555 1_555
N1A C7A 1_555 1_555
N2A C5A 1_555 1_555
C1A H1A 1_555 1_555
C2A C1A 1_555 1_555
H2A C2A 1_555 1_555
C3A C2A 1_555 1_555
H3A C3A 1_555 1_555
C4A S1A 1_555 1_555
C5A C4A 1_555 1_555
C6A C5A 1_555 1_555
C7A C6A 1_555 1_555
C8A N1A 1_555 1_555
C9A C6A 1_555 1_555
C10A N2A 1_555 1_555
C11A C8A 1_555 1_555
C12A C11A 1_555 1_555
H4A C12A 1_555 1_555
C13A C12A 1_555 1_555
H5A C13A 1_555 1_555
C14A S2A 1_555 1_555
C15A C14A 1_555 1_555
C16A C15A 1_555 1_555
H6A C16A 1_555 1_555
C17A C16A 1_555 1_555
C18A S3A 1_555 1_555
C19A C21 1_555 1_555
C20A C17A 1_555 1_555
H7A C20A 1_555 1_555
C21A C19 1_555 1_555
C22A N2A 1_555 1_555
H8A C22A 1_555 1_555
H9A C22A 1_555 1_555
C23A C22A 1_555 1_555
H10A C23A 1_555 1_555
C24A C23A 1_555 1_555
H11A C24A 1_555 1_555
H12A C24A 1_555 1_555
C25A C24A 1_555 1_555
H13A C25A 1_555 1_555
H14A C25A 1_555 1_555
C26A C25A 1_555 1_555
H15A C26A 1_555 1_555
H16A C26A 1_555 1_555
C27A C26A 1_555 1_555
H17A C27A 1_555 1_555
H18A C27A 1_555 1_555
H19A C27A 1_555 1_555
C28A C23A 1_555 1_555
H20A C28A 1_555 1_555
H21A C28A 1_555 1_555
C29A C28A 1_555 1_555
H22A C29A 1_555 1_555
H23A C29A 1_555 1_555
H24A C29A 1_555 1_555
C30A N1A 1_555 1_555
H25A C30A 1_555 1_555
H26A C30A 1_555 1_555
C31A C30A 1_555 1_555
H27A C31A 1_555 1_555
C32A C31A 1_555 1_555
H28A C32A 1_555 1_555
H29A C32A 1_555 1_555
C33A C32A 1_555 1_555
H30A C33A 1_555 1_555
H31A C33A 1_555 1_555
C34A C33A 1_555 1_555
H32A C34A 1_555 1_555
H33A C34A 1_555 1_555
C35A C34A 1_555 1_555
H34A C35A 1_555 1_555
H35A C35A 1_555 1_555
H36A C35A 1_555 1_555
C36A C31A 1_555 1_555
H37A C36A 1_555 1_555
H38A C36A 1_555 1_555
C37A C36A 1_555 1_555
H39A C37A 1_555 1_555
H40A C37A 1_555 1_555
H41A C37A 1_555 1_555
C38A O3A 1_555 1_555
H42A C38A 1_555 1_555
H43A C38A 1_555 1_555
C39A C38A 1_555 1_555
H44A C39A 1_555 1_555
C40A C39A 1_555 1_555
H45A C40A 1_555 1_555
H46A C40A 1_555 1_555
C41A C40A 1_555 1_555
H47A C41A 1_555 1_555
H48A C41A 1_555 1_555
C42A C41A 1_555 1_555
H49A C42A 1_555 1_555
H50A C42A 1_555 1_555
C43A C42A 1_555 1_555
H51A C43A 1_555 1_555
H52A C43A 1_555 1_555
H53A C43A 1_555 1_555
C44A C39A 1_555 1_555
H54A C44A 1_555 1_555
H55A C44A 1_555 1_555
C45A C44A 1_555 1_555
H56A C45A 1_555 1_555
H57A C45A 1_555 1_555
H58A C45A 1_555 1_555
C3 C4 1_555 1_555
C8 C9 1_555 1_555
C9 C10 1_555 1_555
C13 C14 1_555 1_555
C17 C18 1_555 1_555
C21 C21A 1_555 1_555
C3A C4A 1_555 1_555
C8A C9A 1_555 1_555
C9A C10A 1_555 1_555
C13A C14A 1_555 1_555
C17A C18A 1_555 1_555
C18A C19A 1_555 1_555
C20A C21A 1_555 1_555

#END
