
#######################################################################
#
#                 Cambridge Crystallographic Data Centre
#                                CCDC 
#
#######################################################################
#
# If this CIF has been generated from an entry in the Cambridge 
# Structural Database, then it will include bibliographic, chemical, 
# crystal, experimental, refinement or atomic coordinate data resulting 
# from the CCDC's data processing and validation procedures.
#
#######################################################################

data_EFAQIM
_chemical_formula_moiety         'C16 H20 N2 O4'
_chemical_name_systematic        
"(RS)-t-Butyl 2-oxo-1,2-dihydrospiro(benzo(d)(1,3)oxazine-4,3'-pyrrolidine)-1'-carboxylate"
_symmetry_cell_setting           monoclinic
_symmetry_space_group_name_H-M   'C 2/c'
_symmetry_Int_Tables_number      15
_space_group_name_Hall           '-C 2yn'
loop_
_symmetry_equiv_pos_site_id
_symmetry_equiv_pos_as_xyz
1 x,y,z
2 1/2+x,1/2+y,z
3 -x,y,1/2-z
4 1/2-x,1/2+y,1/2-z
5 -x,-y,-z
6 1/2-x,1/2-y,-z
7 x,-y,1/2+z
8 1/2+x,1/2-y,1/2+z
_cell_length_a                   27.423
_cell_length_b                   6.004
_cell_length_c                   20.005
_cell_angle_alpha                90
_cell_angle_beta                 109.79
_cell_angle_gamma                90
_cell_volume                     3099.25
_exptl_crystal_colour            colorless
_chemical_melting_point          '449-450 K'
_cell_formula_units_Z            8
loop_
_atom_site_label
_atom_site_type_symbol
_atom_site_fract_x
_atom_site_fract_y
_atom_site_fract_z
O1 O 0.28749(17) -0.1159(7) 0.1020(2)
O2 O 0.34634(17) -0.3520(7) 0.1759(3)
O3 O 0.43195(15) -0.0718(6) 0.0331(2)
O4 O 0.43958(19) -0.3786(8) -0.0238(3)
N1 N 0.37080(19) -0.0540(7) 0.1245(3)
N2 N 0.5089(2) -0.2707(8) 0.0714(3)
H1 H 0.5248 -0.3956 0.0740
C1 C 0.2471(3) -0.1262(13) 0.1920(4)
H2 H 0.2662 0.0109 0.2027
H3 H 0.2652 -0.2388 0.2252
H4 H 0.2133 -0.1045 0.1954
C2 C 0.2374(3) -0.4522(12) 0.1100(5)
H5 H 0.2181 -0.4925 0.0619
H6 H 0.2200 -0.5077 0.1410
H7 H 0.2715 -0.5155 0.1234
C3 C 0.1978(3) -0.0841(13) 0.0609(5)
H8 H 0.2072 -0.0563 0.0196
H9 H 0.1907 0.0547 0.0796
H10 H 0.1674 -0.1764 0.0481
C4 C 0.2415(3) -0.2003(10) 0.1162(4)
C5 C 0.3344(3) -0.1879(10) 0.1362(4)
C6 C 0.4247(3) -0.1091(9) 0.1498(4)
H11 H 0.4299 -0.2663 0.1434
H12 H 0.4406 -0.0715 0.1996
C7 C 0.3590(2) 0.1487(9) 0.0820(4)
H13 H 0.3395 0.2528 0.1003
H14 H 0.3394 0.1159 0.0327
C8 C 0.4118(2) 0.2399(9) 0.0897(4)
H15 H 0.4112 0.3162 0.0467
H16 H 0.4235 0.3429 0.1293
C9 C 0.4467(2) 0.0354(8) 0.1030(3)
C10 C 0.4588(3) -0.2487(11) 0.0227(4)
C11 C 0.5331(3) -0.1023(10) 0.1145(4)
C12 C 0.5043(2) 0.0666(9) 0.1327(4)
C13 C 0.5299(3) 0.2420(10) 0.1773(4)
H17 H 0.5107 0.3555 0.1880
C14 C 0.5829(3) 0.2472(12) 0.2052(4)
H18 H 0.5998 0.3651 0.2339
C15 C 0.6110(3) 0.0734(14) 0.1899(5)
H19 H 0.6470 0.0765 0.2095
C16 C 0.5882(3) -0.0993(12) 0.1479(5)
H20 H 0.6081 -0.2160 0.1407
loop_
_geom_bond_atom_site_label_1
_geom_bond_atom_site_label_2
_geom_bond_site_symmetry_1
_geom_bond_site_symmetry_2
O1 C4 1_555 1_555
O2 C5 1_555 1_555
O3 C9 1_555 1_555
O4 C10 1_555 1_555
N1 C5 1_555 1_555
N2 H1 1_555 1_555
C1 H2 1_555 1_555
H3 C1 1_555 1_555
H4 C1 1_555 1_555
C2 H5 1_555 1_555
H6 C2 1_555 1_555
H7 C2 1_555 1_555
C3 H8 1_555 1_555
H9 C3 1_555 1_555
H10 C3 1_555 1_555
C4 C1 1_555 1_555
C5 O1 1_555 1_555
C6 N1 1_555 1_555
H11 C6 1_555 1_555
H12 C6 1_555 1_555
C7 N1 1_555 1_555
H13 C7 1_555 1_555
H14 C7 1_555 1_555
C8 C7 1_555 1_555
H15 C8 1_555 1_555
H16 C8 1_555 1_555
C9 C6 1_555 1_555
C10 O3 1_555 1_555
C11 N2 1_555 1_555
C12 C9 1_555 1_555
C13 C12 1_555 1_555
H17 C13 1_555 1_555
C14 C13 1_555 1_555
H18 C14 1_555 1_555
C15 C14 1_555 1_555
H19 C15 1_555 1_555
C16 C11 1_555 1_555
H20 C16 1_555 1_555
N2 C10 1_555 1_555
C2 C4 1_555 1_555
C3 C4 1_555 1_555
C8 C9 1_555 1_555
C11 C12 1_555 1_555
C15 C16 1_555 1_555

#END
