
#######################################################################
#
#                 Cambridge Crystallographic Data Centre
#                                CCDC 
#
#######################################################################
#
# If this CIF has been generated from an entry in the Cambridge 
# Structural Database, then it will include bibliographic, chemical, 
# crystal, experimental, refinement or atomic coordinate data resulting 
# from the CCDC's data processing and validation procedures.
#
#######################################################################

data_EFAXAM
_chemical_name_common            'Dabigatran etexilate tetrahydrate'
_chemical_formula_moiety         'C34 H41 N7 O5,4(H2 O1)'
_chemical_name_systematic        
'Ethyl 3-([2-((4-[(Z)-amino(hexyloxycarbonylimino)methyl]anilino)methyl)-1-methylbenzimidazole-5-carbonyl]pyridin-2-ylamino)propanoate tetrahydrate'
_chemical_properties_biological  
'Dabigatran etexilate is an oral anti-coagulant drug'
_symmetry_cell_setting           triclinic
_symmetry_space_group_name_H-M   'P -1'
_symmetry_Int_Tables_number      2
_space_group_name_Hall           '-P 1'
loop_
_symmetry_equiv_pos_site_id
_symmetry_equiv_pos_as_xyz
1 x,y,z
2 -x,-y,-z
_cell_length_a                   9.1140(13)
_cell_length_b                   10.9700(14)
_cell_length_c                   18.3830(17)
_cell_angle_alpha                88.510(10)
_cell_angle_beta                 85.455(9)
_cell_angle_gamma                83.034(12)
_cell_volume                     1818.39
_exptl_crystal_colour            colorless
_exptl_crystal_description       prism
_cell_formula_units_Z            2
loop_
_atom_site_label
_atom_site_type_symbol
_atom_site_fract_x
_atom_site_fract_y
_atom_site_fract_z
O1 O -0.07658(10) 0.08373(9) 0.62025(5)
O2 O 0.17115(10) 0.05322(9) 0.62048(5)
O3 O 0.42751(11) 1.14550(9) 1.09974(5)
O4 O 0.04154(11) 1.24401(10) 1.31026(6)
O5 O 0.17441(10) 1.34627(9) 1.37972(5)
N1 N -0.20452(13) 0.22911(11) 0.72416(7)
N2 N 0.05361(12) 0.18903(10) 0.69881(6)
N3 N 0.03535(13) 0.61137(11) 0.93156(7)
N4 N -0.10668(11) 0.85922(10) 1.05945(6)
N5 N 0.12518(11) 0.79155(10) 1.01673(6)
N6 N 0.35894(11) 1.13593(10) 1.22064(6)
N7 N 0.60387(12) 1.13966(10) 1.25116(6)
C1 C -0.06690(14) 0.24665(12) 0.73487(7)
C2 C -0.04330(14) 0.33887(11) 0.78872(7)
C3 C 0.09907(14) 0.37209(12) 0.79453(7)
H1 H 0.1804 0.3318 0.7653
C4 C 0.12344(14) 0.46122(12) 0.84135(7)
H2 H 0.2212 0.4814 0.8443
C5 C 0.00592(14) 0.52322(12) 0.88503(7)
C6 C -0.13680(14) 0.49039(12) 0.88028(7)
H3 H -0.2180 0.5307 0.9095
C7 C -0.15985(14) 0.39941(12) 0.83304(7)
H4 H -0.2571 0.3777 0.8307
C8 C 0.03660(15) 0.10830(12) 0.64545(7)
C9 C 0.17173(15) -0.03820(13) 0.56542(8)
H5 H 0.1270 -0.0005 0.5216
H6 H 0.1133 -0.1043 0.5842
C10 C 0.33034(16) -0.09023(14) 0.54624(8)
H7 H 0.3766 -0.1134 0.5905
H8 H 0.3820 -0.0275 0.5222
C11 C 0.3481(5) -0.1909(4) 0.4920(3)
H9 H 0.3006 -0.1595 0.4475
H10 H 0.2939 -0.2585 0.5125
C12 C 0.5069(4) -0.2433(3) 0.4700(2)
H11 H 0.5580 -0.2657 0.5148
H12 H 0.5578 -0.1782 0.4440
C13 C 0.5237(4) -0.3553(4) 0.4216(2)
H13 H 0.4765 -0.4224 0.4476
H14 H 0.4724 -0.3345 0.3766
C14 C 0.6862(7) -0.3987(8) 0.4014(5)
H15 H 0.7345 -0.3306 0.3788
H16 H 0.6941 -0.4663 0.3669
H17 H 0.7347 -0.4273 0.4454
C15 C -0.08019(14) 0.68470(12) 0.97473(7)
H18 H -0.1329 0.6308 1.0090
H19 H -0.1528 0.7268 0.9423
C16 C -0.01657(14) 0.77783(12) 1.01663(7)
C17 C -0.01616(14) 0.93177(12) 1.09055(7)
C18 C 0.12911(14) 0.88895(11) 1.06367(7)
C19 C 0.24838(14) 0.94473(12) 1.08399(7)
H20 H 0.3469 0.9177 1.0655
C20 C 0.21816(14) 1.04163(12) 1.13237(7)
C21 C 0.07151(15) 1.08313(12) 1.15878(7)
H21 H 0.0545 1.1496 1.1917
C22 C -0.04793(15) 1.02964(12) 1.13805(7)
H22 H -0.1468 1.0583 1.1554
C23 C -0.26885(14) 0.86874(13) 1.07118(8)
H23 H -0.3103 0.8480 1.0261
H24 H -0.3081 0.9529 1.0848
H25 H -0.2964 0.8117 1.1104
C24 C 0.34361(14) 1.10995(12) 1.14951(7)
C25 C 0.47803(14) 1.20529(12) 1.23399(7)
C26 C 0.45451(15) 1.33195(12) 1.23265(8)
H26 H 0.3627 1.3745 1.2200
C27 C 0.56949(15) 1.39514(13) 1.25036(8)
H27 H 0.5577 1.4824 1.2504
C28 C 0.70211(15) 1.32896(13) 1.26806(8)
H28 H 0.7828 1.3700 1.2800
C29 C 0.71403(15) 1.20250(13) 1.26791(7)
H29 H 0.8047 1.1575 1.2803
C30 C 0.30221(15) 1.06478(12) 1.28412(7)
H30 H 0.3766 0.9940 1.2941
H31 H 0.2105 1.0322 1.2722
C31 C 0.26932(15) 1.14206(13) 1.35196(7)
H32 H 0.2390 1.0891 1.3935
H33 H 0.3611 1.1749 1.3636
C32 C 0.14955(15) 1.24727(14) 1.34383(7)
C33 C 0.06161(17) 1.45193(14) 1.37596(9)
H34 H -0.0344 1.4315 1.3990
H35 H 0.0483 1.4764 1.3245
C34 C 0.11330(19) 1.55442(14) 1.41568(9)
H36 H 0.1276 1.5286 1.4663
H37 H 0.0388 1.6267 1.4150
H38 H 0.2073 1.5749 1.3917
H39 H -0.2851(19) 0.2647(16) 0.7500(10)
H40 H -0.2158(17) 0.1769(14) 0.6885(9)
H41 H 0.1212(17) 0.6292(14) 0.9290(8)
O6 O 0.39167(12) 0.67342(10) 0.95328(6)
H42 H 0.307(2) 0.7148(16) 0.9744(10)
H43 H 0.442(2) 0.7259(17) 0.9336(10)
O7 O 0.50826(11) 0.30578(10) 0.79165(6)
H44 H 0.482(2) 0.3315(17) 0.8352(11)
H45 H 0.455(2) 0.2495(17) 0.7780(10)
O8 O 0.44104(13) 0.41395(12) 0.92879(7)
H46 H 0.431(2) 0.4908(19) 0.9311(11)
H47 H 0.502(2) 0.3853(17) 0.9665(11)
O9 O 0.35290(12) 0.12591(10) 0.74559(6)
H48 H 0.263(3) 0.145(2) 0.7243(12)
H49 H 0.367(2) 0.0486(17) 0.7441(10)
C35? C 0.3396(14) -0.2118(12) 0.5051(9)
C36? C 0.4992(14) -0.2644(12) 0.4854(7)
C37? C 0.5337(14) -0.3157(13) 0.4106(6)
C38? C 0.683(2) -0.397(2) 0.4025(14)
H50? H 0.3709 -0.1281 0.5891
H51? H 0.3863 -0.0240 0.5312
H52? H 0.2894 -0.2720 0.5360
H53? H 0.2871 -0.1973 0.4600
H54? H 0.5631 -0.1990 0.4909
H55? H 0.5270 -0.3304 0.5213
H56? H 0.5348 -0.2470 0.3746
H57? H 0.4542 -0.3646 0.3993
H58? H 0.7121 -0.4104 0.3506
H59? H 0.6737 -0.4758 0.4274
H60? H 0.7582 -0.3559 0.4243
loop_
_geom_bond_atom_site_label_1
_geom_bond_atom_site_label_2
_geom_bond_site_symmetry_1
_geom_bond_site_symmetry_2
O1 C8 1_555 1_555
O2 C8 1_555 1_555
O3 C24 1_555 1_555
O4 C32 1_555 1_555
O5 C32 1_555 1_555
N1 C1 1_555 1_555
N2 C1 1_555 1_555
N3 C5 1_555 1_555
N4 C16 1_555 1_555
N5 C16 1_555 1_555
N6 C24 1_555 1_555
N7 C25 1_555 1_555
C1 C2 1_555 1_555
C2 C3 1_555 1_555
C3 H1 1_555 1_555
C4 C3 1_555 1_555
H2 C4 1_555 1_555
C5 C4 1_555 1_555
C6 C5 1_555 1_555
H3 C6 1_555 1_555
C7 C2 1_555 1_555
H4 C7 1_555 1_555
C8 N2 1_555 1_555
C9 O2 1_555 1_555
H5 C9 1_555 1_555
H6 C9 1_555 1_555
C10 C9 1_555 1_555
H7 C10 1_555 1_555
H8 C10 1_555 1_555
C11 C10 1_555 1_555
H9 C11 1_555 1_555
H10 C11 1_555 1_555
C12 C11 1_555 1_555
H11 C12 1_555 1_555
H12 C12 1_555 1_555
C13 C12 1_555 1_555
H13 C13 1_555 1_555
H14 C13 1_555 1_555
C14 C13 1_555 1_555
H15 C14 1_555 1_555
H16 C14 1_555 1_555
H17 C14 1_555 1_555
C15 N3 1_555 1_555
H18 C15 1_555 1_555
H19 C15 1_555 1_555
C16 C15 1_555 1_555
C17 N4 1_555 1_555
C18 N5 1_555 1_555
C19 C18 1_555 1_555
H20 C19 1_555 1_555
C20 C19 1_555 1_555
C21 C20 1_555 1_555
H21 C21 1_555 1_555
C22 C17 1_555 1_555
H22 C22 1_555 1_555
C23 N4 1_555 1_555
H23 C23 1_555 1_555
H24 C23 1_555 1_555
H25 C23 1_555 1_555
C24 C20 1_555 1_555
C25 N6 1_555 1_555
C26 C25 1_555 1_555
H26 C26 1_555 1_555
C27 C26 1_555 1_555
H27 C27 1_555 1_555
C28 C27 1_555 1_555
H28 C28 1_555 1_555
C29 N7 1_555 1_555
H29 C29 1_555 1_555
C30 N6 1_555 1_555
H30 C30 1_555 1_555
H31 C30 1_555 1_555
C31 C30 1_555 1_555
H32 C31 1_555 1_555
H33 C31 1_555 1_555
C32 C31 1_555 1_555
C33 O5 1_555 1_555
H34 C33 1_555 1_555
H35 C33 1_555 1_555
C34 C33 1_555 1_555
H36 C34 1_555 1_555
H37 C34 1_555 1_555
H38 C34 1_555 1_555
H39 N1 1_555 1_555
H40 N1 1_555 1_555
H41 N3 1_555 1_555
O6 H42 1_555 1_555
H43 O6 1_555 1_555
O7 H44 1_555 1_555
H45 O7 1_555 1_555
O8 H46 1_555 1_555
H47 O8 1_555 1_555
O9 H48 1_555 1_555
H49 O9 1_555 1_555
C6 C7 1_555 1_555
C17 C18 1_555 1_555
C21 C22 1_555 1_555
C28 C29 1_555 1_555

#END
