
#######################################################################
#
#                 Cambridge Crystallographic Data Centre
#                                CCDC 
#
#######################################################################
#
# If this CIF has been generated from an entry in the Cambridge 
# Structural Database, then it will include bibliographic, chemical, 
# crystal, experimental, refinement or atomic coordinate data resulting 
# from the CCDC's data processing and validation procedures.
#
#######################################################################

data_EFAZIX
_chemical_compound_source        'Rabdosia serra'
_chemical_name_common            'rabdosin E'
_chemical_formula_moiety         'C24 H34 O6'
_chemical_name_systematic        
9-butoxy-14-hydroxy-7,7-dimethyl-17-methylene-3,10-dioxapentacyclo[14.2.1.0^1,13^.0^4,12^.0^8,12^]nonadecane-2,18-dione
_symmetry_cell_setting           orthorhombic
_symmetry_space_group_name_H-M   'P 21 21 21'
_symmetry_Int_Tables_number      19
_space_group_name_Hall           'P 2ac 2ab'
loop_
_symmetry_equiv_pos_site_id
_symmetry_equiv_pos_as_xyz
1 x,y,z
2 1/2+x,1/2-y,-z
3 -x,1/2+y,1/2-z
4 1/2-x,-y,1/2+z
_cell_length_a                   10.60480(10)
_cell_length_b                   11.8934(2)
_cell_length_c                   17.1284(2)
_cell_angle_alpha                90
_cell_angle_beta                 90
_cell_angle_gamma                90
_cell_volume                     2160.36
_exptl_crystal_colour            colorless
_exptl_crystal_description       needle
_cell_formula_units_Z            4
loop_
_atom_site_label
_atom_site_type_symbol
_atom_site_fract_x
_atom_site_fract_y
_atom_site_fract_z
O1 O 0.76996(12) 0.24777(12) 0.90872(7)
O2 O 1.03952(13) 0.24408(11) 0.72887(8)
O3 O 1.02404(12) 0.41715(12) 0.66449(7)
O4 O 0.60002(14) 0.16657(12) 0.86114(8)
O5 O 0.79941(12) 0.57171(11) 0.83361(7)
H1 H 0.8421 0.6306 0.8278
O6 O 0.61276(13) 0.20502(11) 0.68897(8)
C1 C 0.85859(17) 0.34141(16) 0.90069(10)
H2 H 0.8126 0.4130 0.9119
C2 C 0.95985(19) 0.32598(17) 0.96198(11)
H3 H 0.9988 0.2507 0.9569
H4 H 0.9229 0.3325 1.0149
C3 C 1.05877(18) 0.41708(17) 0.94961(10)
H5 H 1.1212 0.4134 0.9925
H6 H 1.0174 0.4916 0.9520
C4 C 1.12777(17) 0.40574(16) 0.87125(11)
C5 C 1.02906(16) 0.41089(15) 0.80338(10)
H7 H 1.0076 0.4915 0.7934
C6 C 1.07765(17) 0.35926(15) 0.72730(11)
H8 H 1.1717 0.3646 0.7250
C7 C 0.67558(17) 0.24191(16) 0.85619(10)
C8 C 0.66466(16) 0.33503(16) 0.79620(10)
C9 C 0.79194(16) 0.38971(14) 0.76634(10)
H9 H 0.8053 0.3607 0.7122
C10 C 0.90418(16) 0.34453(15) 0.81592(10)
C11 C 0.78083(16) 0.51891(15) 0.75908(10)
H10 H 0.8498 0.5451 0.7237
C12 C 0.65437(16) 0.55677(15) 0.72299(11)
H11 H 0.6613 0.5527 0.6654
H12 H 0.6395 0.6364 0.7371
C13 C 0.53902(17) 0.48646(16) 0.74908(11)
H13 H 0.4620 0.5343 0.7547
C14 C 0.57156(17) 0.42600(16) 0.82590(11)
H14 H 0.4959 0.3919 0.8501
H15 H 0.6123 0.4774 0.8637
C15 C 0.59686(17) 0.29415(16) 0.72167(10)
C16 C 0.51620(18) 0.38913(16) 0.69464(11)
C17 C 0.4408(2) 0.38304(19) 0.63322(14)
H16 H 0.4361 0.3155 0.6038
H17 H 0.3914 0.4462 0.6186
C18 C 1.21569(19) 0.50655(19) 0.86125(12)
H18 H 1.2816 0.5041 0.9013
H19 H 1.1672 0.5763 0.8666
H20 H 1.2546 0.5039 0.8094
C19 C 1.2092(2) 0.29918(18) 0.87229(12)
H21 H 1.2610 0.2965 0.8250
H22 H 1.1545 0.2328 0.8742
H23 H 1.2640 0.3002 0.9183
C20 C 0.94030(17) 0.22693(15) 0.78513(11)
H24 H 0.9701 0.1786 0.8284
H25 H 0.8667 0.1904 0.7602
C21 C 1.0588(2) 0.37315(19) 0.58965(11)
H26 H 1.0249 0.2961 0.5832
H27 H 1.1518 0.3699 0.5849
C22 C 1.0047(2) 0.4500(2) 0.52806(12)
H28 H 1.0232 0.4181 0.4759
H29 H 1.0472 0.5239 0.5315
C23 C 0.8632(3) 0.4673(3) 0.53547(14)
H30 H 0.8450 0.4979 0.5881
H31 H 0.8367 0.5245 0.4968
C24 C 0.7851(3) 0.3634(4) 0.52358(18)
H32 H 0.7980 0.3350 0.4705
H33 H 0.6958 0.3816 0.5312
H34 H 0.8106 0.3058 0.5614
loop_
_geom_bond_atom_site_label_1
_geom_bond_atom_site_label_2
_geom_bond_site_symmetry_1
_geom_bond_site_symmetry_2
O1 C1 1_555 1_555
O2 C6 1_555 1_555
O3 C6 1_555 1_555
O4 C7 1_555 1_555
O5 H1 1_555 1_555
O6 C15 1_555 1_555
C1 H2 1_555 1_555
C2 C1 1_555 1_555
H3 C2 1_555 1_555
H4 C2 1_555 1_555
C3 C2 1_555 1_555
H5 C3 1_555 1_555
H6 C3 1_555 1_555
C4 C3 1_555 1_555
C5 C4 1_555 1_555
H7 C5 1_555 1_555
C6 C5 1_555 1_555
H8 C6 1_555 1_555
C7 O1 1_555 1_555
C8 C7 1_555 1_555
C9 C8 1_555 1_555
H9 C9 1_555 1_555
C10 C1 1_555 1_555
C11 O5 1_555 1_555
H10 C11 1_555 1_555
C12 C11 1_555 1_555
H11 C12 1_555 1_555
H12 C12 1_555 1_555
C13 C12 1_555 1_555
H13 C13 1_555 1_555
C14 C8 1_555 1_555
H14 C14 1_555 1_555
H15 C14 1_555 1_555
C15 C8 1_555 1_555
C16 C13 1_555 1_555
C17 C16 1_555 1_555
H16 C17 1_555 1_555
H17 C17 1_555 1_555
C18 C4 1_555 1_555
H18 C18 1_555 1_555
H19 C18 1_555 1_555
H20 C18 1_555 1_555
C19 C4 1_555 1_555
H21 C19 1_555 1_555
H22 C19 1_555 1_555
H23 C19 1_555 1_555
C20 O2 1_555 1_555
H24 C20 1_555 1_555
H25 C20 1_555 1_555
C21 O3 1_555 1_555
H26 C21 1_555 1_555
H27 C21 1_555 1_555
C22 C21 1_555 1_555
H28 C22 1_555 1_555
H29 C22 1_555 1_555
C23 C22 1_555 1_555
H30 C23 1_555 1_555
H31 C23 1_555 1_555
C24 C23 1_555 1_555
H32 C24 1_555 1_555
H33 C24 1_555 1_555
H34 C24 1_555 1_555
C5 C10 1_555 1_555
C9 C10 1_555 1_555
C9 C11 1_555 1_555
C10 C20 1_555 1_555
C13 C14 1_555 1_555
C15 C16 1_555 1_555

#END
