
#######################################################################
#
#                 Cambridge Crystallographic Data Centre
#                                CCDC 
#
#######################################################################
#
# If this CIF has been generated from an entry in the Cambridge 
# Structural Database, then it will include bibliographic, chemical, 
# crystal, experimental, refinement or atomic coordinate data resulting 
# from the CCDC's data processing and validation procedures.
#
#######################################################################

data_EFEBIC
_chemical_formula_moiety         'C21 H30 O3'
_chemical_name_systematic        
17-(1-hydroxyethyl)-10,17-dimethyl-13,14-epoxygon-4-en-3-one
_symmetry_cell_setting           orthorhombic
_symmetry_space_group_name_H-M   'P 21 21 21'
_symmetry_Int_Tables_number      19
_space_group_name_Hall           'P 2ac 2ab'
loop_
_symmetry_equiv_pos_site_id
_symmetry_equiv_pos_as_xyz
1 x,y,z
2 1/2-x,-y,1/2+z
3 1/2+x,1/2-y,-z
4 -x,1/2+y,1/2-z
_cell_length_a                   7.5183(3)
_cell_length_b                   11.0453(7)
_cell_length_c                   22.1689(13)
_cell_angle_alpha                90
_cell_angle_beta                 90
_cell_angle_gamma                90
_cell_volume                     1840.95
_cell_formula_units_Z            4
loop_
_atom_site_label
_atom_site_type_symbol
_atom_site_fract_x
_atom_site_fract_y
_atom_site_fract_z
O1 O -0.4114(3) -0.43351(19) 0.21080(9)
O2 O -0.35491(18) -0.06369(12) -0.08284(6)
O3 O -0.7090(2) 0.1229(2) -0.15718(8)
C1 C -0.5714(3) -0.1679(2) 0.13426(10)
H1 H -0.6618 -0.1068 0.1412
H2 H -0.6118 -0.2190 0.1014
C2 C -0.5528(3) -0.2451(3) 0.19097(10)
H3 H -0.5285 -0.1929 0.2252
H4 H -0.6641 -0.2868 0.1986
C3 C -0.4069(3) -0.3358(2) 0.18490(10)
C4 C -0.2538(3) -0.2985(2) 0.14891(9)
H5 H -0.1581 -0.3515 0.1460
C5 C -0.2430(3) -0.19252(18) 0.11980(8)
C6 C -0.0702(3) -0.1564(2) 0.09098(10)
H6 H 0.0117 -0.2242 0.0924
H7 H -0.0179 -0.0902 0.1136
C7 C -0.0960(3) -0.1174(2) 0.02540(10)
H8 H 0.0154 -0.0864 0.0096
H9 H -0.1302 -0.1870 0.0014
C8 C -0.2381(2) -0.02042(17) 0.02030(9)
H10 H -0.1985 0.0495 0.0440
C9 C -0.4148(2) -0.06490(18) 0.04761(8)
H11 H -0.4492 -0.1373 0.0249
C10 C -0.3971(3) -0.10458(19) 0.11515(8)
C11 C -0.5596(3) 0.0298(2) 0.03628(9)
H12 H -0.6667 0.0063 0.0576
H13 H -0.5207 0.1071 0.0523
C12 C -0.6024(3) 0.0442(2) -0.03075(10)
H14 H -0.6721 -0.0247 -0.0441
H15 H -0.6737 0.1165 -0.0365
C13 C -0.4359(3) 0.05334(18) -0.06883(9)
C14 C -0.2624(2) 0.02097(18) -0.04381(9)
C15 C -0.1190(3) 0.0883(2) -0.07742(10)
H16 H -0.0192 0.0356 -0.0863
H17 H -0.0768 0.1570 -0.0542
C16 C -0.2103(3) 0.1300(2) -0.13556(11)
H18 H -0.1941 0.0706 -0.1673
H19 H -0.1612 0.2066 -0.1490
C17 C -0.4109(3) 0.14413(19) -0.12010(9)
C18 C -0.5272(3) 0.1134(3) -0.17469(10)
H20 H -0.5039 0.0291 -0.1861
C19 C -0.4936(4) 0.1920(4) -0.22897(12)
H21 H -0.5636 0.1634 -0.2623
H22 H -0.3698 0.1886 -0.2394
H23 H -0.5260 0.2740 -0.2198
C20 C -0.3592(4) 0.0052(2) 0.15692(10)
H24 H -0.4544 0.0628 0.1535
H25 H -0.2494 0.0428 0.1452
H26 H -0.3505 -0.0219 0.1979
C21 C -0.4495(4) 0.2714(2) -0.09599(13)
H27 H -0.5754 0.2816 -0.0911
H28 H -0.4054 0.3306 -0.1240
H29 H -0.3916 0.2819 -0.0577
H30 H -0.768(5) 0.063(4) -0.1787(18)
loop_
_geom_bond_atom_site_label_1
_geom_bond_atom_site_label_2
_geom_bond_site_symmetry_1
_geom_bond_site_symmetry_2
O1 C3 1_555 1_555
O2 C13 1_555 1_555
O3 C18 1_555 1_555
C1 H1 1_555 1_555
H2 C1 1_555 1_555
C2 C1 1_555 1_555
H3 C2 1_555 1_555
H4 C2 1_555 1_555
C3 C2 1_555 1_555
C4 C3 1_555 1_555
H5 C4 1_555 1_555
C5 C4 1_555 1_555
C6 C5 1_555 1_555
H6 C6 1_555 1_555
H7 C6 1_555 1_555
C7 C6 1_555 1_555
H8 C7 1_555 1_555
H9 C7 1_555 1_555
C8 C7 1_555 1_555
H10 C8 1_555 1_555
C9 C8 1_555 1_555
H11 C9 1_555 1_555
C10 C1 1_555 1_555
C11 C9 1_555 1_555
H12 C11 1_555 1_555
H13 C11 1_555 1_555
C12 C11 1_555 1_555
H14 C12 1_555 1_555
H15 C12 1_555 1_555
C13 C12 1_555 1_555
C14 O2 1_555 1_555
C15 C14 1_555 1_555
H16 C15 1_555 1_555
H17 C15 1_555 1_555
C16 C15 1_555 1_555
H18 C16 1_555 1_555
H19 C16 1_555 1_555
C17 C13 1_555 1_555
C18 C17 1_555 1_555
H20 C18 1_555 1_555
C19 C18 1_555 1_555
H21 C19 1_555 1_555
H22 C19 1_555 1_555
H23 C19 1_555 1_555
C20 C10 1_555 1_555
H24 C20 1_555 1_555
H25 C20 1_555 1_555
H26 C20 1_555 1_555
C21 C17 1_555 1_555
H27 C21 1_555 1_555
H28 C21 1_555 1_555
H29 C21 1_555 1_555
H30 O3 1_555 1_555
C5 C10 1_555 1_555
C8 C14 1_555 1_555
C9 C10 1_555 1_555
C13 C14 1_555 1_555
C16 C17 1_555 1_555

#END
