
#######################################################################
#
#                 Cambridge Crystallographic Data Centre
#                                CCDC 
#
#######################################################################
#
# If this CIF has been generated from an entry in the Cambridge 
# Structural Database, then it will include bibliographic, chemical, 
# crystal, experimental, refinement or atomic coordinate data resulting 
# from the CCDC's data processing and validation procedures.
#
#######################################################################

data_EFELAD
_chemical_formula_moiety         'C20 H25 B1 N2'
_chemical_name_systematic        
1-t-Butyl-N,N-diphenyl-1,2,5,6-tetrahydro-1,2-azaborinin-2-amine
_symmetry_cell_setting           monoclinic
_symmetry_space_group_name_H-M   'P 21/n'
_symmetry_Int_Tables_number      14
_space_group_name_Hall           '-P 2yn'
loop_
_symmetry_equiv_pos_site_id
_symmetry_equiv_pos_as_xyz
1 x,y,z
2 1/2-x,1/2+y,1/2-z
3 -x,-y,-z
4 1/2+x,1/2-y,1/2+z
_cell_length_a                   9.3902(6)
_cell_length_b                   16.6049(11)
_cell_length_c                   11.3179(8)
_cell_angle_alpha                90
_cell_angle_beta                 98.3440(10)
_cell_angle_gamma                90
_cell_volume                     1746.04
_exptl_crystal_colour            colorless
_exptl_crystal_description       block
_cell_formula_units_Z            4
loop_
_atom_site_label
_atom_site_type_symbol
_atom_site_fract_x
_atom_site_fract_y
_atom_site_fract_z
N1 N 0.32043(12) 0.28739(7) 0.60029(10)
N2 N 0.58457(12) 0.24729(7) 0.60903(10)
B1 B 0.43221(17) 0.23039(9) 0.62081(14)
C1 C 0.39738(16) 0.14644(9) 0.67123(14)
C2 C 0.29593(18) 0.14272(10) 0.74273(15)
C3 C 0.20907(19) 0.21526(11) 0.75812(16)
C4 C 0.18651(17) 0.26735(10) 0.64837(16)
C5 C 0.30745(15) 0.36146(8) 0.52335(13)
C6 C 0.16123(19) 0.36166(11) 0.44263(18)
C7 C 0.3210(2) 0.43729(10) 0.60036(16)
C8 C 0.4201(2) 0.36240(12) 0.43924(16)
C9 C 0.65785(14) 0.31425(8) 0.66793(12)
C10 C 0.61929(16) 0.34165(9) 0.77541(13)
C11 C 0.68502(17) 0.40902(9) 0.83178(15)
C12 C 0.79164(17) 0.44953(9) 0.78329(15)
C13 C 0.83261(17) 0.42153(9) 0.67812(15)
C14 C 0.76647(16) 0.35489(9) 0.62025(14)
C15 C 0.66427(14) 0.18827(8) 0.55624(12)
C16 C 0.80959(16) 0.17311(9) 0.59643(14)
C17 C 0.88299(17) 0.11481(9) 0.54132(14)
C18 C 0.81332(17) 0.06957(9) 0.44764(14)
C19 C 0.66879(17) 0.08271(9) 0.40964(14)
C20 C 0.59483(16) 0.14218(8) 0.46192(13)
H1 H 0.4598(18) 0.1015(10) 0.6666(15)
H2 H 0.2773(19) 0.0938(11) 0.7872(16)
H3 H 0.113(2) 0.2023(10) 0.7814(16)
H4 H 0.262(2) 0.2477(11) 0.8281(17)
H5 H 0.1173(18) 0.2386(10) 0.5822(15)
H6 H 0.1362(17) 0.3192(10) 0.6664(14)
H7 H 0.149(2) 0.3107(13) 0.3975(18)
H8 H 0.075(2) 0.3676(11) 0.4873(17)
H9 H 0.1572(18) 0.4088(11) 0.3862(16)
H10 H 0.243(2) 0.4381(11) 0.6530(18)
H11 H 0.3070(18) 0.4852(11) 0.5493(16)
H12 H 0.418(2) 0.4418(11) 0.6505(16)
H13 H 0.414(2) 0.3113(12) 0.3904(17)
H14 H 0.517(2) 0.3699(11) 0.4816(17)
H15 H 0.3973(18) 0.4092(11) 0.3797(15)
H16 H 0.5416(17) 0.3145(9) 0.8098(13)
H17 H 0.6570(17) 0.4279(10) 0.9092(16)
H18 H 0.8371(16) 0.4971(10) 0.8242(14)
H19 H 0.9078(17) 0.4488(10) 0.6437(14)
H20 H 0.7954(16) 0.3355(9) 0.5441(14)
H21 H 0.8598(16) 0.2039(9) 0.6651(14)
H22 H 0.9867(19) 0.1061(10) 0.5714(15)
H23 H 0.8644(17) 0.0296(10) 0.4065(14)
H24 H 0.6165(17) 0.0522(10) 0.3435(14)
H25 H 0.4943(17) 0.1523(9) 0.4334(14)
loop_
_geom_bond_atom_site_label_1
_geom_bond_atom_site_label_2
_geom_bond_site_symmetry_1
_geom_bond_site_symmetry_2
N1 B1 1_555 1_555
N2 B1 1_555 1_555
B1 C1 1_555 1_555
C1 C2 1_555 1_555
C2 C3 1_555 1_555
C3 C4 1_555 1_555
C4 N1 1_555 1_555
C5 N1 1_555 1_555
C6 C5 1_555 1_555
C7 C5 1_555 1_555
C8 C5 1_555 1_555
C9 N2 1_555 1_555
C10 C9 1_555 1_555
C11 C10 1_555 1_555
C12 C11 1_555 1_555
C13 C12 1_555 1_555
C14 C9 1_555 1_555
C15 N2 1_555 1_555
C16 C15 1_555 1_555
C17 C16 1_555 1_555
C18 C17 1_555 1_555
C19 C18 1_555 1_555
C20 C15 1_555 1_555
H1 C1 1_555 1_555
H2 C2 1_555 1_555
H3 C3 1_555 1_555
H4 C3 1_555 1_555
H5 C4 1_555 1_555
H6 C4 1_555 1_555
H7 C6 1_555 1_555
H8 C6 1_555 1_555
H9 C6 1_555 1_555
H10 C7 1_555 1_555
H11 C7 1_555 1_555
H12 C7 1_555 1_555
H13 C8 1_555 1_555
H14 C8 1_555 1_555
H15 C8 1_555 1_555
H16 C10 1_555 1_555
H17 C11 1_555 1_555
H18 C12 1_555 1_555
H19 C13 1_555 1_555
H20 C14 1_555 1_555
H21 C16 1_555 1_555
H22 C17 1_555 1_555
H23 C18 1_555 1_555
H24 C19 1_555 1_555
H25 C20 1_555 1_555
C13 C14 1_555 1_555
C19 C20 1_555 1_555

#END
