
#######################################################################
#
#                 Cambridge Crystallographic Data Centre
#                                CCDC 
#
#######################################################################
#
# If this CIF has been generated from an entry in the Cambridge 
# Structural Database, then it will include bibliographic, chemical, 
# crystal, experimental, refinement or atomic coordinate data resulting 
# from the CCDC's data processing and validation procedures.
#
#######################################################################

data_EFESUF
_chemical_formula_moiety         'C20 H34 O3'
_chemical_name_systematic        12,13-epoxyabietane-8,14-diol
_symmetry_cell_setting           monoclinic
_symmetry_space_group_name_H-M   'P 21'
_symmetry_Int_Tables_number      4
_space_group_name_Hall           'P 2yb'
loop_
_symmetry_equiv_pos_site_id
_symmetry_equiv_pos_as_xyz
1 x,y,z
2 -x,1/2+y,-z
_cell_length_a                   10.94830(10)
_cell_length_b                   11.92220(10)
_cell_length_c                   14.08370(10)
_cell_angle_alpha                90
_cell_angle_beta                 95.3230(10)
_cell_angle_gamma                90
_cell_volume                     1830.39
_exptl_crystal_colour            colorless
_exptl_crystal_description       block
_cell_formula_units_Z            4
loop_
_atom_site_label
_atom_site_type_symbol
_atom_site_fract_x
_atom_site_fract_y
_atom_site_fract_z
O1 O 0.58226(12) 0.72624(11) 0.09568(10)
H1 H 0.5650 0.6585 0.0851
O2 O 0.44485(13) 0.99402(11) -0.04738(9)
O3 O 0.28221(12) 0.84204(11) 0.00819(10)
H2 H 0.2827 0.9124 0.0115
C1 C 0.57397(18) 1.02082(16) 0.29588(13)
H3 H 0.6462 1.0538 0.2689
H4 H 0.5011 1.0654 0.2723
C2 C 0.5918(2) 1.02902(18) 0.40462(15)
H5 H 0.6674 0.9884 0.4285
H6 H 0.6017 1.1087 0.4237
C3 C 0.4822(2) 0.97895(18) 0.44895(14)
H7 H 0.4084 1.0240 0.4287
H8 H 0.4969 0.9845 0.5192
C4 C 0.45687(19) 0.85548(17) 0.42166(13)
C5 C 0.45185(18) 0.84348(15) 0.31096(13)
H9 H 0.3759 0.8845 0.2861
C6 C 0.43186(19) 0.72259(16) 0.27549(13)
H10 H 0.5097 0.6802 0.2854
H11 H 0.3705 0.6850 0.3120
C7 C 0.38689(18) 0.72410(16) 0.16972(13)
H12 H 0.3046 0.7591 0.1618
H13 H 0.3784 0.6458 0.1465
C8 C 0.47193(17) 0.78762(14) 0.10812(13)
C9 C 0.51140(17) 0.90219(14) 0.15151(13)
H14 H 0.4366 0.9507 0.1454
C10 C 0.55685(17) 0.89902(15) 0.26024(12)
C11 C 0.60347(18) 0.95692(16) 0.08970(14)
H15 H 0.6143 1.0364 0.1090
H16 H 0.6838 0.9192 0.1028
C12 C 0.56696(18) 0.95244(16) -0.01520(14)
H17 H 0.6329 0.9736 -0.0565
C13 C 0.47393(17) 0.87546(15) -0.05906(13)
C14 C 0.40462(17) 0.80213(15) 0.00722(13)
H18 H 0.3988 0.7257 -0.0221
C15 C 0.47223(19) 0.83373(17) -0.16150(13)
H19 H 0.5188 0.7615 -0.1597
C16 C 0.5352(3) 0.9137(2) -0.22630(15)
H20 H 0.4905 0.9850 -0.2311
H21 H 0.5356 0.8803 -0.2899
H22 H 0.6197 0.9270 -0.1995
C17 C 0.3423(2) 0.8086(2) -0.20518(14)
H23 H 0.3040 0.7538 -0.1655
H24 H 0.3455 0.7781 -0.2695
H25 H 0.2940 0.8780 -0.2086
C18 C 0.68172(17) 0.83862(17) 0.27784(13)
H26 H 0.7419 0.8757 0.2411
H27 H 0.6726 0.7601 0.2577
H28 H 0.7099 0.8417 0.3459
C19 C 0.5517(2) 0.77886(19) 0.47581(15)
H29 H 0.5426 0.7830 0.5443
H30 H 0.6345 0.8032 0.4639
H31 H 0.5388 0.7014 0.4539
C20 C 0.3304(2) 0.8257(2) 0.45306(15)
H32 H 0.3140 0.7458 0.4417
H33 H 0.2673 0.8704 0.4164
H34 H 0.3289 0.8420 0.5212
O4 O 0.87083(12) 0.51321(11) 0.90895(10)
H35 H 0.8925 0.4461 0.9172
O5 O 1.01488(13) 0.78184(11) 1.05573(9)
O6 O 1.17263(12) 0.62493(13) 0.99634(10)
H36 H 1.1764 0.6951 1.0016
C21 C 0.8781(2) 0.83475(19) 0.73107(16)
H37 H 0.8101 0.8686 0.7629
H38 H 0.9552 0.8718 0.7566
C22 C 0.8572(3) 0.8575(2) 0.62383(18)
H39 H 0.7772 0.8257 0.5986
H40 H 0.8548 0.9394 0.6125
C23 C 0.9585(3) 0.8057(2) 0.57191(17)
H41 H 1.0368 0.8436 0.5930
H42 H 0.9408 0.8197 0.5027
C24 C 0.9747(2) 0.6790(2) 0.58800(15)
C25 C 0.98552(18) 0.65502(17) 0.69769(13)
H43 H 1.0635 0.6929 0.7225
C26 C 1.00520(18) 0.53223(17) 0.72568(13)
H44 H 0.9261 0.4915 0.7177
H45 H 1.0620 0.4966 0.6840
C27 C 1.05874(17) 0.52605(16) 0.82927(13)
H46 H 1.1401 0.5629 0.8353
H47 H 1.0709 0.4463 0.8474
C28 C 0.97739(16) 0.58185(15) 0.89842(13)
C29 C 0.93337(17) 0.69860(15) 0.86392(13)
H48 H 1.0068 0.7486 0.8734
C30 C 0.88606(17) 0.70873(16) 0.75573(13)
C31 C 0.84120(19) 0.74400(16) 0.93086(15)
H49 H 0.8199 0.8224 0.9129
H50 H 0.7650 0.6989 0.9223
C32 C 0.89056(18) 0.74065(16) 1.03357(14)
H51 H 0.8310 0.7614 1.0803
C33 C 0.98784(18) 0.66315(16) 1.06906(13)
C34 C 1.04926(17) 0.58957(15) 0.99870(13)
H52 H 1.0523 0.5119 1.0257
C35 C 0.9978(2) 0.62054(19) 1.17179(14)
H53 H 1.0732 0.5731 1.1815
C36 C 0.8874(2) 0.5451(2) 1.18398(18)
H54 H 0.8931 0.5157 1.2492
H55 H 0.8867 0.4826 1.1388
H56 H 0.8117 0.5887 1.1717
C37 C 1.0096(3) 0.7142(2) 1.24597(16)
H57 H 1.0825 0.7593 1.2372
H58 H 1.0174 0.6814 1.3100
H59 H 0.9365 0.7619 1.2383
C38 C 0.75829(18) 0.65472(19) 0.73592(15)
H60 H 0.7017 0.6884 0.7778
H61 H 0.7643 0.5739 0.7482
H62 H 0.7276 0.6675 0.6692
C39 C 0.8729(2) 0.6136(2) 0.52988(15)
H63 H 0.7927 0.6419 0.5446
H64 H 0.8796 0.5338 0.5462
H65 H 0.8813 0.6233 0.4617
C40 C 1.0967(2) 0.6446(3) 0.54983(16)
H66 H 1.1040 0.5626 0.5508
H67 H 1.1653 0.6774 0.5902
H68 H 1.0984 0.6717 0.4843
loop_
_geom_bond_atom_site_label_1
_geom_bond_atom_site_label_2
_geom_bond_site_symmetry_1
_geom_bond_site_symmetry_2
O1 H1 1_555 1_555
O2 C12 1_555 1_555
O3 H2 1_555 1_555
C1 H3 1_555 1_555
H4 C1 1_555 1_555
C2 C1 1_555 1_555
H5 C2 1_555 1_555
H6 C2 1_555 1_555
C3 C2 1_555 1_555
H7 C3 1_555 1_555
H8 C3 1_555 1_555
C4 C3 1_555 1_555
C5 C4 1_555 1_555
H9 C5 1_555 1_555
C6 C5 1_555 1_555
H10 C6 1_555 1_555
H11 C6 1_555 1_555
C7 C6 1_555 1_555
H12 C7 1_555 1_555
H13 C7 1_555 1_555
C8 O1 1_555 1_555
C9 C8 1_555 1_555
H14 C9 1_555 1_555
C10 C1 1_555 1_555
C11 C9 1_555 1_555
H15 C11 1_555 1_555
H16 C11 1_555 1_555
C12 C11 1_555 1_555
H17 C12 1_555 1_555
C13 O2 1_555 1_555
C14 O3 1_555 1_555
H18 C14 1_555 1_555
C15 C13 1_555 1_555
H19 C15 1_555 1_555
C16 C15 1_555 1_555
H20 C16 1_555 1_555
H21 C16 1_555 1_555
H22 C16 1_555 1_555
C17 C15 1_555 1_555
H23 C17 1_555 1_555
H24 C17 1_555 1_555
H25 C17 1_555 1_555
C18 C10 1_555 1_555
H26 C18 1_555 1_555
H27 C18 1_555 1_555
H28 C18 1_555 1_555
C19 C4 1_555 1_555
H29 C19 1_555 1_555
H30 C19 1_555 1_555
H31 C19 1_555 1_555
C20 C4 1_555 1_555
H32 C20 1_555 1_555
H33 C20 1_555 1_555
H34 C20 1_555 1_555
O4 H35 1_555 1_555
O5 C32 1_555 1_555
O6 H36 1_555 1_555
C21 H37 1_555 1_555
H38 C21 1_555 1_555
C22 C21 1_555 1_555
H39 C22 1_555 1_555
H40 C22 1_555 1_555
C23 C22 1_555 1_555
H41 C23 1_555 1_555
H42 C23 1_555 1_555
C24 C23 1_555 1_555
C25 C24 1_555 1_555
H43 C25 1_555 1_555
C26 C25 1_555 1_555
H44 C26 1_555 1_555
H45 C26 1_555 1_555
C27 C26 1_555 1_555
H46 C27 1_555 1_555
H47 C27 1_555 1_555
C28 O4 1_555 1_555
C29 C28 1_555 1_555
H48 C29 1_555 1_555
C30 C21 1_555 1_555
C31 C29 1_555 1_555
H49 C31 1_555 1_555
H50 C31 1_555 1_555
C32 C31 1_555 1_555
H51 C32 1_555 1_555
C33 O5 1_555 1_555
C34 O6 1_555 1_555
H52 C34 1_555 1_555
C35 C33 1_555 1_555
H53 C35 1_555 1_555
C36 C35 1_555 1_555
H54 C36 1_555 1_555
H55 C36 1_555 1_555
H56 C36 1_555 1_555
C37 C35 1_555 1_555
H57 C37 1_555 1_555
H58 C37 1_555 1_555
H59 C37 1_555 1_555
C38 C30 1_555 1_555
H60 C38 1_555 1_555
H61 C38 1_555 1_555
H62 C38 1_555 1_555
C39 C24 1_555 1_555
H63 C39 1_555 1_555
H64 C39 1_555 1_555
H65 C39 1_555 1_555
C40 C24 1_555 1_555
H66 C40 1_555 1_555
H67 C40 1_555 1_555
H68 C40 1_555 1_555
C5 C10 1_555 1_555
C7 C8 1_555 1_555
C8 C14 1_555 1_555
C9 C10 1_555 1_555
C12 C13 1_555 1_555
C13 C14 1_555 1_555
C25 C30 1_555 1_555
C27 C28 1_555 1_555
C28 C34 1_555 1_555
C29 C30 1_555 1_555
C32 C33 1_555 1_555
C33 C34 1_555 1_555

#END
