
#######################################################################
#
#                 Cambridge Crystallographic Data Centre
#                                CCDC 
#
#######################################################################
#
# If this CIF has been generated from an entry in the Cambridge 
# Structural Database, then it will include bibliographic, chemical, 
# crystal, experimental, refinement or atomic coordinate data resulting 
# from the CCDC's data processing and validation procedures.
#
#######################################################################

data_EFETAM
_chemical_formula_moiety         'C20 H34 O3'
_chemical_name_systematic        9,13-epoxyabietane-8,14-diol
_symmetry_cell_setting           monoclinic
_symmetry_space_group_name_H-M   'P 21'
_symmetry_Int_Tables_number      4
_space_group_name_Hall           'P 2yb'
loop_
_symmetry_equiv_pos_site_id
_symmetry_equiv_pos_as_xyz
1 x,y,z
2 -x,1/2+y,-z
_cell_length_a                   9.80500(10)
_cell_length_b                   8.64910(10)
_cell_length_c                   11.52950(10)
_cell_angle_alpha                90
_cell_angle_beta                 108.1830(10)
_cell_angle_gamma                90
_cell_volume                     928.928
_exptl_crystal_colour            colorless
_exptl_crystal_description       prism
_cell_formula_units_Z            2
loop_
_atom_site_label
_atom_site_type_symbol
_atom_site_fract_x
_atom_site_fract_y
_atom_site_fract_z
O1 O 0.08101(14) 0.41453(16) 0.83811(12)
O2 O 0.07775(16) 0.39119(17) 0.52879(12)
H1 H 0.0038 0.4399 0.4891
O3 O -0.09002(16) 0.60146(18) 0.55587(13)
H2 H -0.0740 0.6879 0.5296
C1 C 0.2039(2) 0.0474(3) 0.8220(2)
H3 H 0.1594 0.0472 0.8882
H4 H 0.1305 0.0119 0.7464
C2 C 0.3284(2) -0.0666(3) 0.8545(2)
H5 H 0.3999 -0.0361 0.9327
H6 H 0.2929 -0.1713 0.8646
C3 C 0.3986(2) -0.0690(3) 0.7539(2)
H7 H 0.3274 -0.1045 0.6771
H8 H 0.4785 -0.1445 0.7757
C4 C 0.4571(2) 0.0897(3) 0.7319(2)
C5 C 0.3337(2) 0.2119(3) 0.70955(18)
H9 H 0.2619 0.1794 0.6308
C6 C 0.3824(2) 0.3737(3) 0.6830(2)
H10 H 0.4763 0.3974 0.7440
H11 H 0.3961 0.3728 0.6015
C7 C 0.2756(2) 0.5020(2) 0.6862(2)
H12 H 0.3031 0.5476 0.7690
H13 H 0.2805 0.5846 0.6282
C8 C 0.1228(2) 0.4425(2) 0.65320(16)
C9 C 0.10900(19) 0.3161(2) 0.74569(16)
C10 C 0.2476(2) 0.2148(2) 0.80265(17)
C11 C -0.0370(2) 0.2339(2) 0.69317(19)
H14 H -0.0445 0.1436 0.7436
H15 H -0.0524 0.1995 0.6081
C12 C -0.1449(2) 0.3622(3) 0.69902(19)
H16 H -0.2057 0.3928 0.6163
H17 H -0.2071 0.3287 0.7474
C13 C -0.0446(2) 0.4945(2) 0.76268(18)
C14 C 0.0165(2) 0.5705(2) 0.66936(16)
H18 H 0.0699 0.6671 0.7037
C15 C -0.1043(2) 0.6005(3) 0.84153(19)
H19 H -0.1386 0.5327 0.8970
C16 C -0.2339(3) 0.6912(4) 0.7631(3)
H20 H -0.2722 0.7554 0.8157
H21 H -0.3081 0.6190 0.7170
H22 H -0.2045 0.7575 0.7062
C17 C 0.0096(3) 0.7080(3) 0.9222(2)
H23 H 0.0389 0.7832 0.8710
H24 H 0.0931 0.6471 0.9686
H25 H -0.0300 0.7627 0.9789
C18 C 0.5020(3) 0.0784(3) 0.6152(2)
H26 H 0.5665 -0.0100 0.6218
H27 H 0.5516 0.1736 0.6054
H28 H 0.4164 0.0645 0.5441
C19 C 0.5940(2) 0.1258(3) 0.8388(2)
H29 H 0.5741 0.1124 0.9164
H30 H 0.6238 0.2327 0.8320
H31 H 0.6710 0.0552 0.8358
C20 C 0.3347(2) 0.2817(3) 0.92760(18)
H32 H 0.2732 0.2893 0.9800
H33 H 0.3702 0.3847 0.9163
H34 H 0.4162 0.2136 0.9660
loop_
_geom_bond_atom_site_label_1
_geom_bond_atom_site_label_2
_geom_bond_site_symmetry_1
_geom_bond_site_symmetry_2
O1 C9 1_555 1_555
O2 H1 1_555 1_555
O3 H2 1_555 1_555
C1 H3 1_555 1_555
H4 C1 1_555 1_555
C2 C1 1_555 1_555
H5 C2 1_555 1_555
H6 C2 1_555 1_555
C3 C2 1_555 1_555
H7 C3 1_555 1_555
H8 C3 1_555 1_555
C4 C3 1_555 1_555
C5 C4 1_555 1_555
H9 C5 1_555 1_555
C6 C5 1_555 1_555
H10 C6 1_555 1_555
H11 C6 1_555 1_555
C7 C6 1_555 1_555
H12 C7 1_555 1_555
H13 C7 1_555 1_555
C8 O2 1_555 1_555
C9 C8 1_555 1_555
C10 C1 1_555 1_555
C11 C9 1_555 1_555
H14 C11 1_555 1_555
H15 C11 1_555 1_555
C12 C11 1_555 1_555
H16 C12 1_555 1_555
H17 C12 1_555 1_555
C13 O1 1_555 1_555
C14 O3 1_555 1_555
H18 C14 1_555 1_555
C15 C13 1_555 1_555
H19 C15 1_555 1_555
C16 C15 1_555 1_555
H20 C16 1_555 1_555
H21 C16 1_555 1_555
H22 C16 1_555 1_555
C17 C15 1_555 1_555
H23 C17 1_555 1_555
H24 C17 1_555 1_555
H25 C17 1_555 1_555
C18 C4 1_555 1_555
H26 C18 1_555 1_555
H27 C18 1_555 1_555
H28 C18 1_555 1_555
C19 C4 1_555 1_555
H29 C19 1_555 1_555
H30 C19 1_555 1_555
H31 C19 1_555 1_555
C20 C10 1_555 1_555
H32 C20 1_555 1_555
H33 C20 1_555 1_555
H34 C20 1_555 1_555
C5 C10 1_555 1_555
C7 C8 1_555 1_555
C8 C14 1_555 1_555
C9 C10 1_555 1_555
C12 C13 1_555 1_555
C13 C14 1_555 1_555

#END
