
#######################################################################
#
#                 Cambridge Crystallographic Data Centre
#                                CCDC 
#
#######################################################################
#
# If this CIF has been generated from an entry in the Cambridge 
# Structural Database, then it will include bibliographic, chemical, 
# crystal, experimental, refinement or atomic coordinate data resulting 
# from the CCDC's data processing and validation procedures.
#
#######################################################################

data_EFIHUY
_chemical_name_common            
'6,21-diphenyl-11,16-di-p-tolil-24-thia-m-benziporphyrin dichloromethane solvate'
_chemical_formula_moiety         'C48 H34 N2 S1,C1 H2 Cl2'
_chemical_name_systematic        
'7,12-bis(4-methylphenyl)-2,17-diphenyl-24-thia-23,25-diazapentacyclo[16.3.1.1^3,6^.1^8,11^.1^13,16^]pentacosa-1(22),2,4,6(25),7,9,11,13(23),14,16,18,20-dodecaene dichloromethane solvate'
_symmetry_cell_setting           monoclinic
_symmetry_space_group_name_H-M   'P 21/n'
_symmetry_Int_Tables_number      14
_space_group_name_Hall           '-P 2yn'
loop_
_symmetry_equiv_pos_site_id
_symmetry_equiv_pos_as_xyz
1 x,y,z
2 1/2-x,1/2+y,1/2-z
3 -x,-y,-z
4 1/2+x,1/2-y,1/2+z
_cell_length_a                   15.054(3)
_cell_length_b                   16.560(3)
_cell_length_c                   15.220(3)
_cell_angle_alpha                90
_cell_angle_beta                 96.87(3)
_cell_angle_gamma                90
_cell_volume                     3767.02
_exptl_crystal_colour            'dark blue'
_exptl_crystal_description       block
_cell_formula_units_Z            4
loop_
_atom_site_label
_atom_site_type_symbol
_atom_site_fract_x
_atom_site_fract_y
_atom_site_fract_z
S1 S 0.05563(5) 0.12978(5) 0.17387(5)
N1 N -0.11774(16) 0.17038(15) 0.18196(17)
N2 N 0.15183(17) 0.11469(15) 0.33386(17)
C1 C -0.1153(2) 0.09491(19) -0.2115(2)
H1 H -0.0978 0.0541 -0.2498
C2 C 0.0129(2) 0.13668(18) 0.0610(2)
C3 C -0.20016(19) 0.18219(17) 0.3104(2)
C4 C -0.1414(2) 0.15481(18) 0.0962(2)
C5 C -0.19641(19) 0.16754(18) 0.2223(2)
C6 C 0.4008(2) 0.09070(19) 0.2210(2)
H2 H 0.3997 0.1337 0.2622
C7 C -0.1113(2) 0.14921(18) -0.0630(2)
C8 C 0.1327(2) 0.10925(19) 0.5798(2)
C9 C 0.2226(2) 0.08246(18) 0.3022(2)
C10 C -0.4438(2) 0.22202(18) 0.3410(2)
H3 H -0.4928 0.2537 0.3153
C11 C 0.0238(2) 0.17419(18) 0.4609(2)
C12 C 0.1651(2) 0.11302(19) 0.0524(2)
H4 H 0.2180 0.1061 0.0250
C13 C 0.1077(2) 0.12715(18) 0.4837(2)
C14 C 0.2164(2) 0.13167(19) 0.6235(2)
H5 H 0.2562 0.1627 0.5930
C15 C -0.0774(2) 0.14714(17) 0.03286(19)
C16 C -0.2887(2) 0.18104(18) 0.3455(2)
C17 C -0.2718(2) 0.14750(18) 0.1558(2)
H6 H -0.3325 0.1408 0.1656
C18 C 0.1638(2) 0.09996(19) 0.4254(2)
C19 C 0.2330(2) 0.08477(18) 0.2092(2)
C20 C 0.3205(2) 0.05777(18) 0.1821(2)
C21 C 0.1632(2) 0.10695(18) 0.1469(2)
C22 C -0.1221(2) 0.20064(18) 0.3781(2)
C23 C -0.2993(2) 0.13291(19) 0.4192(2)
H7 H -0.2496 0.1039 0.4478
C24 C -0.2382(2) 0.14052(18) 0.0780(2)
H8 H -0.2708 0.1286 0.0221
C25 C -0.1363(2) 0.26140(18) 0.4394(2)
H9 H -0.1917 0.2896 0.4336
C26 C 0.0845(2) 0.12940(18) 0.0066(2)
H10 H 0.0759 0.1356 -0.0559
C27 C -0.3619(2) 0.22607(19) 0.3070(2)
H11 H -0.3558 0.2596 0.2574
C28 C -0.0869(2) 0.09033(19) -0.1218(2)
H12 H -0.0502 0.0465 -0.0996
C29 C -0.3816(2) 0.1272(2) 0.4507(2)
H13 H -0.3885 0.0924 0.4991
C30 C -0.1966(2) 0.2153(2) -0.1881(2)
H14 H -0.2353 0.2579 -0.2104
C31 C 0.4066(2) -0.0318(2) 0.0999(2)
H15 H 0.4077 -0.0733 0.0569
C32 C 0.4868(2) -0.0006(2) 0.1404(2)
C33 C -0.1686(2) 0.21124(18) -0.0981(2)
H16 H -0.1883 0.2509 -0.0596
C34 C 0.2844(2) 0.04502(18) 0.3722(2)
H17 H 0.3397 0.0193 0.3656
C35 C 0.2473(2) 0.05428(18) 0.4475(2)
H18 H 0.2706 0.0349 0.5044
C36 C -0.0401(2) 0.15916(18) 0.3873(2)
H19 H -0.0278 0.1209 0.3438
C37 C -0.4541(2) 0.17184(19) 0.4123(2)
H20 H -0.5103 0.1681 0.4345
C38 C 0.0069(2) 0.23566(19) 0.5199(2)
H21 H 0.0500 0.2467 0.5693
C39 C 0.4821(2) 0.06176(19) 0.2008(2)
H22 H 0.5359 0.0850 0.2289
C40 C 0.3246(2) -0.0038(2) 0.1207(2)
H23 H 0.2709 -0.0270 0.0927
C41 C -0.1693(2) 0.1582(2) -0.2468(2)
C42 C 0.5751(2) -0.0367(2) 0.1236(2)
H24 H 0.5647 -0.0794 0.0789
H25 H 0.6050 -0.0597 0.1787
H26 H 0.6129 0.0053 0.1022
C43 C -0.0711(2) 0.28076(19) 0.5081(2)
H27 H -0.0797 0.3244 0.5467
C44 C 0.1843(2) 0.0637(2) 0.7560(2)
H28 H 0.2023 0.0473 0.8152
C45 C 0.1009(2) 0.0427(2) 0.7143(2)
H29 H 0.0612 0.0121 0.7453
C46 C -0.1968(3) 0.1649(2) -0.3452(2)
H30 H -0.2348 0.2125 -0.3576
H31 H -0.2301 0.1164 -0.3663
H32 H -0.1433 0.1700 -0.3757
C47 C 0.0745(2) 0.06618(19) 0.6272(2)
H33 H 0.0164 0.0527 0.5998
C48 C 0.2416(2) 0.1090(2) 0.7105(2)
H34 H 0.2985 0.1246 0.7393
C49 C 0.5021(4) 0.1668(4) 0.6453(5)
H41 H 0.5272 0.1939 0.5958
H42 H 0.4546 0.2017 0.6642
Cl1 Cl 0.4548(3) 0.0710(3) 0.6082(3)
Cl2 Cl 0.5872(5) 0.1536(3) 0.7343(5)
H35? H 0.6237 -0.0097 0.1610
H36? H 0.5834 -0.0295 0.0612
H37? H 0.5755 -0.0945 0.1377
H38? H -0.1706 0.1201 -0.3755
H39? H -0.1753 0.2162 -0.3668
H40? H -0.2621 0.1626 -0.3573
C50? C 0.4929(14) 0.1558(13) 0.6850(19)
H43? H 0.4749 0.2108 0.6645
H44? H 0.4648 0.1446 0.7393
Cl3? Cl 0.4549(11) 0.0881(11) 0.6057(11)
Cl4? Cl 0.6016(8) 0.1525(7) 0.7085(10)
loop_
_geom_bond_atom_site_label_1
_geom_bond_atom_site_label_2
_geom_bond_site_symmetry_1
_geom_bond_site_symmetry_2
S1 C2 1_555 1_555
N1 C4 1_555 1_555
N2 C9 1_555 1_555
C1 H1 1_555 1_555
C2 C15 1_555 1_555
C3 C5 1_555 1_555
C4 C15 1_555 1_555
C5 N1 1_555 1_555
C6 H2 1_555 1_555
C7 C15 1_555 1_555
C8 C13 1_555 1_555
C9 C19 1_555 1_555
C10 H3 1_555 1_555
C11 C13 1_555 1_555
C12 H4 1_555 1_555
C13 C18 1_555 1_555
C14 C8 1_555 1_555
H5 C14 1_555 1_555
C16 C3 1_555 1_555
C17 C5 1_555 1_555
H6 C17 1_555 1_555
C18 N2 1_555 1_555
C19 C20 1_555 1_555
C20 C6 1_555 1_555
C21 S1 1_555 1_555
C22 C3 1_555 1_555
C23 C16 1_555 1_555
H7 C23 1_555 1_555
C24 C4 1_555 1_555
H8 C24 1_555 1_555
C25 C22 1_555 1_555
H9 C25 1_555 1_555
C26 C2 1_555 1_555
H10 C26 1_555 1_555
C27 C10 1_555 1_555
H11 C27 1_555 1_555
C28 C1 1_555 1_555
H12 C28 1_555 1_555
C29 C23 1_555 1_555
H13 C29 1_555 1_555
C30 H14 1_555 1_555
C31 H15 1_555 1_555
C32 C31 1_555 1_555
C33 C7 1_555 1_555
H16 C33 1_555 1_555
C34 C9 1_555 1_555
H17 C34 1_555 1_555
C35 C18 1_555 1_555
H18 C35 1_555 1_555
C36 C11 1_555 1_555
H19 C36 1_555 1_555
C37 C10 1_555 1_555
H20 C37 1_555 1_555
C38 C11 1_555 1_555
H21 C38 1_555 1_555
C39 C6 1_555 1_555
H22 C39 1_555 1_555
C40 C20 1_555 1_555
H23 C40 1_555 1_555
C41 C1 1_555 1_555
C42 C32 1_555 1_555
H24 C42 1_555 1_555
H25 C42 1_555 1_555
H26 C42 1_555 1_555
C43 C25 1_555 1_555
H27 C43 1_555 1_555
C44 H28 1_555 1_555
C45 C44 1_555 1_555
H29 C45 1_555 1_555
C46 C41 1_555 1_555
H30 C46 1_555 1_555
H31 C46 1_555 1_555
H32 C46 1_555 1_555
C47 C8 1_555 1_555
H33 C47 1_555 1_555
C48 C14 1_555 1_555
H34 C48 1_555 1_555
C49 H41 1_555 1_555
H42 C49 1_555 1_555
Cl1 C49 1_555 1_555
Cl2 C49 1_555 1_555
C7 C28 1_555 1_555
C12 C21 1_555 1_555
C12 C26 1_555 1_555
C16 C27 1_555 1_555
C17 C24 1_555 1_555
C19 C21 1_555 1_555
C22 C36 1_555 1_555
C29 C37 1_555 1_555
C30 C33 1_555 1_555
C30 C41 1_555 1_555
C31 C40 1_555 1_555
C32 C39 1_555 1_555
C34 C35 1_555 1_555
C38 C43 1_555 1_555
C44 C48 1_555 1_555
C45 C47 1_555 1_555

#END
