
#######################################################################
#
#                 Cambridge Crystallographic Data Centre
#                                CCDC 
#
#######################################################################
#
# If this CIF has been generated from an entry in the Cambridge 
# Structural Database, then it will include bibliographic, chemical, 
# crystal, experimental, refinement or atomic coordinate data resulting 
# from the CCDC's data processing and validation procedures.
#
#######################################################################

data_EFIHEG
_chemical_formula_moiety         'C15 H10 F3 N3 O3 S1'
_chemical_name_systematic        
'(Z)-2-(1H-1,2,3-Benzotriazol-1-yl)-1-phenylethenyl trifluoromethanesulfonate'
_symmetry_cell_setting           triclinic
_symmetry_space_group_name_H-M   'P -1'
_symmetry_Int_Tables_number      2
_space_group_name_Hall           '-P 1'
loop_
_symmetry_equiv_pos_site_id
_symmetry_equiv_pos_as_xyz
1 x,y,z
2 -x,-y,-z
_cell_length_a                   6.258(3)
_cell_length_b                   10.756(5)
_cell_length_c                   12.458(6)
_cell_angle_alpha                104.722(5)
_cell_angle_beta                 93.709(6)
_cell_angle_gamma                96.542(6)
_cell_volume                     801.915
_exptl_crystal_colour            white
_exptl_crystal_description       needle
_chemical_melting_point          '98-99 deg.C'
_cell_formula_units_Z            2
_exptl_crystal_recrystallization_method 'hexanes/ethyl acetate'
loop_
_atom_site_label
_atom_site_type_symbol
_atom_site_fract_x
_atom_site_fract_y
_atom_site_fract_z
S1 S 0.2573(1) 0.7023(1) 0.6431(1)
O1 O 0.4309(3) 0.7969(2) 0.7336(2)
O2 O 0.3149(4) 0.7177(2) 0.5391(2)
O3 O 0.0467(4) 0.7116(3) 0.6746(2)
F1 F 0.5200(6) 0.5296(3) 0.6354(2)
F2 F 0.2722(5) 0.5183(2) 0.7446(2)
F3 F 0.1968(6) 0.4559(2) 0.5649(2)
C1 C 0.3961(5) 0.8308(3) 0.8499(2)
C2 C 0.2687(5) 0.9201(3) 0.8882(2)
C3 C 0.3181(9) 0.5411(3) 0.6488(3)
C4 C 0.5233(5) 0.7650(3) 0.9173(2)
C5 C 0.4584(5) 0.7483(3) 1.0188(2)
C6 C 0.5796(6) 0.6867(3) 1.0813(3)
C7 C 0.7671(6) 0.6420(3) 1.0444(3)
C8 C 0.8331(6) 0.6585(3) 0.9442(3)
C9 C 0.7130(5) 0.7194(3) 0.8806(3)
N1 N 0.1496(4) 0.9863(2) 0.8262(2)
N2 N -0.0484(4) 1.0134(3) 0.8617(2)
N3 N -0.1358(5) 1.0747(3) 0.7969(2)
C10 C 0.0009(5) 1.0904(3) 0.7176(2)
C11 C -0.0198(6) 1.1542(3) 0.6327(2)
C12 C 0.1485(6) 1.1600(3) 0.5690(2)
C13 C 0.3368(6) 1.1067(3) 0.5890(2)
C14 C 0.3617(5) 1.0439(3) 0.6723(2)
C15 C 0.1874(5) 1.0346(3) 0.7354(2)
H1 H 0.2569 0.9416 0.9663
H2 H 0.3301 0.7795 1.0451
H3 H 0.5335 0.6753 1.1498
H4 H 0.8504 0.6001 1.0874
H5 H 0.9621 0.6277 0.9189
H6 H 0.7598 0.7301 0.8121
H7 H -0.1461 1.1919 0.6201
H8 H 0.1381 1.2009 0.5100
H9 H 0.4516 1.1139 0.5437
H10 H 0.4906 1.0091 0.6857
loop_
_geom_bond_atom_site_label_1
_geom_bond_atom_site_label_2
_geom_bond_site_symmetry_1
_geom_bond_site_symmetry_2
S1 O1 1_555 1_555
O1 C1 1_555 1_555
O2 S1 1_555 1_555
O3 S1 1_555 1_555
F1 C3 1_555 1_555
F2 C3 1_555 1_555
F3 C3 1_555 1_555
C1 C2 1_555 1_555
C2 N1 1_555 1_555
C3 S1 1_555 1_555
C4 C1 1_555 1_555
C5 C4 1_555 1_555
C6 C5 1_555 1_555
C7 C6 1_555 1_555
C8 C7 1_555 1_555
C9 C4 1_555 1_555
N1 N2 1_555 1_555
N2 N3 1_555 1_555
N3 C10 1_555 1_555
C10 C11 1_555 1_555
C11 C12 1_555 1_555
C12 C13 1_555 1_555
C13 C14 1_555 1_555
C14 C15 1_555 1_555
C15 N1 1_555 1_555
H1 C2 1_555 1_555
H2 C5 1_555 1_555
H3 C6 1_555 1_555
H4 C7 1_555 1_555
H5 C8 1_555 1_555
H6 C9 1_555 1_555
H7 C11 1_555 1_555
H8 C12 1_555 1_555
H9 C13 1_555 1_555
H10 C14 1_555 1_555
C8 C9 1_555 1_555
C10 C15 1_555 1_555

#END
