
#######################################################################
#
#                 Cambridge Crystallographic Data Centre
#                                CCDC 
#
#######################################################################
#
# If this CIF has been generated from an entry in the Cambridge 
# Structural Database, then it will include bibliographic, chemical, 
# crystal, experimental, refinement or atomic coordinate data resulting 
# from the CCDC's data processing and validation procedures.
#
#######################################################################

data_EFIJUZ
_chemical_formula_moiety         'C11 H10 Br2 O1'
_chemical_name_systematic        
3-(bromomethyl)-2-(4-bromophenyl)-2,5-dihydrofuran
_symmetry_cell_setting           orthorhombic
_symmetry_space_group_name_H-M   'P n a 21'
_symmetry_Int_Tables_number      33
_space_group_name_Hall           'P 2c -2n'
loop_
_symmetry_equiv_pos_site_id
_symmetry_equiv_pos_as_xyz
1 x,y,z
2 -x,-y,1/2+z
3 1/2+x,1/2-y,z
4 1/2-x,1/2+y,1/2+z
_cell_length_a                   6.0931(9)
_cell_length_b                   13.8466(19)
_cell_length_c                   26.311(4)
_cell_angle_alpha                90
_cell_angle_beta                 90
_cell_angle_gamma                90
_cell_volume                     2219.83
_exptl_crystal_colour            colorless
_exptl_crystal_description       prismatic
_chemical_melting_point          '45-47 deg.C'
_cell_formula_units_Z            8
loop_
_atom_site_label
_atom_site_type_symbol
_atom_site_fract_x
_atom_site_fract_y
_atom_site_fract_z
Br1 Br 1.1144(5) 0.65727(19) -0.15836(9)
Br2 Br 1.0909(5) 0.35012(15) 0.10702(9)
O1 O 0.825(3) 0.6648(9) 0.0887(7)
C1 C 0.626(4) 0.6375(15) 0.1148(11)
H1 H 0.4997 0.6689 0.0996
H2 H 0.6335 0.6550 0.1504
C2 C 0.611(3) 0.5326(12) 0.1089(8)
H3 H 0.4997 0.4934 0.1214
C3 C 0.791(3) 0.5021(12) 0.0817(6)
C4 C 0.937(3) 0.5859(10) 0.0673(9)
H4 H 1.0782 0.5786 0.0845
C5 C 0.977(2) 0.5974(10) 0.0123(7)
C6 C 1.173(3) 0.6335(16) -0.0045(7)
H5 H 1.2815 0.6444 0.0198
C7 C 1.222(3) 0.6542(14) -0.0526(7)
H6 H 1.3571 0.6797 -0.0622
C8 C 1.057(3) 0.6349(13) -0.0873(5)
C9 C 0.848(3) 0.6046(19) -0.0731(8)
H7 H 0.7367 0.5967 -0.0969
C10 C 0.815(4) 0.587(2) -0.0223(7)
H8 H 0.6766 0.5669 -0.0114
C11 C 0.837(3) 0.4005(12) 0.0670(10)
H9 H 0.8708 0.3974 0.0310
H10 H 0.7088 0.3610 0.0733
Br3 Br 0.3735(5) 0.35584(19) 0.98152(9)
Br4 Br 0.4015(5) 0.64811(15) 0.71705(8)
O2 O 0.681(3) 0.3295(10) 0.7314(7)
C12 C 0.871(4) 0.3655(18) 0.7074(13)
H11 H 0.8678 0.3510 0.6714
H12 H 1.0012 0.3366 0.7221
C13 C 0.871(4) 0.4716(16) 0.7158(8)
H13 H 0.9804 0.5132 0.7047
C14 C 0.705(3) 0.4974(12) 0.7396(8)
C15 C 0.552(4) 0.4109(14) 0.7528(8)
H14 H 0.4117 0.4172 0.7350
C16 C 0.515(3) 0.3927(13) 0.8075(8)
C17 C 0.317(3) 0.4178(16) 0.8287(8)
H15 H 0.2111 0.4442 0.8073
C18 C 0.264(3) 0.4072(15) 0.8780(7)
H16 H 0.1240 0.4222 0.8896
C19 C 0.426(3) 0.3729(15) 0.9118(10)
C20 C 0.626(4) 0.3508(18) 0.8919(8)
H17 H 0.7304 0.3203 0.9123
C21 C 0.678(4) 0.373(3) 0.8420(8)
H18 H 0.8242 0.3742 0.8318
C22 C 0.650(4) 0.5979(14) 0.7572(8)
H19 H 0.7769 0.6396 0.7528
H20 H 0.6119 0.5971 0.7929
loop_
_geom_bond_atom_site_label_1
_geom_bond_atom_site_label_2
_geom_bond_site_symmetry_1
_geom_bond_site_symmetry_2
Br1 C8 1_555 1_555
Br2 C11 1_555 1_555
Br3 C19 1_555 1_555
Br4 C22 1_555 1_555
O1 C1 1_555 1_555
O2 C12 1_555 1_555
C1 H1 1_555 1_555
H2 C1 1_555 1_555
C2 C1 1_555 1_555
H3 C2 1_555 1_555
C3 C2 1_555 1_555
C4 O1 1_555 1_555
H4 C4 1_555 1_555
C5 C4 1_555 1_555
C6 C5 1_555 1_555
H5 C6 1_555 1_555
C7 C6 1_555 1_555
H6 C7 1_555 1_555
C8 C7 1_555 1_555
C9 C8 1_555 1_555
H7 C9 1_555 1_555
C10 C5 1_555 1_555
H8 C10 1_555 1_555
C11 C3 1_555 1_555
H9 C11 1_555 1_555
H10 C11 1_555 1_555
C12 H11 1_555 1_555
H12 C12 1_555 1_555
C13 C12 1_555 1_555
H13 C13 1_555 1_555
C14 C13 1_555 1_555
C15 O2 1_555 1_555
H14 C15 1_555 1_555
C16 C15 1_555 1_555
C17 C16 1_555 1_555
H15 C17 1_555 1_555
C18 C17 1_555 1_555
H16 C18 1_555 1_555
C19 C18 1_555 1_555
C20 C19 1_555 1_555
H17 C20 1_555 1_555
C21 C16 1_555 1_555
H18 C21 1_555 1_555
C22 C14 1_555 1_555
H19 C22 1_555 1_555
H20 C22 1_555 1_555
C3 C4 1_555 1_555
C9 C10 1_555 1_555
C14 C15 1_555 1_555
C20 C21 1_555 1_555

#END
