
#######################################################################
#
#                 Cambridge Crystallographic Data Centre
#                                CCDC 
#
#######################################################################
#
# If this CIF has been generated from an entry in the Cambridge 
# Structural Database, then it will include bibliographic, chemical, 
# crystal, experimental, refinement or atomic coordinate data resulting 
# from the CCDC's data processing and validation procedures.
#
#######################################################################

data_EFINUD
_chemical_formula_moiety         'C36 H48 N2 O4'
_chemical_name_systematic        'Di-n-octyl 2,5-bis(phenylamino)terephthalate'
_symmetry_cell_setting           monoclinic
_symmetry_space_group_name_H-M   'P 21/c'
_symmetry_Int_Tables_number      14
_space_group_name_Hall           '-P 2ybc'
loop_
_symmetry_equiv_pos_site_id
_symmetry_equiv_pos_as_xyz
1 x,y,z
2 -x,1/2+y,1/2-z
3 -x,-y,-z
4 x,1/2-y,1/2+z
_cell_length_a                   7.776(3)
_cell_length_b                   37.825(15)
_cell_length_c                   11.053(4)
_cell_angle_alpha                90
_cell_angle_beta                 92.29(3)
_cell_angle_gamma                90
_cell_volume                     3248.39
_exptl_crystal_colour            orange
_exptl_crystal_description       plate
_chemical_melting_point          109deg.C
_cell_formula_units_Z            4
loop_
_atom_site_label
_atom_site_type_symbol
_atom_site_fract_x
_atom_site_fract_y
_atom_site_fract_z
O1 O 1.5600(3) -0.00685(6) -0.16630(19)
O2 O 1.3578(3) 0.03392(6) -0.21502(18)
N1 N 1.6420(4) -0.05171(7) -0.3439(2)
H1 H 1.6735 -0.0448 -0.2723
C1 C 1.5621(5) -0.10664(10) -0.4511(3)
H2 H 1.4703 -0.0953 -0.4912
C2 C 1.5910(5) -0.14173(10) -0.4716(3)
H3 H 1.5196 -0.1539 -0.5269
C3 C 1.7257(5) -0.15976(9) -0.4111(3)
H4 H 1.7437 -0.1837 -0.4252
C4 C 1.8313(5) -0.14134(10) -0.3302(3)
H5 H 1.9210 -0.1529 -0.2885
C5 C 1.8038(5) -0.10553(9) -0.3108(3)
H6 H 1.8768 -0.0933 -0.2570
C6 C 1.6694(5) -0.08771(9) -0.3703(3)
C7 C 1.4198(4) 0.02942(8) -0.4539(3)
H7 H 1.3660 0.0491 -0.4221
C8 C 1.5698(4) -0.02624(9) -0.4209(3)
C9 C 1.4878(4) 0.00388(9) -0.3757(3)
C10 C 1.4755(5) 0.00887(9) -0.2438(3)
C11 C 1.3446(5) 0.03949(9) -0.0851(3)
H8 H 1.4554 0.0467 -0.0500
H9 H 1.3114 0.0176 -0.0467
C12 C 1.2129(4) 0.06753(9) -0.0634(3)
H10 H 1.1934 0.0681 0.0227
H11 H 1.1057 0.0603 -0.1040
C13 C 1.2520(5) 0.10473(9) -0.1031(3)
H12 H 1.2455 0.1058 -0.1908
H13 H 1.3687 0.1107 -0.0763
C14 C 1.1294(5) 0.13158(9) -0.0532(3)
H14 H 1.0131 0.1250 -0.0791
H15 H 1.1368 0.1302 0.0345
C15 C 1.1592(5) 0.16980(9) -0.0899(3)
H16 H 1.1421 0.1719 -0.1770
H17 H 1.2776 0.1762 -0.0692
C16 C 1.0394(5) 0.19561(9) -0.0286(3)
H18 H 0.9216 0.1878 -0.0436
H19 H 1.0635 0.1947 0.0581
C17 C 1.0547(5) 0.23384(9) -0.0707(4)
H20 H 1.0253 0.2350 -0.1567
H21 H 1.1733 0.2414 -0.0588
C18 C 0.9382(6) 0.25932(10) -0.0036(4)
H22 H 0.9533 0.2829 -0.0337
H23 H 0.9682 0.2587 0.0814
H24 H 0.8202 0.2523 -0.0166
O1B O 1.4400(3) 0.00685(6) -0.83370(19)
O2B O 1.6422(3) -0.03392(6) -0.78498(18)
N1B N 1.3580(4) 0.05171(7) -0.6561(2)
H1B H 1.3265 0.0448 -0.7277
C1B C 1.4379(5) 0.10664(10) -0.5489(3)
H2B H 1.5297 0.0953 -0.5088
C2B C 1.4090(5) 0.14173(10) -0.5284(3)
H3B H 1.4804 0.1539 -0.4731
C3B C 1.2743(5) 0.15976(9) -0.5889(3)
H4B H 1.2563 0.1837 -0.5748
C4B C 1.1687(5) 0.14134(10) -0.6698(3)
H5B H 1.0790 0.1529 -0.7115
C5B C 1.1962(5) 0.10553(9) -0.6892(3)
H6B H 1.1232 0.0933 -0.7430
C6B C 1.3306(5) 0.08771(9) -0.6297(3)
C7B C 1.5802(4) -0.02942(8) -0.5461(3)
H7B H 1.6340 -0.0491 -0.5779
C8B C 1.4302(4) 0.02624(9) -0.5791(3)
C9B C 1.5122(4) -0.00388(9) -0.6243(3)
C10B C 1.5245(5) -0.00887(9) -0.7562(3)
C11B C 1.6554(5) -0.03949(9) -0.9149(3)
H8B H 1.5446 -0.0467 -0.9500
H9B H 1.6886 -0.0176 -0.9533
C12B C 1.7871(4) -0.06753(9) -0.9366(3)
H10B H 1.8066 -0.0681 -1.0227
H11B H 1.8943 -0.0603 -0.8960
C13B C 1.7480(5) -0.10473(9) -0.8969(3)
H12B H 1.7545 -0.1058 -0.8092
H13B H 1.6313 -0.1107 -0.9237
C14B C 1.8706(5) -0.13158(9) -0.9468(3)
H14B H 1.9869 -0.1250 -0.9209
H15B H 1.8632 -0.1302 -1.0345
C15B C 1.8408(5) -0.16980(9) -0.9101(3)
H16B H 1.8579 -0.1719 -0.8230
H17B H 1.7224 -0.1762 -0.9308
C16B C 1.9606(5) -0.19561(9) -0.9714(3)
H18B H 2.0784 -0.1878 -0.9564
H19B H 1.9365 -0.1947 -1.0581
C17B C 1.9453(5) -0.23384(9) -0.9293(4)
H20B H 1.9747 -0.2350 -0.8433
H21B H 1.8267 -0.2414 -0.9412
C18B C 2.0618(6) -0.25932(10) -0.9964(4)
H22B H 2.0467 -0.2829 -0.9663
H23B H 2.0318 -0.2587 -1.0814
H24B H 2.1798 -0.2523 -0.9834
O3 O 0.9708(3) -0.01095(6) 0.8329(2)
O4 O 1.1709(3) -0.04731(6) 0.76225(18)
N2 N 0.8742(3) 0.04322(7) 0.6846(2)
H25 H 0.8481 0.0327 0.7503
C19 C 0.9466(5) 0.10258(9) 0.6138(3)
H26 H 1.0333 0.0936 0.5670
C20 C 0.9162(5) 0.13893(9) 0.6180(3)
H27 H 0.9810 0.1541 0.5716
C21 C 0.7928(5) 0.15263(10) 0.6891(3)
H28 H 0.7744 0.1769 0.6916
C22 C 0.6957(5) 0.13016(10) 0.7570(3)
H29 H 0.6129 0.1394 0.8065
C23 C 0.7200(4) 0.09430(9) 0.7522(3)
H30 H 0.6521 0.0794 0.7972
C24 C 0.8460(4) 0.07998(9) 0.6804(3)
C25 C 1.0823(4) -0.03126(9) 0.5279(3)
H31 H 1.1389 -0.0523 0.5474
C26 C 0.9404(4) 0.02185(9) 0.5933(3)
C27 C 1.0236(4) -0.01039(9) 0.6207(3)
C28 C 1.0506(4) -0.02171(9) 0.7470(3)
C29 C 1.1975(5) -0.06014(9) 0.8852(3)
H32 H 1.0900 -0.0689 0.9151
H33 H 1.2380 -0.0411 0.9376
C30 C 1.3285(5) -0.08934(9) 0.8855(3)
H34 H 1.3586 -0.0953 0.9690
H35 H 1.4316 -0.0803 0.8497
C31 C 1.2758(5) -0.12295(9) 0.8195(3)
H36 H 1.2681 -0.1184 0.7331
H37 H 1.1627 -0.1301 0.8444
C32 C 1.4022(5) -0.15281(9) 0.8448(3)
H38 H 1.5150 -0.1452 0.8210
H39 H 1.4094 -0.1570 0.9315
C33 C 1.3605(5) -0.18756(9) 0.7820(3)
H40 H 1.2442 -0.1946 0.7997
H41 H 1.3655 -0.1844 0.6951
C34 C 1.4858(5) -0.21664(9) 0.8228(3)
H42 H 1.4761 -0.2201 0.9092
H43 H 1.6019 -0.2086 0.8096
C35 C 1.4599(5) -0.25226(10) 0.7598(3)
H44 H 1.3409 -0.2595 0.7657
H45 H 1.4830 -0.2497 0.6747
C36 C 1.5753(5) -0.28053(10) 0.8141(4)
H46 H 1.5566 -0.3023 0.7707
H47 H 1.5496 -0.2839 0.8976
H48 H 1.6933 -0.2735 0.8086
O3B O 1.0292(3) 0.01095(6) 0.1671(2)
O4B O 0.8291(3) 0.04731(6) 0.23775(18)
N2B N 1.1258(3) -0.04322(7) 0.3154(2)
H25B H 1.1519 -0.0327 0.2497
C19B C 1.0534(5) -0.10258(9) 0.3862(3)
H26B H 0.9667 -0.0936 0.4330
C20B C 1.0838(5) -0.13893(9) 0.3820(3)
H27B H 1.0190 -0.1541 0.4284
C21B C 1.2072(5) -0.15263(10) 0.3109(3)
H28B H 1.2256 -0.1769 0.3084
C22B C 1.3043(5) -0.13016(10) 0.2430(3)
H29B H 1.3871 -0.1394 0.1935
C23B C 1.2800(4) -0.09430(9) 0.2478(3)
H30B H 1.3479 -0.0794 0.2028
C24B C 1.1540(4) -0.07998(9) 0.3196(3)
C25B C 0.9177(4) 0.03126(9) 0.4721(3)
H31B H 0.8611 0.0523 0.4526
C26B C 1.0596(4) -0.02185(9) 0.4067(3)
C27B C 0.9764(4) 0.01039(9) 0.3793(3)
C28B C 0.9494(4) 0.02171(9) 0.2530(3)
C29B C 0.8025(5) 0.06014(9) 0.1148(3)
H32B H 0.9100 0.0689 0.0849
H33B H 0.7620 0.0411 0.0624
C30B C 0.6715(5) 0.08934(9) 0.1145(3)
H34B H 0.6414 0.0953 0.0310
H35B H 0.5684 0.0803 0.1503
C31B C 0.7242(5) 0.12295(9) 0.1805(3)
H36B H 0.7319 0.1184 0.2669
H37B H 0.8373 0.1301 0.1556
C32B C 0.5978(5) 0.15281(9) 0.1552(3)
H38B H 0.4850 0.1452 0.1790
H39B H 0.5906 0.1570 0.0685
C33B C 0.6395(5) 0.18756(9) 0.2180(3)
H40B H 0.7558 0.1946 0.2003
H41B H 0.6345 0.1844 0.3049
C34B C 0.5142(5) 0.21664(9) 0.1772(3)
H42B H 0.5239 0.2201 0.0908
H43B H 0.3981 0.2086 0.1904
C35B C 0.5401(5) 0.25226(10) 0.2402(3)
H44B H 0.6591 0.2595 0.2343
H45B H 0.5170 0.2497 0.3253
C36B C 0.4247(5) 0.28053(10) 0.1859(4)
H46B H 0.4434 0.3023 0.2293
H47B H 0.4504 0.2839 0.1024
H48B H 0.3067 0.2735 0.1914
loop_
_geom_bond_atom_site_label_1
_geom_bond_atom_site_label_2
_geom_bond_site_symmetry_1
_geom_bond_site_symmetry_2
O1 C10 1_555 1_555
O2 C10 1_555 1_555
N1 H1 1_555 1_555
C1 H2 1_555 1_555
C2 C1 1_555 1_555
H3 C2 1_555 1_555
C3 C2 1_555 1_555
H4 C3 1_555 1_555
C4 C3 1_555 1_555
H5 C4 1_555 1_555
C5 C4 1_555 1_555
H6 C5 1_555 1_555
C6 N1 1_555 1_555
C7 H7 1_555 1_555
C8 N1 1_555 1_555
C9 C7 1_555 1_555
C10 C9 1_555 1_555
C11 O2 1_555 1_555
H8 C11 1_555 1_555
H9 C11 1_555 1_555
C12 C11 1_555 1_555
H10 C12 1_555 1_555
H11 C12 1_555 1_555
C13 C12 1_555 1_555
H12 C13 1_555 1_555
H13 C13 1_555 1_555
C14 C13 1_555 1_555
H14 C14 1_555 1_555
H15 C14 1_555 1_555
C15 C14 1_555 1_555
H16 C15 1_555 1_555
H17 C15 1_555 1_555
C16 C15 1_555 1_555
H18 C16 1_555 1_555
H19 C16 1_555 1_555
C17 C16 1_555 1_555
H20 C17 1_555 1_555
H21 C17 1_555 1_555
C18 C17 1_555 1_555
H22 C18 1_555 1_555
H23 C18 1_555 1_555
H24 C18 1_555 1_555
O3 C28 1_555 1_555
O4 C28 1_555 1_555
N2 H25 1_555 1_555
C19 H26 1_555 1_555
C20 C19 1_555 1_555
H27 C20 1_555 1_555
C21 C20 1_555 1_555
H28 C21 1_555 1_555
C22 C21 1_555 1_555
H29 C22 1_555 1_555
C23 C22 1_555 1_555
H30 C23 1_555 1_555
C24 N2 1_555 1_555
C25 H31 1_555 1_555
C26 N2 1_555 1_555
C27 C25 1_555 1_555
C28 C27 1_555 1_555
C29 O4 1_555 1_555
H32 C29 1_555 1_555
H33 C29 1_555 1_555
C30 C29 1_555 1_555
H34 C30 1_555 1_555
H35 C30 1_555 1_555
C31 C30 1_555 1_555
H36 C31 1_555 1_555
H37 C31 1_555 1_555
C32 C31 1_555 1_555
H38 C32 1_555 1_555
H39 C32 1_555 1_555
C33 C32 1_555 1_555
H40 C33 1_555 1_555
H41 C33 1_555 1_555
C34 C33 1_555 1_555
H42 C34 1_555 1_555
H43 C34 1_555 1_555
C35 C34 1_555 1_555
H44 C35 1_555 1_555
H45 C35 1_555 1_555
C36 C35 1_555 1_555
H46 C36 1_555 1_555
H47 C36 1_555 1_555
H48 C36 1_555 1_555
O1B C10B 1_555 1_555
O2B C10B 1_555 1_555
N1B H1B 1_555 1_555
C1B H2B 1_555 1_555
C2B C1B 1_555 1_555
H3B C2B 1_555 1_555
C3B C2B 1_555 1_555
H4B C3B 1_555 1_555
C4B C3B 1_555 1_555
H5B C4B 1_555 1_555
C5B C4B 1_555 1_555
H6B C5B 1_555 1_555
C6B N1B 1_555 1_555
C7B C8 1_555 1_555
H7B C7B 1_555 1_555
C8B C7 1_555 1_555
C9B C7B 1_555 1_555
C10B C9B 1_555 1_555
C11B O2B 1_555 1_555
H8B C11B 1_555 1_555
H9B C11B 1_555 1_555
C12B C11B 1_555 1_555
H10B C12B 1_555 1_555
H11B C12B 1_555 1_555
C13B C12B 1_555 1_555
H12B C13B 1_555 1_555
H13B C13B 1_555 1_555
C14B C13B 1_555 1_555
H14B C14B 1_555 1_555
H15B C14B 1_555 1_555
C15B C14B 1_555 1_555
H16B C15B 1_555 1_555
H17B C15B 1_555 1_555
C16B C15B 1_555 1_555
H18B C16B 1_555 1_555
H19B C16B 1_555 1_555
C17B C16B 1_555 1_555
H20B C17B 1_555 1_555
H21B C17B 1_555 1_555
C18B C17B 1_555 1_555
H22B C18B 1_555 1_555
H23B C18B 1_555 1_555
H24B C18B 1_555 1_555
O3B C28B 1_555 1_555
O4B C28B 1_555 1_555
N2B H25B 1_555 1_555
C19B H26B 1_555 1_555
C20B C19B 1_555 1_555
H27B C20B 1_555 1_555
C21B C20B 1_555 1_555
H28B C21B 1_555 1_555
C22B C21B 1_555 1_555
H29B C22B 1_555 1_555
C23B C22B 1_555 1_555
H30B C23B 1_555 1_555
C24B N2B 1_555 1_555
C25B C26 1_555 1_555
H31B C25B 1_555 1_555
C26B C25 1_555 1_555
C27B C25B 1_555 1_555
C28B C27B 1_555 1_555
C29B O4B 1_555 1_555
H32B C29B 1_555 1_555
H33B C29B 1_555 1_555
C30B C29B 1_555 1_555
H34B C30B 1_555 1_555
H35B C30B 1_555 1_555
C31B C30B 1_555 1_555
H36B C31B 1_555 1_555
H37B C31B 1_555 1_555
C32B C31B 1_555 1_555
H38B C32B 1_555 1_555
H39B C32B 1_555 1_555
C33B C32B 1_555 1_555
H40B C33B 1_555 1_555
H41B C33B 1_555 1_555
C34B C33B 1_555 1_555
H42B C34B 1_555 1_555
H43B C34B 1_555 1_555
C35B C34B 1_555 1_555
H44B C35B 1_555 1_555
H45B C35B 1_555 1_555
C36B C35B 1_555 1_555
H46B C36B 1_555 1_555
H47B C36B 1_555 1_555
H48B C36B 1_555 1_555
C1 C6 1_555 1_555
C5 C6 1_555 1_555
C8 C9 1_555 1_555
C19 C24 1_555 1_555
C23 C24 1_555 1_555
C26 C27 1_555 1_555
N1B C8B 1_555 1_555
C1B C6B 1_555 1_555
C5B C6B 1_555 1_555
C8B C9B 1_555 1_555
N2B C26B 1_555 1_555
C19B C24B 1_555 1_555
C23B C24B 1_555 1_555
C26B C27B 1_555 1_555

#END
