
#######################################################################
#
#                 Cambridge Crystallographic Data Centre
#                                CCDC 
#
#######################################################################
#
# If this CIF has been generated from an entry in the Cambridge 
# Structural Database, then it will include bibliographic, chemical, 
# crystal, experimental, refinement or atomic coordinate data resulting 
# from the CCDC's data processing and validation procedures.
#
#######################################################################

data_EFIRIU
_chemical_formula_moiety         'C21 H27 N1 O3 Se1'
_chemical_name_systematic        
'ethyl N-[2-[3-methoxy-3-methyl-2-(phenylselanyl)butyl]phenyl]carbamate'
_symmetry_cell_setting           monoclinic
_symmetry_space_group_name_H-M   'P 21/n'
_symmetry_Int_Tables_number      14
_space_group_name_Hall           '-P 2yn'
loop_
_symmetry_equiv_pos_site_id
_symmetry_equiv_pos_as_xyz
1 x,y,z
2 1/2+x,1/2-y,1/2+z
3 -x,-y,-z
4 1/2-x,1/2+y,1/2-z
_cell_length_a                   10.262(2)
_cell_length_b                   13.611(5)
_cell_length_c                   14.760(4)
_cell_angle_alpha                90
_cell_angle_beta                 101.26(2)
_cell_angle_gamma                90
_cell_volume                     2021.94
_exptl_crystal_colour            colorless
_chemical_melting_point          83-85deg.C
_cell_formula_units_Z            4
_exptl_crystal_recrystallization_method hexane
loop_
_atom_site_label
_atom_site_type_symbol
_atom_site_fract_x
_atom_site_fract_y
_atom_site_fract_z
Se1 Se 0.18657(4) 0.27799(3) 0.52271(3)
O1 O 0.8245(3) 0.0996(2) 0.4423(2)
O2 O 0.8107(2) 0.0953(2) 0.5920(2)
O3 O 0.5341(2) 0.1558(2) 0.6632(1)
N1 N 0.6334(3) 0.1341(2) 0.4909(2)
C1 C 0.5425(4) 0.1495(2) 0.4066(3)
C2 C 0.4088(4) 0.1455(2) 0.4081(2)
C3 C 0.3181(4) 0.1626(3) 0.3263(3)
C4 C 0.3627(6) 0.1816(3) 0.2474(3)
C5 C 0.4936(6) 0.1838(3) 0.2466(3)
C6 C 0.5850(4) 0.1687(3) 0.3246(3)
C7 C 0.7635(4) 0.1097(3) 0.5017(4)
C8 C 0.9461(4) 0.0633(3) 0.6160(4)
C9 C 0.9756(4) 0.0430(3) 0.7151(4)
C10 C 0.3592(3) 0.1251(2) 0.4952(2)
C11 C 0.3613(3) 0.2167(2) 0.5563(2)
C12 C 0.4031(3) 0.1956(2) 0.6594(2)
C13 C 0.5995(4) 0.1116(3) 0.7460(3)
C14 C 0.4139(3) 0.2888(3) 0.7143(2)
C15 C 0.3117(3) 0.1218(3) 0.6931(2)
C16 C 0.2322(4) 0.4130(3) 0.5151(2)
C17 C 0.3124(4) 0.4413(3) 0.4593(3)
C18 C 0.3382(5) 0.5394(4) 0.4503(4)
C19 C 0.2797(8) 0.6062(4) 0.4966(4)
C20 C 0.1979(9) 0.5784(5) 0.5495(4)
C21 C 0.1729(6) 0.4805(4) 0.5604(3)
H1 H 0.2254 0.1609 0.3258
H2 H 0.3005 0.1936 0.1918
H3 H 0.5222 0.1960 0.1902
H4 H 0.6771 0.1712 0.3234
H5 H 0.5994 0.1417 0.5459
H6 H 1.0035 0.1134 0.6018
H7 H 0.9580 0.0054 0.5826
H8 H 0.9131 -0.0030 0.7296
H9 H 1.0626 0.0165 0.7319
H10 H 0.9702 0.1022 0.7482
H11 H 0.2704 0.1017 0.4793
H12 H 0.4138 0.0761 0.5293
H13 H 0.4243 0.2612 0.5400
H14 H 0.5516 0.0549 0.7581
H15 H 0.6868 0.0931 0.7402
H16 H 0.6043 0.1569 0.7955
H17 H 0.4427 0.2741 0.7780
H18 H 0.4762 0.3313 0.6945
H19 H 0.3295 0.3200 0.7052
H20 H 0.2236 0.1469 0.6823
H21 H 0.3131 0.0616 0.6608
H22 H 0.3413 0.1108 0.7574
H23 H 0.3517 0.3939 0.4258
H24 H 0.3970 0.5600 0.4116
H25 H 0.2980 0.6740 0.4908
H26 H 0.1556 0.6263 0.5806
H27 H 0.1144 0.4604 0.5994
loop_
_geom_bond_atom_site_label_1
_geom_bond_atom_site_label_2
_geom_bond_site_symmetry_1
_geom_bond_site_symmetry_2
Se1 C11 1_555 1_555
O1 C7 1_555 1_555
O2 C7 1_555 1_555
O3 C12 1_555 1_555
N1 C1 1_555 1_555
C1 C2 1_555 1_555
C2 C3 1_555 1_555
C3 C4 1_555 1_555
C4 C5 1_555 1_555
C5 C6 1_555 1_555
C6 C1 1_555 1_555
C7 N1 1_555 1_555
C8 O2 1_555 1_555
C9 C8 1_555 1_555
C10 C2 1_555 1_555
C11 C10 1_555 1_555
C12 C11 1_555 1_555
C13 O3 1_555 1_555
C14 C12 1_555 1_555
C15 C12 1_555 1_555
C16 Se1 1_555 1_555
C17 C16 1_555 1_555
C18 C17 1_555 1_555
C19 C18 1_555 1_555
C20 C19 1_555 1_555
C21 C16 1_555 1_555
H1 C3 1_555 1_555
H2 C4 1_555 1_555
H3 C5 1_555 1_555
H4 C6 1_555 1_555
H5 N1 1_555 1_555
H6 C8 1_555 1_555
H7 C8 1_555 1_555
H8 C9 1_555 1_555
H9 C9 1_555 1_555
H10 C9 1_555 1_555
H11 C10 1_555 1_555
H12 C10 1_555 1_555
H13 C11 1_555 1_555
H14 C13 1_555 1_555
H15 C13 1_555 1_555
H16 C13 1_555 1_555
H17 C14 1_555 1_555
H18 C14 1_555 1_555
H19 C14 1_555 1_555
H20 C15 1_555 1_555
H21 C15 1_555 1_555
H22 C15 1_555 1_555
H23 C17 1_555 1_555
H24 C18 1_555 1_555
H25 C19 1_555 1_555
H26 C20 1_555 1_555
H27 C21 1_555 1_555
C20 C21 1_555 1_555

#END
