
#######################################################################
#
#                 Cambridge Crystallographic Data Centre
#                                CCDC 
#
#######################################################################
#
# If this CIF has been generated from an entry in the Cambridge 
# Structural Database, then it will include bibliographic, chemical, 
# crystal, experimental, refinement or atomic coordinate data resulting 
# from the CCDC's data processing and validation procedures.
#
#######################################################################

data_EFIVUM
_chemical_formula_moiety         'C17 H16 N2 O3'
_chemical_name_systematic        
'ethyl 4-cyano-3-(2-(3-methoxyphenyl)vinyl)-1H-pyrrole-2-carboxylate'
_symmetry_cell_setting           monoclinic
_symmetry_space_group_name_H-M   'P 21/c'
_symmetry_Int_Tables_number      14
_space_group_name_Hall           '-P 2ybc'
loop_
_symmetry_equiv_pos_site_id
_symmetry_equiv_pos_as_xyz
1 x,y,z
2 -x,1/2+y,1/2-z
3 -x,-y,-z
4 x,1/2-y,1/2+z
_cell_length_a                   8.8199(8)
_cell_length_b                   12.7684(12)
_cell_length_c                   13.8563(13)
_cell_angle_alpha                90
_cell_angle_beta                 91.733(2)
_cell_angle_gamma                90
_cell_volume                     1559.73
_cell_formula_units_Z            4
loop_
_atom_site_label
_atom_site_type_symbol
_atom_site_fract_x
_atom_site_fract_y
_atom_site_fract_z
C1 C 0.53897(19) 0.41499(14) 0.87036(13)
H1 H 0.5339 0.3543 0.9072
C2 C 0.66624(19) 0.43054(16) 0.82486(14)
H2 H 0.6706 0.4901 0.7865
C3 C 0.40598(18) 0.48198(13) 0.86946(12)
N1 N 0.18175(17) 0.55194(13) 0.90557(12)
C4 C 0.2359(2) 0.61149(15) 0.83575(14)
H3 H 0.1883 0.6699 0.8085
C5 C 0.28096(18) 0.47180(14) 0.92740(12)
C6 C 0.3748(2) 0.57175(15) 0.81062(13)
O1 O 0.9552(2) 0.12231(15) 0.93861(15)
N2 N 0.5417(2) 0.64588(18) 0.67817(16)
C7 C 0.4665(2) 0.61369(17) 0.73688(16)
C8 C 0.23702(19) 0.39610(14) 0.99993(13)
O2 O 0.11761(14) 0.39972(11) 1.04088(10)
O3 O 0.33982(14) 0.32173(10) 1.01609(9)
C9 C 0.2997(2) 0.24015(17) 1.08316(16)
H4 H 0.2076 0.2051 1.0608
H5 H 0.2826 0.2699 1.1463
C10 C 0.4282(3) 0.16436(19) 1.08885(19)
H6 H 0.4049 0.1092 1.1330
H7 H 0.5186 0.1999 1.1111
H8 H 0.4438 0.1353 1.0260
C11 C 0.8328(4) 0.0905(3) 0.9962(2)
H9 H 0.8588 0.0263 1.0288
H10 H 0.7439 0.0799 0.9558
H11 H 0.8131 0.1438 1.0431
H12 H 0.090(2) 0.5582(15) 0.9343(14)
C12 C 0.8014(2) 0.36389(16) 0.82843(14)
C13 C 0.8091(2) 0.27328(17) 0.88437(15)
H13 H 0.7267 0.2535 0.9205
C14 C 0.9264(2) 0.39154(19) 0.77546(16)
H14 H 0.9230 0.4516 0.7375
C15 C 1.0557(2) 0.3306(2) 0.7786(2)
H15 H 1.1391 0.3505 0.7435
C16 C 0.9390(2) 0.21264(19) 0.88629(17)
C17 C 1.0624(2) 0.2414(2) 0.83263(19)
H16 H 1.1492 0.2001 0.8335
loop_
_geom_bond_atom_site_label_1
_geom_bond_atom_site_label_2
_geom_bond_site_symmetry_1
_geom_bond_site_symmetry_2
C1 H1 1_555 1_555
C2 C1 1_555 1_555
H2 C2 1_555 1_555
C3 C1 1_555 1_555
N1 C4 1_555 1_555
C4 H3 1_555 1_555
C5 C3 1_555 1_555
C6 C3 1_555 1_555
O1 C11 1_555 1_555
N2 C7 1_555 1_555
C7 C6 1_555 1_555
C8 C5 1_555 1_555
O2 C8 1_555 1_555
O3 C8 1_555 1_555
C9 O3 1_555 1_555
H4 C9 1_555 1_555
H5 C9 1_555 1_555
C10 C9 1_555 1_555
H6 C10 1_555 1_555
H7 C10 1_555 1_555
H8 C10 1_555 1_555
C11 H9 1_555 1_555
H10 C11 1_555 1_555
H11 C11 1_555 1_555
H12 N1 1_555 1_555
C12 C2 1_555 1_555
C13 C12 1_555 1_555
H13 C13 1_555 1_555
C14 C12 1_555 1_555
H14 C14 1_555 1_555
C15 C14 1_555 1_555
H15 C15 1_555 1_555
C16 O1 1_555 1_555
C17 C15 1_555 1_555
H16 C17 1_555 1_555
N1 C5 1_555 1_555
C4 C6 1_555 1_555
C13 C16 1_555 1_555
C16 C17 1_555 1_555

#END
