
#######################################################################
#
#                 Cambridge Crystallographic Data Centre
#                                CCDC 
#
#######################################################################
#
# If this CIF has been generated from an entry in the Cambridge 
# Structural Database, then it will include bibliographic, chemical, 
# crystal, experimental, refinement or atomic coordinate data resulting 
# from the CCDC's data processing and validation procedures.
#
#######################################################################

data_EFIYOJ
_chemical_formula_moiety         'C37 H39 N5 2+,2(F6 P1 1-),0.5(H2 O1)'
_chemical_name_systematic        
"1,1'-(acridine-4,5-diylbis(methylene))bis(3-butyl-1H-benzimidazol-3-ium) bis(hexafluorophosphate) hemihydrate"
_symmetry_cell_setting           monoclinic
_symmetry_space_group_name_H-M   'P 21/n'
_symmetry_Int_Tables_number      14
_space_group_name_Hall           '-P 2yn'
loop_
_symmetry_equiv_pos_site_id
_symmetry_equiv_pos_as_xyz
1 x,y,z
2 1/2-x,1/2+y,1/2-z
3 -x,-y,-z
4 1/2+x,1/2-y,1/2+z
_cell_length_a                   15.539(3)
_cell_length_b                   14.823(3)
_cell_length_c                   17.577(3)
_cell_angle_alpha                90
_cell_angle_beta                 101.642(2)
_cell_angle_gamma                90
_cell_volume                     3965.3
_exptl_crystal_colour            yellow
_exptl_crystal_description       block
_cell_formula_units_Z            4
loop_
_atom_site_label
_atom_site_type_symbol
_atom_site_fract_x
_atom_site_fract_y
_atom_site_fract_z
P1 P 0.61058(12) 0.34601(11) 0.18326(10)
F1 F 0.6403(3) 0.2467(3) 0.1722(3)
F2 F 0.5802(3) 0.4453(3) 0.1921(3)
F3 F 0.5141(8) 0.3126(7) 0.1538(12)
F4 F 0.620(3) 0.3678(13) 0.1039(11)
F5 F 0.7055(12) 0.3764(13) 0.211(2)
F6 F 0.6040(11) 0.3162(11) 0.2687(8)
C1 C 0.7162(7) 0.2946(5) -0.0758(6)
H1 H 0.6926 0.2371 -0.0945
H2 H 0.7261 0.2956 -0.0201
H3 H 0.7708 0.3044 -0.0921
C2 C 0.5912(6) 1.0445(7) 0.4400(5)
H4 H 0.5777 1.0196 0.4867
H5 H 0.5490 1.0903 0.4201
H6 H 0.6490 1.0705 0.4513
C3 C 0.5882(5) 0.9764(6) 0.3848(4)
H7 H 0.5303 0.9489 0.3748
H8 H 0.6307 0.9301 0.4052
C4 C 0.6530(6) 0.3671(5) -0.1079(4)
H9 H 0.6438 0.3672 -0.1641
H10 H 0.5969 0.3559 -0.0934
C5 C 0.6081(4) 1.0130(5) 0.3073(3)
H11 H 0.5672 1.0609 0.2874
H12 H 0.6672 1.0376 0.3162
C6 C 0.6001(3) 0.9402(4) 0.2510(3)
H13 H 0.5410 0.9160 0.2431
H14 H 0.6403 0.8923 0.2723
C7 C 0.6875(4) 0.4548(4) -0.0774(3)
H15 H 0.7431 0.4655 -0.0930
H16 H 0.6989 0.4529 -0.0211
C8 C 1.0542(3) 0.8253(4) 0.0578(3)
H17 H 1.1126 0.8244 0.0838
C9 C 1.0239(4) 0.7583(4) 0.0092(4)
H18 H 1.0612 0.7116 0.0015
C10 C 0.6251(4) 0.5341(3) -0.1055(3)
H19 H 0.6166 0.5395 -0.1616
H20 H 0.5684 0.5229 -0.0924
C11 C 0.5054(3) 0.8285(3) 0.0095(4)
H21 H 0.4671 0.7806 -0.0052
C12 C 0.5249(3) 0.8544(3) 0.0855(3)
H22 H 0.4999 0.8257 0.1229
C13 C 0.7033(3) 0.7167(4) 0.1516(3)
H23 H 0.7151 0.7413 0.2013
C14 C 0.7030(3) 0.6808(3) -0.1006(3)
H24 H 0.7081 0.6813 -0.1524
C15 C 0.5417(3) 0.8722(3) -0.0464(3)
H25 H 0.5264 0.8530 -0.0977
C16 C 0.9410(4) 1.1819(4) 0.1820(3)
H26 H 0.9595 1.2315 0.2135
C17 C 0.8523(3) 1.1766(4) 0.1413(3)
H27 H 0.8136 1.2233 0.1458
C18 C 0.9351(4) 0.7578(3) -0.0308(3)
H28 H 0.9150 0.7107 -0.0647
C19 C 0.6541(3) 0.6377(4) 0.1381(3)
H29 H 0.6333 0.6116 0.1790
C20 C 0.6735(3) 1.0310(3) 0.1619(3)
H30 H 0.7052 1.0685 0.1998
C21 C 1.0276(3) 0.9706(4) 0.1182(3)
H31 H 1.0859 0.9728 0.1442
C22 C 0.6355(3) 0.5972(3) 0.0670(3)
H32 H 0.6031 0.5442 0.0582
C23 C 0.9982(3) 1.1158(4) 0.1755(3)
H33 H 1.0561 1.1203 0.2023
C24 C 0.7851(3) 0.8246(3) -0.0652(2)
H34 H 0.7551 0.8777 -0.0514
H35 H 0.7851 0.8278 -0.1203
C25 C 0.5996(3) 0.9433(3) -0.0284(3)
H36 H 0.6234 0.9725 -0.0661
C26 C 0.7350(3) 0.7595(3) 0.0933(2)
H37 H 0.7676 0.8124 0.1019
C27 C 0.8235(3) 1.1042(3) 0.0959(2)
C28 C 0.7152(3) 0.7188(3) 0.0210(2)
C29 C 0.6679(3) 0.6399(3) 0.0089(2)
C30 C 0.9718(3) 1.0403(3) 0.1287(2)
C31 C 0.9995(3) 0.8982(4) 0.0706(3)
C32 C 0.6203(3) 0.9685(3) 0.0489(3)
C33 C 0.9089(3) 0.8975(3) 0.0307(2)
C34 C 0.8784(3) 0.8251(3) -0.0205(3)
C35 C 0.7299(3) 1.0994(3) 0.0526(3)
H38 H 0.7034 1.1587 0.0523
H39 H 0.7290 1.0825 -0.0009
C36 C 0.5839(3) 0.9257(3) 0.1047(3)
C37 C 0.8823(3) 1.0334(3) 0.0872(2)
N1 N 0.6185(2) 0.9671(3) 0.1748(2)
N2 N 0.6769(2) 1.0337(2) 0.0870(2)
N3 N 0.6618(2) 0.6176(2) -0.0693(2)
N4 N 0.7363(2) 0.7433(2) -0.04973(19)
N5 N 0.8527(2) 0.9637(2) 0.04048(19)
P2 P 0.3118(4) 0.9411(5) 0.2281(3)
F11 F 0.2469(8) 1.0221(8) 0.2268(9)
F12 F 0.3355(8) 0.9479(12) 0.3173(4)
F13 F 0.3866(7) 1.0083(8) 0.2201(6)
F14 F 0.2356(6) 0.8741(9) 0.2333(5)
F15 F 0.2860(10) 0.9373(9) 0.1381(5)
F16 F 0.3767(8) 0.8629(7) 0.2303(10)
O1 O 0.6099(17) 0.7998(16) -0.2431(15)
F7? F 0.5280(19) 0.3211(16) 0.203(3)
F8? F 0.666(3) 0.358(2) 0.2609(13)
F9? F 0.6955(14) 0.368(2) 0.161(3)
F10? F 0.5713(15) 0.3591(14) 0.0933(9)
F17? F 0.3954(11) 0.8785(17) 0.2086(13)
F18? F 0.2750(18) 0.8238(16) 0.2385(11)
P3? P 0.3149(7) 0.9189(13) 0.2321(7)
F19? F 0.2319(9) 0.961(2) 0.2579(9)
F20? F 0.3575(13) 0.9127(16) 0.3196(8)
F21? F 0.3536(19) 1.0148(12) 0.2289(13)
F22? F 0.2667(12) 0.9274(18) 0.1470(7)
loop_
_geom_bond_atom_site_label_1
_geom_bond_atom_site_label_2
_geom_bond_site_symmetry_1
_geom_bond_site_symmetry_2
P1 F1 1_555 1_555
F2 P1 1_555 1_555
F3 P1 1_555 1_555
F4 P1 1_555 1_555
F5 P1 1_555 1_555
F6 P1 1_555 1_555
C1 H1 1_555 1_555
H2 C1 1_555 1_555
H3 C1 1_555 1_555
C2 H4 1_555 1_555
H5 C2 1_555 1_555
H6 C2 1_555 1_555
C3 C2 1_555 1_555
H7 C3 1_555 1_555
H8 C3 1_555 1_555
C4 C1 1_555 1_555
H9 C4 1_555 1_555
H10 C4 1_555 1_555
C5 C3 1_555 1_555
H11 C5 1_555 1_555
H12 C5 1_555 1_555
C6 C5 1_555 1_555
H13 C6 1_555 1_555
H14 C6 1_555 1_555
C7 C4 1_555 1_555
H15 C7 1_555 1_555
H16 C7 1_555 1_555
C8 H17 1_555 1_555
C9 C8 1_555 1_555
H18 C9 1_555 1_555
C10 C7 1_555 1_555
H19 C10 1_555 1_555
H20 C10 1_555 1_555
C11 H21 1_555 1_555
C12 C11 1_555 1_555
H22 C12 1_555 1_555
C13 H23 1_555 1_555
C14 H24 1_555 1_555
C15 C11 1_555 1_555
H25 C15 1_555 1_555
C16 H26 1_555 1_555
C17 C16 1_555 1_555
H27 C17 1_555 1_555
C18 C9 1_555 1_555
H28 C18 1_555 1_555
C19 C13 1_555 1_555
H29 C19 1_555 1_555
C20 H30 1_555 1_555
C21 H31 1_555 1_555
C22 C19 1_555 1_555
H32 C22 1_555 1_555
C23 C16 1_555 1_555
H33 C23 1_555 1_555
C24 H34 1_555 1_555
H35 C24 1_555 1_555
C25 C15 1_555 1_555
H36 C25 1_555 1_555
C26 C13 1_555 1_555
H37 C26 1_555 1_555
C27 C17 1_555 1_555
C28 C26 1_555 1_555
C29 C22 1_555 1_555
C30 C21 1_555 1_555
C31 C8 1_555 1_555
C32 C25 1_555 1_555
C33 C31 1_555 1_555
C34 C18 1_555 1_555
C35 C27 1_555 1_555
H38 C35 1_555 1_555
H39 C35 1_555 1_555
C36 C12 1_555 1_555
C37 C27 1_555 1_555
N1 C6 1_555 1_555
N2 C20 1_555 1_555
N3 C10 1_555 1_555
N4 C14 1_555 1_555
N5 C33 1_555 1_555
P2 F11 1_555 1_555
F12 P2 1_555 1_555
F13 P2 1_555 1_555
F14 P2 1_555 1_555
F15 P2 1_555 1_555
F16 P2 1_555 1_555
C14 N3 1_555 1_555
C20 N1 1_555 1_555
C21 C31 1_555 1_555
C23 C30 1_555 1_555
C24 C34 1_555 1_555
C24 N4 1_555 1_555
C28 C29 1_555 1_555
C28 N4 1_555 1_555
C29 N3 1_555 1_555
C30 C37 1_555 1_555
C32 C36 1_555 1_555
C32 N2 1_555 1_555
C33 C34 1_555 1_555
C35 N2 1_555 1_555
C36 N1 1_555 1_555
C37 N5 1_555 1_555

#END
