
#######################################################################
#
#                 Cambridge Crystallographic Data Centre
#                                CCDC 
#
#######################################################################
#
# If this CIF has been generated from an entry in the Cambridge 
# Structural Database, then it will include bibliographic, chemical, 
# crystal, experimental, refinement or atomic coordinate data resulting 
# from the CCDC's data processing and validation procedures.
#
#######################################################################

data_EFOZAB04
_chemical_name_common            'barbituric acid urea'
_chemical_formula_moiety         'C4 H4 N2 O3,C1 H4 N2 O1'
_chemical_name_systematic        '2,4,6(1H,3H,5H)-Pyrimidinetrione urea'
_symmetry_cell_setting           monoclinic
_symmetry_space_group_name_H-M   'C c'
_symmetry_Int_Tables_number      9
_space_group_name_Hall           'C -2yc'
loop_
_symmetry_equiv_pos_site_id
_symmetry_equiv_pos_as_xyz
1 x,y,z
2 x,-y,1/2+z
3 1/2+x,1/2+y,z
4 1/2+x,1/2-y,1/2+z
_cell_length_a                   16.0474(5)
_cell_length_b                   5.0280(2)
_cell_length_c                   10.3879(3)
_cell_angle_alpha                90
_cell_angle_beta                 110.093(2)
_cell_angle_gamma                90
_cell_volume                     787.148
_exptl_crystal_colour            colorless
_exptl_crystal_description       block
_cell_formula_units_Z            4
_exptl_crystal_recrystallization_method ethanol
loop_
_atom_site_label
_atom_site_type_symbol
_atom_site_fract_x
_atom_site_fract_y
_atom_site_fract_z
O1 O 0.061746(4) 0.04543(18) 0.510092(6)
O2 O -0.17166(8) 0.60643(16) 0.42353(11)
O3 O -0.16920(7) -0.09264(15) 0.11890(10)
N1 N -0.05186(8) -0.01028(13) 0.30905(11)
N2 N -0.05419(8) 0.33131(14) 0.46342(10)
C1 C -0.01091(8) 0.11902(14) 0.43125(10)
C2 C -0.13599(7) 0.42476(13) 0.38339(10)
C3 C -0.17735(8) 0.30042(14) 0.24419(11)
C4 C -0.13438(8) 0.05101(14) 0.21783(10)
H1 H -0.020451 -0.167473 0.286118
H2 H -0.026827 0.424738 0.55419
H3 H -0.246368 0.258451 0.232305
H4 H -0.180054 0.451748 0.167452
O4 O 0.02613(8) 0.54577(16) 0.23956(11)
N3 N 0.14407(8) 0.27632(18) 0.26165(12)
N4 N 0.15747(9) 0.62610(16) 0.41011(11)
C5 C 0.10629(8) 0.48377(15) 0.30219(11)
H5 H 0.104982 0.166832 0.182503
H6 H 0.207184 0.227934 0.31752
H7 H 0.129646 0.778832 0.443717
H8 H 0.220377 0.571071 0.463401
loop_
_geom_bond_atom_site_label_1
_geom_bond_atom_site_label_2
_geom_bond_site_symmetry_1
_geom_bond_site_symmetry_2
O1 C1 1_555 1_555
O2 C2 1_555 1_555
O3 C4 1_555 1_555
N1 C1 1_555 1_555
N2 C1 1_555 1_555
C2 N2 1_555 1_555
C3 C2 1_555 1_555
C4 N1 1_555 1_555
H1 N1 1_555 1_555
H2 N2 1_555 1_555
H3 C3 1_555 1_555
H4 C3 1_555 1_555
O4 C5 1_555 1_555
N3 C5 1_555 1_555
N4 C5 1_555 1_555
H5 N3 1_555 1_555
H6 N3 1_555 1_555
H7 N4 1_555 1_555
H8 N4 1_555 1_555
C3 C4 1_555 1_555

#END
