
#######################################################################
#
#                 Cambridge Crystallographic Data Centre
#                                CCDC 
#
#######################################################################
#
# If this CIF has been generated from an entry in the Cambridge 
# Structural Database, then it will include bibliographic, chemical, 
# crystal, experimental, refinement or atomic coordinate data resulting 
# from the CCDC's data processing and validation procedures.
#
#######################################################################

data_EFUCEP
_chemical_formula_moiety         'C10 H9 N1,C7 H7 N1 O2'
_chemical_name_systematic        '2-aminobenzoic acid 2-methylquinoline'
_symmetry_cell_setting           monoclinic
_symmetry_space_group_name_H-M   'P 21/c'
_symmetry_Int_Tables_number      14
_space_group_name_Hall           '-P 2ybc'
loop_
_symmetry_equiv_pos_site_id
_symmetry_equiv_pos_as_xyz
1 x,y,z
2 -x,1/2+y,1/2-z
3 -x,-y,-z
4 x,1/2-y,1/2+z
_cell_length_a                   9.2974(8)
_cell_length_b                   13.4381(12)
_cell_length_c                   12.0207(11)
_cell_angle_alpha                90
_cell_angle_beta                 101.9840(10)
_cell_angle_gamma                90
_cell_volume                     1469.13
_exptl_crystal_colour            colorless
_exptl_crystal_description       block
_cell_formula_units_Z            4
loop_
_atom_site_label
_atom_site_type_symbol
_atom_site_fract_x
_atom_site_fract_y
_atom_site_fract_z
N1 N 0.8210(2) 0.14586(15) 0.92072(18)
C1 C 0.7999(3) 0.13553(19) 1.0255(2)
C2 C 0.9173(3) 0.12199(19) 1.1184(2)
H1 H 0.8988 0.1165 1.1913
C3 C 1.0570(3) 0.11688(19) 1.1032(2)
H2 H 1.1345 0.1069 1.1649
C4 C 1.0837(3) 0.12686(17) 0.9924(2)
C5 C 0.9625(3) 0.14179(16) 0.9027(2)
C6 C 0.9845(3) 0.1516(2) 0.7912(2)
H3 H 0.9045 0.1623 0.7317
C7 C 1.1223(3) 0.1456(2) 0.7697(3)
H4 H 1.1359 0.1516 0.6956
C8 C 1.2428(3) 0.1306(2) 0.8582(3)
H5 H 1.3365 0.1267 0.8425
C9 C 1.2255(3) 0.12135(19) 0.9673(3)
H6 H 1.3072 0.1114 1.0256
C10 C 0.6444(3) 0.1401(3) 1.0415(3)
H7 H 0.6225 0.2066 1.0622
H8 H 0.6323 0.0949 1.1007
H9 H 0.5787 0.1219 0.9719
N2 N 0.3732(3) -0.14653(18) 0.6612(2)
H10 H 0.3222 -0.1999 0.6453
H11 H 0.4488 -0.1462 0.7164
O1 O 0.5943(2) 0.12657(14) 0.73402(17)
H12 H 0.6645 0.1262 0.7881
O2 O 0.5911(2) -0.03367(15) 0.77809(17)
C11 C 0.5396(3) 0.0353(2) 0.7169(2)
C12 C 0.4125(3) 0.02740(18) 0.6221(2)
C13 C 0.3347(3) -0.0628(2) 0.5994(2)
C14 C 0.2113(3) -0.0646(2) 0.5098(3)
H13 H 0.1577 -0.1231 0.4942
C15 C 0.1685(4) 0.0169(3) 0.4456(3)
H14 H 0.0862 0.0133 0.3866
C16 C 0.2448(4) 0.1051(2) 0.4660(3)
H15 H 0.2155 0.1607 0.4209
C17 C 0.3644(3) 0.1094(2) 0.5538(2)
H16 H 0.4154 0.1691 0.5684
loop_
_geom_bond_atom_site_label_1
_geom_bond_atom_site_label_2
_geom_bond_site_symmetry_1
_geom_bond_site_symmetry_2
N1 C1 1_555 1_555
C1 C2 1_555 1_555
C2 H1 1_555 1_555
C3 C2 1_555 1_555
H2 C3 1_555 1_555
C4 C3 1_555 1_555
C5 N1 1_555 1_555
C6 C5 1_555 1_555
H3 C6 1_555 1_555
C7 C6 1_555 1_555
H4 C7 1_555 1_555
C8 C7 1_555 1_555
H5 C8 1_555 1_555
C9 C4 1_555 1_555
H6 C9 1_555 1_555
C10 C1 1_555 1_555
H7 C10 1_555 1_555
H8 C10 1_555 1_555
H9 C10 1_555 1_555
N2 H10 1_555 1_555
H11 N2 1_555 1_555
O1 H12 1_555 1_555
O2 C11 1_555 1_555
C11 O1 1_555 1_555
C12 C11 1_555 1_555
C13 N2 1_555 1_555
C14 C13 1_555 1_555
H13 C14 1_555 1_555
C15 C14 1_555 1_555
H14 C15 1_555 1_555
C16 C15 1_555 1_555
H15 C16 1_555 1_555
C17 C12 1_555 1_555
H16 C17 1_555 1_555
C4 C5 1_555 1_555
C8 C9 1_555 1_555
C12 C13 1_555 1_555
C16 C17 1_555 1_555

#END
