
#######################################################################
#
#                 Cambridge Crystallographic Data Centre
#                                CCDC 
#
#######################################################################
#
# If this CIF has been generated from an entry in the Cambridge 
# Structural Database, then it will include bibliographic, chemical, 
# crystal, experimental, refinement or atomic coordinate data resulting 
# from the CCDC's data processing and validation procedures.
#
#######################################################################

data_EFUPIF
_chemical_formula_moiety         'C20 H25 B1 N2'
_chemical_name_systematic        
1-t-Butyl-N,N-diphenyl-1,2,3,6-tetrahydro-1,2-azaborinin-2-amine
_symmetry_cell_setting           monoclinic
_symmetry_space_group_name_H-M   'P 21/c'
_symmetry_Int_Tables_number      14
_space_group_name_Hall           '-P 2ybc'
loop_
_symmetry_equiv_pos_site_id
_symmetry_equiv_pos_as_xyz
1 x,y,z
2 -x,1/2+y,1/2-z
3 -x,-y,-z
4 x,1/2-y,1/2+z
_cell_length_a                   17.7457(13)
_cell_length_b                   11.4680(8)
_cell_length_c                   18.6032(14)
_cell_angle_alpha                90
_cell_angle_beta                 113.4510(10)
_cell_angle_gamma                90
_cell_volume                     3473.18
_exptl_crystal_colour            colorless
_exptl_crystal_description       block
_cell_formula_units_Z            8
_exptl_crystal_recrystallization_method dichloromethane/pentane
loop_
_atom_site_label
_atom_site_type_symbol
_atom_site_fract_x
_atom_site_fract_y
_atom_site_fract_z
N1 N 0.49364(6) 0.08477(9) 0.12502(6)
N2 N 0.43208(6) 0.27843(9) 0.14101(6)
B1 B 0.50017(9) 0.20595(13) 0.13818(8)
C1 C 0.56863(9) 0.01253(12) 0.15223(9)
C2 C 0.64642(10) 0.07595(15) 0.19345(12)
C3 C 0.65539(10) 0.18992(15) 0.19456(11)
C4 C 0.58487(9) 0.26925(13) 0.15558(10)
C5 C 0.41565(8) 0.01443(11) 0.08851(8)
C6 C 0.34873(9) 0.08924(13) 0.02817(10)
C7 C 0.38803(11) -0.03265(14) 0.15140(10)
C8 C 0.42840(11) -0.09139(13) 0.04377(10)
C9 C 0.39968(8) 0.25239(10) 0.19787(7)
C10 C 0.45115(8) 0.20611(11) 0.27012(8)
C11 C 0.42052(9) 0.17579(12) 0.32547(8)
C12 C 0.33866(10) 0.19426(13) 0.31065(9)
C13 C 0.28711(9) 0.24137(13) 0.23928(9)
C14 C 0.31676(8) 0.26955(12) 0.18289(8)
C15 C 0.41024(8) 0.38511(10) 0.09948(7)
C16 C 0.41676(8) 0.39583(11) 0.02744(8)
C17 C 0.39371(9) 0.49825(11) -0.01565(8)
C18 C 0.36263(9) 0.59131(11) 0.01129(8)
C19 C 0.35724(9) 0.58218(12) 0.08344(8)
C20 C 0.38159(8) 0.48119(11) 0.12760(8)
H1 H 0.5732(10) -0.0288(14) 0.1076(10)
H2 H 0.5639(9) -0.0505(14) 0.1877(9)
H3 H 0.6944(14) 0.0252(19) 0.2197(13)
H4 H 0.7109(13) 0.2229(17) 0.2223(11)
H5 H 0.5885(11) 0.2934(16) 0.1053(11)
H6 H 0.5912(12) 0.3428(18) 0.1846(12)
H7 H 0.3284(11) 0.1492(15) 0.0544(10)
H8 H 0.3709(10) 0.1282(14) -0.0082(10)
H9 H 0.3030(10) 0.0375(14) -0.0030(9)
H10 H 0.4343(11) -0.0752(16) 0.1942(11)
H11 H 0.3421(11) -0.0884(15) 0.1263(10)
H12 H 0.3687(10) 0.0280(15) 0.1766(9)
H13 H 0.3745(12) -0.1298(15) 0.0149(10)
H14 H 0.4653(11) -0.1524(15) 0.0798(10)
H15 H 0.4518(10) -0.0696(14) 0.0056(10)
H16 H 0.5100(9) 0.1942(12) 0.2816(8)
H17 H 0.4578(10) 0.1421(13) 0.3744(10)
H18 H 0.3167(10) 0.1760(14) 0.3492(10)
H19 H 0.2291(10) 0.2536(14) 0.2279(9)
H20 H 0.2789(9) 0.3004(13) 0.1310(9)
H21 H 0.4367(9) 0.3293(13) 0.0074(9)
H22 H 0.3990(9) 0.5027(12) -0.0668(9)
H23 H 0.3435(10) 0.6623(14) -0.0209(9)
H24 H 0.3369(10) 0.6477(14) 0.1053(9)
H25 H 0.3777(8) 0.4771(12) 0.1789(8)
N3 N 0.03760(6) 0.11967(9) 0.38596(6)
N4 N 0.09155(7) -0.07030(9) 0.35412(6)
B2 B 0.03281(9) -0.00177(13) 0.37525(9)
C21 C -0.03724(8) 0.18439(12) 0.37806(9)
C22 C -0.11518(9) 0.11677(13) 0.34154(9)
C23 C -0.11898(9) 0.00202(14) 0.34319(10)
C24 C -0.04295(9) -0.06942(13) 0.38074(11)
C25 C 0.11158(8) 0.19739(11) 0.40603(8)
C26 C 0.19124(9) 0.12845(14) 0.44429(11)
C27 C 0.11059(11) 0.26020(14) 0.33318(11)
C28 C 0.11167(11) 0.28837(14) 0.46706(11)
C29 C 0.10679(8) -0.04318(10) 0.28676(8)
C30 C 0.04510(9) 0.00820(12) 0.22201(8)
C31 C 0.05950(11) 0.03851(13) 0.15631(9)
C32 C 0.13472(12) 0.01587(14) 0.15372(10)
C33 C 0.19595(11) -0.03628(14) 0.21727(10)
C34 C 0.18311(9) -0.06466(12) 0.28384(9)
C35 C 0.12084(8) -0.17658(11) 0.39404(8)
C36 C 0.13623(9) -0.18321(12) 0.47355(8)
C37 C 0.16043(9) -0.28729(13) 0.51401(9)
C38 C 0.17197(10) -0.38550(13) 0.47676(10)
C39 C 0.15898(10) -0.37927(12) 0.39848(10)
C40 C 0.13276(9) -0.27644(11) 0.35673(9)
H26 H -0.0337(9) 0.2127(13) 0.4300(9)
H27 H -0.0413(9) 0.2567(14) 0.3463(9)
H28 H -0.1641(11) 0.1640(15) 0.3187(10)
H29 H -0.1739(12) -0.0358(16) 0.3186(11)
H30 H -0.0333(12) -0.0824(17) 0.4377(12)
H31 H -0.0497(12) -0.1473(17) 0.3564(11)
H32 H 0.1904(11) 0.0837(16) 0.4911(11)
H33 H 0.2007(11) 0.0731(16) 0.4086(11)
H34 H 0.2382(11) 0.1845(16) 0.4640(10)
H35 H 0.0574(13) 0.3053(17) 0.3053(12)
H36 H 0.1187(10) 0.2051(16) 0.2962(10)
H37 H 0.1569(12) 0.3182(17) 0.3493(11)
H38 H 0.1064(10) 0.2510(15) 0.5140(10)
H39 H 0.1641(11) 0.3320(15) 0.4854(10)
H40 H 0.0661(11) 0.3464(15) 0.4456(10)
H41 H -0.0081(10) 0.0228(13) 0.2241(9)
H42 H 0.0137(11) 0.0762(15) 0.1122(10)
H43 H 0.1449(11) 0.0352(16) 0.1080(11)
H44 H 0.2497(11) -0.0503(15) 0.2171(10)
H45 H 0.2275(10) -0.0988(14) 0.3306(9)
H46 H 0.1292(10) -0.1135(14) 0.5008(9)
H47 H 0.1696(10) -0.2909(15) 0.5704(10)
H48 H 0.1890(10) -0.4596(14) 0.5067(9)
H49 H 0.1668(10) -0.4466(15) 0.3712(10)
H50 H 0.1226(9) -0.2745(13) 0.3012(9)
loop_
_geom_bond_atom_site_label_1
_geom_bond_atom_site_label_2
_geom_bond_site_symmetry_1
_geom_bond_site_symmetry_2
N1 B1 1_555 1_555
N2 B1 1_555 1_555
N3 B2 1_555 1_555
N4 B2 1_555 1_555
B1 C4 1_555 1_555
B2 C24 1_555 1_555
C1 N1 1_555 1_555
C2 C1 1_555 1_555
C3 C2 1_555 1_555
C4 C3 1_555 1_555
C5 N1 1_555 1_555
C6 C5 1_555 1_555
C7 C5 1_555 1_555
C8 C5 1_555 1_555
C9 N2 1_555 1_555
C10 C9 1_555 1_555
C11 C10 1_555 1_555
C12 C11 1_555 1_555
C13 C12 1_555 1_555
C14 C9 1_555 1_555
C15 N2 1_555 1_555
C16 C15 1_555 1_555
C17 C16 1_555 1_555
C18 C17 1_555 1_555
C19 C18 1_555 1_555
C20 C15 1_555 1_555
C21 N3 1_555 1_555
C22 C21 1_555 1_555
C23 C22 1_555 1_555
C24 C23 1_555 1_555
C25 N3 1_555 1_555
C26 C25 1_555 1_555
C27 C25 1_555 1_555
C28 C25 1_555 1_555
C29 N4 1_555 1_555
C30 C29 1_555 1_555
C31 C30 1_555 1_555
C32 C31 1_555 1_555
C33 C32 1_555 1_555
C34 C29 1_555 1_555
C35 N4 1_555 1_555
C36 C35 1_555 1_555
C37 C36 1_555 1_555
C38 C37 1_555 1_555
C39 C38 1_555 1_555
C40 C35 1_555 1_555
H1 C1 1_555 1_555
H2 C1 1_555 1_555
H3 C2 1_555 1_555
H4 C3 1_555 1_555
H5 C4 1_555 1_555
H6 C4 1_555 1_555
H7 C6 1_555 1_555
H8 C6 1_555 1_555
H9 C6 1_555 1_555
H10 C7 1_555 1_555
H11 C7 1_555 1_555
H12 C7 1_555 1_555
H13 C8 1_555 1_555
H14 C8 1_555 1_555
H15 C8 1_555 1_555
H16 C10 1_555 1_555
H17 C11 1_555 1_555
H18 C12 1_555 1_555
H19 C13 1_555 1_555
H20 C14 1_555 1_555
H21 C16 1_555 1_555
H22 C17 1_555 1_555
H23 C18 1_555 1_555
H24 C19 1_555 1_555
H25 C20 1_555 1_555
H26 C21 1_555 1_555
H27 C21 1_555 1_555
H28 C22 1_555 1_555
H29 C23 1_555 1_555
H30 C24 1_555 1_555
H31 C24 1_555 1_555
H32 C26 1_555 1_555
H33 C26 1_555 1_555
H34 C26 1_555 1_555
H35 C27 1_555 1_555
H36 C27 1_555 1_555
H37 C27 1_555 1_555
H38 C28 1_555 1_555
H39 C28 1_555 1_555
H40 C28 1_555 1_555
H41 C30 1_555 1_555
H42 C31 1_555 1_555
H43 C32 1_555 1_555
H44 C33 1_555 1_555
H45 C34 1_555 1_555
H46 C36 1_555 1_555
H47 C37 1_555 1_555
H48 C38 1_555 1_555
H49 C39 1_555 1_555
H50 C40 1_555 1_555
C13 C14 1_555 1_555
C19 C20 1_555 1_555
C33 C34 1_555 1_555
C39 C40 1_555 1_555

#END
