
#######################################################################
#
#                 Cambridge Crystallographic Data Centre
#                                CCDC 
#
#######################################################################
#
# If this CIF has been generated from an entry in the Cambridge 
# Structural Database, then it will include bibliographic, chemical, 
# crystal, experimental, refinement or atomic coordinate data resulting 
# from the CCDC's data processing and validation procedures.
#
#######################################################################

data_EFUVEI
_chemical_formula_moiety         'C36 H80 Li2 Mg1 N4 Si4'
_chemical_name_systematic        
bis(\m-2,3-dimethyl-1,4-bis(trimethylsilyl)buta-1,3-diene-1,4-diyl)-bis(N,N,N',N'-tetramethylethane-1,2-diamine)-di-lithium-magnesium
_symmetry_cell_setting           monoclinic
_symmetry_space_group_name_H-M   'C 2/c'
_symmetry_Int_Tables_number      15
_space_group_name_Hall           '-C 2yn'
loop_
_symmetry_equiv_pos_site_id
_symmetry_equiv_pos_as_xyz
1 x,y,z
2 -x,y,1/2-z
3 1/2+x,1/2+y,z
4 1/2-x,1/2+y,1/2-z
5 -x,-y,-z
6 x,-y,1/2+z
7 1/2-x,1/2-y,-z
8 1/2+x,1/2-y,1/2+z
_cell_length_a                   18.3460(8)
_cell_length_b                   16.6249(7)
_cell_length_c                   15.6746(6)
_cell_angle_alpha                90
_cell_angle_beta                 94.859(4)
_cell_angle_gamma                90
_cell_volume                     4763.58
_exptl_crystal_colour            red
_exptl_crystal_description       block
_cell_formula_units_Z            4
loop_
_atom_site_label
_atom_site_type_symbol
_atom_site_fract_x
_atom_site_fract_y
_atom_site_fract_z
Mg1 Mg 0.500000 0.27036(4) 0.750000
Li1 Li 0.33891(18) 0.24653(19) 0.74473(19)
N1 N 0.30894(10) 0.15192(11) 0.65993(11)
N2 N 0.21690(9) 0.25624(12) 0.75232(10)
Si1 Si 0.43376(3) 0.15109(3) 0.93473(3)
Si2 Si 0.39642(3) 0.42644(3) 0.62842(3)
C1 C 0.42858(9) 0.23305(10) 0.85391(10)
C2 C 0.39415(9) 0.30363(10) 0.86791(10)
C3 C 0.38492(9) 0.36868(10) 0.79771(11)
C4 C 0.40583(9) 0.35390(10) 0.71841(11)
C5 C 0.48918(12) 0.17604(13) 1.03826(12)
C6 C 0.34149(13) 0.11639(14) 0.96491(14)
C7 C 0.47491(15) 0.05812(12) 0.89035(14)
C8 C 0.44724(14) 0.52374(14) 0.64809(16)
C9 C 0.29898(11) 0.45452(13) 0.59413(13)
C10 C 0.43154(12) 0.38050(15) 0.53122(13)
C11 C 0.36203(11) 0.32607(13) 0.95149(11)
C12 C 0.35135(14) 0.44719(13) 0.82547(14)
C13 C 0.34304(15) 0.17135(18) 0.58132(15)
C14 C 0.33538(14) 0.07417(13) 0.69290(15)
C15 C 0.22867(13) 0.15104(15) 0.64422(19)
C16 C 0.19088(16) 0.2321(3) 0.83029(18)
C17 C 0.1917(2) 0.2296(3) 0.6697(3)
C18 C 0.1876(3) 0.3455(3) 0.7605(4)
H1 H 0.5400(2) 0.1863(9) 1.02684(18)
H2 H 0.4689(5) 0.2240(5) 1.0637(5)
H3 H 0.4874(7) 0.1307(4) 1.0780(4)
H4 H 0.3154(4) 0.1619(2) 0.9879(9)
H5 H 0.3131(3) 0.0952(9) 0.9141(2)
H6 H 0.34809(13) 0.0741(7) 1.0084(7)
H7 H 0.4688(8) 0.0597(5) 0.82766(15)
H8 H 0.5271(2) 0.0557(5) 0.9094(9)
H9 H 0.4503(6) 0.01043(13) 0.9109(9)
H10 H 0.4262(7) 0.5534(5) 0.6942(8)
H11 H 0.4989(2) 0.51241(15) 0.6647(12)
H12 H 0.4431(9) 0.5562(5) 0.5957(4)
H13 H 0.2713(2) 0.40601(17) 0.5765(9)
H14 H 0.2769(3) 0.4800(8) 0.6421(3)
H15 H 0.29802(12) 0.4921(7) 0.5459(6)
H16 H 0.4830(3) 0.3654(9) 0.5438(3)
H17 H 0.4027(6) 0.3325(6) 0.5146(6)
H18 H 0.4274(8) 0.4195(4) 0.4842(3)
H19 H 0.3685(7) 0.2811(3) 0.9919(3)
H20 H 0.3872(5) 0.3737(5) 0.9762(5)
H21 H 0.30978(19) 0.3378(8) 0.93999(17)
H22 H 0.3812(5) 0.4692(5) 0.8748(6)
H23 H 0.3496(8) 0.4858(3) 0.7781(4)
H24 H 0.3016(3) 0.4371(2) 0.8414(10)
H25 H 0.3218(8) 0.2211(6) 0.5567(7)
H26 H 0.3958(2) 0.1786(12) 0.5946(3)
H27 H 0.3344(9) 0.1274(5) 0.5401(5)
H28 H 0.38855(18) 0.0765(3) 0.7058(10)
H29 H 0.3121(7) 0.0614(5) 0.7452(6)
H30 H 0.3233(8) 0.0325(2) 0.6498(4)
H31 H 0.2136(11) 0.1809(8) 0.8485(9)
H32 H 0.2032(13) 0.2731(8) 0.8740(5)
H33 H 0.1376(2) 0.2254(16) 0.8226(5)
H34 H 0.1382(2) 0.2210(3) 0.6675(3)
H35 H 0.2010(2) 0.2720(3) 0.6277(3)
H36 H 0.2015(16) 0.3658(8) 0.8183(7)
H37 H 0.2090(14) 0.3799(5) 0.7184(15)
H38 H 0.1342(3) 0.3459(4) 0.750(2)
H39 H 0.21554(13) 0.14088(15) 0.58259(19)
H40 H 0.20913(13) 0.10595(15) 0.67667(19)
Li1A Li 0.66109(18) 0.24653(19) 0.75527(19)
N1A N 0.69106(10) 0.15192(11) 0.84007(11)
N2A N 0.78310(9) 0.25624(12) 0.74768(10)
Si1A Si 0.56624(3) 0.15109(3) 0.56527(3)
Si2A Si 0.60358(3) 0.42644(3) 0.87158(3)
C1A C 0.57142(9) 0.23305(10) 0.64609(10)
C2A C 0.60585(9) 0.30363(10) 0.63209(10)
C3A C 0.61508(9) 0.36868(10) 0.70229(11)
C4A C 0.59417(9) 0.35390(10) 0.78159(11)
C5A C 0.51082(12) 0.17604(13) 0.46174(12)
C6A C 0.65851(13) 0.11639(14) 0.53509(14)
C7A C 0.52509(15) 0.05812(12) 0.60965(14)
C8A C 0.55276(14) 0.52374(14) 0.85191(16)
C9A C 0.70102(11) 0.45452(13) 0.90587(13)
C10A C 0.56846(12) 0.38050(15) 0.96878(13)
C11A C 0.63797(11) 0.32607(13) 0.54851(11)
C12A C 0.64865(14) 0.44719(13) 0.67453(14)
C13A C 0.65696(15) 0.17135(18) 0.91868(15)
C14A C 0.66462(14) 0.07417(13) 0.80710(15)
C15A C 0.77133(13) 0.15104(15) 0.85578(19)
C16A C 0.80912(16) 0.2321(3) 0.66971(18)
C17A C 0.8083(2) 0.2296(3) 0.8303(3)
C18A C 0.8124(3) 0.3455(3) 0.7395(4)
H1A H 0.4600(2) 0.1863(9) 0.47316(18)
H2A H 0.5311(5) 0.2240(5) 0.4363(5)
H3A H 0.5126(7) 0.1307(4) 0.4220(4)
H4A H 0.6846(4) 0.1619(2) 0.5121(9)
H5A H 0.6869(3) 0.0952(9) 0.5859(2)
H6A H 0.65191(13) 0.0741(7) 0.4916(7)
H7A H 0.5312(8) 0.0597(5) 0.67234(15)
H8A H 0.4729(2) 0.0557(5) 0.5906(9)
H9A H 0.5497(6) 0.01043(13) 0.5891(9)
H10A H 0.5738(7) 0.5534(5) 0.8058(8)
H11A H 0.5011(2) 0.51241(15) 0.8353(12)
H12A H 0.5569(9) 0.5562(5) 0.9043(4)
H13A H 0.7287(2) 0.40601(17) 0.9235(9)
H14A H 0.7231(3) 0.4800(8) 0.8579(3)
H15A H 0.70198(12) 0.4921(7) 0.9541(6)
H16A H 0.5170(3) 0.3654(9) 0.9562(3)
H17A H 0.5973(6) 0.3325(6) 0.9854(6)
H18A H 0.5726(8) 0.4195(4) 1.0158(3)
H19A H 0.6315(7) 0.2811(3) 0.5081(3)
H20A H 0.6128(5) 0.3737(5) 0.5238(5)
H21A H 0.69022(19) 0.3378(8) 0.56001(17)
H22A H 0.6188(5) 0.4692(5) 0.6252(6)
H23A H 0.6504(8) 0.4858(3) 0.7219(4)
H24A H 0.6984(3) 0.4371(2) 0.6586(10)
H25A H 0.6782(8) 0.2211(6) 0.9433(7)
H26A H 0.6042(2) 0.1786(12) 0.9054(3)
H27A H 0.6656(9) 0.1274(5) 0.9599(5)
H28A H 0.61145(18) 0.0765(3) 0.7942(10)
H29A H 0.6879(7) 0.0614(5) 0.7548(6)
H30A H 0.6767(8) 0.0325(2) 0.8502(4)
H31A H 0.7864(11) 0.1809(8) 0.6515(9)
H32A H 0.7968(13) 0.2731(8) 0.6260(5)
H33A H 0.8624(2) 0.2254(16) 0.6774(5)
H34A H 0.8618(2) 0.2210(3) 0.8325(3)
H35A H 0.7990(2) 0.2720(3) 0.8723(3)
H36A H 0.7985(16) 0.3658(8) 0.6817(7)
H37A H 0.7910(14) 0.3799(5) 0.7816(15)
H38A H 0.8658(3) 0.3459(4) 0.750(2)
H39A H 0.78446(13) 0.14088(15) 0.91741(19)
H40A H 0.79087(13) 0.10595(15) 0.82333(19)
C19? C 0.1928(2) 0.1704(3) 0.7106(3)
C20? C 0.1852(3) 0.3156(4) 0.6996(4)
H41? H 0.1986(18) 0.3686(4) 0.7234(14)
H42? H 0.2027(17) 0.3107(15) 0.6424(8)
H43? H 0.1319(3) 0.3096(15) 0.695(2)
H44? H 0.2010(2) 0.1281(3) 0.7548(3)
H45? H 0.1398(2) 0.1718(3) 0.6925(3)
H46? H 0.21434(13) 0.18886(15) 0.59696(19)
H47? H 0.21319(13) 0.09652(15) 0.62482(19)
loop_
_geom_bond_atom_site_label_1
_geom_bond_atom_site_label_2
_geom_bond_site_symmetry_1
_geom_bond_site_symmetry_2
Mg1 C1 1_555 1_555
Li1 N1 1_555 1_555
N1 C13 1_555 1_555
N2 Li1 1_555 1_555
Si1 C1 1_555 1_555
Si2 C4 1_555 1_555
C1 Li1 1_555 1_555
C2 Li1 1_555 1_555
C3 C2 1_555 1_555
C4 Mg1 1_555 1_555
C5 Si1 1_555 1_555
C6 Si1 1_555 1_555
C7 Si1 1_555 1_555
C8 Si2 1_555 1_555
C9 Si2 1_555 1_555
C10 Si2 1_555 1_555
C11 C2 1_555 1_555
C12 C3 1_555 1_555
C13 H25 1_555 1_555
C14 N1 1_555 1_555
C15 N1 1_555 1_555
C16 N2 1_555 1_555
C17 N2 1_555 1_555
C18 N2 1_555 1_555
H1 C5 1_555 1_555
H2 C5 1_555 1_555
H3 C5 1_555 1_555
H4 C6 1_555 1_555
H5 C6 1_555 1_555
H6 C6 1_555 1_555
H7 C7 1_555 1_555
H8 C7 1_555 1_555
H9 C7 1_555 1_555
H10 C8 1_555 1_555
H11 C8 1_555 1_555
H12 C8 1_555 1_555
H13 C9 1_555 1_555
H14 C9 1_555 1_555
H15 C9 1_555 1_555
H16 C10 1_555 1_555
H17 C10 1_555 1_555
H18 C10 1_555 1_555
H19 C11 1_555 1_555
H20 C11 1_555 1_555
H21 C11 1_555 1_555
H22 C12 1_555 1_555
H23 C12 1_555 1_555
H24 C12 1_555 1_555
H26 C13 1_555 1_555
H27 C13 1_555 1_555
H28 C14 1_555 1_555
H29 C14 1_555 1_555
H30 C14 1_555 1_555
H31 C16 1_555 1_555
H32 C16 1_555 1_555
H33 C16 1_555 1_555
H34 C17 1_555 1_555
H35 C17 1_555 1_555
H36 C18 1_555 1_555
H37 C18 1_555 1_555
H38 C18 1_555 1_555
H39 C15 1_555 1_555
H40 C15 1_555 1_555
Li1A N1A 1_555 1_555
N1A C13A 1_555 1_555
N2A Li1A 1_555 1_555
Si1A C1A 1_555 1_555
Si2A C4A 1_555 1_555
C1A Mg1 1_555 1_555
C2A Li1A 1_555 1_555
C3A C2A 1_555 1_555
C4A Mg1 1_555 1_555
C5A Si1A 1_555 1_555
C6A Si1A 1_555 1_555
C7A Si1A 1_555 1_555
C8A Si2A 1_555 1_555
C9A Si2A 1_555 1_555
C10A Si2A 1_555 1_555
C11A C2A 1_555 1_555
C12A C3A 1_555 1_555
C13A H25A 1_555 1_555
C14A N1A 1_555 1_555
C15A N1A 1_555 1_555
C16A N2A 1_555 1_555
C17A N2A 1_555 1_555
C18A N2A 1_555 1_555
H1A C5A 1_555 1_555
H2A C5A 1_555 1_555
H3A C5A 1_555 1_555
H4A C6A 1_555 1_555
H5A C6A 1_555 1_555
H6A C6A 1_555 1_555
H7A C7A 1_555 1_555
H8A C7A 1_555 1_555
H9A C7A 1_555 1_555
H10A C8A 1_555 1_555
H11A C8A 1_555 1_555
H12A C8A 1_555 1_555
H13A C9A 1_555 1_555
H14A C9A 1_555 1_555
H15A C9A 1_555 1_555
H16A C10A 1_555 1_555
H17A C10A 1_555 1_555
H18A C10A 1_555 1_555
H19A C11A 1_555 1_555
H20A C11A 1_555 1_555
H21A C11A 1_555 1_555
H22A C12A 1_555 1_555
H23A C12A 1_555 1_555
H24A C12A 1_555 1_555
H26A C13A 1_555 1_555
H27A C13A 1_555 1_555
H28A C14A 1_555 1_555
H29A C14A 1_555 1_555
H30A C14A 1_555 1_555
H31A C16A 1_555 1_555
H32A C16A 1_555 1_555
H33A C16A 1_555 1_555
H34A C17A 1_555 1_555
H35A C17A 1_555 1_555
H36A C18A 1_555 1_555
H37A C18A 1_555 1_555
H38A C18A 1_555 1_555
H39A C15A 1_555 1_555
H40A C15A 1_555 1_555
Li1 C4 1_555 1_555
C1 C2 1_555 1_555
C3 C4 1_555 1_555
C15 C17 1_555 1_555
Li1A C1A 1_555 1_555
Li1A C4A 1_555 1_555
C1A C2A 1_555 1_555
C3A C4A 1_555 1_555
C15A C17A 1_555 1_555

#END
