
#######################################################################
#
#                 Cambridge Crystallographic Data Centre
#                                CCDC 
#
#######################################################################
#
# If this CIF has been generated from an entry in the Cambridge 
# Structural Database, then it will include bibliographic, chemical, 
# crystal, experimental, refinement or atomic coordinate data resulting 
# from the CCDC's data processing and validation procedures.
#
#######################################################################

data_EGAYUG
_chemical_formula_moiety         'C24 H34 O8'
_chemical_name_systematic        
1\a,5\a,14\a-Trihydroxy-6\a,7\b-diacetoxyvouacapane
_chemical_properties_biological  
'reduced activity against the para3 virus compared to the parent furanoditerpenoid'
_symmetry_cell_setting           monoclinic
_symmetry_space_group_name_H-M   'P 21'
_symmetry_Int_Tables_number      4
_space_group_name_Hall           'P 2yb'
loop_
_symmetry_equiv_pos_site_id
_symmetry_equiv_pos_as_xyz
1 x,y,z
2 -x,1/2+y,-z
_cell_length_a                   10.0824(8)
_cell_length_b                   9.6405(8)
_cell_length_c                   11.8978(10)
_cell_angle_alpha                90
_cell_angle_beta                 100.285(2)
_cell_angle_gamma                90
_cell_volume                     1137.88
_exptl_crystal_colour            colorless
_exptl_crystal_description       prism
_chemical_melting_point          192-194deg.C
_cell_formula_units_Z            2
loop_
_atom_site_label
_atom_site_type_symbol
_atom_site_fract_x
_atom_site_fract_y
_atom_site_fract_z
O1 O 0.6413(3) 0.2195(2) 0.3000(2)
H1 H 0.6582 0.1377 0.3151
O2 O 0.7069(2) 0.4700(2) 0.21456(18)
H2 H 0.7114 0.3852 0.2189
O3 O 0.7345(2) 0.7524(2) 0.24736(18)
O4 O 0.7171(3) 0.9377(3) 0.3580(3)
O5 O 0.4570(2) 0.8135(2) 0.19711(19)
O6 O 0.5447(3) 0.8538(3) 0.0384(2)
O7 O 0.3057(2) 0.5876(3) 0.03267(17)
H3 H 0.3467 0.5170 0.0213
O8 O 0.1252(3) 0.2484(3) 0.2162(2)
C1 C 0.6320(4) 0.2935(3) 0.4030(3)
H4 H 0.5654 0.2471 0.4407
C2 C 0.7675(4) 0.2908(4) 0.4830(3)
H5 H 0.7583 0.3322 0.5555
H6 H 0.7962 0.1954 0.4971
C3 C 0.8734(3) 0.3689(4) 0.4331(3)
H7 H 0.8878 0.3215 0.3644
H8 H 0.9575 0.3658 0.4873
C4 C 0.8386(3) 0.5213(3) 0.4035(3)
C5 C 0.6938(3) 0.5261(3) 0.3232(3)
C6 C 0.6375(3) 0.6730(3) 0.2973(2)
H9 H 0.6215 0.7176 0.3676
C7 C 0.5080(3) 0.6711(3) 0.2086(3)
H10 H 0.5281 0.6397 0.1351
C8 C 0.3961(3) 0.5814(3) 0.2414(2)
H11 H 0.3692 0.6235 0.3088
C9 C 0.4532(3) 0.4349(3) 0.2766(3)
H12 H 0.4800 0.3935 0.2088
C10 C 0.5829(3) 0.4409(3) 0.3716(3)
C11 C 0.3460(3) 0.3385(4) 0.3124(3)
H13 H 0.3781 0.2434 0.3172
H14 H 0.3281 0.3657 0.3867
C12 C 0.2216(3) 0.3498(4) 0.2258(3)
C13 C 0.1860(3) 0.4516(4) 0.1508(3)
C14 C 0.2680(3) 0.5802(4) 0.1433(3)
C15 C 0.0570(4) 0.4111(5) 0.0861(3)
H15 H 0.0056 0.4598 0.0263
C16 C 0.0266(4) 0.2922(5) 0.1285(3)
H16 H -0.0524 0.2433 0.1023
C17 C 0.1783(4) 0.7050(4) 0.1514(4)
H17 H 0.1020 0.7019 0.0903
H18 H 0.2285 0.7885 0.1457
H19 H 0.1478 0.7033 0.2233
C18 C 0.9491(3) 0.5736(4) 0.3408(3)
H20 H 1.0347 0.5698 0.3913
H21 H 0.9301 0.6676 0.3165
H22 H 0.9518 0.5162 0.2753
C19 C 0.8508(4) 0.6061(4) 0.5133(3)
H23 H 0.9409 0.5983 0.5558
H24 H 0.7881 0.5716 0.5585
H25 H 0.8312 0.7017 0.4946
C20 C 0.5449(3) 0.5054(4) 0.4802(3)
H26 H 0.4764 0.4500 0.5050
H27 H 0.5115 0.5978 0.4637
H28 H 0.6231 0.5085 0.5395
C21 C 0.7646(3) 0.8817(3) 0.2842(3)
C22 C 0.8639(4) 0.9455(5) 0.2208(4)
H29 H 0.8839 1.0382 0.2480
H30 H 0.8265 0.9481 0.1407
H31 H 0.9451 0.8914 0.2326
C23 C 0.4768(4) 0.8892(4) 0.1064(3)
C24 C 0.4032(5) 1.0247(4) 0.1020(4)
H32 H 0.4197 1.0773 0.0374
H33 H 0.4346 1.0760 0.1708
H34 H 0.3083 1.0076 0.0950
loop_
_geom_bond_atom_site_label_1
_geom_bond_atom_site_label_2
_geom_bond_site_symmetry_1
_geom_bond_site_symmetry_2
O1 H1 1_555 1_555
O2 H2 1_555 1_555
O3 C6 1_555 1_555
O4 C21 1_555 1_555
O5 C7 1_555 1_555
O6 C23 1_555 1_555
O7 H3 1_555 1_555
O8 C12 1_555 1_555
C1 O1 1_555 1_555
H4 C1 1_555 1_555
C2 C1 1_555 1_555
H5 C2 1_555 1_555
H6 C2 1_555 1_555
C3 C2 1_555 1_555
H7 C3 1_555 1_555
H8 C3 1_555 1_555
C4 C3 1_555 1_555
C5 O2 1_555 1_555
C6 C5 1_555 1_555
H9 C6 1_555 1_555
C7 C6 1_555 1_555
H10 C7 1_555 1_555
C8 C7 1_555 1_555
H11 C8 1_555 1_555
C9 C8 1_555 1_555
H12 C9 1_555 1_555
C10 C1 1_555 1_555
C11 C9 1_555 1_555
H13 C11 1_555 1_555
H14 C11 1_555 1_555
C12 C11 1_555 1_555
C13 C12 1_555 1_555
C14 O7 1_555 1_555
C15 C13 1_555 1_555
H15 C15 1_555 1_555
C16 O8 1_555 1_555
H16 C16 1_555 1_555
C17 C14 1_555 1_555
H17 C17 1_555 1_555
H18 C17 1_555 1_555
H19 C17 1_555 1_555
C18 C4 1_555 1_555
H20 C18 1_555 1_555
H21 C18 1_555 1_555
H22 C18 1_555 1_555
C19 C4 1_555 1_555
H23 C19 1_555 1_555
H24 C19 1_555 1_555
H25 C19 1_555 1_555
C20 C10 1_555 1_555
H26 C20 1_555 1_555
H27 C20 1_555 1_555
H28 C20 1_555 1_555
C21 O3 1_555 1_555
C22 C21 1_555 1_555
H29 C22 1_555 1_555
H30 C22 1_555 1_555
H31 C22 1_555 1_555
C23 O5 1_555 1_555
C24 C23 1_555 1_555
H32 C24 1_555 1_555
H33 C24 1_555 1_555
H34 C24 1_555 1_555
C4 C5 1_555 1_555
C5 C10 1_555 1_555
C8 C14 1_555 1_555
C9 C10 1_555 1_555
C13 C14 1_555 1_555
C15 C16 1_555 1_555

#END
