
#######################################################################
#
#                 Cambridge Crystallographic Data Centre
#                                CCDC 
#
#######################################################################
#
# If this CIF has been generated from an entry in the Cambridge 
# Structural Database, then it will include bibliographic, chemical, 
# crystal, experimental, refinement or atomic coordinate data resulting 
# from the CCDC's data processing and validation procedures.
#
#######################################################################

data_EGENUB
_chemical_formula_moiety         'C12 H12 N2,C7 H8 Cl1 N3 O4 S2'
_chemical_name_systematic        
"6-Chloro-3,4-dihydro-2H-1,2,4-benzothiadiazine-7-sulfonamide 1,1-dioxide 4,4'-ethane-1,2-diyldipyridine"
_symmetry_cell_setting           monoclinic
_symmetry_space_group_name_H-M   'P 21/c'
_symmetry_Int_Tables_number      14
_space_group_name_Hall           '-P 2ybc'
loop_
_symmetry_equiv_pos_site_id
_symmetry_equiv_pos_as_xyz
1 x,y,z
2 -x,1/2+y,1/2-z
3 -x,-y,-z
4 x,1/2-y,1/2+z
_cell_length_a                   10.676(2)
_cell_length_b                   23.734(5)
_cell_length_c                   8.5560(16)
_cell_angle_alpha                90
_cell_angle_beta                 95.786(8)
_cell_angle_gamma                90
_cell_volume                     2156.91
_exptl_crystal_colour            colorless
_exptl_crystal_description       block
_cell_formula_units_Z            4
loop_
_atom_site_label
_atom_site_type_symbol
_atom_site_fract_x
_atom_site_fract_y
_atom_site_fract_z
Cl1 Cl 0.40786(11) 0.31001(6) 0.20119(13)
S1 S -0.00374(12) 0.13784(6) 0.35336(16)
S2 S 0.48883(11) 0.18162(6) 0.30468(14)
O1 O 0.0229(3) 0.08395(14) 0.2906(4)
O2 O -0.0198(3) 0.14172(14) 0.5174(4)
O3 O 0.5708(3) 0.22172(15) 0.3895(3)
O4 O 0.4863(3) 0.12508(14) 0.3614(4)
N1 N -0.1273(3) 0.16255(17) 0.2542(4)
H1 H -0.1426 0.1492 0.1422
N2 N -0.0452(4) 0.25611(17) 0.2334(5)
H2 H -0.0625 0.2901 0.2063
N3 N 0.5266(5) 0.1788(3) 0.1281(6)
C1 C -0.1483(4) 0.2223(2) 0.2793(6)
H3 H -0.2258 0.2338 0.2187
H4 H -0.1577 0.2289 0.3894
C2 C 0.0773(4) 0.2401(2) 0.2587(5)
C3 C 0.1127(4) 0.1858(2) 0.3128(5)
C4 C 0.2377(4) 0.1694(2) 0.3264(5)
H5 H 0.2588 0.1328 0.3574
C5 C 0.3320(4) 0.2066(2) 0.2944(5)
C6 C 0.2961(4) 0.2604(2) 0.2456(5)
C7 C 0.1729(4) 0.2771(2) 0.2268(5)
H6 H 0.1528 0.3134 0.1923
H7 H 0.537(4) 0.2108(19) 0.081(5)
H8 H 0.479(4) 0.156(2) 0.072(5)
N4 N 0.6435(6) -0.0908(2) 0.0282(5)
N5 N 0.8170(4) 0.1175(2) 0.9481(5)
C8 C 0.7635(7) -0.0896(3) 0.0877(7)
H9 H 0.8210 -0.1121 0.0417
C9 C 0.8066(6) -0.0565(3) 0.2151(7)
H10 H 0.8907 -0.0584 0.2555
C10 C 0.7273(6) -0.0212(3) 0.2814(6)
C11 C 0.6033(6) -0.0217(3) 0.2178(6)
H11 H 0.5448 0.0018 0.2582
C12 C 0.5666(6) -0.0574(3) 0.0936(8)
H12 H 0.4822 -0.0576 0.0543
C13 C 0.7375(5) 0.1368(2) 0.8310(7)
H13 H 0.7071 0.1734 0.8382
C14 C 0.6975(5) 0.1058(3) 0.6995(6)
H14 H 0.6430 0.1216 0.6197
C15 C 0.7390(5) 0.0510(3) 0.6872(6)
C16 C 0.8194(5) 0.0301(2) 0.8069(7)
H15 H 0.8488 -0.0067 0.8051
C17 C 0.8557(5) 0.0655(3) 0.9305(7)
H16 H 0.9133 0.0513 1.0095
C18 C 0.6932(5) 0.0133(3) 0.5487(6)
H17 H 0.6927 -0.0255 0.5845
H18 H 0.6072 0.0235 0.5121
C19 C 0.7689(5) 0.0170(3) 0.4189(6)
H19 H 0.8553 0.0078 0.4565
H20 H 0.7676 0.0556 0.3818
loop_
_geom_bond_atom_site_label_1
_geom_bond_atom_site_label_2
_geom_bond_site_symmetry_1
_geom_bond_site_symmetry_2
Cl1 C6 1_555 1_555
S1 O1 1_555 1_555
S2 O3 1_555 1_555
O2 S1 1_555 1_555
O4 S2 1_555 1_555
N1 S1 1_555 1_555
H1 N1 1_555 1_555
N2 H2 1_555 1_555
N3 S2 1_555 1_555
C1 N1 1_555 1_555
H3 C1 1_555 1_555
H4 C1 1_555 1_555
C2 N2 1_555 1_555
C3 S1 1_555 1_555
C4 C3 1_555 1_555
H5 C4 1_555 1_555
C5 S2 1_555 1_555
C6 C5 1_555 1_555
C7 C2 1_555 1_555
H6 C7 1_555 1_555
H7 N3 1_555 1_555
H8 N3 1_555 1_555
N4 C8 1_555 1_555
N5 C13 1_555 1_555
C8 H9 1_555 1_555
C9 C8 1_555 1_555
H10 C9 1_555 1_555
C10 C9 1_555 1_555
C11 C10 1_555 1_555
H11 C11 1_555 1_555
C12 N4 1_555 1_555
H12 C12 1_555 1_555
C13 H13 1_555 1_555
C14 C13 1_555 1_555
H14 C14 1_555 1_555
C15 C14 1_555 1_555
C16 C15 1_555 1_555
H15 C16 1_555 1_555
C17 N5 1_555 1_555
H16 C17 1_555 1_555
C18 C15 1_555 1_555
H17 C18 1_555 1_555
H18 C18 1_555 1_555
C19 C10 1_555 1_555
H19 C19 1_555 1_555
H20 C19 1_555 1_555
N2 C1 1_555 1_555
C2 C3 1_555 1_555
C4 C5 1_555 1_555
C6 C7 1_555 1_555
C11 C12 1_555 1_555
C16 C17 1_555 1_555
C18 C19 1_555 1_555

#END
