
#######################################################################
#
#                 Cambridge Crystallographic Data Centre
#                                CCDC 
#
#######################################################################
#
# If this CIF has been generated from an entry in the Cambridge 
# Structural Database, then it will include bibliographic, chemical, 
# crystal, experimental, refinement or atomic coordinate data resulting 
# from the CCDC's data processing and validation procedures.
#
#######################################################################

data_EGIJOU
_chemical_formula_moiety         'C66 H28 F18 N6,C1 H1 Cl3'
_chemical_name_systematic        
'meso-5,10,15,20,25,30-hexakis(2,4,6-Trifluorophenyl)-(28)hexaphyrin(1.1.1.1.1.1) chloroform solvate'
_symmetry_cell_setting           monoclinic
_symmetry_space_group_name_H-M   'P 21/c'
_symmetry_Int_Tables_number      14
_space_group_name_Hall           '-P 2ybc'
loop_
_symmetry_equiv_pos_site_id
_symmetry_equiv_pos_as_xyz
1 x,y,z
2 -x,1/2+y,1/2-z
3 -x,-y,-z
4 x,1/2-y,1/2+z
_cell_length_a                   12.876(3)
_cell_length_b                   22.920(5)
_cell_length_c                   19.902(4)
_cell_angle_alpha                90
_cell_angle_beta                 96.996(4)
_cell_angle_gamma                90
_cell_volume                     5829.71
_exptl_crystal_colour            violet
_exptl_crystal_description       prism
_cell_formula_units_Z            4
_exptl_crystal_recrystallization_method hexane/chloroform
loop_
_atom_site_label
_atom_site_type_symbol
_atom_site_fract_x
_atom_site_fract_y
_atom_site_fract_z
C1 C 0.9956(3) 0.15217(17) 1.1024(2)
C2 C 0.9535(3) 0.13921(18) 1.1628(2)
H1 H 0.9803 0.1112 1.1956
C3 C 0.8686(3) 0.17338(18) 1.1663(2)
H2 H 0.8263 0.1738 1.2022
C4 C 0.8536(3) 0.20867(18) 1.1069(2)
C5 C 0.7692(3) 0.24420(18) 1.0818(2)
C6 C 0.7620(3) 0.27318(17) 1.0183(2)
C7 C 0.8349(3) 0.28861(18) 0.9748(2)
H3 H 0.9081 0.2815 0.9827
C8 C 0.7834(3) 0.31580(18) 0.9186(2)
H4 H 0.8153 0.3310 0.8817
C9 C 0.6763(3) 0.31741(17) 0.9249(2)
C10 C 0.5854(3) 0.33411(18) 0.8824(2)
C11 C 0.5824(3) 0.36485(18) 0.8209(2)
C12 C 0.4935(3) 0.37646(18) 0.7729(2)
H5 H 0.4236 0.3649 0.7769
C13 C 0.5255(3) 0.40687(18) 0.7206(2)
H6 H 0.4821 0.4198 0.6814
C14 C 0.6360(3) 0.41614(18) 0.7348(2)
C15 C 0.7018(3) 0.44985(18) 0.7013(2)
C16 C 0.8072(3) 0.46186(17) 0.7268(2)
C17 C 0.8690(3) 0.50866(18) 0.7040(2)
H7 H 0.8512 0.5325 0.6652
C18 C 0.9574(3) 0.51204(17) 0.7483(2)
H8 H 1.0119 0.5400 0.7482
C19 C 0.9524(3) 0.46489(17) 0.7960(2)
C20 C 1.0295(3) 0.44974(17) 0.8475(2)
C21 C 1.0415(3) 0.39418(17) 0.8799(2)
C22 C 1.0891(3) 0.38074(18) 0.9445(2)
H9 H 1.1140 0.4082 0.9784
C23 C 1.0940(3) 0.32121(18) 0.9509(2)
H10 H 1.1197 0.3004 0.9907
C24 C 1.0542(3) 0.29618(17) 0.8882(2)
C25 C 1.0662(3) 0.23864(17) 0.8659(2)
C26 C 1.0862(3) 0.19215(16) 0.9122(2)
C27 C 1.1425(3) 0.13968(17) 0.9006(2)
H11 H 1.1685 0.1284 0.8598
C28 C 1.1509(3) 0.10970(18) 0.9596(2)
H12 H 1.1864 0.0737 0.9686
C29 C 1.0962(3) 0.14240(17) 1.0062(2)
C30 C 1.0725(3) 0.12493(17) 1.0703(2)
C31 C 0.6751(3) 0.24509(19) 1.1185(2)
C32 C 0.6668(4) 0.2811(2) 1.1724(3)
C33 C 0.5783(4) 0.2842(3) 1.2060(3)
H13 H 0.5762 0.3085 1.2444
C34 C 0.4953(4) 0.2511(3) 1.1813(3)
C35 C 0.4974(4) 0.2142(2) 1.1273(3)
H14 H 0.4383 0.1912 1.1110
C36 C 0.5870(4) 0.2118(2) 1.0983(3)
C37 C 0.4851(3) 0.31510(19) 0.9073(2)
C38 C 0.4324(3) 0.35011(19) 0.9484(3)
C39 C 0.3611(4) 0.3299(2) 0.9879(3)
H15 H 0.3273 0.3551 1.0163
C40 C 0.3405(4) 0.2713(2) 0.9847(3)
C41 C 0.3833(4) 0.2340(2) 0.9424(3)
H16 H 0.3639 0.1940 0.9390
C42 C 0.4556(3) 0.2570(2) 0.9051(3)
C43 C 0.6601(3) 0.48080(18) 0.6369(2)
C44 C 0.5940(4) 0.5293(2) 0.6348(3)
C45 C 0.5614(4) 0.5612(2) 0.5774(3)
H17 H 0.5170 0.5942 0.5785
C46 C 0.5963(4) 0.5428(2) 0.5189(3)
C47 C 0.6599(3) 0.4957(2) 0.5145(2)
H18 H 0.6825 0.4840 0.4729
C48 C 0.6895(3) 0.46584(19) 0.5748(2)
C49 C 1.1164(3) 0.49138(17) 0.8690(2)
C50 C 1.1063(3) 0.54203(19) 0.9041(2)
C51 C 1.1868(4) 0.58000(19) 0.9244(3)
H19 H 1.1760 0.6145 0.9490
C52 C 1.2830(4) 0.5654(2) 0.9072(3)
C53 C 1.3015(4) 0.5157(2) 0.8743(3)
H20 H 1.3696 0.5062 0.8641
C54 C 1.2188(4) 0.47982(19) 0.8563(3)
C55 C 1.0684(3) 0.22641(18) 0.7933(2)
C56 C 1.1346(4) 0.25356(19) 0.7532(3)
C57 C 1.1362(4) 0.2417(2) 0.6853(3)
H21 H 1.1829 0.2611 0.6593
C58 C 1.0682(5) 0.2012(2) 0.6579(3)
C59 C 0.9973(4) 0.1721(2) 0.6927(3)
H22 H 0.9489 0.1447 0.6711
C60 C 1.0007(4) 0.18480(19) 0.7593(3)
C61 C 1.1216(3) 0.07011(18) 1.1006(2)
C62 C 1.2194(3) 0.06921(19) 1.1379(2)
C63 C 1.2658(4) 0.0177(2) 1.1645(3)
H23 H 1.3339 0.0180 1.1890
C64 C 1.2106(4) -0.03294(19) 1.1542(3)
C65 C 1.1134(4) -0.03575(19) 1.1181(3)
H24 H 1.0774 -0.0717 1.1098
C66 C 1.0704(3) 0.01675(18) 1.0943(2)
F1 F 0.5900(2) 0.17573(12) 1.04489(16)
F2 F 0.4076(2) 0.25350(17) 1.21201(18)
F3 F 0.7490(2) 0.31531(14) 1.19579(16)
F4 F 1.0098(2) 0.55529(12) 0.92024(16)
F5 F 1.2354(2) 0.42968(12) 0.82230(18)
F6 F 1.3633(2) 0.60227(13) 0.92627(19)
F7 F 1.2021(2) 0.29378(11) 0.78364(15)
F8 F 1.0660(3) 0.18849(13) 0.59061(16)
F9 F 0.9337(2) 0.15694(11) 0.79491(14)
F10 F 1.27355(19) 0.11930(11) 1.14673(15)
F11 F 1.2557(2) -0.08267(12) 1.17989(17)
F12 F 0.75432(19) 0.41978(11) 0.57206(13)
F13 F 0.5608(2) 0.54615(12) 0.69388(15)
F14 F 0.5672(2) 0.57382(12) 0.46115(14)
F15 F 0.97249(19) 0.01646(11) 1.06145(14)
F16 F 0.5051(2) 0.22008(12) 0.86818(16)
F17 F 0.2748(2) 0.24916(14) 1.02677(17)
F18 F 0.4585(2) 0.40741(12) 0.95143(16)
N1 N 0.9357(3) 0.19653(14) 1.07137(18)
H25 H 0.9484 0.2145 1.0341
N2 N 0.6675(3) 0.29242(14) 0.98683(18)
H26 H 0.6081 0.2892 1.0042
N3 N 0.6671(3) 0.38878(14) 0.79521(17)
H27 H 0.7321 0.3868 0.8147
N4 N 0.8590(2) 0.43422(14) 0.78192(17)
N5 N 1.0177(2) 0.34172(13) 0.84696(18)
H28 H 0.9843 0.3381 0.8059
N6 N 1.0575(3) 0.19287(14) 0.97596(19)
C67 C 0.6904(8) 0.5354(4) 0.8597(6)
H29 H 0.6893 0.5099 0.8189
Cl1 Cl 0.7662(3) 0.59649(15) 0.8487(2)
Cl2 Cl 0.7458(3) 0.49641(11) 0.93074(12)
Cl3 Cl 0.5638(2) 0.5576(2) 0.86647(18)
C68? C 0.650(2) 0.5447(12) 0.8498(18)
H30? H 0.6449 0.5226 0.8062
Cl4? Cl 0.6182(9) 0.4986(4) 0.9154(5)
Cl5? Cl 0.7828(8) 0.5629(7) 0.8767(7)
Cl6? Cl 0.5809(11) 0.6076(5) 0.8384(5)
loop_
_geom_bond_atom_site_label_1
_geom_bond_atom_site_label_2
_geom_bond_site_symmetry_1
_geom_bond_site_symmetry_2
C1 C2 1_555 1_555
C2 H1 1_555 1_555
C3 C2 1_555 1_555
H2 C3 1_555 1_555
C4 C3 1_555 1_555
C5 C4 1_555 1_555
C6 C5 1_555 1_555
C7 C6 1_555 1_555
H3 C7 1_555 1_555
C8 C7 1_555 1_555
H4 C8 1_555 1_555
C9 C8 1_555 1_555
C10 C9 1_555 1_555
C11 C10 1_555 1_555
C12 C11 1_555 1_555
H5 C12 1_555 1_555
C13 C12 1_555 1_555
H6 C13 1_555 1_555
C14 C13 1_555 1_555
C15 C14 1_555 1_555
C16 C15 1_555 1_555
C17 C16 1_555 1_555
H7 C17 1_555 1_555
C18 C17 1_555 1_555
H8 C18 1_555 1_555
C19 C18 1_555 1_555
C20 C19 1_555 1_555
C21 C20 1_555 1_555
C22 C21 1_555 1_555
H9 C22 1_555 1_555
C23 C22 1_555 1_555
H10 C23 1_555 1_555
C24 C23 1_555 1_555
C25 C24 1_555 1_555
C26 C25 1_555 1_555
C27 C26 1_555 1_555
H11 C27 1_555 1_555
C28 C27 1_555 1_555
H12 C28 1_555 1_555
C29 C28 1_555 1_555
C30 C1 1_555 1_555
C31 C5 1_555 1_555
C32 C31 1_555 1_555
C33 C32 1_555 1_555
H13 C33 1_555 1_555
C34 C33 1_555 1_555
C35 C34 1_555 1_555
H14 C35 1_555 1_555
C36 C31 1_555 1_555
C37 C10 1_555 1_555
C38 C37 1_555 1_555
C39 C38 1_555 1_555
H15 C39 1_555 1_555
C40 C39 1_555 1_555
C41 C40 1_555 1_555
H16 C41 1_555 1_555
C42 C37 1_555 1_555
C43 C15 1_555 1_555
C44 C43 1_555 1_555
C45 C44 1_555 1_555
H17 C45 1_555 1_555
C46 C45 1_555 1_555
C47 C46 1_555 1_555
H18 C47 1_555 1_555
C48 C43 1_555 1_555
C49 C20 1_555 1_555
C50 C49 1_555 1_555
C51 C50 1_555 1_555
H19 C51 1_555 1_555
C52 C51 1_555 1_555
C53 C52 1_555 1_555
H20 C53 1_555 1_555
C54 C49 1_555 1_555
C55 C25 1_555 1_555
C56 C55 1_555 1_555
C57 C56 1_555 1_555
H21 C57 1_555 1_555
C58 C57 1_555 1_555
C59 C58 1_555 1_555
H22 C59 1_555 1_555
C60 C55 1_555 1_555
C61 C30 1_555 1_555
C62 C61 1_555 1_555
C63 C62 1_555 1_555
H23 C63 1_555 1_555
C64 C63 1_555 1_555
C65 C64 1_555 1_555
H24 C65 1_555 1_555
C66 C61 1_555 1_555
F1 C36 1_555 1_555
F2 C34 1_555 1_555
F3 C32 1_555 1_555
F4 C50 1_555 1_555
F5 C54 1_555 1_555
F6 C52 1_555 1_555
F7 C56 1_555 1_555
F8 C58 1_555 1_555
F9 C60 1_555 1_555
F10 C62 1_555 1_555
F11 C64 1_555 1_555
F12 C48 1_555 1_555
F13 C44 1_555 1_555
F14 C46 1_555 1_555
F15 C66 1_555 1_555
F16 C42 1_555 1_555
F17 C40 1_555 1_555
F18 C38 1_555 1_555
N1 C1 1_555 1_555
H25 N1 1_555 1_555
N2 C6 1_555 1_555
H26 N2 1_555 1_555
N3 C11 1_555 1_555
H27 N3 1_555 1_555
N4 C16 1_555 1_555
N5 C21 1_555 1_555
H28 N5 1_555 1_555
N6 C26 1_555 1_555
C67 H29 1_555 1_555
Cl1 C67 1_555 1_555
Cl2 C67 1_555 1_555
Cl3 C67 1_555 1_555
C4 N1 1_555 1_555
C9 N2 1_555 1_555
C14 N3 1_555 1_555
C19 N4 1_555 1_555
C24 N5 1_555 1_555
C29 C30 1_555 1_555
C29 N6 1_555 1_555
C35 C36 1_555 1_555
C41 C42 1_555 1_555
C47 C48 1_555 1_555
C53 C54 1_555 1_555
C59 C60 1_555 1_555
C65 C66 1_555 1_555

#END
