
#######################################################################
#
#                 Cambridge Crystallographic Data Centre
#                                CCDC 
#
#######################################################################
#
# If this CIF has been generated from an entry in the Cambridge 
# Structural Database, then it will include bibliographic, chemical, 
# crystal, experimental, refinement or atomic coordinate data resulting 
# from the CCDC's data processing and validation procedures.
#
#######################################################################

data_EGIQES
_chemical_formula_moiety         'C7 H5 O3 1-,C2 H5 N4 1+'
_chemical_name_systematic        
'5-amino-4H-1,2,4-triazol-1-ium 4-hydroxybenzoate'
_symmetry_cell_setting           monoclinic
_symmetry_space_group_name_H-M   'P 21/n'
_symmetry_Int_Tables_number      14
_space_group_name_Hall           '-P 2yn'
loop_
_symmetry_equiv_pos_site_id
_symmetry_equiv_pos_as_xyz
1 x,y,z
2 1/2-x,1/2+y,1/2-z
3 -x,-y,-z
4 1/2+x,1/2-y,1/2+z
_cell_length_a                   9.2344(18)
_cell_length_b                   11.123(2)
_cell_length_c                   10.486(2)
_cell_angle_alpha                90
_cell_angle_beta                 111.04(3)
_cell_angle_gamma                90
_cell_volume                     1005.25
_cell_formula_units_Z            4
loop_
_atom_site_label
_atom_site_type_symbol
_atom_site_fract_x
_atom_site_fract_y
_atom_site_fract_z
O1 O 1.01183(11) -0.08532(9) 0.71395(10)
O2 O 0.89305(13) -0.12859(10) 0.49518(11)
C1 C 0.90601(16) -0.06596(13) 0.59776(14)
C2 C 0.79524(17) 0.03448(13) 0.58580(14)
O3 O 0.49080(14) 0.31813(11) 0.54883(12)
H1 H 0.5037 0.3479 0.6237
C3 C 0.80499(18) 0.10303(14) 0.69933(15)
H2 H 0.8813 0.0854 0.7833
C4 C 0.59059(17) 0.22422(14) 0.56457(16)
C5 C 0.67962(18) 0.06307(14) 0.46172(16)
H3 H 0.6705 0.0178 0.3846
C6 C 0.57867(19) 0.15658(15) 0.45047(16)
H4 H 0.5025 0.1744 0.3664
C7 C 0.70391(18) 0.19659(14) 0.68999(15)
H5 H 0.7115 0.2410 0.7673
N1 N 0.07916(16) 0.67526(13) 0.50451(14)
N2 N 0.25390(16) 0.54903(12) 0.61181(14)
N3 N 0.19937(18) 0.70664(13) 0.74096(15)
H6 H 0.1444 0.7693 0.7396
H7 H 0.2674 0.6825 0.8167
N4 N 0.08671(18) 0.59452(14) 0.40719(15)
C8 C 0.17946(18) 0.64796(14) 0.62764(15)
C9 C 0.1934(2) 0.52033(17) 0.47660(18)
H8 H 0.2254 0.4546 0.4386
H9 H 0.336(2) 0.5101(17) 0.6773(19)
H10 H 0.014(2) 0.7439(17) 0.484(2)
loop_
_geom_bond_atom_site_label_1
_geom_bond_atom_site_label_2
_geom_bond_site_symmetry_1
_geom_bond_site_symmetry_2
O1 C1 1_555 1_555
O2 C1 1_555 1_555
C1 C2 1_555 1_555
C2 C3 1_555 1_555
O3 H1 1_555 1_555
C3 H2 1_555 1_555
C4 O3 1_555 1_555
C5 C2 1_555 1_555
H3 C5 1_555 1_555
C6 C4 1_555 1_555
H4 C6 1_555 1_555
C7 C3 1_555 1_555
H5 C7 1_555 1_555
N1 N4 1_555 1_555
N2 C8 1_555 1_555
N3 H6 1_555 1_555
H7 N3 1_555 1_555
N4 C9 1_555 1_555
C8 N1 1_555 1_555
C9 N2 1_555 1_555
H8 C9 1_555 1_555
H9 N2 1_555 1_555
H10 N1 1_555 1_555
C4 C7 1_555 1_555
C5 C6 1_555 1_555
N3 C8 1_555 1_555

#END
