
#######################################################################
#
#                 Cambridge Crystallographic Data Centre
#                                CCDC 
#
#######################################################################
#
# If this CIF has been generated from an entry in the Cambridge 
# Structural Database, then it will include bibliographic, chemical, 
# crystal, experimental, refinement or atomic coordinate data resulting 
# from the CCDC's data processing and validation procedures.
#
#######################################################################

data_EGOVUS
_chemical_formula_moiety         'C17 H17 B1 Br1 P1'
_chemical_name_systematic        
((8-bromo-1-naphthylmethyl)phenylphosphine)-borane
_symmetry_cell_setting           orthorhombic
_symmetry_space_group_name_H-M   'P n a 21'
_symmetry_Int_Tables_number      33
_space_group_name_Hall           'P 2c -2n'
loop_
_symmetry_equiv_pos_site_id
_symmetry_equiv_pos_as_xyz
1 x,y,z
2 -x,-y,1/2+z
3 1/2+x,1/2-y,z
4 1/2-x,1/2+y,1/2+z
_cell_length_a                   17.726(3)
_cell_length_b                   5.6695(11)
_cell_length_c                   15.750(3)
_cell_angle_alpha                90
_cell_angle_beta                 90
_cell_angle_gamma                90
_cell_volume                     1582.84
_exptl_crystal_colour            colorless
_exptl_crystal_description       rod
_cell_formula_units_Z            4
_exptl_crystal_recrystallization_method 'ethyl acetate'
loop_
_atom_site_label
_atom_site_type_symbol
_atom_site_fract_x
_atom_site_fract_y
_atom_site_fract_z
C1 C 0.29315(17) 0.3326(5) 0.18102(19)
H1 H 0.2983 0.4760 0.2153
H2 H 0.2680 0.3763 0.1279
C2 C 0.24376(16) 0.1605(5) 0.2282(2)
C3 C 0.24294(18) 0.1860(7) 0.3152(2)
H3 H 0.2700 0.3119 0.3393
C4 C 0.2037(2) 0.0331(7) 0.3698(2)
H4 H 0.2045 0.0578 0.4288
C5 C 0.16500(19) -0.1482(7) 0.3368(2)
H5 H 0.1395 -0.2520 0.3735
C6 C 0.16161(17) -0.1874(5) 0.2475(2)
C7 C 0.11832(19) -0.3751(6) 0.2168(3)
H6 H 0.0926 -0.4729 0.2553
C8 C 0.1127(2) -0.4186(6) 0.1322(3)
H7 H 0.0840 -0.5467 0.1124
C9 C 0.15016(18) -0.2708(6) 0.0747(2)
H8 H 0.1462 -0.2998 0.0161
C10 C 0.19201(18) -0.0868(5) 0.10250(19)
C11 C 0.20103(16) -0.0303(5) 0.19060(19)
C12 C 0.42997(17) 0.1512(5) 0.25754(18)
C13 C 0.41367(19) -0.0573(5) 0.3001(2)
H9 H 0.3821 -0.1701 0.2746
C14 C 0.4438(2) -0.1001(5) 0.3802(2)
H10 H 0.4324 -0.2416 0.4086
C15 C 0.4901(2) 0.0640(7) 0.4181(2)
H11 H 0.5105 0.0350 0.4722
C16 C 0.50661(19) 0.2722(6) 0.3758(2)
H12 H 0.5380 0.3850 0.4016
C17 C 0.47718(17) 0.3150(6) 0.2962(2)
H13 H 0.4891 0.4560 0.2678
B1 B 0.4406(2) 0.4373(7) 0.0849(3)
H14 H 0.4904 0.3752 0.0724
H15 H 0.4455 0.5875 0.1138
H16 H 0.4129 0.4591 0.0324
Br1 Br 0.23440(2) 0.09395(6) 0.01131(3)
P1 P 0.38757(4) 0.22032(12) 0.15612(5)
H17 H 0.3765(18) 0.021(5) 0.133(2)
loop_
_geom_bond_atom_site_label_1
_geom_bond_atom_site_label_2
_geom_bond_site_symmetry_1
_geom_bond_site_symmetry_2
C1 H1 1_555 1_555
H2 C1 1_555 1_555
C2 C1 1_555 1_555
C3 C2 1_555 1_555
H3 C3 1_555 1_555
C4 C3 1_555 1_555
H4 C4 1_555 1_555
C5 C4 1_555 1_555
H5 C5 1_555 1_555
C6 C5 1_555 1_555
C7 C6 1_555 1_555
H6 C7 1_555 1_555
C8 C7 1_555 1_555
H7 C8 1_555 1_555
C9 C8 1_555 1_555
H8 C9 1_555 1_555
C10 C9 1_555 1_555
C11 C2 1_555 1_555
C12 C13 1_555 1_555
C13 H9 1_555 1_555
C14 C13 1_555 1_555
H10 C14 1_555 1_555
C15 C14 1_555 1_555
H11 C15 1_555 1_555
C16 C15 1_555 1_555
H12 C16 1_555 1_555
C17 C12 1_555 1_555
H13 C17 1_555 1_555
B1 H14 1_555 1_555
H15 B1 1_555 1_555
H16 B1 1_555 1_555
Br1 C10 1_555 1_555
P1 C1 1_555 1_555
H17 P1 1_555 1_555
C6 C11 1_555 1_555
C10 C11 1_555 1_555
C12 P1 1_555 1_555
C16 C17 1_555 1_555
B1 P1 1_555 1_555

#END
