
#######################################################################
#
#                 Cambridge Crystallographic Data Centre
#                                CCDC 
#
#######################################################################
#
# If this CIF has been generated from an entry in the Cambridge 
# Structural Database, then it will include bibliographic, chemical, 
# crystal, experimental, refinement or atomic coordinate data resulting 
# from the CCDC's data processing and validation procedures.
#
#######################################################################

data_EGUFUJ
_chemical_formula_moiety         'C30 H48 O4'
_chemical_name_systematic        
12,16-dihydroxy-9,19-cyclolanostane-3,24-dione
_symmetry_cell_setting           orthorhombic
_symmetry_space_group_name_H-M   'P 21 21 21'
_symmetry_Int_Tables_number      19
_space_group_name_Hall           'P 2ac 2ab'
loop_
_symmetry_equiv_pos_site_id
_symmetry_equiv_pos_as_xyz
1 x,y,z
2 1/2-x,-y,1/2+z
3 1/2+x,1/2-y,-z
4 -x,1/2+y,1/2-z
_cell_length_a                   7.6271(4)
_cell_length_b                   11.1676(7)
_cell_length_c                   30.9862(15)
_cell_angle_alpha                90
_cell_angle_beta                 90
_cell_angle_gamma                90
_cell_volume                     2639.29
_exptl_crystal_colour            colorless
_exptl_crystal_description       block
_cell_formula_units_Z            4
loop_
_atom_site_label
_atom_site_type_symbol
_atom_site_fract_x
_atom_site_fract_y
_atom_site_fract_z
O1 O 0.08492(19) -0.82090(15) -0.38980(5)
O2 O -0.00814(16) -0.75958(14) -0.11958(4)
H1 H 0.0921 -0.7355 -0.1125
O3 O -0.68726(16) -0.66174(13) -0.09776(4)
H2 H -0.6884 -0.6432 -0.0715
O4 O -0.73357(17) -0.55091(14) -0.01758(5)
C1 C 0.0872(2) -0.7266(2) -0.28399(6)
H3 H 0.1193 -0.8112 -0.2787
H4 H 0.1556 -0.6760 -0.2639
C2 C 0.1319(2) -0.6929(2) -0.33050(6)
H5 H 0.1143 -0.6058 -0.3346
H6 H 0.2568 -0.7111 -0.3362
C3 C 0.0196(3) -0.76021(19) -0.36190(6)
C4 C -0.1785(2) -0.75037(19) -0.35560(6)
C5 C -0.2162(2) -0.78211(18) -0.30763(6)
H7 H -0.1752 -0.8666 -0.3041
C6 C -0.4099(2) -0.7844(2) -0.29564(6)
H8 H -0.4602 -0.7030 -0.2986
H9 H -0.4740 -0.8386 -0.3154
C7 C -0.4305(2) -0.8274(2) -0.24942(6)
H10 H -0.3662 -0.9037 -0.2456
H11 H -0.5560 -0.8424 -0.2433
C8 C -0.3597(2) -0.73412(19) -0.21782(6)
H12 H -0.4380 -0.6627 -0.2208
C9 C -0.1732(2) -0.69010(18) -0.22957(6)
C10 C -0.1070(2) -0.70922(18) -0.27574(6)
C11 C -0.0336(2) -0.6938(2) -0.19401(6)
H13 H 0.0567 -0.6334 -0.2013
H14 H 0.0238 -0.7732 -0.1953
C12 C -0.0902(2) -0.67215(19) -0.14642(6)
H15 H -0.0466 -0.5914 -0.1375
C13 C -0.2902(2) -0.67374(18) -0.14104(6)
C14 C -0.3726(2) -0.77253(18) -0.17045(6)
C15 C -0.5625(2) -0.77925(19) -0.15368(6)
H16 H -0.6374 -0.7204 -0.1689
H17 H -0.6114 -0.8603 -0.1584
C16 C -0.5541(2) -0.75053(19) -0.10523(6)
H18 H -0.5806 -0.8242 -0.0881
C17 C -0.3636(2) -0.70791(18) -0.09565(6)
H19 H -0.2973 -0.7806 -0.0862
C18 C -0.3565(2) -0.54847(17) -0.15348(6)
H20 H -0.4850 -0.5486 -0.1543
H21 H -0.3109 -0.5269 -0.1820
H22 H -0.3160 -0.4900 -0.1321
C19 C -0.1655(3) -0.58673(18) -0.26119(6)
H23 H -0.2778 -0.5558 -0.2727
H24 H -0.0740 -0.5251 -0.2566
C20 C -0.3523(2) -0.61823(18) -0.05802(6)
H25 H -0.4314 -0.5491 -0.0645
C21 C -0.1665(2) -0.5699(2) -0.05031(6)
H26 H -0.0850 -0.6371 -0.0469
H27 H -0.1654 -0.5209 -0.0241
H28 H -0.1305 -0.5209 -0.0750
C22 C -0.4173(2) -0.67959(19) -0.01658(6)
H29 H -0.5203 -0.7297 -0.0238
H30 H -0.3239 -0.7336 -0.0059
C23 C -0.4679(2) -0.5941(2) 0.01943(6)
H31 H -0.4810 -0.6404 0.0465
H32 H -0.3709 -0.5363 0.0237
C24 C -0.6334(3) -0.52559(19) 0.01163(7)
C25 C -0.6711(3) -0.4208(2) 0.04067(7)
H33 H -0.6066 -0.4325 0.0685
C26 C -0.5985(3) -0.3099(2) 0.01819(8)
H34 H -0.4729 -0.3208 0.0127
H35 H -0.6159 -0.2397 0.0367
H36 H -0.6599 -0.2980 -0.0092
C27 C -0.8657(3) -0.4076(2) 0.05052(8)
H37 H -0.9308 -0.3979 0.0235
H38 H -0.8840 -0.3372 0.0688
H39 H -0.9074 -0.4793 0.0656
C28 C -0.2699(3) -0.8389(2) -0.38587(7)
H40 H -0.2425 -0.9209 -0.3769
H41 H -0.2288 -0.8260 -0.4155
H42 H -0.3970 -0.8263 -0.3846
C29 C -0.2353(3) -0.6224(2) -0.36747(7)
H43 H -0.3619 -0.6140 -0.3630
H44 H -0.2075 -0.6069 -0.3978
H45 H -0.1729 -0.5650 -0.3492
C30 C -0.2879(3) -0.89645(18) -0.16355(7)
H46 H -0.3615 -0.9582 -0.1768
H47 H -0.2771 -0.9123 -0.1326
H48 H -0.1714 -0.8976 -0.1769
loop_
_geom_bond_atom_site_label_1
_geom_bond_atom_site_label_2
_geom_bond_site_symmetry_1
_geom_bond_site_symmetry_2
O1 C3 1_555 1_555
O2 H1 1_555 1_555
O3 H2 1_555 1_555
O4 C24 1_555 1_555
C1 H3 1_555 1_555
H4 C1 1_555 1_555
C2 C1 1_555 1_555
H5 C2 1_555 1_555
H6 C2 1_555 1_555
C3 C2 1_555 1_555
C4 C3 1_555 1_555
C5 C4 1_555 1_555
H7 C5 1_555 1_555
C6 C5 1_555 1_555
H8 C6 1_555 1_555
H9 C6 1_555 1_555
C7 C6 1_555 1_555
H10 C7 1_555 1_555
H11 C7 1_555 1_555
C8 C7 1_555 1_555
H12 C8 1_555 1_555
C9 C8 1_555 1_555
C10 C1 1_555 1_555
C11 C9 1_555 1_555
H13 C11 1_555 1_555
H14 C11 1_555 1_555
C12 O2 1_555 1_555
H15 C12 1_555 1_555
C13 C12 1_555 1_555
C14 C8 1_555 1_555
C15 C14 1_555 1_555
H16 C15 1_555 1_555
H17 C15 1_555 1_555
C16 O3 1_555 1_555
H18 C16 1_555 1_555
C17 C13 1_555 1_555
H19 C17 1_555 1_555
C18 C13 1_555 1_555
H20 C18 1_555 1_555
H21 C18 1_555 1_555
H22 C18 1_555 1_555
C19 C9 1_555 1_555
H23 C19 1_555 1_555
H24 C19 1_555 1_555
C20 C17 1_555 1_555
H25 C20 1_555 1_555
C21 C20 1_555 1_555
H26 C21 1_555 1_555
H27 C21 1_555 1_555
H28 C21 1_555 1_555
C22 C20 1_555 1_555
H29 C22 1_555 1_555
H30 C22 1_555 1_555
C23 C22 1_555 1_555
H31 C23 1_555 1_555
H32 C23 1_555 1_555
C24 C23 1_555 1_555
C25 C24 1_555 1_555
H33 C25 1_555 1_555
C26 C25 1_555 1_555
H34 C26 1_555 1_555
H35 C26 1_555 1_555
H36 C26 1_555 1_555
C27 C25 1_555 1_555
H37 C27 1_555 1_555
H38 C27 1_555 1_555
H39 C27 1_555 1_555
C28 C4 1_555 1_555
H40 C28 1_555 1_555
H41 C28 1_555 1_555
H42 C28 1_555 1_555
C29 C4 1_555 1_555
H43 C29 1_555 1_555
H44 C29 1_555 1_555
H45 C29 1_555 1_555
C30 C14 1_555 1_555
H46 C30 1_555 1_555
H47 C30 1_555 1_555
H48 C30 1_555 1_555
C5 C10 1_555 1_555
C9 C10 1_555 1_555
C10 C19 1_555 1_555
C11 C12 1_555 1_555
C13 C14 1_555 1_555
C15 C16 1_555 1_555
C16 C17 1_555 1_555

#END
