
#######################################################################
#
#                 Cambridge Crystallographic Data Centre
#                                CCDC 
#
#######################################################################
#
# If this CIF has been generated from an entry in the Cambridge 
# Structural Database, then it will include bibliographic, chemical, 
# crystal, experimental, refinement or atomic coordinate data resulting 
# from the CCDC's data processing and validation procedures.
#
#######################################################################

data_EGUPIF
_chemical_name_common            
(1R,1'R)-1-(1'-Hydroxy-3'-(p-bromobenzoyloxy)propyl)-2,3,5,6-tetra-O-(t-butyl-dimethylsilyl)galactofuranoside
_chemical_formula_moiety         'C40 H77 Br1 O8 Si4'
_chemical_name_systematic        
'4-Bromobenzoic acid 3-(5-(1,2-bis(t-butyl-dimethylsiloxy)ethyl)-3,4-bis(t-butyl-dimethylsiloxy)-tetrahydrofuran-2-yl)-3-hydroxypropyl ester'
_symmetry_cell_setting           monoclinic
_symmetry_space_group_name_H-M   'P 21'
_symmetry_Int_Tables_number      4
_space_group_name_Hall           'P 2yb'
loop_
_symmetry_equiv_pos_site_id
_symmetry_equiv_pos_as_xyz
1 x,y,z
2 -x,1/2+y,-z
_cell_length_a                   10.94050(10)
_cell_length_b                   20.6035(2)
_cell_length_c                   12.30210(10)
_cell_angle_alpha                90
_cell_angle_beta                 114.1240(5)
_cell_angle_gamma                90
_cell_volume                     2530.86
_cell_formula_units_Z            2
loop_
_atom_site_label
_atom_site_type_symbol
_atom_site_fract_x
_atom_site_fract_y
_atom_site_fract_z
Br1 Br -0.58744(7) 0.75157(5) -0.35421(7)
Si1 Si -0.19430(14) 0.77553(7) 0.43538(12)
Si2 Si 0.1744(3) 0.9376(2) 0.8034(2)
Si3 Si -0.1036(2) 1.04307(8) 0.17964(13)
Si4 Si -0.3209(2) 1.03328(7) 0.58844(14)
O1 O -0.0099(4) 0.7065(2) 0.1489(4)
O2 O 0.0367(3) 0.7984(2) 0.0750(3)
O3 O 0.1456(4) 0.7625(2) 0.3904(3)
H1 H 0.1400(4) 0.7357(2) 0.3392(3)
O4 O 0.0695(3) 0.9329(2) 0.3893(3)
O5 O -0.1031(3) 0.83686(15) 0.4231(3)
O6 O 0.1506(4) 0.9248(2) 0.6664(3)
O7 O -0.2208(4) 1.0041(2) 0.5292(4)
O8 O -0.0811(3) 1.0464(2) 0.3187(3)
C1 C -0.4210(5) 0.7501(3) -0.2199(4)
C2 C -0.3780(7) 0.6970(3) -0.1521(6)
H2 H -0.4318(7) 0.6602(3) -0.1694(6)
C3 C -0.2537(7) 0.6964(3) -0.0561(6)
H3 H -0.2241(7) 0.6590(3) -0.0103(6)
C4 C -0.1738(5) 0.7516(3) -0.0288(4)
C5 C -0.2201(6) 0.8057(3) -0.0980(5)
H4 H -0.1670(6) 0.8427(3) -0.0808(5)
C6 C -0.3440(6) 0.8064(3) -0.1928(5)
H5 H -0.3755(6) 0.8439(3) -0.2377(5)
C7 C -0.0415(5) 0.7483(3) 0.0747(4)
C8 C 0.1726(5) 0.7999(3) 0.1680(5)
H6 H 0.2344(5) 0.8138(3) 0.1343(5)
H7 H 0.1984(5) 0.7567(3) 0.2005(5)
C9 C 0.1801(5) 0.8464(3) 0.2668(5)
H8 H 0.2731(5) 0.8516(3) 0.3217(5)
H9 H 0.1469(5) 0.8885(3) 0.2322(5)
C10 C 0.1002(4) 0.8237(2) 0.3361(4)
H10 H 0.0055(4) 0.8203(2) 0.2816(4)
C11 C 0.1140(4) 0.8698(2) 0.4365(4)
H11 H 0.2083(4) 0.8721(2) 0.4926(4)
C12 C 0.0281(4) 0.8530(2) 0.5050(4)
H12 H 0.0685(4) 0.8184(2) 0.5634(4)
C13 C 0.0295(5) 0.9181(2) 0.5646(4)
H13 H -0.0485(5) 0.9229(2) 0.5840(4)
C14 C 0.0276(4) 0.9683(2) 0.4700(4)
H14 H 0.0943(4) 1.0020(2) 0.5098(4)
C15 C -0.1020(9) 0.6969(3) 0.4505(9)
H15 H -0.0823(9) 0.6906(3) 0.3820(9)
H16 H -0.1565(9) 0.6617(3) 0.4563(9)
H17 H -0.0199(9) 0.6981(3) 0.5209(9)
C16 C -0.2318(10) 0.7873(5) 0.5675(7)
H18 H -0.2791(10) 0.8274(5) 0.5601(7)
H19 H -0.1497(10) 0.7884(5) 0.6379(7)
H20 H -0.2863(10) 0.7520(5) 0.5732(7)
C17 C -0.3499(5) 0.7780(3) 0.2910(5)
C18 C -0.4203(8) 0.8428(4) 0.2804(10)
H21 H -0.3608(8) 0.8774(4) 0.2819(10)
H22 H -0.4461(8) 0.8478(4) 0.3458(10)
H23 H -0.4987(8) 0.8443(4) 0.2067(10)
C19 C -0.3111(8) 0.7714(5) 0.1849(6)
H24 H -0.2664(8) 0.7306(5) 0.1900(6)
H25 H -0.2522(8) 0.8062(5) 0.1864(6)
H26 H -0.3903(8) 0.7730(5) 0.1120(6)
C20 C -0.4443(9) 0.7231(5) 0.2885(11)
H27 H -0.3998(9) 0.6822(5) 0.2953(11)
H28 H -0.5227(9) 0.7245(5) 0.2149(11)
H29 H -0.4701(9) 0.7280(5) 0.3539(11)
C21 C 0.0572(12) 0.8919(8) 0.8459(8)
H30 H -0.0229(12) 0.8830(8) 0.7762(8)
H31 H 0.0351(12) 0.9170(8) 0.9011(8)
H32 H 0.0978(12) 0.8518(8) 0.8826(8)
C22 C 0.1033(17) 1.0383(6) 0.8021(12)
H33 H 0.0096(17) 1.0408(6) 0.7512(12)
H34 H 0.1523(17) 1.0670(6) 0.7731(12)
H35 H 0.1173(17) 1.0507(6) 0.8815(12)
C23 C 0.3132(21) 0.9612(18) 0.8892(10)
C24 C 0.3986(22) 0.9972(17) 0.8410(13)
H36 H 0.3766(22) 0.9838(17) 0.7604(13)
H37 H 0.4912(22) 0.9880(17) 0.8889(13)
H38 H 0.3829(22) 1.0430(17) 0.8427(13)
C25 C 0.3694(16) 0.8671(9) 0.8874(14)
H39 H 0.3223(16) 0.8401(9) 0.9211(14)
H40 H 0.4641(16) 0.8626(9) 0.9330(14)
H41 H 0.3474(16) 0.8541(9) 0.8066(14)
C26 C 0.3431(14) 0.9800(9) 1.0180(7)
H42 H 0.2859(14) 0.9557(9) 1.0450(7)
H43 H 0.3271(14) 1.0255(9) 1.0219(7)
H44 H 0.4350(14) 0.9704(9) 1.0678(7)
C27 C -0.1043(5) 1.0008(2) 0.3975(4)
H45 H -0.1712(5) 0.9685(2) 0.3515(4)
C28 C -0.1579(5) 1.0426(2) 0.4706(5)
H46 H -0.0847(5) 1.0668(2) 0.5295(5)
H47 H -0.2221(5) 1.0735(2) 0.4186(5)
C29 C -0.1916(10) 0.9682(4) 0.1082(6)
H48 H -0.1413(10) 0.9312(4) 0.1508(6)
H49 H -0.2006(10) 0.9667(4) 0.0273(6)
H50 H -0.2788(10) 0.9676(4) 0.1094(6)
C30 C 0.0687(9) 1.0429(7) 0.1742(10)
H51 H 0.1163(9) 1.0816(7) 0.2111(10)
H52 H 0.0579(9) 1.0413(7) 0.0928(10)
H53 H 0.1184(9) 1.0056(7) 0.2160(10)
C31 C -0.1901(8) 1.1189(4) 0.1061(6)
C32 C -0.2074(14) 1.1200(6) -0.0238(8)
H54 H -0.2637(14) 1.0845(6) -0.0661(8)
H55 H -0.1214(14) 1.1158(6) -0.0268(8)
H56 H -0.2479(14) 1.1602(6) -0.0600(8)
C33 C -0.3284(10) 1.1166(7) 0.1146(11)
H57 H -0.3147(10) 1.1159(7) 0.1968(11)
H58 H -0.3758(10) 1.0782(7) 0.0757(11)
H59 H -0.3798(10) 1.1542(7) 0.0766(11)
C34 C -0.0987(18) 1.1770(5) 0.1680(11)
H60 H -0.0848(18) 1.1784(5) 0.2502(11)
H61 H -0.1405(18) 1.2166(5) 0.1295(11)
H62 H -0.0141(18) 1.1722(5) 0.1626(11)
C35 C -0.2936(9) 0.9813(4) 0.7182(7)
H63 H -0.3168(9) 0.9373(4) 0.6922(7)
H64 H -0.3487(9) 0.9961(4) 0.7571(7)
H65 H -0.2011(9) 0.9833(4) 0.7729(7)
C36 C -0.2772(7) 1.1172(3) 0.6364(6)
H66 H -0.2917(7) 1.1440(3) 0.5683(6)
H67 H -0.1847(7) 1.1195(3) 0.6910(6)
H68 H -0.3323(7) 1.1324(3) 0.6751(6)
C37 C -0.5003(7) 1.0282(4) 0.4765(7)
C38 C -0.5491(13) 0.9577(6) 0.4752(16)
H69 H -0.5431(13) 0.9466(6) 0.5530(16)
H70 H -0.4941(13) 0.9288(6) 0.4535(16)
H71 H -0.6404(13) 0.9541(6) 0.4185(16)
C39 C -0.5105(10) 1.0441(10) 0.3563(8)
H72 H -0.4518(10) 1.0163(10) 0.3369(8)
H73 H -0.4854(10) 1.0885(10) 0.3542(8)
H74 H -0.6011(10) 1.0377(10) 0.2994(8)
C40 C -0.5890(9) 1.0691(7) 0.5168(12)
H75 H -0.5770(9) 1.0561(7) 0.5955(12)
H76 H -0.6809(9) 1.0631(7) 0.4629(12)
H77 H -0.5653(9) 1.1140(7) 0.5177(12)
loop_
_geom_bond_atom_site_label_1
_geom_bond_atom_site_label_2
_geom_bond_site_symmetry_1
_geom_bond_site_symmetry_2
Br1 C1 1_555 1_555
Si1 O5 1_555 1_555
Si2 O6 1_555 1_555
Si3 O8 1_555 1_555
Si4 O7 1_555 1_555
O1 C7 1_555 1_555
O2 C7 1_555 1_555
O3 H1 1_555 1_555
O4 C11 1_555 1_555
O5 C12 1_555 1_555
O6 C13 1_555 1_555
O7 C28 1_555 1_555
O8 C27 1_555 1_555
C1 C2 1_555 1_555
C2 H2 1_555 1_555
C3 C2 1_555 1_555
H3 C3 1_555 1_555
C4 C3 1_555 1_555
C5 C4 1_555 1_555
H4 C5 1_555 1_555
C6 C1 1_555 1_555
H5 C6 1_555 1_555
C7 C4 1_555 1_555
C8 O2 1_555 1_555
H6 C8 1_555 1_555
H7 C8 1_555 1_555
C9 C8 1_555 1_555
H8 C9 1_555 1_555
H9 C9 1_555 1_555
C10 O3 1_555 1_555
H10 C10 1_555 1_555
C11 C10 1_555 1_555
H11 C11 1_555 1_555
C12 C11 1_555 1_555
H12 C12 1_555 1_555
C13 C12 1_555 1_555
H13 C13 1_555 1_555
C14 O4 1_555 1_555
H14 C14 1_555 1_555
C15 Si1 1_555 1_555
H15 C15 1_555 1_555
H16 C15 1_555 1_555
H17 C15 1_555 1_555
C16 Si1 1_555 1_555
H18 C16 1_555 1_555
H19 C16 1_555 1_555
H20 C16 1_555 1_555
C17 Si1 1_555 1_555
C18 C17 1_555 1_555
H21 C18 1_555 1_555
H22 C18 1_555 1_555
H23 C18 1_555 1_555
C19 C17 1_555 1_555
H24 C19 1_555 1_555
H25 C19 1_555 1_555
H26 C19 1_555 1_555
C20 C17 1_555 1_555
H27 C20 1_555 1_555
H28 C20 1_555 1_555
H29 C20 1_555 1_555
C21 Si2 1_555 1_555
H30 C21 1_555 1_555
H31 C21 1_555 1_555
H32 C21 1_555 1_555
C22 Si2 1_555 1_555
H33 C22 1_555 1_555
H34 C22 1_555 1_555
H35 C22 1_555 1_555
C23 Si2 1_555 1_555
C24 C23 1_555 1_555
H36 C24 1_555 1_555
H37 C24 1_555 1_555
H38 C24 1_555 1_555
C25 C23 1_555 1_555
H39 C25 1_555 1_555
H40 C25 1_555 1_555
H41 C25 1_555 1_555
C26 C23 1_555 1_555
H42 C26 1_555 1_555
H43 C26 1_555 1_555
H44 C26 1_555 1_555
C27 C14 1_555 1_555
H45 C27 1_555 1_555
C28 C27 1_555 1_555
H46 C28 1_555 1_555
H47 C28 1_555 1_555
C29 Si3 1_555 1_555
H48 C29 1_555 1_555
H49 C29 1_555 1_555
H50 C29 1_555 1_555
C30 Si3 1_555 1_555
H51 C30 1_555 1_555
H52 C30 1_555 1_555
H53 C30 1_555 1_555
C31 Si3 1_555 1_555
C32 C31 1_555 1_555
H54 C32 1_555 1_555
H55 C32 1_555 1_555
H56 C32 1_555 1_555
C33 C31 1_555 1_555
H57 C33 1_555 1_555
H58 C33 1_555 1_555
H59 C33 1_555 1_555
C34 C31 1_555 1_555
H60 C34 1_555 1_555
H61 C34 1_555 1_555
H62 C34 1_555 1_555
C35 Si4 1_555 1_555
H63 C35 1_555 1_555
H64 C35 1_555 1_555
H65 C35 1_555 1_555
C36 Si4 1_555 1_555
H66 C36 1_555 1_555
H67 C36 1_555 1_555
H68 C36 1_555 1_555
C37 Si4 1_555 1_555
C38 C37 1_555 1_555
H69 C38 1_555 1_555
H70 C38 1_555 1_555
H71 C38 1_555 1_555
C39 C37 1_555 1_555
H72 C39 1_555 1_555
H73 C39 1_555 1_555
H74 C39 1_555 1_555
C40 C37 1_555 1_555
H75 C40 1_555 1_555
H76 C40 1_555 1_555
H77 C40 1_555 1_555
C5 C6 1_555 1_555
C9 C10 1_555 1_555
C13 C14 1_555 1_555

#END
