
#######################################################################
#
#                 Cambridge Crystallographic Data Centre
#                                CCDC 
#
#######################################################################
#
# If this CIF has been generated from an entry in the Cambridge 
# Structural Database, then it will include bibliographic, chemical, 
# crystal, experimental, refinement or atomic coordinate data resulting 
# from the CCDC's data processing and validation procedures.
#
#######################################################################

data_EHANIK
_chemical_formula_moiety         'C54 H84 N2 Si4'
_chemical_name_systematic        
3,10-Dicyano-4,9-bis(triisopropylsilylethynyl)-1,12-bis(triisopropylsilyl)dodeca-3,9-dien-1,5,7,11-tetrayne
_symmetry_cell_setting           monoclinic
_symmetry_space_group_name_H-M   'P 21/n'
_symmetry_Int_Tables_number      14
_space_group_name_Hall           '-P 2yn'
loop_
_symmetry_equiv_pos_site_id
_symmetry_equiv_pos_as_xyz
1 x,y,z
2 1/2+x,1/2-y,1/2+z
3 -x,-y,-z
4 1/2-x,1/2+y,1/2-z
_cell_length_a                   13.320(4)
_cell_length_b                   7.766(2)
_cell_length_c                   28.722(5)
_cell_angle_alpha                90
_cell_angle_beta                 101.30(2)
_cell_angle_gamma                90
_cell_volume                     2913.5
_exptl_crystal_colour            yellowish
_cell_formula_units_Z            2
loop_
_atom_site_label
_atom_site_type_symbol
_atom_site_fract_x
_atom_site_fract_y
_atom_site_fract_z
Si1 Si 0.23489(7) 0.33267(11) 0.13810(3)
Si2 Si -0.27922(7) -0.55414(12) 0.11364(4)
C1 C -0.0100(2) -0.0330(4) 0.02070(12)
C2 C -0.0275(2) -0.0898(4) 0.05716(12)
C3 C -0.0479(2) -0.1496(4) 0.10084(11)
C4 C 0.0045(2) -0.0820(4) 0.14238(11)
C5 C -0.0183(3) -0.1408(5) 0.18632(14)
N1 N -0.0357(3) -0.1856(6) 0.22177(13)
C6 C 0.0800(3) 0.0489(4) 0.14408(11)
C7 C 0.1428(3) 0.1589(4) 0.14351(11)
C8 C 0.2820(3) 0.4211(5) 0.19874(13)
H1 H 0.3146 0.3247 0.2180
C9 C 0.1967(4) 0.4824(8) 0.22251(18)
H2 H 0.1469 0.3924 0.2216
H3 H 0.1646 0.5818 0.2061
H4 H 0.2244 0.5119 0.2549
C10 C 0.3650(4) 0.5581(7) 0.20040(19)
H5 H 0.4183 0.5144 0.1855
H6 H 0.3931 0.5868 0.2329
H7 H 0.3357 0.6593 0.1839
C11 C 0.3395(3) 0.2292(5) 0.11369(15)
H8 H 0.3878 0.3202 0.1094
C12 C 0.3982(4) 0.0989(7) 0.1488(2)
H9 H 0.4222 0.1542 0.1788
H10 H 0.4555 0.0554 0.1367
H11 H 0.3536 0.0053 0.1530
C13 C 0.3014(5) 0.1457(8) 0.06483(19)
H12 H 0.2657 0.2300 0.0433
H13 H 0.2559 0.0524 0.0680
H14 H 0.3588 0.1026 0.0527
C14 C 0.1597(4) 0.5038(6) 0.09893(16)
H15 H 0.1236 0.5698 0.1196
C15 C 0.2310(6) 0.6309(8) 0.0816(3)
H16 H 0.2811 0.6708 0.1081
H17 H 0.1920 0.7270 0.0667
H18 H 0.2648 0.5752 0.0591
C16 C 0.0795(5) 0.4392(8) 0.0597(2)
H19 H 0.0361 0.3599 0.0721
H20 H 0.1110 0.3817 0.0367
H21 H 0.0394 0.5342 0.0449
C17 C -0.1230(2) -0.2809(4) 0.10084(11)
C18 C -0.1852(3) -0.3909(5) 0.10365(12)
C19 C -0.3127(3) -0.6839(6) 0.05720(18)
H22 H -0.3322 -0.6001 0.0315
C20 C -0.2245(5) -0.7820(9) 0.0458(2)
H23 H -0.1671 -0.7061 0.0471
H24 H -0.2432 -0.8299 0.0145
H25 H -0.2063 -0.8732 0.0684
C21 C -0.4055(5) -0.8020(9) 0.0551(3)
H26 H -0.4619 -0.7366 0.0620
H27 H -0.3886 -0.8925 0.0781
H28 H -0.4241 -0.8511 0.0240
C22 C -0.3943(4) -0.4316(6) 0.1225(2)
H29 H -0.4445 -0.5162 0.1288
C23 C -0.4437(5) -0.3328(11) 0.0790(3)
H30 H -0.4598 -0.4101 0.0525
H31 H -0.3975 -0.2457 0.0722
H32 H -0.5054 -0.2797 0.0844
C24 C -0.3707(6) -0.3128(9) 0.1656(3)
H33 H -0.3405 -0.3785 0.1931
H34 H -0.4330 -0.2607 0.1707
H35 H -0.3239 -0.2247 0.1601
C25 C -0.2187(5) -0.6803(10) 0.1667(2)
H36 H -0.1949 -0.7718 0.1480
C26 C -0.1240(6) -0.6506(12) 0.1933(4)
H37 H -0.0859 -0.5783 0.1759
H38 H -0.0888 -0.7581 0.2005
H39 H -0.1305 -0.5944 0.2224
C27 C -0.2914(6) -0.7968(11) 0.1861(2)
H40 H -0.3541 -0.8072 0.1632
H41 H -0.3055 -0.7487 0.2150
H42 H -0.2609 -0.9084 0.1925
C1B C 0.0100(2) 0.0330(4) -0.02070(12)
C2B C 0.0275(2) 0.0898(4) -0.05716(12)
C3B C 0.0479(2) 0.1496(4) -0.10084(11)
C4B C -0.0045(2) 0.0820(4) -0.14238(11)
C5B C 0.0183(3) 0.1408(5) -0.18632(14)
N1B N 0.0357(3) 0.1856(6) -0.22177(13)
C6B C -0.0800(3) -0.0489(4) -0.14408(11)
C7B C -0.1428(3) -0.1589(4) -0.14351(11)
Si1B Si -0.23489(7) -0.33267(11) -0.13810(3)
C8B C -0.2820(3) -0.4211(5) -0.19874(13)
H1B H -0.3146 -0.3247 -0.2180
C9B C -0.1967(4) -0.4824(8) -0.22251(18)
H2B H -0.1469 -0.3924 -0.2216
H3B H -0.1646 -0.5818 -0.2061
H4B H -0.2244 -0.5119 -0.2549
C10B C -0.3650(4) -0.5581(7) -0.20040(19)
H5B H -0.4183 -0.5144 -0.1855
H6B H -0.3931 -0.5868 -0.2329
H7B H -0.3357 -0.6593 -0.1839
C11B C -0.3395(3) -0.2292(5) -0.11369(15)
H8B H -0.3878 -0.3202 -0.1094
C12B C -0.3982(4) -0.0989(7) -0.1488(2)
H9B H -0.4222 -0.1542 -0.1788
H10B H -0.4555 -0.0554 -0.1367
H11B H -0.3536 -0.0053 -0.1530
C13B C -0.3014(5) -0.1457(8) -0.06483(19)
H12B H -0.2657 -0.2300 -0.0433
H13B H -0.2559 -0.0524 -0.0680
H14B H -0.3588 -0.1026 -0.0527
C14B C -0.1597(4) -0.5038(6) -0.09893(16)
H15B H -0.1236 -0.5698 -0.1196
C15B C -0.2310(6) -0.6309(8) -0.0816(3)
H16B H -0.2811 -0.6708 -0.1081
H17B H -0.1920 -0.7270 -0.0667
H18B H -0.2648 -0.5752 -0.0591
C16B C -0.0795(5) -0.4392(8) -0.0597(2)
H19B H -0.0361 -0.3599 -0.0721
H20B H -0.1110 -0.3817 -0.0367
H21B H -0.0394 -0.5342 -0.0449
C17B C 0.1230(2) 0.2809(4) -0.10084(11)
C18B C 0.1852(3) 0.3909(5) -0.10365(12)
Si2B Si 0.27922(7) 0.55414(12) -0.11364(4)
C19B C 0.3127(3) 0.6839(6) -0.05720(18)
H22B H 0.3322 0.6001 -0.0315
C20B C 0.2245(5) 0.7820(9) -0.0458(2)
H23B H 0.1671 0.7061 -0.0471
H24B H 0.2432 0.8299 -0.0145
H25B H 0.2063 0.8732 -0.0684
C21B C 0.4055(5) 0.8020(9) -0.0551(3)
H26B H 0.4619 0.7366 -0.0620
H27B H 0.3886 0.8925 -0.0781
H28B H 0.4241 0.8511 -0.0240
C22B C 0.3943(4) 0.4316(6) -0.1225(2)
H29B H 0.4445 0.5162 -0.1288
C23B C 0.4437(5) 0.3328(11) -0.0790(3)
H30B H 0.4598 0.4101 -0.0525
H31B H 0.3975 0.2457 -0.0722
H32B H 0.5054 0.2797 -0.0844
C24B C 0.3707(6) 0.3128(9) -0.1656(3)
H33B H 0.3405 0.3785 -0.1931
H34B H 0.4330 0.2607 -0.1707
H35B H 0.3239 0.2247 -0.1601
C25B C 0.2187(5) 0.6803(10) -0.1667(2)
H36B H 0.1949 0.7718 -0.1480
C26B C 0.1240(6) 0.6506(12) -0.1933(4)
H37B H 0.0859 0.5783 -0.1759
H38B H 0.0888 0.7581 -0.2005
H39B H 0.1305 0.5944 -0.2224
C27B C 0.2914(6) 0.7968(11) -0.1861(2)
H40B H 0.3541 0.8072 -0.1632
H41B H 0.3055 0.7487 -0.2150
H42B H 0.2609 0.9084 -0.1925
loop_
_geom_bond_atom_site_label_1
_geom_bond_atom_site_label_2
_geom_bond_site_symmetry_1
_geom_bond_site_symmetry_2
Si1 C7 1_555 1_555
Si2 C18 1_555 1_555
C1 C2 1_555 1_555
C2 C3 1_555 1_555
C3 C4 1_555 1_555
C4 C5 1_555 1_555
C5 N1 1_555 1_555
C6 C4 1_555 1_555
C7 C6 1_555 1_555
C8 Si1 1_555 1_555
H1 C8 1_555 1_555
C9 C8 1_555 1_555
H2 C9 1_555 1_555
H3 C9 1_555 1_555
H4 C9 1_555 1_555
C10 C8 1_555 1_555
H5 C10 1_555 1_555
H6 C10 1_555 1_555
H7 C10 1_555 1_555
C11 Si1 1_555 1_555
H8 C11 1_555 1_555
C12 C11 1_555 1_555
H9 C12 1_555 1_555
H10 C12 1_555 1_555
H11 C12 1_555 1_555
C13 C11 1_555 1_555
H12 C13 1_555 1_555
H13 C13 1_555 1_555
H14 C13 1_555 1_555
C14 Si1 1_555 1_555
H15 C14 1_555 1_555
C15 C14 1_555 1_555
H16 C15 1_555 1_555
H17 C15 1_555 1_555
H18 C15 1_555 1_555
C16 C14 1_555 1_555
H19 C16 1_555 1_555
H20 C16 1_555 1_555
H21 C16 1_555 1_555
C17 C3 1_555 1_555
C18 C17 1_555 1_555
C19 Si2 1_555 1_555
H22 C19 1_555 1_555
C20 C19 1_555 1_555
H23 C20 1_555 1_555
H24 C20 1_555 1_555
H25 C20 1_555 1_555
C21 C19 1_555 1_555
H26 C21 1_555 1_555
H27 C21 1_555 1_555
H28 C21 1_555 1_555
C22 Si2 1_555 1_555
H29 C22 1_555 1_555
C23 C22 1_555 1_555
H30 C23 1_555 1_555
H31 C23 1_555 1_555
H32 C23 1_555 1_555
C24 C22 1_555 1_555
H33 C24 1_555 1_555
H34 C24 1_555 1_555
H35 C24 1_555 1_555
C25 Si2 1_555 1_555
H36 C25 1_555 1_555
C26 C25 1_555 1_555
H37 C26 1_555 1_555
H38 C26 1_555 1_555
H39 C26 1_555 1_555
C27 C25 1_555 1_555
H40 C27 1_555 1_555
H41 C27 1_555 1_555
H42 C27 1_555 1_555
C1B C1 1_555 1_555
C2B C1B 1_555 1_555
C3B C2B 1_555 1_555
C4B C3B 1_555 1_555
C5B C4B 1_555 1_555
N1B C5B 1_555 1_555
C6B C4B 1_555 1_555
C7B C6B 1_555 1_555
Si1B C7B 1_555 1_555
C8B Si1B 1_555 1_555
H1B C8B 1_555 1_555
C9B C8B 1_555 1_555
H2B C9B 1_555 1_555
H3B C9B 1_555 1_555
H4B C9B 1_555 1_555
C10B C8B 1_555 1_555
H5B C10B 1_555 1_555
H6B C10B 1_555 1_555
H7B C10B 1_555 1_555
C11B Si1B 1_555 1_555
H8B C11B 1_555 1_555
C12B C11B 1_555 1_555
H9B C12B 1_555 1_555
H10B C12B 1_555 1_555
H11B C12B 1_555 1_555
C13B C11B 1_555 1_555
H12B C13B 1_555 1_555
H13B C13B 1_555 1_555
H14B C13B 1_555 1_555
C14B Si1B 1_555 1_555
H15B C14B 1_555 1_555
C15B C14B 1_555 1_555
H16B C15B 1_555 1_555
H17B C15B 1_555 1_555
H18B C15B 1_555 1_555
C16B C14B 1_555 1_555
H19B C16B 1_555 1_555
H20B C16B 1_555 1_555
H21B C16B 1_555 1_555
C17B C3B 1_555 1_555
C18B C17B 1_555 1_555
Si2B C18B 1_555 1_555
C19B Si2B 1_555 1_555
H22B C19B 1_555 1_555
C20B C19B 1_555 1_555
H23B C20B 1_555 1_555
H24B C20B 1_555 1_555
H25B C20B 1_555 1_555
C21B C19B 1_555 1_555
H26B C21B 1_555 1_555
H27B C21B 1_555 1_555
H28B C21B 1_555 1_555
C22B Si2B 1_555 1_555
H29B C22B 1_555 1_555
C23B C22B 1_555 1_555
H30B C23B 1_555 1_555
H31B C23B 1_555 1_555
H32B C23B 1_555 1_555
C24B C22B 1_555 1_555
H33B C24B 1_555 1_555
H34B C24B 1_555 1_555
H35B C24B 1_555 1_555
C25B Si2B 1_555 1_555
H36B C25B 1_555 1_555
C26B C25B 1_555 1_555
H37B C26B 1_555 1_555
H38B C26B 1_555 1_555
H39B C26B 1_555 1_555
C27B C25B 1_555 1_555
H40B C27B 1_555 1_555
H41B C27B 1_555 1_555
H42B C27B 1_555 1_555

#END
