
#######################################################################
#
#                 Cambridge Crystallographic Data Centre
#                                CCDC 
#
#######################################################################
#
# If this CIF has been generated from an entry in the Cambridge 
# Structural Database, then it will include bibliographic, chemical, 
# crystal, experimental, refinement or atomic coordinate data resulting 
# from the CCDC's data processing and validation procedures.
#
#######################################################################

data_EHIDOP
_chemical_formula_moiety         'C25 H27 N3 O5'
_chemical_name_systematic        
11-(Hydroxy(phenyl)methyl)-1,10-bis(methoxymethyl)-4-phenyl-2,4,6-triazatricyclo[5.2.2.0^2,6^]undec-8-ene-3,5-dione
_symmetry_cell_setting           triclinic
_symmetry_space_group_name_H-M   'P -1'
_symmetry_Int_Tables_number      2
_space_group_name_Hall           '-P 1'
loop_
_symmetry_equiv_pos_site_id
_symmetry_equiv_pos_as_xyz
1 x,y,z
2 -x,-y,-z
_cell_length_a                   7.9939(5)
_cell_length_b                   11.9064(9)
_cell_length_c                   13.8485(12)
_cell_angle_alpha                68.816(3)
_cell_angle_beta                 77.480(4)
_cell_angle_gamma                72.174(3)
_cell_volume                     1161.61
_exptl_crystal_colour            'pale yellow'
_exptl_crystal_description       needle
_cell_formula_units_Z            2
loop_
_atom_site_label
_atom_site_type_symbol
_atom_site_fract_x
_atom_site_fract_y
_atom_site_fract_z
O1 O -0.2216(3) 0.70223(19) 0.86440(15)
O2 O -0.6087(2) 0.82298(15) 0.62314(14)
O3 O -0.3866(2) 0.75717(15) 0.41484(14)
O4 O 0.0558(2) 0.87233(15) 0.34437(13)
O5 O 0.2440(3) 0.50094(16) 0.52415(14)
N1 N -0.4573(3) 0.75797(19) 0.76788(16)
N2 N -0.3028(3) 0.73599(18) 0.61798(16)
N3 N -0.1844(3) 0.69354(18) 0.69627(16)
C1 C -0.4721(4) 0.7795(2) 0.66336(19)
C2 C -0.2804(4) 0.7172(2) 0.7857(2)
C3 C -0.6039(4) 0.7813(2) 0.8446(2)
C4 C -0.7366(4) 0.7208(3) 0.8661(2)
C5 C -0.8783(4) 0.7432(3) 0.9404(2)
C6 C -0.8862(4) 0.8248(3) 0.9929(2)
C7 C -0.7519(4) 0.8847(3) 0.9703(2)
C8 C -0.6098(4) 0.8631(2) 0.8957(2)
C9 C -0.2211(3) 0.8073(2) 0.51340(19)
C10 C -0.0500(3) 0.7119(2) 0.48912(19)
C11 C 0.0797(4) 0.6783(2) 0.5700(2)
C12 C -0.0181(4) 0.7377(2) 0.6547(2)
C13 C -0.0724(4) 0.8768(2) 0.6045(2)
C14 C -0.1758(4) 0.9128(2) 0.5308(2)
C15 C -0.3485(4) 0.8567(2) 0.4322(2)
C16 C -0.5111(4) 0.8031(3) 0.3407(3)
C17 C 0.0294(4) 0.7507(2) 0.3754(2)
C18 C 0.1020(5) 0.9179(3) 0.2347(2)
C19 C 0.1512(3) 0.5372(2) 0.6131(2)
C20 C 0.2696(3) 0.4953(2) 0.6981(2)
C21 C 0.2141(4) 0.4329(3) 0.8008(2)
C22 C 0.3249(5) 0.3903(3) 0.8777(2)
C23 C 0.4931(4) 0.4092(3) 0.8526(2)
C24 C 0.5512(4) 0.4716(2) 0.7507(2)
C25 C 0.4399(4) 0.5140(2) 0.6738(2)
H1 H -0.730(4) 0.662(3) 0.828(3)
H2 H -0.968(5) 0.699(3) 0.958(3)
H3 H -0.987(5) 0.842(3) 1.046(3)
H4 H -0.760(6) 0.949(4) 1.005(3)
H5 H -0.509(5) 0.901(3) 0.880(3)
H6 H -0.085(3) 0.631(2) 0.4971(19)
H7 H 0.179(4) 0.714(3) 0.535(2)
H8 H 0.048(3) 0.714(2) 0.7147(19)
H9 H -0.036(4) 0.928(3) 0.629(2)
H10 H -0.232(4) 1.001(3) 0.488(2)
H11 H -0.295(4) 0.908(3) 0.367(2)
H12 H -0.460(3) 0.912(2) 0.4520(18)
H13 H -0.454(4) 0.863(3) 0.270(3)
H14 H -0.539(5) 0.733(3) 0.329(3)
H15 H -0.625(5) 0.852(3) 0.370(3)
H16 H -0.047(3) 0.7473(19) 0.3329(18)
H17 H 0.152(4) 0.693(2) 0.363(2)
H18 H 0.123(4) 0.998(3) 0.222(2)
H19 H 0.213(5) 0.861(3) 0.207(3)
H20 H 0.004(5) 0.932(3) 0.188(3)
H21 H 0.050(3) 0.499(2) 0.6422(18)
H22 H 0.088(5) 0.418(3) 0.820(2)
H23 H 0.282(4) 0.346(3) 0.949(3)
H24 H 0.577(5) 0.375(3) 0.908(3)
H25 H 0.673(4) 0.484(3) 0.728(2)
H26 H 0.478(4) 0.557(3) 0.603(3)
H27 H 0.288(5) 0.407(4) 0.551(3)
loop_
_geom_bond_atom_site_label_1
_geom_bond_atom_site_label_2
_geom_bond_site_symmetry_1
_geom_bond_site_symmetry_2
O1 C2 1_555 1_555
O2 C1 1_555 1_555
O3 C15 1_555 1_555
O4 C17 1_555 1_555
O5 C19 1_555 1_555
N1 C1 1_555 1_555
N2 N3 1_555 1_555
N3 C2 1_555 1_555
C1 N2 1_555 1_555
C2 N1 1_555 1_555
C3 N1 1_555 1_555
C4 C3 1_555 1_555
C5 C4 1_555 1_555
C6 C5 1_555 1_555
C7 C6 1_555 1_555
C8 C3 1_555 1_555
C9 N2 1_555 1_555
C10 C9 1_555 1_555
C11 C10 1_555 1_555
C12 N3 1_555 1_555
C13 C12 1_555 1_555
C14 C9 1_555 1_555
C15 C9 1_555 1_555
C16 O3 1_555 1_555
C17 C10 1_555 1_555
C18 O4 1_555 1_555
C19 C11 1_555 1_555
C20 C19 1_555 1_555
C21 C20 1_555 1_555
C22 C21 1_555 1_555
C23 C22 1_555 1_555
C24 C23 1_555 1_555
C25 C20 1_555 1_555
H1 C4 1_555 1_555
H2 C5 1_555 1_555
H3 C6 1_555 1_555
H4 C7 1_555 1_555
H5 C8 1_555 1_555
H6 C10 1_555 1_555
H7 C11 1_555 1_555
H8 C12 1_555 1_555
H9 C13 1_555 1_555
H10 C14 1_555 1_555
H11 C15 1_555 1_555
H12 C15 1_555 1_555
H13 C16 1_555 1_555
H14 C16 1_555 1_555
H15 C16 1_555 1_555
H16 C17 1_555 1_555
H17 C17 1_555 1_555
H18 C18 1_555 1_555
H19 C18 1_555 1_555
H20 C18 1_555 1_555
H21 C19 1_555 1_555
H22 C21 1_555 1_555
H23 C22 1_555 1_555
H24 C23 1_555 1_555
H25 C24 1_555 1_555
H26 C25 1_555 1_555
H27 O5 1_555 1_555
C7 C8 1_555 1_555
C11 C12 1_555 1_555
C13 C14 1_555 1_555
C24 C25 1_555 1_555

#END
