
#######################################################################
#
#                 Cambridge Crystallographic Data Centre
#                                CCDC 
#
#######################################################################
#
# If this CIF has been generated from an entry in the Cambridge 
# Structural Database, then it will include bibliographic, chemical, 
# crystal, experimental, refinement or atomic coordinate data resulting 
# from the CCDC's data processing and validation procedures.
#
#######################################################################

data_EHIGUZ
_chemical_formula_moiety         'C22 H27 Br1 O5'
_chemical_name_systematic        
't-Butyl 4-(4-bromophenyl)-2-hydroxy-7,7-dimethyl-5-oxo-3,4,5,6,7,8-hexahydro-2H-chromene-2-carboxylate'
_symmetry_cell_setting           monoclinic
_symmetry_space_group_name_H-M   'P 21'
_symmetry_Int_Tables_number      4
_space_group_name_Hall           'P 2yb'
loop_
_symmetry_equiv_pos_site_id
_symmetry_equiv_pos_as_xyz
1 x,y,z
2 -x,1/2+y,-z
_cell_length_a                   11.057(6)
_cell_length_b                   9.392(4)
_cell_length_c                   11.540(6)
_cell_angle_alpha                90
_cell_angle_beta                 111.323(6)
_cell_angle_gamma                90
_cell_volume                     1116.36
_exptl_crystal_colour            colorless
_exptl_crystal_description       rod
_cell_formula_units_Z            2
loop_
_atom_site_label
_atom_site_type_symbol
_atom_site_fract_x
_atom_site_fract_y
_atom_site_fract_z
Br1 Br 0.02229(5) 0.96128(5) 0.08170(5)
O1 O 0.3925(3) 0.1561(3) 0.3534(2)
O2 O 0.5875(3) 0.2797(3) 0.4185(2)
H1 H 0.6328 0.2081 0.4383
O3 O 0.4537(3) 0.0591(3) 0.1675(3)
O4 O 0.5926(3) 0.2410(3) 0.1843(2)
O5 O 0.2650(3) 0.5335(3) 0.5536(3)
C1 C 0.3700(3) 0.4645(4) 0.3674(3)
H2 H 0.4497 0.5041 0.4286
C2 C 0.4060(4) 0.3874(4) 0.2675(3)
H3 H 0.3277 0.3674 0.1964
H4 H 0.4609 0.4486 0.2399
C3 C 0.4764(4) 0.2497(4) 0.3169(3)
C4 C 0.3266(4) 0.2161(4) 0.4199(3)
C5 C 0.2722(4) 0.1044(4) 0.4796(4)
H5 H 0.3424 0.0646 0.5497
H6 H 0.2364 0.0283 0.4202
C6 C 0.1676(4) 0.1580(4) 0.5246(4)
C7 C 0.2103(5) 0.2982(4) 0.5920(4)
H7 H 0.2773 0.2790 0.6723
H8 H 0.1370 0.3397 0.6070
C8 C 0.2619(4) 0.4069(4) 0.5247(4)
C9 C 0.3151(3) 0.3576(4) 0.4330(3)
C10 C 0.2805(4) 0.5875(4) 0.3057(3)
C11 C 0.3340(4) 0.7195(4) 0.2986(3)
H9 H 0.4230 0.7327 0.3383
C12 C 0.2583(4) 0.8317(4) 0.2340(4)
H10 H 0.2954 0.9193 0.2293
C13 C 0.1265(4) 0.8104(4) 0.1768(4)
C14 C 0.0695(4) 0.6812(5) 0.1829(4)
H11 H -0.0198 0.6691 0.1443
C15 C 0.1471(4) 0.5699(4) 0.2472(4)
H12 H 0.1097 0.4824 0.2513
C16 C 0.5052(4) 0.1673(4) 0.2139(3)
C17 C 0.6406(4) 0.1890(4) 0.0870(4)
C18 C 0.7395(5) 0.3026(6) 0.0896(5)
H13 H 0.6962 0.3923 0.0647
H14 H 0.7820 0.2767 0.0335
H15 H 0.8028 0.3106 0.1724
C19 C 0.5299(5) 0.1859(6) -0.0374(4)
H16 H 0.4744 0.1063 -0.0402
H17 H 0.5640 0.1769 -0.1026
H18 H 0.4810 0.2726 -0.0486
C20 C 0.7047(5) 0.0458(5) 0.1255(5)
H19 H 0.7698 0.0528 0.2075
H20 H 0.7444 0.0168 0.0679
H21 H 0.6407 -0.0231 0.1257
C21 C 0.0402(5) 0.1790(6) 0.4102(5)
H22 H 0.0517 0.2549 0.3594
H23 H -0.0293 0.2026 0.4380
H24 H 0.0195 0.0927 0.3625
C22 C 0.1414(5) 0.0473(5) 0.6088(5)
H25 H 0.1207 -0.0422 0.5659
H26 H 0.0697 0.0777 0.6309
H27 H 0.2172 0.0364 0.6829
loop_
_geom_bond_atom_site_label_1
_geom_bond_atom_site_label_2
_geom_bond_site_symmetry_1
_geom_bond_site_symmetry_2
Br1 C13 1_555 1_555
O1 C3 1_555 1_555
O2 H1 1_555 1_555
O3 C16 1_555 1_555
O4 C16 1_555 1_555
O5 C8 1_555 1_555
C1 H2 1_555 1_555
C2 C1 1_555 1_555
H3 C2 1_555 1_555
H4 C2 1_555 1_555
C3 O2 1_555 1_555
C4 O1 1_555 1_555
C5 C4 1_555 1_555
H5 C5 1_555 1_555
H6 C5 1_555 1_555
C6 C5 1_555 1_555
C7 C6 1_555 1_555
H7 C7 1_555 1_555
H8 C7 1_555 1_555
C8 C7 1_555 1_555
C9 C1 1_555 1_555
C10 C1 1_555 1_555
C11 C10 1_555 1_555
H9 C11 1_555 1_555
C12 C11 1_555 1_555
H10 C12 1_555 1_555
C13 C12 1_555 1_555
C14 C13 1_555 1_555
H11 C14 1_555 1_555
C15 C10 1_555 1_555
H12 C15 1_555 1_555
C16 C3 1_555 1_555
C17 O4 1_555 1_555
C18 C17 1_555 1_555
H13 C18 1_555 1_555
H14 C18 1_555 1_555
H15 C18 1_555 1_555
C19 C17 1_555 1_555
H16 C19 1_555 1_555
H17 C19 1_555 1_555
H18 C19 1_555 1_555
C20 C17 1_555 1_555
H19 C20 1_555 1_555
H20 C20 1_555 1_555
H21 C20 1_555 1_555
C21 C6 1_555 1_555
H22 C21 1_555 1_555
H23 C21 1_555 1_555
H24 C21 1_555 1_555
C22 C6 1_555 1_555
H25 C22 1_555 1_555
H26 C22 1_555 1_555
H27 C22 1_555 1_555
C2 C3 1_555 1_555
C4 C9 1_555 1_555
C8 C9 1_555 1_555
C14 C15 1_555 1_555

#END
