
#######################################################################
#
#                 Cambridge Crystallographic Data Centre
#                                CCDC 
#
#######################################################################
#
# If this CIF has been generated from an entry in the Cambridge 
# Structural Database, then it will include bibliographic, chemical, 
# crystal, experimental, refinement or atomic coordinate data resulting 
# from the CCDC's data processing and validation procedures.
#
#######################################################################

data_EHIJUC
_chemical_formula_moiety         'C14 H10 F3 N3 O1'
_chemical_name_systematic        
9-oxo-3-(2,2,2-trifluoroethyl)-1,2,3,9-tetrahydropyrrolo[2,1-b]quinazoline-6-carbonitrile
_symmetry_cell_setting           monoclinic
_symmetry_space_group_name_H-M   'P 21/c'
_symmetry_Int_Tables_number      14
_space_group_name_Hall           '-P 2ybc'
loop_
_symmetry_equiv_pos_site_id
_symmetry_equiv_pos_as_xyz
1 x,y,z
2 -x,1/2+y,1/2-z
3 -x,-y,-z
4 x,1/2-y,1/2+z
_cell_length_a                   12.7050(15)
_cell_length_b                   12.8110(14)
_cell_length_c                   8.0698(12)
_cell_angle_alpha                90
_cell_angle_beta                 105.105(14)
_cell_angle_gamma                90
_cell_volume                     1268.09
_exptl_crystal_colour            colorless
_exptl_crystal_description       plate
_cell_formula_units_Z            4
loop_
_atom_site_label
_atom_site_type_symbol
_atom_site_fract_x
_atom_site_fract_y
_atom_site_fract_z
F1 F 0.8237(6) 0.6647(5) 0.4475(7)
F2 F 0.9698(3) 0.6073(3) 0.5908(8)
F3 F 0.8973(4) 0.7523(4) 0.6520(8)
O1 O 0.6860(3) 0.1926(2) 0.9047(5)
N1 N 0.1889(4) 0.5274(4) 0.8612(7)
N2 N 0.6153(3) 0.4887(3) 0.7194(6)
N3 N 0.7323(3) 0.3422(3) 0.7940(6)
C1 C 0.4804(4) 0.2823(4) 0.9119(7)
H1 H 0.4930 0.2134 0.9561
C2 C 0.3849(4) 0.3333(4) 0.9112(7)
H2 H 0.3317 0.2994 0.9559
C3 C 0.3657(4) 0.4340(4) 0.8455(7)
C4 C 0.4397(4) 0.4827(4) 0.7759(7)
H3 H 0.4241 0.5500 0.7261
C5 C 0.5391(4) 0.4337(4) 0.7778(6)
C6 C 0.5581(4) 0.3323(4) 0.8476(6)
C7 C 0.2658(4) 0.4868(4) 0.8526(7)
C8 C 0.6612(4) 0.2817(4) 0.8528(6)
C9 C 0.7064(4) 0.4414(4) 0.7322(7)
C10 C 0.8006(5) 0.4848(4) 0.6782(11)
H4 H 0.7809 0.4759 0.5507
C11 C 0.8927(5) 0.4083(4) 0.7444(10)
H5 H 0.9294 0.3921 0.6534
H6 H 0.9471 0.4386 0.8435
C12 C 0.8452(4) 0.3118(4) 0.7973(8)
H7 H 0.8457 0.2540 0.7160
H8 H 0.8861 0.2898 0.9140
C13 C 0.8124(6) 0.5972(5) 0.7049(13)
H9 H 0.8420 0.6100 0.8293
H10 H 0.7388 0.6289 0.6706
C14 C 0.8832(5) 0.6532(4) 0.6118(8)
loop_
_geom_bond_atom_site_label_1
_geom_bond_atom_site_label_2
_geom_bond_site_symmetry_1
_geom_bond_site_symmetry_2
F1 C14 1_555 1_555
F2 C14 1_555 1_555
F3 C14 1_555 1_555
O1 C8 1_555 1_555
N1 C7 1_555 1_555
N2 C5 1_555 1_555
N3 C8 1_555 1_555
C1 H1 1_555 1_555
C2 C1 1_555 1_555
H2 C2 1_555 1_555
C3 C2 1_555 1_555
C4 C3 1_555 1_555
H3 C4 1_555 1_555
C5 C4 1_555 1_555
C6 C1 1_555 1_555
C7 C3 1_555 1_555
C8 C6 1_555 1_555
C9 N2 1_555 1_555
C10 C9 1_555 1_555
H4 C10 1_555 1_555
C11 C10 1_555 1_555
H5 C11 1_555 1_555
H6 C11 1_555 1_555
C12 N3 1_555 1_555
H7 C12 1_555 1_555
H8 C12 1_555 1_555
C13 C10 1_555 1_555
H9 C13 1_555 1_555
H10 C13 1_555 1_555
C14 C13 1_555 1_555
N3 C9 1_555 1_555
C5 C6 1_555 1_555
C11 C12 1_555 1_555

#END
