
#######################################################################
#
#                 Cambridge Crystallographic Data Centre
#                                CCDC 
#
#######################################################################
#
# If this CIF has been generated from an entry in the Cambridge 
# Structural Database, then it will include bibliographic, chemical, 
# crystal, experimental, refinement or atomic coordinate data resulting 
# from the CCDC's data processing and validation procedures.
#
#######################################################################

data_EHIMIT
_chemical_formula_moiety         'C17 H20 N2 O5'
_chemical_name_systematic        
'Ethyl N-((3-(2-hydroxyethoxy)-6-methylquinolin-2-yl)carbonyl)glycinate'
_symmetry_cell_setting           monoclinic
_symmetry_space_group_name_H-M   'P 21/n'
_symmetry_Int_Tables_number      14
_space_group_name_Hall           '-P 2yn'
loop_
_symmetry_equiv_pos_site_id
_symmetry_equiv_pos_as_xyz
1 x,y,z
2 1/2-x,1/2+y,1/2-z
3 -x,-y,-z
4 1/2+x,1/2-y,1/2+z
_cell_length_a                   5.1926(3)
_cell_length_b                   20.9331(17)
_cell_length_c                   14.9717(9)
_cell_angle_alpha                90
_cell_angle_beta                 94.131(6)
_cell_angle_gamma                90
_cell_volume                     1623.15
_exptl_crystal_colour            colorless
_exptl_crystal_description       block
_cell_formula_units_Z            4
loop_
_atom_site_label
_atom_site_type_symbol
_atom_site_fract_x
_atom_site_fract_y
_atom_site_fract_z
O1 O 0.6580(6) 0.25312(17) -0.20175(18)
O2 O 1.1826(7) 0.10487(18) -0.0266(2)
O3 O 1.3559(6) 0.08951(15) -0.15694(19)
O4 O 0.6770(5) 0.20221(14) 0.06521(16)
O5 O 0.9097(7) 0.10646(15) 0.25471(17)
H1 H 0.9178 0.1349 0.2925
N1 N 0.3595(6) 0.31172(16) -0.0907(2)
N2 N 0.8710(6) 0.19809(17) -0.0927(2)
H2 H 0.8895 0.1892 -0.0365
C1 C 0.1866(7) 0.34087(19) -0.0391(2)
C2 C 0.0239(8) 0.3889(2) -0.0783(3)
H3 H 0.0329 0.3995 -0.1383
C3 C -0.1449(8) 0.4194(2) -0.0283(3)
H4 H -0.2513 0.4508 -0.0551
C4 C -0.1648(7) 0.4052(2) 0.0634(3)
C5 C -0.0120(7) 0.3578(2) 0.1011(3)
H5 H -0.0267 0.3470 0.1608
C6 C 0.1690(7) 0.32481(19) 0.0513(2)
C7 C 0.3344(7) 0.27664(19) 0.0877(2)
H6 H 0.3262 0.2640 0.1470
C8 C 0.5065(7) 0.24867(18) 0.0353(2)
C9 C 0.5135(7) 0.2669(2) -0.0553(2)
C10 C 0.6873(8) 0.2392(2) -0.1220(3)
C11 C 1.0391(8) 0.1682(2) -0.1529(2)
H7 H 1.1516 0.2000 -0.1766
H8 H 0.9370 0.1491 -0.2027
C12 C 1.1978(8) 0.1179(2) -0.1038(3)
C13 C 1.5162(10) 0.0383(3) -0.1180(3)
H9 H 1.4107 0.0080 -0.0878
H10 H 1.6451 0.0555 -0.0744
C14 C 1.6437(11) 0.0060(3) -0.1909(4)
H11 H 1.5152 -0.0133 -0.2316
H12 H 1.7583 -0.0264 -0.1660
H13 H 1.7402 0.0367 -0.2224
C15 C -0.3525(8) 0.4413(2) 0.1153(3)
H14 H -0.3497 0.4245 0.1751
H15 H -0.5230 0.4369 0.0867
H16 H -0.3054 0.4856 0.1176
C16 C 0.6796(8) 0.1812(2) 0.1569(2)
H17 H 0.5164 0.1615 0.1684
H18 H 0.7099 0.2170 0.1975
C17 C 0.8954(8) 0.1337(2) 0.1687(2)
H19 H 0.8690 0.1002 0.1243
H20 H 1.0575 0.1548 0.1592
loop_
_geom_bond_atom_site_label_1
_geom_bond_atom_site_label_2
_geom_bond_site_symmetry_1
_geom_bond_site_symmetry_2
O1 C10 1_555 1_555
O2 C12 1_555 1_555
O3 C12 1_555 1_555
O4 C8 1_555 1_555
O5 H1 1_555 1_555
N1 C1 1_555 1_555
N2 H2 1_555 1_555
C1 C2 1_555 1_555
C2 H3 1_555 1_555
C3 C2 1_555 1_555
H4 C3 1_555 1_555
C4 C3 1_555 1_555
C5 C4 1_555 1_555
H5 C5 1_555 1_555
C6 C1 1_555 1_555
C7 C6 1_555 1_555
H6 C7 1_555 1_555
C8 C7 1_555 1_555
C9 N1 1_555 1_555
C10 N2 1_555 1_555
C11 N2 1_555 1_555
H7 C11 1_555 1_555
H8 C11 1_555 1_555
C12 C11 1_555 1_555
C13 O3 1_555 1_555
H9 C13 1_555 1_555
H10 C13 1_555 1_555
C14 C13 1_555 1_555
H11 C14 1_555 1_555
H12 C14 1_555 1_555
H13 C14 1_555 1_555
C15 C4 1_555 1_555
H14 C15 1_555 1_555
H15 C15 1_555 1_555
H16 C15 1_555 1_555
C16 O4 1_555 1_555
H17 C16 1_555 1_555
H18 C16 1_555 1_555
C17 O5 1_555 1_555
H19 C17 1_555 1_555
H20 C17 1_555 1_555
C5 C6 1_555 1_555
C8 C9 1_555 1_555
C9 C10 1_555 1_555
C16 C17 1_555 1_555

#END
