
#######################################################################
#
#                 Cambridge Crystallographic Data Centre
#                                CCDC 
#
#######################################################################
#
# If this CIF has been generated from an entry in the Cambridge 
# Structural Database, then it will include bibliographic, chemical, 
# crystal, experimental, refinement or atomic coordinate data resulting 
# from the CCDC's data processing and validation procedures.
#
#######################################################################

data_EHOJOC
_chemical_formula_moiety         'C26 H22 Br2 O2'
_chemical_name_systematic        
1,4-dibromo-4b,8b,12b,12d-tetramethyl-4b,8b,12b,12d-tetrahydrodibenzo[2,3:4,5]pentaleno[1,6-ab]indene-2,3-diol
_symmetry_cell_setting           monoclinic
_symmetry_space_group_name_H-M   'C 2/c'
_symmetry_Int_Tables_number      15
_space_group_name_Hall           '-C 2yn'
loop_
_symmetry_equiv_pos_site_id
_symmetry_equiv_pos_as_xyz
1 x,y,z
2 -x,y,1/2-z
3 1/2+x,1/2+y,z
4 1/2-x,1/2+y,1/2-z
5 -x,-y,-z
6 x,-y,1/2+z
7 1/2-x,1/2-y,-z
8 1/2+x,1/2-y,1/2+z
_cell_length_a                   17.7101(9)
_cell_length_b                   6.3887(5)
_cell_length_c                   37.130(3)
_cell_angle_alpha                90
_cell_angle_beta                 95.118(7)
_cell_angle_gamma                90
_cell_volume                     4184.31
_exptl_crystal_colour            colorless
_exptl_crystal_description       block
_cell_formula_units_Z            8
loop_
_atom_site_label
_atom_site_type_symbol
_atom_site_fract_x
_atom_site_fract_y
_atom_site_fract_z
Br1 Br 0.03154(4) 0.31402(16) 0.04883(2)
Br2 Br 0.39988(4) 0.34623(14) 0.05295(2)
O1 O 0.1320(3) 0.5579(8) 0.00674(14)
O2 O 0.2817(3) 0.5576(8) 0.00667(13)
H1 H 0.3273 0.5347 0.0072
C1 C 0.3379(4) 0.1755(10) 0.14548(17)
C2 C 0.3075(4) 0.1216(10) 0.17678(18)
C3 C 0.2369(4) -0.0114(10) 0.17084(17)
C4 C 0.1680(4) 0.1225(10) 0.17613(18)
C5 C 0.1273(4) 0.1712(10) 0.14370(17)
C6 C 0.1549(4) 0.0518(9) 0.11181(16)
C7 C 0.1827(4) 0.1957(9) 0.08227(17)
C8 C 0.2621(3) 0.2005(9) 0.08274(16)
C9 C 0.2993(3) 0.0606(9) 0.11270(17)
C10 C 0.2310(4) -0.0568(9) 0.12877(16)
C11 C 0.4010(4) 0.3080(11) 0.1471(2)
H2 H 0.4225 0.3452 0.1260
C12 C 0.4310(5) 0.3823(12) 0.1798(3)
H3 H 0.4720 0.4735 0.1808
C13 C 0.4013(5) 0.3243(14) 0.2110(2)
H4 H 0.4234 0.3734 0.2330
C14 C 0.3386(4) 0.1929(13) 0.2103(2)
H5 H 0.3181 0.1540 0.2315
C15 C 0.1464(4) 0.2008(13) 0.2084(2)
H6 H 0.1738 0.1663 0.2301
C16 C 0.0843(5) 0.3294(13) 0.2083(3)
H7 H 0.0696 0.3813 0.2300
C17 C 0.0442(5) 0.3813(12) 0.1766(3)
H8 H 0.0024 0.4693 0.1767
C18 C 0.0650(4) 0.3050(11) 0.1442(2)
H9 H 0.0375 0.3425 0.1227
C19 C 0.1390(4) 0.3124(10) 0.05565(18)
C20 C 0.1727(4) 0.4352(9) 0.03130(17)
C21 C 0.2513(4) 0.4372(9) 0.03185(17)
C22 C 0.2949(3) 0.3205(10) 0.05698(17)
C23 C 0.2309(4) -0.2942(10) 0.1204(2)
H10 H 0.1911 -0.3611 0.1321
H11 H 0.2789 -0.3535 0.1292
H12 H 0.2227 -0.3153 0.0948
C24 C 0.3578(4) -0.0876(10) 0.0980(2)
H13 H 0.4010 -0.0084 0.0921
H14 H 0.3353 -0.1571 0.0768
H15 H 0.3735 -0.1898 0.1161
C25 C 0.2403(5) -0.2028(13) 0.1962(2)
H16 H 0.1932 -0.2775 0.1930
H17 H 0.2490 -0.1568 0.2208
H18 H 0.2809 -0.2933 0.1905
C26 C 0.0936(4) -0.0988(11) 0.0977(2)
H19 H 0.0489 -0.0220 0.0894
H20 H 0.0822 -0.1921 0.1168
H21 H 0.1108 -0.1782 0.0781
H22 H 0.092(6) 0.63(2) 0.007(5)
loop_
_geom_bond_atom_site_label_1
_geom_bond_atom_site_label_2
_geom_bond_site_symmetry_1
_geom_bond_site_symmetry_2
Br1 C19 1_555 1_555
Br2 C22 1_555 1_555
O1 C20 1_555 1_555
O2 H1 1_555 1_555
C1 C2 1_555 1_555
C2 C3 1_555 1_555
C3 C4 1_555 1_555
C4 C5 1_555 1_555
C5 C6 1_555 1_555
C6 C7 1_555 1_555
C7 C8 1_555 1_555
C8 C9 1_555 1_555
C9 C1 1_555 1_555
C10 C3 1_555 1_555
C11 C1 1_555 1_555
H2 C11 1_555 1_555
C12 C11 1_555 1_555
H3 C12 1_555 1_555
C13 C12 1_555 1_555
H4 C13 1_555 1_555
C14 C2 1_555 1_555
H5 C14 1_555 1_555
C15 C4 1_555 1_555
H6 C15 1_555 1_555
C16 C15 1_555 1_555
H7 C16 1_555 1_555
C17 C16 1_555 1_555
H8 C17 1_555 1_555
C18 C5 1_555 1_555
H9 C18 1_555 1_555
C19 C7 1_555 1_555
C20 C19 1_555 1_555
C21 O2 1_555 1_555
C22 C8 1_555 1_555
C23 C10 1_555 1_555
H10 C23 1_555 1_555
H11 C23 1_555 1_555
H12 C23 1_555 1_555
C24 C9 1_555 1_555
H13 C24 1_555 1_555
H14 C24 1_555 1_555
H15 C24 1_555 1_555
C25 C3 1_555 1_555
H16 C25 1_555 1_555
H17 C25 1_555 1_555
H18 C25 1_555 1_555
C26 C6 1_555 1_555
H19 C26 1_555 1_555
H20 C26 1_555 1_555
H21 C26 1_555 1_555
H22 O1 1_555 1_555
C6 C10 1_555 1_555
C9 C10 1_555 1_555
C13 C14 1_555 1_555
C17 C18 1_555 1_555
C20 C21 1_555 1_555
C21 C22 1_555 1_555

#END
