
#######################################################################
#
#                 Cambridge Crystallographic Data Centre
#                                CCDC 
#
#######################################################################
#
# If this CIF has been generated from an entry in the Cambridge 
# Structural Database, then it will include bibliographic, chemical, 
# crystal, experimental, refinement or atomic coordinate data resulting 
# from the CCDC's data processing and validation procedures.
#
#######################################################################

data_EHOPAS02
_chemical_formula_moiety         'C15 H17 N1 O4'
_chemical_name_systematic        
1-(((1,3-dihydroxy-2-(hydroxymethyl)propan-2-yl)iminio)methyl)naphthalen-2-olate
_symmetry_cell_setting           monoclinic
_symmetry_space_group_name_H-M   'P 21/c'
_symmetry_Int_Tables_number      14
_space_group_name_Hall           '-P 2ybc'
loop_
_symmetry_equiv_pos_site_id
_symmetry_equiv_pos_as_xyz
1 x,y,z
2 -x,1/2+y,1/2-z
3 -x,-y,-z
4 x,1/2-y,1/2+z
_cell_length_a                   9.3540(8)
_cell_length_b                   10.0280(9)
_cell_length_c                   29.036(3)
_cell_angle_alpha                90
_cell_angle_beta                 91.559(1)
_cell_angle_gamma                90
_cell_volume                     2722.62
_exptl_crystal_colour            colorless
_exptl_crystal_description       block
_cell_formula_units_Z            8
loop_
_atom_site_label
_atom_site_type_symbol
_atom_site_fract_x
_atom_site_fract_y
_atom_site_fract_z
N1 N 0.4266(2) 0.5340(2) 0.65750(7)
H1 H 0.3778 0.4957 0.6784
O1 O 0.80392(19) 0.5859(2) 0.68816(8)
H2 H 0.8582 0.5347 0.7020
O2 O 0.49270(19) 0.54635(19) 0.74996(6)
H3 H 0.4247 0.5638 0.7662
O3 O 0.4541(2) 0.8049(2) 0.63099(6)
H4 H 0.4281 0.8446 0.6540
O4 O 0.20984(19) 0.3874(2) 0.67796(6)
C1 C 0.6809(3) 0.5160(3) 0.67280(9)
H5 H 0.6645 0.4406 0.6929
H6 H 0.6943 0.4826 0.6419
C2 C 0.5234(3) 0.6581(3) 0.72181(8)
H7 H 0.6065 0.7050 0.7343
H8 H 0.4430 0.7193 0.7212
C3 C 0.5793(3) 0.7303(3) 0.64202(9)
H9 H 0.6485 0.7884 0.6573
H10 H 0.6206 0.6993 0.6137
C4 C 0.5521(2) 0.6100(3) 0.67308(8)
C5 C 0.3813(3) 0.5185(3) 0.61482(9)
H11 H 0.4329 0.5604 0.5920
C6 C 0.2609(2) 0.4436(2) 0.60076(9)
C7 C 0.1775(3) 0.3805(3) 0.63474(10)
C8 C 0.0531(3) 0.3070(3) 0.61916(11)
H12 H -0.0056 0.2676 0.6406
C9 C 0.0206(3) 0.2948(3) 0.57391(12)
H13 H -0.0601 0.2458 0.5652
C10 C 0.1033(3) 0.3528(3) 0.53867(10)
C11 C 0.2235(3) 0.4311(3) 0.55185(9)
C12 C 0.2988(3) 0.4917(3) 0.51637(9)
H14 H 0.3777 0.5446 0.5239
C13 C 0.2595(3) 0.4752(4) 0.47095(11)
H15 H 0.3120 0.5169 0.4483
C14 C 0.1425(4) 0.3972(3) 0.45827(12)
H16 H 0.1170 0.3856 0.4274
C15 C 0.0658(3) 0.3381(3) 0.49156(12)
H17 H -0.0134 0.2867 0.4831
N2 N 0.9319(2) 0.9508(2) 0.67169(7)
H18 H 0.8792 0.9830 0.6928
O5 O 0.9988(2) 0.93735(19) 0.76456(6)
H19 H 0.9340 0.9140 0.7812
O6 O 1.31332(18) 0.91941(18) 0.70090(7)
H20 H 1.3611 0.9706 0.7171
O7 O 1.1405(2) 0.7931(2) 0.61213(6)
H21 H 1.2275 0.7836 0.6111
O8 O 0.71162(19) 1.0887(2) 0.69349(7)
C16 C 1.0373(3) 0.8292(3) 0.73559(9)
H22 H 0.9611 0.7635 0.7346
H23 H 1.1231 0.7866 0.7480
C17 C 1.1832(2) 0.9830(3) 0.68673(9)
H24 H 1.1919 1.0195 0.6560
H25 H 1.1621 1.0556 0.7076
C18 C 1.0944(3) 0.7591(3) 0.65660(9)
H26 H 1.1673 0.7048 0.6718
H27 H 1.0083 0.7056 0.6535
C19 C 1.0635(2) 0.8799(3) 0.68711(8)
C20 C 0.8883(3) 0.9693(3) 0.62907(8)
H28 H 0.9424 0.9323 0.6059
C21 C 0.7644(2) 1.0416(2) 0.61581(8)
C22 C 0.6788(3) 1.0992(3) 0.65039(10)
C23 C 0.5528(3) 1.1703(3) 0.63563(11)
H29 H 0.4930 1.2061 0.6575
C24 C 0.5195(3) 1.1862(3) 0.59069(12)
H30 H 0.4369 1.2330 0.5825
C25 C 0.6046(3) 1.1347(3) 0.55519(10)
C26 C 0.7267(3) 1.0578(3) 0.56717(9)
C27 C 0.8045(3) 1.0038(3) 0.53105(9)
H31 H 0.8845 0.9517 0.5379
C28 C 0.7657(4) 1.0257(4) 0.48594(10)
H32 H 0.8193 0.9881 0.4627
C29 C 0.6471(4) 1.1036(4) 0.47439(12)
H33 H 0.6221 1.1195 0.4437
C30 C 0.5683(4) 1.1560(3) 0.50842(12)
H34 H 0.4883 1.2072 0.5007
loop_
_geom_bond_atom_site_label_1
_geom_bond_atom_site_label_2
_geom_bond_site_symmetry_1
_geom_bond_site_symmetry_2
N1 H1 1_555 1_555
O1 H2 1_555 1_555
O2 H3 1_555 1_555
O3 H4 1_555 1_555
O4 C7 1_555 1_555
C1 O1 1_555 1_555
H5 C1 1_555 1_555
H6 C1 1_555 1_555
C2 O2 1_555 1_555
H7 C2 1_555 1_555
H8 C2 1_555 1_555
C3 O3 1_555 1_555
H9 C3 1_555 1_555
H10 C3 1_555 1_555
C4 N1 1_555 1_555
C5 N1 1_555 1_555
H11 C5 1_555 1_555
C6 C5 1_555 1_555
C7 C6 1_555 1_555
C8 C7 1_555 1_555
H12 C8 1_555 1_555
C9 C8 1_555 1_555
H13 C9 1_555 1_555
C10 C9 1_555 1_555
C11 C6 1_555 1_555
C12 C11 1_555 1_555
H14 C12 1_555 1_555
C13 C12 1_555 1_555
H15 C13 1_555 1_555
C14 C13 1_555 1_555
H16 C14 1_555 1_555
C15 C10 1_555 1_555
H17 C15 1_555 1_555
N2 H18 1_555 1_555
O5 H19 1_555 1_555
O6 H20 1_555 1_555
O7 H21 1_555 1_555
O8 C22 1_555 1_555
C16 O5 1_555 1_555
H22 C16 1_555 1_555
H23 C16 1_555 1_555
C17 O6 1_555 1_555
H24 C17 1_555 1_555
H25 C17 1_555 1_555
C18 O7 1_555 1_555
H26 C18 1_555 1_555
H27 C18 1_555 1_555
C19 N2 1_555 1_555
C20 N2 1_555 1_555
H28 C20 1_555 1_555
C21 C20 1_555 1_555
C22 C21 1_555 1_555
C23 C22 1_555 1_555
H29 C23 1_555 1_555
C24 C23 1_555 1_555
H30 C24 1_555 1_555
C25 C24 1_555 1_555
C26 C21 1_555 1_555
C27 C26 1_555 1_555
H31 C27 1_555 1_555
C28 C27 1_555 1_555
H32 C28 1_555 1_555
C29 C28 1_555 1_555
H33 C29 1_555 1_555
C30 C25 1_555 1_555
H34 C30 1_555 1_555
C1 C4 1_555 1_555
C2 C4 1_555 1_555
C3 C4 1_555 1_555
C10 C11 1_555 1_555
C14 C15 1_555 1_555
C16 C19 1_555 1_555
C17 C19 1_555 1_555
C18 C19 1_555 1_555
C25 C26 1_555 1_555
C29 C30 1_555 1_555

#END
