
#######################################################################
#
#                 Cambridge Crystallographic Data Centre
#                                CCDC 
#
#######################################################################
#
# If this CIF has been generated from an entry in the Cambridge 
# Structural Database, then it will include bibliographic, chemical, 
# crystal, experimental, refinement or atomic coordinate data resulting 
# from the CCDC's data processing and validation procedures.
#
#######################################################################

data_EHUPOO
_chemical_formula_moiety         'C21 H25 B1 O2'
_chemical_name_systematic        
4,4,5,5-Tetramethyl-2-(2-(4-methylphenyl)-2-phenylvinyl)-1,3,2-dioxaborolane
_symmetry_cell_setting           monoclinic
_symmetry_space_group_name_H-M   'P 21/c'
_symmetry_Int_Tables_number      14
_space_group_name_Hall           '-P 2ybc'
loop_
_symmetry_equiv_pos_site_id
_symmetry_equiv_pos_as_xyz
1 x,y,z
2 -x,1/2+y,1/2-z
3 -x,-y,-z
4 x,1/2-y,1/2+z
_cell_length_a                   14.969(2)
_cell_length_b                   6.2857(9)
_cell_length_c                   20.527(3)
_cell_angle_alpha                90
_cell_angle_beta                 104.684(3)
_cell_angle_gamma                90
_cell_volume                     1868.32
_exptl_crystal_colour            colorless
_exptl_crystal_description       prismatic
_cell_formula_units_Z            4
loop_
_atom_site_label
_atom_site_type_symbol
_atom_site_fract_x
_atom_site_fract_y
_atom_site_fract_z
B1 B 0.25395(13) 0.9111(3) 0.55072(9)
O1 O 0.28993(8) 0.8366(2) 0.50054(5)
O2 O 0.16548(8) 0.9785(2) 0.52828(5)
C1 C 0.31260(12) 0.9012(3) 0.62441(7)
H1 H 0.3654 0.8177 0.6309
C2 C 0.30029(11) 0.9924(3) 0.68044(7)
C3 C 0.22656(11) 1.1499(3) 0.68079(7)
C4 C 0.21805(13) 1.3359(3) 0.64420(8)
H2 H 0.2567 1.3594 0.6159
C5 C 0.15366(15) 1.4874(3) 0.64872(10)
H3 H 0.1497 1.6124 0.6239
C6 C 0.09588(14) 1.4557(4) 0.68920(10)
H4 H 0.0529 1.5592 0.6925
C7 C 0.10126(13) 1.2707(4) 0.72506(9)
H5 H 0.0607 1.2469 0.7519
C8 C 0.16661(13) 1.1192(3) 0.72154(8)
H6 H 0.1705 0.9951 0.7468
C9 C 0.36378(11) 0.9452(3) 0.74779(7)
C10 C 0.38577(11) 1.1005(3) 0.79747(7)
H7 H 0.3596 1.2352 0.7891
C11 C 0.44569(12) 1.0581(3) 0.85887(8)
H8 H 0.4597 1.1654 0.8911
C12 C 0.48547(12) 0.8604(3) 0.87389(8)
C13 C 0.46337(13) 0.7066(3) 0.82440(9)
H9 H 0.4894 0.5719 0.8330
C14 C 0.40384(12) 0.7471(3) 0.76263(8)
H10 H 0.3904 0.6398 0.7304
C15 C 0.54840(16) 0.8129(4) 0.94216(9)
H11 H 0.5121 0.7726 0.9726
H12 H 0.5839 0.9374 0.9591
H13 H 0.5893 0.6985 0.9383
C16 C 0.22523(12) 0.8929(3) 0.43714(7)
C17 C 0.13417(12) 0.9095(3) 0.45820(7)
C18 C 0.25878(18) 1.1027(4) 0.41614(10)
H14 H 0.2553 1.2099 0.4487
H15 H 0.2208 1.1432 0.3729
H16 H 0.3216 1.0880 0.4135
C19 C 0.22666(18) 0.7242(4) 0.38501(10)
H17 H 0.2851 0.7274 0.3738
H18 H 0.1780 0.7512 0.3453
H19 H 0.2178 0.5869 0.4028
C20 C 0.06530(16) 1.0688(4) 0.41900(10)
H20 H 0.0097 1.0632 0.4341
H21 H 0.0514 1.0351 0.3719
H22 H 0.0911 1.2093 0.4262
C21 C 0.08811(17) 0.6952(4) 0.45979(10)
H23 H 0.1326 0.5952 0.4842
H24 H 0.0638 0.6452 0.4146
H25 H 0.0388 0.7097 0.4816
loop_
_geom_bond_atom_site_label_1
_geom_bond_atom_site_label_2
_geom_bond_site_symmetry_1
_geom_bond_site_symmetry_2
B1 O1 1_555 1_555
O1 C16 1_555 1_555
O2 B1 1_555 1_555
C1 B1 1_555 1_555
H1 C1 1_555 1_555
C2 C1 1_555 1_555
C3 C2 1_555 1_555
C4 C3 1_555 1_555
H2 C4 1_555 1_555
C5 C4 1_555 1_555
H3 C5 1_555 1_555
C6 C5 1_555 1_555
H4 C6 1_555 1_555
C7 C6 1_555 1_555
H5 C7 1_555 1_555
C8 C3 1_555 1_555
H6 C8 1_555 1_555
C9 C2 1_555 1_555
C10 C9 1_555 1_555
H7 C10 1_555 1_555
C11 C10 1_555 1_555
H8 C11 1_555 1_555
C12 C11 1_555 1_555
C13 C12 1_555 1_555
H9 C13 1_555 1_555
C14 C9 1_555 1_555
H10 C14 1_555 1_555
C15 C12 1_555 1_555
H11 C15 1_555 1_555
H12 C15 1_555 1_555
H13 C15 1_555 1_555
C16 C17 1_555 1_555
C17 O2 1_555 1_555
C18 C16 1_555 1_555
H14 C18 1_555 1_555
H15 C18 1_555 1_555
H16 C18 1_555 1_555
C19 C16 1_555 1_555
H17 C19 1_555 1_555
H18 C19 1_555 1_555
H19 C19 1_555 1_555
C20 C17 1_555 1_555
H20 C20 1_555 1_555
H21 C20 1_555 1_555
H22 C20 1_555 1_555
C21 C17 1_555 1_555
H23 C21 1_555 1_555
H24 C21 1_555 1_555
H25 C21 1_555 1_555
C7 C8 1_555 1_555
C13 C14 1_555 1_555

#END
