
#######################################################################
#
#                 Cambridge Crystallographic Data Centre
#                                CCDC 
#
#######################################################################
#
# If this CIF has been generated from an entry in the Cambridge 
# Structural Database, then it will include bibliographic, chemical, 
# crystal, experimental, refinement or atomic coordinate data resulting 
# from the CCDC's data processing and validation procedures.
#
#######################################################################

data_EJEGAD
_chemical_formula_moiety         'C20 H14 N1 P1'
_chemical_name_systematic        
1-(4-methylphenyl)[1,3]azaphospholo[4,5,1-jk]carbazole
_symmetry_cell_setting           orthorhombic
_symmetry_space_group_name_H-M   'P b c n'
_symmetry_Int_Tables_number      60
_space_group_name_Hall           '-P 2n 2ab'
loop_
_symmetry_equiv_pos_site_id
_symmetry_equiv_pos_as_xyz
1 x,y,z
2 1/2-x,1/2-y,1/2+z
3 -x,y,1/2-z
4 1/2+x,1/2-y,-z
5 -x,-y,-z
6 1/2+x,1/2+y,1/2-z
7 x,-y,1/2+z
8 1/2-x,1/2+y,z
_cell_length_a                   7.2209(6)
_cell_length_b                   20.1747(17)
_cell_length_c                   19.6804(14)
_cell_angle_alpha                90
_cell_angle_beta                 90
_cell_angle_gamma                90
_cell_volume                     2867.03
_exptl_crystal_colour            yellow
_exptl_crystal_description       block
_chemical_melting_point          '148-150 deg.C'
_cell_formula_units_Z            8
_chemical_properties_physical    Air-sensitive
_exptl_crystal_recrystallization_method 'Vapour diffusion'
_exptl_crystal_preparation       Luminescent
loop_
_atom_site_label
_atom_site_type_symbol
_atom_site_fract_x
_atom_site_fract_y
_atom_site_fract_z
P1 P 0.26809(11) 0.68454(4) 0.29804(4)
N1 N 0.2495(3) 0.56329(11) 0.34494(11)
C1 C 0.2553(4) 0.55816(14) 0.27521(14)
C2 C 0.2634(4) 0.61653(14) 0.23860(14)
C3 C 0.2638(4) 0.60662(15) 0.16747(14)
H1 H 0.2704 0.6435 0.1376
C4 C 0.2546(4) 0.54218(15) 0.14132(14)
H2 H 0.2571 0.5366 0.0934
C5 C 0.2417(4) 0.48549(14) 0.18225(14)
H3 H 0.2332 0.4427 0.1625
C6 C 0.2417(4) 0.49331(13) 0.25240(14)
C7 C 0.2188(4) 0.45387(14) 0.31423(14)
C8 C 0.1848(4) 0.38681(15) 0.32498(15)
H4 H 0.1877 0.3564 0.2881
C9 C 0.1463(4) 0.36497(14) 0.39068(15)
H5 H 0.1250 0.3192 0.3987
C10 C 0.1386(4) 0.40945(15) 0.44484(15)
H6 H 0.1081 0.3936 0.4889
C11 C 0.1749(4) 0.47683(14) 0.43558(14)
H7 H 0.1704 0.5070 0.4726
C12 C 0.2178(4) 0.49833(14) 0.37063(13)
C13 C 0.2554(4) 0.62895(13) 0.36571(14)
C14 C 0.2684(4) 0.64732(13) 0.43810(14)
C15 C 0.1805(4) 0.70432(14) 0.46203(14)
H8 H 0.1086 0.7304 0.4317
C16 C 0.1968(4) 0.72347(14) 0.52939(14)
H9 H 0.1360 0.7626 0.5444
C17 C 0.3005(4) 0.68654(14) 0.57557(14)
C18 C 0.3937(4) 0.63078(14) 0.55135(14)
H10 H 0.4676 0.6054 0.5817
C19 C 0.3804(4) 0.61173(14) 0.48388(14)
H11 H 0.4477 0.5742 0.4683
C20 C 0.3128(4) 0.70611(16) 0.64979(15)
H12 H 0.1879 0.7135 0.6677
H13 H 0.3854 0.7469 0.6541
H14 H 0.3729 0.6705 0.6755
loop_
_geom_bond_atom_site_label_1
_geom_bond_atom_site_label_2
_geom_bond_site_symmetry_1
_geom_bond_site_symmetry_2
P1 C2 1_555 1_555
N1 C1 1_555 1_555
C1 C2 1_555 1_555
C2 C3 1_555 1_555
C3 H1 1_555 1_555
C4 C3 1_555 1_555
H2 C4 1_555 1_555
C5 C4 1_555 1_555
H3 C5 1_555 1_555
C6 C1 1_555 1_555
C7 C6 1_555 1_555
C8 C7 1_555 1_555
H4 C8 1_555 1_555
C9 C8 1_555 1_555
H5 C9 1_555 1_555
C10 C9 1_555 1_555
H6 C10 1_555 1_555
C11 C10 1_555 1_555
H7 C11 1_555 1_555
C12 N1 1_555 1_555
C13 P1 1_555 1_555
C14 C13 1_555 1_555
C15 C14 1_555 1_555
H8 C15 1_555 1_555
C16 C15 1_555 1_555
H9 C16 1_555 1_555
C17 C16 1_555 1_555
C18 C17 1_555 1_555
H10 C18 1_555 1_555
C19 C14 1_555 1_555
H11 C19 1_555 1_555
C20 C17 1_555 1_555
H12 C20 1_555 1_555
H13 C20 1_555 1_555
H14 C20 1_555 1_555
N1 C13 1_555 1_555
C5 C6 1_555 1_555
C7 C12 1_555 1_555
C11 C12 1_555 1_555
C18 C19 1_555 1_555

#END
