
#######################################################################
#
#                 Cambridge Crystallographic Data Centre
#                                CCDC 
#
#######################################################################
#
# If this CIF has been generated from an entry in the Cambridge 
# Structural Database, then it will include bibliographic, chemical, 
# crystal, experimental, refinement or atomic coordinate data resulting 
# from the CCDC's data processing and validation procedures.
#
#######################################################################

data_EJEGUX
_chemical_formula_moiety         'C26 H24 O2,C4 H8 O2'
_chemical_name_systematic        
'4b,8b,12b,12d-tetramethyl-4b,8b,12b,12d-tetrahydrodibenzo[2,3:4,5]pentaleno[1,6-ab]indene-2,3-diol ethyl acetate solvate'
_symmetry_cell_setting           monoclinic
_symmetry_space_group_name_H-M   'P 21/c'
_symmetry_Int_Tables_number      14
_space_group_name_Hall           '-P 2ybc'
loop_
_symmetry_equiv_pos_site_id
_symmetry_equiv_pos_as_xyz
1 x,y,z
2 -x,1/2+y,1/2-z
3 -x,-y,-z
4 x,1/2-y,1/2+z
_cell_length_a                   9.8861(5)
_cell_length_b                   23.7464(14)
_cell_length_c                   10.5247(15)
_cell_angle_alpha                90
_cell_angle_beta                 96.553(7)
_cell_angle_gamma                90
_cell_volume                     2454.63
_exptl_crystal_colour            colorless
_exptl_crystal_description       block
_cell_formula_units_Z            4
loop_
_atom_site_label
_atom_site_type_symbol
_atom_site_fract_x
_atom_site_fract_y
_atom_site_fract_z
O1 O -0.1090(2) 0.23616(10) 0.8179(2)
H1 H -0.1075 0.2248 0.7445
O2 O -0.1044(2) 0.29545(9) 1.0405(2)
H2 H -0.1586 0.2718 1.0088
C1 C 0.3284(3) 0.33085(11) 0.7398(3)
C2 C 0.2856(3) 0.35717(12) 0.6112(3)
C3 C 0.2216(4) 0.33118(15) 0.5023(3)
H3 H 0.2040 0.2927 0.5026
C4 C 0.1846(5) 0.36233(17) 0.3945(4)
H4 H 0.1423 0.3448 0.3215
C5 C 0.2095(5) 0.41962(17) 0.3932(4)
H5 H 0.1822 0.4406 0.3201
C6 C 0.2749(4) 0.44576(15) 0.5001(4)
H6 H 0.2936 0.4841 0.4986
C7 C 0.3126(3) 0.41443(12) 0.6103(3)
C8 C 0.3864(3) 0.43477(11) 0.7355(3)
C9 C 0.3002(3) 0.47322(11) 0.8082(3)
C10 C 0.2539(3) 0.52717(12) 0.7717(4)
H7 H 0.2715 0.5422 0.6936
C11 C 0.1815(4) 0.55807(14) 0.8529(4)
H8 H 0.1508 0.5940 0.8295
C12 C 0.1551(3) 0.53572(13) 0.9681(4)
H9 H 0.1078 0.5570 1.0226
C13 C 0.1981(3) 0.48208(13) 1.0035(3)
H10 H 0.1787 0.4670 1.0810
C14 C 0.2711(3) 0.45059(11) 0.9222(3)
C15 C 0.3232(3) 0.39064(11) 0.9416(3)
C16 C 0.2045(3) 0.34918(11) 0.9212(3)
C17 C 0.1005(3) 0.34116(11) 0.9993(3)
H11 H 0.1005 0.3612 1.0752
C18 C -0.0020(3) 0.30302(11) 0.9619(3)
C19 C -0.0025(3) 0.27305(12) 0.8483(3)
C20 C 0.1023(3) 0.28021(11) 0.7735(3)
H12 H 0.1036 0.2596 0.6985
C21 C 0.2056(3) 0.31829(11) 0.8105(3)
C22 C 0.5561(3) 0.36577(16) 0.8611(4)
H13 H 0.5996 0.3578 0.7861
H14 H 0.5626 0.3334 0.9161
H15 H 0.6002 0.3972 0.9057
C23 C 0.4059(3) 0.37988(11) 0.8220(3)
C24 C 0.5187(4) 0.46604(15) 0.7111(4)
H16 H 0.4960 0.4987 0.6593
H17 H 0.5751 0.4414 0.6676
H18 H 0.5671 0.4774 0.7913
C25 C 0.4028(3) 0.38346(14) 1.0747(3)
H19 H 0.3428 0.3893 1.1390
H20 H 0.4755 0.4104 1.0856
H21 H 0.4399 0.3461 1.0827
C26 C 0.4086(4) 0.27603(13) 0.7266(4)
H22 H 0.4384 0.2613 0.8100
H23 H 0.4864 0.2837 0.6824
H24 H 0.3512 0.2489 0.6791
O3 O 0.2837(4) 0.70585(13) 0.4611(4)
O4 O 0.2353(3) 0.61488(12) 0.4810(3)
C27 C 0.4231(6) 0.6489(2) 0.6095(5)
H25 H 0.4992 0.6725 0.5966
H26 H 0.4487 0.6101 0.6034
H27 H 0.3958 0.6560 0.6927
C28 C 0.3091(5) 0.66135(17) 0.5114(5)
C29 C 0.1203(6) 0.6222(3) 0.3853(7)
H28 H 0.0480 0.6411 0.4236
H29 H 0.1468 0.6462 0.3178
C30 C 0.0720(6) 0.5729(3) 0.3333(7)
H30 H -0.0026 0.5803 0.2688
H31 H 0.0413 0.5496 0.3988
H32 H 0.1431 0.5538 0.2954
loop_
_geom_bond_atom_site_label_1
_geom_bond_atom_site_label_2
_geom_bond_site_symmetry_1
_geom_bond_site_symmetry_2
O1 H1 1_555 1_555
O2 H2 1_555 1_555
C1 C2 1_555 1_555
C2 C3 1_555 1_555
C3 H3 1_555 1_555
C4 C3 1_555 1_555
H4 C4 1_555 1_555
C5 C4 1_555 1_555
H5 C5 1_555 1_555
C6 C5 1_555 1_555
H6 C6 1_555 1_555
C7 C2 1_555 1_555
C8 C7 1_555 1_555
C9 C8 1_555 1_555
C10 C9 1_555 1_555
H7 C10 1_555 1_555
C11 C10 1_555 1_555
H8 C11 1_555 1_555
C12 C11 1_555 1_555
H9 C12 1_555 1_555
C13 C12 1_555 1_555
H10 C13 1_555 1_555
C14 C9 1_555 1_555
C15 C14 1_555 1_555
C16 C15 1_555 1_555
C17 C16 1_555 1_555
H11 C17 1_555 1_555
C18 O2 1_555 1_555
C19 O1 1_555 1_555
C20 C19 1_555 1_555
H12 C20 1_555 1_555
C21 C1 1_555 1_555
C22 H13 1_555 1_555
H14 C22 1_555 1_555
H15 C22 1_555 1_555
C23 C1 1_555 1_555
C24 C8 1_555 1_555
H16 C24 1_555 1_555
H17 C24 1_555 1_555
H18 C24 1_555 1_555
C25 C15 1_555 1_555
H19 C25 1_555 1_555
H20 C25 1_555 1_555
H21 C25 1_555 1_555
C26 C1 1_555 1_555
H22 C26 1_555 1_555
H23 C26 1_555 1_555
H24 C26 1_555 1_555
O3 C28 1_555 1_555
O4 C28 1_555 1_555
C27 H25 1_555 1_555
H26 C27 1_555 1_555
H27 C27 1_555 1_555
C28 C27 1_555 1_555
C29 O4 1_555 1_555
H28 C29 1_555 1_555
H29 C29 1_555 1_555
C30 C29 1_555 1_555
H30 C30 1_555 1_555
H31 C30 1_555 1_555
H32 C30 1_555 1_555
C6 C7 1_555 1_555
C8 C23 1_555 1_555
C13 C14 1_555 1_555
C15 C23 1_555 1_555
C16 C21 1_555 1_555
C17 C18 1_555 1_555
C18 C19 1_555 1_555
C20 C21 1_555 1_555
C22 C23 1_555 1_555

#END
