
#######################################################################
#
#                 Cambridge Crystallographic Data Centre
#                                CCDC 
#
#######################################################################
#
# If this CIF has been generated from an entry in the Cambridge 
# Structural Database, then it will include bibliographic, chemical, 
# crystal, experimental, refinement or atomic coordinate data resulting 
# from the CCDC's data processing and validation procedures.
#
#######################################################################

data_EJEKIP
_chemical_formula_moiety         'C27 H26 O1'
_chemical_name_systematic        
1-methoxy-4b,8b,12b,12d-tetramethyl-4b,8b,12b,12d-tetrahydrodibenzo[2,3:4,5]pentaleno[1,6-ab]indene
_symmetry_cell_setting           orthorhombic
_symmetry_space_group_name_H-M   'P n 21 a'
_symmetry_Int_Tables_number      33
_space_group_name_Hall           'P -2ac -2n'
loop_
_symmetry_equiv_pos_site_id
_symmetry_equiv_pos_as_xyz
1 x,y,z
2 -x,1/2+y,-z
3 1/2+x,y,1/2-z
4 1/2-x,1/2+y,1/2+z
_cell_length_a                   20.9274(10)
_cell_length_b                   15.0038(6)
_cell_length_c                   6.3388(4)
_cell_angle_alpha                90
_cell_angle_beta                 90
_cell_angle_gamma                90
_cell_volume                     1990.32
_exptl_crystal_colour            colorless
_exptl_crystal_description       block
_cell_formula_units_Z            4
loop_
_atom_site_label
_atom_site_type_symbol
_atom_site_fract_x
_atom_site_fract_y
_atom_site_fract_z
O1 O -0.8006(2) -0.5636(4) -0.8687(8)
C1 C -0.7442(3) -0.5162(4) -0.8745(13)
C2 C -0.7351(4) -0.4397(5) -0.9948(12)
H1 H -0.7682 -0.4186 -1.0793
C3 C -0.6780(4) -0.3949(5) -0.9900(13)
H2 H -0.6732 -0.3431 -1.0691
C4 C -0.6285(3) -0.4247(4) -0.8723(13)
H3 H -0.5900 -0.3938 -0.8704
C5 C -0.6360(3) -0.5029(4) -0.7529(11)
C6 C -0.6935(3) -0.5509(4) -0.7541(10)
C7 C -0.69121(18) -0.6342(5) -0.6202(7)
C8 C -0.62166(19) -0.6316(6) -0.5197(7)
C9 C -0.5862(3) -0.5492(4) -0.6141(11)
C10 C -0.5315(3) -0.5872(4) -0.7469(11)
C11 C -0.4850(3) -0.5396(5) -0.8553(14)
H4 H -0.4840 -0.4776 -0.8510
C12 C -0.4402(4) -0.5867(8) -0.9695(17)
H5 H -0.4094 -0.5558 -1.0460
C13 C -0.4402(4) -0.6791(7) -0.9725(18)
H6 H -0.4098 -0.7104 -1.0501
C14 C -0.4857(3) -0.7231(5) -0.8589(15)
H7 H -0.4853 -0.7851 -0.8591
C15 C -0.5322(3) -0.6802(4) -0.7442(11)
C16 C -0.5854(3) -0.7184(4) -0.6130(11)
C17 C -0.6351(3) -0.7620(4) -0.7532(11)
C18 C -0.6258(4) -0.8388(5) -0.8665(15)
H8 H -0.5868 -0.8683 -0.8625
C19 C -0.6771(4) -0.8722(5) -0.9900(14)
H9 H -0.6714 -0.9231 -1.0716
C20 C -0.7353(4) -0.8293(5) -0.9891(13)
H10 H -0.7693 -0.8531 -1.0649
C21 C -0.7437(3) -0.7519(5) -0.8777(13)
H11 H -0.7825 -0.7217 -0.8823
C22 C -0.6924(3) -0.7188(4) -0.7560(9)
C23 C -0.5606(4) -0.4800(6) -0.4517(14)
H12 H -0.5377 -0.4340 -0.5247
H13 H -0.5325 -0.5092 -0.3539
H14 H -0.5958 -0.4542 -0.3764
C24 C -0.6222(2) -0.6336(7) -0.2791(7)
H15 H -0.5793 -0.6401 -0.2278
H16 H -0.6476 -0.6829 -0.2314
H17 H -0.6401 -0.5790 -0.2265
C25 C -0.5596(4) -0.7841(5) -0.4526(13)
H18 H -0.5438 -0.8360 -0.5242
H19 H -0.5932 -0.8011 -0.3576
H20 H -0.5255 -0.7568 -0.3745
C26 C -0.7464(2) -0.6335(7) -0.4603(8)
H21 H -0.7864 -0.6371 -0.5340
H22 H -0.7450 -0.5792 -0.3800
H23 H -0.7423 -0.6835 -0.3670
C27 C -0.8508(4) -0.5363(6) -1.0063(14)
H24 H -0.8360 -0.5377 -1.1495
H25 H -0.8639 -0.4769 -0.9708
H26 H -0.8864 -0.5762 -0.9912
loop_
_geom_bond_atom_site_label_1
_geom_bond_atom_site_label_2
_geom_bond_site_symmetry_1
_geom_bond_site_symmetry_2
O1 C1 1_555 1_555
C1 C2 1_555 1_555
C2 H1 1_555 1_555
C3 C2 1_555 1_555
H2 C3 1_555 1_555
C4 C3 1_555 1_555
H3 C4 1_555 1_555
C5 C4 1_555 1_555
C6 C1 1_555 1_555
C7 C6 1_555 1_555
C8 C7 1_555 1_555
C9 C5 1_555 1_555
C10 C9 1_555 1_555
C11 C10 1_555 1_555
H4 C11 1_555 1_555
C12 C11 1_555 1_555
H5 C12 1_555 1_555
C13 C12 1_555 1_555
H6 C13 1_555 1_555
C14 C13 1_555 1_555
H7 C14 1_555 1_555
C15 C10 1_555 1_555
C16 C8 1_555 1_555
C17 C16 1_555 1_555
C18 C17 1_555 1_555
H8 C18 1_555 1_555
C19 C18 1_555 1_555
H9 C19 1_555 1_555
C20 C19 1_555 1_555
H10 C20 1_555 1_555
C21 C20 1_555 1_555
H11 C21 1_555 1_555
C22 C7 1_555 1_555
C23 C9 1_555 1_555
H12 C23 1_555 1_555
H13 C23 1_555 1_555
H14 C23 1_555 1_555
C24 C8 1_555 1_555
H15 C24 1_555 1_555
H16 C24 1_555 1_555
H17 C24 1_555 1_555
C25 C16 1_555 1_555
H18 C25 1_555 1_555
H19 C25 1_555 1_555
H20 C25 1_555 1_555
C26 C7 1_555 1_555
H21 C26 1_555 1_555
H22 C26 1_555 1_555
H23 C26 1_555 1_555
C27 O1 1_555 1_555
H24 C27 1_555 1_555
H25 C27 1_555 1_555
H26 C27 1_555 1_555
C5 C6 1_555 1_555
C8 C9 1_555 1_555
C14 C15 1_555 1_555
C15 C16 1_555 1_555
C17 C22 1_555 1_555
C21 C22 1_555 1_555

#END
