
#######################################################################
#
#                 Cambridge Crystallographic Data Centre
#                                CCDC 
#
#######################################################################
#
# If this CIF has been generated from an entry in the Cambridge 
# Structural Database, then it will include bibliographic, chemical, 
# crystal, experimental, refinement or atomic coordinate data resulting 
# from the CCDC's data processing and validation procedures.
#
#######################################################################

data_EJEQOB
_chemical_name_common            'chrysin D-proline'
_chemical_formula_moiety         'C15 H10 O4,C5 H9 N1 O2'
_chemical_name_systematic        
'pyrrolidinium-2-carboxylate 5,7-dihydroxy-2-phenyl-4H-chromen-4-one'
_symmetry_cell_setting           orthorhombic
_symmetry_space_group_name_H-M   'P 21 21 21'
_symmetry_Int_Tables_number      19
_space_group_name_Hall           'P 2ac 2ab'
loop_
_symmetry_equiv_pos_site_id
_symmetry_equiv_pos_as_xyz
1 x,y,z
2 1/2+x,1/2-y,-z
3 -x,1/2+y,1/2-z
4 1/2-x,-y,1/2+z
_cell_length_a                   5.28850(10)
_cell_length_b                   17.8969(4)
_cell_length_c                   18.2417(4)
_cell_angle_alpha                90
_cell_angle_beta                 90
_cell_angle_gamma                90
_cell_volume                     1726.54
_exptl_crystal_colour            colorless
_exptl_crystal_description       plate
_cell_formula_units_Z            4
loop_
_atom_site_label
_atom_site_type_symbol
_atom_site_fract_x
_atom_site_fract_y
_atom_site_fract_z
O1 O 1.1220(3) 0.29159(8) 0.75934(7)
O2 O 1.1027(2) 0.30126(7) 0.88126(7)
C1 C 1.0063(3) 0.29026(10) 0.81897(10)
C2 C 0.7263(3) 0.27073(11) 0.81693(10)
H1 H 0.6387 0.3013 0.7803
N1 N 0.6071(3) 0.28084(8) 0.89109(8)
H2 H 0.6983 0.3129 0.9184
H3 H 0.4491 0.2989 0.8865
C3 C 0.6027(4) 0.20561(11) 0.92594(10)
H4 H 0.4782 0.2032 0.9649
H5 H 0.7673 0.1923 0.9454
C4 C 0.6903(4) 0.18692(12) 0.80015(12)
H6 H 0.6049 0.1803 0.7535
H7 H 0.8525 0.1617 0.7981
C5 C 0.5304(4) 0.15592(11) 0.86237(11)
H8 H 0.3515 0.1598 0.8514
H9 H 0.5719 0.1041 0.8723
O3 O 0.1200(2) 0.59138(7) 0.96798(7)
O4 O -0.3421(3) 0.72803(8) 1.14145(8)
H10 H -0.4609 0.7240 1.1701
O5 O -0.3127(2) 0.40434(7) 0.99642(7)
O6 O -0.5669(3) 0.47504(8) 1.09653(8)
H11 H -0.5203 0.4398 1.0712
C6 C -0.4173(4) 0.53496(11) 1.08321(10)
C7 C -0.2207(4) 0.52880(10) 1.03117(9)
C8 C -0.0712(3) 0.59221(11) 1.01896(9)
C9 C 0.1656(3) 0.52795(11) 0.92922(10)
C10 C 0.3726(4) 0.53717(10) 0.87571(9)
C11 C 0.5324(4) 0.59902(11) 0.87774(11)
H12 H 0.5066 0.6364 0.9124
C12 C 0.7303(4) 0.60484(12) 0.82799(11)
H13 H 0.8374 0.6460 0.8298
C13 C 0.7694(4) 0.55031(12) 0.77597(11)
H14 H 0.9033 0.5544 0.7432
C14 C -0.4597(4) 0.60079(12) 1.12044(10)
H15 H -0.5896 0.6041 1.1546
C15 C -0.3061(4) 0.66232(11) 1.10633(10)
C16 C -0.1107(4) 0.65908(11) 1.05533(10)
H16 H -0.0097 0.7006 1.0460
C17 C 0.6100(4) 0.48973(13) 0.77265(11)
H17 H 0.6348 0.4533 0.7370
C18 C 0.4126(4) 0.48253(12) 0.82206(11)
H18 H 0.3062 0.4412 0.8196
C19 C 0.0311(4) 0.46490(11) 0.93946(10)
H19 H 0.0741 0.4222 0.9133
C20 C -0.1757(3) 0.46217(10) 0.98953(10)
loop_
_geom_bond_atom_site_label_1
_geom_bond_atom_site_label_2
_geom_bond_site_symmetry_1
_geom_bond_site_symmetry_2
O1 C1 1_555 1_555
O2 C1 1_555 1_555
C1 C2 1_555 1_555
C2 H1 1_555 1_555
N1 C2 1_555 1_555
H2 N1 1_555 1_555
H3 N1 1_555 1_555
C3 N1 1_555 1_555
H4 C3 1_555 1_555
H5 C3 1_555 1_555
C4 C2 1_555 1_555
H6 C4 1_555 1_555
H7 C4 1_555 1_555
C5 C3 1_555 1_555
H8 C5 1_555 1_555
H9 C5 1_555 1_555
O3 C8 1_555 1_555
O4 H10 1_555 1_555
O5 C20 1_555 1_555
O6 H11 1_555 1_555
C6 O6 1_555 1_555
C7 C6 1_555 1_555
C8 C7 1_555 1_555
C9 O3 1_555 1_555
C10 C9 1_555 1_555
C11 C10 1_555 1_555
H12 C11 1_555 1_555
C12 C11 1_555 1_555
H13 C12 1_555 1_555
C13 C12 1_555 1_555
H14 C13 1_555 1_555
C14 C6 1_555 1_555
H15 C14 1_555 1_555
C15 O4 1_555 1_555
C16 C8 1_555 1_555
H16 C16 1_555 1_555
C17 C13 1_555 1_555
H17 C17 1_555 1_555
C18 C10 1_555 1_555
H18 C18 1_555 1_555
C19 C9 1_555 1_555
H19 C19 1_555 1_555
C20 C7 1_555 1_555
C4 C5 1_555 1_555
C14 C15 1_555 1_555
C15 C16 1_555 1_555
C17 C18 1_555 1_555
C19 C20 1_555 1_555

#END
