
#######################################################################
#
#                 Cambridge Crystallographic Data Centre
#                                CCDC 
#
#######################################################################
#
# If this CIF has been generated from an entry in the Cambridge 
# Structural Database, then it will include bibliographic, chemical, 
# crystal, experimental, refinement or atomic coordinate data resulting 
# from the CCDC's data processing and validation procedures.
#
#######################################################################

data_EJEVEW
_chemical_formula_moiety         'C54 H40 N2'
_chemical_name_systematic        
N-(8-(biphenyl-4-yl)-2,4-bis(diphenylmethyl)-1-naphthyl)-1-(pyridin-2-yl)methanimine
_symmetry_cell_setting           orthorhombic
_symmetry_space_group_name_H-M   'P b c a'
_symmetry_Int_Tables_number      61
_space_group_name_Hall           '-P 2ac 2ab'
loop_
_symmetry_equiv_pos_site_id
_symmetry_equiv_pos_as_xyz
1 x,y,z
2 1/2-x,-y,1/2+z
3 1/2+x,1/2-y,-z
4 -x,1/2+y,1/2-z
5 -x,-y,-z
6 1/2+x,y,1/2-z
7 1/2-x,1/2+y,z
8 x,1/2-y,1/2+z
_cell_length_a                   11.0573(12)
_cell_length_b                   25.485(3)
_cell_length_c                   28.816(3)
_cell_angle_alpha                90
_cell_angle_beta                 90
_cell_angle_gamma                90
_cell_volume                     8120.21
_cell_formula_units_Z            8
loop_
_atom_site_label
_atom_site_type_symbol
_atom_site_fract_x
_atom_site_fract_y
_atom_site_fract_z
N1 N 0.33600(13) 0.30730(5) 0.64423(5)
N2 N 0.17624(17) 0.37034(8) 0.73414(7)
C1 C 0.25289(18) 0.32200(7) 0.67121(7)
H1 H 0.1732 0.3156 0.6626
C2 C 0.27496(19) 0.34867(7) 0.71552(6)
C3 C 0.1896(3) 0.39799(10) 0.77313(9)
H2 H 0.1217 0.4138 0.7861
C4 C 0.2962(2) 0.40408(9) 0.79453(8)
H3 H 0.3013 0.4237 0.8216
C5 C 0.3964(2) 0.38148(9) 0.77647(7)
H4 H 0.4709 0.3849 0.7911
C6 C 0.3853(2) 0.35303(8) 0.73547(7)
H5 H 0.4525 0.3373 0.7220
C7 C 0.30107(16) 0.28338(6) 0.60179(5)
C8 C 0.32559(16) 0.23042(6) 0.59692(6)
C9 C 0.28524(16) 0.20428(7) 0.55689(6)
H6 H 0.3062 0.1692 0.5530
C10 C 0.21689(17) 0.22776(7) 0.52353(6)
C11 C 0.19016(16) 0.28256(7) 0.52796(6)
C12 C 0.23966(16) 0.31187(7) 0.56590(6)
C13 C 0.22056(17) 0.36783(7) 0.56682(6)
C14 C 0.1417(2) 0.38948(8) 0.53542(7)
H7 H 0.1249 0.4252 0.5374
C15 C 0.0862(2) 0.36027(8) 0.50088(7)
H8 H 0.0303 0.3760 0.4812
C16 C 0.11391(18) 0.30865(8) 0.49590(6)
H9 H 0.0822 0.2901 0.4709
C17 C 0.29011(18) 0.40419(7) 0.59721(6)
C18 C 0.41518(19) 0.40621(7) 0.59446(6)
H10 H 0.4554 0.3845 0.5736
C19 C 0.48068(18) 0.43980(7) 0.62208(7)
H11 H 0.5645 0.4402 0.6196
C20 C 0.42476(18) 0.47315(7) 0.65358(6)
C21 C 0.29946(19) 0.47217(7) 0.65498(7)
H12 H 0.2589 0.4948 0.6750
C22 C 0.23341(18) 0.43843(7) 0.62732(7)
H13 H 0.1494 0.4388 0.6290
C23 C 0.49586(18) 0.50576(7) 0.68641(7)
C24 C 0.60607(19) 0.52807(7) 0.67395(7)
H14 H 0.6341 0.5246 0.6437
C25 C 0.6742(2) 0.55534(8) 0.70606(8)
H15 H 0.7475 0.5701 0.6971
C26 C 0.6351(2) 0.56088(8) 0.75097(8)
H16 H 0.6821 0.5789 0.7725
C27 C 0.5272(2) 0.53984(8) 0.76363(7)
H17 H 0.4998 0.5438 0.7939
C28 C 0.4578(2) 0.51262(8) 0.73195(7)
H18 H 0.3841 0.4986 0.7413
C29 C 0.16845(19) 0.19675(7) 0.48200(6)
H19 H 0.0841 0.2076 0.4778
C30 C 0.2339(2) 0.21017(7) 0.43711(6)
C31 C 0.1773(2) 0.20256(8) 0.39470(7)
H20 H 0.0982 0.1902 0.3937
C32 C 0.2381(3) 0.21331(9) 0.35377(8)
H21 H 0.1991 0.2083 0.3255
C33 C 0.3543(3) 0.23114(11) 0.35424(9)
H22 H 0.3945 0.2379 0.3265
C34 C 0.4112(3) 0.23892(11) 0.39556(9)
H23 H 0.4903 0.2513 0.3962
C35 C 0.3509(2) 0.22838(9) 0.43660(7)
H24 H 0.3907 0.2338 0.4646
C36 C 0.1663(2) 0.13762(9) 0.49213(7)
C37 C 0.2531(3) 0.10392(9) 0.47572(9)
H25 H 0.3138 0.1163 0.4562
C38 C 0.2501(4) 0.05110(12) 0.48837(13)
H26 H 0.3094 0.0283 0.4774
C39 C 0.1611(6) 0.03265(16) 0.51656(18)
H27 H 0.1600 -0.0026 0.5248
C40 C 0.0743(5) 0.06521(16) 0.53264(14)
H28 H 0.0136 0.0523 0.5518
C41 C 0.0753(3) 0.11822(11) 0.52051(9)
H29 H 0.0151 0.1405 0.5314
C42 C 0.38035(16) 0.20099(6) 0.63801(6)
H30 H 0.4376 0.2253 0.6526
C43 C 0.45284(18) 0.15225(7) 0.62514(6)
C44 C 0.5786(2) 0.15559(8) 0.62323(6)
H31 H 0.6158 0.1876 0.6292
C45 C 0.6490(2) 0.11263(10) 0.61272(8)
H32 H 0.7327 0.1158 0.6119
C46 C 0.5960(3) 0.06519(10) 0.60343(8)
H33 H 0.6435 0.0362 0.5963
C47 C 0.4731(3) 0.06087(8) 0.60467(7)
H34 H 0.4369 0.0288 0.5979
C48 C 0.4016(2) 0.10372(7) 0.61591(7)
H35 H 0.3180 0.0998 0.6173
C49 C 0.28389(17) 0.18939(7) 0.67444(6)
C50 C 0.3072(2) 0.19963(8) 0.72077(6)
H36 H 0.3801 0.2151 0.7292
C51 C 0.2240(3) 0.18720(9) 0.75456(8)
H37 H 0.2417 0.1940 0.7855
C52 C 0.1159(3) 0.16501(9) 0.74310(9)
H38 H 0.0606 0.1561 0.7661
C53 C 0.0896(2) 0.15590(9) 0.69756(9)
H39 H 0.0154 0.1413 0.6895
C54 C 0.17243(19) 0.16828(8) 0.66312(8)
H40 H 0.1529 0.1623 0.6322
loop_
_geom_bond_atom_site_label_1
_geom_bond_atom_site_label_2
_geom_bond_site_symmetry_1
_geom_bond_site_symmetry_2
N1 C1 1_555 1_555
N2 C2 1_555 1_555
C1 H1 1_555 1_555
C2 C1 1_555 1_555
C3 N2 1_555 1_555
H2 C3 1_555 1_555
C4 C3 1_555 1_555
H3 C4 1_555 1_555
C5 C4 1_555 1_555
H4 C5 1_555 1_555
C6 C2 1_555 1_555
H5 C6 1_555 1_555
C7 N1 1_555 1_555
C8 C7 1_555 1_555
C9 C8 1_555 1_555
H6 C9 1_555 1_555
C10 C9 1_555 1_555
C11 C10 1_555 1_555
C12 C7 1_555 1_555
C13 C12 1_555 1_555
C14 C13 1_555 1_555
H7 C14 1_555 1_555
C15 C14 1_555 1_555
H8 C15 1_555 1_555
C16 C11 1_555 1_555
H9 C16 1_555 1_555
C17 C13 1_555 1_555
C18 C17 1_555 1_555
H10 C18 1_555 1_555
C19 C18 1_555 1_555
H11 C19 1_555 1_555
C20 C19 1_555 1_555
C21 C20 1_555 1_555
H12 C21 1_555 1_555
C22 C17 1_555 1_555
H13 C22 1_555 1_555
C23 C20 1_555 1_555
C24 C23 1_555 1_555
H14 C24 1_555 1_555
C25 C24 1_555 1_555
H15 C25 1_555 1_555
C26 C25 1_555 1_555
H16 C26 1_555 1_555
C27 C26 1_555 1_555
H17 C27 1_555 1_555
C28 C23 1_555 1_555
H18 C28 1_555 1_555
C29 C10 1_555 1_555
H19 C29 1_555 1_555
C30 C29 1_555 1_555
C31 C30 1_555 1_555
H20 C31 1_555 1_555
C32 C31 1_555 1_555
H21 C32 1_555 1_555
C33 C32 1_555 1_555
H22 C33 1_555 1_555
C34 C33 1_555 1_555
H23 C34 1_555 1_555
C35 C30 1_555 1_555
H24 C35 1_555 1_555
C36 C29 1_555 1_555
C37 C36 1_555 1_555
H25 C37 1_555 1_555
C38 C37 1_555 1_555
H26 C38 1_555 1_555
C39 C38 1_555 1_555
H27 C39 1_555 1_555
C40 C39 1_555 1_555
H28 C40 1_555 1_555
C41 C36 1_555 1_555
H29 C41 1_555 1_555
C42 C8 1_555 1_555
H30 C42 1_555 1_555
C43 C42 1_555 1_555
C44 C43 1_555 1_555
H31 C44 1_555 1_555
C45 C44 1_555 1_555
H32 C45 1_555 1_555
C46 C45 1_555 1_555
H33 C46 1_555 1_555
C47 C46 1_555 1_555
H34 C47 1_555 1_555
C48 C43 1_555 1_555
H35 C48 1_555 1_555
C49 C42 1_555 1_555
C50 C49 1_555 1_555
H36 C50 1_555 1_555
C51 C50 1_555 1_555
H37 C51 1_555 1_555
C52 C51 1_555 1_555
H38 C52 1_555 1_555
C53 C52 1_555 1_555
H39 C53 1_555 1_555
C54 C49 1_555 1_555
H40 C54 1_555 1_555
C5 C6 1_555 1_555
C11 C12 1_555 1_555
C15 C16 1_555 1_555
C21 C22 1_555 1_555
C27 C28 1_555 1_555
C34 C35 1_555 1_555
C40 C41 1_555 1_555
C47 C48 1_555 1_555
C53 C54 1_555 1_555

#END
