
#######################################################################
#
#                 Cambridge Crystallographic Data Centre
#                                CCDC 
#
#######################################################################
#
# If this CIF has been generated from an entry in the Cambridge 
# Structural Database, then it will include bibliographic, chemical, 
# crystal, experimental, refinement or atomic coordinate data resulting 
# from the CCDC's data processing and validation procedures.
#
#######################################################################

data_EJUCAO
_chemical_formula_moiety         'C28 H21 N1 O1'
_chemical_name_systematic        4-(Diphenylmethyl)-2,5-diphenyl-1,3-oxazole
_symmetry_cell_setting           monoclinic
_symmetry_space_group_name_H-M   'C 2/c'
_symmetry_Int_Tables_number      15
_space_group_name_Hall           '-C 2yn'
loop_
_symmetry_equiv_pos_site_id
_symmetry_equiv_pos_as_xyz
1 x,y,z
2 -x,y,1/2-z
3 1/2+x,1/2+y,z
4 1/2-x,1/2+y,1/2-z
5 -x,-y,-z
6 x,-y,1/2+z
7 1/2-x,1/2-y,-z
8 1/2+x,1/2-y,1/2+z
_cell_length_a                   44.1113(14)
_cell_length_b                   5.7583(2)
_cell_length_c                   17.4068(6)
_cell_angle_alpha                90
_cell_angle_beta                 112.476(2)
_cell_angle_gamma                90
_cell_volume                     4085.58
_exptl_crystal_colour            colorless
_exptl_crystal_description       block
_cell_formula_units_Z            8
loop_
_atom_site_label
_atom_site_type_symbol
_atom_site_fract_x
_atom_site_fract_y
_atom_site_fract_z
C1 C 0.16715(3) 0.1318(2) 0.11155(8)
C2 C 0.15127(3) 0.3946(2) 0.17741(7)
C3 C 0.12547(3) 0.3239(2) 0.10931(7)
C4 C 0.19014(3) -0.0314(2) 0.09837(8)
C5 C 0.22388(3) 0.0008(3) 0.13696(12)
H1 H 0.2325 0.1316 0.1718
C6 C 0.24482(4) -0.1596(4) 0.12416(16)
H2 H 0.2679 -0.1390 0.1508
C7 C 0.23263(4) -0.3495(4) 0.07314(14)
H3 H 0.2473 -0.4572 0.0643
C8 C 0.19919(4) -0.3831(3) 0.03498(11)
H4 H 0.1908 -0.5140 0.0001
C9 C 0.17800(3) -0.2250(2) 0.04786(8)
H5 H 0.1550 -0.2485 0.0221
C10 C 0.15439(3) 0.5576(2) 0.24464(7)
C11 C 0.17866(4) 0.7280(3) 0.26989(9)
H6 H 0.1948 0.7345 0.2463
C12 C 0.17900(5) 0.8890(3) 0.33019(11)
H7 H 0.1952 1.0076 0.3467
C13 C 0.15603(5) 0.8777(3) 0.36606(10)
H8 H 0.1564 0.9889 0.4068
C14 C 0.13263(4) 0.7066(3) 0.34325(10)
H9 H 0.1171 0.6970 0.3689
C15 C 0.13168(3) 0.5475(3) 0.28242(8)
H10 H 0.1153 0.4301 0.2663
C16 C 0.09077(3) 0.4129(2) 0.07914(7)
H11 H 0.0916 0.5627 0.1090
C17 C 0.06755(3) 0.2549(2) 0.10115(7)
C18 C 0.03479(3) 0.3233(2) 0.07800(7)
H12 H 0.0276 0.4660 0.0494
C19 C 0.01266(3) 0.1858(3) 0.09629(8)
H13 H -0.0095 0.2340 0.0801
C20 C 0.02293(3) -0.0222(3) 0.13834(8)
H14 H 0.0077 -0.1182 0.1501
C21 C 0.05533(3) -0.0897(2) 0.16311(8)
H15 H 0.0624 -0.2308 0.1929
C22 C 0.07763(3) 0.0481(2) 0.14467(8)
H16 H 0.0999 0.0004 0.1620
C23 C 0.07803(3) 0.47234(19) -0.01344(7)
C24 C 0.05929(3) 0.3158(2) -0.07384(7)
H17 H 0.0542 0.1678 -0.0578
C25 C 0.04796(3) 0.3749(3) -0.15765(8)
H18 H 0.0349 0.2678 -0.1984
C26 C 0.05557(3) 0.5889(3) -0.18214(8)
H19 H 0.0479 0.6285 -0.2394
C27 C 0.07446(3) 0.7442(2) -0.12250(9)
H20 H 0.0800 0.8904 -0.1389
C28 C 0.08543(3) 0.6875(2) -0.03850(8)
H21 H 0.0981 0.7964 0.0021
N1 N 0.13594(2) 0.15392(18) 0.06776(6)
O1 O 0.17869(2) 0.27470(16) 0.17909(6)
loop_
_geom_bond_atom_site_label_1
_geom_bond_atom_site_label_2
_geom_bond_site_symmetry_1
_geom_bond_site_symmetry_2
C1 C4 1_555 1_555
C2 C3 1_555 1_555
C3 C16 1_555 1_555
C4 C5 1_555 1_555
C5 H1 1_555 1_555
C6 C5 1_555 1_555
H2 C6 1_555 1_555
C7 C6 1_555 1_555
H3 C7 1_555 1_555
C8 C7 1_555 1_555
H4 C8 1_555 1_555
C9 C4 1_555 1_555
H5 C9 1_555 1_555
C10 C2 1_555 1_555
C11 C10 1_555 1_555
H6 C11 1_555 1_555
C12 C11 1_555 1_555
H7 C12 1_555 1_555
C13 C12 1_555 1_555
H8 C13 1_555 1_555
C14 C13 1_555 1_555
H9 C14 1_555 1_555
C15 C10 1_555 1_555
H10 C15 1_555 1_555
C16 H11 1_555 1_555
C17 C16 1_555 1_555
C18 C17 1_555 1_555
H12 C18 1_555 1_555
C19 C18 1_555 1_555
H13 C19 1_555 1_555
C20 C19 1_555 1_555
H14 C20 1_555 1_555
C21 C20 1_555 1_555
H15 C21 1_555 1_555
C22 C17 1_555 1_555
H16 C22 1_555 1_555
C23 C16 1_555 1_555
C24 C23 1_555 1_555
H17 C24 1_555 1_555
C25 C24 1_555 1_555
H18 C25 1_555 1_555
C26 C25 1_555 1_555
H19 C26 1_555 1_555
C27 C26 1_555 1_555
H20 C27 1_555 1_555
C28 C23 1_555 1_555
H21 C28 1_555 1_555
N1 C1 1_555 1_555
O1 C1 1_555 1_555
C2 O1 1_555 1_555
C3 N1 1_555 1_555
C8 C9 1_555 1_555
C14 C15 1_555 1_555
C21 C22 1_555 1_555
C27 C28 1_555 1_555

#END
