
#######################################################################
#
#                 Cambridge Crystallographic Data Centre
#                                CCDC 
#
#######################################################################
#
# If this CIF has been generated from an entry in the Cambridge 
# Structural Database, then it will include bibliographic, chemical, 
# crystal, experimental, refinement or atomic coordinate data resulting 
# from the CCDC's data processing and validation procedures.
#
#######################################################################

data_EJUDOE
_chemical_formula_moiety         'C33 H26 N2 O1'
_chemical_name_systematic        
2-((4-(2-(4-(Diphenylamino)phenyl)vinyl)phenyl)carbonoimidoyl)phenol
_symmetry_cell_setting           triclinic
_symmetry_space_group_name_H-M   'P -1'
_symmetry_Int_Tables_number      2
_space_group_name_Hall           '-P 1'
loop_
_symmetry_equiv_pos_site_id
_symmetry_equiv_pos_as_xyz
1 x,y,z
2 -x,-y,-z
_cell_length_a                   10.2940(8)
_cell_length_b                   15.1831(13)
_cell_length_c                   24.780(2)
_cell_angle_alpha                98.611(2)
_cell_angle_beta                 97.2170(10)
_cell_angle_gamma                95.4440(10)
_cell_volume                     3773.39
_cell_formula_units_Z            6
loop_
_atom_site_label
_atom_site_type_symbol
_atom_site_fract_x
_atom_site_fract_y
_atom_site_fract_z
N1 N 0.1820(6) -0.1099(5) 0.4099(3)
N2 N 0.5043(8) 0.4072(5) 0.8432(3)
O1 O 0.2397(5) -0.1549(4) 0.31077(19)
H1 H 0.2426 -0.1247 0.3413
C1 C 0.0897(8) -0.1740(6) 0.3978(3)
H2 H 0.0356 -0.1837 0.4242
C2 C 0.0643(9) -0.2324(6) 0.3456(4)
C3 C 0.1404(9) -0.2224(6) 0.3032(4)
C4 C 0.1174(9) -0.2814(7) 0.2555(4)
H3 H 0.1694 -0.2745 0.2280
C5 C 0.0188(10) -0.3514(7) 0.2471(4)
H4 H 0.0051 -0.3915 0.2140
C6 C -0.0597(8) -0.3630(6) 0.2867(4)
H5 H -0.1273 -0.4101 0.2810
C7 C -0.0355(9) -0.3026(7) 0.3352(4)
H6 H -0.0889 -0.3095 0.3623
C8 C 0.2106(10) -0.0517(6) 0.4604(4)
C9 C 0.1398(7) -0.0518(5) 0.5040(4)
H7 H 0.0668 -0.0940 0.5013
C10 C 0.1759(10) 0.0098(7) 0.5512(4)
H8 H 0.1266 0.0084 0.5801
C11 C 0.2834(11) 0.0740(7) 0.5570(4)
C12 C 0.3526(8) 0.0722(6) 0.5143(4)
H9 H 0.4265 0.1139 0.5174
C13 C 0.3190(9) 0.0118(7) 0.4666(4)
H10 H 0.3696 0.0135 0.4381
C14 C 0.3403(12) 0.1428(8) 0.6084(4)
H11 H 0.4124 0.1813 0.6038
C15 C 0.3122(12) 0.1540(8) 0.6479(4)
H12 H 0.2385 0.1172 0.6527
C16 C 0.3748(13) 0.2224(8) 0.6991(5)
C17 C 0.3055(10) 0.2299(7) 0.7411(5)
H13 H 0.2259 0.1938 0.7379
C18 C 0.3477(11) 0.2892(7) 0.7891(4)
H14 H 0.2970 0.2919 0.8177
C19 C 0.4641(11) 0.3445(7) 0.7952(4)
C20 C 0.5393(8) 0.3393(6) 0.7528(4)
H15 H 0.6187 0.3758 0.7562
C21 C 0.4932(12) 0.2767(8) 0.7039(4)
H16 H 0.5427 0.2722 0.6749
C22 C 0.6346(10) 0.4150(8) 0.8706(3)
C23 C 0.7005(11) 0.3425(7) 0.8740(3)
H17 H 0.6590 0.2860 0.8577
C24 C 0.8274(11) 0.3506(7) 0.9009(3)
H18 H 0.8704 0.2998 0.9032
C25 C 0.8903(9) 0.4333(9) 0.9245(3)
H19 H 0.9762 0.4392 0.9426
C26 C 0.8260(11) 0.5064(7) 0.9210(3)
H20 H 0.8678 0.5627 0.9376
C27 C 0.7004(11) 0.4990(7) 0.8936(3)
H21 H 0.6592 0.5502 0.8903
C28 C 0.4105(9) 0.4562(6) 0.8662(4)
C29 C 0.3244(10) 0.4945(6) 0.8323(3)
H22 H 0.3312 0.4895 0.7949
C30 C 0.2281(9) 0.5401(6) 0.8535(5)
H23 H 0.1691 0.5651 0.8304
C31 C 0.2193(8) 0.5484(6) 0.9077(5)
H24 H 0.1533 0.5788 0.9216
C32 C 0.3066(11) 0.5128(6) 0.9428(3)
H25 H 0.3011 0.5200 0.9804
C33 C 0.4027(8) 0.4660(5) 0.9215(4)
H26 H 0.4620 0.4412 0.9447
N3 N 0.0457(6) 0.2765(5) 0.4621(3)
N4 N 0.5257(6) 0.8306(5) 0.8666(3)
O2 O -0.1653(5) 0.2443(4) 0.38986(18)
H27 H -0.1121 0.2731 0.4152
C34 C 0.0891(8) 0.2109(6) 0.4359(3)
H28 H 0.1739 0.1984 0.4476
C35 C 0.0128(11) 0.1545(6) 0.3887(4)
C36 C -0.1127(12) 0.1734(6) 0.3670(4)
C37 C -0.1855(8) 0.1172(7) 0.3216(4)
H29 H -0.2693 0.1290 0.3079
C38 C -0.1332(11) 0.0443(7) 0.2970(3)
H30 H -0.1816 0.0072 0.2664
C39 C -0.0113(11) 0.0257(6) 0.3168(4)
H31 H 0.0231 -0.0241 0.2999
C40 C 0.0603(8) 0.0801(7) 0.3615(4)
H32 H 0.1440 0.0669 0.3743
C41 C 0.1165(11) 0.3333(7) 0.5089(3)
C42 C 0.0569(8) 0.4022(7) 0.5324(4)
H33 H -0.0284 0.4095 0.5177
C43 C 0.1218(12) 0.4626(6) 0.5783(4)
H34 H 0.0787 0.5096 0.5933
C44 C 0.2462(13) 0.4545(8) 0.6017(4)
C45 C 0.3065(9) 0.3864(8) 0.5783(4)
H35 H 0.3924 0.3802 0.5928
C46 C 0.2434(11) 0.3253(6) 0.5330(4)
H36 H 0.2869 0.2781 0.5185
C47 C 0.3274(13) 0.5174(8) 0.6508(5)
H37 H 0.4116 0.5026 0.6610
C48 C 0.3022(13) 0.5756(8) 0.6749(4)
H38 H 0.2186 0.5900 0.6631
C49 C 0.3750(11) 0.6407(7) 0.7251(4)
C50 C 0.3022(8) 0.7023(7) 0.7480(4)
H39 H 0.2153 0.7013 0.7320
C51 C 0.3487(9) 0.7657(5) 0.7932(3)
H40 H 0.2959 0.8081 0.8063
C52 C 0.4749(9) 0.7657(6) 0.8189(3)
C53 C 0.5519(7) 0.7041(7) 0.7972(3)
H41 H 0.6382 0.7045 0.8139
C54 C 0.5026(10) 0.6416(6) 0.7511(4)
H42 H 0.5554 0.5996 0.7374
C55 C 0.5900(8) 0.8009(7) 0.9134(4)
C56 C 0.6984(9) 0.8513(5) 0.9455(4)
H43 H 0.7307 0.9056 0.9363
C57 C 0.7585(8) 0.8222(7) 0.9906(4)
H44 H 0.8312 0.8568 1.0122
C58 C 0.7119(10) 0.7422(7) 1.0040(4)
H45 H 0.7528 0.7220 1.0347
C59 C 0.6058(9) 0.6925(6) 0.9722(4)
H46 H 0.5742 0.6379 0.9813
C60 C 0.5444(7) 0.7215(7) 0.9269(4)
H47 H 0.4715 0.6868 0.9054
C61 C 0.5013(7) 0.9213(7) 0.8690(4)
C62 C 0.4993(7) 0.9600(7) 0.8222(3)
H48 H 0.5122 0.9267 0.7891
C63 C 0.4779(7) 1.0494(7) 0.8250(4)
H49 H 0.4765 1.0756 0.7934
C64 C 0.4587(7) 1.0994(6) 0.8732(5)
H50 H 0.4462 1.1595 0.8746
C65 C 0.4581(7) 1.0606(7) 0.9193(4)
H51 H 0.4443 1.0940 0.9523
C66 C 0.4778(7) 0.9719(7) 0.9169(3)
H52 H 0.4752 0.9455 0.9483
N5 N 0.5762(12) 0.2877(10) 0.4696(4)
N6 N 1.0240(5) 0.8523(5) 0.8681(2)
O3 O 0.6046(11) 0.1031(8) 0.4288(6)
H53 H 0.6132 0.1530 0.4478
C67 C 0.5214(19) 0.278(2) 0.4252(9)
H54 H 0.4982 0.3273 0.4096
C68 C 0.4881(15) 0.1861(12) 0.3931(5)
C69 C 0.5219(13) 0.1022(12) 0.3840(5)
C70 C 0.4692(11) 0.0409(6) 0.3396(5)
H55 H 0.4970 -0.0159 0.3348
C71 C 0.3756(10) 0.0628(7) 0.3023(4)
H56 H 0.3353 0.0204 0.2724
C72 C 0.3409(9) 0.1475(10) 0.3091(4)
H57 H 0.2788 0.1639 0.2830
C73 C 0.3966(13) 0.2079(10) 0.3537(6)
H58 H 0.3722 0.2657 0.3577
C74 C 0.6325(8) 0.3518(7) 0.5143(4)
C75 C 0.6445(8) 0.4404(7) 0.5106(3)
H59 H 0.6153 0.4582 0.4772
C76 C 0.6982(7) 0.5043(5) 0.5546(4)
H60 H 0.7045 0.5642 0.5502
C77 C 0.7435(7) 0.4832(6) 0.6053(3)
C78 C 0.7304(7) 0.3931(7) 0.6079(3)
H61 H 0.7593 0.3752 0.6411
C79 C 0.6772(7) 0.3285(5) 0.5642(4)
H62 H 0.6712 0.2684 0.5683
C80 C 0.7967(6) 0.5551(5) 0.6499(3)
H63 H 0.8064 0.6119 0.6400
C81 C 0.8331(6) 0.5523(5) 0.7019(3)
H64 H 0.8258 0.4962 0.7127
C82 C 0.8841(6) 0.6287(6) 0.7445(3)
C83 C 0.9271(6) 0.7113(6) 0.7325(3)
H65 H 0.9253 0.7182 0.6957
C84 C 0.9726(6) 0.7839(5) 0.7728(3)
H66 H 0.9994 0.8387 0.7628
C85 C 0.9792(6) 0.7772(6) 0.8275(3)
C86 C 0.9365(6) 0.6950(6) 0.8403(3)
H67 H 0.9375 0.6887 0.8771
C87 C 0.8920(6) 0.6216(5) 0.7996(3)
H68 H 0.8670 0.5665 0.8097
C88 C 1.0925(7) 0.8462(5) 0.9199(3)
C89 C 1.0724(6) 0.9023(5) 0.9662(3)
H69 H 1.0133 0.9446 0.9630
C90 C 1.1384(8) 0.8971(5) 1.0173(3)
H70 H 1.1233 0.9358 1.0481
C91 C 1.2240(8) 0.8370(6) 1.0234(3)
H71 H 1.2679 0.8334 1.0580
C92 C 1.2454(7) 0.7814(5) 0.9779(4)
H72 H 1.3051 0.7396 0.9815
C93 C 1.1802(7) 0.7860(5) 0.9265(3)
H73 H 1.1966 0.7474 0.8960
C94 C 1.0074(9) 0.9385(6) 0.8557(3)
C95 C 0.8827(8) 0.9603(6) 0.8381(3)
H74 H 0.8090 0.9182 0.8341
C96 C 0.8703(9) 1.0456(7) 0.8267(3)
H75 H 0.7872 1.0595 0.8138
C97 C 0.9747(11) 1.1100(6) 0.8337(3)
H76 H 0.9624 1.1675 0.8270
C98 C 1.0982(9) 1.0894(6) 0.8507(3)
H77 H 1.1710 1.1322 0.8545
C99 C 1.1139(8) 1.0038(7) 0.8621(3)
H78 H 1.1977 0.9901 0.8743
O4? O 0.3804(11) 0.2902(11) 0.3769(6)
H79? H 0.4316 0.3047 0.4057
C100? C 0.583(3) 0.2202(16) 0.4439(13)
H80? H 0.6492 0.1860 0.4548
H81? H 0.5850 0.0857 0.4097
loop_
_geom_bond_atom_site_label_1
_geom_bond_atom_site_label_2
_geom_bond_site_symmetry_1
_geom_bond_site_symmetry_2
N1 C1 1_555 1_555
N2 C19 1_555 1_555
O1 H1 1_555 1_555
C1 H2 1_555 1_555
C2 C1 1_555 1_555
C3 O1 1_555 1_555
C4 C3 1_555 1_555
H3 C4 1_555 1_555
C5 C4 1_555 1_555
H4 C5 1_555 1_555
C6 C5 1_555 1_555
H5 C6 1_555 1_555
C7 C2 1_555 1_555
H6 C7 1_555 1_555
C8 N1 1_555 1_555
C9 C8 1_555 1_555
H7 C9 1_555 1_555
C10 C9 1_555 1_555
H8 C10 1_555 1_555
C11 C10 1_555 1_555
C12 C11 1_555 1_555
H9 C12 1_555 1_555
C13 C8 1_555 1_555
H10 C13 1_555 1_555
C14 C11 1_555 1_555
H11 C14 1_555 1_555
C15 C14 1_555 1_555
H12 C15 1_555 1_555
C16 C15 1_555 1_555
C17 C16 1_555 1_555
H13 C17 1_555 1_555
C18 C17 1_555 1_555
H14 C18 1_555 1_555
C19 C18 1_555 1_555
C20 C19 1_555 1_555
H15 C20 1_555 1_555
C21 C16 1_555 1_555
H16 C21 1_555 1_555
C22 N2 1_555 1_555
C23 C22 1_555 1_555
H17 C23 1_555 1_555
C24 C23 1_555 1_555
H18 C24 1_555 1_555
C25 C24 1_555 1_555
H19 C25 1_555 1_555
C26 C25 1_555 1_555
H20 C26 1_555 1_555
C27 C22 1_555 1_555
H21 C27 1_555 1_555
C28 N2 1_555 1_555
C29 C28 1_555 1_555
H22 C29 1_555 1_555
C30 C29 1_555 1_555
H23 C30 1_555 1_555
C31 C30 1_555 1_555
H24 C31 1_555 1_555
C32 C31 1_555 1_555
H25 C32 1_555 1_555
C33 C28 1_555 1_555
H26 C33 1_555 1_555
N3 C34 1_555 1_555
N4 C52 1_555 1_555
O2 H27 1_555 1_555
C34 H28 1_555 1_555
C35 C34 1_555 1_555
C36 O2 1_555 1_555
C37 C36 1_555 1_555
H29 C37 1_555 1_555
C38 C37 1_555 1_555
H30 C38 1_555 1_555
C39 C38 1_555 1_555
H31 C39 1_555 1_555
C40 C35 1_555 1_555
H32 C40 1_555 1_555
C41 N3 1_555 1_555
C42 C41 1_555 1_555
H33 C42 1_555 1_555
C43 C42 1_555 1_555
H34 C43 1_555 1_555
C44 C43 1_555 1_555
C45 C44 1_555 1_555
H35 C45 1_555 1_555
C46 C41 1_555 1_555
H36 C46 1_555 1_555
C47 C44 1_555 1_555
H37 C47 1_555 1_555
C48 C47 1_555 1_555
H38 C48 1_555 1_555
C49 C48 1_555 1_555
C50 C49 1_555 1_555
H39 C50 1_555 1_555
C51 C50 1_555 1_555
H40 C51 1_555 1_555
C52 C51 1_555 1_555
C53 C52 1_555 1_555
H41 C53 1_555 1_555
C54 C49 1_555 1_555
H42 C54 1_555 1_555
C55 N4 1_555 1_555
C56 C55 1_555 1_555
H43 C56 1_555 1_555
C57 C56 1_555 1_555
H44 C57 1_555 1_555
C58 C57 1_555 1_555
H45 C58 1_555 1_555
C59 C58 1_555 1_555
H46 C59 1_555 1_555
C60 C55 1_555 1_555
H47 C60 1_555 1_555
C61 N4 1_555 1_555
C62 C61 1_555 1_555
H48 C62 1_555 1_555
C63 C62 1_555 1_555
H49 C63 1_555 1_555
C64 C63 1_555 1_555
H50 C64 1_555 1_555
C65 C64 1_555 1_555
H51 C65 1_555 1_555
C66 C61 1_555 1_555
H52 C66 1_555 1_555
N5 C67 1_555 1_555
N6 C85 1_555 1_555
O3 H53 1_555 1_555
C67 H54 1_555 1_555
C68 C67 1_555 1_555
C69 O3 1_555 1_555
C70 C69 1_555 1_555
H55 C70 1_555 1_555
C71 C70 1_555 1_555
H56 C71 1_555 1_555
C72 C71 1_555 1_555
H57 C72 1_555 1_555
C73 C68 1_555 1_555
H58 C73 1_555 1_555
C74 N5 1_555 1_555
C75 C74 1_555 1_555
H59 C75 1_555 1_555
C76 C75 1_555 1_555
H60 C76 1_555 1_555
C77 C76 1_555 1_555
C78 C77 1_555 1_555
H61 C78 1_555 1_555
C79 C74 1_555 1_555
H62 C79 1_555 1_555
C80 C77 1_555 1_555
H63 C80 1_555 1_555
C81 C80 1_555 1_555
H64 C81 1_555 1_555
C82 C81 1_555 1_555
C83 C82 1_555 1_555
H65 C83 1_555 1_555
C84 C83 1_555 1_555
H66 C84 1_555 1_555
C85 C84 1_555 1_555
C86 C85 1_555 1_555
H67 C86 1_555 1_555
C87 C82 1_555 1_555
H68 C87 1_555 1_555
C88 N6 1_555 1_555
C89 C88 1_555 1_555
H69 C89 1_555 1_555
C90 C89 1_555 1_555
H70 C90 1_555 1_555
C91 C90 1_555 1_555
H71 C91 1_555 1_555
C92 C91 1_555 1_555
H72 C92 1_555 1_555
C93 C88 1_555 1_555
H73 C93 1_555 1_555
C94 N6 1_555 1_555
C95 C94 1_555 1_555
H74 C95 1_555 1_555
C96 C95 1_555 1_555
H75 C96 1_555 1_555
C97 C96 1_555 1_555
H76 C97 1_555 1_555
C98 C97 1_555 1_555
H77 C98 1_555 1_555
C99 C94 1_555 1_555
H78 C99 1_555 1_555
C2 C3 1_555 1_555
C6 C7 1_555 1_555
C12 C13 1_555 1_555
C20 C21 1_555 1_555
C26 C27 1_555 1_555
C32 C33 1_555 1_555
C35 C36 1_555 1_555
C39 C40 1_555 1_555
C45 C46 1_555 1_555
C53 C54 1_555 1_555
C59 C60 1_555 1_555
C65 C66 1_555 1_555
C68 C69 1_555 1_555
C72 C73 1_555 1_555
C78 C79 1_555 1_555
C86 C87 1_555 1_555
C92 C93 1_555 1_555
C98 C99 1_555 1_555

#END
