
#######################################################################
#
#                 Cambridge Crystallographic Data Centre
#                                CCDC 
#
#######################################################################
#
# If this CIF has been generated from an entry in the Cambridge 
# Structural Database, then it will include bibliographic, chemical, 
# crystal, experimental, refinement or atomic coordinate data resulting 
# from the CCDC's data processing and validation procedures.
#
#######################################################################

data_EJUPIK
_chemical_compound_source        'Streptomyces griseus strain M268'
_chemical_name_common            Kiamycin
_chemical_formula_moiety         'C20 H18 O4'
_chemical_name_systematic        
7-methoxy-2-methyl-10b,11c-dihydrotetrapheno[1,12-bcd]furan-5a,6(6H)-diol
_symmetry_cell_setting           monoclinic
_symmetry_space_group_name_H-M   'P 21'
_symmetry_Int_Tables_number      4
_space_group_name_Hall           'P 2yb'
loop_
_symmetry_equiv_pos_site_id
_symmetry_equiv_pos_as_xyz
1 x,y,z
2 -x,1/2+y,-z
_cell_length_a                   8.0257(2)
_cell_length_b                   18.7587(5)
_cell_length_c                   10.9796(3)
_cell_angle_alpha                90
_cell_angle_beta                 108.0080(10)
_cell_angle_gamma                90
_cell_volume                     1572.02
_exptl_crystal_colour            colorless
_exptl_crystal_description       plate
_cell_formula_units_Z            4
loop_
_atom_site_label
_atom_site_type_symbol
_atom_site_fract_x
_atom_site_fract_y
_atom_site_fract_z
O1 O 0.1080(2) 0.76545(9) 0.40351(15)
O2 O 0.5728(2) 0.64717(8) 0.86252(14)
O3 O 0.6905(2) 0.80947(8) 0.61511(16)
H1 H 0.7351 0.8360 0.5719
O4 O 0.50514(19) 0.63148(8) 0.57351(14)
H2 H 0.5845 0.6126 0.5494
C1 C 0.0530(3) 0.58038(15) 0.0666(2)
H3 H -0.0290 0.5526 0.0977
H4 H 0.1345 0.5480 0.0438
H5 H -0.0123 0.6079 -0.0089
C2 C 0.1546(3) 0.63071(14) 0.1707(2)
C3 C 0.0676(3) 0.67252(14) 0.2365(2)
H6 H -0.0549 0.6676 0.2215
C4 C 0.1648(3) 0.72175(12) 0.3249(2)
C5 C 0.2669(3) 0.79689(12) 0.4991(2)
H7 H 0.2502 0.8495 0.5040
C6 C 0.2857(3) 0.76414(12) 0.6284(2)
C7 C 0.4265(3) 0.72114(11) 0.6909(2)
C8 C 0.4312(3) 0.69008(11) 0.8090(2)
C9 C 0.5642(3) 0.60134(13) 0.9643(2)
H8 H 0.5781 0.6296 1.0418
H9 H 0.6581 0.5658 0.9808
H10 H 0.4505 0.5771 0.9400
C10 C 0.4201(3) 0.78263(12) 0.4453(2)
H11 H 0.4441 0.8270 0.4030
C11 C 0.3422(3) 0.72815(12) 0.3448(2)
C12 C 0.4333(3) 0.68356(12) 0.2895(2)
C13 C 0.6255(3) 0.68802(12) 0.3433(2)
H12 H 0.6979 0.6680 0.2982
C14 C 0.6980(3) 0.72047(12) 0.4566(2)
H13 H 0.8222 0.7225 0.4891
C15 C 0.5937(3) 0.75402(12) 0.5357(2)
C16 C 0.5647(3) 0.69903(11) 0.6321(2)
H14 H 0.6778 0.6918 0.7020
C17 C 0.1520(3) 0.77702(12) 0.6827(2)
H15 H 0.0567 0.8072 0.6401
C18 C 0.1584(3) 0.74582(13) 0.7986(2)
H16 H 0.0666 0.7542 0.8344
C19 C 0.2987(3) 0.70224(13) 0.8628(2)
H17 H 0.3034 0.6811 0.9424
C20 C 0.3369(3) 0.63474(13) 0.1994(2)
H18 H 0.3954 0.6039 0.1573
O5 O 0.2327(2) 1.04659(9) 0.46543(15)
O6 O -0.2148(2) 0.83182(9) 0.14344(16)
O7 O -0.3667(2) 1.03133(8) 0.29949(15)
H19 H -0.4153 1.0626 0.3317
O8 O -0.1431(2) 0.87152(8) 0.42831(15)
H20 H -0.1043 0.8370 0.3964
C21 C 0.4395(3) 0.91925(15) 0.8828(2)
H21 H 0.5402 0.9069 0.8544
H22 H 0.3922 0.8759 0.9096
H23 H 0.4768 0.9525 0.9551
C22 C 0.2998(3) 0.95395(12) 0.7739(2)
C23 C 0.3478(3) 0.98783(13) 0.6771(2)
H24 H 0.4674 0.9921 0.6813
C24 C 0.2160(3) 1.01507(12) 0.5746(2)
C25 C 0.0533(3) 1.04662(12) 0.3692(2)
H25 H 0.0335 1.0927 0.3210
C26 C 0.0474(3) 0.98602(12) 0.2782(2)
C27 C -0.0812(3) 0.93345(12) 0.2551(2)
C28 C -0.0840(3) 0.88065(13) 0.1625(2)
C29 C -0.2438(4) 0.78544(14) 0.0351(3)
H26 H -0.2588 0.8140 -0.0424
H27 H -0.3495 0.7570 0.0254
H28 H -0.1428 0.7537 0.0481
C30 C 0.0433(3) 1.01059(11) 0.5704(2)
C31 C -0.0725(3) 1.04123(11) 0.4488(2)
H29 H -0.1079 1.0904 0.4660
C32 C -0.2375(3) 0.99515(12) 0.3988(2)
C33 C -0.2072(3) 0.92563(11) 0.3323(2)
H30 H -0.3227 0.9095 0.2733
C34 C 0.0430(4) 0.87933(15) 0.1014(2)
H31 H 0.0410 0.8433 0.0401
C35 C 0.1730(4) 0.93076(16) 0.1301(2)
H32 H 0.2625 0.9290 0.0902
C36 C 0.1742(3) 0.98467(15) 0.2160(2)
H33 H 0.2615 1.0207 0.2326
C37 C -0.3042(3) 0.97794(12) 0.5114(2)
H34 H -0.4271 0.9732 0.4950
C38 C -0.1999(3) 0.96915(11) 0.6320(2)
H35 H -0.2496 0.9582 0.6979
C39 C -0.0095(3) 0.97633(12) 0.6625(2)
C40 C 0.1226(3) 0.94824(12) 0.7674(2)
H36 H 0.0919 0.9252 0.8345
loop_
_geom_bond_atom_site_label_1
_geom_bond_atom_site_label_2
_geom_bond_site_symmetry_1
_geom_bond_site_symmetry_2
O1 C4 1_555 1_555
O2 C8 1_555 1_555
O3 H1 1_555 1_555
O4 H2 1_555 1_555
C1 H3 1_555 1_555
H4 C1 1_555 1_555
H5 C1 1_555 1_555
C2 C1 1_555 1_555
C3 C2 1_555 1_555
H6 C3 1_555 1_555
C4 C3 1_555 1_555
C5 O1 1_555 1_555
H7 C5 1_555 1_555
C6 C5 1_555 1_555
C7 C6 1_555 1_555
C8 C7 1_555 1_555
C9 O2 1_555 1_555
H8 C9 1_555 1_555
H9 C9 1_555 1_555
H10 C9 1_555 1_555
C10 C5 1_555 1_555
H11 C10 1_555 1_555
C11 C4 1_555 1_555
C12 C11 1_555 1_555
C13 C12 1_555 1_555
H12 C13 1_555 1_555
C14 C13 1_555 1_555
H13 C14 1_555 1_555
C15 O3 1_555 1_555
C16 O4 1_555 1_555
H14 C16 1_555 1_555
C17 C6 1_555 1_555
H15 C17 1_555 1_555
C18 C17 1_555 1_555
H16 C18 1_555 1_555
C19 C8 1_555 1_555
H17 C19 1_555 1_555
C20 C2 1_555 1_555
H18 C20 1_555 1_555
O5 C24 1_555 1_555
O6 C28 1_555 1_555
O7 H19 1_555 1_555
O8 H20 1_555 1_555
C21 H21 1_555 1_555
H22 C21 1_555 1_555
H23 C21 1_555 1_555
C22 C21 1_555 1_555
C23 C22 1_555 1_555
H24 C23 1_555 1_555
C24 C23 1_555 1_555
C25 O5 1_555 1_555
H25 C25 1_555 1_555
C26 C25 1_555 1_555
C27 C26 1_555 1_555
C28 C27 1_555 1_555
C29 O6 1_555 1_555
H26 C29 1_555 1_555
H27 C29 1_555 1_555
H28 C29 1_555 1_555
C30 C24 1_555 1_555
C31 C25 1_555 1_555
H29 C31 1_555 1_555
C32 O7 1_555 1_555
C33 O8 1_555 1_555
H30 C33 1_555 1_555
C34 C28 1_555 1_555
H31 C34 1_555 1_555
C35 C34 1_555 1_555
H32 C35 1_555 1_555
C36 C26 1_555 1_555
H33 C36 1_555 1_555
C37 C32 1_555 1_555
H34 C37 1_555 1_555
C38 C37 1_555 1_555
H35 C38 1_555 1_555
C39 C30 1_555 1_555
C40 C22 1_555 1_555
H36 C40 1_555 1_555
C7 C16 1_555 1_555
C10 C11 1_555 1_555
C10 C15 1_555 1_555
C12 C20 1_555 1_555
C14 C15 1_555 1_555
C15 C16 1_555 1_555
C18 C19 1_555 1_555
C27 C33 1_555 1_555
C30 C31 1_555 1_555
C31 C32 1_555 1_555
C32 C33 1_555 1_555
C35 C36 1_555 1_555
C38 C39 1_555 1_555
C39 C40 1_555 1_555

#END
