
#######################################################################
#
#                 Cambridge Crystallographic Data Centre
#                                CCDC 
#
#######################################################################
#
# If this CIF has been generated from an entry in the Cambridge 
# Structural Database, then it will include bibliographic, chemical, 
# crystal, experimental, refinement or atomic coordinate data resulting 
# from the CCDC's data processing and validation procedures.
#
#######################################################################

data_EJUQIK
_chemical_formula_moiety         'C8 H12 N1 1+,C4 H5 O6 1-'
_chemical_name_systematic        '4-Ethylanilinium hydrogen (2R,3R)-tartrate'
_symmetry_cell_setting           triclinic
_symmetry_space_group_name_H-M   'P 1'
_symmetry_Int_Tables_number      1
_space_group_name_Hall           'P 1'
loop_
_symmetry_equiv_pos_site_id
_symmetry_equiv_pos_as_xyz
1 x,y,z
_cell_length_a                   7.4606(12)
_cell_length_b                   11.9298(18)
_cell_length_c                   14.8726(9)
_cell_angle_alpha                95.338(2)
_cell_angle_beta                 91.9500(10)
_cell_angle_gamma                107.9160(10)
_cell_volume                     1251.32
_exptl_crystal_colour            colorless
_exptl_crystal_description       block
_cell_formula_units_Z            4
loop_
_atom_site_label
_atom_site_type_symbol
_atom_site_fract_x
_atom_site_fract_y
_atom_site_fract_z
C1 C 0.6261(5) 0.2244(3) 0.2634(2)
H1 H 0.6826 0.1708 0.2881
H2 H 0.6321 0.2179 0.1988
H3 H 0.4965 0.2048 0.2781
C2 C 0.7309(4) 0.3492(3) 0.3026(2)
H4 H 0.6671 0.4014 0.2797
H5 H 0.8564 0.3709 0.2803
C3 C 0.7510(4) 0.3724(3) 0.4057(2)
C4 C 0.6812(4) 0.2836(3) 0.4610(2)
H6 H 0.6197 0.2067 0.4348
C5 C 0.7013(4) 0.3072(3) 0.5550(2)
H7 H 0.6557 0.2466 0.5913
C6 C 0.7897(4) 0.4217(2) 0.59314(18)
C7 C 0.8642(4) 0.5125(3) 0.5402(2)
H8 H 0.9255 0.5892 0.5667
C8 C 0.8451(4) 0.4862(3) 0.4466(2)
H9 H 0.8964 0.5462 0.4105
N1 N 0.8074(3) 0.4465(2) 0.69189(15)
H45 H 0.6953 0.4161 0.7139
H46 H 0.8486 0.5245 0.7072
H47 H 0.8891 0.4140 0.7146
C9 C 0.3420(4) 0.4726(3) 0.5094(2)
H10 H 0.4639 0.4949 0.4849
H11 H 0.3571 0.4715 0.5736
H12 H 0.2785 0.5288 0.4970
C10 C 0.2258(4) 0.3499(3) 0.46607(19)
H13 H 0.2833 0.2928 0.4856
H14 H 0.1006 0.3309 0.4886
C11 C 0.2056(4) 0.3352(3) 0.36363(19)
C12 C 0.1207(4) 0.2230(3) 0.3180(2)
H15 H 0.0762 0.1590 0.3513
C13 C 0.1004(4) 0.2037(2) 0.2244(2)
H16 H 0.0440 0.1277 0.1953
C14 C 0.1653(4) 0.2989(2) 0.17460(19)
C15 C 0.2480(4) 0.4115(2) 0.21754(18)
H17 H 0.2892 0.4753 0.1838
C16 C 0.2698(4) 0.4294(2) 0.31179(18)
H18 H 0.3281 0.5054 0.3405
N2 N 0.1452(3) 0.2791(2) 0.07547(14)
H48 H 0.2295 0.2454 0.0555
H49 H 0.1645 0.3482 0.0531
H50 H 0.0294 0.2318 0.0577
C17 C 0.7837(5) 0.9684(3) 0.5095(2)
H19 H 0.8889 1.0236 0.4855
H20 H 0.8074 0.9707 0.5736
H21 H 0.6715 0.9894 0.4978
C18 C 0.7575(4) 0.8441(3) 0.4646(2)
H22 H 0.8673 0.8215 0.4815
H23 H 0.6489 0.7898 0.4884
C19 C 0.7295(4) 0.8287(3) 0.36210(19)
C20 C 0.7019(4) 0.7176(3) 0.3148(2)
H24 H 0.6984 0.6537 0.3468
C21 C 0.6793(4) 0.7000(3) 0.2205(2)
H25 H 0.6615 0.6255 0.1897
C22 C 0.6840(4) 0.7957(2) 0.17348(17)
C23 C 0.7102(4) 0.9066(2) 0.21828(18)
H26 H 0.7127 0.9702 0.1860
C24 C 0.7327(4) 0.9223(3) 0.31242(19)
H27 H 0.7502 0.9970 0.3427
N3 N 0.6577(3) 0.7782(2) 0.07437(15)
H51 H 0.7433 0.7473 0.0519
H52 H 0.6713 0.8476 0.0534
H53 H 0.5424 0.7291 0.0577
C25 C 0.2025(5) 0.7311(3) 0.2598(2)
H28 H 0.3066 0.7084 0.2828
H29 H 0.2035 0.7288 0.1952
H30 H 0.0862 0.6772 0.2757
C26 C 0.2203(4) 0.8551(3) 0.30040(19)
H31 H 0.3277 0.9097 0.2760
H32 H 0.1086 0.8738 0.2806
C27 C 0.2439(4) 0.8774(3) 0.40227(19)
C28 C 0.2404(4) 0.7877(3) 0.4566(2)
H33 H 0.2240 0.7115 0.4295
C29 C 0.2610(4) 0.8097(2) 0.5506(2)
H34 H 0.2582 0.7488 0.5859
C30 C 0.2856(4) 0.9230(3) 0.59057(19)
C31 C 0.2912(4) 1.0137(3) 0.5387(2)
H35 H 0.3079 1.0898 0.5661
C32 C 0.2715(4) 0.9902(3) 0.4450(2)
H36 H 0.2770 1.0518 0.4101
N4 N 0.3056(3) 0.94548(19) 0.68955(14)
H54 H 0.1945 0.9134 0.7120
H55 H 0.3451 1.0233 0.7059
H56 H 0.3892 0.9134 0.7109
C33 C 0.6590(3) 0.0750(2) -0.01222(18)
C34 C 0.4511(3) 0.0705(2) -0.02666(18)
H37 H 0.4215 0.0729 -0.0910
C35 C 0.3210(3) -0.0429(2) 0.00407(18)
H38 H 0.3162 -0.1097 -0.0406
C36 C 0.1229(4) -0.0356(2) 0.01292(19)
O1 O 0.7033(3) -0.01076(17) -0.05230(14)
O2 O 0.7654(3) 0.16009(17) 0.03787(13)
O3 O 0.4258(2) 0.17135(15) 0.02456(13)
H57 H 0.5247 0.2093 0.0536
O4 O 0.3920(3) -0.06247(18) 0.08891(13)
H58 H 0.3131 -0.0646 0.1263
O5 O 0.0469(3) -0.04971(17) 0.08369(13)
O6 O 0.0477(2) -0.01338(18) -0.06121(12)
H59 H -0.0556 -0.0056 -0.0515
C37 C 1.1768(4) 0.5752(2) -0.01433(18)
C38 C 0.9693(3) 0.5728(2) -0.02726(17)
H39 H 0.9382 0.5761 -0.0913
C39 C 0.8400(3) 0.4573(2) 0.00343(17)
H40 H 0.8378 0.3912 -0.0414
C40 C 0.6392(3) 0.4614(2) 0.01135(18)
O7 O 1.2210(3) 0.49098(17) -0.05576(14)
O8 O 1.2818(3) 0.65864(16) 0.03757(13)
O9 O 0.9442(2) 0.67194(16) 0.02531(13)
H60 H 1.0438 0.7101 0.0537
O10 O 0.9134(3) 0.43882(17) 0.08738(13)
H61 H 0.8294 0.4246 0.1228
O11 O 0.5671(2) 0.49049(18) -0.06079(12)
H62 H 0.4571 0.4869 -0.0536
O12 O 0.5597(3) 0.43898(17) 0.08039(12)
C41 C 0.3471(4) 0.2688(2) 0.74033(17)
C42 C 0.1331(3) 0.2395(2) 0.72236(18)
H41 H 0.0917 0.1828 0.6679
C43 C 0.0297(3) 0.1841(2) 0.80288(17)
H42 H 0.0506 0.1075 0.8068
C44 C -0.1814(3) 0.1611(2) 0.77902(17)
O13 O 0.4081(2) 0.18406(16) 0.75576(13)
O14 O 0.4435(2) 0.37307(15) 0.73694(13)
O15 O 0.0882(2) 0.34318(16) 0.70845(13)
H63 H 0.1844 0.4004 0.7161
O16 O 0.0976(2) 0.25485(15) 0.88515(11)
H64 H 0.1041 0.3236 0.8793
O17 O -0.2687(3) 0.08168(17) 0.72272(13)
O18 O -0.2517(2) 0.23852(16) 0.82090(13)
H65 H -0.3644 0.2211 0.8057
C45 C 0.8511(3) 0.7692(2) 0.74013(17)
C46 C 0.6377(3) 0.7387(2) 0.72176(17)
H43 H 0.5976 0.6820 0.6673
C47 C 0.5327(3) 0.6827(2) 0.80221(17)
H44 H 0.5522 0.6057 0.8061
C48 C 0.3233(3) 0.6619(2) 0.77772(17)
O19 O 0.9128(2) 0.68509(16) 0.75635(13)
O20 O 0.9471(2) 0.87324(16) 0.73548(13)
O21 O 0.5901(2) 0.84175(16) 0.70776(13)
H66 H 0.6865 0.8987 0.7112
O22 O 0.6011(2) 0.75384(15) 0.88415(12)
H67 H 0.5979 0.8212 0.8796
O23 O 0.2370(2) 0.58372(16) 0.71908(13)
O24 O 0.2513(3) 0.73689(16) 0.82086(13)
H68 H 0.1381 0.7184 0.8062
loop_
_geom_bond_atom_site_label_1
_geom_bond_atom_site_label_2
_geom_bond_site_symmetry_1
_geom_bond_site_symmetry_2
C1 H1 1_555 1_555
H2 C1 1_555 1_555
H3 C1 1_555 1_555
C2 C1 1_555 1_555
H4 C2 1_555 1_555
H5 C2 1_555 1_555
C3 C2 1_555 1_555
C4 C3 1_555 1_555
H6 C4 1_555 1_555
C5 C4 1_555 1_555
H7 C5 1_555 1_555
C6 C5 1_555 1_555
C7 C6 1_555 1_555
H8 C7 1_555 1_555
C8 C3 1_555 1_555
H9 C8 1_555 1_555
C9 H10 1_555 1_555
H11 C9 1_555 1_555
H12 C9 1_555 1_555
C10 C9 1_555 1_555
H13 C10 1_555 1_555
H14 C10 1_555 1_555
C11 C10 1_555 1_555
C12 C11 1_555 1_555
H15 C12 1_555 1_555
C13 C12 1_555 1_555
H16 C13 1_555 1_555
C14 C13 1_555 1_555
C15 C14 1_555 1_555
H17 C15 1_555 1_555
C16 C11 1_555 1_555
H18 C16 1_555 1_555
C17 H19 1_555 1_555
H20 C17 1_555 1_555
H21 C17 1_555 1_555
C18 C17 1_555 1_555
H22 C18 1_555 1_555
H23 C18 1_555 1_555
C19 C18 1_555 1_555
C20 C19 1_555 1_555
H24 C20 1_555 1_555
C21 C20 1_555 1_555
H25 C21 1_555 1_555
C22 C21 1_555 1_555
C23 C22 1_555 1_555
H26 C23 1_555 1_555
C24 C19 1_555 1_555
H27 C24 1_555 1_555
C25 H28 1_555 1_555
H29 C25 1_555 1_555
H30 C25 1_555 1_555
C26 C25 1_555 1_555
H31 C26 1_555 1_555
H32 C26 1_555 1_555
C27 C26 1_555 1_555
C28 C27 1_555 1_555
H33 C28 1_555 1_555
C29 C28 1_555 1_555
H34 C29 1_555 1_555
C30 C29 1_555 1_555
C31 C30 1_555 1_555
H35 C31 1_555 1_555
C32 C27 1_555 1_555
H36 C32 1_555 1_555
C33 C34 1_555 1_555
C34 H37 1_555 1_555
C35 C34 1_555 1_555
H38 C35 1_555 1_555
C36 C35 1_555 1_555
C37 C38 1_555 1_555
C38 H39 1_555 1_555
C39 C38 1_555 1_555
H40 C39 1_555 1_555
C40 C39 1_555 1_555
C41 C42 1_555 1_555
C42 H41 1_555 1_555
C43 C42 1_555 1_555
H42 C43 1_555 1_555
C44 C43 1_555 1_555
C45 C46 1_555 1_555
C46 H43 1_555 1_555
C47 C46 1_555 1_555
H44 C47 1_555 1_555
C48 C47 1_555 1_555
N1 C6 1_555 1_555
H45 N1 1_555 1_555
H46 N1 1_555 1_555
H47 N1 1_555 1_555
N2 C14 1_555 1_555
H48 N2 1_555 1_555
H49 N2 1_555 1_555
H50 N2 1_555 1_555
N3 C22 1_555 1_555
H51 N3 1_555 1_555
H52 N3 1_555 1_555
H53 N3 1_555 1_555
N4 C30 1_555 1_555
H54 N4 1_555 1_555
H55 N4 1_555 1_555
H56 N4 1_555 1_555
O1 C33 1_555 1_555
O2 C33 1_555 1_555
O3 C34 1_555 1_555
H57 O3 1_555 1_555
O4 C35 1_555 1_555
H58 O4 1_555 1_555
O5 C36 1_555 1_555
O6 C36 1_555 1_555
H59 O6 1_555 1_555
O7 C37 1_555 1_555
O8 C37 1_555 1_555
O9 C38 1_555 1_555
H60 O9 1_555 1_555
O10 C39 1_555 1_555
H61 O10 1_555 1_555
O11 C40 1_555 1_555
H62 O11 1_555 1_555
O12 C40 1_555 1_555
O13 C41 1_555 1_555
O14 C41 1_555 1_555
O15 C42 1_555 1_555
H63 O15 1_555 1_555
O16 C43 1_555 1_555
H64 O16 1_555 1_555
O17 C44 1_555 1_555
O18 C44 1_555 1_555
H65 O18 1_555 1_555
O19 C45 1_555 1_555
O20 C45 1_555 1_555
O21 C46 1_555 1_555
H66 O21 1_555 1_555
O22 C47 1_555 1_555
H67 O22 1_555 1_555
O23 C48 1_555 1_555
O24 C48 1_555 1_555
H68 O24 1_555 1_555
C7 C8 1_555 1_555
C15 C16 1_555 1_555
C23 C24 1_555 1_555
C31 C32 1_555 1_555

#END
