
#######################################################################
#
#                 Cambridge Crystallographic Data Centre
#                                CCDC 
#
#######################################################################
#
# If this CIF has been generated from an entry in the Cambridge 
# Structural Database, then it will include bibliographic, chemical, 
# crystal, experimental, refinement or atomic coordinate data resulting 
# from the CCDC's data processing and validation procedures.
#
#######################################################################

data_EJUYOZ
_chemical_compound_source        
'dried twigs and leaves of Ervatamia hainanensis'
_chemical_name_common            5-Oxo-(6S)-hydroxycoronaridine
_chemical_formula_moiety         'C21 H24 N2 O4'
_chemical_name_systematic        
'Methyl 8-hydroxy-7-oxoibogamine-18-carboxylate'
_chemical_properties_biological  'neuroprotective activity'
_symmetry_cell_setting           orthorhombic
_symmetry_space_group_name_H-M   'P 21 21 21'
_symmetry_Int_Tables_number      19
_space_group_name_Hall           'P 2ac 2ab'
loop_
_symmetry_equiv_pos_site_id
_symmetry_equiv_pos_as_xyz
1 x,y,z
2 1/2-x,-y,1/2+z
3 1/2+x,1/2-y,-z
4 -x,1/2+y,1/2-z
_cell_length_a                   7.44984(14)
_cell_length_b                   11.4893(2)
_cell_length_c                   21.3736(4)
_cell_angle_alpha                90
_cell_angle_beta                 90
_cell_angle_gamma                90
_cell_volume                     1829.44
_exptl_crystal_colour            colorless
_exptl_crystal_description       block
_cell_formula_units_Z            4
loop_
_atom_site_label
_atom_site_type_symbol
_atom_site_fract_x
_atom_site_fract_y
_atom_site_fract_z
O1 O -0.1458(2) 0.73651(12) 0.82374(7)
O2 O 0.3567(2) 0.71177(12) 0.76449(7)
H1 H 0.3923 0.6611 0.7405
N1 N 0.3206(2) 0.94010(13) 0.82657(7)
N2 N -0.1265(2) 0.91932(14) 0.70658(7)
H2 H -0.2279 0.9471 0.7186
O3 O 0.52632(18) 0.98737(12) 0.75326(7)
O4 O -0.27305(19) 0.88583(14) 0.87460(7)
C1 C 0.0957(3) 0.85013(16) 0.64589(9)
C2 C 0.1564(3) 0.85074(16) 0.70989(8)
C3 C 0.1330(3) 1.07784(17) 0.88071(9)
H3 H 0.1204 1.1595 0.8933
C4 C 0.0007(3) 0.91631(16) 0.81440(9)
C5 C 0.4076(2) 0.92030(17) 0.77281(9)
C6 C -0.0815(3) 0.89354(16) 0.64576(9)
C7 C 0.3211(3) 1.05753(18) 0.85414(10)
H4 H 0.3487 1.1153 0.8225
H5 H 0.4102 1.0627 0.8871
C8 C -0.0075(3) 1.04867(17) 0.83064(9)
H6 H 0.0152 1.0943 0.7933
H7 H -0.1263 1.0682 0.8460
C9 C 0.0154(3) 0.89399(16) 0.74502(9)
C10 C -0.1592(3) 0.84828(18) 0.84074(8)
C11 C -0.1010(3) 0.87300(19) 0.53577(9)
H8 H -0.1641 0.8808 0.4985
C12 C 0.1732(3) 0.81731(17) 0.58869(9)
H9 H 0.2897 0.7884 0.5873
C13 C 0.1072(3) 0.99941(18) 0.93750(9)
H10 H -0.0158 1.0045 0.9522
H11 H 0.1859 1.0242 0.9711
C14 C 0.1692(3) 0.86693(16) 0.84691(8)
H12 H 0.1889 0.7862 0.8337
C15 C 0.3243(3) 0.6893(2) 0.94633(11)
H13 H 0.3210 0.6671 0.9031
H14 H 0.2237 0.6558 0.9678
H15 H 0.4337 0.6618 0.9649
C16 C -0.1819(3) 0.90545(17) 0.59118(9)
H16 H -0.2986 0.9341 0.5920
C17 C 0.3429(3) 0.82021(17) 0.73161(9)
H17 H 0.4210 0.8163 0.6948
C18 C -0.2720(3) 0.6570(2) 0.85204(11)
H18 H -0.3912 0.6754 0.8381
H19 H -0.2660 0.6640 0.8967
H20 H -0.2428 0.5787 0.8401
C19 C 0.1512(3) 0.87274(17) 0.91875(8)
H21 H 0.0477 0.8247 0.9304
C20 C 0.0736(3) 0.82866(18) 0.53453(9)
H22 H 0.1237 0.8064 0.4965
C21 C 0.3159(3) 0.82138(19) 0.95147(9)
H23 H 0.4235 0.8544 0.9331
H24 H 0.3134 0.8431 0.9953
loop_
_geom_bond_atom_site_label_1
_geom_bond_atom_site_label_2
_geom_bond_site_symmetry_1
_geom_bond_site_symmetry_2
O1 C10 1_555 1_555
O2 H1 1_555 1_555
N1 C5 1_555 1_555
N2 H2 1_555 1_555
O3 C5 1_555 1_555
O4 C10 1_555 1_555
C1 C2 1_555 1_555
C2 C9 1_555 1_555
C3 H3 1_555 1_555
C4 C8 1_555 1_555
C5 C17 1_555 1_555
C6 N2 1_555 1_555
C7 N1 1_555 1_555
H4 C7 1_555 1_555
H5 C7 1_555 1_555
C8 C3 1_555 1_555
H6 C8 1_555 1_555
H7 C8 1_555 1_555
C9 N2 1_555 1_555
C10 C4 1_555 1_555
C11 H8 1_555 1_555
C12 C1 1_555 1_555
H9 C12 1_555 1_555
C13 C3 1_555 1_555
H10 C13 1_555 1_555
H11 C13 1_555 1_555
C14 N1 1_555 1_555
H12 C14 1_555 1_555
C15 H13 1_555 1_555
H14 C15 1_555 1_555
H15 C15 1_555 1_555
C16 C6 1_555 1_555
H16 C16 1_555 1_555
C17 O2 1_555 1_555
H17 C17 1_555 1_555
C18 O1 1_555 1_555
H18 C18 1_555 1_555
H19 C18 1_555 1_555
H20 C18 1_555 1_555
C19 C13 1_555 1_555
H21 C19 1_555 1_555
C20 C11 1_555 1_555
H22 C20 1_555 1_555
C21 C15 1_555 1_555
H23 C21 1_555 1_555
H24 C21 1_555 1_555
C1 C6 1_555 1_555
C2 C17 1_555 1_555
C3 C7 1_555 1_555
C4 C9 1_555 1_555
C4 C14 1_555 1_555
C11 C16 1_555 1_555
C12 C20 1_555 1_555
C14 C19 1_555 1_555
C19 C21 1_555 1_555

#END
