
#######################################################################
#
#                 Cambridge Crystallographic Data Centre
#                                CCDC 
#
#######################################################################
#
# If this CIF has been generated from an entry in the Cambridge 
# Structural Database, then it will include bibliographic, chemical, 
# crystal, experimental, refinement or atomic coordinate data resulting 
# from the CCDC's data processing and validation procedures.
#
#######################################################################

data_EKAHUU
_chemical_name_common            4-(2-(Benzo-15-crown-5-)vinyl)pyridine
_chemical_formula_moiety         'C21 H25 N1 O5'
_chemical_name_systematic        
4-(2-(2,3,5,6,8,9,11,12-Octahydro-1,4,7,10,13-benzopentaoxacyclopentadecin-15-yl)vinyl)pyridine
_symmetry_cell_setting           monoclinic
_symmetry_space_group_name_H-M   'P 21/c'
_symmetry_Int_Tables_number      14
_space_group_name_Hall           '-P 2ybc'
loop_
_symmetry_equiv_pos_site_id
_symmetry_equiv_pos_as_xyz
1 x,y,z
2 -x,1/2+y,1/2-z
3 -x,-y,-z
4 x,1/2-y,1/2+z
_cell_length_a                   5.2229(10)
_cell_length_b                   13.648(3)
_cell_length_c                   25.997(5)
_cell_angle_alpha                90
_cell_angle_beta                 93.438(3)
_cell_angle_gamma                90
_cell_volume                     1849.79
_exptl_crystal_colour            yellowish
_exptl_crystal_description       plate
_cell_formula_units_Z            4
_exptl_crystal_recrystallization_method dichloromethane/hexane
loop_
_atom_site_label
_atom_site_type_symbol
_atom_site_fract_x
_atom_site_fract_y
_atom_site_fract_z
O1 O 0.3726(16) 0.4528(6) 0.2157(2)
O2 O 0.5840(17) 0.5409(9) 0.3007(5)
O3 O 0.1251(12) 0.6636(4) 0.3325(2)
O4 O -0.134(3) 0.7443(8) 0.2070(4)
O5 O 0.037(3) 0.5535(9) 0.1630(5)
N1 N 1.227(3) 0.0678(9) -0.0489(7)
C1 C 1.283(3) 0.1031(8) 0.0037(5)
H1 H 1.4295 0.0828 0.0243
C2 C 1.108(2) 0.1672(9) 0.0203(3)
H2 H 1.1343 0.1880 0.0552
C3 C 0.8972(8) 0.2063(4) -0.0070(2)
C4 C 0.8568(9) 0.1726(4) -0.05713(19)
H3 H 0.7144 0.1958 -0.0781
C5 C 1.0233(13) 0.1053(4) -0.0766(2)
H4 H 0.9929 0.0843 -0.1113
C6 C 0.7154(6) 0.2754(2) 0.01367(13)
H5 H 0.5845 0.3008 -0.0095
C7 C 0.7189(9) 0.3058(3) 0.06259(18)
H6 H 0.8535 0.2815 0.0853
C8 C 0.5357(7) 0.3727(3) 0.08478(16)
C9 C 0.5447(7) 0.3806(3) 0.13868(15)
H7 H 0.6670 0.3430 0.1588
C10 C 0.3768(15) 0.4428(6) 0.1636(2)
C11 C 0.1930(15) 0.4955(6) 0.1343(3)
C12 C 0.1856(8) 0.4892(3) 0.08083(18)
H8 H 0.0636 0.5268 0.0607
C13 C 0.3545(9) 0.4284(4) 0.0564(2)
H9 H 0.3459 0.4249 0.0198
C14 C 0.581(2) 0.4167(8) 0.2384(7)
H10 H 0.7340 0.4525 0.2279
H11 H 0.5993 0.3464 0.2300
C15 C 0.542(3) 0.4316(8) 0.2984(5)
H12 H 0.3673 0.4130 0.3076
H13 H 0.6713 0.3953 0.3203
C16 C 0.504(3) 0.5631(7) 0.3562(3)
H14 H 0.5584 0.5082 0.3792
H15 H 0.5927 0.6231 0.3692
C17 C 0.2168(17) 0.5774(6) 0.3581(3)
H16 H 0.1280 0.5199 0.3422
H17 H 0.1729 0.5805 0.3946
C18 C 0.088(2) 0.6639(7) 0.2710(5)
H18 H 0.2525 0.6808 0.2560
H19 H 0.0359 0.5979 0.2585
C19 C -0.110(3) 0.7362(10) 0.2545(7)
H20 H -0.2759 0.7160 0.2676
H21 H -0.0635 0.8007 0.2698
C20 C -0.277(4) 0.6788(13) 0.1742(7)
H22 H -0.4157 0.7172 0.1560
H23 H -0.3613 0.6312 0.1964
C21 C -0.1373(17) 0.6178(8) 0.1318(5)
H24 H -0.2620 0.5791 0.1100
H25 H -0.0407 0.6614 0.1095
C22? C 0.3304(17) 0.4602(7) 0.1478(3)
C23? C 0.143(2) 0.5236(7) 0.1246(4)
C24? C 0.1184(10) 0.5287(4) 0.0718(2)
C25? C 0.2723(9) 0.4712(4) 0.04265(18)
C26? C 0.571(2) 0.4145(11) 0.2366(9)
C27? C 0.553(3) 0.4457(12) 0.2863(6)
C28? C 0.521(3) 0.5819(10) 0.3433(4)
C29? C 0.242(2) 0.6044(7) 0.3469(3)
C30? C 0.115(3) 0.6645(6) 0.2735(6)
C31? C -0.093(3) 0.7393(13) 0.2572(9)
C32? C 1.260(4) 0.1061(14) -0.0010(8)
C33? C -0.322(5) 0.6778(15) 0.1778(9)
C34? C -0.196(2) 0.6364(9) 0.1382(6)
C35? C 1.151(2) 0.1746(9) 0.0359(3)
C36? C 0.9392(13) 0.2236(5) 0.0154(2)
C37? C 0.8757(11) 0.2053(5) -0.0357(3)
C38? C 1.0218(17) 0.1422(6) -0.0635(3)
C39? C 0.7995(10) 0.2898(4) 0.0469(2)
C40? C 0.6039(7) 0.3457(3) 0.03275(14)
C41? C 0.4524(11) 0.4075(4) 0.0657(2)
C42? C 0.4810(9) 0.4046(3) 0.1194(2)
H26? H -0.0043 0.5716 0.0554
H27? H 0.2547 0.4753 0.0061
H28? H 0.5529 0.3423 0.2349
H29? H 0.7407 0.4322 0.2244
H30? H 0.3819 0.4246 0.2965
H31? H 0.6801 0.4070 0.3075
H32? H 0.6179 0.6441 0.3463
H33? H 0.5773 0.5406 0.3732
H34? H 0.1403 0.5476 0.3337
H35? H 0.2069 0.6133 0.3836
H36? H 0.0499 0.5964 0.2706
H37? H 0.2684 0.6714 0.2533
H38? H -0.0488 0.8033 0.2734
H39? H -0.2586 0.7177 0.2698
H40? H 1.3813 0.0621 0.0147
H41? H -0.3504 0.6304 0.2057
H42? H -0.4878 0.7077 0.1656
H43? H -0.1236 0.6891 0.1173
H44? H -0.3207 0.5991 0.1156
H45? H 1.2208 0.1839 0.0701
H46? H 0.7299 0.2363 -0.0521
H47? H 0.9696 0.1321 -0.0987
H48? H 0.8566 0.2932 0.0822
H49? H 0.5544 0.3463 -0.0030
H50? H 0.6070 0.3632 0.1359
N2? N 1.228(5) 0.0947(12) -0.0450(11)
O6? O 0.349(2) 0.4649(8) 0.2004(3)
O7? O 0.5811(17) 0.5377(10) 0.3018(6)
O8? O 0.1590(17) 0.6893(5) 0.3191(3)
O9? O -0.123(4) 0.7533(13) 0.1935(6)
O10? O 0.000(3) 0.5739(11) 0.1563(6)
loop_
_geom_bond_atom_site_label_1
_geom_bond_atom_site_label_2
_geom_bond_site_symmetry_1
_geom_bond_site_symmetry_2
O1 C10 1_555 1_555
O2 C15 1_555 1_555
O3 C17 1_555 1_555
O4 C19 1_555 1_555
O5 C11 1_555 1_555
N1 C1 1_555 1_555
C1 H1 1_555 1_555
C2 C1 1_555 1_555
H2 C2 1_555 1_555
C3 C2 1_555 1_555
C4 C3 1_555 1_555
H3 C4 1_555 1_555
C5 N1 1_555 1_555
H4 C5 1_555 1_555
C6 C3 1_555 1_555
H5 C6 1_555 1_555
C7 C6 1_555 1_555
H6 C7 1_555 1_555
C8 C7 1_555 1_555
C9 C8 1_555 1_555
H7 C9 1_555 1_555
C10 C9 1_555 1_555
C11 C10 1_555 1_555
C12 C11 1_555 1_555
H8 C12 1_555 1_555
C13 C8 1_555 1_555
H9 C13 1_555 1_555
C14 O1 1_555 1_555
H10 C14 1_555 1_555
H11 C14 1_555 1_555
C15 C14 1_555 1_555
H12 C15 1_555 1_555
H13 C15 1_555 1_555
C16 O2 1_555 1_555
H14 C16 1_555 1_555
H15 C16 1_555 1_555
C17 C16 1_555 1_555
H16 C17 1_555 1_555
H17 C17 1_555 1_555
C18 O3 1_555 1_555
H18 C18 1_555 1_555
H19 C18 1_555 1_555
C19 C18 1_555 1_555
H20 C19 1_555 1_555
H21 C19 1_555 1_555
C20 O4 1_555 1_555
H22 C20 1_555 1_555
H23 C20 1_555 1_555
C21 O5 1_555 1_555
H24 C21 1_555 1_555
H25 C21 1_555 1_555
C4 C5 1_555 1_555
C12 C13 1_555 1_555
C20 C21 1_555 1_555

#END
