
#######################################################################
#
#                 Cambridge Crystallographic Data Centre
#                                CCDC 
#
#######################################################################
#
# If this CIF has been generated from an entry in the Cambridge 
# Structural Database, then it will include bibliographic, chemical, 
# crystal, experimental, refinement or atomic coordinate data resulting 
# from the CCDC's data processing and validation procedures.
#
#######################################################################

data_EKAJEG
_chemical_formula_moiety         'C37 H30 N2 O2'
_chemical_name_systematic        
2-(3,4-Dimethoxyphenyl)-1,3-bis(acridin-9-yl)propane
_symmetry_cell_setting           monoclinic
_symmetry_space_group_name_H-M   'P 21/c'
_symmetry_Int_Tables_number      14
_space_group_name_Hall           '-P 2ybc'
loop_
_symmetry_equiv_pos_site_id
_symmetry_equiv_pos_as_xyz
1 x,y,z
2 -x,1/2+y,1/2-z
3 -x,-y,-z
4 x,1/2-y,1/2+z
_cell_length_a                   14.8238(13)
_cell_length_b                   10.7294(8)
_cell_length_c                   18.6919(17)
_cell_angle_alpha                90
_cell_angle_beta                 109.978(4)
_cell_angle_gamma                90
_cell_volume                     2794.05
_exptl_crystal_colour            gray-yellow
_exptl_crystal_description       block
_chemical_melting_point          '180-182deg. C'
_cell_formula_units_Z            4
_exptl_crystal_recrystallization_method dichloromethane/hexane
loop_
_atom_site_label
_atom_site_type_symbol
_atom_site_fract_x
_atom_site_fract_y
_atom_site_fract_z
O1 O -0.30542(8) 0.51267(10) -0.46711(6)
O2 O -0.44965(8) 0.65324(10) -0.47186(6)
N1 N 0.01198(8) 0.27917(11) 0.05987(6)
N2 N -0.40971(8) -0.00636(10) -0.32812(6)
C1 C -0.19116(9) 0.48305(12) -0.13035(7)
C2 C -0.24904(9) 0.39601(11) -0.19680(7)
C3 C -0.30057(9) 0.47096(11) -0.26819(7)
C4 C -0.27696(9) 0.45430(12) -0.33423(7)
C5 C -0.32559(10) 0.51955(12) -0.40079(7)
C6 C -0.40208(10) 0.59950(12) -0.40280(7)
C7 C -0.42306(9) 0.61892(12) -0.33689(7)
C8 C -0.37163(9) 0.55613(12) -0.26984(7)
C9 C -0.22713(13) 0.43411(16) -0.46624(9)
C10 C -0.53252(11) 0.72526(17) -0.47684(10)
C11 C -0.12167(9) 0.41317(11) -0.06371(7)
C12 C -0.03658(9) 0.36326(11) -0.07007(7)
C13 C -0.01004(10) 0.37733(13) -0.13668(8)
C14 C 0.07224(10) 0.32480(15) -0.14051(8)
C15 C 0.13387(11) 0.25467(15) -0.07820(9)
C16 C 0.11269(10) 0.24098(14) -0.01334(9)
C17 C 0.02729(9) 0.29480(12) -0.00662(7)
C18 C -0.06828(9) 0.32901(12) 0.06629(7)
C19 C -0.08267(10) 0.31580(13) 0.13805(8)
C20 C -0.16237(11) 0.36215(14) 0.14883(8)
C21 C -0.23453(10) 0.42316(14) 0.08781(8)
C22 C -0.22286(10) 0.43869(13) 0.01900(8)
C23 C -0.13888(9) 0.39477(11) 0.00543(7)
C24 C -0.31992(9) 0.31216(12) -0.17310(7)
C25 C -0.35381(9) 0.20174(11) -0.22631(7)
C26 C -0.44197(9) 0.20248(11) -0.28777(7)
C27 C -0.50969(9) 0.30348(12) -0.30373(8)
C28 C -0.59146(10) 0.30131(13) -0.36648(8)
C29 C -0.61189(10) 0.19823(14) -0.41755(8)
C30 C -0.55125(9) 0.09859(13) -0.40348(8)
C31 C -0.46499(9) 0.09630(12) -0.33810(7)
C32 C -0.32659(9) -0.00743(12) -0.26833(7)
C33 C -0.26827(10) -0.11730(13) -0.25772(8)
C34 C -0.18214(10) -0.12387(13) -0.19990(8)
C35 C -0.14768(10) -0.02076(13) -0.15009(8)
C36 C -0.20169(9) 0.08522(13) -0.15801(7)
C37 C -0.29431(9) 0.09555(11) -0.21673(7)
H1 H -0.1547(12) 0.5419(16) -0.1512(10)
H2 H -0.2365(12) 0.5353(16) -0.1151(9)
H3 H -0.2026(11) 0.3392(15) -0.2091(9)
H4 H -0.2269(13) 0.3943(16) -0.3327(10)
H5 H -0.4714(12) 0.6744(16) -0.3366(9)
H6 H -0.3897(13) 0.5707(17) -0.2256(10)
H7 H -0.2217(15) 0.442(2) -0.5177(13)
H8 H -0.2425(14) 0.3467(19) -0.4582(11)
H9 H -0.1639(14) 0.4651(19) -0.4247(11)
H10 H -0.5637(16) 0.748(2) -0.5336(13)
H11 H -0.5126(14) 0.803(2) -0.4452(11)
H12 H -0.5791(15) 0.6764(19) -0.4614(11)
H13 H -0.0517(12) 0.4278(16) -0.1795(10)
H14 H 0.0907(13) 0.3391(18) -0.1846(11)
H15 H 0.1931(15) 0.2181(19) -0.0824(11)
H16 H 0.1535(14) 0.1959(18) 0.0268(11)
H17 H -0.0325(13) 0.2731(16) 0.1774(10)
H18 H -0.1712(14) 0.3509(18) 0.1990(11)
H19 H -0.2900(13) 0.4524(16) 0.0965(10)
H20 H -0.2726(12) 0.4812(16) -0.0221(10)
H21 H -0.2870(11) 0.2809(15) -0.1211(9)
H22 H -0.3741(12) 0.3631(15) -0.1705(9)
H23 H -0.4975(12) 0.3729(16) -0.2698(10)
H24 H -0.6361(13) 0.3726(17) -0.3756(10)
H25 H -0.6697(14) 0.2010(18) -0.4627(11)
H26 H -0.5630(12) 0.0257(17) -0.4382(10)
H27 H -0.2917(13) -0.1841(18) -0.2929(10)
H28 H -0.1438(13) -0.1972(18) -0.1932(10)
H29 H -0.0839(13) -0.0248(17) -0.1085(10)
H30 H -0.1786(12) 0.1512(16) -0.1255(9)
loop_
_geom_bond_atom_site_label_1
_geom_bond_atom_site_label_2
_geom_bond_site_symmetry_1
_geom_bond_site_symmetry_2
O1 C5 1_555 1_555
O2 C6 1_555 1_555
N1 C17 1_555 1_555
N2 C31 1_555 1_555
C1 C2 1_555 1_555
C2 C3 1_555 1_555
C3 C4 1_555 1_555
C4 C5 1_555 1_555
C5 C6 1_555 1_555
C6 C7 1_555 1_555
C7 C8 1_555 1_555
C8 C3 1_555 1_555
C9 O1 1_555 1_555
C10 O2 1_555 1_555
C11 C1 1_555 1_555
C12 C11 1_555 1_555
C13 C12 1_555 1_555
C14 C13 1_555 1_555
C15 C14 1_555 1_555
C16 C15 1_555 1_555
C17 C12 1_555 1_555
C18 N1 1_555 1_555
C19 C18 1_555 1_555
C20 C19 1_555 1_555
C21 C20 1_555 1_555
C22 C21 1_555 1_555
C23 C11 1_555 1_555
C24 C2 1_555 1_555
C25 C24 1_555 1_555
C26 C25 1_555 1_555
C27 C26 1_555 1_555
C28 C27 1_555 1_555
C29 C28 1_555 1_555
C30 C29 1_555 1_555
C31 C26 1_555 1_555
C32 N2 1_555 1_555
C33 C32 1_555 1_555
C34 C33 1_555 1_555
C35 C34 1_555 1_555
C36 C35 1_555 1_555
C37 C25 1_555 1_555
H1 C1 1_555 1_555
H2 C1 1_555 1_555
H3 C2 1_555 1_555
H4 C4 1_555 1_555
H5 C7 1_555 1_555
H6 C8 1_555 1_555
H7 C9 1_555 1_555
H8 C9 1_555 1_555
H9 C9 1_555 1_555
H10 C10 1_555 1_555
H11 C10 1_555 1_555
H12 C10 1_555 1_555
H13 C13 1_555 1_555
H14 C14 1_555 1_555
H15 C15 1_555 1_555
H16 C16 1_555 1_555
H17 C19 1_555 1_555
H18 C20 1_555 1_555
H19 C21 1_555 1_555
H20 C22 1_555 1_555
H21 C24 1_555 1_555
H22 C24 1_555 1_555
H23 C27 1_555 1_555
H24 C28 1_555 1_555
H25 C29 1_555 1_555
H26 C30 1_555 1_555
H27 C33 1_555 1_555
H28 C34 1_555 1_555
H29 C35 1_555 1_555
H30 C36 1_555 1_555
C16 C17 1_555 1_555
C18 C23 1_555 1_555
C22 C23 1_555 1_555
C30 C31 1_555 1_555
C32 C37 1_555 1_555
C36 C37 1_555 1_555

#END
