
#######################################################################
#
#                 Cambridge Crystallographic Data Centre
#                                CCDC 
#
#######################################################################
#
# If this CIF has been generated from an entry in the Cambridge 
# Structural Database, then it will include bibliographic, chemical, 
# crystal, experimental, refinement or atomic coordinate data resulting 
# from the CCDC's data processing and validation procedures.
#
#######################################################################

data_EKAXUL
_chemical_name_common            
'13,14,23,24,38,39,48,49,56,57,58,59,66,67,68,69-hexadecafluoro-6,31-diphenyl-16,21,41,46-tetraoxa-55,60,61,70,71,72-hexaazatridecacyclo[34.14.4.4$11,26!.2$12,15!.2$22,25!.2$37,40!.2$47,50!.1$2,5!.1$7,10!.1$27,30!.1$32,35!.1$51,54!.1$62,65!]doheptaconta-1(51),2(71),3,5,7,9,11(65),12,14,18,22,24,26,28,30(61),31,33,35,37,39,43,47,49,52,54,56,58,62(72),63,66,68-hentriacontaene dichloromethane solvate'
_chemical_formula_moiety         'C74 H36 F16 N6 O4,2(C1 H2 Cl2)'
_chemical_name_systematic        
"5,20-Diphenyl-bis-(10,15),(25,30)-[4,4'-(2-butenedioxeno)bis(2,3,5,6-tetrafluorophenyl)][26]hexaphyrin(1.1.1.1.1.1) dichloromethane solvate"
_symmetry_cell_setting           monoclinic
_symmetry_space_group_name_H-M   'P 21/c'
_symmetry_Int_Tables_number      14
_space_group_name_Hall           '-P 2ybc'
loop_
_symmetry_equiv_pos_site_id
_symmetry_equiv_pos_as_xyz
1 x,y,z
2 -x,1/2+y,1/2-z
3 -x,-y,-z
4 x,1/2-y,1/2+z
_cell_length_a                   16.254(9)
_cell_length_b                   9.385(5)
_cell_length_c                   21.696(12)
_cell_angle_alpha                90
_cell_angle_beta                 102.077(13)
_cell_angle_gamma                90
_cell_volume                     3236.34
_exptl_crystal_colour            violet
_exptl_crystal_description       Prism
_cell_formula_units_Z            2
loop_
_atom_site_label
_atom_site_type_symbol
_atom_site_fract_x
_atom_site_fract_y
_atom_site_fract_z
C1 C 0.3202(4) 1.3861(6) 0.0054(3)
C2 C 0.4113(4) 1.3960(6) 0.0196(3)
H1 H 0.4452 1.4303 0.0565
C3 C 0.4371(4) 1.3452(6) -0.0316(3)
H2 H 0.4921 1.3396 -0.0374
C4 C 0.3609(4) 1.3012(6) -0.0759(3)
C5 C 0.3497(3) 1.2395(6) -0.1355(3)
C6 C 0.4095(3) 1.2292(6) -0.1738(3)
C7 C 0.3970(4) 1.1507(7) -0.2313(3)
H3 H 0.3488 1.0999 -0.2493
C8 C 0.4670(4) 1.1625(7) -0.2554(3)
H4 H 0.4756 1.1197 -0.2922
C9 C 0.5249(3) 1.2508(7) -0.2151(3)
C10 C 0.6054(4) 1.2889(6) -0.2219(3)
C11 C 0.6639(3) 1.3693(6) -0.1793(3)
C12 C 0.7466(3) 1.4069(6) -0.1887(3)
H5 H 0.7700 1.3822 -0.2228
C13 C 0.7827(4) 1.4845(6) -0.1384(3)
H6 H 0.8369 1.5220 -0.1302
C14 C 0.7214(3) 1.4984(6) -0.0995(3)
C15 C 0.7380(3) 1.5751(6) -0.0422(3)
N1 N 0.2925(3) 1.3255(5) -0.0508(2)
N2 N 0.4883(3) 1.2894(5) -0.1656(2)
H7 H 0.5111 1.3428 -0.1345
N3 N 0.6494(3) 1.4281(5) -0.1252(2)
C16 C 0.2656(3) 1.1761(6) -0.1615(3)
C17 C 0.2139(4) 1.2226(6) -0.2174(3)
C18 C 0.1387(4) 1.1587(7) -0.2421(3)
C19 C 0.1092(4) 1.0429(7) -0.2126(3)
C20 C 0.1592(4) 0.9998(7) -0.1559(3)
C21 C 0.2342(4) 1.0628(7) -0.1322(3)
F1 F 0.2383(2) 1.3319(4) -0.24898(16)
F2 F 0.0931(2) 1.2058(4) -0.29741(15)
F3 F 0.1331(2) 0.8888(4) -0.12525(18)
F4 F 0.2798(2) 1.0135(4) -0.07713(16)
C22 C 0.6288(4) 1.2442(7) -0.2829(3)
C23 C 0.6941(4) 1.1502(7) -0.2839(3)
H8 H 0.7233 1.1112 -0.2462
C24 C 0.7170(4) 1.1129(7) -0.3397(3)
H9 H 0.7612 1.0500 -0.3398
C25 C 0.6726(4) 1.1714(7) -0.3956(3)
H10 H 0.6870 1.1476 -0.4336
C26 C 0.6071(4) 1.2647(7) -0.3951(3)
H11 H 0.5773 1.3035 -0.4326
C27 C 0.5862(4) 1.3000(7) -0.3387(3)
H12 H 0.5421 1.3632 -0.3385
C28 C 0.8275(3) 1.6137(6) -0.0153(3)
C29 C 0.8750(4) 1.5360(7) 0.0345(3)
C30 C 0.9562(4) 1.5668(7) 0.0603(3)
C31 C 0.9982(4) 1.6776(7) 0.0386(3)
C32 C 0.9517(4) 1.7553(6) -0.0116(3)
C33 C 0.8697(4) 1.7260(6) -0.0358(3)
F5 F 0.8387(2) 1.4230(4) 0.05750(17)
F6 F 0.9982(2) 1.4864(4) 0.10857(16)
F7 F 0.9905(2) 1.8622(4) -0.03670(17)
F8 F 0.8281(2) 1.8068(4) -0.08428(17)
O1 O 0.0388(2) 0.9695(5) -0.2395(2)
C34 C -0.0400(4) 1.0434(8) -0.2435(3)
H13 H -0.0846 0.9929 -0.2718
H14 H -0.0361 1.1387 -0.2600
C35 C -0.0592(4) 1.0515(9) -0.1794(4)
H15 H -0.0562 0.9684 -0.1557
C36 C -0.0805(4) 1.1715(9) -0.1546(4)
H16 H -0.0775 1.2569 -0.1758
C37 C 1.1091(4) 1.8266(8) 0.0934(3)
H17 H 1.0859 1.9079 0.0680
H18 H 1.1700 1.8331 0.1013
O2 O 1.0817(3) 1.6956(5) 0.0597(2)
C1B C 0.6798(4) 1.6139(6) -0.0054(3)
C2B C 0.5887(4) 1.6040(6) -0.0196(3)
H1B H 0.5548 1.5697 -0.0565
C3B C 0.5629(4) 1.6548(6) 0.0316(3)
H2B H 0.5079 1.6604 0.0374
C4B C 0.6391(4) 1.6988(6) 0.0759(3)
C5B C 0.6503(3) 1.7605(6) 0.1355(3)
C6B C 0.5905(3) 1.7708(6) 0.1738(3)
C7B C 0.6030(4) 1.8493(7) 0.2313(3)
H3B H 0.6512 1.9001 0.2493
C8B C 0.5330(4) 1.8375(7) 0.2554(3)
H4B H 0.5244 1.8803 0.2922
C9B C 0.4751(3) 1.7492(7) 0.2151(3)
C10B C 0.3946(4) 1.7111(6) 0.2219(3)
C11B C 0.3361(3) 1.6307(6) 0.1793(3)
C12B C 0.2534(3) 1.5931(6) 0.1887(3)
H5B H 0.2300 1.6178 0.2228
C13B C 0.2173(4) 1.5155(6) 0.1384(3)
H6B H 0.1631 1.4780 0.1302
C14B C 0.2786(3) 1.5016(6) 0.0995(3)
C15B C 0.2620(3) 1.4249(6) 0.0422(3)
N1B N 0.7075(3) 1.6745(5) 0.0508(2)
N2B N 0.5117(3) 1.7106(5) 0.1656(2)
H7B H 0.4889 1.6572 0.1345
N3B N 0.3506(3) 1.5719(5) 0.1252(2)
C16B C 0.7344(3) 1.8239(6) 0.1615(3)
C17B C 0.7861(4) 1.7774(6) 0.2174(3)
C18B C 0.8613(4) 1.8413(7) 0.2421(3)
C19B C 0.8908(4) 1.9571(7) 0.2126(3)
C20B C 0.8408(4) 2.0002(7) 0.1559(3)
C21B C 0.7658(4) 1.9372(7) 0.1322(3)
F1B F 0.7617(2) 1.6681(4) 0.24898(16)
F2B F 0.9069(2) 1.7942(4) 0.29741(15)
F3B F 0.8669(2) 2.1112(4) 0.12525(18)
F4B F 0.7202(2) 1.9865(4) 0.07713(16)
C22B C 0.3712(4) 1.7558(7) 0.2829(3)
C23B C 0.3059(4) 1.8498(7) 0.2839(3)
H8B H 0.2767 1.8888 0.2462
C24B C 0.2830(4) 1.8871(7) 0.3397(3)
H9B H 0.2388 1.9500 0.3398
C25B C 0.3274(4) 1.8286(7) 0.3956(3)
H10B H 0.3130 1.8524 0.4336
C26B C 0.3929(4) 1.7353(7) 0.3951(3)
H11B H 0.4227 1.6965 0.4326
C27B C 0.4138(4) 1.7000(7) 0.3387(3)
H12B H 0.4579 1.6368 0.3385
C28B C 0.1725(3) 1.3863(6) 0.0153(3)
C29B C 0.1250(4) 1.4640(7) -0.0345(3)
C30B C 0.0438(4) 1.4332(7) -0.0603(3)
C31B C 0.0018(4) 1.3224(7) -0.0386(3)
C32B C 0.0483(4) 1.2447(6) 0.0116(3)
C33B C 0.1303(4) 1.2740(6) 0.0358(3)
F5B F 0.1613(2) 1.5770(4) -0.05750(17)
F6B F 0.0018(2) 1.5136(4) -0.10857(16)
F7B F 0.0095(2) 1.1378(4) 0.03670(17)
F8B F 0.1719(2) 1.1932(4) 0.08428(17)
O1B O 0.9612(2) 2.0305(5) 0.2395(2)
C34B C 1.0400(4) 1.9566(8) 0.2435(3)
H13B H 1.0846 2.0071 0.2718
H14B H 1.0361 1.8613 0.2600
C35B C 1.0592(4) 1.9485(9) 0.1794(4)
H15B H 1.0562 2.0316 0.1557
C36B C 1.0805(4) 1.8285(9) 0.1546(4)
H16B H 1.0775 1.7431 0.1758
C37B C -0.1091(4) 1.1734(8) -0.0934(3)
H17B H -0.0859 1.0921 -0.0680
H18B H -0.1700 1.1669 -0.1013
O2B O -0.0817(3) 1.3044(5) -0.0597(2)
C38 C 0.3409(5) 0.9909(13) 0.0723(4)
H19 H 0.3132 0.8991 0.0712
H20 H 0.3057 1.0521 0.0416
Cl1 Cl 0.43651(11) 0.9683(2) 0.05102(8)
Cl2 Cl 0.35036(12) 1.0657(3) 0.14767(9)
loop_
_geom_bond_atom_site_label_1
_geom_bond_atom_site_label_2
_geom_bond_site_symmetry_1
_geom_bond_site_symmetry_2
C1 C2 1_555 1_555
C2 H1 1_555 1_555
C3 C2 1_555 1_555
H2 C3 1_555 1_555
C4 C3 1_555 1_555
C5 C4 1_555 1_555
C6 C5 1_555 1_555
C7 C6 1_555 1_555
H3 C7 1_555 1_555
C8 C7 1_555 1_555
H4 C8 1_555 1_555
C9 C8 1_555 1_555
C10 C9 1_555 1_555
C11 C10 1_555 1_555
C12 C11 1_555 1_555
H5 C12 1_555 1_555
C13 C12 1_555 1_555
H6 C13 1_555 1_555
C14 C13 1_555 1_555
C15 C14 1_555 1_555
N1 C1 1_555 1_555
N2 C6 1_555 1_555
H7 N2 1_555 1_555
N3 C11 1_555 1_555
C16 C5 1_555 1_555
C17 C16 1_555 1_555
C18 C17 1_555 1_555
C19 C18 1_555 1_555
C20 C19 1_555 1_555
C21 C16 1_555 1_555
F1 C17 1_555 1_555
F2 C18 1_555 1_555
F3 C20 1_555 1_555
F4 C21 1_555 1_555
C22 C10 1_555 1_555
C23 C22 1_555 1_555
H8 C23 1_555 1_555
C24 C23 1_555 1_555
H9 C24 1_555 1_555
C25 C24 1_555 1_555
H10 C25 1_555 1_555
C26 C25 1_555 1_555
H11 C26 1_555 1_555
C27 C22 1_555 1_555
H12 C27 1_555 1_555
C28 C15 1_555 1_555
C29 C28 1_555 1_555
C30 C29 1_555 1_555
C31 C30 1_555 1_555
C32 C31 1_555 1_555
C33 C28 1_555 1_555
F5 C29 1_555 1_555
F6 C30 1_555 1_555
F7 C32 1_555 1_555
F8 C33 1_555 1_555
O1 C19 1_555 1_555
C34 O1 1_555 1_555
H13 C34 1_555 1_555
H14 C34 1_555 1_555
C35 C34 1_555 1_555
H15 C35 1_555 1_555
C36 C35 1_555 1_555
H16 C36 1_555 1_555
C37 H17 1_555 1_555
H18 C37 1_555 1_555
O2 C31 1_555 1_555
C38 H19 1_555 1_555
H20 C38 1_555 1_555
Cl1 C38 1_555 1_555
Cl2 C38 1_555 1_555
C1B C15 1_555 1_555
C2B C1B 1_555 1_555
H1B C2B 1_555 1_555
C3B C2B 1_555 1_555
H2B C3B 1_555 1_555
C4B C3B 1_555 1_555
C5B C4B 1_555 1_555
C6B C5B 1_555 1_555
C7B C6B 1_555 1_555
H3B C7B 1_555 1_555
C8B C7B 1_555 1_555
H4B C8B 1_555 1_555
C9B C8B 1_555 1_555
C10B C9B 1_555 1_555
C11B C10B 1_555 1_555
C12B C11B 1_555 1_555
H5B C12B 1_555 1_555
C13B C12B 1_555 1_555
H6B C13B 1_555 1_555
C14B C13B 1_555 1_555
C15B C1 1_555 1_555
N1B C1B 1_555 1_555
N2B C6B 1_555 1_555
H7B N2B 1_555 1_555
N3B C11B 1_555 1_555
C16B C5B 1_555 1_555
C17B C16B 1_555 1_555
C18B C17B 1_555 1_555
C19B C18B 1_555 1_555
C20B C19B 1_555 1_555
C21B C16B 1_555 1_555
F1B C17B 1_555 1_555
F2B C18B 1_555 1_555
F3B C20B 1_555 1_555
F4B C21B 1_555 1_555
C22B C10B 1_555 1_555
C23B C22B 1_555 1_555
H8B C23B 1_555 1_555
C24B C23B 1_555 1_555
H9B C24B 1_555 1_555
C25B C24B 1_555 1_555
H10B C25B 1_555 1_555
C26B C25B 1_555 1_555
H11B C26B 1_555 1_555
C27B C22B 1_555 1_555
H12B C27B 1_555 1_555
C28B C15B 1_555 1_555
C29B C28B 1_555 1_555
C30B C29B 1_555 1_555
C31B C30B 1_555 1_555
C32B C31B 1_555 1_555
C33B C28B 1_555 1_555
F5B C29B 1_555 1_555
F6B C30B 1_555 1_555
F7B C32B 1_555 1_555
F8B C33B 1_555 1_555
O1B C19B 1_555 1_555
C34B O1B 1_555 1_555
H13B C34B 1_555 1_555
H14B C34B 1_555 1_555
C35B C34B 1_555 1_555
H15B C35B 1_555 1_555
C36B C37 1_555 1_555
H16B C36B 1_555 1_555
C37B C36 1_555 1_555
H17B C37B 1_555 1_555
H18B C37B 1_555 1_555
O2B C31B 1_555 1_555
C4 N1 1_555 1_555
C9 N2 1_555 1_555
C14 N3 1_555 1_555
C20 C21 1_555 1_555
C26 C27 1_555 1_555
C32 C33 1_555 1_555
C37 O2 1_555 1_555
C4B N1B 1_555 1_555
C9B N2B 1_555 1_555
C14B C15B 1_555 1_555
C14B N3B 1_555 1_555
C20B C21B 1_555 1_555
C26B C27B 1_555 1_555
C32B C33B 1_555 1_555
C35B C36B 1_555 1_555
C37B O2B 1_555 1_555

#END
