
#######################################################################
#
#                 Cambridge Crystallographic Data Centre
#                                CCDC 
#
#######################################################################
#
# If this CIF has been generated from an entry in the Cambridge 
# Structural Database, then it will include bibliographic, chemical, 
# crystal, experimental, refinement or atomic coordinate data resulting 
# from the CCDC's data processing and validation procedures.
#
#######################################################################

data_EKEWEW
_chemical_formula_moiety         'C24 H27 N3 S6'
_chemical_name_systematic        
2,4,6-Trimethyl-1,3,5-tris(4-methylthiazol-2-ylsulfanylmethyl)benzene
_symmetry_cell_setting           monoclinic
_symmetry_space_group_name_H-M   'P 21/n'
_symmetry_Int_Tables_number      14
_space_group_name_Hall           '-P 2yn'
loop_
_symmetry_equiv_pos_site_id
_symmetry_equiv_pos_as_xyz
1 x,y,z
2 1/2+x,1/2-y,1/2+z
3 -x,-y,-z
4 1/2-x,1/2+y,1/2-z
_cell_length_a                   12.216(4)
_cell_length_b                   17.801(5)
_cell_length_c                   12.528(4)
_cell_angle_alpha                90
_cell_angle_beta                 93.420(6)
_cell_angle_gamma                90
_cell_volume                     2719.45
_exptl_crystal_colour            colorless
_exptl_crystal_description       prism
_chemical_melting_point          '388-389 K'
_cell_formula_units_Z            4
_exptl_crystal_recrystallization_method acetone/chloroform
loop_
_atom_site_label
_atom_site_type_symbol
_atom_site_fract_x
_atom_site_fract_y
_atom_site_fract_z
S1 S 0.58944(9) 0.04420(6) 0.72001(10)
S2 S 0.38138(9) 0.11800(7) 0.78092(10)
S3 S 0.89432(12) -0.22489(6) 0.57718(9)
S4 S 0.87887(13) -0.38177(7) 0.49189(14)
S5 S 1.07953(10) 0.01463(6) 0.89455(9)
S7 S 1.1851(12) 0.0650(9) 1.1088(7)
C5 C 1.154(2) 0.0802(9) 0.9754(12)
C6 C 1.2543(15) 0.1484(10) 1.1150(12)
H5 H 1.2900 0.1682 1.1763
C7 C 1.2495(13) 0.1812(6) 1.0192(13)
N2 N 1.192(2) 0.1422(9) 0.9379(13)
C8 C 1.3007(19) 0.2557(7) 0.9911(18)
H6 H 1.3365 0.2773 1.0541
H7 H 1.2445 0.2892 0.9630
H8 H 1.3534 0.2478 0.9384
N3 N 0.5027(3) 0.17344(19) 0.6409(3)
N4 N 0.9259(3) -0.27008(19) 0.3751(3)
C9 C 0.7899(3) 0.0318(2) 0.6336(3)
C10 C 0.8783(3) 0.0609(2) 0.6969(3)
C11 C 0.9793(3) 0.0248(2) 0.6980(3)
C12 C 0.9924(3) -0.0414(2) 0.6398(3)
C13 C 0.9029(3) -0.0700(2) 0.5779(3)
C14 C 0.8012(3) -0.0347(2) 0.5771(3)
C15 C 0.7034(3) -0.0687(2) 0.5134(4)
H9 H 0.6371 -0.0552 0.5461
H10 H 0.7105 -0.1224 0.5126
H11 H 0.7010 -0.0500 0.4415
C16 C 1.1015(3) -0.0820(2) 0.6446(3)
H12 H 1.0892 -0.1352 0.6403
H13 H 1.1417 -0.0702 0.7106
H14 H 1.1429 -0.0663 0.5857
C17 C 0.8637(3) 0.1293(2) 0.7669(3)
H15 H 0.9000 0.1716 0.7373
H16 H 0.8949 0.1195 0.8377
H17 H 0.7870 0.1401 0.7701
C18 C 0.6835(3) 0.0744(2) 0.6222(3)
H18 H 0.6500 0.0666 0.5509
H19 H 0.6980 0.1277 0.6311
C19 C 0.4942(3) 0.1174(2) 0.7055(3)
C20 C 0.3422(4) 0.2001(2) 0.7194(4)
H20 H 0.2786 0.2264 0.7326
C21 C 0.4142(4) 0.2216(2) 0.6503(4)
C22 C 0.4099(4) 0.2905(3) 0.5811(4)
H21 H 0.4074 0.2759 0.5072
H22 H 0.4741 0.3206 0.5973
H23 H 0.3456 0.3192 0.5945
C23 C 0.9189(3) -0.13771(19) 0.5068(3)
H24 H 0.9932 -0.1377 0.4834
H25 H 0.8689 -0.1344 0.4438
C24 C 0.9039(4) -0.2878(2) 0.4713(4)
C25 C 0.8996(5) -0.3966(3) 0.3602(5)
H26 H 0.8946 -0.4434 0.3273
C26 C 0.9241(4) -0.3330(3) 0.3096(5)
C27 C 0.9500(5) -0.3251(3) 0.1959(4)
H27 H 0.9079 -0.2846 0.1638
H28 H 0.9322 -0.3709 0.1585
H29 H 1.0268 -0.3146 0.1919
C28 C 1.0758(3) 0.0581(2) 0.7634(3)
H30 H 1.0671 0.1120 0.7697
H31 H 1.1435 0.0481 0.7293
S6? S 1.2236(12) 0.0415(6) 1.0833(12)
C1? C 1.167(2) 0.0760(10) 0.9661(14)
C2? C 1.2816(17) 0.1276(9) 1.1064(14)
H1? H 1.3261 0.1399 1.1667
C3? C 1.2551(16) 0.1748(8) 1.0272(14)
N1? N 1.188(3) 0.1450(11) 0.9446(14)
C4? C 1.290(2) 0.2560(9) 1.018(2)
H2? H 1.3399 0.2687 1.0774
H3? H 1.2269 0.2880 1.0178
H4? H 1.3261 0.2629 0.9525
loop_
_geom_bond_atom_site_label_1
_geom_bond_atom_site_label_2
_geom_bond_site_symmetry_1
_geom_bond_site_symmetry_2
S1 C18 1_555 1_555
S2 C19 1_555 1_555
S3 C23 1_555 1_555
S4 C24 1_555 1_555
S5 C5 1_555 1_555
S7 C5 1_555 1_555
C5 N2 1_555 1_555
C6 S7 1_555 1_555
H5 C6 1_555 1_555
C7 C6 1_555 1_555
N2 C7 1_555 1_555
C8 C7 1_555 1_555
H6 C8 1_555 1_555
H7 C8 1_555 1_555
H8 C8 1_555 1_555
N3 C19 1_555 1_555
N4 C24 1_555 1_555
C9 C10 1_555 1_555
C10 C11 1_555 1_555
C11 C12 1_555 1_555
C12 C13 1_555 1_555
C13 C14 1_555 1_555
C14 C9 1_555 1_555
C15 C14 1_555 1_555
H9 C15 1_555 1_555
H10 C15 1_555 1_555
H11 C15 1_555 1_555
C16 C12 1_555 1_555
H12 C16 1_555 1_555
H13 C16 1_555 1_555
H14 C16 1_555 1_555
C17 C10 1_555 1_555
H15 C17 1_555 1_555
H16 C17 1_555 1_555
H17 C17 1_555 1_555
C18 C9 1_555 1_555
H18 C18 1_555 1_555
H19 C18 1_555 1_555
C19 S1 1_555 1_555
C20 S2 1_555 1_555
H20 C20 1_555 1_555
C21 N3 1_555 1_555
C22 C21 1_555 1_555
H21 C22 1_555 1_555
H22 C22 1_555 1_555
H23 C22 1_555 1_555
C23 C13 1_555 1_555
H24 C23 1_555 1_555
H25 C23 1_555 1_555
C24 S3 1_555 1_555
C25 S4 1_555 1_555
H26 C25 1_555 1_555
C26 N4 1_555 1_555
C27 C26 1_555 1_555
H27 C27 1_555 1_555
H28 C27 1_555 1_555
H29 C27 1_555 1_555
C28 S5 1_555 1_555
H30 C28 1_555 1_555
H31 C28 1_555 1_555
C11 C28 1_555 1_555
C20 C21 1_555 1_555
C25 C26 1_555 1_555

#END
