
#######################################################################
#
#                 Cambridge Crystallographic Data Centre
#                                CCDC 
#
#######################################################################
#
# If this CIF has been generated from an entry in the Cambridge 
# Structural Database, then it will include bibliographic, chemical, 
# crystal, experimental, refinement or atomic coordinate data resulting 
# from the CCDC's data processing and validation procedures.
#
#######################################################################

data_EKICIM
_chemical_formula_moiety         'C17 H3 F15 N2'
_chemical_name_systematic        1,2,4,6,9-pentakis(trifluoromethyl)phenazine
_symmetry_cell_setting           monoclinic
_symmetry_space_group_name_H-M   'P 21/n'
_symmetry_Int_Tables_number      14
_space_group_name_Hall           '-P 2yn'
loop_
_symmetry_equiv_pos_site_id
_symmetry_equiv_pos_as_xyz
1 x,y,z
2 1/2-x,1/2+y,1/2-z
3 -x,-y,-z
4 1/2+x,1/2-y,1/2+z
_cell_length_a                   12.0626(5)
_cell_length_b                   11.3398(5)
_cell_length_c                   13.0857(6)
_cell_angle_alpha                90
_cell_angle_beta                 98.9740(10)
_cell_angle_gamma                90
_cell_volume                     1768.05
_exptl_crystal_colour            'light yellow'
_exptl_crystal_description       needle
_cell_formula_units_Z            4
_exptl_crystal_recrystallization_method ethanol
loop_
_atom_site_label
_atom_site_type_symbol
_atom_site_fract_x
_atom_site_fract_y
_atom_site_fract_z
F1 F 0.53815(8) 0.44724(9) 0.35639(8)
F2 F 0.40669(10) 0.43202(11) 0.22597(7)
F3 F 0.52718(13) 0.57366(12) 0.23643(12)
F4 F 0.40107(8) 0.74092(10) 0.16407(7)
F5 F 0.52943(9) 0.79217(12) 0.28736(8)
F6 F 0.3690(4) 0.8865(2) 0.2525(3)
F7 F 0.16828(9) 0.88449(7) 0.50715(8)
F8 F 0.20921(8) 0.75919(8) 0.63050(7)
F9 F 0.06528(8) 0.73101(8) 0.51379(7)
F10 F 0.00868(8) 0.46480(8) 0.63353(7)
F11 F 0.15154(9) 0.48192(8) 0.75397(7)
F12 F 0.04415(10) 0.33004(9) 0.74989(8)
F13 F 0.37657(9) 0.03651(8) 0.46055(8)
F14 F 0.48105(7) 0.18975(8) 0.45799(7)
F15 F 0.33850(8) 0.16401(8) 0.33831(6)
N1 N 0.34454(9) 0.40059(9) 0.42650(8)
N2 N 0.20483(9) 0.52187(9) 0.54577(8)
C1 C 0.38731(11) 0.58191(12) 0.34686(9)
C2 C 0.36848(12) 0.70113(12) 0.33509(9)
C3 C 0.29637(12) 0.76068(11) 0.39506(10)
H1 H 0.2848 0.8431 0.3859
C4 C 0.24389(11) 0.70267(11) 0.46492(9)
C5 C 0.16401(11) 0.33995(11) 0.62508(9)
C6 C 0.17755(12) 0.22124(11) 0.63296(10)
H2 H 0.1406 0.1786 0.6803
C7 C 0.24621(12) 0.15941(11) 0.57143(10)
H3 H 0.2535 0.0762 0.5777
C8 C 0.30130(11) 0.21803(11) 0.50397(9)
C9 C 0.32991(11) 0.51772(11) 0.41804(9)
C10 C 0.25828(11) 0.57838(11) 0.47778(9)
C11 C 0.21972(10) 0.40555(10) 0.55406(9)
C12 C 0.29008(10) 0.34370(10) 0.49311(9)
C13 C 0.46450(14) 0.50907(14) 0.29029(11)
C14 C 0.42040(14) 0.77935(14) 0.26044(11)
C15 C 0.17146(12) 0.76877(11) 0.52946(10)
C16 C 0.09168(13) 0.40479(12) 0.69037(10)
C17 C 0.37476(12) 0.15271(12) 0.43997(10)
F16? F 0.415(2) 0.8911(7) 0.2859(18)
loop_
_geom_bond_atom_site_label_1
_geom_bond_atom_site_label_2
_geom_bond_site_symmetry_1
_geom_bond_site_symmetry_2
F1 C13 1_555 1_555
F2 C13 1_555 1_555
F3 C13 1_555 1_555
F4 C14 1_555 1_555
F5 C14 1_555 1_555
F6 C14 1_555 1_555
F7 C15 1_555 1_555
F8 C15 1_555 1_555
F9 C15 1_555 1_555
F10 C16 1_555 1_555
F11 C16 1_555 1_555
F12 C16 1_555 1_555
F13 C17 1_555 1_555
F14 C17 1_555 1_555
F15 C17 1_555 1_555
N1 C9 1_555 1_555
N2 C10 1_555 1_555
C1 C2 1_555 1_555
C2 C3 1_555 1_555
C3 H1 1_555 1_555
C4 C3 1_555 1_555
C5 C6 1_555 1_555
C6 H2 1_555 1_555
C7 C6 1_555 1_555
H3 C7 1_555 1_555
C8 C7 1_555 1_555
C9 C1 1_555 1_555
C10 C4 1_555 1_555
C11 N2 1_555 1_555
C12 N1 1_555 1_555
C13 C1 1_555 1_555
C14 C2 1_555 1_555
C15 C4 1_555 1_555
C16 C5 1_555 1_555
C17 C8 1_555 1_555
C5 C11 1_555 1_555
C8 C12 1_555 1_555
C9 C10 1_555 1_555
C11 C12 1_555 1_555

#END
