
#######################################################################
#
#                 Cambridge Crystallographic Data Centre
#                                CCDC 
#
#######################################################################
#
# If this CIF has been generated from an entry in the Cambridge 
# Structural Database, then it will include bibliographic, chemical, 
# crystal, experimental, refinement or atomic coordinate data resulting 
# from the CCDC's data processing and validation procedures.
#
#######################################################################

data_EKIMUI
_chemical_formula_moiety         'C45 H60 N6,C3 H8 O1'
_chemical_name_systematic        
'3,10,17,24,31,38-hexaazadecacyclo[38.2.2.2^12,15^.2^26,29^.1^3,10^.1^17,24^.1^31,38^.0^4,9^.0^18,23^.0^32,37^]henpentaconta-1(42),12,14,26,28,40,43,46,49-nonaene propan-1-ol  clathrate'
_symmetry_cell_setting           orthorhombic
_symmetry_space_group_name_H-M   'P 21 21 21'
_symmetry_Int_Tables_number      19
_space_group_name_Hall           'P 2ac 2ab'
loop_
_symmetry_equiv_pos_site_id
_symmetry_equiv_pos_as_xyz
1 x,y,z
2 1/2-x,-y,1/2+z
3 1/2+x,1/2-y,-z
4 -x,1/2+y,1/2-z
_cell_length_a                   9.14270(10)
_cell_length_b                   18.2851(2)
_cell_length_c                   25.7424(4)
_cell_angle_alpha                90
_cell_angle_beta                 90
_cell_angle_gamma                90
_cell_volume                     4303.49
_exptl_crystal_colour            colorless
_exptl_crystal_description       block
_cell_formula_units_Z            4
loop_
_atom_site_label
_atom_site_type_symbol
_atom_site_fract_x
_atom_site_fract_y
_atom_site_fract_z
C1 C -0.2457(2) 0.61661(12) 0.16871(9)
H1 H -0.1726 0.6546 0.1583
C2 C -0.1921(2) 0.54303(13) 0.14991(9)
H2 H -0.2671 0.5050 0.1582
C3 C -0.1650(3) 0.54351(14) 0.09193(10)
H3 H -0.1327 0.4945 0.0803
H4 H -0.0873 0.5792 0.0833
C4 C -0.3078(3) 0.56455(15) 0.06472(10)
H5 H -0.2895 0.5695 0.0270
H6 H -0.3802 0.5249 0.0697
C5 C -0.3717(3) 0.63601(14) 0.08531(10)
H7 H -0.4676 0.6447 0.0686
H8 H -0.3061 0.6768 0.0755
C6 C -0.3919(3) 0.63611(14) 0.14456(10)
H9 H -0.4239 0.6850 0.1565
H10 H -0.4670 0.5999 0.1547
N1 N -0.2388(2) 0.60762(11) 0.22517(8)
N2 N -0.0648(2) 0.53256(11) 0.18354(8)
C7 C -0.1118(3) 0.55962(14) 0.23461(10)
H11 H -0.0318 0.5873 0.2515
H12 H -0.1395 0.5183 0.2574
C8 C -0.0128(3) 0.45735(14) 0.18447(11)
H13 H -0.0017 0.4399 0.1483
H14 H -0.0876 0.4264 0.2015
C9 C 0.1310(3) 0.44769(13) 0.21249(10)
C10 C 0.1527(3) 0.38767(13) 0.24461(10)
H15 H 0.0745 0.3544 0.2503
C11 C 0.2866(3) 0.37520(13) 0.26866(10)
H16 H 0.2987 0.3335 0.2902
C12 C 0.4024(3) 0.42286(13) 0.26158(9)
C13 C 0.3802(3) 0.48425(14) 0.23035(10)
H17 H 0.4576 0.5183 0.2257
C14 C 0.2464(3) 0.49640(14) 0.20587(10)
H18 H 0.2339 0.5383 0.1845
C15 C 0.5512(3) 0.40881(14) 0.28518(11)
H19 H 0.6183 0.3915 0.2576
H20 H 0.5906 0.4554 0.2989
C16 C 0.6927(3) 0.33000(17) 0.34326(10)
H21 H 0.7616 0.3724 0.3443
C17 C 0.6618(3) 0.30462(14) 0.39818(10)
H22 H 0.5987 0.2600 0.3966
C18 C 0.8011(4) 0.2857(3) 0.42641(13)
H23 H 0.7788 0.2689 0.4621
H24 H 0.8653 0.3292 0.4286
C19 C 0.8767(5) 0.2249(4) 0.39575(16)
H25 H 0.8158 0.1802 0.3972
H26 H 0.9719 0.2136 0.4123
C20 C 0.9027(5) 0.2459(4) 0.33822(16)
H27 H 0.9733 0.2868 0.3365
H28 H 0.9459 0.2037 0.3196
C21 C 0.7601(4) 0.2684(2) 0.31121(13)
H29 H 0.7805 0.2855 0.2754
H30 H 0.6922 0.2264 0.3093
N3 N 0.5485(2) 0.35532(12) 0.32677(8)
N4 N 0.5740(2) 0.36573(11) 0.41767(8)
C22 C 0.4774(4) 0.3831(2) 0.37377(11)
H31 H 0.3809 0.3595 0.3785
H32 H 0.4627 0.4366 0.3712
C23 C 0.4923(3) 0.35053(15) 0.46491(11)
H33 H 0.5606 0.3325 0.4919
H34 H 0.4203 0.3113 0.4579
C24 C 0.4127(3) 0.41708(13) 0.48546(9)
C25 C 0.2818(3) 0.41180(15) 0.51220(14)
H35 H 0.2366 0.3653 0.5157
C26 C 0.2149(3) 0.47253(15) 0.53397(13)
H36 H 0.1257 0.4669 0.5525
C27 C 0.2765(3) 0.54095(13) 0.52905(9)
C28 C 0.4043(3) 0.54715(14) 0.50107(10)
H37 H 0.4462 0.5941 0.4958
C29 C 0.4731(3) 0.48592(14) 0.48039(10)
H38 H 0.5633 0.4915 0.4625
C30 C 0.2122(3) 0.60791(14) 0.55471(11)
H39 H 0.2472 0.6101 0.5911
H40 H 0.2490 0.6520 0.5366
C31 C -0.0056(2) 0.66997(12) 0.58584(9)
H41 H 0.0499 0.7156 0.5774
C32 C -0.1584(3) 0.67647(13) 0.56441(9)
H42 H -0.2156 0.6322 0.5748
C33 C -0.2343(3) 0.74399(15) 0.58563(11)
H43 H -0.3346 0.7476 0.5714
H44 H -0.1796 0.7885 0.5756
C34 C -0.2395(3) 0.73682(16) 0.64502(11)
H45 H -0.2831 0.7817 0.6600
H46 H -0.3030 0.6950 0.6545
C35 C -0.0871(3) 0.72514(16) 0.66830(11)
H47 H -0.0278 0.7697 0.6627
H48 H -0.0965 0.7175 0.7062
C36 C -0.0076(3) 0.65956(14) 0.64442(10)
H49 H 0.0936 0.6567 0.6580
H50 H -0.0591 0.6136 0.6534
N5 N 0.0525(2) 0.60977(10) 0.55476(8)
N6 N -0.1309(2) 0.67362(11) 0.50832(8)
C37 C -0.0103(3) 0.62011(13) 0.50263(9)
H51 H -0.0480 0.5731 0.4890
H52 H 0.0648 0.6390 0.4784
C38 C -0.2609(3) 0.65267(15) 0.47923(10)
H53 H -0.3430 0.6844 0.4902
H54 H -0.2866 0.6017 0.4885
C39 C -0.2458(3) 0.65771(13) 0.42068(9)
C40 C -0.3344(4) 0.61499(17) 0.38905(11)
H55 H -0.4009 0.5816 0.4046
C41 C -0.3283(4) 0.61978(16) 0.33532(11)
H56 H -0.3899 0.5897 0.3147
C42 C -0.2327(3) 0.66824(12) 0.31156(9)
C43 C -0.1455(3) 0.71200(14) 0.34314(10)
H57 H -0.0799 0.7459 0.3277
C44 C -0.1528(3) 0.70681(14) 0.39688(10)
H58 H -0.0927 0.7376 0.4176
C45 C -0.2306(3) 0.67690(13) 0.25306(9)
H59 H -0.3141 0.7080 0.2425
H60 H -0.1395 0.7025 0.2429
O1 O -0.1291(5) 0.4568(2) 0.42728(15)
C46 C -0.0543(6) 0.4886(3) 0.3853(2)
H61 H -0.0909 0.5390 0.3800
H62 H -0.0757 0.4603 0.3534
C47 C 0.1011(7) 0.4910(3) 0.3930(2)
H63 H 0.1414 0.4410 0.3890
H64 H 0.1217 0.5073 0.4289
C48 C 0.1783(8) 0.5419(3) 0.3551(3)
H65 H 0.2039 0.5148 0.3235
H66 H 0.2674 0.5611 0.3712
H67 H 0.1131 0.5825 0.3461
O2? O 0.263(2) 0.5644(9) 0.3439(7)
C49? C 0.134(2) 0.5586(8) 0.3790(7)
H68? H 0.0722 0.6023 0.3742
H69? H 0.1690 0.5584 0.4154
C50? C 0.0432(19) 0.4915(11) 0.3699(9)
H70? H 0.0291 0.4847 0.3321
H71? H -0.0543 0.4986 0.3859
C51? C 0.1127(19) 0.4235(8) 0.3924(8)
H72? H 0.2107 0.4355 0.4052
H73? H 0.1200 0.3859 0.3654
H74? H 0.0527 0.4052 0.4211
loop_
_geom_bond_atom_site_label_1
_geom_bond_atom_site_label_2
_geom_bond_site_symmetry_1
_geom_bond_site_symmetry_2
C1 H1 1_555 1_555
C2 C1 1_555 1_555
H2 C2 1_555 1_555
C3 C2 1_555 1_555
H3 C3 1_555 1_555
H4 C3 1_555 1_555
C4 C3 1_555 1_555
H5 C4 1_555 1_555
H6 C4 1_555 1_555
C5 C4 1_555 1_555
H7 C5 1_555 1_555
H8 C5 1_555 1_555
C6 C1 1_555 1_555
H9 C6 1_555 1_555
H10 C6 1_555 1_555
N1 C1 1_555 1_555
N2 C2 1_555 1_555
C7 N1 1_555 1_555
H11 C7 1_555 1_555
H12 C7 1_555 1_555
C8 N2 1_555 1_555
H13 C8 1_555 1_555
H14 C8 1_555 1_555
C9 C8 1_555 1_555
C10 C9 1_555 1_555
H15 C10 1_555 1_555
C11 C10 1_555 1_555
H16 C11 1_555 1_555
C12 C11 1_555 1_555
C13 C12 1_555 1_555
H17 C13 1_555 1_555
C14 C9 1_555 1_555
H18 C14 1_555 1_555
C15 C12 1_555 1_555
H19 C15 1_555 1_555
H20 C15 1_555 1_555
C16 H21 1_555 1_555
C17 C16 1_555 1_555
H22 C17 1_555 1_555
C18 C17 1_555 1_555
H23 C18 1_555 1_555
H24 C18 1_555 1_555
C19 C18 1_555 1_555
H25 C19 1_555 1_555
H26 C19 1_555 1_555
C20 C19 1_555 1_555
H27 C20 1_555 1_555
H28 C20 1_555 1_555
C21 C16 1_555 1_555
H29 C21 1_555 1_555
H30 C21 1_555 1_555
N3 C15 1_555 1_555
N4 C17 1_555 1_555
C22 N3 1_555 1_555
H31 C22 1_555 1_555
H32 C22 1_555 1_555
C23 N4 1_555 1_555
H33 C23 1_555 1_555
H34 C23 1_555 1_555
C24 C23 1_555 1_555
C25 C24 1_555 1_555
H35 C25 1_555 1_555
C26 C25 1_555 1_555
H36 C26 1_555 1_555
C27 C26 1_555 1_555
C28 C27 1_555 1_555
H37 C28 1_555 1_555
C29 C24 1_555 1_555
H38 C29 1_555 1_555
C30 C27 1_555 1_555
H39 C30 1_555 1_555
H40 C30 1_555 1_555
C31 H41 1_555 1_555
C32 C31 1_555 1_555
H42 C32 1_555 1_555
C33 C32 1_555 1_555
H43 C33 1_555 1_555
H44 C33 1_555 1_555
C34 C33 1_555 1_555
H45 C34 1_555 1_555
H46 C34 1_555 1_555
C35 C34 1_555 1_555
H47 C35 1_555 1_555
H48 C35 1_555 1_555
C36 C31 1_555 1_555
H49 C36 1_555 1_555
H50 C36 1_555 1_555
N5 C30 1_555 1_555
N6 C32 1_555 1_555
C37 N5 1_555 1_555
H51 C37 1_555 1_555
H52 C37 1_555 1_555
C38 N6 1_555 1_555
H53 C38 1_555 1_555
H54 C38 1_555 1_555
C39 C38 1_555 1_555
C40 C39 1_555 1_555
H55 C40 1_555 1_555
C41 C40 1_555 1_555
H56 C41 1_555 1_555
C42 C41 1_555 1_555
C43 C42 1_555 1_555
H57 C43 1_555 1_555
C44 C39 1_555 1_555
H58 C44 1_555 1_555
C45 N1 1_555 1_555
H59 C45 1_555 1_555
H60 C45 1_555 1_555
O1 C46 1_555 1_555
C46 H61 1_555 1_555
H62 C46 1_555 1_555
C47 C46 1_555 1_555
H63 C47 1_555 1_555
H64 C47 1_555 1_555
C48 C47 1_555 1_555
H65 C48 1_555 1_555
H66 C48 1_555 1_555
H67 C48 1_555 1_555
C5 C6 1_555 1_555
N2 C7 1_555 1_555
C13 C14 1_555 1_555
C16 N3 1_555 1_555
C20 C21 1_555 1_555
N4 C22 1_555 1_555
C28 C29 1_555 1_555
C31 N5 1_555 1_555
C35 C36 1_555 1_555
N6 C37 1_555 1_555
C42 C45 1_555 1_555
C43 C44 1_555 1_555

#END
