
#######################################################################
#
#                 Cambridge Crystallographic Data Centre
#                                CCDC 
#
#######################################################################
#
# If this CIF has been generated from an entry in the Cambridge 
# Structural Database, then it will include bibliographic, chemical, 
# crystal, experimental, refinement or atomic coordinate data resulting 
# from the CCDC's data processing and validation procedures.
#
#######################################################################

data_EKIPOF
_chemical_formula_moiety         'C45 H60 N6,C1 H2 Cl2'
_chemical_name_systematic        
'3,10,17,24,31,38-hexaazadecacyclo[38.2.2.2^12,15^.2^26,29^.1^3,10^.1^17,24^.1^31,38^.0^4,9^.0^18,23^.0^32,37^]henpentaconta-1(42),12,14,26,28,40,43,46,49-nonaene dichloromethane clathrate'
_symmetry_cell_setting           orthorhombic
_symmetry_space_group_name_H-M   'P 21 21 21'
_symmetry_Int_Tables_number      19
_space_group_name_Hall           'P 2ac 2ab'
loop_
_symmetry_equiv_pos_site_id
_symmetry_equiv_pos_as_xyz
1 x,y,z
2 1/2-x,-y,1/2+z
3 1/2+x,1/2-y,-z
4 -x,1/2+y,1/2-z
_cell_length_a                   9.089(2)
_cell_length_b                   18.440(4)
_cell_length_c                   25.594(5)
_cell_angle_alpha                90
_cell_angle_beta                 90
_cell_angle_gamma                90
_cell_volume                     4289.58
_exptl_crystal_colour            colorless
_exptl_crystal_description       block
_cell_formula_units_Z            4
loop_
_atom_site_label
_atom_site_type_symbol
_atom_site_fract_x
_atom_site_fract_y
_atom_site_fract_z
C1 C 0.3455(3) 0.67181(13) 0.56600(9)
H1 H 0.2908 0.6273 0.5769
C2 C 0.4979(3) 0.66836(13) 0.58819(10)
H2 H 0.5517 0.7139 0.5790
C3 C 0.4949(3) 0.66023(14) 0.64703(10)
H3 H 0.5964 0.6596 0.6610
H4 H 0.4461 0.6142 0.6568
C4 C 0.4099(3) 0.72446(15) 0.66970(11)
H5 H 0.3996 0.7178 0.7079
H6 H 0.4667 0.7695 0.6637
C5 C 0.2576(3) 0.73276(14) 0.64556(11)
H7 H 0.2105 0.7770 0.6597
H8 H 0.1961 0.6907 0.6557
C6 C 0.2631(3) 0.73784(13) 0.58598(10)
H9 H 0.1622 0.7388 0.5715
H10 H 0.3144 0.7828 0.5752
N1 N 0.3741(2) 0.66767(11) 0.50934(8)
N2 N 0.5594(2) 0.60788(11) 0.55794(8)
C7 C 0.5029(3) 0.61916(15) 0.50446(10)
H11 H 0.4736 0.5723 0.4887
H12 H 0.5793 0.6417 0.4822
C8 C 0.7192(3) 0.60378(14) 0.56023(11)
H13 H 0.7505 0.6047 0.5973
H14 H 0.7611 0.6471 0.5429
C9 C 0.7808(3) 0.53663(13) 0.53454(10)
C10 C 0.9002(3) 0.54152(14) 0.50130(10)
H15 H 0.9394 0.5879 0.4930
C11 C 0.9636(3) 0.47996(13) 0.47986(10)
H16 H 1.0479 0.4848 0.4582
C12 C 0.9071(3) 0.41219(13) 0.48928(9)
C13 C 0.7844(3) 0.40738(14) 0.52117(12)
H17 H 0.7411 0.3613 0.5273
C14 C 0.7235(3) 0.46835(15) 0.54432(12)
H18 H 0.6416 0.4633 0.5671
C15 C 0.9821(3) 0.34523(13) 0.46730(10)
H19 H 1.0527 0.3261 0.4933
H20 H 0.9074 0.3073 0.4605
C16 C 1.1652(3) 0.30736(14) 0.40038(10)
H21 H 1.1159 0.2590 0.3981
C17 C 1.1933(3) 0.33627(15) 0.34579(10)
H22 H 1.2499 0.3826 0.3489
C18 C 1.2832(3) 0.28357(17) 0.31371(11)
H23 H 1.2997 0.3031 0.2782
H24 H 1.2312 0.2366 0.3107
C19 C 1.4302(4) 0.2736(2) 0.34217(12)
H25 H 1.4899 0.2372 0.3232
H26 H 1.4848 0.3201 0.3416
C20 C 1.4109(4) 0.2490(2) 0.39895(12)
H27 H 1.5083 0.2475 0.4162
H28 H 1.3697 0.1993 0.3994
C21 C 1.3084(3) 0.29994(17) 0.42972(11)
H29 H 1.2899 0.2798 0.4650
H30 H 1.3552 0.3481 0.4337
N3 N 1.0596(2) 0.36172(11) 0.41907(8)
N4 N 1.0434(2) 0.35357(11) 0.32749(8)
C22 C 0.9591(3) 0.37212(17) 0.37506(10)
H31 H 0.9250 0.4231 0.3736
H32 H 0.8723 0.3401 0.3786
C23 C 1.0426(3) 0.41108(14) 0.28882(10)
H33 H 1.1149 0.3991 0.2612
H34 H 1.0752 0.4566 0.3057
C24 C 0.8944(3) 0.42400(13) 0.26346(9)
C25 C 0.7804(3) 0.37487(13) 0.26745(10)
H35 H 0.7935 0.3322 0.2877
C26 C 0.6464(3) 0.38676(14) 0.24232(10)
H36 H 0.5696 0.3522 0.2458
C27 C 0.6239(3) 0.44830(13) 0.21229(10)
C28 C 0.7382(3) 0.49824(13) 0.20842(10)
H37 H 0.7253 0.5408 0.1880
C29 C 0.8703(3) 0.48677(13) 0.23400(10)
H38 H 0.9460 0.5222 0.2315
C30 C 0.4804(3) 0.45830(14) 0.18315(11)
H39 H 0.4931 0.4412 0.1468
H40 H 0.4040 0.4278 0.1998
C31 C 0.3020(3) 0.54463(13) 0.14826(9)
H41 H 0.2262 0.5067 0.1557
C32 C 0.2479(3) 0.61709(12) 0.16761(9)
H42 H 0.3216 0.6549 0.1576
C33 C 0.1014(3) 0.63687(14) 0.14304(10)
H43 H 0.0685 0.6850 0.1557
H44 H 0.0258 0.6005 0.1525
C34 C 0.1233(3) 0.63847(15) 0.08363(10)
H45 H 0.0272 0.6471 0.0666
H46 H 0.1890 0.6794 0.0746
C35 C 0.1896(3) 0.56814(15) 0.06223(10)
H47 H 0.1170 0.5285 0.0662
H48 H 0.2098 0.5741 0.0245
C36 C 0.3320(3) 0.54697(14) 0.09011(10)
H49 H 0.3657 0.4989 0.0778
H50 H 0.4100 0.5829 0.0824
N5 N 0.4295(2) 0.53316(11) 0.18218(7)
N6 N 0.2537(2) 0.60722(10) 0.22456(8)
C37 C 0.3829(3) 0.56013(14) 0.23349(10)
H51 H 0.4634 0.5880 0.2501
H52 H 0.3565 0.5192 0.2567
C38 C 0.2612(3) 0.67539(12) 0.25323(9)
H53 H 0.1753 0.7057 0.2437
H54 H 0.3511 0.7018 0.2426
C39 C 0.2633(3) 0.66504(12) 0.31194(10)
C40 C 0.3507(3) 0.70773(14) 0.34389(10)
H55 H 0.4140 0.7427 0.3284
C41 C 0.3483(3) 0.70066(14) 0.39820(10)
H56 H 0.4075 0.7315 0.4192
C42 C 0.2598(3) 0.64881(13) 0.42156(10)
C43 C 0.1722(3) 0.60634(16) 0.38946(11)
H57 H 0.1089 0.5713 0.4048
C44 C 0.1744(3) 0.61367(15) 0.33564(11)
H58 H 0.1143 0.5831 0.3147
C45 C 0.2460(3) 0.64215(15) 0.48016(10)
H59 H 0.1587 0.6700 0.4917
H60 H 0.2285 0.5906 0.4890
C46 C 0.6010(5) 0.5265(3) 0.35388(17)
H61 H 0.6011 0.5020 0.3208
H62 H 0.5210 0.5605 0.3542
Cl1 Cl 0.7662(6) 0.5734(2) 0.36247(14)
Cl2 Cl 0.5764(2) 0.46233(11) 0.40529(8)
C47? C 0.656(3) 0.4953(17) 0.3811(13)
H63? H 0.6812 0.4474 0.3664
H64? H 0.6885 0.4972 0.4180
Cl3? Cl 0.7357(13) 0.5651(6) 0.3448(4)
Cl4? Cl 0.4739(8) 0.5106(4) 0.3767(3)
Cl5? Cl 0.765(3) 0.5654(11) 0.3803(6)
Cl6? Cl 0.5127(12) 0.4620(6) 0.3867(4)
H65? H 0.6289 0.5061 0.3209
H66? H 0.5328 0.5650 0.3469
loop_
_geom_bond_atom_site_label_1
_geom_bond_atom_site_label_2
_geom_bond_site_symmetry_1
_geom_bond_site_symmetry_2
C1 H1 1_555 1_555
C2 C1 1_555 1_555
H2 C2 1_555 1_555
C3 C2 1_555 1_555
H3 C3 1_555 1_555
H4 C3 1_555 1_555
C4 C3 1_555 1_555
H5 C4 1_555 1_555
H6 C4 1_555 1_555
C5 C4 1_555 1_555
H7 C5 1_555 1_555
H8 C5 1_555 1_555
C6 C1 1_555 1_555
H9 C6 1_555 1_555
H10 C6 1_555 1_555
N1 C1 1_555 1_555
N2 C2 1_555 1_555
C7 N1 1_555 1_555
H11 C7 1_555 1_555
H12 C7 1_555 1_555
C8 N2 1_555 1_555
H13 C8 1_555 1_555
H14 C8 1_555 1_555
C9 C8 1_555 1_555
C10 C9 1_555 1_555
H15 C10 1_555 1_555
C11 C10 1_555 1_555
H16 C11 1_555 1_555
C12 C11 1_555 1_555
C13 C12 1_555 1_555
H17 C13 1_555 1_555
C14 C9 1_555 1_555
H18 C14 1_555 1_555
C15 C12 1_555 1_555
H19 C15 1_555 1_555
H20 C15 1_555 1_555
C16 H21 1_555 1_555
C17 C16 1_555 1_555
H22 C17 1_555 1_555
C18 C17 1_555 1_555
H23 C18 1_555 1_555
H24 C18 1_555 1_555
C19 C18 1_555 1_555
H25 C19 1_555 1_555
H26 C19 1_555 1_555
C20 C19 1_555 1_555
H27 C20 1_555 1_555
H28 C20 1_555 1_555
C21 C16 1_555 1_555
H29 C21 1_555 1_555
H30 C21 1_555 1_555
N3 C15 1_555 1_555
N4 C17 1_555 1_555
C22 N3 1_555 1_555
H31 C22 1_555 1_555
H32 C22 1_555 1_555
C23 N4 1_555 1_555
H33 C23 1_555 1_555
H34 C23 1_555 1_555
C24 C23 1_555 1_555
C25 C24 1_555 1_555
H35 C25 1_555 1_555
C26 C25 1_555 1_555
H36 C26 1_555 1_555
C27 C26 1_555 1_555
C28 C27 1_555 1_555
H37 C28 1_555 1_555
C29 C24 1_555 1_555
H38 C29 1_555 1_555
C30 C27 1_555 1_555
H39 C30 1_555 1_555
H40 C30 1_555 1_555
C31 H41 1_555 1_555
C32 C31 1_555 1_555
H42 C32 1_555 1_555
C33 C32 1_555 1_555
H43 C33 1_555 1_555
H44 C33 1_555 1_555
C34 C33 1_555 1_555
H45 C34 1_555 1_555
H46 C34 1_555 1_555
C35 C34 1_555 1_555
H47 C35 1_555 1_555
H48 C35 1_555 1_555
C36 C31 1_555 1_555
H49 C36 1_555 1_555
H50 C36 1_555 1_555
N5 C30 1_555 1_555
N6 C32 1_555 1_555
C37 N5 1_555 1_555
H51 C37 1_555 1_555
H52 C37 1_555 1_555
C38 N6 1_555 1_555
H53 C38 1_555 1_555
H54 C38 1_555 1_555
C39 C38 1_555 1_555
C40 C39 1_555 1_555
H55 C40 1_555 1_555
C41 C40 1_555 1_555
H56 C41 1_555 1_555
C42 C41 1_555 1_555
C43 C42 1_555 1_555
H57 C43 1_555 1_555
C44 C39 1_555 1_555
H58 C44 1_555 1_555
C45 N1 1_555 1_555
H59 C45 1_555 1_555
H60 C45 1_555 1_555
C46 H61 1_555 1_555
H62 C46 1_555 1_555
Cl1 C46 1_555 1_555
Cl2 C46 1_555 1_555
C5 C6 1_555 1_555
N2 C7 1_555 1_555
C13 C14 1_555 1_555
C16 N3 1_555 1_555
C20 C21 1_555 1_555
N4 C22 1_555 1_555
C28 C29 1_555 1_555
C31 N5 1_555 1_555
C35 C36 1_555 1_555
N6 C37 1_555 1_555
C42 C45 1_555 1_555
C43 C44 1_555 1_555

#END
