
#######################################################################
#
#                 Cambridge Crystallographic Data Centre
#                                CCDC 
#
#######################################################################
#
# If this CIF has been generated from an entry in the Cambridge 
# Structural Database, then it will include bibliographic, chemical, 
# crystal, experimental, refinement or atomic coordinate data resulting 
# from the CCDC's data processing and validation procedures.
#
#######################################################################

data_EKIQOG
_chemical_formula_moiety         'C45 H60 N6,C2 H6 O1'
_chemical_name_systematic        
'3,10,17,24,31,38-hexaazadecacyclo[38.2.2.2^12,15^.2^26,29^.1^3,10^.1^17,24^.1^31,38^.0^4,9^.0^18,23^.0^32,37^]henpentaconta-1(42),12,14,26,28,40,43,46,49-nonaene ethanol clathrate'
_symmetry_cell_setting           orthorhombic
_symmetry_space_group_name_H-M   'P 21 21 2'
_symmetry_Int_Tables_number      18
_space_group_name_Hall           'P 2 2ab'
loop_
_symmetry_equiv_pos_site_id
_symmetry_equiv_pos_as_xyz
1 x,y,z
2 -x,-y,z
3 1/2+x,1/2-y,-z
4 1/2-x,1/2+y,-z
_cell_length_a                   17.9156(4)
_cell_length_b                   41.5770(9)
_cell_length_c                   5.68890(10)
_cell_angle_alpha                90
_cell_angle_beta                 90
_cell_angle_gamma                90
_cell_volume                     4237.53
_exptl_crystal_colour            colorless
_exptl_crystal_description       block
_cell_formula_units_Z            4
loop_
_atom_site_label
_atom_site_type_symbol
_atom_site_fract_x
_atom_site_fract_y
_atom_site_fract_z
N1 N 0.50650(12) 0.67691(5) 0.4694(4)
C1 C 0.57980(14) 0.68225(6) 0.5767(6)
H1 H 0.5727 0.6879 0.7462
N2 N 0.55171(12) 0.62911(5) 0.6429(4)
C2 C 0.61324(14) 0.64922(6) 0.5609(6)
H2 H 0.6235 0.6441 0.3922
N3 N 0.29575(11) 0.49459(5) 0.9141(4)
C3 C 0.68603(16) 0.64703(8) 0.6992(8)
H3 H 0.7078 0.6252 0.6848
H4 H 0.6770 0.6516 0.8677
N4 N 0.16665(11) 0.50031(4) 0.8402(4)
C4 C 0.73907(17) 0.67221(8) 0.5940(10)
H5 H 0.7859 0.6725 0.6863
H6 H 0.7518 0.6659 0.4310
N5 N 0.01552(11) 0.64877(4) 0.2963(4)
C5 C 0.70551(18) 0.70609(8) 0.5915(9)
H7 H 0.7407 0.7209 0.5124
H8 H 0.6989 0.7136 0.7553
N6 N 0.10299(12) 0.68905(5) 0.1958(4)
C6 C 0.08713(13) 0.53856(5) 0.6125(5)
C7 C 0.62992(17) 0.70718(7) 0.4645(7)
H9 H 0.6074 0.7288 0.4796
H10 H 0.6366 0.7024 0.2953
C8 C 0.48379(14) 0.64473(6) 0.5533(6)
H11 H 0.4461 0.6467 0.6797
H12 H 0.4621 0.6320 0.4229
C9 C 0.55729(14) 0.59557(6) 0.5719(6)
H13 H 0.6082 0.5876 0.6066
H14 H 0.5493 0.5940 0.4002
C10 C 0.50049(14) 0.57454(6) 0.6980(5)
C11 C 0.4770(2) 0.54639(7) 0.5982(7)
H15 H 0.4951 0.5405 0.4473
C12 C 0.4271(2) 0.52631(7) 0.7139(7)
H16 H 0.4116 0.5069 0.6398
C13 C 0.39982(15) 0.53362(6) 0.9302(5)
C14 C 0.4222(3) 0.56227(10) 1.0252(7)
H17 H 0.4032 0.5685 1.1744
C15 C 0.4719(3) 0.58258(10) 0.9101(7)
H18 H 0.4859 0.6024 0.9813
C16 C 0.34945(16) 0.51088(7) 1.0636(6)
H19 H 0.3806 0.4946 1.1441
H20 H 0.3222 0.5231 1.1857
C17 C 0.25339(14) 0.46944(5) 1.0335(5)
H21 H 0.2369 0.4778 1.1901
C18 C 0.18625(14) 0.46650(5) 0.8769(5)
H22 H 0.2023 0.4571 0.7232
C19 C 0.12714(15) 0.44491(5) 0.9845(6)
H23 H 0.0840 0.4429 0.8767
H24 H 0.1094 0.4541 1.1350
C20 C 0.16269(18) 0.41180(6) 1.0265(7)
H25 H 0.1263 0.3978 1.1082
H26 H 0.1744 0.4018 0.8729
C21 C 0.23403(19) 0.41380(6) 1.1728(7)
H27 H 0.2567 0.3921 1.1832
H28 H 0.2212 0.4208 1.3342
C22 C 0.29144(17) 0.43728(6) 1.0689(7)
H29 H 0.3343 0.4397 1.1773
H30 H 0.3102 0.4290 0.9168
C23 C 0.23951(14) 0.51633(6) 0.8123(7)
H31 H 0.2502 0.5202 0.6439
H32 H 0.2397 0.5372 0.8956
C24 C 0.11772(15) 0.50485(5) 0.6399(5)
H33 H 0.0753 0.4897 0.6540
H34 H 0.1455 0.4992 0.4953
C25 C 0.09047(14) 0.56161(6) 0.7882(5)
H35 H 0.1141 0.5567 0.9334
C26 C 0.05933(15) 0.59202(6) 0.7530(5)
H36 H 0.0622 0.6076 0.8751
C27 C 0.02438(13) 0.59998(5) 0.5441(4)
C28 C 0.02147(14) 0.57682(5) 0.3668(5)
H37 H -0.0020 0.5817 0.2215
C29 C 0.05267(14) 0.54668(5) 0.4015(5)
H38 H 0.0505 0.5312 0.2786
C30 C -0.01185(15) 0.63243(5) 0.5066(5)
H39 H -0.0665 0.6295 0.4932
H40 H -0.0021 0.6462 0.6455
C31 C -0.02221(14) 0.67925(5) 0.2487(5)
H41 H -0.0239 0.6921 0.3971
C32 C 0.03143(15) 0.69505(5) 0.0809(5)
H42 H 0.0303 0.6832 -0.0721
C33 C 0.01030(19) 0.72997(6) 0.0377(6)
H43 H 0.0446 0.7397 -0.0786
H44 H 0.0139 0.7424 0.1859
C34 C -0.0703(2) 0.73076(6) -0.0557(6)
H45 H -0.0867 0.7534 -0.0680
H46 H -0.0711 0.7214 -0.2157
C35 C -0.12475(19) 0.71259(7) 0.0977(7)
H47 H -0.1742 0.7123 0.0203
H48 H -0.1301 0.7240 0.2494
C36 C -0.09998(15) 0.67769(6) 0.1456(6)
H49 H -0.1346 0.6672 0.2574
H50 H -0.0997 0.6652 -0.0024
C37 C 0.09477(14) 0.65779(6) 0.3162(6)
H51 H 0.1268 0.6413 0.2407
H52 H 0.1094 0.6597 0.4835
C38 C 0.16731(16) 0.69019(7) 0.0386(5)
H53 H 0.1630 0.7093 -0.0643
H54 H 0.1670 0.6709 -0.0631
C39 C 0.24060(14) 0.69167(6) 0.1696(5)
C40 C 0.30454(16) 0.67812(6) 0.0759(5)
H55 H 0.3017 0.6667 -0.0685
C41 C 0.37278(15) 0.68093(6) 0.1897(5)
H56 H 0.4162 0.6718 0.1213
C42 C 0.37797(15) 0.69707(5) 0.4034(5)
C43 C 0.31363(15) 0.71010(6) 0.4999(5)
H57 H 0.3162 0.7209 0.6469
C44 C 0.24547(15) 0.70765(6) 0.3849(5)
H58 H 0.2020 0.7169 0.4530
C45 C 0.45205(14) 0.70153(6) 0.5264(5)
H59 H 0.4727 0.7228 0.4830
H60 H 0.4436 0.7015 0.6983
O2 O 0.3036(4) 0.60193(16) 0.7450(11)
C48 C 0.2796(7) 0.61365(16) 0.5234(16)
H66 H 0.3239 0.6213 0.4355
H67 H 0.2466 0.6324 0.5498
C49 C 0.2392(4) 0.58999(16) 0.3751(11)
H68 H 0.2667 0.5696 0.3733
H69 H 0.2350 0.5983 0.2145
H70 H 0.1892 0.5864 0.4397
O1? O 0.2227(5) 0.5989(2) 0.1839(18)
C46? C 0.2787(7) 0.5960(3) 0.371(2)
H61? H 0.3277 0.6034 0.3108
H62? H 0.2837 0.5731 0.4167
C47? C 0.2577(10) 0.6157(4) 0.585(2)
H63? H 0.2263 0.6339 0.5370
H64? H 0.3030 0.6239 0.6611
H65? H 0.2300 0.6022 0.6964
loop_
_geom_bond_atom_site_label_1
_geom_bond_atom_site_label_2
_geom_bond_site_symmetry_1
_geom_bond_site_symmetry_2
N1 C1 1_555 1_555
C1 H1 1_555 1_555
N2 C2 1_555 1_555
C2 C1 1_555 1_555
H2 C2 1_555 1_555
N3 C16 1_555 1_555
C3 C2 1_555 1_555
H3 C3 1_555 1_555
H4 C3 1_555 1_555
N4 C18 1_555 1_555
C4 C3 1_555 1_555
H5 C4 1_555 1_555
H6 C4 1_555 1_555
N5 C30 1_555 1_555
C5 C4 1_555 1_555
H7 C5 1_555 1_555
H8 C5 1_555 1_555
N6 C32 1_555 1_555
C6 C24 1_555 1_555
C7 C1 1_555 1_555
H9 C7 1_555 1_555
H10 C7 1_555 1_555
C8 N1 1_555 1_555
H11 C8 1_555 1_555
H12 C8 1_555 1_555
C9 N2 1_555 1_555
H13 C9 1_555 1_555
H14 C9 1_555 1_555
C10 C9 1_555 1_555
C11 C10 1_555 1_555
H15 C11 1_555 1_555
C12 C11 1_555 1_555
H16 C12 1_555 1_555
C13 C12 1_555 1_555
C14 C13 1_555 1_555
H17 C14 1_555 1_555
C15 C10 1_555 1_555
H18 C15 1_555 1_555
C16 C13 1_555 1_555
H19 C16 1_555 1_555
H20 C16 1_555 1_555
C17 N3 1_555 1_555
H21 C17 1_555 1_555
C18 C17 1_555 1_555
H22 C18 1_555 1_555
C19 C18 1_555 1_555
H23 C19 1_555 1_555
H24 C19 1_555 1_555
C20 C19 1_555 1_555
H25 C20 1_555 1_555
H26 C20 1_555 1_555
C21 C20 1_555 1_555
H27 C21 1_555 1_555
H28 C21 1_555 1_555
C22 C17 1_555 1_555
H29 C22 1_555 1_555
H30 C22 1_555 1_555
C23 N3 1_555 1_555
H31 C23 1_555 1_555
H32 C23 1_555 1_555
C24 N4 1_555 1_555
H33 C24 1_555 1_555
H34 C24 1_555 1_555
C25 C6 1_555 1_555
H35 C25 1_555 1_555
C26 C25 1_555 1_555
H36 C26 1_555 1_555
C27 C26 1_555 1_555
C28 C27 1_555 1_555
H37 C28 1_555 1_555
C29 C6 1_555 1_555
H38 C29 1_555 1_555
C30 C27 1_555 1_555
H39 C30 1_555 1_555
H40 C30 1_555 1_555
C31 N5 1_555 1_555
H41 C31 1_555 1_555
C32 C31 1_555 1_555
H42 C32 1_555 1_555
C33 C32 1_555 1_555
H43 C33 1_555 1_555
H44 C33 1_555 1_555
C34 C33 1_555 1_555
H45 C34 1_555 1_555
H46 C34 1_555 1_555
C35 C34 1_555 1_555
H47 C35 1_555 1_555
H48 C35 1_555 1_555
C36 C31 1_555 1_555
H49 C36 1_555 1_555
H50 C36 1_555 1_555
C37 N5 1_555 1_555
H51 C37 1_555 1_555
H52 C37 1_555 1_555
C38 N6 1_555 1_555
H53 C38 1_555 1_555
H54 C38 1_555 1_555
C39 C38 1_555 1_555
C40 C39 1_555 1_555
H55 C40 1_555 1_555
C41 C40 1_555 1_555
H56 C41 1_555 1_555
C42 C41 1_555 1_555
C43 C42 1_555 1_555
H57 C43 1_555 1_555
C44 C39 1_555 1_555
H58 C44 1_555 1_555
C45 N1 1_555 1_555
H59 C45 1_555 1_555
H60 C45 1_555 1_555
O2 C48 1_555 1_555
C48 H66 1_555 1_555
H67 C48 1_555 1_555
C49 C48 1_555 1_555
H68 C49 1_555 1_555
H69 C49 1_555 1_555
H70 C49 1_555 1_555
N2 C8 1_555 1_555
N4 C23 1_555 1_555
C5 C7 1_555 1_555
N6 C37 1_555 1_555
C14 C15 1_555 1_555
C21 C22 1_555 1_555
C28 C29 1_555 1_555
C35 C36 1_555 1_555
C42 C45 1_555 1_555
C43 C44 1_555 1_555

#END
