
#######################################################################
#
#                 Cambridge Crystallographic Data Centre
#                                CCDC 
#
#######################################################################
#
# If this CIF has been generated from an entry in the Cambridge 
# Structural Database, then it will include bibliographic, chemical, 
# crystal, experimental, refinement or atomic coordinate data resulting 
# from the CCDC's data processing and validation procedures.
#
#######################################################################

data_ELAMAH
_chemical_formula_moiety         
'2(C17 H17 F6 N2 O1 1+),C6 H4 F1 O3 S1 1-,Cl1 1-'
_chemical_name_systematic        
'bis(2-((2,8-bis(trifluoromethyl)quinolin-4-yl)(hydroxy)methyl)piperidinium) chloride 4-fluorobenzenesulfonate'
_symmetry_cell_setting           orthorhombic
_symmetry_space_group_name_H-M   'P 21 21 21'
_symmetry_Int_Tables_number      19
_space_group_name_Hall           'P 2ac 2ab'
loop_
_symmetry_equiv_pos_site_id
_symmetry_equiv_pos_as_xyz
1 x,y,z
2 1/2-x,-y,1/2+z
3 1/2+x,1/2-y,-z
4 -x,1/2+y,1/2-z
_cell_length_a                   12.0782(5)
_cell_length_b                   13.9253(6)
_cell_length_c                   25.3280(17)
_cell_angle_alpha                90
_cell_angle_beta                 90
_cell_angle_gamma                90
_cell_volume                     4259.98
_exptl_crystal_colour            colorless
_exptl_crystal_description       block
_cell_formula_units_Z            4
loop_
_atom_site_label
_atom_site_type_symbol
_atom_site_fract_x
_atom_site_fract_y
_atom_site_fract_z
F1 F 0.80765(14) 0.28353(11) 0.26629(7)
F2 F 0.96287(14) 0.34312(13) 0.28995(7)
F3 F 0.87209(15) 0.40679(11) 0.22636(6)
F4 F 1.04995(13) 0.62864(12) 0.34371(7)
F5 F 1.00420(14) 0.77805(11) 0.34469(6)
F6 F 0.95240(14) 0.68817(11) 0.28047(6)
O1 O 0.54017(13) 0.33493(11) 0.40567(6)
H1 H 0.583(2) 0.315(2) 0.4296(9)
N1 N 0.85409(16) 0.51451(13) 0.31862(7)
N2 N 0.35632(15) 0.45712(13) 0.41175(7)
H2 H 0.369(2) 0.4916(17) 0.4424(7)
H3 H 0.354(2) 0.3936(10) 0.4211(10)
C1 C 0.80409(18) 0.43161(15) 0.31241(8)
C2 C 0.70736(18) 0.40226(15) 0.33881(8)
H4 H 0.6761 0.3407 0.3325
C3 C 0.65928(18) 0.46451(15) 0.37390(8)
C4 C 0.70979(18) 0.55577(15) 0.38264(8)
C5 C 0.66897(19) 0.62498(16) 0.41918(9)
H5 H 0.6034 0.6120 0.4386
C6 C 0.7234(2) 0.70971(16) 0.42644(9)
H6 H 0.6948 0.7555 0.4506
C7 C 0.8215(2) 0.73030(16) 0.39863(9)
H7 H 0.8592 0.7891 0.4049
C8 C 0.86277(19) 0.66653(16) 0.36276(8)
C9 C 0.80778(18) 0.57723(15) 0.35387(8)
C10 C 0.8617(2) 0.36606(16) 0.27353(9)
C11 C 0.9663(2) 0.68978(17) 0.33292(10)
C12 C 0.55436(17) 0.43569(15) 0.40306(8)
H8 H 0.5573 0.4621 0.4398
C13 C 0.45138(17) 0.47551(15) 0.37509(8)
H9 H 0.4602 0.5463 0.3701
C14 C 0.24506(18) 0.48296(18) 0.39047(9)
H10 H 0.2402 0.5535 0.3860
H11 H 0.1872 0.4631 0.4159
C15 C 0.2250(2) 0.43427(18) 0.33782(9)
H12 H 0.1533 0.4560 0.3231
H13 H 0.2210 0.3639 0.3430
C16 C 0.3177(2) 0.45800(18) 0.29920(9)
H14 H 0.3177 0.5278 0.2918
H15 H 0.3048 0.4238 0.2655
C17 C 0.42988(19) 0.42875(16) 0.32170(8)
H16 H 0.4324 0.3581 0.3256
H17 H 0.4890 0.4477 0.2967
F7 F 0.60258(17) 0.59782(11) 0.26874(6)
F8 F 0.67733(14) 0.72111(11) 0.23301(6)
F9 F 0.52152(14) 0.66995(13) 0.20449(7)
F10 F 0.54404(14) 0.31809(11) 0.22010(5)
F11 F 0.48724(14) 0.22566(11) 0.15801(6)
F12 F 0.43656(12) 0.37357(12) 0.15941(7)
O2 O 0.93590(13) 0.67662(11) 0.08888(6)
H18 H 0.905(2) 0.694(2) 0.0608(7)
N3 N 0.62936(16) 0.49241(13) 0.17832(7)
N4 N 1.12429(15) 0.55767(14) 0.08881(7)
H19 H 1.130(2) 0.6232(10) 0.0842(10)
H20 H 1.116(2) 0.5216(16) 0.0583(7)
C18 C 0.67758(19) 0.57687(15) 0.18366(9)
C19 C 0.77092(19) 0.60760(15) 0.15587(8)
H21 H 0.8006 0.6700 0.1614
C20 C 0.81887(18) 0.54588(15) 0.12037(8)
C21 C 0.77080(18) 0.45355(15) 0.11264(8)
C22 C 0.81183(19) 0.38451(16) 0.07625(9)
H22 H 0.8765 0.3982 0.0563
C23 C 0.7588(2) 0.29853(17) 0.06984(9)
H23 H 0.7868 0.2532 0.0452
C24 C 0.6631(2) 0.27623(17) 0.09927(9)
H24 H 0.6266 0.2166 0.0939
C25 C 0.6224(2) 0.34003(16) 0.13550(9)
C26 C 0.67479(18) 0.43107(15) 0.14277(8)
C27 C 0.6195(2) 0.64149(17) 0.22267(9)
C28 C 0.5231(2) 0.31501(17) 0.16831(10)
C29 C 0.92405(18) 0.57537(15) 0.09207(8)
H25 H 0.9235 0.5479 0.0556
C30 C 1.02472(17) 0.53700(15) 0.12192(8)
H26 H 1.0170 0.4659 0.1260
C31 C 1.23072(19) 0.52405(17) 0.11260(9)
H27 H 1.2931 0.5421 0.0893
H28 H 1.2297 0.4532 0.1158
C32 C 1.24726(19) 0.56850(18) 0.16666(9)
H29 H 1.2567 0.6388 0.1630
H30 H 1.3152 0.5421 0.1830
C33 C 1.1479(2) 0.54754(18) 0.20219(9)
H31 H 1.1433 0.4776 0.2089
H32 H 1.1580 0.5803 0.2365
C34 C 1.04077(18) 0.58191(17) 0.17660(8)
H33 H 1.0425 0.6527 0.1732
H34 H 0.9774 0.5646 0.1995
S1 S 0.71991(5) 0.73576(4) -0.01676(2)
F13 F 0.42635(15) 0.41478(12) 0.03482(8)
O3 O 0.82960(13) 0.69475(11) -0.00634(6)
O4 O 0.70576(14) 0.75786(11) -0.07240(7)
O5 O 0.69411(15) 0.81559(12) 0.01768(7)
C35 C 0.62489(17) 0.64286(15) -0.00190(10)
C36 C 0.5813(2) 0.63489(18) 0.04872(9)
H35 H 0.5975 0.6822 0.0746
C37 C 0.5140(2) 0.55740(19) 0.06123(10)
H36 H 0.4839 0.5504 0.0957
C38 C 0.4919(2) 0.49101(19) 0.02237(12)
C39 C 0.5318(2) 0.4979(2) -0.02813(12)
H37 H 0.5142 0.4508 -0.0539
C40 C 0.5988(2) 0.57608(19) -0.04051(11)
H38 H 0.6266 0.5836 -0.0754
Cl1 Cl 0.41075(4) 0.59605(3) 0.50197(2)
loop_
_geom_bond_atom_site_label_1
_geom_bond_atom_site_label_2
_geom_bond_site_symmetry_1
_geom_bond_site_symmetry_2
F1 C10 1_555 1_555
F2 C10 1_555 1_555
F3 C10 1_555 1_555
F4 C11 1_555 1_555
F5 C11 1_555 1_555
F6 C11 1_555 1_555
O1 H1 1_555 1_555
N1 C1 1_555 1_555
N2 H2 1_555 1_555
H3 N2 1_555 1_555
C1 C2 1_555 1_555
C2 H4 1_555 1_555
C3 C2 1_555 1_555
C4 C3 1_555 1_555
C5 C4 1_555 1_555
H5 C5 1_555 1_555
C6 C5 1_555 1_555
H6 C6 1_555 1_555
C7 C6 1_555 1_555
H7 C7 1_555 1_555
C8 C7 1_555 1_555
C9 N1 1_555 1_555
C10 C1 1_555 1_555
C11 C8 1_555 1_555
C12 O1 1_555 1_555
H8 C12 1_555 1_555
C13 N2 1_555 1_555
H9 C13 1_555 1_555
C14 N2 1_555 1_555
H10 C14 1_555 1_555
H11 C14 1_555 1_555
C15 C14 1_555 1_555
H12 C15 1_555 1_555
H13 C15 1_555 1_555
C16 C15 1_555 1_555
H14 C16 1_555 1_555
H15 C16 1_555 1_555
C17 C13 1_555 1_555
H16 C17 1_555 1_555
H17 C17 1_555 1_555
F7 C27 1_555 1_555
F8 C27 1_555 1_555
F9 C27 1_555 1_555
F10 C28 1_555 1_555
F11 C28 1_555 1_555
F12 C28 1_555 1_555
O2 H18 1_555 1_555
N3 C18 1_555 1_555
N4 H19 1_555 1_555
H20 N4 1_555 1_555
C18 C19 1_555 1_555
C19 H21 1_555 1_555
C20 C19 1_555 1_555
C21 C20 1_555 1_555
C22 C21 1_555 1_555
H22 C22 1_555 1_555
C23 C22 1_555 1_555
H23 C23 1_555 1_555
C24 C23 1_555 1_555
H24 C24 1_555 1_555
C25 C24 1_555 1_555
C26 N3 1_555 1_555
C27 C18 1_555 1_555
C28 C25 1_555 1_555
C29 O2 1_555 1_555
H25 C29 1_555 1_555
C30 N4 1_555 1_555
H26 C30 1_555 1_555
C31 N4 1_555 1_555
H27 C31 1_555 1_555
H28 C31 1_555 1_555
C32 C31 1_555 1_555
H29 C32 1_555 1_555
H30 C32 1_555 1_555
C33 C32 1_555 1_555
H31 C33 1_555 1_555
H32 C33 1_555 1_555
C34 C30 1_555 1_555
H33 C34 1_555 1_555
H34 C34 1_555 1_555
S1 O3 1_555 1_555
F13 C38 1_555 1_555
O4 S1 1_555 1_555
O5 S1 1_555 1_555
C35 S1 1_555 1_555
C36 C35 1_555 1_555
H35 C36 1_555 1_555
C37 C36 1_555 1_555
H36 C37 1_555 1_555
C38 C37 1_555 1_555
C39 C38 1_555 1_555
H37 C39 1_555 1_555
C40 C35 1_555 1_555
H38 C40 1_555 1_555
C3 C12 1_555 1_555
C4 C9 1_555 1_555
C8 C9 1_555 1_555
C12 C13 1_555 1_555
C16 C17 1_555 1_555
C20 C29 1_555 1_555
C21 C26 1_555 1_555
C25 C26 1_555 1_555
C29 C30 1_555 1_555
C33 C34 1_555 1_555
C39 C40 1_555 1_555

#END
