
#######################################################################
#
#                 Cambridge Crystallographic Data Centre
#                                CCDC 
#
#######################################################################
#
# If this CIF has been generated from an entry in the Cambridge 
# Structural Database, then it will include bibliographic, chemical, 
# crystal, experimental, refinement or atomic coordinate data resulting 
# from the CCDC's data processing and validation procedures.
#
#######################################################################

data_ELASEQ
_chemical_formula_moiety         
'C12 H8 N2 O6 S2 2-,C9 H16 N1 O2,2(C1 H6 N3 1+),H2 O1'
_chemical_name_systematic        
"bis(guanidinium) 4,4'-diazene-1,2-diyldibenzenesulfonate 4-oxo-2,2,6,6-tetramethylpiperidine-1-oxyl monohydrate"
_symmetry_cell_setting           orthorhombic
_symmetry_space_group_name_H-M   'P n a 21'
_symmetry_Int_Tables_number      33
_space_group_name_Hall           'P 2c -2n'
loop_
_symmetry_equiv_pos_site_id
_symmetry_equiv_pos_as_xyz
1 x,y,z
2 -x,-y,1/2+z
3 1/2+x,1/2-y,z
4 1/2-x,1/2+y,1/2+z
_cell_length_a                   7.2608(3)
_cell_length_b                   23.5817(11)
_cell_length_c                   18.4741(9)
_cell_angle_alpha                90
_cell_angle_beta                 90
_cell_angle_gamma                90
_cell_volume                     3163.17
_exptl_crystal_colour            orange
_exptl_crystal_description       block
_cell_formula_units_Z            4
loop_
_atom_site_label
_atom_site_type_symbol
_atom_site_fract_x
_atom_site_fract_y
_atom_site_fract_z
S1 S 0.28424(5) 0.625624(18) 0.19254(2)
S2 S 0.68920(5) 0.850928(18) 0.78376(3)
O1 O 0.26671(18) 0.66747(6) 0.13498(8)
O2 O 0.11376(16) 0.59500(5) 0.20742(7)
O3 O 0.43843(17) 0.58677(5) 0.18004(7)
O4 O 0.69911(17) 0.91124(5) 0.76503(8)
O5 O 0.86338(18) 0.82903(5) 0.81045(7)
O6 O 0.53474(18) 0.83874(5) 0.83203(8)
N1 N 0.4826(2) 0.75314(7) 0.45858(9)
N2 N 0.5102(2) 0.72396(6) 0.51428(9)
C1 C 0.3383(2) 0.66351(8) 0.27189(10)
C2 C 0.3072(2) 0.63843(8) 0.33884(11)
H1 H 0.2537 0.6017 0.3414
C3 C 0.3538(3) 0.66678(8) 0.40158(11)
H2 H 0.3324 0.6498 0.4474
C4 C 0.4324(2) 0.72051(8) 0.39702(10)
C5 C 0.4585(3) 0.74632(8) 0.32986(11)
H3 H 0.5073 0.7836 0.3272
C6 C 0.4130(3) 0.71740(8) 0.26697(11)
H4 H 0.4330 0.7344 0.2210
C7 C 0.5571(2) 0.75721(8) 0.57673(10)
C8 C 0.5702(3) 0.81630(8) 0.57551(11)
H5 H 0.5496 0.8366 0.5319
C9 C 0.6134(3) 0.84469(8) 0.63836(11)
H6 H 0.6240 0.8848 0.6381
C10 C 0.6415(2) 0.81478(7) 0.70232(10)
C11 C 0.6315(2) 0.75571(7) 0.70341(10)
H7 H 0.6543 0.7353 0.7468
C12 C 0.5876(2) 0.72741(7) 0.64007(10)
H8 H 0.5784 0.6872 0.6401
C13 C 0.3030(2) 0.44709(8) 0.25455(11)
N3 N 0.1439(2) 0.47361(7) 0.24372(10)
H9 H 0.0395 0.4563 0.2535
H10 H 0.1430 0.5085 0.2267
N4 N 0.4603(2) 0.47338(7) 0.23976(11)
H11 H 0.5659 0.4559 0.2469
H12 H 0.4590 0.5082 0.2228
N5 N 0.3050(2) 0.39461(7) 0.28010(11)
H13 H 0.4106 0.3772 0.2873
H14 H 0.2007 0.3772 0.2899
C14 C 0.2771(2) 0.82566(8) 0.08354(11)
N6 N 0.1211(2) 0.82004(7) 0.04728(9)
H15 H 0.1201 0.8024 0.0053
H16 H 0.0182 0.8340 0.0651
N7 N 0.2780(2) 0.85202(7) 0.14715(10)
H17 H 0.3815 0.8556 0.1715
H18 H 0.1750 0.8659 0.1649
N8 N 0.4315(2) 0.80481(7) 0.05690(9)
H19 H 0.4307 0.7871 0.0150
H20 H 0.5352 0.8086 0.0811
O7 O 0.8785(3) -0.09581(8) 0.96568(13)
O8 O 0.3946(2) 0.07594(6) 0.96706(10)
N9 N 0.5167(2) 0.03722(7) 0.97310(10)
C15 C 0.7744(3) -0.05569(10) 0.97000(14)
C16 C 0.7880(3) -0.00629(12) 0.91881(14)
H21 H 0.7244 -0.0164 0.8732
H22 H 0.9195 0.0000 0.9071
C17 C 0.7069(3) 0.04915(10) 0.94702(14)
C18 C 0.6240(3) -0.05279(9) 1.02508(13)
H23 H 0.6748 -0.0361 1.0700
H24 H 0.5838 -0.0919 1.0365
C19 C 0.4550(3) -0.01823(8) 1.00229(12)
C20 C 0.6957(3) 0.09258(12) 0.88578(17)
H25 H 0.6118 0.0787 0.8482
H26 H 0.8185 0.0983 0.8650
H27 H 0.6496 0.1287 0.9049
C21 C 0.8188(4) 0.07374(11) 1.01032(17)
H28 H 0.7610 0.1089 1.0271
H29 H 0.9447 0.0817 0.9941
H30 H 0.8221 0.0462 1.0501
C22 C 0.3335(4) -0.00701(11) 1.06802(15)
H31 H 0.4050 0.0131 1.1050
H32 H 0.2896 -0.0432 1.0877
H33 H 0.2279 0.0163 1.0536
C23 C 0.3469(3) -0.04871(9) 0.94374(13)
H34 H 0.2466 -0.0243 0.9268
H35 H 0.2956 -0.0839 0.9634
H36 H 0.4288 -0.0576 0.9031
O9 O 0.98795(19) 0.75628(6) 0.92308(8)
H37 H 1.0097 0.7228 0.8948
H38 H 0.9265 0.7835 0.8929
loop_
_geom_bond_atom_site_label_1
_geom_bond_atom_site_label_2
_geom_bond_site_symmetry_1
_geom_bond_site_symmetry_2
S1 O1 1_555 1_555
S2 O4 1_555 1_555
O2 S1 1_555 1_555
O3 S1 1_555 1_555
O5 S2 1_555 1_555
O6 S2 1_555 1_555
N1 N2 1_555 1_555
N2 C7 1_555 1_555
C1 S1 1_555 1_555
C2 C1 1_555 1_555
H1 C2 1_555 1_555
C3 C2 1_555 1_555
H2 C3 1_555 1_555
C4 N1 1_555 1_555
C5 C4 1_555 1_555
H3 C5 1_555 1_555
C6 C1 1_555 1_555
H4 C6 1_555 1_555
C7 C8 1_555 1_555
C8 H5 1_555 1_555
C9 C8 1_555 1_555
H6 C9 1_555 1_555
C10 S2 1_555 1_555
C11 C10 1_555 1_555
H7 C11 1_555 1_555
C12 C7 1_555 1_555
H8 C12 1_555 1_555
C13 N3 1_555 1_555
N3 H9 1_555 1_555
H10 N3 1_555 1_555
N4 C13 1_555 1_555
H11 N4 1_555 1_555
H12 N4 1_555 1_555
N5 C13 1_555 1_555
H13 N5 1_555 1_555
H14 N5 1_555 1_555
C14 N6 1_555 1_555
N6 H15 1_555 1_555
H16 N6 1_555 1_555
N7 C14 1_555 1_555
H17 N7 1_555 1_555
H18 N7 1_555 1_555
N8 C14 1_555 1_555
H19 N8 1_555 1_555
H20 N8 1_555 1_555
O7 C15 1_555 1_555
O8 N9 1_555 1_555
N9 C17 1_555 1_555
C15 C16 1_555 1_555
C16 H21 1_555 1_555
H22 C16 1_555 1_555
C17 C16 1_555 1_555
C18 C15 1_555 1_555
H23 C18 1_555 1_555
H24 C18 1_555 1_555
C19 N9 1_555 1_555
C20 C17 1_555 1_555
H25 C20 1_555 1_555
H26 C20 1_555 1_555
H27 C20 1_555 1_555
C21 C17 1_555 1_555
H28 C21 1_555 1_555
H29 C21 1_555 1_555
H30 C21 1_555 1_555
C22 C19 1_555 1_555
H31 C22 1_555 1_555
H32 C22 1_555 1_555
H33 C22 1_555 1_555
C23 C19 1_555 1_555
H34 C23 1_555 1_555
H35 C23 1_555 1_555
H36 C23 1_555 1_555
O9 H37 1_555 1_555
H38 O9 1_555 1_555
C3 C4 1_555 1_555
C5 C6 1_555 1_555
C9 C10 1_555 1_555
C11 C12 1_555 1_555
C18 C19 1_555 1_555

#END
