
#######################################################################
#
#                 Cambridge Crystallographic Data Centre
#                                CCDC 
#
#######################################################################
#
# If this CIF has been generated from an entry in the Cambridge 
# Structural Database, then it will include bibliographic, chemical, 
# crystal, experimental, refinement or atomic coordinate data resulting 
# from the CCDC's data processing and validation procedures.
#
#######################################################################

data_ELAXEW
_chemical_compound_source        'Walsura robusta'
_chemical_formula_moiety         'C27 H32 O8'
_chemical_name_systematic        
6,11-dihydroxy-17-(5-methoxy-2-oxo-2,5-dihydrofuran-3-yl)-4,4,8-trimethyl-14,15-epoxyandrosta-1,5-diene-3,7-dione
_chemical_properties_biological  
'11 -hydroxysteroid dehydrogenase type 1 (11 -HSD1) inhibitory activity'
_symmetry_cell_setting           monoclinic
_symmetry_space_group_name_H-M   'P 21'
_symmetry_Int_Tables_number      4
_space_group_name_Hall           'P 2yb'
loop_
_symmetry_equiv_pos_site_id
_symmetry_equiv_pos_as_xyz
1 x,y,z
2 -x,1/2+y,-z
_cell_length_a                   7.50130(10)
_cell_length_b                   11.6919(2)
_cell_length_c                   14.6190(2)
_cell_angle_alpha                90
_cell_angle_beta                 103.8820(10)
_cell_angle_gamma                90
_cell_volume                     1244.7
_exptl_crystal_colour            colorless
_exptl_crystal_description       prism
_cell_formula_units_Z            2
loop_
_atom_site_label
_atom_site_type_symbol
_atom_site_fract_x
_atom_site_fract_y
_atom_site_fract_z
O1 O 0.6942(2) 0.83295(14) 1.05521(11)
O2 O 1.0621(2) 0.51114(14) 0.93146(11)
H1 H 1.1077 0.4515 0.9145
O3 O 0.9384(2) 0.36496(15) 0.79126(11)
O4 O 0.3340(2) 0.59134(17) 0.62935(12)
H2 H 0.2281 0.5963 0.5939
O5 O 0.5732(2) 0.41119(19) 0.55251(11)
O6 O 0.0022(3) 0.17783(19) 0.49742(15)
O7 O 0.0410(3) 0.00445(18) 0.56303(13)
O8 O 0.1577(3) -0.08086(18) 0.70929(14)
C1 C 0.4520(3) 0.6246(2) 0.90679(17)
H3 H 0.3388 0.5843 0.8913
C2 C 0.4970(3) 0.6831(2) 0.98729(18)
H4 H 0.4154 0.6865 1.0279
C3 C 0.6752(3) 0.7423(2) 1.01221(15)
C4 C 0.8354(3) 0.6791(2) 0.98787(15)
C5 C 0.7727(3) 0.60359(18) 0.90016(14)
C6 C 0.8867(3) 0.52410(18) 0.87912(15)
C7 C 0.8383(3) 0.44527(19) 0.79685(14)
C8 C 0.6725(3) 0.48034(19) 0.72010(14)
C9 C 0.5232(3) 0.51696(19) 0.77262(15)
H5 H 0.5198 0.4518 0.8165
C10 C 0.5773(3) 0.62068(18) 0.83913(15)
C11 C 0.3306(3) 0.5159(2) 0.70538(16)
H6 H 0.2404 0.5458 0.7400
C12 C 0.2751(3) 0.3914(2) 0.67249(16)
H7 H 0.2056 0.3576 0.7155
H8 H 0.1919 0.3943 0.6087
C13 C 0.4387(3) 0.3124(2) 0.66966(14)
C14 C 0.5968(3) 0.3836(2) 0.65170(15)
C15 C 0.6932(3) 0.3183(3) 0.59294(16)
H9 H 0.8293 0.3252 0.6022
C16 C 0.5984(4) 0.2042(3) 0.56894(18)
H10 H 0.6616 0.1432 0.6116
H11 H 0.5932 0.1822 0.5030
C17 C 0.4045(3) 0.2272(2) 0.58362(15)
H12 H 0.3337 0.2694 0.5270
C18 C 0.5040(3) 0.2433(2) 0.76146(15)
H13 H 0.6048 0.1926 0.7558
H14 H 0.4018 0.1975 0.7726
H15 H 0.5468 0.2959 0.8144
C19 C 0.5566(3) 0.7389(2) 0.78908(18)
H16 H 0.4268 0.7528 0.7593
H17 H 0.6276 0.7394 0.7409
H18 H 0.6022 0.7991 0.8355
C20 C 0.3001(3) 0.1206(2) 0.59292(16)
C21 C 0.1020(3) 0.1099(2) 0.54633(16)
C22 C 0.3514(3) 0.0212(3) 0.63423(19)
H19 H 0.4735 0.0031 0.6670
C23 C 0.1928(4) -0.0587(2) 0.62265(19)
H20 H 0.2168 -0.1311 0.5913
C24 C 0.0203(6) -0.1663(3) 0.7055(3)
H21 H -0.0982 -0.1376 0.6689
H22 H 0.0109 -0.1847 0.7695
H23 H 0.0538 -0.2353 0.6754
C25 C 0.9061(4) 0.6054(2) 1.07841(16)
H24 H 0.9358 0.6556 1.1337
H25 H 1.0163 0.5634 1.0733
H26 H 0.8105 0.5511 1.0850
C26 C 0.9854(3) 0.7622(2) 0.97484(17)
H27 H 0.9309 0.8215 0.9293
H28 H 1.0787 0.7203 0.9515
H29 H 1.0427 0.7979 1.0354
C27 C 0.7517(3) 0.5743(2) 0.66653(15)
H30 H 0.8161 0.6316 0.7114
H31 H 0.6513 0.6112 0.6206
H32 H 0.8378 0.5398 0.6336
loop_
_geom_bond_atom_site_label_1
_geom_bond_atom_site_label_2
_geom_bond_site_symmetry_1
_geom_bond_site_symmetry_2
O1 C3 1_555 1_555
O2 H1 1_555 1_555
O3 C7 1_555 1_555
O4 H2 1_555 1_555
O5 C14 1_555 1_555
O6 C21 1_555 1_555
O7 C21 1_555 1_555
O8 C23 1_555 1_555
C1 H3 1_555 1_555
C2 C1 1_555 1_555
H4 C2 1_555 1_555
C3 C2 1_555 1_555
C4 C3 1_555 1_555
C5 C4 1_555 1_555
C6 O2 1_555 1_555
C7 C6 1_555 1_555
C8 C7 1_555 1_555
C9 C8 1_555 1_555
H5 C9 1_555 1_555
C10 C1 1_555 1_555
C11 O4 1_555 1_555
H6 C11 1_555 1_555
C12 C11 1_555 1_555
H7 C12 1_555 1_555
H8 C12 1_555 1_555
C13 C12 1_555 1_555
C14 C8 1_555 1_555
C15 O5 1_555 1_555
H9 C15 1_555 1_555
C16 C15 1_555 1_555
H10 C16 1_555 1_555
H11 C16 1_555 1_555
C17 C13 1_555 1_555
H12 C17 1_555 1_555
C18 C13 1_555 1_555
H13 C18 1_555 1_555
H14 C18 1_555 1_555
H15 C18 1_555 1_555
C19 C10 1_555 1_555
H16 C19 1_555 1_555
H17 C19 1_555 1_555
H18 C19 1_555 1_555
C20 C17 1_555 1_555
C21 C20 1_555 1_555
C22 C20 1_555 1_555
H19 C22 1_555 1_555
C23 O7 1_555 1_555
H20 C23 1_555 1_555
C24 O8 1_555 1_555
H21 C24 1_555 1_555
H22 C24 1_555 1_555
H23 C24 1_555 1_555
C25 C4 1_555 1_555
H24 C25 1_555 1_555
H25 C25 1_555 1_555
H26 C25 1_555 1_555
C26 C4 1_555 1_555
H27 C26 1_555 1_555
H28 C26 1_555 1_555
H29 C26 1_555 1_555
C27 C8 1_555 1_555
H30 C27 1_555 1_555
H31 C27 1_555 1_555
H32 C27 1_555 1_555
C5 C6 1_555 1_555
C5 C10 1_555 1_555
C9 C10 1_555 1_555
C9 C11 1_555 1_555
C13 C14 1_555 1_555
C14 C15 1_555 1_555
C16 C17 1_555 1_555
C22 C23 1_555 1_555

#END
