
#######################################################################
#
#                 Cambridge Crystallographic Data Centre
#                                CCDC 
#
#######################################################################
#
# If this CIF has been generated from an entry in the Cambridge 
# Structural Database, then it will include bibliographic, chemical, 
# crystal, experimental, refinement or atomic coordinate data resulting 
# from the CCDC's data processing and validation procedures.
#
#######################################################################

data_ELAYEV
_chemical_formula_moiety         'C22 H35 P1'
_chemical_name_systematic        
(Z)-2-Cyclopropyl-1-(2,4,6-tris(t-butyl)phenyl)-1-phosphaethene
_symmetry_cell_setting           triclinic
_symmetry_space_group_name_H-M   'P -1'
_symmetry_Int_Tables_number      2
_space_group_name_Hall           '-P 1'
loop_
_symmetry_equiv_pos_site_id
_symmetry_equiv_pos_as_xyz
1 x,y,z
2 -x,-y,-z
_cell_length_a                   11.2406(7)
_cell_length_b                   20.008(2)
_cell_length_c                   9.3703(9)
_cell_angle_alpha                103.125(2)
_cell_angle_beta                 90.143(3)
_cell_angle_gamma                89.988(5)
_cell_volume                     2052.34
_exptl_crystal_colour            colorless
_exptl_crystal_description       prism
_chemical_melting_point          98-99deg.C
_cell_formula_units_Z            4
_exptl_crystal_recrystallization_method ethanol
loop_
_atom_site_label
_atom_site_type_symbol
_atom_site_fract_x
_atom_site_fract_y
_atom_site_fract_z
P1 P 0.91265(7) 0.10919(4) 0.10432(8)
C1 C 1.0291(3) 0.0756(2) 0.1733(3)
C2 C 1.0592(3) 0.0704(2) 0.3212(4)
C3 C 1.1899(3) 0.0656(2) 0.3622(4)
C4 C 1.1142(3) 0.0031(2) 0.3415(4)
C5 C 0.8181(2) 0.1419(1) 0.2677(3)
C6 C 0.7354(2) 0.0977(1) 0.3159(3)
C7 C 0.6842(3) 0.1200(1) 0.4544(3)
C8 C 0.7053(2) 0.1846(1) 0.5438(3)
C9 C 0.7755(2) 0.2288(1) 0.4863(3)
C10 C 0.8314(2) 0.2105(1) 0.3498(3)
C11 C 0.6948(3) 0.0269(1) 0.2235(3)
C12 C 0.6653(3) 0.0311(2) 0.0660(3)
C13 C 0.7896(3) -0.0289(2) 0.2236(4)
C14 C 0.5794(3) 0.0022(2) 0.2841(4)
C15 C 0.6518(2) 0.2038(1) 0.6986(3)
C16 C 0.7086(3) 0.1574(2) 0.7909(4)
C17 C 0.5173(3) 0.1924(2) 0.6929(4)
C18 C 0.6748(4) 0.2784(2) 0.7741(4)
C19 C 0.9027(2) 0.2665(1) 0.2979(3)
C20 C 0.8755(3) 0.3383(1) 0.3914(3)
C21 C 0.8682(3) 0.2699(2) 0.1407(3)
C22 C 1.0380(3) 0.2558(2) 0.3078(4)
H1 H 1.094(3) 0.052(2) 0.098(4)
H2 H 1.006(3) 0.094(2) 0.400(4)
H3 H 1.245(3) 0.067(2) 0.285(4)
H4 H 1.215(3) 0.089(2) 0.465(4)
H5 H 1.127(4) -0.036(2) 0.253(5)
H6 H 1.088(3) -0.018(2) 0.426(4)
H7 H 0.636(3) 0.091(1) 0.489(3)
H8 H 0.781(2) 0.270(1) 0.534(3)
H9 H 0.607(3) 0.067(2) 0.049(4)
H10 H 0.628(3) -0.013(2) 0.015(4)
H11 H 0.734(3) 0.038(2) 0.008(4)
H12 H 0.752(3) -0.071(2) 0.175(4)
H13 H 0.861(3) -0.022(2) 0.175(4)
H14 H 0.799(3) -0.034(2) 0.330(4)
H15 H 0.594(3) -0.012(2) 0.376(4)
H16 H 0.517(4) 0.036(2) 0.299(5)
H17 H 0.550(3) -0.038(2) 0.218(4)
H18 H 0.796(4) 0.168(2) 0.789(4)
H19 H 0.691(3) 0.103(2) 0.729(5)
H20 H 0.679(4) 0.172(2) 0.890(5)
H21 H 0.500(4) 0.140(2) 0.655(5)
H22 H 0.483(3) 0.201(2) 0.791(4)
H23 H 0.472(5) 0.227(3) 0.626(6)
H24 H 0.631(4) 0.289(2) 0.868(5)
H25 H 0.762(4) 0.290(2) 0.797(5)
H26 H 0.630(3) 0.306(2) 0.709(4)
H27 H 0.903(3) 0.344(2) 0.495(4)
H28 H 0.791(3) 0.348(2) 0.404(4)
H29 H 0.914(3) 0.371(2) 0.347(4)
H30 H 0.784(3) 0.277(2) 0.133(4)
H31 H 0.908(3) 0.311(2) 0.113(4)
H32 H 0.892(3) 0.230(2) 0.071(4)
H33 H 1.079(4) 0.292(2) 0.284(5)
H34 H 1.065(3) 0.211(2) 0.245(4)
H35 H 1.058(3) 0.254(2) 0.411(5)
P2 P 0.41255(7) 0.39069(4) 0.39562(8)
C23 C 0.5287(3) 0.4242(1) 0.3270(3)
C24 C 0.5589(3) 0.4302(2) 0.1794(3)
C25 C 0.6137(3) 0.4969(2) 0.1586(4)
C26 C 0.6897(3) 0.4344(2) 0.1381(5)
C27 C 0.3177(2) 0.3583(1) 0.2324(3)
C28 C 0.2355(2) 0.4022(1) 0.1837(3)
C29 C 0.1841(3) 0.3801(1) 0.0457(3)
C30 C 0.2052(2) 0.3152(1) -0.0439(3)
C31 C 0.2754(2) 0.2712(1) 0.0133(3)
C32 C 0.3316(2) 0.2898(1) 0.1500(3)
C33 C 0.1947(3) 0.4732(1) 0.2760(3)
C34 C 0.1662(3) 0.4688(2) 0.4346(3)
C35 C 0.2891(3) 0.5285(2) 0.2757(4)
C36 C 0.0799(3) 0.4977(2) 0.2160(4)
C37 C 0.1514(2) 0.2962(1) -0.1987(3)
C38 C 0.2096(4) 0.3421(2) -0.2912(4)
C39 C 0.0176(3) 0.3078(2) -0.1934(4)
C40 C 0.1751(3) 0.2217(2) -0.2747(4)
C41 C 0.4022(2) 0.2335(1) 0.2023(3)
C42 C 0.3754(3) 0.1617(1) 0.1085(3)
C43 C 0.5378(3) 0.2442(2) 0.1925(4)
C44 C 0.3683(3) 0.2298(2) 0.3591(3)
H36 H 0.590(3) 0.448(2) 0.401(4)
H37 H 0.506(3) 0.408(2) 0.103(4)
H38 H 0.621(4) 0.537(2) 0.249(5)
H39 H 0.594(4) 0.515(2) 0.068(5)
H40 H 0.715(4) 0.415(2) 0.051(5)
H41 H 0.748(3) 0.440(2) 0.216(4)
H42 H 0.134(3) 0.413(2) 0.014(4)
H43 H 0.283(2) 0.226(1) -0.041(3)
H44 H 0.111(3) 0.440(2) 0.441(4)
H45 H 0.126(3) 0.512(2) 0.484(4)
H46 H 0.235(3) 0.457(2) 0.493(4)
H47 H 0.259(3) 0.576(2) 0.337(4)
H48 H 0.361(3) 0.522(2) 0.320(4)
H49 H 0.303(3) 0.530(2) 0.175(5)
H50 H 0.049(3) 0.538(2) 0.282(4)
H51 H 0.098(3) 0.508(2) 0.123(4)
H52 H 0.019(4) 0.461(2) 0.205(5)
H53 H 0.294(4) 0.338(2) -0.299(4)
H54 H 0.175(3) 0.328(2) -0.392(4)
H55 H 0.188(4) 0.391(3) -0.259(5)
H56 H -0.015(3) 0.293(2) -0.295(4)
H57 H 0.001(3) 0.357(2) -0.153(4)
H58 H -0.026(3) 0.274(2) -0.134(4)
H59 H 0.133(3) 0.193(2) -0.211(4)
H60 H 0.265(4) 0.212(2) -0.291(4)
H61 H 0.131(4) 0.213(2) -0.376(5)
H62 H 0.416(3) 0.128(2) 0.152(4)
H63 H 0.285(3) 0.152(2) 0.100(4)
H64 H 0.404(3) 0.153(2) 0.013(4)
H65 H 0.578(3) 0.202(2) 0.222(4)
H66 H 0.556(3) 0.250(2) 0.093(4)
H67 H 0.569(3) 0.284(2) 0.261(4)
H68 H 0.390(3) 0.272(2) 0.427(4)
H69 H 0.412(3) 0.188(2) 0.381(4)
H70 H 0.283(3) 0.218(2) 0.363(4)
loop_
_geom_bond_atom_site_label_1
_geom_bond_atom_site_label_2
_geom_bond_site_symmetry_1
_geom_bond_site_symmetry_2
P1 C1 1_555 1_555
P2 C23 1_555 1_555
C1 C2 1_555 1_555
C2 C3 1_555 1_555
C3 C4 1_555 1_555
C4 C2 1_555 1_555
C5 P1 1_555 1_555
C6 C5 1_555 1_555
C7 C6 1_555 1_555
C8 C7 1_555 1_555
C9 C8 1_555 1_555
C10 C5 1_555 1_555
C11 C6 1_555 1_555
C12 C11 1_555 1_555
C13 C11 1_555 1_555
C14 C11 1_555 1_555
C15 C8 1_555 1_555
C16 C15 1_555 1_555
C17 C15 1_555 1_555
C18 C15 1_555 1_555
C19 C10 1_555 1_555
C20 C19 1_555 1_555
C21 C19 1_555 1_555
C22 C19 1_555 1_555
C23 C24 1_555 1_555
C24 C25 1_555 1_555
C25 C26 1_555 1_555
C26 C24 1_555 1_555
C27 P2 1_555 1_555
C28 C27 1_555 1_555
C29 C28 1_555 1_555
C30 C29 1_555 1_555
C31 C30 1_555 1_555
C32 C27 1_555 1_555
C33 C28 1_555 1_555
C34 C33 1_555 1_555
C35 C33 1_555 1_555
C36 C33 1_555 1_555
C37 C30 1_555 1_555
C38 C37 1_555 1_555
C39 C37 1_555 1_555
C40 C37 1_555 1_555
C41 C32 1_555 1_555
C42 C41 1_555 1_555
C43 C41 1_555 1_555
C44 C41 1_555 1_555
H1 C1 1_555 1_555
H2 C2 1_555 1_555
H3 C3 1_555 1_555
H4 C3 1_555 1_555
H5 C4 1_555 1_555
H6 C4 1_555 1_555
H7 C7 1_555 1_555
H8 C9 1_555 1_555
H9 C12 1_555 1_555
H10 C12 1_555 1_555
H11 C12 1_555 1_555
H12 C13 1_555 1_555
H13 C13 1_555 1_555
H14 C13 1_555 1_555
H15 C14 1_555 1_555
H16 C14 1_555 1_555
H17 C14 1_555 1_555
H18 C16 1_555 1_555
H19 C16 1_555 1_555
H20 C16 1_555 1_555
H21 C17 1_555 1_555
H22 C17 1_555 1_555
H23 C17 1_555 1_555
H24 C18 1_555 1_555
H25 C18 1_555 1_555
H26 C18 1_555 1_555
H27 C20 1_555 1_555
H28 C20 1_555 1_555
H29 C20 1_555 1_555
H30 C21 1_555 1_555
H31 C21 1_555 1_555
H32 C21 1_555 1_555
H33 C22 1_555 1_555
H34 C22 1_555 1_555
H35 C22 1_555 1_555
H36 C23 1_555 1_555
H37 C24 1_555 1_555
H38 C25 1_555 1_555
H39 C25 1_555 1_555
H40 C26 1_555 1_555
H41 C26 1_555 1_555
H42 C29 1_555 1_555
H43 C31 1_555 1_555
H44 C34 1_555 1_555
H45 C34 1_555 1_555
H46 C34 1_555 1_555
H47 C35 1_555 1_555
H48 C35 1_555 1_555
H49 C35 1_555 1_555
H50 C36 1_555 1_555
H51 C36 1_555 1_555
H52 C36 1_555 1_555
H53 C38 1_555 1_555
H54 C38 1_555 1_555
H55 C38 1_555 1_555
H56 C39 1_555 1_555
H57 C39 1_555 1_555
H58 C39 1_555 1_555
H59 C40 1_555 1_555
H60 C40 1_555 1_555
H61 C40 1_555 1_555
H62 C42 1_555 1_555
H63 C42 1_555 1_555
H64 C42 1_555 1_555
H65 C43 1_555 1_555
H66 C43 1_555 1_555
H67 C43 1_555 1_555
H68 C44 1_555 1_555
H69 C44 1_555 1_555
H70 C44 1_555 1_555
C9 C10 1_555 1_555
C31 C32 1_555 1_555

#END
