
#######################################################################
#
#                 Cambridge Crystallographic Data Centre
#                                CCDC 
#
#######################################################################
#
# If this CIF has been generated from an entry in the Cambridge 
# Structural Database, then it will include bibliographic, chemical, 
# crystal, experimental, refinement or atomic coordinate data resulting 
# from the CCDC's data processing and validation procedures.
#
#######################################################################

data_ELAYIB
_chemical_formula_moiety         'C17 H13 Cl1 F1 N3'
_chemical_name_systematic        
7-chloro-4-((2-fluorobenzylidene)hydrazono)-1-methyl-1,4-dihydroquinoline
_symmetry_cell_setting           monoclinic
_symmetry_space_group_name_H-M   'P 21/c'
_symmetry_Int_Tables_number      14
_space_group_name_Hall           '-P 2ybc'
loop_
_symmetry_equiv_pos_site_id
_symmetry_equiv_pos_as_xyz
1 x,y,z
2 -x,1/2+y,1/2-z
3 -x,-y,-z
4 x,1/2-y,1/2+z
_cell_length_a                   8.2945(5)
_cell_length_b                   17.5324(11)
_cell_length_c                   13.1013(6)
_cell_angle_alpha                90
_cell_angle_beta                 129.071(3)
_cell_angle_gamma                90
_cell_volume                     1479.15
_exptl_crystal_colour            colorless
_exptl_crystal_description       Prism
_cell_formula_units_Z            4
loop_
_atom_site_label
_atom_site_type_symbol
_atom_site_fract_x
_atom_site_fract_y
_atom_site_fract_z
Cl1 Cl 0.35248(6) 1.05237(3) -0.42828(4)
F1 F 1.56661(15) 0.85807(6) 0.60254(10)
N1 N 0.25975(19) 0.90483(7) -0.13277(12)
N2 N 0.89888(19) 0.89624(7) 0.17147(12)
N3 N 0.9524(2) 0.85924(7) 0.28335(12)
C1 C 0.3402(2) 0.86829(9) -0.01762(15)
H1 H 0.2462 0.8456 -0.0082
C2 C 0.5451(2) 0.86243(9) 0.08347(15)
H2 H 0.5903 0.8362 0.1609
C3 C 0.6956(2) 0.89501(8) 0.07627(14)
C4 C 0.7428(2) 0.96360(9) -0.07037(14)
H3 H 0.8889 0.9593 -0.0036
C5 C 0.6108(2) 0.93189(8) -0.04865(14)
C6 C 0.6666(2) 1.00062(9) -0.18556(15)
H4 H 0.7573 1.0222 -0.1988
C7 C 0.4516(2) 1.00537(9) -0.28219(14)
C8 C 0.3148(2) 0.97468(8) -0.26773(14)
H5 H 0.1692 0.9788 -0.3361
C9 C 0.3945(2) 0.93693(8) -0.14961(14)
C10 C 1.1453(2) 0.86354(8) 0.38307(14)
H6 H 1.2389 0.8899 0.3768
C11 C 1.2208(2) 0.82747(8) 0.50719(14)
C12 C 1.4307(2) 0.82578(9) 0.61432(15)
C13 C 1.5097(3) 0.79219(9) 0.73326(15)
H7 H 1.6545 0.7933 0.8049
C14 C 1.3739(3) 0.75701(9) 0.74577(16)
H8 H 1.4254 0.7329 0.8261
C15 C 1.1621(3) 0.75679(10) 0.64104(17)
H9 H 1.0690 0.7321 0.6494
C16 C 1.0871(3) 0.79265(9) 0.52420(15)
H10 H 0.9416 0.7936 0.4541
C17 C 0.0349(2) 0.90927(9) -0.23530(15)
H11 H -0.0335 0.8844 -0.2047
H12 H -0.0051 0.8835 -0.3146
H13 H -0.0077 0.9629 -0.2554
loop_
_geom_bond_atom_site_label_1
_geom_bond_atom_site_label_2
_geom_bond_site_symmetry_1
_geom_bond_site_symmetry_2
Cl1 C7 1_555 1_555
F1 C12 1_555 1_555
N1 C1 1_555 1_555
N2 N3 1_555 1_555
N3 C10 1_555 1_555
C1 H1 1_555 1_555
C2 C1 1_555 1_555
H2 C2 1_555 1_555
C3 N2 1_555 1_555
C4 H3 1_555 1_555
C5 C3 1_555 1_555
C6 C4 1_555 1_555
H4 C6 1_555 1_555
C7 C6 1_555 1_555
C8 C7 1_555 1_555
H5 C8 1_555 1_555
C9 N1 1_555 1_555
C10 H6 1_555 1_555
C11 C10 1_555 1_555
C12 C11 1_555 1_555
C13 C12 1_555 1_555
H7 C13 1_555 1_555
C14 C13 1_555 1_555
H8 C14 1_555 1_555
C15 C14 1_555 1_555
H9 C15 1_555 1_555
C16 C11 1_555 1_555
H10 C16 1_555 1_555
C17 N1 1_555 1_555
H11 C17 1_555 1_555
H12 C17 1_555 1_555
H13 C17 1_555 1_555
C2 C3 1_555 1_555
C4 C5 1_555 1_555
C5 C9 1_555 1_555
C8 C9 1_555 1_555
C15 C16 1_555 1_555

#END
