
#######################################################################
#
#                 Cambridge Crystallographic Data Centre
#                                CCDC 
#
#######################################################################
#
# If this CIF has been generated from an entry in the Cambridge 
# Structural Database, then it will include bibliographic, chemical, 
# crystal, experimental, refinement or atomic coordinate data resulting 
# from the CCDC's data processing and validation procedures.
#
#######################################################################

data_ELAYUN
_chemical_formula_moiety         'C17 H13 Br1 Cl1 N3'
_chemical_name_systematic        
4-((2-bromobenzylidene)hydrazono)-7-chloro-1-methyl-1,4-dihydroquinoline
_symmetry_cell_setting           orthorhombic
_symmetry_space_group_name_H-M   'P b c a'
_symmetry_Int_Tables_number      61
_space_group_name_Hall           '-P 2ac 2ab'
loop_
_symmetry_equiv_pos_site_id
_symmetry_equiv_pos_as_xyz
1 x,y,z
2 1/2-x,-y,1/2+z
3 -x,1/2+y,1/2-z
4 1/2+x,1/2-y,-z
5 -x,-y,-z
6 1/2+x,y,1/2-z
7 x,1/2-y,1/2+z
8 1/2-x,1/2+y,z
_cell_length_a                   13.9934(6)
_cell_length_b                   8.5725(3)
_cell_length_c                   25.8946(18)
_cell_angle_alpha                90
_cell_angle_beta                 90
_cell_angle_gamma                90
_cell_volume                     3106.28
_exptl_crystal_colour            orange
_exptl_crystal_description       Block
_cell_formula_units_Z            8
loop_
_atom_site_label
_atom_site_type_symbol
_atom_site_fract_x
_atom_site_fract_y
_atom_site_fract_z
Br1 Br 0.751479(14) 0.03805(3) 0.272913(8)
Cl1 Cl 0.71464(4) 0.76748(5) 0.629868(17)
N1 N 0.46547(10) 0.36369(17) 0.57659(6)
N2 N 0.62005(11) 0.24395(17) 0.44497(6)
C1 C 0.67294(13) 0.6208(2) 0.58902(7)
C2 C 0.48638(14) -0.0585(2) 0.33935(7)
H1 H 0.4514 -0.0328 0.3696
N3 N 0.57480(11) 0.13561(17) 0.41345(6)
C3 C 0.55215(12) 0.43532(19) 0.56647(7)
C4 C 0.56874(14) 0.2748(2) 0.48669(7)
C5 C 0.57899(13) 0.0014(2) 0.33290(7)
C6 C 0.58674(13) 0.5525(2) 0.59972(7)
H2 H 0.5508 0.5836 0.6291
C7 C 0.61964(13) 0.1078(2) 0.37141(7)
H3 H 0.6795 0.1563 0.3651
C8 C 0.43321(13) 0.2511(2) 0.54402(7)
H4 H 0.3743 0.2017 0.5520
C9 C 0.72781(13) 0.5793(2) 0.54623(7)
H5 H 0.7878 0.6276 0.5399
C10 C 0.62693(13) -0.0405(2) 0.28780(7)
C11 C 0.60535(13) 0.39246(19) 0.52248(6)
C12 C 0.58652(15) -0.1369(2) 0.25078(7)
H6 H 0.6214 -0.1644 0.2206
C13 C 0.69324(13) 0.4674(2) 0.51347(7)
H7 H 0.7296 0.4396 0.4839
C14 C 0.47998(14) 0.2052(2) 0.50088(7)
H8 H 0.4534 0.1255 0.4798
C15 C 0.44493(15) -0.1539(2) 0.30269(8)
H9 H 0.3822 -0.1931 0.3079
C16 C 0.49507(15) -0.1925(2) 0.25827(8)
H10 H 0.4663 -0.2575 0.2329
C17 C 0.40695(14) 0.4105(2) 0.62075(7)
H11 H 0.3506 0.3430 0.6229
H12 H 0.3866 0.5191 0.6164
H13 H 0.4445 0.4007 0.6525
loop_
_geom_bond_atom_site_label_1
_geom_bond_atom_site_label_2
_geom_bond_site_symmetry_1
_geom_bond_site_symmetry_2
Br1 C10 1_555 1_555
Cl1 C1 1_555 1_555
N1 C3 1_555 1_555
N2 N3 1_555 1_555
C1 C6 1_555 1_555
C2 H1 1_555 1_555
N3 C7 1_555 1_555
C3 C6 1_555 1_555
C4 N2 1_555 1_555
C5 C2 1_555 1_555
C6 H2 1_555 1_555
C7 C5 1_555 1_555
H3 C7 1_555 1_555
C8 N1 1_555 1_555
H4 C8 1_555 1_555
C9 C1 1_555 1_555
H5 C9 1_555 1_555
C10 C5 1_555 1_555
C11 C3 1_555 1_555
C12 C10 1_555 1_555
H6 C12 1_555 1_555
C13 C9 1_555 1_555
H7 C13 1_555 1_555
C14 C4 1_555 1_555
H8 C14 1_555 1_555
C15 C2 1_555 1_555
H9 C15 1_555 1_555
C16 C12 1_555 1_555
H10 C16 1_555 1_555
C17 N1 1_555 1_555
H11 C17 1_555 1_555
H12 C17 1_555 1_555
H13 C17 1_555 1_555
C4 C11 1_555 1_555
C8 C14 1_555 1_555
C11 C13 1_555 1_555
C15 C16 1_555 1_555

#END
