
#######################################################################
#
#                 Cambridge Crystallographic Data Centre
#                                CCDC 
#
#######################################################################
#
# If this CIF has been generated from an entry in the Cambridge 
# Structural Database, then it will include bibliographic, chemical, 
# crystal, experimental, refinement or atomic coordinate data resulting 
# from the CCDC's data processing and validation procedures.
#
#######################################################################

data_ELEKEN
_chemical_compound_source        'Zephyranthes candida'
_chemical_formula_moiety         'C24 H36 O3'
_chemical_name_systematic        
6'-Hydroxy-2',3a,4,5',5',7,8a'-heptamethyl-3,3',3a,4',4a',5',6',7',8',8a'-decahydro-2'H,6H-spiro[1-benzofuran-2,1'-naphthalen]-6-one
_symmetry_cell_setting           orthorhombic
_symmetry_space_group_name_H-M   'P 21 21 21'
_symmetry_Int_Tables_number      19
_space_group_name_Hall           'P 2ac 2ab'
loop_
_symmetry_equiv_pos_site_id
_symmetry_equiv_pos_as_xyz
1 x,y,z
2 1/2-x,-y,1/2+z
3 -x,1/2+y,1/2-z
4 1/2+x,1/2-y,-z
_cell_length_a                   8.6259(5)
_cell_length_b                   9.3446(5)
_cell_length_c                   27.3784(14)
_cell_angle_alpha                90
_cell_angle_beta                 90
_cell_angle_gamma                90
_cell_volume                     2206.85
_cell_formula_units_Z            4
loop_
_atom_site_label
_atom_site_type_symbol
_atom_site_fract_x
_atom_site_fract_y
_atom_site_fract_z
O1 O -0.1178(2) 0.2992(2) 0.85839(9)
H1 H -0.1186 0.2211 0.8447
O2 O 0.4540(2) 0.76236(18) 0.87308(7)
O3 O 0.8656(2) 1.0343(2) 0.80850(9)
C1 C 0.1806(3) 0.5855(3) 0.84576(10)
H2 H 0.2313 0.5493 0.8167
H3 H 0.1668 0.6879 0.8417
C2 C 0.0213(3) 0.5147(3) 0.85072(12)
H4 H -0.0332 0.5559 0.8783
H5 H -0.0392 0.5334 0.8215
C3 C 0.0364(3) 0.3562(3) 0.85788(10)
H6 H 0.0904 0.3167 0.8294
C4 C 0.1298(3) 0.3161(3) 0.90377(9)
C5 C 0.2899(3) 0.3941(2) 0.90060(8)
H7 H 0.3404 0.3525 0.8719
C6 C 0.3996(3) 0.3596(3) 0.94320(9)
H8 H 0.3626 0.4064 0.9726
H9 H 0.4000 0.2572 0.9490
C7 C 0.5636(3) 0.4097(4) 0.93212(10)
H10 H 0.6033 0.3561 0.9045
H11 H 0.6293 0.3891 0.9600
C8 C 0.5731(3) 0.5698(3) 0.92061(10)
H12 H 0.6762 0.5847 0.9064
C9 C 0.4559(3) 0.6050(2) 0.87906(8)
C10 C 0.2848(3) 0.5582(2) 0.88999(8)
C11 C 0.5283(3) 0.5499(2) 0.83046(8)
H13 H 0.6188 0.4913 0.8370
H14 H 0.4537 0.4934 0.8123
C12 C 0.5742(3) 0.6864(2) 0.80133(9)
C13 C 0.5655(3) 0.7980(3) 0.84008(10)
C14 C 0.6500(3) 0.9167(3) 0.84313(11)
C15 C 0.7813(3) 0.9273(3) 0.80960(10)
C16 C 0.8184(3) 0.8023(3) 0.77913(9)
H15 H 0.9102 0.8037 0.7613
C17 C 0.7282(3) 0.6872(3) 0.77554(8)
C18 C 0.1562(4) 0.1530(3) 0.90237(12)
H16 H 0.2191 0.1291 0.8746
H17 H 0.0581 0.1051 0.8999
H18 H 0.2077 0.1233 0.9318
C19 C 0.0356(4) 0.3507(4) 0.95040(10)
H19 H -0.0537 0.2896 0.9519
H20 H 0.0029 0.4488 0.9495
H21 H 0.0992 0.3351 0.9787
C20 C 0.5685(5) 0.6632(4) 0.96679(12)
H22 H 0.6642 0.6529 0.9844
H23 H 0.4839 0.6334 0.9872
H24 H 0.5546 0.7616 0.9577
C21 C 0.2203(4) 0.6476(3) 0.93288(12)
H25 H 0.1091 0.6468 0.9318
H26 H 0.2568 0.7444 0.9302
H27 H 0.2549 0.6073 0.9632
C22 C 0.4510(3) 0.7203(3) 0.76192(11)
H28 H 0.4431 0.6412 0.7397
H29 H 0.4810 0.8047 0.7443
H30 H 0.3525 0.7359 0.7773
C23 C 0.6267(5) 1.0299(3) 0.88114(16)
H31 H 0.5335 1.0102 0.8991
H32 H 0.6180 1.1216 0.8656
H33 H 0.7135 1.0304 0.9031
C24 C 0.7662(3) 0.5622(3) 0.74341(9)
H34 H 0.8679 0.5747 0.7298
H35 H 0.6915 0.5561 0.7175
H36 H 0.7636 0.4758 0.7624
loop_
_geom_bond_atom_site_label_1
_geom_bond_atom_site_label_2
_geom_bond_site_symmetry_1
_geom_bond_site_symmetry_2
O1 H1 1_555 1_555
O2 C9 1_555 1_555
O3 C15 1_555 1_555
C1 H2 1_555 1_555
H3 C1 1_555 1_555
C2 C1 1_555 1_555
H4 C2 1_555 1_555
H5 C2 1_555 1_555
C3 O1 1_555 1_555
H6 C3 1_555 1_555
C4 C3 1_555 1_555
C5 C4 1_555 1_555
H7 C5 1_555 1_555
C6 C5 1_555 1_555
H8 C6 1_555 1_555
H9 C6 1_555 1_555
C7 C6 1_555 1_555
H10 C7 1_555 1_555
H11 C7 1_555 1_555
C8 C7 1_555 1_555
H12 C8 1_555 1_555
C9 C8 1_555 1_555
C10 C1 1_555 1_555
C11 C9 1_555 1_555
H13 C11 1_555 1_555
H14 C11 1_555 1_555
C12 C11 1_555 1_555
C13 O2 1_555 1_555
C14 C13 1_555 1_555
C15 C14 1_555 1_555
C16 C15 1_555 1_555
H15 C16 1_555 1_555
C17 C12 1_555 1_555
C18 C4 1_555 1_555
H16 C18 1_555 1_555
H17 C18 1_555 1_555
H18 C18 1_555 1_555
C19 C4 1_555 1_555
H19 C19 1_555 1_555
H20 C19 1_555 1_555
H21 C19 1_555 1_555
C20 C8 1_555 1_555
H22 C20 1_555 1_555
H23 C20 1_555 1_555
H24 C20 1_555 1_555
C21 C10 1_555 1_555
H25 C21 1_555 1_555
H26 C21 1_555 1_555
H27 C21 1_555 1_555
C22 C12 1_555 1_555
H28 C22 1_555 1_555
H29 C22 1_555 1_555
H30 C22 1_555 1_555
C23 C14 1_555 1_555
H31 C23 1_555 1_555
H32 C23 1_555 1_555
H33 C23 1_555 1_555
C24 C17 1_555 1_555
H34 C24 1_555 1_555
H35 C24 1_555 1_555
H36 C24 1_555 1_555
C2 C3 1_555 1_555
C5 C10 1_555 1_555
C9 C10 1_555 1_555
C12 C13 1_555 1_555
C16 C17 1_555 1_555

#END
