
#######################################################################
#
#                 Cambridge Crystallographic Data Centre
#                                CCDC 
#
#######################################################################
#
# If this CIF has been generated from an entry in the Cambridge 
# Structural Database, then it will include bibliographic, chemical, 
# crystal, experimental, refinement or atomic coordinate data resulting 
# from the CCDC's data processing and validation procedures.
#
#######################################################################

data_ELELIS
_chemical_compound_source        'Zephyranthes candida'
_chemical_formula_moiety         'C16 H21 N1 O4,0.5(H2 O1)'
_chemical_name_systematic        
'9-De-O-methyl-11\b-hydroxylycoramine hemihydrate'
_chemical_properties_biological  'tested for anti-inflammatory activity'
_symmetry_cell_setting           orthorhombic
_symmetry_space_group_name_H-M   'P 21 21 21'
_symmetry_Int_Tables_number      19
_space_group_name_Hall           'P 2ac 2ab'
loop_
_symmetry_equiv_pos_site_id
_symmetry_equiv_pos_as_xyz
1 x,y,z
2 1/2-x,-y,1/2+z
3 -x,1/2+y,1/2-z
4 1/2+x,1/2-y,-z
_cell_length_a                   8.03720(10)
_cell_length_b                   15.6818(2)
_cell_length_c                   22.5648(3)
_cell_angle_alpha                90
_cell_angle_beta                 90
_cell_angle_gamma                90
_cell_volume                     2844.02
_exptl_crystal_colour            colorless
_exptl_crystal_description       block
_cell_formula_units_Z            8
loop_
_atom_site_label
_atom_site_type_symbol
_atom_site_fract_x
_atom_site_fract_y
_atom_site_fract_z
C1 C 0.8681(4) 0.51319(18) 0.76862(11)
H1 H 0.7868 0.4781 0.7473
C2 C 0.9002(4) 0.47381(19) 0.82869(12)
H2 H 0.9431 0.4166 0.8232
H3 H 0.7956 0.4693 0.8499
C3 C 1.0232(4) 0.5246(2) 0.86641(11)
H4 H 0.9899 0.5196 0.9081
C4 C 1.0264(4) 0.6190(2) 0.84991(13)
H5 H 1.0601 0.6520 0.8842
H6 H 1.1086 0.6280 0.8191
C5 C 0.7396(4) 0.78141(19) 0.70122(13)
H7 H 0.7412 0.8276 0.6726
H8 H 0.7627 0.8057 0.7399
C6 C 0.9850(4) 0.73680(16) 0.64020(12)
H9 H 0.9699 0.7856 0.6174
C7 C 1.1183(4) 0.68239(18) 0.62769(12)
H10 H 1.1920 0.6968 0.5975
C8 C 1.1436(4) 0.60747(16) 0.65914(11)
C9 C 1.0239(3) 0.58681(17) 0.70231(10)
C10 C 0.6173(4) 0.6064(2) 0.76116(12)
H11 H 0.5907 0.5741 0.7252
C11 C 0.5331(4) 0.6940(2) 0.75783(12)
H12 H 0.4138 0.6863 0.7614
H13 H 0.5697 0.7280 0.7913
C12 C 0.4397(5) 0.8102(2) 0.69573(13)
H14 H 0.3313 0.7860 0.7018
H15 H 0.4459 0.8343 0.6567
H16 H 0.4590 0.8540 0.7247
C13 C 0.8581(4) 0.65116(19) 0.82832(12)
H17 H 0.8641 0.7122 0.8217
H18 H 0.7748 0.6407 0.8586
C14 C 0.8748(4) 0.71923(18) 0.68595(12)
C15 C 0.8973(3) 0.64329(18) 0.71699(11)
C16 C 0.8056(4) 0.60630(19) 0.77012(11)
N1 N 0.5682(3) 0.74237(17) 0.70204(10)
O1 O 1.2733(3) 0.55357(12) 0.64990(8)
H19 H 1.3574 0.5806 0.6416
O2 O 1.0251(2) 0.51416(12) 0.73503(8)
O3 O 1.1831(3) 0.48620(17) 0.85952(9)
H20 H 1.2230 0.4764 0.8923
O4 O 0.5456(3) 0.5644(2) 0.81080(10)
H21 H 0.4762 0.5298 0.7993
C17 C 0.2083(3) 0.91837(16) 0.88078(11)
H22 H 0.1166 0.9297 0.8532
C18 C 0.2912(3) 0.83538(18) 0.86445(12)
H23 H 0.3269 0.8381 0.8234
H24 H 0.2109 0.7895 0.8679
C19 C 0.4416(3) 0.81532(18) 0.90361(13)
H25 H 0.4536 0.7532 0.9053
C20 C 0.4166(3) 0.84756(19) 0.96724(13)
H26 H 0.4724 0.8092 0.9945
H27 H 0.4672 0.9034 0.9712
C21 C 0.0270(4) 1.02672(19) 1.05868(11)
H28 H 0.0809 0.9803 1.0796
H29 H 0.0076 1.0719 1.0872
C22 C 0.2185(4) 1.1397(2) 1.01719(12)
H30 H 0.1881 1.1744 1.0488
C23 C 0.3354(4) 1.17049(18) 0.97613(13)
H31 H 0.3827 1.2240 0.9817
C24 C 0.3816(3) 1.12136(19) 0.92683(12)
C25 C 0.3032(3) 1.04258(17) 0.92174(11)
C26 C -0.0473(3) 0.90829(16) 0.94568(11)
H32 H -0.0979 0.9517 0.9202
C27 C -0.1289(3) 0.91301(17) 1.00740(11)
H33 H -0.2421 0.8921 1.0037
H34 H -0.0702 0.8738 1.0332
C28 C -0.2270(4) 1.06143(18) 1.00423(12)
H35 H -0.2441 1.1104 1.0290
H36 H -0.3327 1.0390 0.9920
H37 H -0.1639 1.0776 0.9699
C29 C 0.2326(3) 0.85335(17) 0.98381(12)
H38 H 0.2226 0.8678 1.0255
H39 H 0.1804 0.7983 0.9778
C30 C 0.1469(4) 1.05984(19) 1.01229(11)
C31 C 0.1921(3) 1.01002(17) 0.96310(10)
C32 C 0.1416(3) 0.92142(17) 0.94609(10)
N2 N -0.1357(3) 0.99617(15) 1.03742(9)
O5 O 0.4961(2) 1.14842(13) 0.88749(9)
H40 H 0.4588 1.1760 0.8586
O6 O 0.3334(2) 0.98605(12) 0.87568(8)
O7 O 0.5931(3) 0.84997(15) 0.87824(10)
H41 H 0.5797 0.9007 0.8708
O8 O -0.0806(2) 0.82636(13) 0.92119(9)
H42 H -0.1733 0.8263 0.9060
O9 O 0.3539(4) 0.46322(19) 0.75399(15)
H43 H 0.2513 0.4778 0.7688
H44 H 0.3378 0.4940 0.7199
loop_
_geom_bond_atom_site_label_1
_geom_bond_atom_site_label_2
_geom_bond_site_symmetry_1
_geom_bond_site_symmetry_2
C1 H1 1_555 1_555
C2 C1 1_555 1_555
H2 C2 1_555 1_555
H3 C2 1_555 1_555
C3 C2 1_555 1_555
H4 C3 1_555 1_555
C4 C3 1_555 1_555
H5 C4 1_555 1_555
H6 C4 1_555 1_555
C5 H7 1_555 1_555
H8 C5 1_555 1_555
C6 H9 1_555 1_555
C7 C6 1_555 1_555
H10 C7 1_555 1_555
C8 C7 1_555 1_555
C9 C8 1_555 1_555
C10 H11 1_555 1_555
C11 C10 1_555 1_555
H12 C11 1_555 1_555
H13 C11 1_555 1_555
C12 H14 1_555 1_555
H15 C12 1_555 1_555
H16 C12 1_555 1_555
C13 C4 1_555 1_555
H17 C13 1_555 1_555
H18 C13 1_555 1_555
C14 C5 1_555 1_555
C15 C9 1_555 1_555
C16 C1 1_555 1_555
N1 C5 1_555 1_555
O1 C8 1_555 1_555
H19 O1 1_555 1_555
O2 C1 1_555 1_555
O3 C3 1_555 1_555
H20 O3 1_555 1_555
O4 C10 1_555 1_555
H21 O4 1_555 1_555
C17 H22 1_555 1_555
C18 C17 1_555 1_555
H23 C18 1_555 1_555
H24 C18 1_555 1_555
C19 C18 1_555 1_555
H25 C19 1_555 1_555
C20 C19 1_555 1_555
H26 C20 1_555 1_555
H27 C20 1_555 1_555
C21 H28 1_555 1_555
H29 C21 1_555 1_555
C22 H30 1_555 1_555
C23 C22 1_555 1_555
H31 C23 1_555 1_555
C24 C23 1_555 1_555
C25 C24 1_555 1_555
C26 H32 1_555 1_555
C27 C26 1_555 1_555
H33 C27 1_555 1_555
H34 C27 1_555 1_555
C28 H35 1_555 1_555
H36 C28 1_555 1_555
H37 C28 1_555 1_555
C29 C20 1_555 1_555
H38 C29 1_555 1_555
H39 C29 1_555 1_555
C30 C21 1_555 1_555
C31 C25 1_555 1_555
C32 C17 1_555 1_555
N2 C21 1_555 1_555
O5 C24 1_555 1_555
H40 O5 1_555 1_555
O6 C17 1_555 1_555
O7 C19 1_555 1_555
H41 O7 1_555 1_555
O8 C26 1_555 1_555
H42 O8 1_555 1_555
O9 H43 1_555 1_555
H44 O9 1_555 1_555
C6 C14 1_555 1_555
C9 O2 1_555 1_555
C10 C16 1_555 1_555
C11 N1 1_555 1_555
C12 N1 1_555 1_555
C13 C16 1_555 1_555
C14 C15 1_555 1_555
C15 C16 1_555 1_555
C22 C30 1_555 1_555
C25 O6 1_555 1_555
C26 C32 1_555 1_555
C27 N2 1_555 1_555
C28 N2 1_555 1_555
C29 C32 1_555 1_555
C30 C31 1_555 1_555
C31 C32 1_555 1_555

#END
