
#######################################################################
#
#                 Cambridge Crystallographic Data Centre
#                                CCDC 
#
#######################################################################
#
# If this CIF has been generated from an entry in the Cambridge 
# Structural Database, then it will include bibliographic, chemical, 
# crystal, experimental, refinement or atomic coordinate data resulting 
# from the CCDC's data processing and validation procedures.
#
#######################################################################

data_ELIJIS
_chemical_formula_moiety         'C23 H27 N1 O4 S1'
_chemical_name_systematic        
'rac-Methyl 3-(2-(4-ethyl-1-(tolylsulfonyl)-2,3-dihydropyrrol-3-yl)ethyl)benzoate'
_symmetry_cell_setting           triclinic
_symmetry_space_group_name_H-M   'P -1'
_symmetry_Int_Tables_number      2
_space_group_name_Hall           '-P 1'
loop_
_symmetry_equiv_pos_site_id
_symmetry_equiv_pos_as_xyz
1 x,y,z
2 -x,-y,-z
_cell_length_a                   8.412(2)
_cell_length_b                   10.931(2)
_cell_length_c                   11.989(2)
_cell_angle_alpha                83.730(10)
_cell_angle_beta                 81.300(10)
_cell_angle_gamma                80.320(10)
_cell_volume                     1070.23
_exptl_crystal_colour            colorless
_exptl_crystal_description       needle
_chemical_melting_point          '340.16-341.20 K'
_cell_formula_units_Z            2
_exptl_crystal_recrystallization_method 'ethyl acetate/acetonitrile'
loop_
_atom_site_label
_atom_site_type_symbol
_atom_site_fract_x
_atom_site_fract_y
_atom_site_fract_z
S1 S 1.12177(6) 0.25708(5) 0.44914(4)
N1 N 0.9325(2) 0.23939(15) 0.45115(13)
O1 O 1.21094(17) 0.13749(13) 0.47529(12)
O2 O 1.11973(18) 0.35522(13) 0.51864(11)
O3 O 0.62524(17) 0.13375(13) -0.32184(11)
O4 O 0.4847(2) 0.09127(14) -0.15701(12)
C1 C 0.8155(3) 0.3463(2) 0.43169(17)
H1 H 0.8117 0.4206 0.4638
C2 C 0.7126(3) 0.33022(19) 0.36344(17)
C3 C 0.7579(3) 0.2028(2) 0.32136(17)
H2 H 0.6656 0.1566 0.3387
C4 C 0.8976(3) 0.14010(18) 0.38643(17)
H3 H 0.8655 0.0706 0.4374
H4 H 0.9927 0.1099 0.3346
C5 C 0.5683(3) 0.41878(19) 0.33251(18)
H5 H 0.4720 0.3944 0.3790
H6 H 0.5577 0.4105 0.2543
C6 C 0.5710(3) 0.5528(2) 0.34522(19)
H7 H 0.5722 0.5638 0.4234
H8 H 0.4758 0.6026 0.3197
H9 H 0.6666 0.5781 0.3007
C7 C 0.8085(3) 0.2232(2) 0.18909(17)
H10 H 0.7168 0.2711 0.1558
H11 H 0.8966 0.2722 0.1747
C8 C 0.8596(3) 0.1099(2) 0.13330(18)
H12 H 0.7814 0.0532 0.1572
H13 H 0.9645 0.0695 0.1532
C9 C 0.8719(3) 0.1430(2) 0.00412(18)
C10 C 0.7443(3) 0.1214(2) -0.04691(17)
H14 H 0.6561 0.0906 -0.0032
C11 C 0.7464(3) 0.14510(19) -0.16261(17)
C12 C 0.8794(3) 0.18875(19) -0.23013(17)
H15 H 0.8815 0.2027 -0.3082
C13 C 1.0063(3) 0.2106(2) -0.17990(18)
H16 H 1.0949 0.2405 -0.2237
C14 C 1.0023(3) 0.1882(2) -0.06405(18)
H17 H 1.0890 0.2037 -0.0307
C15 C 0.6034(3) 0.1206(2) -0.21066(18)
C16 C 0.4917(3) 0.1165(2) -0.37814(18)
H18 H 0.4809 0.0298 -0.3705
H19 H 0.5124 0.1443 -0.4570
H20 H 0.3929 0.1638 -0.3444
C17 C 1.1909(2) 0.30668(19) 0.30848(17)
C18 C 1.1524(3) 0.42829(19) 0.26792(17)
H21 H 1.0950 0.4867 0.3159
C19 C 1.1991(3) 0.4636(2) 0.15585(18)
H22 H 1.1731 0.5464 0.1285
C20 C 1.2843(3) 0.3781(2) 0.08300(18)
C21 C 1.3215(3) 0.2561(2) 0.12407(18)
H23 H 1.3779 0.1976 0.0757
C22 C 1.2760(2) 0.2197(2) 0.23625(17)
H24 H 1.3022 0.1369 0.2637
C23 C 1.3288(3) 0.4171(2) -0.04128(19)
H25 H 1.4445 0.4149 -0.0580
H26 H 1.2749 0.5001 -0.0586
H27 H 1.2953 0.3609 -0.0862
loop_
_geom_bond_atom_site_label_1
_geom_bond_atom_site_label_2
_geom_bond_site_symmetry_1
_geom_bond_site_symmetry_2
S1 N1 1_555 1_555
N1 C1 1_555 1_555
O1 S1 1_555 1_555
O2 S1 1_555 1_555
O3 C15 1_555 1_555
O4 C15 1_555 1_555
C1 H1 1_555 1_555
C2 C1 1_555 1_555
C3 C2 1_555 1_555
H2 C3 1_555 1_555
C4 N1 1_555 1_555
H3 C4 1_555 1_555
H4 C4 1_555 1_555
C5 C2 1_555 1_555
H5 C5 1_555 1_555
H6 C5 1_555 1_555
C6 C5 1_555 1_555
H7 C6 1_555 1_555
H8 C6 1_555 1_555
H9 C6 1_555 1_555
C7 C3 1_555 1_555
H10 C7 1_555 1_555
H11 C7 1_555 1_555
C8 C7 1_555 1_555
H12 C8 1_555 1_555
H13 C8 1_555 1_555
C9 C8 1_555 1_555
C10 C9 1_555 1_555
H14 C10 1_555 1_555
C11 C10 1_555 1_555
C12 C11 1_555 1_555
H15 C12 1_555 1_555
C13 C12 1_555 1_555
H16 C13 1_555 1_555
C14 C9 1_555 1_555
H17 C14 1_555 1_555
C15 C11 1_555 1_555
C16 O3 1_555 1_555
H18 C16 1_555 1_555
H19 C16 1_555 1_555
H20 C16 1_555 1_555
C17 S1 1_555 1_555
C18 C17 1_555 1_555
H21 C18 1_555 1_555
C19 C18 1_555 1_555
H22 C19 1_555 1_555
C20 C19 1_555 1_555
C21 C20 1_555 1_555
H23 C21 1_555 1_555
C22 C17 1_555 1_555
H24 C22 1_555 1_555
C23 C20 1_555 1_555
H25 C23 1_555 1_555
H26 C23 1_555 1_555
H27 C23 1_555 1_555
C3 C4 1_555 1_555
C13 C14 1_555 1_555
C21 C22 1_555 1_555

#END
