
#######################################################################
#
#                 Cambridge Crystallographic Data Centre
#                                CCDC 
#
#######################################################################
#
# If this CIF has been generated from an entry in the Cambridge 
# Structural Database, then it will include bibliographic, chemical, 
# crystal, experimental, refinement or atomic coordinate data resulting 
# from the CCDC's data processing and validation procedures.
#
#######################################################################

data_ELUTAH01
_chemical_formula_moiety         'C12 H16 O3'
_chemical_name_systematic        
5a-methyloctahydro-2H-indeno[5,4-b]furan-2,8(1H)-dione
_symmetry_cell_setting           monoclinic
_symmetry_space_group_name_H-M   'P 21/c'
_symmetry_Int_Tables_number      14
_space_group_name_Hall           '-P 2ybc'
loop_
_symmetry_equiv_pos_site_id
_symmetry_equiv_pos_as_xyz
1 x,y,z
2 -x,1/2+y,1/2-z
3 -x,-y,-z
4 x,1/2-y,1/2+z
_cell_length_a                   12.170(6)
_cell_length_b                   11.066(6)
_cell_length_c                   8.455(4)
_cell_angle_alpha                90
_cell_angle_beta                 109.476(10)
_cell_angle_gamma                90
_cell_volume                     1073.51
_exptl_crystal_colour            colorless
_exptl_crystal_description       block
_chemical_melting_point          '86-87 deg.C'
_cell_formula_units_Z            4
loop_
_atom_site_label
_atom_site_type_symbol
_atom_site_fract_x
_atom_site_fract_y
_atom_site_fract_z
O1 O 0.2149(2) 0.5756(2) 0.1387(2)
O2 O 0.0350(2) 0.6313(2) 0.1142(3)
O3 O 0.42195(19) 0.7230(2) -0.1998(3)
C1 C 0.2599(2) 0.4545(2) -0.3144(3)
C2 C 0.2228(2) 0.6295(2) -0.1265(3)
H1 H 0.2511 0.7125 -0.1001
C3 C 0.3317(3) 0.3936(3) -0.1503(4)
H2 H 0.4113 0.4229 -0.1169
H3 H 0.3331 0.3070 -0.1680
C4 C 0.0974(2) 0.6277(3) -0.1326(4)
H4 H 0.0579 0.7025 -0.1783
H5 H 0.0553 0.5604 -0.1992
C5 C 0.2818(3) 0.4185(3) -0.0096(4)
H6 H 0.2024 0.3886 -0.0424
H7 H 0.3275 0.3756 0.0908
C6 C 0.3722(3) 0.6371(3) -0.2786(4)
C7 C 0.3288(3) 0.4527(3) -0.4377(4)
H8 H 0.3704 0.3769 -0.4291
H9 H 0.2764 0.4620 -0.5521
C8 C 0.1089(3) 0.6132(3) 0.0490(4)
C9 C 0.2830(2) 0.5524(3) 0.0281(4)
H10 H 0.3634 0.5801 0.0816
C10 C 0.2520(2) 0.5906(2) -0.2801(3)
H11 H 0.1929 0.6255 -0.3786
C11 C 0.4146(3) 0.5586(3) -0.3891(4)
H12 H 0.4929 0.5299 -0.3299
H13 H 0.4152 0.6025 -0.4881
C12 C 0.1428(3) 0.3915(3) -0.3906(4)
H14 H 0.1554 0.3078 -0.4094
H15 H 0.1001 0.4292 -0.4953
H16 H 0.0991 0.3977 -0.3150
loop_
_geom_bond_atom_site_label_1
_geom_bond_atom_site_label_2
_geom_bond_site_symmetry_1
_geom_bond_site_symmetry_2
O1 C8 1_555 1_555
O2 C8 1_555 1_555
O3 C6 1_555 1_555
C1 C3 1_555 1_555
C2 H1 1_555 1_555
C3 H2 1_555 1_555
H3 C3 1_555 1_555
C4 C2 1_555 1_555
H4 C4 1_555 1_555
H5 C4 1_555 1_555
C5 C3 1_555 1_555
H6 C5 1_555 1_555
H7 C5 1_555 1_555
C6 C10 1_555 1_555
C7 C1 1_555 1_555
H8 C7 1_555 1_555
H9 C7 1_555 1_555
C8 C4 1_555 1_555
C9 O1 1_555 1_555
H10 C9 1_555 1_555
C10 C1 1_555 1_555
H11 C10 1_555 1_555
C11 C6 1_555 1_555
H12 C11 1_555 1_555
H13 C11 1_555 1_555
C12 C1 1_555 1_555
H14 C12 1_555 1_555
H15 C12 1_555 1_555
H16 C12 1_555 1_555
C2 C9 1_555 1_555
C2 C10 1_555 1_555
C5 C9 1_555 1_555
C7 C11 1_555 1_555

#END
