
#######################################################################
#
#                 Cambridge Crystallographic Data Centre
#                                CCDC 
#
#######################################################################
#
# If this CIF has been generated from an entry in the Cambridge 
# Structural Database, then it will include bibliographic, chemical, 
# crystal, experimental, refinement or atomic coordinate data resulting 
# from the CCDC's data processing and validation procedures.
#
#######################################################################

data_ELUWUF
_chemical_formula_moiety         'C19 H26 O5'
_chemical_name_systematic        
5a,6a-dihydroxy-3a,9,9-trimethyl-3,3a,4,5,5a,6,6a,9,9a,10,11,11a-dodecahydroindeno[4',5':5,6]cyclohepta[1,2-c]furan-2,7-dione
_symmetry_cell_setting           triclinic
_symmetry_space_group_name_H-M   'P -1'
_symmetry_Int_Tables_number      2
_space_group_name_Hall           '-P 1'
loop_
_symmetry_equiv_pos_site_id
_symmetry_equiv_pos_as_xyz
1 x,y,z
2 -x,-y,-z
_cell_length_a                   11.6354(6)
_cell_length_b                   12.0451(8)
_cell_length_c                   13.5014(8)
_cell_angle_alpha                66.578(6)
_cell_angle_beta                 81.721(5)
_cell_angle_gamma                79.932(5)
_cell_volume                     1703.74
_cell_formula_units_Z            4
loop_
_atom_site_label
_atom_site_type_symbol
_atom_site_fract_x
_atom_site_fract_y
_atom_site_fract_z
O1 O 0.13660(16) 0.7306(2) 0.44566(15)
O2 O 0.25865(16) 0.70803(18) 0.56477(15)
O3 O 0.36638(15) 0.87845(16) 0.37337(16)
H1 H 0.4389 0.8770 0.3570
O4 O 0.57629(15) 0.81169(15) 0.30342(14)
H2 H 0.6213 0.7962 0.3519
O5 O 0.8460(2) 0.9055(2) -0.07135(18)
C1 C 0.2406(2) 0.7326(2) 0.4714(2)
C2 C 0.3297(2) 0.7726(2) 0.3721(2)
C3 C 0.4324(2) 0.6694(2) 0.38508(19)
H3 H 0.4040 0.6029 0.3765
H4 H 0.4544 0.6395 0.4587
C4 C 0.5442(2) 0.6995(2) 0.3078(2)
C5 C 0.6436(2) 0.5954(2) 0.3513(2)
H5 H 0.6524 0.5825 0.4256
H6 H 0.6229 0.5209 0.3513
C6 C 0.7602(2) 0.6220(2) 0.2842(2)
H7 H 0.8186 0.5516 0.3125
H8 H 0.7856 0.6905 0.2919
C7 C 0.7531(2) 0.6512(2) 0.1639(2)
C8 C 0.8539(2) 0.7182(2) 0.0903(2)
H9 H 0.9020 0.7389 0.1320
H10 H 0.9029 0.6676 0.0559
C9 C 0.7960(3) 0.8326(3) 0.0064(2)
C10 C 0.6701(2) 0.8402(2) 0.0372(2)
H11 H 0.6149 0.9037 0.0001
C11 C 0.6450(2) 0.7439(2) 0.1256(2)
C12 C 0.5294(2) 0.7195(2) 0.18956(19)
H12 H 0.5138 0.6414 0.1912
C13 C 0.4278(2) 0.8140(2) 0.1371(2)
H13 H 0.4370 0.8329 0.0598
H14 H 0.4313 0.8883 0.1477
C14 C 0.3072(2) 0.7724(3) 0.1820(2)
H15 H 0.2547 0.8089 0.1245
H16 H 0.3145 0.6846 0.2039
C15 C 0.2525(2) 0.8051(2) 0.2781(2)
H17 H 0.2320 0.8940 0.2497
C16 C 0.1371(2) 0.7504(3) 0.3306(2)
C17 C 0.1286(3) 0.6266(3) 0.3299(3)
H18 H 0.1981 0.5720 0.3560
H19 H 0.1210 0.6348 0.2573
H20 H 0.0615 0.5944 0.3759
C18 C 0.0305(2) 0.8414(3) 0.2883(3)
H21 H -0.0392 0.8065 0.3258
H22 H 0.0298 0.8608 0.2122
H23 H 0.0333 0.9143 0.3001
C19 C 0.7462(2) 0.5357(2) 0.1446(2)
H24 H 0.6779 0.4999 0.1847
H25 H 0.8149 0.4784 0.1681
H26 H 0.7416 0.5563 0.0688
O6 O 0.13646(17) 0.2303(2) 0.44578(15)
O7 O 0.25879(16) 0.20787(19) 0.56457(16)
O8 O 0.36608(15) 0.37846(16) 0.37337(16)
H27 H 0.4385 0.3776 0.3564
O9 O 0.57590(14) 0.31167(15) 0.30373(14)
H28 H 0.6220 0.2961 0.3514
O10 O 0.84598(19) 0.4055(2) -0.07169(19)
C20 C 0.2402(2) 0.2327(3) 0.4719(2)
C21 C 0.3298(2) 0.2723(2) 0.3723(2)
C22 C 0.4319(2) 0.1691(2) 0.3857(2)
H29 H 0.4034 0.1025 0.3775
H30 H 0.4541 0.1395 0.4594
C23 C 0.5441(2) 0.1993(2) 0.3078(2)
C24 C 0.6436(2) 0.0958(2) 0.3514(2)
H31 H 0.6522 0.0834 0.4256
H32 H 0.6228 0.0210 0.3519
C25 C 0.7609(2) 0.1212(2) 0.2846(2)
H33 H 0.8186 0.0503 0.3130
H34 H 0.7871 0.1892 0.2925
C26 C 0.7540(2) 0.1510(2) 0.1641(2)
C27 C 0.8541(2) 0.2182(3) 0.0903(2)
H35 H 0.9021 0.2393 0.1317
H36 H 0.9033 0.1675 0.0561
C28 C 0.7960(3) 0.3323(3) 0.0061(2)
C29 C 0.6712(2) 0.3401(2) 0.0369(2)
H37 H 0.6162 0.4039 -0.0001
C30 C 0.6456(2) 0.2432(2) 0.1256(2)
C31 C 0.5299(2) 0.2189(2) 0.1895(2)
H38 H 0.5140 0.1409 0.1912
C32 C 0.4277(2) 0.3145(2) 0.1371(2)
H39 H 0.4312 0.3885 0.1484
H40 H 0.4368 0.3341 0.0597
C33 C 0.3077(2) 0.2728(3) 0.1818(2)
H41 H 0.3153 0.1850 0.2034
H42 H 0.2552 0.3094 0.1243
C34 C 0.2526(2) 0.3049(2) 0.2784(2)
H43 H 0.2322 0.3937 0.2502
C35 C 0.1373(2) 0.2505(3) 0.3310(2)
C36 C 0.1290(3) 0.1270(3) 0.3299(3)
H44 H 0.0601 0.0961 0.3735
H45 H 0.1971 0.0715 0.3587
H46 H 0.1246 0.1350 0.2569
C37 C 0.0305(2) 0.3416(3) 0.2877(3)
H47 H 0.0309 0.4130 0.3028
H48 H -0.0393 0.3053 0.3222
H49 H 0.0325 0.3640 0.2109
C38 C 0.7464(2) 0.0357(2) 0.1441(2)
H50 H 0.7422 0.0568 0.0682
H51 H 0.6777 0.0004 0.1837
H52 H 0.8147 -0.0221 0.1679
loop_
_geom_bond_atom_site_label_1
_geom_bond_atom_site_label_2
_geom_bond_site_symmetry_1
_geom_bond_site_symmetry_2
O1 C1 1_555 1_555
O2 C1 1_555 1_555
O3 H1 1_555 1_555
O4 H2 1_555 1_555
O5 C9 1_555 1_555
C1 C2 1_555 1_555
C2 O3 1_555 1_555
C3 C2 1_555 1_555
H3 C3 1_555 1_555
H4 C3 1_555 1_555
C4 O4 1_555 1_555
C5 C4 1_555 1_555
H5 C5 1_555 1_555
H6 C5 1_555 1_555
C6 C5 1_555 1_555
H7 C6 1_555 1_555
H8 C6 1_555 1_555
C7 C6 1_555 1_555
C8 C7 1_555 1_555
H9 C8 1_555 1_555
H10 C8 1_555 1_555
C9 C8 1_555 1_555
C10 C9 1_555 1_555
H11 C10 1_555 1_555
C11 C7 1_555 1_555
C12 C4 1_555 1_555
H12 C12 1_555 1_555
C13 C12 1_555 1_555
H13 C13 1_555 1_555
H14 C13 1_555 1_555
C14 C13 1_555 1_555
H15 C14 1_555 1_555
H16 C14 1_555 1_555
C15 C2 1_555 1_555
H17 C15 1_555 1_555
C16 O1 1_555 1_555
C17 C16 1_555 1_555
H18 C17 1_555 1_555
H19 C17 1_555 1_555
H20 C17 1_555 1_555
C18 C16 1_555 1_555
H21 C18 1_555 1_555
H22 C18 1_555 1_555
H23 C18 1_555 1_555
C19 C7 1_555 1_555
H24 C19 1_555 1_555
H25 C19 1_555 1_555
H26 C19 1_555 1_555
O6 C20 1_555 1_555
O7 C20 1_555 1_555
O8 H27 1_555 1_555
O9 H28 1_555 1_555
O10 C28 1_555 1_555
C20 C21 1_555 1_555
C21 O8 1_555 1_555
C22 C21 1_555 1_555
H29 C22 1_555 1_555
H30 C22 1_555 1_555
C23 O9 1_555 1_555
C24 C23 1_555 1_555
H31 C24 1_555 1_555
H32 C24 1_555 1_555
C25 C24 1_555 1_555
H33 C25 1_555 1_555
H34 C25 1_555 1_555
C26 C25 1_555 1_555
C27 C26 1_555 1_555
H35 C27 1_555 1_555
H36 C27 1_555 1_555
C28 C27 1_555 1_555
C29 C28 1_555 1_555
H37 C29 1_555 1_555
C30 C26 1_555 1_555
C31 C23 1_555 1_555
H38 C31 1_555 1_555
C32 C31 1_555 1_555
H39 C32 1_555 1_555
H40 C32 1_555 1_555
C33 C32 1_555 1_555
H41 C33 1_555 1_555
H42 C33 1_555 1_555
C34 C21 1_555 1_555
H43 C34 1_555 1_555
C35 O6 1_555 1_555
C36 C35 1_555 1_555
H44 C36 1_555 1_555
H45 C36 1_555 1_555
H46 C36 1_555 1_555
C37 C35 1_555 1_555
H47 C37 1_555 1_555
H48 C37 1_555 1_555
H49 C37 1_555 1_555
C38 C26 1_555 1_555
H50 C38 1_555 1_555
H51 C38 1_555 1_555
H52 C38 1_555 1_555
C3 C4 1_555 1_555
C10 C11 1_555 1_555
C11 C12 1_555 1_555
C14 C15 1_555 1_555
C15 C16 1_555 1_555
C22 C23 1_555 1_555
C29 C30 1_555 1_555
C30 C31 1_555 1_555
C33 C34 1_555 1_555
C34 C35 1_555 1_555

#END
