
#######################################################################
#
#                 Cambridge Crystallographic Data Centre
#                                CCDC 
#
#######################################################################
#
# If this CIF has been generated from an entry in the Cambridge 
# Structural Database, then it will include bibliographic, chemical, 
# crystal, experimental, refinement or atomic coordinate data resulting 
# from the CCDC's data processing and validation procedures.
#
#######################################################################

data_ELUXAM
_chemical_formula_moiety         'C25 H32 O7'
_chemical_name_systematic        
"ethyl (12a-hydroxy-5,5,10a-trimethyl-2,9-dioxo-5,5a,6,7,7a,9,10,10a,11,12,12a,13-dodecahydro-2H-furo[3,2-b]indeno[4',5':5,6]cyclohepta[1,2-c]furan-10-yl)acetate"
_symmetry_cell_setting           monoclinic
_symmetry_space_group_name_H-M   'P 21/c'
_symmetry_Int_Tables_number      14
_space_group_name_Hall           '-P 2ybc'
loop_
_symmetry_equiv_pos_site_id
_symmetry_equiv_pos_as_xyz
1 x,y,z
2 -x,1/2+y,1/2-z
3 -x,-y,-z
4 x,1/2-y,1/2+z
_cell_length_a                   13.5469(6)
_cell_length_b                   7.8622(3)
_cell_length_c                   21.0935(11)
_cell_angle_alpha                90
_cell_angle_beta                 95.691(4)
_cell_angle_gamma                90
_cell_volume                     2235.56
_cell_formula_units_Z            4
loop_
_atom_site_label
_atom_site_type_symbol
_atom_site_fract_x
_atom_site_fract_y
_atom_site_fract_z
C1 C 0.8002(2) 0.5410(4) 0.61709(14)
C2 C 0.7921(2) 0.7033(4) 0.59910(16)
H1 H 0.8385 0.7675 0.5780
C3 C 0.6978(2) 0.7621(4) 0.61830(15)
C4 C 0.7072(2) 0.4735(4) 0.64026(14)
C5 C 0.6435(2) 0.3669(4) 0.59080(14)
H2 H 0.6760 0.2548 0.5877
H3 H 0.6442 0.4233 0.5489
C6 C 0.5339(2) 0.3355(4) 0.60242(13)
C7 C 0.4814(2) 0.2424(4) 0.54449(13)
H4 H 0.5136 0.1306 0.5398
H5 H 0.4891 0.3094 0.5055
C8 C 0.3703(2) 0.2150(4) 0.55065(14)
H6 H 0.3404 0.1513 0.5131
H7 H 0.3369 0.3269 0.5512
C9 C 0.3528(2) 0.1163(4) 0.61175(14)
C10 C 0.4131(2) 0.2092(4) 0.66611(14)
C11 C 0.5220(2) 0.2257(4) 0.66279(13)
H8 H 0.5475 0.1095 0.6542
C12 C 0.5782(2) 0.2869(4) 0.72526(14)
H9 H 0.5498 0.2317 0.7616
H10 H 0.5694 0.4113 0.7293
C13 C 0.6896(2) 0.2459(4) 0.72833(15)
H11 H 0.7152 0.2264 0.7733
H12 H 0.6982 0.1390 0.7047
C14 C 0.7511(2) 0.3847(4) 0.70099(14)
H13 H 0.7623 0.4746 0.7345
C15 C 0.8566(2) 0.3255(4) 0.68441(15)
C16 C 0.9367(2) 0.3738(5) 0.73663(18)
H14 H 0.9332 0.4962 0.7450
H15 H 1.0019 0.3459 0.7231
H16 H 0.9267 0.3107 0.7755
C17 C 0.8660(2) 0.1431(4) 0.66360(17)
H17 H 0.8596 0.0674 0.6999
H18 H 0.9309 0.1260 0.6478
H19 H 0.8135 0.1174 0.6296
C18 C 0.3834(3) -0.0698(4) 0.60482(16)
H20 H 0.3750 -0.1311 0.6444
H21 H 0.4530 -0.0751 0.5961
H22 H 0.3417 -0.1223 0.5695
C19 C 0.2453(2) 0.1269(5) 0.63182(16)
H23 H 0.2334 0.0152 0.6524
C20 C 0.2523(3) 0.2580(5) 0.68612(17)
C21 C 0.3570(2) 0.2848(4) 0.70665(15)
H24 H 0.3819 0.3469 0.7434
C22 C 0.1588(3) 0.1508(5) 0.5820(2)
H25 H 0.1016 0.1931 0.6032
H26 H 0.1763 0.2398 0.5519
C23 C 0.1278(3) -0.0034(5) 0.5454(2)
C24 C 0.0725(5) -0.2884(7) 0.5510(3)
H27 H 0.0273 -0.3487 0.5775
H28 H 0.0352 -0.2611 0.5095
C25 C 0.1506(6) -0.3891(9) 0.5418(4)
H29 H 0.1895 -0.4106 0.5827
H30 H 0.1925 -0.3325 0.5129
H31 H 0.1266 -0.4973 0.5231
O1 O 0.87612(15) 0.4339(3) 0.62726(11)
O2 O 0.65357(15) 0.6310(2) 0.64975(10)
O3 O 0.65865(17) 0.8992(3) 0.61425(11)
O4 O 0.48092(15) 0.4926(3) 0.60559(11)
H32 H 0.5193 0.5677 0.6222
O5 O 0.18126(19) 0.3222(4) 0.70802(15)
O6 O 0.1169(3) -0.0125(5) 0.48857(16)
O7 O 0.1072(3) -0.1342(4) 0.58224(15)
loop_
_geom_bond_atom_site_label_1
_geom_bond_atom_site_label_2
_geom_bond_site_symmetry_1
_geom_bond_site_symmetry_2
C1 C2 1_555 1_555
C2 H1 1_555 1_555
C3 C2 1_555 1_555
C4 C1 1_555 1_555
C5 C4 1_555 1_555
H2 C5 1_555 1_555
H3 C5 1_555 1_555
C6 C5 1_555 1_555
C7 C6 1_555 1_555
H4 C7 1_555 1_555
H5 C7 1_555 1_555
C8 C7 1_555 1_555
H6 C8 1_555 1_555
H7 C8 1_555 1_555
C9 C8 1_555 1_555
C10 C9 1_555 1_555
C11 C6 1_555 1_555
H8 C11 1_555 1_555
C12 C11 1_555 1_555
H9 C12 1_555 1_555
H10 C12 1_555 1_555
C13 C12 1_555 1_555
H11 C13 1_555 1_555
H12 C13 1_555 1_555
C14 C4 1_555 1_555
H13 C14 1_555 1_555
C15 C14 1_555 1_555
C16 C15 1_555 1_555
H14 C16 1_555 1_555
H15 C16 1_555 1_555
H16 C16 1_555 1_555
C17 C15 1_555 1_555
H17 C17 1_555 1_555
H18 C17 1_555 1_555
H19 C17 1_555 1_555
C18 C9 1_555 1_555
H20 C18 1_555 1_555
H21 C18 1_555 1_555
H22 C18 1_555 1_555
C19 C9 1_555 1_555
H23 C19 1_555 1_555
C20 C19 1_555 1_555
C21 C10 1_555 1_555
H24 C21 1_555 1_555
C22 C19 1_555 1_555
H25 C22 1_555 1_555
H26 C22 1_555 1_555
C23 C22 1_555 1_555
C24 H27 1_555 1_555
H28 C24 1_555 1_555
C25 C24 1_555 1_555
H29 C25 1_555 1_555
H30 C25 1_555 1_555
H31 C25 1_555 1_555
O1 C1 1_555 1_555
O2 C3 1_555 1_555
O3 C3 1_555 1_555
O4 C6 1_555 1_555
H32 O4 1_555 1_555
O5 C20 1_555 1_555
O6 C23 1_555 1_555
O7 C23 1_555 1_555
C4 O2 1_555 1_555
C10 C11 1_555 1_555
C13 C14 1_555 1_555
C15 O1 1_555 1_555
C20 C21 1_555 1_555
C24 O7 1_555 1_555

#END
