
#######################################################################
#
#                 Cambridge Crystallographic Data Centre
#                                CCDC 
#
#######################################################################
#
# If this CIF has been generated from an entry in the Cambridge 
# Structural Database, then it will include bibliographic, chemical, 
# crystal, experimental, refinement or atomic coordinate data resulting 
# from the CCDC's data processing and validation procedures.
#
#######################################################################

data_ELUZOC
_chemical_formula_moiety         'C24 H40 O5 Si2'
_chemical_name_systematic        
9,9-dimethyl-5a,6a-bis((trimethylsilyl)oxy)-3,3a,4,5,5a,6,6a,9,9a,10,11,11a-dodecahydroindeno[4',5':5,6]cyclohepta[1,2-c]furan-2,7-dione
_symmetry_cell_setting           monoclinic
_symmetry_space_group_name_H-M   'P 21/n'
_symmetry_Int_Tables_number      14
_space_group_name_Hall           '-P 2yn'
loop_
_symmetry_equiv_pos_site_id
_symmetry_equiv_pos_as_xyz
1 x,y,z
2 1/2-x,1/2+y,1/2-z
3 -x,-y,-z
4 1/2+x,1/2-y,1/2+z
_cell_length_a                   8.1045(16)
_cell_length_b                   34.690(7)
_cell_length_c                   9.884(2)
_cell_angle_alpha                90
_cell_angle_beta                 106.94(3)
_cell_angle_gamma                90
_cell_volume                     2658.27
_cell_formula_units_Z            4
loop_
_atom_site_label
_atom_site_type_symbol
_atom_site_fract_x
_atom_site_fract_y
_atom_site_fract_z
C1 C 0.5224(7) 0.09753(14) 0.0991(5)
C2 C 0.4695(5) 0.10801(11) 0.2325(4)
C3 C 0.5249(4) 0.14920(10) 0.2800(4)
H1 H 0.5059 0.1646 0.1949
H2 H 0.6486 0.1485 0.3243
C4 C 0.4465(5) 0.17174(11) 0.3803(4)
C5 C 0.5732(5) 0.20450(10) 0.4443(4)
H3 H 0.6806 0.1932 0.5008
H4 H 0.5977 0.2187 0.3677
C6 C 0.5107(5) 0.23267(11) 0.5355(4)
H5 H 0.5948 0.2531 0.5659
H6 H 0.5004 0.2195 0.6192
C7 C 0.3367(5) 0.25011(11) 0.4561(4)
H7 H 0.3508 0.2674 0.3817
C8 C 0.2402(5) 0.27135(11) 0.5474(4)
H8 H 0.3059 0.2703 0.6465
H9 H 0.2216 0.2981 0.5190
C9 C 0.0693(6) 0.25064(14) 0.5230(5)
C10 C 0.0704(5) 0.21865(12) 0.4293(4)
H10 H -0.0189 0.2009 0.3998
C11 C 0.2140(5) 0.21761(11) 0.3902(4)
C12 C 0.2695(5) 0.18999(10) 0.2974(4)
H11 H 0.2889 0.2049 0.2193
C13 C 0.1302(4) 0.16064(10) 0.2326(4)
H12 H 0.0239 0.1745 0.1900
H13 H 0.1121 0.1451 0.3087
C14 C 0.1606(5) 0.13339(11) 0.1220(4)
H14 H 0.2132 0.1478 0.0613
H15 H 0.0496 0.1242 0.0636
C15 C 0.2748(5) 0.09826(10) 0.1801(4)
H16 H 0.2405 0.0879 0.2602
C16 C 0.2634(6) 0.06512(13) 0.0717(4)
C17 C 0.2838(6) 0.02548(10) 0.1366(4)
H17 H 0.3066 0.0073 0.0711
H18 H 0.1797 0.0184 0.1579
H19 H 0.3782 0.0255 0.2220
C18 C 0.1097(5) 0.06617(12) -0.0620(4)
H20 H 0.1035 0.0910 -0.1058
H21 H 0.0052 0.0615 -0.0374
H22 H 0.1237 0.0467 -0.1266
C19 C 0.7804(8) 0.02892(16) 0.2459(5)
H23 H 0.6713 0.0197 0.1871
H24 H 0.8515 0.0074 0.2878
H25 H 0.8366 0.0435 0.1895
C20 C 0.7470(5) 0.02806(12) 0.5349(5)
H26 H 0.7463 0.0433 0.6158
H27 H 0.8489 0.0123 0.5575
H28 H 0.6467 0.0118 0.5092
C21 C 0.9183(6) 0.09460(13) 0.4483(6)
H29 H 0.9177 0.1123 0.3734
H30 H 1.0269 0.0813 0.4771
H31 H 0.9020 0.1086 0.5272
C22 C 0.4179(5) 0.08278(11) 0.6551(4)
H32 H 0.2955 0.0796 0.6355
H33 H 0.4750 0.0725 0.7470
H34 H 0.4564 0.0693 0.5850
C23 C 0.7022(5) 0.14331(13) 0.7444(4)
H35 H 0.7719 0.1278 0.7022
H36 H 0.7254 0.1365 0.8424
H37 H 0.7290 0.1700 0.7369
C24 C 0.3387(5) 0.16135(12) 0.7452(4)
H38 H 0.3739 0.1879 0.7552
H39 H 0.3553 0.1502 0.8371
H40 H 0.2191 0.1598 0.6922
O1 O 0.6486(4) 0.10971(9) 0.0711(3)
O2 O 0.4137(5) 0.07234(9) 0.0185(3)
O3 O -0.0408(4) 0.25969(10) 0.5771(4)
O4 O 0.5529(3) 0.08049(6) 0.3403(2)
O5 O 0.4162(3) 0.14645(7) 0.4837(2)
Si1 Si 0.74536(17) 0.05993(4) 0.38649(13)
Si2 Si 0.46963(16) 0.13479(3) 0.65101(12)
loop_
_geom_bond_atom_site_label_1
_geom_bond_atom_site_label_2
_geom_bond_site_symmetry_1
_geom_bond_site_symmetry_2
C1 C2 1_555 1_555
C2 C3 1_555 1_555
C3 H1 1_555 1_555
H2 C3 1_555 1_555
C4 C3 1_555 1_555
C5 C4 1_555 1_555
H3 C5 1_555 1_555
H4 C5 1_555 1_555
C6 C5 1_555 1_555
H5 C6 1_555 1_555
H6 C6 1_555 1_555
C7 C6 1_555 1_555
H7 C7 1_555 1_555
C8 C7 1_555 1_555
H8 C8 1_555 1_555
H9 C8 1_555 1_555
C9 C8 1_555 1_555
C10 C9 1_555 1_555
H10 C10 1_555 1_555
C11 C7 1_555 1_555
C12 C4 1_555 1_555
H11 C12 1_555 1_555
C13 C12 1_555 1_555
H12 C13 1_555 1_555
H13 C13 1_555 1_555
C14 C13 1_555 1_555
H14 C14 1_555 1_555
H15 C14 1_555 1_555
C15 C2 1_555 1_555
H16 C15 1_555 1_555
C16 C15 1_555 1_555
C17 C16 1_555 1_555
H17 C17 1_555 1_555
H18 C17 1_555 1_555
H19 C17 1_555 1_555
C18 C16 1_555 1_555
H20 C18 1_555 1_555
H21 C18 1_555 1_555
H22 C18 1_555 1_555
C19 H23 1_555 1_555
H24 C19 1_555 1_555
H25 C19 1_555 1_555
C20 H26 1_555 1_555
H27 C20 1_555 1_555
H28 C20 1_555 1_555
C21 H29 1_555 1_555
H30 C21 1_555 1_555
H31 C21 1_555 1_555
C22 H32 1_555 1_555
H33 C22 1_555 1_555
H34 C22 1_555 1_555
C23 H35 1_555 1_555
H36 C23 1_555 1_555
H37 C23 1_555 1_555
C24 H38 1_555 1_555
H39 C24 1_555 1_555
H40 C24 1_555 1_555
O1 C1 1_555 1_555
O2 C1 1_555 1_555
O3 C9 1_555 1_555
O4 C2 1_555 1_555
O5 C4 1_555 1_555
Si1 C19 1_555 1_555
Si2 C22 1_555 1_555
C10 C11 1_555 1_555
C11 C12 1_555 1_555
C14 C15 1_555 1_555
C16 O2 1_555 1_555
C20 Si1 1_555 1_555
C21 Si1 1_555 1_555
C23 Si2 1_555 1_555
C24 Si2 1_555 1_555
O4 Si1 1_555 1_555
O5 Si2 1_555 1_555

#END
