
#######################################################################
#
#                 Cambridge Crystallographic Data Centre
#                                CCDC 
#
#######################################################################
#
# If this CIF has been generated from an entry in the Cambridge 
# Structural Database, then it will include bibliographic, chemical, 
# crystal, experimental, refinement or atomic coordinate data resulting 
# from the CCDC's data processing and validation procedures.
#
#######################################################################

data_EMADAY
_chemical_name_common            
1,1'-(Naphthalene-1,4-diylbis(methylene))bis(3,5-dimethyl-1H-pyrazole)
_chemical_formula_moiety         'C22 H24 N4'
_chemical_name_systematic        
1,4-bis((3,5-Dimethyl-1H-pyrazol-1-yl)methyl)naphthalene
_symmetry_cell_setting           orthorhombic
_symmetry_space_group_name_H-M   'P b c a'
_symmetry_Int_Tables_number      61
_space_group_name_Hall           '-P 2ac 2ab'
loop_
_symmetry_equiv_pos_site_id
_symmetry_equiv_pos_as_xyz
1 x,y,z
2 1/2+x,1/2-y,-z
3 -x,1/2+y,1/2-z
4 1/2-x,-y,1/2+z
5 -x,-y,-z
6 1/2-x,1/2+y,z
7 x,1/2-y,1/2+z
8 1/2+x,y,1/2-z
_cell_length_a                   10.3591(4)
_cell_length_b                   12.9102(4)
_cell_length_c                   27.5492(8)
_cell_angle_alpha                90
_cell_angle_beta                 90
_cell_angle_gamma                90
_cell_volume                     3684.38
_exptl_crystal_colour            colorless
_exptl_crystal_description       needle
_cell_formula_units_Z            8
loop_
_atom_site_label
_atom_site_type_symbol
_atom_site_fract_x
_atom_site_fract_y
_atom_site_fract_z
N1 N 1.07233(13) 0.39090(10) 0.04649(4)
N2 N 1.03116(14) 0.30912(10) 0.01892(5)
N3 N 0.74432(13) 0.29170(10) 0.27023(4)
N4 N 0.83408(14) 0.32682(11) 0.30285(5)
C1 C 1.13767(17) 0.25384(13) 0.01042(6)
C2 C 1.24573(17) 0.30002(14) 0.03167(6)
H1 H 1.3322 0.2757 0.0304
C3 C 1.20186(17) 0.38781(13) 0.05482(6)
C4 C 1.1329(2) 0.15754(15) -0.01965(7)
H2 H 1.0445 0.1304 -0.0200
H3 H 1.1911 0.1055 -0.0058
H4 H 1.1599 0.1735 -0.0529
C5 C 1.2712(2) 0.46729(16) 0.08426(7)
H5 H 1.2354 0.5360 0.0773
H6 H 1.3632 0.4664 0.0760
H7 H 1.2605 0.4517 0.1188
C6 C 0.97788(17) 0.46755(13) 0.06145(6)
H8 H 0.9139 0.4760 0.0351
H9 H 1.0223 0.5348 0.0657
C7 C 0.87079(17) 0.24199(15) 0.32705(6)
C8 C 0.80589(18) 0.15435(14) 0.30982(6)
H10 H 0.8156 0.0852 0.3210
C9 C 0.72543(16) 0.18788(13) 0.27350(6)
C10 C 0.9705(2) 0.24904(17) 0.36647(6)
H11 H 0.9980 0.3212 0.3702
H12 H 1.0451 0.2061 0.3579
H13 H 0.9334 0.2244 0.3971
C11 C 0.63320(18) 0.13136(14) 0.24165(7)
H14 H 0.5462 0.1595 0.2462
H15 H 0.6336 0.0576 0.2501
H16 H 0.6591 0.1398 0.2077
C12 C 0.68363(16) 0.36480(12) 0.23751(5)
H17 H 0.6672 0.4300 0.2554
H18 H 0.5990 0.3365 0.2274
C13 C 0.90618(16) 0.44171(12) 0.10822(5)
C14 C 0.94919(16) 0.36852(12) 0.14031(6)
H19 H 1.0284 0.3339 0.1341
C15 C 0.87808(16) 0.34339(12) 0.18260(5)
H20 H 0.9115 0.2935 0.2046
C16 C 0.76218(15) 0.38965(11) 0.19224(5)
C17 C 0.71333(15) 0.46620(11) 0.15945(5)
C18 C 0.78753(15) 0.49429(11) 0.11771(5)
C19 C 0.59253(16) 0.51638(12) 0.16694(6)
H21 H 0.5409 0.4972 0.1940
C20 C 0.54928(17) 0.59149(13) 0.13606(6)
H22 H 0.4684 0.6238 0.1418
C21 C 0.62371(17) 0.62116(13) 0.09586(6)
H23 H 0.5939 0.6745 0.0749
C22 C 0.73878(17) 0.57355(12) 0.08682(5)
H24 H 0.7876 0.5938 0.0592
loop_
_geom_bond_atom_site_label_1
_geom_bond_atom_site_label_2
_geom_bond_site_symmetry_1
_geom_bond_site_symmetry_2
N1 N2 1_555 1_555
N2 C1 1_555 1_555
N3 N4 1_555 1_555
N4 C7 1_555 1_555
C1 C2 1_555 1_555
C2 H1 1_555 1_555
C3 N1 1_555 1_555
C4 C1 1_555 1_555
H2 C4 1_555 1_555
H3 C4 1_555 1_555
H4 C4 1_555 1_555
C5 C3 1_555 1_555
H5 C5 1_555 1_555
H6 C5 1_555 1_555
H7 C5 1_555 1_555
C6 N1 1_555 1_555
H8 C6 1_555 1_555
H9 C6 1_555 1_555
C7 C8 1_555 1_555
C8 H10 1_555 1_555
C9 N3 1_555 1_555
C10 C7 1_555 1_555
H11 C10 1_555 1_555
H12 C10 1_555 1_555
H13 C10 1_555 1_555
C11 C9 1_555 1_555
H14 C11 1_555 1_555
H15 C11 1_555 1_555
H16 C11 1_555 1_555
C12 N3 1_555 1_555
H17 C12 1_555 1_555
H18 C12 1_555 1_555
C13 C6 1_555 1_555
C14 C13 1_555 1_555
H19 C14 1_555 1_555
C15 C14 1_555 1_555
H20 C15 1_555 1_555
C16 C12 1_555 1_555
C17 C16 1_555 1_555
C18 C13 1_555 1_555
C19 C17 1_555 1_555
H21 C19 1_555 1_555
C20 C19 1_555 1_555
H22 C20 1_555 1_555
C21 C20 1_555 1_555
H23 C21 1_555 1_555
C22 C18 1_555 1_555
H24 C22 1_555 1_555
C2 C3 1_555 1_555
C8 C9 1_555 1_555
C15 C16 1_555 1_555
C17 C18 1_555 1_555
C21 C22 1_555 1_555

#END
