
#######################################################################
#
#                 Cambridge Crystallographic Data Centre
#                                CCDC 
#
#######################################################################
#
# If this CIF has been generated from an entry in the Cambridge 
# Structural Database, then it will include bibliographic, chemical, 
# crystal, experimental, refinement or atomic coordinate data resulting 
# from the CCDC's data processing and validation procedures.
#
#######################################################################

data_EMEFOT
_chemical_formula_moiety         'C17 H14 N2 O2'
_chemical_name_systematic        
3-benzylidene-4-methyl-3,4-dihydro-1H-1,4-benzodiazepine-2,5-dione
_symmetry_cell_setting           triclinic
_symmetry_space_group_name_H-M   'P -1'
_symmetry_Int_Tables_number      2
_space_group_name_Hall           '-P 1'
loop_
_symmetry_equiv_pos_site_id
_symmetry_equiv_pos_as_xyz
1 x,y,z
2 -x,-y,-z
_cell_length_a                   8.82410(10)
_cell_length_b                   13.0068(2)
_cell_length_c                   13.3323(2)
_cell_angle_alpha                78.5560(10)
_cell_angle_beta                 75.3640(10)
_cell_angle_gamma                86.0770(10)
_cell_volume                     1450.83
_cell_formula_units_Z            4
loop_
_atom_site_label
_atom_site_type_symbol
_atom_site_fract_x
_atom_site_fract_y
_atom_site_fract_z
C1 C 0.32809(19) 0.38429(12) 0.65063(13)
C2 C 0.48797(19) 0.40542(12) 0.65829(12)
C3 C 0.62308(19) 0.40474(12) 0.57654(13)
C4 C 0.7629(2) 0.43994(14) 0.58627(17)
H1 H 0.8518 0.4419 0.5308
C5 C 0.7714(3) 0.47173(17) 0.6766(2)
H2 H 0.8659 0.4946 0.6824
C6 C 0.6391(3) 0.46996(17) 0.75945(19)
H3 H 0.6452 0.4904 0.8213
C7 C 0.4997(3) 0.43795(14) 0.74981(14)
H4 H 0.4111 0.4379 0.8052
C8 C 0.1566(3) 0.2871(2) 0.5882(2)
H5 H 0.0876 0.3455 0.6030
H6 H 0.1140 0.2243 0.6351
H7 H 0.1671 0.2796 0.5165
C9 C 0.5576(2) 0.28739(14) 0.47001(14)
C10 C 0.43721(19) 0.23748(13) 0.56456(13)
C11 C 0.4455(2) 0.13561(14) 0.60249(14)
H8 H 0.5266 0.0993 0.5638
C12 C 0.3471(2) 0.07130(14) 0.69558(15)
C13 C 0.3415(2) -0.03533(15) 0.69911(17)
H9 H 0.3981 -0.0635 0.6416
C14 C 0.2555(3) -0.10024(17) 0.7846(2)
H10 H 0.2530 -0.1716 0.7846
C15 C 0.1738(3) -0.0611(2) 0.8692(2)
H11 H 0.1147 -0.1054 0.9274
C16 C 0.1781(4) 0.0446(2) 0.8691(2)
H12 H 0.1223 0.0717 0.9276
C17 C 0.2647(4) 0.11001(18) 0.7830(2)
H13 H 0.2678 0.1812 0.7837
N1 N 0.31069(16) 0.30551(11) 0.60327(12)
N2 N 0.62483(17) 0.37364(11) 0.48121(11)
H14 H 0.6735 0.4134 0.4242
O1 O 0.5948(2) 0.25350(13) 0.38854(12)
O2 O 0.21442(15) 0.43771(10) 0.68757(11)
C18 C 0.7593(2) 0.68106(16) 0.92717(16)
C19 C 0.9172(2) 0.66414(14) 0.95004(14)
C20 C 1.0487(2) 0.63045(12) 0.88090(13)
C21 C 1.1896(2) 0.61257(16) 0.91062(16)
H15 H 1.2770 0.5892 0.8648
C22 C 1.2012(3) 0.62909(19) 1.00689(19)
H16 H 1.2967 0.6183 1.0254
C23 C 1.0717(3) 0.66156(19) 1.07597(17)
H17 H 1.0793 0.6726 1.1413
C24 C 0.9309(3) 0.67777(17) 1.04821(15)
H18 H 0.8433 0.6982 1.0960
C25 C 0.5998(3) 0.7516(2) 0.8041(2)
H19 H 0.5418 0.6879 0.8262
H20 H 0.6150 0.7746 0.7293
H21 H 0.5427 0.8047 0.8400
C26 C 0.9935(2) 0.68267(15) 0.70726(14)
C27 C 0.8883(2) 0.76789(14) 0.74849(14)
C28 C 0.9189(3) 0.86733(16) 0.70397(18)
H22 H 1.0049 0.8766 0.6461
C29 C 0.8416(3) 0.96389(17) 0.7299(2)
C30 C 0.8654(4) 1.0549(2) 0.6530(3)
H23 H 0.9279 1.0515 0.5861
C31 C 0.8003(5) 1.1480(3) 0.6729(5)
H24 H 0.8167 1.2069 0.6192
C32 C 0.7126(5) 1.1569(3) 0.7685(5)
H25 H 0.6690 1.2217 0.7810
C33 C 0.6861(5) 1.0683(3) 0.8503(4)
H26 H 0.6263 1.0734 0.9174
C34 C 0.7525(4) 0.9721(2) 0.8275(3)
H27 H 0.7353 0.9125 0.8804
N3 N 0.75268(17) 0.73272(12) 0.82989(13)
N4 N 1.04490(17) 0.61220(12) 0.78049(12)
H28 H 1.0776 0.5520 0.7652
O3 O 1.02861(17) 0.67545(13) 0.61439(10)
O4 O 0.64106(18) 0.65272(17) 0.99506(14)
loop_
_geom_bond_atom_site_label_1
_geom_bond_atom_site_label_2
_geom_bond_site_symmetry_1
_geom_bond_site_symmetry_2
C1 C2 1_555 1_555
C2 C3 1_555 1_555
C3 C4 1_555 1_555
C4 H1 1_555 1_555
C5 C4 1_555 1_555
H2 C5 1_555 1_555
C6 C5 1_555 1_555
H3 C6 1_555 1_555
C7 C2 1_555 1_555
H4 C7 1_555 1_555
C8 H5 1_555 1_555
H6 C8 1_555 1_555
H7 C8 1_555 1_555
C9 C10 1_555 1_555
C10 C11 1_555 1_555
C11 H8 1_555 1_555
C12 C11 1_555 1_555
C13 C12 1_555 1_555
H9 C13 1_555 1_555
C14 C13 1_555 1_555
H10 C14 1_555 1_555
C15 C14 1_555 1_555
H11 C15 1_555 1_555
C16 C15 1_555 1_555
H12 C16 1_555 1_555
C17 C12 1_555 1_555
H13 C17 1_555 1_555
N1 C1 1_555 1_555
N2 C3 1_555 1_555
H14 N2 1_555 1_555
O1 C9 1_555 1_555
O2 C1 1_555 1_555
C18 C19 1_555 1_555
C19 C20 1_555 1_555
C20 C21 1_555 1_555
C21 H15 1_555 1_555
C22 C21 1_555 1_555
H16 C22 1_555 1_555
C23 C22 1_555 1_555
H17 C23 1_555 1_555
C24 C19 1_555 1_555
H18 C24 1_555 1_555
C25 H19 1_555 1_555
H20 C25 1_555 1_555
H21 C25 1_555 1_555
C26 C27 1_555 1_555
C27 C28 1_555 1_555
C28 H22 1_555 1_555
C29 C28 1_555 1_555
C30 C29 1_555 1_555
H23 C30 1_555 1_555
C31 C30 1_555 1_555
H24 C31 1_555 1_555
C32 C31 1_555 1_555
H25 C32 1_555 1_555
C33 C32 1_555 1_555
H26 C33 1_555 1_555
C34 C29 1_555 1_555
H27 C34 1_555 1_555
N3 C18 1_555 1_555
N4 C20 1_555 1_555
H28 N4 1_555 1_555
O3 C26 1_555 1_555
O4 C18 1_555 1_555
C6 C7 1_555 1_555
C8 N1 1_555 1_555
C9 N2 1_555 1_555
C10 N1 1_555 1_555
C16 C17 1_555 1_555
C23 C24 1_555 1_555
C25 N3 1_555 1_555
C26 N4 1_555 1_555
C27 N3 1_555 1_555
C33 C34 1_555 1_555

#END
