
#######################################################################
#
#                 Cambridge Crystallographic Data Centre
#                                CCDC 
#
#######################################################################
#
# If this CIF has been generated from an entry in the Cambridge 
# Structural Database, then it will include bibliographic, chemical, 
# crystal, experimental, refinement or atomic coordinate data resulting 
# from the CCDC's data processing and validation procedures.
#
#######################################################################

data_EMILUH
_chemical_formula_moiety         'C26 H18 N4 O6 S1'
_chemical_name_systematic        
4,4'-Sulfonylbis(N-(4-nitrophenylmethylene)benzenamine)
_symmetry_cell_setting           monoclinic
_symmetry_space_group_name_H-M   'C c'
_symmetry_Int_Tables_number      9
_space_group_name_Hall           'C -2yc'
loop_
_symmetry_equiv_pos_site_id
_symmetry_equiv_pos_as_xyz
1 x,y,z
2 x,-y,1/2+z
3 1/2+x,1/2+y,z
4 1/2+x,1/2-y,1/2+z
_cell_length_a                   36.706(3)
_cell_length_b                   4.9130(4)
_cell_length_c                   12.364(5)
_cell_angle_alpha                90
_cell_angle_beta                 98.808(4)
_cell_angle_gamma                90
_cell_volume                     2203.39
_exptl_crystal_colour            yellow
_exptl_crystal_description       lozenge
_chemical_melting_point          '504-506 K'
_cell_formula_units_Z            4
loop_
_atom_site_label
_atom_site_type_symbol
_atom_site_fract_x
_atom_site_fract_y
_atom_site_fract_z
S2 S 0.49615(6) 1.1094(5) 0.32496(19)
O7 O 0.51043(19) 1.2534(14) 0.2448(6)
O8 O 0.48065(15) 1.2442(11) 0.4150(5)
O9 O 0.74189(17) -0.7026(12) 0.7220(4)
O10 O 0.70790(14) -0.7076(13) 0.8510(5)
O11 O 0.2709(2) -0.7370(12) -0.1443(5)
O12 O 0.23801(17) -0.6636(15) -0.0178(6)
N5 N 0.6112(2) 0.3016(18) 0.5041(6)
N6 N 0.7165(4) -0.600(2) 0.7566(12)
N7 N 0.3844(3) 0.3253(19) 0.1035(7)
N8 N 0.26429(17) -0.6131(15) -0.0606(6)
C27 C 0.5306(2) 0.8849(17) 0.3881(6)
C28 C 0.5286(2) 0.7610(17) 0.4883(6)
H19 H 0.5100 0.8115 0.5298
C29 C 0.55425(19) 0.5632(14) 0.5266(5)
H20 H 0.5517 0.4657 0.5914
C30 C 0.5837(2) 0.5055(18) 0.4714(6)
C31 C 0.5841(2) 0.6295(17) 0.3696(7)
H21 H 0.6029 0.5802 0.3281
C32 C 0.5584(2) 0.8201(18) 0.3278(8)
H22 H 0.5596 0.9054 0.2595
C33 C 0.6139(3) 0.204(2) 0.5993(8)
H23 H 0.5978 0.2663 0.6474
C34 C 0.6421(2) -0.0075(17) 0.6372(7)
C35 C 0.6425(2) -0.1132(17) 0.7415(7)
H24 H 0.6253 -0.0579 0.7872
C36 C 0.6697(3) -0.305(2) 0.7750(10)
H25 H 0.6723 -0.3692 0.8482
C37 C 0.6935(4) -0.407(3) 0.7073(9)
C38 C 0.6924(3) -0.313(2) 0.6022(9)
H26 H 0.7085 -0.3774 0.5548
C39 C 0.6657(2) -0.1146(18) 0.5705(7)
H27 H 0.6635 -0.0478 0.4977
C40 C 0.4607(2) 0.8832(17) 0.2627(6)
C41 C 0.4331(2) 0.7988(18) 0.3184(7)
H28 H 0.4314 0.8691 0.3890
C42 C 0.4075(2) 0.6074(15) 0.2693(6)
H29 H 0.3889 0.5376 0.3074
C43 C 0.4099(2) 0.5224(18) 0.1636(6)
C44 C 0.43872(18) 0.6010(13) 0.1085(6)
H30 H 0.4407 0.5286 0.0384
C45 C 0.4641(2) 0.7859(17) 0.1582(6)
H31 H 0.4837 0.8466 0.1221
C46 C 0.3647(2) 0.190(2) 0.1491(8)
H32 H 0.3651 0.2164 0.2254
C47 C 0.3390(2) -0.0212(18) 0.0904(7)
C48 C 0.3131(2) -0.1458(16) 0.1459(7)
H33 H 0.3120 -0.0921 0.2191
C49 C 0.28862(16) -0.3449(14) 0.0989(5)
H34 H 0.2717 -0.4335 0.1381
C50 C 0.2909(3) -0.404(2) -0.0090(6)
C51 C 0.3154(2) -0.2804(15) -0.0688(6)
H35 H 0.3153 -0.3275 -0.1434
C52 C 0.3401(3) -0.0881(19) -0.0189(7)
H36 H 0.3574 -0.0038 -0.0582
S1? S 0.48835(5) 1.1073(4) 0.36781(17)
O1? O 0.50208(17) 1.2633(12) 0.2846(5)
O2? O 0.47342(18) 1.2564(13) 0.4571(5)
O3? O 0.7442(2) -0.6570(15) 0.6995(5)
O4? O 0.71713(18) -0.7175(16) 0.8458(6)
O5? O 0.2705(3) -0.6895(14) -0.1624(5)
O6? O 0.2450(2) -0.7028(19) -0.0127(8)
N1? N 0.5990(3) 0.3283(18) 0.5931(7)
N2? N 0.7188(4) -0.624(2) 0.7616(11)
N3? N 0.3747(2) 0.3041(19) 0.1892(7)
N4? N 0.2690(3) -0.623(2) -0.0780(7)
C1? C 0.5230(3) 0.889(2) 0.4347(7)
C2? C 0.5210(2) 0.7959(18) 0.5387(7)
H1? H 0.5012 0.8494 0.5752
C3? C 0.5481(2) 0.6235(17) 0.5895(7)
H2? H 0.5483 0.5769 0.6641
C4? C 0.5753(2) 0.5163(18) 0.5343(7)
C5? C 0.5785(2) 0.6291(17) 0.4314(6)
H3? H 0.5990 0.5823 0.3966
C6? C 0.5517(2) 0.8104(19) 0.3799(8)
H4? H 0.5531 0.8780 0.3087
C7? C 0.6211(3) 0.174(2) 0.5431(9)
H5? H 0.6201 0.1916 0.4662
C8? C 0.6465(3) -0.0207(19) 0.6012(8)
C9? C 0.6447(3) -0.083(2) 0.7099(9)
H6? H 0.6278 0.0187 0.7447
C10? C 0.6654(3) -0.279(2) 0.7722(12)
H7? H 0.6620 -0.3257 0.8445
C11? C 0.6912(5) -0.400(4) 0.7194(12)
C12? C 0.6930(5) -0.339(3) 0.6107(13)
H8? H 0.7113 -0.4314 0.5779
C13? C 0.6710(3) -0.156(2) 0.5457(10)
H9? H 0.6724 -0.1273 0.4705
C14? C 0.4528(2) 0.8849(18) 0.3096(6)
C15? C 0.4242(2) 0.8172(17) 0.3677(7)
H10? H 0.4225 0.9008 0.4360
C16? C 0.3984(2) 0.6258(16) 0.3234(6)
H11? H 0.3786 0.5779 0.3607
C17? C 0.4019(3) 0.5035(19) 0.2230(7)
C18? C 0.4285(2) 0.5890(16) 0.1599(6)
H12? H 0.4283 0.5249 0.0873
C19? C 0.4554(3) 0.772(2) 0.2081(7)
H13? H 0.4754 0.8195 0.1713
C20? C 0.3689(3) 0.211(2) 0.0922(8)
H14? H 0.3829 0.2887 0.0413
C21? C 0.3428(3) -0.0037(19) 0.0514(8)
C22? C 0.3182(2) -0.095(2) 0.1187(8)
H15? H 0.3183 -0.0206 0.1897
C23? C 0.2932(2) -0.3004(18) 0.0786(7)
H16? H 0.2761 -0.3684 0.1224
C24? C 0.2936(4) -0.404(3) -0.0268(9)
C25? C 0.3166(2) -0.3103(15) -0.0955(6)
H17? H 0.3164 -0.3830 -0.1668
C26? C 0.3404(3) -0.1018(19) -0.0546(8)
H18? H 0.3556 -0.0226 -0.1015
loop_
_geom_bond_atom_site_label_1
_geom_bond_atom_site_label_2
_geom_bond_site_symmetry_1
_geom_bond_site_symmetry_2
S2 O7 1_555 1_555
O8 S2 1_555 1_555
O9 N6 1_555 1_555
O10 N6 1_555 1_555
O11 N8 1_555 1_555
O12 N8 1_555 1_555
N5 C30 1_555 1_555
N6 C37 1_555 1_555
N7 C43 1_555 1_555
N8 C50 1_555 1_555
C27 S2 1_555 1_555
C28 C27 1_555 1_555
H19 C28 1_555 1_555
C29 C28 1_555 1_555
H20 C29 1_555 1_555
C30 C29 1_555 1_555
C31 C30 1_555 1_555
H21 C31 1_555 1_555
C32 C27 1_555 1_555
H22 C32 1_555 1_555
C33 N5 1_555 1_555
H23 C33 1_555 1_555
C34 C33 1_555 1_555
C35 C34 1_555 1_555
H24 C35 1_555 1_555
C36 C35 1_555 1_555
H25 C36 1_555 1_555
C37 C36 1_555 1_555
C38 C37 1_555 1_555
H26 C38 1_555 1_555
C39 C34 1_555 1_555
H27 C39 1_555 1_555
C40 S2 1_555 1_555
C41 C40 1_555 1_555
H28 C41 1_555 1_555
C42 C41 1_555 1_555
H29 C42 1_555 1_555
C43 C42 1_555 1_555
C44 C43 1_555 1_555
H30 C44 1_555 1_555
C45 C40 1_555 1_555
H31 C45 1_555 1_555
C46 N7 1_555 1_555
H32 C46 1_555 1_555
C47 C46 1_555 1_555
C48 C47 1_555 1_555
H33 C48 1_555 1_555
C49 C48 1_555 1_555
H34 C49 1_555 1_555
C50 C49 1_555 1_555
C51 C50 1_555 1_555
H35 C51 1_555 1_555
C52 C47 1_555 1_555
H36 C52 1_555 1_555
C31 C32 1_555 1_555
C38 C39 1_555 1_555
C44 C45 1_555 1_555
C51 C52 1_555 1_555

#END
