
#######################################################################
#
#                 Cambridge Crystallographic Data Centre
#                                CCDC 
#
#######################################################################
#
# If this CIF has been generated from an entry in the Cambridge 
# Structural Database, then it will include bibliographic, chemical, 
# crystal, experimental, refinement or atomic coordinate data resulting 
# from the CCDC's data processing and validation procedures.
#
#######################################################################

data_EMIPEW
_chemical_formula_moiety         'C13 H12 N4 O1'
_chemical_name_systematic        
N-Phenyl-2-(pyridin-2-ylmethylene)hydrazinecarboxamide
_symmetry_cell_setting           orthorhombic
_symmetry_space_group_name_H-M   'P 21 21 21'
_symmetry_Int_Tables_number      19
_space_group_name_Hall           'P 2ac 2ab'
loop_
_symmetry_equiv_pos_site_id
_symmetry_equiv_pos_as_xyz
1 x,y,z
2 1/2-x,-y,1/2+z
3 -x,1/2+y,1/2-z
4 1/2+x,1/2-y,-z
_cell_length_a                   5.1873(3)
_cell_length_b                   9.2450(5)
_cell_length_c                   25.3594(11)
_cell_angle_alpha                90
_cell_angle_beta                 90
_cell_angle_gamma                90
_cell_volume                     1216.15
_exptl_crystal_colour            colorless
_exptl_crystal_description       plate
_cell_formula_units_Z            4
loop_
_atom_site_label
_atom_site_type_symbol
_atom_site_fract_x
_atom_site_fract_y
_atom_site_fract_z
O1 O 0.4702(3) 0.0502(2) 0.10857(7)
N1 N 0.5723(5) 0.2579(3) 0.15391(8)
H1 H 0.699(5) 0.326(3) 0.1529(9)
N2 N 0.8007(4) 0.1898(3) 0.08109(9)
H2 H 0.829(5) 0.137(3) 0.0530(10)
N3 N 0.9425(4) 0.3138(2) 0.08734(7)
N4 N 1.4475(4) 0.4772(2) 0.01520(8)
C1 C 0.4077(5) 0.2554(3) 0.19816(9)
C2 C 0.1997(6) 0.1627(3) 0.20304(11)
H3 H 0.158(5) 0.098(3) 0.1748(8)
C3 C 0.0531(6) 0.1674(3) 0.24851(11)
H4 H -0.094(5) 0.102(3) 0.2519(9)
C4 C 0.1080(6) 0.2641(3) 0.28855(11)
H5 H -0.001(4) 0.263(3) 0.3223(9)
C5 C 0.3152(6) 0.3552(3) 0.28336(11)
H6 H 0.357(5) 0.427(3) 0.3112(9)
C6 C 0.4629(6) 0.3521(3) 0.23838(10)
H7 H 0.608(5) 0.415(3) 0.2343(9)
C7 C 0.6005(5) 0.1593(3) 0.11492(9)
C8 C 1.1210(5) 0.3333(3) 0.05345(10)
H8 H 1.150(4) 0.270(3) 0.0242(8)
C9 C 1.2837(5) 0.4622(3) 0.05609(10)
C10 C 1.2743(6) 0.5625(3) 0.09700(11)
H9 H 1.158(5) 0.546(3) 0.1264(9)
C11 C 1.4365(7) 0.6794(3) 0.09588(12)
H10 H 1.426(5) 0.756(3) 0.1232(10)
C12 C 1.6083(6) 0.6941(4) 0.05511(13)
H11 H 1.728(5) 0.770(3) 0.0503(10)
C13 C 1.6071(6) 0.5922(3) 0.01580(11)
H12 H 1.726(5) 0.599(3) -0.0152(9)
loop_
_geom_bond_atom_site_label_1
_geom_bond_atom_site_label_2
_geom_bond_site_symmetry_1
_geom_bond_site_symmetry_2
O1 C7 1_555 1_555
N1 H1 1_555 1_555
N2 H2 1_555 1_555
N3 N2 1_555 1_555
N4 C9 1_555 1_555
C1 N1 1_555 1_555
C2 C1 1_555 1_555
H3 C2 1_555 1_555
C3 C2 1_555 1_555
H4 C3 1_555 1_555
C4 C3 1_555 1_555
H5 C4 1_555 1_555
C5 C4 1_555 1_555
H6 C5 1_555 1_555
C6 C1 1_555 1_555
H7 C6 1_555 1_555
C7 N1 1_555 1_555
C8 N3 1_555 1_555
H8 C8 1_555 1_555
C9 C8 1_555 1_555
C10 C9 1_555 1_555
H9 C10 1_555 1_555
C11 C10 1_555 1_555
H10 C11 1_555 1_555
C12 C11 1_555 1_555
H11 C12 1_555 1_555
C13 N4 1_555 1_555
H12 C13 1_555 1_555
N2 C7 1_555 1_555
C5 C6 1_555 1_555
C12 C13 1_555 1_555

#END
