
#######################################################################
#
#                 Cambridge Crystallographic Data Centre
#                                CCDC 
#
#######################################################################
#
# If this CIF has been generated from an entry in the Cambridge 
# Structural Database, then it will include bibliographic, chemical, 
# crystal, experimental, refinement or atomic coordinate data resulting 
# from the CCDC's data processing and validation procedures.
#
#######################################################################

data_EMIQEX
_chemical_formula_moiety         'C13 H25 N1 O3 S1'
_chemical_name_systematic        N-Hydroxy-2-(methylsulfonyl)cyclododecanimine
_symmetry_cell_setting           monoclinic
_symmetry_space_group_name_H-M   'P 21/n'
_symmetry_Int_Tables_number      14
_space_group_name_Hall           '-P 2yn'
loop_
_symmetry_equiv_pos_site_id
_symmetry_equiv_pos_as_xyz
1 x,y,z
2 1/2-x,1/2+y,1/2-z
3 -x,-y,-z
4 1/2+x,1/2-y,1/2+z
_cell_length_a                   8.4306(17)
_cell_length_b                   12.443(3)
_cell_length_c                   13.819(3)
_cell_angle_alpha                90
_cell_angle_beta                 94.98(3)
_cell_angle_gamma                90
_cell_volume                     1444.17
_exptl_crystal_colour            colorless
_exptl_crystal_description       block
_cell_formula_units_Z            4
loop_
_atom_site_label
_atom_site_type_symbol
_atom_site_fract_x
_atom_site_fract_y
_atom_site_fract_z
S1 S 0.21804(5) 0.04242(4) 0.91643(3)
O1 O 0.15014(16) -0.00721(11) 0.82764(10)
O2 O 0.22931(17) -0.02222(11) 1.00356(10)
O3 O 0.13228(17) 0.34757(11) 0.73918(10)
H1 H 0.2194 0.3937 0.7374
N1 N 0.17139(19) 0.29317(13) 0.82742(11)
C1 C 0.1029(2) 0.16034(15) 0.93844(13)
H2 H -0.0017 0.1349 0.9589
C2 C 0.0676(2) 0.22221(15) 0.84387(13)
C3 C -0.0810(2) 0.19438(16) 0.78078(13)
H3 H -0.0866 0.1154 0.7724
H4 H -0.0749 0.2269 0.7158
C4 C -0.2334(2) 0.23345(16) 0.82292(14)
H5 H -0.3265 0.2021 0.7843
H6 H -0.2341 0.2062 0.8902
C5 C -0.2521(2) 0.35555(16) 0.82419(14)
H7 H -0.2644 0.3821 0.7564
H8 H -0.1538 0.3877 0.8563
C6 C -0.3952(2) 0.39366(18) 0.87696(15)
H9 H -0.4085 0.4720 0.8668
H10 H -0.4925 0.3581 0.8472
C7 C -0.3805(2) 0.37083(17) 0.98623(15)
H11 H -0.3589 0.2933 0.9965
H12 H -0.4838 0.3870 1.0122
C8 C -0.2497(2) 0.43542(16) 1.04398(15)
H13 H -0.1676 0.4550 1.0001
H14 H -0.2965 0.5030 1.0665
C9 C -0.1692(3) 0.37637(17) 1.13195(15)
H15 H -0.2522 0.3502 1.1726
H16 H -0.1015 0.4279 1.1714
C10 C -0.0666(2) 0.28116(16) 1.10564(14)
H17 H -0.0340 0.2398 1.1653
H18 H -0.1311 0.2331 1.0607
C11 C 0.0820(2) 0.31578(15) 1.05799(14)
H19 H 0.0487 0.3615 1.0012
H20 H 0.1486 0.3605 1.1048
C12 C 0.1842(2) 0.22419(16) 1.02428(14)
H21 H 0.2100 0.1745 1.0794
H22 H 0.2855 0.2542 1.0050
C13 C 0.4101(2) 0.08834(17) 0.89689(15)
H23 H 0.4727 0.0287 0.8737
H24 H 0.4624 0.1161 0.9579
H25 H 0.4022 0.1458 0.8482
loop_
_geom_bond_atom_site_label_1
_geom_bond_atom_site_label_2
_geom_bond_site_symmetry_1
_geom_bond_site_symmetry_2
S1 O1 1_555 1_555
O2 S1 1_555 1_555
O3 H1 1_555 1_555
N1 O3 1_555 1_555
C1 S1 1_555 1_555
H2 C1 1_555 1_555
C2 N1 1_555 1_555
C3 C2 1_555 1_555
H3 C3 1_555 1_555
H4 C3 1_555 1_555
C4 C3 1_555 1_555
H5 C4 1_555 1_555
H6 C4 1_555 1_555
C5 C4 1_555 1_555
H7 C5 1_555 1_555
H8 C5 1_555 1_555
C6 C5 1_555 1_555
H9 C6 1_555 1_555
H10 C6 1_555 1_555
C7 C6 1_555 1_555
H11 C7 1_555 1_555
H12 C7 1_555 1_555
C8 C7 1_555 1_555
H13 C8 1_555 1_555
H14 C8 1_555 1_555
C9 C8 1_555 1_555
H15 C9 1_555 1_555
H16 C9 1_555 1_555
C10 C9 1_555 1_555
H17 C10 1_555 1_555
H18 C10 1_555 1_555
C11 C10 1_555 1_555
H19 C11 1_555 1_555
H20 C11 1_555 1_555
C12 C1 1_555 1_555
H21 C12 1_555 1_555
H22 C12 1_555 1_555
C13 S1 1_555 1_555
H23 C13 1_555 1_555
H24 C13 1_555 1_555
H25 C13 1_555 1_555
C1 C2 1_555 1_555
C11 C12 1_555 1_555

#END
