
#######################################################################
#
#                 Cambridge Crystallographic Data Centre
#                                CCDC 
#
#######################################################################
#
# If this CIF has been generated from an entry in the Cambridge 
# Structural Database, then it will include bibliographic, chemical, 
# crystal, experimental, refinement or atomic coordinate data resulting 
# from the CCDC's data processing and validation procedures.
#
#######################################################################

data_EMISOK
_chemical_formula_moiety         'C34 H33 N3 O8'
_chemical_name_systematic        
"1'-benzyl 4',5'-diethyl 1,1''-dimethyl-2,2''-dioxo-1,1'',2,2''-tetrahydro-1'H-dispiro[indole-3,2'-pyrrolidine-3',3''-indole]-1',4',5'-tricarboxylate"
_symmetry_cell_setting           triclinic
_symmetry_space_group_name_H-M   'P -1'
_symmetry_Int_Tables_number      2
_space_group_name_Hall           '-P 1'
loop_
_symmetry_equiv_pos_site_id
_symmetry_equiv_pos_as_xyz
1 x,y,z
2 -x,-y,-z
_cell_length_a                   9.1206(7)
_cell_length_b                   12.5475(9)
_cell_length_c                   15.2318(11)
_cell_angle_alpha                103.4150(10)
_cell_angle_beta                 99.6250(10)
_cell_angle_gamma                110.1110(10)
_cell_volume                     1532.89
_exptl_crystal_colour            colorless
_exptl_crystal_description       block
_cell_formula_units_Z            2
loop_
_atom_site_label
_atom_site_type_symbol
_atom_site_fract_x
_atom_site_fract_y
_atom_site_fract_z
C1 C 0.7379(4) 1.1552(3) 0.4607(2)
H1 H 0.8326 1.1465 0.4465
H2 H 0.7287 1.1398 0.5189
H3 H 0.7468 1.2351 0.4661
C2 C 0.6031(3) 1.0279(2) 0.29702(16)
C3 C 0.4260(3) 0.95391(19) 0.23465(14)
C4 C 0.3303(3) 0.99132(19) 0.29878(15)
C5 C 0.4356(3) 1.0563(2) 0.38730(16)
C6 C 0.3816(4) 1.1000(3) 0.46120(18)
H4 H 0.4523 1.1415 0.5208
C7 C 0.2187(4) 1.0804(3) 0.4443(2)
H5 H 0.1794 1.1086 0.4933
C8 C 0.1149(4) 1.0198(3) 0.3561(2)
H6 H 0.0066 1.0091 0.3456
C9 C 0.1701(3) 0.9744(2) 0.28236(17)
H7 H 0.0995 0.9332 0.2227
C10 C 0.3888(3) 0.81543(19) 0.20204(14)
C11 C 0.2570(3) 0.76955(19) 0.10810(14)
H8 H 0.1536 0.7626 0.1221
C12 C 0.3067(3) 0.8684(2) 0.06279(15)
H9 H 0.3772 0.8554 0.0231
C13 C 0.3239(3) 0.74905(19) 0.27033(15)
C14 C 0.5577(3) 0.7253(2) 0.25582(15)
C15 C 0.5360(3) 0.78769(19) 0.19405(14)
C16 C 0.6404(3) 0.8118(2) 0.13873(16)
H10 H 0.6260 0.8520 0.0960
C17 C 0.7670(3) 0.7750(2) 0.14825(18)
H11 H 0.8383 0.7904 0.1113
C18 C 0.7891(3) 0.7157(3) 0.2117(2)
H12 H 0.8764 0.6932 0.2177
C19 C 0.6839(3) 0.6891(2) 0.26648(18)
H13 H 0.6979 0.6484 0.3089
C20 C 0.3987(4) 0.6212(3) 0.35424(19)
H14 H 0.3024 0.6167 0.3736
H15 H 0.4882 0.6473 0.4085
H16 H 0.3824 0.5438 0.3153
C21 C 0.1571(3) 0.8751(2) 0.00580(16)
C22 C 0.0176(4) 0.8588(3) -0.1455(2)
H17 H 0.0567 0.9324 -0.1611
H18 H -0.0665 0.8597 -0.1142
C23 C -0.0492(5) 0.7557(4) -0.2315(3)
H19 H 0.0325 0.7582 -0.2644
H20 H -0.1407 0.7586 -0.2709
H21 H -0.0828 0.6830 -0.2154
C24 C 0.2348(3) 0.6491(2) 0.04557(16)
C25 C 0.1970(5) 0.4513(3) 0.0426(2)
H22 H 0.1017 0.3910 0.0485
H23 H 0.1856 0.4420 -0.0235
C26 C 0.3393(6) 0.4344(4) 0.0814(3)
H24 H 0.4322 0.4888 0.0700
H25 H 0.3258 0.3538 0.0525
H26 H 0.3550 0.4494 0.1478
C27 C 0.4397(3) 1.0838(2) 0.13131(16)
C28 C 0.5843(5) 1.2888(3) 0.2003(2)
H27 H 0.4970 1.3068 0.1705
H28 H 0.6563 1.2891 0.1601
C29 C 0.6752(4) 1.3812(2) 0.29328(19)
C30 C 0.8292(4) 1.4632(3) 0.3035(2)
H29 H 0.8760 1.4561 0.2538
C31 C 0.9130(4) 1.5540(3) 0.3850(3)
H30 H 1.0152 1.6096 0.3900
C32 C 0.8488(5) 1.5637(3) 0.4587(2)
H31 H 0.9079 1.6248 0.5146
C33 C 0.6972(5) 1.4841(3) 0.4514(2)
H32 H 0.6530 1.4914 0.5021
C34 C 0.6096(4) 1.3923(3) 0.3680(2)
H33 H 0.5063 1.3382 0.3627
N1 N 0.5947(3) 1.07062(18) 0.38608(13)
N2 N 0.4335(2) 0.70577(17) 0.30171(13)
N3 N 0.3970(2) 0.97520(16) 0.14410(12)
O1 O 0.7264(2) 1.04387(16) 0.27309(13)
O2 O 0.1980(2) 0.73507(16) 0.29071(12)
O3 O 0.0580(2) 0.8957(2) 0.04022(13)
O4 O 0.1501(2) 0.85025(18) -0.08360(11)
O5 O 0.2378(3) 0.62860(18) -0.03381(14)
O6 O 0.2085(3) 0.56961(15) 0.09100(12)
O7 O 0.4090(2) 1.09750(16) 0.05571(11)
O8 O 0.5187(2) 1.17294(14) 0.21241(11)
loop_
_geom_bond_atom_site_label_1
_geom_bond_atom_site_label_2
_geom_bond_site_symmetry_1
_geom_bond_site_symmetry_2
C1 H1 1_555 1_555
H2 C1 1_555 1_555
H3 C1 1_555 1_555
C2 C3 1_555 1_555
C3 C4 1_555 1_555
C4 C5 1_555 1_555
C5 C6 1_555 1_555
C6 H4 1_555 1_555
C7 C6 1_555 1_555
H5 C7 1_555 1_555
C8 C7 1_555 1_555
H6 C8 1_555 1_555
C9 C4 1_555 1_555
H7 C9 1_555 1_555
C10 C3 1_555 1_555
C11 C10 1_555 1_555
H8 C11 1_555 1_555
C12 C11 1_555 1_555
H9 C12 1_555 1_555
C13 C10 1_555 1_555
C14 C15 1_555 1_555
C15 C10 1_555 1_555
C16 C15 1_555 1_555
H10 C16 1_555 1_555
C17 C16 1_555 1_555
H11 C17 1_555 1_555
C18 C17 1_555 1_555
H12 C18 1_555 1_555
C19 C14 1_555 1_555
H13 C19 1_555 1_555
C20 H14 1_555 1_555
H15 C20 1_555 1_555
H16 C20 1_555 1_555
C21 C12 1_555 1_555
C22 H17 1_555 1_555
H18 C22 1_555 1_555
C23 C22 1_555 1_555
H19 C23 1_555 1_555
H20 C23 1_555 1_555
H21 C23 1_555 1_555
C24 C11 1_555 1_555
C25 H22 1_555 1_555
H23 C25 1_555 1_555
C26 C25 1_555 1_555
H24 C26 1_555 1_555
H25 C26 1_555 1_555
H26 C26 1_555 1_555
C27 N3 1_555 1_555
C28 H27 1_555 1_555
H28 C28 1_555 1_555
C29 C28 1_555 1_555
C30 C29 1_555 1_555
H29 C30 1_555 1_555
C31 C30 1_555 1_555
H30 C31 1_555 1_555
C32 C31 1_555 1_555
H31 C32 1_555 1_555
C33 C32 1_555 1_555
H32 C33 1_555 1_555
C34 C29 1_555 1_555
H33 C34 1_555 1_555
N1 C1 1_555 1_555
N2 C13 1_555 1_555
N3 C3 1_555 1_555
O1 C2 1_555 1_555
O2 C13 1_555 1_555
O3 C21 1_555 1_555
O4 C21 1_555 1_555
O5 C24 1_555 1_555
O6 C24 1_555 1_555
O7 C27 1_555 1_555
O8 C27 1_555 1_555
C2 N1 1_555 1_555
C5 N1 1_555 1_555
C8 C9 1_555 1_555
C12 N3 1_555 1_555
C14 N2 1_555 1_555
C18 C19 1_555 1_555
C20 N2 1_555 1_555
C22 O4 1_555 1_555
C25 O6 1_555 1_555
C28 O8 1_555 1_555
C33 C34 1_555 1_555

#END
