
#######################################################################
#
#                 Cambridge Crystallographic Data Centre
#                                CCDC 
#
#######################################################################
#
# If this CIF has been generated from an entry in the Cambridge 
# Structural Database, then it will include bibliographic, chemical, 
# crystal, experimental, refinement or atomic coordinate data resulting 
# from the CCDC's data processing and validation procedures.
#
#######################################################################

data_EMOPIF
_chemical_formula_moiety         'C56 H30 Cl2'
_chemical_name_systematic        
7,7''-Dichloro-2,2''-diphenyl-dispiro(cyclobuta(a)indene-1,5'-benzo(a)indeno(2,1-c)fluorene-10',1''-cyclobuta(a)indene)
_symmetry_cell_setting           monoclinic
_symmetry_space_group_name_H-M   'P 21/c'
_symmetry_Int_Tables_number      14
_space_group_name_Hall           '-P 2ybc'
loop_
_symmetry_equiv_pos_site_id
_symmetry_equiv_pos_as_xyz
1 x,y,z
2 -x,1/2+y,1/2-z
3 -x,-y,-z
4 x,1/2-y,1/2+z
_cell_length_a                   14.734(2)
_cell_length_b                   15.253(2)
_cell_length_c                   18.237(2)
_cell_angle_alpha                90
_cell_angle_beta                 105.462(3)
_cell_angle_gamma                90
_cell_volume                     3950.2
_cell_formula_units_Z            4
loop_
_atom_site_label
_atom_site_type_symbol
_atom_site_fract_x
_atom_site_fract_y
_atom_site_fract_z
Cl1 Cl 1.1160(1) 0.5358(1) 1.0235(1)
Cl2 Cl 0.7370(1) -0.0200(1) 0.7725(1)
C1 C 0.8770(5) 0.3446(4) 0.8212(3)
C2 C 0.8888(4) 0.4125(4) 0.7665(3)
C3 C 0.8270(4) 0.4480(4) 0.7018(3)
C4 C 0.8599(5) 0.5100(4) 0.6590(3)
C5 C 0.9514(5) 0.5369(4) 0.6805(3)
C6 C 1.0168(4) 0.4979(4) 0.7418(3)
C7 C 0.9824(5) 0.4350(4) 0.7831(3)
C8 C 1.0406(4) 0.3765(4) 0.8446(3)
C9 C 1.1207(4) 0.4179(4) 0.9082(3)
C10 C 1.1619(5) 0.4641(4) 0.9701(3)
C11 C 1.2644(5) 0.4462(4) 0.9877(4)
C12 C 1.3371(6) 0.4754(5) 1.0486(4)
C13 C 1.42606 0.44836 1.05235
C14 C 1.4469(6) 0.3951(5) 0.9983(5)
C15 C 1.3745(6) 0.3642(4) 0.9356(4)
C16 C 1.2835(5) 0.3901(4) 0.9314(3)
C17 C 1.1902(5) 0.3709(4) 0.8821(3)
C18 C 1.1269(5) 0.3292(4) 0.8248(3)
C19 C 0.9657(4) 0.3203(4) 0.8651(3)
C20 C 0.9795(4) 0.2523(4) 0.9197(3)
C21 C 1.0691(4) 0.2257(4) 0.9654(3)
C22 C 1.0775(5) 0.1577(4) 1.0155(3)
C23 C 0.9988(5) 0.1123(4) 1.0241(4)
C24 C 0.9111(5) 0.1358(4) 0.9820(3)
C25 C 0.8986(4) 0.2057(4) 0.9287(3)
C26 C 0.8088(4) 0.2354(4) 0.8859(3)
C27 C 0.7135(4) 0.1977(4) 0.8869(3)
C28 C 0.6934(4) 0.0985(4) 0.8757(3)
C29 C 0.7005(4) 0.0165(5) 0.8488(3)
C30 C 0.6712(4) -0.0454(4) 0.8999(4)
C31 C 0.6667(4) -0.1360(5) 0.8977(4)
C32 C 0.6396(5) -0.1788(5) 0.9559(5)
C33 C 0.6174(5) -0.1323(6) 1.0136(4)
C34 C 0.6199(5) -0.0427(5) 1.0171(4)
C35 C 0.6468(4) 0.0009(4) 0.9591(4)
C36 C 0.6644(4) 0.0922(5) 0.9448(3)
C37 C 0.6863(4) 0.1769(4) 0.9637(3)
C38 C 0.6460(5) 0.2614(4) 0.8372(3)
C39 C 0.5487(5) 0.2650(5) 0.8233(3)
C40 C 0.5019(5) 0.3358(6) 0.7835(4)
C41 C 0.5499(6) 0.4037(5) 0.7608(4)
C42 C 0.6478(5) 0.3995(4) 0.7744(3)
C43 C 0.6966(5) 0.3272(4) 0.8112(3)
C44 C 0.7966(4) 0.3053(4) 0.8365(3)
C45 C 1.1291(6) 0.2673(5) 0.7653(4)
C46 C 1.0480(7) 0.2429(5) 0.7116(4)
C47 C 1.0520(10) 0.1834(7) 0.6551(5)
C48 C 1.1378(13) 0.1496(7) 0.6534(7)
C49 C 1.2196(10) 0.1745(7) 0.7065(7)
C50 C 1.2157(7) 0.2328(5) 0.7632(5)
C51 C 0.6840(4) 0.2308(4) 1.0283(3)
C52 C 0.6247(4) 0.2083(4) 1.0733(3)
C53 C 0.6201(5) 0.2560(5) 1.1344(4)
C54 C 0.6749(7) 0.3291(5) 1.1537(4)
C55 C 0.7331(6) 0.3539(5) 1.1103(4)
C56 C 0.7369(5) 0.3048(5) 1.0466(4)
H1 H 0.7642 0.4306 0.6874
H2 H 0.8191 0.5333 0.6154
H3 H 0.9707 0.5820 0.6539
H4 H 1.0802 0.5131 0.7544
H5 H 1.3251 0.5123 1.0855
H6 H 1.4749 0.4666 1.0932
H7 H 1.5091 0.3791 1.0028
H8 H 1.3879 0.3280 0.8989
H9 H 1.1228 0.2549 0.9611
H10 H 1.1370 0.1413 1.0445
H11 H 1.0062 0.0662 1.0585
H12 H 0.8588 0.1056 0.9882
H13 H 0.6814 -0.1673 0.8587
H14 H 0.6364 -0.2397 0.9559
H15 H 0.6000 -0.1631 1.0517
H16 H 0.6044 -0.0123 1.0563
H17 H 0.5159 0.2207 0.8404
H18 H 0.4365 0.3378 0.7718
H19 H 0.5171 0.4523 0.7364
H20 H 0.6802 0.4451 0.7589
H21 H 0.9903 0.2665 0.7133
H22 H 0.9974 0.1665 0.6189
H23 H 1.1409 0.1094 0.6158
H24 H 1.2773 0.1519 0.7039
H25 H 1.2703 0.2489 0.7997
H26 H 0.5870 0.1587 1.0608
H27 H 0.5797 0.2393 1.1634
H28 H 0.6727 0.3619 1.1962
H29 H 0.7704 0.4036 1.1233
H30 H 0.7755 0.3228 1.0166
loop_
_geom_bond_atom_site_label_1
_geom_bond_atom_site_label_2
_geom_bond_site_symmetry_1
_geom_bond_site_symmetry_2
Cl1 C10 1_555 1_555
Cl2 C29 1_555 1_555
C1 C2 1_555 1_555
C2 C3 1_555 1_555
C3 C4 1_555 1_555
C4 C5 1_555 1_555
C5 C6 1_555 1_555
C6 C7 1_555 1_555
C7 C2 1_555 1_555
C8 C7 1_555 1_555
C9 C8 1_555 1_555
C10 C9 1_555 1_555
C11 C10 1_555 1_555
C12 C11 1_555 1_555
C13 C12 1_555 1_555
C14 C13 1_555 1_555
C15 C14 1_555 1_555
C16 C11 1_555 1_555
C17 C9 1_555 1_555
C18 C8 1_555 1_555
C19 C1 1_555 1_555
C20 C19 1_555 1_555
C21 C20 1_555 1_555
C22 C21 1_555 1_555
C23 C22 1_555 1_555
C24 C23 1_555 1_555
C25 C20 1_555 1_555
C26 C25 1_555 1_555
C27 C26 1_555 1_555
C28 C27 1_555 1_555
C29 C28 1_555 1_555
C30 C29 1_555 1_555
C31 C30 1_555 1_555
C32 C31 1_555 1_555
C33 C32 1_555 1_555
C34 C33 1_555 1_555
C35 C30 1_555 1_555
C36 C28 1_555 1_555
C37 C27 1_555 1_555
C38 C27 1_555 1_555
C39 C38 1_555 1_555
C40 C39 1_555 1_555
C41 C40 1_555 1_555
C42 C41 1_555 1_555
C43 C38 1_555 1_555
C44 C1 1_555 1_555
C45 C18 1_555 1_555
C46 C45 1_555 1_555
C47 C46 1_555 1_555
C48 C47 1_555 1_555
C49 C48 1_555 1_555
C50 C45 1_555 1_555
C51 C37 1_555 1_555
C52 C51 1_555 1_555
C53 C52 1_555 1_555
C54 C53 1_555 1_555
C55 C54 1_555 1_555
C56 C51 1_555 1_555
H1 C3 1_555 1_555
H2 C4 1_555 1_555
H3 C5 1_555 1_555
H4 C6 1_555 1_555
H5 C12 1_555 1_555
H6 C13 1_555 1_555
H7 C14 1_555 1_555
H8 C15 1_555 1_555
H9 C21 1_555 1_555
H10 C22 1_555 1_555
H11 C23 1_555 1_555
H12 C24 1_555 1_555
H13 C31 1_555 1_555
H14 C32 1_555 1_555
H15 C33 1_555 1_555
H16 C34 1_555 1_555
H17 C39 1_555 1_555
H18 C40 1_555 1_555
H19 C41 1_555 1_555
H20 C42 1_555 1_555
H21 C46 1_555 1_555
H22 C47 1_555 1_555
H23 C48 1_555 1_555
H24 C49 1_555 1_555
H25 C50 1_555 1_555
H26 C52 1_555 1_555
H27 C53 1_555 1_555
H28 C54 1_555 1_555
H29 C55 1_555 1_555
H30 C56 1_555 1_555
C8 C19 1_555 1_555
C15 C16 1_555 1_555
C16 C17 1_555 1_555
C17 C18 1_555 1_555
C24 C25 1_555 1_555
C26 C44 1_555 1_555
C34 C35 1_555 1_555
C35 C36 1_555 1_555
C36 C37 1_555 1_555
C42 C43 1_555 1_555
C43 C44 1_555 1_555
C49 C50 1_555 1_555
C55 C56 1_555 1_555

#END
