
#######################################################################
#
#                 Cambridge Crystallographic Data Centre
#                                CCDC 
#
#######################################################################
#
# If this CIF has been generated from an entry in the Cambridge 
# Structural Database, then it will include bibliographic, chemical, 
# crystal, experimental, refinement or atomic coordinate data resulting 
# from the CCDC's data processing and validation procedures.
#
#######################################################################

data_EMUYER
_chemical_name_common            
'4-(2, 3-O-isopropylidene-alpha-D-ribofuransoyl)amino-5-cyano-6-chloropyrimidine'
_chemical_formula_moiety         'C13 H15 Cl1 N4 O4'
_chemical_name_systematic        
4-Chloro-6-((6-(hydroxymethyl)-2,2-dimethyltetrahydrofuro[3,4-d][1,3]dioxol-4-yl)amino)pyrimidine-5-carbonitrile
_symmetry_cell_setting           monoclinic
_symmetry_space_group_name_H-M   'P 21'
_symmetry_Int_Tables_number      4
_space_group_name_Hall           'P 2yb'
loop_
_symmetry_equiv_pos_site_id
_symmetry_equiv_pos_as_xyz
1 x,y,z
2 -x,1/2+y,-z
_cell_length_a                   10.019(2)
_cell_length_b                   6.5258(13)
_cell_length_c                   22.940(5)
_cell_angle_alpha                90
_cell_angle_beta                 101.39(3)
_cell_angle_gamma                90
_cell_volume                     1470.32
_exptl_crystal_colour            colorless
_exptl_crystal_description       block
_cell_formula_units_Z            4
loop_
_atom_site_label
_atom_site_type_symbol
_atom_site_fract_x
_atom_site_fract_y
_atom_site_fract_z
Cl1 Cl 0.04097(5) 0.38940(8) 0.85671(2)
O1 O 0.42475(13) 0.2974(2) 0.61467(6)
O2 O 0.39197(15) 0.7216(3) 0.64685(7)
H1 H 0.4297 0.8089 0.6716
O3 O 0.29448(14) 0.3492(3) 0.48519(6)
O4 O 0.12536(17) 0.2306(3) 0.52897(6)
N1 N 0.02240(15) 0.0946(3) 0.77929(7)
N2 N 0.13138(16) 0.0919(3) 0.69506(7)
N3 N 0.28315(19) 0.7169(3) 0.79576(8)
N4 N 0.27313(17) 0.3568(3) 0.67881(7)
H2 H 0.302(3) 0.476(4) 0.6856(11)
C1 C 0.08088(18) 0.2729(3) 0.79511(8)
C2 C 0.05265(19) 0.0124(3) 0.72925(8)
H3 H 0.0129 -0.1169 0.7174
C3 C 0.19183(18) 0.2730(3) 0.71214(8)
C4 C 0.16953(17) 0.3696(3) 0.76497(7)
C5 C 0.23128(18) 0.5624(3) 0.78303(7)
C6 C 0.28847(19) 0.2700(3) 0.62182(8)
H4 H 0.2668 0.1203 0.6211
C7 C 0.19668(19) 0.3758(4) 0.56910(8)
H5 H 0.1335 0.4761 0.5825
C8 C 0.29530(19) 0.4818(4) 0.53533(8)
H6 H 0.2680 0.6256 0.5235
C9 C 0.43452(19) 0.4680(4) 0.57605(8)
H7 H 0.5021 0.4311 0.5510
C10 C 0.4846(2) 0.6591(4) 0.61017(10)
H8 H 0.5752 0.6330 0.6353
H9 H 0.4942 0.7704 0.5820
C11 C 0.1680(2) 0.2427(4) 0.47343(8)
C12 C 0.0622(2) 0.3545(4) 0.42876(9)
H10 H 0.0546 0.4961 0.4419
H11 H -0.0260 0.2856 0.4254
H12 H 0.0892 0.3543 0.3900
C13 C 0.1950(2) 0.0282(4) 0.45390(12)
H13 H 0.2227 0.0338 0.4153
H14 H 0.1120 -0.0541 0.4504
H15 H 0.2679 -0.0342 0.4834
Cl2 Cl 0.70982(5) 0.07666(8) 0.65303(2)
O5 O 0.61811(13) 0.8195(2) 0.88568(6)
O6 O 0.87394(14) 0.8434(2) 0.84751(6)
H16 H 0.9178 0.9099 0.8262
O7 O 0.81017(14) 0.6597(2) 1.01665(6)
O8 O 0.61243(13) 0.4982(2) 0.97569(5)
N5 N 0.54791(16) 0.0285(3) 0.72812(7)
N6 N 0.52983(16) 0.2618(3) 0.80696(7)
N7 N 0.86304(16) 0.5725(3) 0.71083(7)
N8 N 0.65791(16) 0.5570(3) 0.82222(7)
H17 H 0.719(2) 0.635(3) 0.8156(9)
C14 C 0.64027(19) 0.1509(3) 0.71252(8)
C15 C 0.49843(18) 0.0926(3) 0.77538(8)
H18 H 0.4329 0.0058 0.7876
C16 C 0.62386(17) 0.3860(3) 0.79078(7)
C17 C 0.68403(19) 0.3328(3) 0.74168(8)
C18 C 0.78356(19) 0.4624(3) 0.72376(8)
C19 C 0.60449(19) 0.6078(3) 0.87541(8)
H19 H 0.5068 0.5659 0.8702
C20 C 0.68886(19) 0.5050(3) 0.92983(8)
H20 H 0.7253 0.3682 0.9210
C21 C 0.80059(19) 0.6603(3) 0.95388(8)
H21 H 0.8892 0.6224 0.9429
C22 C 0.74582(18) 0.8640(3) 0.92543(8)
H22 H 0.7270 0.9566 0.9576
C23 C 0.8402(2) 0.9744(3) 0.89204(9)
H23 H 0.7952 1.0998 0.8733
H24 H 0.9242 1.0157 0.9201
C24 C 0.70686(19) 0.5239(3) 1.03101(8)
C25 C 0.6326(2) 0.6277(4) 1.07382(9)
H25 H 0.5955 0.7586 1.0570
H26 H 0.6959 0.6524 1.1115
H27 H 0.5581 0.5396 1.0808
C26 C 0.7709(3) 0.3225(4) 1.05316(10)
H28 H 0.7000 0.2270 1.0599
H29 H 0.8360 0.3444 1.0906
H30 H 0.8186 0.2650 1.0235
loop_
_geom_bond_atom_site_label_1
_geom_bond_atom_site_label_2
_geom_bond_site_symmetry_1
_geom_bond_site_symmetry_2
Cl1 C1 1_555 1_555
O1 C6 1_555 1_555
O2 H1 1_555 1_555
O3 C8 1_555 1_555
O4 C7 1_555 1_555
N1 C1 1_555 1_555
N2 C2 1_555 1_555
N3 C5 1_555 1_555
N4 H2 1_555 1_555
C1 C4 1_555 1_555
C2 N1 1_555 1_555
H3 C2 1_555 1_555
C3 N2 1_555 1_555
C4 C3 1_555 1_555
C5 C4 1_555 1_555
C6 N4 1_555 1_555
H4 C6 1_555 1_555
C7 C6 1_555 1_555
H5 C7 1_555 1_555
C8 C7 1_555 1_555
H6 C8 1_555 1_555
C9 O1 1_555 1_555
H7 C9 1_555 1_555
C10 O2 1_555 1_555
H8 C10 1_555 1_555
H9 C10 1_555 1_555
C11 O3 1_555 1_555
C12 C11 1_555 1_555
H10 C12 1_555 1_555
H11 C12 1_555 1_555
H12 C12 1_555 1_555
C13 C11 1_555 1_555
H13 C13 1_555 1_555
H14 C13 1_555 1_555
H15 C13 1_555 1_555
Cl2 C14 1_555 1_555
O5 C19 1_555 1_555
O6 H16 1_555 1_555
O7 C21 1_555 1_555
O8 C20 1_555 1_555
N5 C14 1_555 1_555
N6 C15 1_555 1_555
N7 C18 1_555 1_555
N8 H17 1_555 1_555
C14 C17 1_555 1_555
C15 N5 1_555 1_555
H18 C15 1_555 1_555
C16 N6 1_555 1_555
C17 C16 1_555 1_555
C18 C17 1_555 1_555
C19 N8 1_555 1_555
H19 C19 1_555 1_555
C20 C19 1_555 1_555
H20 C20 1_555 1_555
C21 C20 1_555 1_555
H21 C21 1_555 1_555
C22 O5 1_555 1_555
H22 C22 1_555 1_555
C23 O6 1_555 1_555
H23 C23 1_555 1_555
H24 C23 1_555 1_555
C24 O7 1_555 1_555
C25 C24 1_555 1_555
H25 C25 1_555 1_555
H26 C25 1_555 1_555
H27 C25 1_555 1_555
C26 C24 1_555 1_555
H28 C26 1_555 1_555
H29 C26 1_555 1_555
H30 C26 1_555 1_555
O4 C11 1_555 1_555
N4 C3 1_555 1_555
C8 C9 1_555 1_555
C9 C10 1_555 1_555
O8 C24 1_555 1_555
N8 C16 1_555 1_555
C21 C22 1_555 1_555
C22 C23 1_555 1_555

#END
