
#######################################################################
#
#                 Cambridge Crystallographic Data Centre
#                                CCDC 
#
#######################################################################
#
# If this CIF has been generated from an entry in the Cambridge 
# Structural Database, then it will include bibliographic, chemical, 
# crystal, experimental, refinement or atomic coordinate data resulting 
# from the CCDC's data processing and validation procedures.
#
#######################################################################

data_ENALUA
_chemical_formula_moiety         'C14 H15 N1 O1'
_chemical_name_systematic        4-(2-(4-Aminophenyl)ethyl)phenol
_symmetry_cell_setting           monoclinic
_symmetry_space_group_name_H-M   'P c'
_symmetry_Int_Tables_number      7
_space_group_name_Hall           'P -2yc'
loop_
_symmetry_equiv_pos_site_id
_symmetry_equiv_pos_as_xyz
1 x,y,z
2 x,-y,1/2+z
_cell_length_a                   13.682(3)
_cell_length_b                   5.2619(11)
_cell_length_c                   8.1916(16)
_cell_angle_alpha                90
_cell_angle_beta                 107.28(3)
_cell_angle_gamma                90
_cell_volume                     563.122
_exptl_crystal_colour            colorless
_exptl_crystal_description       plate
_chemical_melting_point          '222.46 deg.C'
_cell_formula_units_Z            2
loop_
_atom_site_label
_atom_site_type_symbol
_atom_site_fract_x
_atom_site_fract_y
_atom_site_fract_z
O1 O 0.82040(9) 0.1649(2) 1.43425(16)
H1 H 0.841(2) 0.032(5) 1.409(4)
C1 C 0.71799(12) 0.2022(3) 1.3471(2)
C2 C 0.66862(13) 0.4128(3) 1.3910(2)
H2 H 0.7083(18) 0.535(4) 1.480(3)
C3 C 0.56534(13) 0.4556(3) 1.3057(2)
H3 H 0.5317(19) 0.604(4) 1.332(3)
C4 C 0.50961(12) 0.2910(3) 1.1762(2)
C5 C 0.56103(13) 0.0825(3) 1.1345(2)
H4 H 0.520(2) -0.033(5) 1.040(3)
C6 C 0.66368(13) 0.0382(3) 1.2179(2)
H5 H 0.698(2) -0.110(5) 1.192(3)
C7 C 0.39711(13) 0.3340(3) 1.0895(2)
H6 H 0.3465(16) 0.252(4) 1.297(3)
H7 H 0.3482(19) 0.009(5) 1.189(3)
C8 C 0.32879(13) 0.1866(3) 1.1771(2)
H8 H 0.3781(19) 0.287(4) 0.967(3)
H9 H 0.3811(19) 0.519(5) 1.100(3)
C9 C 0.21555(12) 0.2150(3) 1.0851(2)
C10 C 0.15795(13) 0.4136(3) 1.1234(2)
H10 H 0.1878(19) 0.539(4) 1.211(3)
C11 C 0.05368(12) 0.4398(3) 1.0362(2)
H11 H 0.0137(19) 0.585(4) 1.061(3)
C12 C 0.00515(12) 0.2658(3) 0.9084(2)
C13 C 0.06220(13) 0.0674(3) 0.8690(2)
H12 H 0.030(2) -0.053(4) 0.777(3)
C14 C 0.16575(14) 0.0441(3) 0.9564(2)
H13 H 0.205(2) -0.101(5) 0.929(4)
N1 N -0.10251(11) 0.2801(3) 0.8266(2)
H14 H -0.127(2) 0.440(5) 0.859(4)
H15 H -0.118(2) 0.257(5) 0.712(3)
loop_
_geom_bond_atom_site_label_1
_geom_bond_atom_site_label_2
_geom_bond_site_symmetry_1
_geom_bond_site_symmetry_2
O1 H1 1_555 1_555
C1 O1 1_555 1_555
C2 C1 1_555 1_555
H2 C2 1_555 1_555
C3 C2 1_555 1_555
H3 C3 1_555 1_555
C4 C3 1_555 1_555
C5 C4 1_555 1_555
H4 C5 1_555 1_555
C6 C1 1_555 1_555
H5 C6 1_555 1_555
C7 C4 1_555 1_555
H6 C8 1_555 1_555
H7 C8 1_555 1_555
C8 C7 1_555 1_555
H8 C7 1_555 1_555
H9 C7 1_555 1_555
C9 C8 1_555 1_555
C10 C9 1_555 1_555
H10 C10 1_555 1_555
C11 C10 1_555 1_555
H11 C11 1_555 1_555
C12 C11 1_555 1_555
C13 C12 1_555 1_555
H12 C13 1_555 1_555
C14 C9 1_555 1_555
H13 C14 1_555 1_555
N1 C12 1_555 1_555
H14 N1 1_555 1_555
H15 N1 1_555 1_555
C5 C6 1_555 1_555
C13 C14 1_555 1_555

#END
