
#######################################################################
#
#                 Cambridge Crystallographic Data Centre
#                                CCDC 
#
#######################################################################
#
# If this CIF has been generated from an entry in the Cambridge 
# Structural Database, then it will include bibliographic, chemical, 
# crystal, experimental, refinement or atomic coordinate data resulting 
# from the CCDC's data processing and validation procedures.
#
#######################################################################

data_ENAMIP
_chemical_formula_moiety         'C17 H21 N1 O1'
_chemical_name_systematic        4-(5-(4-Aminophenyl)pentyl)phenol
_symmetry_cell_setting           monoclinic
_symmetry_space_group_name_H-M   'P c'
_symmetry_Int_Tables_number      7
_space_group_name_Hall           'P -2yc'
loop_
_symmetry_equiv_pos_site_id
_symmetry_equiv_pos_as_xyz
1 x,y,z
2 x,-y,1/2+z
_cell_length_a                   14.9554(9)
_cell_length_b                   11.2370(8)
_cell_length_c                   8.6841(6)
_cell_angle_alpha                90
_cell_angle_beta                 90.893(3)
_cell_angle_gamma                90
_cell_volume                     1459.22
_exptl_crystal_colour            colorless
_exptl_crystal_description       block
_chemical_melting_point          '379.6 K'
_cell_formula_units_Z            4
loop_
_atom_site_label
_atom_site_type_symbol
_atom_site_fract_x
_atom_site_fract_y
_atom_site_fract_z
O1 O 0.87135(9) 0.67204(13) 0.06364(18)
H1 H 0.8880(19) 0.622(2) 0.132(3)
C1 C 0.79142(12) 0.63970(16) -0.0047(2)
C2 C 0.75059(12) 0.53120(16) 0.0257(2)
H2 H 0.7769 0.4775 0.0978
C3 C 0.67130(12) 0.50186(16) -0.0500(2)
H3 H 0.6444 0.4270 -0.0299
C4 C 0.62988(12) 0.57914(17) -0.1547(2)
C5 C 0.67214(14) 0.68707(17) -0.1837(2)
H4 H 0.6456 0.7411 -0.2551
C6 C 0.75217(13) 0.71744(16) -0.1107(2)
H5 H 0.7801 0.7912 -0.1330
C7 C 0.54410(13) 0.54275(18) -0.2362(2)
H6 H 0.5484 0.4574 -0.2634
H7 H 0.5388 0.5882 -0.3336
C8 C 0.45818(12) 0.56175(16) -0.1442(2)
H8 H 0.4072 0.5265 -0.2022
H9 H 0.4639 0.5190 -0.0449
C9 C 0.43796(12) 0.69276(15) -0.1123(2)
H10 H 0.4459 0.7392 -0.2080
H11 H 0.4811 0.7232 -0.0343
C10 C 0.34281(11) 0.71125(15) -0.0545(2)
H12 H 0.3378 0.6746 0.0486
H13 H 0.3004 0.6698 -0.1248
C11 C 0.31616(11) 0.84262(15) -0.0443(2)
H14 H 0.3578 0.8835 0.0280
H15 H 0.3229 0.8797 -0.1469
C12 C 0.22119(11) 0.86208(14) 0.00903(19)
C13 C 0.14990(12) 0.79435(15) -0.0504(2)
H16 H 0.1609 0.7371 -0.1283
C14 C 0.06304(12) 0.80935(16) 0.0028(2)
H17 H 0.0157 0.7628 -0.0398
C15 C 0.04523(11) 0.89166(14) 0.1171(2)
C16 C 0.11455(12) 0.96328(15) 0.1735(2)
H18 H 0.1029 1.0224 0.2487
C17 C 0.20112(12) 0.94761(14) 0.1189(2)
H19 H 0.2478 0.9970 0.1581
N1 N -0.04397(10) 0.90688(14) 0.1715(2)
H20 H -0.0785(18) 0.840(2) 0.153(3)
H21 H -0.0458(17) 0.927(2) 0.272(3)
O2 O 0.89095(9) 0.10442(12) 0.01814(18)
H22 H 0.9030(19) 0.043(2) 0.079(3)
C18 C 0.80131(12) 0.10596(15) -0.0189(2)
C19 C 0.74143(12) 0.02188(16) 0.0371(2)
H23 H 0.7615 -0.0377 0.1072
C20 C 0.65236(12) 0.02568(17) -0.0101(2)
H24 H 0.6120 -0.0320 0.0284
C21 C 0.62059(12) 0.11209(16) -0.1127(2)
C22 C 0.68140(13) 0.19637(16) -0.1646(2)
H25 H 0.6614 0.2565 -0.2339
C23 C 0.77032(13) 0.19453(15) -0.1177(2)
H26 H 0.8102 0.2540 -0.1531
C24 C 0.52346(13) 0.11621(18) -0.1624(2)
H27 H 0.5012 0.0338 -0.1753
H28 H 0.5187 0.1562 -0.2638
C25 C 0.46389(11) 0.18128(17) -0.0486(2)
H29 H 0.4635 0.1366 0.0496
H30 H 0.4895 0.2610 -0.0274
C26 C 0.36830(12) 0.19559(18) -0.1076(2)
H31 H 0.3432 0.1154 -0.1274
H32 H 0.3697 0.2380 -0.2074
C27 C 0.30511(12) 0.26219(16) -0.0014(2)
H33 H 0.2982 0.2166 0.0952
H34 H 0.3312 0.3406 0.0252
C28 C 0.21373(14) 0.2800(2) -0.0777(2)
H35 H 0.2218 0.3268 -0.1731
H36 H 0.1900 0.2011 -0.1082
C29 C 0.14441(12) 0.34187(17) 0.0188(2)
C30 C 0.06464(12) 0.28554(15) 0.0556(2)
H37 H 0.0542 0.2067 0.0201
C31 C 0.00001(12) 0.34152(15) 0.1428(2)
H38 H -0.0541 0.3012 0.1653
C32 C 0.01425(11) 0.45639(15) 0.19723(18)
C33 C 0.09299(12) 0.51529(16) 0.1584(2)
H39 H 0.1027 0.5948 0.1917
C34 C 0.15679(12) 0.45826(16) 0.0715(2)
H40 H 0.2103 0.4992 0.0471
N2 N -0.05261(11) 0.51864(16) 0.28139(18)
H41 H -0.0278(17) 0.562(2) 0.358(3)
H42 H -0.086(2) 0.464(2) 0.319(3)
loop_
_geom_bond_atom_site_label_1
_geom_bond_atom_site_label_2
_geom_bond_site_symmetry_1
_geom_bond_site_symmetry_2
O1 H1 1_555 1_555
C1 O1 1_555 1_555
C2 C1 1_555 1_555
H2 C2 1_555 1_555
C3 C2 1_555 1_555
H3 C3 1_555 1_555
C4 C3 1_555 1_555
C5 C4 1_555 1_555
H4 C5 1_555 1_555
C6 C1 1_555 1_555
H5 C6 1_555 1_555
C7 C4 1_555 1_555
H6 C7 1_555 1_555
H7 C7 1_555 1_555
C8 C7 1_555 1_555
H8 C8 1_555 1_555
H9 C8 1_555 1_555
C9 C8 1_555 1_555
H10 C9 1_555 1_555
H11 C9 1_555 1_555
C10 C9 1_555 1_555
H12 C10 1_555 1_555
H13 C10 1_555 1_555
C11 C10 1_555 1_555
H14 C11 1_555 1_555
H15 C11 1_555 1_555
C12 C11 1_555 1_555
C13 C12 1_555 1_555
H16 C13 1_555 1_555
C14 C13 1_555 1_555
H17 C14 1_555 1_555
C15 C14 1_555 1_555
C16 C15 1_555 1_555
H18 C16 1_555 1_555
C17 C12 1_555 1_555
H19 C17 1_555 1_555
N1 C15 1_555 1_555
H20 N1 1_555 1_555
H21 N1 1_555 1_555
O2 H22 1_555 1_555
C18 O2 1_555 1_555
C19 C18 1_555 1_555
H23 C19 1_555 1_555
C20 C19 1_555 1_555
H24 C20 1_555 1_555
C21 C20 1_555 1_555
C22 C21 1_555 1_555
H25 C22 1_555 1_555
C23 C18 1_555 1_555
H26 C23 1_555 1_555
C24 C21 1_555 1_555
H27 C24 1_555 1_555
H28 C24 1_555 1_555
C25 C24 1_555 1_555
H29 C25 1_555 1_555
H30 C25 1_555 1_555
C26 C25 1_555 1_555
H31 C26 1_555 1_555
H32 C26 1_555 1_555
C27 C26 1_555 1_555
H33 C27 1_555 1_555
H34 C27 1_555 1_555
C28 C27 1_555 1_555
H35 C28 1_555 1_555
H36 C28 1_555 1_555
C29 C28 1_555 1_555
C30 C29 1_555 1_555
H37 C30 1_555 1_555
C31 C30 1_555 1_555
H38 C31 1_555 1_555
C32 C31 1_555 1_555
C33 C32 1_555 1_555
H39 C33 1_555 1_555
C34 C29 1_555 1_555
H40 C34 1_555 1_555
N2 C32 1_555 1_555
H41 N2 1_555 1_555
H42 N2 1_555 1_555
C5 C6 1_555 1_555
C16 C17 1_555 1_555
C22 C23 1_555 1_555
C33 C34 1_555 1_555

#END
