
#######################################################################
#
#                 Cambridge Crystallographic Data Centre
#                                CCDC 
#
#######################################################################
#
# If this CIF has been generated from an entry in the Cambridge 
# Structural Database, then it will include bibliographic, chemical, 
# crystal, experimental, refinement or atomic coordinate data resulting 
# from the CCDC's data processing and validation procedures.
#
#######################################################################

data_ENAMUB
_chemical_formula_moiety         'C13 H13 N1 O1 S1'
_chemical_name_systematic        4-(4-Aminobenzylsulfanyl)phenol
_symmetry_cell_setting           monoclinic
_symmetry_space_group_name_H-M   'P c'
_symmetry_Int_Tables_number      7
_space_group_name_Hall           'P -2yc'
loop_
_symmetry_equiv_pos_site_id
_symmetry_equiv_pos_as_xyz
1 x,y,z
2 x,-y,1/2+z
_cell_length_a                   13.844(3)
_cell_length_b                   5.1626(10)
_cell_length_c                   8.2485(16)
_cell_angle_alpha                90
_cell_angle_beta                 107.22(3)
_cell_angle_gamma                90
_cell_volume                     563.103
_exptl_crystal_colour            'pale brown'
_exptl_crystal_description       prism
_chemical_melting_point          '211-212 deg.C'
_cell_formula_units_Z            2
loop_
_atom_site_label
_atom_site_type_symbol
_atom_site_fract_x
_atom_site_fract_y
_atom_site_fract_z
S1 S 0.50640(9) 0.13512(17) 0.44103(14)
N1 N 0.9998(2) 0.2184(7) 0.6593(5)
H1 H 1.017(3) 0.248(9) 0.774(6)
H2 H 1.021(4) 0.068(10) 0.644(6)
O1 O 0.07838(19) 0.3402(5) 0.0505(3)
H3 H 0.052(5) 0.497(14) 0.088(8)
C1 C 0.1773(3) 0.2984(7) 0.1412(5)
C2 C 0.2273(3) 0.0867(7) 0.1014(5)
H4 H 0.1929 -0.0264 0.0122
C3 C 0.3274(3) 0.0392(7) 0.1913(5)
H5 H 0.3608 -0.1070 0.1629
C4 C 0.3800(3) 0.2018(7) 0.3225(5)
C5 C 0.3288(3) 0.4130(7) 0.3632(5)
H6 H 0.3631 0.5242 0.4537
C6 C 0.2287(3) 0.4636(7) 0.2737(5)
H7 H 0.1952 0.6095 0.3021
C7 C 0.5749(3) 0.3265(7) 0.3247(5)
H8 H 0.5581 0.2661 0.2057
H9 H 0.5560 0.5115 0.3244
C8 C 0.6862(3) 0.2931(7) 0.4119(4)
C9 C 0.7419(3) 0.0916(7) 0.3719(5)
H10 H 0.7091 -0.0284 0.2860
C10 C 0.8932(3) 0.2362(7) 0.5807(5)
C11 C 0.8387(3) 0.4365(7) 0.6239(5)
H11 H 0.8714 0.5544 0.7113
C12 C 0.8434(3) 0.0623(7) 0.4541(5)
H12 H 0.8797 -0.0770 0.4244
C13 C 0.7371(3) 0.4648(7) 0.5402(5)
H13 H 0.7009 0.6039 0.5702
loop_
_geom_bond_atom_site_label_1
_geom_bond_atom_site_label_2
_geom_bond_site_symmetry_1
_geom_bond_site_symmetry_2
S1 C4 1_555 1_555
N1 H1 1_555 1_555
H2 N1 1_555 1_555
O1 H3 1_555 1_555
C1 O1 1_555 1_555
C2 C1 1_555 1_555
H4 C2 1_555 1_555
C3 C2 1_555 1_555
H5 C3 1_555 1_555
C4 C3 1_555 1_555
C5 C4 1_555 1_555
H6 C5 1_555 1_555
C6 C1 1_555 1_555
H7 C6 1_555 1_555
C7 S1 1_555 1_555
H8 C7 1_555 1_555
H9 C7 1_555 1_555
C8 C7 1_555 1_555
C9 C8 1_555 1_555
H10 C9 1_555 1_555
C10 N1 1_555 1_555
C11 C10 1_555 1_555
H11 C11 1_555 1_555
C12 C9 1_555 1_555
H12 C12 1_555 1_555
C13 C8 1_555 1_555
H13 C13 1_555 1_555
C5 C6 1_555 1_555
C10 C12 1_555 1_555
C11 C13 1_555 1_555

#END
