
#######################################################################
#
#                 Cambridge Crystallographic Data Centre
#                                CCDC 
#
#######################################################################
#
# If this CIF has been generated from an entry in the Cambridge 
# Structural Database, then it will include bibliographic, chemical, 
# crystal, experimental, refinement or atomic coordinate data resulting 
# from the CCDC's data processing and validation procedures.
#
#######################################################################

data_ENECOR
_chemical_formula_moiety         'C17 H20 N1 O2 S1 1+,C1 F3 O3 S1 1-'
_chemical_name_systematic        
'2-((2,6-Dimethoxyphenyl)sulfanyl)indan-1-aminium trifluoromethanesulfonate'
_symmetry_cell_setting           monoclinic
_symmetry_space_group_name_H-M   'P 21'
_symmetry_Int_Tables_number      4
_space_group_name_Hall           'P 2yb'
loop_
_symmetry_equiv_pos_site_id
_symmetry_equiv_pos_as_xyz
1 x,y,z
2 -x,1/2+y,-z
_cell_length_a                   12.0779(15)
_cell_length_b                   7.4457(5)
_cell_length_c                   12.7026(15)
_cell_angle_alpha                90
_cell_angle_beta                 113.430(14)
_cell_angle_gamma                90
_cell_volume                     1048.14
_exptl_crystal_colour            colorless
_exptl_crystal_description       block
_cell_formula_units_Z            2
loop_
_atom_site_label
_atom_site_type_symbol
_atom_site_fract_x
_atom_site_fract_y
_atom_site_fract_z
S1 S 0.82020(7) 0.05001(12) 0.88164(8)
O1 O 0.77575(18) -0.2918(3) 0.97112(18)
C1 C 0.4746(2) -0.0277(4) 0.6560(2)
C2 C 0.8443(2) -0.3167(4) 0.9096(2)
C3 C 0.5778(2) -0.0581(3) 0.7707(2)
H1 H 0.6087(2) -0.1801(3) 0.7720(2)
C4 C 0.6721(2) 0.0755(4) 0.7665(3)
H2 H 0.6433(2) 0.1951(4) 0.7758(3)
N1 N 0.5489(2) -0.0339(3) 0.87303(18)
H3 H 0.5112(19) 0.0705(15) 0.8679(10)
H4 H 0.5013(17) -0.1230(17) 0.8765(11)
H5 H 0.6168(3) -0.035(3) 0.9361(2)
C5 C 0.5234(2) 0.0388(4) 0.5817(2)
C6 C 0.8906(2) -0.4836(3) 0.8985(2)
H6 H 0.8761(2) -0.5847(3) 0.9340(2)
C7 C 0.8658(2) -0.1642(4) 0.8561(3)
C8 C 0.9581(3) -0.4951(5) 0.8341(3)
H7 H 0.9902(3) -0.6060(5) 0.8275(3)
C9 C 0.3266(3) 0.0404(5) 0.4319(3)
H8 H 0.2757(3) 0.0632(5) 0.3560(3)
C10 C 0.3532(2) -0.0587(4) 0.6198(3)
H9 H 0.3208(2) -0.1027(4) 0.6700(3)
C11 C 0.2796(3) -0.0225(5) 0.5057(3)
H10 H 0.1969(3) -0.0418(5) 0.4796(3)
O2 O 0.9508(2) -0.0297(4) 0.7390(3)
C12 C 0.9332(3) -0.1836(5) 0.7892(3)
C13 C 0.4491(3) 0.0711(5) 0.4679(3)
H11 H 0.4810(3) 0.1127(5) 0.4168(3)
C14 C 0.7552(4) -0.4431(6) 1.0300(3)
H12 H 0.713(3) -0.5345(17) 0.9754(4)
H13 H 0.8312(4) -0.490(3) 1.083(2)
H14 H 0.707(2) -0.4071(10) 1.071(2)
C15 C 0.6575(3) 0.0625(5) 0.6422(3)
H15 H 0.6846(3) 0.1712(5) 0.6176(3)
H16 H 0.7009(3) -0.0397(5) 0.6301(3)
C16 C 0.9804(3) -0.3505(5) 0.7789(3)
H17 H 1.0262(3) -0.3633(5) 0.7354(3)
C17 C 1.0024(5) -0.0453(9) 0.6553(5)
H18 H 0.954(3) -0.124(6) 0.595(2)
H19 H 1.005(4) 0.0710(14) 0.624(3)
H20 H 1.083(2) -0.093(7) 0.6911(12)
S2 S 0.59499(9) -0.02257(13) 1.17645(6)
C18 C 0.7303(3) -0.0611(5) 1.3008(4)
O3 O 0.5502(11) -0.1944(9) 1.1110(9)
O4 O 0.5927(6) 0.1291(5) 1.1173(4)
O5 O 0.5072(5) 0.0017(7) 1.2412(4)
F1 F 0.7916(2) 0.0804(4) 1.3483(2)
F2 F 0.7935(7) -0.1914(6) 1.3130(7)
F3 F 0.7314(9) -0.1887(8) 1.3542(9)
F4? F 0.6815(7) -0.0848(7) 1.3897(5)
O6? O 0.5568(19) -0.1676(10) 1.145(2)
O7? O 0.6837(7) 0.0245(8) 1.1086(5)
F5? F 0.8044(6) -0.1037(7) 1.2278(12)
O8? O 0.5492(6) 0.1271(7) 1.1876(6)
loop_
_geom_bond_atom_site_label_1
_geom_bond_atom_site_label_2
_geom_bond_site_symmetry_1
_geom_bond_site_symmetry_2
S1 C4 1_555 1_555
O1 C2 1_555 1_555
C1 C3 1_555 1_555
C2 C6 1_555 1_555
C3 H1 1_555 1_555
C4 C3 1_555 1_555
H2 C4 1_555 1_555
N1 C3 1_555 1_555
H3 N1 1_555 1_555
H4 N1 1_555 1_555
H5 N1 1_555 1_555
C5 C1 1_555 1_555
C6 H6 1_555 1_555
C7 S1 1_555 1_555
C8 C6 1_555 1_555
H7 C8 1_555 1_555
C9 H8 1_555 1_555
C10 C1 1_555 1_555
H9 C10 1_555 1_555
C11 C9 1_555 1_555
H10 C11 1_555 1_555
O2 C12 1_555 1_555
C12 C7 1_555 1_555
C13 C5 1_555 1_555
H11 C13 1_555 1_555
C14 O1 1_555 1_555
H12 C14 1_555 1_555
H13 C14 1_555 1_555
H14 C14 1_555 1_555
C15 C4 1_555 1_555
H15 C15 1_555 1_555
H16 C15 1_555 1_555
C16 C8 1_555 1_555
H17 C16 1_555 1_555
C17 O2 1_555 1_555
H18 C17 1_555 1_555
H19 C17 1_555 1_555
H20 C17 1_555 1_555
S2 C18 1_555 1_555
C18 F1 1_555 1_555
O3 S2 1_555 1_555
O4 S2 1_555 1_555
O5 S2 1_555 1_555
F2 C18 1_555 1_555
F3 C18 1_555 1_555
C2 C7 1_555 1_555
C5 C15 1_555 1_555
C9 C13 1_555 1_555
C10 C11 1_555 1_555
C12 C16 1_555 1_555

#END
