
#######################################################################
#
#                 Cambridge Crystallographic Data Centre
#                                CCDC 
#
#######################################################################
#
# If this CIF has been generated from an entry in the Cambridge 
# Structural Database, then it will include bibliographic, chemical, 
# crystal, experimental, refinement or atomic coordinate data resulting 
# from the CCDC's data processing and validation procedures.
#
#######################################################################

data_ENIGIS
_chemical_formula_moiety         'C15 H16 N2 O2'
_chemical_name_systematic        (bis(4-methoxyphenyl)methylene)hydrazine
_symmetry_cell_setting           monoclinic
_symmetry_space_group_name_H-M   'P 21/c'
_symmetry_Int_Tables_number      14
_space_group_name_Hall           '-P 2ybc'
loop_
_symmetry_equiv_pos_site_id
_symmetry_equiv_pos_as_xyz
1 x,y,z
2 -x,1/2+y,1/2-z
3 -x,-y,-z
4 x,1/2-y,1/2+z
_cell_length_a                   14.6342(2)
_cell_length_b                   6.19860(10)
_cell_length_c                   14.3852(2)
_cell_angle_alpha                90
_cell_angle_beta                 92.1100(10)
_cell_angle_gamma                90
_cell_volume                     1304.02
_exptl_crystal_colour            'pale colorless'
_exptl_crystal_description       block
_cell_formula_units_Z            4
loop_
_atom_site_label
_atom_site_type_symbol
_atom_site_fract_x
_atom_site_fract_y
_atom_site_fract_z
O1 O 1.02220(6) 1.07096(15) 1.14348(6)
O2 O 0.68601(6) 0.13761(15) 0.72064(6)
N1 N 0.59063(8) 1.02322(18) 1.07947(8)
H1 H 0.5392(12) 1.103(3) 1.0642(11)
H2 H 0.6419(12) 1.103(3) 1.0956(11)
N2 N 0.59925(7) 0.87421(16) 1.00885(7)
C1 C 0.67912(8) 0.8006(2) 0.99050(8)
C2 C 0.76778(8) 0.8759(2) 1.03333(8)
C3 C 0.80042(9) 1.0862(2) 1.02276(8)
H3 H 0.7639 1.1894 0.9897
C4 C 0.88531(9) 1.1461(2) 1.05990(9)
H4 H 0.9066 1.2895 1.0521
C5 C 0.93969(8) 0.9970(2) 1.10868(8)
C6 C 0.90799(9) 0.7882(2) 1.12037(9)
H5 H 0.9444 0.6856 1.1540
C7 C 0.82306(8) 0.7300(2) 1.08279(9)
H6 H 0.8020 0.5865 1.0910
C8 C 1.08089(9) 0.9140(2) 1.18765(10)
H7 H 1.1387 0.9824 1.2076
H8 H 1.0929 0.7976 1.1437
H9 H 1.0512 0.8545 1.2420
C9 C 0.68131(8) 0.62128(19) 0.92221(8)
C10 C 0.61123(8) 0.4696(2) 0.91603(8)
H10 H 0.5626 0.4793 0.9578
C11 C 0.61005(8) 0.3046(2) 0.85076(9)
H11 H 0.5619 0.2016 0.8487
C12 C 0.68020(8) 0.2921(2) 0.78851(8)
C13 C 0.75111(9) 0.4419(2) 0.79321(8)
H12 H 0.7987 0.4343 0.7502
C14 C 0.75252(9) 0.6015(2) 0.86024(8)
H13 H 0.8025 0.6993 0.8644
C15 C 0.61306(10) -0.0159(2) 0.71361(10)
H14 H 0.6241 -0.1166 0.6627
H15 H 0.5551 0.0597 0.7011
H16 H 0.6100 -0.0959 0.7722
loop_
_geom_bond_atom_site_label_1
_geom_bond_atom_site_label_2
_geom_bond_site_symmetry_1
_geom_bond_site_symmetry_2
O1 C5 1_555 1_555
O2 C12 1_555 1_555
N1 H1 1_555 1_555
H2 N1 1_555 1_555
N2 N1 1_555 1_555
C1 N2 1_555 1_555
C2 C1 1_555 1_555
C3 C2 1_555 1_555
H3 C3 1_555 1_555
C4 C3 1_555 1_555
H4 C4 1_555 1_555
C5 C4 1_555 1_555
C6 C5 1_555 1_555
H5 C6 1_555 1_555
C7 C2 1_555 1_555
H6 C7 1_555 1_555
C8 O1 1_555 1_555
H7 C8 1_555 1_555
H8 C8 1_555 1_555
H9 C8 1_555 1_555
C9 C1 1_555 1_555
C10 C9 1_555 1_555
H10 C10 1_555 1_555
C11 C10 1_555 1_555
H11 C11 1_555 1_555
C12 C11 1_555 1_555
C13 C12 1_555 1_555
H12 C13 1_555 1_555
C14 C9 1_555 1_555
H13 C14 1_555 1_555
C15 O2 1_555 1_555
H14 C15 1_555 1_555
H15 C15 1_555 1_555
H16 C15 1_555 1_555
C6 C7 1_555 1_555
C13 C14 1_555 1_555

#END
