
#######################################################################
#
#                 Cambridge Crystallographic Data Centre
#                                CCDC 
#
#######################################################################
#
# If this CIF has been generated from an entry in the Cambridge 
# Structural Database, then it will include bibliographic, chemical, 
# crystal, experimental, refinement or atomic coordinate data resulting 
# from the CCDC's data processing and validation procedures.
#
#######################################################################

data_ENIGEP
_chemical_formula_moiety         'C15 H17 N1 O2'
_chemical_name_systematic        
(E)-3-benzylidene-1-(tert-butyl)pyrrolidine-2,5-dione
_symmetry_cell_setting           triclinic
_symmetry_space_group_name_H-M   'P -1'
_symmetry_Int_Tables_number      2
_space_group_name_Hall           '-P 1'
loop_
_symmetry_equiv_pos_site_id
_symmetry_equiv_pos_as_xyz
1 x,y,z
2 -x,-y,-z
_cell_length_a                   10.2638(4)
_cell_length_b                   12.1068(4)
_cell_length_c                   12.2361(4)
_cell_angle_alpha                63.3851(11)
_cell_angle_beta                 85.2770(12)
_cell_angle_gamma                71.4797(12)
_cell_volume                     1285.74
_exptl_crystal_colour            colorless
_exptl_crystal_description       plate
_cell_formula_units_Z            4
loop_
_atom_site_label
_atom_site_type_symbol
_atom_site_fract_x
_atom_site_fract_y
_atom_site_fract_z
C1 C 0.90510(14) 0.48409(12) 0.88819(11)
C2 C 0.99924(14) 0.45214(13) 0.79977(11)
C3 C 0.96409(15) 0.56987(13) 0.67830(12)
H1 H 0.9363 0.5500 0.6153
H2 H 1.0433 0.6033 0.6510
C4 C 0.84615(15) 0.66624(13) 0.70153(12)
C5 C 0.68758(15) 0.67940(14) 0.86752(13)
C6 C 0.56072(17) 0.71563(17) 0.78617(17)
H3 H 0.5721 0.7734 0.7014
H4 H 0.4787 0.7603 0.8151
H5 H 0.5500 0.6365 0.7898
C7 C 0.66535(18) 0.59328(16) 0.99987(15)
H6 H 0.6548 0.5133 1.0054
H7 H 0.5821 0.6402 1.0256
H8 H 0.7450 0.5711 1.0534
C8 C 0.71122(18) 0.80020(15) 0.86134(14)
H9 H 0.7978 0.7746 0.9078
H10 H 0.6348 0.8435 0.8965
H11 H 0.7162 0.8601 0.7757
C9 C 1.08663(14) 0.33194(13) 0.83511(12)
H12 H 1.0869 0.2736 0.9190
C10 C 1.18225(14) 0.27676(13) 0.76330(11)
C11 C 1.24328(14) 0.14169(14) 0.81671(12)
H13 H 1.2255 0.0904 0.8983
C12 C 1.32913(15) 0.08158(15) 0.75264(13)
H14 H 1.3686 -0.0105 0.7897
C13 C 1.35748(15) 0.15582(15) 0.63433(13)
H15 H 1.4154 0.1147 0.5897
C14 C 1.30140(15) 0.28976(15) 0.58141(12)
H16 H 1.3229 0.3405 0.5010
C15 C 1.21425(14) 0.35077(14) 0.64423(12)
H17 H 1.1759 0.4429 0.6068
N1 N 0.81038(12) 0.60872(10) 0.82223(10)
O1 O 0.90850(11) 0.41399(9) 0.99699(8)
O2 O 0.78933(12) 0.77748(10) 0.62717(9)
C16 C 0.10238(14) 0.94900(12) 0.18899(11)
C17 C 0.00320(14) 0.97471(13) 0.27675(11)
C18 C 0.00920(14) 0.84534(12) 0.38025(11)
H18 H -0.0816 0.8312 0.3874
H19 H 0.0377 0.8389 0.4588
C19 C 0.11488(14) 0.74789(13) 0.34743(11)
C20 C 0.28727(14) 0.75973(13) 0.17554(12)
C21 C 0.23198(16) 0.78847(14) 0.05022(12)
H20 H 0.1591 0.7489 0.0609
H21 H 0.3069 0.7520 0.0090
H22 H 0.1944 0.8828 0.0004
C22 C 0.39807(15) 0.82309(15) 0.16395(14)
H23 H 0.3597 0.9175 0.1145
H24 H 0.4760 0.7880 0.1243
H25 H 0.4296 0.8045 0.2457
C23 C 0.35068(17) 0.61269(14) 0.24996(14)
H26 H 0.3829 0.5929 0.3319
H27 H 0.4286 0.5804 0.2086
H28 H 0.2812 0.5703 0.2572
C24 C -0.06469(14) 1.09714(13) 0.25429(11)
H29 H -0.0482 1.1615 0.1788
C25 C -0.16120(14) 1.14748(13) 0.32873(11)
C26 C -0.20759(14) 1.28241(13) 0.28782(12)
H30 H -0.1780 1.3370 0.2133
C27 C -0.29623(15) 1.33753(14) 0.35463(13)
H31 H -0.3258 1.4292 0.3265
C28 C -0.34173(15) 1.25875(15) 0.46260(13)
H32 H -0.4031 1.2963 0.5083
C29 C -0.29743(15) 1.12562(15) 0.50329(13)
H33 H -0.3287 1.0719 0.5772
C30 C -0.20803(14) 1.06928(14) 0.43785(12)
H34 H -0.1785 0.9775 0.4670
N2 N 0.17044(11) 0.81478(10) 0.23831(9)
O3 O 0.12354(11) 1.02951(9) 0.09135(8)
O4 O 0.14616(11) 0.63103(9) 0.40656(9)
loop_
_geom_bond_atom_site_label_1
_geom_bond_atom_site_label_2
_geom_bond_site_symmetry_1
_geom_bond_site_symmetry_2
C1 C2 1_555 1_555
C2 C3 1_555 1_555
C3 H1 1_555 1_555
H2 C3 1_555 1_555
C4 C3 1_555 1_555
C5 C6 1_555 1_555
C6 H3 1_555 1_555
H4 C6 1_555 1_555
H5 C6 1_555 1_555
C7 C5 1_555 1_555
H6 C7 1_555 1_555
H7 C7 1_555 1_555
H8 C7 1_555 1_555
C8 C5 1_555 1_555
H9 C8 1_555 1_555
H10 C8 1_555 1_555
H11 C8 1_555 1_555
C9 C2 1_555 1_555
H12 C9 1_555 1_555
C10 C9 1_555 1_555
C11 C10 1_555 1_555
H13 C11 1_555 1_555
C12 C11 1_555 1_555
H14 C12 1_555 1_555
C13 C12 1_555 1_555
H15 C13 1_555 1_555
C14 C13 1_555 1_555
H16 C14 1_555 1_555
C15 C10 1_555 1_555
H17 C15 1_555 1_555
N1 C1 1_555 1_555
O1 C1 1_555 1_555
O2 C4 1_555 1_555
C16 C17 1_555 1_555
C17 C18 1_555 1_555
C18 H18 1_555 1_555
H19 C18 1_555 1_555
C19 C18 1_555 1_555
C20 C21 1_555 1_555
C21 H20 1_555 1_555
H21 C21 1_555 1_555
H22 C21 1_555 1_555
C22 C20 1_555 1_555
H23 C22 1_555 1_555
H24 C22 1_555 1_555
H25 C22 1_555 1_555
C23 C20 1_555 1_555
H26 C23 1_555 1_555
H27 C23 1_555 1_555
H28 C23 1_555 1_555
C24 C17 1_555 1_555
H29 C24 1_555 1_555
C25 C24 1_555 1_555
C26 C25 1_555 1_555
H30 C26 1_555 1_555
C27 C26 1_555 1_555
H31 C27 1_555 1_555
C28 C27 1_555 1_555
H32 C28 1_555 1_555
C29 C28 1_555 1_555
H33 C29 1_555 1_555
C30 C25 1_555 1_555
H34 C30 1_555 1_555
N2 C16 1_555 1_555
O3 C16 1_555 1_555
O4 C19 1_555 1_555
C4 N1 1_555 1_555
C5 N1 1_555 1_555
C14 C15 1_555 1_555
C19 N2 1_555 1_555
C20 N2 1_555 1_555
C29 C30 1_555 1_555

#END
