
#######################################################################
#
#                 Cambridge Crystallographic Data Centre
#                                CCDC 
#
#######################################################################
#
# If this CIF has been generated from an entry in the Cambridge 
# Structural Database, then it will include bibliographic, chemical, 
# crystal, experimental, refinement or atomic coordinate data resulting 
# from the CCDC's data processing and validation procedures.
#
#######################################################################

data_ENIMAQ
_chemical_formula_moiety         'C28 H20 N2 O2'
_chemical_name_systematic        N-(1-Benzoyl-2-phenyl-1H-indol-3-yl)benzamide
_symmetry_cell_setting           monoclinic
_symmetry_space_group_name_H-M   'P 21/c'
_symmetry_Int_Tables_number      14
_space_group_name_Hall           '-P 2ybc'
loop_
_symmetry_equiv_pos_site_id
_symmetry_equiv_pos_as_xyz
1 x,y,z
2 -x,1/2+y,1/2-z
3 -x,-y,-z
4 x,1/2-y,1/2+z
_cell_length_a                   14.2679(4)
_cell_length_b                   9.1186(3)
_cell_length_c                   16.2940(4)
_cell_angle_alpha                90
_cell_angle_beta                 103.187(2)
_cell_angle_gamma                90
_cell_volume                     2064
_exptl_crystal_colour            colorless
_exptl_crystal_description       plate
_cell_formula_units_Z            4
loop_
_atom_site_label
_atom_site_type_symbol
_atom_site_fract_x
_atom_site_fract_y
_atom_site_fract_z
O1 O 0.06565(7) 0.34614(12) 0.11462(6)
O2 O 0.50315(7) 0.30870(11) 0.18732(7)
N1 N 0.21153(7) 0.44633(12) 0.17084(7)
N2 N 0.46567(7) 0.53299(12) 0.22851(7)
H1 H 0.4871 0.6146 0.2520
C1 C 0.31670(9) 0.57386(14) 0.11209(8)
C2 C 0.34497(11) 0.66513(16) 0.05356(9)
H2 H 0.4083 0.6973 0.0618
C3 C 0.27656(12) 0.70657(17) -0.01698(9)
H3 H 0.2938 0.7687 -0.0563
C4 C 0.18210(11) 0.65667(17) -0.03011(9)
H4 H 0.1377 0.6856 -0.0785
C5 C 0.15260(10) 0.56540(16) 0.02678(9)
H5 H 0.0895 0.5320 0.0175
C6 C 0.22115(9) 0.52540(14) 0.09860(8)
C7 C 0.12441(9) 0.38172(15) 0.17779(9)
C8 C 0.10465(9) 0.36480(15) 0.26281(9)
C9 C 0.05945(10) 0.23637(17) 0.27971(10)
H6 H 0.0420 0.1652 0.2382
C10 C 0.04073(11) 0.21531(19) 0.35815(11)
H7 H 0.0128 0.1281 0.3702
C11 C 0.06324(11) 0.32313(19) 0.41911(10)
H8 H 0.0506 0.3083 0.4720
C12 C 0.10448(10) 0.45281(18) 0.40144(9)
H9 H 0.1175 0.5267 0.4418
C13 C 0.12640(9) 0.47308(16) 0.32387(9)
H10 H 0.1558 0.5595 0.3126
C14 C 0.30301(9) 0.44429(14) 0.22846(8)
C15 C 0.32586(9) 0.36917(15) 0.31079(8)
C16 C 0.29984(9) 0.22512(15) 0.32163(9)
H11 H 0.2652 0.1726 0.2757
C17 C 0.32469(11) 0.15851(17) 0.39983(10)
H12 H 0.3065 0.0620 0.4062
C18 C 0.37639(11) 0.23474(19) 0.46842(10)
H13 H 0.3932 0.1899 0.5210
C19 C 0.40293(11) 0.37758(19) 0.45868(9)
H14 H 0.4376 0.4293 0.5050
C20 C 0.37857(10) 0.44501(17) 0.38063(9)
H15 H 0.3974 0.5413 0.3747
C21 C 0.36575(9) 0.51830(14) 0.19257(8)
C22 C 0.52777(9) 0.42275(15) 0.22682(8)
C23 C 0.62866(9) 0.44448(15) 0.27613(8)
C24 C 0.65204(10) 0.54158(16) 0.34316(9)
H16 H 0.6038 0.5958 0.3590
C25 C 0.74700(11) 0.55816(19) 0.38668(9)
H17 H 0.7624 0.6231 0.4318
C26 C 0.81855(11) 0.47822(19) 0.36305(10)
H18 H 0.8823 0.4898 0.3920
C27 C 0.79585(11) 0.38114(18) 0.29657(11)
H19 H 0.8443 0.3275 0.2808
C28 C 0.70117(10) 0.36327(16) 0.25335(10)
H20 H 0.6860 0.2968 0.2090
loop_
_geom_bond_atom_site_label_1
_geom_bond_atom_site_label_2
_geom_bond_site_symmetry_1
_geom_bond_site_symmetry_2
O1 C7 1_555 1_555
O2 C22 1_555 1_555
N1 C6 1_555 1_555
N2 H1 1_555 1_555
C1 C2 1_555 1_555
C2 H2 1_555 1_555
C3 C2 1_555 1_555
H3 C3 1_555 1_555
C4 C3 1_555 1_555
H4 C4 1_555 1_555
C5 C4 1_555 1_555
H5 C5 1_555 1_555
C6 C1 1_555 1_555
C7 N1 1_555 1_555
C8 C7 1_555 1_555
C9 C8 1_555 1_555
H6 C9 1_555 1_555
C10 C9 1_555 1_555
H7 C10 1_555 1_555
C11 C10 1_555 1_555
H8 C11 1_555 1_555
C12 C11 1_555 1_555
H9 C12 1_555 1_555
C13 C8 1_555 1_555
H10 C13 1_555 1_555
C14 N1 1_555 1_555
C15 C14 1_555 1_555
C16 C15 1_555 1_555
H11 C16 1_555 1_555
C17 C16 1_555 1_555
H12 C17 1_555 1_555
C18 C17 1_555 1_555
H13 C18 1_555 1_555
C19 C18 1_555 1_555
H14 C19 1_555 1_555
C20 C15 1_555 1_555
H15 C20 1_555 1_555
C21 N2 1_555 1_555
C22 N2 1_555 1_555
C23 C22 1_555 1_555
C24 C23 1_555 1_555
H16 C24 1_555 1_555
C25 C24 1_555 1_555
H17 C25 1_555 1_555
C26 C25 1_555 1_555
H18 C26 1_555 1_555
C27 C26 1_555 1_555
H19 C27 1_555 1_555
C28 C23 1_555 1_555
H20 C28 1_555 1_555
C1 C21 1_555 1_555
C5 C6 1_555 1_555
C12 C13 1_555 1_555
C14 C21 1_555 1_555
C19 C20 1_555 1_555
C27 C28 1_555 1_555

#END
