
#######################################################################
#
#                 Cambridge Crystallographic Data Centre
#                                CCDC 
#
#######################################################################
#
# If this CIF has been generated from an entry in the Cambridge 
# Structural Database, then it will include bibliographic, chemical, 
# crystal, experimental, refinement or atomic coordinate data resulting 
# from the CCDC's data processing and validation procedures.
#
#######################################################################

data_ENOJAT
_chemical_name_common            1-t-butyl-2-phenylacrylonitrile
_chemical_formula_moiety         'C13 H15 N1'
_chemical_name_systematic        2-Benzylidene-3,3-dimethylbutanenitrile
_symmetry_cell_setting           monoclinic
_symmetry_space_group_name_H-M   'P 21/c'
_symmetry_Int_Tables_number      14
_space_group_name_Hall           '-P 2ybc'
loop_
_symmetry_equiv_pos_site_id
_symmetry_equiv_pos_as_xyz
1 x,y,z
2 -x,1/2+y,1/2-z
3 -x,-y,-z
4 x,1/2-y,1/2+z
_cell_length_a                   5.942(1)
_cell_length_b                   19.357(1)
_cell_length_c                   10.065(1)
_cell_angle_alpha                90
_cell_angle_beta                 99.073(2)
_cell_angle_gamma                90
_cell_volume                     1143.18
_cell_formula_units_Z            4
loop_
_atom_site_label
_atom_site_type_symbol
_atom_site_fract_x
_atom_site_fract_y
_atom_site_fract_z
N1 N -0.052(1) 0.1796(3) 0.5269(5)
C1 C 0.169(1) 0.1801(3) 0.8582(6)
C2 C 0.1831(9) 0.1398(3) 0.7527(5)
C3 C 0.051(1) 0.1632(3) 0.6271(6)
C4 C 0.2730(9) 0.1708(3) 1.0015(5)
C5 C 0.153(1) 0.1395(3) 1.0905(6)
C6 C 0.246(1) 0.1329(4) 1.2244(6)
C7 C 0.460(1) 0.1579(3) 1.2722(6)
C8 C 0.577(1) 0.1909(4) 1.1848(7)
C9 C 0.486(1) 0.1980(4) 1.0497(6)
C10 C 0.312(1) 0.0718(3) 0.7444(6)
C11 C 0.527(2) 0.0656(6) 0.843(1)
C12 C 0.181(2) 0.0154(5) 0.781(2)
C13 C 0.368(2) 0.0594(6) 0.614(1)
H1 H 0.094(9) 0.225(3) 0.844(5)
H2 H 0.02(1) 0.107(4) 1.053(7)
H3 H 0.17(1) 0.101(4) 1.292(7)
H4 H 0.526(9) 0.150(3) 1.372(5)
H5 H 0.70(1) 0.209(3) 1.215(6)
H6 H 0.567(9) 0.221(3) 0.978(6)
loop_
_geom_bond_atom_site_label_1
_geom_bond_atom_site_label_2
_geom_bond_site_symmetry_1
_geom_bond_site_symmetry_2
N1 C3 1_555 1_555
C1 C2 1_555 1_555
C2 C3 1_555 1_555
C4 C1 1_555 1_555
C5 C4 1_555 1_555
C6 C5 1_555 1_555
C7 C6 1_555 1_555
C8 C7 1_555 1_555
C9 C4 1_555 1_555
C10 C2 1_555 1_555
C11 C10 1_555 1_555
C12 C10 1_555 1_555
C13 C10 1_555 1_555
H1 C1 1_555 1_555
H2 C5 1_555 1_555
H3 C6 1_555 1_555
H4 C7 1_555 1_555
H5 C8 1_555 1_555
H6 C9 1_555 1_555
C8 C9 1_555 1_555

#END
