
#######################################################################
#
#                 Cambridge Crystallographic Data Centre
#                                CCDC 
#
#######################################################################
#
# If this CIF has been generated from an entry in the Cambridge 
# Structural Database, then it will include bibliographic, chemical, 
# crystal, experimental, refinement or atomic coordinate data resulting 
# from the CCDC's data processing and validation procedures.
#
#######################################################################

data_ENUHAX
_chemical_formula_moiety         
'N6 O18 Sr1 4-,2(C10 H10 N2 2+),2(C3 H5 N2 1+),H2 O1,2(C3 H4 N2),2(C3 H3 N2 1-)'
_chemical_name_systematic        
"bis(4,4'-bipyridinium) bis(imidazolium) hexanitrato-strontium(ii) bis(imidazolate) imidazole solvate monohydrate"
_symmetry_cell_setting           monoclinic
_symmetry_space_group_name_H-M   'P 2/c'
_symmetry_Int_Tables_number      13
_space_group_name_Hall           '-P 2yc'
loop_
_symmetry_equiv_pos_site_id
_symmetry_equiv_pos_as_xyz
1 x,y,z
2 -x,y,1/2-z
3 -x,-y,-z
4 x,-y,1/2+z
_cell_length_a                   8.9570(14)
_cell_length_b                   13.055(2)
_cell_length_c                   23.670(3)
_cell_angle_alpha                90
_cell_angle_beta                 110.267(5)
_cell_angle_gamma                90
_cell_volume                     2596.46
_exptl_crystal_colour            colorless
_exptl_crystal_description       block
_cell_formula_units_Z            2
loop_
_atom_site_label
_atom_site_type_symbol
_atom_site_fract_x
_atom_site_fract_y
_atom_site_fract_z
Sr1 Sr 0.5000 0.85618(2) 0.2500
O1 O 0.4975(2) 0.99198(14) 0.16039(8)
O2 O 0.2201(2) 0.84738(13) 0.15651(8)
O3 O 0.74110(19) 0.81546(13) 0.21165(7)
O4 O 0.6660(2) 1.03468(17) 0.24528(9)
O5 O 0.6174(3) 1.13586(15) 0.16873(11)
O6 O 0.6921(3) 0.67682(16) 0.24942(9)
O7 O 0.4099(2) 0.76494(15) 0.14164(9)
O8 O 0.1806(3) 0.77361(19) 0.07157(9)
O9 O 0.8459(3) 0.67545(18) 0.19652(11)
N1 N 0.5952(2) 1.05560(16) 0.19150(10)
N2 N 0.7625(2) 0.72069(17) 0.21959(9)
N3 N 0.2699(3) 0.79520(16) 0.12273(9)
O1A O 0.5025(2) 0.99198(14) 0.33961(8)
O2A O 0.7799(2) 0.84738(13) 0.34349(8)
O3A O 0.25890(19) 0.81546(13) 0.28835(7)
O4A O 0.3340(2) 1.03468(17) 0.25472(9)
O5A O 0.3826(3) 1.13586(15) 0.33127(11)
O6A O 0.3079(3) 0.67682(16) 0.25058(9)
O7A O 0.5901(2) 0.76494(15) 0.35836(9)
O8A O 0.8194(3) 0.77361(19) 0.42843(9)
O9A O 0.1541(3) 0.67545(18) 0.30348(11)
N1A N 0.4048(2) 1.05560(16) 0.30850(10)
N2A N 0.2375(2) 0.72069(17) 0.28041(9)
N3A N 0.7301(3) 0.79520(16) 0.37727(9)
N4 N 1.1000(3) 0.46332(19) 0.12654(10)
H1 H 1.1850 0.4514 0.1568
N5 N 0.4047(3) 0.5577(2) -0.12244(10)
H2 H 0.3193 0.5689 -0.1526
C1 C 0.6796(3) 0.52054(19) -0.02393(11)
C2 C 0.8254(3) 0.50061(18) 0.02880(11)
C3 C 0.4814(4) 0.6318(2) -0.08707(16)
H3 H 0.4421 0.6981 -0.0957
C4 C 0.8975(3) 0.4064(2) 0.03875(13)
H4 H 0.8547 0.3528 0.0122
C5 C 1.0340(3) 0.5541(2) 0.11765(13)
H5 H 1.0813 0.6064 0.1446
C6 C 0.8976(3) 0.5751(2) 0.07005(13)
H6 H 0.8538 0.6404 0.0657
C7 C 0.5999(3) 0.4441(2) -0.06191(13)
H7 H 0.6376 0.3772 -0.0554
C8 C 1.0317(4) 0.3911(2) 0.08749(15)
H8 H 1.0774 0.3262 0.0934
C9 C 0.6162(4) 0.6170(2) -0.03814(15)
H9 H 0.6654 0.6725 -0.0143
C10 C 0.4646(3) 0.4659(2) -0.10956(13)
H10 H 0.4121 0.4121 -0.1342
C11 C 0.5000 0.4694(3) 0.2500
H11 H 0.5000 0.5406 0.2500
C12 C 0.4276(4) 0.3125(3) 0.22934(16)
H12 H 0.3676 0.2550 0.2124
N6 N 0.3830(3) 0.41130(19) 0.21624(10)
C12A C 0.5724(4) 0.3125(3) 0.27066(16)
H12A H 0.6324 0.2550 0.2876
N6A N 0.6170(3) 0.41130(19) 0.28376(10)
N7 N 1.0589(3) 0.10770(18) 0.06316(10)
C13 C 0.8796(4) 0.0990(2) 0.10648(16)
H13 H 0.7841 0.1028 0.1137
C14 C 1.1256(4) 0.0735(2) 0.11852(14)
H14 H 1.2323 0.0560 0.1363
N8 N 1.0188(3) 0.06776(19) 0.14489(11)
H15 H 1.0362 0.0471 0.1811
C15 C 0.9031(4) 0.1238(2) 0.05559(15)
H16 H 0.8259 0.1481 0.0207
N9 N 0.7804(3) 0.12813(16) 0.51290(10)
H17 H 0.8385 0.1243 0.4907
C16 C 0.5748(4) 0.1274(2) 0.54187(15)
H18 H 0.4716 0.1227 0.5422
N10 N 0.7077(3) 0.14805(16) 0.58922(10)
H19 H 0.7116 0.1595 0.6255
C17 C 0.8304(4) 0.14781(19) 0.57060(13)
H20 H 0.9356 0.1597 0.5947
C18 C 0.6210(4) 0.1149(2) 0.49444(13)
H21 H 0.5549 0.0998 0.4554
C19 C 0.0000 0.4569(3) 0.2500
H22 H 0.0000 0.5281 0.2500
C20 C 0.0722(4) 0.2996(2) 0.27071(15)
H23 H 0.1323 0.2421 0.2877
N11 N 0.1166(3) 0.39885(18) 0.28392(10)
C20A C -0.0722(4) 0.2996(2) 0.22929(15)
H23A H -0.1323 0.2421 0.2123
N11A N -0.1166(3) 0.39885(18) 0.21608(10)
O10 O 1.0000 0.9598(2) 0.2500
H24 H 1.079(3) 0.921(2) 0.2634(15)
H24A H 0.921(3) 0.921(2) 0.2366(15)
loop_
_geom_bond_atom_site_label_1
_geom_bond_atom_site_label_2
_geom_bond_site_symmetry_1
_geom_bond_site_symmetry_2
Sr1 O1 1_555 1_555
O1 N1 1_555 1_555
O2 Sr1 1_555 1_555
O3 Sr1 1_555 1_555
O4 Sr1 1_555 1_555
O5 N1 1_555 1_555
O6 Sr1 1_555 1_555
O7 Sr1 1_555 1_555
O8 N3 1_555 1_555
O9 N2 1_555 1_555
N1 O4 1_555 1_555
N2 O3 1_555 1_555
N3 O2 1_555 1_555
N4 H1 1_555 1_555
N5 H2 1_555 1_555
C1 C2 1_555 1_555
C2 C4 1_555 1_555
C3 N5 1_555 1_555
H3 C3 1_555 1_555
C4 H4 1_555 1_555
C5 N4 1_555 1_555
H5 C5 1_555 1_555
C6 C2 1_555 1_555
H6 C6 1_555 1_555
C7 C1 1_555 1_555
H7 C7 1_555 1_555
C8 N4 1_555 1_555
H8 C8 1_555 1_555
C9 C1 1_555 1_555
H9 C9 1_555 1_555
C10 N5 1_555 1_555
H10 C10 1_555 1_555
C11 H11 1_555 1_555
C12 H12 1_555 1_555
N6 C11 1_555 1_555
N7 C14 1_555 1_555
C13 H13 1_555 1_555
C14 H14 1_555 1_555
N8 C13 1_555 1_555
H15 N8 1_555 1_555
C15 N7 1_555 1_555
H16 C15 1_555 1_555
N9 H17 1_555 1_555
C16 H18 1_555 1_555
N10 C16 1_555 1_555
H19 N10 1_555 1_555
C17 N9 1_555 1_555
H20 C17 1_555 1_555
C18 N9 1_555 1_555
H21 C18 1_555 1_555
C19 H22 1_555 1_555
C20 H23 1_555 1_555
N11 C19 1_555 1_555
O10 H24 1_555 1_555
O1A Sr1 1_555 1_555
O2A Sr1 1_555 1_555
O3A Sr1 1_555 1_555
O4A Sr1 1_555 1_555
O5A N1A 1_555 1_555
O6A Sr1 1_555 1_555
O7A Sr1 1_555 1_555
O8A N3A 1_555 1_555
O9A N2A 1_555 1_555
N1A O1A 1_555 1_555
N2A O3A 1_555 1_555
N3A O2A 1_555 1_555
C12A C12 1_555 1_555
H12A C12A 1_555 1_555
N6A C11 1_555 1_555
C20A C20 1_555 1_555
H23A C20A 1_555 1_555
N11A C19 1_555 1_555
H24A O10 1_555 1_555
O6 N2 1_555 1_555
O7 N3 1_555 1_555
C3 C9 1_555 1_555
C4 C8 1_555 1_555
C5 C6 1_555 1_555
C7 C10 1_555 1_555
C12 N6 1_555 1_555
C13 C15 1_555 1_555
C14 N8 1_555 1_555
C16 C18 1_555 1_555
N10 C17 1_555 1_555
C20 N11 1_555 1_555
O4A N1A 1_555 1_555
O6A N2A 1_555 1_555
O7A N3A 1_555 1_555
C12A N6A 1_555 1_555
C20A N11A 1_555 1_555

#END
