
#######################################################################
#
#                 Cambridge Crystallographic Data Centre
#                                CCDC 
#
#######################################################################
#
# If this CIF has been generated from an entry in the Cambridge 
# Structural Database, then it will include bibliographic, chemical, 
# crystal, experimental, refinement or atomic coordinate data resulting 
# from the CCDC's data processing and validation procedures.
#
#######################################################################

data_ENUREL
_chemical_formula_moiety         'C42 H58 Li2 N4 O2'
_chemical_name_systematic        
bis(\m~2~-2-(2,6-Di-isopropylphenyliminomethyl)pyrrolyl)-bis(tetrahydrofuran)-di-lithium
_symmetry_cell_setting           monoclinic
_symmetry_space_group_name_H-M   'P 21/n'
_symmetry_Int_Tables_number      14
_space_group_name_Hall           '-P 2yn'
loop_
_symmetry_equiv_pos_site_id
_symmetry_equiv_pos_as_xyz
1 x,y,z
2 1/2-x,1/2+y,1/2-z
3 -x,-y,-z
4 1/2+x,1/2-y,1/2+z
_cell_length_a                   12.5859(10)
_cell_length_b                   11.0853(9)
_cell_length_c                   15.0117(12)
_cell_angle_alpha                90
_cell_angle_beta                 106.4380(10)
_cell_angle_gamma                90
_cell_volume                     2008.8
_cell_formula_units_Z            2
loop_
_atom_site_label
_atom_site_type_symbol
_atom_site_fract_x
_atom_site_fract_y
_atom_site_fract_z
C1 C 0.52982(19) 0.1799(2) -0.11730(14)
H1 H 0.5218 0.1316 -0.1695
C2 C 0.56192(19) 0.2991(2) -0.11239(15)
H2 H 0.5787 0.3441 -0.1589
C3 C 0.56421(18) 0.33800(18) -0.02511(14)
H3 H 0.5830 0.4148 -0.0007
C4 C 0.53276(15) 0.23981(16) 0.01991(13)
C5 C 0.51882(15) 0.23608(16) 0.11058(13)
H4 H 0.5395 0.3033 0.1486
C6 C 0.46524(15) 0.15270(16) 0.23390(12)
C7 C 0.54222(17) 0.09555(18) 0.30806(14)
C8 C 0.5249(2) 0.1026(2) 0.39551(14)
H5 H 0.5754 0.0661 0.4458
C9 C 0.4356(2) 0.1619(2) 0.40939(15)
H6 H 0.4261 0.1659 0.4686
C10 C 0.35988(18) 0.2156(2) 0.33591(15)
H7 H 0.2988 0.2545 0.3459
C11 C 0.37244(16) 0.21304(17) 0.24687(13)
C12 C 0.64192(19) 0.0301(2) 0.29437(17)
H8 H 0.6277 0.0148 0.2277
C13 C 0.7448(2) 0.1075(3) 0.3252(2)
H9 H 0.7359 0.1780 0.2866
H10 H 0.8078 0.0623 0.3199
H11 H 0.7561 0.1314 0.3887
C14 C 0.6613(3) -0.0925(3) 0.3444(2)
H12 H 0.6813 -0.0798 0.4104
H13 H 0.7199 -0.1346 0.3284
H14 H 0.5946 -0.1396 0.3258
C15 C 0.28713(17) 0.2735(2) 0.16689(15)
H15 H 0.3024 0.2462 0.1096
C16 C 0.2997(3) 0.4081(3) 0.1698(3)
H16 H 0.2511 0.4425 0.1145
H17 H 0.3749 0.4288 0.1737
H18 H 0.2810 0.4392 0.2232
C17 C 0.1702(2) 0.2352(4) 0.1604(2)
H19 H 0.1486 0.2683 0.2118
H20 H 0.1665 0.1487 0.1622
H21 H 0.1211 0.2641 0.1032
C18 C 0.2014(4) 0.0999(4) -0.0865(3)
H22 H 0.2395 0.1246 -0.1313
H23 H 0.1888 0.1709 -0.0531
C19 C 0.0973(4) 0.0441(5) -0.1334(4)
H24 H 0.0368 0.0854 -0.1181
H25 H 0.0849 0.0471 -0.2001
C20 C 0.1039(4) -0.0747(5) -0.1030(5)
H26 H 0.0990 -0.1291 -0.1547
H27 H 0.0434 -0.0924 -0.0770
C21 C 0.2063(3) -0.0903(4) -0.0348(4)
H28 H 0.1940 -0.1124 0.0240
H29 H 0.2484 -0.1542 -0.0532
Li1 Li 0.4200(3) 0.0313(3) 0.0282(2)
N1 N 0.51141(14) 0.14103(14) -0.03785(11)
N2 N 0.47912(13) 0.14464(14) 0.14268(10)
O1 O 0.26450(14) 0.01821(16) -0.02576(14)
C1B C 0.47018(19) -0.1799(2) 0.11730(14)
H1B H 0.4782 -0.1316 0.1695
C2B C 0.43808(19) -0.2991(2) 0.11239(15)
H2B H 0.4213 -0.3441 0.1589
C3B C 0.43579(18) -0.33800(18) 0.02511(14)
H3B H 0.4170 -0.4148 0.0007
C4B C 0.46724(15) -0.23981(16) -0.01991(13)
C5B C 0.48118(15) -0.23608(16) -0.11058(13)
H4B H 0.4605 -0.3033 -0.1486
C6B C 0.53476(15) -0.15270(16) -0.23390(12)
C7B C 0.45778(17) -0.09555(18) -0.30806(14)
C8B C 0.4751(2) -0.1026(2) -0.39551(14)
H5B H 0.4246 -0.0661 -0.4458
C9B C 0.5644(2) -0.1619(2) -0.40939(15)
H6B H 0.5739 -0.1659 -0.4686
C10B C 0.64012(18) -0.2156(2) -0.33591(15)
H7B H 0.7012 -0.2545 -0.3459
C11B C 0.62756(16) -0.21304(17) -0.24687(13)
C12B C 0.35808(19) -0.0301(2) -0.29437(17)
H8B H 0.3723 -0.0148 -0.2277
C13B C 0.2552(2) -0.1075(3) -0.3252(2)
H9B H 0.2641 -0.1780 -0.2866
H10B H 0.1922 -0.0623 -0.3199
H11B H 0.2439 -0.1314 -0.3887
C14B C 0.3387(3) 0.0925(3) -0.3444(2)
H12B H 0.3187 0.0798 -0.4104
H13B H 0.2801 0.1346 -0.3284
H14B H 0.4054 0.1396 -0.3258
C15B C 0.71287(17) -0.2735(2) -0.16689(15)
H15B H 0.6976 -0.2462 -0.1096
C16B C 0.7003(3) -0.4081(3) -0.1698(3)
H16B H 0.7489 -0.4425 -0.1145
H17B H 0.6251 -0.4288 -0.1737
H18B H 0.7190 -0.4392 -0.2232
C17B C 0.8298(2) -0.2352(4) -0.1604(2)
H19B H 0.8514 -0.2683 -0.2118
H20B H 0.8335 -0.1487 -0.1622
H21B H 0.8789 -0.2641 -0.1032
C18B C 0.7986(4) -0.0999(4) 0.0865(3)
H22B H 0.7605 -0.1246 0.1313
H23B H 0.8112 -0.1709 0.0531
C19B C 0.9027(4) -0.0441(5) 0.1334(4)
H24B H 0.9632 -0.0854 0.1181
H25B H 0.9151 -0.0471 0.2001
C20B C 0.8961(4) 0.0747(5) 0.1030(5)
H26B H 0.9010 0.1291 0.1547
H27B H 0.9566 0.0924 0.0770
C21B C 0.7937(3) 0.0903(4) 0.0348(4)
H28B H 0.8060 0.1124 -0.0240
H29B H 0.7516 0.1542 0.0532
Li1B Li 0.5800(3) -0.0313(3) -0.0282(2)
N1B N 0.48859(14) -0.14103(14) 0.03785(11)
N2B N 0.52088(13) -0.14464(14) -0.14268(10)
O1B O 0.73550(14) -0.01821(16) 0.02576(14)
loop_
_geom_bond_atom_site_label_1
_geom_bond_atom_site_label_2
_geom_bond_site_symmetry_1
_geom_bond_site_symmetry_2
C1 H1 1_555 1_555
C2 C1 1_555 1_555
H2 C2 1_555 1_555
C3 C2 1_555 1_555
H3 C3 1_555 1_555
C4 C3 1_555 1_555
C5 C4 1_555 1_555
H4 C5 1_555 1_555
C6 C7 1_555 1_555
C7 C8 1_555 1_555
C8 H5 1_555 1_555
C9 C8 1_555 1_555
H6 C9 1_555 1_555
C10 C9 1_555 1_555
H7 C10 1_555 1_555
C11 C6 1_555 1_555
C12 C7 1_555 1_555
H8 C12 1_555 1_555
C13 C12 1_555 1_555
H9 C13 1_555 1_555
H10 C13 1_555 1_555
H11 C13 1_555 1_555
C14 C12 1_555 1_555
H12 C14 1_555 1_555
H13 C14 1_555 1_555
H14 C14 1_555 1_555
C15 C11 1_555 1_555
H15 C15 1_555 1_555
C16 C15 1_555 1_555
H16 C16 1_555 1_555
H17 C16 1_555 1_555
H18 C16 1_555 1_555
C17 C15 1_555 1_555
H19 C17 1_555 1_555
H20 C17 1_555 1_555
H21 C17 1_555 1_555
C18 H22 1_555 1_555
H23 C18 1_555 1_555
C19 C18 1_555 1_555
H24 C19 1_555 1_555
H25 C19 1_555 1_555
C20 C19 1_555 1_555
H26 C20 1_555 1_555
H27 C20 1_555 1_555
C21 C20 1_555 1_555
H28 C21 1_555 1_555
H29 C21 1_555 1_555
Li1 N1 1_555 1_555
N1 C1 1_555 1_555
N2 C5 1_555 1_555
O1 C18 1_555 1_555
C1B H1B 1_555 1_555
C2B C1B 1_555 1_555
H2B C2B 1_555 1_555
C3B C2B 1_555 1_555
H3B C3B 1_555 1_555
C4B C3B 1_555 1_555
C5B C4B 1_555 1_555
H4B C5B 1_555 1_555
C6B C7B 1_555 1_555
C7B C8B 1_555 1_555
C8B H5B 1_555 1_555
C9B C8B 1_555 1_555
H6B C9B 1_555 1_555
C10B C9B 1_555 1_555
H7B C10B 1_555 1_555
C11B C6B 1_555 1_555
C12B C7B 1_555 1_555
H8B C12B 1_555 1_555
C13B C12B 1_555 1_555
H9B C13B 1_555 1_555
H10B C13B 1_555 1_555
H11B C13B 1_555 1_555
C14B C12B 1_555 1_555
H12B C14B 1_555 1_555
H13B C14B 1_555 1_555
H14B C14B 1_555 1_555
C15B C11B 1_555 1_555
H15B C15B 1_555 1_555
C16B C15B 1_555 1_555
H16B C16B 1_555 1_555
H17B C16B 1_555 1_555
H18B C16B 1_555 1_555
C17B C15B 1_555 1_555
H19B C17B 1_555 1_555
H20B C17B 1_555 1_555
H21B C17B 1_555 1_555
C18B H22B 1_555 1_555
H23B C18B 1_555 1_555
C19B C18B 1_555 1_555
H24B C19B 1_555 1_555
H25B C19B 1_555 1_555
C20B C19B 1_555 1_555
H26B C20B 1_555 1_555
H27B C20B 1_555 1_555
C21B C20B 1_555 1_555
H28B C21B 1_555 1_555
H29B C21B 1_555 1_555
Li1B N1 1_555 1_555
N1B Li1 1_555 1_555
N2B C5B 1_555 1_555
O1B C18B 1_555 1_555
C4 N1 1_555 1_555
C6 N2 1_555 1_555
C10 C11 1_555 1_555
C21 O1 1_555 1_555
Li1 N2 1_555 1_555
Li1 O1 1_555 1_555
C1B N1B 1_555 1_555
C4B N1B 1_555 1_555
C6B N2B 1_555 1_555
C10B C11B 1_555 1_555
C21B O1B 1_555 1_555
Li1B N1B 1_555 1_555
Li1B N2B 1_555 1_555
Li1B O1B 1_555 1_555

#END
