
#######################################################################
#
#                 Cambridge Crystallographic Data Centre
#                                CCDC 
#
#######################################################################
#
# If this CIF has been generated from an entry in the Cambridge 
# Structural Database, then it will include bibliographic, chemical, 
# crystal, experimental, refinement or atomic coordinate data resulting 
# from the CCDC's data processing and validation procedures.
#
#######################################################################

data_EPIFAM01
_chemical_formula_moiety         'C28 H24 N2 O4'
_chemical_name_systematic        
2,2'-(hydrazine-1,2-diylidenebis(phenylmethylylidene))bis(5-methoxyphenol)
_symmetry_cell_setting           monoclinic
_symmetry_space_group_name_H-M   'P 21/c'
_symmetry_Int_Tables_number      14
_space_group_name_Hall           '-P 2ybc'
loop_
_symmetry_equiv_pos_site_id
_symmetry_equiv_pos_as_xyz
1 x,y,z
2 -x,1/2+y,1/2-z
3 -x,-y,-z
4 x,1/2-y,1/2+z
_cell_length_a                   11.1250(10)
_cell_length_b                   21.323(6)
_cell_length_c                   10.4804(12)
_cell_angle_alpha                90
_cell_angle_beta                 107.093(11)
_cell_angle_gamma                90
_cell_volume                     2376.33
_exptl_crystal_colour            yellow
_exptl_crystal_description       prism
_cell_formula_units_Z            4
loop_
_atom_site_label
_atom_site_type_symbol
_atom_site_fract_x
_atom_site_fract_y
_atom_site_fract_z
N1 N 0.30178(15) 0.17716(8) 0.57456(17)
N2 N 0.41566(15) 0.16125(8) 0.66834(17)
O1 O 0.88595(13) 0.02063(8) 1.06081(15)
O2 O 0.64128(14) 0.18723(7) 0.81343(17)
H1 H 0.5715 0.1944 0.7618
C1 C 0.43308(18) 0.10162(9) 0.69316(19)
C2 C 0.17287(17) 0.25784(9) 0.45040(19)
C3 C 0.76430(18) 0.10563(11) 0.9316(2)
H2 H 0.8295 0.1341 0.9641
C4 C 0.55306(18) 0.08302(9) 0.78896(18)
O3 O 0.08847(17) 0.15341(8) 0.4003(2)
H3 H 0.1542 0.1453 0.4582
C5 C 0.37998(17) 0.28441(9) 0.62582(18)
C6 C 0.33861(17) 0.05325(9) 0.62794(18)
C7 C 0.28620(17) 0.23713(9) 0.55202(18)
C8 C 0.65133(19) 0.12579(10) 0.8430(2)
C9 C 0.15254(19) 0.32146(10) 0.4189(2)
H4 H 0.2105 0.3506 0.4671
C10 C 0.0812(2) 0.21552(10) 0.3778(2)
C11 C 0.6843(2) 0.00126(11) 0.9204(2)
H5 H 0.6947 -0.0405 0.9467
C12 C -0.0223(2) 0.23722(11) 0.2766(2)
H6 H -0.0824 0.2089 0.2288
O4 O -0.13266(15) 0.32489(8) 0.14879(18)
C13 C 0.5739(2) 0.02079(10) 0.8310(2)
H7 H 0.5107 -0.0085 0.7972
C14 C 0.5581(2) 0.36900(11) 0.7685(3)
H8 H 0.6182 0.3972 0.8167
C15 C 0.0509(2) 0.34248(11) 0.3202(2)
H9 H 0.0402 0.3852 0.3022
C16 C -0.0361(2) 0.29981(11) 0.2471(2)
C17 C 0.1641(2) -0.03786(12) 0.5066(3)
H10 H 0.1060 -0.0686 0.4667
C18 C 0.78013(19) 0.04411(11) 0.9712(2)
C19 C 0.2476(2) 0.03421(12) 0.6846(2)
H11 H 0.2447 0.0518 0.7649
C20 C 0.5569(2) 0.35136(13) 0.6438(3)
H12 H 0.6160 0.3679 0.6061
C21 C 0.2535(2) -0.01948(12) 0.4493(2)
H13 H 0.2559 -0.0376 0.3694
C22 C 0.1608(2) -0.01071(13) 0.6231(3)
H14 H 0.0990 -0.0226 0.6617
C23 C 0.3406(2) 0.02598(11) 0.5090(2)
H15 H 0.4010 0.0383 0.4687
C24 C 0.3813(2) 0.30321(11) 0.7514(2)
H16 H 0.3214 0.2876 0.7892
C25 C 0.9868(2) 0.06303(14) 1.1193(2)
H17 H 0.9582 0.0947 1.1687
H18 H 1.0143 0.0825 1.0501
H19 H 1.0554 0.0404 1.1783
C26 C 0.4688(2) 0.30915(12) 0.5723(2)
H20 H 0.4693 0.2973 0.4871
C27 C 0.4710(3) 0.34514(12) 0.8222(2)
H21 H 0.4716 0.3571 0.9077
C28 C -0.2170(3) 0.28261(15) 0.0599(3)
H22 H -0.2594 0.2575 0.1093
H23 H -0.1703 0.2559 0.0180
H24 H -0.2777 0.3061 -0.0071
loop_
_geom_bond_atom_site_label_1
_geom_bond_atom_site_label_2
_geom_bond_site_symmetry_1
_geom_bond_site_symmetry_2
N1 N2 1_555 1_555
N2 C1 1_555 1_555
O1 C18 1_555 1_555
O2 H1 1_555 1_555
C1 C4 1_555 1_555
C2 C7 1_555 1_555
C3 H2 1_555 1_555
C4 C8 1_555 1_555
O3 H3 1_555 1_555
C5 C7 1_555 1_555
C6 C1 1_555 1_555
C7 N1 1_555 1_555
C8 O2 1_555 1_555
C9 C2 1_555 1_555
H4 C9 1_555 1_555
C10 C2 1_555 1_555
C11 H5 1_555 1_555
C12 C10 1_555 1_555
H6 C12 1_555 1_555
O4 C16 1_555 1_555
C13 C4 1_555 1_555
H7 C13 1_555 1_555
C14 H8 1_555 1_555
C15 C9 1_555 1_555
H9 C15 1_555 1_555
C16 C12 1_555 1_555
C17 H10 1_555 1_555
C18 C3 1_555 1_555
C19 C6 1_555 1_555
H11 C19 1_555 1_555
C20 C14 1_555 1_555
H12 C20 1_555 1_555
C21 C17 1_555 1_555
H13 C21 1_555 1_555
C22 C17 1_555 1_555
H14 C22 1_555 1_555
C23 C6 1_555 1_555
H15 C23 1_555 1_555
C24 C5 1_555 1_555
H16 C24 1_555 1_555
C25 O1 1_555 1_555
H17 C25 1_555 1_555
H18 C25 1_555 1_555
H19 C25 1_555 1_555
C26 C5 1_555 1_555
H20 C26 1_555 1_555
C27 C14 1_555 1_555
H21 C27 1_555 1_555
C28 O4 1_555 1_555
H22 C28 1_555 1_555
H23 C28 1_555 1_555
H24 C28 1_555 1_555
C3 C8 1_555 1_555
O3 C10 1_555 1_555
C11 C13 1_555 1_555
C11 C18 1_555 1_555
C15 C16 1_555 1_555
C19 C22 1_555 1_555
C20 C26 1_555 1_555
C21 C23 1_555 1_555
C24 C27 1_555 1_555

#END
