
#######################################################################
#
#                 Cambridge Crystallographic Data Centre
#                                CCDC 
#
#######################################################################
#
# If this CIF has been generated from an entry in the Cambridge 
# Structural Database, then it will include bibliographic, chemical, 
# crystal, experimental, refinement or atomic coordinate data resulting 
# from the CCDC's data processing and validation procedures.
#
#######################################################################

data_EPITAZ
_chemical_formula_moiety         'C30 H36 N4 O2,H2 O1'
_chemical_name_systematic        
'cis-5,10,10,15,20,20-Hexamethyl-5,15-diacetyl-5,10,15,20,22,24-hexahydroporphyrin monohydrate'
_symmetry_cell_setting           monoclinic
_symmetry_space_group_name_H-M   'P 21'
_symmetry_Int_Tables_number      4
_space_group_name_Hall           'P 2yb'
loop_
_symmetry_equiv_pos_site_id
_symmetry_equiv_pos_as_xyz
1 x,y,z
2 -x,1/2+y,-z
_cell_length_a                   10.309(7)
_cell_length_b                   13.246(9)
_cell_length_c                   11.386(8)
_cell_angle_alpha                90
_cell_angle_beta                 113.540(11)
_cell_angle_gamma                90
_cell_volume                     1425.41
_exptl_crystal_colour            colorless
_exptl_crystal_description       block
_cell_formula_units_Z            2
loop_
_atom_site_label
_atom_site_type_symbol
_atom_site_fract_x
_atom_site_fract_y
_atom_site_fract_z
C1 C 0.2773(4) 0.0213(3) 0.4079(3)
C2 C 0.2057(4) -0.0643(3) 0.3977(4)
H1 H 0.2430 -0.1290 0.4041
C3 C 0.0654(4) -0.0412(3) 0.3759(4)
H2 H -0.0069 -0.0872 0.3641
C4 C 0.0550(4) 0.0603(3) 0.3754(4)
C5 C -0.0660(4) 0.1275(3) 0.3731(4)
C6 C -0.0804(4) 0.2215(3) 0.2931(4)
C7 C -0.1063(5) 0.3189(3) 0.3111(4)
H3 H -0.1123 0.3453 0.3845
C8 C -0.1227(4) 0.3738(3) 0.2002(4)
H4 H -0.1432 0.4423 0.1865
C9 C -0.1031(4) 0.3085(3) 0.1172(4)
C10 C -0.1144(4) 0.3208(3) -0.0205(4)
C11 C 0.0118(4) 0.2790(3) -0.0397(4)
C12 C 0.0214(5) 0.2432(4) -0.1471(4)
H5 H -0.0537 0.2333 -0.2257
C13 C 0.1644(5) 0.2236(4) -0.1195(4)
H6 H 0.1999 0.1958 -0.1756
C14 C 0.2419(4) 0.2521(3) 0.0031(4)
C15 C 0.4004(4) 0.2600(4) 0.0773(4)
C16 C 0.4439(4) 0.2328(3) 0.2166(4)
C17 C 0.5348(4) 0.2770(3) 0.3249(4)
H7 H 0.5818 0.3379 0.3306
C18 C 0.5452(4) 0.2136(3) 0.4280(4)
H8 H 0.6009 0.2255 0.5140
C19 C 0.4611(4) 0.1332(3) 0.3805(4)
C20 C 0.4353(4) 0.0379(3) 0.4430(4)
C21 C -0.0384(6) 0.1586(5) 0.5109(5)
H9 H 0.0480 0.1966 0.5464
H10 H -0.0303 0.0993 0.5618
H11 H -0.1154 0.1994 0.5108
C22 C -0.2036(5) 0.0668(4) 0.3164(6)
H12 H -0.2810 0.1078 0.3147
H13 H -0.1961 0.0081 0.3681
H14 H -0.2198 0.0463 0.2308
C23 C -0.2493(5) 0.2683(4) -0.1118(4)
H15 H -0.2595 0.2782 -0.1986
H16 H -0.3297 0.2964 -0.1010
H17 H -0.2432 0.1974 -0.0931
C24 C -0.1323(6) 0.4359(4) -0.0470(4)
C25 C -0.0017(8) 0.4987(4) -0.0111(7)
H18 H -0.0260 0.5688 -0.0132
H19 H 0.0412 0.4867 -0.0708
H20 H 0.0638 0.4810 0.0737
C26 C 0.4457(7) 0.3690(5) 0.0677(6)
H21 H 0.4206 0.3861 -0.0206
H22 H 0.5462 0.3752 0.1138
H23 H 0.3985 0.4140 0.1039
C27 C 0.4739(6) 0.1880(6) 0.0170(6)
H24 H 0.4446 0.1199 0.0220
H25 H 0.5746 0.1932 0.0625
H26 H 0.4483 0.2059 -0.0711
C28 C 0.4984(5) -0.0527(3) 0.4010(4)
H27 H 0.4527 -0.0602 0.3097
H28 H 0.4843 -0.1127 0.4417
H29 H 0.5979 -0.0420 0.4253
C29 C 0.5116(5) 0.0515(4) 0.5901(5)
C30 C 0.4438(5) 0.1142(5) 0.6584(5)
H30 H 0.3654 0.0780 0.6633
H31 H 0.4106 0.1762 0.6126
H32 H 0.5116 0.1287 0.7433
H33 H 0.206(5) 0.162(4) 0.388(4)
H34 H -0.059(5) 0.169(4) 0.138(5)
H35 H 0.171(5) 0.303(4) 0.128(5)
H36 H 0.347(5) 0.104(4) 0.203(4)
N1 N 0.1856(3) 0.0989(2) 0.3948(3)
N2 N -0.0780(3) 0.2158(3) 0.1745(3)
N3 N 0.1467(4) 0.2852(3) 0.0511(3)
N4 N 0.3977(3) 0.1453(3) 0.2512(3)
O1 O -0.2456(5) 0.4723(3) -0.0949(4)
O2 O 0.6219(4) 0.0106(3) 0.6468(3)
H37 H 0.265(7) 0.376(5) 0.349(6)
O3 O 0.2163(4) 0.3226(3) 0.3365(5)
H38 H 0.216(8) 0.335(6) 0.413(8)
loop_
_geom_bond_atom_site_label_1
_geom_bond_atom_site_label_2
_geom_bond_site_symmetry_1
_geom_bond_site_symmetry_2
C1 C2 1_555 1_555
C2 H1 1_555 1_555
C3 C2 1_555 1_555
H2 C3 1_555 1_555
C4 C3 1_555 1_555
C5 C4 1_555 1_555
C6 C5 1_555 1_555
C7 C6 1_555 1_555
H3 C7 1_555 1_555
C8 C7 1_555 1_555
H4 C8 1_555 1_555
C9 C8 1_555 1_555
C10 C9 1_555 1_555
C11 C10 1_555 1_555
C12 C11 1_555 1_555
H5 C12 1_555 1_555
C13 C12 1_555 1_555
H6 C13 1_555 1_555
C14 C13 1_555 1_555
C15 C14 1_555 1_555
C16 C15 1_555 1_555
C17 C16 1_555 1_555
H7 C17 1_555 1_555
C18 C17 1_555 1_555
H8 C18 1_555 1_555
C19 C18 1_555 1_555
C20 C1 1_555 1_555
C21 C5 1_555 1_555
H9 C21 1_555 1_555
H10 C21 1_555 1_555
H11 C21 1_555 1_555
C22 C5 1_555 1_555
H12 C22 1_555 1_555
H13 C22 1_555 1_555
H14 C22 1_555 1_555
C23 C10 1_555 1_555
H15 C23 1_555 1_555
H16 C23 1_555 1_555
H17 C23 1_555 1_555
C24 C10 1_555 1_555
C25 C24 1_555 1_555
H18 C25 1_555 1_555
H19 C25 1_555 1_555
H20 C25 1_555 1_555
C26 C15 1_555 1_555
H21 C26 1_555 1_555
H22 C26 1_555 1_555
H23 C26 1_555 1_555
C27 C15 1_555 1_555
H24 C27 1_555 1_555
H25 C27 1_555 1_555
H26 C27 1_555 1_555
C28 C20 1_555 1_555
H27 C28 1_555 1_555
H28 C28 1_555 1_555
H29 C28 1_555 1_555
C29 C20 1_555 1_555
C30 C29 1_555 1_555
H30 C30 1_555 1_555
H31 C30 1_555 1_555
H32 C30 1_555 1_555
H33 N1 1_555 1_555
H34 N2 1_555 1_555
H35 N3 1_555 1_555
H36 N4 1_555 1_555
H37 O3 1_555 1_555
N1 C1 1_555 1_555
N2 C6 1_555 1_555
N3 C11 1_555 1_555
N4 C16 1_555 1_555
O1 C24 1_555 1_555
O2 C29 1_555 1_555
O3 H38 1_555 1_555
C4 N1 1_555 1_555
C9 N2 1_555 1_555
C14 N3 1_555 1_555
C19 C20 1_555 1_555
C19 N4 1_555 1_555

#END
