
#######################################################################
#
#                 Cambridge Crystallographic Data Centre
#                                CCDC 
#
#######################################################################
#
# If this CIF has been generated from an entry in the Cambridge 
# Structural Database, then it will include bibliographic, chemical, 
# crystal, experimental, refinement or atomic coordinate data resulting 
# from the CCDC's data processing and validation procedures.
#
#######################################################################

data_EPUFUS
_chemical_formula_moiety         'C47 H33 N1 O4,C3 D6 O1'
_chemical_name_systematic        
'19-(2-(4-ethylphenoxy)phenyl)-1,16-diphenyl-19-azahexacyclo[14.5.1.0^2,15^.0^3,8^.0^9,14^.0^17,21^]docosa-2(15),3,5,7,9,11,13-heptaene-18,20,22-trione perdeuteroacetone solvate'
_symmetry_cell_setting           monoclinic
_symmetry_space_group_name_H-M   'P 21/c'
_symmetry_Int_Tables_number      14
_space_group_name_Hall           '-P 2ybc'
loop_
_symmetry_equiv_pos_site_id
_symmetry_equiv_pos_as_xyz
1 x,y,z
2 -x,1/2+y,1/2-z
3 -x,-y,-z
4 x,1/2-y,1/2+z
_cell_length_a                   10.0269(4)
_cell_length_b                   26.1691(10)
_cell_length_c                   14.5453(6)
_cell_angle_alpha                90
_cell_angle_beta                 106.6550(10)
_cell_angle_gamma                90
_cell_volume                     3656.5
_exptl_crystal_colour            colorless
_exptl_crystal_description       plank
_cell_formula_units_Z            4
loop_
_atom_site_label
_atom_site_type_symbol
_atom_site_fract_x
_atom_site_fract_y
_atom_site_fract_z
O1 O 0.26377(10) 0.27346(4) 0.16108(7)
O2 O 0.21928(10) 0.08796(3) 0.33947(7)
O3 O 0.50285(10) 0.20499(4) 0.53433(6)
N1 N 0.37556(11) 0.13803(4) 0.45017(7)
C1 C 0.30619(13) 0.24035(5) 0.21837(9)
C2 C 0.26771(13) 0.18260(5) 0.21554(9)
C3 C 0.23311(13) 0.17995(5) 0.31395(9)
H1 H 0.1334 0.1889 0.3058
C4 C 0.26962(13) 0.12929(5) 0.36512(9)
C5 C 0.41509(13) 0.18917(5) 0.46494(9)
C6 C 0.33134(13) 0.21937(5) 0.37898(9)
H2 H 0.2770 0.2471 0.3990
C7 C 0.42163(13) 0.24137(5) 0.31621(8)
C8 C 0.50606(13) 0.19659(5) 0.29415(8)
C9 C 0.41687(13) 0.16291(5) 0.23424(8)
C10 C 0.46567(14) 0.11636(5) 0.20235(9)
C11 C 0.37708(15) 0.08136(5) 0.13960(9)
H3 H 0.2796 0.0874 0.1194
C12 C 0.43001(17) 0.03863(5) 0.10736(10)
H4 H 0.3691 0.0157 0.0646
C13 C 0.57258(17) 0.02894(5) 0.13721(10)
H5 H 0.6088 -0.0003 0.1140
C14 C 0.66048(15) 0.06145(5) 0.19982(10)
H6 H 0.7574 0.0542 0.2200
C15 C 0.61066(14) 0.10574(5) 0.23540(9)
C16 C 0.70349(13) 0.13936(5) 0.30470(9)
C17 C 0.84536(14) 0.12698(5) 0.34754(10)
H7 H 0.8812 0.0959 0.3304
C18 C 0.93223(14) 0.15871(6) 0.41307(10)
H8 H 1.0266 0.1492 0.4414
C19 C 0.88234(14) 0.20503(6) 0.43840(10)
H9 H 0.9435 0.2275 0.4822
C20 C 0.74489(14) 0.21796(5) 0.39989(9)
H10 H 0.7115 0.2492 0.4183
C21 C 0.65223(13) 0.18565(5) 0.33340(9)
C22 C 0.15558(13) 0.16723(5) 0.12720(9)
C23 C 0.03722(15) 0.14061(5) 0.13068(10)
H11 H 0.0270 0.1300 0.1908
C24 C -0.06640(16) 0.12938(6) 0.04640(11)
H12 H -0.1473 0.1113 0.0493
C25 C -0.05239(16) 0.14435(6) -0.04153(11)
H13 H -0.1240 0.1370 -0.0987
C26 C 0.06645(16) 0.17010(6) -0.04599(10)
H14 H 0.0772 0.1800 -0.1063
C27 C 0.16955(15) 0.18139(5) 0.03788(9)
H15 H 0.2509 0.1990 0.0345
C28 C 0.48647(13) 0.29313(5) 0.34145(9)
C29 C 0.53703(14) 0.31854(5) 0.27381(9)
H16 H 0.5358 0.3020 0.2154
C30 C 0.58908(15) 0.36787(5) 0.29164(11)
H17 H 0.6231 0.3850 0.2454
C31 C 0.59145(15) 0.39217(5) 0.37687(12)
H18 H 0.6255 0.4261 0.3884
C32 C 0.54433(15) 0.36702(5) 0.44492(11)
H19 H 0.5477 0.3835 0.5037
C33 C 0.49188(14) 0.31754(5) 0.42766(10)
H20 H 0.4597 0.3004 0.4748
C34 C 0.44241(14) 0.09784(5) 0.51374(9)
C35 C 0.37304(14) 0.07397(5) 0.57185(9)
C36 C 0.43756(15) 0.03392(5) 0.63107(9)
H21 H 0.3907 0.0170 0.6705
C37 C 0.57044(15) 0.01899(5) 0.63214(10)
H22 H 0.6138 -0.0086 0.6721
C38 C 0.64095(15) 0.04356(6) 0.57604(10)
H23 H 0.7329 0.0335 0.5784
C39 C 0.57604(14) 0.08312(5) 0.51615(10)
H24 H 0.6233 0.1001 0.4769
O4 O 0.23998(18) 0.09079(9) 0.56474(18)
C40 C 0.18560(14) 0.07527(5) 0.63858(10)
C41 C 0.23176(18) 0.09831(10) 0.72833(16)
H25 H 0.2969 0.1256 0.7388
C42 C 0.1816(2) 0.08105(7) 0.80242(13)
H26 H 0.2132 0.0968 0.8637
C43 C 0.08645(18) 0.04129(6) 0.78912(13)
C44 C 0.03787(18) 0.01983(7) 0.69815(16)
H27 H -0.0305 -0.0064 0.6866
C45 C 0.0890(2) 0.03662(9) 0.62398(14)
H28 H 0.0567 0.0212 0.5625
C46 C 0.04182(19) 0.02146(7) 0.87346(13)
H29 H 0.0691 0.0467 0.9263
H30 H 0.0927 -0.0107 0.8964
C47 C -0.1131(2) 0.01132(8) 0.85110(15)
H31 H -0.1648 0.0423 0.8242
H32 H -0.1354 0.0017 0.9102
H33 H -0.1393 -0.0166 0.8045
O6 O 0.02112(12) 0.26759(5) 0.25237(8)
C55 C -0.09246(15) 0.27829(6) 0.19888(10)
C56 C -0.19911(17) 0.23811(7) 0.15921(12)
D1 D -0.2071 0.2327 0.0912
D2 D -0.2892 0.2491 0.1660
D3 D -0.1710 0.2061 0.1944
C57 C -0.13053(18) 0.33268(6) 0.17013(12)
D4 D -0.1705 0.3487 0.2171
D5 D -0.1990 0.3334 0.1067
D6 D -0.0470 0.3515 0.1678
O5? O 0.2502(11) 0.0971(6) 0.5737(11)
C48? C 0.1941(17) 0.0991(7) 0.7203(10)
H34? H 0.2474 0.1293 0.7397
C49? C 0.1184(12) 0.0762(4) 0.7749(8)
H35? H 0.1278 0.0887 0.8377
C50? C 0.0307(12) 0.0360(4) 0.7417(9)
C51? C 0.0216(12) 0.0145(4) 0.6525(9)
H36? H -0.0375 -0.0141 0.6311
C52? C 0.0961(17) 0.0339(6) 0.5953(10)
H37? H 0.0892 0.0212 0.5329
C53? C -0.0533(11) 0.0146(5) 0.8043(7)
H38? H -0.1262 0.0398 0.8060
H39? H -0.1012 -0.0167 0.7732
C54? C 0.0253(12) 0.0016(5) 0.9055(7)
H40? H 0.0978 -0.0235 0.9054
H41? H -0.0388 -0.0128 0.9384
H42? H 0.0684 0.0326 0.9390
loop_
_geom_bond_atom_site_label_1
_geom_bond_atom_site_label_2
_geom_bond_site_symmetry_1
_geom_bond_site_symmetry_2
O1 C1 1_555 1_555
O2 C4 1_555 1_555
O3 C5 1_555 1_555
N1 C4 1_555 1_555
C1 C2 1_555 1_555
C2 C3 1_555 1_555
C3 H1 1_555 1_555
C4 C3 1_555 1_555
C5 N1 1_555 1_555
C6 C3 1_555 1_555
H2 C6 1_555 1_555
C7 C1 1_555 1_555
C8 C7 1_555 1_555
C9 C2 1_555 1_555
C10 C9 1_555 1_555
C11 C10 1_555 1_555
H3 C11 1_555 1_555
C12 C11 1_555 1_555
H4 C12 1_555 1_555
C13 C12 1_555 1_555
H5 C13 1_555 1_555
C14 C13 1_555 1_555
H6 C14 1_555 1_555
C15 C10 1_555 1_555
C16 C15 1_555 1_555
C17 C16 1_555 1_555
H7 C17 1_555 1_555
C18 C17 1_555 1_555
H8 C18 1_555 1_555
C19 C18 1_555 1_555
H9 C19 1_555 1_555
C20 C19 1_555 1_555
H10 C20 1_555 1_555
C21 C8 1_555 1_555
C22 C2 1_555 1_555
C23 C22 1_555 1_555
H11 C23 1_555 1_555
C24 C23 1_555 1_555
H12 C24 1_555 1_555
C25 C24 1_555 1_555
H13 C25 1_555 1_555
C26 C25 1_555 1_555
H14 C26 1_555 1_555
C27 C22 1_555 1_555
H15 C27 1_555 1_555
C28 C7 1_555 1_555
C29 C28 1_555 1_555
H16 C29 1_555 1_555
C30 C29 1_555 1_555
H17 C30 1_555 1_555
C31 C30 1_555 1_555
H18 C31 1_555 1_555
C32 C31 1_555 1_555
H19 C32 1_555 1_555
C33 C28 1_555 1_555
H20 C33 1_555 1_555
C34 N1 1_555 1_555
C35 C34 1_555 1_555
C36 C35 1_555 1_555
H21 C36 1_555 1_555
C37 C36 1_555 1_555
H22 C37 1_555 1_555
C38 C37 1_555 1_555
H23 C38 1_555 1_555
C39 C34 1_555 1_555
H24 C39 1_555 1_555
O4 C35 1_555 1_555
C40 O4 1_555 1_555
C41 C40 1_555 1_555
H25 C41 1_555 1_555
C42 C41 1_555 1_555
H26 C42 1_555 1_555
C43 C42 1_555 1_555
C44 C43 1_555 1_555
H27 C44 1_555 1_555
C45 C40 1_555 1_555
H28 C45 1_555 1_555
C46 C43 1_555 1_555
H29 C46 1_555 1_555
H30 C46 1_555 1_555
C47 C46 1_555 1_555
H31 C47 1_555 1_555
H32 C47 1_555 1_555
H33 C47 1_555 1_555
O6 C55 1_555 1_555
C55 C56 1_555 1_555
C56 D1 1_555 1_555
D2 C56 1_555 1_555
D3 C56 1_555 1_555
C57 C55 1_555 1_555
D4 C57 1_555 1_555
D5 C57 1_555 1_555
D6 C57 1_555 1_555
C5 C6 1_555 1_555
C6 C7 1_555 1_555
C8 C9 1_555 1_555
C14 C15 1_555 1_555
C16 C21 1_555 1_555
C20 C21 1_555 1_555
C26 C27 1_555 1_555
C32 C33 1_555 1_555
C38 C39 1_555 1_555
C44 C45 1_555 1_555

#END
