
#######################################################################
#
#                 Cambridge Crystallographic Data Centre
#                                CCDC 
#
#######################################################################
#
# If this CIF has been generated from an entry in the Cambridge 
# Structural Database, then it will include bibliographic, chemical, 
# crystal, experimental, refinement or atomic coordinate data resulting 
# from the CCDC's data processing and validation procedures.
#
#######################################################################

data_EPUPAI
_chemical_formula_moiety         'C54 H36 O4'
_chemical_name_systematic        
(ethene-1,1,2,2-tetrayltetrakis(4,1-phenylene))tetrakis(phenylmethanone)
_symmetry_cell_setting           triclinic
_symmetry_space_group_name_H-M   'P -1'
_symmetry_Int_Tables_number      2
_space_group_name_Hall           '-P 1'
loop_
_symmetry_equiv_pos_site_id
_symmetry_equiv_pos_as_xyz
1 x,y,z
2 -x,-y,-z
_cell_length_a                   10.9819(4)
_cell_length_b                   12.2293(4)
_cell_length_c                   15.9624(7)
_cell_angle_alpha                78.216(2)
_cell_angle_beta                 85.799(2)
_cell_angle_gamma                72.961(2)
_cell_volume                     2006.26
_cell_formula_units_Z            2
loop_
_atom_site_label
_atom_site_type_symbol
_atom_site_fract_x
_atom_site_fract_y
_atom_site_fract_z
O1 O -0.32590(14) 1.00752(15) 0.58868(12)
C1 C 0.19854(13) 1.00468(12) 0.74613(9)
C2 C 0.41913(13) 0.96401(12) 0.79264(10)
C3 C 0.14032(14) 1.22262(13) 0.72711(10)
H1 H 0.1332 1.2276 0.6687
C4 C 0.31728(13) 0.92979(12) 0.75656(9)
C5 C 0.09281(13) 0.98573(12) 0.70344(9)
C6 C 0.46379(14) 0.77453(13) 0.68686(10)
H2 H 0.5144 0.8241 0.6683
C7 C 0.16804(13) 1.11474(12) 0.78106(9)
C8 C 0.49782(14) 0.66520(13) 0.66533(10)
H3 H 0.5711 0.6421 0.6327
C9 C 0.59620(14) 1.03824(13) 0.86649(10)
C10 C 0.42389(14) 0.59013(13) 0.69195(10)
C11 C 0.45235(14) 1.06380(13) 0.75362(10)
H4 H 0.4159 1.1058 0.7017
C12 C 0.53818(14) 1.10187(13) 0.79030(10)
H5 H 0.5573 1.1702 0.7640
C13 C 0.35508(13) 0.81085(12) 0.73583(9)
C14 C 0.48040(14) 0.89879(13) 0.86771(10)
H6 H 0.4621 0.8300 0.8937
O2 O 0.79294(12) 0.99906(12) 0.93171(8)
C15 C 0.11125(15) 0.93619(14) 0.63061(10)
H7 H 0.1921 0.9166 0.6058
C16 C 0.13232(14) 1.31771(13) 0.84613(10)
C17 C 0.15648(15) 1.21016(13) 0.90030(10)
H8 H 0.1614 1.2054 0.9589
C18 C 0.58218(16) 0.41543(13) 0.63820(11)
C19 C 0.69486(16) 1.07325(15) 0.90546(10)
C20 C -0.03080(14) 1.02029(13) 0.73545(11)
H9 H -0.0462 1.0556 0.7831
C21 C 0.56821(15) 0.93552(14) 0.90391(10)
H10 H 0.6089 0.8909 0.9539
C22 C 0.12313(15) 1.32303(13) 0.75904(11)
H11 H 0.1052 1.3948 0.7219
C23 C 0.31631(16) 0.62580(14) 0.74185(12)
H12 H 0.2655 0.5763 0.7603
C24 C 0.01158(15) 0.91585(14) 0.59482(10)
H13 H 0.0268 0.8795 0.5477
C25 C 0.28375(15) 0.73368(13) 0.76442(11)
H14 H 0.2127 0.7550 0.7994
C26 C 0.45037(16) 0.47664(14) 0.66337(11)
C27 C -0.13082(15) 1.00310(14) 0.69776(11)
H15 H -0.2129 1.0285 0.7196
C28 C 0.12379(17) 1.42250(15) 0.88312(12)
C29 C 0.17339(15) 1.10961(13) 0.86850(10)
H16 H 0.1885 1.0381 0.9059
O3 O 0.36345(13) 0.43532(13) 0.65849(11)
O4 O 0.20190(15) 1.41669(13) 0.93550(10)
C30 C 0.68568(17) 0.40280(14) 0.68686(12)
H17 H 0.6747 0.4371 0.7349
C31 C -0.11144(15) 0.94882(14) 0.62799(11)
C32 C -0.21342(18) 0.82659(18) 0.55488(11)
C33 C 0.60158(18) 0.36482(15) 0.56626(12)
H18 H 0.5325 0.3717 0.5332
C34 C 0.67345(17) 1.19661(16) 0.91258(10)
C35 C 0.01972(18) 1.53165(14) 0.85763(11)
C36 C -0.22377(18) 0.93357(18) 0.58934(12)
C37 C 0.5539(2) 1.27673(16) 0.90740(12)
H19 H 0.4832 1.2545 0.8970
C38 C -0.08845(18) 1.53482(15) 0.81678(13)
H20 H -0.0955 1.4676 0.8014
C39 C 0.80501(19) 0.33983(16) 0.66484(14)
H21 H 0.8739 0.3294 0.6991
C40 C -0.3055(2) 0.8299(2) 0.49770(12)
H22 H -0.3682 0.8990 0.4791
C41 C -0.1224(2) 0.72267(18) 0.58212(13)
H23 H -0.0604 0.7190 0.6201
C42 C 0.7216(2) 0.30464(17) 0.54338(14)
H24 H 0.7338 0.2723 0.4944
C43 C -0.1767(3) 1.7357(2) 0.82002(19)
H25 H -0.2426 1.8043 0.8072
C44 C 0.8232(2) 0.29225(16) 0.59273(14)
H26 H 0.9046 0.2515 0.5773
C45 C 0.7780(2) 1.2310(2) 0.92937(12)
H27 H 0.8586 1.1777 0.9339
C46 C -0.3031(3) 0.7305(2) 0.46898(13)
H28 H -0.3635 0.7334 0.4301
C47 C -0.2134(3) 0.6281(2) 0.49685(15)
H29 H -0.2134 0.5613 0.4777
C48 C 0.0275(2) 1.63342(16) 0.87976(13)
H30 H 0.0991 1.6330 0.9077
C49 C -0.1232(2) 0.6237(2) 0.55310(15)
H31 H -0.0619 0.5536 0.5720
C50 C -0.0704(3) 1.73522(19) 0.86052(17)
H32 H -0.0643 1.8033 0.8750
C51 C 0.7627(3) 1.3425(3) 0.93910(16)
H33 H 0.8331 1.3650 0.9497
C52 C 0.5390(3) 1.38935(19) 0.91760(14)
H34 H 0.4587 1.4431 0.9139
C53 C -0.1863(2) 1.63723(19) 0.79864(16)
H35 H -0.2589 1.6383 0.7716
C54 C 0.6446(4) 1.4216(3) 0.93346(16)
H36 H 0.6352 1.4974 0.9403
loop_
_geom_bond_atom_site_label_1
_geom_bond_atom_site_label_2
_geom_bond_site_symmetry_1
_geom_bond_site_symmetry_2
O1 C36 1_555 1_555
C1 C4 1_555 1_555
C2 C4 1_555 1_555
C3 H1 1_555 1_555
C4 C13 1_555 1_555
C5 C1 1_555 1_555
C6 H2 1_555 1_555
C7 C1 1_555 1_555
C8 C6 1_555 1_555
H3 C8 1_555 1_555
C9 C12 1_555 1_555
C10 C8 1_555 1_555
C11 C2 1_555 1_555
H4 C11 1_555 1_555
C12 C11 1_555 1_555
H5 C12 1_555 1_555
C13 C6 1_555 1_555
C14 C2 1_555 1_555
H6 C14 1_555 1_555
O2 C19 1_555 1_555
C15 C5 1_555 1_555
H7 C15 1_555 1_555
C16 C17 1_555 1_555
C17 H8 1_555 1_555
C18 C26 1_555 1_555
C19 C9 1_555 1_555
C20 C5 1_555 1_555
H9 C20 1_555 1_555
C21 C9 1_555 1_555
H10 C21 1_555 1_555
C22 C3 1_555 1_555
H11 C22 1_555 1_555
C23 C10 1_555 1_555
H12 C23 1_555 1_555
C24 C15 1_555 1_555
H13 C24 1_555 1_555
C25 C13 1_555 1_555
H14 C25 1_555 1_555
C26 C10 1_555 1_555
C27 C20 1_555 1_555
H15 C27 1_555 1_555
C28 C16 1_555 1_555
C29 C7 1_555 1_555
H16 C29 1_555 1_555
O3 C26 1_555 1_555
O4 C28 1_555 1_555
C30 C18 1_555 1_555
H17 C30 1_555 1_555
C31 C24 1_555 1_555
C32 C36 1_555 1_555
C33 C18 1_555 1_555
H18 C33 1_555 1_555
C34 C19 1_555 1_555
C35 C28 1_555 1_555
C36 C31 1_555 1_555
C37 C34 1_555 1_555
H19 C37 1_555 1_555
C38 C35 1_555 1_555
H20 C38 1_555 1_555
C39 C30 1_555 1_555
H21 C39 1_555 1_555
C40 C32 1_555 1_555
H22 C40 1_555 1_555
C41 C32 1_555 1_555
H23 C41 1_555 1_555
C42 C33 1_555 1_555
H24 C42 1_555 1_555
C43 H25 1_555 1_555
C44 C39 1_555 1_555
H26 C44 1_555 1_555
C45 C34 1_555 1_555
H27 C45 1_555 1_555
C46 C40 1_555 1_555
H28 C46 1_555 1_555
C47 C46 1_555 1_555
H29 C47 1_555 1_555
C48 C35 1_555 1_555
H30 C48 1_555 1_555
C49 C41 1_555 1_555
H31 C49 1_555 1_555
C50 C43 1_555 1_555
H32 C50 1_555 1_555
C51 C45 1_555 1_555
H33 C51 1_555 1_555
C52 C37 1_555 1_555
H34 C52 1_555 1_555
C53 C38 1_555 1_555
H35 C53 1_555 1_555
C54 C51 1_555 1_555
H36 C54 1_555 1_555
C3 C7 1_555 1_555
C14 C21 1_555 1_555
C16 C22 1_555 1_555
C17 C29 1_555 1_555
C23 C25 1_555 1_555
C27 C31 1_555 1_555
C42 C44 1_555 1_555
C43 C53 1_555 1_555
C47 C49 1_555 1_555
C48 C50 1_555 1_555
C52 C54 1_555 1_555

#END
