
#######################################################################
#
#                 Cambridge Crystallographic Data Centre
#                                CCDC 
#
#######################################################################
#
# If this CIF has been generated from an entry in the Cambridge 
# Structural Database, then it will include bibliographic, chemical, 
# crystal, experimental, refinement or atomic coordinate data resulting 
# from the CCDC's data processing and validation procedures.
#
#######################################################################

data_EQALIS
_chemical_formula_moiety         'C22 H23 N1 O7 S2'
_chemical_name_systematic        
'Methyl 6-((((4-methylphenyl)sulfonyl)oxy)imino)-2-(phenylsulfonyl)bicyclo[2.2.1]heptane-2-carboxylate'
_symmetry_cell_setting           monoclinic
_symmetry_space_group_name_H-M   'P 21/n'
_symmetry_Int_Tables_number      14
_space_group_name_Hall           '-P 2yn'
loop_
_symmetry_equiv_pos_site_id
_symmetry_equiv_pos_as_xyz
1 x,y,z
2 1/2-x,1/2+y,1/2-z
3 -x,-y,-z
4 1/2+x,1/2-y,1/2+z
_cell_length_a                   9.1596(17)
_cell_length_b                   25.648(5)
_cell_length_c                   10.427(2)
_cell_angle_alpha                90
_cell_angle_beta                 111.923(3)
_cell_angle_gamma                90
_cell_volume                     2272.43
_exptl_crystal_colour            colorless
_exptl_crystal_description       block
_cell_formula_units_Z            4
loop_
_atom_site_label
_atom_site_type_symbol
_atom_site_fract_x
_atom_site_fract_y
_atom_site_fract_z
C1 C 0.6864(3) -0.13624(9) 0.7216(3)
H1 H 0.7010 -0.1515 0.8096
H2 H 0.6844 -0.1633 0.6573
H3 H 0.5887 -0.1175 0.6878
C2 C 0.8193(2) -0.09957(7) 0.7375(2)
C3 C 0.9091(2) -0.07878(8) 0.8646(2)
H4 H 0.8872 -0.0881 0.9418
C4 C 1.0311(2) -0.04448(8) 0.88003(18)
H5 H 1.0909 -0.0310 0.9665
C5 C 1.0624(2) -0.03066(7) 0.76495(18)
C6 C 0.9752(2) -0.05118(7) 0.63696(19)
H6 H 0.9976 -0.0421 0.5599
C7 C 0.8542(2) -0.08525(7) 0.6244(2)
H7 H 0.7948 -0.0989 0.5380
O1 O 1.13177(15) 0.06543(5) 0.70954(13)
N1 N 1.04837(16) 0.08854(6) 0.79008(14)
C8 C 1.0226(3) 0.16511(8) 0.6293(2)
H8 H 0.9739 0.1480 0.5405
H9 H 1.1326 0.1718 0.6465
C9 C 0.9354(3) 0.21534(8) 0.6370(2)
H10 H 0.9641 0.2456 0.5942
C10 C 0.9771(3) 0.22077(8) 0.7922(2)
H11 H 0.9217 0.2492 0.8155
H12 H 1.0895 0.2239 0.8435
C11 C 0.9126(2) 0.16699(6) 0.80886(17)
H13 H 0.9231 0.1574 0.9029
C12 C 0.7415(2) 0.16852(7) 0.69855(17)
C13 C 0.7593(3) 0.20496(8) 0.5855(2)
H14 H 0.7226 0.1879 0.4961
H15 H 0.7009 0.2371 0.5782
C14 C 0.6857(2) 0.11386(8) 0.6440(2)
C15 C 0.6370(3) 0.02943(8) 0.7091(3)
H16 H 0.5370 0.0279 0.6337
H17 H 0.6301 0.0117 0.7878
H18 H 0.7155 0.0129 0.6826
C16 C 0.6320(2) 0.17289(7) 0.92863(19)
C17 C 0.5454(2) 0.13072(7) 0.9453(2)
H19 H 0.4709 0.1147 0.8686
C18 C 0.5710(2) 0.11294(8) 1.0764(2)
H20 H 0.5129 0.0850 1.0887
C19 C 0.6822(2) 0.13632(9) 1.1892(2)
H21 H 0.6998 0.1238 1.2774
C20 C 0.7683(3) 0.17832(9) 1.1730(2)
H22 H 0.8433 0.1939 1.2500
C21 C 0.7429(2) 0.19713(7) 1.0424(2)
H23 H 0.7994 0.2257 1.0308
C22 C 1.00341(19) 0.13371(6) 0.74414(17)
O2 O 1.29098(19) -0.00319(6) 0.6892(2)
O3 O 1.30470(17) 0.02151(6) 0.92280(18)
O4 O 0.44544(16) 0.17992(7) 0.66849(17)
O5 O 0.6271(2) 0.25235(6) 0.77609(19)
O6 O 0.68001(16) 0.08366(5) 0.74450(15)
O7 O 0.6592(2) 0.09992(7) 0.52852(17)
S1 S 1.21676(5) 0.011935(18) 0.78069(6)
S2 S 0.59699(5) 0.197348(18) 0.76187(5)
loop_
_geom_bond_atom_site_label_1
_geom_bond_atom_site_label_2
_geom_bond_site_symmetry_1
_geom_bond_site_symmetry_2
C1 H1 1_555 1_555
H2 C1 1_555 1_555
H3 C1 1_555 1_555
C2 C1 1_555 1_555
C3 C2 1_555 1_555
H4 C3 1_555 1_555
C4 C3 1_555 1_555
H5 C4 1_555 1_555
C5 C4 1_555 1_555
C6 C5 1_555 1_555
H6 C6 1_555 1_555
C7 C2 1_555 1_555
H7 C7 1_555 1_555
O1 N1 1_555 1_555
N1 C22 1_555 1_555
C8 H8 1_555 1_555
H9 C8 1_555 1_555
C9 C8 1_555 1_555
H10 C9 1_555 1_555
C10 C9 1_555 1_555
H11 C10 1_555 1_555
H12 C10 1_555 1_555
C11 C10 1_555 1_555
H13 C11 1_555 1_555
C12 C11 1_555 1_555
C13 C9 1_555 1_555
H14 C13 1_555 1_555
H15 C13 1_555 1_555
C14 C12 1_555 1_555
C15 H16 1_555 1_555
H17 C15 1_555 1_555
H18 C15 1_555 1_555
C16 C17 1_555 1_555
C17 H19 1_555 1_555
C18 C17 1_555 1_555
H20 C18 1_555 1_555
C19 C18 1_555 1_555
H21 C19 1_555 1_555
C20 C19 1_555 1_555
H22 C20 1_555 1_555
C21 C16 1_555 1_555
H23 C21 1_555 1_555
C22 C8 1_555 1_555
O2 S1 1_555 1_555
O3 S1 1_555 1_555
O4 S2 1_555 1_555
O5 S2 1_555 1_555
O6 C14 1_555 1_555
O7 C14 1_555 1_555
S1 C5 1_555 1_555
S2 C12 1_555 1_555
C6 C7 1_555 1_555
O1 S1 1_555 1_555
C11 C22 1_555 1_555
C12 C13 1_555 1_555
C15 O6 1_555 1_555
C16 S2 1_555 1_555
C20 C21 1_555 1_555

#END
