
#######################################################################
#
#                 Cambridge Crystallographic Data Centre
#                                CCDC 
#
#######################################################################
#
# If this CIF has been generated from an entry in the Cambridge 
# Structural Database, then it will include bibliographic, chemical, 
# crystal, experimental, refinement or atomic coordinate data resulting 
# from the CCDC's data processing and validation procedures.
#
#######################################################################

data_EQEDUB
_chemical_formula_moiety         'C25 H26 O3'
_chemical_name_systematic        
3,5-dimethyl-2,4,6-triphenyltetrahydro-2H-pyran-2,4-diol
_symmetry_cell_setting           orthorhombic
_symmetry_space_group_name_H-M   'P 21 21 21'
_symmetry_Int_Tables_number      19
_space_group_name_Hall           'P 2ac 2ab'
loop_
_symmetry_equiv_pos_site_id
_symmetry_equiv_pos_as_xyz
1 x,y,z
2 1/2-x,-y,1/2+z
3 -x,1/2+y,1/2-z
4 1/2+x,1/2-y,-z
_cell_length_a                   8.6709(9)
_cell_length_b                   12.9435(16)
_cell_length_c                   17.587(2)
_cell_angle_alpha                90
_cell_angle_beta                 90
_cell_angle_gamma                90
_cell_volume                     1973.82
_exptl_crystal_colour            colorless
_cell_formula_units_Z            4
loop_
_atom_site_label
_atom_site_type_symbol
_atom_site_fract_x
_atom_site_fract_y
_atom_site_fract_z
O1 O 0.60530(15) 0.24432(13) 0.08720(7)
C1 C 0.6901(3) 0.14903(18) 0.08399(15)
C2 C 0.8120(3) 0.14504(18) 0.14821(14)
H1 H 0.7544 0.1461 0.1975
C3 C 0.9172(2) 0.2426(2) 0.14723(10)
C4 C 0.8172(3) 0.34048(18) 0.14552(14)
H2 H 0.7588 0.3423 0.1945
C5 C 0.6964(3) 0.33610(18) 0.08121(14)
C6 C 0.9045(4) 0.0445(2) 0.14653(18)
H3 H 0.9599 0.0393 0.0981
H4 H 0.8343 -0.0143 0.1519
H5 H 0.9787 0.0443 0.1886
O2 O 1.01867(17) 0.23938(19) 0.08231(7)
H6 H 0.9746 0.2664 0.0447
C7 C 0.9138(4) 0.4400(2) 0.14219(17)
H7 H 0.9891 0.4398 0.1837
H8 H 0.8458 0.5000 0.1474
H9 H 0.9680 0.4434 0.0934
O3 O 0.7777(3) 0.3285(2) 0.00937(14)
H10 H 0.7148 0.3141 -0.0254
C8 C 0.5822(3) 0.42499(19) 0.08723(15)
C9 C 0.4706(4) 0.4255(2) 0.14382(17)
H11 H 0.4636 0.3688 0.1779
C10 C 0.3693(4) 0.5075(2) 0.1512(2)
H12 H 0.2924 0.5069 0.1897
C11 C 0.3816(4) 0.5915(2) 0.1012(2)
H13 H 0.3128 0.6484 0.1055
C12 C 0.4937(5) 0.5911(2) 0.0460(2)
H14 H 0.5025 0.6483 0.0123
C13 C 0.5936(4) 0.50883(18) 0.03882(18)
H15 H 0.6707 0.5097 0.0004
C14 C 1.0180(2) 0.2424(2) 0.21891(10)
C15 C 0.9468(3) 0.2377(3) 0.28973(12)
H16 H 0.8375 0.2343 0.2927
C16 C 1.0338(3) 0.2380(3) 0.35626(12)
H17 H 0.9834 0.2335 0.4041
C17 C 1.1912(3) 0.2445(2) 0.35345(11)
H18 H 1.2503 0.2454 0.3989
C18 C 1.2624(2) 0.2499(2) 0.28358(11)
H19 H 1.3717 0.2542 0.2810
C19 C 1.1764(2) 0.2491(2) 0.21667(10)
H20 H 1.2276 0.2533 0.1690
C20 C 0.5747(3) 0.06355(18) 0.09317(15)
C21 C 0.4649(4) 0.0692(2) 0.15054(17)
H21 H 0.4624 0.1282 0.1827
C22 C 0.3586(4) -0.0098(2) 0.1618(2)
H22 H 0.2843 -0.0045 0.2013
C23 C 0.3613(4) -0.0955(2) 0.1156(2)
H23 H 0.2889 -0.1497 0.1227
C24 C 0.4701(5) -0.1017(2) 0.0591(2)
H24 H 0.4725 -0.1612 0.0276
C25 C 0.5766(4) -0.0237(2) 0.04672(17)
H25 H 0.6502 -0.0296 0.0069
O4? O 0.7711(6) 0.1612(4) 0.0119(3)
H26? H 0.7069 0.1624 -0.0239
loop_
_geom_bond_atom_site_label_1
_geom_bond_atom_site_label_2
_geom_bond_site_symmetry_1
_geom_bond_site_symmetry_2
O1 C1 1_555 1_555
C1 C2 1_555 1_555
C2 H1 1_555 1_555
C3 C2 1_555 1_555
C4 C3 1_555 1_555
H2 C4 1_555 1_555
C5 O1 1_555 1_555
C6 C2 1_555 1_555
H3 C6 1_555 1_555
H4 C6 1_555 1_555
H5 C6 1_555 1_555
O2 C3 1_555 1_555
H6 O2 1_555 1_555
C7 C4 1_555 1_555
H7 C7 1_555 1_555
H8 C7 1_555 1_555
H9 C7 1_555 1_555
O3 C5 1_555 1_555
H10 O3 1_555 1_555
C8 C5 1_555 1_555
C9 C8 1_555 1_555
H11 C9 1_555 1_555
C10 C9 1_555 1_555
H12 C10 1_555 1_555
C11 C10 1_555 1_555
H13 C11 1_555 1_555
C12 C11 1_555 1_555
H14 C12 1_555 1_555
C13 C8 1_555 1_555
H15 C13 1_555 1_555
C14 C3 1_555 1_555
C15 C14 1_555 1_555
H16 C15 1_555 1_555
C16 C15 1_555 1_555
H17 C16 1_555 1_555
C17 C16 1_555 1_555
H18 C17 1_555 1_555
C18 C17 1_555 1_555
H19 C18 1_555 1_555
C19 C14 1_555 1_555
H20 C19 1_555 1_555
C20 C1 1_555 1_555
C21 C20 1_555 1_555
H21 C21 1_555 1_555
C22 C21 1_555 1_555
H22 C22 1_555 1_555
C23 C22 1_555 1_555
H23 C23 1_555 1_555
C24 C23 1_555 1_555
H24 C24 1_555 1_555
C25 C20 1_555 1_555
H25 C25 1_555 1_555
C4 C5 1_555 1_555
C12 C13 1_555 1_555
C18 C19 1_555 1_555
C24 C25 1_555 1_555

#END
