
#######################################################################
#
#                 Cambridge Crystallographic Data Centre
#                                CCDC 
#
#######################################################################
#
# If this CIF has been generated from an entry in the Cambridge 
# Structural Database, then it will include bibliographic, chemical, 
# crystal, experimental, refinement or atomic coordinate data resulting 
# from the CCDC's data processing and validation procedures.
#
#######################################################################

data_EQEGEO
_chemical_formula_moiety         'C30 H22 Cl3 N1 O2 S2,C4 H8 O2'
_chemical_name_systematic        
'2,3,8-tris(4-chlorophenyl)-5-(1,3-dithiolan-2-ylidene)-2,3,7,8-tetrahydrocyclohepta[b]pyrrole-4,6(1H,5H)-dione ethyl acetate solvate'
_symmetry_cell_setting           monoclinic
_symmetry_space_group_name_H-M   'P 21/c'
_symmetry_Int_Tables_number      14
_space_group_name_Hall           '-P 2ybc'
loop_
_symmetry_equiv_pos_site_id
_symmetry_equiv_pos_as_xyz
1 x,y,z
2 -x,1/2+y,1/2-z
3 -x,-y,-z
4 x,1/2-y,1/2+z
_cell_length_a                   12.6039(11)
_cell_length_b                   13.6946(12)
_cell_length_c                   18.7475(16)
_cell_angle_alpha                90
_cell_angle_beta                 96.730(2)
_cell_angle_gamma                90
_cell_volume                     3213.62
_exptl_crystal_colour            yellow
_exptl_crystal_description       block
_chemical_melting_point          '153-155 deg.C'
_cell_formula_units_Z            4
loop_
_atom_site_label
_atom_site_type_symbol
_atom_site_fract_x
_atom_site_fract_y
_atom_site_fract_z
S1 S 0.21485(7) 0.60822(7) 0.23600(6)
Cl1 Cl 0.11748(9) 1.18375(9) 0.04853(8)
O1 O 0.40190(18) 0.67545(16) 0.20301(12)
N1 N 0.5302(2) 0.97803(19) 0.26218(15)
C1 C 0.4238(3) 0.7309(2) 0.3941(2)
C2 C 0.3890(3) 1.0324(3) 0.0780(2)
H1 H 0.4350 1.0028 0.0492
C3 C 0.3418(3) 1.0714(3) 0.1935(2)
H2 H 0.3559 1.0696 0.2433
C4 C 0.7983(3) 1.0497(3) 0.46261(19)
C5 C 0.2317(3) 1.1242(3) 0.0886(3)
C6 C 0.3002(3) 1.0815(3) 0.0461(2)
H3 H 0.2869 1.0855 -0.0037
C7 C 0.5903(3) 0.7313(3) 0.10565(19)
H4 H 0.5243 0.7145 0.0812
C8 C 0.7198(3) 0.9137(3) 0.3970(2)
H5 H 0.7272 0.8565 0.3713
C9 C 0.7876(3) 0.7804(3) 0.1768(2)
H6 H 0.8539 0.7972 0.2007
C10 C 0.6963(3) 0.8291(3) 0.1906(2)
H7 H 0.7022 0.8793 0.2242
C11 C 0.2509(3) 1.1197(3) 0.1613(2)
H8 H 0.2038 1.1487 0.1896
C12 C 0.5284(3) 0.7843(2) 0.40175(19)
H9 H 0.5775 0.7501 0.3744
H10 H 0.5584 0.7831 0.4518
C13 C 0.7785(3) 0.7063(3) 0.12690(19)
C14 C 0.2797(3) 0.6497(2) 0.3176(2)
C15 C 0.5082(3) 0.9687(2) 0.18438(18)
H11 H 0.5709 0.9905 0.1624
C16 C 0.4698(2) 0.8233(2) 0.24746(18)
C17 C 0.6997(3) 1.0857(3) 0.47242(19)
H12 H 0.6930 1.1435 0.4975
C18 C 0.6182(2) 0.9479(2) 0.40647(18)
C19 C 0.8095(3) 0.9647(3) 0.4257(2)
H13 H 0.8772 0.9413 0.4199
C20 C 0.3737(2) 0.7026(2) 0.32331(18)
C21 C 0.6095(3) 1.0336(2) 0.44400(18)
H14 H 0.5421 1.0570 0.4505
C22 C 0.4952(3) 0.8560(2) 0.17398(18)
H15 H 0.4351 0.8415 0.1374
C23 C 0.4185(2) 0.7309(2) 0.25602(18)
C24 C 0.6803(3) 0.6813(3) 0.0909(2)
H16 H 0.6749 0.6313 0.0571
C25 C 0.5958(2) 0.8057(2) 0.15583(18)
C26 C 0.4109(3) 1.0263(2) 0.15193(19)
C27 C 0.5030(2) 0.8955(2) 0.29572(18)
C28 C 0.5193(3) 0.8910(2) 0.37619(18)
H17 H 0.4569 0.9204 0.3945
C29 C 0.1112(3) 0.5456(3) 0.3441(3)
H18 H 0.1333 0.4779 0.3426
H19 H 0.0475 0.5488 0.3684
C30 C 0.0880(3) 0.5841(4) 0.2705(3)
H20 H 0.0467 0.6439 0.2708
H21 H 0.0469 0.5369 0.2402
S2 S 0.21705(8) 0.61797(7) 0.39267(6)
Cl2 Cl 0.91204(7) 1.11333(8) 0.49813(6)
O2 O 0.3831(2) 0.7114(2) 0.44897(14)
Cl3 Cl 0.89248(7) 0.64462(7) 0.10767(6)
C31 C 0.1943(4) 0.9064(3) 0.3233(3)
H22 H 0.1540 0.9095 0.3636
H23 H 0.2217 0.9701 0.3143
H24 H 0.2526 0.8615 0.3335
C32 C 0.1249(4) 0.8730(3) 0.2598(3)
O3 O 0.1762(3) 0.8678(2) 0.2027(2)
O4 O 0.0318(3) 0.8522(3) 0.2590(2)
C33 C 0.1150(5) 0.8355(5) 0.1380(3)
H25 H 0.0956 0.7675 0.1432
H26 H 0.0495 0.8733 0.1301
C34 C 0.1684(7) 0.8448(6) 0.0817(4)
H27 H 0.1242 0.8237 0.0392
H28 H 0.2317 0.8053 0.0885
H29 H 0.1878 0.9119 0.0765
loop_
_geom_bond_atom_site_label_1
_geom_bond_atom_site_label_2
_geom_bond_site_symmetry_1
_geom_bond_site_symmetry_2
S1 C14 1_555 1_555
Cl1 C5 1_555 1_555
O1 C23 1_555 1_555
N1 C15 1_555 1_555
C1 C12 1_555 1_555
C2 H1 1_555 1_555
C3 H2 1_555 1_555
C4 C17 1_555 1_555
C5 C6 1_555 1_555
C6 C2 1_555 1_555
H3 C6 1_555 1_555
C7 H4 1_555 1_555
C8 H5 1_555 1_555
C9 H6 1_555 1_555
C10 C9 1_555 1_555
H7 C10 1_555 1_555
C11 C3 1_555 1_555
H8 C11 1_555 1_555
C12 H9 1_555 1_555
H10 C12 1_555 1_555
C13 C9 1_555 1_555
C14 C20 1_555 1_555
C15 H11 1_555 1_555
C16 C22 1_555 1_555
C17 H12 1_555 1_555
C18 C8 1_555 1_555
C19 C4 1_555 1_555
H13 C19 1_555 1_555
C20 C1 1_555 1_555
C21 C17 1_555 1_555
H14 C21 1_555 1_555
C22 C15 1_555 1_555
H15 C22 1_555 1_555
C23 C16 1_555 1_555
C24 C7 1_555 1_555
H16 C24 1_555 1_555
C25 C7 1_555 1_555
C26 C2 1_555 1_555
C27 N1 1_555 1_555
C28 C12 1_555 1_555
H17 C28 1_555 1_555
C29 H18 1_555 1_555
H19 C29 1_555 1_555
C30 S1 1_555 1_555
H20 C30 1_555 1_555
H21 C30 1_555 1_555
S2 C14 1_555 1_555
Cl2 C4 1_555 1_555
O2 C1 1_555 1_555
Cl3 C13 1_555 1_555
C31 H22 1_555 1_555
H23 C31 1_555 1_555
H24 C31 1_555 1_555
C32 C31 1_555 1_555
O3 C32 1_555 1_555
O4 C32 1_555 1_555
C33 O3 1_555 1_555
H25 C33 1_555 1_555
H26 C33 1_555 1_555
C34 C33 1_555 1_555
H27 C34 1_555 1_555
H28 C34 1_555 1_555
H29 C34 1_555 1_555
C3 C26 1_555 1_555
C5 C11 1_555 1_555
C8 C19 1_555 1_555
C10 C25 1_555 1_555
C13 C24 1_555 1_555
C15 C26 1_555 1_555
C16 C27 1_555 1_555
C18 C21 1_555 1_555
C18 C28 1_555 1_555
C20 C23 1_555 1_555
C22 C25 1_555 1_555
C27 C28 1_555 1_555
C29 C30 1_555 1_555
C29 S2 1_555 1_555

#END
