
#######################################################################
#
#                 Cambridge Crystallographic Data Centre
#                                CCDC 
#
#######################################################################
#
# If this CIF has been generated from an entry in the Cambridge 
# Structural Database, then it will include bibliographic, chemical, 
# crystal, experimental, refinement or atomic coordinate data resulting 
# from the CCDC's data processing and validation procedures.
#
#######################################################################

data_EQESID
_chemical_formula_moiety         'C19 H19 N1 O3'
_chemical_name_systematic        
3-Benzoyl-1-isobutyl-1-azaspiro[3.5]nona-5,8-diene-2,7-dione
_symmetry_cell_setting           orthorhombic
_symmetry_space_group_name_H-M   'P b c a'
_symmetry_Int_Tables_number      61
_space_group_name_Hall           '-P 2ac 2ab'
loop_
_symmetry_equiv_pos_site_id
_symmetry_equiv_pos_as_xyz
1 x,y,z
2 1/2-x,-y,1/2+z
3 -x,1/2+y,1/2-z
4 1/2+x,1/2-y,-z
5 -x,-y,-z
6 1/2+x,y,1/2-z
7 x,1/2-y,1/2+z
8 1/2-x,1/2+y,z
_cell_length_a                   15.406(3)
_cell_length_b                   11.1729(19)
_cell_length_c                   19.300(3)
_cell_angle_alpha                90
_cell_angle_beta                 90
_cell_angle_gamma                90
_cell_volume                     3322.1
_exptl_crystal_colour            colorless
_exptl_crystal_description       block
_cell_formula_units_Z            8
loop_
_atom_site_label
_atom_site_type_symbol
_atom_site_fract_x
_atom_site_fract_y
_atom_site_fract_z
N1 N 0.18882(13) 0.04490(17) 0.12503(10)
O1 O 0.33674(11) 0.00596(15) 0.13927(9)
O2 O -0.10677(13) 0.23363(19) 0.21871(13)
O3 O 0.26853(14) -0.07651(18) 0.28680(11)
C1 C -0.03443(18) 0.1937(2) 0.20669(14)
C2 C 0.03344(17) 0.2693(2) 0.17742(13)
H1 H 0.0209 0.3486 0.1668
C3 C 0.11223(16) 0.2275(2) 0.16567(12)
H2 H 0.1530 0.2788 0.1461
C4 C 0.13944(14) 0.10227(19) 0.18211(12)
C5 C 0.06726(16) 0.0264(2) 0.20971(12)
H3 H 0.0783 -0.0538 0.2192
C6 C -0.01166(17) 0.0687(2) 0.22122(13)
H4 H -0.0539 0.0177 0.2390
C7 C 0.22856(14) 0.0961(2) 0.22394(12)
H5 H 0.2525 0.1759 0.2328
C8 C 0.26607(17) 0.0403(2) 0.15812(13)
C9 C 0.23007(16) 0.0186(2) 0.28769(13)
C10 C 0.18189(15) 0.0593(2) 0.35000(13)
C11 C 0.1571(2) 0.1775(2) 0.35815(14)
H6 H 0.1700 0.2332 0.3239
C12 C 0.1132(2) 0.2127(3) 0.41697(18)
H7 H 0.0969 0.2923 0.4225
C13 C 0.0937(2) 0.1304(4) 0.46726(18)
H8 H 0.0640 0.1543 0.5069
C14 C 0.1177(2) 0.0134(4) 0.45935(16)
H9 H 0.1040 -0.0420 0.4936
C15 C 0.16202(18) -0.0232(3) 0.40133(14)
H10 H 0.1786 -0.1028 0.3965
C16 C 0.16402(18) 0.0184(2) 0.05428(13)
H11 H 0.2160 0.0176 0.0259
H12 H 0.1274 0.0828 0.0376
C17 C 0.11679(19) -0.0981(2) 0.04397(14)
H13 H 0.0604 -0.0901 0.0670
C18 C 0.0986(2) -0.1170(3) -0.03247(16)
H14 H 0.1522 -0.1300 -0.0566
H15 H 0.0703 -0.0474 -0.0510
H16 H 0.0616 -0.1854 -0.0382
C19 C 0.1607(2) -0.2030(3) 0.07543(19)
H17 H 0.1249 -0.2727 0.0699
H18 H 0.1702 -0.1884 0.1239
H19 H 0.2154 -0.2159 0.0529
loop_
_geom_bond_atom_site_label_1
_geom_bond_atom_site_label_2
_geom_bond_site_symmetry_1
_geom_bond_site_symmetry_2
N1 C4 1_555 1_555
O1 C8 1_555 1_555
O2 C1 1_555 1_555
O3 C9 1_555 1_555
C1 C2 1_555 1_555
C2 H1 1_555 1_555
C3 C2 1_555 1_555
H2 C3 1_555 1_555
C4 C3 1_555 1_555
C5 C4 1_555 1_555
H3 C5 1_555 1_555
C6 C1 1_555 1_555
H4 C6 1_555 1_555
C7 C4 1_555 1_555
H5 C7 1_555 1_555
C8 N1 1_555 1_555
C9 C7 1_555 1_555
C10 C9 1_555 1_555
C11 C10 1_555 1_555
H6 C11 1_555 1_555
C12 C11 1_555 1_555
H7 C12 1_555 1_555
C13 C12 1_555 1_555
H8 C13 1_555 1_555
C14 C13 1_555 1_555
H9 C14 1_555 1_555
C15 C10 1_555 1_555
H10 C15 1_555 1_555
C16 N1 1_555 1_555
H11 C16 1_555 1_555
H12 C16 1_555 1_555
C17 C16 1_555 1_555
H13 C17 1_555 1_555
C18 C17 1_555 1_555
H14 C18 1_555 1_555
H15 C18 1_555 1_555
H16 C18 1_555 1_555
C19 C17 1_555 1_555
H17 C19 1_555 1_555
H18 C19 1_555 1_555
H19 C19 1_555 1_555
C5 C6 1_555 1_555
C7 C8 1_555 1_555
C14 C15 1_555 1_555

#END
