
#######################################################################
#
#                 Cambridge Crystallographic Data Centre
#                                CCDC 
#
#######################################################################
#
# If this CIF has been generated from an entry in the Cambridge 
# Structural Database, then it will include bibliographic, chemical, 
# crystal, experimental, refinement or atomic coordinate data resulting 
# from the CCDC's data processing and validation procedures.
#
#######################################################################

data_EQESEZ
_chemical_formula_moiety         'C22 H21 N1 O3'
_chemical_name_systematic        
1-Benzyl-6-hydroxy-3-phenyl-2a,3,5,6-tetrahydro-4aH-[1]benzofuro[3a,3-b]azet-2(1H)-one
_symmetry_cell_setting           monoclinic
_symmetry_space_group_name_H-M   'P 21/c'
_symmetry_Int_Tables_number      14
_space_group_name_Hall           '-P 2ybc'
loop_
_symmetry_equiv_pos_site_id
_symmetry_equiv_pos_as_xyz
1 x,y,z
2 -x,1/2+y,1/2-z
3 -x,-y,-z
4 x,1/2-y,1/2+z
_cell_length_a                   8.281(3)
_cell_length_b                   17.475(6)
_cell_length_c                   12.655(4)
_cell_angle_alpha                90
_cell_angle_beta                 101.793(4)
_cell_angle_gamma                90
_cell_volume                     1792.66
_exptl_crystal_colour            colorless
_exptl_crystal_description       block
_cell_formula_units_Z            4
loop_
_atom_site_label
_atom_site_type_symbol
_atom_site_fract_x
_atom_site_fract_y
_atom_site_fract_z
N1 N 0.26073(17) 0.19146(9) 0.47167(12)
O1 O 0.31644(14) 0.29174(7) 0.66882(10)
O2 O 0.01784(15) 0.24608(9) 0.37313(11)
O3 O 0.89989(15) 0.28323(9) 0.65199(12)
H1 H 0.9450 0.2783 0.7156
C1 C 0.40131(19) 0.24321(10) 0.51508(14)
C2 C 0.5436(2) 0.23056(11) 0.46115(16)
H2 H 0.5215 0.2233 0.3868
C3 C 0.6985(2) 0.22917(11) 0.51308(16)
H3 H 0.7804 0.2195 0.4743
C4 C 0.7478(2) 0.24256(11) 0.63176(16)
H4 H 0.7632 0.1932 0.6692
C5 C 0.6149(2) 0.28742(11) 0.67078(14)
H5 H 0.6099 0.3388 0.6414
H6 H 0.6427 0.2913 0.7489
C6 C 0.44667(19) 0.24933(10) 0.63668(14)
H7 H 0.4513 0.1979 0.6680
C7 C 0.2401(2) 0.34307(10) 0.58342(15)
H8 H 0.1205 0.3394 0.5780
C8 C 0.2775(2) 0.31004(11) 0.47827(15)
H9 H 0.3089 0.3471 0.4279
C9 C 0.1572(2) 0.24771(11) 0.42861(15)
C10 C 0.2872(2) 0.42615(10) 0.60575(16)
C11 C 0.3819(3) 0.45120(12) 0.70142(18)
H10 H 0.4259 0.4158 0.7544
C12 C 0.4130(3) 0.52841(13) 0.7202(2)
H11 H 0.4782 0.5442 0.7853
C13 C 0.3489(3) 0.58124(13) 0.6444(2)
H12 H 0.3701 0.6330 0.6575
C14 C 0.2534(4) 0.55797(13) 0.5488(2)
H13 H 0.2086 0.5938 0.4966
C15 C 0.2237(3) 0.48084(13) 0.5299(2)
H14 H 0.1591 0.4654 0.4644
C16 C 0.2512(3) 0.10902(11) 0.46379(17)
H15 H 0.3587 0.0896 0.4577
H16 H 0.1741 0.0956 0.3978
C17 C 0.1985(2) 0.06902(10) 0.55716(16)
C18 C 0.1277(2) 0.10755(12) 0.63121(17)
H17 H 0.1145 0.1604 0.6260
C19 C 0.0762(3) 0.06818(13) 0.71335(19)
H18 H 0.0285 0.0947 0.7629
C20 C 0.0949(3) -0.00962(15) 0.7220(2)
H19 H 0.0608 -0.0359 0.7775
C21 C 0.1643(3) -0.04850(14) 0.6484(2)
H20 H 0.1762 -0.1014 0.6537
C22 C 0.2167(3) -0.00963(12) 0.5665(2)
H21 H 0.2645 -0.0364 0.5173
loop_
_geom_bond_atom_site_label_1
_geom_bond_atom_site_label_2
_geom_bond_site_symmetry_1
_geom_bond_site_symmetry_2
N1 C1 1_555 1_555
O1 C6 1_555 1_555
O2 C9 1_555 1_555
O3 H1 1_555 1_555
C1 C2 1_555 1_555
C2 H2 1_555 1_555
C3 C2 1_555 1_555
H3 C3 1_555 1_555
C4 O3 1_555 1_555
H4 C4 1_555 1_555
C5 C4 1_555 1_555
H5 C5 1_555 1_555
H6 C5 1_555 1_555
C6 C1 1_555 1_555
H7 C6 1_555 1_555
C7 O1 1_555 1_555
H8 C7 1_555 1_555
C8 C1 1_555 1_555
H9 C8 1_555 1_555
C9 N1 1_555 1_555
C10 C7 1_555 1_555
C11 C10 1_555 1_555
H10 C11 1_555 1_555
C12 C11 1_555 1_555
H11 C12 1_555 1_555
C13 C12 1_555 1_555
H12 C13 1_555 1_555
C14 C13 1_555 1_555
H13 C14 1_555 1_555
C15 C10 1_555 1_555
H14 C15 1_555 1_555
C16 N1 1_555 1_555
H15 C16 1_555 1_555
H16 C16 1_555 1_555
C17 C16 1_555 1_555
C18 C17 1_555 1_555
H17 C18 1_555 1_555
C19 C18 1_555 1_555
H18 C19 1_555 1_555
C20 C19 1_555 1_555
H19 C20 1_555 1_555
C21 C20 1_555 1_555
H20 C21 1_555 1_555
C22 C17 1_555 1_555
H21 C22 1_555 1_555
C3 C4 1_555 1_555
C5 C6 1_555 1_555
C7 C8 1_555 1_555
C8 C9 1_555 1_555
C14 C15 1_555 1_555
C21 C22 1_555 1_555

#END
