
#######################################################################
#
#                 Cambridge Crystallographic Data Centre
#                                CCDC 
#
#######################################################################
#
# If this CIF has been generated from an entry in the Cambridge 
# Structural Database, then it will include bibliographic, chemical, 
# crystal, experimental, refinement or atomic coordinate data resulting 
# from the CCDC's data processing and validation procedures.
#
#######################################################################

data_EQITOO
_chemical_formula_moiety         'C15 H15 N2 O5,C2 H6 O1,H2 O1'
_chemical_name_systematic        
"(E)-N'-(2-Hydroxy-3-methoxybenzylidene)-3,4-dihydroxybenzoylhydrazide ethanol solvate monohydrate"
_chemical_properties_biological  'tested for antibacterial activity'
_symmetry_cell_setting           monoclinic
_symmetry_space_group_name_H-M   'P 21/n'
_symmetry_Int_Tables_number      14
_space_group_name_Hall           '-P 2yn'
loop_
_symmetry_equiv_pos_site_id
_symmetry_equiv_pos_as_xyz
1 x,y,z
2 1/2-x,1/2+y,1/2-z
3 -x,-y,-z
4 1/2+x,1/2-y,1/2+z
_cell_length_a                   7.4590(15)
_cell_length_b                   18.316(4)
_cell_length_c                   13.638(3)
_cell_angle_alpha                90
_cell_angle_beta                 101.58(3)
_cell_angle_gamma                90
_cell_volume                     1825.29
_exptl_crystal_colour            colorless
_exptl_crystal_description       prism
_cell_formula_units_Z            4
loop_
_atom_site_label
_atom_site_type_symbol
_atom_site_fract_x
_atom_site_fract_y
_atom_site_fract_z
N1 N 0.2114(4) 0.02364(18) 0.9909(3)
H1 H 0.2353 0.0264 1.0552
N2 N 0.1264(4) 0.08065(17) 0.9341(3)
H2 H 0.0981 0.0768 0.8700
O1 O 0.3639(4) -0.03659(15) 1.1641(2)
H3 H 0.3482 0.0008 1.1304
O2 O 0.5361(4) -0.14536(15) 1.2588(3)
O3 O 0.1173(4) 0.14949(15) 1.0707(2)
O4 O -0.0485(4) 0.40089(16) 0.9480(2)
O5 O -0.1991(4) 0.38885(15) 0.7510(2)
H4 H -0.2480 0.3788 0.6932
C1 C 0.4930(5) -0.1527(2) 1.1574(4)
C2 C 0.3994(5) -0.0931(2) 1.1062(4)
C3 C 0.3500(5) -0.0938(2) 1.0024(3)
C4 C 0.3932(5) -0.1554(2) 0.9495(4)
H6 H 0.3608 -0.1564 0.8800
C5 C 0.4832(5) -0.2141(2) 1.0004(4)
H7 H 0.5118 -0.2544 0.9651
C6 C 0.5310(5) -0.2134(2) 1.1036(4)
H8 H 0.5891 -0.2537 1.1374
C7 C 0.6504(6) -0.2001(3) 1.3161(4)
H9 H 0.5828 -0.2448 1.3151
H10 H 0.6886 -0.1837 1.3839
H11 H 0.7561 -0.2083 1.2874
C8 C 0.2544(5) -0.0334(2) 0.9472(4)
H12 H 0.2234 -0.0361 0.8777
C9 C 0.0874(5) 0.1430(2) 0.9796(4)
C10 C 0.0070(5) 0.2045(2) 0.9131(3)
C11 C -0.0708(5) 0.1971(2) 0.8126(3)
H13 H -0.0761 0.1515 0.7822
C12 C -0.1413(5) 0.2583(2) 0.7571(3)
H14 H -0.1942 0.2529 0.6897
C13 C -0.1342(5) 0.3268(2) 0.8004(3)
C14 C -0.0563(5) 0.3340(2) 0.9020(3)
C15 C 0.0140(5) 0.2736(2) 0.9558(3)
H15 H 0.0680 0.2791 1.0230
H23 H -0.0706 0.4428 0.9203
O6 O 0.8413(4) 0.53538(16) 0.8716(2)
H21 H 0.8906 0.5550 0.9270
H22 H 0.8556 0.5386 0.8113
O7 O 0.0436(5) 1.0310(2) 0.7220(3)
H5 H -0.0468 1.0509 0.6883
C16 C 0.1048(9) 0.9238(3) 0.6333(6)
H16 H 0.1299 0.8950 0.6933
H17 H 0.1770 0.9061 0.5874
H18 H -0.0227 0.9200 0.6031
C17 C 0.1510(8) 1.0002(3) 0.6577(5)
H19 H 0.2792 1.0035 0.6897
H20 H 0.1333 1.0284 0.5963
loop_
_geom_bond_atom_site_label_1
_geom_bond_atom_site_label_2
_geom_bond_site_symmetry_1
_geom_bond_site_symmetry_2
N1 H1 1_555 1_555
N2 N1 1_555 1_555
H2 N2 1_555 1_555
O1 H3 1_555 1_555
O2 C1 1_555 1_555
O3 C9 1_555 1_555
O4 C14 1_555 1_555
O5 H4 1_555 1_555
O6 H21 1_555 1_555
O7 H5 1_555 1_555
C1 C2 1_555 1_555
C2 O1 1_555 1_555
C3 C2 1_555 1_555
C4 C3 1_555 1_555
H6 C4 1_555 1_555
C5 C4 1_555 1_555
H7 C5 1_555 1_555
C6 C1 1_555 1_555
H8 C6 1_555 1_555
C7 O2 1_555 1_555
H9 C7 1_555 1_555
H10 C7 1_555 1_555
H11 C7 1_555 1_555
C8 N1 1_555 1_555
H12 C8 1_555 1_555
C9 N2 1_555 1_555
C10 C9 1_555 1_555
C11 C10 1_555 1_555
H13 C11 1_555 1_555
C12 C11 1_555 1_555
H14 C12 1_555 1_555
C13 O5 1_555 1_555
C14 C13 1_555 1_555
C15 C10 1_555 1_555
H15 C15 1_555 1_555
C16 H16 1_555 1_555
H17 C16 1_555 1_555
H18 C16 1_555 1_555
C17 O7 1_555 1_555
H19 C17 1_555 1_555
H20 C17 1_555 1_555
H22 O6 1_555 1_555
H23 O4 1_555 1_555
C3 C8 1_555 1_555
C5 C6 1_555 1_555
C12 C13 1_555 1_555
C14 C15 1_555 1_555
C16 C17 1_555 1_555

#END
