
#######################################################################
#
#                 Cambridge Crystallographic Data Centre
#                                CCDC 
#
#######################################################################
#
# If this CIF has been generated from an entry in the Cambridge 
# Structural Database, then it will include bibliographic, chemical, 
# crystal, experimental, refinement or atomic coordinate data resulting 
# from the CCDC's data processing and validation procedures.
#
#######################################################################

data_EQITEE
_chemical_name_common            'Di-isopropyl genistein-7-yl phosphate'
_chemical_formula_moiety         'C21 H23 O8 P1'
_chemical_name_systematic        
'5-Hydroxy-3-(4-hydroxyphenyl)-4-oxo-4H-chromen-7-yl di-isopropyl phosphate'
_symmetry_cell_setting           monoclinic
_symmetry_space_group_name_H-M   'P 21/n'
_symmetry_Int_Tables_number      14
_space_group_name_Hall           '-P 2yn'
loop_
_symmetry_equiv_pos_site_id
_symmetry_equiv_pos_as_xyz
1 x,y,z
2 1/2-x,1/2+y,1/2-z
3 -x,-y,-z
4 1/2+x,1/2-y,1/2+z
_cell_length_a                   9.0690(18)
_cell_length_b                   9.0412(18)
_cell_length_c                   26.544(5)
_cell_angle_alpha                90
_cell_angle_beta                 99.44(3)
_cell_angle_gamma                90
_cell_volume                     2146.99
_exptl_crystal_colour            colorless
_exptl_crystal_description       prismatic
_chemical_melting_point          162.5-163.5deg.C
_cell_formula_units_Z            4
_exptl_crystal_recrystallization_method ethanol
loop_
_atom_site_label
_atom_site_type_symbol
_atom_site_fract_x
_atom_site_fract_y
_atom_site_fract_z
P1 P 0.47380(9) 0.44785(9) 0.19551(3)
O1 O 0.4927(3) 0.2909(3) 0.18543(8)
O2 O 0.6187(2) 0.5346(3) 0.21502(8)
O3 O 0.3707(2) 0.4828(2) 0.23472(7)
O4 O 0.4005(2) 0.5378(2) 0.14659(7)
O5 O -0.0709(2) 0.3126(2) 0.09251(7)
O6 O 0.2662(3) 0.3927(3) -0.02626(8)
O7 O 0.0130(2) 0.2597(2) -0.05316(7)
O8 O -0.5990(2) -0.0916(3) -0.12424(9)
C1 C 0.2309(3) 0.4014(3) 0.02122(10)
C2 C 0.3325(3) 0.4631(3) 0.05993(10)
H1 H 0.4245 0.4972 0.0536
C3 C 0.2953(3) 0.4732(3) 0.10828(10)
C4 C 0.1606(3) 0.4260(3) 0.11950(10)
H2 H 0.1373 0.4360 0.1522
C5 C 0.0607(3) 0.3629(3) 0.08039(10)
C6 C 0.0921(3) 0.3467(3) 0.03082(9)
C7 C -0.0131(3) 0.2737(3) -0.00856(10)
C8 C -0.1498(3) 0.2177(3) 0.00724(9)
C9 C -0.1668(3) 0.2411(3) 0.05621(11)
H3 H -0.2535 0.2042 0.0660
C10 C -0.2663(3) 0.1387(3) -0.02813(10)
C11 C -0.2293(3) 0.0256(3) -0.05976(11)
H4 H -0.1293 0.0024 -0.0594
C12 C -0.3379(3) -0.0521(3) -0.09148(11)
H5 H -0.3107 -0.1277 -0.1119
C13 C -0.4876(3) -0.0179(3) -0.09305(10)
C14 C -0.5265(3) 0.0929(3) -0.06196(11)
H6 H -0.6267 0.1158 -0.0626
C15 C -0.4174(3) 0.1699(3) -0.02994(10)
H7 H -0.4455 0.2441 -0.0092
C16 C 0.7527(4) 0.5148(6) 0.19004(17)
H8 H 0.7322 0.4319 0.1661
C17 C 0.7712(6) 0.6439(8) 0.1607(2)
H9 H 0.8574 0.6321 0.1443
H10 H 0.7847 0.7285 0.1828
H11 H 0.6841 0.6577 0.1353
C18 C 0.8747(6) 0.4715(8) 0.2289(2)
H12 H 0.9630 0.4574 0.2138
H13 H 0.8500 0.3807 0.2443
H14 H 0.8926 0.5473 0.2545
C19 C 0.4014(4) 0.4167(4) 0.28640(12)
H15 H 0.4726 0.3354 0.2860
C20 C 0.4691(6) 0.5275(7) 0.32361(15)
H16 H 0.4888 0.4837 0.3570
H17 H 0.4017 0.6092 0.3239
H18 H 0.5611 0.5619 0.3143
C21 C 0.2599(6) 0.3551(6) 0.29754(17)
H19 H 0.2763 0.3111 0.3309
H20 H 0.2239 0.2812 0.2726
H21 H 0.1872 0.4327 0.2964
H22 H 0.192(4) 0.344(5) -0.0430(15)
H23 H -0.562(4) -0.152(5) -0.1439(16)
loop_
_geom_bond_atom_site_label_1
_geom_bond_atom_site_label_2
_geom_bond_site_symmetry_1
_geom_bond_site_symmetry_2
P1 O1 1_555 1_555
O2 P1 1_555 1_555
O3 P1 1_555 1_555
O4 P1 1_555 1_555
O5 C5 1_555 1_555
O6 C1 1_555 1_555
O7 C7 1_555 1_555
O8 C13 1_555 1_555
C1 C2 1_555 1_555
C2 H1 1_555 1_555
C3 O4 1_555 1_555
C4 C3 1_555 1_555
H2 C4 1_555 1_555
C5 C4 1_555 1_555
C6 C1 1_555 1_555
C7 C6 1_555 1_555
C8 C7 1_555 1_555
C9 O5 1_555 1_555
H3 C9 1_555 1_555
C10 C8 1_555 1_555
C11 C10 1_555 1_555
H4 C11 1_555 1_555
C12 C11 1_555 1_555
H5 C12 1_555 1_555
C13 C12 1_555 1_555
C14 C13 1_555 1_555
H6 C14 1_555 1_555
C15 C10 1_555 1_555
H7 C15 1_555 1_555
C16 O2 1_555 1_555
H8 C16 1_555 1_555
C17 C16 1_555 1_555
H9 C17 1_555 1_555
H10 C17 1_555 1_555
H11 C17 1_555 1_555
C18 C16 1_555 1_555
H12 C18 1_555 1_555
H13 C18 1_555 1_555
H14 C18 1_555 1_555
C19 O3 1_555 1_555
H15 C19 1_555 1_555
C20 C19 1_555 1_555
H16 C20 1_555 1_555
H17 C20 1_555 1_555
H18 C20 1_555 1_555
C21 C19 1_555 1_555
H19 C21 1_555 1_555
H20 C21 1_555 1_555
H21 C21 1_555 1_555
H22 O6 1_555 1_555
H23 O8 1_555 1_555
C2 C3 1_555 1_555
C5 C6 1_555 1_555
C8 C9 1_555 1_555
C14 C15 1_555 1_555

#END
