
#######################################################################
#
#                 Cambridge Crystallographic Data Centre
#                                CCDC 
#
#######################################################################
#
# If this CIF has been generated from an entry in the Cambridge 
# Structural Database, then it will include bibliographic, chemical, 
# crystal, experimental, refinement or atomic coordinate data resulting 
# from the CCDC's data processing and validation procedures.
#
#######################################################################

data_EQOMEE
_chemical_formula_moiety         'C33 H34 N3 P1 S1'
_chemical_name_systematic        
'N-(1,3-dimesityl-1,3-dihydro-2H-imidazol-2-ylidene)-P,P-diphenylphosphinothioic amide'
_symmetry_cell_setting           orthorhombic
_symmetry_space_group_name_H-M   'P 21 21 21'
_symmetry_Int_Tables_number      19
_space_group_name_Hall           'P 2ac 2ab'
loop_
_symmetry_equiv_pos_site_id
_symmetry_equiv_pos_as_xyz
1 x,y,z
2 1/2-x,-y,1/2+z
3 1/2+x,1/2-y,-z
4 -x,1/2+y,1/2-z
_cell_length_a                   8.7492(4)
_cell_length_b                   18.4412(11)
_cell_length_c                   18.4548(8)
_cell_angle_alpha                90
_cell_angle_beta                 90
_cell_angle_gamma                90
_cell_volume                     2977.6
_exptl_crystal_colour            yellow
_exptl_crystal_description       plates
_cell_formula_units_Z            4
loop_
_atom_site_label
_atom_site_type_symbol
_atom_site_fract_x
_atom_site_fract_y
_atom_site_fract_z
P1 P 0.94719(6) 0.02952(3) 0.02219(2)
S1 S 1.12493(8) 0.08012(4) 0.06134(4)
C1 C 0.8026(2) 0.09259(12) -0.01156(10)
N1 N 0.8637(2) -0.03159(10) 0.07052(8)
C2 C 0.9967(2) -0.02068(12) -0.05969(11)
N2 N 0.8653(3) -0.10417(11) 0.17460(10)
C3 C 0.9482(4) -0.30202(17) 0.06816(15)
C4 C 0.8523(3) -0.03890(13) 0.14096(11)
C5 C 1.0655(4) -0.25513(18) 0.08350(16)
H1 H 1.1642 -0.2680 0.0699
C6 C 0.6657(3) 0.06646(14) -0.03748(13)
H2 H 0.6473 0.0168 -0.0375
C7 C 0.9175(3) -0.08229(15) -0.07988(13)
H3 H 0.8407 -0.1006 -0.0502
C8 C 0.8648(4) 0.14020(16) 0.20850(12)
C9 C 0.6271(3) 0.09637(14) 0.15305(12)
C10 C 0.8930(3) -0.17162(14) 0.13791(12)
C11 C 0.5830(4) 0.16830(17) 0.14469(13)
H4 H 0.4895 0.1782 0.1228
C12 C 0.8117(4) 0.20984(17) 0.19949(13)
H5 H 0.8720 0.2481 0.2156
C13 C 0.8289(3) 0.16663(13) -0.01260(14)
H6 H 0.9206 0.1853 0.0048
C14 C 0.5549(4) 0.11361(18) -0.06364(16)
H7 H 0.4621 0.0955 -0.0802
C15 C 0.7714(3) 0.08392(15) 0.18371(11)
C16 C 0.7720(3) -0.21684(15) 0.12193(15)
C17 C 0.8011(4) -0.28195(17) 0.08688(15)
H8 H 0.7201 -0.3127 0.0758
C18 C 0.6724(4) 0.22549(17) 0.16752(13)
C19 C 0.8375(4) -0.09556(18) 0.24825(14)
H9 H 0.8396 -0.1321 0.2830
C20 C 1.1109(4) 0.00482(17) -0.10424(14)
H10 H 1.1645 0.0465 -0.0916
C21 C 0.8076(4) -0.02644(19) 0.26029(13)
H11 H 0.7839 -0.0057 0.3048
C22 C 1.0433(3) -0.18861(16) 0.11883(15)
C23 C 0.5819(4) 0.18637(18) -0.06512(15)
H12 H 0.5085 0.2180 -0.0832
C24 C 1.1720(4) -0.1388(2) 0.1355(3)
H13 H 1.1661 -0.0970 0.1047
H14 H 1.2672 -0.1634 0.1274
H15 H 1.1658 -0.1239 0.1853
C25 C 1.1463(5) -0.0315(2) -0.16796(16)
H16 H 1.2238 -0.0139 -0.1976
C26 C 1.0695(5) -0.0922(2) -0.18761(15)
H17 H 1.0958 -0.1168 -0.2298
C27 C 1.0167(4) 0.1253(2) 0.24343(18)
H18 H 1.0782 0.1684 0.2421
H19 H 1.0678 0.0872 0.2177
H20 H 1.0012 0.1109 0.2929
C28 C 0.5246(3) 0.03510(17) 0.13279(16)
H21 H 0.5685 0.0089 0.0930
H22 H 0.4265 0.0538 0.1188
H23 H 0.5127 0.0032 0.1735
C29 C 0.9533(5) -0.11696(19) -0.14486(17)
H24 H 0.8975 -0.1574 -0.1592
C30 C 0.6233(6) 0.3033(2) 0.1569(2)
H25 H 0.6638 0.3212 0.1120
H26 H 0.6612 0.3323 0.1962
H27 H 0.5138 0.3058 0.1558
C31 C 0.7186(5) 0.21251(16) -0.03958(17)
H28 H 0.7371 0.2622 -0.0405
C32 C 0.6100(4) -0.1973(2) 0.1431(2)
H29 H 0.5973 -0.2037 0.1944
H30 H 0.5397 -0.2283 0.1178
H31 H 0.5902 -0.1477 0.1305
C33 C 0.9770(6) -0.37499(19) 0.0345(2)
H32 H 1.0663 -0.3725 0.0044
H33 H 0.8904 -0.3887 0.0057
H34 H 0.9927 -0.4103 0.0720
N3 N 0.8180(3) 0.01008(12) 0.19398(9)
loop_
_geom_bond_atom_site_label_1
_geom_bond_atom_site_label_2
_geom_bond_site_symmetry_1
_geom_bond_site_symmetry_2
P1 S1 1_555 1_555
C1 P1 1_555 1_555
N1 P1 1_555 1_555
C2 P1 1_555 1_555
N2 C4 1_555 1_555
C3 C5 1_555 1_555
C4 N1 1_555 1_555
C5 H1 1_555 1_555
C6 C1 1_555 1_555
H2 C6 1_555 1_555
C7 C2 1_555 1_555
H3 C7 1_555 1_555
C8 C12 1_555 1_555
C9 C11 1_555 1_555
C10 N2 1_555 1_555
C11 H4 1_555 1_555
C12 H5 1_555 1_555
C13 C1 1_555 1_555
H6 C13 1_555 1_555
C14 C6 1_555 1_555
H7 C14 1_555 1_555
C15 C8 1_555 1_555
C16 C10 1_555 1_555
C17 C3 1_555 1_555
H8 C17 1_555 1_555
C18 C11 1_555 1_555
C19 N2 1_555 1_555
H9 C19 1_555 1_555
C20 C2 1_555 1_555
H10 C20 1_555 1_555
C21 C19 1_555 1_555
H11 C21 1_555 1_555
C22 C5 1_555 1_555
C23 C14 1_555 1_555
H12 C23 1_555 1_555
C24 C22 1_555 1_555
H13 C24 1_555 1_555
H14 C24 1_555 1_555
H15 C24 1_555 1_555
C25 C20 1_555 1_555
H16 C25 1_555 1_555
C26 C25 1_555 1_555
H17 C26 1_555 1_555
C27 C8 1_555 1_555
H18 C27 1_555 1_555
H19 C27 1_555 1_555
H20 C27 1_555 1_555
C28 C9 1_555 1_555
H21 C28 1_555 1_555
H22 C28 1_555 1_555
H23 C28 1_555 1_555
C29 C7 1_555 1_555
H24 C29 1_555 1_555
C30 C18 1_555 1_555
H25 C30 1_555 1_555
H26 C30 1_555 1_555
H27 C30 1_555 1_555
C31 C13 1_555 1_555
H28 C31 1_555 1_555
C32 C16 1_555 1_555
H29 C32 1_555 1_555
H30 C32 1_555 1_555
H31 C32 1_555 1_555
C33 C3 1_555 1_555
H32 C33 1_555 1_555
H33 C33 1_555 1_555
H34 C33 1_555 1_555
N3 C4 1_555 1_555
C9 C15 1_555 1_555
C10 C22 1_555 1_555
C12 C18 1_555 1_555
C15 N3 1_555 1_555
C16 C17 1_555 1_555
C21 N3 1_555 1_555
C23 C31 1_555 1_555
C26 C29 1_555 1_555

#END
