
#######################################################################
#
#                 Cambridge Crystallographic Data Centre
#                                CCDC 
#
#######################################################################
#
# If this CIF has been generated from an entry in the Cambridge 
# Structural Database, then it will include bibliographic, chemical, 
# crystal, experimental, refinement or atomic coordinate data resulting 
# from the CCDC's data processing and validation procedures.
#
#######################################################################

data_EQUCOK
_chemical_formula_moiety         'C20 H22 N2 O6'
_chemical_name_systematic        
2-(2-(2-hydroxyethoxy)ethyl)-9-(2-hydroxyethyl)-8,9-dihydro-6-oxa-2,9-diazacyclohepta[1,2,3-cd]phenalene-1,3(2H,7H)-dione
_symmetry_cell_setting           orthorhombic
_symmetry_space_group_name_H-M   'P b c a'
_symmetry_Int_Tables_number      61
_space_group_name_Hall           '-P 2ac 2ab'
loop_
_symmetry_equiv_pos_site_id
_symmetry_equiv_pos_as_xyz
1 x,y,z
2 1/2-x,-y,1/2+z
3 -x,1/2+y,1/2-z
4 1/2+x,1/2-y,-z
5 -x,-y,-z
6 1/2+x,y,1/2-z
7 x,1/2-y,1/2+z
8 1/2-x,1/2+y,z
_cell_length_a                   11.177(4)
_cell_length_b                   10.727(4)
_cell_length_c                   29.751(11)
_cell_angle_alpha                90
_cell_angle_beta                 90
_cell_angle_gamma                90
_cell_volume                     3567.02
_exptl_crystal_colour            yellow
_exptl_crystal_description       prismatic
_cell_formula_units_Z            8
_exptl_crystal_preparation       Luminescent
loop_
_atom_site_label
_atom_site_type_symbol
_atom_site_fract_x
_atom_site_fract_y
_atom_site_fract_z
N1 N 0.4123(2) 0.2771(3) 0.61840(9)
N2 N 0.4122(2) 0.2833(3) 0.40296(9)
O1 O 0.5160(2) 0.1015(3) 0.60183(8)
O2 O 0.3123(2) 0.4558(3) 0.63524(9)
O3 O 0.3597(2) 0.5382(2) 0.42637(8)
O4 O 0.5581(3) 0.3579(3) 0.32195(9)
H1 H 0.5896 0.4209 0.3321
O5 O 0.5508(2) 0.3668(3) 0.70360(9)
O6 O 0.6596(3) 0.6027(3) 0.72376(12)
H2 H 0.5942 0.6042 0.7113
C1 C 0.4682(3) 0.1973(4) 0.58774(12)
C2 C 0.3565(3) 0.3873(4) 0.60626(13)
C3 C 0.3501(3) 0.4175(3) 0.55819(11)
C4 C 0.4021(3) 0.3368(3) 0.52582(11)
C5 C 0.4658(3) 0.2312(3) 0.54067(12)
C6 C 0.5271(3) 0.1606(3) 0.50913(12)
H3 H 0.5758 0.0958 0.5190
C7 C 0.5180(3) 0.1834(4) 0.46388(13)
H4 H 0.5628 0.1355 0.4440
C8 C 0.4433(3) 0.2765(3) 0.44702(12)
C9 C 0.3941(3) 0.3657(3) 0.47907(11)
C10 C 0.3455(3) 0.4853(4) 0.46804(12)
C11 C 0.2955(3) 0.5605(4) 0.50021(13)
H5 H 0.2606 0.6356 0.4918
C12 C 0.2965(3) 0.5262(4) 0.54491(13)
H6 H 0.2605 0.5774 0.5662
C13 C 0.2993(3) 0.3444(4) 0.39101(12)
H7 H 0.2397 0.3245 0.4136
H8 H 0.2715 0.3114 0.3625
C14 C 0.3103(4) 0.4816(4) 0.38742(13)
H9 H 0.3603 0.5015 0.3618
H10 H 0.2317 0.5167 0.3819
C15 C 0.4688(3) 0.2024(4) 0.36923(12)
H11 H 0.4131 0.1892 0.3447
H12 H 0.4854 0.1220 0.3827
C16 C 0.5822(3) 0.2551(4) 0.35087(13)
H13 H 0.6329 0.2822 0.3755
H14 H 0.6247 0.1910 0.3343
C17 C 0.4093(3) 0.2357(4) 0.66546(12)
H15 H 0.3825 0.1497 0.6661
H16 H 0.3503 0.2852 0.6813
C18 C 0.5258(4) 0.2442(4) 0.69056(13)
H17 H 0.5221 0.1915 0.7170
H18 H 0.5900 0.2137 0.6716
C19 C 0.6600(4) 0.3768(5) 0.72830(15)
H19 H 0.7273 0.3661 0.7081
H20 H 0.6635 0.3112 0.7507
C20 C 0.6684(6) 0.4958(5) 0.7500(2)
H21 H 0.6060 0.4997 0.7726
H22 H 0.7444 0.4988 0.7657
loop_
_geom_bond_atom_site_label_1
_geom_bond_atom_site_label_2
_geom_bond_site_symmetry_1
_geom_bond_site_symmetry_2
N1 C1 1_555 1_555
N2 C8 1_555 1_555
O1 C1 1_555 1_555
O2 C2 1_555 1_555
O3 C10 1_555 1_555
O4 H1 1_555 1_555
O5 C18 1_555 1_555
O6 H2 1_555 1_555
C1 C5 1_555 1_555
C2 N1 1_555 1_555
C3 C2 1_555 1_555
C4 C3 1_555 1_555
C5 C4 1_555 1_555
C6 C5 1_555 1_555
H3 C6 1_555 1_555
C7 C6 1_555 1_555
H4 C7 1_555 1_555
C8 C7 1_555 1_555
C9 C4 1_555 1_555
C10 C9 1_555 1_555
C11 C10 1_555 1_555
H5 C11 1_555 1_555
C12 C3 1_555 1_555
H6 C12 1_555 1_555
C13 N2 1_555 1_555
H7 C13 1_555 1_555
H8 C13 1_555 1_555
C14 O3 1_555 1_555
H9 C14 1_555 1_555
H10 C14 1_555 1_555
C15 N2 1_555 1_555
H11 C15 1_555 1_555
H12 C15 1_555 1_555
C16 O4 1_555 1_555
H13 C16 1_555 1_555
H14 C16 1_555 1_555
C17 N1 1_555 1_555
H15 C17 1_555 1_555
H16 C17 1_555 1_555
C18 C17 1_555 1_555
H17 C18 1_555 1_555
H18 C18 1_555 1_555
C19 O5 1_555 1_555
H19 C19 1_555 1_555
H20 C19 1_555 1_555
C20 O6 1_555 1_555
H21 C20 1_555 1_555
H22 C20 1_555 1_555
C8 C9 1_555 1_555
C11 C12 1_555 1_555
C13 C14 1_555 1_555
C15 C16 1_555 1_555
C19 C20 1_555 1_555

#END
