
#######################################################################
#
#                 Cambridge Crystallographic Data Centre
#                                CCDC 
#
#######################################################################
#
# If this CIF has been generated from an entry in the Cambridge 
# Structural Database, then it will include bibliographic, chemical, 
# crystal, experimental, refinement or atomic coordinate data resulting 
# from the CCDC's data processing and validation procedures.
#
#######################################################################

data_EQUPUD
_chemical_formula_moiety         'C23 H22 O6'
_chemical_name_systematic        
'ethyl 3-(6,7-dimethoxy-2-methyl-4-oxo-4H-chromen-3-yl)-3-phenylacrylate'
_symmetry_cell_setting           monoclinic
_symmetry_space_group_name_H-M   'P 21/c'
_symmetry_Int_Tables_number      14
_space_group_name_Hall           '-P 2ybc'
loop_
_symmetry_equiv_pos_site_id
_symmetry_equiv_pos_as_xyz
1 x,y,z
2 -x,1/2+y,1/2-z
3 -x,-y,-z
4 x,1/2-y,1/2+z
_cell_length_a                   13.017(3)
_cell_length_b                   12.741(3)
_cell_length_c                   13.177(3)
_cell_angle_alpha                90
_cell_angle_beta                 115.406(5)
_cell_angle_gamma                90
_cell_volume                     1974.05
_exptl_crystal_colour            colorless
_exptl_crystal_description       prismatic
_cell_formula_units_Z            4
loop_
_atom_site_label
_atom_site_type_symbol
_atom_site_fract_x
_atom_site_fract_y
_atom_site_fract_z
O1 O 0.19222(10) 0.06767(10) 0.23154(10)
O2 O 0.48535(9) -0.01261(9) 0.21111(9)
O3 O 0.53746(10) 0.19454(10) 0.59517(10)
O4 O 0.71111(9) 0.13616(11) 0.56913(10)
O5 O 0.23292(12) 0.12837(12) -0.02822(12)
O6 O 0.10023(10) 0.08286(10) -0.19715(10)
C1 C 0.28133(13) 0.04023(13) 0.22845(13)
C2 C 0.28405(14) -0.02505(12) 0.13872(13)
C3 C 0.38270(14) -0.04672(13) 0.13301(14)
C4 C 0.49002(13) 0.04131(12) 0.30356(13)
C5 C 0.39389(12) 0.06990(12) 0.31486(13)
C6 C 0.40688(13) 0.12485(12) 0.41288(13)
H1 H 0.3429 0.1471 0.4213
C7 C 0.51336(13) 0.14548(12) 0.49573(13)
C8 C 0.61117(13) 0.11343(13) 0.48182(14)
C9 C 0.59914(13) 0.06380(13) 0.38507(14)
H2 H 0.6627 0.0454 0.3740
C10 C 0.39798(17) -0.10720(18) 0.04368(17)
H3 H 0.3321 -0.1500 0.0040
H4 H 0.4640 -0.1512 0.0773
H5 H 0.4077 -0.0594 -0.0078
C11 C 0.44484(17) 0.23051(18) 0.61513(17)
H6 H 0.4031 0.2824 0.5600
H7 H 0.4729 0.2609 0.6888
H8 H 0.3957 0.1726 0.6101
C12 C 0.81263(15) 0.09422(19) 0.56894(17)
H9 H 0.8035 0.0202 0.5543
H10 H 0.8752 0.1061 0.6408
H11 H 0.8275 0.1281 0.5116
C13 C 0.17422(14) -0.06858(13) 0.05275(13)
C14 C 0.11996(14) -0.02443(14) -0.04844(14)
H12 H 0.0525 -0.0553 -0.0985
C15 C 0.15906(15) 0.06919(14) -0.08635(15)
C16 C 0.13324(16) 0.17159(17) -0.24582(17)
H13 H 0.1536 0.2301 -0.1938
H14 H 0.0690 0.1930 -0.3143
C17 C 0.2306(2) 0.1461(2) -0.2715(2)
H15 H 0.2959 0.1296 -0.2031
H16 H 0.2473 0.2053 -0.3069
H17 H 0.2115 0.0868 -0.3212
C18 C 0.13132(14) -0.16412(13) 0.08693(13)
C19 C 0.01987(14) -0.19968(14) 0.02636(15)
H18 H -0.0293 -0.1629 -0.0368
C20 C -0.01786(17) -0.28839(16) 0.05922(17)
H19 H -0.0925 -0.3106 0.0183
C21 C 0.05328(19) -0.34483(17) 0.15185(17)
H20 H 0.0273 -0.4051 0.1732
C22 C 0.16270(19) -0.31106(17) 0.21217(17)
H21 H 0.2115 -0.3487 0.2748
C23 C 0.20101(17) -0.22143(15) 0.18049(15)
H22 H 0.2753 -0.1990 0.2230
loop_
_geom_bond_atom_site_label_1
_geom_bond_atom_site_label_2
_geom_bond_site_symmetry_1
_geom_bond_site_symmetry_2
O1 C1 1_555 1_555
O2 C3 1_555 1_555
O3 C7 1_555 1_555
O4 C8 1_555 1_555
O5 C15 1_555 1_555
O6 C15 1_555 1_555
C1 C2 1_555 1_555
C2 C3 1_555 1_555
C3 C10 1_555 1_555
C4 O2 1_555 1_555
C5 C1 1_555 1_555
C6 C5 1_555 1_555
H1 C6 1_555 1_555
C7 C6 1_555 1_555
C8 C7 1_555 1_555
C9 C4 1_555 1_555
H2 C9 1_555 1_555
C10 H3 1_555 1_555
H4 C10 1_555 1_555
H5 C10 1_555 1_555
C11 O3 1_555 1_555
H6 C11 1_555 1_555
H7 C11 1_555 1_555
H8 C11 1_555 1_555
C12 O4 1_555 1_555
H9 C12 1_555 1_555
H10 C12 1_555 1_555
H11 C12 1_555 1_555
C13 C2 1_555 1_555
C14 C13 1_555 1_555
H12 C14 1_555 1_555
C15 C14 1_555 1_555
C16 O6 1_555 1_555
H13 C16 1_555 1_555
H14 C16 1_555 1_555
C17 C16 1_555 1_555
H15 C17 1_555 1_555
H16 C17 1_555 1_555
H17 C17 1_555 1_555
C18 C13 1_555 1_555
C19 C18 1_555 1_555
H18 C19 1_555 1_555
C20 C19 1_555 1_555
H19 C20 1_555 1_555
C21 C20 1_555 1_555
H20 C21 1_555 1_555
C22 C21 1_555 1_555
H21 C22 1_555 1_555
C23 C18 1_555 1_555
H22 C23 1_555 1_555
C4 C5 1_555 1_555
C8 C9 1_555 1_555
C22 C23 1_555 1_555

#END
