
#######################################################################
#
#                 Cambridge Crystallographic Data Centre
#                                CCDC 
#
#######################################################################
#
# If this CIF has been generated from an entry in the Cambridge 
# Structural Database, then it will include bibliographic, chemical, 
# crystal, experimental, refinement or atomic coordinate data resulting 
# from the CCDC's data processing and validation procedures.
#
#######################################################################

data_EQUPEN
_chemical_formula_moiety         'C20 H17 Br1 O3'
_chemical_name_systematic        
1-(2-bromophenyl)-4-(1-hydroxyethylidene)-3-phenylhex-2-ene-1,5-dione
_symmetry_cell_setting           monoclinic
_symmetry_space_group_name_H-M   'P 21/c'
_symmetry_Int_Tables_number      14
_space_group_name_Hall           '-P 2ybc'
loop_
_symmetry_equiv_pos_site_id
_symmetry_equiv_pos_as_xyz
1 x,y,z
2 -x,1/2+y,1/2-z
3 -x,-y,-z
4 x,1/2-y,1/2+z
_cell_length_a                   9.7807(13)
_cell_length_b                   19.045(3)
_cell_length_c                   9.5282(13)
_cell_angle_alpha                90
_cell_angle_beta                 102.602(3)
_cell_angle_gamma                90
_cell_volume                     1732.09
_exptl_crystal_colour            colorless
_exptl_crystal_description       prismatic
_cell_formula_units_Z            4
loop_
_atom_site_label
_atom_site_type_symbol
_atom_site_fract_x
_atom_site_fract_y
_atom_site_fract_z
Br1 Br 1.19857(3) 0.128724(17) 0.03124(4)
O1 O 0.9533(2) 0.25733(11) 0.2423(2)
O2 O 0.6628(2) 0.16785(12) 0.4030(2)
H1 H 0.6999 0.1311 0.4362
O3 O 0.8110(2) 0.06226(11) 0.4254(2)
C1 C 1.1942(3) 0.22800(15) 0.0195(3)
C2 C 1.2934(3) 0.26131(19) -0.0402(3)
H2 H 1.3554 0.2350 -0.0801
C3 C 1.3001(3) 0.3332(2) -0.0406(4)
H3 H 1.3661 0.3556 -0.0821
C4 C 1.2098(4) 0.37234(18) 0.0201(4)
H4 H 1.2158 0.4211 0.0219
C5 C 1.1107(3) 0.33873(15) 0.0778(3)
H5 H 1.0498 0.3654 0.1186
C6 C 1.0985(3) 0.26644(13) 0.0771(2)
C7 C 0.9793(3) 0.23547(13) 0.1315(3)
C8 C 0.8894(2) 0.18571(12) 0.0364(2)
H6 H 0.8993 0.1848 -0.0585
C9 C 0.7949(2) 0.14142(12) 0.0690(2)
C10 C 0.7699(3) 0.13207(12) 0.2174(2)
C11 C 0.6868(3) 0.17806(14) 0.2752(3)
C12 C 0.6197(3) 0.24118(15) 0.2016(3)
H7 H 0.5218 0.2409 0.2028
H8 H 0.6306 0.2414 0.1039
H9 H 0.6628 0.2823 0.2502
C13 C 0.8323(3) 0.07423(14) 0.3000(3)
C14 C 0.9294(3) 0.02575(16) 0.2475(3)
H10 H 0.9819 -0.0008 0.3269
H11 H 0.9925 0.0525 0.2042
H12 H 0.8763 -0.0057 0.1776
C15 C 0.7096(3) 0.09803(12) -0.0473(2)
C16 C 0.5700(3) 0.08565(15) -0.0523(3)
H13 H 0.5305 0.1014 0.0224
C17 C 0.4878(3) 0.05021(18) -0.1667(3)
H14 H 0.3928 0.0440 -0.1702
C18 C 0.5450(3) 0.02412(17) -0.2748(3)
H15 H 0.4896 -0.0006 -0.3506
C19 C 0.6840(3) 0.03462(16) -0.2707(3)
H16 H 0.7235 0.0167 -0.3435
C20 C 0.7660(3) 0.07167(14) -0.1589(3)
H17 H 0.8601 0.0792 -0.1579
loop_
_geom_bond_atom_site_label_1
_geom_bond_atom_site_label_2
_geom_bond_site_symmetry_1
_geom_bond_site_symmetry_2
Br1 C1 1_555 1_555
O1 C7 1_555 1_555
O2 H1 1_555 1_555
O3 C13 1_555 1_555
C1 C2 1_555 1_555
C2 H2 1_555 1_555
C3 C2 1_555 1_555
H3 C3 1_555 1_555
C4 C3 1_555 1_555
H4 C4 1_555 1_555
C5 C4 1_555 1_555
H5 C5 1_555 1_555
C6 C1 1_555 1_555
C7 C6 1_555 1_555
C8 C7 1_555 1_555
H6 C8 1_555 1_555
C9 C8 1_555 1_555
C10 C9 1_555 1_555
C11 O2 1_555 1_555
C12 C11 1_555 1_555
H7 C12 1_555 1_555
H8 C12 1_555 1_555
H9 C12 1_555 1_555
C13 C10 1_555 1_555
C14 C13 1_555 1_555
H10 C14 1_555 1_555
H11 C14 1_555 1_555
H12 C14 1_555 1_555
C15 C9 1_555 1_555
C16 C15 1_555 1_555
H13 C16 1_555 1_555
C17 C16 1_555 1_555
H14 C17 1_555 1_555
C18 C17 1_555 1_555
H15 C18 1_555 1_555
C19 C18 1_555 1_555
H16 C19 1_555 1_555
C20 C15 1_555 1_555
H17 C20 1_555 1_555
C5 C6 1_555 1_555
C10 C11 1_555 1_555
C19 C20 1_555 1_555

#END
