
#######################################################################
#
#                 Cambridge Crystallographic Data Centre
#                                CCDC 
#
#######################################################################
#
# If this CIF has been generated from an entry in the Cambridge 
# Structural Database, then it will include bibliographic, chemical, 
# crystal, experimental, refinement or atomic coordinate data resulting 
# from the CCDC's data processing and validation procedures.
#
#######################################################################

data_ERAVUO
_chemical_formula_moiety         'C10 H12 F6 O4'
_chemical_name_systematic        
2-(bis(Trifluoromethyl)hydroxymethyl)-2-(t-butoxycarbonyl)oxirane
_symmetry_cell_setting           monoclinic
_symmetry_space_group_name_H-M   'P 21/n'
_symmetry_Int_Tables_number      14
_space_group_name_Hall           '-P 2yn'
loop_
_symmetry_equiv_pos_site_id
_symmetry_equiv_pos_as_xyz
1 x,y,z
2 1/2+x,1/2-y,1/2+z
3 -x,-y,-z
4 1/2-x,1/2+y,1/2-z
_cell_length_a                   12.9508(13)
_cell_length_b                   8.5835(9)
_cell_length_c                   13.2733(13)
_cell_angle_alpha                90
_cell_angle_beta                 117.523(2)
_cell_angle_gamma                90
_cell_volume                     1308.51
_exptl_crystal_colour            colorless
_exptl_crystal_description       'irregular block'
_cell_formula_units_Z            4
loop_
_atom_site_label
_atom_site_type_symbol
_atom_site_fract_x
_atom_site_fract_y
_atom_site_fract_z
F1 F 0.53143(8) 0.66001(13) 0.20089(10)
O1 O 0.28643(10) 0.61218(13) 0.13600(11)
C1 C 0.33971(11) 0.75446(17) 0.14200(12)
F2 F 0.47179(9) 0.83632(12) 0.07066(9)
O2 O 0.30744(9) 0.80176(13) 0.30758(9)
C2 C 0.38535(11) 0.82774(17) 0.26124(12)
F3 F 0.40421(10) 0.60477(13) 0.03095(10)
C3 C 0.41856(15) 0.7241(2) 0.35925(15)
O3 O 0.40932(9) 1.09022(13) 0.32980(10)
F4 F 0.21321(10) 0.81434(16) -0.05216(9)
C4 C 0.44134(11) 0.98759(17) 0.28895(11)
O4 O 0.53033(8) 0.99149(12) 0.26674(8)
F5 F 0.29356(10) 1.00862(13) 0.05971(9)
F6 F 0.15806(8) 0.87946(13) 0.07206(9)
C5 C 0.60039(13) 1.13605(18) 0.28150(14)
C6 C 0.69069(15) 1.0805(2) 0.24686(18)
H1 H 0.6514 1.0400 0.1691
H2 H 0.7379 0.9979 0.2986
H3 H 0.7411 1.1678 0.2505
C7 C 0.52172(18) 1.2574(2) 0.1990(2)
H4 H 0.4620 1.2884 0.2208
H5 H 0.4843 1.2136 0.1222
H6 H 0.5680 1.3486 0.2007
C8 C 0.43862(14) 0.7138(2) 0.11096(14)
C9 C 0.25112(14) 0.8659(2) 0.05364(14)
C10 C 0.65756(17) 1.1847(3) 0.40456(17)
H7 H 0.5990 1.2302 0.4231
H8 H 0.7181 1.2621 0.4178
H9 H 0.6927 1.0935 0.4528
H10 H 0.238(2) 0.619(3) 0.1589(19)
H11 H 0.4154(16) 0.615(2) 0.3438(16)
H12 H 0.4748(17) 0.763(2) 0.4337(18)
loop_
_geom_bond_atom_site_label_1
_geom_bond_atom_site_label_2
_geom_bond_site_symmetry_1
_geom_bond_site_symmetry_2
F1 C8 1_555 1_555
O1 C1 1_555 1_555
C1 C2 1_555 1_555
F2 C8 1_555 1_555
O2 C2 1_555 1_555
C2 C3 1_555 1_555
F3 C8 1_555 1_555
C3 O2 1_555 1_555
O3 C4 1_555 1_555
F4 C9 1_555 1_555
C4 C2 1_555 1_555
O4 C4 1_555 1_555
F5 C9 1_555 1_555
F6 C9 1_555 1_555
C5 O4 1_555 1_555
C6 C5 1_555 1_555
H1 C6 1_555 1_555
H2 C6 1_555 1_555
H3 C6 1_555 1_555
C7 C5 1_555 1_555
H4 C7 1_555 1_555
H5 C7 1_555 1_555
H6 C7 1_555 1_555
C8 C1 1_555 1_555
C9 C1 1_555 1_555
C10 C5 1_555 1_555
H7 C10 1_555 1_555
H8 C10 1_555 1_555
H9 C10 1_555 1_555
H10 O1 1_555 1_555
H11 C3 1_555 1_555
H12 C3 1_555 1_555

#END
