
#######################################################################
#
#                 Cambridge Crystallographic Data Centre
#                                CCDC 
#
#######################################################################
#
# If this CIF has been generated from an entry in the Cambridge 
# Structural Database, then it will include bibliographic, chemical, 
# crystal, experimental, refinement or atomic coordinate data resulting 
# from the CCDC's data processing and validation procedures.
#
#######################################################################

data_ERFIMP
_chemical_formula_moiety         'C14 H18 N5 O4 1+,Cl1 1-,H2 O1'
_chemical_name_systematic        
'7-Ethyl-3-\b-D-ribofuranosylimidazo(2,1-i)purine chloride monohydrate'
_symmetry_cell_setting           monoclinic
_symmetry_space_group_name_H-M   'P 21'
_symmetry_Int_Tables_number      4
_space_group_name_Hall           'P 2yb'
loop_
_symmetry_equiv_pos_site_id
_symmetry_equiv_pos_as_xyz
1 x,y,z
2 -x,1/2+y,-z
_cell_length_a                   12.952(3)
_cell_length_b                   6.667(2)
_cell_length_c                   9.679(2)
_cell_angle_alpha                90
_cell_angle_beta                 101.57(2)
_cell_angle_gamma                90
_cell_volume                     818.808
_cell_formula_units_Z            2
loop_
_atom_site_label
_atom_site_type_symbol
_atom_site_fract_x
_atom_site_fract_y
_atom_site_fract_z
Cl1 Cl 0.30190 0.25000 0.17770
C1 C 0.32260 0.15060 -0.18730
C2 C -0.06320 0.14040 -0.73840
C3 C -0.15240 0.13760 -0.68690
C4 C -0.04180 0.15110 -0.88570
C5 C -0.14340 0.15940 -0.99490
C6 C 0.12800 0.13790 -0.61430
C7 C 0.38900 0.00050 -0.25020
C8 C 0.49550 0.10340 -0.21710
C9 C 0.15410 0.13940 -0.38000
C10 C 0.46610 0.32340 -0.23660
C11 C 0.05050 0.13740 -0.37100
C12 C 0.47730 0.40900 -0.37850
C13 C -0.02260 0.13510 -0.50070
C14 C 0.13390 0.14470 -0.16130
H1 H 0.33700 0.14200 -0.08200
H2 H -0.22700 0.15200 -0.73200
H3 H -0.00100 0.02200 -0.89800
H4 H 0.00700 0.28700 -0.89900
H5 H -0.20500 0.02500 -0.99000
H6 H -0.14600 0.19300 -1.10700
H7 H -0.19100 0.26800 -0.99000
H8 H 0.15700 0.14200 -0.69300
H9 H 0.35300 0.01000 -0.35700
H12 H 0.53800 0.04900 -0.27800
H13 H 0.42700 -0.19700 -0.12500
H14 H 0.60400 0.03200 -0.07300
H15 H 0.61300 0.50300 -0.32600
H16 H 0.50400 0.39400 -0.16800
H17 H 0.44100 0.36100 -0.45600
H18 H 0.43300 0.55200 -0.40200
H19 H -0.18000 0.12400 -0.48000
H20 H 0.16300 0.16600 -0.04300
N1 N 0.02070 0.13820 -0.61970
N2 N 0.19670 0.13940 -0.49760
N3 N -0.12700 0.13450 -0.53970
N4 N 0.03660 0.14060 -0.23290
N5 N 0.21020 0.14220 -0.24050
O1 O 0.35810 0.34090 -0.22240
O2 O 0.38270 -0.19580 -0.19640
O3 O 0.54540 0.06480 -0.07420
O4 O 0.58400 0.42080 -0.39090
H10 H -0.27100 0.00400 -0.32300
H11 H -0.30800 0.19100 -0.37500
O5 O -0.25890 0.12860 -0.36720
loop_
_geom_bond_atom_site_label_1
_geom_bond_atom_site_label_2
_geom_bond_site_symmetry_1
_geom_bond_site_symmetry_2
C1 C7 1_555 1_555
C2 C3 1_555 1_555
C3 H2 1_555 1_555
C4 C2 1_555 1_555
C5 C4 1_555 1_555
C6 H8 1_555 1_555
C7 C8 1_555 1_555
C8 C10 1_555 1_555
C9 C11 1_555 1_555
C10 C12 1_555 1_555
C11 C13 1_555 1_555
C12 H17 1_555 1_555
C13 N1 1_555 1_555
C14 H20 1_555 1_555
H1 C1 1_555 1_555
H3 C4 1_555 1_555
H4 C4 1_555 1_555
H5 C5 1_555 1_555
H6 C5 1_555 1_555
H7 C5 1_555 1_555
H9 C7 1_555 1_555
H10 O5 1_555 1_555
H11 O5 1_555 1_555
H12 C8 1_555 1_555
H13 O2 1_555 1_555
H14 O3 1_555 1_555
H15 O4 1_555 1_555
H16 C10 1_555 1_555
H18 C12 1_555 1_555
H19 N3 1_555 1_555
N1 C2 1_555 1_555
N2 C6 1_555 1_555
N3 C3 1_555 1_555
N4 C11 1_555 1_555
N5 C1 1_555 1_555
O1 C1 1_555 1_555
O2 C7 1_555 1_555
O3 C8 1_555 1_555
O4 C12 1_555 1_555
C6 N1 1_555 1_555
C9 N2 1_555 1_555
C9 N5 1_555 1_555
C10 O1 1_555 1_555
C13 N3 1_555 1_555
C14 N4 1_555 1_555
C14 N5 1_555 1_555

#END
