
#######################################################################
#
#                 Cambridge Crystallographic Data Centre
#                                CCDC 
#
#######################################################################
#
# If this CIF has been generated from an entry in the Cambridge 
# Structural Database, then it will include bibliographic, chemical, 
# crystal, experimental, refinement or atomic coordinate data resulting 
# from the CCDC's data processing and validation procedures.
#
#######################################################################

data_ERICOZ
_chemical_formula_moiety         'C160 H156 N16 Na4 O8'
_chemical_name_systematic        
tetrakis(\m-2-((mesitylimino)methyl)-5-methylquinolin-8-olato)-tetrakis(2-((mesitylimino)methyl)-5-methylquinolin-8-ol)-tetra-sodium
_symmetry_cell_setting           triclinic
_symmetry_space_group_name_H-M   'P -1'
_symmetry_Int_Tables_number      2
_space_group_name_Hall           '-P 1'
loop_
_symmetry_equiv_pos_site_id
_symmetry_equiv_pos_as_xyz
1 x,y,z
2 -x,-y,-z
_cell_length_a                   16.0814(14)
_cell_length_b                   19.4781(16)
_cell_length_c                   25.689(2)
_cell_angle_alpha                70.678(3)
_cell_angle_beta                 89.763(4)
_cell_angle_gamma                79.664(4)
_cell_volume                     7457
_exptl_crystal_colour            yellow
_exptl_crystal_description       block
_cell_formula_units_Z            2
loop_
_atom_site_label
_atom_site_type_symbol
_atom_site_fract_x
_atom_site_fract_y
_atom_site_fract_z
Na1 Na 0.45508(8) 0.66443(7) 0.84665(5)
Na2 Na 0.34551(8) 0.60396(6) 0.75662(5)
Na3 Na 0.18442(9) 0.71727(7) 0.84747(6)
Na4 Na 0.32365(8) 0.85720(7) 0.75782(5)
O1 O 0.40546(14) 0.73050(12) 0.90114(9)
H1 H 0.3639 0.7636 0.8967
O2 O 0.38912(13) 0.57072(11) 0.85271(9)
O3 O 0.22155(14) 0.67874(12) 0.76470(9)
O4 O 0.42225(15) 0.69526(12) 0.71439(9)
H2 H 0.4548 0.7101 0.7309
O5 O 0.27085(14) 0.80384(11) 0.84712(9)
O6 O 0.44984(14) 0.77307(12) 0.77200(9)
O7 O 0.23946(15) 0.80717(12) 0.71150(9)
H3 H 0.2206 0.7687 0.7208
N1 N 0.56873(16) 0.66122(14) 0.91087(10)
N2 N 0.74244(17) 0.52397(16) 0.90623(12)
N3 N 0.48330(16) 0.50782(14) 0.78697(10)
N4 N 0.5735(2) 0.50516(18) 0.66201(12)
N5 N 0.23031(17) 0.53026(14) 0.77681(11)
N6 N 0.3246(2) 0.34312(16) 0.79939(14)
N7 N 0.32932(17) 0.65731(14) 0.64365(11)
N8 N 0.1691(2) 0.58013(19) 0.60196(13)
N9 N 0.08459(17) 0.63877(16) 0.89271(11)
N10 N 0.01925(19) 0.78870(17) 0.86463(14)
N11 N 0.20002(16) 0.94377(14) 0.77924(11)
N12 N 0.1387(2) 1.08746(17) 0.65047(13)
N13 N 0.45652(17) 0.90742(14) 0.78559(10)
N14 N 0.3852(2) 1.07010(19) 0.81859(17)
N15 N 0.32427(17) 0.90816(14) 0.64625(11)
N16 N 0.4900(2) 1.00900(18) 0.61216(12)
C1 C 0.4645(2) 0.76620(17) 0.91182(12)
C2 C 0.4473(2) 0.83434(18) 0.91772(14)
H4 H 0.3913 0.8586 0.9147
C3 C 0.5116(2) 0.86891(19) 0.92814(14)
H5 H 0.4972 0.9161 0.9306
C4 C 0.5951(2) 0.8351(2) 0.93483(14)
C5 C 0.6157(2) 0.76241(19) 0.93175(13)
C6 C 0.6987(2) 0.7195(2) 0.94291(15)
H6 H 0.7426 0.7383 0.9534
C7 C 0.7141(2) 0.6506(2) 0.93831(15)
H7 H 0.7678 0.6212 0.9471
C8 C 0.6477(2) 0.62472(19) 0.92010(13)
C9 C 0.5512(2) 0.72839(17) 0.91852(12)
C10 C 0.6641(3) 0.8748(2) 0.94398(18)
H8 H 0.6936 0.8477 0.9792
H9 H 0.6390 0.9238 0.9431
H10 H 0.7033 0.8780 0.9153
C11 C 0.6664(2) 0.55586(19) 0.90665(14)
H11 H 0.6221 0.5356 0.8984
C12 C 0.7621(2) 0.4614(2) 0.88811(15)
C13 C 0.7995(2) 0.3935(2) 0.92729(16)
C14 C 0.8277(2) 0.3346(2) 0.9087(2)
H12 H 0.8535 0.2893 0.9342
C15 C 0.8190(3) 0.3407(3) 0.8539(2)
C16 C 0.7822(3) 0.4079(3) 0.81705(19)
H13 H 0.7768 0.4128 0.7799
C17 C 0.7527(2) 0.4690(2) 0.83266(15)
C18 C 0.8076(3) 0.3852(2) 0.98728(17)
H14 H 0.8251 0.4280 0.9909
H15 H 0.8490 0.3418 1.0062
H16 H 0.7539 0.3804 1.0032
C19 C 0.8465(4) 0.2733(3) 0.8356(3)
H17 H 0.9047 0.2520 0.8477
H18 H 0.8403 0.2883 0.7961
H19 H 0.8118 0.2372 0.8517
C20 C 0.7092(3) 0.5414(2) 0.79066(16)
H20 H 0.6494 0.5482 0.7954
H21 H 0.7196 0.5403 0.7541
H22 H 0.7311 0.5815 0.7959
C21 C 0.44355(19) 0.50732(17) 0.87670(13)
C22 C 0.4570(2) 0.47431(19) 0.93324(13)
H23 H 0.4275 0.4970 0.9562
C23 C 0.5148(2) 0.40673(19) 0.95702(13)
H24 H 0.5229 0.3867 0.9953
C24 C 0.55901(19) 0.36999(18) 0.92558(13)
C25 C 0.54814(19) 0.40218(17) 0.86721(12)
C26 C 0.5901(2) 0.36995(17) 0.83009(13)
H25 H 0.6238 0.3230 0.8439
C27 C 0.5821(2) 0.40615(17) 0.77477(14)
H26 H 0.6109 0.3848 0.7508
C28 C 0.5295(2) 0.47636(17) 0.75428(13)
C29 C 0.49224(18) 0.47190(16) 0.84258(12)
C30 C 0.6180(2) 0.2967(2) 0.95247(14)
H27 H 0.5953 0.2579 0.9457
H28 H 0.6238 0.2869 0.9916
H29 H 0.6725 0.2986 0.9373
C31 C 0.5240(2) 0.52249(18) 0.69575(13)
H30 H 0.4831 0.5655 0.6833
C32 C 0.5665(2) 0.5541(2) 0.60594(14)
C33 C 0.6245(3) 0.6012(3) 0.58867(17)
C34 C 0.6228(3) 0.6430(3) 0.53284(19)
H31 H 0.6601 0.6757 0.5212
C35 C 0.5676(3) 0.6372(2) 0.49442(15)
C36 C 0.5085(3) 0.5920(2) 0.51254(15)
H32 H 0.4687 0.5901 0.4872
C37 C 0.5077(2) 0.54909(19) 0.56867(14)
C38 C 0.6875(4) 0.6071(4) 0.6302(2)
H33 H 0.6578 0.6286 0.6552
H34 H 0.7262 0.6377 0.6110
H35 H 0.7185 0.5585 0.6506
C39 C 0.5711(4) 0.6801(2) 0.43352(17)
H36 H 0.6088 0.6505 0.4168
H37 H 0.5912 0.7250 0.4295
H38 H 0.5155 0.6919 0.4158
C40 C 0.4427(3) 0.5001(2) 0.58679(17)
H39 H 0.4708 0.4502 0.6063
H40 H 0.4107 0.5012 0.5549
H41 H 0.4051 0.5177 0.6107
C41 C 0.1514(2) 0.65322(19) 0.76301(13)
C42 C 0.0717(2) 0.6988(2) 0.75463(15)
H42 H 0.0682 0.7494 0.7468
C43 C -0.0029(2) 0.6711(3) 0.75758(18)
H43 H -0.0542 0.7040 0.7526
C44 C -0.0043(2) 0.5979(3) 0.76740(18)
C45 C 0.0752(2) 0.5491(2) 0.77356(14)
C46 C 0.0824(2) 0.4727(2) 0.78153(16)
H44 H 0.0337 0.4528 0.7832
C47 C 0.1590(2) 0.4284(2) 0.78679(15)
H45 H 0.1632 0.3784 0.7917
C48 C 0.2324(2) 0.45931(18) 0.78463(13)
C49 C 0.1526(2) 0.57595(19) 0.77097(13)
C50 C -0.0870(3) 0.5702(3) 0.7732(2)
H46 H -0.0926 0.5468 0.7462
H47 H -0.1332 0.6111 0.7675
H48 H -0.0878 0.5350 0.8096
C51 C 0.3160(2) 0.41036(18) 0.79493(13)
H49 H 0.3639 0.4296 0.7982
C52 C 0.4036(2) 0.29266(18) 0.81581(15)
C53 C 0.4557(3) 0.2757(2) 0.77660(16)
C54 C 0.5274(3) 0.2199(2) 0.7950(2)
H50 H 0.5628 0.2086 0.7691
C55 C 0.5478(3) 0.1807(2) 0.8508(2)
C56 C 0.4943(3) 0.1996(2) 0.88771(18)
H51 H 0.5070 0.1742 0.9252
C57 C 0.4222(2) 0.2548(2) 0.87193(15)
C58 C 0.4352(3) 0.3179(3) 0.71576(17)
H52 H 0.3795 0.3134 0.7056
H53 H 0.4759 0.2978 0.6946
H54 H 0.4372 0.3692 0.7084
C59 C 0.6251(4) 0.1202(3) 0.8687(3)
H55 H 0.6636 0.1331 0.8908
H56 H 0.6524 0.1144 0.8367
H57 H 0.6087 0.0746 0.8901
C60 C 0.3673(3) 0.2733(3) 0.91468(18)
H58 H 0.3692 0.3228 0.9134
H59 H 0.3876 0.2392 0.9507
H60 H 0.3100 0.2697 0.9073
C61 C 0.4308(2) 0.72577(17) 0.65953(13)
C62 C 0.4837(2) 0.77535(18) 0.63861(14)
H61 H 0.5166 0.7875 0.6627
C63 C 0.4886(3) 0.8079(2) 0.58140(16)
H62 H 0.5255 0.8409 0.5686
C64 C 0.4416(3) 0.7931(2) 0.54384(15)
C65 C 0.3867(2) 0.74122(18) 0.56387(13)
C66 C 0.3354(3) 0.7221(2) 0.52908(14)
H63 H 0.3377 0.7423 0.4910
C67 C 0.2824(3) 0.6745(2) 0.55044(15)
H64 H 0.2473 0.6628 0.5273
C68 C 0.2812(2) 0.64305(19) 0.60829(14)
C69 C 0.3816(2) 0.70707(16) 0.62223(13)
C70 C 0.4459(3) 0.8318(2) 0.48243(16)
H65 H 0.4599 0.7954 0.4645
H66 H 0.4885 0.8619 0.4764
H67 H 0.3920 0.8625 0.4675
C71 C 0.2221(2) 0.5930(2) 0.63224(14)
H68 H 0.2237 0.5703 0.6704
C72 C 0.1125(3) 0.5313(3) 0.62657(16)
C73 C 0.1408(3) 0.4558(3) 0.64223(17)
C74 C 0.0800(4) 0.4104(3) 0.6621(2)
H69 H 0.0967 0.3594 0.6717
C75 C -0.0019(5) 0.4388(5) 0.6675(2)
C76 C -0.0254(4) 0.5144(5) 0.6514(3)
H70 H -0.0815 0.5344 0.6546
C77 C 0.0294(3) 0.5617(4) 0.6310(2)
C78 C 0.2305(3) 0.4228(3) 0.6366(2)
H71 H 0.2474 0.4475 0.6003
H72 H 0.2349 0.3711 0.6421
H73 H 0.2668 0.4288 0.6638
C79 C -0.0623(6) 0.3854(6) 0.6934(3)
H74 H -0.0517 0.3442 0.6801
H75 H -0.1199 0.4110 0.6833
H76 H -0.0532 0.3678 0.7329
C80 C -0.0004(4) 0.6454(4) 0.6132(3)
H77 H 0.0229 0.6641 0.6389
H78 H -0.0611 0.6567 0.6123
H79 H 0.0182 0.6682 0.5770
C81 C 0.2018(2) 0.54069(18) 0.90572(13)
C82 C 0.2316(2) 0.46635(18) 0.91877(13)
H80 H 0.2893 0.4491 0.9185
C83 C 0.1762(2) 0.4158(2) 0.93260(14)
H81 H 0.1989 0.3657 0.9409
C84 C 0.0912(2) 0.4362(2) 0.93449(14)
C85 C 0.0568(2) 0.5125(2) 0.92059(14)
C86 C -0.0302(2) 0.5404(2) 0.91869(17)
H82 H -0.0688 0.5086 0.9265
C87 C -0.0570(2) 0.6144(2) 0.90522(18)
H83 H -0.1145 0.6333 0.9047
C88 C 0.0003(2) 0.6629(2) 0.89213(16)
C89 C 0.1127(2) 0.56506(19) 0.90624(13)
C90 C 0.0345(3) 0.3789(2) 0.95020(19)
H84 H 0.0021 0.3841 0.9806
H85 H 0.0687 0.3301 0.9607
H86 H -0.0032 0.3862 0.9192
C91 C -0.0285(2) 0.7420(2) 0.87920(16)
H87 H -0.0856 0.7592 0.8819
C92 C -0.0192(2) 0.8642(2) 0.85706(17)
C93 C -0.0500(3) 0.8848(3) 0.9014(2)
C94 C -0.0877(3) 0.9574(3) 0.8919(2)
H88 H -0.1108 0.9704 0.9213
C95 C -0.0930(3) 1.0122(3) 0.8405(3)
C96 C -0.0604(3) 0.9902(2) 0.7972(2)
H89 H -0.0620 1.0258 0.7624
C97 C -0.0259(2) 0.9178(2) 0.80375(18)
C98 C -0.0395(4) 0.8305(3) 0.9605(2)
H90 H -0.0842 0.8025 0.9669
H91 H -0.0418 0.8575 0.9859
H92 H 0.0142 0.7974 0.9659
C99 C -0.1275(4) 1.0931(3) 0.8312(3)
H93 H -0.0925 1.1230 0.8068
H94 H -0.1277 1.1017 0.8659
H95 H -0.1843 1.1060 0.8149
C100 C 0.0066(3) 0.8947(2) 0.75648(18)
H96 H 0.0656 0.8725 0.7640
H97 H -0.0003 0.9372 0.7234
H98 H -0.0244 0.8593 0.7515
C101 C 0.2282(2) 0.85157(18) 0.86921(13)
C102 C 0.2169(2) 0.8326(2) 0.92530(14)
H99 H 0.2387 0.7847 0.9485
C103 C 0.1732(2) 0.8844(2) 0.94783(16)
H100 H 0.1678 0.8694 0.9858
C104 C 0.1380(2) 0.9560(2) 0.91669(16)
C105 C 0.1473(2) 0.97734(18) 0.85926(14)
C106 C 0.1145(2) 1.04945(19) 0.82188(16)
H101 H 0.0870 1.0855 0.8356
C107 C 0.1221(2) 1.06691(19) 0.76677(16)
H102 H 0.1000 1.1144 0.7429
C108 C 0.1640(2) 1.01213(17) 0.74583(14)
C109 C 0.19111(19) 0.92630(17) 0.83444(13)
C110 C 0.0909(3) 1.0089(3) 0.94351(19)
H103 H 0.1186 1.0505 0.9370
H104 H 0.0906 0.9838 0.9826
H105 H 0.0338 1.0259 0.9279
C111 C 0.1692(2) 1.02525(19) 0.68664(15)
H106 H 0.1957 0.9868 0.6750
C112 C 0.1365(2) 1.0958(2) 0.59279(15)
C113 C 0.1819(3) 1.1461(2) 0.55798(18)
C114 C 0.1718(3) 1.1614(3) 0.50073(18)
H107 H 0.2030 1.1936 0.4775
C115 C 0.1178(3) 1.1309(2) 0.47776(17)
C116 C 0.0748(3) 1.0811(2) 0.51368(16)
H108 H 0.0381 1.0596 0.4989
C117 C 0.0837(2) 1.0618(2) 0.57080(16)
C118 C 0.2387(4) 1.1830(3) 0.5824(2)
H109 H 0.2051 1.2134 0.6004
H110 H 0.2677 1.2133 0.5535
H111 H 0.2794 1.1458 0.6088
C119 C 0.1045(3) 1.1508(3) 0.41584(18)
H112 H 0.1215 1.1072 0.4059
H113 H 0.1379 1.1870 0.3975
H114 H 0.0458 1.1708 0.4049
C120 C 0.0341(3) 1.0079(2) 0.60674(17)
H115 H 0.0719 0.9629 0.6271
H116 H -0.0059 0.9975 0.5841
H117 H 0.0044 1.0289 0.6321
C121 C 0.5239(2) 0.79313(18) 0.77383(13)
C122 C 0.5996(2) 0.7480(2) 0.77012(15)
H118 H 0.5977 0.7033 0.7648
C123 C 0.6783(2) 0.7671(2) 0.77404(16)
H119 H 0.7267 0.7344 0.7715
C124 C 0.6873(2) 0.8320(2) 0.78144(16)
C125 C 0.6114(2) 0.8812(2) 0.78480(13)
C126 C 0.6126(2) 0.9502(2) 0.79177(14)
H120 H 0.6638 0.9658 0.7926
C127 C 0.5401(2) 0.9934(2) 0.79712(14)
H121 H 0.5411 1.0383 0.8023
C128 C 0.4623(2) 0.97005(18) 0.79475(13)
C129 C 0.5303(2) 0.86246(18) 0.78138(12)
C130 C 0.7725(3) 0.8522(3) 0.7856(2)
H122 H 0.8162 0.8124 0.7840
H123 H 0.7792 0.8606 0.8199
H124 H 0.7763 0.8963 0.7554
C131 C 0.3832(2) 1.01438(18) 0.80478(14)
H125 H 0.3316 1.0009 0.8008
C132 C 0.3105(3) 1.1123(2) 0.8304(2)
C133 C 0.2933(3) 1.1004(2) 0.8857(2)
C134 C 0.2240(3) 1.1458(3) 0.8976(2)
H126 H 0.2121 1.1379 0.9344
C135 C 0.1723(3) 1.2019(2) 0.8571(2)
C136 C 0.1914(3) 1.2128(2) 0.8025(2)
H127 H 0.1571 1.2504 0.7746
C137 C 0.2600(3) 1.1696(2) 0.7883(2)
C138 C 0.3484(4) 1.0399(3) 0.9311(2)
H128 H 0.3430 0.9927 0.9288
H129 H 0.3310 1.0426 0.9662
H130 H 0.4063 1.0458 0.9271
C139 C 0.0966(4) 1.2509(3) 0.8710(3)
H131 H 0.1151 1.2908 0.8788
H132 H 0.0713 1.2220 0.9027
H133 H 0.0557 1.2706 0.8401
C140 C 0.2798(3) 1.1838(3) 0.7292(2)
H134 H 0.3384 1.1872 0.7251
H135 H 0.2451 1.2295 0.7065
H136 H 0.2684 1.1439 0.7179
C141 C 0.2214(2) 0.82982(17) 0.65640(13)
C142 C 0.1648(2) 0.80261(19) 0.63213(14)
H137 H 0.1363 0.7670 0.6542
C143 C 0.1498(2) 0.8279(2) 0.57470(15)
H138 H 0.1116 0.8080 0.5595
C144 C 0.1888(2) 0.8804(2) 0.54012(14)
C145 C 0.2477(2) 0.90975(18) 0.56392(13)
C146 C 0.2927(2) 0.96345(19) 0.53159(14)
H139 H 0.2815 0.9833 0.4935
C147 C 0.3520(2) 0.98595(19) 0.55589(14)
H140 H 0.3821 1.0209 0.5347
C148 C 0.3676(2) 0.95583(18) 0.61349(14)
C149 C 0.2648(2) 0.88444(17) 0.62180(13)
C150 C 0.1720(3) 0.9045(3) 0.47789(16)
H141 H 0.1537 0.9573 0.4633
H142 H 0.1287 0.8809 0.4697
H143 H 0.2230 0.8906 0.4613
C151 C 0.4378(2) 0.97238(18) 0.64008(14)
H144 H 0.4443 0.9556 0.6785
C152 C 0.5614(2) 1.0235(2) 0.63630(14)
C153 C 0.6409(3) 0.9821(2) 0.63321(16)
C154 C 0.7120(3) 1.0028(3) 0.64831(19)
H145 H 0.7651 0.9757 0.6463
C155 C 0.7064(3) 1.0631(3) 0.66640(19)
C156 C 0.6267(3) 1.1014(3) 0.67085(17)
H146 H 0.6222 1.1410 0.6840
C157 C 0.5541(3) 1.0823(2) 0.65633(15)
C158 C 0.6471(3) 0.9180(3) 0.6122(2)
H147 H 0.6214 0.8801 0.6372
H148 H 0.7055 0.8984 0.6097
H149 H 0.6182 0.9346 0.5763
C159 C 0.7845(4) 1.0878(4) 0.6814(3)
H150 H 0.7833 1.1386 0.6593
H151 H 0.8344 1.0574 0.6746
H152 H 0.7854 1.0832 0.7198
C160 C 0.4677(3) 1.1255(2) 0.66013(18)
H153 H 0.4383 1.1450 0.6244
H154 H 0.4740 1.1655 0.6728
H155 H 0.4360 1.0934 0.6857
O8 O 0.25069(15) 0.59299(12) 0.89314(10)
H156 H 0.2957 0.5806 0.8806
loop_
_geom_bond_atom_site_label_1
_geom_bond_atom_site_label_2
_geom_bond_site_symmetry_1
_geom_bond_site_symmetry_2
Na1 O1 1_555 1_555
Na2 O2 1_555 1_555
Na3 O3 1_555 1_555
Na4 O5 1_555 1_555
O1 H1 1_555 1_555
O2 Na1 1_555 1_555
O3 Na2 1_555 1_555
O4 Na2 1_555 1_555
H2 O4 1_555 1_555
O5 Na3 1_555 1_555
O6 Na1 1_555 1_555
O7 Na4 1_555 1_555
H3 O7 1_555 1_555
N1 Na1 1_555 1_555
N2 C11 1_555 1_555
N3 Na2 1_555 1_555
N4 C31 1_555 1_555
N5 Na2 1_555 1_555
N6 C51 1_555 1_555
N7 Na2 1_555 1_555
N8 C71 1_555 1_555
N9 Na3 1_555 1_555
N10 Na3 1_555 1_555
N11 Na4 1_555 1_555
N12 C111 1_555 1_555
N13 Na4 1_555 1_555
N14 C131 1_555 1_555
N15 Na4 1_555 1_555
N16 C151 1_555 1_555
C1 O1 1_555 1_555
C2 C1 1_555 1_555
H4 C2 1_555 1_555
C3 C2 1_555 1_555
H5 C3 1_555 1_555
C4 C3 1_555 1_555
C5 C4 1_555 1_555
C6 C5 1_555 1_555
H6 C6 1_555 1_555
C7 C6 1_555 1_555
H7 C7 1_555 1_555
C8 N1 1_555 1_555
C9 N1 1_555 1_555
C10 C4 1_555 1_555
H8 C10 1_555 1_555
H9 C10 1_555 1_555
H10 C10 1_555 1_555
C11 C8 1_555 1_555
H11 C11 1_555 1_555
C12 N2 1_555 1_555
C13 C12 1_555 1_555
C14 C13 1_555 1_555
H12 C14 1_555 1_555
C15 C14 1_555 1_555
C16 C15 1_555 1_555
H13 C16 1_555 1_555
C17 C12 1_555 1_555
C18 C13 1_555 1_555
H14 C18 1_555 1_555
H15 C18 1_555 1_555
H16 C18 1_555 1_555
C19 C15 1_555 1_555
H17 C19 1_555 1_555
H18 C19 1_555 1_555
H19 C19 1_555 1_555
C20 C17 1_555 1_555
H20 C20 1_555 1_555
H21 C20 1_555 1_555
H22 C20 1_555 1_555
C21 O2 1_555 1_555
C22 C21 1_555 1_555
H23 C22 1_555 1_555
C23 C22 1_555 1_555
H24 C23 1_555 1_555
C24 C23 1_555 1_555
C25 C24 1_555 1_555
C26 C25 1_555 1_555
H25 C26 1_555 1_555
C27 C26 1_555 1_555
H26 C27 1_555 1_555
C28 N3 1_555 1_555
C29 N3 1_555 1_555
C30 C24 1_555 1_555
H27 C30 1_555 1_555
H28 C30 1_555 1_555
H29 C30 1_555 1_555
C31 C28 1_555 1_555
H30 C31 1_555 1_555
C32 N4 1_555 1_555
C33 C32 1_555 1_555
C34 C33 1_555 1_555
H31 C34 1_555 1_555
C35 C34 1_555 1_555
C36 C35 1_555 1_555
H32 C36 1_555 1_555
C37 C32 1_555 1_555
C38 C33 1_555 1_555
H33 C38 1_555 1_555
H34 C38 1_555 1_555
H35 C38 1_555 1_555
C39 C35 1_555 1_555
H36 C39 1_555 1_555
H37 C39 1_555 1_555
H38 C39 1_555 1_555
C40 C37 1_555 1_555
H39 C40 1_555 1_555
H40 C40 1_555 1_555
H41 C40 1_555 1_555
C41 O3 1_555 1_555
C42 C41 1_555 1_555
H42 C42 1_555 1_555
C43 C42 1_555 1_555
H43 C43 1_555 1_555
C44 C43 1_555 1_555
C45 C44 1_555 1_555
C46 C45 1_555 1_555
H44 C46 1_555 1_555
C47 C46 1_555 1_555
H45 C47 1_555 1_555
C48 N5 1_555 1_555
C49 N5 1_555 1_555
C50 C44 1_555 1_555
H46 C50 1_555 1_555
H47 C50 1_555 1_555
H48 C50 1_555 1_555
C51 C48 1_555 1_555
H49 C51 1_555 1_555
C52 N6 1_555 1_555
C53 C52 1_555 1_555
C54 C53 1_555 1_555
H50 C54 1_555 1_555
C55 C54 1_555 1_555
C56 C55 1_555 1_555
H51 C56 1_555 1_555
C57 C52 1_555 1_555
C58 C53 1_555 1_555
H52 C58 1_555 1_555
H53 C58 1_555 1_555
H54 C58 1_555 1_555
C59 C55 1_555 1_555
H55 C59 1_555 1_555
H56 C59 1_555 1_555
H57 C59 1_555 1_555
C60 C57 1_555 1_555
H58 C60 1_555 1_555
H59 C60 1_555 1_555
H60 C60 1_555 1_555
C61 O4 1_555 1_555
C62 C61 1_555 1_555
H61 C62 1_555 1_555
C63 C62 1_555 1_555
H62 C63 1_555 1_555
C64 C63 1_555 1_555
C65 C64 1_555 1_555
C66 C65 1_555 1_555
H63 C66 1_555 1_555
C67 C66 1_555 1_555
H64 C67 1_555 1_555
C68 N7 1_555 1_555
C69 N7 1_555 1_555
C70 C64 1_555 1_555
H65 C70 1_555 1_555
H66 C70 1_555 1_555
H67 C70 1_555 1_555
C71 C68 1_555 1_555
H68 C71 1_555 1_555
C72 N8 1_555 1_555
C73 C72 1_555 1_555
C74 C73 1_555 1_555
H69 C74 1_555 1_555
C75 C74 1_555 1_555
C76 C75 1_555 1_555
H70 C76 1_555 1_555
C77 C72 1_555 1_555
C78 C73 1_555 1_555
H71 C78 1_555 1_555
H72 C78 1_555 1_555
H73 C78 1_555 1_555
C79 C75 1_555 1_555
H74 C79 1_555 1_555
H75 C79 1_555 1_555
H76 C79 1_555 1_555
C80 C77 1_555 1_555
H77 C80 1_555 1_555
H78 C80 1_555 1_555
H79 C80 1_555 1_555
C81 C82 1_555 1_555
C82 H80 1_555 1_555
C83 C82 1_555 1_555
H81 C83 1_555 1_555
C84 C83 1_555 1_555
C85 C84 1_555 1_555
C86 C85 1_555 1_555
H82 C86 1_555 1_555
C87 C86 1_555 1_555
H83 C87 1_555 1_555
C88 N9 1_555 1_555
C89 N9 1_555 1_555
C90 C84 1_555 1_555
H84 C90 1_555 1_555
H85 C90 1_555 1_555
H86 C90 1_555 1_555
C91 N10 1_555 1_555
H87 C91 1_555 1_555
C92 N10 1_555 1_555
C93 C92 1_555 1_555
C94 C93 1_555 1_555
H88 C94 1_555 1_555
C95 C94 1_555 1_555
C96 C95 1_555 1_555
H89 C96 1_555 1_555
C97 C92 1_555 1_555
C98 C93 1_555 1_555
H90 C98 1_555 1_555
H91 C98 1_555 1_555
H92 C98 1_555 1_555
C99 C95 1_555 1_555
H93 C99 1_555 1_555
H94 C99 1_555 1_555
H95 C99 1_555 1_555
C100 C97 1_555 1_555
H96 C100 1_555 1_555
H97 C100 1_555 1_555
H98 C100 1_555 1_555
C101 O5 1_555 1_555
C102 C101 1_555 1_555
H99 C102 1_555 1_555
C103 C102 1_555 1_555
H100 C103 1_555 1_555
C104 C103 1_555 1_555
C105 C104 1_555 1_555
C106 C105 1_555 1_555
H101 C106 1_555 1_555
C107 C106 1_555 1_555
H102 C107 1_555 1_555
C108 N11 1_555 1_555
C109 N11 1_555 1_555
C110 C104 1_555 1_555
H103 C110 1_555 1_555
H104 C110 1_555 1_555
H105 C110 1_555 1_555
C111 C108 1_555 1_555
H106 C111 1_555 1_555
C112 N12 1_555 1_555
C113 C112 1_555 1_555
C114 C113 1_555 1_555
H107 C114 1_555 1_555
C115 C114 1_555 1_555
C116 C115 1_555 1_555
H108 C116 1_555 1_555
C117 C112 1_555 1_555
C118 C113 1_555 1_555
H109 C118 1_555 1_555
H110 C118 1_555 1_555
H111 C118 1_555 1_555
C119 C115 1_555 1_555
H112 C119 1_555 1_555
H113 C119 1_555 1_555
H114 C119 1_555 1_555
C120 C117 1_555 1_555
H115 C120 1_555 1_555
H116 C120 1_555 1_555
H117 C120 1_555 1_555
C121 O6 1_555 1_555
C122 C121 1_555 1_555
H118 C122 1_555 1_555
C123 C122 1_555 1_555
H119 C123 1_555 1_555
C124 C123 1_555 1_555
C125 C124 1_555 1_555
C126 C125 1_555 1_555
H120 C126 1_555 1_555
C127 C126 1_555 1_555
H121 C127 1_555 1_555
C128 N13 1_555 1_555
C129 N13 1_555 1_555
C130 C124 1_555 1_555
H122 C130 1_555 1_555
H123 C130 1_555 1_555
H124 C130 1_555 1_555
C131 C128 1_555 1_555
H125 C131 1_555 1_555
C132 N14 1_555 1_555
C133 C132 1_555 1_555
C134 C133 1_555 1_555
H126 C134 1_555 1_555
C135 C134 1_555 1_555
C136 C135 1_555 1_555
H127 C136 1_555 1_555
C137 C132 1_555 1_555
C138 C133 1_555 1_555
H128 C138 1_555 1_555
H129 C138 1_555 1_555
H130 C138 1_555 1_555
C139 C135 1_555 1_555
H131 C139 1_555 1_555
H132 C139 1_555 1_555
H133 C139 1_555 1_555
C140 C137 1_555 1_555
H134 C140 1_555 1_555
H135 C140 1_555 1_555
H136 C140 1_555 1_555
C141 O7 1_555 1_555
C142 C141 1_555 1_555
H137 C142 1_555 1_555
C143 C142 1_555 1_555
H138 C143 1_555 1_555
C144 C143 1_555 1_555
C145 C144 1_555 1_555
C146 C145 1_555 1_555
H139 C146 1_555 1_555
C147 C146 1_555 1_555
H140 C147 1_555 1_555
C148 N15 1_555 1_555
C149 N15 1_555 1_555
C150 C144 1_555 1_555
H141 C150 1_555 1_555
H142 C150 1_555 1_555
H143 C150 1_555 1_555
C151 C148 1_555 1_555
H144 C151 1_555 1_555
C152 N16 1_555 1_555
C153 C152 1_555 1_555
C154 C153 1_555 1_555
H145 C154 1_555 1_555
C155 C154 1_555 1_555
C156 C155 1_555 1_555
H146 C156 1_555 1_555
C157 C152 1_555 1_555
C158 C153 1_555 1_555
H147 C158 1_555 1_555
H148 C158 1_555 1_555
H149 C158 1_555 1_555
C159 C155 1_555 1_555
H150 C159 1_555 1_555
H151 C159 1_555 1_555
H152 C159 1_555 1_555
C160 C157 1_555 1_555
H153 C160 1_555 1_555
H154 C160 1_555 1_555
H155 C160 1_555 1_555
O8 Na3 1_555 1_555
H156 O8 1_555 1_555
Na4 O6 1_555 1_555
C1 C9 1_555 1_555
C5 C9 1_555 1_555
C7 C8 1_555 1_555
C16 C17 1_555 1_555
C21 C29 1_555 1_555
C25 C29 1_555 1_555
C27 C28 1_555 1_555
C36 C37 1_555 1_555
C41 C49 1_555 1_555
C45 C49 1_555 1_555
C47 C48 1_555 1_555
C56 C57 1_555 1_555
C61 C69 1_555 1_555
C65 C69 1_555 1_555
C67 C68 1_555 1_555
C76 C77 1_555 1_555
C81 C89 1_555 1_555
C81 O8 1_555 1_555
C85 C89 1_555 1_555
C87 C88 1_555 1_555
C88 C91 1_555 1_555
C96 C97 1_555 1_555
C101 C109 1_555 1_555
C105 C109 1_555 1_555
C107 C108 1_555 1_555
C116 C117 1_555 1_555
C121 C129 1_555 1_555
C125 C129 1_555 1_555
C127 C128 1_555 1_555
C136 C137 1_555 1_555
C141 C149 1_555 1_555
C145 C149 1_555 1_555
C147 C148 1_555 1_555
C156 C157 1_555 1_555

#END
