
#######################################################################
#
#                 Cambridge Crystallographic Data Centre
#                                CCDC 
#
#######################################################################
#
# If this CIF has been generated from an entry in the Cambridge 
# Structural Database, then it will include bibliographic, chemical, 
# crystal, experimental, refinement or atomic coordinate data resulting 
# from the CCDC's data processing and validation procedures.
#
#######################################################################

data_ERIFIW
_chemical_formula_moiety         'C132 H138 N12 Na6 O6,2(C7 H8)'
_chemical_name_systematic        
'hexakis(\m-2-(((2,6-diisopropylphenyl)imino)methyl)quinolin-8-olato)-hexa-sodium toluene solvate'
_symmetry_cell_setting           triclinic
_symmetry_space_group_name_H-M   'P -1'
_symmetry_Int_Tables_number      2
_space_group_name_Hall           '-P 1'
loop_
_symmetry_equiv_pos_site_id
_symmetry_equiv_pos_as_xyz
1 x,y,z
2 -x,-y,-z
_cell_length_a                   14.507(3)
_cell_length_b                   16.694(3)
_cell_length_c                   17.000(3)
_cell_angle_alpha                100.84(3)
_cell_angle_beta                 105.10(3)
_cell_angle_gamma                115.30(3)
_cell_volume                     3375.63
_exptl_crystal_colour            red
_exptl_crystal_description       block
_cell_formula_units_Z            1
loop_
_atom_site_label
_atom_site_type_symbol
_atom_site_fract_x
_atom_site_fract_y
_atom_site_fract_z
Na1 Na 0.99574(7) 0.82651(6) 0.48908(5)
Na2 Na 1.04055(7) 1.02672(6) 0.37975(6)
Na3 Na 0.81152(7) 0.88182(6) 0.39502(6)
O1 O 0.96080(13) 0.87361(10) 0.37085(9)
O2 O 1.11289(12) 0.96982(10) 0.61201(10)
N1 N 0.63693(14) 0.76134(12) 0.38668(11)
N2 N 0.99699(15) 0.93251(12) 0.23476(12)
N3 N 0.98704(15) 0.65828(12) 0.44122(12)
N4 N 1.12291(15) 0.80917(12) 0.59511(12)
C1 C 0.64994(17) 0.73039(14) 0.45541(13)
N5 N 1.09610(18) 1.09952(14) 0.13401(13)
C2 C 0.92503(17) 0.57955(14) 0.36189(14)
C3 C 1.18496(18) 0.88050(15) 0.67182(14)
C4 C 0.91211(18) 0.81179(14) 0.29267(14)
C5 C 0.81220(18) 0.52103(14) 0.34126(15)
C6 C 0.93016(18) 0.83903(14) 0.21958(14)
N6 N 0.43300(17) 0.73285(15) 0.19784(14)
C7 C 0.53580(18) 0.72409(15) 0.32767(15)
C8 C 1.1278(2) 0.73071(16) 0.58525(15)
C9 C 1.0110(2) 0.95979(16) 0.16847(15)
C10 C 1.0559(2) 0.65399(16) 0.50152(15)
H1 H 1.0611 0.5984 0.4920
C11 C 0.52572(19) 0.76206(16) 0.25686(15)
H2 H 0.5905 0.8099 0.2551
C12 C 0.44134(19) 0.65193(17) 0.33197(17)
H3 H 0.3706 0.6251 0.2874
C13 C 0.55848(19) 0.66110(15) 0.46631(15)
C14 C 1.0841(2) 1.06376(17) 0.19151(16)
H4 H 1.1219 1.1031 0.2508
C15 C 0.8385(2) 0.71733(17) 0.27397(17)
H5 H 0.8204 0.6974 0.3193
C16 C 0.75184(19) 0.44550(15) 0.26329(16)
H6 H 0.6755 0.4042 0.2484
C17 C 1.2326(2) 1.03462(16) 0.76105(15)
H7 H 1.2249 1.0890 0.7695
C18 C 0.97575(19) 0.56698(17) 0.30392(16)
C19 C 0.7590(2) 0.54060(16) 0.40280(17)
H8 H 0.8004 0.6104 0.4333
C20 C 0.4533(2) 0.62184(18) 0.40042(18)
H9 H 0.3904 0.5739 0.4042
C21 C 0.9108(2) 0.49010(18) 0.22643(17)
H10 H 0.9429 0.4794 0.1864
C22 C 0.7719(2) 0.73594(16) 0.58698(15)
H11 H 0.8437 0.7589 0.6284
C23 C 0.5757(2) 0.63227(18) 0.53921(17)
H12 H 0.5147 0.5874 0.5476
C24 C 0.6390(2) 0.5122(2) 0.3567(2)
H13 H 0.6332 0.5407 0.3115
H14 H 0.6123 0.5342 0.3986
H15 H 0.5942 0.4434 0.3301
C25 C 0.8007(2) 0.42948(17) 0.20728(17)
H16 H 0.7583 0.3764 0.1552
C26 C 0.8780(2) 0.77061(17) 0.13513(16)
C27 C 0.4516(2) 0.73344(17) 0.05906(17)
C28 C 0.6805(2) 0.66943(18) 0.59739(17)
H17 H 0.6919 0.6498 0.6462
C29 C 1.2764(2) 1.22933(18) 0.16541(17)
C30 C 1.2564(2) 0.87505(18) 0.74353(17)
C31 C 1.1680(2) 1.19842(16) 0.15838(15)
C32 C 0.9632(3) 0.89762(19) 0.08349(17)
H18 H 0.9757 0.9202 0.0378
C33 C 1.3408(3) 1.3238(2) 0.17689(18)
H19 H 1.4146 1.3469 0.1805
C34 C 1.3015(3) 1.02744(19) 0.83120(17)
H20 H 1.3396 1.0772 0.8856
C35 C 1.0953(2) 0.6377(2) 0.3218(2)
H21 H 1.1297 0.6829 0.3824
C36 C 1.3152(3) 0.9504(2) 0.82308(19)
H22 H 1.3640 0.9478 0.8709
C37 C 0.4282(2) 0.76910(18) 0.12826(17)
C38 C 0.4418(3) 0.76737(19) -0.00931(18)
H23 H 0.4580 0.7449 -0.0566
C39 C 1.3002(3) 1.3845(2) 0.18311(19)
H24 H 1.3450 1.4484 0.1892
C40 C 1.1975(3) 0.7194(2) 0.65142(18)
H25 H 1.2010 0.6630 0.6419
C41 C 1.1264(2) 1.25931(18) 0.16891(19)
C42 C 0.8982(3) 0.8040(2) 0.06719(17)
H26 H 0.8662 0.7606 0.0098
C43 C 0.4835(3) 0.6572(2) 0.05743(19)
H27 H 0.5429 0.6789 0.1153
C44 C 0.3833(3) 0.8659(2) 0.0573(2)
H28 H 0.3599 0.9109 0.0556
C45 C 1.3202(2) 1.1612(2) 0.1593(2)
H29 H 1.2839 1.1148 0.1864
C46 C 0.7701(3) 0.4958(2) 0.4725(2)
H30 H 0.7417 0.5154 0.5142
H31 H 0.8481 0.5162 0.5026
H32 H 0.7277 0.4270 0.4454
C47 C 0.3911(3) 0.8343(2) 0.12776(19)
C48 C 1.1953(3) 1.3529(2) 0.18047(19)
H33 H 1.1689 1.3960 0.1867
C49 C 0.7898(3) 0.65039(18) 0.1910(2)
H34 H 0.7426 0.5860 0.1820
C50 C 1.2599(3) 0.7905(2) 0.72935(19)
H35 H 1.3065 0.7833 0.7748
C51 C 0.4086(3) 0.8336(2) -0.0093(2)
H36 H 0.4034 0.8569 -0.0561
C52 C 0.8087(3) 0.67551(19) 0.12276(19)
H37 H 0.7752 0.6289 0.0669
C53 C 0.3660(3) 0.8716(3) 0.2036(2)
H38 H 0.3517 0.8257 0.2353
C54 C 1.0111(3) 1.2246(2) 0.1697(3)
H39 H 1.0000 1.1774 0.2001
C55 C 1.4446(3) 1.2087(3) 0.2090(3)
H40 H 1.4631 1.2402 0.2703
H41 H 1.4833 1.2554 0.1847
H42 H 1.4672 1.1610 0.2040
C56 C 1.2867(3) 1.1055(2) 0.0653(3)
H43 H 1.2060 1.0680 0.0374
H44 H 1.3174 1.0634 0.0629
H45 H 1.3150 1.1491 0.0350
C57 C 0.4673(4) 0.9657(3) 0.2658(2)
H46 H 0.5303 0.9563 0.2871
H47 H 0.4518 0.9898 0.3150
H48 H 0.4848 1.0112 0.2354
C58 C 0.3922(5) 0.5684(3) 0.0490(4)
H49 H 0.3613 0.5797 0.0920
H50 H 0.4189 0.5248 0.0588
H51 H 0.3349 0.5408 -0.0094
C59 C 0.9986(5) 1.3009(3) 0.2223(4)
H52 H 0.9310 1.2716 0.2335
H53 H 0.9944 1.3426 0.1898
H54 H 1.0624 1.3376 0.2776
C60 C 0.9252(4) 1.1718(4) 0.0804(4)
H55 H 0.9375 1.1232 0.0508
H56 H 0.9295 1.2155 0.0484
H57 H 0.8521 1.1420 0.0833
C61 C 0.2645(4) 0.8829(4) 0.1752(3)
H58 H 0.2791 0.9318 0.1485
H59 H 0.2481 0.9010 0.2259
H60 H 0.2011 0.8229 0.1331
C62 C 1.0963(8) 0.6944(12) 0.2583(13)
H61 H 1.0734 0.6531 0.1994
H62 H 1.1710 0.7477 0.2764
H63 H 1.0451 0.7180 0.2592
C63 C 0.5327(6) 0.6441(4) -0.0108(4)
H64 H 0.5617 0.6016 -0.0026
H65 H 0.5926 0.7054 -0.0041
H66 H 0.4751 0.6168 -0.0690
C64 C 1.1570(9) 0.5849(9) 0.3151(12)
H67 H 1.1519 0.5504 0.3559
H68 H 1.2347 0.6297 0.3291
H69 H 1.1244 0.5402 0.2559
C65 C 1.17492(17) 0.96439(14) 0.67937(14)
O3 O 0.84612(12) 0.83403(10) 0.50937(9)
C66 C 0.76127(17) 0.76981(14) 0.51787(13)
Na1A Na 1.00426(7) 1.17349(6) 0.51092(5)
Na2A Na 0.95945(7) 0.97328(6) 0.62025(6)
Na3A Na 1.18848(7) 1.11818(6) 0.60498(6)
O1A O 1.03920(13) 1.12639(10) 0.62915(9)
O2A O 0.88711(12) 1.03018(10) 0.38799(10)
N1A N 1.36307(14) 1.23866(12) 0.61332(11)
N2A N 1.00301(15) 1.06749(12) 0.76524(12)
N3A N 1.01296(15) 1.34172(12) 0.55878(12)
N4A N 0.87709(15) 1.19083(12) 0.40489(12)
C1A C 1.35006(17) 1.26961(14) 0.54459(13)
N5A N 0.90390(18) 0.90048(14) 0.86599(13)
C2A C 1.07497(17) 1.42045(14) 0.63811(14)
C3A C 0.81504(18) 1.11950(15) 0.32818(14)
C4A C 1.08789(18) 1.18821(14) 0.70733(14)
C5A C 1.18780(18) 1.47897(14) 0.65874(15)
C6A C 1.06984(18) 1.16097(14) 0.78042(14)
N6A N 1.56700(17) 1.26715(15) 0.80216(14)
C7A C 1.46420(18) 1.27591(15) 0.67233(15)
C8A C 0.8722(2) 1.26929(16) 0.41475(15)
C9A C 0.9890(2) 1.04021(16) 0.83153(15)
C10A C 0.9441(2) 1.34601(16) 0.49848(15)
H1A H 0.9389 1.4016 0.5080
C11A C 1.47428(19) 1.23794(16) 0.74314(15)
H2A H 1.4095 1.1901 0.7449
C12A C 1.55866(19) 1.34807(17) 0.66803(17)
H3A H 1.6294 1.3749 0.7126
C13A C 1.44152(19) 1.33890(15) 0.53369(15)
C14A C 0.9159(2) 0.93624(17) 0.80849(16)
H4A H 0.8781 0.8969 0.7492
C15A C 1.1615(2) 1.28267(17) 0.72603(17)
H5A H 1.1796 1.3026 0.6807
C16A C 1.24816(19) 1.55450(15) 0.73671(16)
H6A H 1.3245 1.5958 0.7516
C17A C 0.7674(2) 0.96538(16) 0.23895(15)
H7A H 0.7751 0.9110 0.2305
C18A C 1.02425(19) 1.43302(17) 0.69608(16)
C19A C 1.2410(2) 1.45940(16) 0.59720(17)
H8A H 1.1996 1.3896 0.5667
C20A C 1.5467(2) 1.37816(18) 0.59958(18)
H9A H 1.6096 1.4261 0.5958
C21A C 1.0892(2) 1.50990(18) 0.77357(17)
H10A H 1.0571 1.5206 0.8136
C22A C 1.2281(2) 1.26406(16) 0.41302(15)
H11A H 1.1563 1.2411 0.3716
C23A C 1.4243(2) 1.36773(18) 0.46079(17)
H12A H 1.4853 1.4126 0.4524
C24A C 1.3610(2) 1.4878(2) 0.6433(2)
H13A H 1.3668 1.4593 0.6885
H14A H 1.3877 1.4658 0.6014
H15A H 1.4058 1.5566 0.6699
C25A C 1.1993(2) 1.57052(17) 0.79272(17)
H16A H 1.2417 1.6236 0.8448
C26A C 1.1220(2) 1.22939(17) 0.86487(16)
C27A C 1.5484(2) 1.26656(17) 0.94094(17)
C28A C 1.3195(2) 1.33057(18) 0.40261(17)
H17A H 1.3081 1.3502 0.3538
C29A C 0.7236(2) 0.77067(18) 0.83459(17)
C30A C 0.7436(2) 1.12495(18) 0.25647(17)
C31A C 0.8320(2) 0.80158(16) 0.84162(15)
C32A C 1.0368(3) 1.10238(19) 0.91651(17)
H18A H 1.0243 1.0798 0.9622
C33A C 0.6592(3) 0.6762(2) 0.82311(18)
H19A H 0.5854 0.6531 0.8195
C34A C 0.6985(3) 0.97256(19) 0.16880(17)
H20A H 0.6604 0.9228 0.1144
C35A C 0.9047(2) 1.3623(2) 0.6782(2)
H21A H 0.8703 1.3171 0.6176
C36A C 0.6848(3) 1.0496(2) 0.17692(19)
H22A H 0.6360 1.0522 0.1291
C37A C 1.5718(2) 1.23090(18) 0.87174(17)
C38A C 1.5582(3) 1.23263(19) 1.00931(18)
H23A H 1.5420 1.2551 1.0566
C39A C 0.6998(3) 0.6155(2) 0.81689(19)
H24A H 0.6550 0.5516 0.8108
C40A C 0.8025(3) 1.2806(2) 0.34858(18)
H25A H 0.7990 1.3370 0.3581
C41A C 0.8736(2) 0.74069(18) 0.83109(19)
C42A C 1.1018(3) 1.1960(2) 0.93281(17)
H26A H 1.1338 1.2394 0.9902
C43A C 1.5165(3) 1.3428(2) 0.94257(19)
H27A H 1.4571 1.3211 0.8847
C44A C 1.6167(3) 1.1341(2) 0.9427(2)
H28A H 1.6401 1.0891 0.9444
C45A C 0.6798(2) 0.8388(2) 0.8407(2)
H29A H 0.7161 0.8852 0.8136
C46A C 1.2299(3) 1.5042(2) 0.5275(2)
H30A H 1.2583 1.4846 0.4858
H31A H 1.1519 1.4838 0.4974
H32A H 1.2723 1.5730 0.5546
C47A C 1.6089(3) 1.1657(2) 0.87224(19)
C48A C 0.8047(3) 0.6471(2) 0.81953(19)
H33A H 0.8311 0.6040 0.8133
C49A C 1.2102(3) 1.34961(18) 0.8090(2)
H34A H 1.2574 1.4140 0.8180
C50A C 0.7401(3) 1.2095(2) 0.27065(19)
H35A H 0.6935 1.2167 0.2252
C51A C 1.5914(3) 1.1664(2) 1.0093(2)
H36A H 1.5966 1.1431 1.0561
C52A C 1.1913(3) 1.32449(19) 0.87724(19)
H37A H 1.2248 1.3711 0.9331
C53A C 1.6340(3) 1.1284(3) 0.7964(2)
H38A H 1.6483 1.1743 0.7647
C54A C 0.9889(3) 0.7754(2) 0.8303(3)
H39A H 1.0000 0.8226 0.7999
C55A C 0.5554(3) 0.7913(3) 0.7910(3)
H40A H 0.5369 0.7598 0.7297
H41A H 0.5167 0.7446 0.8153
H42A H 0.5328 0.8390 0.7960
C56A C 0.7133(3) 0.8945(2) 0.9347(3)
H43A H 0.7940 0.9320 0.9626
H44A H 0.6826 0.9366 0.9371
H45A H 0.6850 0.8509 0.9650
C57A C 1.5327(4) 1.0343(3) 0.7342(2)
H46A H 1.4697 1.0437 0.7129
H47A H 1.5482 1.0102 0.6850
H48A H 1.5152 0.9888 0.7646
C58A C 1.6078(5) 1.4316(3) 0.9510(4)
H49A H 1.6387 1.4203 0.9080
H50A H 1.5811 1.4752 0.9412
H51A H 1.6651 1.4592 1.0094
C59A C 1.0014(5) 0.6991(3) 0.7777(4)
H52A H 1.0690 0.7284 0.7665
H53A H 1.0056 0.6574 0.8102
H54A H 0.9376 0.6624 0.7224
C60A C 1.0748(4) 0.8282(4) 0.9196(4)
H55A H 1.0625 0.8768 0.9492
H56A H 1.0705 0.7845 0.9516
H57A H 1.1479 0.8580 0.9167
C61A C 1.7355(4) 1.1171(4) 0.8248(3)
H58A H 1.7209 1.0682 0.8515
H59A H 1.7519 1.0990 0.7741
H60A H 1.7989 1.1771 0.8669
C62A C 0.9037(8) 1.3056(12) 0.7417(13)
H61A H 0.9266 1.3469 0.8006
H62A H 0.8290 1.2523 0.7236
H63A H 0.9549 1.2820 0.7408
C63A C 1.4673(6) 1.3559(4) 1.0108(4)
H64A H 1.4383 1.3984 1.0026
H65A H 1.4074 1.2946 1.0041
H66A H 1.5249 1.3832 1.0690
C64A C 0.8430(9) 1.4151(9) 0.6849(12)
H67A H 0.8481 1.4496 0.6441
H68A H 0.7653 1.3703 0.6709
H69A H 0.8756 1.4598 0.7441
C65A C 0.82508(17) 1.03561(14) 0.32063(14)
O3A O 1.15388(12) 1.16597(10) 0.49063(9)
C66A C 1.23873(17) 1.23019(14) 0.48213(13)
C67 C 0.5288(3) 0.8715(3) 0.5316(3)
C68 C 0.5441(4) 0.9148(3) 0.4728(3)
H70 H 0.4820 0.8987 0.4234
C69 C 0.6196(4) 0.8946(3) 0.6002(3)
H71 H 0.6104 0.8626 0.6408
C70 C 0.7214(3) 0.9601(3) 0.6132(3)
H72 H 0.7823 0.9750 0.6631
C71 C 0.7384(3) 1.0064(3) 0.5544(4)
H73 H 0.8105 1.0535 0.5637
C72 C 0.6498(5) 0.9833(4) 0.4828(3)
H74 H 0.6595 1.0128 0.4406
C73 C 0.4159(4) 0.8011(3) 0.5228(4)
H75 H 0.4132 0.7414 0.5228
H76 H 0.3610 0.7907 0.4684
H77 H 0.3999 0.8251 0.5717
C74? C 0.5977(8) 0.6920(7) 0.0895(7)
H78? H 0.6308 0.7304 0.0568
H79? H 0.6115 0.6390 0.0831
H80? H 0.6305 0.7308 0.1509
C75? C 0.4218(8) 0.5801(6) -0.0368(6)
H81? H 0.4358 0.5278 -0.0355
H82? H 0.4493 0.6085 -0.0772
H83? H 0.3423 0.5565 -0.0557
C76? C 1.1520(11) 0.6018(9) 0.2716(13)
H84? H 1.1496 0.5458 0.2835
H85? H 1.2291 0.6512 0.2901
H86? H 1.1136 0.5854 0.2093
C77? C 1.1065(8) 0.7259(6) 0.3108(10)
H87? H 1.0616 0.7130 0.2509
H88? H 1.1841 0.7700 0.3236
H89? H 1.0814 0.7538 0.3506
loop_
_geom_bond_atom_site_label_1
_geom_bond_atom_site_label_2
_geom_bond_site_symmetry_1
_geom_bond_site_symmetry_2
Na1 O1 1_555 1_555
Na2 O1 1_555 1_555
Na3 O1 1_555 1_555
O1 C4 1_555 1_555
O2 Na1 1_555 1_555
N1 Na3 1_555 1_555
N2 Na2 1_555 1_555
N3 Na1 1_555 1_555
N4 Na1 1_555 1_555
C1 N1 1_555 1_555
N5 C14 1_555 1_555
C2 N3 1_555 1_555
C3 N4 1_555 1_555
C4 C6 1_555 1_555
C5 C2 1_555 1_555
C6 N2 1_555 1_555
N6 C11 1_555 1_555
C7 N1 1_555 1_555
C8 N4 1_555 1_555
C9 N2 1_555 1_555
C10 N3 1_555 1_555
H1 C10 1_555 1_555
C11 C7 1_555 1_555
H2 C11 1_555 1_555
C12 C7 1_555 1_555
H3 C12 1_555 1_555
C13 C1 1_555 1_555
C14 C9 1_555 1_555
H4 C14 1_555 1_555
C15 C4 1_555 1_555
H5 C15 1_555 1_555
C16 C5 1_555 1_555
H6 C16 1_555 1_555
C17 H7 1_555 1_555
C18 C2 1_555 1_555
C19 C5 1_555 1_555
H8 C19 1_555 1_555
C20 C12 1_555 1_555
H9 C20 1_555 1_555
C21 C18 1_555 1_555
H10 C21 1_555 1_555
C22 H11 1_555 1_555
C23 C13 1_555 1_555
H12 C23 1_555 1_555
C24 C19 1_555 1_555
H13 C24 1_555 1_555
H14 C24 1_555 1_555
H15 C24 1_555 1_555
C25 C16 1_555 1_555
H16 C25 1_555 1_555
C26 C6 1_555 1_555
C27 C37 1_555 1_555
C28 C22 1_555 1_555
H17 C28 1_555 1_555
C29 C31 1_555 1_555
C30 C3 1_555 1_555
C31 N5 1_555 1_555
C32 C9 1_555 1_555
H18 C32 1_555 1_555
C33 C29 1_555 1_555
H19 C33 1_555 1_555
C34 C17 1_555 1_555
H20 C34 1_555 1_555
C35 C18 1_555 1_555
H21 C35 1_555 1_555
C36 C30 1_555 1_555
H22 C36 1_555 1_555
C37 N6 1_555 1_555
C38 C27 1_555 1_555
H23 C38 1_555 1_555
C39 C33 1_555 1_555
H24 C39 1_555 1_555
C40 C8 1_555 1_555
H25 C40 1_555 1_555
C41 C31 1_555 1_555
C42 C26 1_555 1_555
H26 C42 1_555 1_555
C43 C27 1_555 1_555
H27 C43 1_555 1_555
C44 H28 1_555 1_555
C45 C29 1_555 1_555
H29 C45 1_555 1_555
C46 C19 1_555 1_555
H30 C46 1_555 1_555
H31 C46 1_555 1_555
H32 C46 1_555 1_555
C47 C37 1_555 1_555
C48 C39 1_555 1_555
H33 C48 1_555 1_555
C49 C15 1_555 1_555
H34 C49 1_555 1_555
C50 C30 1_555 1_555
H35 C50 1_555 1_555
C51 C38 1_555 1_555
H36 C51 1_555 1_555
C52 C26 1_555 1_555
H37 C52 1_555 1_555
C53 C47 1_555 1_555
H38 C53 1_555 1_555
C54 C41 1_555 1_555
H39 C54 1_555 1_555
C55 C45 1_555 1_555
H40 C55 1_555 1_555
H41 C55 1_555 1_555
H42 C55 1_555 1_555
C56 C45 1_555 1_555
H43 C56 1_555 1_555
H44 C56 1_555 1_555
H45 C56 1_555 1_555
C57 C53 1_555 1_555
H46 C57 1_555 1_555
H47 C57 1_555 1_555
H48 C57 1_555 1_555
C58 C43 1_555 1_555
H49 C58 1_555 1_555
H50 C58 1_555 1_555
H51 C58 1_555 1_555
C59 C54 1_555 1_555
H52 C59 1_555 1_555
H53 C59 1_555 1_555
H54 C59 1_555 1_555
C60 C54 1_555 1_555
H55 C60 1_555 1_555
H56 C60 1_555 1_555
H57 C60 1_555 1_555
C61 C53 1_555 1_555
H58 C61 1_555 1_555
H59 C61 1_555 1_555
H60 C61 1_555 1_555
C62 C35 1_555 1_555
H61 C62 1_555 1_555
H62 C62 1_555 1_555
H63 C62 1_555 1_555
C63 C43 1_555 1_555
H64 C63 1_555 1_555
H65 C63 1_555 1_555
H66 C63 1_555 1_555
C64 C35 1_555 1_555
H67 C64 1_555 1_555
H68 C64 1_555 1_555
H69 C64 1_555 1_555
C65 O2 1_555 1_555
O3 Na1 1_555 1_555
C66 C1 1_555 1_555
C67 C68 1_555 1_555
C68 H70 1_555 1_555
C69 C67 1_555 1_555
H71 C69 1_555 1_555
C70 C69 1_555 1_555
H72 C70 1_555 1_555
C71 C70 1_555 1_555
H73 C71 1_555 1_555
C72 C68 1_555 1_555
H74 C72 1_555 1_555
C73 C67 1_555 1_555
H75 C73 1_555 1_555
H76 C73 1_555 1_555
H77 C73 1_555 1_555
Na1A O1A 1_555 1_555
Na2A O2 1_555 1_555
Na3A O2 1_555 1_555
O1A Na2A 1_555 1_555
O2A Na2 1_555 1_555
N1A Na3A 1_555 1_555
N2A Na2A 1_555 1_555
N3A Na1A 1_555 1_555
N4A Na1A 1_555 1_555
C1A N1A 1_555 1_555
N5A C14A 1_555 1_555
C2A N3A 1_555 1_555
C3A N4A 1_555 1_555
C4A O1A 1_555 1_555
C5A C2A 1_555 1_555
C6A N2A 1_555 1_555
N6A C11A 1_555 1_555
C7A N1A 1_555 1_555
C8A N4A 1_555 1_555
C9A N2A 1_555 1_555
C10A N3A 1_555 1_555
H1A C10A 1_555 1_555
C11A C7A 1_555 1_555
H2A C11A 1_555 1_555
C12A C7A 1_555 1_555
H3A C12A 1_555 1_555
C13A C1A 1_555 1_555
C14A C9A 1_555 1_555
H4A C14A 1_555 1_555
C15A C4A 1_555 1_555
H5A C15A 1_555 1_555
C16A C5A 1_555 1_555
H6A C16A 1_555 1_555
C17A H7A 1_555 1_555
C18A C2A 1_555 1_555
C19A C5A 1_555 1_555
H8A C19A 1_555 1_555
C20A C12A 1_555 1_555
H9A C20A 1_555 1_555
C21A C18A 1_555 1_555
H10A C21A 1_555 1_555
C22A H11A 1_555 1_555
C23A C13A 1_555 1_555
H12A C23A 1_555 1_555
C24A C19A 1_555 1_555
H13A C24A 1_555 1_555
H14A C24A 1_555 1_555
H15A C24A 1_555 1_555
C25A C16A 1_555 1_555
H16A C25A 1_555 1_555
C26A C6A 1_555 1_555
C27A C37A 1_555 1_555
C28A C22A 1_555 1_555
H17A C28A 1_555 1_555
C29A C31A 1_555 1_555
C30A C3A 1_555 1_555
C31A N5A 1_555 1_555
C32A C9A 1_555 1_555
H18A C32A 1_555 1_555
C33A C29A 1_555 1_555
H19A C33A 1_555 1_555
C34A C17A 1_555 1_555
H20A C34A 1_555 1_555
C35A C18A 1_555 1_555
H21A C35A 1_555 1_555
C36A C30A 1_555 1_555
H22A C36A 1_555 1_555
C37A N6A 1_555 1_555
C38A C27A 1_555 1_555
H23A C38A 1_555 1_555
C39A C33A 1_555 1_555
H24A C39A 1_555 1_555
C40A C8A 1_555 1_555
H25A C40A 1_555 1_555
C41A C31A 1_555 1_555
C42A C26A 1_555 1_555
H26A C42A 1_555 1_555
C43A C27A 1_555 1_555
H27A C43A 1_555 1_555
C44A H28A 1_555 1_555
C45A C29A 1_555 1_555
H29A C45A 1_555 1_555
C46A C19A 1_555 1_555
H30A C46A 1_555 1_555
H31A C46A 1_555 1_555
H32A C46A 1_555 1_555
C47A C37A 1_555 1_555
C48A C39A 1_555 1_555
H33A C48A 1_555 1_555
C49A C15A 1_555 1_555
H34A C49A 1_555 1_555
C50A C30A 1_555 1_555
H35A C50A 1_555 1_555
C51A C38A 1_555 1_555
H36A C51A 1_555 1_555
C52A C26A 1_555 1_555
H37A C52A 1_555 1_555
C53A C47A 1_555 1_555
H38A C53A 1_555 1_555
C54A C41A 1_555 1_555
H39A C54A 1_555 1_555
C55A C45A 1_555 1_555
H40A C55A 1_555 1_555
H41A C55A 1_555 1_555
H42A C55A 1_555 1_555
C56A C45A 1_555 1_555
H43A C56A 1_555 1_555
H44A C56A 1_555 1_555
H45A C56A 1_555 1_555
C57A C53A 1_555 1_555
H46A C57A 1_555 1_555
H47A C57A 1_555 1_555
H48A C57A 1_555 1_555
C58A C43A 1_555 1_555
H49A C58A 1_555 1_555
H50A C58A 1_555 1_555
H51A C58A 1_555 1_555
C59A C54A 1_555 1_555
H52A C59A 1_555 1_555
H53A C59A 1_555 1_555
H54A C59A 1_555 1_555
C60A C54A 1_555 1_555
H55A C60A 1_555 1_555
H56A C60A 1_555 1_555
H57A C60A 1_555 1_555
C61A C53A 1_555 1_555
H58A C61A 1_555 1_555
H59A C61A 1_555 1_555
H60A C61A 1_555 1_555
C62A C35A 1_555 1_555
H61A C62A 1_555 1_555
H62A C62A 1_555 1_555
H63A C62A 1_555 1_555
C63A C43A 1_555 1_555
H64A C63A 1_555 1_555
H65A C63A 1_555 1_555
H66A C63A 1_555 1_555
C64A C35A 1_555 1_555
H67A C64A 1_555 1_555
H68A C64A 1_555 1_555
H69A C64A 1_555 1_555
C65A O2A 1_555 1_555
O3A Na2 1_555 1_555
C66A C1A 1_555 1_555
Na3 O3 1_555 1_555
Na3 O2A 1_555 1_555
C3 C65 1_555 1_555
C8 C10 1_555 1_555
C13 C20 1_555 1_555
C17 C65 1_555 1_555
C21 C25 1_555 1_555
C22 C66 1_555 1_555
C23 C28 1_555 1_555
C32 C42 1_555 1_555
C34 C36 1_555 1_555
C40 C50 1_555 1_555
C41 C48 1_555 1_555
C44 C47 1_555 1_555
C44 C51 1_555 1_555
C49 C52 1_555 1_555
O3 C66 1_555 1_555
O3 Na2A 1_555 1_555
C71 C72 1_555 1_555
Na1A O2A 1_555 1_555
Na1A O3A 1_555 1_555
Na3A O1A 1_555 1_555
Na3A O3A 1_555 1_555
C3A C65A 1_555 1_555
C4A C6A 1_555 1_555
C8A C10A 1_555 1_555
C13A C20A 1_555 1_555
C17A C65A 1_555 1_555
C21A C25A 1_555 1_555
C22A C66A 1_555 1_555
C23A C28A 1_555 1_555
C32A C42A 1_555 1_555
C34A C36A 1_555 1_555
C40A C50A 1_555 1_555
C41A C48A 1_555 1_555
C44A C47A 1_555 1_555
C44A C51A 1_555 1_555
C49A C52A 1_555 1_555
O3A C66A 1_555 1_555

#END
