
#######################################################################
#
#                 Cambridge Crystallographic Data Centre
#                                CCDC 
#
#######################################################################
#
# If this CIF has been generated from an entry in the Cambridge 
# Structural Database, then it will include bibliographic, chemical, 
# crystal, experimental, refinement or atomic coordinate data resulting 
# from the CCDC's data processing and validation procedures.
#
#######################################################################

data_ERIKUN02
_chemical_formula_moiety         'C17 H14 O4'
_chemical_name_systematic        
7-(benzyloxy)-4-(hydroxymethyl)-2H-chromen-2-one
_symmetry_cell_setting           monoclinic
_symmetry_space_group_name_H-M   'P 21/n'
_symmetry_Int_Tables_number      14
_space_group_name_Hall           '-P 2yn'
loop_
_symmetry_equiv_pos_site_id
_symmetry_equiv_pos_as_xyz
1 x,y,z
2 1/2-x,1/2+y,1/2-z
3 -x,-y,-z
4 1/2+x,1/2-y,1/2+z
_cell_length_a                   8.1218(5)
_cell_length_b                   27.7422(16)
_cell_length_c                   12.2315(7)
_cell_angle_alpha                90
_cell_angle_beta                 95.062(2)
_cell_angle_gamma                90
_cell_volume                     2745.21
_exptl_crystal_colour            colorless
_exptl_crystal_description       block
_cell_formula_units_Z            8
loop_
_atom_site_label
_atom_site_type_symbol
_atom_site_fract_x
_atom_site_fract_y
_atom_site_fract_z
O1 O 0.75326(10) 0.30893(3) 0.87085(6)
O2 O 0.79216(11) 0.23154(3) 0.84747(7)
O3 O 0.68687(11) 0.47835(3) 0.90692(8)
O4 O 0.45814(13) 0.23198(3) 1.16447(8)
H1 H 0.4071 0.2278 1.2186
C1 C 0.59969(13) 0.33920(4) 1.01606(9)
C2 C 0.68944(13) 0.34679(4) 0.92597(9)
C3 C 0.57225(13) 0.29008(4) 1.04917(9)
C4 C 0.72757(14) 0.26165(4) 0.90033(9)
C5 C 0.63070(14) 0.25365(4) 0.99147(9)
H2 H 0.6077 0.2221 1.0112
C6 C 0.72110(14) 0.39219(4) 0.88544(10)
H3 H 0.7809 0.3959 0.8245
C7 C 0.53950(15) 0.38054(4) 1.06601(10)
H4 H 0.4781 0.3770 1.1262
C8 C 0.66165(14) 0.43189(4) 0.93770(11)
C9 C 0.47919(16) 0.28159(5) 1.14793(10)
H5 H 0.5395 0.2956 1.2122
H6 H 0.3720 0.2971 1.1376
C10 C 0.81638(16) 0.53784(4) 0.80077(11)
C11 C 0.56902(16) 0.42581(5) 1.02824(11)
H7 H 0.5277 0.4526 1.0626
C12 C 0.78622(18) 0.48495(5) 0.81643(12)
H8 H 0.7298 0.4715 0.7501
H9 H 0.8908 0.4683 0.8311
C13 C 0.88895(19) 0.63397(5) 0.76418(13)
H10 H 0.9139 0.6661 0.7518
C14 C 0.74778(19) 0.56129(5) 0.70907(13)
H11 H 0.6766 0.5448 0.6584
C15 C 0.7835(2) 0.60927(5) 0.69115(14)
H12 H 0.7353 0.6248 0.6290
C16 C 0.9209(2) 0.56298(5) 0.87432(12)
H13 H 0.9676 0.5477 0.9373
C17 C 0.9573(2) 0.61070(5) 0.85585(14)
H14 H 1.0290 0.6272 0.9062
O5 O 0.70063(10) 0.29882(3) 0.42422(6)
O6 O 0.70711(12) 0.21989(3) 0.41995(7)
O7 O 0.68889(12) 0.47061(3) 0.41357(8)
O8 O 0.39516(12) 0.24931(4) 0.74044(8)
H15 H 0.3433 0.2499 0.7950
C18 C 0.55387(13) 0.34192(4) 0.55640(9)
C19 C 0.64986(14) 0.34143(4) 0.46715(9)
C20 C 0.51204(13) 0.29634(4) 0.60391(9)
C21 C 0.56435(14) 0.25512(4) 0.56078(9)
H16 H 0.5385 0.2259 0.5925
C22 C 0.40670(15) 0.29607(4) 0.69866(9)
H17 H 0.4545 0.3173 0.7559
H18 H 0.2971 0.3079 0.6746
C23 C 0.50527(15) 0.38732(4) 0.59265(10)
H19 H 0.4402 0.3892 0.6514
C24 C 0.65960(14) 0.25488(4) 0.46652(9)
C25 C 0.69898(15) 0.38288(4) 0.41588(10)
H20 H 0.7632 0.3812 0.3567
C26 C 0.82344(16) 0.52332(4) 0.29697(10)
C27 C 0.64987(15) 0.42690(4) 0.45516(10)
C28 C 0.55143(16) 0.42896(5) 0.54368(11)
H21 H 0.5175 0.4586 0.5691
C29 C 0.76068(17) 0.54345(5) 0.19887(11)
H22 H 0.6933 0.5251 0.1495
C30 C 0.89542(16) 0.61815(5) 0.24513(12)
H23 H 0.9203 0.6498 0.2275
C31 C 0.78987(18) 0.47154(5) 0.32327(12)
H24 H 0.7332 0.4557 0.2600
H25 H 0.8930 0.4547 0.3426
C32 C 0.79697(18) 0.59071(5) 0.17316(12)
H26 H 0.7542 0.6038 0.1067
C33 C 0.92114(19) 0.55161(5) 0.36914(12)
H27 H 0.9635 0.5388 0.4361
C34 C 0.95693(19) 0.59882(5) 0.34304(13)
H28 H 1.0232 0.6175 0.3924
loop_
_geom_bond_atom_site_label_1
_geom_bond_atom_site_label_2
_geom_bond_site_symmetry_1
_geom_bond_site_symmetry_2
O1 C2 1_555 1_555
O2 C4 1_555 1_555
O3 C8 1_555 1_555
O4 H1 1_555 1_555
C1 C2 1_555 1_555
C2 C6 1_555 1_555
C3 C1 1_555 1_555
C4 O1 1_555 1_555
C5 C3 1_555 1_555
H2 C5 1_555 1_555
C6 H3 1_555 1_555
C7 C1 1_555 1_555
H4 C7 1_555 1_555
C8 C6 1_555 1_555
C9 O4 1_555 1_555
H5 C9 1_555 1_555
H6 C9 1_555 1_555
C10 C12 1_555 1_555
C11 C7 1_555 1_555
H7 C11 1_555 1_555
C12 O3 1_555 1_555
H8 C12 1_555 1_555
H9 C12 1_555 1_555
C13 H10 1_555 1_555
C14 C10 1_555 1_555
H11 C14 1_555 1_555
C15 C13 1_555 1_555
H12 C15 1_555 1_555
C16 C10 1_555 1_555
H13 C16 1_555 1_555
C17 C13 1_555 1_555
H14 C17 1_555 1_555
O5 C19 1_555 1_555
O6 C24 1_555 1_555
O7 C27 1_555 1_555
O8 H15 1_555 1_555
C18 C19 1_555 1_555
C19 C25 1_555 1_555
C20 C18 1_555 1_555
C21 C20 1_555 1_555
H16 C21 1_555 1_555
C22 O8 1_555 1_555
H17 C22 1_555 1_555
H18 C22 1_555 1_555
C23 C18 1_555 1_555
H19 C23 1_555 1_555
C24 O5 1_555 1_555
C25 H20 1_555 1_555
C26 C29 1_555 1_555
C27 C25 1_555 1_555
C28 C23 1_555 1_555
H21 C28 1_555 1_555
C29 H22 1_555 1_555
C30 H23 1_555 1_555
C31 O7 1_555 1_555
H24 C31 1_555 1_555
H25 C31 1_555 1_555
C32 C29 1_555 1_555
H26 C32 1_555 1_555
C33 C26 1_555 1_555
H27 C33 1_555 1_555
C34 C30 1_555 1_555
H28 C34 1_555 1_555
C3 C9 1_555 1_555
C4 C5 1_555 1_555
C8 C11 1_555 1_555
C14 C15 1_555 1_555
C16 C17 1_555 1_555
C20 C22 1_555 1_555
C21 C24 1_555 1_555
C26 C31 1_555 1_555
C27 C28 1_555 1_555
C30 C32 1_555 1_555
C33 C34 1_555 1_555

#END
