
#######################################################################
#
#                 Cambridge Crystallographic Data Centre
#                                CCDC 
#
#######################################################################
#
# If this CIF has been generated from an entry in the Cambridge 
# Structural Database, then it will include bibliographic, chemical, 
# crystal, experimental, refinement or atomic coordinate data resulting 
# from the CCDC's data processing and validation procedures.
#
#######################################################################

data_EROBEU
_chemical_formula_moiety         'C24 H22 F2 N2 O3'
_chemical_name_systematic        
'ethyl (2,6-dimethyl-1-oxo-5-phenyl-1,2,3,6-tetrahydroazepino[4,3-b]indol-4-yl)(difluoro)acetate'
_symmetry_cell_setting           orthorhombic
_symmetry_space_group_name_H-M   'P b c a'
_symmetry_Int_Tables_number      61
_space_group_name_Hall           '-P 2ac 2ab'
loop_
_symmetry_equiv_pos_site_id
_symmetry_equiv_pos_as_xyz
1 x,y,z
2 1/2-x,-y,1/2+z
3 1/2+x,1/2-y,-z
4 -x,1/2+y,1/2-z
5 -x,-y,-z
6 1/2+x,y,1/2-z
7 1/2-x,1/2+y,z
8 x,1/2-y,1/2+z
_cell_length_a                   12.2175(2)
_cell_length_b                   15.8782(3)
_cell_length_c                   22.0697(4)
_cell_angle_alpha                90
_cell_angle_beta                 90
_cell_angle_gamma                90
_cell_volume                     4281.34
_exptl_crystal_colour            colorless
_exptl_crystal_description       block
_chemical_melting_point          '172-174 deg.C'
_cell_formula_units_Z            8
loop_
_atom_site_label
_atom_site_type_symbol
_atom_site_fract_x
_atom_site_fract_y
_atom_site_fract_z
F1 F 0.20032(12) -0.21729(13) 0.58752(9)
F2 F 0.20248(11) -0.08087(12) 0.59326(8)
O1 O 0.62678(11) 0.03385(8) 0.60559(6)
O2 O 0.1761(2) -0.19635(18) 0.70626(13)
O3 O 0.30418(16) -0.09592(11) 0.70608(7)
N1 N 0.64229(12) -0.24962(9) 0.59066(7)
N2 N 0.46283(12) -0.01461(9) 0.57278(6)
C1 C 0.74183(14) -0.21466(11) 0.57603(8)
C2 C 0.84359(16) -0.25381(14) 0.56806(10)
H1 H 0.8520 -0.3116 0.5730
C3 C 0.92976(17) -0.20351(16) 0.55274(11)
H2 H 0.9984 -0.2277 0.5472
C4 C 0.91772(16) -0.11663(15) 0.54511(11)
H3 H 0.9781 -0.0844 0.5342
C5 C 0.81848(14) -0.07797(13) 0.55350(9)
H4 H 0.8112 -0.0201 0.5485
C6 C 0.72818(13) -0.12749(11) 0.56981(7)
C7 C 0.61486(13) -0.11033(10) 0.58091(7)
C8 C 0.56455(13) -0.18663(10) 0.59355(7)
C9 C 0.45057(13) -0.20093(11) 0.61211(7)
C10 C 0.37273(14) -0.14990(13) 0.58949(8)
C11 C 0.40259(14) -0.08294(12) 0.54446(8)
H5 H 0.4469 -0.1076 0.5126
H6 H 0.3364 -0.0608 0.5261
C12 C 0.56946(14) -0.02504(10) 0.58756(7)
C13 C 0.6262(2) -0.34054(12) 0.59474(14)
H7 H 0.6418 -0.3591 0.6352
H8 H 0.6744 -0.3684 0.5669
H9 H 0.5517 -0.3540 0.5848
C14 C 0.40708(18) 0.06375(14) 0.58835(10)
H10 H 0.3580 0.0540 0.6216
H11 H 0.3664 0.0835 0.5539
H12 H 0.4602 0.1054 0.5998
C15 C 0.25666(16) -0.15170(17) 0.61246(12)
C16 C 0.2402(2) -0.15306(19) 0.68107(13)
C17 C 0.3028(4) -0.0881(2) 0.77219(13)
H13 H 0.3137 -0.1427 0.7909
H14 H 0.2332 -0.0656 0.7857
C18 C 0.3926(5) -0.0304(3) 0.78870(16)
H15 H 0.4597 -0.0502 0.7712
H16 H 0.3997 -0.0285 0.8320
H17 H 0.3767 0.0250 0.7737
C19 C 0.42828(15) -0.26453(12) 0.66031(8)
C20 C 0.3589(2) -0.33237(15) 0.65151(11)
H18 H 0.3262 -0.3408 0.6139
C21 C 0.3382(2) -0.38758(18) 0.69848(13)
H19 H 0.2922 -0.4334 0.6921
C22 C 0.3848(2) -0.37558(18) 0.75440(12)
H20 H 0.3683 -0.4118 0.7863
C23 C 0.4559(2) -0.30974(16) 0.76289(10)
H21 H 0.4888 -0.3018 0.8004
C24 C 0.47866(16) -0.25511(13) 0.71577(9)
H22 H 0.5285 -0.2116 0.7216
loop_
_geom_bond_atom_site_label_1
_geom_bond_atom_site_label_2
_geom_bond_site_symmetry_1
_geom_bond_site_symmetry_2
F1 C15 1_555 1_555
F2 C15 1_555 1_555
O1 C12 1_555 1_555
O2 C16 1_555 1_555
O3 C16 1_555 1_555
N1 C1 1_555 1_555
N2 C11 1_555 1_555
C1 C2 1_555 1_555
C2 H1 1_555 1_555
C3 C2 1_555 1_555
H2 C3 1_555 1_555
C4 C3 1_555 1_555
H3 C4 1_555 1_555
C5 C4 1_555 1_555
H4 C5 1_555 1_555
C6 C1 1_555 1_555
C7 C6 1_555 1_555
C8 N1 1_555 1_555
C9 C8 1_555 1_555
C10 C9 1_555 1_555
C11 C10 1_555 1_555
H5 C11 1_555 1_555
H6 C11 1_555 1_555
C12 N2 1_555 1_555
C13 N1 1_555 1_555
H7 C13 1_555 1_555
H8 C13 1_555 1_555
H9 C13 1_555 1_555
C14 N2 1_555 1_555
H10 C14 1_555 1_555
H11 C14 1_555 1_555
H12 C14 1_555 1_555
C15 C10 1_555 1_555
C16 C15 1_555 1_555
C17 O3 1_555 1_555
H13 C17 1_555 1_555
H14 C17 1_555 1_555
C18 C17 1_555 1_555
H15 C18 1_555 1_555
H16 C18 1_555 1_555
H17 C18 1_555 1_555
C19 C9 1_555 1_555
C20 C19 1_555 1_555
H18 C20 1_555 1_555
C21 C20 1_555 1_555
H19 C21 1_555 1_555
C22 C21 1_555 1_555
H20 C22 1_555 1_555
C23 C22 1_555 1_555
H21 C23 1_555 1_555
C24 C19 1_555 1_555
H22 C24 1_555 1_555
C5 C6 1_555 1_555
C7 C8 1_555 1_555
C7 C12 1_555 1_555
C23 C24 1_555 1_555

#END
