
#######################################################################
#
#                 Cambridge Crystallographic Data Centre
#                                CCDC 
#
#######################################################################
#
# If this CIF has been generated from an entry in the Cambridge 
# Structural Database, then it will include bibliographic, chemical, 
# crystal, experimental, refinement or atomic coordinate data resulting 
# from the CCDC's data processing and validation procedures.
#
#######################################################################

data_ERODIY
_chemical_formula_moiety         'Cl1 1-,C18 H20 N3 1+'
_chemical_name_systematic        
'2,3-Diphenyl-1,4,6-triazabicyclo(3.3.1)non-2-ene hydrochloride'
_symmetry_cell_setting           monoclinic
_symmetry_space_group_name_H-M   'P 21/c'
_symmetry_Int_Tables_number      14
_space_group_name_Hall           '-P 2ybc'
loop_
_symmetry_equiv_pos_site_id
_symmetry_equiv_pos_as_xyz
1 x,y,z
2 -x,1/2+y,1/2-z
3 -x,-y,-z
4 x,1/2-y,1/2+z
_cell_length_a                   16.9341(6)
_cell_length_b                   7.7564(3)
_cell_length_c                   12.1000(4)
_cell_angle_alpha                90
_cell_angle_beta                 96.1880(10)
_cell_angle_gamma                90
_cell_volume                     1580.05
_chemical_melting_point          '230 deg.C'
_cell_formula_units_Z            4
loop_
_atom_site_label
_atom_site_type_symbol
_atom_site_fract_x
_atom_site_fract_y
_atom_site_fract_z
Cl1 Cl 0.0235(1) 0.2837(1) -0.3942(1)
N1 N 0.1351(1) -0.0462(2) -0.2902(1)
N2 N 0.2283(1) -0.3115(2) -0.3608(1)
N3 N 0.0692(1) -0.3228(2) -0.3073(1)
C1 C 0.3415(1) -0.2361(2) -0.2294(1)
C2 C 0.3920(1) -0.3223(3) -0.2929(1)
C3 C 0.4669(1) -0.3722(3) -0.2509(2)
C4 C 0.4930(1) -0.3374(3) -0.1412(2)
C5 C 0.4436(1) -0.2561(3) -0.0759(2)
C6 C 0.3681(1) -0.2071(2) -0.1176(1)
C7 C 0.2608(1) -0.1889(2) -0.2795(1)
C8 C 0.2165(1) -0.0534(2) -0.2535(1)
C9 C 0.2444(1) 0.0929(2) -0.1807(1)
C10 C 0.3173(1) 0.1709(2) -0.1880(1)
C11 C 0.3439(1) 0.3011(2) -0.1162(2)
C12 C 0.2974(1) 0.3577(2) -0.0362(2)
C13 C 0.2242(1) 0.2855(2) -0.0299(2)
C14 C 0.1975(1) 0.1539(2) -0.1017(1)
C15 C 0.1012(1) -0.1699(2) -0.3681(1)
C16 C 0.1637(1) -0.2384(2) -0.4352(1)
C17 C 0.1321(1) -0.4219(2) -0.2392(1)
C18 C 0.1990(1) -0.4660(2) -0.3071(1)
loop_
_geom_bond_atom_site_label_1
_geom_bond_atom_site_label_2
_geom_bond_site_symmetry_1
_geom_bond_site_symmetry_2
N1 C8 1_555 1_555
N2 C7 1_555 1_555
N3 C15 1_555 1_555
C1 C2 1_555 1_555
C2 C3 1_555 1_555
C3 C4 1_555 1_555
C4 C5 1_555 1_555
C5 C6 1_555 1_555
C6 C1 1_555 1_555
C7 C1 1_555 1_555
C8 C7 1_555 1_555
C9 C8 1_555 1_555
C10 C9 1_555 1_555
C11 C10 1_555 1_555
C12 C11 1_555 1_555
C13 C12 1_555 1_555
C14 C9 1_555 1_555
C15 N1 1_555 1_555
C16 N2 1_555 1_555
C17 N3 1_555 1_555
C18 N2 1_555 1_555
C13 C14 1_555 1_555
C15 C16 1_555 1_555
C17 C18 1_555 1_555

#END
