
#######################################################################
#
#                 Cambridge Crystallographic Data Centre
#                                CCDC 
#
#######################################################################
#
# If this CIF has been generated from an entry in the Cambridge 
# Structural Database, then it will include bibliographic, chemical, 
# crystal, experimental, refinement or atomic coordinate data resulting 
# from the CCDC's data processing and validation procedures.
#
#######################################################################

data_EROFIC
_chemical_name_common            (E)-2-Styryl-2H-indazole
_chemical_formula_moiety         'C15 H12 N2'
_chemical_name_systematic        2-(2-phenylvinyl)-2H-indazole
_symmetry_cell_setting           orthorhombic
_symmetry_space_group_name_H-M   'P c a 21'
_symmetry_Int_Tables_number      29
_space_group_name_Hall           'P 2c -2ac'
loop_
_symmetry_equiv_pos_site_id
_symmetry_equiv_pos_as_xyz
1 x,y,z
2 -x,-y,1/2+z
3 1/2+x,-y,z
4 1/2-x,y,1/2+z
_cell_length_a                   7.8713(4)
_cell_length_b                   5.7010(3)
_cell_length_c                   25.0463(13)
_cell_angle_alpha                90
_cell_angle_beta                 90
_cell_angle_gamma                90
_cell_volume                     1123.93
_exptl_crystal_colour            colorless
_exptl_crystal_description       block
_chemical_melting_point          '131-133 deg.C'
_cell_formula_units_Z            4
loop_
_atom_site_label
_atom_site_type_symbol
_atom_site_fract_x
_atom_site_fract_y
_atom_site_fract_z
C1 C 0.0733(3) 0.6181(4) 0.99108(9)
C2 C 0.2586(3) 0.3665(4) 0.83904(10)
H1 H 0.2592 0.2459 0.8640
C3 C 0.3154(3) 0.3123(4) 0.78474(10)
C4 C -0.0555(3) 0.7436(4) 1.07194(11)
H2 H -0.0828 0.7189 1.1076
C5 C 0.2064(3) 0.5761(4) 0.85485(10)
H3 H 0.2068 0.6966 0.8298
C6 C 0.0257(3) 0.8341(4) 0.96632(9)
C7 C 0.4570(4) 0.0473(5) 0.72378(11)
H4 H 0.5162 -0.0916 0.7179
C8 C 0.2809(3) 0.4605(4) 0.74144(10)
H5 H 0.2207 0.5988 0.7470
C9 C 0.3351(4) 0.4036(5) 0.69059(11)
H6 H 0.3127 0.5044 0.6623
C10 C 0.4230(3) 0.1958(5) 0.68173(11)
H7 H 0.4588 0.1571 0.6475
C11 C 0.4030(3) 0.1050(4) 0.77487(11)
H8 H 0.4257 0.0033 0.8030
C12 C 0.0337(3) 0.5766(4) 1.04521(10)
H9 H 0.0677 0.4391 1.0621
C13 C -0.0673(3) 1.0046(4) 0.99505(10)
H10 H -0.0993 1.1453 0.9792
C14 C -0.1086(3) 0.9563(5) 1.04664(11)
H11 H -0.1727 1.0640 1.0659
N1 N 0.1502(2) 0.6299(3) 0.90686(8)
C15 C 0.1533(3) 0.4920(4) 0.95085(9)
H12 H 0.1998 0.3425 0.9536
N2 N 0.0740(3) 0.8419(3) 0.91463(8)
loop_
_geom_bond_atom_site_label_1
_geom_bond_atom_site_label_2
_geom_bond_site_symmetry_1
_geom_bond_site_symmetry_2
C1 C6 1_555 1_555
C2 H1 1_555 1_555
C3 C2 1_555 1_555
C4 H2 1_555 1_555
C5 C2 1_555 1_555
H3 C5 1_555 1_555
C6 C13 1_555 1_555
C7 H4 1_555 1_555
C8 C3 1_555 1_555
H5 C8 1_555 1_555
C9 C8 1_555 1_555
H6 C9 1_555 1_555
C10 C7 1_555 1_555
H7 C10 1_555 1_555
C11 C3 1_555 1_555
H8 C11 1_555 1_555
C12 C1 1_555 1_555
H9 C12 1_555 1_555
C13 H10 1_555 1_555
C14 C4 1_555 1_555
H11 C14 1_555 1_555
N1 C5 1_555 1_555
C15 C1 1_555 1_555
H12 C15 1_555 1_555
N2 C6 1_555 1_555
C4 C12 1_555 1_555
C7 C11 1_555 1_555
C9 C10 1_555 1_555
C13 C14 1_555 1_555
N1 C15 1_555 1_555
N1 N2 1_555 1_555

#END
