
#######################################################################
#
#                 Cambridge Crystallographic Data Centre
#                                CCDC 
#
#######################################################################
#
# If this CIF has been generated from an entry in the Cambridge 
# Structural Database, then it will include bibliographic, chemical, 
# crystal, experimental, refinement or atomic coordinate data resulting 
# from the CCDC's data processing and validation procedures.
#
#######################################################################

data_EROJUR
_chemical_formula_moiety         'C7 H8 N2 O5 S1,C2 H6 O1'
_chemical_name_systematic        
'N-(2-Hydroxy-5-nitrophenyl)methanesulfonamide ethanol solvate'
_symmetry_cell_setting           monoclinic
_symmetry_space_group_name_H-M   'P 21/c'
_symmetry_Int_Tables_number      14
_space_group_name_Hall           '-P 2ybc'
loop_
_symmetry_equiv_pos_site_id
_symmetry_equiv_pos_as_xyz
1 x,y,z
2 -x,1/2+y,1/2-z
3 -x,-y,-z
4 x,1/2-y,1/2+z
_cell_length_a                   11.709(3)
_cell_length_b                   8.8521(18)
_cell_length_c                   12.439(3)
_cell_angle_alpha                90
_cell_angle_beta                 112.459(7)
_cell_angle_gamma                90
_cell_volume                     1191.5
_exptl_crystal_colour            colorless
_exptl_crystal_description       prism
_cell_formula_units_Z            4
_exptl_crystal_recrystallization_method ethanol
loop_
_atom_site_label
_atom_site_type_symbol
_atom_site_fract_x
_atom_site_fract_y
_atom_site_fract_z
S1 S 0.23077(3) 0.44845(4) 0.61896(3)
O1 O 0.14081(9) 0.51062(11) 0.65857(8)
O2 O 0.34570(9) 0.52619(10) 0.64474(8)
O3 O 0.37065(9) 0.01532(12) 0.74369(9)
H1 H 0.4002(16) -0.069(2) 0.7674(14)
O4 O -0.18590(9) 0.18630(12) 0.56941(9)
O5 O -0.20141(9) -0.05693(11) 0.57761(9)
N1 N 0.27051(11) 0.28099(13) 0.67419(10)
N2 N -0.13955(11) 0.05910(14) 0.59166(10)
C1 C 0.16076(13) 0.42769(17) 0.46762(11)
H2 H 0.1501 0.5273 0.4306
H3 H 0.0799 0.3794 0.4472
H4 H 0.2132 0.3648 0.4404
C2 C 0.19037(12) 0.16067(15) 0.67166(11)
C3 C 0.06316(12) 0.17416(16) 0.63523(11)
H5 H 0.0237 0.2689 0.6104
C4 C -0.00540(13) 0.04612(16) 0.63584(11)
C5 C 0.04822(13) -0.09282(16) 0.67288(11)
H6 H -0.0010 -0.1780 0.6732
C6 C 0.17558(13) -0.10593(16) 0.70973(11)
H7 H 0.2141 -0.2009 0.7354
C7 C 0.24676(12) 0.01876(16) 0.70925(11)
H8 H 0.3450(15) 0.2597(17) 0.6838(12)
O6 O 0.52899(9) 0.24326(11) 0.69398(9)
H9 H 0.5557(16) 0.1858(19) 0.7445(13)
C8 C 0.52156(14) 0.16205(16) 0.58969(12)
H10 H 0.4508 0.0912 0.5656
H11 H 0.5981 0.1029 0.6057
C9 C 0.50525(15) 0.27419(19) 0.49432(12)
H12 H 0.4315 0.3355 0.4814
H13 H 0.4957 0.2203 0.4226
H14 H 0.5780 0.3400 0.5168
loop_
_geom_bond_atom_site_label_1
_geom_bond_atom_site_label_2
_geom_bond_site_symmetry_1
_geom_bond_site_symmetry_2
S1 O1 1_555 1_555
O2 S1 1_555 1_555
O3 H1 1_555 1_555
O4 N2 1_555 1_555
O5 N2 1_555 1_555
N1 S1 1_555 1_555
N2 C4 1_555 1_555
C1 S1 1_555 1_555
H2 C1 1_555 1_555
H3 C1 1_555 1_555
H4 C1 1_555 1_555
C2 N1 1_555 1_555
C3 C2 1_555 1_555
H5 C3 1_555 1_555
C4 C3 1_555 1_555
C5 C4 1_555 1_555
H6 C5 1_555 1_555
C6 C5 1_555 1_555
H7 C6 1_555 1_555
C7 O3 1_555 1_555
H8 N1 1_555 1_555
O6 H9 1_555 1_555
C8 O6 1_555 1_555
H10 C8 1_555 1_555
H11 C8 1_555 1_555
C9 C8 1_555 1_555
H12 C9 1_555 1_555
H13 C9 1_555 1_555
H14 C9 1_555 1_555
C2 C7 1_555 1_555
C6 C7 1_555 1_555

#END
