
#######################################################################
#
#                 Cambridge Crystallographic Data Centre
#                                CCDC 
#
#######################################################################
#
# If this CIF has been generated from an entry in the Cambridge 
# Structural Database, then it will include bibliographic, chemical, 
# crystal, experimental, refinement or atomic coordinate data resulting 
# from the CCDC's data processing and validation procedures.
#
#######################################################################

data_EROMOP
_chemical_name_common            'ammonium (2RS,3SR)-2-amino-3-methylpentanoate'
_chemical_formula_moiety         'C8 H14 N1 O3 1-,H4 N1 1+'
_chemical_name_systematic        'ammonium 2-acetamido-3-methylpentanoate'
_symmetry_cell_setting           orthorhombic
_symmetry_space_group_name_H-M   'P n a 21'
_symmetry_Int_Tables_number      33
_space_group_name_Hall           'P 2c -2n'
loop_
_symmetry_equiv_pos_site_id
_symmetry_equiv_pos_as_xyz
1 x,y,z
2 1/2-x,1/2+y,1/2+z
3 1/2+x,1/2-y,z
4 -x,-y,1/2+z
_cell_length_a                   24.376(3)
_cell_length_b                   7.5507(8)
_cell_length_c                   5.8064(5)
_cell_angle_alpha                90
_cell_angle_beta                 90
_cell_angle_gamma                90
_cell_volume                     1068.7
_exptl_crystal_colour            colorless
_exptl_crystal_description       needle
_cell_formula_units_Z            4
loop_
_atom_site_label
_atom_site_type_symbol
_atom_site_fract_x
_atom_site_fract_y
_atom_site_fract_z
O1 O 0.39641(10) 0.3190(4) 0.4103(4)
O2 O 0.45083(10) 0.3368(4) 0.7185(4)
O3 O 0.42518(10) -0.0952(4) 0.7799(4)
N1 N 0.38192(10) 0.1229(4) 0.9732(5)
C1 C 0.40615(14) 0.2907(5) 0.6194(6)
C2 C 0.36161(14) 0.1991(5) 0.7585(6)
C3 C 0.31260(15) 0.3224(5) 0.7977(7)
C4 C 0.26513(17) 0.2241(7) 0.9170(9)
C5 C 0.21054(18) 0.3180(8) 0.8962(10)
C6 C 0.32904(18) 0.4925(6) 0.9222(8)
C7 C 0.41341(12) -0.0236(5) 0.9677(6)
C8 C 0.43278(18) -0.0977(6) 1.1936(7)
H1 H 0.3477(13) 0.091(6) 0.678(8)
H2 H 0.2998(16) 0.357(5) 0.637(7)
H3 H 0.2630(16) 0.091(7) 0.846(8)
H4 H 0.2767(19) 0.232(6) 1.077(9)
H5 H 0.2018(17) 0.343(6) 0.720(10)
H6 H 0.179(2) 0.246(6) 0.972(11)
H7 H 0.214(3) 0.451(9) 0.983(13)
H8 H 0.2970(15) 0.583(5) 0.941(7)
H9 H 0.3394(16) 0.466(7) 1.083(8)
H10 H 0.3581(18) 0.564(7) 0.825(8)
H11 H 0.3768(17) 0.196(6) 1.120(8)
H12 H 0.4173(16) -0.224(7) 1.198(8)
H13 H 0.4206(18) -0.025(7) 1.309(8)
H14 H 0.476(3) -0.105(7) 1.185(10)
N2 N 0.49437(14) 0.3419(5) 1.1629(7)
H15 H 0.4788(17) 0.321(6) 1.038(9)
H16 H 0.462(3) 0.339(8) 1.280(9)
H17 H 0.5109(16) 0.445(6) 1.169(7)
H18 H 0.5239(17) 0.249(7) 1.212(8)
loop_
_geom_bond_atom_site_label_1
_geom_bond_atom_site_label_2
_geom_bond_site_symmetry_1
_geom_bond_site_symmetry_2
O1 C1 1_555 1_555
O2 C1 1_555 1_555
O3 C7 1_555 1_555
N1 C2 1_555 1_555
C1 C2 1_555 1_555
C2 C3 1_555 1_555
C3 C4 1_555 1_555
C4 C5 1_555 1_555
C5 H5 1_555 1_555
C6 C3 1_555 1_555
C7 N1 1_555 1_555
C8 C7 1_555 1_555
H1 C2 1_555 1_555
H2 C3 1_555 1_555
H3 C4 1_555 1_555
H4 C4 1_555 1_555
H6 C5 1_555 1_555
H7 C5 1_555 1_555
H8 C6 1_555 1_555
H9 C6 1_555 1_555
H10 C6 1_555 1_555
H11 N1 1_555 1_555
H12 C8 1_555 1_555
H13 C8 1_555 1_555
H14 C8 1_555 1_555
N2 H15 1_555 1_555
H16 N2 1_555 1_555
H17 N2 1_555 1_555
H18 N2 1_555 1_555

#END
