
#######################################################################
#
#                 Cambridge Crystallographic Data Centre
#                                CCDC 
#
#######################################################################
#
# If this CIF has been generated from an entry in the Cambridge 
# Structural Database, then it will include bibliographic, chemical, 
# crystal, experimental, refinement or atomic coordinate data resulting 
# from the CCDC's data processing and validation procedures.
#
#######################################################################

data_ERORUZ
_chemical_formula_moiety         'C12 H10 Cl1 N5,C1 H4 O1'
_chemical_name_systematic        
'N-(2-Chloropyrimidin-4-yl)-2-methyl-2H-indazol-6-amine methanol solvate'
_symmetry_cell_setting           monoclinic
_symmetry_space_group_name_H-M   'P 21/c'
_symmetry_Int_Tables_number      14
_space_group_name_Hall           '-P 2ybc'
loop_
_symmetry_equiv_pos_site_id
_symmetry_equiv_pos_as_xyz
1 x,y,z
2 -x,1/2+y,1/2-z
3 -x,-y,-z
4 x,1/2-y,1/2+z
_cell_length_a                   6.9327(8)
_cell_length_b                   17.613(2)
_cell_length_c                   11.4883(16)
_cell_angle_alpha                90
_cell_angle_beta                 106.690(8)
_cell_angle_gamma                90
_cell_volume                     1343.69
_exptl_crystal_colour            colorless
_exptl_crystal_description       prism
_cell_formula_units_Z            4
loop_
_atom_site_label
_atom_site_type_symbol
_atom_site_fract_x
_atom_site_fract_y
_atom_site_fract_z
Cl1 Cl -0.00948(5) 0.910378(17) -0.00877(3)
N1 N -0.00275(16) 0.77456(6) -0.09446(10)
N2 N 0.16759(15) 0.79520(6) 0.11655(9)
N3 N 0.34415(16) 0.69626(6) 0.23692(9)
N4 N 0.65827(16) 0.92220(6) 0.46761(9)
N5 N 0.75805(16) 0.92466(6) 0.58823(9)
C1 C 0.05934(19) 0.81451(7) 0.00587(11)
C2 C 0.05172(19) 0.70044(7) -0.07866(11)
H1 H 0.0110 0.6673 -0.1466
C3 C 0.16207(18) 0.67115(7) 0.02996(11)
H2 H 0.1953 0.6187 0.0388
C4 C 0.22490(17) 0.72195(7) 0.12872(11)
C5 C 0.45085(18) 0.73798(7) 0.33979(11)
C6 C 0.52216(18) 0.69442(7) 0.44890(11)
H3 H 0.4942 0.6416 0.4469
C7 C 0.62928(18) 0.72683(7) 0.55577(11)
H4 H 0.6750 0.6973 0.6276
C8 C 0.67065(18) 0.80541(7) 0.55709(11)
C9 C 0.60301(17) 0.84828(7) 0.44820(11)
C10 C 0.49085(18) 0.81456(7) 0.33800(11)
H5 H 0.4448 0.8435 0.2655
C11 C 0.76954(18) 0.85771(7) 0.64502(11)
H6 H 0.8326 0.8478 0.7286
C12 C 0.8408(2) 0.99639(7) 0.64371(12)
H7 H 0.8857 0.9907 0.7323
H8 H 0.7370 1.0358 0.6215
H9 H 0.9554 1.0109 0.6147
H10 H 0.369(2) 0.6491(11) 0.2405(15)
C13 C 0.3829(3) 0.48388(8) 0.32210(13)
H11 H 0.5208 0.4662 0.3597
H12 H 0.2942 0.4400 0.2953
H13 H 0.3367 0.5132 0.3814
O1 O 0.37868(17) 0.53015(5) 0.22112(9)
H14 H 0.372(3) 0.5011(11) 0.1665(19)
loop_
_geom_bond_atom_site_label_1
_geom_bond_atom_site_label_2
_geom_bond_site_symmetry_1
_geom_bond_site_symmetry_2
Cl1 C1 1_555 1_555
N1 C1 1_555 1_555
N2 C1 1_555 1_555
N3 C4 1_555 1_555
N4 N5 1_555 1_555
N5 C11 1_555 1_555
C2 N1 1_555 1_555
H1 C2 1_555 1_555
C3 C2 1_555 1_555
H2 C3 1_555 1_555
C4 N2 1_555 1_555
C5 N3 1_555 1_555
C6 C5 1_555 1_555
H3 C6 1_555 1_555
C7 C6 1_555 1_555
H4 C7 1_555 1_555
C8 C7 1_555 1_555
C9 N4 1_555 1_555
C10 C5 1_555 1_555
H5 C10 1_555 1_555
C11 C8 1_555 1_555
H6 C11 1_555 1_555
C12 N5 1_555 1_555
H7 C12 1_555 1_555
H8 C12 1_555 1_555
H9 C12 1_555 1_555
H10 N3 1_555 1_555
C13 H11 1_555 1_555
H12 C13 1_555 1_555
H13 C13 1_555 1_555
O1 C13 1_555 1_555
H14 O1 1_555 1_555
C3 C4 1_555 1_555
C8 C9 1_555 1_555
C9 C10 1_555 1_555

#END
