
#######################################################################
#
#                 Cambridge Crystallographic Data Centre
#                                CCDC 
#
#######################################################################
#
# If this CIF has been generated from an entry in the Cambridge 
# Structural Database, then it will include bibliographic, chemical, 
# crystal, experimental, refinement or atomic coordinate data resulting 
# from the CCDC's data processing and validation procedures.
#
#######################################################################

data_EROSIO
_chemical_formula_moiety         'C11 H15 Cl1 N1 O1 1+,C7 H5 O2 1-'
_chemical_name_systematic        
'4-(4-Chlorophenyl)-4-hydroxypiperidinium benzoate'
_symmetry_cell_setting           triclinic
_symmetry_space_group_name_H-M   'P -1'
_symmetry_Int_Tables_number      2
_space_group_name_Hall           '-P 1'
loop_
_symmetry_equiv_pos_site_id
_symmetry_equiv_pos_as_xyz
1 x,y,z
2 -x,-y,-z
_cell_length_a                   9.6235(12)
_cell_length_b                   10.0971(16)
_cell_length_c                   10.2251(14)
_cell_angle_alpha                99.608(12)
_cell_angle_beta                 108.748(13)
_cell_angle_gamma                113.357(14)
_cell_volume                     812.738
_exptl_crystal_colour            colorless
_exptl_crystal_description       block
_chemical_melting_point          '498-501 K'
_cell_formula_units_Z            2
_exptl_crystal_recrystallization_method dimethylformamide
loop_
_atom_site_label
_atom_site_type_symbol
_atom_site_fract_x
_atom_site_fract_y
_atom_site_fract_z
Cl1 Cl 0.01350(8) 0.19249(7) 0.06335(5)
O1 O 0.37436(18) 0.44147(14) 0.79300(12)
H1 H 0.360(3) 0.498(2) 0.746(2)
N1 N 0.51659(18) 0.21683(15) 0.95370(13)
H2 H 0.514(2) 0.1342(16) 0.9106(18)
H3 H 0.561(2) 0.231(2) 1.0473(12)
C1 C 0.1141(2) 0.24120(18) 0.48209(16)
H4 H 0.0551 0.2344 0.5416
C2 C 0.0314(2) 0.21412(19) 0.33410(17)
H5 H -0.0832 0.1888 0.2920
C3 C 0.1181(2) 0.22451(18) 0.24891(16)
C4 C 0.2839(2) 0.2611(2) 0.30731(18)
H6 H 0.3419 0.2678 0.2470
C5 C 0.3653(2) 0.2881(2) 0.45636(17)
H7 H 0.4802 0.3140 0.4978
C6 C 0.28210(18) 0.27817(15) 0.54568(14)
C7 C 0.36689(18) 0.30769(15) 0.70961(14)
C8 C 0.54504(19) 0.32943(17) 0.76015(15)
H8 H 0.5421 0.2395 0.7006
H9 H 0.6156 0.4212 0.7432
C9 C 0.6232(2) 0.34823(18) 0.92121(16)
H10 H 0.7351 0.3556 0.9474
H11 H 0.6383 0.4445 0.9818
C10 C 0.3447(2) 0.19647(19) 0.91069(16)
H12 H 0.3496 0.2880 0.9697
H13 H 0.2763 0.1064 0.9310
C11 C 0.26339(19) 0.17363(18) 0.74911(16)
H14 H 0.1503 0.1632 0.7235
H15 H 0.2503 0.0774 0.6904
O2 O 0.46446(18) 0.94763(13) 0.77613(13)
O3 O 0.36182(17) 0.70222(13) 0.75160(12)
C12 C 0.37590(19) 0.80987(17) 0.70139(15)
C13 C 0.27602(18) 0.76646(16) 0.53903(15)
C14 C 0.1622(2) 0.61404(17) 0.45411(16)
H16 H 0.1524 0.5367 0.4977
C15 C 0.0633(2) 0.5739(2) 0.30681(18)
H17 H -0.0151 0.4695 0.2498
C16 C 0.0782(2) 0.6857(2) 0.24240(18)
H18 H 0.0093 0.6580 0.1413
C17 C 0.1924(2) 0.8366(2) 0.32407(19)
H19 H 0.2042 0.9130 0.2790
C18 C 0.2902(2) 0.87754(17) 0.47237(17)
H20 H 0.3677 0.9823 0.5289
loop_
_geom_bond_atom_site_label_1
_geom_bond_atom_site_label_2
_geom_bond_site_symmetry_1
_geom_bond_site_symmetry_2
Cl1 C3 1_555 1_555
O1 H1 1_555 1_555
O2 C12 1_555 1_555
O3 C12 1_555 1_555
N1 H2 1_555 1_555
H3 N1 1_555 1_555
C1 H4 1_555 1_555
C2 C1 1_555 1_555
H5 C2 1_555 1_555
C3 C2 1_555 1_555
C4 C3 1_555 1_555
H6 C4 1_555 1_555
C5 C4 1_555 1_555
H7 C5 1_555 1_555
C6 C1 1_555 1_555
C7 O1 1_555 1_555
C8 C7 1_555 1_555
H8 C8 1_555 1_555
H9 C8 1_555 1_555
C9 N1 1_555 1_555
H10 C9 1_555 1_555
H11 C9 1_555 1_555
C10 N1 1_555 1_555
H12 C10 1_555 1_555
H13 C10 1_555 1_555
C11 C7 1_555 1_555
H14 C11 1_555 1_555
H15 C11 1_555 1_555
C12 C13 1_555 1_555
C13 C14 1_555 1_555
C14 H16 1_555 1_555
C15 C14 1_555 1_555
H17 C15 1_555 1_555
C16 C15 1_555 1_555
H18 C16 1_555 1_555
C17 C16 1_555 1_555
H19 C17 1_555 1_555
C18 C13 1_555 1_555
H20 C18 1_555 1_555
C5 C6 1_555 1_555
C6 C7 1_555 1_555
C8 C9 1_555 1_555
C10 C11 1_555 1_555
C17 C18 1_555 1_555

#END
