
#######################################################################
#
#                 Cambridge Crystallographic Data Centre
#                                CCDC 
#
#######################################################################
#
# If this CIF has been generated from an entry in the Cambridge 
# Structural Database, then it will include bibliographic, chemical, 
# crystal, experimental, refinement or atomic coordinate data resulting 
# from the CCDC's data processing and validation procedures.
#
#######################################################################

data_ERUGII
_chemical_formula_moiety         'C21 H19 Cl1 N2 O5'
_chemical_name_systematic        
'Methyl 3-(4-chlorophenyl)-2-(1,3-dimethyl-2,5-dioxo-4-phenylimidazolidin-4-yl)-3-oxopropanoate'
_symmetry_cell_setting           monoclinic
_symmetry_space_group_name_H-M   'P 21/n'
_symmetry_Int_Tables_number      14
_space_group_name_Hall           '-P 2yn'
loop_
_symmetry_equiv_pos_site_id
_symmetry_equiv_pos_as_xyz
1 x,y,z
2 1/2-x,1/2+y,1/2-z
3 -x,-y,-z
4 1/2+x,1/2-y,1/2+z
_cell_length_a                   11.4644(11)
_cell_length_b                   12.0231(12)
_cell_length_c                   15.1184(15)
_cell_angle_alpha                90
_cell_angle_beta                 101.731(2)
_cell_angle_gamma                90
_cell_volume                     2040.36
_exptl_crystal_colour            colorless
_exptl_crystal_description       block
_cell_formula_units_Z            4
loop_
_atom_site_label
_atom_site_type_symbol
_atom_site_fract_x
_atom_site_fract_y
_atom_site_fract_z
C1 C 0.6491(2) 0.2716(2) 0.94021(16)
C2 C 0.6948(3) 0.3041(2) 1.02851(18)
H1 H 0.7238 0.2505 1.0718
C3 C 0.6979(3) 0.4144(3) 1.05292(19)
H2 H 0.7286 0.4356 1.1122
C4 C 0.6548(2) 0.4928(2) 0.9885(2)
C5 C 0.6083(3) 0.4641(2) 0.90104(19)
H3 H 0.5786 0.5183 0.8585
C6 C 0.6058(2) 0.3535(2) 0.87671(17)
H4 H 0.5750 0.3333 0.8172
C7 C 0.6478(2) 0.1512(2) 0.91874(15)
C8 C 0.6010(2) 0.1162(2) 0.81994(15)
H5 H 0.6337 0.1691 0.7821
C9 C 0.4663(2) 0.1244(2) 0.79297(18)
C10 C 0.2854(3) 0.1228(4) 0.8447(3)
H6 H 0.2548 0.1872 0.8102
H7 H 0.2578 0.1223 0.9006
H8 H 0.2582 0.0569 0.8109
C11 C 0.6383(2) -0.0019(2) 0.79438(15)
C12 C 0.6180(2) -0.0061(2) 0.69012(16)
C13 C 0.5134(2) -0.1486(2) 0.7368(2)
C14 C 0.5159(3) -0.1377(3) 0.5715(2)
H9 H 0.4433 -0.1012 0.5435
H10 H 0.5033 -0.2166 0.5712
H11 H 0.5771 -0.1207 0.5386
C15 C 0.5383(3) -0.1235(3) 0.9003(2)
H12 H 0.5019 -0.1958 0.8957
H13 H 0.4867 -0.0708 0.9207
H14 H 0.6130 -0.1263 0.9426
C16 C 0.7700(2) -0.0284(2) 0.82963(15)
C17 C 0.8069(3) -0.1364(2) 0.85344(17)
H15 H 0.7505 -0.1925 0.8509
C18 C 0.9261(3) -0.1613(3) 0.88070(19)
H16 H 0.9493 -0.2339 0.8966
C19 C 1.0107(3) -0.0798(3) 0.8845(2)
H17 H 1.0910 -0.0964 0.9040
C20 C 0.9752(3) 0.0270(3) 0.8592(2)
H18 H 1.0322 0.0823 0.8606
C21 C 0.8562(2) 0.0526(2) 0.83176(19)
H19 H 0.8336 0.1250 0.8146
Cl1 Cl 0.66072(9) 0.63209(7) 1.01981(7)
N1 N 0.5525(2) -0.0993(2) 0.66416(14)
N2 N 0.55847(19) -0.08964(18) 0.81188(14)
O1 O 0.68288(17) 0.08220(15) 0.97634(11)
O2 O 0.41472(16) 0.12565(17) 0.86363(13)
O3 O 0.41480(19) 0.1265(2) 0.71633(14)
O4 O 0.65545(17) 0.05911(16) 0.64252(12)
O5 O 0.4498(2) -0.22967(19) 0.73042(17)
loop_
_geom_bond_atom_site_label_1
_geom_bond_atom_site_label_2
_geom_bond_site_symmetry_1
_geom_bond_site_symmetry_2
C1 C2 1_555 1_555
C2 H1 1_555 1_555
C3 C2 1_555 1_555
H2 C3 1_555 1_555
C4 C3 1_555 1_555
C5 C4 1_555 1_555
H3 C5 1_555 1_555
C6 C1 1_555 1_555
H4 C6 1_555 1_555
C7 C1 1_555 1_555
C8 C7 1_555 1_555
H5 C8 1_555 1_555
C9 C8 1_555 1_555
C10 H6 1_555 1_555
H7 C10 1_555 1_555
H8 C10 1_555 1_555
C11 C8 1_555 1_555
C12 C11 1_555 1_555
C13 N1 1_555 1_555
C14 H9 1_555 1_555
H10 C14 1_555 1_555
H11 C14 1_555 1_555
C15 H12 1_555 1_555
H13 C15 1_555 1_555
H14 C15 1_555 1_555
C16 C11 1_555 1_555
C17 C16 1_555 1_555
H15 C17 1_555 1_555
C18 C17 1_555 1_555
H16 C18 1_555 1_555
C19 C18 1_555 1_555
H17 C19 1_555 1_555
C20 C19 1_555 1_555
H18 C20 1_555 1_555
C21 C16 1_555 1_555
H19 C21 1_555 1_555
Cl1 C4 1_555 1_555
N1 C12 1_555 1_555
N2 C11 1_555 1_555
O1 C7 1_555 1_555
O2 C9 1_555 1_555
O3 C9 1_555 1_555
O4 C12 1_555 1_555
O5 C13 1_555 1_555
C5 C6 1_555 1_555
C10 O2 1_555 1_555
C13 N2 1_555 1_555
C14 N1 1_555 1_555
C15 N2 1_555 1_555
C20 C21 1_555 1_555

#END
