
#######################################################################
#
#                 Cambridge Crystallographic Data Centre
#                                CCDC 
#
#######################################################################
#
# If this CIF has been generated from an entry in the Cambridge 
# Structural Database, then it will include bibliographic, chemical, 
# crystal, experimental, refinement or atomic coordinate data resulting 
# from the CCDC's data processing and validation procedures.
#
#######################################################################

data_ERUNOU
_chemical_formula_moiety         'C29 H18 N2,C4 H10 N2'
_chemical_name_systematic        
'2-(9-Anthryl)-1H-phenanthro(9,10-d)imidazole piperazine clathrate'
_symmetry_cell_setting           monoclinic
_symmetry_space_group_name_H-M   'P 21/c'
_symmetry_Int_Tables_number      14
_space_group_name_Hall           '-P 2ybc'
loop_
_symmetry_equiv_pos_site_id
_symmetry_equiv_pos_as_xyz
1 x,y,z
2 -x,1/2+y,1/2-z
3 -x,-y,-z
4 x,1/2-y,1/2+z
_cell_length_a                   16.812(6)
_cell_length_b                   15.719(9)
_cell_length_c                   9.605(4)
_cell_angle_alpha                90
_cell_angle_beta                 96.38(3)
_cell_angle_gamma                90
_cell_volume                     2522.57
_exptl_crystal_colour            'light yellow'
_exptl_crystal_description       rectangular
_cell_formula_units_Z            4
_exptl_crystal_recrystallization_method piperazine/acetonitrile
_exptl_crystal_preparation       fluorescent
loop_
_atom_site_label
_atom_site_type_symbol
_atom_site_fract_x
_atom_site_fract_y
_atom_site_fract_z
N1 N 0.2007(5) 0.0611(6) 0.3432(10)
N2 N 0.2823(5) -0.0411(5) 0.4426(9)
C1 C 0.2751(6) 0.0670(7) 0.2914(11)
C2 C 0.2980(6) 0.1292(7) 0.1914(11)
C3 C 0.2499(7) 0.1936(7) 0.1327(11)
C4 C 0.2755(8) 0.2465(6) 0.0378(12)
C5 C 0.3515(8) 0.2339(8) -0.0038(12)
C6 C 0.4002(7) 0.1734(7) 0.0536(13)
C7 C 0.3771(6) 0.1161(7) 0.1530(11)
C8 C 0.4304(6) 0.0501(7) 0.2157(11)
C9 C 0.5081(6) 0.0396(8) 0.1812(11)
C10 C 0.5570(8) -0.0225(9) 0.2423(15)
C11 C 0.5324(8) -0.0778(8) 0.3382(14)
C12 C 0.4560(6) -0.0682(7) 0.3777(11)
C13 C 0.4048(6) -0.0061(7) 0.3140(11)
C14 C 0.3250(6) 0.0056(7) 0.3504(11)
C15 C 0.2085(7) -0.0065(7) 0.4298(11)
C16 C 0.1415(6) -0.0367(7) 0.5078(11)
C17 C 0.0794(6) -0.0868(7) 0.4315(12)
C18 C 0.0808(7) -0.1110(6) 0.2948(13)
C19 C 0.0226(7) -0.1606(8) 0.2260(12)
C20 C -0.0418(7) -0.1889(7) 0.3025(13)
C21 C -0.0422(6) -0.1689(7) 0.4358(13)
C22 C 0.0171(6) -0.1183(7) 0.5087(12)
C23 C 0.0201(7) -0.0960(7) 0.6499(13)
C24 C 0.0805(7) -0.0500(7) 0.7275(12)
C25 C 0.0817(7) -0.0321(8) 0.8697(13)
C26 C 0.1415(9) 0.0138(8) 0.9337(13)
C27 C 0.2049(7) 0.0464(7) 0.8659(12)
C28 C 0.2039(6) 0.0299(7) 0.7292(12)
C29 C 0.1433(6) -0.0174(7) 0.6481(12)
N3 N 0.3004(12) -0.1528(12) -0.030(2)
N4 N 0.3027(9) -0.3105(6) 0.1274(14)
C30 C 0.3712(10) -0.2543(11) 0.133(2)
C31 C 0.3701(12) -0.1946(16) 0.030(2)
C32 C 0.2293(12) -0.2604(11) 0.076(2)
C33 C 0.2309(13) -0.2086(15) -0.029(3)
loop_
_geom_bond_atom_site_label_1
_geom_bond_atom_site_label_2
_geom_bond_site_symmetry_1
_geom_bond_site_symmetry_2
N1 C1 1_555 1_555
N2 C14 1_555 1_555
N3 C31 1_555 1_555
N4 C30 1_555 1_555
C1 C2 1_555 1_555
C2 C3 1_555 1_555
C3 C4 1_555 1_555
C4 C5 1_555 1_555
C5 C6 1_555 1_555
C6 C7 1_555 1_555
C7 C2 1_555 1_555
C8 C7 1_555 1_555
C9 C8 1_555 1_555
C10 C9 1_555 1_555
C11 C10 1_555 1_555
C12 C11 1_555 1_555
C13 C8 1_555 1_555
C14 C1 1_555 1_555
C15 N1 1_555 1_555
C16 C15 1_555 1_555
C17 C16 1_555 1_555
C18 C17 1_555 1_555
C19 C18 1_555 1_555
C20 C19 1_555 1_555
C21 C20 1_555 1_555
C22 C17 1_555 1_555
C23 C22 1_555 1_555
C24 C23 1_555 1_555
C25 C24 1_555 1_555
C26 C25 1_555 1_555
C27 C26 1_555 1_555
C28 C27 1_555 1_555
C29 C16 1_555 1_555
C30 C31 1_555 1_555
C32 N4 1_555 1_555
C33 N3 1_555 1_555
N2 C15 1_555 1_555
C12 C13 1_555 1_555
C13 C14 1_555 1_555
C21 C22 1_555 1_555
C24 C29 1_555 1_555
C28 C29 1_555 1_555
C32 C33 1_555 1_555

#END
