
#######################################################################
#
#                 Cambridge Crystallographic Data Centre
#                                CCDC 
#
#######################################################################
#
# If this CIF has been generated from an entry in the Cambridge 
# Structural Database, then it will include bibliographic, chemical, 
# crystal, experimental, refinement or atomic coordinate data resulting 
# from the CCDC's data processing and validation procedures.
#
#######################################################################

data_ERUPUC
_chemical_formula_moiety         'C20 H15 N1 O3'
_chemical_name_systematic        
N-(1'-Phenyl-2'-hydroxyethyl)-2,3-naphthalenedicarboxamide
_symmetry_cell_setting           orthorhombic
_symmetry_space_group_name_H-M   'P 21 21 21'
_symmetry_Int_Tables_number      19
_space_group_name_Hall           'P 2ac 2ab'
loop_
_symmetry_equiv_pos_site_id
_symmetry_equiv_pos_as_xyz
1 x,y,z
2 1/2-x,-y,1/2+z
3 1/2+x,1/2-y,-z
4 -x,1/2+y,1/2-z
_cell_length_a                   11.5556(5)
_cell_length_b                   31.6552(12)
_cell_length_c                   8.5984(3)
_cell_angle_alpha                90
_cell_angle_beta                 90
_cell_angle_gamma                90
_cell_volume                     3145.25
_exptl_crystal_colour            colorless
_chemical_melting_point          '154-155 deg.C'
_cell_formula_units_Z            8
_exptl_crystal_recrystallization_method 'ethyl acetate/petroleum ether'
loop_
_atom_site_label
_atom_site_type_symbol
_atom_site_fract_x
_atom_site_fract_y
_atom_site_fract_z
O1 O 0.5197(2) 0.1282(1) 0.9401(3)
O2 O 0.2251(2) 0.1721(1) 0.6241(3)
O3 O 0.2334(2) 0.0358(1) 0.6904(3)
N1 N 0.3674(2) 0.1395(1) 0.7716(3)
C1 C 0.3376(3) 0.2105(1) 0.8160(4)
C2 C 0.2986(3) 0.2513(1) 0.8184(4)
C3 C 0.3489(3) 0.2804(1) 0.9232(4)
C4 C 0.3080(4) 0.3227(1) 0.9369(5)
C5 C 0.3572(5) 0.3489(1) 1.0408(5)
C6 C 0.4492(4) 0.3371(1) 1.1340(5)
C7 C 0.4906(4) 0.2968(1) 1.1249(5)
C8 C 0.4407(3) 0.2671(1) 1.0203(4)
C9 C 0.4803(3) 0.2246(1) 1.0135(4)
C10 C 0.4279(3) 0.1973(1) 0.9135(4)
C11 C 0.4486(3) 0.1516(1) 0.8842(4)
C12 C 0.2997(3) 0.1737(1) 0.7225(4)
C13 C 0.3601(3) 0.0957(1) 0.7138(4)
C14 C 0.2347(3) 0.0808(1) 0.7043(4)
C15 C 0.4294(3) 0.0909(1) 0.5644(4)
C16 C 0.3816(3) 0.0953(1) 0.4196(4)
C17 C 0.4490(4) 0.0932(1) 0.2874(5)
C18 C 0.5653(4) 0.0868(1) 0.3012(6)
C19 C 0.6147(3) 0.0815(1) 0.4442(6)
C20 C 0.5471(3) 0.0835(1) 0.5746(5)
O4 O -0.0925(2) 0.0976(1) 0.4138(3)
O5 O 0.2089(2) 0.1144(1) 0.0740(3)
O6 O 0.1535(2) 0.0172(1) 0.3985(3)
N2 N 0.0588(2) 0.0946(1) 0.2366(3)
C21 C 0.0250(3) 0.1590(1) 0.3537(4)
C22 C -0.0153(3) 0.1917(1) 0.4409(4)
C23 C 0.0404(3) 0.2316(1) 0.4296(4)
C24 C 0.0042(3) 0.2673(1) 0.5179(4)
C25 C 0.0608(3) 0.3051(1) 0.5082(5)
C26 C 0.1550(3) 0.3097(1) 0.4100(5)
C27 C 0.1918(3) 0.2766(1) 0.3216(4)
C28 C 0.1362(3) 0.2367(1) 0.3274(4)
C29 C 0.1743(3) 0.2019(1) 0.2367(4)
C30 C 0.1185(3) 0.1642(1) 0.2510(4)
C31 C -0.0141(3) 0.1146(1) 0.3442(4)
C32 C 0.1389(3) 0.1233(1) 0.1732(4)
C33 C 0.0516(3) 0.0503(1) 0.1823(4)
C34 C 0.0466(3) 0.0191(1) 0.3173(4)
C35 C -0.0430(3) 0.0440(1) 0.0634(4)
C36 C -0.0136(3) 0.0376(1) -0.0891(4)
C37 C -0.0976(4) 0.0330(1) -0.2020(5)
C38 C -0.2112(4) 0.0338(1) -0.1630(5)
C39 C -0.2423(3) 0.0386(1) -0.0118(5)
C40 C -0.1593(3) 0.0441(1) 0.1011(5)
loop_
_geom_bond_atom_site_label_1
_geom_bond_atom_site_label_2
_geom_bond_site_symmetry_1
_geom_bond_site_symmetry_2
O1 C11 1_555 1_555
O2 C12 1_555 1_555
O3 C14 1_555 1_555
N1 C11 1_555 1_555
C1 C2 1_555 1_555
C2 C3 1_555 1_555
C3 C4 1_555 1_555
C4 C5 1_555 1_555
C5 C6 1_555 1_555
C6 C7 1_555 1_555
C7 C8 1_555 1_555
C8 C3 1_555 1_555
C9 C8 1_555 1_555
C10 C1 1_555 1_555
C11 C10 1_555 1_555
C12 N1 1_555 1_555
C13 N1 1_555 1_555
C14 C13 1_555 1_555
C15 C13 1_555 1_555
C16 C15 1_555 1_555
C17 C16 1_555 1_555
C18 C17 1_555 1_555
C19 C18 1_555 1_555
C20 C15 1_555 1_555
O4 C31 1_555 1_555
O5 C32 1_555 1_555
O6 C34 1_555 1_555
N2 C31 1_555 1_555
C21 C22 1_555 1_555
C22 C23 1_555 1_555
C23 C24 1_555 1_555
C24 C25 1_555 1_555
C25 C26 1_555 1_555
C26 C27 1_555 1_555
C27 C28 1_555 1_555
C28 C23 1_555 1_555
C29 C28 1_555 1_555
C30 C21 1_555 1_555
C31 C21 1_555 1_555
C32 N2 1_555 1_555
C33 N2 1_555 1_555
C34 C33 1_555 1_555
C35 C33 1_555 1_555
C36 C35 1_555 1_555
C37 C36 1_555 1_555
C38 C37 1_555 1_555
C39 C38 1_555 1_555
C40 C35 1_555 1_555
C1 C12 1_555 1_555
C9 C10 1_555 1_555
C19 C20 1_555 1_555
C29 C30 1_555 1_555
C30 C32 1_555 1_555
C39 C40 1_555 1_555

#END
