
#######################################################################
#
#                 Cambridge Crystallographic Data Centre
#                                CCDC 
#
#######################################################################
#
# If this CIF has been generated from an entry in the Cambridge 
# Structural Database, then it will include bibliographic, chemical, 
# crystal, experimental, refinement or atomic coordinate data resulting 
# from the CCDC's data processing and validation procedures.
#
#######################################################################

data_ESABIL
_chemical_formula_moiety         'C18 H14 F1 N3'
_chemical_name_systematic        
(E)-N-(2-fluoro-2-(1H-imidazol-1-yl)vinyl)-1,1-diphenylmethanimine
_symmetry_cell_setting           monoclinic
_symmetry_space_group_name_H-M   'P 21/n'
_symmetry_Int_Tables_number      14
_space_group_name_Hall           '-P 2yn'
loop_
_symmetry_equiv_pos_site_id
_symmetry_equiv_pos_as_xyz
1 x,y,z
2 1/2-x,1/2+y,1/2-z
3 -x,-y,-z
4 1/2+x,1/2-y,1/2+z
_cell_length_a                   11.382(2)
_cell_length_b                   9.834(2)
_cell_length_c                   14.321(3)
_cell_angle_alpha                90
_cell_angle_beta                 109.40(3)
_cell_angle_gamma                90
_cell_volume                     1511.95
_exptl_crystal_colour            colorless
_exptl_crystal_description       prismatic
_chemical_melting_point          '375-378 K'
_cell_formula_units_Z            4
loop_
_atom_site_label
_atom_site_type_symbol
_atom_site_fract_x
_atom_site_fract_y
_atom_site_fract_z
F1 F 0.48885(10) 0.30191(9) 0.21416(9)
N1 N 0.60604(10) -0.00998(12) 0.15123(9)
N2 N 0.42807(11) 0.09085(11) 0.23964(9)
N3 N 0.35752(12) -0.07814(13) 0.30770(10)
C1 C 0.50732(14) 0.16845(14) 0.20491(11)
C2 C 0.59145(14) 0.12727(14) 0.16606(11)
H1 H 0.6411 0.1907 0.1486
C3 C 0.68222(11) -0.05118(14) 0.10783(9)
C4 C 0.75673(12) 0.04310(13) 0.06720(10)
C5 C 0.88254(14) 0.0637(2) 0.11463(14)
H2 H 0.9236 0.0177 0.1731
C6 C 0.94768(16) 0.1529(2) 0.07507(17)
H3 H 1.0322 0.1672 0.1078
C7 C 0.88927(17) 0.22011(18) -0.01136(14)
H4 H 0.9337 0.2794 -0.0377
C8 C 0.76534(17) 0.19954(17) -0.05858(12)
H5 H 0.7252 0.2449 -0.1176
C9 C 0.69892(14) 0.11215(15) -0.01977(11)
H6 H 0.6142 0.0996 -0.0526
C10 C 0.69095(12) -0.19957(14) 0.09303(9)
C11 C 0.76389(15) -0.25215(16) 0.04081(11)
H7 H 0.8102 -0.1934 0.0158
C12 C 0.76872(18) -0.38994(19) 0.02548(13)
H8 H 0.8183 -0.4233 -0.0095
C13 C 0.70095(19) -0.47814(18) 0.06145(14)
H9 H 0.7045 -0.5712 0.0511
C14 C 0.62762(19) -0.42800(17) 0.11302(15)
H10 H 0.5810 -0.4875 0.1371
C15 C 0.62275(16) -0.29060(16) 0.12924(13)
H11 H 0.5734 -0.2581 0.1647
C16 C 0.45305(14) -0.03093(15) 0.28790(11)
H12 H 0.5296 -0.0749 0.3046
C17 C 0.26573(14) 0.01699(16) 0.27022(12)
H13 H 0.1857 0.0101 0.2735
C18 C 0.30556(13) 0.12074(15) 0.22838(11)
H14 H 0.2604 0.1969 0.1981
loop_
_geom_bond_atom_site_label_1
_geom_bond_atom_site_label_2
_geom_bond_site_symmetry_1
_geom_bond_site_symmetry_2
F1 C1 1_555 1_555
N1 C2 1_555 1_555
N2 C1 1_555 1_555
N3 C16 1_555 1_555
C1 C2 1_555 1_555
C2 H1 1_555 1_555
C3 N1 1_555 1_555
C4 C3 1_555 1_555
C5 C4 1_555 1_555
H2 C5 1_555 1_555
C6 C5 1_555 1_555
H3 C6 1_555 1_555
C7 C6 1_555 1_555
H4 C7 1_555 1_555
C8 C7 1_555 1_555
H5 C8 1_555 1_555
C9 C4 1_555 1_555
H6 C9 1_555 1_555
C10 C3 1_555 1_555
C11 C10 1_555 1_555
H7 C11 1_555 1_555
C12 C11 1_555 1_555
H8 C12 1_555 1_555
C13 C12 1_555 1_555
H9 C13 1_555 1_555
C14 C13 1_555 1_555
H10 C14 1_555 1_555
C15 C10 1_555 1_555
H11 C15 1_555 1_555
C16 N2 1_555 1_555
H12 C16 1_555 1_555
C17 N3 1_555 1_555
H13 C17 1_555 1_555
C18 N2 1_555 1_555
H14 C18 1_555 1_555
C8 C9 1_555 1_555
C14 C15 1_555 1_555
C17 C18 1_555 1_555

#END
