
#######################################################################
#
#                 Cambridge Crystallographic Data Centre
#                                CCDC 
#
#######################################################################
#
# If this CIF has been generated from an entry in the Cambridge 
# Structural Database, then it will include bibliographic, chemical, 
# crystal, experimental, refinement or atomic coordinate data resulting 
# from the CCDC's data processing and validation procedures.
#
#######################################################################

data_ESAPEV
_chemical_formula_moiety         'C17 H16 N3 O1 1+,Br1 1-,C2 H3 N1'
_chemical_name_systematic        
'2-(2-naphthylmethyl)-5-oxo-5,6,7,8-tetrahydroimidazo[1,5-c]pyrimidin-2-ium bromide acetonitrile solvate'
_symmetry_cell_setting           monoclinic
_symmetry_space_group_name_H-M   'C c'
_symmetry_Int_Tables_number      9
_space_group_name_Hall           'C -2yc'
loop_
_symmetry_equiv_pos_site_id
_symmetry_equiv_pos_as_xyz
1 x,y,z
2 x,-y,1/2+z
3 1/2+x,1/2+y,z
4 1/2+x,1/2-y,1/2+z
_cell_length_a                   17.527(4)
_cell_length_b                   12.642(2)
_cell_length_c                   9.5932(16)
_cell_angle_alpha                90
_cell_angle_beta                 120.684(2)
_cell_angle_gamma                90
_cell_volume                     1828.03
_exptl_crystal_colour            colorless
_exptl_crystal_description       block
_cell_formula_units_Z            4
loop_
_atom_site_label
_atom_site_type_symbol
_atom_site_fract_x
_atom_site_fract_y
_atom_site_fract_z
Br1 Br 0.49913(4) 0.40518(3) 0.74373(5)
O1 O 0.2775(2) 0.2311(2) 1.4345(3)
N1 N 0.0902(3) 0.2457(3) 0.9546(5)
N2 N 0.2035(3) 0.2987(3) 1.1773(5)
N3 N 0.3214(2) 0.3896(3) 1.3815(4)
H1 H 0.3701 0.3916 1.4735
C1 C 0.1360(2) 0.2288(3) 1.1118(5)
H2 H 0.1239 0.1778 1.1677
C2 C 0.1283(3) 0.3286(3) 0.9166(5)
H3 H 0.1087 0.3556 0.8136
C3 C 0.1983(3) 0.3627(3) 1.0552(5)
C4 C 0.0128(3) 0.1838(3) 0.8396(5)
H4 H -0.0084 0.1426 0.8985
H5 H 0.0298 0.1350 0.7823
C5 C -0.0619(3) 0.2551(3) 0.7174(5)
C6 C -0.0978(4) 0.2417(4) 0.5546(7)
H6 H -0.0723 0.1933 0.5173
C7 C -0.1743(3) 0.3009(3) 0.4395(5)
C8 C -0.2156(4) 0.2847(4) 0.2748(7)
H7 H -0.1914 0.2364 0.2350
C9 C -0.2909(3) 0.3372(4) 0.1687(6)
H8 H -0.3188 0.3227 0.0583
C10 C -0.3268(3) 0.4139(3) 0.2267(5)
H9 H -0.3783 0.4498 0.1538
C11 C -0.2868(4) 0.4358(5) 0.3880(7)
H10 H -0.3096 0.4880 0.4251
C12 C -0.2083(3) 0.3766(3) 0.5012(5)
C13 C -0.1691(3) 0.3931(3) 0.6692(5)
H11 H -0.1912 0.4445 0.7086
C14 C -0.0979(3) 0.3322(3) 0.7738(5)
H12 H -0.0726 0.3420 0.8849
C15 C 0.2723(3) 0.3038(4) 1.3480(5)
C16 C 0.2999(3) 0.4813(3) 1.2758(5)
H13 H 0.3523 0.5252 1.3140
H14 H 0.2545 0.5231 1.2794
C17 C 0.2669(4) 0.4474(4) 1.1020(6)
H15 H 0.2415 0.5075 1.0299
H16 H 0.3161 0.4207 1.0928
N4 N 1.0712(3) 0.4596(3) 0.1848(6)
C18 C 1.0294(4) 0.4251(4) 0.2330(8)
C19 C 0.9751(5) 0.3833(4) 0.2932(9)
H17 H 0.9876 0.4208 0.3897
H18 H 0.9880 0.3095 0.3178
H19 H 0.9136 0.3917 0.2123
loop_
_geom_bond_atom_site_label_1
_geom_bond_atom_site_label_2
_geom_bond_site_symmetry_1
_geom_bond_site_symmetry_2
O1 C15 1_555 1_555
N1 C1 1_555 1_555
N2 C1 1_555 1_555
N3 H1 1_555 1_555
C1 H2 1_555 1_555
C2 N1 1_555 1_555
H3 C2 1_555 1_555
C3 N2 1_555 1_555
C4 N1 1_555 1_555
H4 C4 1_555 1_555
H5 C4 1_555 1_555
C5 C4 1_555 1_555
C6 C5 1_555 1_555
H6 C6 1_555 1_555
C7 C6 1_555 1_555
C8 C7 1_555 1_555
H7 C8 1_555 1_555
C9 C8 1_555 1_555
H8 C9 1_555 1_555
C10 C9 1_555 1_555
H9 C10 1_555 1_555
C11 C10 1_555 1_555
H10 C11 1_555 1_555
C12 C7 1_555 1_555
C13 C12 1_555 1_555
H11 C13 1_555 1_555
C14 C5 1_555 1_555
H12 C14 1_555 1_555
C15 N2 1_555 1_555
C16 N3 1_555 1_555
H13 C16 1_555 1_555
H14 C16 1_555 1_555
C17 C3 1_555 1_555
H15 C17 1_555 1_555
H16 C17 1_555 1_555
N4 C18 1_555 1_555
C18 C19 1_555 1_555
C19 H17 1_555 1_555
H18 C19 1_555 1_555
H19 C19 1_555 1_555
N3 C15 1_555 1_555
C2 C3 1_555 1_555
C11 C12 1_555 1_555
C13 C14 1_555 1_555
C16 C17 1_555 1_555

#END
