
#######################################################################
#
#                 Cambridge Crystallographic Data Centre
#                                CCDC 
#
#######################################################################
#
# If this CIF has been generated from an entry in the Cambridge 
# Structural Database, then it will include bibliographic, chemical, 
# crystal, experimental, refinement or atomic coordinate data resulting 
# from the CCDC's data processing and validation procedures.
#
#######################################################################

data_ESAYUS
_chemical_formula_moiety         'C30 H30 O1 Si2'
_chemical_name_systematic        
1,3-bis(9-Fluorenyl)-1,1,3,3-tetramethyldisiloxane
_symmetry_cell_setting           monoclinic
_symmetry_space_group_name_H-M   'P 21/n'
_symmetry_Int_Tables_number      14
_space_group_name_Hall           '-P 2yn'
loop_
_symmetry_equiv_pos_site_id
_symmetry_equiv_pos_as_xyz
1 x,y,z
2 1/2+x,1/2-y,1/2+z
3 -x,-y,-z
4 1/2-x,1/2+y,1/2-z
_cell_length_a                   9.282(2)
_cell_length_b                   9.684(4)
_cell_length_c                   14.703(3)
_cell_angle_alpha                90
_cell_angle_beta                 104.89(2)
_cell_angle_gamma                90
_cell_volume                     1277.23
_exptl_crystal_colour            colorless
_exptl_crystal_description       prismatic
_cell_formula_units_Z            2
loop_
_atom_site_label
_atom_site_type_symbol
_atom_site_fract_x
_atom_site_fract_y
_atom_site_fract_z
Si1 Si 0.11205(7) 0.57014(7) 0.58974(4)
O1 O 0.0000 0.5000 0.5000
C1 C 0.1896(3) 0.4233(2) 0.6753(2)
C2 C 0.0658(3) 0.3469(3) 0.7029(2)
C3 C -0.0285(3) 0.3898(3) 0.7568(2)
C4 C -0.1365(3) 0.3008(3) 0.7707(2)
C5 C -0.1514(3) 0.1688(4) 0.7322(2)
C6 C -0.0571(3) 0.1238(3) 0.6800(2)
C7 C 0.0521(3) 0.2134(2) 0.6653(2)
C8 C 0.1691(3) 0.1928(2) 0.6168(2)
C9 C 0.2029(3) 0.0779(3) 0.5684(2)
C10 C 0.3238(4) 0.0842(3) 0.5309(2)
C11 C 0.4122(3) 0.2011(3) 0.5422(2)
C12 C 0.3798(3) 0.3162(3) 0.5894(2)
C13 C 0.2555(3) 0.3130(2) 0.6257(2)
C14 C 0.2628(3) 0.6578(3) 0.5516(2)
C15 C 0.0073(4) 0.6960(3) 0.6426(2)
H1 H 0.2632 0.4678 0.7250
H2 H -0.0186 0.4796 0.7834
H3 H -0.2024 0.3305 0.8073
H4 H -0.2235 0.1131 0.7512
H5 H -0.0666 0.0329 0.6526
H6 H 0.1433 -0.0051 0.5643
H7 H 0.3521 0.0148 0.4915
H8 H 0.5001 0.2018 0.5228
H9 H 0.4489 0.3902 0.6018
H10 H 0.3046 0.5961 0.5160
H11 H 0.2236 0.7363 0.5156
H12 H 0.3373 0.6860 0.6063
H13 H -0.0138 0.7750 0.6043
H14 H 0.0660 0.7204 0.7037
H15 H -0.0829 0.6542 0.6481
Si1B Si -0.11205(7) 0.42986(7) 0.41026(4)
C1B C -0.1896(3) 0.5767(2) 0.3247(2)
C2B C -0.0658(3) 0.6531(3) 0.2971(2)
C3B C 0.0285(3) 0.6102(3) 0.2432(2)
C4B C 0.1365(3) 0.6992(3) 0.2293(2)
C5B C 0.1514(3) 0.8312(4) 0.2678(2)
C6B C 0.0571(3) 0.8762(3) 0.3200(2)
C7B C -0.0521(3) 0.7866(2) 0.3347(2)
C8B C -0.1691(3) 0.8072(2) 0.3832(2)
C9B C -0.2029(3) 0.9221(3) 0.4316(2)
C10B C -0.3238(4) 0.9158(3) 0.4691(2)
C11B C -0.4122(3) 0.7989(3) 0.4578(2)
C12B C -0.3798(3) 0.6838(3) 0.4106(2)
C13B C -0.2555(3) 0.6870(2) 0.3743(2)
H1B H -0.2632 0.5322 0.2750
H9B H -0.4489 0.6098 0.3982
H8B H -0.5001 0.7982 0.4772
H7B H -0.3521 0.9852 0.5085
H6B H -0.1433 1.0051 0.4357
H5B H 0.0666 0.9671 0.3474
H4B H 0.2235 0.8869 0.2488
H3B H 0.2024 0.6695 0.1927
H2B H 0.0186 0.5204 0.2166
C14B C -0.2628(3) 0.3422(3) 0.4484(2)
H10B H -0.3046 0.4039 0.4840
H11B H -0.2236 0.2637 0.4844
H12B H -0.3373 0.3140 0.3937
C15B C -0.0073(4) 0.3040(3) 0.3574(2)
H13B H 0.0138 0.2250 0.3957
H14B H -0.0660 0.2796 0.2963
H15B H 0.0829 0.3458 0.3519
loop_
_geom_bond_atom_site_label_1
_geom_bond_atom_site_label_2
_geom_bond_site_symmetry_1
_geom_bond_site_symmetry_2
Si1 O1 1_555 1_555
O1 Si1B 1_555 1_555
C1 Si1 1_555 1_555
C2 C1 1_555 1_555
C3 C2 1_555 1_555
C4 C3 1_555 1_555
C5 C4 1_555 1_555
C6 C5 1_555 1_555
C7 C2 1_555 1_555
C8 C7 1_555 1_555
C9 C8 1_555 1_555
C10 C9 1_555 1_555
C11 C10 1_555 1_555
C12 C11 1_555 1_555
C13 C1 1_555 1_555
C14 Si1 1_555 1_555
C15 Si1 1_555 1_555
H1 C1 1_555 1_555
H2 C3 1_555 1_555
H3 C4 1_555 1_555
H4 C5 1_555 1_555
H5 C6 1_555 1_555
H6 C9 1_555 1_555
H7 C10 1_555 1_555
H8 C11 1_555 1_555
H9 C12 1_555 1_555
H10 C14 1_555 1_555
H11 C14 1_555 1_555
H12 C14 1_555 1_555
H13 C15 1_555 1_555
H14 C15 1_555 1_555
H15 C15 1_555 1_555
Si1B C1B 1_555 1_555
C1B C2B 1_555 1_555
C2B C3B 1_555 1_555
C3B C4B 1_555 1_555
C4B C5B 1_555 1_555
C5B C6B 1_555 1_555
C6B C7B 1_555 1_555
C7B C2B 1_555 1_555
C8B C7B 1_555 1_555
C9B C8B 1_555 1_555
C10B C9B 1_555 1_555
C11B C10B 1_555 1_555
C12B C11B 1_555 1_555
C13B C1B 1_555 1_555
H1B C1B 1_555 1_555
H9B C12B 1_555 1_555
H8B C11B 1_555 1_555
H7B C10B 1_555 1_555
H6B C9B 1_555 1_555
H5B C6B 1_555 1_555
H4B C5B 1_555 1_555
H3B C4B 1_555 1_555
H2B C3B 1_555 1_555
C14B Si1B 1_555 1_555
H10B C14B 1_555 1_555
H11B C14B 1_555 1_555
H12B C14B 1_555 1_555
C15B Si1B 1_555 1_555
H13B C15B 1_555 1_555
H14B C15B 1_555 1_555
H15B C15B 1_555 1_555
C6 C7 1_555 1_555
C8 C13 1_555 1_555
C12 C13 1_555 1_555
C8B C13B 1_555 1_555
C12B C13B 1_555 1_555

#END
