
#######################################################################
#
#                 Cambridge Crystallographic Data Centre
#                                CCDC 
#
#######################################################################
#
# If this CIF has been generated from an entry in the Cambridge 
# Structural Database, then it will include bibliographic, chemical, 
# crystal, experimental, refinement or atomic coordinate data resulting 
# from the CCDC's data processing and validation procedures.
#
#######################################################################

data_ESEMAQ
_chemical_formula_moiety         'C14 H14 N4,2(H2 O1)'
_chemical_name_systematic        '1,2-bis(1-Imidazolylmethyl)benzene dihydrate'
_symmetry_cell_setting           triclinic
_symmetry_space_group_name_H-M   'P -1'
_symmetry_Int_Tables_number      2
_space_group_name_Hall           '-P 1'
loop_
_symmetry_equiv_pos_site_id
_symmetry_equiv_pos_as_xyz
1 x,y,z
2 -x,-y,-z
_cell_length_a                   8.170(5)
_cell_length_b                   8.867(5)
_cell_length_c                   10.939(6)
_cell_angle_alpha                80.384(10)
_cell_angle_beta                 70.230(10)
_cell_angle_gamma                83.704(11)
_cell_volume                     734.063
_exptl_crystal_colour            colorless
_exptl_crystal_description       block
_cell_formula_units_Z            2
loop_
_atom_site_label
_atom_site_type_symbol
_atom_site_fract_x
_atom_site_fract_y
_atom_site_fract_z
N1 N -0.5318(3) 0.6708(3) 0.8252(3)
N2 N -0.2939(2) 0.5510(2) 0.85598(19)
N3 N 0.1216(3) 0.8161(2) 0.5262(2)
N4 N 0.2265(3) 0.9303(3) 0.3221(2)
C1 C -0.3690(3) 0.4510(3) 0.8110(3)
H1 H -0.324(5) 0.339(4) 0.803(3)
C2 C -0.5132(4) 0.5261(4) 0.7926(3)
H2 H -0.602(4) 0.490(4) 0.760(3)
C3 C -0.3974(4) 0.6798(3) 0.8644(3)
H3 H -0.369(5) 0.770(4) 0.890(3)
C4 C -0.1345(3) 0.5230(4) 0.8915(3)
H4 H -0.111(3) 0.623(3) 0.914(2)
H5 H -0.151(5) 0.453(4) 0.972(4)
C5 C 0.0188(3) 0.4674(3) 0.7819(2)
C6 C 0.0929(3) 0.3203(3) 0.8015(3)
H6 H 0.042(5) 0.265(4) 0.888(4)
C7 C 0.2324(4) 0.2631(3) 0.7042(3)
H7 H 0.295(5) 0.152(4) 0.724(3)
C8 C 0.2988(4) 0.3529(3) 0.5851(3)
H8 H 0.404(4) 0.315(4) 0.513(3)
C9 C 0.2272(3) 0.5001(3) 0.5644(3)
H9 H 0.284(4) 0.565(3) 0.481(3)
C10 C 0.0889(3) 0.5599(3) 0.6612(2)
C11 C 0.0121(4) 0.7206(3) 0.6385(3)
H10 H -0.016(4) 0.771(4) 0.713(4)
H11 H -0.101(5) 0.717(4) 0.620(3)
C12 C 0.1077(4) 0.8428(3) 0.4056(3)
H12 H 0.022(5) 0.801(4) 0.389(3)
C13 C 0.3231(4) 0.9625(3) 0.3945(3)
H13 H 0.419(4) 1.024(4) 0.360(3)
C14 C 0.2605(4) 0.8932(3) 0.5191(3)
H14 H 0.289(4) 0.890(4) 0.593(3)
O1 O 0.1966(4) -0.1042(3) 0.8723(3)
H15 H 0.287(6) -0.185(5) 0.848(4)
H16 H 0.207(11) -0.062(9) 0.958(8)
O2 O 0.1598(4) 0.0539(3) 1.0836(2)
H17 H 0.197(7) 0.008(6) 1.166(6)
H18 H 0.014(9) 0.084(6) 1.108(5)
loop_
_geom_bond_atom_site_label_1
_geom_bond_atom_site_label_2
_geom_bond_site_symmetry_1
_geom_bond_site_symmetry_2
N1 C2 1_555 1_555
N2 C1 1_555 1_555
N3 C11 1_555 1_555
N4 C12 1_555 1_555
C1 H1 1_555 1_555
C2 C1 1_555 1_555
H2 C2 1_555 1_555
C3 N1 1_555 1_555
H3 C3 1_555 1_555
C4 N2 1_555 1_555
H4 C4 1_555 1_555
H5 C4 1_555 1_555
C5 C4 1_555 1_555
C6 C5 1_555 1_555
H6 C6 1_555 1_555
C7 C6 1_555 1_555
H7 C7 1_555 1_555
C8 C7 1_555 1_555
H8 C8 1_555 1_555
C9 C8 1_555 1_555
H9 C9 1_555 1_555
C10 C5 1_555 1_555
C11 C10 1_555 1_555
H10 C11 1_555 1_555
H11 C11 1_555 1_555
C12 N3 1_555 1_555
H12 C12 1_555 1_555
C13 N4 1_555 1_555
H13 C13 1_555 1_555
C14 N3 1_555 1_555
H14 C14 1_555 1_555
O1 H15 1_555 1_555
H16 O1 1_555 1_555
O2 H17 1_555 1_555
H18 O2 1_555 1_555
N2 C3 1_555 1_555
C9 C10 1_555 1_555
C13 C14 1_555 1_555

#END
