
#######################################################################
#
#                 Cambridge Crystallographic Data Centre
#                                CCDC 
#
#######################################################################
#
# If this CIF has been generated from an entry in the Cambridge 
# Structural Database, then it will include bibliographic, chemical, 
# crystal, experimental, refinement or atomic coordinate data resulting 
# from the CCDC's data processing and validation procedures.
#
#######################################################################

data_ESIGIY
_chemical_name_common            
'S6-corona[3]arene[3]tetrazine chloroform solvate'
_chemical_formula_moiety         'C24 H12 N12 S6,C1 H1 Cl3'
_chemical_name_systematic        
'2,7,12,17,22,27-hexathia-4,5,14,15,24,25,33,34,37,38,41,42-dodecaazaheptacyclo[26.2.2.2^3,6^.2^8,11^.2^13,16^.2^18,21^.2^23,26^]dotetraconta-1(30),3,5,8,10,13,15,18,20,23,25,28,31,33,35,37,39,41-octadecaene chloroform solvate'
_symmetry_cell_setting           triclinic
_symmetry_space_group_name_H-M   'P -1'
_symmetry_Int_Tables_number      2
_space_group_name_Hall           '-P 1'
loop_
_symmetry_equiv_pos_site_id
_symmetry_equiv_pos_as_xyz
1 x,y,z
2 -x,-y,-z
_cell_length_a                   10.624(2)
_cell_length_b                   11.431(2)
_cell_length_c                   13.596(3)
_cell_angle_alpha                98.26(3)
_cell_angle_beta                 90.95(3)
_cell_angle_gamma                104.89(3)
_cell_volume                     1576.67
_exptl_crystal_colour            red
_exptl_crystal_description       plate
_cell_formula_units_Z            2
loop_
_atom_site_label
_atom_site_type_symbol
_atom_site_fract_x
_atom_site_fract_y
_atom_site_fract_z
Cl1 Cl 1.0909(7) -0.0093(4) 0.1913(4)
Cl2 Cl 1.00685(14) -0.11573(12) 0.36791(10)
Cl3 Cl 1.08447(17) 0.14788(13) 0.38121(12)
C1 C 1.0241(7) 0.0093(5) 0.3036(4)
H1 H 0.9322 0.0089 0.2859
S1 S 0.65372(11) 0.36089(10) 0.41939(9)
S2 S 1.18689(11) 0.65084(10) 0.32846(8)
S3 S 1.54406(12) 0.33639(12) 0.11956(12)
S4 S 1.23529(13) -0.11159(11) -0.15780(9)
S5 S 0.85421(12) -0.45407(10) 0.09309(9)
S6 S 0.56343(12) -0.20808(10) 0.39990(9)
N1 N 0.8629(4) 0.5427(3) 0.4509(3)
N2 N 0.9780(3) 0.6072(3) 0.4282(3)
N3 N 0.8817(4) 0.3726(3) 0.3304(3)
N4 N 0.9982(3) 0.4361(3) 0.3107(3)
N5 N 1.5052(4) 0.1698(4) -0.0364(3)
N6 N 1.4400(4) 0.0662(4) -0.0951(3)
N7 N 1.2536(4) 0.0638(4) 0.0019(3)
N8 N 1.3207(4) 0.1640(3) 0.0611(3)
N9 N 0.7713(4) -0.2553(3) 0.1690(3)
N10 N 0.7068(4) -0.2002(3) 0.2369(3)
N11 N 0.6693(4) -0.3760(3) 0.3206(3)
N12 N 0.7338(4) -0.4286(3) 0.2534(3)
C2 C 0.8142(4) 0.4300(4) 0.3964(3)
C3 C 1.0400(4) 0.5536(4) 0.3570(3)
C4 C 1.2737(4) 0.5513(4) 0.2665(3)
C5 C 1.3422(4) 0.5885(4) 0.1864(3)
H2 H 1.3354 0.6611 0.1628
C6 C 1.4212(4) 0.5197(4) 0.1399(3)
H3 H 1.4682 0.5453 0.0846
C7 C 1.4316(4) 0.4138(4) 0.1742(3)
C8 C 1.3632(4) 0.3765(4) 0.2557(4)
H4 H 1.3706 0.3044 0.2798
C9 C 1.2844(4) 0.4449(4) 0.3015(3)
H5 H 1.2373 0.4195 0.3569
C10 C 1.4443(4) 0.2115(4) 0.0401(3)
C11 C 1.3171(4) 0.0184(4) -0.0735(3)
C12 C 1.1247(4) -0.1945(4) -0.0792(3)
C13 C 0.9976(5) -0.2453(4) -0.1154(3)
H6 H 0.9687 -0.2287 -0.1772
C14 C 0.9119(4) -0.3211(4) -0.0609(3)
H7 H 0.8241 -0.3570 -0.0853
C15 C 0.9553(4) -0.3438(4) 0.0291(3)
C16 C 1.0833(4) -0.2913(4) 0.0653(3)
H8 H 1.1124 -0.3054 0.1279
C17 C 1.1681(4) -0.2183(5) 0.0092(4)
H9 H 1.2568 -0.1845 0.0321
C18 C 0.7812(4) -0.3669(4) 0.1794(3)
C19 C 0.6569(4) -0.2637(3) 0.3092(3)
C20 C 0.6006(4) -0.0490(4) 0.3919(3)
C21 C 0.5040(4) -0.0021(4) 0.3533(3)
H10 H 0.4243 -0.0553 0.3237
C22 C 0.5275(4) 0.1243(4) 0.3592(3)
H11 H 0.4626 0.1580 0.3345
C23 C 0.6450(4) 0.2014(4) 0.4010(3)
C24 C 0.7400(5) 0.1538(4) 0.4355(3)
H12 H 0.8210 0.2072 0.4624
C25 C 0.7188(5) 0.0277(4) 0.4313(3)
H13 H 0.7848 -0.0052 0.4553
Cl4? Cl 1.1658(12) 0.0072(6) 0.2263(7)
loop_
_geom_bond_atom_site_label_1
_geom_bond_atom_site_label_2
_geom_bond_site_symmetry_1
_geom_bond_site_symmetry_2
Cl1 C1 1_555 1_555
Cl2 C1 1_555 1_555
Cl3 C1 1_555 1_555
C1 H1 1_555 1_555
S1 C2 1_555 1_555
S2 C3 1_555 1_555
S3 C7 1_555 1_555
S4 C11 1_555 1_555
S5 C15 1_555 1_555
S6 C19 1_555 1_555
N1 N2 1_555 1_555
N2 C3 1_555 1_555
N3 N4 1_555 1_555
N4 C3 1_555 1_555
N5 N6 1_555 1_555
N6 C11 1_555 1_555
N7 N8 1_555 1_555
N8 C10 1_555 1_555
N9 N10 1_555 1_555
N10 C19 1_555 1_555
N11 N12 1_555 1_555
N12 C18 1_555 1_555
C2 N1 1_555 1_555
C4 S2 1_555 1_555
C5 C4 1_555 1_555
H2 C5 1_555 1_555
C6 C5 1_555 1_555
H3 C6 1_555 1_555
C7 C6 1_555 1_555
C8 C7 1_555 1_555
H4 C8 1_555 1_555
C9 C4 1_555 1_555
H5 C9 1_555 1_555
C10 S3 1_555 1_555
C11 N7 1_555 1_555
C12 S4 1_555 1_555
C13 C12 1_555 1_555
H6 C13 1_555 1_555
C14 C13 1_555 1_555
H7 C14 1_555 1_555
C15 C14 1_555 1_555
C16 C15 1_555 1_555
H8 C16 1_555 1_555
C17 C12 1_555 1_555
H9 C17 1_555 1_555
C18 S5 1_555 1_555
C19 N11 1_555 1_555
C20 S6 1_555 1_555
C21 C20 1_555 1_555
H10 C21 1_555 1_555
C22 C21 1_555 1_555
H11 C22 1_555 1_555
C23 S1 1_555 1_555
C24 C23 1_555 1_555
H12 C24 1_555 1_555
C25 C20 1_555 1_555
H13 C25 1_555 1_555
N3 C2 1_555 1_555
N5 C10 1_555 1_555
N9 C18 1_555 1_555
C8 C9 1_555 1_555
C16 C17 1_555 1_555
C22 C23 1_555 1_555
C24 C25 1_555 1_555

#END
