
#######################################################################
#
#                 Cambridge Crystallographic Data Centre
#                                CCDC 
#
#######################################################################
#
# If this CIF has been generated from an entry in the Cambridge 
# Structural Database, then it will include bibliographic, chemical, 
# crystal, experimental, refinement or atomic coordinate data resulting 
# from the CCDC's data processing and validation procedures.
#
#######################################################################

data_ESIJAT
_chemical_formula_moiety         'C34 H24 N8 O12 S6'
_chemical_name_systematic        
'hexamethyl 2,7,12,17,22,23-hexathia-4,5,14,15,31,32,35,36-octaazahexacyclo[22.2.2.2^3,6^.2^8,11^.2^13,16^.2^18,21^]hexatriaconta-1(26),3,5,8,10,13,15,18,20,24,27,29,31,33,35-pentadecaene-9,19,25,27,29,33-hexacarboxylate unknown solvate'
_symmetry_cell_setting           monoclinic
_symmetry_space_group_name_H-M   'P 21/c'
_symmetry_Int_Tables_number      14
_space_group_name_Hall           '-P 2ybc'
loop_
_symmetry_equiv_pos_site_id
_symmetry_equiv_pos_as_xyz
1 x,y,z
2 -x,1/2+y,1/2-z
3 -x,-y,-z
4 x,1/2-y,1/2+z
_cell_length_a                   18.356(4)
_cell_length_b                   10.767(2)
_cell_length_c                   25.544(5)
_cell_angle_alpha                90
_cell_angle_beta                 92.66(3)
_cell_angle_gamma                90
_cell_volume                     5043.05
_exptl_crystal_colour            red
_exptl_crystal_description       Plate
_cell_formula_units_Z            4
loop_
_atom_site_label
_atom_site_type_symbol
_atom_site_fract_x
_atom_site_fract_y
_atom_site_fract_z
S1 S 0.99687(4) 0.63939(6) 0.31782(3)
S2 S 1.05850(4) 0.71509(7) 0.37849(3)
S3 S 0.88726(4) 0.61111(8) 0.58561(3)
S4 S 0.59224(4) 0.85461(9) 0.56087(4)
S5 S 0.58307(5) 1.23638(10) 0.37173(4)
S6 S 0.80896(4) 1.08778(7) 0.21941(3)
O1 O 1.13540(13) 0.8422(2) 0.45538(10)
O2 O 1.08537(17) 0.9095(3) 0.52829(11)
O3 O 0.78912(13) 0.5079(2) 0.49779(11)
O4 O 0.85244(12) 0.4101(2) 0.43810(10)
O5 O 0.68710(15) 1.0624(3) 0.59813(10)
O6 O 0.68118(15) 1.2479(2) 0.55931(10)
O7 O 0.55065(19) 0.9881(4) 0.32312(12)
O8 O 0.48337(16) 0.8665(3) 0.37270(12)
O9 O 0.9654(2) 1.1105(2) 0.36309(11)
O10 O 0.90547(14) 1.20531(19) 0.29837(9)
O11 O 0.92625(14) 0.54136(19) 0.23466(9)
O12 O 0.84866(14) 0.6349(2) 0.17732(10)
N1 N 0.79531(14) 0.7732(2) 0.53880(11)
N2 N 0.73037(14) 0.8273(3) 0.53314(11)
N3 N 0.68996(15) 0.7126(3) 0.60622(11)
N4 N 0.75439(15) 0.6573(3) 0.61133(10)
N5 N 0.69686(17) 1.2101(3) 0.24971(11)
N6 N 0.64702(17) 1.2422(3) 0.28307(11)
N7 N 0.70430(14) 1.1149(3) 0.34875(10)
N8 N 0.75483(14) 1.0819(3) 0.31525(10)
C1 C 1.00613(15) 0.6899(2) 0.43500(11)
C2 C 1.02538(15) 0.7502(3) 0.48224(12)
C3 C 0.98580(15) 0.7265(3) 0.52695(12)
H1 H 0.9988 0.7665 0.5583
C4 C 0.92796(15) 0.6447(3) 0.52501(11)
C5 C 0.90776(15) 0.5842(3) 0.47821(11)
C6 C 0.94684(15) 0.6082(3) 0.43408(11)
H2 H 0.9331 0.5687 0.4028
C7 C 1.08781(18) 0.8379(3) 0.48628(12)
C8 C 1.1448(3) 0.9973(4) 0.53751(18)
H3 H 1.1423 1.0603 0.5109
H4 H 1.1906 0.9544 0.5364
H5 H 1.1408 1.0352 0.5713
C9 C 0.84303(16) 0.4988(3) 0.47354(12)
C10 C 0.7904(2) 0.3265(4) 0.42969(17)
H6 H 0.8036 0.2598 0.4071
H7 H 0.7500 0.3715 0.4137
H8 H 0.7768 0.2934 0.4627
C11 C 0.80398(15) 0.6885(3) 0.57673(11)
C12 C 0.68005(16) 0.7933(3) 0.56648(12)
C13 C 0.59962(15) 0.9610(3) 0.50775(13)
C14 C 0.56783(16) 0.9231(3) 0.45986(14)
H9 H 0.5483 0.8436 0.4569
C15 C 0.56443(16) 1.0006(3) 0.41621(13)
C16 C 0.59253(16) 1.1200(3) 0.42186(13)
C17 C 0.62337(16) 1.1590(3) 0.46955(12)
H10 H 0.6410 1.2397 0.4728
C18 C 0.62859(15) 1.0807(3) 0.51265(12)
C19 C 0.5331(2) 0.9535(4) 0.36551(16)
C20 C 0.4488(3) 0.8168(7) 0.3238(2)
H11 H 0.4454 0.8813 0.2979
H12 H 0.4008 0.7871 0.3305
H13 H 0.4777 0.7496 0.3113
C21 C 0.66800(17) 1.1270(3) 0.56173(13)
C22 C 0.7240(2) 1.3019(4) 0.60241(15)
H14 H 0.7328 1.3880 0.5952
H15 H 0.7697 1.2589 0.6067
H16 H 0.6980 1.2947 0.6340
C23 C 0.65191(17) 1.1898(3) 0.33038(12)
C24 C 0.74800(16) 1.1281(3) 0.26705(12)
C25 C 0.86213(15) 0.9713(3) 0.25167(11)
C26 C 0.85710(15) 0.8539(3) 0.22872(11)
H17 H 0.8252 0.8423 0.1998
C27 C 0.89819(14) 0.7540(2) 0.24758(10)
C28 C 0.94383(14) 0.7679(2) 0.29272(10)
C29 C 0.94809(14) 0.8845(2) 0.31577(10)
H18 H 0.9775 0.8945 0.3461
C30 C 0.91058(15) 0.9868(3) 0.29566(10)
C31 C 0.92930(17) 1.1062(3) 0.32300(11)
C32 C 0.9273(2) 1.3241(3) 0.32065(14)
H19 H 0.9036 1.3897 0.3009
H20 H 0.9792 1.3333 0.3193
H21 H 0.9136 1.3281 0.3564
C33 C 0.89282(17) 0.6324(3) 0.22001(11)
C34 C 0.8458(3) 0.5202(4) 0.14703(18)
H22 H 0.8078 0.5260 0.1201
H23 H 0.8361 0.4517 0.1697
H24 H 0.8917 0.5074 0.1313
loop_
_geom_bond_atom_site_label_1
_geom_bond_atom_site_label_2
_geom_bond_site_symmetry_1
_geom_bond_site_symmetry_2
S1 S2 1_555 1_555
S2 C1 1_555 1_555
S3 C4 1_555 1_555
S4 C12 1_555 1_555
S5 C16 1_555 1_555
S6 C24 1_555 1_555
O1 C7 1_555 1_555
O2 C7 1_555 1_555
O3 C9 1_555 1_555
O4 C9 1_555 1_555
O5 C21 1_555 1_555
O6 C21 1_555 1_555
O7 C19 1_555 1_555
O8 C19 1_555 1_555
O9 C31 1_555 1_555
O10 C31 1_555 1_555
O11 C33 1_555 1_555
O12 C33 1_555 1_555
N1 N2 1_555 1_555
N2 C12 1_555 1_555
N3 N4 1_555 1_555
N4 C11 1_555 1_555
N5 N6 1_555 1_555
N6 C23 1_555 1_555
N7 N8 1_555 1_555
N8 C24 1_555 1_555
C1 C2 1_555 1_555
C2 C3 1_555 1_555
C3 H1 1_555 1_555
C4 C3 1_555 1_555
C5 C4 1_555 1_555
C6 C1 1_555 1_555
H2 C6 1_555 1_555
C7 C2 1_555 1_555
C8 O2 1_555 1_555
H3 C8 1_555 1_555
H4 C8 1_555 1_555
H5 C8 1_555 1_555
C9 C5 1_555 1_555
C10 O4 1_555 1_555
H6 C10 1_555 1_555
H7 C10 1_555 1_555
H8 C10 1_555 1_555
C11 S3 1_555 1_555
C12 N3 1_555 1_555
C13 S4 1_555 1_555
C14 C13 1_555 1_555
H9 C14 1_555 1_555
C15 C14 1_555 1_555
C16 C15 1_555 1_555
C17 C16 1_555 1_555
H10 C17 1_555 1_555
C18 C13 1_555 1_555
C19 C15 1_555 1_555
C20 O8 1_555 1_555
H11 C20 1_555 1_555
H12 C20 1_555 1_555
H13 C20 1_555 1_555
C21 C18 1_555 1_555
C22 O6 1_555 1_555
H14 C22 1_555 1_555
H15 C22 1_555 1_555
H16 C22 1_555 1_555
C23 S5 1_555 1_555
C24 N5 1_555 1_555
C25 S6 1_555 1_555
C26 C25 1_555 1_555
H17 C26 1_555 1_555
C27 C26 1_555 1_555
C28 S1 1_555 1_555
C29 C28 1_555 1_555
H18 C29 1_555 1_555
C30 C25 1_555 1_555
C31 C30 1_555 1_555
C32 O10 1_555 1_555
H19 C32 1_555 1_555
H20 C32 1_555 1_555
H21 C32 1_555 1_555
C33 C27 1_555 1_555
C34 O12 1_555 1_555
H22 C34 1_555 1_555
H23 C34 1_555 1_555
H24 C34 1_555 1_555
N1 C11 1_555 1_555
N7 C23 1_555 1_555
C5 C6 1_555 1_555
C17 C18 1_555 1_555
C27 C28 1_555 1_555
C29 C30 1_555 1_555

#END
