
#######################################################################
#
#                 Cambridge Crystallographic Data Centre
#                                CCDC 
#
#######################################################################
#
# If this CIF has been generated from an entry in the Cambridge 
# Structural Database, then it will include bibliographic, chemical, 
# crystal, experimental, refinement or atomic coordinate data resulting 
# from the CCDC's data processing and validation procedures.
#
#######################################################################

data_ESIKIC
_chemical_formula_moiety         'C15 H17 F6 N2 1+,C1 H4 O1,Cl1 1-'
_chemical_name_systematic        
'1-(3,5-bis(trifluoromethyl)benzyl)-4-aza-1-azoniabicyclo[2.2.2]octane chloride methanol solvate'
_symmetry_cell_setting           orthorhombic
_symmetry_space_group_name_H-M   'P b c a'
_symmetry_Int_Tables_number      61
_space_group_name_Hall           '-P 2ac 2ab'
loop_
_symmetry_equiv_pos_site_id
_symmetry_equiv_pos_as_xyz
1 x,y,z
2 1/2-x,-y,1/2+z
3 1/2+x,1/2-y,-z
4 -x,1/2+y,1/2-z
5 -x,-y,-z
6 1/2+x,y,1/2-z
7 1/2-x,1/2+y,z
8 x,1/2-y,1/2+z
_cell_length_a                   7.791(2)
_cell_length_b                   12.472(3)
_cell_length_c                   37.207(13)
_cell_angle_alpha                90
_cell_angle_beta                 90
_cell_angle_gamma                90
_cell_volume                     3615.38
_exptl_crystal_colour            colorless
_exptl_crystal_description       plate
_cell_formula_units_Z            8
loop_
_atom_site_label
_atom_site_type_symbol
_atom_site_fract_x
_atom_site_fract_y
_atom_site_fract_z
F1 F 0.605(2) 0.4462(6) 0.5411(2)
F2 F 0.4095(11) 0.4216(7) 0.5788(3)
F3 F 0.6613(17) 0.4408(7) 0.5971(3)
F4 F 0.3897(11) 0.7691(3) 0.48655(10)
F5 F 0.3060(10) 0.8988(6) 0.51861(13)
F6 F 0.5657(7) 0.8827(5) 0.50614(18)
N1 N 0.3817(2) 0.80847(15) 0.67399(5)
N2 N 0.1320(3) 0.81502(17) 0.71900(6)
C1 C 0.5097(3) 0.75341(19) 0.61339(6)
C2 C 0.5363(3) 0.64350(19) 0.61005(6)
H1 H 0.5640 0.6020 0.6306
C3 C 0.5223(3) 0.59429(19) 0.57654(7)
C4 C 0.4826(3) 0.6535(2) 0.54596(7)
H2 H 0.4720 0.6193 0.5233
C5 C 0.4591(3) 0.7626(2) 0.54920(7)
C6 C 0.4719(3) 0.8126(2) 0.58258(7)
H3 H 0.4546 0.8879 0.5844
C7 C 0.5515(4) 0.4761(2) 0.57341(7)
C8 C 0.4288(4) 0.8287(3) 0.51597(8)
C9 C 0.5360(3) 0.80876(19) 0.64906(7)
H4 H 0.5693 0.8841 0.6444
H5 H 0.6331 0.7738 0.6616
C10 C 0.4299(4) 0.8713(2) 0.70710(7)
H6 H 0.4764 0.9421 0.7001
H7 H 0.5196 0.8324 0.7207
C11 C 0.2699(4) 0.8863(3) 0.73072(8)
H8 H 0.2977 0.8784 0.7557
H9 H 0.2349 0.9640 0.7276
C12 C 0.3331(3) 0.69641(19) 0.68571(7)
H10 H 0.4360 0.6576 0.6943
H11 H 0.2837 0.6562 0.6652
C13 C 0.1998(3) 0.7058(2) 0.71626(7)
H12 H 0.1041 0.6554 0.7117
H13 H 0.2541 0.6856 0.7393
C14 C 0.2274(3) 0.8592(2) 0.65685(7)
H14 H 0.2006 0.8228 0.6339
H15 H 0.2505 0.9358 0.6518
C15 C 0.0751(3) 0.8487(2) 0.68293(7)
H16 H 0.0153 0.9185 0.6847
H17 H -0.0073 0.7955 0.6734
O1 O 0.0523(3) 0.58152(16) 0.62717(5)
H18 H -0.0305 0.5831 0.6407
C16 C 0.0122(4) 0.6364(2) 0.59507(8)
H19 H -0.0425 0.7050 0.6009
H20 H -0.0666 0.5927 0.5806
H21 H 0.1177 0.6494 0.5814
Cl1 Cl 0.77660(8) 0.58808(5) 0.687466(17)
F7? F 0.674(3) 0.4571(18) 0.5509(8)
F8? F 0.422(3) 0.419(2) 0.5645(13)
F9? F 0.606(4) 0.4278(16) 0.6040(4)
F10? F 0.2881(15) 0.8074(10) 0.5026(4)
F11? F 0.412(2) 0.9338(7) 0.5251(2)
F12? F 0.5526(19) 0.8233(14) 0.4946(3)
loop_
_geom_bond_atom_site_label_1
_geom_bond_atom_site_label_2
_geom_bond_site_symmetry_1
_geom_bond_site_symmetry_2
F1 C7 1_555 1_555
F2 C7 1_555 1_555
F3 C7 1_555 1_555
F4 C8 1_555 1_555
F5 C8 1_555 1_555
F6 C8 1_555 1_555
N1 C9 1_555 1_555
N2 C11 1_555 1_555
C1 C2 1_555 1_555
C2 H1 1_555 1_555
C3 C2 1_555 1_555
C4 C3 1_555 1_555
H2 C4 1_555 1_555
C5 C4 1_555 1_555
C6 C1 1_555 1_555
H3 C6 1_555 1_555
C7 C3 1_555 1_555
C8 C5 1_555 1_555
C9 C1 1_555 1_555
H4 C9 1_555 1_555
H5 C9 1_555 1_555
C10 N1 1_555 1_555
H6 C10 1_555 1_555
H7 C10 1_555 1_555
C11 C10 1_555 1_555
H8 C11 1_555 1_555
H9 C11 1_555 1_555
C12 N1 1_555 1_555
H10 C12 1_555 1_555
H11 C12 1_555 1_555
C13 N2 1_555 1_555
H12 C13 1_555 1_555
H13 C13 1_555 1_555
C14 N1 1_555 1_555
H14 C14 1_555 1_555
H15 C14 1_555 1_555
C15 N2 1_555 1_555
H16 C15 1_555 1_555
H17 C15 1_555 1_555
O1 H18 1_555 1_555
C16 O1 1_555 1_555
H19 C16 1_555 1_555
H20 C16 1_555 1_555
H21 C16 1_555 1_555
C5 C6 1_555 1_555
C12 C13 1_555 1_555
C14 C15 1_555 1_555

#END
