
#######################################################################
#
#                 Cambridge Crystallographic Data Centre
#                                CCDC 
#
#######################################################################
#
# If this CIF has been generated from an entry in the Cambridge 
# Structural Database, then it will include bibliographic, chemical, 
# crystal, experimental, refinement or atomic coordinate data resulting 
# from the CCDC's data processing and validation procedures.
#
#######################################################################

data_ESUMIQ
_chemical_formula_moiety         'C40 H44 N2'
_chemical_name_systematic        
2,5,8,11-tetra-t-butyl-12d,12e-diazadiindeno[1,2,3,4-defg:1',2',3',4'-mnop]chrysene
_symmetry_cell_setting           monoclinic
_symmetry_space_group_name_H-M   'P 21/n'
_symmetry_Int_Tables_number      14
_space_group_name_Hall           '-P 2yn'
loop_
_symmetry_equiv_pos_site_id
_symmetry_equiv_pos_as_xyz
1 x,y,z
2 1/2-x,1/2+y,1/2-z
3 -x,-y,-z
4 1/2+x,1/2-y,1/2+z
_cell_length_a                   15.1574(3)
_cell_length_b                   5.8543(3)
_cell_length_c                   17.6406(7)
_cell_angle_alpha                90
_cell_angle_beta                 108.9629(7)
_cell_angle_gamma                90
_cell_volume                     1480.4
_exptl_crystal_colour            red
_cell_formula_units_Z            2
_exptl_crystal_recrystallization_method chloroform/methanol
loop_
_atom_site_label
_atom_site_type_symbol
_atom_site_fract_x
_atom_site_fract_y
_atom_site_fract_z
N1 N 0.49704(18) 0.3831(6) 0.00456(14)
C1 C 0.26923(8) 0.1972(3) 0.06498(7)
C2 C 0.29690(9) 0.0969(4) 0.00351(8)
C3 C 0.31542(10) 0.3891(3) 0.10774(8)
C4 C 0.41425(9) 0.1432(4) -0.08085(8)
C5 C 0.39211(10) 0.0069(4) -0.14915(8)
C6 C 0.44307(9) 0.0235(3) -0.20264(7)
C7 C 0.51732(9) 0.1779(4) -0.18857(8)
C8 C 0.54404(11) 0.3159(4) -0.12036(9)
C9 C 0.49231(10) 0.2795(4) -0.06906(8)
C10 C 0.18849(9) 0.0950(3) 0.08869(8)
C11 C 0.13678(11) -0.0932(4) 0.03127(11)
C12 C 0.22717(11) -0.0073(4) 0.17341(9)
C13 C 0.11673(12) 0.2822(4) 0.08819(12)
C14 C 0.41256(11) -0.1135(4) -0.28121(9)
C15 C 0.36284(17) 0.0516(5) -0.35026(10)
C16 C 0.49693(15) -0.2197(5) -0.29800(11)
C17 C 0.34606(15) -0.3075(5) -0.27964(14)
C18 C 0.3726(6) 0.1532(15) -0.0148(5)
C19 C 0.4217(3) 0.3313(8) 0.03047(18)
C20 C 0.4007(3) 0.4623(12) 0.0890(3)
H1 H 0.2675(12) -0.039(4) -0.0237(11)
H2 H 0.3369(15) -0.104(4) -0.1616(12)
H3 H 0.1778(16) -0.219(5) 0.0307(13)
H4 H 0.1095(14) -0.031(5) -0.0265(13)
H5 H 0.0827(15) -0.151(4) 0.0495(12)
H6 H 0.2700(15) -0.126(4) 0.1760(12)
H7 H 0.1774(14) -0.071(4) 0.1901(12)
H8 H 0.2558(14) 0.110(5) 0.2089(13)
H9 H 0.0645(15) 0.210(4) 0.1044(12)
H10 H 0.0911(13) 0.358(4) 0.0369(12)
H11 H 0.1471(15) 0.412(4) 0.1268(13)
H12 H 0.405(3) 0.191(6) -0.3589(18)
H13 H 0.3445(17) -0.036(5) -0.4015(15)
H14 H 0.3023(13) 0.097(4) -0.3438(11)
H15 H 0.4757(16) -0.301(5) -0.3469(15)
H16 H 0.5319(14) -0.321(4) -0.2514(13)
H17 H 0.5430(18) -0.094(5) -0.3031(15)
H18 H 0.3314(16) -0.399(5) -0.3227(15)
H19 H 0.3718(15) -0.405(4) -0.2344(14)
H20 H 0.2847(17) -0.241(5) -0.2797(14)
H21 H 0.2937(14) 0.455(4) 0.1525(12)
H22 H 0.5504(13) 0.189(4) -0.2279(12)
N1B N 0.50296(18) 0.6169(6) -0.00456(14)
C1B C 0.73077(8) 0.8028(3) -0.06498(7)
C2B C 0.70310(9) 0.9031(4) -0.00351(8)
C3B C 0.68458(10) 0.6109(3) -0.10774(8)
C4B C 0.58575(9) 0.8568(4) 0.08085(8)
C5B C 0.60789(10) 0.9931(4) 0.14915(8)
C6B C 0.55693(9) 0.9765(3) 0.20264(7)
C7B C 0.48268(9) 0.8221(4) 0.18857(8)
C8B C 0.45596(11) 0.6841(4) 0.12036(9)
C9B C 0.50769(10) 0.7205(4) 0.06906(8)
C10B C 0.81151(9) 0.9050(3) -0.08869(8)
C11B C 0.86322(11) 1.0932(4) -0.03127(11)
C12B C 0.77283(11) 1.0073(4) -0.17341(9)
C13B C 0.88327(12) 0.7178(4) -0.08819(12)
C14B C 0.58744(11) 1.1135(4) 0.28121(9)
C15B C 0.63716(17) 0.9484(5) 0.35026(10)
C16B C 0.50307(15) 1.2197(5) 0.29800(11)
C17B C 0.65394(15) 1.3075(5) 0.27964(14)
C18B C 0.6274(6) 0.8468(15) 0.0148(5)
C19B C 0.5783(3) 0.6687(8) -0.03047(18)
C20B C 0.5993(3) 0.5377(12) -0.0890(3)
H1B H 0.7325(12) 1.039(4) 0.0237(11)
H2B H 0.6631(15) 1.104(4) 0.1616(12)
H3B H 0.8222(16) 1.219(5) -0.0307(13)
H4B H 0.8905(14) 1.031(5) 0.0265(13)
H5B H 0.9173(15) 1.151(4) -0.0495(12)
H6B H 0.7300(15) 1.126(4) -0.1760(12)
H7B H 0.8226(14) 1.071(4) -0.1901(12)
H8B H 0.7442(14) 0.890(5) -0.2089(13)
H9B H 0.9355(15) 0.790(4) -0.1044(12)
H10B H 0.9089(13) 0.642(4) -0.0369(12)
H11B H 0.8529(15) 0.588(4) -0.1268(13)
H12B H 0.595(3) 0.809(6) 0.3589(18)
H13B H 0.6555(17) 1.036(5) 0.4015(15)
H14B H 0.6977(13) 0.903(4) 0.3438(11)
H15B H 0.5243(16) 1.301(5) 0.3469(15)
H16B H 0.4681(14) 1.321(4) 0.2514(13)
H17B H 0.4570(18) 1.094(5) 0.3031(15)
H18B H 0.6686(16) 1.399(5) 0.3227(15)
H19B H 0.6282(15) 1.405(4) 0.2344(14)
H20B H 0.7153(17) 1.241(5) 0.2797(14)
H21B H 0.7063(14) 0.545(4) -0.1525(12)
H22B H 0.4496(13) 0.811(4) 0.2279(12)
C21? C 0.3659(6) 0.2334(15) -0.0217(5)
C22? C 0.3984(2) 0.4311(8) 0.02289(17)
C23? C 0.3784(3) 0.5162(12) 0.0899(3)
N2? N 0.53597(15) 0.4334(5) -0.00808(13)
loop_
_geom_bond_atom_site_label_1
_geom_bond_atom_site_label_2
_geom_bond_site_symmetry_1
_geom_bond_site_symmetry_2
N1 C9 1_555 1_555
C1 C2 1_555 1_555
C2 C18 1_555 1_555
C3 C1 1_555 1_555
C4 C5 1_555 1_555
C5 C6 1_555 1_555
C6 C7 1_555 1_555
C7 C8 1_555 1_555
C8 C9 1_555 1_555
C9 C4 1_555 1_555
C10 C1 1_555 1_555
C11 C10 1_555 1_555
C12 C10 1_555 1_555
C13 C10 1_555 1_555
C14 C6 1_555 1_555
C15 C14 1_555 1_555
C16 C14 1_555 1_555
C17 C14 1_555 1_555
C18 C4 1_555 1_555
C19 N1 1_555 1_555
C20 C3 1_555 1_555
H1 C2 1_555 1_555
H2 C5 1_555 1_555
H3 C11 1_555 1_555
H4 C11 1_555 1_555
H5 C11 1_555 1_555
H6 C12 1_555 1_555
H7 C12 1_555 1_555
H8 C12 1_555 1_555
H9 C13 1_555 1_555
H10 C13 1_555 1_555
H11 C13 1_555 1_555
H12 C15 1_555 1_555
H13 C15 1_555 1_555
H14 C15 1_555 1_555
H15 C16 1_555 1_555
H16 C16 1_555 1_555
H17 C16 1_555 1_555
H18 C17 1_555 1_555
H19 C17 1_555 1_555
H20 C17 1_555 1_555
H21 C3 1_555 1_555
H22 C7 1_555 1_555
N1B N1 1_555 1_555
C1B C2B 1_555 1_555
C2B C18B 1_555 1_555
C3B C1B 1_555 1_555
C4B C5B 1_555 1_555
C5B C6B 1_555 1_555
C6B C7B 1_555 1_555
C7B C8B 1_555 1_555
C8B C20 1_555 1_555
C9B N1B 1_555 1_555
C10B C1B 1_555 1_555
C11B C10B 1_555 1_555
C12B C10B 1_555 1_555
C13B C10B 1_555 1_555
C14B C6B 1_555 1_555
C15B C14B 1_555 1_555
C16B C14B 1_555 1_555
C17B C14B 1_555 1_555
C18B C4B 1_555 1_555
C19B N1B 1_555 1_555
C20B C8 1_555 1_555
H1B C2B 1_555 1_555
H2B C5B 1_555 1_555
H3B C11B 1_555 1_555
H4B C11B 1_555 1_555
H5B C11B 1_555 1_555
H6B C12B 1_555 1_555
H7B C12B 1_555 1_555
H8B C12B 1_555 1_555
H9B C13B 1_555 1_555
H10B C13B 1_555 1_555
H11B C13B 1_555 1_555
H12B C15B 1_555 1_555
H13B C15B 1_555 1_555
H14B C15B 1_555 1_555
H15B C16B 1_555 1_555
H16B C16B 1_555 1_555
H17B C16B 1_555 1_555
H18B C17B 1_555 1_555
H19B C17B 1_555 1_555
H20B C17B 1_555 1_555
H21B C3B 1_555 1_555
H22B C7B 1_555 1_555
C18 C19 1_555 1_555
C19 C20 1_555 1_555
C3B C20B 1_555 1_555
C4B C9B 1_555 1_555
C8B C9B 1_555 1_555
C18B C19B 1_555 1_555
C19B C20B 1_555 1_555

#END
