
#######################################################################
#
#                 Cambridge Crystallographic Data Centre
#                                CCDC 
#
#######################################################################
#
# If this CIF has been generated from an entry in the Cambridge 
# Structural Database, then it will include bibliographic, chemical, 
# crystal, experimental, refinement or atomic coordinate data resulting 
# from the CCDC's data processing and validation procedures.
#
#######################################################################

data_ETEDIQ
_chemical_formula_moiety         'C26 H24 S1 Si1'
_chemical_name_systematic        (2-(Methylthio)benzyl)triphenylsilane
_symmetry_cell_setting           triclinic
_symmetry_space_group_name_H-M   'P -1'
_symmetry_Int_Tables_number      2
_space_group_name_Hall           '-P 1'
loop_
_symmetry_equiv_pos_site_id
_symmetry_equiv_pos_as_xyz
1 x,y,z
2 -x,-y,-z
_cell_length_a                   7.695(4)
_cell_length_b                   7.746(5)
_cell_length_c                   19.003(10)
_cell_angle_alpha                98.42(5)
_cell_angle_beta                 95.76(4)
_cell_angle_gamma                101.33(5)
_cell_volume                     1088.86
_exptl_crystal_colour            colorless
_exptl_crystal_description       parallelepiped
_chemical_melting_point          110-112deg.C
_cell_formula_units_Z            2
_exptl_crystal_recrystallization_method hexane/dichloromethane
loop_
_atom_site_label
_atom_site_type_symbol
_atom_site_fract_x
_atom_site_fract_y
_atom_site_fract_z
S1 S 0.19322(15) 0.71924(13) 0.08726(5)
Si1 Si 0.42504(9) 0.73658(9) 0.28609(3)
C1 C 0.2358(4) 0.5720(4) 0.22487(14)
H1 H 0.1515 0.6391 0.2090
H2 H 0.1760 0.4920 0.2532
C2 C 0.2795(3) 0.4653(3) 0.15928(13)
C3 C 0.2647(3) 0.5192(4) 0.09174(14)
C4 C 0.3038(4) 0.4143(5) 0.03262(16)
H3 H 0.2962 0.4517 -0.0134
C5 C 0.3571(4) 0.2574(5) 0.03941(19)
H4 H 0.3774 0.1784 -0.0013
C6 C 0.3753(5) 0.2053(4) 0.1052(2)
H5 H 0.4224 0.1014 0.1106
C7 C 0.3362(4) 0.3089(4) 0.16392(16)
H6 H 0.3501 0.2663 0.2087
C8 C 0.1715(5) 0.7357(6) -0.0053(2)
H7 H 0.1318 0.8433 -0.0113
H8 H 0.2872 0.7414 -0.0208
H9 H 0.0880 0.6348 -0.0336
C9 C 0.3108(3) 0.8793(3) 0.34604(12)
C10 C 0.3314(3) 0.8934(3) 0.42080(13)
H10 H 0.4113 0.8311 0.4435
C11 C 0.2426(4) 0.9985(4) 0.46294(15)
H11 H 0.2570 1.0021 0.5139
C12 C 0.1321(4) 1.0923(4) 0.43200(18)
H12 H 0.0730 1.1675 0.4616
C13 C 0.1078(4) 1.0811(4) 0.35893(17)
H13 H 0.0303 1.1468 0.3369
C14 C 0.1954(3) 0.9765(4) 0.31627(15)
H14 H 0.1795 0.9722 0.2652
C15 C 0.5830(3) 0.8799(3) 0.23834(12)
C16 C 0.6245(4) 1.0641(4) 0.25758(15)
H15 H 0.5673 1.1205 0.2944
C17 C 0.7508(4) 1.1698(5) 0.22648(19)
H16 H 0.7755 1.2973 0.2407
C18 C 0.8398(4) 1.0939(6) 0.17578(18)
H17 H 0.9269 1.1692 0.1546
C19 C 0.8023(4) 0.9131(6) 0.15597(16)
H18 H 0.8669 0.8619 0.1207
C20 C 0.6752(4) 0.8055(4) 0.18624(15)
H19 H 0.6525 0.6781 0.1724
C21 C 0.5604(3) 0.6150(3) 0.34107(13)
C22 C 0.7469(4) 0.6564(4) 0.35018(15)
H20 H 0.8074 0.7472 0.3264
C23 C 0.8451(4) 0.5710(4) 0.39288(18)
H21 H 0.9733 0.5975 0.3970
C24 C 0.7597(5) 0.4407(4) 0.42697(17)
H22 H 0.8289 0.3816 0.4566
C25 C 0.5765(5) 0.3973(4) 0.41918(17)
H23 H 0.5169 0.3087 0.4441
C26 C 0.4790(4) 0.4832(3) 0.37632(15)
H24 H 0.3508 0.4486 0.3700
loop_
_geom_bond_atom_site_label_1
_geom_bond_atom_site_label_2
_geom_bond_site_symmetry_1
_geom_bond_site_symmetry_2
S1 C3 1_555 1_555
Si1 C1 1_555 1_555
C1 H1 1_555 1_555
H2 C1 1_555 1_555
C2 C1 1_555 1_555
C3 C2 1_555 1_555
C4 C3 1_555 1_555
H3 C4 1_555 1_555
C5 C4 1_555 1_555
H4 C5 1_555 1_555
C6 C5 1_555 1_555
H5 C6 1_555 1_555
C7 C2 1_555 1_555
H6 C7 1_555 1_555
C8 S1 1_555 1_555
H7 C8 1_555 1_555
H8 C8 1_555 1_555
H9 C8 1_555 1_555
C9 Si1 1_555 1_555
C10 C9 1_555 1_555
H10 C10 1_555 1_555
C11 C10 1_555 1_555
H11 C11 1_555 1_555
C12 C11 1_555 1_555
H12 C12 1_555 1_555
C13 C12 1_555 1_555
H13 C13 1_555 1_555
C14 C9 1_555 1_555
H14 C14 1_555 1_555
C15 Si1 1_555 1_555
C16 C15 1_555 1_555
H15 C16 1_555 1_555
C17 C16 1_555 1_555
H16 C17 1_555 1_555
C18 C17 1_555 1_555
H17 C18 1_555 1_555
C19 C18 1_555 1_555
H18 C19 1_555 1_555
C20 C15 1_555 1_555
H19 C20 1_555 1_555
C21 Si1 1_555 1_555
C22 C21 1_555 1_555
H20 C22 1_555 1_555
C23 C22 1_555 1_555
H21 C23 1_555 1_555
C24 C23 1_555 1_555
H22 C24 1_555 1_555
C25 C24 1_555 1_555
H23 C25 1_555 1_555
C26 C21 1_555 1_555
H24 C26 1_555 1_555
C6 C7 1_555 1_555
C13 C14 1_555 1_555
C19 C20 1_555 1_555
C25 C26 1_555 1_555

#END
