
#######################################################################
#
#                 Cambridge Crystallographic Data Centre
#                                CCDC 
#
#######################################################################
#
# If this CIF has been generated from an entry in the Cambridge 
# Structural Database, then it will include bibliographic, chemical, 
# crystal, experimental, refinement or atomic coordinate data resulting 
# from the CCDC's data processing and validation procedures.
#
#######################################################################

data_ETILAU
_chemical_formula_moiety         'C20 H19 F3 N2 O4'
_chemical_name_systematic        
'Methyl (Z,Z)-\a-(methoxyimino)-2-(((1-(3-(trifluoromethyl)phenyl)ethylidene)amino)oxymethyl)benzeneacetate'
_symmetry_cell_setting           monoclinic
_symmetry_space_group_name_H-M   'P 21/n'
_symmetry_Int_Tables_number      14
_space_group_name_Hall           '-P 2yn'
loop_
_symmetry_equiv_pos_site_id
_symmetry_equiv_pos_as_xyz
1 x,y,z
2 1/2-x,1/2+y,1/2-z
3 -x,-y,-z
4 1/2+x,1/2-y,1/2+z
_cell_length_a                   8.0122(11)
_cell_length_b                   6.9993(6)
_cell_length_c                   36.417(4)
_cell_angle_alpha                90
_cell_angle_beta                 91.945(5)
_cell_angle_gamma                90
_cell_volume                     2041.08
_exptl_crystal_colour            colorless
_exptl_crystal_description       block
_cell_formula_units_Z            4
loop_
_atom_site_label
_atom_site_type_symbol
_atom_site_fract_x
_atom_site_fract_y
_atom_site_fract_z
F1 F 0.3406(15) -0.6750(19) -0.0049(3)
F2 F 0.0816(15) -0.705(3) -0.0048(4)
F3 F 0.228(3) -0.8836(13) 0.0270(3)
O1 O -0.5434(2) 0.4212(2) 0.19113(4)
O2 O -0.3203(2) 0.2627(2) 0.21423(4)
O3 O -0.62433(18) -0.00576(19) 0.21452(4)
O4 O -0.12953(19) -0.3054(2) 0.13287(4)
N1 N -0.5664(2) -0.0342(2) 0.17892(5)
N2 N -0.1026(2) -0.4750(3) 0.15373(5)
C1 C -0.4063(3) 0.1056(3) 0.13232(6)
C2 C -0.3134(3) -0.0487(3) 0.12038(6)
C3 C -0.2494(3) -0.0427(3) 0.08545(7)
H1 H -0.1883 -0.1459 0.0771
C4 C -0.2750(3) 0.1137(4) 0.06301(6)
H2 H -0.2326 0.1145 0.0395
C5 C -0.3625(3) 0.2681(4) 0.07513(7)
H3 H -0.3773 0.3752 0.0603
C6 C -0.4286(3) 0.2633(3) 0.10966(7)
H4 H -0.4890 0.3675 0.1178
C7 C -0.4810(2) 0.1090(3) 0.16868(6)
C8 C -0.4551(3) 0.2833(3) 0.19268(7)
C9 C -0.2770(3) 0.4259(3) 0.23721(6)
H5 H -0.1735 0.4013 0.2504
H6 H -0.3636 0.4472 0.2543
H7 H -0.2653 0.5371 0.2221
C10 C -0.7284(3) -0.1627(3) 0.22408(7)
H8 H -0.7684 -0.1437 0.2484
H9 H -0.6652 -0.2791 0.2234
H10 H -0.8216 -0.1707 0.2069
C11 C 0.1175(3) -0.5121(3) 0.10884(7)
C12 C 0.1234(3) -0.6287(3) 0.07833(7)
H11 H 0.0680 -0.7455 0.0780
C13 C 0.2115(3) -0.5719(4) 0.04830(7)
C14 C 0.2953(3) -0.4015(4) 0.04828(8)
H12 H 0.3532 -0.3643 0.0278
C15 C 0.2933(3) -0.2859(4) 0.07868(9)
H13 H 0.3513 -0.1709 0.0790
C16 C 0.2048(3) -0.3407(3) 0.10890(7)
H14 H 0.2038 -0.2619 0.1295
C17 C 0.2142(8) -0.7002(8) 0.01544(13)
C18 C 0.0182(3) -0.5702(3) 0.14086(6)
C19 C 0.0574(3) -0.7568(3) 0.15948(6)
H15 H -0.0203 -0.7785 0.1785
H16 H 0.1689 -0.7529 0.1700
H17 H 0.0488 -0.8585 0.1418
C20 C -0.2780(3) -0.2182(3) 0.14481(6)
H18 H -0.2637 -0.1774 0.1702
H19 H -0.3701 -0.3080 0.1431
F4? F 0.201(3) -0.5959(11) -0.01664(18)
F5? F 0.096(2) -0.807(3) 0.0115(3)
F6? F 0.3458(17) -0.796(3) 0.0121(5)
loop_
_geom_bond_atom_site_label_1
_geom_bond_atom_site_label_2
_geom_bond_site_symmetry_1
_geom_bond_site_symmetry_2
F1 C17 1_555 1_555
F2 C17 1_555 1_555
F3 C17 1_555 1_555
O1 C8 1_555 1_555
O2 C8 1_555 1_555
O3 N1 1_555 1_555
O4 N2 1_555 1_555
N1 C7 1_555 1_555
N2 C18 1_555 1_555
C1 C2 1_555 1_555
C2 C3 1_555 1_555
C3 H1 1_555 1_555
C4 C3 1_555 1_555
H2 C4 1_555 1_555
C5 C4 1_555 1_555
H3 C5 1_555 1_555
C6 C1 1_555 1_555
H4 C6 1_555 1_555
C7 C1 1_555 1_555
C8 C7 1_555 1_555
C9 O2 1_555 1_555
H5 C9 1_555 1_555
H6 C9 1_555 1_555
H7 C9 1_555 1_555
C10 O3 1_555 1_555
H8 C10 1_555 1_555
H9 C10 1_555 1_555
H10 C10 1_555 1_555
C11 C12 1_555 1_555
C12 H11 1_555 1_555
C13 C12 1_555 1_555
C14 C13 1_555 1_555
H12 C14 1_555 1_555
C15 C14 1_555 1_555
H13 C15 1_555 1_555
C16 C11 1_555 1_555
H14 C16 1_555 1_555
C17 C13 1_555 1_555
C18 C11 1_555 1_555
C19 C18 1_555 1_555
H15 C19 1_555 1_555
H16 C19 1_555 1_555
H17 C19 1_555 1_555
C20 O4 1_555 1_555
H18 C20 1_555 1_555
H19 C20 1_555 1_555
C2 C20 1_555 1_555
C5 C6 1_555 1_555
C15 C16 1_555 1_555

#END
