
#######################################################################
#
#                 Cambridge Crystallographic Data Centre
#                                CCDC 
#
#######################################################################
#
# If this CIF has been generated from an entry in the Cambridge 
# Structural Database, then it will include bibliographic, chemical, 
# crystal, experimental, refinement or atomic coordinate data resulting 
# from the CCDC's data processing and validation procedures.
#
#######################################################################

data_ETITOQ
_chemical_formula_moiety         'C20 H15 N1 O1'
_chemical_name_systematic        
N-(9H-Fluoren-9-ylidene)-N-(4-methoxyphenyl)amine
_symmetry_cell_setting           monoclinic
_symmetry_space_group_name_H-M   'C 2/c'
_symmetry_Int_Tables_number      15
_space_group_name_Hall           '-C 2yn'
loop_
_symmetry_equiv_pos_site_id
_symmetry_equiv_pos_as_xyz
1 x,y,z
2 1/2+x,1/2+y,z
3 x,-y,1/2+z
4 1/2+x,1/2-y,1/2+z
5 -x,-y,-z
6 1/2-x,1/2-y,-z
7 -x,y,1/2-z
8 1/2-x,1/2+y,1/2-z
_cell_length_a                   19.0275(10)
_cell_length_b                   9.8262(5)
_cell_length_c                   17.4862(10)
_cell_angle_alpha                90
_cell_angle_beta                 118.4860(10)
_cell_angle_gamma                90
_cell_volume                     2873.55
_exptl_crystal_colour            orange
_exptl_crystal_description       parallelepiped
_chemical_melting_point          '404.5-406 K'
_cell_formula_units_Z            8
loop_
_atom_site_label
_atom_site_type_symbol
_atom_site_fract_x
_atom_site_fract_y
_atom_site_fract_z
O1 O 0.11641(4) 0.49833(7) 0.18984(5)
N1 N 0.15358(5) 1.02690(9) 0.09761(5)
C1 C 0.06690(6) 0.82948(10) 0.07573(6)
H1 H 0.0225 0.8780 0.0326
C2 C 0.14305(5) 1.06652(10) 0.02309(6)
C3 C 0.05559(6) 0.69902(10) 0.09946(6)
H2 H 0.0038 0.6593 0.0730
C4 C 0.12514(5) 0.99313(10) -0.05937(6)
C5 C 0.20692(6) 0.81758(10) 0.17869(6)
H3 H 0.2583 0.8586 0.2068
C6 C 0.14225(6) 0.88951(10) 0.11424(6)
C7 C 0.19662(6) 0.68730(10) 0.20184(6)
H4 H 0.2411 0.6385 0.2447
C8 C 0.17963(6) 1.44972(11) 0.03076(7)
H5 H 0.1937 1.5270 0.0678
C9 C 0.13805(6) 1.22669(10) -0.07956(6)
C10 C 0.15141(5) 1.21239(10) 0.00612(6)
C11 C 0.14565(6) 1.35275(10) -0.11066(6)
H6 H 0.1364 1.3632 -0.1688
C12 C 0.12078(6) 0.62765(10) 0.16219(6)
C13 C 0.10922(6) 1.05372(10) -0.20211(6)
H7 H 0.1055 1.1205 -0.2432
C14 C 0.11852(6) 0.85569(10) -0.08048(6)
H8 H 0.1214 0.7886 -0.0400
C15 C 0.12147(6) 1.09117(10) -0.12024(6)
C16 C 0.17144(6) 1.32305(10) 0.06162(6)
H9 H 0.1794 1.3130 0.1192
C17 C 0.10248(6) 0.91581(11) -0.22273(7)
H10 H 0.0944 0.8880 -0.2784
C18 C 0.10751(6) 0.81826(11) -0.16263(7)
H11 H 0.1034 0.7246 -0.1777
C19 C 0.16730(6) 1.46373(10) -0.05415(7)
H12 H 0.1738 1.5505 -0.0739
C20 C 0.04077(7) 0.43231(11) 0.14680(7)
H13 H 0.0449 0.3414 0.1717
H14 H 0.0242 0.4241 0.0846
H15 H 0.0011 0.4859 0.1544
loop_
_geom_bond_atom_site_label_1
_geom_bond_atom_site_label_2
_geom_bond_site_symmetry_1
_geom_bond_site_symmetry_2
O1 C12 1_555 1_555
N1 C2 1_555 1_555
C1 H1 1_555 1_555
C2 C4 1_555 1_555
C3 C1 1_555 1_555
H2 C3 1_555 1_555
C4 C14 1_555 1_555
C5 H3 1_555 1_555
C6 N1 1_555 1_555
C7 C5 1_555 1_555
H4 C7 1_555 1_555
C8 H5 1_555 1_555
C9 C10 1_555 1_555
C10 C2 1_555 1_555
C11 C9 1_555 1_555
H6 C11 1_555 1_555
C12 C3 1_555 1_555
C13 H7 1_555 1_555
C14 H8 1_555 1_555
C15 C4 1_555 1_555
C16 C8 1_555 1_555
H9 C16 1_555 1_555
C17 C13 1_555 1_555
H10 C17 1_555 1_555
C18 C14 1_555 1_555
H11 C18 1_555 1_555
C19 C8 1_555 1_555
H12 C19 1_555 1_555
C20 O1 1_555 1_555
H13 C20 1_555 1_555
H14 C20 1_555 1_555
H15 C20 1_555 1_555
C1 C6 1_555 1_555
C5 C6 1_555 1_555
C7 C12 1_555 1_555
C9 C15 1_555 1_555
C10 C16 1_555 1_555
C11 C19 1_555 1_555
C13 C15 1_555 1_555
C17 C18 1_555 1_555

#END
