
#######################################################################
#
#                 Cambridge Crystallographic Data Centre
#                                CCDC 
#
#######################################################################
#
# If this CIF has been generated from an entry in the Cambridge 
# Structural Database, then it will include bibliographic, chemical, 
# crystal, experimental, refinement or atomic coordinate data resulting 
# from the CCDC's data processing and validation procedures.
#
#######################################################################

data_ETOBAQ
_chemical_formula_moiety         'C16 H11 N1 O3'
_chemical_name_systematic        1-Phenyl-2-phthalimidoethanone
_symmetry_cell_setting           monoclinic
_symmetry_space_group_name_H-M   'P 21/c'
_symmetry_Int_Tables_number      14
_space_group_name_Hall           '-P 2ybc'
loop_
_symmetry_equiv_pos_site_id
_symmetry_equiv_pos_as_xyz
1 x,y,z
2 x,1/2-y,1/2+z
3 -x,-y,-z
4 -x,1/2+y,1/2-z
_cell_length_a                   12.8670(5)
_cell_length_b                   14.2568(6)
_cell_length_c                   14.2196(6)
_cell_angle_alpha                90
_cell_angle_beta                 94.728(2)
_cell_angle_gamma                90
_cell_volume                     2599.6
_exptl_crystal_colour            colorless
_exptl_crystal_description       block
_chemical_melting_point          '445-447 K'
_cell_formula_units_Z            8
_exptl_crystal_recrystallization_method benzene/toluene
loop_
_atom_site_label
_atom_site_type_symbol
_atom_site_fract_x
_atom_site_fract_y
_atom_site_fract_z
O1 O 0.51631(11) 0.86804(10) 0.03907(11)
O2 O 0.86323(11) 0.88937(10) 0.12847(11)
O3 O 0.61001(13) 0.99092(11) 0.23022(10)
N1 N 0.68809(11) 0.90227(10) 0.08326(10)
C1 C 0.75111(14) 0.75244(13) 0.10202(11)
C2 C 0.81148(17) 0.67303(15) 0.11784(13)
H1 H 0.8825 0.6772 0.1355
C3 C 0.7623(2) 0.58692(15) 0.10646(14)
H2 H 0.8008 0.5322 0.1170
C4 C 0.6569(2) 0.58116(16) 0.07966(16)
H3 H 0.6257 0.5225 0.0725
C5 C 0.59685(18) 0.66089(15) 0.06329(15)
H4 H 0.5260 0.6568 0.0448
C6 C 0.64549(15) 0.74605(13) 0.07530(12)
C7 C 0.60365(15) 0.84237(13) 0.06299(12)
C8 C 0.77938(15) 0.85352(13) 0.10808(12)
C9 C 0.67890(15) 1.00328(12) 0.08164(13)
H5 H 0.6321 1.0216 0.0278
H6 H 0.7467 1.0304 0.0736
C10 C 0.63858(14) 1.04269(14) 0.17023(13)
C11 C 0.63689(13) 1.14659(14) 0.18053(13)
C12 C 0.65836(15) 1.20681(14) 0.10846(15)
H7 H 0.6735 1.1825 0.0504
C13 C 0.65751(18) 1.30243(15) 0.12183(18)
H8 H 0.6717 1.3421 0.0726
C14 C 0.63607(18) 1.33956(18) 0.2064(2)
H9 H 0.6354 1.4043 0.2146
C15 C 0.61558(18) 1.28161(19) 0.2789(2)
H10 H 0.6017 1.3069 0.3369
C16 C 0.61545(16) 1.18453(17) 0.26654(16)
H11 H 0.6010 1.1453 0.3160
O4 O 0.89942(10) 0.12473(9) 1.01796(8)
O5 O 0.90628(11) 0.12087(10) 0.69854(8)
O6 O 0.71791(10) 0.01113(9) 0.86403(10)
N2 N 0.90024(11) 0.09980(10) 0.85838(9)
C17 C 0.89447(15) 0.33605(13) 0.95477(13)
H12 H 0.8936 0.3363 1.0201
C18 C 0.89316(16) 0.41883(14) 0.90369(15)
H13 H 0.8917 0.4758 0.9353
C19 C 0.89392(15) 0.41825(14) 0.80626(15)
H14 H 0.8926 0.4748 0.7736
C20 C 0.89657(13) 0.33468(14) 0.75667(13)
H15 H 0.8969 0.3341 0.6913
C21 C 0.89867(13) 0.25249(12) 0.80773(11)
C22 C 0.89703(13) 0.25338(12) 0.90513(12)
C23 C 0.89870(13) 0.15471(13) 0.93811(12)
C24 C 0.90200(13) 0.15316(13) 0.77681(12)
C25 C 0.90055(14) -0.00125(13) 0.86034(13)
H16 H 0.9427 -0.0225 0.9159
H17 H 0.9321 -0.0247 0.8053
C26 C 0.79128(14) -0.04136(13) 0.86161(11)
C27 C 0.77879(13) -0.14473(12) 0.85838(11)
C28 C 0.86258(15) -0.20576(13) 0.87283(12)
H18 H 0.9295 -0.1820 0.8860
C29 C 0.84737(17) -0.30123(14) 0.86774(13)
H19 H 0.9041 -0.3415 0.8778
C30 C 0.74959(18) -0.33732(15) 0.84803(13)
H20 H 0.7398 -0.4019 0.8447
C31 C 0.66597(18) -0.27805(16) 0.83320(14)
H21 H 0.5995 -0.3027 0.8193
C32 C 0.67952(15) -0.18222(15) 0.83867(12)
H22 H 0.6222 -0.1426 0.8292
loop_
_geom_bond_atom_site_label_1
_geom_bond_atom_site_label_2
_geom_bond_site_symmetry_1
_geom_bond_site_symmetry_2
O1 C7 1_555 1_555
O2 C8 1_555 1_555
O3 C10 1_555 1_555
O4 C23 1_555 1_555
O5 C24 1_555 1_555
O6 C26 1_555 1_555
N1 C7 1_555 1_555
N2 C23 1_555 1_555
C1 C2 1_555 1_555
C2 H1 1_555 1_555
C3 C2 1_555 1_555
H2 C3 1_555 1_555
C4 C3 1_555 1_555
H3 C4 1_555 1_555
C5 C4 1_555 1_555
H4 C5 1_555 1_555
C6 C1 1_555 1_555
C7 C6 1_555 1_555
C8 N1 1_555 1_555
C9 N1 1_555 1_555
H5 C9 1_555 1_555
H6 C9 1_555 1_555
C10 C9 1_555 1_555
C11 C10 1_555 1_555
C12 C11 1_555 1_555
H7 C12 1_555 1_555
C13 C12 1_555 1_555
H8 C13 1_555 1_555
C14 C13 1_555 1_555
H9 C14 1_555 1_555
C15 C14 1_555 1_555
H10 C15 1_555 1_555
C16 C11 1_555 1_555
H11 C16 1_555 1_555
C17 H12 1_555 1_555
C18 C17 1_555 1_555
H13 C18 1_555 1_555
C19 C18 1_555 1_555
H14 C19 1_555 1_555
C20 C19 1_555 1_555
H15 C20 1_555 1_555
C21 C20 1_555 1_555
C22 C17 1_555 1_555
C23 C22 1_555 1_555
C24 N2 1_555 1_555
C25 N2 1_555 1_555
H16 C25 1_555 1_555
H17 C25 1_555 1_555
C26 C25 1_555 1_555
C27 C26 1_555 1_555
C28 C27 1_555 1_555
H18 C28 1_555 1_555
C29 C28 1_555 1_555
H19 C29 1_555 1_555
C30 C29 1_555 1_555
H20 C30 1_555 1_555
C31 C30 1_555 1_555
H21 C31 1_555 1_555
C32 C27 1_555 1_555
H22 C32 1_555 1_555
C1 C8 1_555 1_555
C5 C6 1_555 1_555
C15 C16 1_555 1_555
C21 C24 1_555 1_555
C21 C22 1_555 1_555
C31 C32 1_555 1_555

#END
