
#######################################################################
#
#                 Cambridge Crystallographic Data Centre
#                                CCDC 
#
#######################################################################
#
# If this CIF has been generated from an entry in the Cambridge 
# Structural Database, then it will include bibliographic, chemical, 
# crystal, experimental, refinement or atomic coordinate data resulting 
# from the CCDC's data processing and validation procedures.
#
#######################################################################

data_EVAFIR
_chemical_formula_moiety         'C8 H5 N1 O6,C8 H6 N2 O2,H2 O1'
_chemical_name_systematic        
'5-Nitroisophthalic acid 1,4-dihydroquinoxaline-2,3-dione monohydrate'
_symmetry_cell_setting           triclinic
_symmetry_space_group_name_H-M   'P -1'
_symmetry_Int_Tables_number      2
_space_group_name_Hall           '-P 1'
loop_
_symmetry_equiv_pos_site_id
_symmetry_equiv_pos_as_xyz
1 x,y,z
2 -x,-y,-z
_cell_length_a                   7.245(2)
_cell_length_b                   8.686(3)
_cell_length_c                   13.142(4)
_cell_angle_alpha                93.938(4)
_cell_angle_beta                 95.619(4)
_cell_angle_gamma                95.793(4)
_cell_volume                     816.268
_exptl_crystal_colour            orange
_exptl_crystal_description       block
_cell_formula_units_Z            2
loop_
_atom_site_label
_atom_site_type_symbol
_atom_site_fract_x
_atom_site_fract_y
_atom_site_fract_z
N1 N 0.71730(16) 0.01395(14) 0.43192(9)
H1 H 0.6421 -0.0558 0.4543
N2 N 0.96136(17) 0.23142(14) 0.36451(9)
H2 H 1.0403 0.2993 0.3431
O1 O 0.53849(14) 0.20004(12) 0.47998(8)
O2 O 0.79757(16) 0.42195(12) 0.42271(8)
C1 C 0.67867(19) 0.16099(17) 0.44281(10)
C2 C 0.8180(2) 0.28385(17) 0.40886(10)
C3 C 0.9929(2) 0.07624(17) 0.35027(10)
C4 C 1.1426(2) 0.0307(2) 0.30139(12)
H7 H 1.2255 0.1047 0.2770
C5 C 1.1677(2) -0.1238(2) 0.28923(13)
H8 H 1.2657 -0.1545 0.2547
C6 C 1.0477(2) -0.2347(2) 0.32807(12)
H9 H 1.0674 -0.3389 0.3208
C7 C 0.8999(2) -0.19105(18) 0.37722(11)
H10 H 0.8201 -0.2652 0.4037
C8 C 0.87052(19) -0.03525(16) 0.38704(10)
N3 N 0.86203(18) 0.59454(17) -0.10289(9)
O3 O 0.54289(17) 0.39843(12) 0.20331(9)
O4 O 0.49185(15) 0.61637(12) 0.28917(8)
H3 H 0.4479 0.5555 0.3277
O5 O 0.85764(19) 0.45403(16) -0.11072(9)
O6 O 0.9246(2) 0.67836(17) -0.16454(10)
O7 O 0.7393(2) 1.14774(14) 0.02107(10)
O8 O 0.62819(19) 1.11218(13) 0.17111(9)
H4 H 0.6236 1.2062 0.1725
C9 C 0.63865(19) 0.64015(17) 0.13886(10)
C10 C 0.7140(2) 0.57178(18) 0.05592(10)
H11 H 0.7161 0.4648 0.0475
C11 C 0.7857(2) 0.66751(18) -0.01360(10)
C12 C 0.7849(2) 0.82652(19) -0.00467(11)
H12 H 0.8342 0.8876 -0.0530
C13 C 0.7085(2) 0.89318(18) 0.07831(11)
C14 C 0.6363(2) 0.79974(17) 0.14970(10)
H13 H 0.5858 0.8448 0.2054
C15 C 0.5552(2) 0.53871(17) 0.21328(10)
C16 C 0.6963(2) 1.06385(19) 0.08583(12)
O9 O 0.32657(14) 0.43362(12) 0.40853(8)
H5 H 0.4013 0.3730 0.4352
H6 H 0.3007 0.4804 0.4643
loop_
_geom_bond_atom_site_label_1
_geom_bond_atom_site_label_2
_geom_bond_site_symmetry_1
_geom_bond_site_symmetry_2
N1 H1 1_555 1_555
N2 H2 1_555 1_555
N3 O5 1_555 1_555
O1 C1 1_555 1_555
O2 C2 1_555 1_555
O3 C15 1_555 1_555
O4 H3 1_555 1_555
O6 N3 1_555 1_555
O7 C16 1_555 1_555
O8 H4 1_555 1_555
O9 H5 1_555 1_555
H6 O9 1_555 1_555
C1 N1 1_555 1_555
C2 N2 1_555 1_555
C3 N2 1_555 1_555
C4 C3 1_555 1_555
H7 C4 1_555 1_555
C5 C4 1_555 1_555
H8 C5 1_555 1_555
C6 C5 1_555 1_555
H9 C6 1_555 1_555
C7 C6 1_555 1_555
H10 C7 1_555 1_555
C8 N1 1_555 1_555
C9 C10 1_555 1_555
C10 H11 1_555 1_555
C11 N3 1_555 1_555
C12 C11 1_555 1_555
H12 C12 1_555 1_555
C13 C12 1_555 1_555
C14 C9 1_555 1_555
H13 C14 1_555 1_555
C15 O4 1_555 1_555
C16 O8 1_555 1_555
C1 C2 1_555 1_555
C3 C8 1_555 1_555
C7 C8 1_555 1_555
C9 C15 1_555 1_555
C10 C11 1_555 1_555
C13 C14 1_555 1_555
C13 C16 1_555 1_555

#END
