
#######################################################################
#
#                 Cambridge Crystallographic Data Centre
#                                CCDC 
#
#######################################################################
#
# If this CIF has been generated from an entry in the Cambridge 
# Structural Database, then it will include bibliographic, chemical, 
# crystal, experimental, refinement or atomic coordinate data resulting 
# from the CCDC's data processing and validation procedures.
#
#######################################################################

data_EVAPUN
_chemical_formula_moiety         'C14 H10 Cl1 N3 O4,2(C1 H4 O1)'
_chemical_name_systematic        
"3-Chloro-N'-(4-hydroxy-3-nitrobenzylidene)benzohydrazide methanol solvate"
_symmetry_cell_setting           monoclinic
_symmetry_space_group_name_H-M   'P 21/c'
_symmetry_Int_Tables_number      14
_space_group_name_Hall           '-P 2ybc'
loop_
_symmetry_equiv_pos_site_id
_symmetry_equiv_pos_as_xyz
1 x,y,z
2 -x,1/2+y,1/2-z
3 -x,-y,-z
4 x,1/2-y,1/2+z
_cell_length_a                   7.626(2)
_cell_length_b                   18.846(5)
_cell_length_c                   12.739(3)
_cell_angle_alpha                90
_cell_angle_beta                 94.689(4)
_cell_angle_gamma                90
_cell_volume                     1824.72
_exptl_crystal_colour            yellow
_exptl_crystal_description       block
_cell_formula_units_Z            4
loop_
_atom_site_label
_atom_site_type_symbol
_atom_site_fract_x
_atom_site_fract_y
_atom_site_fract_z
Cl1 Cl 1.06078(17) -0.35391(5) 0.03312(9)
N1 N 0.4832(5) 0.32118(17) -0.0141(3)
N2 N 0.7478(4) 0.02147(15) 0.0491(2)
N3 N 0.7737(5) -0.03895(16) -0.0091(2)
O1 O 0.4617(5) 0.37833(14) 0.0290(2)
O2 O 0.4421(4) 0.31188(15) -0.1072(2)
O3 O 0.5851(4) 0.32945(13) 0.21283(19)
H1 H 0.5220 0.3575 0.1780
O4 O 0.8426(5) -0.10265(14) 0.1374(2)
C1 C 0.6684(5) 0.14309(18) 0.0505(3)
C2 C 0.5915(5) 0.19991(18) -0.0036(3)
H4 H 0.5575 0.1957 -0.0751
C3 C 0.5644(5) 0.26316(18) 0.0480(3)
C4 C 0.6108(5) 0.27168(19) 0.1552(3)
C5 C 0.6913(6) 0.2144(2) 0.2073(3)
H5 H 0.7265 0.2186 0.2787
C6 C 0.7208(6) 0.1523(2) 0.1581(3)
H6 H 0.7765 0.1153 0.1959
C7 C 0.6967(5) 0.07624(19) -0.0032(3)
H7 H 0.6772 0.0736 -0.0761
C8 C 0.8224(5) -0.09925(19) 0.0410(3)
C9 C 0.8502(5) -0.16287(17) -0.0252(3)
C10 C 0.9332(5) -0.22067(18) 0.0246(3)
H8 H 0.9724 -0.2180 0.0956
C11 C 0.9576(5) -0.28200(18) -0.0311(3)
C12 C 0.9009(5) -0.2878(2) -0.1355(3)
H9 H 0.9173 -0.3296 -0.1722
C13 C 0.8189(6) -0.2303(2) -0.1848(3)
H10 H 0.7805 -0.2333 -0.2558
C14 C 0.7929(5) -0.16866(19) -0.1309(3)
H11 H 0.7365 -0.1305 -0.1656
H12 H 0.771(5) -0.0374(19) -0.0792(9)
O5 O 0.3664(4) 0.45501(16) 0.2154(2)
H2 H 0.3000 0.4414 0.2587
C15 C 0.2719(8) 0.4968(2) 0.1385(4)
H13 H 0.2107 0.5338 0.1724
H14 H 0.1885 0.4676 0.0979
H15 H 0.3520 0.5175 0.0929
O6 O 0.6850(6) 0.5111(2) 0.2745(3)
H3 H 0.5888 0.4937 0.2563
C16 C 0.7983(9) 0.5025(3) 0.1930(5)
H16 H 0.7729 0.5382 0.1402
H17 H 0.7808 0.4563 0.1620
H18 H 0.9183 0.5071 0.2215
loop_
_geom_bond_atom_site_label_1
_geom_bond_atom_site_label_2
_geom_bond_site_symmetry_1
_geom_bond_site_symmetry_2
Cl1 C11 1_555 1_555
N1 O1 1_555 1_555
N2 N3 1_555 1_555
N3 C8 1_555 1_555
O2 N1 1_555 1_555
O3 H1 1_555 1_555
O4 C8 1_555 1_555
O5 H2 1_555 1_555
O6 H3 1_555 1_555
C1 C2 1_555 1_555
C2 H4 1_555 1_555
C3 N1 1_555 1_555
C4 O3 1_555 1_555
C5 C4 1_555 1_555
H5 C5 1_555 1_555
C6 C1 1_555 1_555
H6 C6 1_555 1_555
C7 N2 1_555 1_555
H7 C7 1_555 1_555
C8 C9 1_555 1_555
C9 C10 1_555 1_555
C10 H8 1_555 1_555
C11 C10 1_555 1_555
C12 C11 1_555 1_555
H9 C12 1_555 1_555
C13 C12 1_555 1_555
H10 C13 1_555 1_555
C14 C9 1_555 1_555
H11 C14 1_555 1_555
H12 N3 1_555 1_555
C15 O5 1_555 1_555
H13 C15 1_555 1_555
H14 C15 1_555 1_555
H15 C15 1_555 1_555
C16 O6 1_555 1_555
H16 C16 1_555 1_555
H17 C16 1_555 1_555
H18 C16 1_555 1_555
C1 C7 1_555 1_555
C2 C3 1_555 1_555
C3 C4 1_555 1_555
C5 C6 1_555 1_555
C13 C14 1_555 1_555

#END
