
#######################################################################
#
#                 Cambridge Crystallographic Data Centre
#                                CCDC 
#
#######################################################################
#
# If this CIF has been generated from an entry in the Cambridge 
# Structural Database, then it will include bibliographic, chemical, 
# crystal, experimental, refinement or atomic coordinate data resulting 
# from the CCDC's data processing and validation procedures.
#
#######################################################################

data_EVAZIL
_chemical_formula_moiety         'C20 H22 O5 S1'
_chemical_name_systematic        
'Diethyl 2-([3-(2-methoxybenzyl)thiophen-2-yl]methylidene)malonate'
_symmetry_cell_setting           orthorhombic
_symmetry_space_group_name_H-M   'P b c a'
_symmetry_Int_Tables_number      61
_space_group_name_Hall           '-P 2ac 2ab'
loop_
_symmetry_equiv_pos_site_id
_symmetry_equiv_pos_as_xyz
1 x,y,z
2 1/2-x,-y,1/2+z
3 -x,1/2+y,1/2-z
4 1/2+x,1/2-y,-z
5 -x,-y,-z
6 1/2+x,y,1/2-z
7 x,1/2-y,1/2+z
8 1/2-x,1/2+y,z
_cell_length_a                   8.1680(2)
_cell_length_b                   16.4046(4)
_cell_length_c                   28.8651(7)
_cell_angle_alpha                90
_cell_angle_beta                 90
_cell_angle_gamma                90
_cell_volume                     3867.71
_exptl_crystal_colour            white
_exptl_crystal_description       block
_cell_formula_units_Z            8
_exptl_crystal_recrystallization_method methanol
loop_
_atom_site_label
_atom_site_type_symbol
_atom_site_fract_x
_atom_site_fract_y
_atom_site_fract_z
C1 C 0.2480(3) 0.84683(13) 0.40960(7)
H1 H 0.2853 0.7955 0.4182
C2 C 0.0917(3) 0.87086(14) 0.41448(8)
H2 H 0.0097 0.8382 0.4270
C3 C 0.2653(2) 0.97752(12) 0.37999(6)
C4 C 0.3501(2) 0.90728(11) 0.39004(6)
C5 C 0.5308(2) 0.89232(12) 0.38274(6)
H3 H 0.5455 0.8420 0.3656
H4 H 0.5764 0.9363 0.3644
C6 C 0.6220(2) 0.88675(12) 0.42814(6)
C7 C 0.6554(3) 0.81224(12) 0.44834(7)
H5 H 0.6246 0.7646 0.4332
C8 C 0.7338(3) 0.80722(15) 0.49063(8)
H6 H 0.7551 0.7566 0.5039
C9 C 0.7800(3) 0.87723(15) 0.51296(7)
H7 H 0.8333 0.8739 0.5414
C10 C 0.7487(3) 0.95238(14) 0.49386(7)
H8 H 0.7799 0.9996 0.5094
C11 C 0.6703(2) 0.95747(11) 0.45135(7)
C12 C 0.6731(3) 1.10362(14) 0.45138(9)
H9 H 0.6190 1.1058 0.4809
H10 H 0.6364 1.1481 0.4325
H11 H 0.7893 1.1076 0.4559
C13 C 0.3340(2) 1.05129(11) 0.36133(6)
H12 H 0.4477 1.0519 0.3598
C14 C 0.2619(2) 1.11897(12) 0.34583(6)
C15 C 0.0810(2) 1.13214(12) 0.34553(7)
C16 C -0.1688(3) 1.09125(18) 0.31161(12)
H13 H -0.2077 1.1441 0.3013
H14 H -0.2117 1.0811 0.3424
C17 C -0.2233(4) 1.0273(3) 0.27952(11)
H15 H -0.1722 1.0351 0.2499
H16 H -0.3401 1.0300 0.2761
H17 H -0.1933 0.9748 0.2916
C18 C 0.3658(3) 1.18679(13) 0.32912(8)
C19 C 0.3623(4) 1.31693(16) 0.29168(9)
H18 H 0.2947 1.3649 0.2963
H19 H 0.4635 1.3244 0.3088
C20 C 0.3981(4) 1.3071(2) 0.24258(10)
H20 H 0.4699 1.2614 0.2383
H21 H 0.4500 1.3556 0.2311
H22 H 0.2980 1.2980 0.2259
O1 O 0.63527(19) 1.02826(8) 0.42901(5)
O2 O 0.0111(2) 1.17398(10) 0.37271(7)
O3 O 0.00937(18) 1.08978(10) 0.31226(5)
O4 O 0.5109(2) 1.18958(11) 0.33296(8)
O5 O 0.2766(2) 1.24465(9) 0.30883(5)
S1 S 0.06061(7) 0.96745(4) 0.39524(2)
loop_
_geom_bond_atom_site_label_1
_geom_bond_atom_site_label_2
_geom_bond_site_symmetry_1
_geom_bond_site_symmetry_2
C1 H1 1_555 1_555
C2 C1 1_555 1_555
H2 C2 1_555 1_555
C3 C4 1_555 1_555
C4 C1 1_555 1_555
C5 C4 1_555 1_555
H3 C5 1_555 1_555
H4 C5 1_555 1_555
C6 C5 1_555 1_555
C7 C6 1_555 1_555
H5 C7 1_555 1_555
C8 C7 1_555 1_555
H6 C8 1_555 1_555
C9 C8 1_555 1_555
H7 C9 1_555 1_555
C10 C9 1_555 1_555
H8 C10 1_555 1_555
C11 C6 1_555 1_555
C12 H9 1_555 1_555
H10 C12 1_555 1_555
H11 C12 1_555 1_555
C13 C3 1_555 1_555
H12 C13 1_555 1_555
C14 C13 1_555 1_555
C15 C14 1_555 1_555
C16 H13 1_555 1_555
H14 C16 1_555 1_555
C17 C16 1_555 1_555
H15 C17 1_555 1_555
H16 C17 1_555 1_555
H17 C17 1_555 1_555
C18 C14 1_555 1_555
C19 H18 1_555 1_555
H19 C19 1_555 1_555
C20 C19 1_555 1_555
H20 C20 1_555 1_555
H21 C20 1_555 1_555
H22 C20 1_555 1_555
O1 C11 1_555 1_555
O2 C15 1_555 1_555
O3 C15 1_555 1_555
O4 C18 1_555 1_555
O5 C18 1_555 1_555
S1 C2 1_555 1_555
C3 S1 1_555 1_555
C10 C11 1_555 1_555
C12 O1 1_555 1_555
C16 O3 1_555 1_555
C19 O5 1_555 1_555

#END
