
#######################################################################
#
#                 Cambridge Crystallographic Data Centre
#                                CCDC 
#
#######################################################################
#
# If this CIF has been generated from an entry in the Cambridge 
# Structural Database, then it will include bibliographic, chemical, 
# crystal, experimental, refinement or atomic coordinate data resulting 
# from the CCDC's data processing and validation procedures.
#
#######################################################################

data_EVEFAN01
_chemical_formula_moiety         'C14 H15 N1 O3'
_chemical_name_systematic        
7-(diethylamino)-2-oxo-2H-chromene-3-carbaldehyde
_symmetry_cell_setting           triclinic
_symmetry_space_group_name_H-M   'P -1'
_symmetry_Int_Tables_number      2
_space_group_name_Hall           '-P 1'
loop_
_symmetry_equiv_pos_site_id
_symmetry_equiv_pos_as_xyz
1 x,y,z
2 -x,-y,-z
_cell_length_a                   7.1269(15)
_cell_length_b                   7.4962(16)
_cell_length_c                   12.610(3)
_cell_angle_alpha                87.778(3)
_cell_angle_beta                 85.722(3)
_cell_angle_gamma                66.519(4)
_cell_volume                     616.147
_exptl_crystal_colour            brown
_exptl_crystal_description       block
_cell_formula_units_Z            2
loop_
_atom_site_label
_atom_site_type_symbol
_atom_site_fract_x
_atom_site_fract_y
_atom_site_fract_z
O1 O 0.76175(19) 0.21405(19) 0.02928(9)
C1 C 0.7728(3) 0.1968(3) 0.13908(14)
C2 C 0.5865(3) 0.2181(3) 0.20127(13)
C3 C 0.4140(3) 0.2428(3) 0.15265(14)
H1 H 0.2965 0.2533 0.1939
C4 C 0.4092(3) 0.2530(3) 0.04103(13)
C5 C 0.5857(3) 0.2392(3) -0.01943(13)
O2 O 0.9372(2) 0.1656(2) 0.17180(10)
C6 C 0.5933(4) 0.2090(3) 0.31718(15)
H2 H 0.7201 0.1774 0.3449
O3 O 0.4481(2) 0.2392(2) 0.37938(11)
C7 C 0.2386(3) 0.2746(3) -0.01537(14)
H3 H 0.1184 0.2816 0.0221
C8 C 0.2448(3) 0.2855(3) -0.12356(14)
H4 H 0.1284 0.3019 -0.1584
C9 C 0.4261(3) 0.2723(3) -0.18405(13)
C10 C 0.5979(3) 0.2488(3) -0.12846(13)
H5 H 0.7193 0.2398 -0.1653
N1 N 0.4317(2) 0.2815(3) -0.29260(11)
C11 C 0.2586(3) 0.2869(3) -0.35192(15)
H6 H 0.1925 0.2106 -0.3137
H7 H 0.3105 0.2282 -0.4210
C12 C 0.1031(3) 0.4911(4) -0.36694(19)
H8 H -0.0062 0.4883 -0.4060
H9 H 0.1675 0.5666 -0.4056
H10 H 0.0489 0.5486 -0.2987
C13 C 0.6089(3) 0.2891(3) -0.35656(15)
H11 H 0.6702 0.3586 -0.3173
H12 H 0.5620 0.3619 -0.4215
C14 C 0.7699(3) 0.0921(3) -0.38516(16)
H13 H 0.8802 0.1071 -0.4277
H14 H 0.7110 0.0226 -0.4246
H15 H 0.8214 0.0208 -0.3214
loop_
_geom_bond_atom_site_label_1
_geom_bond_atom_site_label_2
_geom_bond_site_symmetry_1
_geom_bond_site_symmetry_2
O1 C1 1_555 1_555
C1 C2 1_555 1_555
C2 C3 1_555 1_555
C3 H1 1_555 1_555
C4 C3 1_555 1_555
C5 O1 1_555 1_555
O2 C1 1_555 1_555
C6 C2 1_555 1_555
H2 C6 1_555 1_555
O3 C6 1_555 1_555
C7 C4 1_555 1_555
H3 C7 1_555 1_555
C8 C7 1_555 1_555
H4 C8 1_555 1_555
C9 C8 1_555 1_555
C10 C5 1_555 1_555
H5 C10 1_555 1_555
N1 C9 1_555 1_555
C11 N1 1_555 1_555
H6 C11 1_555 1_555
H7 C11 1_555 1_555
C12 C11 1_555 1_555
H8 C12 1_555 1_555
H9 C12 1_555 1_555
H10 C12 1_555 1_555
C13 N1 1_555 1_555
H11 C13 1_555 1_555
H12 C13 1_555 1_555
C14 C13 1_555 1_555
H13 C14 1_555 1_555
H14 C14 1_555 1_555
H15 C14 1_555 1_555
C4 C5 1_555 1_555
C9 C10 1_555 1_555

#END
