
#######################################################################
#
#                 Cambridge Crystallographic Data Centre
#                                CCDC 
#
#######################################################################
#
# If this CIF has been generated from an entry in the Cambridge 
# Structural Database, then it will include bibliographic, chemical, 
# crystal, experimental, refinement or atomic coordinate data resulting 
# from the CCDC's data processing and validation procedures.
#
#######################################################################

data_EVEHET
_chemical_compound_source        'Nauclea subdita (Rubiaceae)'
_chemical_name_common            'Angustoline monohydrate'
_chemical_formula_moiety         'C20 H17 N3 O2,H2 O1'
_chemical_name_systematic        
'1-(1-Hydroxyethyl)-7,8-dihydroindolo[2,3-a]pyridine[3,4-g]quinolizin-5(13H)-one monohydrate'
_symmetry_cell_setting           monoclinic
_symmetry_space_group_name_H-M   'P 21'
_symmetry_Int_Tables_number      4
_space_group_name_Hall           'P 2yb'
loop_
_symmetry_equiv_pos_site_id
_symmetry_equiv_pos_as_xyz
1 x,y,z
2 -x,1/2+y,-z
_cell_length_a                   8.8350(3)
_cell_length_b                   6.7002(2)
_cell_length_c                   14.7347(4)
_cell_angle_alpha                90
_cell_angle_beta                 103.117(3)
_cell_angle_gamma                90
_cell_volume                     849.481
_exptl_crystal_colour            yellow
_exptl_crystal_description       prism
_cell_formula_units_Z            2
loop_
_atom_site_label
_atom_site_type_symbol
_atom_site_fract_x
_atom_site_fract_y
_atom_site_fract_z
O1 O 0.33730(17) 0.5046(2) 0.78985(11)
O2 O 0.76411(17) 0.6678(2) 0.44802(9)
H1 H 0.677(4) 0.578(5) 0.429(2)
N1 N 0.89459(18) 0.0009(2) 0.78964(11)
H4 H 0.953(3) 0.071(4) 0.7637(15)
N2 N 0.54310(19) 0.2982(2) 0.79266(12)
N3 N 0.4603(2) 0.8811(3) 0.59777(12)
C1 C 0.9248(2) -0.1772(3) 0.83570(12)
C2 C 1.0553(2) -0.3025(3) 0.84619(13)
H5 H 1.1403 -0.2694 0.8195
C3 C 1.0547(2) -0.4757(3) 0.89683(12)
H6 H 1.1405 -0.5644 0.9040
C4 C 0.9304(2) -0.5250(3) 0.93830(12)
H7 H 0.9340 -0.6452 0.9729
C5 C 0.8035(2) -0.3999(3) 0.92892(12)
H8 H 0.7204 -0.4328 0.9574
C6 C 0.7989(2) -0.2238(3) 0.87687(12)
C7 C 0.6920(2) -0.0637(3) 0.85452(13)
C8 C 0.5381(2) -0.0264(3) 0.87749(14)
H9 H 0.5377 -0.0813 0.9398
H10 H 0.4545 -0.0924 0.8311
C9 C 0.5108(2) 0.1974(3) 0.87643(14)
H11 H 0.4015 0.2229 0.8789
H12 H 0.5781 0.2566 0.9330
C10 C 0.6769(2) 0.2496(3) 0.76131(13)
C11 C 0.7537(2) 0.0699(3) 0.80190(12)
C12 C 0.7238(2) 0.3627(3) 0.69551(13)
H13 H 0.8131 0.3245 0.6740
C13 C 0.6401(2) 0.5366(3) 0.65911(12)
C14 C 0.5043(2) 0.5833(3) 0.69001(13)
C15 C 0.4529(2) 0.4620(3) 0.75959(13)
C16 C 0.4187(2) 0.7539(3) 0.65684(13)
H14 H 0.3263 0.7802 0.6775
C17 C 0.5887(2) 0.8336(3) 0.56645(13)
H15 H 0.6179 0.9220 0.5230
C18 C 0.6799(2) 0.6681(3) 0.59251(12)
C19 C 0.8136(2) 0.6270(3) 0.54537(13)
H16 H 0.8421 0.4826 0.5537
C20 C 0.9565(3) 0.7508(4) 0.58426(16)
H17 H 1.0380 0.7178 0.5514
H18 H 0.9938 0.7220 0.6508
H19 H 0.9306 0.8928 0.5758
O3 O 1.0970(2) 0.2216(3) 0.70030(13)
H2 H 1.157(4) 0.316(6) 0.725(2)
H3 H 1.125(4) 0.196(6) 0.652(2)
loop_
_geom_bond_atom_site_label_1
_geom_bond_atom_site_label_2
_geom_bond_site_symmetry_1
_geom_bond_site_symmetry_2
O1 C15 1_555 1_555
O2 H1 1_555 1_555
O3 H2 1_555 1_555
H3 O3 1_555 1_555
N1 H4 1_555 1_555
N2 C9 1_555 1_555
N3 C16 1_555 1_555
C1 N1 1_555 1_555
C2 C1 1_555 1_555
H5 C2 1_555 1_555
C3 C2 1_555 1_555
H6 C3 1_555 1_555
C4 C3 1_555 1_555
H7 C4 1_555 1_555
C5 C4 1_555 1_555
H8 C5 1_555 1_555
C6 C1 1_555 1_555
C7 C6 1_555 1_555
C8 C7 1_555 1_555
H9 C8 1_555 1_555
H10 C8 1_555 1_555
C9 C8 1_555 1_555
H11 C9 1_555 1_555
H12 C9 1_555 1_555
C10 N2 1_555 1_555
C11 N1 1_555 1_555
C12 C10 1_555 1_555
H13 C12 1_555 1_555
C13 C12 1_555 1_555
C14 C13 1_555 1_555
C15 N2 1_555 1_555
C16 C14 1_555 1_555
H14 C16 1_555 1_555
C17 N3 1_555 1_555
H15 C17 1_555 1_555
C18 C13 1_555 1_555
C19 O2 1_555 1_555
H16 C19 1_555 1_555
C20 C19 1_555 1_555
H17 C20 1_555 1_555
H18 C20 1_555 1_555
H19 C20 1_555 1_555
C5 C6 1_555 1_555
C7 C11 1_555 1_555
C10 C11 1_555 1_555
C14 C15 1_555 1_555
C17 C18 1_555 1_555
C18 C19 1_555 1_555

#END
