
#######################################################################
#
#                 Cambridge Crystallographic Data Centre
#                                CCDC 
#
#######################################################################
#
# If this CIF has been generated from an entry in the Cambridge 
# Structural Database, then it will include bibliographic, chemical, 
# crystal, experimental, refinement or atomic coordinate data resulting 
# from the CCDC's data processing and validation procedures.
#
#######################################################################

data_EVEZOV
_chemical_formula_moiety         'C18 H20 O2,C20 H16 N2'
_chemical_name_systematic        
"4,4'-Cyclohexane-1,1-diyldiphenol 1-benzyl-2-phenyl-1H-benzimidazole"
_symmetry_cell_setting           triclinic
_symmetry_space_group_name_H-M   'P -1'
_symmetry_Int_Tables_number      2
_space_group_name_Hall           '-P 1'
loop_
_symmetry_equiv_pos_site_id
_symmetry_equiv_pos_as_xyz
1 x,y,z
2 -x,-y,-z
_cell_length_a                   10.448(3)
_cell_length_b                   10.853(3)
_cell_length_c                   14.462(4)
_cell_angle_alpha                102.518(5)
_cell_angle_beta                 94.156(5)
_cell_angle_gamma                108.605(5)
_cell_volume                     1499.35
_exptl_crystal_colour            colorless
_exptl_crystal_description       block
_cell_formula_units_Z            2
loop_
_atom_site_label
_atom_site_type_symbol
_atom_site_fract_x
_atom_site_fract_y
_atom_site_fract_z
N1 N 0.0175(2) 0.4318(2) 0.19242(13)
N2 N -0.07922(19) 0.33432(19) 0.04038(13)
C19 C -0.0994(2) 0.3712(2) 0.13303(16)
C20 C -0.1767(2) 0.1317(2) -0.09418(17)
C21 C 0.1194(2) 0.4352(2) 0.13605(18)
C22 C 0.0607(3) 0.3762(2) 0.04057(17)
C23 C -0.2442(3) 0.4599(3) 0.23510(17)
H21 H -0.1693 0.5385 0.2583
C24 C -0.1785(3) 0.2693(2) -0.04718(17)
H22 H -0.1588 0.3253 -0.0920
H23 H -0.2692 0.2614 -0.0320
C25 C -0.2322(2) 0.3557(3) 0.16609(17)
C26 C -0.3451(3) 0.2390(3) 0.1330(2)
H24 H -0.3386 0.1673 0.0873
C27 C -0.1608(3) 0.0442(3) -0.04193(19)
H25 H -0.1518 0.0694 0.0246
C28 C 0.1377(3) 0.3717(3) -0.0330(2)
H26 H 0.0974 0.3337 -0.0967
C29 C -0.1905(3) 0.0911(3) -0.19258(19)
H27 H -0.2022 0.1483 -0.2293
C30 C 0.2607(3) 0.4865(3) 0.1614(2)
H28 H 0.3016 0.5230 0.2251
C31 C -0.1697(3) -0.1183(3) -0.1844(3)
H29 H -0.1657 -0.2015 -0.2148
C32 C -0.3654(3) 0.4488(3) 0.2699(2)
H30 H -0.3721 0.5196 0.3165
C33 C -0.1581(3) -0.0805(3) -0.0871(2)
H31 H -0.1483 -0.1390 -0.0510
C34 C -0.1872(3) -0.0328(3) -0.2369(2)
H32 H -0.1970 -0.0589 -0.3034
C35 C 0.3371(3) 0.4812(3) 0.0887(3)
H33 H 0.4319 0.5152 0.1035
C36 C 0.2769(3) 0.4265(3) -0.0069(3)
H34 H 0.3325 0.4271 -0.0543
C37 C -0.4765(3) 0.3332(4) 0.2357(2)
H35 H -0.5586 0.3257 0.2590
C38 C -0.4667(3) 0.2288(3) 0.1675(2)
H36 H -0.5422 0.1508 0.1443
O1 O 0.1024(2) 0.47607(17) 0.37964(12)
H1 H 0.0730 0.4737 0.3249
C1 C 0.2918(2) 1.1141(2) 0.57332(18)
C2 C 0.1443(2) 0.6055(2) 0.43496(17)
C3 C 0.2359(2) 0.8657(2) 0.55696(17)
O2 O 0.3146(2) 1.3869(2) 0.40445(16)
H2 H 0.2436 1.4035 0.3989
C4 C 0.2832(2) 1.0050(3) 0.62764(17)
C5 C 0.1855(3) 1.2431(3) 0.49660(19)
H3 H 0.1089 1.2661 0.4837
C6 C 0.2299(3) 0.7534(3) 0.59002(18)
H4 H 0.2573 0.7651 0.6549
C7 C 0.1943(3) 0.8422(3) 0.45984(18)
H5 H 0.1971 0.9145 0.4344
C8 C 0.1486(3) 0.7141(3) 0.39961(18)
H6 H 0.1205 0.7015 0.3347
C9 C 0.3033(3) 1.2990(3) 0.46111(18)
C10 C 0.4091(3) 1.1736(3) 0.5369(2)
H7 H 0.4861 1.1509 0.5494
C11 C 0.1853(3) 0.6261(3) 0.53100(18)
H8 H 0.1829 0.5535 0.5561
C12 C 0.1813(3) 1.1523(3) 0.55157(19)
H9 H 0.1007 1.1156 0.5748
C13 C 0.1806(3) 1.0029(3) 0.69993(19)
H10 H 0.0931 0.9937 0.6662
H11 H 0.1678 0.9245 0.7250
C14 C 0.4235(3) 1.0307(3) 0.6858(2)
H12 H 0.4185 0.9541 0.7115
H13 H 0.4917 1.0389 0.6433
C15 C 0.4154(3) 1.2649(3) 0.4827(2)
H14 H 0.4964 1.3037 0.4606
C16 C 0.2249(4) 1.1275(3) 0.7835(2)
H15 H 0.2286 1.2054 0.7599
H16 H 0.1584 1.1172 0.8273
C17 C 0.4678(3) 1.1575(3) 0.7681(2)
H17 H 0.5558 1.1692 0.8025
H18 H 0.4779 1.2351 0.7425
C18 C 0.3643(4) 1.1491(4) 0.8364(2)
H19 H 0.3933 1.2316 0.8871
H20 H 0.3586 1.0753 0.8655
loop_
_geom_bond_atom_site_label_1
_geom_bond_atom_site_label_2
_geom_bond_site_symmetry_1
_geom_bond_site_symmetry_2
N1 C19 1_555 1_555
O1 H1 1_555 1_555
C1 C4 1_555 1_555
C2 O1 1_555 1_555
C3 C4 1_555 1_555
O2 H2 1_555 1_555
C4 C13 1_555 1_555
C5 H3 1_555 1_555
C6 C3 1_555 1_555
H4 C6 1_555 1_555
C7 C3 1_555 1_555
H5 C7 1_555 1_555
C8 C2 1_555 1_555
H6 C8 1_555 1_555
C9 O2 1_555 1_555
C10 C1 1_555 1_555
H7 C10 1_555 1_555
C11 C2 1_555 1_555
H8 C11 1_555 1_555
C12 C1 1_555 1_555
H9 C12 1_555 1_555
C13 H10 1_555 1_555
H11 C13 1_555 1_555
C14 C4 1_555 1_555
H12 C14 1_555 1_555
H13 C14 1_555 1_555
C15 C9 1_555 1_555
H14 C15 1_555 1_555
C16 C13 1_555 1_555
H15 C16 1_555 1_555
H16 C16 1_555 1_555
C17 C14 1_555 1_555
H17 C17 1_555 1_555
H18 C17 1_555 1_555
C18 C16 1_555 1_555
H19 C18 1_555 1_555
H20 C18 1_555 1_555
N2 C19 1_555 1_555
C19 C25 1_555 1_555
C20 C24 1_555 1_555
C21 N1 1_555 1_555
C22 N2 1_555 1_555
C23 H21 1_555 1_555
C24 N2 1_555 1_555
H22 C24 1_555 1_555
H23 C24 1_555 1_555
C25 C23 1_555 1_555
C26 C25 1_555 1_555
H24 C26 1_555 1_555
C27 C20 1_555 1_555
H25 C27 1_555 1_555
C28 C22 1_555 1_555
H26 C28 1_555 1_555
C29 C20 1_555 1_555
H27 C29 1_555 1_555
C30 C21 1_555 1_555
H28 C30 1_555 1_555
C31 H29 1_555 1_555
C32 C23 1_555 1_555
H30 C32 1_555 1_555
C33 C27 1_555 1_555
H31 C33 1_555 1_555
C34 C29 1_555 1_555
H32 C34 1_555 1_555
C35 C30 1_555 1_555
H33 C35 1_555 1_555
C36 C28 1_555 1_555
H34 C36 1_555 1_555
C37 C32 1_555 1_555
H35 C37 1_555 1_555
C38 C26 1_555 1_555
H36 C38 1_555 1_555
C5 C9 1_555 1_555
C5 C12 1_555 1_555
C6 C11 1_555 1_555
C7 C8 1_555 1_555
C10 C15 1_555 1_555
C17 C18 1_555 1_555
C21 C22 1_555 1_555
C31 C33 1_555 1_555
C31 C34 1_555 1_555
C35 C36 1_555 1_555
C37 C38 1_555 1_555

#END
