
#######################################################################
#
#                 Cambridge Crystallographic Data Centre
#                                CCDC 
#
#######################################################################
#
# If this CIF has been generated from an entry in the Cambridge 
# Structural Database, then it will include bibliographic, chemical, 
# crystal, experimental, refinement or atomic coordinate data resulting 
# from the CCDC's data processing and validation procedures.
#
#######################################################################

data_EVIGEX
_chemical_formula_moiety         'C77 H59 N7 O4,2(C6 H12)'
_chemical_name_systematic        
'N-((9H-fluoren-9-ylmethoxy)carbonyl)phenylalanyl-N-(4-(10,15,20-triphenylporphyrin-5-yl)phenyl)phenylalaninamide cyclohexane solvate'
_symmetry_cell_setting           monoclinic
_symmetry_space_group_name_H-M   'P 21'
_symmetry_Int_Tables_number      4
_space_group_name_Hall           'P 2yb'
loop_
_symmetry_equiv_pos_site_id
_symmetry_equiv_pos_as_xyz
1 x,y,z
2 -x,1/2+y,-z
_cell_length_a                   16.43(3)
_cell_length_b                   10.012(15)
_cell_length_c                   44.30(9)
_cell_angle_alpha                90
_cell_angle_beta                 95.65(8)
_cell_angle_gamma                90
_cell_volume                     7251.82
_exptl_crystal_colour            purple
_exptl_crystal_description       rod
_cell_formula_units_Z            4
loop_
_atom_site_label
_atom_site_type_symbol
_atom_site_fract_x
_atom_site_fract_y
_atom_site_fract_z
N8 N 1.3413(18) 0.782(4) 0.7470(6)
C78 C 1.395(2) 0.854(4) 0.7677(8)
C79 C 1.460(3) 0.894(7) 0.7451(12)
H60 H 1.5025 0.9570 0.7507
C80 C 1.453(3) 0.830(6) 0.7150(11)
H61 H 1.4860 0.8360 0.6986
C81 C 1.366(2) 0.742(5) 0.7186(8)
C82 C 1.344(2) 0.683(5) 0.6948(6)
N9 N 1.2102(16) 0.600(3) 0.7199(6)
H62 H 1.2161 0.6401 0.7376
C83 C 1.266(2) 0.591(5) 0.6972(8)
C84 C 1.238(3) 0.513(6) 0.6687(10)
H63 H 1.2609 0.5046 0.6499
C85 C 1.168(3) 0.457(5) 0.6790(9)
H64 H 1.1399 0.3830 0.6696
C86 C 1.1426(19) 0.526(4) 0.7061(7)
C87 C 1.0886(18) 0.483(4) 0.7246(7)
N10 N 1.124(2) 0.615(4) 0.7692(7)
C88 C 1.0719(19) 0.526(4) 0.7513(7)
C89 C 1.007(3) 0.525(5) 0.7747(9)
H65 H 0.9554 0.4843 0.7698
C90 C 1.025(3) 0.581(5) 0.8010(10)
H66 H 0.9928 0.5792 0.8177
C91 C 1.109(3) 0.650(5) 0.7994(8)
C92 C 1.1421(19) 0.704(4) 0.8277(6)
N11 N 1.261(2) 0.809(4) 0.8043(5)
H67 H 1.2448 0.7861 0.7855
C93 C 1.2203(17) 0.775(4) 0.8302(8)
C94 C 1.266(2) 0.831(4) 0.8561(5)
H68 H 1.2528 0.8242 0.8765
C95 C 1.3343(19) 0.899(4) 0.8462(7)
H69 H 1.3751 0.9453 0.8588
C96 C 1.3311(19) 0.885(4) 0.8142(7)
C97 C 1.389(2) 0.910(4) 0.7947(8)
C98 C 1.3813(16) 0.663(3) 0.6640(5)
C99 C 1.4357(18) 0.557(3) 0.6624(5)
H70 H 1.4432 0.4945 0.6785
C100 C 1.4792(15) 0.544(3) 0.6372(6)
H71 H 1.5164 0.4717 0.6360
C101 C 1.4683(15) 0.636(3) 0.6136(5)
C102 C 1.4139(17) 0.741(3) 0.6152(5)
H72 H 1.4065 0.8040 0.5991
C103 C 1.3704(15) 0.755(3) 0.6404(6)
H73 H 1.3332 0.8268 0.6415
C104 C 1.0148(18) 0.399(4) 0.7099(9)
C105 C 0.973(2) 0.411(3) 0.6812(9)
H74 H 0.9832 0.4848 0.6687
C106 C 0.917(2) 0.313(4) 0.6706(6)
H75 H 0.8886 0.3212 0.6510
C107 C 0.9024(15) 0.205(3) 0.6889(7)
H76 H 0.8640 0.1382 0.6817
C108 C 0.9439(19) 0.193(3) 0.7176(6)
H77 H 0.9339 0.1190 0.7301
C109 C 1.0001(19) 0.290(4) 0.7282(6)
H78 H 1.0285 0.2826 0.7478
C110 C 1.1103(16) 0.669(4) 0.8594(5)
C111 C 1.1049(19) 0.544(3) 0.8726(8)
H79 H 1.1197 0.4667 0.8621
C112 C 1.078(2) 0.533(4) 0.9013(8)
H80 H 1.0742 0.4472 0.9103
C113 C 1.0562(18) 0.646(5) 0.9167(5)
H81 H 1.0378 0.6383 0.9363
C114 C 1.0616(18) 0.771(4) 0.9034(7)
H82 H 1.0468 0.8490 0.9140
C115 C 1.0886(18) 0.783(3) 0.8748(7)
H83 H 1.0923 0.8685 0.8657
C116 C 1.4601(15) 1.003(3) 0.8067(6)
C117 C 1.4391(16) 1.126(4) 0.8183(7)
H84 H 1.3835 1.1539 0.8165
C118 C 1.499(2) 1.208(3) 0.8326(7)
H85 H 1.4850 1.2921 0.8406
C119 C 1.581(2) 1.167(3) 0.8352(6)
H86 H 1.6218 1.2236 0.8450
C120 C 1.6016(13) 1.045(4) 0.8236(6)
H87 H 1.6572 1.0168 0.8254
C121 C 1.5414(18) 0.963(3) 0.8093(6)
H88 H 1.5558 0.8786 0.8014
N12 N 1.5047(19) 0.617(3) 0.5876(7)
H89 H 1.5137 0.5335 0.5828
C122 C 1.5291(19) 0.710(6) 0.5679(8)
O5 O 1.516(3) 0.828(5) 0.5702(10)
C123 C 1.575(3) 0.669(8) 0.5400(10)
H90 H 1.5762 0.5689 0.5401
C124 C 1.668(3) 0.715(7) 0.5415(10)
H91 H 1.6955 0.6773 0.5244
H92 H 1.6732 0.8131 0.5415
C125 C 1.703(3) 0.654(7) 0.5723(11)
C126 C 1.741(3) 0.530(7) 0.5704(10)
H93 H 1.7475 0.4924 0.5511
C127 C 1.768(3) 0.461(5) 0.5967(16)
H94 H 1.7938 0.3765 0.5953
C128 C 1.758(3) 0.516(6) 0.6249(11)
H95 H 1.7770 0.4688 0.6429
C129 C 1.721(3) 0.640(7) 0.6268(10)
H96 H 1.7138 0.6770 0.6461
C130 C 1.693(3) 0.708(5) 0.6006(16)
H97 H 1.6675 0.7930 0.6019
N13 N 1.529(2) 0.707(5) 0.5115(9)
H98 H 1.5317 0.7904 0.5054
C131 C 1.482(3) 0.619(6) 0.4937(9)
O6 O 1.476(2) 0.501(5) 0.4992(9)
C132 C 1.437(2) 0.692(6) 0.4658(9)
H99 H 1.4525 0.7889 0.4664
C133 C 1.342(2) 0.678(6) 0.4610(10)
H100 H 1.3272 0.5819 0.4607
H101 H 1.3215 0.7163 0.4411
C134 C 1.297(6) 0.750(7) 0.4865(14)
C135 C 1.335(3) 0.834(8) 0.5087(18)
H102 H 1.3924 0.8475 0.5100
C136 C 1.289(5) 0.897(6) 0.5290(12)
H103 H 1.3142 0.9546 0.5441
C137 C 1.204(5) 0.877(8) 0.5271(15)
H104 H 1.1727 0.9203 0.5410
C138 C 1.167(3) 0.793(9) 0.505(2)
H105 H 1.1095 0.7788 0.5037
C139 C 1.213(6) 0.729(7) 0.4847(14)
H106 H 1.1878 0.6717 0.4695
N14 N 1.460(3) 0.633(5) 0.4375(10)
H107 H 1.4601 0.5450 0.4358
C140 C 1.480(2) 0.709(7) 0.4136(11)
O7 O 1.472(2) 0.829(5) 0.4123(9)
O8 O 1.510(2) 0.631(5) 0.3914(9)
C141 C 1.514(3) 0.702(5) 0.3629(9)
H108 H 1.5600 0.7668 0.3647
H109 H 1.4627 0.7502 0.3571
C142 C 1.529(2) 0.592(4) 0.3383(8)
H110 H 1.5649 0.5140 0.3446
C143 C 1.4400(18) 0.565(5) 0.3253(9)
C144 C 1.382(3) 0.493(4) 0.3393(6)
H111 H 1.3933 0.4635 0.3596
C145 C 1.306(2) 0.465(4) 0.3235(8)
H112 H 1.2663 0.4162 0.3331
C146 C 1.2891(18) 0.509(4) 0.2938(8)
H113 H 1.2376 0.4893 0.2830
C147 C 1.347(2) 0.580(4) 0.2798(6)
H114 H 1.3358 0.6098 0.2595
C148 C 1.423(2) 0.608(4) 0.2956(9)
C149 C 1.4909(17) 0.686(4) 0.2853(8)
C150 C 1.5121(19) 0.748(4) 0.2591(6)
H115 H 1.4728 0.7559 0.2419
C151 C 1.591(2) 0.797(4) 0.2579(7)
H116 H 1.6052 0.8390 0.2399
C152 C 1.6483(17) 0.785(5) 0.2829(10)
H117 H 1.7021 0.8184 0.2821
C153 C 1.627(2) 0.723(4) 0.3091(7)
H118 H 1.6665 0.7147 0.3262
C154 C 1.548(2) 0.674(4) 0.3103(7)
N1 N 0.8779(18) 0.850(4) 0.7900(7)
C1 C 0.823(2) 0.773(4) 0.7711(8)
C2 C 0.754(2) 0.743(5) 0.7898(9)
H1 H 0.7056 0.6980 0.7827
C3 C 0.771(3) 0.790(6) 0.8179(11)
H2 H 0.7391 0.7768 0.8342
C4 C 0.854(2) 0.869(5) 0.8193(8)
C5 C 0.887(2) 0.954(5) 0.8437(8)
N2 N 1.003(2) 1.028(4) 0.8187(7)
H3 H 0.9887 0.9894 0.8011
C6 C 0.9617(19) 1.034(4) 0.8452(7)
C7 C 0.983(2) 1.098(4) 0.8672(8)
H4 H 0.9596 1.1028 0.8859
C8 C 1.061(3) 1.172(6) 0.8572(9)
H5 H 1.0916 1.2433 0.8670
C9 C 1.075(2) 1.100(5) 0.8285(9)
C10 C 1.143(2) 1.136(4) 0.8096(9)
N3 N 1.095(2) 1.013(4) 0.7634(7)
C11 C 1.155(3) 1.088(5) 0.7816(10)
C12 C 1.214(2) 1.104(5) 0.7631(9)
H6 H 1.2615 1.1552 0.7696
C13 C 1.206(3) 1.052(7) 0.7370(13)
H7 H 1.2441 1.0550 0.7221
C14 C 1.123(2) 0.983(4) 0.7349(7)
C15 C 1.078(2) 0.935(5) 0.7087(7)
N4 N 0.9601(16) 0.826(3) 0.7339(4)
H8 H 0.9723 0.8502 0.7529
C16 C 1.0061(14) 0.856(3) 0.7093(6)
C17 C 0.9655(18) 0.799(4) 0.6826(5)
H9 H 0.9828 0.8034 0.6628
C18 C 0.8944(17) 0.732(4) 0.6908(6)
H10 H 0.8559 0.6852 0.6774
C19 C 0.8911(15) 0.749(3) 0.7225(6)
C20 C 0.824(2) 0.727(4) 0.7429(8)
C21 C 0.8381(17) 0.960(4) 0.8722(6)
C22 C 0.7915(19) 1.075(3) 0.8743(6)
H11 H 0.7929 1.1439 0.8595
C23 C 0.7429(15) 1.090(3) 0.8980(6)
H12 H 0.7110 1.1686 0.8995
C24 C 0.7408(15) 0.990(3) 0.9196(5)
C25 C 0.787(2) 0.875(3) 0.9175(6)
H13 H 0.7859 0.8064 0.9323
C26 C 0.8360(17) 0.860(3) 0.8938(8)
H14 H 0.8678 0.7816 0.8923
C27 C 1.2100(19) 1.232(4) 0.8240(9)
C28 C 1.251(2) 1.211(4) 0.8526(8)
H15 H 1.2409 1.1322 0.8635
C29 C 1.306(2) 1.305(5) 0.8651(7)
H16 H 1.3342 1.2910 0.8847
C30 C 1.321(2) 1.421(4) 0.8491(10)
H17 H 1.3588 1.4854 0.8577
C31 C 1.280(3) 1.442(4) 0.8205(10)
H18 H 1.2901 1.5210 0.8096
C32 C 1.225(2) 1.348(5) 0.8080(6)
H19 H 1.1967 1.3622 0.7884
C33 C 1.1139(15) 0.943(4) 0.6776(5)
C34 C 1.1231(19) 1.070(3) 0.6660(8)
H20 H 1.1097 1.1465 0.6773
C35 C 1.152(2) 1.087(4) 0.6377(9)
H21 H 1.1584 1.1740 0.6298
C36 C 1.172(2) 0.976(5) 0.6211(6)
H22 H 1.1915 0.9869 0.6018
C37 C 1.162(2) 0.848(4) 0.6327(8)
H23 H 1.1759 0.7722 0.6214
C38 C 1.134(2) 0.832(3) 0.6609(8)
H24 H 1.1273 0.7447 0.6689
C39 C 0.757(2) 0.633(4) 0.7270(7)
C40 C 0.675(3) 0.670(3) 0.7238(8)
H25 H 0.6598 0.7571 0.7296
C41 C 0.6164(17) 0.580(5) 0.7120(7)
H26 H 0.5603 0.6052 0.7097
C42 C 0.639(2) 0.453(4) 0.7034(7)
H27 H 0.5988 0.3912 0.6953
C43 C 0.721(3) 0.416(3) 0.7067(7)
H28 H 0.7368 0.3291 0.7008
C44 C 0.7803(16) 0.506(5) 0.7185(7)
H29 H 0.8363 0.4810 0.7207
N5 N 0.693(2) 1.026(4) 0.9473(8)
H30 H 0.6839 1.1114 0.9504
C45 C 0.664(2) 0.937(6) 0.9671(9)
O1 O 0.663(3) 0.817(5) 0.9627(10)
C46 C 0.634(3) 1.003(6) 0.9961(9)
H31 H 0.6263 1.1000 0.9909
C47 C 0.710(3) 0.998(8) 1.0207(13)
H32 H 0.6927 1.0360 1.0396
H33 H 0.7220 0.9020 1.0249
C48 C 0.794(5) 1.065(15) 1.016(2)
C49 C 0.799(6) 1.201(16) 1.0218(18)
H34 H 0.7619 1.2419 1.0340
C50 C 0.860(8) 1.277(9) 1.010(2)
H35 H 0.8635 1.3700 1.0144
C51 C 0.915(5) 1.217(14) 0.992(2)
H36 H 0.9559 1.2691 0.9844
C52 C 0.909(6) 1.081(14) 0.9863(19)
H37 H 0.9466 1.0401 0.9741
C53 C 0.849(8) 1.005(9) 0.998(3)
H38 H 0.8449 0.9119 0.9937
N6 N 0.551(3) 0.952(5) 0.9989(10)
H39 H 0.5403 0.8663 0.9964
C54 C 0.490(3) 1.039(7) 1.0057(8)
O2 O 0.505(2) 1.156(5) 1.0119(9)
C55 C 0.399(3) 0.990(7) 1.0056(11)
H40 H 0.3980 0.8902 1.0046
C56 C 0.350(4) 1.047(10) 0.9757(11)
H41 H 0.2953 1.0053 0.9726
H42 H 0.3426 1.1451 0.9777
C57 C 0.400(2) 1.016(6) 0.9480(7)
C58 C 0.407(2) 0.891(5) 0.9352(10)
H43 H 0.3790 0.8165 0.9429
C59 C 0.453(3) 0.873(4) 0.9110(10)
H44 H 0.4579 0.7870 0.9023
C60 C 0.494(2) 0.981(6) 0.8996(7)
H45 H 0.5257 0.9692 0.8831
C61 C 0.487(2) 1.107(5) 0.9125(10)
H46 H 0.5147 1.1810 0.9047
C62 C 0.440(3) 1.125(4) 0.9366(10)
H47 H 0.4358 1.2106 0.9454
N7 N 0.383(2) 1.032(4) 1.0363(8)
H48 H 0.3939 1.1145 1.0419
C63 C 0.351(2) 0.949(6) 1.0564(9)
O3 O 0.3530(18) 0.830(4) 1.0568(6)
O4 O 0.3193(18) 1.021(4) 1.0787(7)
C64 C 0.288(3) 0.941(4) 1.1027(7)
H49 H 0.3263 0.8675 1.1088
H50 H 0.2345 0.9005 1.0951
C65 C 0.2766(16) 1.032(4) 1.1306(6)
H51 H 0.2484 1.1175 1.1240
C66 C 0.236(2) 0.968(4) 1.1572(6)
C67 C 0.1581(18) 0.914(4) 1.1553(6)
H52 H 0.1220 0.9258 1.1374
C68 C 0.1326(14) 0.842(3) 1.1795(7)
H53 H 0.0791 0.8052 1.1782
C69 C 0.1854(19) 0.825(3) 1.2057(6)
H54 H 0.1680 0.7757 1.2223
C70 C 0.2636(17) 0.879(4) 1.2077(6)
H55 H 0.2997 0.8668 1.2256
C71 C 0.2891(15) 0.950(3) 1.1834(8)
C72 C 0.3706(18) 1.009(4) 1.1770(7)
C73 C 0.443(2) 1.030(4) 1.1954(6)
H56 H 0.4493 0.9945 1.2154
C74 C 0.5058(17) 1.103(4) 1.1847(7)
H57 H 0.5552 1.1179 1.1973
C75 C 0.4965(17) 1.155(4) 1.1554(8)
H58 H 0.5395 1.2055 1.1481
C76 C 0.424(2) 1.134(4) 1.1370(5)
H59 H 0.4178 1.1697 1.1170
C77 C 0.3613(15) 1.061(4) 1.1478(7)
loop_
_geom_bond_atom_site_label_1
_geom_bond_atom_site_label_2
_geom_bond_site_symmetry_1
_geom_bond_site_symmetry_2
N1 C1 1_555 1_555
C1 C2 1_555 1_555
C2 H1 1_555 1_555
C3 C2 1_555 1_555
H2 C3 1_555 1_555
C4 N1 1_555 1_555
C5 C4 1_555 1_555
N2 H3 1_555 1_555
C6 C5 1_555 1_555
C7 C6 1_555 1_555
H4 C7 1_555 1_555
C8 C7 1_555 1_555
H5 C8 1_555 1_555
C9 N2 1_555 1_555
C10 C9 1_555 1_555
N3 C11 1_555 1_555
C11 C10 1_555 1_555
C12 C11 1_555 1_555
H6 C12 1_555 1_555
C13 C12 1_555 1_555
H7 C13 1_555 1_555
C14 N3 1_555 1_555
C15 C14 1_555 1_555
N4 H8 1_555 1_555
C16 C15 1_555 1_555
C17 C16 1_555 1_555
H9 C17 1_555 1_555
C18 C17 1_555 1_555
H10 C18 1_555 1_555
C19 N4 1_555 1_555
C20 C1 1_555 1_555
C21 C5 1_555 1_555
C22 C21 1_555 1_555
H11 C22 1_555 1_555
C23 C22 1_555 1_555
H12 C23 1_555 1_555
C24 C23 1_555 1_555
C25 C24 1_555 1_555
H13 C25 1_555 1_555
C26 C21 1_555 1_555
H14 C26 1_555 1_555
C27 C10 1_555 1_555
C28 C27 1_555 1_555
H15 C28 1_555 1_555
C29 C28 1_555 1_555
H16 C29 1_555 1_555
C30 C29 1_555 1_555
H17 C30 1_555 1_555
C31 C30 1_555 1_555
H18 C31 1_555 1_555
C32 C27 1_555 1_555
H19 C32 1_555 1_555
C33 C15 1_555 1_555
C34 C33 1_555 1_555
H20 C34 1_555 1_555
C35 C34 1_555 1_555
H21 C35 1_555 1_555
C36 C35 1_555 1_555
H22 C36 1_555 1_555
C37 C36 1_555 1_555
H23 C37 1_555 1_555
C38 C33 1_555 1_555
H24 C38 1_555 1_555
C39 C20 1_555 1_555
C40 C39 1_555 1_555
H25 C40 1_555 1_555
C41 C40 1_555 1_555
H26 C41 1_555 1_555
C42 C41 1_555 1_555
H27 C42 1_555 1_555
C43 C42 1_555 1_555
H28 C43 1_555 1_555
C44 C39 1_555 1_555
H29 C44 1_555 1_555
N5 C24 1_555 1_555
H30 N5 1_555 1_555
C45 N5 1_555 1_555
O1 C45 1_555 1_555
C46 C45 1_555 1_555
H31 C46 1_555 1_555
C47 C46 1_555 1_555
H32 C47 1_555 1_555
H33 C47 1_555 1_555
C48 C47 1_555 1_555
C49 C48 1_555 1_555
H34 C49 1_555 1_555
C50 C49 1_555 1_555
H35 C50 1_555 1_555
C51 C50 1_555 1_555
H36 C51 1_555 1_555
C52 C51 1_555 1_555
H37 C52 1_555 1_555
C53 C48 1_555 1_555
H38 C53 1_555 1_555
N6 C46 1_555 1_555
H39 N6 1_555 1_555
C54 N6 1_555 1_555
O2 C54 1_555 1_555
C55 C54 1_555 1_555
H40 C55 1_555 1_555
C56 C55 1_555 1_555
H41 C56 1_555 1_555
H42 C56 1_555 1_555
C57 C56 1_555 1_555
C58 C57 1_555 1_555
H43 C58 1_555 1_555
C59 C58 1_555 1_555
H44 C59 1_555 1_555
C60 C59 1_555 1_555
H45 C60 1_555 1_555
C61 C60 1_555 1_555
H46 C61 1_555 1_555
C62 C57 1_555 1_555
H47 C62 1_555 1_555
N7 C55 1_555 1_555
H48 N7 1_555 1_555
C63 N7 1_555 1_555
O3 C63 1_555 1_555
O4 C63 1_555 1_555
C64 O4 1_555 1_555
H49 C64 1_555 1_555
H50 C64 1_555 1_555
C65 C64 1_555 1_555
H51 C65 1_555 1_555
C66 C65 1_555 1_555
C67 C66 1_555 1_555
H52 C67 1_555 1_555
C68 C67 1_555 1_555
H53 C68 1_555 1_555
C69 C68 1_555 1_555
H54 C69 1_555 1_555
C70 C69 1_555 1_555
H55 C70 1_555 1_555
C71 C66 1_555 1_555
C72 C71 1_555 1_555
C73 C72 1_555 1_555
H56 C73 1_555 1_555
C74 C73 1_555 1_555
H57 C74 1_555 1_555
C75 C74 1_555 1_555
H58 C75 1_555 1_555
C76 C75 1_555 1_555
H59 C76 1_555 1_555
C77 C65 1_555 1_555
N8 C78 1_555 1_555
C78 C79 1_555 1_555
C79 H60 1_555 1_555
C80 C79 1_555 1_555
H61 C80 1_555 1_555
C81 N8 1_555 1_555
C82 C81 1_555 1_555
N9 H62 1_555 1_555
C83 C82 1_555 1_555
C84 C83 1_555 1_555
H63 C84 1_555 1_555
C85 C84 1_555 1_555
H64 C85 1_555 1_555
C86 N9 1_555 1_555
C87 C86 1_555 1_555
N10 C88 1_555 1_555
C88 C87 1_555 1_555
C89 C88 1_555 1_555
H65 C89 1_555 1_555
C90 C89 1_555 1_555
H66 C90 1_555 1_555
C91 N10 1_555 1_555
C92 C91 1_555 1_555
N11 H67 1_555 1_555
C93 C92 1_555 1_555
C94 C93 1_555 1_555
H68 C94 1_555 1_555
C95 C94 1_555 1_555
H69 C95 1_555 1_555
C96 N11 1_555 1_555
C97 C78 1_555 1_555
C98 C82 1_555 1_555
C99 C98 1_555 1_555
H70 C99 1_555 1_555
C100 C99 1_555 1_555
H71 C100 1_555 1_555
C101 C100 1_555 1_555
C102 C101 1_555 1_555
H72 C102 1_555 1_555
C103 C98 1_555 1_555
H73 C103 1_555 1_555
C104 C87 1_555 1_555
C105 C104 1_555 1_555
H74 C105 1_555 1_555
C106 C105 1_555 1_555
H75 C106 1_555 1_555
C107 C106 1_555 1_555
H76 C107 1_555 1_555
C108 C107 1_555 1_555
H77 C108 1_555 1_555
C109 C104 1_555 1_555
H78 C109 1_555 1_555
C110 C92 1_555 1_555
C111 C110 1_555 1_555
H79 C111 1_555 1_555
C112 C111 1_555 1_555
H80 C112 1_555 1_555
C113 C112 1_555 1_555
H81 C113 1_555 1_555
C114 C113 1_555 1_555
H82 C114 1_555 1_555
C115 C110 1_555 1_555
H83 C115 1_555 1_555
C116 C97 1_555 1_555
C117 C116 1_555 1_555
H84 C117 1_555 1_555
C118 C117 1_555 1_555
H85 C118 1_555 1_555
C119 C118 1_555 1_555
H86 C119 1_555 1_555
C120 C119 1_555 1_555
H87 C120 1_555 1_555
C121 C116 1_555 1_555
H88 C121 1_555 1_555
N12 C101 1_555 1_555
H89 N12 1_555 1_555
C122 N12 1_555 1_555
O5 C122 1_555 1_555
C123 C122 1_555 1_555
H90 C123 1_555 1_555
C124 C123 1_555 1_555
H91 C124 1_555 1_555
H92 C124 1_555 1_555
C125 C124 1_555 1_555
C126 C125 1_555 1_555
H93 C126 1_555 1_555
C127 C126 1_555 1_555
H94 C127 1_555 1_555
C128 C127 1_555 1_555
H95 C128 1_555 1_555
C129 C128 1_555 1_555
H96 C129 1_555 1_555
C130 C125 1_555 1_555
H97 C130 1_555 1_555
N13 C123 1_555 1_555
H98 N13 1_555 1_555
C131 N13 1_555 1_555
O6 C131 1_555 1_555
C132 C131 1_555 1_555
H99 C132 1_555 1_555
C133 C132 1_555 1_555
H100 C133 1_555 1_555
H101 C133 1_555 1_555
C134 C133 1_555 1_555
C135 C134 1_555 1_555
H102 C135 1_555 1_555
C136 C135 1_555 1_555
H103 C136 1_555 1_555
C137 C136 1_555 1_555
H104 C137 1_555 1_555
C138 C137 1_555 1_555
H105 C138 1_555 1_555
C139 C134 1_555 1_555
H106 C139 1_555 1_555
N14 C132 1_555 1_555
H107 N14 1_555 1_555
C140 N14 1_555 1_555
O7 C140 1_555 1_555
O8 C140 1_555 1_555
C141 O8 1_555 1_555
H108 C141 1_555 1_555
H109 C141 1_555 1_555
C142 C141 1_555 1_555
H110 C142 1_555 1_555
C143 C142 1_555 1_555
C144 C143 1_555 1_555
H111 C144 1_555 1_555
C145 C144 1_555 1_555
H112 C145 1_555 1_555
C146 C145 1_555 1_555
H113 C146 1_555 1_555
C147 C146 1_555 1_555
H114 C147 1_555 1_555
C148 C143 1_555 1_555
C149 C148 1_555 1_555
C150 C149 1_555 1_555
H115 C150 1_555 1_555
C151 C150 1_555 1_555
H116 C151 1_555 1_555
C152 C151 1_555 1_555
H117 C152 1_555 1_555
C153 C152 1_555 1_555
H118 C153 1_555 1_555
C154 C142 1_555 1_555
C3 C4 1_555 1_555
N2 C6 1_555 1_555
C8 C9 1_555 1_555
C13 C14 1_555 1_555
N4 C16 1_555 1_555
C18 C19 1_555 1_555
C19 C20 1_555 1_555
C25 C26 1_555 1_555
C31 C32 1_555 1_555
C37 C38 1_555 1_555
C43 C44 1_555 1_555
C52 C53 1_555 1_555
C61 C62 1_555 1_555
C70 C71 1_555 1_555
C72 C77 1_555 1_555
C76 C77 1_555 1_555
C80 C81 1_555 1_555
N9 C83 1_555 1_555
C85 C86 1_555 1_555
C90 C91 1_555 1_555
N11 C93 1_555 1_555
C95 C96 1_555 1_555
C96 C97 1_555 1_555
C102 C103 1_555 1_555
C108 C109 1_555 1_555
C114 C115 1_555 1_555
C120 C121 1_555 1_555
C129 C130 1_555 1_555
C138 C139 1_555 1_555
C147 C148 1_555 1_555
C149 C154 1_555 1_555
C153 C154 1_555 1_555

#END
