
#######################################################################
#
#                 Cambridge Crystallographic Data Centre
#                                CCDC 
#
#######################################################################
#
# If this CIF has been generated from an entry in the Cambridge 
# Structural Database, then it will include bibliographic, chemical, 
# crystal, experimental, refinement or atomic coordinate data resulting 
# from the CCDC's data processing and validation procedures.
#
#######################################################################

data_EVILIF
_chemical_name_common            
'Methyl N-acetyl-2-(4-hydroxy-2-methyl-1,3-dioxo-1,2,3,4-tetrahydroisoquinolin-4-yl)leucinate'
_chemical_formula_moiety         'C19 H24 N2 O6'
_chemical_name_systematic        
'Methyl 2-acetamido-2-(4-hydroxy-2-methyl-1,3-dioxo-1,2,3,4-tetrahydroisoquinolin-4-yl)-4-methylpentanoate'
_symmetry_cell_setting           monoclinic
_symmetry_space_group_name_H-M   'C c'
_symmetry_Int_Tables_number      9
_space_group_name_Hall           'C -2yc'
loop_
_symmetry_equiv_pos_site_id
_symmetry_equiv_pos_as_xyz
1 x,y,z
2 x,-y,1/2+z
3 1/2+x,1/2+y,z
4 1/2+x,1/2-y,1/2+z
_cell_length_a                   17.8256(15)
_cell_length_b                   8.7584(6)
_cell_length_c                   11.9182(8)
_cell_angle_alpha                90
_cell_angle_beta                 100.404(5)
_cell_angle_gamma                90
_cell_volume                     1830.12
_exptl_crystal_colour            colorless
_exptl_crystal_description       needle
_cell_formula_units_Z            4
loop_
_atom_site_label
_atom_site_type_symbol
_atom_site_fract_x
_atom_site_fract_y
_atom_site_fract_z
O1 O 0.81985(6) 0.74615(13) 1.04040(10)
O2 O 1.05834(6) 0.65801(14) 0.97375(10)
O3 O 0.76692(6) 0.48621(12) 0.94001(10)
O4 O 0.91523(6) 0.77211(12) 0.76247(9)
O5 O 0.89019(6) 0.56633(12) 0.65074(9)
O6 O 0.64674(6) 0.52211(12) 0.77471(10)
N1 N 0.93918(7) 0.70763(15) 1.00450(11)
N2 N 0.75643(7) 0.51865(14) 0.70247(12)
C1 C 0.86194(9) 0.67556(17) 0.99008(14)
C2 C 0.99257(9) 0.61559(19) 0.96548(14)
C3 C 0.96586(9) 0.46387(18) 0.91865(14)
C4 C 1.02036(9) 0.3555(2) 0.90385(14)
H1 H 1.0719 0.3803 0.9194
C5 C 0.99735(10) 0.2104(2) 0.86574(15)
H2 H 1.0334 0.1376 0.8550
C6 C 0.92023(10) 0.17437(19) 0.84364(15)
H3 H 0.9049 0.0765 0.8192
C7 C 0.86576(9) 0.28210(18) 0.85750(14)
H4 H 0.8143 0.2565 0.8424
C8 C 0.88811(8) 0.42821(18) 0.89389(13)
C9 C 0.82982(8) 0.55120(17) 0.90207(14)
C10 C 0.80278(8) 0.62935(17) 0.77805(14)
C11 C 0.76008(9) 0.78137(17) 0.78789(13)
H5 H 0.7260 0.7664 0.8419
H6 H 0.7974 0.8574 0.8201
C12 C 0.71318(9) 0.84730(17) 0.67768(15)
H7 H 0.6734 0.7732 0.6477
C13 C 0.75969(10) 0.8792(2) 0.58470(15)
H8 H 0.7803 0.7852 0.5620
H9 H 0.8006 0.9479 0.6135
H10 H 0.7274 0.9246 0.5201
C14 C 0.67409(10) 0.9933(2) 0.70714(17)
H11 H 0.6414 1.0315 0.6401
H12 H 0.7120 1.0686 0.7352
H13 H 0.6443 0.9716 0.7647
C15 C 0.87344(8) 0.65099(17) 0.72155(14)
C16 C 0.98383(9) 0.79217(19) 0.71419(15)
H14 H 1.0110 0.8807 0.7472
H15 H 0.9701 0.8053 0.6331
H16 H 1.0158 0.7037 0.7304
C17 C 0.68252(8) 0.48575(17) 0.69911(14)
C18 C 0.64504(9) 0.40140(19) 0.59393(15)
H17 H 0.6056 0.3365 0.6124
H18 H 0.6824 0.3404 0.5657
H19 H 0.6232 0.4734 0.5365
C19 C 0.96743(10) 0.84909(19) 1.06333(17)
H20 H 0.9273 0.8958 1.0952
H21 H 0.9839 0.9179 1.0100
H22 H 1.0096 0.8261 1.1233
H23 H 0.7798(11) 0.479(2) 0.6459(18)
H24 H 0.7237(13) 0.510(2) 0.8986(18)
loop_
_geom_bond_atom_site_label_1
_geom_bond_atom_site_label_2
_geom_bond_site_symmetry_1
_geom_bond_site_symmetry_2
O1 C1 1_555 1_555
O2 C2 1_555 1_555
O3 C9 1_555 1_555
O4 C15 1_555 1_555
O5 C15 1_555 1_555
O6 C17 1_555 1_555
N1 C1 1_555 1_555
N2 C10 1_555 1_555
C1 C9 1_555 1_555
C2 N1 1_555 1_555
C3 C2 1_555 1_555
C4 C3 1_555 1_555
H1 C4 1_555 1_555
C5 C4 1_555 1_555
H2 C5 1_555 1_555
C6 C5 1_555 1_555
H3 C6 1_555 1_555
C7 C6 1_555 1_555
H4 C7 1_555 1_555
C8 C3 1_555 1_555
C9 C8 1_555 1_555
C10 C9 1_555 1_555
C11 C10 1_555 1_555
H5 C11 1_555 1_555
H6 C11 1_555 1_555
C12 C11 1_555 1_555
H7 C12 1_555 1_555
C13 C12 1_555 1_555
H8 C13 1_555 1_555
H9 C13 1_555 1_555
H10 C13 1_555 1_555
C14 C12 1_555 1_555
H11 C14 1_555 1_555
H12 C14 1_555 1_555
H13 C14 1_555 1_555
C15 C10 1_555 1_555
C16 O4 1_555 1_555
H14 C16 1_555 1_555
H15 C16 1_555 1_555
H16 C16 1_555 1_555
C17 N2 1_555 1_555
C18 C17 1_555 1_555
H17 C18 1_555 1_555
H18 C18 1_555 1_555
H19 C18 1_555 1_555
C19 N1 1_555 1_555
H20 C19 1_555 1_555
H21 C19 1_555 1_555
H22 C19 1_555 1_555
H23 N2 1_555 1_555
H24 O3 1_555 1_555
C7 C8 1_555 1_555

#END
