
#######################################################################
#
#                 Cambridge Crystallographic Data Centre
#                                CCDC 
#
#######################################################################
#
# If this CIF has been generated from an entry in the Cambridge 
# Structural Database, then it will include bibliographic, chemical, 
# crystal, experimental, refinement or atomic coordinate data resulting 
# from the CCDC's data processing and validation procedures.
#
#######################################################################

data_EVIPOO
_chemical_formula_moiety         'C11 H10 N2 O2'
_chemical_name_systematic        1-Benzyluracil
_symmetry_cell_setting           monoclinic
_symmetry_space_group_name_H-M   'P 21'
_symmetry_Int_Tables_number      4
_space_group_name_Hall           'P 2yb'
loop_
_symmetry_equiv_pos_site_id
_symmetry_equiv_pos_as_xyz
1 x,y,z
2 -x,1/2+y,-z
_cell_length_a                   6.5304(4)
_cell_length_b                   6.9483(3)
_cell_length_c                   10.9214(6)
_cell_angle_alpha                90
_cell_angle_beta                 101.934(2)
_cell_angle_gamma                90
_cell_volume                     484.85
_exptl_crystal_colour            colorless
_exptl_crystal_description       block
_cell_formula_units_Z            2
_exptl_crystal_recrystallization_method dichloromethane
loop_
_atom_site_label
_atom_site_type_symbol
_atom_site_fract_x
_atom_site_fract_y
_atom_site_fract_z
O1 O 0.4747(5) 1.0781(5) 0.8282(3)
O2 O 0.9903(5) 0.6723(5) 1.0063(3)
N1 N 0.4034(5) 0.7559(6) 0.8161(3)
N2 N 0.7301(6) 0.8671(6) 0.9162(4)
C1 C -0.0299(6) 0.7622(7) 0.5309(4)
H1 H -0.1453 0.7556 0.5684
C2 C -0.0592(8) 0.7551(8) 0.4033(5)
H2 H -0.1938 0.7434 0.3551
C3 C 0.1079(9) 0.7650(9) 0.3459(4)
H3 H 0.0878 0.7610 0.2591
C4 C 0.3051(9) 0.7811(12) 0.4182(5)
H4 H 0.4199 0.7871 0.3802
C5 C 0.3348(7) 0.7884(10) 0.5465(4)
H5 H 0.4698 0.7999 0.5942
C6 C 0.1686(6) 0.7790(6) 0.6050(4)
C7 C 0.1892(6) 0.7882(8) 0.7447(4)
H6 H 0.1421 0.9135 0.7666
H7 H 0.0976 0.6923 0.7694
C8 C 0.5309(7) 0.9147(7) 0.8510(4)
C9 C 0.8115(7) 0.6871(6) 0.9469(4)
C10 C 0.6700(7) 0.5317(7) 0.9024(4)
H8 H 0.7127 0.4045 0.9169
C11 C 0.4775(7) 0.5722(7) 0.8404(4)
H9 H 0.3880 0.4703 0.8118
H10 H 0.816(7) 0.960(7) 0.934(4)
loop_
_geom_bond_atom_site_label_1
_geom_bond_atom_site_label_2
_geom_bond_site_symmetry_1
_geom_bond_site_symmetry_2
O1 C8 1_555 1_555
O2 C9 1_555 1_555
N1 C7 1_555 1_555
N2 C8 1_555 1_555
C1 H1 1_555 1_555
C2 C1 1_555 1_555
H2 C2 1_555 1_555
C3 C2 1_555 1_555
H3 C3 1_555 1_555
C4 C3 1_555 1_555
H4 C4 1_555 1_555
C5 C4 1_555 1_555
H5 C5 1_555 1_555
C6 C1 1_555 1_555
C7 C6 1_555 1_555
H6 C7 1_555 1_555
H7 C7 1_555 1_555
C8 N1 1_555 1_555
C9 N2 1_555 1_555
C10 C9 1_555 1_555
H8 C10 1_555 1_555
C11 N1 1_555 1_555
H9 C11 1_555 1_555
H10 N2 1_555 1_555
C5 C6 1_555 1_555
C10 C11 1_555 1_555

#END
