
#######################################################################
#
#                 Cambridge Crystallographic Data Centre
#                                CCDC 
#
#######################################################################
#
# If this CIF has been generated from an entry in the Cambridge 
# Structural Database, then it will include bibliographic, chemical, 
# crystal, experimental, refinement or atomic coordinate data resulting 
# from the CCDC's data processing and validation procedures.
#
#######################################################################

data_EVOMOS
_chemical_name_common            
'Methyl N-((3-methyl-5-oxo-1-phenyl-1,5-dihydro-4H-pyrazol-4-ylidene)(2-thienyl)methyl)phenylalaninate'
_chemical_formula_moiety         'C25 H23 N3 O3 S1'
_chemical_name_systematic        
'Methyl 2-([(3-methyl-5-oxo-1-phenyl-4,5-dihydro-1H-pyrazol-4-ylidene)(thiophen-2-yl)methyl]amino)-3-phenylpropionate'
_symmetry_cell_setting           monoclinic
_symmetry_space_group_name_H-M   'P 21'
_symmetry_Int_Tables_number      4
_space_group_name_Hall           'P 2yb'
loop_
_symmetry_equiv_pos_site_id
_symmetry_equiv_pos_as_xyz
1 x,y,z
2 -x,1/2+y,-z
_cell_length_a                   6.649(2)
_cell_length_b                   18.712(6)
_cell_length_c                   9.349(3)
_cell_angle_alpha                90
_cell_angle_beta                 104.903(5)
_cell_angle_gamma                90
_cell_volume                     1124.04
_exptl_crystal_colour            'pale yellow'
_exptl_crystal_description       block
_cell_formula_units_Z            2
loop_
_atom_site_label
_atom_site_type_symbol
_atom_site_fract_x
_atom_site_fract_y
_atom_site_fract_z
O1 O 1.1534(2) 0.63768(7) 0.18356(15)
O2 O 0.5930(2) 0.61573(8) -0.05979(16)
O3 O 0.3142(2) 0.68792(8) -0.10026(16)
N1 N 1.3400(2) 0.65769(9) 0.42905(17)
N2 N 1.3238(2) 0.70218(10) 0.54712(17)
N3 N 0.8186(3) 0.72194(9) 0.11372(18)
H1 H 0.8944 0.6858 0.0974
C1 C 1.5151(3) 0.61245(11) 0.4456(2)
C2 C 1.5855(3) 0.59401(13) 0.3226(2)
H2 H 1.5161 0.6115 0.2273
C3 C 1.7570(3) 0.55012(14) 0.3403(3)
H3 H 1.8053 0.5378 0.2564
C4 C 1.8595(3) 0.52384(13) 0.4775(3)
H4 H 1.9765 0.4933 0.4879
C5 C 1.7900(3) 0.54243(12) 0.5997(3)
H5 H 1.8598 0.5246 0.6946
C6 C 1.6182(3) 0.58712(11) 0.5842(2)
H6 H 1.5719 0.6002 0.6686
C7 C 1.1799(3) 0.66940(11) 0.3045(2)
C8 C 1.0560(3) 0.72515(10) 0.3459(2)
C9 C 1.1586(3) 0.74221(11) 0.4976(2)
C10 C 1.1023(3) 0.79648(13) 0.5971(2)
H7 H 1.2064 0.7961 0.6928
H8 H 0.9652 0.7851 0.6119
H9 H 1.0983 0.8439 0.5521
C11 C 0.8795(3) 0.75220(10) 0.2467(2)
C12 C 0.7620(11) 0.8131(3) 0.2843(9)
C13 C 0.7922(16) 0.8830(4) 0.2580(9)
C14 C 0.6536(12) 0.9317(5) 0.3156(10)
C15 C 0.5342(14) 0.8917(3) 0.3807(9)
S1 S 0.5747(3) 0.80143(13) 0.3760(3)
C16 C 0.6425(3) 0.74125(11) -0.0075(2)
H10 H 0.5549 0.7779 0.0258
C17 C 0.7166(3) 0.76982(11) -0.1407(2)
H11 H 0.8063 0.7335 -0.1703
H12 H 0.5940 0.7775 -0.2254
C18 C 0.8361(3) 0.83898(11) -0.1058(2)
C19 C 1.0459(3) 0.83866(14) -0.0317(2)
H13 H 1.1163 0.7946 -0.0048
C20 C 1.1537(4) 0.90311(16) 0.0032(3)
H14 H 1.2974 0.9027 0.0535
C21 C 1.0520(5) 0.96732(15) -0.0351(3)
H15 H 1.1249 1.0111 -0.0100
C22 C 0.8446(5) 0.96765(14) -0.1097(3)
H16 H 0.7747 1.0118 -0.1372
C23 C 0.7374(4) 0.90402(13) -0.1449(2)
H17 H 0.5943 0.9049 -0.1966
C24 C 0.5168(3) 0.67377(11) -0.0565(2)
C25 C 0.1802(3) 0.62806(13) -0.1612(3)
H18 H 0.2104 0.6123 -0.2534
H19 H 0.0343 0.6429 -0.1814
H20 H 0.2055 0.5886 -0.0899
H21 H 0.894(5) 0.907(2) 0.219(4)
H22 H 0.639(10) 0.9824(9) 0.298(6)
H23 H 0.416(4) 0.904(3) 0.416(4)
C26? C 0.757(2) 0.8125(5) 0.2850(18)
C27? C 0.617(2) 0.8021(10) 0.3677(17)
C28? C 0.528(3) 0.8741(7) 0.395(2)
C29? C 0.621(2) 0.9239(10) 0.3287(18)
H24? H 0.5751 0.7559 0.3975
H25? H 0.449(10) 0.892(4) 0.460(6)
H26? H 0.627(19) 0.9752(12) 0.327(11)
S2? S 0.7937(7) 0.8971(2) 0.2379(5)
loop_
_geom_bond_atom_site_label_1
_geom_bond_atom_site_label_2
_geom_bond_site_symmetry_1
_geom_bond_site_symmetry_2
O1 C7 1_555 1_555
O2 C24 1_555 1_555
O3 C24 1_555 1_555
N1 N2 1_555 1_555
N2 C9 1_555 1_555
N3 H1 1_555 1_555
C1 N1 1_555 1_555
C2 C1 1_555 1_555
H2 C2 1_555 1_555
C3 C2 1_555 1_555
H3 C3 1_555 1_555
C4 C3 1_555 1_555
H4 C4 1_555 1_555
C5 C4 1_555 1_555
H5 C5 1_555 1_555
C6 C1 1_555 1_555
H6 C6 1_555 1_555
C7 N1 1_555 1_555
C8 C7 1_555 1_555
C9 C8 1_555 1_555
C10 C9 1_555 1_555
H7 C10 1_555 1_555
H8 C10 1_555 1_555
H9 C10 1_555 1_555
C11 N3 1_555 1_555
C12 C11 1_555 1_555
C13 C12 1_555 1_555
C14 C13 1_555 1_555
C15 C14 1_555 1_555
S1 C12 1_555 1_555
C16 N3 1_555 1_555
H10 C16 1_555 1_555
C17 C16 1_555 1_555
H11 C17 1_555 1_555
H12 C17 1_555 1_555
C18 C17 1_555 1_555
C19 C18 1_555 1_555
H13 C19 1_555 1_555
C20 C19 1_555 1_555
H14 C20 1_555 1_555
C21 C20 1_555 1_555
H15 C21 1_555 1_555
C22 C21 1_555 1_555
H16 C22 1_555 1_555
C23 C18 1_555 1_555
H17 C23 1_555 1_555
C24 C16 1_555 1_555
C25 O3 1_555 1_555
H18 C25 1_555 1_555
H19 C25 1_555 1_555
H20 C25 1_555 1_555
H21 C13 1_555 1_555
H22 C14 1_555 1_555
H23 C15 1_555 1_555
C5 C6 1_555 1_555
C8 C11 1_555 1_555
C15 S1 1_555 1_555
C22 C23 1_555 1_555

#END
