
#######################################################################
#
#                 Cambridge Crystallographic Data Centre
#                                CCDC 
#
#######################################################################
#
# If this CIF has been generated from an entry in the Cambridge 
# Structural Database, then it will include bibliographic, chemical, 
# crystal, experimental, refinement or atomic coordinate data resulting 
# from the CCDC's data processing and validation procedures.
#
#######################################################################

data_EVULIQ01
_chemical_name_common            
3,3'-Dimethoxybenzidine(2-hydroxybenzal)di-imine
_chemical_formula_moiety         'C28 H24 N2 O4'
_chemical_name_systematic        
3,3'-Dimethoxy-4,4'-bis((2-hydroxybenzylidene)amino)biphenyl
_symmetry_cell_setting           monoclinic
_symmetry_space_group_name_H-M   'C 2/c'
_symmetry_Int_Tables_number      15
_space_group_name_Hall           '-C 2yn'
loop_
_symmetry_equiv_pos_site_id
_symmetry_equiv_pos_as_xyz
1 x,y,z
2 1/2+x,1/2+y,z
3 -x,y,1/2-z
4 1/2-x,1/2+y,1/2-z
5 -x,-y,-z
6 1/2-x,1/2-y,-z
7 x,-y,1/2+z
8 1/2+x,1/2-y,1/2+z
_cell_length_a                   18.013(4)
_cell_length_b                   11.729(5)
_cell_length_c                   12.420(3)
_cell_angle_alpha                90
_cell_angle_beta                 119.98(3)
_cell_angle_gamma                90
_cell_volume                     2272.93
_exptl_crystal_colour            orange
_cell_formula_units_Z            4
loop_
_atom_site_label
_atom_site_type_symbol
_atom_site_fract_x
_atom_site_fract_y
_atom_site_fract_z
O1 O 0.2751(4) 0.3274(3) 0.3931(4)
H1 H 0.2943 0.2704 0.4368
O2 O 0.0809(3) 0.2854(3) 0.0900(3)
N1 N 0.1889(3) 0.4538(3) 0.2062(4)
C1 C 0.3001(3) 0.4196(5) 0.4643(6)
C2 C 0.3520(4) 0.4124(6) 0.5921(6)
H2 H 0.3718 0.3388 0.6295
C3 C 0.3757(4) 0.5081(6) 0.6670(6)
H3 H 0.4093 0.5004 0.7557
C4 C 0.3506(5) 0.6150(6) 0.6135(6)
H4 H 0.3688 0.6820 0.6648
C5 C 0.3009(4) 0.6247(5) 0.4862(5)
H5 H 0.2828 0.6989 0.4499
C6 C 0.2749(4) 0.5295(5) 0.4091(5)
C7 C 0.2172(3) 0.5417(4) 0.2777(5)
C8 C 0.1328(3) 0.4647(4) 0.0772(5)
C9 C 0.1326(3) 0.5588(4) 0.0071(5)
H6 H 0.1696 0.6224 0.0480
C10 C 0.0795(4) 0.5599(4) -0.1195(5)
H7 H 0.0785 0.6257 -0.1660
C11 C 0.0274(3) 0.4672(4) -0.1815(5)
C12 C 0.0276(3) 0.3736(4) -0.1121(5)
H8 H -0.0085 0.3095 -0.1540
C13 C 0.0789(3) 0.3714(4) 0.0162(5)
C14 C 0.0173(4) 0.1968(5) 0.0320(7)
H9 H 0.0250 0.1410 0.0933
H10 H -0.0389 0.2296 -0.0030
H11 H 0.0236 0.1610 -0.0326
O1B O -0.2751(4) 0.3274(3) -0.8931(4)
H1B H -0.2943 0.2704 -0.9368
O2B O -0.0809(3) 0.2854(3) -0.5900(3)
N1B N -0.1889(3) 0.4538(3) -0.7062(4)
C1B C -0.3001(3) 0.4196(5) -0.9643(6)
C2B C -0.3520(4) 0.4124(6) -1.0921(6)
H2B H -0.3718 0.3388 -1.1295
C3B C -0.3757(4) 0.5081(6) -1.1670(6)
H3B H -0.4093 0.5004 -1.2557
C4B C -0.3506(5) 0.6150(6) -1.1135(6)
H4B H -0.3688 0.6820 -1.1648
C5B C -0.3009(4) 0.6247(5) -0.9862(5)
H5B H -0.2828 0.6989 -0.9499
C6B C -0.2749(4) 0.5295(5) -0.9091(5)
C7B C -0.2172(3) 0.5417(4) -0.7777(5)
C8B C -0.1328(3) 0.4647(4) -0.5772(5)
C9B C -0.1326(3) 0.5588(4) -0.5071(5)
H6B H -0.1696 0.6224 -0.5480
C10B C -0.0795(4) 0.5599(4) -0.3805(5)
H7B H -0.0785 0.6257 -0.3340
C11B C -0.0274(3) 0.4672(4) -0.3185(5)
C12B C -0.0276(3) 0.3736(4) -0.3879(5)
H8B H 0.0085 0.3095 -0.3460
C13B C -0.0789(3) 0.3714(4) -0.5162(5)
C14B C -0.0173(4) 0.1968(5) -0.5320(7)
H9B H -0.0250 0.1410 -0.5933
H10B H 0.0389 0.2296 -0.4970
H11B H -0.0236 0.1610 -0.4674
loop_
_geom_bond_atom_site_label_1
_geom_bond_atom_site_label_2
_geom_bond_site_symmetry_1
_geom_bond_site_symmetry_2
O1 H1 1_555 1_555
O2 C13 1_555 1_555
N1 C7 1_555 1_555
C1 O1 1_555 1_555
C2 C1 1_555 1_555
H2 C2 1_555 1_555
C3 C2 1_555 1_555
H3 C3 1_555 1_555
C4 C3 1_555 1_555
H4 C4 1_555 1_555
C5 C4 1_555 1_555
H5 C5 1_555 1_555
C6 C1 1_555 1_555
C7 C6 1_555 1_555
C8 N1 1_555 1_555
C9 C8 1_555 1_555
H6 C9 1_555 1_555
C10 C9 1_555 1_555
H7 C10 1_555 1_555
C11 C10 1_555 1_555
C12 C11 1_555 1_555
H8 C12 1_555 1_555
C13 C8 1_555 1_555
C14 O2 1_555 1_555
H9 C14 1_555 1_555
H10 C14 1_555 1_555
H11 C14 1_555 1_555
O1B H1B 1_555 1_555
O2B C13B 1_555 1_555
N1B C7B 1_555 1_555
C1B O1B 1_555 1_555
C2B C1B 1_555 1_555
H2B C2B 1_555 1_555
C3B C2B 1_555 1_555
H3B C3B 1_555 1_555
C4B C3B 1_555 1_555
H4B C4B 1_555 1_555
C5B C4B 1_555 1_555
H5B C5B 1_555 1_555
C6B C1B 1_555 1_555
C7B C6B 1_555 1_555
C8B N1B 1_555 1_555
C9B C8B 1_555 1_555
H6B C9B 1_555 1_555
C10B C9B 1_555 1_555
H7B C10B 1_555 1_555
C11B C11 1_555 1_555
C12B C11B 1_555 1_555
H8B C12B 1_555 1_555
C13B C8B 1_555 1_555
C14B O2B 1_555 1_555
H9B C14B 1_555 1_555
H10B C14B 1_555 1_555
H11B C14B 1_555 1_555
C5 C6 1_555 1_555
C12 C13 1_555 1_555
C5B C6B 1_555 1_555
C10B C11B 1_555 1_555
C12B C13B 1_555 1_555

#END
