
#######################################################################
#
#                 Cambridge Crystallographic Data Centre
#                                CCDC 
#
#######################################################################
#
# If this CIF has been generated from an entry in the Cambridge 
# Structural Database, then it will include bibliographic, chemical, 
# crystal, experimental, refinement or atomic coordinate data resulting 
# from the CCDC's data processing and validation procedures.
#
#######################################################################

data_EVUSIZ
_chemical_formula_moiety         'C17 H24 B1 N1 O2'
_chemical_name_systematic        
((4-acetyl-5-methyl-2-furyl)(phenyl)methyl)(trimethylamine)dihydridoboron
_symmetry_cell_setting           orthorhombic
_symmetry_space_group_name_H-M   'P n a 21'
_symmetry_Int_Tables_number      33
_space_group_name_Hall           'P 2c -2n'
loop_
_symmetry_equiv_pos_site_id
_symmetry_equiv_pos_as_xyz
1 x,y,z
2 -x,-y,1/2+z
3 1/2+x,1/2-y,z
4 1/2-x,1/2+y,1/2+z
_cell_length_a                   27.4646(9)
_cell_length_b                   9.6471(3)
_cell_length_c                   6.46850(18)
_cell_angle_alpha                90
_cell_angle_beta                 90
_cell_angle_gamma                90
_cell_volume                     1713.85
_exptl_crystal_colour            colorless
_exptl_crystal_description       block
_cell_formula_units_Z            4
loop_
_atom_site_label
_atom_site_type_symbol
_atom_site_fract_x
_atom_site_fract_y
_atom_site_fract_z
O1 O 0.43865(5) 0.54265(14) 0.6222(3)
O2 O 0.40829(11) 0.7605(3) 0.0215(4)
N1 N 0.27577(7) 0.5827(2) 0.7497(4)
C1 C 0.39139(6) 0.52546(19) 0.5511(4)
C2 C 0.38680(8) 0.5965(2) 0.3740(4)
H1 H 0.3588 0.6024 0.2933
C3 C 0.43269(7) 0.66196(19) 0.3307(4)
C4 C 0.46279(7) 0.6264(2) 0.4869(4)
C5 C 0.35942(7) 0.43296(18) 0.6741(3)
H2 H 0.3650 0.4534 0.8206
C6 C 0.37214(6) 0.28109(19) 0.6380(4)
C7 C 0.38416(8) 0.2322(2) 0.4433(5)
H3 H 0.3857 0.2936 0.3326
C8 C 0.39396(10) 0.0923(3) 0.4114(6)
H4 H 0.4020 0.0607 0.2800
C9 C 0.39171(10) 0.0004(3) 0.5746(7)
H5 H 0.3982 -0.0931 0.5534
C10 C 0.37988(11) 0.0475(3) 0.7682(7)
H6 H 0.3783 -0.0142 0.8785
C11 C 0.37031(9) 0.1872(2) 0.8000(5)
H7 H 0.3626 0.2183 0.9321
C12 C 0.44076(10) 0.7479(2) 0.1465(5)
C13 C 0.48764(12) 0.8238(4) 0.1191(8)
H8 H 0.4842 0.8907 0.0102
H9 H 0.5129 0.7592 0.0840
H10 H 0.4959 0.8704 0.2455
C14 C 0.51447(9) 0.6563(3) 0.5446(6)
H11 H 0.5201 0.6277 0.6847
H12 H 0.5205 0.7539 0.5321
H13 H 0.5359 0.6064 0.4540
C15 C 0.27383(19) 0.5569(5) 0.9721(6)
H14 H 0.2636 0.6397 1.0421
H15 H 0.3055 0.5305 1.0205
H16 H 0.2511 0.4837 0.9999
C16 C 0.22574(11) 0.5981(5) 0.6723(10)
H17 H 0.2076 0.5153 0.7016
H18 H 0.2264 0.6134 0.5257
H19 H 0.2105 0.6757 0.7391
C17 C 0.30094(14) 0.7156(3) 0.7165(8)
H20 H 0.2838 0.7880 0.7878
H21 H 0.3018 0.7359 0.5713
H22 H 0.3336 0.7094 0.7687
B1 B 0.30086(8) 0.4511(2) 0.6280(5)
H23 H 0.2821(9) 0.361(3) 0.692(5)
H24 H 0.2947(9) 0.472(2) 0.462(4)
loop_
_geom_bond_atom_site_label_1
_geom_bond_atom_site_label_2
_geom_bond_site_symmetry_1
_geom_bond_site_symmetry_2
O1 C1 1_555 1_555
O2 C12 1_555 1_555
N1 C15 1_555 1_555
C1 C2 1_555 1_555
C2 H1 1_555 1_555
C3 C2 1_555 1_555
C4 O1 1_555 1_555
C5 C1 1_555 1_555
H2 C5 1_555 1_555
C6 C5 1_555 1_555
C7 C6 1_555 1_555
H3 C7 1_555 1_555
C8 C7 1_555 1_555
H4 C8 1_555 1_555
C9 C8 1_555 1_555
H5 C9 1_555 1_555
C10 C9 1_555 1_555
H6 C10 1_555 1_555
C11 C6 1_555 1_555
H7 C11 1_555 1_555
C12 C3 1_555 1_555
C13 C12 1_555 1_555
H8 C13 1_555 1_555
H9 C13 1_555 1_555
H10 C13 1_555 1_555
C14 C4 1_555 1_555
H11 C14 1_555 1_555
H12 C14 1_555 1_555
H13 C14 1_555 1_555
C15 H14 1_555 1_555
H15 C15 1_555 1_555
H16 C15 1_555 1_555
C16 N1 1_555 1_555
H17 C16 1_555 1_555
H18 C16 1_555 1_555
H19 C16 1_555 1_555
C17 N1 1_555 1_555
H20 C17 1_555 1_555
H21 C17 1_555 1_555
H22 C17 1_555 1_555
B1 N1 1_555 1_555
H23 B1 1_555 1_555
H24 B1 1_555 1_555
C3 C4 1_555 1_555
C5 B1 1_555 1_555
C10 C11 1_555 1_555

#END
