
#######################################################################
#
#                 Cambridge Crystallographic Data Centre
#                                CCDC 
#
#######################################################################
#
# If this CIF has been generated from an entry in the Cambridge 
# Structural Database, then it will include bibliographic, chemical, 
# crystal, experimental, refinement or atomic coordinate data resulting 
# from the CCDC's data processing and validation procedures.
#
#######################################################################

data_EVUTAS
_chemical_formula_moiety         'C29 H20 F6 N2 S1'
_chemical_name_systematic        
3-(4-(2-(1,2-Dimethyl-1H-indol-3-yl)-3,3,4,4,5,5-hexafluorocyclopent-1-en-1-yl)-5-methyl-2-thienyl)quinoline
_symmetry_cell_setting           triclinic
_symmetry_space_group_name_H-M   'P -1'
_symmetry_Int_Tables_number      2
_space_group_name_Hall           '-P 1'
loop_
_symmetry_equiv_pos_site_id
_symmetry_equiv_pos_as_xyz
1 x,y,z
2 -x,-y,-z
_cell_length_a                   8.6376(10)
_cell_length_b                   11.4812(13)
_cell_length_c                   13.9472(16)
_cell_angle_alpha                107.8790(10)
_cell_angle_beta                 96.7420(10)
_cell_angle_gamma                94.2130(10)
_cell_volume                     1298.44
_exptl_crystal_colour            colorless
_exptl_crystal_description       rhombus
_cell_formula_units_Z            2
loop_
_atom_site_label
_atom_site_type_symbol
_atom_site_fract_x
_atom_site_fract_y
_atom_site_fract_z
S1 S 0.27548(8) 0.99353(6) 0.49224(5)
F1 F -0.1765(3) 1.1328(2) 0.3167(2)
N1 N 0.6005(3) 1.3444(2) 0.63481(18)
N2 N 0.1175(3) 0.5819(2) 0.13248(16)
C1 C 0.6837(4) 1.4408(3) 0.4145(3)
H1 H 0.6522 1.4201 0.3446
C2 C 0.7974(4) 1.5374(3) 0.4631(3)
H2 H 0.8419 1.5823 0.4259
C3 C 0.8473(4) 1.5692(3) 0.5675(3)
H3 H 0.9255 1.6344 0.5992
C4 C 0.7827(4) 1.5058(3) 0.6229(3)
H4 H 0.8167 1.5279 0.6925
C5 C 0.6633(3) 1.4059(2) 0.5758(2)
C6 C 0.6142(3) 1.3726(2) 0.4705(2)
C7 C 0.4976(3) 1.2725(2) 0.42524(19)
H5 H 0.4646 1.2479 0.3553
C8 C 0.4319(3) 1.2108(2) 0.48308(18)
C9 C 0.4902(3) 1.2518(3) 0.5883(2)
H6 H 0.4471 1.2100 0.6281
C10 C 0.3053(3) 1.1098(2) 0.43946(19)
C11 C 0.1934(3) 1.0929(2) 0.3576(2)
H7 H 0.1889 1.1464 0.3193
C12 C 0.0831(3) 0.9852(2) 0.3357(2)
C13 C 0.1133(3) 0.9218(2) 0.4034(2)
C14 C 0.0280(3) 0.8074(2) 0.4108(2)
H8 H -0.0810 0.8018 0.3842
H9 H 0.0380 0.8104 0.4808
H10 H 0.0722 0.7367 0.3720
C15 C -0.0500(3) 0.9533(2) 0.2533(2)
C16 C -0.1373(4) 1.0537(3) 0.2334(3)
C17 C -0.2790(5) 0.9885(4) 0.1549(4)
C18 C -0.2566(4) 0.8562(3) 0.1220(3)
C19 C -0.1121(3) 0.8420(2) 0.1868(2)
C20 C -0.0504(3) 0.7240(2) 0.16742(19)
C21 C 0.1026(3) 0.7046(3) 0.1531(2)
C22 C 0.2368(4) 0.7948(3) 0.1542(3)
H11 H 0.3056 0.8154 0.2178
H12 H 0.1978 0.8680 0.1464
H13 H 0.2935 0.7590 0.0992
C23 C -0.1332(3) 0.6058(2) 0.15662(18)
C24 C -0.2851(3) 0.5645(3) 0.1662(2)
H14 H -0.3584 0.6200 0.1834
C25 C -0.3250(4) 0.4415(3) 0.1501(3)
H15 H -0.4266 0.4137 0.1553
C26 C -0.2160(4) 0.3575(3) 0.1262(3)
H16 H -0.2465 0.2744 0.1150
C27 C -0.0646(4) 0.3945(3) 0.1187(2)
H17 H 0.0083 0.3383 0.1038
C28 C -0.0234(3) 0.5194(2) 0.13410(18)
F2 F -0.3596(7) 1.0416(3) 0.1101(6)
F3 F -0.2291(7) 0.8304(5) 0.0229(3)
F4 F -0.4038(4) 0.9887(4) 0.2173(5)
F5 F -0.0527(3) 1.1244(2) 0.1932(3)
C29 C 0.2606(4) 0.5257(3) 0.1100(2)
H18 H 0.2996 0.5493 0.0562
H19 H 0.2381 0.4376 0.0892
H20 H 0.3382 0.5531 0.1699
F6 F -0.3871(6) 0.8040(10) 0.1442(14)
F7? F -0.3578(11) 0.7704(6) 0.0817(7)
F8? F -0.232(3) 1.0153(9) 0.0597(7)
loop_
_geom_bond_atom_site_label_1
_geom_bond_atom_site_label_2
_geom_bond_site_symmetry_1
_geom_bond_site_symmetry_2
S1 C10 1_555 1_555
F1 C16 1_555 1_555
N1 C5 1_555 1_555
N2 C21 1_555 1_555
C1 H1 1_555 1_555
C2 C1 1_555 1_555
H2 C2 1_555 1_555
C3 C2 1_555 1_555
H3 C3 1_555 1_555
C4 C3 1_555 1_555
H4 C4 1_555 1_555
C5 C4 1_555 1_555
C6 C1 1_555 1_555
C7 C6 1_555 1_555
H5 C7 1_555 1_555
C8 C7 1_555 1_555
C9 N1 1_555 1_555
H6 C9 1_555 1_555
C10 C8 1_555 1_555
C11 C10 1_555 1_555
H7 C11 1_555 1_555
C12 C11 1_555 1_555
C13 S1 1_555 1_555
C14 C13 1_555 1_555
H8 C14 1_555 1_555
H9 C14 1_555 1_555
H10 C14 1_555 1_555
C15 C12 1_555 1_555
C16 C15 1_555 1_555
C17 C16 1_555 1_555
C18 C17 1_555 1_555
C19 C15 1_555 1_555
C20 C19 1_555 1_555
C21 C20 1_555 1_555
C22 C21 1_555 1_555
H11 C22 1_555 1_555
H12 C22 1_555 1_555
H13 C22 1_555 1_555
C23 C20 1_555 1_555
C24 C23 1_555 1_555
H14 C24 1_555 1_555
C25 C24 1_555 1_555
H15 C25 1_555 1_555
C26 C25 1_555 1_555
H16 C26 1_555 1_555
C27 C26 1_555 1_555
H17 C27 1_555 1_555
C28 N2 1_555 1_555
F2 C17 1_555 1_555
F3 C18 1_555 1_555
F4 C17 1_555 1_555
F5 C16 1_555 1_555
C29 N2 1_555 1_555
H18 C29 1_555 1_555
H19 C29 1_555 1_555
H20 C29 1_555 1_555
F6 C18 1_555 1_555
C5 C6 1_555 1_555
C8 C9 1_555 1_555
C12 C13 1_555 1_555
C18 C19 1_555 1_555
C23 C28 1_555 1_555
C27 C28 1_555 1_555

#END
