
#######################################################################
#
#                 Cambridge Crystallographic Data Centre
#                                CCDC 
#
#######################################################################
#
# If this CIF has been generated from an entry in the Cambridge 
# Structural Database, then it will include bibliographic, chemical, 
# crystal, experimental, refinement or atomic coordinate data resulting 
# from the CCDC's data processing and validation procedures.
#
#######################################################################

data_EVUTAR
_chemical_formula_moiety         'C23 H21 N1 Si1'
_chemical_name_systematic        
6,6-Dimethyl-5-(4-methylphenyl)-5,6-dihydro[1]benzosilolo[2,3-b]indole
_symmetry_cell_setting           monoclinic
_symmetry_space_group_name_H-M   'P 21/c'
_symmetry_Int_Tables_number      14
_space_group_name_Hall           '-P 2ybc'
loop_
_symmetry_equiv_pos_site_id
_symmetry_equiv_pos_as_xyz
1 x,y,z
2 -x,1/2+y,1/2-z
3 -x,-y,-z
4 x,1/2-y,1/2+z
_cell_length_a                   19.804(4)
_cell_length_b                   20.045(4)
_cell_length_c                   14.952(3)
_cell_angle_alpha                90
_cell_angle_beta                 106.03(3)
_cell_angle_gamma                90
_cell_volume                     5704.72
_cell_formula_units_Z            12
loop_
_atom_site_label
_atom_site_type_symbol
_atom_site_fract_x
_atom_site_fract_y
_atom_site_fract_z
C1 C 0.07127(18) 0.61049(18) 1.0075(2)
C2 C 0.10004(18) 0.61840(19) 0.8717(3)
C3 C 0.1310(2) 0.6093(2) 0.7986(3)
H1 H 0.1701 0.5821 0.8050
C4 C 0.1009(2) 0.6421(2) 0.7182(3)
H2 H 0.1197 0.6370 0.6682
C5 C 0.0427(2) 0.6833(2) 0.7082(3)
H3 H 0.0239 0.7052 0.6520
C6 C 0.0122(2) 0.69235(19) 0.7801(3)
H4 H -0.0268 0.7198 0.7726
C7 C 0.0413(2) 0.65946(19) 0.8641(3)
C8 C 0.02393(18) 0.65405(18) 0.9515(2)
C9 C -0.03055(18) 0.68179(19) 0.9916(3)
C10 C -0.08231(18) 0.72765(18) 0.9491(3)
H5 H -0.0850 0.7442 0.8901
C11 C -0.13053(19) 0.74848(19) 0.9975(3)
H6 H -0.1652 0.7793 0.9704
C12 C -0.1266(2) 0.7235(2) 1.0845(3)
H7 H -0.1593 0.7370 1.1151
C13 C -0.07474(18) 0.67846(19) 1.1268(2)
H8 H -0.0727 0.6620 1.1857
C14 C -0.02541(17) 0.65768(18) 1.0816(2)
C15 C 0.03488(18) 0.51725(17) 1.1601(2)
H9 H 0.0104 0.5204 1.2071
H10 H 0.0783 0.4937 1.1846
H11 H 0.0063 0.4937 1.1073
C16 C 0.12305(16) 0.64276(19) 1.2212(2)
H12 H 0.1294 0.6882 1.2051
H13 H 0.1665 0.6190 1.2306
H14 H 0.1086 0.6416 1.2774
C17 C 0.1703(2) 0.53848(19) 0.9872(2)
C18 C 0.15129(19) 0.4767(2) 1.0143(2)
H15 H 0.1060 0.4698 1.0194
C19 C 0.2003(2) 0.4248(2) 1.0341(2)
H16 H 0.1873 0.3836 1.0526
C20 C 0.2678(2) 0.4334(2) 1.0267(3)
C21 C 0.2862(2) 0.4958(2) 1.0019(3)
H17 H 0.3317 0.5027 0.9981
C22 C 0.23873(19) 0.5488(2) 0.9823(3)
H18 H 0.2526 0.5904 0.9662
C23 C 0.31729(18) 0.3741(2) 1.0434(3)
H19 H 0.2995 0.3409 0.9966
H20 H 0.3208 0.3556 1.1037
H21 H 0.3629 0.3884 1.0404
N1 N 0.11890(14) 0.59016(15) 0.9602(2)
Si1 Si 0.05365(5) 0.60236(6) 1.12414(7)
C24 C 0.74030(18) 0.89807(19) 0.9295(2)
C25 C 0.77145(19) 0.87698(19) 1.0839(3)
C26 C 0.80343(19) 0.87674(19) 1.1787(3)
H22 H 0.8425 0.9030 1.2053
C27 C 0.7741(2) 0.8353(2) 1.2321(3)
H23 H 0.7947 0.8333 1.2960
C28 C 0.7149(2) 0.7964(2) 1.1935(3)
H24 H 0.6965 0.7698 1.2320
C29 C 0.6831(2) 0.7968(2) 1.0987(3)
H25 H 0.6440 0.7703 1.0732
C30 C 0.71121(19) 0.83832(19) 1.0413(3)
C31 C 0.69271(18) 0.85179(18) 0.9432(3)
C32 C 0.63935(19) 0.82869(19) 0.8594(3)
C33 C 0.5846(2) 0.7839(2) 0.8573(3)
H26 H 0.5801 0.7647 0.9120
C34 C 0.5373(2) 0.7685(2) 0.7727(3)
H27 H 0.5011 0.7385 0.7708
C35 C 0.5431(2) 0.7966(2) 0.6925(3)
H28 H 0.5107 0.7860 0.6363
C36 C 0.5972(2) 0.8412(2) 0.6936(3)
H29 H 0.6006 0.8598 0.6381
C37 C 0.64578(17) 0.85827(19) 0.7762(3)
C38 C 0.70330(17) 1.00261(17) 0.7633(2)
H30 H 0.6655 1.0183 0.7865
H31 H 0.6893 1.0044 0.6966
H32 H 0.7438 1.0304 0.7869
C39 C 0.79734(15) 0.88338(19) 0.7562(2)
H33 H 0.8384 0.9105 0.7797
H34 H 0.7830 0.8854 0.6895
H35 H 0.8079 0.8380 0.7757
C40 C 0.8411(2) 0.9641(2) 1.0285(3)
C41 C 0.8227(2) 1.0290(2) 0.9986(3)
H36 H 0.7764 1.0386 0.9664
C42 C 0.8718(2) 1.0790(2) 1.0159(3)
H37 H 0.8584 1.1223 0.9968
C43 C 0.9409(3) 1.0651(3) 1.0617(3)
C44 C 0.9598(2) 1.0003(3) 1.0910(3)
H38 H 1.0064 0.9907 1.1218
C45 C 0.9102(2) 0.9500(2) 1.0748(3)
H39 H 0.9233 0.9068 1.0951
C46 C 0.9953(2) 1.1206(2) 1.0832(3)
H40 H 0.9723 1.1629 1.0672
H41 H 1.0284 1.1140 1.0477
H42 H 1.0196 1.1201 1.1484
N2 N 0.78813(15) 0.91290(15) 1.0130(2)
Si2 Si 0.72519(6) 0.91479(6) 0.80212(8)
C47 C 0.58070(18) 0.1229(2) 0.8310(2)
C48 C 0.5586(2) 0.1122(2) 0.6755(3)
C49 C 0.53137(19) 0.0935(2) 0.5837(3)
H43 H 0.4930 0.0649 0.5656
C50 C 0.5631(2) 0.1186(2) 0.5204(3)
H44 H 0.5455 0.1078 0.4578
C51 C 0.6214(2) 0.1600(2) 0.5485(3)
H45 H 0.6422 0.1762 0.5042
C52 C 0.6491(2) 0.1777(2) 0.6404(3)
H46 H 0.6882 0.2054 0.6581
C53 C 0.6178(2) 0.1534(2) 0.7064(3)
C54 C 0.6304(2) 0.15902(19) 0.8038(3)
C55 C 0.6848(2) 0.1879(2) 0.8808(3)
C56 C 0.7394(2) 0.2303(2) 0.8743(3)
H47 H 0.7434 0.2430 0.8162
C57 C 0.7880(2) 0.2535(2) 0.9546(3)
H48 H 0.8231 0.2827 0.9491
C58 C 0.7851(2) 0.2342(2) 1.0414(3)
H49 H 0.8182 0.2497 1.0943
C59 C 0.7313(2) 0.1908(2) 1.0491(3)
H50 H 0.7289 0.1775 1.1078
C60 C 0.68204(19) 0.16747(19) 0.9711(3)
C61 C 0.61722(18) 0.02550(17) 0.9948(2)
H51 H 0.5734 0.0017 0.9784
H52 H 0.6378 0.0230 1.0609
H53 H 0.6486 0.0059 0.9634
C62 C 0.53669(16) 0.15090(19) 1.0152(2)
H54 H 0.5287 0.1968 0.9968
H55 H 0.5548 0.1483 1.0817
H56 H 0.4932 0.1267 0.9958
C63 C 0.4797(2) 0.0511(2) 0.7520(3)
C64 C 0.4798(2) -0.0152(2) 0.7282(3)
H57 H 0.5191 -0.0327 0.7141
C65 C 0.4234(3) -0.0565(3) 0.7245(3)
H58 H 0.4249 -0.1011 0.7081
C66 C 0.3660(3) -0.0318(3) 0.7448(3)
C67 C 0.3648(2) 0.0345(3) 0.7697(3)
H59 H 0.3254 0.0517 0.7838
C68 C 0.4224(2) 0.0758(2) 0.7738(3)
H60 H 0.4215 0.1202 0.7914
C69 C 0.3006(2) -0.0749(2) 0.7398(3)
H61 H 0.2783 -0.0598 0.7856
H62 H 0.3144 -0.1207 0.7516
H63 H 0.2682 -0.0711 0.6790
N3 N 0.53782(15) 0.09330(16) 0.7535(2)
Si3 Si 0.60156(6) 0.11374(6) 0.95968(8)
loop_
_geom_bond_atom_site_label_1
_geom_bond_atom_site_label_2
_geom_bond_site_symmetry_1
_geom_bond_site_symmetry_2
C1 C8 1_555 1_555
C2 C3 1_555 1_555
C3 H1 1_555 1_555
C4 C3 1_555 1_555
H2 C4 1_555 1_555
C5 C4 1_555 1_555
H3 C5 1_555 1_555
C6 C5 1_555 1_555
H4 C6 1_555 1_555
C7 C2 1_555 1_555
C8 C7 1_555 1_555
C9 C8 1_555 1_555
C10 C9 1_555 1_555
H5 C10 1_555 1_555
C11 C10 1_555 1_555
H6 C11 1_555 1_555
C12 C11 1_555 1_555
H7 C12 1_555 1_555
C13 C12 1_555 1_555
H8 C13 1_555 1_555
C14 C9 1_555 1_555
C15 H9 1_555 1_555
H10 C15 1_555 1_555
H11 C15 1_555 1_555
C16 H12 1_555 1_555
H13 C16 1_555 1_555
H14 C16 1_555 1_555
C17 C18 1_555 1_555
C18 H15 1_555 1_555
C19 C18 1_555 1_555
H16 C19 1_555 1_555
C20 C19 1_555 1_555
C21 C20 1_555 1_555
H17 C21 1_555 1_555
C22 C17 1_555 1_555
H18 C22 1_555 1_555
C23 C20 1_555 1_555
H19 C23 1_555 1_555
H20 C23 1_555 1_555
H21 C23 1_555 1_555
C24 C31 1_555 1_555
C25 C26 1_555 1_555
C26 H22 1_555 1_555
C27 C26 1_555 1_555
H23 C27 1_555 1_555
C28 C27 1_555 1_555
H24 C28 1_555 1_555
C29 C28 1_555 1_555
H25 C29 1_555 1_555
C30 C25 1_555 1_555
C31 C30 1_555 1_555
C32 C31 1_555 1_555
C33 C32 1_555 1_555
H26 C33 1_555 1_555
C34 C33 1_555 1_555
H27 C34 1_555 1_555
C35 C34 1_555 1_555
H28 C35 1_555 1_555
C36 C35 1_555 1_555
H29 C36 1_555 1_555
C37 C32 1_555 1_555
C38 H30 1_555 1_555
H31 C38 1_555 1_555
H32 C38 1_555 1_555
C39 H33 1_555 1_555
H34 C39 1_555 1_555
H35 C39 1_555 1_555
C40 C41 1_555 1_555
C41 H36 1_555 1_555
C42 C41 1_555 1_555
H37 C42 1_555 1_555
C43 C42 1_555 1_555
C44 C43 1_555 1_555
H38 C44 1_555 1_555
C45 C40 1_555 1_555
H39 C45 1_555 1_555
C46 C43 1_555 1_555
H40 C46 1_555 1_555
H41 C46 1_555 1_555
H42 C46 1_555 1_555
C47 C54 1_555 1_555
C48 C49 1_555 1_555
C49 H43 1_555 1_555
C50 C49 1_555 1_555
H44 C50 1_555 1_555
C51 C50 1_555 1_555
H45 C51 1_555 1_555
C52 C51 1_555 1_555
H46 C52 1_555 1_555
C53 C48 1_555 1_555
C54 C53 1_555 1_555
C55 C54 1_555 1_555
C56 C55 1_555 1_555
H47 C56 1_555 1_555
C57 C56 1_555 1_555
H48 C57 1_555 1_555
C58 C57 1_555 1_555
H49 C58 1_555 1_555
C59 C58 1_555 1_555
H50 C59 1_555 1_555
C60 C55 1_555 1_555
C61 H51 1_555 1_555
H52 C61 1_555 1_555
H53 C61 1_555 1_555
C62 H54 1_555 1_555
H55 C62 1_555 1_555
H56 C62 1_555 1_555
C63 C64 1_555 1_555
C64 H57 1_555 1_555
C65 C64 1_555 1_555
H58 C65 1_555 1_555
C66 C65 1_555 1_555
C67 C66 1_555 1_555
H59 C67 1_555 1_555
C68 C63 1_555 1_555
H60 C68 1_555 1_555
C69 C66 1_555 1_555
H61 C69 1_555 1_555
H62 C69 1_555 1_555
H63 C69 1_555 1_555
N1 C1 1_555 1_555
N2 C24 1_555 1_555
N3 C47 1_555 1_555
Si1 C1 1_555 1_555
Si2 C24 1_555 1_555
Si3 C47 1_555 1_555
C2 N1 1_555 1_555
C6 C7 1_555 1_555
C13 C14 1_555 1_555
C14 Si1 1_555 1_555
C15 Si1 1_555 1_555
C16 Si1 1_555 1_555
C17 N1 1_555 1_555
C21 C22 1_555 1_555
C25 N2 1_555 1_555
C29 C30 1_555 1_555
C36 C37 1_555 1_555
C37 Si2 1_555 1_555
C38 Si2 1_555 1_555
C39 Si2 1_555 1_555
C40 N2 1_555 1_555
C44 C45 1_555 1_555
C48 N3 1_555 1_555
C52 C53 1_555 1_555
C59 C60 1_555 1_555
C60 Si3 1_555 1_555
C61 Si3 1_555 1_555
C62 Si3 1_555 1_555
C63 N3 1_555 1_555
C67 C68 1_555 1_555

#END
