
#######################################################################
#
#                 Cambridge Crystallographic Data Centre
#                                CCDC 
#
#######################################################################
#
# If this CIF has been generated from an entry in the Cambridge 
# Structural Database, then it will include bibliographic, chemical, 
# crystal, experimental, refinement or atomic coordinate data resulting 
# from the CCDC's data processing and validation procedures.
#
#######################################################################

data_EVUYUR
_chemical_formula_moiety         'C32 H26 Cl1 F1 N4 O4,C1 H4 O1'
_chemical_name_systematic        
'3-chloro-4-(3-(8-fluoro-1-methyl-2,4-dioxo-1,4-dihydroquinazolin-3(2H)-yl)-2-methylphenyl)-7-(2-hydroxypropan-2-yl)-9H-carbazole-1-carboxamide methanol solvate'
_symmetry_cell_setting           orthorhombic
_symmetry_space_group_name_H-M   'P 21 21 21'
_symmetry_Int_Tables_number      19
_space_group_name_Hall           'P 2ac 2ab'
loop_
_symmetry_equiv_pos_site_id
_symmetry_equiv_pos_as_xyz
1 x,y,z
2 1/2-x,-y,1/2+z
3 -x,1/2+y,1/2-z
4 1/2+x,1/2-y,-z
_cell_length_a                   9.7477(2)
_cell_length_b                   14.2119(3)
_cell_length_c                   21.2630(5)
_cell_angle_alpha                90
_cell_angle_beta                 90
_cell_angle_gamma                90
_cell_volume                     2945.63
_exptl_crystal_colour            colorless
_exptl_crystal_description       prism
_cell_formula_units_Z            4
loop_
_atom_site_label
_atom_site_type_symbol
_atom_site_fract_x
_atom_site_fract_y
_atom_site_fract_z
Cl1 Cl 0.51105(7) 0.20982(4) 0.74522(3)
N1 N 0.4284(2) -0.09419(13) 0.56499(9)
H1 H 0.3794 -0.1453 0.5655
C1 C 0.4089(2) 0.04030(16) 0.71399(11)
H2 H 0.3698 0.0417 0.7544
C2 C 0.4431(2) -0.03298(16) 0.61437(11)
C3 C 0.5133(3) -0.09865(16) 0.45369(11)
H3 H 0.4664 -0.1541 0.4429
C4 C 0.5312(2) 0.04122(15) 0.59618(10)
C5 C 0.5040(3) -0.06181(16) 0.51419(11)
C6 C 0.3831(2) -0.03624(16) 0.67466(11)
C7 C 0.6528(3) 0.06771(17) 0.48722(11)
H4 H 0.7001 0.1231 0.4979
C8 C 0.4912(2) 0.11455(15) 0.69445(10)
C9 C 0.5570(2) 0.11661(16) 0.63641(11)
C10 C 0.5929(3) -0.08577(18) 0.34137(12)
C11 C 0.5717(2) 0.02180(16) 0.53155(11)
C12 C 0.5930(2) -0.05204(17) 0.40983(11)
C13 C 0.6626(3) 0.03063(18) 0.42727(12)
H5 H 0.7174 0.0615 0.3973
O1 O 0.5610(2) -0.18427(12) 0.33931(9)
H6 H 0.6297 -0.2151 0.3496
C14 C 0.4746(3) -0.0372(2) 0.30769(12)
H7 H 0.4718 -0.0577 0.2642
H8 H 0.4876 0.0304 0.3093
H9 H 0.3888 -0.0535 0.3282
C15 C 0.2944(3) -0.11719(16) 0.69218(12)
C16 C 0.7273(3) -0.0664(2) 0.30754(14)
H10 H 0.8029 -0.0910 0.3323
H11 H 0.7386 0.0009 0.3021
H12 H 0.7261 -0.0968 0.2667
O2 O 0.2649(2) -0.17780(12) 0.65210(8)
N2 N 0.2484(2) -0.12145(14) 0.75127(10)
H13 H 0.1958 -0.1677 0.7629
H14 H 0.2710 -0.0779 0.7781
C17 C 0.6935(2) 0.34392(16) 0.56909(11)
C18 C 0.8334(3) 0.33149(18) 0.57472(12)
H15 H 0.8944 0.3783 0.5608
C19 C 0.6506(2) 0.19455(15) 0.61646(10)
C20 C 0.5984(2) 0.27693(16) 0.58948(11)
C21 C 0.8825(3) 0.24940(19) 0.60110(13)
H16 H 0.9775 0.2394 0.6048
C22 C 0.7910(3) 0.18199(17) 0.62201(12)
H17 H 0.8247 0.1265 0.6404
C23 C 0.4470(3) 0.29221(19) 0.58233(13)
H18 H 0.3996 0.2326 0.5867
H19 H 0.4283 0.3186 0.5412
H20 H 0.4153 0.3353 0.6146
N3 N 0.6424(2) 0.42831(13) 0.53923(9)
C24 C 0.6075(3) 0.50323(16) 0.57837(11)
N4 N 0.5449(2) 0.57918(14) 0.55051(10)
C25 C 0.5045(3) 0.57716(16) 0.48714(11)
C26 C 0.6347(2) 0.42900(17) 0.47341(11)
C27 C 0.3813(3) 0.6409(2) 0.39808(15)
H21 H 0.3200 0.6858 0.3818
C28 C 0.5565(3) 0.50776(17) 0.44700(11)
C29 C 0.5261(3) 0.50812(18) 0.38321(12)
H22 H 0.5649 0.4623 0.3568
C30 C 0.4121(3) 0.64085(18) 0.46072(14)
C31 C 0.4399(4) 0.5750(2) 0.35843(14)
H23 H 0.4210 0.5760 0.3151
O3 O 0.6826(2) 0.36527(13) 0.44266(8)
O4 O 0.6335(2) 0.50060(12) 0.63431(8)
C32 C 0.5411(4) 0.66664(19) 0.58749(14)
H24 H 0.4481 0.6780 0.6020
H25 H 0.5708 0.7188 0.5614
H26 H 0.6017 0.6608 0.6234
F1 F 0.3477(2) 0.70469(12) 0.49854(9)
O5 O 0.4740(2) 0.72625(19) 0.23441(10)
H27 H 0.4891 0.7531 0.2684
C33 C 0.3385(4) 0.7393(3) 0.21756(19)
H28 H 0.2796 0.7062 0.2469
H29 H 0.3237 0.7150 0.1755
H30 H 0.3170 0.8059 0.2184
loop_
_geom_bond_atom_site_label_1
_geom_bond_atom_site_label_2
_geom_bond_site_symmetry_1
_geom_bond_site_symmetry_2
Cl1 C8 1_555 1_555
N1 H1 1_555 1_555
C1 H2 1_555 1_555
C2 N1 1_555 1_555
C3 H3 1_555 1_555
C4 C2 1_555 1_555
C5 N1 1_555 1_555
C6 C1 1_555 1_555
C7 H4 1_555 1_555
C8 C1 1_555 1_555
C9 C4 1_555 1_555
C10 C12 1_555 1_555
C11 C4 1_555 1_555
C12 C3 1_555 1_555
C13 C7 1_555 1_555
H5 C13 1_555 1_555
O1 C10 1_555 1_555
H6 O1 1_555 1_555
C14 C10 1_555 1_555
H7 C14 1_555 1_555
H8 C14 1_555 1_555
H9 C14 1_555 1_555
C15 C6 1_555 1_555
C16 C10 1_555 1_555
H10 C16 1_555 1_555
H11 C16 1_555 1_555
H12 C16 1_555 1_555
O2 C15 1_555 1_555
N2 C15 1_555 1_555
H13 N2 1_555 1_555
H14 N2 1_555 1_555
C17 C18 1_555 1_555
C18 H15 1_555 1_555
C19 C9 1_555 1_555
C20 C17 1_555 1_555
C21 C18 1_555 1_555
H16 C21 1_555 1_555
C22 C19 1_555 1_555
H17 C22 1_555 1_555
C23 C20 1_555 1_555
H18 C23 1_555 1_555
H19 C23 1_555 1_555
H20 C23 1_555 1_555
N3 C17 1_555 1_555
C24 N3 1_555 1_555
N4 C24 1_555 1_555
C25 N4 1_555 1_555
C26 N3 1_555 1_555
C27 H21 1_555 1_555
C28 C25 1_555 1_555
C29 C28 1_555 1_555
H22 C29 1_555 1_555
C30 C25 1_555 1_555
C31 C27 1_555 1_555
H23 C31 1_555 1_555
O3 C26 1_555 1_555
O4 C24 1_555 1_555
C32 N4 1_555 1_555
H24 C32 1_555 1_555
H25 C32 1_555 1_555
H26 C32 1_555 1_555
F1 C30 1_555 1_555
O5 H27 1_555 1_555
C33 O5 1_555 1_555
H28 C33 1_555 1_555
H29 C33 1_555 1_555
H30 C33 1_555 1_555
C2 C6 1_555 1_555
C3 C5 1_555 1_555
C5 C11 1_555 1_555
C7 C11 1_555 1_555
C8 C9 1_555 1_555
C12 C13 1_555 1_555
C19 C20 1_555 1_555
C21 C22 1_555 1_555
C26 C28 1_555 1_555
C27 C30 1_555 1_555
C29 C31 1_555 1_555

#END
