
#######################################################################
#
#                 Cambridge Crystallographic Data Centre
#                                CCDC 
#
#######################################################################
#
# If this CIF has been generated from an entry in the Cambridge 
# Structural Database, then it will include bibliographic, chemical, 
# crystal, experimental, refinement or atomic coordinate data resulting 
# from the CCDC's data processing and validation procedures.
#
#######################################################################

data_EWANUM
_chemical_name_common            
'Orcinol N,N-dimethylpyridin-4-amine chloroform solvate'
_chemical_formula_moiety         'C7 H10 N2,C7 H8 O2,0.5(C1 H1 Cl3)'
_chemical_name_systematic        
'5-Methylbenzene-1,3-diol N,N-dimethylpyridin-4-amine chloroform solvate'
_symmetry_cell_setting           monoclinic
_symmetry_space_group_name_H-M   'C 2/c'
_symmetry_Int_Tables_number      15
_space_group_name_Hall           '-C 2yn'
loop_
_symmetry_equiv_pos_site_id
_symmetry_equiv_pos_as_xyz
1 x,y,z
2 -x,y,1/2-z
3 1/2+x,1/2+y,z
4 1/2-x,1/2+y,1/2-z
5 -x,-y,-z
6 x,-y,1/2+z
7 1/2-x,1/2-y,-z
8 1/2+x,1/2-y,1/2+z
_cell_length_a                   17.213(3)
_cell_length_b                   8.4780(17)
_cell_length_c                   21.650(4)
_cell_angle_alpha                90
_cell_angle_beta                 91.04(3)
_cell_angle_gamma                90
_cell_volume                     3158.9
_exptl_crystal_colour            colorless
_exptl_crystal_description       plate
_cell_formula_units_Z            8
loop_
_atom_site_label
_atom_site_type_symbol
_atom_site_fract_x
_atom_site_fract_y
_atom_site_fract_z
O1 O 0.30863(8) 0.23753(15) 0.16585(7)
O2 O 0.16674(8) 0.70703(15) 0.21212(6)
C8 C 0.20662(14) 0.5135(2) 0.06446(9)
C9 C 0.25054(14) 0.3857(2) 0.08527(9)
C10 C 0.26572(9) 0.36598(19) 0.14822(8)
C11 C 0.23791(8) 0.47493(18) 0.19081(7)
C12 C 0.19361(9) 0.60282(18) 0.16995(7)
C13 C 0.17768(11) 0.6218(2) 0.10707(8)
C14 C 0.1915(3) 0.5383(4) -0.00399(11)
H11 H 0.2711(16) 0.306(3) 0.0543(13)
H12 H 0.2496(13) 0.460(3) 0.2342(11)
H13 H 0.1442(14) 0.707(3) 0.0938(11)
H14 H 0.3137(15) 0.239(3) 0.2022(14)
H15 H 0.131(2) 0.794(4) 0.1934(16)
H16 H 0.146(2) 0.472(5) -0.0072(18)
H17 H 0.236(4) 0.484(7) -0.029(3)
H18 H 0.160(3) 0.628(7) -0.016(2)
N1 N -0.08277(9) -0.06064(17) 0.32451(7)
N2 N 0.05690(9) 0.34059(17) 0.34433(8)
C1 C -0.11343(11) 0.0830(2) 0.33320(9)
C2 C -0.07043(10) 0.2188(2) 0.34014(10)
C3 C 0.01150(9) 0.21104(19) 0.33801(8)
C4 C 0.04374(10) 0.0594(2) 0.32923(8)
C5 C -0.00466(11) -0.0682(2) 0.32274(8)
C6 C 0.02283(14) 0.4948(2) 0.35335(19)
C7 C 0.14082(10) 0.3270(2) 0.34008(10)
H1 H -0.1710(17) 0.085(3) 0.3356(13)
H2 H -0.0970(17) 0.316(3) 0.3513(13)
H3 H 0.0947(15) 0.044(3) 0.3265(12)
H4 H 0.0165(15) -0.173(3) 0.3154(12)
H5 H 0.1640(16) 0.431(3) 0.3471(12)
H6 H 0.1613(15) 0.250(3) 0.3727(12)
H7 H 0.1552(14) 0.288(3) 0.2976(11)
H8 H -0.012(2) 0.520(4) 0.3181(16)
H9 H -0.016(2) 0.496(5) 0.3905(19)
H10 H 0.0649(18) 0.570(4) 0.3605(14)
Cl1? Cl -0.10381(12) 0.0079(3) 0.01284(9)
Cl2? Cl 0.02118(17) 0.2228(3) -0.00949(11)
Cl3? Cl 0.0566(2) -0.1031(5) 0.00681(11)
C15? C -0.0146(4) 0.0181(12) -0.0188(3)
H19? H -0.017(4) -0.005(8) -0.055(3)
loop_
_geom_bond_atom_site_label_1
_geom_bond_atom_site_label_2
_geom_bond_site_symmetry_1
_geom_bond_site_symmetry_2
N1 C1 1_555 1_555
N2 C3 1_555 1_555
C1 C2 1_555 1_555
C2 C3 1_555 1_555
C3 C4 1_555 1_555
C4 C5 1_555 1_555
C5 N1 1_555 1_555
C6 N2 1_555 1_555
C7 N2 1_555 1_555
O1 C10 1_555 1_555
O2 C12 1_555 1_555
C8 C9 1_555 1_555
C9 C10 1_555 1_555
C10 C11 1_555 1_555
C11 C12 1_555 1_555
C12 C13 1_555 1_555
C13 C8 1_555 1_555
C14 C8 1_555 1_555
H1 C1 1_555 1_555
H2 C2 1_555 1_555
H3 C4 1_555 1_555
H4 C5 1_555 1_555
H5 C7 1_555 1_555
H6 C7 1_555 1_555
H7 C7 1_555 1_555
H8 C6 1_555 1_555
H9 C6 1_555 1_555
H10 C6 1_555 1_555
H11 C9 1_555 1_555
H12 C11 1_555 1_555
H13 C13 1_555 1_555
H14 O1 1_555 1_555
H15 O2 1_555 1_555
H16 C14 1_555 1_555
H17 C14 1_555 1_555
H18 C14 1_555 1_555

#END
