
#######################################################################
#
#                 Cambridge Crystallographic Data Centre
#                                CCDC 
#
#######################################################################
#
# If this CIF has been generated from an entry in the Cambridge 
# Structural Database, then it will include bibliographic, chemical, 
# crystal, experimental, refinement or atomic coordinate data resulting 
# from the CCDC's data processing and validation procedures.
#
#######################################################################

data_EWAPAU
_chemical_name_common            'Orcinol bis(N,N-dimethylpyridin-4-amine)'
_chemical_formula_moiety         'C7 H8 O2,2(C7 H10 N2)'
_chemical_name_systematic        
'5-Methylbenzene-1,3-diol bis(N,N-dimethylpyridin-4-amine)'
_symmetry_cell_setting           monoclinic
_symmetry_space_group_name_H-M   'C 2/c'
_symmetry_Int_Tables_number      15
_space_group_name_Hall           '-C 2yn'
loop_
_symmetry_equiv_pos_site_id
_symmetry_equiv_pos_as_xyz
1 x,y,z
2 -x,y,1/2-z
3 1/2+x,1/2+y,z
4 1/2-x,1/2+y,1/2-z
5 -x,-y,-z
6 x,-y,1/2+z
7 1/2-x,1/2-y,-z
8 1/2+x,1/2-y,1/2+z
_cell_length_a                   13.845(3)
_cell_length_b                   9.6116(17)
_cell_length_c                   15.059(3)
_cell_angle_alpha                90
_cell_angle_beta                 97.096(7)
_cell_angle_gamma                90
_cell_volume                     1988.59
_exptl_crystal_colour            colorless
_exptl_crystal_description       block
_cell_formula_units_Z            4
loop_
_atom_site_label
_atom_site_type_symbol
_atom_site_fract_x
_atom_site_fract_y
_atom_site_fract_z
O1 O -0.10743(8) 0.32536(11) 0.36438(7)
C1 C -0.05346(9) 0.26102(13) 0.30697(8)
C2 C 0.00000 0.33492(18) 0.25000
C3 C -0.05379(9) 0.11645(13) 0.30662(8)
C4 C 0.00000 0.04337(18) 0.25000
C5 C 0.00000 -0.1138(2) 0.25000
H1 H -0.1060(13) 0.423(2) 0.3598(13)
H2 H 0.00000 0.436(2) 0.25000
H3 H -0.0918(10) 0.0708(16) 0.3447(9)
O1A O 0.10743(8) 0.32536(11) 0.13562(7)
C1A C 0.05346(9) 0.26102(13) 0.19303(8)
C3A C 0.05379(9) 0.11645(13) 0.19338(8)
H1A H 0.1060(13) 0.423(2) 0.1402(13)
H3A H 0.0918(10) 0.0708(16) 0.1553(9)
N1 N 0.37993(9) 0.10235(12) 0.37298(8)
N2 N 0.27732(8) 0.47828(11) 0.46765(8)
C6 C 0.42731(10) 0.17095(15) 0.44274(10)
C7 C 0.39809(9) 0.29534(14) 0.47561(9)
C8 C 0.31185(9) 0.35865(13) 0.43545(8)
C9 C 0.26327(10) 0.28910(15) 0.36054(9)
C10 C 0.29908(11) 0.16484(16) 0.33397(10)
C11 C 0.33165(13) 0.55223(18) 0.54164(12)
C12 C 0.19241(13) 0.54751(18) 0.42186(12)
H7 H 0.4878(12) 0.1292(18) 0.4731(10)
H8 H 0.4377(11) 0.3346(16) 0.5268(11)
H9 H 0.2038(12) 0.3247(16) 0.3261(11)
H10 H 0.2624(12) 0.1138(17) 0.2836(11)
H11 H 0.3851(15) 0.604(2) 0.5227(13)
H12 H 0.2882(15) 0.620(2) 0.5661(13)
H13 H 0.3564(15) 0.488(2) 0.5895(14)
H14 H 0.2096(14) 0.600(2) 0.3735(14)
H15 H 0.1682(14) 0.617(2) 0.4643(13)
H16 H 0.1403(15) 0.482(2) 0.4020(13)
H4? H -0.06224 -0.14774 0.21968
H5? H 0.05319 -0.14774 0.21849
H6? H 0.00905 -0.14774 0.31182
loop_
_geom_bond_atom_site_label_1
_geom_bond_atom_site_label_2
_geom_bond_site_symmetry_1
_geom_bond_site_symmetry_2
O1 C1 1_555 1_555
C1 C2 1_555 1_555
C2 H2 1_555 1_555
C3 C1 1_555 1_555
C4 C3 1_555 1_555
C5 C4 1_555 1_555
N1 C6 1_555 1_555
N2 C8 1_555 1_555
C6 C7 1_555 1_555
C7 C8 1_555 1_555
C8 C9 1_555 1_555
C9 C10 1_555 1_555
C10 N1 1_555 1_555
C11 N2 1_555 1_555
C12 N2 1_555 1_555
H1 O1 1_555 1_555
H3 C3 1_555 1_555
H7 C6 1_555 1_555
H8 C7 1_555 1_555
H9 C9 1_555 1_555
H10 C10 1_555 1_555
H11 C11 1_555 1_555
H12 C11 1_555 1_555
H13 C11 1_555 1_555
H14 C12 1_555 1_555
H15 C12 1_555 1_555
H16 C12 1_555 1_555
O1A C1A 1_555 1_555
C1A C2 1_555 1_555
C3A C4 1_555 1_555
H1A O1A 1_555 1_555
H3A C3A 1_555 1_555
C1A C3A 1_555 1_555

#END
