
#######################################################################
#
#                 Cambridge Crystallographic Data Centre
#                                CCDC 
#
#######################################################################
#
# If this CIF has been generated from an entry in the Cambridge 
# Structural Database, then it will include bibliographic, chemical, 
# crystal, experimental, refinement or atomic coordinate data resulting 
# from the CCDC's data processing and validation procedures.
#
#######################################################################

data_EWAYEI
_chemical_formula_moiety         'C18 H23 N2 S1 1+,C7 H5 O3 1-'
_chemical_name_systematic        
'4-(2-((2,4-dimethylphenyl)sulfanyl)phenyl)piperazin-1-ium 4-hydroxybenzoate'
_symmetry_cell_setting           monoclinic
_symmetry_space_group_name_H-M   'P 21/c'
_symmetry_Int_Tables_number      14
_space_group_name_Hall           '-P 2ybc'
loop_
_symmetry_equiv_pos_site_id
_symmetry_equiv_pos_as_xyz
1 x,y,z
2 -x,1/2+y,1/2-z
3 -x,-y,-z
4 x,1/2-y,1/2+z
_cell_length_a                   8.6363(3)
_cell_length_b                   20.6504(8)
_cell_length_c                   12.9243(6)
_cell_angle_alpha                90
_cell_angle_beta                 93.4350(10)
_cell_angle_gamma                90
_cell_volume                     2300.82
_exptl_crystal_colour            colorless
_exptl_crystal_description       chunk
_cell_formula_units_Z            4
loop_
_atom_site_label
_atom_site_type_symbol
_atom_site_fract_x
_atom_site_fract_y
_atom_site_fract_z
C1 C 0.1287(2) 0.50743(10) 0.38634(16)
C2 C 0.0397(2) 0.54874(10) 0.32343(18)
H1 H 0.0314 0.5922 0.3414
C3 C -0.0373(3) 0.52594(11) 0.23396(19)
H2 H -0.0962 0.5544 0.1921
C4 C -0.0283(3) 0.46123(11) 0.20538(18)
C5 C 0.0570(3) 0.42025(11) 0.27146(18)
H3 H 0.0621 0.3766 0.2543
C6 C 0.1351(2) 0.44133(10) 0.36217(17)
C7 C -0.1097(3) 0.43717(15) 0.1064(2)
H4 H -0.0371 0.4144 0.0662
H5 H -0.1517 0.4733 0.0672
H6 H -0.1922 0.4084 0.1226
C8 C 0.2218(3) 0.39424(11) 0.4329(2)
H7 H 0.1995 0.3508 0.4100
H8 H 0.1901 0.3996 0.5023
H9 H 0.3312 0.4022 0.4316
C9 C 0.2609(3) 0.61786(11) 0.48385(17)
C10 C 0.2192(3) 0.65766(13) 0.5644(2)
H10 H 0.1776 0.6396 0.6225
C11 C 0.2392(4) 0.72403(14) 0.5586(3)
H11 H 0.2121 0.7504 0.6131
C12 C 0.2990(4) 0.75097(13) 0.4727(3)
H12 H 0.3112 0.7956 0.4684
C13 C 0.3413(3) 0.71173(11) 0.3925(2)
H13 H 0.3813 0.7305 0.3344
C14 C 0.3253(2) 0.64496(10) 0.39680(17)
C15 C 0.3403(3) 0.62509(11) 0.21028(17)
H14 H 0.4191 0.6561 0.1930
H15 H 0.2400 0.6462 0.2024
C16 C 0.3438(3) 0.56731(12) 0.13877(18)
H16 H 0.2611 0.5376 0.1538
H17 H 0.3268 0.5815 0.0675
C17 C 0.5328(3) 0.51576(11) 0.26245(17)
H18 H 0.6369 0.4981 0.2698
H19 H 0.4612 0.4827 0.2833
C18 C 0.5219(2) 0.57402(11) 0.33155(17)
H20 H 0.5396 0.5611 0.4035
H21 H 0.6009 0.6053 0.3157
N1 N 0.3690(2) 0.60334(8) 0.31585(13)
N2 N 0.4953(2) 0.53367(9) 0.15226(13)
H22 H 0.5703 0.5597 0.1303
H23 H 0.4929 0.4976 0.1130
S1 S 0.23686(7) 0.53347(3) 0.50000(4)
C19 C 0.3626(3) 0.37479(10) 0.03152(18)
C20 C 0.3017(2) 0.32396(9) 0.10119(16)
C21 C 0.3725(3) 0.31279(10) 0.19855(17)
H24 H 0.4579 0.3377 0.2206
C22 C 0.3197(3) 0.26553(10) 0.26412(17)
H25 H 0.3706 0.2583 0.3285
C23 C 0.1905(3) 0.22923(10) 0.23279(17)
C24 C 0.1164(3) 0.24045(11) 0.13676(18)
H26 H 0.0285 0.2167 0.1159
C25 C 0.1723(3) 0.28684(10) 0.07159(17)
H27 H 0.1223 0.2934 0.0067
O1 O 0.4650(2) 0.41301(8) 0.06850(13)
O2 O 0.31152(19) 0.37677(7) -0.06250(12)
O3 O 0.1286(2) 0.18274(8) 0.29356(14)
H28 H 0.1922 0.1728 0.3406
loop_
_geom_bond_atom_site_label_1
_geom_bond_atom_site_label_2
_geom_bond_site_symmetry_1
_geom_bond_site_symmetry_2
C1 C2 1_555 1_555
C2 H1 1_555 1_555
C3 C2 1_555 1_555
H2 C3 1_555 1_555
C4 C3 1_555 1_555
C5 C4 1_555 1_555
H3 C5 1_555 1_555
C6 C1 1_555 1_555
C7 C4 1_555 1_555
H4 C7 1_555 1_555
H5 C7 1_555 1_555
H6 C7 1_555 1_555
C8 C6 1_555 1_555
H7 C8 1_555 1_555
H8 C8 1_555 1_555
H9 C8 1_555 1_555
C9 C10 1_555 1_555
C10 H10 1_555 1_555
C11 C10 1_555 1_555
H11 C11 1_555 1_555
C12 C11 1_555 1_555
H12 C12 1_555 1_555
C13 C12 1_555 1_555
H13 C13 1_555 1_555
C14 C9 1_555 1_555
C15 H14 1_555 1_555
H15 C15 1_555 1_555
C16 C15 1_555 1_555
H16 C16 1_555 1_555
H17 C16 1_555 1_555
C17 H18 1_555 1_555
H19 C17 1_555 1_555
C18 C17 1_555 1_555
H20 C18 1_555 1_555
H21 C18 1_555 1_555
N1 C14 1_555 1_555
N2 C16 1_555 1_555
H22 N2 1_555 1_555
H23 N2 1_555 1_555
S1 C1 1_555 1_555
C19 C20 1_555 1_555
C20 C21 1_555 1_555
C21 H24 1_555 1_555
C22 C21 1_555 1_555
H25 C22 1_555 1_555
C23 C22 1_555 1_555
C24 C23 1_555 1_555
H26 C24 1_555 1_555
C25 C20 1_555 1_555
H27 C25 1_555 1_555
O1 C19 1_555 1_555
O2 C19 1_555 1_555
O3 C23 1_555 1_555
H28 O3 1_555 1_555
C5 C6 1_555 1_555
C9 S1 1_555 1_555
C13 C14 1_555 1_555
C15 N1 1_555 1_555
C17 N2 1_555 1_555
C18 N1 1_555 1_555
C24 C25 1_555 1_555

#END
