
#######################################################################
#
#                 Cambridge Crystallographic Data Centre
#                                CCDC 
#
#######################################################################
#
# If this CIF has been generated from an entry in the Cambridge 
# Structural Database, then it will include bibliographic, chemical, 
# crystal, experimental, refinement or atomic coordinate data resulting 
# from the CCDC's data processing and validation procedures.
#
#######################################################################

data_EWAYOS
_chemical_formula_moiety         'C18 H23 N2 S1 1+,Cl1 1-'
_chemical_name_systematic        
'4-(2-((2,4-dimethylphenyl)sulfanyl)phenyl)piperazin-1-ium chloride'
_symmetry_cell_setting           monoclinic
_symmetry_space_group_name_H-M   'P 21/c'
_symmetry_Int_Tables_number      14
_space_group_name_Hall           '-P 2ybc'
loop_
_symmetry_equiv_pos_site_id
_symmetry_equiv_pos_as_xyz
1 x,y,z
2 -x,1/2+y,1/2-z
3 -x,-y,-z
4 x,1/2-y,1/2+z
_cell_length_a                   16.9383(8)
_cell_length_b                   6.5283(3)
_cell_length_c                   17.8173(9)
_cell_angle_alpha                90
_cell_angle_beta                 111.406(2)
_cell_angle_gamma                90
_cell_volume                     1834.3
_exptl_crystal_colour            colorless
_exptl_crystal_description       needle
_cell_formula_units_Z            4
loop_
_atom_site_label
_atom_site_type_symbol
_atom_site_fract_x
_atom_site_fract_y
_atom_site_fract_z
C1 C 0.57012(19) 0.0827(5) 0.4118(2)
C2 C 0.5116(2) 0.1712(6) 0.3433(2)
H1 H 0.5234 0.2970 0.3252
C3 C 0.4362(2) 0.0730(8) 0.3021(2)
H2 H 0.3973 0.1342 0.2564
C4 C 0.4172(3) -0.1125(8) 0.3269(3)
C5 C 0.4761(2) -0.1993(6) 0.3940(3)
H3 H 0.4640 -0.3262 0.4110
C6 C 0.5529(2) -0.1065(5) 0.4378(2)
C7 C 0.6149(3) -0.2103(6) 0.5111(3)
H4 H 0.5866 -0.3179 0.5281
H5 H 0.6370 -0.1121 0.5538
H6 H 0.6606 -0.2671 0.4981
C8 C 0.3329(3) -0.2182(10) 0.2831(3)
H7 H 0.3383 -0.3621 0.2951
H8 H 0.3168 -0.1987 0.2260
H9 H 0.2902 -0.1607 0.3004
C9 C 0.74195(17) 0.1127(4) 0.43822(17)
C10 C 0.72882(19) -0.0522(5) 0.38589(18)
H10 H 0.6761 -0.1158 0.3663
C11 C 0.7935(2) -0.1231(5) 0.36255(17)
H11 H 0.7842 -0.2339 0.3276
C12 C 0.8710(2) -0.0301(5) 0.39095(18)
H12 H 0.9139 -0.0754 0.3742
C13 C 0.88576(18) 0.1316(4) 0.44464(17)
H13 H 0.9390 0.1928 0.4643
C14 C 0.82210(17) 0.2034(4) 0.46938(15)
C15 C 0.89790(19) 0.5181(4) 0.52786(18)
H14 H 0.8879 0.5649 0.4735
H15 H 0.9539 0.4571 0.5494
C16 C 0.89318(19) 0.6968(4) 0.57967(18)
H16 H 0.9357 0.7979 0.5811
H17 H 0.8378 0.7608 0.5570
C17 C 0.8468(2) 0.4604(4) 0.66285(19)
H18 H 0.7898 0.5161 0.6444
H19 H 0.8604 0.4089 0.7172
C18 C 0.85121(19) 0.2890(4) 0.60819(16)
H20 H 0.9070 0.2266 0.6292
H21 H 0.8097 0.1849 0.6065
N1 N 0.83447(13) 0.3666(3) 0.52639(12)
N2 N 0.90794(14) 0.6239(3) 0.66270(14)
H22 H 0.9028 0.7299 0.6929
H23 H 0.9611 0.5751 0.6850
S1 S 0.66188(5) 0.22723(15) 0.46592(7)
Cl1 Cl 0.90598(5) 0.97548(10) 0.77657(4)
loop_
_geom_bond_atom_site_label_1
_geom_bond_atom_site_label_2
_geom_bond_site_symmetry_1
_geom_bond_site_symmetry_2
C1 C2 1_555 1_555
C2 H1 1_555 1_555
C3 C2 1_555 1_555
H2 C3 1_555 1_555
C4 C3 1_555 1_555
C5 C4 1_555 1_555
H3 C5 1_555 1_555
C6 C1 1_555 1_555
C7 C6 1_555 1_555
H4 C7 1_555 1_555
H5 C7 1_555 1_555
H6 C7 1_555 1_555
C8 C4 1_555 1_555
H7 C8 1_555 1_555
H8 C8 1_555 1_555
H9 C8 1_555 1_555
C9 C10 1_555 1_555
C10 H10 1_555 1_555
C11 C10 1_555 1_555
H11 C11 1_555 1_555
C12 C11 1_555 1_555
H12 C12 1_555 1_555
C13 C12 1_555 1_555
H13 C13 1_555 1_555
C14 C9 1_555 1_555
C15 H14 1_555 1_555
H15 C15 1_555 1_555
C16 C15 1_555 1_555
H16 C16 1_555 1_555
H17 C16 1_555 1_555
C17 H18 1_555 1_555
H19 C17 1_555 1_555
C18 C17 1_555 1_555
H20 C18 1_555 1_555
H21 C18 1_555 1_555
N1 C14 1_555 1_555
N2 C16 1_555 1_555
H22 N2 1_555 1_555
H23 N2 1_555 1_555
S1 C1 1_555 1_555
C5 C6 1_555 1_555
C9 S1 1_555 1_555
C13 C14 1_555 1_555
C15 N1 1_555 1_555
C17 N2 1_555 1_555
C18 N1 1_555 1_555

#END
