
#######################################################################
#
#                 Cambridge Crystallographic Data Centre
#                                CCDC 
#
#######################################################################
#
# If this CIF has been generated from an entry in the Cambridge 
# Structural Database, then it will include bibliographic, chemical, 
# crystal, experimental, refinement or atomic coordinate data resulting 
# from the CCDC's data processing and validation procedures.
#
#######################################################################

data_EWAYOS01
_chemical_name_common            'vortioxetine hydrochloride'
_chemical_formula_moiety         'C18 H23 N2 S1 1+,Cl1 1-'
_chemical_name_systematic        
'4-(2-((2,4-dimethylphenyl)sulfanyl)phenyl)piperazin-1-ium chloride'
_chemical_properties_biological  
'Vortioxetine is a multimodal serotonergic agent used to treat major depressive disorder'
_symmetry_cell_setting           monoclinic
_symmetry_space_group_name_H-M   'P 21/c'
_symmetry_Int_Tables_number      14
_space_group_name_Hall           '-P 2ybc'
loop_
_symmetry_equiv_pos_site_id
_symmetry_equiv_pos_as_xyz
1 x,y,z
2 -x,1/2+y,1/2-z
3 -x,-y,-z
4 x,1/2-y,1/2+z
_cell_length_a                   16.927(2)
_cell_length_b                   6.5244(9)
_cell_length_c                   17.812(2)
_cell_angle_alpha                90
_cell_angle_beta                 111.411(2)
_cell_angle_gamma                90
_cell_volume                     1831.37
_exptl_crystal_colour            colorless
_exptl_crystal_description       block
_cell_formula_units_Z            4
loop_
_atom_site_label
_atom_site_type_symbol
_atom_site_fract_x
_atom_site_fract_y
_atom_site_fract_z
C1 C 0.65343(16) 0.5392(3) -0.16262(13)
H1 H 0.6403 0.5904 -0.2170
H2 H 0.7105 0.4833 -0.1437
C2 C 0.60673(15) 0.3027(3) -0.08003(13)
H3 H 0.6622 0.2388 -0.0574
H4 H 0.5643 0.2012 -0.0816
C3 C 0.60179(15) 0.4818(3) -0.02783(13)
H5 H 0.5458 0.5432 -0.0494
H6 H 0.6117 0.4348 0.0265
C4 C 0.64867(15) 0.7114(3) -0.10830(12)
H7 H 0.6900 0.8161 -0.1067
H8 H 0.5927 0.7731 -0.1292
C5 C 0.67779(13) 0.7973(3) 0.03039(11)
C6 C 0.61447(14) 0.8681(3) 0.05546(13)
H9 H 0.5614 0.8058 0.0361
C7 C 0.62884(16) 1.0303(4) 0.10900(13)
H10 H 0.5858 1.0758 0.1257
C8 C 0.70651(15) 1.1232(4) 0.13716(12)
H11 H 0.7160 1.2344 0.1720
C9 C 0.77113(15) 1.0519(3) 0.11380(13)
H12 H 0.8240 1.1153 0.1335
C10 C 0.75797(13) 0.8874(3) 0.06150(12)
C11 C 0.92972(15) 0.9177(4) 0.08803(14)
C12 C 0.98872(17) 0.8288(5) 0.15657(16)
H13 H 0.9772 0.7024 0.1745
C13 C 1.06446(18) 0.9277(6) 0.19812(17)
H14 H 1.1034 0.8667 0.2439
C14 C 1.08295(19) 1.1133(6) 0.1732(2)
C15 C 1.0239(2) 1.1992(4) 0.10584(19)
H15 H 1.0360 1.3258 0.0886
C16 C 0.94687(16) 1.1074(4) 0.06198(15)
C17 C 0.8850(2) 1.2095(5) -0.01098(19)
H16 H 0.8622 1.1102 -0.0532
H17 H 0.9134 1.3155 -0.0289
H18 H 0.8398 1.2684 0.0022
C18 C 1.1674(2) 1.2185(8) 0.2164(2)
H19 H 1.2125 1.1354 0.2123
H20 H 1.1755 1.2372 0.2721
H21 H 1.1678 1.3496 0.1920
H22 H 0.5972(15) 0.260(4) -0.1946(14)
H23 H 0.5369(16) 0.428(4) -0.1868(13)
N1 N 0.59204(13) 0.3761(3) -0.16294(11)
N2 N 0.66585(10) 0.6329(2) -0.02656(9)
S1 S 0.83810(4) 0.77286(11) 0.03406(5)
Cl1 Cl 0.40605(3) 0.97531(8) 0.27655(3)
loop_
_geom_bond_atom_site_label_1
_geom_bond_atom_site_label_2
_geom_bond_site_symmetry_1
_geom_bond_site_symmetry_2
C1 H1 1_555 1_555
H2 C1 1_555 1_555
C2 H3 1_555 1_555
H4 C2 1_555 1_555
C3 C2 1_555 1_555
H5 C3 1_555 1_555
H6 C3 1_555 1_555
C4 C1 1_555 1_555
H7 C4 1_555 1_555
H8 C4 1_555 1_555
C5 C6 1_555 1_555
C6 H9 1_555 1_555
C7 C6 1_555 1_555
H10 C7 1_555 1_555
C8 C7 1_555 1_555
H11 C8 1_555 1_555
C9 C8 1_555 1_555
H12 C9 1_555 1_555
C10 C5 1_555 1_555
C11 C12 1_555 1_555
C12 H13 1_555 1_555
C13 C12 1_555 1_555
H14 C13 1_555 1_555
C14 C13 1_555 1_555
C15 C14 1_555 1_555
H15 C15 1_555 1_555
C16 C11 1_555 1_555
C17 C16 1_555 1_555
H16 C17 1_555 1_555
H17 C17 1_555 1_555
H18 C17 1_555 1_555
C18 C14 1_555 1_555
H19 C18 1_555 1_555
H20 C18 1_555 1_555
H21 C18 1_555 1_555
H22 N1 1_555 1_555
H23 N1 1_555 1_555
N1 C1 1_555 1_555
N2 C3 1_555 1_555
S1 C10 1_555 1_555
C2 N1 1_555 1_555
C4 N2 1_555 1_555
C5 N2 1_555 1_555
C9 C10 1_555 1_555
C11 S1 1_555 1_555
C15 C16 1_555 1_555

#END
