
#######################################################################
#
#                 Cambridge Crystallographic Data Centre
#                                CCDC 
#
#######################################################################
#
# If this CIF has been generated from an entry in the Cambridge 
# Structural Database, then it will include bibliographic, chemical, 
# crystal, experimental, refinement or atomic coordinate data resulting 
# from the CCDC's data processing and validation procedures.
#
#######################################################################

data_EWAZAF
_chemical_formula_moiety         'C18 H23 N2 S1 1+,Br1 1-'
_chemical_name_systematic        
'4-(2-((2,4-dimethylphenyl)sulfanyl)phenyl)piperazin-1-ium bromide'
_symmetry_cell_setting           monoclinic
_symmetry_space_group_name_H-M   'P 21/c'
_symmetry_Int_Tables_number      14
_space_group_name_Hall           '-P 2ybc'
loop_
_symmetry_equiv_pos_site_id
_symmetry_equiv_pos_as_xyz
1 x,y,z
2 -x,1/2+y,1/2-z
3 -x,-y,-z
4 x,1/2-y,1/2+z
_cell_length_a                   13.0982(8)
_cell_length_b                   18.2551(9)
_cell_length_c                   7.8088(4)
_cell_angle_alpha                90
_cell_angle_beta                 100.698(2)
_cell_angle_gamma                90
_cell_volume                     1834.7
_exptl_crystal_colour            colorless
_exptl_crystal_description       platelet
_cell_formula_units_Z            4
loop_
_atom_site_label
_atom_site_type_symbol
_atom_site_fract_x
_atom_site_fract_y
_atom_site_fract_z
C1 C 0.1502(3) 0.5710(2) 0.1072(5)
C2 C 0.1862(4) 0.5949(3) -0.0389(6)
H1 H 0.2541 0.5846 -0.0505
C3 C 0.1227(5) 0.6339(3) -0.1668(6)
H2 H 0.1487 0.6500 -0.2633
C4 C 0.0220(5) 0.6496(3) -0.1550(7)
C5 C -0.0134(4) 0.6242(3) -0.0103(7)
H3 H -0.0820 0.6338 -0.0014
C6 C 0.0478(4) 0.5854(2) 0.1220(6)
C7 C -0.0483(6) 0.6927(4) -0.2942(9)
H4 H -0.0112 0.7054 -0.3851
H5 H -0.0706 0.7366 -0.2442
H6 H -0.1079 0.6636 -0.3418
C8 C 0.0038(4) 0.5598(3) 0.2785(7)
H7 H 0.0564 0.5338 0.3573
H8 H -0.0543 0.5280 0.2403
H9 H -0.0185 0.6015 0.3369
C9 C 0.2796(3) 0.5848(2) 0.4300(5)
C10 C 0.2591(4) 0.6596(2) 0.4136(6)
H10 H 0.2135 0.6771 0.3165
C11 C 0.3056(4) 0.7080(2) 0.5399(6)
H11 H 0.2902 0.7577 0.5285
C12 C 0.3744(4) 0.6833(2) 0.6819(6)
H12 H 0.4080 0.7163 0.7640
C13 C 0.3936(3) 0.6089(2) 0.7027(5)
H13 H 0.4396 0.5923 0.8003
C14 C 0.3453(3) 0.5590(2) 0.5807(5)
C15 C 0.2728(3) 0.4420(2) 0.6412(6)
H14 H 0.2087 0.4606 0.5724
H15 H 0.2703 0.4491 0.7634
C16 C 0.2840(4) 0.3618(2) 0.6043(6)
H16 H 0.2260 0.3349 0.6344
H17 H 0.2835 0.3547 0.4810
C17 C 0.4729(4) 0.3762(2) 0.6742(6)
H18 H 0.4814 0.3694 0.5544
H19 H 0.5354 0.3589 0.7500
C18 C 0.4572(3) 0.4568(2) 0.7082(6)
H20 H 0.4525 0.4641 0.8295
H21 H 0.5159 0.4848 0.6841
N1 N 0.3621(3) 0.48179(17) 0.5965(4)
N2 N 0.3821(3) 0.33361(16) 0.7066(5)
H22 H 0.3899 0.2864 0.6786
H23 H 0.3792 0.3357 0.8208
S1 S 0.23556(10) 0.51918(6) 0.26458(15)
Br1 Br 0.33920(4) 0.16416(2) 0.60005(6)
loop_
_geom_bond_atom_site_label_1
_geom_bond_atom_site_label_2
_geom_bond_site_symmetry_1
_geom_bond_site_symmetry_2
C1 C2 1_555 1_555
C2 H1 1_555 1_555
C3 C2 1_555 1_555
H2 C3 1_555 1_555
C4 C3 1_555 1_555
C5 C4 1_555 1_555
H3 C5 1_555 1_555
C6 C1 1_555 1_555
C7 C4 1_555 1_555
H4 C7 1_555 1_555
H5 C7 1_555 1_555
H6 C7 1_555 1_555
C8 C6 1_555 1_555
H7 C8 1_555 1_555
H8 C8 1_555 1_555
H9 C8 1_555 1_555
C9 C10 1_555 1_555
C10 H10 1_555 1_555
C11 C10 1_555 1_555
H11 C11 1_555 1_555
C12 C11 1_555 1_555
H12 C12 1_555 1_555
C13 C12 1_555 1_555
H13 C13 1_555 1_555
C14 C9 1_555 1_555
C15 H14 1_555 1_555
H15 C15 1_555 1_555
C16 C15 1_555 1_555
H16 C16 1_555 1_555
H17 C16 1_555 1_555
C17 H18 1_555 1_555
H19 C17 1_555 1_555
C18 C17 1_555 1_555
H20 C18 1_555 1_555
H21 C18 1_555 1_555
N1 C14 1_555 1_555
N2 C16 1_555 1_555
H22 N2 1_555 1_555
H23 N2 1_555 1_555
S1 C1 1_555 1_555
C5 C6 1_555 1_555
C9 S1 1_555 1_555
C13 C14 1_555 1_555
C15 N1 1_555 1_555
C17 N2 1_555 1_555
C18 N1 1_555 1_555

#END
