
#######################################################################
#
#                 Cambridge Crystallographic Data Centre
#                                CCDC 
#
#######################################################################
#
# If this CIF has been generated from an entry in the Cambridge 
# Structural Database, then it will include bibliographic, chemical, 
# crystal, experimental, refinement or atomic coordinate data resulting 
# from the CCDC's data processing and validation procedures.
#
#######################################################################

data_EWIBOD
_chemical_formula_moiety         'C23 H24 N1 O2 P1'
_chemical_name_systematic        
'N-(2-(hydroxymethyl)-1-phenylbut-3-en-1-yl)-P,P-diphenylphosphinic amide'
_symmetry_cell_setting           tetragonal
_symmetry_space_group_name_H-M   'P 41'
_symmetry_Int_Tables_number      76
_space_group_name_Hall           'P 4w'
loop_
_symmetry_equiv_pos_site_id
_symmetry_equiv_pos_as_xyz
1 x,y,z
2 -y,x,1/4+z
3 -x,-y,1/2+z
4 y,-x,3/4+z
_cell_length_a                   10.7378(3)
_cell_length_b                   10.7378(3)
_cell_length_c                   18.4051(9)
_cell_angle_alpha                90
_cell_angle_beta                 90
_cell_angle_gamma                90
_cell_volume                     2122.11
_cell_formula_units_Z            4
loop_
_atom_site_label
_atom_site_type_symbol
_atom_site_fract_x
_atom_site_fract_y
_atom_site_fract_z
C1 C 0.0942(3) 0.3810(3) 0.88157(16)
C2 C 0.0782(3) 0.4692(4) 0.82834(19)
H1 H 0.0874 0.5534 0.8390
C3 C 0.0480(5) 0.4308(6) 0.7580(2)
H2 H 0.0373 0.4897 0.7215
C4 C 0.0343(5) 0.3089(8) 0.7428(3)
H3 H 0.0155 0.2843 0.6956
C5 C 0.0476(5) 0.2218(6) 0.7952(4)
H4 H 0.0367 0.1380 0.7842
C6 C 0.0775(4) 0.2571(4) 0.8653(3)
H5 H 0.0862 0.1972 0.9014
C7 C -0.0052(3) 0.4684(3) 1.01992(15)
C8 C -0.0509(3) 0.5869(3) 1.01471(18)
H6 H -0.0098 0.6453 0.9861
C9 C -0.1591(3) 0.6210(4) 1.0522(2)
H7 H -0.1894 0.7020 1.0494
C10 C -0.2199(3) 0.5331(5) 1.0930(2)
H8 H -0.2911 0.5553 1.1186
C11 C -0.1775(4) 0.4138(5) 1.0965(2)
H9 H -0.2212 0.3545 1.1231
C12 C -0.0710(3) 0.3814(3) 1.06115(19)
H10 H -0.0416 0.3002 1.0645
C13 C 0.2672(2) 0.6063(2) 1.03387(13)
H11 H 0.2277 0.5660 1.0757
C14 C 0.2304(2) 0.7422(2) 1.03628(15)
C15 C 0.1924(3) 0.7950(3) 1.10068(17)
H12 H 0.1866 0.7454 1.1420
C16 C 0.1625(3) 0.9206(3) 1.1056(2)
H13 H 0.1368 0.9540 1.1497
C17 C 0.1708(3) 0.9950(3) 1.0456(3)
H14 H 0.1503 1.0790 1.0483
C18 C 0.2096(3) 0.9437(3) 0.9818(2)
H15 H 0.2168 0.9941 0.9409
C19 C 0.2386(3) 0.8186(3) 0.97628(18)
H16 H 0.2638 0.7859 0.9319
C20 C 0.4091(2) 0.5877(2) 1.04258(14)
H17 H 0.4497 0.6315 1.0023
C21 C 0.4474(3) 0.4519(3) 1.03805(17)
H18 H 0.4275 0.4202 0.9901
H19 H 0.5369 0.4458 1.0446
C22 C 0.4537(3) 0.6470(3) 1.11232(18)
H20 H 0.4257 0.6119 1.1555
C23 C 0.5274(4) 0.7423(4) 1.1176(3)
H21 H 0.5578 0.7805 1.0758
H22 H 0.5499 0.7724 1.1631
N1 N 0.2198(2) 0.5431(2) 0.96841(15)
H23 H 0.257(2) 0.552(2) 0.9364(13)
O1 O 0.18610(18) 0.30875(17) 1.01233(12)
O2 O 0.3872(3) 0.3771(2) 1.09113(13)
H24 H 0.330(3) 0.353(3) 1.0734(18)
P1 P 0.13346(6) 0.41914(6) 0.97379(4)
loop_
_geom_bond_atom_site_label_1
_geom_bond_atom_site_label_2
_geom_bond_site_symmetry_1
_geom_bond_site_symmetry_2
C1 C2 1_555 1_555
C2 H1 1_555 1_555
C3 C2 1_555 1_555
H2 C3 1_555 1_555
C4 C3 1_555 1_555
H3 C4 1_555 1_555
C5 C4 1_555 1_555
H4 C5 1_555 1_555
C6 C1 1_555 1_555
H5 C6 1_555 1_555
C7 C8 1_555 1_555
C8 H6 1_555 1_555
C9 C8 1_555 1_555
H7 C9 1_555 1_555
C10 C9 1_555 1_555
H8 C10 1_555 1_555
C11 C10 1_555 1_555
H9 C11 1_555 1_555
C12 C7 1_555 1_555
H10 C12 1_555 1_555
C13 H11 1_555 1_555
C14 C13 1_555 1_555
C15 C14 1_555 1_555
H12 C15 1_555 1_555
C16 C15 1_555 1_555
H13 C16 1_555 1_555
C17 C16 1_555 1_555
H14 C17 1_555 1_555
C18 C17 1_555 1_555
H15 C18 1_555 1_555
C19 C14 1_555 1_555
H16 C19 1_555 1_555
C20 C13 1_555 1_555
H17 C20 1_555 1_555
C21 C20 1_555 1_555
H18 C21 1_555 1_555
H19 C21 1_555 1_555
C22 C20 1_555 1_555
H20 C22 1_555 1_555
C23 C22 1_555 1_555
H21 C23 1_555 1_555
H22 C23 1_555 1_555
N1 C13 1_555 1_555
H23 N1 1_555 1_555
O1 P1 1_555 1_555
O2 C21 1_555 1_555
H24 O2 1_555 1_555
P1 C1 1_555 1_555
C5 C6 1_555 1_555
C7 P1 1_555 1_555
C11 C12 1_555 1_555
C18 C19 1_555 1_555
N1 P1 1_555 1_555

#END
