
#######################################################################
#
#                 Cambridge Crystallographic Data Centre
#                                CCDC 
#
#######################################################################
#
# If this CIF has been generated from an entry in the Cambridge 
# Structural Database, then it will include bibliographic, chemical, 
# crystal, experimental, refinement or atomic coordinate data resulting 
# from the CCDC's data processing and validation procedures.
#
#######################################################################

data_EWIKOM
_chemical_formula_moiety         'C24 H12,C10 H2 N4'
_chemical_name_systematic        'benzene-1,2,4,5-tetracarbonitrile coronene'
_symmetry_cell_setting           monoclinic
_symmetry_space_group_name_H-M   'C c'
_symmetry_Int_Tables_number      9
_space_group_name_Hall           'C -2yc'
loop_
_symmetry_equiv_pos_site_id
_symmetry_equiv_pos_as_xyz
1 x,y,z
2 x,-y,1/2+z
3 1/2+x,1/2+y,z
4 1/2+x,1/2-y,1/2+z
_cell_length_a                   11.934(5)
_cell_length_b                   32.564(14)
_cell_length_c                   7.195(3)
_cell_angle_alpha                90
_cell_angle_beta                 126.688(4)
_cell_angle_gamma                90
_cell_volume                     2242.2
_exptl_crystal_colour            red
_exptl_crystal_description       prism
_cell_formula_units_Z            4
loop_
_atom_site_label
_atom_site_type_symbol
_atom_site_fract_x
_atom_site_fract_y
_atom_site_fract_z
N1 N 0.1675(3) 0.59601(9) 0.5810(5)
N2 N 0.8422(3) 0.71159(9) 0.8736(5)
N3 N 0.1490(3) 0.71723(9) 0.4620(5)
C1 C 0.2505(3) 0.69999(10) 0.5289(5)
N4 N 0.8452(3) 0.58991(9) 0.9802(5)
C2 C 0.3801(3) 0.63499(9) 0.6563(5)
C3 C 0.6164(3) 0.67554(9) 0.7587(5)
C4 C 0.5009(3) 0.61290(9) 0.7433(5)
H1 H 0.5023 0.5847 0.7651
C5 C 0.6205(3) 0.63273(9) 0.7982(5)
C6 C 0.7464(3) 0.60952(10) 0.8975(5)
C7 C 0.3763(3) 0.67727(9) 0.6163(5)
C8 C 0.4941(3) 0.69712(8) 0.6669(5)
H2 H 0.4909 0.7251 0.6390
C9 C 0.7414(3) 0.69581(10) 0.8202(5)
C10 C 0.2598(3) 0.61375(10) 0.6112(5)
C11 C 0.5840(3) 0.56598(9) 0.3599(5)
C12 C 0.1357(3) 0.63513(10) 0.0232(5)
H3 H 0.0433 0.6343 -0.0288
C13 C 0.3846(3) 0.52710(9) 0.2845(5)
C14 C 0.3564(3) 0.60014(9) 0.1851(5)
C15 C 0.5567(3) 0.63983(10) 0.2602(5)
C16 C 0.4424(3) 0.56442(9) 0.2767(5)
C17 C 0.7539(3) 0.67742(10) 0.3287(5)
H4 H 0.7920 0.7018 0.3220
C18 C 0.3321(3) 0.67409(9) 0.0991(5)
C19 C 0.7806(3) 0.60495(10) 0.4260(5)
C20 C 0.4146(3) 0.63800(9) 0.1795(5)
C21 C 0.1616(3) 0.56038(10) 0.1161(5)
H5 H 0.0693 0.5589 0.0642
C22 C 0.2164(3) 0.59843(10) 0.1050(5)
C23 C 0.6140(3) 0.67720(9) 0.2535(5)
C24 C 0.6407(3) 0.60366(9) 0.3475(5)
C25 C 0.2428(3) 0.52627(10) 0.2017(5)
H6 H 0.2046 0.5017 0.2061
C26 C 0.6693(3) 0.53073(9) 0.4539(5)
C27 C 0.4713(3) 0.49230(10) 0.3790(5)
H7 H 0.4348 0.4676 0.3857
C28 C 0.5296(3) 0.71291(9) 0.1749(5)
H8 H 0.5671 0.7379 0.1737
C29 C 0.1908(3) 0.67131(10) 0.0195(5)
H9 H 0.1352 0.6947 -0.0361
C30 C 0.8347(3) 0.64286(10) 0.4107(5)
H10 H 0.9260 0.6440 0.4570
C31 C 0.8097(3) 0.53313(10) 0.5330(5)
H11 H 0.8665 0.5100 0.5975
C32 C 0.3944(3) 0.71147(10) 0.1009(5)
H12 H 0.3418 0.7355 0.0506
C33 C 0.6077(3) 0.49401(10) 0.4607(5)
H13 H 0.6621 0.4704 0.5230
C34 C 0.8633(3) 0.56877(10) 0.5163(5)
H14 H 0.9550 0.5694 0.5645
loop_
_geom_bond_atom_site_label_1
_geom_bond_atom_site_label_2
_geom_bond_site_symmetry_1
_geom_bond_site_symmetry_2
N1 C10 1_555 1_555
N2 C9 1_555 1_555
N3 C1 1_555 1_555
C1 C7 1_555 1_555
N4 C6 1_555 1_555
C2 C4 1_555 1_555
C3 C5 1_555 1_555
C4 H1 1_555 1_555
C5 C4 1_555 1_555
C6 C5 1_555 1_555
C7 C2 1_555 1_555
C8 C3 1_555 1_555
H2 C8 1_555 1_555
C9 C3 1_555 1_555
C10 C2 1_555 1_555
C11 C16 1_555 1_555
C12 H3 1_555 1_555
C13 C16 1_555 1_555
C14 C16 1_555 1_555
C15 C20 1_555 1_555
C17 H4 1_555 1_555
C18 C20 1_555 1_555
C19 C24 1_555 1_555
C20 C14 1_555 1_555
C21 H5 1_555 1_555
C22 C12 1_555 1_555
C23 C15 1_555 1_555
C24 C11 1_555 1_555
C25 C13 1_555 1_555
H6 C25 1_555 1_555
C26 C11 1_555 1_555
C27 C13 1_555 1_555
H7 C27 1_555 1_555
C28 C23 1_555 1_555
H8 C28 1_555 1_555
C29 C12 1_555 1_555
H9 C29 1_555 1_555
C30 C17 1_555 1_555
H10 C30 1_555 1_555
C31 C26 1_555 1_555
H11 C31 1_555 1_555
C32 C18 1_555 1_555
H12 C32 1_555 1_555
C33 C26 1_555 1_555
H13 C33 1_555 1_555
C34 C19 1_555 1_555
H14 C34 1_555 1_555
C7 C8 1_555 1_555
C14 C22 1_555 1_555
C15 C24 1_555 1_555
C17 C23 1_555 1_555
C18 C29 1_555 1_555
C19 C30 1_555 1_555
C21 C22 1_555 1_555
C21 C25 1_555 1_555
C27 C33 1_555 1_555
C28 C32 1_555 1_555
C31 C34 1_555 1_555

#END
