
#######################################################################
#
#                 Cambridge Crystallographic Data Centre
#                                CCDC 
#
#######################################################################
#
# If this CIF has been generated from an entry in the Cambridge 
# Structural Database, then it will include bibliographic, chemical, 
# crystal, experimental, refinement or atomic coordinate data resulting 
# from the CCDC's data processing and validation procedures.
#
#######################################################################

data_EWILOL
_chemical_formula_moiety         'C18 H23 N1 O3'
_chemical_name_systematic        
rac-N,N-Diisopropyl-2-hydroxy-8-methoxy-1-naphthamide
_symmetry_cell_setting           monoclinic
_symmetry_space_group_name_H-M   'P 21/n'
_symmetry_Int_Tables_number      14
_space_group_name_Hall           '-P 2yn'
loop_
_symmetry_equiv_pos_site_id
_symmetry_equiv_pos_as_xyz
1 x,y,z
2 1/2+x,1/2-y,1/2+z
3 -x,-y,-z
4 1/2-x,1/2+y,1/2-z
_cell_length_a                   10.5054(10)
_cell_length_b                   9.2537(9)
_cell_length_c                   16.9402(16)
_cell_angle_alpha                90
_cell_angle_beta                 96.405(2)
_cell_angle_gamma                90
_cell_volume                     1636.54
_exptl_crystal_colour            colorless
_exptl_crystal_description       block
_chemical_melting_point          247-248deg.C
_cell_formula_units_Z            4
loop_
_atom_site_label
_atom_site_type_symbol
_atom_site_fract_x
_atom_site_fract_y
_atom_site_fract_z
O1 O 0.56339(10) 0.09823(11) 0.65702(6)
O2 O 0.62142(9) 0.31971(11) 0.78525(6)
O3 O 0.71277(10) 0.60601(11) 0.69500(6)
H1 H 0.7686 0.6729 0.6985
N1 N 0.47248(11) 0.40802(13) 0.69015(7)
C1 C 0.69166(13) 0.36157(15) 0.65817(8)
C2 C 0.72747(13) 0.24062(16) 0.61293(8)
C3 C 0.66163(14) 0.10491(16) 0.61055(8)
C4 C 0.69654(15) -0.00681(17) 0.56404(9)
H2 H 0.6519 -0.0962 0.5632
C5 C 0.79895(15) 0.01133(18) 0.51742(9)
H3 H 0.8219 -0.0659 0.4849
C6 C 0.86503(14) 0.13783(18) 0.51856(9)
H4 H 0.9337 0.1479 0.4870
C7 C 0.83209(13) 0.25537(16) 0.56675(8)
C8 C 0.89991(14) 0.38797(17) 0.56929(9)
H5 H 0.9722 0.3968 0.5406
C9 C 0.86390(14) 0.50362(17) 0.61205(9)
H6 H 0.9107 0.5915 0.6126
C10 C 0.75644(14) 0.49185(16) 0.65563(9)
C11 C 0.59029(13) 0.35783(14) 0.71506(8)
C12 C 0.43147(14) 0.43657(17) 0.60498(8)
H7 H 0.5048 0.4107 0.5748
C13 C 0.31865(17) 0.3388(2) 0.57469(10)
H8 H 0.3420 0.2376 0.5854
H9 H 0.2978 0.3527 0.5174
H10 H 0.2440 0.3636 0.6019
C14 C 0.40213(16) 0.59597(18) 0.58973(10)
H11 H 0.4768 0.6541 0.6098
H12 H 0.3285 0.6242 0.6170
H13 H 0.3822 0.6122 0.5325
C15 C 0.37926(13) 0.43510(17) 0.74748(8)
H14 H 0.3009 0.4761 0.7165
C16 C 0.33767(15) 0.2964(2) 0.78669(10)
H15 H 0.3062 0.2266 0.7455
H16 H 0.2692 0.3187 0.8196
H17 H 0.4109 0.2550 0.8200
C17 C 0.42868(16) 0.54986(18) 0.80826(9)
H18 H 0.4537 0.6365 0.7805
H19 H 0.5031 0.5120 0.8420
H20 H 0.3610 0.5746 0.8413
C18 C 0.50331(17) -0.03879(18) 0.66520(11)
H21 H 0.4352 -0.0287 0.6999
H22 H 0.5670 -0.1085 0.6884
H23 H 0.4665 -0.0731 0.6128
loop_
_geom_bond_atom_site_label_1
_geom_bond_atom_site_label_2
_geom_bond_site_symmetry_1
_geom_bond_site_symmetry_2
O1 C3 1_555 1_555
O2 C11 1_555 1_555
O3 H1 1_555 1_555
N1 C11 1_555 1_555
C1 C2 1_555 1_555
C2 C3 1_555 1_555
C3 C4 1_555 1_555
C4 H2 1_555 1_555
C5 C4 1_555 1_555
H3 C5 1_555 1_555
C6 C5 1_555 1_555
H4 C6 1_555 1_555
C7 C2 1_555 1_555
C8 C7 1_555 1_555
H5 C8 1_555 1_555
C9 C8 1_555 1_555
H6 C9 1_555 1_555
C10 O3 1_555 1_555
C11 C1 1_555 1_555
C12 N1 1_555 1_555
H7 C12 1_555 1_555
C13 C12 1_555 1_555
H8 C13 1_555 1_555
H9 C13 1_555 1_555
H10 C13 1_555 1_555
C14 C12 1_555 1_555
H11 C14 1_555 1_555
H12 C14 1_555 1_555
H13 C14 1_555 1_555
C15 N1 1_555 1_555
H14 C15 1_555 1_555
C16 C15 1_555 1_555
H15 C16 1_555 1_555
H16 C16 1_555 1_555
H17 C16 1_555 1_555
C17 C15 1_555 1_555
H18 C17 1_555 1_555
H19 C17 1_555 1_555
H20 C17 1_555 1_555
C18 O1 1_555 1_555
H21 C18 1_555 1_555
H22 C18 1_555 1_555
H23 C18 1_555 1_555
C1 C10 1_555 1_555
C6 C7 1_555 1_555
C9 C10 1_555 1_555

#END
