
#######################################################################
#
#                 Cambridge Crystallographic Data Centre
#                                CCDC 
#
#######################################################################
#
# If this CIF has been generated from an entry in the Cambridge 
# Structural Database, then it will include bibliographic, chemical, 
# crystal, experimental, refinement or atomic coordinate data resulting 
# from the CCDC's data processing and validation procedures.
#
#######################################################################

data_EWIQIM
_chemical_compound_source        'endolichenic fungus Biatriospora sp. (8331C)'
_chemical_name_common            'Biatriosporin I'
_chemical_formula_moiety         'C15 H18 O5'
_chemical_name_systematic        
(3S,4aR,5S,10aR)-5,9-dihydroxy-7-methoxy-3-methyl-1,3,4,4a,5,10a-hexahydro-10H-benzo[g]isochromen-10-one
_symmetry_cell_setting           orthorhombic
_symmetry_space_group_name_H-M   'P 21 21 21'
_symmetry_Int_Tables_number      19
_space_group_name_Hall           'P 2ac 2ab'
loop_
_symmetry_equiv_pos_site_id
_symmetry_equiv_pos_as_xyz
1 x,y,z
2 1/2-x,-y,1/2+z
3 -x,1/2+y,1/2-z
4 1/2+x,1/2-y,-z
_cell_length_a                   7.7573(6)
_cell_length_b                   12.8283(11)
_cell_length_c                   13.9400(12)
_cell_angle_alpha                90
_cell_angle_beta                 90
_cell_angle_gamma                90
_cell_volume                     1387.21
_exptl_crystal_colour            colorless
_cell_formula_units_Z            4
_exptl_crystal_recrystallization_method methanol
loop_
_atom_site_label
_atom_site_type_symbol
_atom_site_fract_x
_atom_site_fract_y
_atom_site_fract_z
O1 O 0.7187(8) 0.2301(5) 0.3298(4)
C1 C 0.4466(10) 0.2768(6) 0.2754(5)
H1 H 0.4502 0.2196 0.2345
O2 O 0.1764(9) 0.3211(5) 0.2129(4)
H2 H 0.109(8) 0.361(4) 0.211(4)
C2 C 0.5834(10) 0.2961(5) 0.3369(5)
C3 C 0.5757(9) 0.3806(5) 0.4004(5)
H3 H 0.6666 0.393 0.4424
O3 O 0.0353(8) 0.4894(4) 0.2711(4)
C4 C 0.4331(8) 0.4459(4) 0.4011(4)
O4 O 0.5339(7) 0.6209(4) 0.4318(4)
C5 C 0.2962(8) 0.4301(5) 0.3369(4)
O5 O -0.1183(6) 0.5686(4) 0.4746(3)
C6 C 0.1541(9) 0.5027(5) 0.3290(4)
C7 C 0.3060(9) 0.3415(5) 0.2748(5)
C8 C 0.1412(9) 0.5120(5) 0.5519(5)
H4 H 0.1291 0.4434 0.5234
H5 H 0.1978 0.5038 0.6135
C9 C 0.2521(8) 0.5806(5) 0.4868(4)
H6 H 0.2649 0.6483 0.5186
C10 C 0.1552(8) 0.5993(5) 0.3918(4)
H7 H 0.2167 0.6541 0.3569
C11 C -0.0351(9) 0.5594(5) 0.5666(5)
H8 H -0.0218 0.629 0.5946
H9 H 0.628(19) 0.599(11) 0.471(10)
C12 C -0.0264(9) 0.6385(6) 0.4112(5)
H10 H -0.0207 0.7073 0.44
H11 H -0.0884 0.6445 0.351
C13 C -0.1508(12) 0.4947(7) 0.6308(6)
H12 H -0.2616 0.5277 0.6359
H13 H -0.0999 0.4892 0.6934
H14 H -0.1643 0.4264 0.6039
C14 C 0.8631(13) 0.2464(8) 0.3900(7)
H15 H 0.9535 0.1989 0.3725
H16 H 0.8307 0.2345 0.4556
H17 H 0.9032 0.3167 0.3828
C15 C 0.4320(8) 0.5382(5) 0.4688(4)
H18 H 0.4812 0.5161 0.5303
loop_
_geom_bond_atom_site_label_1
_geom_bond_atom_site_label_2
_geom_bond_site_symmetry_1
_geom_bond_site_symmetry_2
O1 C2 1_555 1_555
C1 H1 1_555 1_555
O2 H2 1_555 1_555
C2 C1 1_555 1_555
C3 C2 1_555 1_555
H3 C3 1_555 1_555
O3 C6 1_555 1_555
C4 C3 1_555 1_555
O4 H9 1_555 1_555
C5 C4 1_555 1_555
O5 C11 1_555 1_555
C6 C5 1_555 1_555
C7 C1 1_555 1_555
C8 H4 1_555 1_555
H5 C8 1_555 1_555
C9 C8 1_555 1_555
H6 C9 1_555 1_555
C10 C6 1_555 1_555
H7 C10 1_555 1_555
C11 C8 1_555 1_555
H8 C11 1_555 1_555
C12 O5 1_555 1_555
H10 C12 1_555 1_555
H11 C12 1_555 1_555
C13 C11 1_555 1_555
H12 C13 1_555 1_555
H13 C13 1_555 1_555
H14 C13 1_555 1_555
C14 O1 1_555 1_555
H15 C14 1_555 1_555
H16 C14 1_555 1_555
H17 C14 1_555 1_555
C15 C4 1_555 1_555
H18 C15 1_555 1_555
O2 C7 1_555 1_555
O4 C15 1_555 1_555
C5 C7 1_555 1_555
C9 C10 1_555 1_555
C9 C15 1_555 1_555
C10 C12 1_555 1_555

#END
