
#######################################################################
#
#                 Cambridge Crystallographic Data Centre
#                                CCDC 
#
#######################################################################
#
# If this CIF has been generated from an entry in the Cambridge 
# Structural Database, then it will include bibliographic, chemical, 
# crystal, experimental, refinement or atomic coordinate data resulting 
# from the CCDC's data processing and validation procedures.
#
#######################################################################

data_EWIRIN
_chemical_compound_source        
'isolated from the extract of the endolichenic fungus Floricola striata'
_chemical_name_common            'Floricolin J monohydrate'
_chemical_formula_moiety         'C20 H18 O6,H2 O1'
_chemical_name_systematic        
'4,9-dihydroxy-13,13-dimethoxy-10-phenyl-8-oxatricyclo[7.3.1.0^2,7^]trideca-2,4,6,10-tetraen-12-one monohydrate'
_symmetry_cell_setting           monoclinic
_symmetry_space_group_name_H-M   'P 21/n'
_symmetry_Int_Tables_number      14
_space_group_name_Hall           '-P 2yn'
loop_
_symmetry_equiv_pos_site_id
_symmetry_equiv_pos_as_xyz
1 x,y,z
2 1/2-x,1/2+y,1/2-z
3 -x,-y,-z
4 1/2+x,1/2-y,1/2+z
_cell_length_a                   8.0545(2)
_cell_length_b                   20.6132(6)
_cell_length_c                   11.6495(4)
_cell_angle_alpha                90
_cell_angle_beta                 99.0520(10)
_cell_angle_gamma                90
_cell_volume                     1910.07
_exptl_crystal_colour            yellow
_exptl_crystal_description       block
_cell_formula_units_Z            4
loop_
_atom_site_label
_atom_site_type_symbol
_atom_site_fract_x
_atom_site_fract_y
_atom_site_fract_z
O1 O 0.49058(18) 0.23818(8) 0.36195(14)
H1 H 0.505(6) 0.498(2) 0.167(4)
O2 O 0.3382(2) 0.15833(8) 0.42679(16)
H2 H 0.392(4) 0.1701(14) 0.494(3)
O3 O 0.0203(2) 0.33640(9) 0.13818(15)
O4 O 0.0402(2) 0.24560(9) 0.39522(15)
O5 O 0.2877(2) 0.27833(9) 0.51418(14)
O6 O 0.5903(3) 0.48211(12) 0.1900(3)
C1 C 0.2009(3) 0.32181(12) 0.3175(2)
H3 H 0.1384 0.3578 0.3454
C2 C 0.3747(3) 0.34382(12) 0.3019(2)
C3 C 0.5085(3) 0.30043(12) 0.3218(2)
C4 C 0.2560(3) 0.19336(12) 0.2311(2)
C5 C 0.1159(3) 0.29982(12) 0.1991(2)
C6 C 0.2090(3) 0.26491(13) 0.4006(2)
C7 C 0.3215(3) 0.21263(12) 0.3568(2)
C8 C 0.6668(3) 0.31913(13) 0.3034(2)
H4 H 0.7566 0.2905 0.3197
C9 C 0.1632(3) 0.23625(12) 0.1610(2)
H5 H 0.1275 0.2245 0.0840
C10 C 0.3008(3) 0.12881(12) 0.1894(2)
C11 C 0.4015(3) 0.40490(13) 0.2573(2)
H6 H 0.3124 0.4339 0.2419
C12 C 0.4526(3) 0.09856(14) 0.2326(2)
H7 H 0.5271 0.1186 0.2910
C13 C 0.6921(3) 0.38028(14) 0.2609(3)
H8 H 0.7990 0.3928 0.2491
C14 C 0.1929(4) 0.09758(14) 0.1009(3)
H9 H 0.0917 0.1170 0.0695
C15 C 0.5585(3) 0.42292(13) 0.2359(3)
C16 C 0.2102(5) 0.32663(18) 0.5758(3)
H10 H 0.2597 0.3259 0.6563
H11 H 0.0920 0.3179 0.5689
H12 H 0.2267 0.3686 0.5436
C17 C 0.4937(4) 0.03928(15) 0.1899(3)
H13 H 0.5957 0.0198 0.2193
C18 C 0.3844(5) 0.00899(16) 0.1042(3)
H14 H 0.4116 -0.0313 0.0765
C19 C 0.2357(5) 0.03795(16) 0.0598(3)
H15 H 0.1625 0.0174 0.0013
C20 C -0.0011(4) 0.19402(18) 0.4685(3)
H16 H -0.1150 0.1990 0.4818
H17 H 0.0733 0.1954 0.5414
H18 H 0.0107 0.1531 0.4313
O7 O 0.3068(4) 0.53021(14) 0.0672(3)
H19 H 0.2319 0.5072 0.0266
H20 H 0.2688 0.5682 0.0745
loop_
_geom_bond_atom_site_label_1
_geom_bond_atom_site_label_2
_geom_bond_site_symmetry_1
_geom_bond_site_symmetry_2
O1 C3 1_555 1_555
H1 O6 1_555 1_555
O2 H2 1_555 1_555
O3 C5 1_555 1_555
O4 C6 1_555 1_555
O5 C6 1_555 1_555
O6 C15 1_555 1_555
C1 H3 1_555 1_555
C2 C1 1_555 1_555
C3 C2 1_555 1_555
C4 C7 1_555 1_555
C5 C1 1_555 1_555
C6 C1 1_555 1_555
C7 O1 1_555 1_555
C8 C3 1_555 1_555
H4 C8 1_555 1_555
C9 C4 1_555 1_555
H5 C9 1_555 1_555
C10 C4 1_555 1_555
C11 C2 1_555 1_555
H6 C11 1_555 1_555
C12 C10 1_555 1_555
H7 C12 1_555 1_555
C13 C8 1_555 1_555
H8 C13 1_555 1_555
C14 C10 1_555 1_555
H9 C14 1_555 1_555
C15 C11 1_555 1_555
C16 O5 1_555 1_555
H10 C16 1_555 1_555
H11 C16 1_555 1_555
H12 C16 1_555 1_555
C17 C12 1_555 1_555
H13 C17 1_555 1_555
C18 C17 1_555 1_555
H14 C18 1_555 1_555
C19 C14 1_555 1_555
H15 C19 1_555 1_555
C20 O4 1_555 1_555
H16 C20 1_555 1_555
H17 C20 1_555 1_555
H18 C20 1_555 1_555
O7 H19 1_555 1_555
H20 O7 1_555 1_555
O2 C7 1_555 1_555
C5 C9 1_555 1_555
C6 C7 1_555 1_555
C13 C15 1_555 1_555
C18 C19 1_555 1_555

#END
