
#######################################################################
#
#                 Cambridge Crystallographic Data Centre
#                                CCDC 
#
#######################################################################
#
# If this CIF has been generated from an entry in the Cambridge 
# Structural Database, then it will include bibliographic, chemical, 
# crystal, experimental, refinement or atomic coordinate data resulting 
# from the CCDC's data processing and validation procedures.
#
#######################################################################

data_EWIXUD
_chemical_formula_moiety         'C13 H11 N1 O5'
_chemical_name_systematic        'Ethyl 2-(4-nitrophenyl)furan-3-carboxylate'
_symmetry_cell_setting           monoclinic
_symmetry_space_group_name_H-M   'P 21/c'
_symmetry_Int_Tables_number      14
_space_group_name_Hall           '-P 2ybc'
loop_
_symmetry_equiv_pos_site_id
_symmetry_equiv_pos_as_xyz
1 x,y,z
2 x,1/2-y,1/2+z
3 -x,-y,-z
4 -x,1/2+y,1/2-z
_cell_length_a                   13.1593(3)
_cell_length_b                   13.2888(6)
_cell_length_c                   6.9813(6)
_cell_angle_alpha                90.00
_cell_angle_beta                 100.367(3)
_cell_angle_gamma                90.00
_cell_volume                     1200.9
_cell_formula_units_Z            4
loop_
_atom_site_label
_atom_site_type_symbol
_atom_site_fract_x
_atom_site_fract_y
_atom_site_fract_z
O1 O 0.32878(16) -0.03924(16) 0.1016(3)
C1 C 0.3466(2) 0.0612(2) 0.1328(5)
C2 C 0.2588(2) 0.1132(2) 0.0521(5)
C3 C 0.1850(3) 0.0394(3) -0.0299(5)
C4 C 0.2294(3) -0.0495(3) 0.0017(5)
C5 C 0.4508(2) 0.0845(2) 0.2385(5)
C6 C 0.5264(3) 0.0094(3) 0.2596(5)
C7 C 0.6249(3) 0.0262(3) 0.3601(5)
C8 C 0.6476(2) 0.1200(3) 0.4457(5)
C9 C 0.5752(3) 0.1950(3) 0.4283(5)
C10 C 0.4769(3) 0.1778(3) 0.3265(5)
N1 N 0.7513(2) 0.1388(2) 0.5563(4)
O2 O 0.76739(18) 0.21813(19) 0.6483(4)
O3 O 0.81802(18) 0.07403(19) 0.5564(4)
C11 C 0.2376(2) 0.2226(3) 0.0436(5)
O4 O 0.29509(17) 0.28938(17) 0.1135(4)
O5 O 0.14161(16) 0.23969(17) -0.0539(3)
C12 C 0.1074(3) 0.3448(3) -0.0616(7)
C13 C 0.0020(4) 0.3475(4) -0.1860(8)
H1 H 0.592(2) 0.254(2) 0.499(5)
H2 H 0.118(2) 0.055(2) -0.094(4)
H3 H -0.022(3) 0.414(3) -0.189(5)
H4 H 0.158(3) 0.391(3) -0.120(5)
H5 H 0.209(2) -0.117(3) -0.023(5)
H6 H 0.422(2) 0.229(2) 0.312(5)
H7 H 0.108(3) 0.362(3) 0.075(6)
H8 H 0.008(3) 0.334(3) -0.317(6)
H9 H -0.045(3) 0.302(3) -0.127(7)
H10 H 0.512(2) -0.052(2) 0.207(4)
H11 H 0.677(2) -0.019(2) 0.380(5)
loop_
_geom_bond_atom_site_label_1
_geom_bond_atom_site_label_2
_geom_bond_site_symmetry_1
_geom_bond_site_symmetry_2
O1 C1 1_555 1_555
C1 C2 1_555 1_555
C2 C3 1_555 1_555
C3 C4 1_555 1_555
C4 O1 1_555 1_555
C5 C1 1_555 1_555
C6 C5 1_555 1_555
C7 C6 1_555 1_555
C8 C7 1_555 1_555
C9 C8 1_555 1_555
C10 C5 1_555 1_555
N1 C8 1_555 1_555
O2 N1 1_555 1_555
O3 N1 1_555 1_555
C11 C2 1_555 1_555
O4 C11 1_555 1_555
O5 C11 1_555 1_555
C12 O5 1_555 1_555
C13 C12 1_555 1_555
H1 C9 1_555 1_555
H2 C3 1_555 1_555
H3 C13 1_555 1_555
H4 C12 1_555 1_555
H5 C4 1_555 1_555
H6 C10 1_555 1_555
H7 C12 1_555 1_555
H8 C13 1_555 1_555
H9 C13 1_555 1_555
H10 C6 1_555 1_555
H11 C7 1_555 1_555
C9 C10 1_555 1_555

#END
