
#######################################################################
#
#                 Cambridge Crystallographic Data Centre
#                                CCDC 
#
#######################################################################
#
# If this CIF has been generated from an entry in the Cambridge 
# Structural Database, then it will include bibliographic, chemical, 
# crystal, experimental, refinement or atomic coordinate data resulting 
# from the CCDC's data processing and validation procedures.
#
#######################################################################

data_EXEGAQ
_chemical_formula_moiety         'C26 H27 Br1 O9'
_chemical_name_systematic        
"8a-Bromo-8-oxo-9-(3,4,5-trimethoxyphenyl)-5,5a,6,8,8a,9-hexahydrofuro[3',4':6,7]naphtho[2,3-d][1,3]dioxol-5-yl butanoate"
_symmetry_cell_setting           monoclinic
_symmetry_space_group_name_H-M   'P 21'
_symmetry_Int_Tables_number      4
_space_group_name_Hall           'P 2yb'
loop_
_symmetry_equiv_pos_site_id
_symmetry_equiv_pos_as_xyz
1 x,y,z
2 -x,1/2+y,-z
_cell_length_a                   11.700(14)
_cell_length_b                   18.51(2)
_cell_length_c                   11.771(14)
_cell_angle_alpha                90
_cell_angle_beta                 90.129(14)
_cell_angle_gamma                90
_cell_volume                     2549.2
_exptl_crystal_colour            colorless
_exptl_crystal_description       block
_cell_formula_units_Z            4
loop_
_atom_site_label
_atom_site_type_symbol
_atom_site_fract_x
_atom_site_fract_y
_atom_site_fract_z
Br1 Br 0.20288(17) 0.84921(9) 0.08287(17)
C1 C 0.2307(12) 0.7217(7) 0.2195(11)
H1 H 0.1538 0.7150 0.1880
C2 C 0.2825(12) 0.6499(7) 0.2392(12)
H2 H 0.3009 0.6478 0.3204
C3 C 0.3879(11) 0.6302(6) 0.1790(12)
C4 C 0.4498(14) 0.5748(8) 0.2232(15)
H3 H 0.4246 0.5499 0.2871
C5 C 0.5487(15) 0.5568(7) 0.1720(14)
C6 C 0.5853(12) 0.5922(9) 0.0723(16)
C7 C 0.5240(10) 0.6504(9) 0.0272(15)
H4 H 0.5461 0.6758 -0.0373
C8 C 0.4255(10) 0.6662(8) 0.0902(11)
C9 C 0.3570(10) 0.7337(8) 0.0425(9)
H5 H 0.4132 0.7684 0.0137
C10 C 0.2980(10) 0.7681(7) 0.1404(10)
C11 C 0.707(2) 0.5075(15) 0.123(2)
H6 H 0.7076 0.4608 0.0858
H7 H 0.7804 0.5143 0.1596
C12 C 0.2231(15) 0.7708(9) 0.3226(12)
H8 H 0.1615 0.8055 0.3144
H9 H 0.2116 0.7432 0.3916
C13 C 0.3744(17) 0.8061(8) 0.2182(17)
C14 C 0.2838(10) 0.7116(7) -0.0547(10)
C15 C 0.2923(13) 0.7505(9) -0.1618(13)
H10 H 0.3463 0.7870 -0.1696
C16 C 0.2191(13) 0.7333(9) -0.2548(11)
C17 C 0.1349(11) 0.6863(8) -0.2440(10)
C18 C 0.1225(12) 0.6480(7) -0.1394(12)
C19 C 0.1956(11) 0.6603(8) -0.0461(13)
H11 H 0.1855 0.6345 0.0210
C20 C 0.331(2) 0.8136(13) -0.3682(13)
H12 H 0.3357 0.8454 -0.3040
H13 H 0.3251 0.8416 -0.4366
H14 H 0.3976 0.7837 -0.3711
C21 C 0.0998(14) 0.6291(10) -0.4170(16)
H15 H 0.1631 0.6520 -0.4543
H16 H 0.0397 0.6207 -0.4711
H17 H 0.1243 0.5839 -0.3853
C22 C 0.0099(15) 0.5655(10) -0.0328(16)
H18 H 0.0786 0.5454 -0.0013
H19 H -0.0450 0.5277 -0.0448
H20 H -0.0209 0.6006 0.0188
C23 C 0.1750(18) 0.5455(8) 0.298(2)
C24 C 0.073(2) 0.4967(11) 0.266(2)
H21 H -0.0040 0.5070 0.2788
C25 C 0.1133(17) 0.4375(11) 0.216(2)
H22 H 0.1562 0.4087 0.2705
H23 H 0.1635 0.4503 0.1539
C26 C 0.002(2) 0.3921(13) 0.169(2)
H24 H -0.0233 0.3591 0.2267
H25 H 0.0235 0.3654 0.1024
H26 H -0.0583 0.4251 0.1506
O1 O 0.6279(10) 0.5073(7) 0.2005(12)
O2 O 0.6898(11) 0.5634(7) 0.0391(13)
O3 O 0.3357(11) 0.8072(6) 0.3232(8)
O4 O 0.4672(11) 0.8326(6) 0.2029(8)
O5 O 0.2308(9) 0.7687(7) -0.3573(9)
O6 O 0.0588(8) 0.6749(8) -0.3284(8)
O7 O 0.0357(8) 0.6001(6) -0.1404(9)
O8 O 0.1992(9) 0.5954(5) 0.2200(8)
O9 O 0.2202(13) 0.5430(9) 0.3891(12)
Br2 Br 0.68998(17) 0.67537(10) 0.3854(2)
C27 C 0.7459(12) 0.8027(8) 0.2688(13)
H27 H 0.6673 0.8110 0.2942
C28 C 0.8084(16) 0.8729(8) 0.2509(12)
H28 H 0.8367 0.8776 0.1730
C29 C 0.9069(13) 0.8834(8) 0.3414(14)
C30 C 0.9719(17) 0.9465(10) 0.310(2)
H29 H 0.9553 0.9752 0.2476
C31 C 1.0572(18) 0.9591(11) 0.381(2)
C32 C 1.0841(15) 0.9183(11) 0.467(2)
C33 C 1.0243(11) 0.8582(9) 0.4977(17)
H30 H 1.0429 0.8307 0.5612
C34 C 0.9339(9) 0.8411(7) 0.4270(11)
C35 C 0.8595(9) 0.7777(6) 0.4562(10)
H31 H 0.9099 0.7392 0.4841
C36 C 0.8050(12) 0.7505(8) 0.3422(15)
C37 C 1.202(2) 1.0035(15) 0.488(3)
H32 H 1.2836 1.0044 0.4715
H33 H 1.1865 1.0431 0.5393
C38 C 0.749(2) 0.7609(13) 0.1557(17)
H34 H 0.6834 0.7289 0.1489
H35 H 0.7495 0.7937 0.0915
C39 C 0.8836(17) 0.7103(9) 0.2756(13)
C40 C 0.7754(11) 0.7955(7) 0.5518(11)
C41 C 0.7856(10) 0.7542(9) 0.6491(11)
H36 H 0.8391 0.7170 0.6531
C42 C 0.7141(13) 0.7691(8) 0.7419(13)
C43 C 0.6301(10) 0.8207(8) 0.7287(12)
C44 C 0.6216(10) 0.8607(9) 0.6330(12)
C45 C 0.6962(10) 0.8483(8) 0.5445(11)
H37 H 0.6917 0.8765 0.4792
C46 C 0.8170(13) 0.6874(12) 0.8607(14)
H38 H 0.8191 0.6520 0.8011
H39 H 0.8119 0.6634 0.9329
H40 H 0.8854 0.7160 0.8585
C47 C 0.5884(13) 0.8814(8) 0.9035(11)
H41 H 0.6685 0.8918 0.8978
H42 H 0.5721 0.8622 0.9775
H43 H 0.5453 0.9250 0.8920
C48 C 0.5240(16) 0.9507(11) 0.5298(16)
H44 H 0.5857 0.9842 0.5187
H45 H 0.4529 0.9766 0.5317
H46 H 0.5227 0.9166 0.4684
C49 C 0.693(2) 0.9726(15) 0.187(3)
C50 C 0.619(2) 1.0319(13) 0.242(2)
H48 H 0.6451 1.0732 0.2785
C51 C 0.513(2) 1.0131(13) 0.227(2)
H49 H 0.4952 0.9691 0.2679
H50 H 0.4951 1.0069 0.1472
C52 C 0.448(2) 1.0845(14) 0.282(2)
H51 H 0.3828 1.0687 0.3256
H52 H 0.4224 1.1158 0.2222
H53 H 0.4995 1.1102 0.3309
O10 O 1.1439(13) 1.0161(9) 0.3873(17)
O11 O 1.1777(11) 0.9397(8) 0.5424(15)
O12 O 0.8524(14) 0.7209(7) 0.1621(12)
O13 O 0.9642(9) 0.6771(6) 0.3028(10)
O14 O 0.7191(9) 0.7335(6) 0.8454(9)
O15 O 0.5578(8) 0.8303(6) 0.8203(8)
O16 O 0.5399(8) 0.9136(6) 0.6337(9)
O17 O 0.7261(12) 0.9325(7) 0.2810(10)
O18 O 0.7302(14) 0.9630(8) 0.1000(14)
H47? H 0.6265 0.9415 0.1716
loop_
_geom_bond_atom_site_label_1
_geom_bond_atom_site_label_2
_geom_bond_site_symmetry_1
_geom_bond_site_symmetry_2
Br1 C10 1_555 1_555
Br2 C36 1_555 1_555
C1 H1 1_555 1_555
C2 C1 1_555 1_555
H2 C2 1_555 1_555
C3 C2 1_555 1_555
C4 C3 1_555 1_555
H3 C4 1_555 1_555
C5 C4 1_555 1_555
C6 C5 1_555 1_555
C7 C6 1_555 1_555
H4 C7 1_555 1_555
C8 C3 1_555 1_555
C9 C8 1_555 1_555
H5 C9 1_555 1_555
C10 C1 1_555 1_555
C11 H6 1_555 1_555
H7 C11 1_555 1_555
C12 C1 1_555 1_555
H8 C12 1_555 1_555
H9 C12 1_555 1_555
C13 C10 1_555 1_555
C14 C9 1_555 1_555
C15 C14 1_555 1_555
H10 C15 1_555 1_555
C16 C15 1_555 1_555
C17 C16 1_555 1_555
C18 C17 1_555 1_555
C19 C14 1_555 1_555
H11 C19 1_555 1_555
C20 H12 1_555 1_555
H13 C20 1_555 1_555
H14 C20 1_555 1_555
C21 H15 1_555 1_555
H16 C21 1_555 1_555
H17 C21 1_555 1_555
C22 H18 1_555 1_555
H19 C22 1_555 1_555
H20 C22 1_555 1_555
C23 C24 1_555 1_555
C24 H21 1_555 1_555
C25 C24 1_555 1_555
H22 C25 1_555 1_555
H23 C25 1_555 1_555
C26 C25 1_555 1_555
H24 C26 1_555 1_555
H25 C26 1_555 1_555
H26 C26 1_555 1_555
C27 H27 1_555 1_555
C28 C27 1_555 1_555
H28 C28 1_555 1_555
C29 C28 1_555 1_555
C30 C29 1_555 1_555
H29 C30 1_555 1_555
C31 C30 1_555 1_555
C32 C31 1_555 1_555
C33 C32 1_555 1_555
H30 C33 1_555 1_555
C34 C29 1_555 1_555
C35 C34 1_555 1_555
H31 C35 1_555 1_555
C36 C27 1_555 1_555
C37 H32 1_555 1_555
H33 C37 1_555 1_555
C38 C27 1_555 1_555
H34 C38 1_555 1_555
H35 C38 1_555 1_555
C39 C36 1_555 1_555
C40 C35 1_555 1_555
C41 C40 1_555 1_555
H36 C41 1_555 1_555
C42 C41 1_555 1_555
C43 C42 1_555 1_555
C44 C43 1_555 1_555
C45 C40 1_555 1_555
H37 C45 1_555 1_555
C46 H38 1_555 1_555
H39 C46 1_555 1_555
H40 C46 1_555 1_555
C47 H41 1_555 1_555
H42 C47 1_555 1_555
H43 C47 1_555 1_555
C48 H44 1_555 1_555
H45 C48 1_555 1_555
H46 C48 1_555 1_555
C49 C50 1_555 1_555
C50 H48 1_555 1_555
C51 C50 1_555 1_555
H49 C51 1_555 1_555
H50 C51 1_555 1_555
C52 C51 1_555 1_555
H51 C52 1_555 1_555
H52 C52 1_555 1_555
H53 C52 1_555 1_555
O1 C5 1_555 1_555
O2 C6 1_555 1_555
O3 C12 1_555 1_555
O4 C13 1_555 1_555
O5 C16 1_555 1_555
O6 C17 1_555 1_555
O7 C18 1_555 1_555
O8 C2 1_555 1_555
O9 C23 1_555 1_555
O10 C31 1_555 1_555
O11 C32 1_555 1_555
O12 C38 1_555 1_555
O13 C39 1_555 1_555
O14 C42 1_555 1_555
O15 C43 1_555 1_555
O16 C44 1_555 1_555
O17 C28 1_555 1_555
O18 C49 1_555 1_555
C7 C8 1_555 1_555
C9 C10 1_555 1_555
C11 O1 1_555 1_555
C11 O2 1_555 1_555
C13 O3 1_555 1_555
C18 C19 1_555 1_555
C20 O5 1_555 1_555
C21 O6 1_555 1_555
C22 O7 1_555 1_555
C23 O8 1_555 1_555
C33 C34 1_555 1_555
C35 C36 1_555 1_555
C37 O10 1_555 1_555
C37 O11 1_555 1_555
C39 O12 1_555 1_555
C44 C45 1_555 1_555
C46 O14 1_555 1_555
C47 O15 1_555 1_555
C48 O16 1_555 1_555
C49 O17 1_555 1_555

#END
