
#######################################################################
#
#                 Cambridge Crystallographic Data Centre
#                                CCDC 
#
#######################################################################
#
# If this CIF has been generated from an entry in the Cambridge 
# Structural Database, then it will include bibliographic, chemical, 
# crystal, experimental, refinement or atomic coordinate data resulting 
# from the CCDC's data processing and validation procedures.
#
#######################################################################

data_EXEPAY
_chemical_formula_moiety         'C15 H16 N2 O5'
_chemical_name_systematic        
4-(3,4-Methylenedioxyphenyl)-6-methyl-5-ethoxycarbonyl-3,4-dihydropyrimidin-2(H)-one
_symmetry_cell_setting           triclinic
_symmetry_space_group_name_H-M   'P -1'
_symmetry_Int_Tables_number      2
_space_group_name_Hall           '-P 1'
loop_
_symmetry_equiv_pos_site_id
_symmetry_equiv_pos_as_xyz
1 x,y,z
2 -x,-y,-z
_cell_length_a                   7.580(1)
_cell_length_b                   7.920(2)
_cell_length_c                   13.168(4)
_cell_angle_alpha                96.44(2)
_cell_angle_beta                 96.71(2)
_cell_angle_gamma                109.81(2)
_cell_volume                     728.838
_chemical_melting_point          186-187deg.C
_cell_formula_units_Z            2
_exptl_crystal_recrystallization_method '95% ethanol'
loop_
_atom_site_label
_atom_site_type_symbol
_atom_site_fract_x
_atom_site_fract_y
_atom_site_fract_z
O1 O 0.2378(3) 0.4019(3) 0.50560(14)
O2 O 0.2800(4) 0.6937(4) 0.58226(15)
O3 O -0.10609(18) 0.16874(19) 0.01564(11)
O4 O 0.6460(2) 0.7895(2) 0.18686(12)
O5 O 0.7737(2) 0.5787(2) 0.14975(12)
N1 N 0.0969(2) 0.4442(2) 0.09824(12)
N2 N 0.2002(2) 0.2042(3) 0.07277(13)
C1 C 0.2537(4) 0.5156(6) 0.60049(19)
H1 H 0.1393 0.4684 0.6305
H2 H 0.3606 0.5167 0.6492
C2 C 0.2554(3) 0.5147(3) 0.43231(17)
C3 C 0.2530(3) 0.4709(3) 0.32900(15)
H3 H 0.2362 0.3531 0.2993
C4 C 0.2768(3) 0.6101(3) 0.26936(14)
C5 C 0.2980(3) 0.7814(3) 0.31589(18)
H4 H 0.3110 0.8725 0.2754
C6 C 0.3005(4) 0.8230(4) 0.4216(2)
H5 H 0.3150 0.9395 0.4524
C7 C 0.2810(3) 0.6868(4) 0.47762(18)
C8 C 0.2815(3) 0.5701(3) 0.15423(14)
H6 H 0.3100 0.6847 0.1268
C9 C 0.4355(3) 0.4937(3) 0.13450(14)
C10 C 0.3891(3) 0.3140(3) 0.10119(14)
C11 C 0.0539(3) 0.2691(3) 0.06009(14)
C12 C 0.5216(3) 0.2123(3) 0.09092(18)
H7 H 0.5801 0.2372 0.0307
H8 H 0.4518 0.0842 0.0840
H9 H 0.6181 0.2500 0.1515
C13 C 0.6342(3) 0.6177(3) 0.15692(14)
C14 C 0.8325(4) 0.9278(4) 0.2212(2)
H10 H 0.9270 0.8878 0.1930
H11 H 0.8360 1.0390 0.1958
C15 C 0.8774(5) 0.9629(5) 0.3332(3)
H12 H 0.7780 0.9920 0.3613
H13 H 0.9955 1.0633 0.3548
H14 H 0.8885 0.8567 0.3578
H15 H 0.009(3) 0.482(3) 0.0967(17)
H16 H 0.167(3) 0.092(3) 0.0472(17)
loop_
_geom_bond_atom_site_label_1
_geom_bond_atom_site_label_2
_geom_bond_site_symmetry_1
_geom_bond_site_symmetry_2
O1 C1 1_555 1_555
O2 C1 1_555 1_555
O3 C11 1_555 1_555
O4 C13 1_555 1_555
O5 C13 1_555 1_555
N1 C8 1_555 1_555
N2 C10 1_555 1_555
C1 H1 1_555 1_555
H2 C1 1_555 1_555
C2 O1 1_555 1_555
C3 C2 1_555 1_555
H3 C3 1_555 1_555
C4 C3 1_555 1_555
C5 C4 1_555 1_555
H4 C5 1_555 1_555
C6 C5 1_555 1_555
H5 C6 1_555 1_555
C7 O2 1_555 1_555
C8 C4 1_555 1_555
H6 C8 1_555 1_555
C9 C8 1_555 1_555
C10 C9 1_555 1_555
C11 N1 1_555 1_555
C12 C10 1_555 1_555
H7 C12 1_555 1_555
H8 C12 1_555 1_555
H9 C12 1_555 1_555
C13 C9 1_555 1_555
C14 O4 1_555 1_555
H10 C14 1_555 1_555
H11 C14 1_555 1_555
C15 C14 1_555 1_555
H12 C15 1_555 1_555
H13 C15 1_555 1_555
H14 C15 1_555 1_555
H15 N1 1_555 1_555
H16 N2 1_555 1_555
N2 C11 1_555 1_555
C2 C7 1_555 1_555
C6 C7 1_555 1_555

#END
