
#######################################################################
#
#                 Cambridge Crystallographic Data Centre
#                                CCDC 
#
#######################################################################
#
# If this CIF has been generated from an entry in the Cambridge 
# Structural Database, then it will include bibliographic, chemical, 
# crystal, experimental, refinement or atomic coordinate data resulting 
# from the CCDC's data processing and validation procedures.
#
#######################################################################

data_EXINUV
_chemical_name_common            'Triprolidine 2,4,6-trinitrophenol'
_chemical_formula_moiety         'C19 H24 N2 2+,2(C6 H2 N3 O7 1-)'
_chemical_name_systematic        
'2-[(E)-1-(4-methylphenyl)-3-(pyrrolidin-1-ium-1-yl)prop-1-enyl]pyridinium bis(2,4,6-trinitrophenolate)'
_symmetry_cell_setting           monoclinic
_symmetry_space_group_name_H-M   'P 21/n'
_symmetry_Int_Tables_number      14
_space_group_name_Hall           '-P 2yn'
loop_
_symmetry_equiv_pos_site_id
_symmetry_equiv_pos_as_xyz
1 x,y,z
2 1/2-x,1/2+y,1/2-z
3 -x,-y,-z
4 1/2+x,1/2-y,1/2+z
_cell_length_a                   15.0542(7)
_cell_length_b                   12.7489(5)
_cell_length_c                   17.1446(7)
_cell_angle_alpha                90
_cell_angle_beta                 100.218(4)
_cell_angle_gamma                90
_cell_volume                     3238.28
_exptl_crystal_colour            colorless
_exptl_crystal_description       block
_cell_formula_units_Z            4
loop_
_atom_site_label
_atom_site_type_symbol
_atom_site_fract_x
_atom_site_fract_y
_atom_site_fract_z
O1 O 0.92233(17) 0.70372(18) 0.04819(15)
O2 O 0.82310(14) 0.65125(19) 0.11427(12)
O3 O 0.88982(12) 0.56044(14) 0.25150(11)
O4 O 0.9885(8) 0.4552(8) 0.3767(5)
O5 O 1.0589(4) 0.3329(5) 0.3390(3)
O6 O 1.22955(16) 0.3894(2) 0.13260(14)
O7 O 1.17901(14) 0.49452(17) 0.03706(11)
N1 N 0.89847(15) 0.64836(17) 0.09876(12)
N2 N 1.02831(16) 0.42310(19) 0.32931(13)
N3 N 1.17391(15) 0.45175(18) 0.10008(13)
C1 C 0.96436(15) 0.57494(16) 0.14058(12)
C2 C 0.95360(15) 0.53588(16) 0.21766(13)
C3 C 1.02623(16) 0.46581(18) 0.25059(13)
C4 C 1.09501(16) 0.43644(18) 0.21281(14)
H1 H 1.1395 0.3880 0.2369
C5 C 1.09888(15) 0.47827(17) 0.13884(13)
C6 C 1.03443(15) 0.54831(17) 0.10349(12)
H2 H 1.0386 0.5780 0.0535
O8 O 0.3337(4) 0.1253(5) 0.1125(4)
O9 O 0.2512(4) 0.0092(5) 0.1496(3)
O10 O 0.41754(11) 0.24944(14) 0.22274(9)
O11 O 0.42811(13) 0.42582(16) 0.31111(14)
O12 O 0.42006(17) 0.3801(2) 0.43080(13)
O13 O 0.1624(3) 0.1919(4) 0.4605(4)
O14 O 0.0865(4) 0.0942(5) 0.3683(3)
N4 N 0.27963(15) 0.10320(18) 0.15556(12)
N5 N 0.40122(14) 0.36817(18) 0.35907(13)
N6 N 0.14695(19) 0.1484(2) 0.39024(16)
C7 C 0.28089(15) 0.15781(17) 0.22957(12)
C8 C 0.35152(13) 0.23267(16) 0.25547(11)
C9 C 0.34105(14) 0.28230(18) 0.32932(12)
C10 C 0.27778(17) 0.25319(19) 0.37352(13)
H3 H 0.2772 0.2848 0.4236
C11 C 0.21500(17) 0.1777(2) 0.34464(14)
C12 C 0.21513(16) 0.13026(18) 0.27218(14)
H4 H 0.1706 0.0796 0.2521
N7 N 0.48222(11) 0.27782(13) 0.08706(9)
H5 H 0.4503(15) 0.2601(19) 0.1214(12)
N8 N 0.77333(12) 0.47437(14) 0.33144(10)
H6 H 0.8096(15) 0.483(2) 0.2986(13)
C13 C 0.46460(15) 0.20288(18) 0.01772(12)
H7 H 0.5179 0.1975 -0.0085
H8 H 0.4493 0.1321 0.0351
C14 C 0.3856(2) 0.2509(2) -0.03715(16)
H9 H 0.3894 0.2359 -0.0931
H10 H 0.3280 0.2226 -0.0259
C15 C 0.3918(2) 0.3664(3) -0.0214(2)
H11 H 0.4153 0.4027 -0.0646
H12 H 0.3314 0.3951 -0.0186
C16 C 0.4532(3) 0.3821(2) 0.05422(19)
H13 H 0.4219 0.4208 0.0916
H14 H 0.5063 0.4236 0.0459
C17 C 0.57653(15) 0.2711(2) 0.12893(15)
H15 H 0.6172 0.2871 0.0910
H16 H 0.5889 0.1982 0.1477
C18 C 0.59780(15) 0.3441(2) 0.19836(13)
H17 H 0.5496 0.3785 0.2170
C19 C 0.68177(14) 0.36208(17) 0.23445(11)
C20 C 0.69781(13) 0.41772(16) 0.31109(11)
C21 C 0.64044(16) 0.4112(2) 0.36606(13)
H18 H 0.5864 0.3714 0.3540
C22 C 0.66114(19) 0.4620(2) 0.43778(14)
H19 H 0.6211 0.4578 0.4748
C23 C 0.7398(2) 0.5186(2) 0.45588(13)
H20 H 0.7553 0.5533 0.5055
C24 C 0.79475(18) 0.52380(19) 0.40122(13)
H21 H 0.8492 0.5630 0.4126
C25 C 0.76235(13) 0.31890(16) 0.20509(11)
C26 C 0.81005(15) 0.23621(19) 0.24497(12)
H22 H 0.7913 0.2075 0.2906
C27 C 0.88497(16) 0.19494(19) 0.21895(14)
H23 H 0.9171 0.1386 0.2473
C28 C 0.91379(14) 0.23425(17) 0.15237(13)
C29 C 0.86463(15) 0.31561(19) 0.11187(13)
H24 H 0.8822 0.3426 0.0653
C30 C 0.79042(15) 0.35835(18) 0.13792(13)
H25 H 0.7586 0.4150 0.1097
C31 C 0.99617(17) 0.1905(2) 0.12528(17)
H26 H 0.9904 0.1999 0.0679
H27 H 1.0017 0.1156 0.1381
H28 H 1.0500 0.2276 0.1522
O15? O 0.1432(6) 0.1580(6) 0.4551(6)
O16? O 0.0765(6) 0.0945(9) 0.3400(4)
O17? O 0.9819(13) 0.4781(13) 0.3699(8)
O18? O 1.0956(6) 0.3773(8) 0.3664(5)
O19? O 0.3039(6) 0.1518(9) 0.1006(6)
O20? O 0.2177(6) 0.0413(8) 0.1356(6)
loop_
_geom_bond_atom_site_label_1
_geom_bond_atom_site_label_2
_geom_bond_site_symmetry_1
_geom_bond_site_symmetry_2
O1 N1 1_555 1_555
O2 N1 1_555 1_555
O3 C2 1_555 1_555
O4 N2 1_555 1_555
O5 N2 1_555 1_555
O6 N3 1_555 1_555
O7 N3 1_555 1_555
N1 C1 1_555 1_555
N2 C3 1_555 1_555
N3 C5 1_555 1_555
C1 C2 1_555 1_555
C2 C3 1_555 1_555
C3 C4 1_555 1_555
C4 H1 1_555 1_555
C5 C4 1_555 1_555
C6 C1 1_555 1_555
H2 C6 1_555 1_555
O8 N4 1_555 1_555
O9 N4 1_555 1_555
O10 C8 1_555 1_555
O11 N5 1_555 1_555
O12 N5 1_555 1_555
O13 N6 1_555 1_555
O14 N6 1_555 1_555
N4 C7 1_555 1_555
N5 C9 1_555 1_555
N6 C11 1_555 1_555
C7 C8 1_555 1_555
C8 C9 1_555 1_555
C9 C10 1_555 1_555
C10 H3 1_555 1_555
C11 C10 1_555 1_555
C12 C7 1_555 1_555
H4 C12 1_555 1_555
N7 H5 1_555 1_555
N8 H6 1_555 1_555
C13 N7 1_555 1_555
H7 C13 1_555 1_555
H8 C13 1_555 1_555
C14 C13 1_555 1_555
H9 C14 1_555 1_555
H10 C14 1_555 1_555
C15 C14 1_555 1_555
H11 C15 1_555 1_555
H12 C15 1_555 1_555
C16 N7 1_555 1_555
H13 C16 1_555 1_555
H14 C16 1_555 1_555
C17 N7 1_555 1_555
H15 C17 1_555 1_555
H16 C17 1_555 1_555
C18 C17 1_555 1_555
H17 C18 1_555 1_555
C19 C18 1_555 1_555
C20 N8 1_555 1_555
C21 C20 1_555 1_555
H18 C21 1_555 1_555
C22 C21 1_555 1_555
H19 C22 1_555 1_555
C23 C22 1_555 1_555
H20 C23 1_555 1_555
C24 N8 1_555 1_555
H21 C24 1_555 1_555
C25 C19 1_555 1_555
C26 C25 1_555 1_555
H22 C26 1_555 1_555
C27 C26 1_555 1_555
H23 C27 1_555 1_555
C28 C27 1_555 1_555
C29 C28 1_555 1_555
H24 C29 1_555 1_555
C30 C25 1_555 1_555
H25 C30 1_555 1_555
C31 C28 1_555 1_555
H26 C31 1_555 1_555
H27 C31 1_555 1_555
H28 C31 1_555 1_555
C5 C6 1_555 1_555
C11 C12 1_555 1_555
C15 C16 1_555 1_555
C19 C20 1_555 1_555
C23 C24 1_555 1_555
C29 C30 1_555 1_555

#END
