
#######################################################################
#
#                 Cambridge Crystallographic Data Centre
#                                CCDC 
#
#######################################################################
#
# If this CIF has been generated from an entry in the Cambridge 
# Structural Database, then it will include bibliographic, chemical, 
# crystal, experimental, refinement or atomic coordinate data resulting 
# from the CCDC's data processing and validation procedures.
#
#######################################################################

data_EXIVIR
_chemical_name_common            bis(2-bromo-5-methylphenoxy)methane
_chemical_formula_moiety         'C15 H14 Br2 O2'
_chemical_name_systematic        
1,1'-(Methylenebis(oxy))bis(2-bromo-4-methylbenzene)
_symmetry_cell_setting           orthorhombic
_symmetry_space_group_name_H-M   'P 21 21 2'
_symmetry_Int_Tables_number      18
_space_group_name_Hall           'P 2 2ab'
loop_
_symmetry_equiv_pos_site_id
_symmetry_equiv_pos_as_xyz
1 x,y,z
2 -x,-y,z
3 1/2+x,1/2-y,-z
4 1/2-x,1/2+y,-z
_cell_length_a                   10.7752(11)
_cell_length_b                   15.8690(17)
_cell_length_c                   4.3272(10)
_cell_angle_alpha                90
_cell_angle_beta                 90
_cell_angle_gamma                90
_cell_volume                     739.915
_exptl_crystal_colour            colorless
_exptl_crystal_description       prism
_cell_formula_units_Z            2
_exptl_crystal_recrystallization_method dichloromethane/hexane
loop_
_atom_site_label
_atom_site_type_symbol
_atom_site_fract_x
_atom_site_fract_y
_atom_site_fract_z
Br1 Br 0.85154(9) 0.95619(6) 0.6233(4)
O1 O 0.6042(5) 0.9803(3) 0.3521(17)
C1 C 0.7175(7) 0.8802(4) 0.624(3)
C2 C 0.6083(7) 0.9029(5) 0.489(2)
C3 C 0.5091(8) 0.8444(5) 0.500(2)
H1 H 0.4330 0.8573 0.4098
C4 C 0.5267(8) 0.7679(5) 0.646(3)
H2 H 0.4617 0.7294 0.6501
C5 C 0.6369(8) 0.7465(4) 0.787(2)
C6 C 0.7312(8) 0.8044(5) 0.779(2)
H3 H 0.8056 0.7925 0.8792
C7 C 0.6509(9) 0.6621(5) 0.946(2)
H4 H 0.7023 0.6684 1.1261
H5 H 0.6886 0.6226 0.8070
H6 H 0.5706 0.6417 1.0072
C8 C 0.5000 1.0000 0.168(4)
H7 H 0.4805 0.9524 0.0361
Br1A Br 0.14846(9) 1.04381(6) 0.6233(4)
O1A O 0.3958(5) 1.0197(3) 0.3521(17)
C1A C 0.2825(7) 1.1198(4) 0.624(3)
C2A C 0.3917(7) 1.0971(5) 0.489(2)
C3A C 0.4909(8) 1.1556(5) 0.500(2)
H1A H 0.5670 1.1427 0.4098
C4A C 0.4733(8) 1.2321(5) 0.646(3)
H2A H 0.5383 1.2706 0.6501
C5A C 0.3631(8) 1.2535(4) 0.787(2)
C6A C 0.2688(8) 1.1956(5) 0.779(2)
H3A H 0.1944 1.2075 0.8792
C7A C 0.3491(9) 1.3379(5) 0.946(2)
H4A H 0.2977 1.3316 1.1261
H5A H 0.3114 1.3774 0.8070
H6A H 0.4294 1.3583 1.0072
H7A H 0.5195 1.0476 0.0361
loop_
_geom_bond_atom_site_label_1
_geom_bond_atom_site_label_2
_geom_bond_site_symmetry_1
_geom_bond_site_symmetry_2
Br1 C1 1_555 1_555
O1 C2 1_555 1_555
C1 C2 1_555 1_555
C2 C3 1_555 1_555
C3 H1 1_555 1_555
C4 C3 1_555 1_555
H2 C4 1_555 1_555
C5 C4 1_555 1_555
C6 C1 1_555 1_555
H3 C6 1_555 1_555
C7 C5 1_555 1_555
H4 C7 1_555 1_555
H5 C7 1_555 1_555
H6 C7 1_555 1_555
C8 O1 1_555 1_555
H7 C8 1_555 1_555
Br1A C1A 1_555 1_555
O1A C8 1_555 1_555
C1A C2A 1_555 1_555
C2A O1A 1_555 1_555
C3A C2A 1_555 1_555
H1A C3A 1_555 1_555
C4A C3A 1_555 1_555
H2A C4A 1_555 1_555
C5A C4A 1_555 1_555
C6A C1A 1_555 1_555
H3A C6A 1_555 1_555
C7A C5A 1_555 1_555
H4A C7A 1_555 1_555
H5A C7A 1_555 1_555
H6A C7A 1_555 1_555
H7A C8 1_555 1_555
C5 C6 1_555 1_555
C5A C6A 1_555 1_555

#END
