
#######################################################################
#
#                 Cambridge Crystallographic Data Centre
#                                CCDC 
#
#######################################################################
#
# If this CIF has been generated from an entry in the Cambridge 
# Structural Database, then it will include bibliographic, chemical, 
# crystal, experimental, refinement or atomic coordinate data resulting 
# from the CCDC's data processing and validation procedures.
#
#######################################################################

data_EXOGIJ
_chemical_formula_moiety         'C36 H33 Cl3 N2 O1,C1 H2 Cl2'
_chemical_name_systematic        
'N-(1-(2,8,9-tris(4-chlorophenyl)adamantan-1-yl)ethyl)pyridine-2-carboxamide dichloromethane solvate'
_symmetry_cell_setting           orthorhombic
_symmetry_space_group_name_H-M   'P 21 21 21'
_symmetry_Int_Tables_number      19
_space_group_name_Hall           'P 2ac 2ab'
loop_
_symmetry_equiv_pos_site_id
_symmetry_equiv_pos_as_xyz
1 x,y,z
2 1/2+x,1/2-y,-z
3 -x,1/2+y,1/2-z
4 1/2-x,-y,1/2+z
_cell_length_a                   8.5409(3)
_cell_length_b                   11.2963(4)
_cell_length_c                   34.9805(12)
_cell_angle_alpha                90
_cell_angle_beta                 90
_cell_angle_gamma                90
_cell_volume                     3374.94
_exptl_crystal_colour            colorless
_exptl_crystal_description       block
_cell_formula_units_Z            4
_exptl_crystal_recrystallization_method dichloromethane/n-Hexane
loop_
_atom_site_label
_atom_site_type_symbol
_atom_site_fract_x
_atom_site_fract_y
_atom_site_fract_z
Cl1 Cl 0.48748(8) 0.98075(5) 0.512054(17)
Cl2 Cl 0.53602(7) 0.51622(5) 0.814227(13)
Cl3 Cl -0.05202(6) 0.00352(5) 0.551535(16)
O1 O 0.14959(17) 0.53304(12) 0.69359(4)
N1 N 0.23964(16) 0.40770(12) 0.64765(4)
H1 H 0.2371 0.3359 0.6395
N2 N 0.09767(19) 0.22465(14) 0.67959(5)
C1 C 0.5171(2) 0.85064(17) 0.53783(6)
C2 C 0.5316(3) 0.74471(18) 0.51903(6)
H2 H 0.5231 0.7420 0.4925
C3 C 0.5589(3) 0.64151(17) 0.53957(5)
H3 H 0.5696 0.5702 0.5265
C4 C 0.57073(19) 0.64253(15) 0.57940(5)
C5 C 0.61481(19) 0.53647(15) 0.60422(4)
H4 H 0.6386 0.5714 0.6292
C6 C 0.49067(18) 0.43694(14) 0.61354(4)
C7 C 0.33242(18) 0.49346(14) 0.62613(4)
H5 H 0.3574 0.5586 0.6436
C8 C 0.1582(2) 0.43399(15) 0.67931(5)
C9 C 0.07285(19) 0.32960(16) 0.69633(5)
C10 C 0.0184(2) 0.13171(18) 0.69321(6)
H6 H 0.0338 0.0582 0.6818
C11 C -0.0857(2) 0.13974(19) 0.72352(6)
H7 H -0.1391 0.0730 0.7321
C12 C 0.5453(2) 0.47689(17) 0.76583(5)
C13 C 0.6227(2) 0.54844(17) 0.74014(5)
H8 H 0.6719 0.6173 0.7484
C14 C 0.6263(2) 0.51632(17) 0.70163(5)
H9 H 0.6780 0.5650 0.6843
C15 C 0.55449(19) 0.41315(14) 0.68844(4)
C16 C 0.55892(19) 0.36271(14) 0.64776(4)
H10 H 0.4916 0.2926 0.6490
C17 C 0.72226(19) 0.31311(16) 0.63756(5)
H11 H 0.7644 0.2701 0.6596
C18 C 0.8371(2) 0.41092(16) 0.62605(5)
H12 H 0.8525 0.4649 0.6473
H13 H 0.9376 0.3764 0.6195
C19 C 0.7716(2) 0.47833(16) 0.59171(5)
H14 H 0.8457 0.5406 0.5844
C20 C -0.1086(2) 0.2465(2) 0.74057(5)
H15 H -0.1771 0.2536 0.7611
C21 C -0.0285(2) 0.34497(18) 0.72695(5)
H16 H -0.0424 0.4190 0.7380
C22 C 0.2294(2) 0.54512(16) 0.59406(5)
H17 H 0.1986 0.4829 0.5769
H18 H 0.2876 0.6039 0.5802
H19 H 0.1378 0.5808 0.6050
C23 C 0.47734(18) 0.35502(14) 0.57740(4)
H20 H 0.4625 0.4098 0.5560
C24 C 0.6381(2) 0.29476(16) 0.56943(5)
H21 H 0.6266 0.2398 0.5479
C25 C 0.7025(2) 0.22742(17) 0.60404(5)
H22 H 0.6310 0.1644 0.6111
H23 H 0.8028 0.1922 0.5977
C26 C 0.7542(2) 0.39148(17) 0.55851(5)
H24 H 0.7172 0.4330 0.5360
H25 H 0.8550 0.3564 0.5526
C27 C 0.34203(19) 0.26634(14) 0.57391(4)
C28 C 0.2424(2) 0.27716(16) 0.54241(5)
H26 H 0.2576 0.3397 0.5255
C29 C 0.1216(2) 0.19798(17) 0.53543(5)
H27 H 0.0565 0.2079 0.5144
C30 C 0.0994(2) 0.10443(17) 0.56008(5)
C31 C 0.1950(2) 0.08954(16) 0.59154(5)
H28 H 0.1789 0.0265 0.6082
C32 C 0.3157(2) 0.16964(16) 0.59811(5)
H29 H 0.3807 0.1587 0.6192
C33 C 0.5263(3) 0.85523(18) 0.57709(6)
H30 H 0.5147 0.9268 0.5899
C34 C 0.5531(2) 0.75139(17) 0.59718(5)
H31 H 0.5595 0.7549 0.6237
C35 C 0.4821(2) 0.34332(16) 0.71577(5)
H32 H 0.4350 0.2731 0.7080
C36 C 0.4766(2) 0.37347(17) 0.75423(5)
H33 H 0.4271 0.3243 0.7718
Cl4 Cl -0.16476(8) 0.83373(7) 0.67501(2)
Cl5 Cl 0.16622(8) 0.82041(5) 0.655408(19)
C37 C -0.0164(3) 0.7481(2) 0.65468(8)
H34 H -0.0440 0.7298 0.6284
H35 H -0.0081 0.6740 0.6685
loop_
_geom_bond_atom_site_label_1
_geom_bond_atom_site_label_2
_geom_bond_site_symmetry_1
_geom_bond_site_symmetry_2
Cl1 C1 1_555 1_555
Cl2 C12 1_555 1_555
Cl3 C30 1_555 1_555
O1 C8 1_555 1_555
N1 H1 1_555 1_555
N2 C9 1_555 1_555
C1 C2 1_555 1_555
C2 H2 1_555 1_555
C3 C2 1_555 1_555
H3 C3 1_555 1_555
C4 C3 1_555 1_555
C5 C4 1_555 1_555
H4 C5 1_555 1_555
C6 C5 1_555 1_555
C7 N1 1_555 1_555
H5 C7 1_555 1_555
C8 N1 1_555 1_555
C9 C8 1_555 1_555
C10 N2 1_555 1_555
H6 C10 1_555 1_555
C11 C10 1_555 1_555
H7 C11 1_555 1_555
C12 C13 1_555 1_555
C13 H8 1_555 1_555
C14 C13 1_555 1_555
H9 C14 1_555 1_555
C15 C14 1_555 1_555
C16 C6 1_555 1_555
H10 C16 1_555 1_555
C17 C16 1_555 1_555
H11 C17 1_555 1_555
C18 C17 1_555 1_555
H12 C18 1_555 1_555
H13 C18 1_555 1_555
C19 C5 1_555 1_555
H14 C19 1_555 1_555
C20 C11 1_555 1_555
H15 C20 1_555 1_555
C21 C9 1_555 1_555
H16 C21 1_555 1_555
C22 C7 1_555 1_555
H17 C22 1_555 1_555
H18 C22 1_555 1_555
H19 C22 1_555 1_555
C23 C6 1_555 1_555
H20 C23 1_555 1_555
C24 C23 1_555 1_555
H21 C24 1_555 1_555
C25 C17 1_555 1_555
H22 C25 1_555 1_555
H23 C25 1_555 1_555
C26 C19 1_555 1_555
H24 C26 1_555 1_555
H25 C26 1_555 1_555
C27 C23 1_555 1_555
C28 C27 1_555 1_555
H26 C28 1_555 1_555
C29 C28 1_555 1_555
H27 C29 1_555 1_555
C30 C29 1_555 1_555
C31 C30 1_555 1_555
H28 C31 1_555 1_555
C32 C27 1_555 1_555
H29 C32 1_555 1_555
C33 C1 1_555 1_555
H30 C33 1_555 1_555
C34 C4 1_555 1_555
H31 C34 1_555 1_555
C35 C15 1_555 1_555
H32 C35 1_555 1_555
C36 C12 1_555 1_555
H33 C36 1_555 1_555
Cl4 C37 1_555 1_555
Cl5 C37 1_555 1_555
C37 H34 1_555 1_555
H35 C37 1_555 1_555
C6 C7 1_555 1_555
C15 C16 1_555 1_555
C18 C19 1_555 1_555
C20 C21 1_555 1_555
C24 C25 1_555 1_555
C24 C26 1_555 1_555
C31 C32 1_555 1_555
C33 C34 1_555 1_555
C35 C36 1_555 1_555

#END
