
#######################################################################
#
#                 Cambridge Crystallographic Data Centre
#                                CCDC 
#
#######################################################################
#
# If this CIF has been generated from an entry in the Cambridge 
# Structural Database, then it will include bibliographic, chemical, 
# crystal, experimental, refinement or atomic coordinate data resulting 
# from the CCDC's data processing and validation procedures.
#
#######################################################################

data_EXOHEG
_chemical_formula_moiety         'C26 H31 Cl1 N2 O1'
_chemical_name_systematic        
N-(1-(2-(4-chlorophenyl)-5,7-dimethyladamantan-1-yl)ethyl)pyridine-2-carboxamide
_symmetry_cell_setting           orthorhombic
_symmetry_space_group_name_H-M   'P 21 21 21'
_symmetry_Int_Tables_number      19
_space_group_name_Hall           'P 2ac 2ab'
loop_
_symmetry_equiv_pos_site_id
_symmetry_equiv_pos_as_xyz
1 x,y,z
2 1/2+x,1/2-y,-z
3 -x,1/2+y,1/2-z
4 1/2-x,-y,1/2+z
_cell_length_a                   9.7830(3)
_cell_length_b                   14.9349(4)
_cell_length_c                   15.4994(4)
_cell_angle_alpha                90
_cell_angle_beta                 90
_cell_angle_gamma                90
_cell_volume                     2264.59
_exptl_crystal_colour            colorless
_exptl_crystal_description       block
_cell_formula_units_Z            4
_exptl_crystal_recrystallization_method dichloromethane/n-hexane
loop_
_atom_site_label
_atom_site_type_symbol
_atom_site_fract_x
_atom_site_fract_y
_atom_site_fract_z
Cl1 Cl 0.17694(5) 0.88965(2) 0.92426(3)
O1 O 0.08628(13) 0.47967(7) 1.19773(7)
N1 N 0.16733(12) 0.53552(7) 1.07082(7)
H1 H 0.1818 0.5842 1.0426
N2 N 0.15165(13) 0.70271(8) 1.12968(8)
C1 C 0.15371(17) 0.77482(9) 0.90799(9)
C2 C 0.25750(16) 0.72591(10) 0.87056(10)
H2 H 0.3381 0.7538 0.8534
C3 C 0.24001(16) 0.63430(10) 0.85880(9)
H3 H 0.3096 0.6014 0.8329
C4 C 0.12089(15) 0.59034(9) 0.88474(9)
C5 C 0.11389(14) 0.48915(9) 0.87132(9)
H4 H 0.2027 0.4725 0.8468
C6 C 0.09644(14) 0.42897(9) 0.95299(8)
C7 C 0.19757(15) 0.45100(9) 1.02754(9)
H5 H 0.1868 0.4037 1.0708
C8 C 0.11877(15) 0.54285(10) 1.15107(9)
C9 C 0.10453(15) 0.63823(10) 1.18213(9)
C10 C 0.13924(17) 0.78741(10) 1.15692(11)
H6 H 0.1707 0.8330 1.1212
C11 C 0.08169(17) 0.81081(11) 1.23590(11)
H7 H 0.0758 0.8705 1.2526
C12 C 0.00635(16) 0.46037(10) 0.80286(9)
H8 H 0.0138 0.4994 0.7523
C13 C -0.14017(16) 0.46431(10) 0.83806(9)
H9 H -0.1623 0.5255 0.8539
H10 H -0.2037 0.4455 0.7935
C14 C -0.15555(14) 0.40344(9) 0.91718(9)
C15 C -0.12252(15) 0.30694(10) 0.88947(10)
H11 H -0.1321 0.2673 0.9386
H12 H -0.1870 0.2880 0.8456
C16 C 0.02328(15) 0.30014(9) 0.85376(9)
C17 C 0.12358(14) 0.33099(9) 0.92402(10)
H13 H 0.2162 0.3263 0.9022
H14 H 0.1157 0.2916 0.9736
C18 C -0.05165(14) 0.43203(9) 0.98679(9)
H15 H -0.0726 0.4924 1.0057
H16 H -0.0600 0.3926 1.0362
C19 C 0.03358(18) 0.74358(12) 1.28878(11)
H17 H -0.0063 0.7572 1.3416
C20 C 0.04561(17) 0.65538(11) 1.26201(10)
H18 H 0.0149 0.6087 1.2967
C21 C 0.34881(16) 0.45150(10) 1.00150(10)
H19 H 0.3648 0.4989 0.9609
H20 H 0.3719 0.3951 0.9756
H21 H 0.4044 0.4608 1.0518
C22 C 0.03652(16) 0.36360(10) 0.77620(9)
H22 H 0.1284 0.3598 0.7529
H23 H -0.0269 0.3454 0.7314
C23 C 0.05299(17) 0.20359(10) 0.82618(10)
H24 H 0.0415 0.1644 0.8747
H25 H 0.1452 0.1994 0.8054
H26 H -0.0091 0.1865 0.7812
C24 C -0.30047(15) 0.40798(11) 0.95349(11)
H27 H -0.3251 0.4694 0.9633
H28 H -0.3044 0.3757 1.0070
H29 H -0.3631 0.3817 0.9130
C25 C 0.01687(15) 0.64351(9) 0.92091(10)
H30 H -0.0645 0.6164 0.9377
C26 C 0.03198(15) 0.73501(10) 0.93230(9)
H31 H -0.0384 0.7690 0.9558
loop_
_geom_bond_atom_site_label_1
_geom_bond_atom_site_label_2
_geom_bond_site_symmetry_1
_geom_bond_site_symmetry_2
Cl1 C1 1_555 1_555
O1 C8 1_555 1_555
N1 H1 1_555 1_555
N2 C9 1_555 1_555
C1 C2 1_555 1_555
C2 H2 1_555 1_555
C3 C2 1_555 1_555
H3 C3 1_555 1_555
C4 C3 1_555 1_555
C5 C4 1_555 1_555
H4 C5 1_555 1_555
C6 C5 1_555 1_555
C7 N1 1_555 1_555
H5 C7 1_555 1_555
C8 N1 1_555 1_555
C9 C8 1_555 1_555
C10 N2 1_555 1_555
H6 C10 1_555 1_555
C11 C10 1_555 1_555
H7 C11 1_555 1_555
C12 C5 1_555 1_555
H8 C12 1_555 1_555
C13 C12 1_555 1_555
H9 C13 1_555 1_555
H10 C13 1_555 1_555
C14 C13 1_555 1_555
C15 C14 1_555 1_555
H11 C15 1_555 1_555
H12 C15 1_555 1_555
C16 C15 1_555 1_555
C17 C6 1_555 1_555
H13 C17 1_555 1_555
H14 C17 1_555 1_555
C18 C6 1_555 1_555
H15 C18 1_555 1_555
H16 C18 1_555 1_555
C19 C11 1_555 1_555
H17 C19 1_555 1_555
C20 C9 1_555 1_555
H18 C20 1_555 1_555
C21 C7 1_555 1_555
H19 C21 1_555 1_555
H20 C21 1_555 1_555
H21 C21 1_555 1_555
C22 C12 1_555 1_555
H22 C22 1_555 1_555
H23 C22 1_555 1_555
C23 C16 1_555 1_555
H24 C23 1_555 1_555
H25 C23 1_555 1_555
H26 C23 1_555 1_555
C24 C14 1_555 1_555
H27 C24 1_555 1_555
H28 C24 1_555 1_555
H29 C24 1_555 1_555
C25 C4 1_555 1_555
H30 C25 1_555 1_555
C26 C1 1_555 1_555
H31 C26 1_555 1_555
C6 C7 1_555 1_555
C14 C18 1_555 1_555
C16 C17 1_555 1_555
C16 C22 1_555 1_555
C19 C20 1_555 1_555
C25 C26 1_555 1_555

#END
