
#######################################################################
#
#                 Cambridge Crystallographic Data Centre
#                                CCDC 
#
#######################################################################
#
# If this CIF has been generated from an entry in the Cambridge 
# Structural Database, then it will include bibliographic, chemical, 
# crystal, experimental, refinement or atomic coordinate data resulting 
# from the CCDC's data processing and validation procedures.
#
#######################################################################

data_EYAQAX
_chemical_formula_moiety         'C42 H70 O35,C9 H6 O3,13.5(H2 O1)'
_chemical_name_systematic        
'\b-Cyclodextrin 7-hydroxycoumarin clathrate hydrate'
_symmetry_cell_setting           triclinic
_symmetry_space_group_name_H-M   'P 1'
_symmetry_Int_Tables_number      1
_space_group_name_Hall           'P 1'
loop_
_symmetry_equiv_pos_site_id
_symmetry_equiv_pos_as_xyz
1 x,y,z
_cell_length_a                   17.945(4)
_cell_length_b                   15.4494(13)
_cell_length_c                   15.232(3)
_cell_angle_alpha                103.206(12)
_cell_angle_beta                 113.26(2)
_cell_angle_gamma                99.679(12)
_cell_volume                     3616.1
_cell_formula_units_Z            2
loop_
_atom_site_label
_atom_site_type_symbol
_atom_site_fract_x
_atom_site_fract_y
_atom_site_fract_z
C1 C 0.2023(2) -0.0124(3) 0.2336(3)
H1 H 0.1905 -0.0695 0.2521
C2 C 0.2719(2) -0.0123(3) 0.1996(3)
H2 H 0.2507 -0.0683 0.1386
C3 C 0.2886(2) 0.0731(2) 0.1686(3)
H3 H 0.3097 0.1302 0.2286
C4 C 0.2072(2) 0.0752(2) 0.0862(3)
C5 C 0.1370(2) 0.0682(3) 0.1208(3)
C6 C 0.0519(2) 0.0566(3) 0.0381(3)
H4 H 0.0555 0.1070 0.0085
H5 H 0.0336 -0.0034 -0.0160
C7 C 0.2032(2) 0.1636(3) -0.0291(3)
H6 H 0.1884 0.0992 -0.0753
C8 C 0.2831(2) 0.2243(3) -0.0219(3)
H7 H 0.2706 0.2292 -0.0904
C9 C 0.30637(18) 0.3217(2) 0.0509(3)
H8 H 0.3179 0.3187 0.1197
C10 C 0.2318(2) 0.3610(2) 0.0114(2)
H9 H 0.2246 0.3698 -0.0542
C11 C 0.1493(2) 0.2966(3) -0.0050(3)
H10 H 0.1531 0.2962 0.0622
C12 C 0.0719(2) 0.3255(3) -0.0605(3)
H11 H 0.0202 0.2801 -0.0719
H12 H 0.0755 0.3870 -0.0190
C13 C 0.2368(2) 0.5233(2) 0.0471(3)
H13 H 0.2170 0.5015 -0.0276
C14 C 0.31997(19) 0.6020(3) 0.0964(3)
H14 H 0.3100 0.6515 0.0645
C15 C 0.3483(2) 0.6442(3) 0.2090(3)
H15 H 0.3604 0.5964 0.2430
C16 C 0.2762(2) 0.6773(3) 0.2218(3)
H16 H 0.2651 0.7265 0.1896
C17 C 0.1971(2) 0.5950(3) 0.1722(3)
H17 H 0.2080 0.5466 0.2055
C18 C 0.1221(2) 0.6230(3) 0.1770(3)
H18 H 0.0713 0.5683 0.1407
H19 H 0.1328 0.6456 0.2484
C19 C 0.3005(2) 0.8059(3) 0.3651(3)
H20 H 0.2954 0.8359 0.3122
C20 C 0.3846(2) 0.8581(3) 0.4579(3)
H21 H 0.3835 0.9229 0.4855
C21 C 0.3938(2) 0.8107(3) 0.5377(3)
H22 H 0.3967 0.7461 0.5133
C22 C 0.3184(2) 0.8093(3) 0.5608(3)
H23 H 0.3236 0.8738 0.5989
C23 C 0.2334(2) 0.7706(3) 0.4648(3)
H24 H 0.2225 0.7021 0.4363
C24 C 0.1606(2) 0.7876(3) 0.4867(3)
H25 H 0.1070 0.7622 0.4232
H26 H 0.1553 0.7549 0.5337
C25 C 0.3185(2) 0.7866(3) 0.7153(3)
H27 H 0.3177 0.8527 0.7266
C26 C 0.3962(2) 0.7813(2) 0.8008(3)
H28 H 0.3935 0.8068 0.8657
C27 C 0.3981(2) 0.6814(2) 0.7873(3)
H29 H 0.4030 0.6550 0.7240
C28 C 0.3159(2) 0.6254(2) 0.7803(3)
H30 H 0.3137 0.6475 0.8461
C29 C 0.2391(2) 0.6367(3) 0.6943(3)
H31 H 0.2380 0.6087 0.6276
C30 C 0.1570(3) 0.5912(4) 0.6935(5)
C31 C 0.3053(2) 0.4839(3) 0.8255(3)
H32 H 0.3098 0.5304 0.8864
C32 C 0.3772(2) 0.4404(3) 0.8578(2)
H33 H 0.3695 0.4063 0.9035
C33 C 0.37043(19) 0.3691(2) 0.7654(2)
H34 H 0.3766 0.4005 0.7170
C34 C 0.2831(2) 0.2977(2) 0.7151(3)
H35 H 0.2793 0.2624 0.7614
C35 C 0.2118(2) 0.3443(3) 0.6892(3)
H36 H 0.2110 0.3724 0.6360
C36 C 0.1251(2) 0.2772(3) 0.6525(3)
H37 H 0.0824 0.3119 0.6420
H38 H 0.1095 0.2309 0.5866
C37 C 0.2555(2) 0.1401(2) 0.6116(3)
H39 H 0.2558 0.1321 0.6751
C38 C 0.3236(2) 0.1010(3) 0.5945(3)
H40 H 0.3122 0.0342 0.5905
C39 C 0.3208(2) 0.1096(3) 0.4955(3)
H41 H 0.3322 0.1765 0.5002
C40 C 0.2332(2) 0.0560(2) 0.4101(3)
H42 H 0.2226 -0.0114 0.4031
C41 C 0.1664(2) 0.0919(3) 0.4326(3)
H43 H 0.1716 0.1566 0.4300
C42 C 0.0770(2) 0.0304(3) 0.3600(3)
H44 H 0.0358 0.0597 0.3731
H45 H 0.0668 0.0239 0.2897
O5 O 0.22997(16) 0.06798(18) 0.31901(19)
O6 O 0.34701(19) -0.0187(2) 0.2754(2)
H94 H 0.3896 0.0126 0.2744
O7 O 0.35070(17) 0.0724(2) 0.1314(2)
H95 H 0.3923 0.0600 0.1713
O8 O 0.12782(16) -0.0111(2) 0.1533(2)
O9 O -0.0082(2) 0.0590(4) 0.0760(3)
H96 H -0.0345 0.0969 0.0580
O10 O 0.22323(15) 0.16277(18) 0.07060(19)
O11 O 0.35072(17) 0.1827(2) 0.0072(2)
H97 H 0.3585 0.1726 0.0616
O12 O 0.37897(15) 0.38022(19) 0.0556(2)
H98 H 0.4140 0.3504 0.0556
O13 O 0.13531(15) 0.20271(19) -0.06530(19)
O14 O 0.06678(17) 0.3300(2) -0.1550(2)
H99 H 0.0403 0.3679 -0.1724
O15 O 0.25157(14) 0.44905(18) 0.08335(18)
O16 O 0.38241(15) 0.56690(19) 0.0775(2)
H100 H 0.3731 0.5106 0.0731
O17 O 0.42197(15) 0.7222(2) 0.2537(2)
H101 H 0.4478 0.7178 0.2181
O18 O 0.17443(14) 0.5567(2) 0.06637(19)
O19 O 0.1069(2) 0.6932(3) 0.1335(3)
H102 H 0.0841 0.7260 0.1608
O20 O 0.30164(14) 0.71431(18) 0.32830(18)
O21 O 0.45302(15) 0.8625(2) 0.4323(2)
H103 H 0.4496 0.8090 0.3997
O22 O 0.46841(15) 0.8642(2) 0.6295(2)
H104 H 0.4771 0.8348 0.6709
O23 O 0.23299(15) 0.8115(2) 0.3894(2)
O24 O 0.17440(18) 0.8854(2) 0.5308(2)
H105 H 0.1409 0.9044 0.4884
O25 O 0.32300(16) 0.75174(18) 0.6236(2)
O26 O 0.47108(18) 0.8361(2) 0.8067(2)
H106 H 0.4906 0.8022 0.7753
O27 O 0.46692(17) 0.6755(2) 0.8718(2)
H107 H 0.5096 0.6794 0.8611
O28 O 0.24440(18) 0.7330(2) 0.7115(3)
O29 O 0.31497(15) 0.53067(18) 0.75792(19)
O30 O 0.45773(15) 0.5076(2) 0.9129(2)
H108 H 0.4614 0.5451 0.8816
O31 O 0.43605(17) 0.3266(2) 0.7978(3)
H109 H 0.4265 0.2790 0.7507
O32 O 0.22549(15) 0.41620(19) 0.7781(2)
O33 O 0.12321(17) 0.2302(2) 0.7221(3)
H110 H 0.0729 0.2011 0.7045
O34 O 0.27452(15) 0.23494(18) 0.62380(18)
O35 O 0.40412(17) 0.1530(2) 0.6768(2)
H111 H 0.4341 0.1814 0.6558
O36 O 0.38130(17) 0.0733(2) 0.4738(2)
H112 H 0.4300 0.1014 0.5214
O37 O 0.17502(16) 0.0903(2) 0.5307(2)
O38 O 0.0647(2) -0.0596(2) 0.3715(3)
H113 H 0.0210 -0.0729 0.3795
O101 O 0.0846(2) 0.5961(3) 0.6072(3)
H137 H 0.0419 0.5522 0.5906
C43 C 0.6794(2) 0.2114(3) 0.2063(3)
H46 H 0.6832 0.2057 0.1416
C44 C 0.6017(3) 0.1377(3) 0.1863(3)
H47 H 0.6083 0.0754 0.1598
C45 C 0.5971(2) 0.1440(3) 0.2845(3)
H48 H 0.5883 0.2049 0.3111
C46 C 0.6790(2) 0.1368(3) 0.3612(3)
H49 H 0.6855 0.0736 0.3384
C47 C 0.7557(2) 0.2118(3) 0.3761(3)
H50 H 0.7505 0.2744 0.4039
C48 C 0.8405(3) 0.2053(5) 0.4442(4)
H51 H 0.8406 0.1997 0.5077
H52 H 0.8511 0.1490 0.4108
C49 C 0.69356(19) 0.5527(2) 0.1977(2)
H53 H 0.6992 0.6033 0.1679
C50 C 0.60808(19) 0.4797(2) 0.1284(2)
H54 H 0.6056 0.4524 0.0608
C51 C 0.6001(2) 0.4031(2) 0.1753(3)
H55 H 0.6002 0.4292 0.2417
C52 C 0.67450(19) 0.3640(2) 0.1903(2)
H56 H 0.6699 0.3310 0.1229
C53 C 0.7596(2) 0.4400(2) 0.2521(3)
H57 H 0.7683 0.4665 0.3229
C54 C 0.8330(2) 0.4030(3) 0.2536(3)
H58 H 0.8859 0.4552 0.2890
H59 H 0.8393 0.3587 0.2919
C55 C 0.7565(2) 0.8534(2) 0.4946(3)
H60 H 0.7756 0.9229 0.5208
C56 C 0.6742(2) 0.8210(3) 0.3970(3)
H61 H 0.6850 0.8488 0.3484
C57 C 0.6467(2) 0.7164(3) 0.3499(3)
H62 H 0.6352 0.6868 0.3969
C58 C 0.7194(2) 0.6890(2) 0.3340(3)
H63 H 0.7312 0.7180 0.2867
C59 C 0.7985(2) 0.7209(3) 0.4358(3)
H64 H 0.7861 0.6919 0.4827
C60 C 0.8759(2) 0.6993(4) 0.4282(4)
H65 H 0.9257 0.7268 0.4955
H66 H 0.8662 0.6312 0.4068
C61 C 0.7857(2) 0.9065(2) 0.8625(3)
H67 H 0.8003 0.9445 0.9328
C62 C 0.7081(2) 0.9244(2) 0.7877(3)
C63 C 0.68529(19) 0.8635(3) 0.6821(3)
H68 H 0.6698 0.7965 0.6765
C64 C 0.7610(2) 0.8863(3) 0.6604(3)
H69 H 0.7711 0.9504 0.6559
C65 C 0.8414(2) 0.8781(2) 0.7428(3)
H70 H 0.8344 0.8113 0.7379
C66 C 0.9205(2) 0.9153(3) 0.7334(3)
H71 H 0.9709 0.9145 0.7917
H72 H 0.9180 0.8749 0.6710
C67 C 0.7774(2) 0.6348(3) 1.0220(3)
H73 H 0.7879 0.6131 1.0817
C68 C 0.7075(2) 0.6825(3) 1.0062(3)
H74 H 0.7279 0.7370 1.0686
C69 C 0.6927(2) 0.7201(3) 0.9184(3)
H75 H 0.6722 0.6674 0.8545
C70 C 0.7763(2) 0.7854(3) 0.9395(3)
H76 H 0.7940 0.8418 0.9990
C71 C 0.8457(2) 0.7358(3) 0.9591(3)
H77 H 0.8315 0.6849 0.8961
C72 C 0.9314(3) 0.8029(4) 0.9940(4)
H78 H 0.9753 0.7698 1.0081
H79 H 0.9307 0.8289 0.9401
C73 C 0.7310(2) 0.2752(3) 0.8616(3)
H80 H 0.7321 0.2131 0.8703
C74 C 0.6628(2) 0.3057(3) 0.8861(3)
H81 H 0.6758 0.3086 0.9570
C75 C 0.6619(2) 0.4017(3) 0.8764(3)
H82 H 0.6488 0.3994 0.8056
C76 C 0.7497(2) 0.4693(2) 0.9493(3)
H83 H 0.7616 0.4751 1.0206
C77 C 0.8175(2) 0.4333(3) 0.9254(3)
H84 H 0.8102 0.4358 0.8575
C78 C 0.9062(2) 0.4900(3) 1.0053(3)
H85 H 0.9481 0.4685 0.9857
H86 H 0.9142 0.5561 1.0100
C79 C 0.6808(2) 0.0808(2) 0.4981(3)
H87 H 0.6755 0.0228 0.4477
C80 C 0.6075(2) 0.0644(2) 0.5246(3)
H88 H 0.6105 0.0138 0.5556
C81 C 0.6146(2) 0.1518(2) 0.6008(3)
H89 H 0.6108 0.2028 0.5705
C82 C 0.6997(2) 0.1790(2) 0.6923(2)
H90 H 0.7010 0.1312 0.7271
C83 C 0.7728(2) 0.1888(2) 0.6639(3)
H91 H 0.7751 0.2421 0.6372
C84 C 0.8582(2) 0.2056(3) 0.7514(3)
H92 H 0.9017 0.2073 0.7268
H93 H 0.8733 0.2668 0.8022
O39 O 0.66858(16) 0.29881(18) 0.24226(19)
O40 O 0.5277(2) 0.1466(2) 0.1115(2)
H114 H 0.5314 0.2031 0.1202
O41 O 0.52603(18) 0.0694(2) 0.2644(2)
H115 H 0.5317 0.0604 0.3187
O42 O 0.75400(19) 0.2024(2) 0.2777(2)
O43 O 0.9074(3) 0.2867(5) 0.4674(4)
H116 H 0.9117 0.3294 0.5160
O44 O 0.69485(15) 0.59021(18) 0.29221(18)
O45 O 0.54108(15) 0.52177(19) 0.1165(2)
H117 H 0.5165 0.5208 0.0564
O46 O 0.52349(15) 0.3298(2) 0.1087(2)
H118 H 0.5029 0.3369 0.0517
O47 O 0.76045(14) 0.51259(18) 0.20761(19)
O48 O 0.8212(2) 0.3571(2) 0.1533(3)
H119 H 0.7950 0.3835 0.1135
O49 O 0.74068(16) 0.81993(19) 0.5655(2)
O50 O 0.61083(17) 0.8541(2) 0.4152(2)
H120 H 0.6319 0.8884 0.4757
O51 O 0.57174(16) 0.6893(2) 0.2570(2)
H121 H 0.5562 0.6312 0.2307
O52 O 0.82044(16) 0.8209(2) 0.4774(2)
O53 O 0.8923(3) 0.7346(3) 0.3590(4)
H122 H 0.8469 0.7373 0.3152
O54 O 0.76385(16) 0.81129(18) 0.8525(2)
O55 O 0.63878(16) 0.9030(2) 0.8107(2)
H123 H 0.6356 0.9521 0.8447
O56 O 0.61589(16) 0.8831(2) 0.6107(2)
H124 H 0.5737 0.8709 0.6219
O57 O 0.85565(15) 0.93083(19) 0.84250(19)
O58 O 0.92824(19) 1.0073(2) 0.7303(3)
H125 H 0.9717 1.0265 0.7236
O59 O 0.75027(15) 0.55694(19) 0.93459(19)
O60 O 0.63341(19) 0.6236(2) 0.9952(2)
H126 H 0.6193 0.5731 0.9493
O61 O 0.63063(18) 0.7691(2) 0.9088(3)
H127 H 0.6393 0.8109 0.8841
O62 O 0.85387(17) 0.6975(2) 1.0398(2)
O63 O 0.9508(2) 0.8751(3) 1.0819(4)
H128 H 0.9067 0.8897 1.0773
O64 O 0.70924(15) 0.26699(18) 0.75952(19)
O65 O 0.58356(15) 0.2386(2) 0.8192(2)
H129 H 0.5540 0.2326 0.8498
O66 O 0.60217(17) 0.4340(2) 0.9022(2)
H130 H 0.5532 0.3998 0.8603
O67 O 0.81103(15) 0.33938(19) 0.92730(19)
O68 O 0.92038(16) 0.4807(2) 1.1027(2)
H131 H 0.9468 0.4412 1.1134
O69 O 0.67585(16) 0.15220(18) 0.45529(19)
O70 O 0.52935(16) 0.0354(2) 0.4351(2)
H132 H 0.4981 -0.0133 0.4322
O71 O 0.54582(15) 0.1321(2) 0.6249(2)
H133 H 0.5617 0.1164 0.6771
O72 O 0.75876(16) 0.10564(18) 0.58575(19)
O73 O 0.85840(17) 0.1355(2) 0.7980(2)
H134 H 0.8795 0.0963 0.7760
C85 C 0.6996(8) 0.4473(13) 0.5121(12)
C86 C 0.7653(4) 0.5313(6) 0.5947(6)
O1 O 0.4571(8) 0.2289(12) 0.3461(18)
C91 C 0.5022(13) 0.2945(17) 0.431(3)
C92 C 0.6205(6) 0.4475(13) 0.5995(13)
C93 C 0.6356(13) 0.4124(11) 0.5142(14)
C94 C 0.7505(8) 0.5570(9) 0.6733(9)
C95 C 0.6804(13) 0.5144(17) 0.6746(13)
O4 O 0.5636(6) 0.3496(7) 0.4078(10)
C103 C 0.4840(9) 0.3249(16) 0.505(3)
C104 C 0.5408(11) 0.393(3) 0.589(2)
O74 O 0.8390(4) 0.5726(6) 0.5914(6)
H135 H 0.8535 0.6302 0.6200
C87 C 0.5025(13) 0.5168(8) 0.3891(8)
C88 C 0.4404(18) 0.4386(10) 0.3314(14)
C89 C 0.1964(8) 0.4157(9) 0.3608(9)
C90 C 0.2168(14) 0.3436(17) 0.3111(14)
O2 O 0.394(2) 0.580(2) 0.4622(14)
O3 O 0.5271(11) 0.653(4) 0.504(3)
C96 C 0.4711(14) 0.579(3) 0.4397(16)
C97 C 0.3341(15) 0.4270(10) 0.3378(12)
C98 C 0.347(2) 0.5043(13) 0.4052(14)
C99 C 0.2609(14) 0.4999(12) 0.4120(19)
C100 C 0.288(2) 0.353(2) 0.304(2)
O75 O 0.1137(5) 0.4008(6) 0.3437(7)
H136 H 0.1021 0.3616 0.3701
O76 O 0.0427(3) 0.0441(3) 0.6565(4)
O77 O 0.7889(2) 0.1729(3) 0.0642(3)
O78 O 0.9095(3) 0.1758(4) 0.9975(3)
O79 O 0.0239(3) 0.7838(4) 0.2209(3)
O80 O 0.9703(2) 0.6318(3) 0.2680(4)
O81 O 0.4666(2) 0.0302(3) 0.7588(3)
O82 O 0.4670(3) 0.7221(4) 0.0599(4)
O83 O 0.1685(3) 0.9498(3) 0.7099(3)
O84 O 0.6264(3) 0.0573(4) 0.9296(4)
O85 O 0.0108(3) 0.3561(4) 0.1257(4)
O86 O 0.0755(5) 0.5565(4) 0.4115(5)
O87 O 0.0695(4) 0.6609(5) 0.9268(4)
O88 O 0.9547(4) 0.7038(6) 0.7619(6)
O89 O 0.9505(3) 0.4652(5) 0.5956(5)
O90 O 0.5583(4) 0.8937(4) 0.2350(4)
O91 O 0.9524(4) 0.9389(6) 0.4415(6)
O92 O 0.4271(4) 0.9607(6) 0.0152(6)
O93 O 0.5739(5) 0.9286(5) 0.0086(5)
O94 O 0.2216(10) 0.7619(10) 0.9404(9)
O95 O 0.0719(9) 0.7754(7) 0.7005(13)
O96 O 0.3790(7) 0.8526(7) 0.1546(9)
O97 O 0.8994(7) 0.124(2) 0.227(2)
O98 O 0.0009(11) 0.2582(13) 0.3694(14)
O99 O 0.8338(10) 0.9837(14) 0.2879(19)
O100 O 0.6798(13) 0.891(2) 0.153(2)
O102 O 0.5061(8) 0.1994(5) 0.9289(7)
O103 O 0.999(2) 0.4686(12) 0.8055(9)
O104 O 0.3408(4) 0.0408(6) 0.8430(6)
O105 O 0.5218(10) 0.6160(11) 0.6186(16)
C101? C 0.522(5) 0.446(4) 0.630(5)
C102? C 0.4267(11) 0.352(3) 0.5199(18)
O106? O 0.5623(12) 0.6732(15) 0.6935(13)
C105? C 0.2822(13) 0.3087(17) 0.3853(17)
C106? C 0.4743(11) 0.3523(14) 0.3192(13)
C107? C 0.5890(10) 0.5191(11) 0.4712(12)
C108? C 0.6143(17) 0.4325(16) 0.474(2)
C109? C 0.7201(10) 0.5973(9) 0.6151(13)
C110? C 0.6508(15) 0.596(3) 0.5505(16)
C111? C 0.4967(15) 0.514(2) 0.6432(14)
C112? C 0.3509(9) 0.3781(13) 0.4684(12)
C113? C 0.342(3) 0.472(3) 0.5019(10)
C114? C 0.2527(14) 0.4756(16) 0.4496(16)
H138? H 0.1158 0.5883 0.7839
O107? O 0.476(3) 0.6607(17) 0.629(2)
O108? O 0.3632(8) 0.8541(9) 0.1005(17)
O109? O 0.162(2) 0.6156(16) 0.787(4)
O110? O 0.4301(8) 0.2757(7) 0.2604(11)
O111? O 0.428(2) 0.5546(14) 0.5875(12)
O112? O 0.527(2) 0.583(6) 0.703(3)
O113? O 0.474(2) 0.221(2) 0.9122(11)
O114? O 0.488(8) 0.0330(11) 0.916(5)
O115? O 1.044(2) 0.4850(11) 0.8053(12)
loop_
_geom_bond_atom_site_label_1
_geom_bond_atom_site_label_2
_geom_bond_site_symmetry_1
_geom_bond_site_symmetry_2
C1 H1 1_555 1_555
C2 C1 1_555 1_555
H2 C2 1_555 1_555
C3 C2 1_555 1_555
H3 C3 1_555 1_555
C4 C3 1_555 1_555
C5 C4 1_555 1_555
C6 C5 1_555 1_555
H4 C6 1_555 1_555
H5 C6 1_555 1_555
C7 H6 1_555 1_555
C8 C7 1_555 1_555
H7 C8 1_555 1_555
C9 C8 1_555 1_555
H8 C9 1_555 1_555
C10 C9 1_555 1_555
H9 C10 1_555 1_555
C11 C10 1_555 1_555
H10 C11 1_555 1_555
C12 C11 1_555 1_555
H11 C12 1_555 1_555
H12 C12 1_555 1_555
C13 H13 1_555 1_555
C14 C13 1_555 1_555
H14 C14 1_555 1_555
C15 C14 1_555 1_555
H15 C15 1_555 1_555
C16 C15 1_555 1_555
H16 C16 1_555 1_555
C17 C16 1_555 1_555
H17 C17 1_555 1_555
C18 C17 1_555 1_555
H18 C18 1_555 1_555
H19 C18 1_555 1_555
C19 H20 1_555 1_555
C20 C19 1_555 1_555
H21 C20 1_555 1_555
C21 C20 1_555 1_555
H22 C21 1_555 1_555
C22 C21 1_555 1_555
H23 C22 1_555 1_555
C23 C22 1_555 1_555
H24 C23 1_555 1_555
C24 C23 1_555 1_555
H25 C24 1_555 1_555
H26 C24 1_555 1_555
C25 H27 1_555 1_555
C26 C25 1_555 1_555
H28 C26 1_555 1_555
C27 C26 1_555 1_555
H29 C27 1_555 1_555
C28 C27 1_555 1_555
H30 C28 1_555 1_555
C29 C28 1_555 1_555
H31 C29 1_555 1_555
C30 C29 1_555 1_555
C31 H32 1_555 1_555
C32 C31 1_555 1_555
H33 C32 1_555 1_555
C33 C32 1_555 1_555
H34 C33 1_555 1_555
C34 C33 1_555 1_555
H35 C34 1_555 1_555
C35 C34 1_555 1_555
H36 C35 1_555 1_555
C36 C35 1_555 1_555
H37 C36 1_555 1_555
H38 C36 1_555 1_555
C37 H39 1_555 1_555
C38 C37 1_555 1_555
H40 C38 1_555 1_555
C39 C38 1_555 1_555
H41 C39 1_555 1_555
C40 C39 1_555 1_555
H42 C40 1_555 1_555
C41 C40 1_555 1_555
H43 C41 1_555 1_555
C42 C41 1_555 1_555
H44 C42 1_555 1_555
H45 C42 1_555 1_555
C43 H46 1_555 1_555
C44 C43 1_555 1_555
H47 C44 1_555 1_555
C45 C44 1_555 1_555
H48 C45 1_555 1_555
C46 C45 1_555 1_555
H49 C46 1_555 1_555
C47 C46 1_555 1_555
H50 C47 1_555 1_555
C48 C47 1_555 1_555
H51 C48 1_555 1_555
H52 C48 1_555 1_555
C49 H53 1_555 1_555
C50 C49 1_555 1_555
H54 C50 1_555 1_555
C51 C50 1_555 1_555
H55 C51 1_555 1_555
C52 C51 1_555 1_555
H56 C52 1_555 1_555
C53 C52 1_555 1_555
H57 C53 1_555 1_555
C54 C53 1_555 1_555
H58 C54 1_555 1_555
H59 C54 1_555 1_555
C55 H60 1_555 1_555
C56 C55 1_555 1_555
H61 C56 1_555 1_555
C57 C56 1_555 1_555
H62 C57 1_555 1_555
C58 C57 1_555 1_555
H63 C58 1_555 1_555
C59 C58 1_555 1_555
H64 C59 1_555 1_555
C60 C59 1_555 1_555
H65 C60 1_555 1_555
H66 C60 1_555 1_555
C61 H67 1_555 1_555
C62 C61 1_555 1_555
C63 C62 1_555 1_555
H68 C63 1_555 1_555
C64 C63 1_555 1_555
H69 C64 1_555 1_555
C65 C64 1_555 1_555
H70 C65 1_555 1_555
C66 C65 1_555 1_555
H71 C66 1_555 1_555
H72 C66 1_555 1_555
C67 H73 1_555 1_555
C68 C67 1_555 1_555
H74 C68 1_555 1_555
C69 C68 1_555 1_555
H75 C69 1_555 1_555
C70 C69 1_555 1_555
H76 C70 1_555 1_555
C71 C70 1_555 1_555
H77 C71 1_555 1_555
C72 C71 1_555 1_555
H78 C72 1_555 1_555
H79 C72 1_555 1_555
C73 H80 1_555 1_555
C74 C73 1_555 1_555
H81 C74 1_555 1_555
C75 C74 1_555 1_555
H82 C75 1_555 1_555
C76 C75 1_555 1_555
H83 C76 1_555 1_555
C77 C76 1_555 1_555
H84 C77 1_555 1_555
C78 C77 1_555 1_555
H85 C78 1_555 1_555
H86 C78 1_555 1_555
C79 H87 1_555 1_555
C80 C79 1_555 1_555
H88 C80 1_555 1_555
C81 C80 1_555 1_555
H89 C81 1_555 1_555
C82 C81 1_555 1_555
H90 C82 1_555 1_555
C83 C82 1_555 1_555
H91 C83 1_555 1_555
C84 C83 1_555 1_555
H92 C84 1_555 1_555
H93 C84 1_555 1_555
C85 C86 1_555 1_555
C86 C94 1_555 1_555
C87 C88 1_555 1_555
C88 C97 1_555 1_555
C89 C90 1_555 1_555
C90 C100 1_555 1_555
O1 C91 1_555 1_555
C91 O4 1_555 1_555
C92 C93 1_555 1_555
C93 C85 1_555 1_555
C94 C95 1_555 1_555
C95 C92 1_555 1_555
O2 C96 1_555 1_555
O3 C96 1_555 1_555
C96 C87 1_555 1_555
C97 C98 1_555 1_555
C98 O2 1_555 1_555
C99 C89 1_555 1_555
C100 C97 1_555 1_555
O4 C93 1_555 1_555
C103 C91 1_555 1_555
C104 C92 1_555 1_555
O5 C1 1_555 1_555
O6 C2 1_555 1_555
H94 O6 1_555 1_555
O7 C3 1_555 1_555
H95 O7 1_555 1_555
O8 C1 1_555 1_555
O9 C6 1_555 1_555
H96 O9 1_555 1_555
O10 C4 1_555 1_555
O11 C8 1_555 1_555
H97 O11 1_555 1_555
O12 C9 1_555 1_555
H98 O12 1_555 1_555
O13 C7 1_555 1_555
O14 C12 1_555 1_555
H99 O14 1_555 1_555
O15 C10 1_555 1_555
O16 C14 1_555 1_555
H100 O16 1_555 1_555
O17 C15 1_555 1_555
H101 O17 1_555 1_555
O18 C13 1_555 1_555
O19 C18 1_555 1_555
H102 O19 1_555 1_555
O20 C16 1_555 1_555
O21 C20 1_555 1_555
H103 O21 1_555 1_555
O22 C21 1_555 1_555
H104 O22 1_555 1_555
O23 C19 1_555 1_555
O24 C24 1_555 1_555
H105 O24 1_555 1_555
O25 C22 1_555 1_555
O26 C26 1_555 1_555
H106 O26 1_555 1_555
O27 C27 1_555 1_555
H107 O27 1_555 1_555
O28 C25 1_555 1_555
O29 C28 1_555 1_555
O30 C32 1_555 1_555
H108 O30 1_555 1_555
O31 C33 1_555 1_555
H109 O31 1_555 1_555
O32 C31 1_555 1_555
O33 C36 1_555 1_555
H110 O33 1_555 1_555
O34 C34 1_555 1_555
O35 C38 1_555 1_555
H111 O35 1_555 1_555
O36 C39 1_555 1_555
H112 O36 1_555 1_555
O37 C37 1_555 1_555
O38 C42 1_555 1_555
H113 O38 1_555 1_555
O39 C43 1_555 1_555
O40 C44 1_555 1_555
H114 O40 1_555 1_555
O41 C45 1_555 1_555
H115 O41 1_555 1_555
O42 C43 1_555 1_555
O43 C48 1_555 1_555
H116 O43 1_555 1_555
O44 C49 1_555 1_555
O45 C50 1_555 1_555
H117 O45 1_555 1_555
O46 C51 1_555 1_555
H118 O46 1_555 1_555
O47 C49 1_555 1_555
O48 C54 1_555 1_555
H119 O48 1_555 1_555
O49 C55 1_555 1_555
O50 C56 1_555 1_555
H120 O50 1_555 1_555
O51 C57 1_555 1_555
H121 O51 1_555 1_555
O52 C55 1_555 1_555
O53 C60 1_555 1_555
H122 O53 1_555 1_555
O54 C61 1_555 1_555
O55 C62 1_555 1_555
H123 O55 1_555 1_555
O56 C63 1_555 1_555
H124 O56 1_555 1_555
O57 C61 1_555 1_555
O58 C66 1_555 1_555
H125 O58 1_555 1_555
O59 C67 1_555 1_555
O60 C68 1_555 1_555
H126 O60 1_555 1_555
O61 C69 1_555 1_555
H127 O61 1_555 1_555
O62 C67 1_555 1_555
O63 C72 1_555 1_555
H128 O63 1_555 1_555
O64 C73 1_555 1_555
O65 C74 1_555 1_555
H129 O65 1_555 1_555
O66 C75 1_555 1_555
H130 O66 1_555 1_555
O67 C73 1_555 1_555
O68 C78 1_555 1_555
H131 O68 1_555 1_555
O69 C46 1_555 1_555
O70 C80 1_555 1_555
H132 O70 1_555 1_555
O71 C81 1_555 1_555
H133 O71 1_555 1_555
O72 C79 1_555 1_555
O73 C84 1_555 1_555
H134 O73 1_555 1_555
O74 C86 1_555 1_555
H135 O74 1_555 1_555
O75 C89 1_555 1_555
H136 O75 1_555 1_555
O101 C30 1_555 1_555
H137 O101 1_555 1_555
C5 O8 1_555 1_555
C7 O10 1_555 1_555
C11 O13 1_555 1_555
C13 O15 1_555 1_555
C17 O18 1_555 1_555
C19 O20 1_555 1_555
C23 O23 1_555 1_555
C25 O25 1_555 1_555
C29 O28 1_555 1_555
C31 O29 1_555 1_555
C35 O32 1_555 1_555
C37 O34 1_555 1_555
C40 O5 1_555 1_555
C41 O37 1_555 1_555
C47 O42 1_555 1_555
C52 O39 1_555 1_555
C53 O47 1_555 1_555
C58 O44 1_555 1_555
C59 O52 1_555 1_555
C64 O49 1_555 1_555
C65 O57 1_555 1_555
C70 O54 1_555 1_555
C71 O62 1_555 1_555
C76 O59 1_555 1_555
C77 O67 1_555 1_555
C79 O69 1_555 1_555
C82 O64 1_555 1_555
C83 O72 1_555 1_555
C98 C99 1_555 1_555
C103 C104 1_555 1_555

#END
