
#######################################################################
#
#                 Cambridge Crystallographic Data Centre
#                                CCDC 
#
#######################################################################
#
# If this CIF has been generated from an entry in the Cambridge 
# Structural Database, then it will include bibliographic, chemical, 
# crystal, experimental, refinement or atomic coordinate data resulting 
# from the CCDC's data processing and validation procedures.
#
#######################################################################

data_EYECIW
_chemical_formula_moiety         'C26 H20 F3 N3 O4,0.5(C4 H6 O4)'
_chemical_name_systematic        
'1-((3-(3-phenyl-4-(trifluoromethyl)-1,2-oxazol-5-yl)-4,5-dihydronaphtho[1,2-c][1,2]oxazol-7-yl)methyl)azetidinium-3-carboxylate hemikis(succinic acid)'
_chemical_properties_biological  
'Sphingosine-1-phosphate Receptor 1 (S1P1) agonist'
_symmetry_cell_setting           triclinic
_symmetry_space_group_name_H-M   'P -1'
_symmetry_Int_Tables_number      2
_space_group_name_Hall           '-P 1'
loop_
_symmetry_equiv_pos_site_id
_symmetry_equiv_pos_as_xyz
1 x,y,z
2 -x,-y,-z
_cell_length_a                   6.0990(4)
_cell_length_b                   11.8242(7)
_cell_length_c                   18.4936(13)
_cell_angle_alpha                98.448(4)
_cell_angle_beta                 94.647(4)
_cell_angle_gamma                104.891(3)
_cell_volume                     1265.03
_exptl_crystal_colour            colorless
_exptl_crystal_description       blade
_cell_formula_units_Z            2
_exptl_crystal_recrystallization_method 
N-methyl-2-pyrrolidone/tetrahydrofuran/dichloromethane
loop_
_atom_site_label
_atom_site_type_symbol
_atom_site_fract_x
_atom_site_fract_y
_atom_site_fract_z
C1 C 0.4361(7) 0.6722(4) 0.3579(2)
C2 C -0.1736(7) -0.3051(4) 0.1225(2)
C3 C 0.1254(7) 0.5438(4) 0.2710(3)
H1 H -0.0163 0.5314 0.2426
C4 C 0.0374(7) 0.0186(4) 0.1688(2)
C5 C 0.8225(6) 1.0223(3) 0.3607(2)
H2 H 0.8287 1.0961 0.3407
C6 C -0.0588(7) -0.1773(4) 0.1456(2)
C7 C -0.1190(7) -0.0757(4) 0.1272(2)
C8 C 0.2332(7) 0.4528(3) 0.2675(2)
C9 C 1.0597(7) 1.0066(4) 0.3812(2)
C10 C 0.2257(7) 0.6519(4) 0.3159(3)
H3 H 0.1510 0.7125 0.3182
C11 C 0.2214(7) 0.2374(4) 0.2291(2)
C12 C 0.5434(7) 0.7852(3) 0.4108(2)
H4 H 0.4705 0.7829 0.4560
H5 H 0.7056 0.7914 0.4236
C13 C 0.1308(7) 0.3347(4) 0.2245(3)
C14 C 0.5442(7) 0.5812(4) 0.3511(3)
H6 H 0.6903 0.5953 0.3772
C15 C 0.0687(7) 0.1450(4) 0.1851(3)
C16 C -0.3905(9) -0.5452(4) 0.0861(3)
H7 H -0.4645 -0.6269 0.0737
C17 C -0.0601(8) -0.3825(4) 0.0928(3)
H8 H 0.0929 -0.3540 0.0846
C18 C 0.4458(7) 0.4711(4) 0.3077(3)
C19 C 0.6744(6) 1.0090(3) 0.4237(2)
H9 H 0.7567 1.0013 0.4697
H10 H 0.5944 1.0708 0.4324
C20 C 0.5709(8) 0.3767(4) 0.2982(4)
H11 H 0.6729 0.3939 0.2606
H12 H 0.6678 0.3842 0.3446
C21 C -0.3987(8) -0.3485(4) 0.1345(3)
H13 H -0.4785 -0.2961 0.1552
C22 C 0.6461(6) 0.9135(4) 0.3148(2)
H14 H 0.5538 0.9330 0.2750
H15 H 0.7121 0.8494 0.2959
C23 C 0.4333(8) 0.2512(4) 0.2775(3)
H16 H 0.5253 0.2045 0.2524
H17 H 0.3947 0.2194 0.3223
C24 C -0.5053(9) -0.4679(4) 0.1162(3)
H18 H -0.6583 -0.4968 0.1243
C25 C -0.1700(9) -0.5035(4) 0.0745(3)
H19 H -0.0909 -0.5565 0.0540
C26 C -0.3053(10) -0.0736(5) 0.0710(3)
N1 N 0.5232(5) 0.8915(3) 0.38069(19)
H20 H 0.3619 0.8931 0.3719
N2 N 0.1258(7) -0.1447(3) 0.1931(2)
N3 N -0.0609(7) 0.3054(3) 0.1789(3)
O1 O 0.1882(5) -0.0201(2) 0.20838(18)
O2 O 1.2101(5) 1.0959(3) 0.41356(18)
O3 O -0.1034(6) 0.1829(3) 0.1533(2)
O4 O 1.0848(4) 0.9050(3) 0.36775(19)
F1 F -0.2426(5) 0.0086(3) 0.03043(18)
F2 F -0.3839(10) -0.1729(3) 0.0271(3)
F3 F -0.4811(6) -0.0493(4) 0.1014(3)
O5 O 0.2230(6) 0.3160(3) 0.4412(3)
H21 H 0.1931 0.2424 0.4349
C27 C 0.0529(8) 0.3497(4) 0.4671(3)
O6 O -0.1074(8) 0.2801(3) 0.4788(3)
C28 C 0.0905(8) 0.4805(4) 0.4810(3)
H22 H 0.0974 0.5090 0.4338
H23 H 0.2386 0.5175 0.5110
O5A O -0.2230(6) 0.6840(3) 0.5588(3)
H21A H -0.1931 0.7576 0.5651
C27A C -0.0529(8) 0.6503(4) 0.5329(3)
O6A O 0.1074(8) 0.7199(3) 0.5212(3)
C28A C -0.0905(8) 0.5195(4) 0.5190(3)
H22A H -0.0974 0.4910 0.5662
H23A H -0.2386 0.4825 0.4890
loop_
_geom_bond_atom_site_label_1
_geom_bond_atom_site_label_2
_geom_bond_site_symmetry_1
_geom_bond_site_symmetry_2
C1 C10 1_555 1_555
C2 C6 1_555 1_555
C3 H1 1_555 1_555
C4 C7 1_555 1_555
C5 H2 1_555 1_555
C6 C7 1_555 1_555
C7 C26 1_555 1_555
C8 C3 1_555 1_555
C9 C5 1_555 1_555
C10 C3 1_555 1_555
H3 C10 1_555 1_555
C11 C13 1_555 1_555
C12 C1 1_555 1_555
H4 C12 1_555 1_555
H5 C12 1_555 1_555
C13 C8 1_555 1_555
C14 C1 1_555 1_555
H6 C14 1_555 1_555
C15 C4 1_555 1_555
C16 H7 1_555 1_555
C17 C2 1_555 1_555
H8 C17 1_555 1_555
C18 C8 1_555 1_555
C19 C5 1_555 1_555
H9 C19 1_555 1_555
H10 C19 1_555 1_555
C20 C18 1_555 1_555
H11 C20 1_555 1_555
H12 C20 1_555 1_555
C21 C2 1_555 1_555
H13 C21 1_555 1_555
C22 C5 1_555 1_555
H14 C22 1_555 1_555
H15 C22 1_555 1_555
C23 C11 1_555 1_555
H16 C23 1_555 1_555
H17 C23 1_555 1_555
C24 C16 1_555 1_555
H18 C24 1_555 1_555
C25 C16 1_555 1_555
H19 C25 1_555 1_555
C26 F1 1_555 1_555
N1 C12 1_555 1_555
H20 N1 1_555 1_555
N2 C6 1_555 1_555
N3 C13 1_555 1_555
O1 C4 1_555 1_555
O2 C9 1_555 1_555
O3 C15 1_555 1_555
O4 C9 1_555 1_555
F2 C26 1_555 1_555
F3 C26 1_555 1_555
O5 H21 1_555 1_555
C27 O5 1_555 1_555
O6 C27 1_555 1_555
C28 C27 1_555 1_555
H22 C28 1_555 1_555
H23 C28 1_555 1_555
O5A H21A 1_555 1_555
C27A O5A 1_555 1_555
O6A C27A 1_555 1_555
C28A C28 1_555 1_555
H22A C28A 1_555 1_555
H23A C28A 1_555 1_555
C11 C15 1_555 1_555
C14 C18 1_555 1_555
C17 C25 1_555 1_555
C19 N1 1_555 1_555
C20 C23 1_555 1_555
C21 C24 1_555 1_555
C22 N1 1_555 1_555
N2 O1 1_555 1_555
N3 O3 1_555 1_555
C27A C28A 1_555 1_555

#END
