
#######################################################################
#
#                 Cambridge Crystallographic Data Centre
#                                CCDC 
#
#######################################################################
#
# If this CIF has been generated from an entry in the Cambridge 
# Structural Database, then it will include bibliographic, chemical, 
# crystal, experimental, refinement or atomic coordinate data resulting 
# from the CCDC's data processing and validation procedures.
#
#######################################################################

data_EYERUX
_chemical_formula_moiety         'C20 H25 O1 P1'
_chemical_name_systematic        
3,3-dimethyl-1-(methyl(2-methylphenyl)phenylphosphoranylidene)butan-2-one
_symmetry_cell_setting           monoclinic
_symmetry_space_group_name_H-M   'P 21/c'
_symmetry_Int_Tables_number      14
_space_group_name_Hall           '-P 2ybc'
loop_
_symmetry_equiv_pos_site_id
_symmetry_equiv_pos_as_xyz
1 x,y,z
2 -x,1/2+y,1/2-z
3 -x,-y,-z
4 x,1/2-y,1/2+z
_cell_length_a                   9.906(3)
_cell_length_b                   23.109(5)
_cell_length_c                   15.149(3)
_cell_angle_alpha                90
_cell_angle_beta                 90.460(6)
_cell_angle_gamma                90
_cell_volume                     3467.76
_exptl_crystal_colour            colorless
_exptl_crystal_description       platelet
_cell_formula_units_Z            8
loop_
_atom_site_label
_atom_site_type_symbol
_atom_site_fract_x
_atom_site_fract_y
_atom_site_fract_z
P1 P -0.06652(8) 0.34240(3) 0.63634(5)
O1 O 0.1869(3) 0.31917(9) 0.54680(14)
C1 C 0.2272(4) 0.40970(13) 0.4740(2)
C2 C 0.1657(4) 0.46959(14) 0.4599(3)
C3 C 0.3655(4) 0.41687(16) 0.5192(3)
C4 C 0.2441(4) 0.38067(15) 0.3837(2)
C5 C 0.1425(4) 0.36958(13) 0.5333(2)
C6 C 0.0230(4) 0.38995(13) 0.5716(2)
C7 C 0.0286(3) 0.31475(13) 0.7299(2)
C8 C 0.1457(4) 0.34229(14) 0.7586(3)
C9 C 0.2099(4) 0.32390(15) 0.8348(3)
C10 C 0.1581(4) 0.27840(16) 0.8829(2)
C11 C 0.0432(4) 0.24963(15) 0.8539(2)
C12 C -0.0217(4) 0.26767(13) 0.7771(2)
C13 C -0.2134(4) 0.37745(14) 0.6841(2)
C14 C -0.2051(4) 0.42663(15) 0.7383(3)
C15 C -0.3234(4) 0.44891(17) 0.7744(3)
C16 C -0.4478(4) 0.42322(18) 0.7584(3)
C17 C -0.4573(4) 0.37536(17) 0.7062(3)
C18 C -0.3410(4) 0.35228(16) 0.6686(3)
C19 C -0.0743(4) 0.45562(16) 0.7618(3)
C20 C -0.1257(4) 0.28040(14) 0.5762(2)
H1 H 0.2252 0.4927 0.4224
H2 H 0.1552 0.4889 0.5170
H3 H 0.0771 0.4657 0.4312
H4 H 0.3542 0.4364 0.5760
H5 H 0.4245 0.4401 0.4815
H6 H 0.4062 0.3787 0.5288
H7 H 0.2862 0.3426 0.3915
H8 H 0.3015 0.4048 0.3463
H9 H 0.1554 0.3760 0.3554
H10 H -0.0073 0.4285 0.5623
H11 H 0.1815 0.3737 0.7258
H12 H 0.2901 0.3427 0.8542
H13 H 0.2015 0.2667 0.9361
H14 H 0.0091 0.2178 0.8864
H15 H -0.1002 0.2480 0.7568
H16 H -0.3186 0.4824 0.8107
H17 H -0.5268 0.4391 0.7841
H18 H -0.5426 0.3578 0.6955
H19 H -0.3480 0.3190 0.6319
H20 H -0.0604 0.4540 0.8258
H21 H -0.0772 0.4961 0.7426
H22 H 0.0001 0.4357 0.7322
H23 H -0.0485 0.2594 0.5520
H24 H -0.1851 0.2930 0.5279
H25 H -0.1759 0.2549 0.6160
P2 P 0.42647(8) 0.16777(3) 0.62607(5)
O2 O 0.6963(3) 0.18256(9) 0.70491(14)
C21 C 0.7214(4) 0.08975(15) 0.7773(3)
C22 C 0.6280(5) 0.0668(2) 0.8509(3)
C23 C 0.7600(5) 0.03771(18) 0.7189(4)
C24 C 0.8435(5) 0.1164(2) 0.8182(4)
C25 C 0.6429(4) 0.13413(13) 0.7206(2)
C26 C 0.5170(4) 0.11837(14) 0.6867(2)
C27 C 0.5169(4) 0.19484(13) 0.5304(2)
C28 C 0.6286(4) 0.16479(14) 0.4978(3)
C29 C 0.6933(4) 0.18450(15) 0.4226(3)
C30 C 0.6475(4) 0.23369(16) 0.3798(3)
C31 C 0.5387(4) 0.26345(15) 0.4129(3)
C32 C 0.4738(4) 0.24466(14) 0.4879(2)
C33 C 0.2690(4) 0.13566(14) 0.5871(2)
C34 C 0.2662(4) 0.08722(15) 0.5316(3)
C35 C 0.1387(5) 0.06631(16) 0.5027(3)
C36 C 0.0215(5) 0.09202(19) 0.5293(3)
C37 C 0.0226(5) 0.13862(18) 0.5848(4)
C38 C 0.1457(4) 0.16074(16) 0.6136(3)
C39 C 0.3898(5) 0.05812(18) 0.4985(3)
C40 C 0.3810(4) 0.23106(14) 0.6879(2)
H26 H 0.6008 0.0989 0.8891
H27 H 0.6765 0.0377 0.8861
H28 H 0.5476 0.0491 0.8242
H29 H 0.8060 0.0085 0.7552
H30 H 0.8204 0.0507 0.6720
H31 H 0.6782 0.0209 0.6927
H32 H 0.8164 0.1485 0.8563
H33 H 0.9029 0.1308 0.7717
H34 H 0.8916 0.0873 0.8534
H35 H 0.4818 0.0808 0.6971
H36 H 0.6601 0.1310 0.5270
H37 H 0.7692 0.1642 0.4005
H38 H 0.6908 0.2469 0.3278
H39 H 0.5079 0.2974 0.3837
H40 H 0.3995 0.2659 0.5103
H41 H 0.1347 0.0339 0.4643
H42 H -0.0625 0.0772 0.5087
H43 H -0.0597 0.1557 0.6034
H44 H 0.1470 0.1933 0.6518
H45 H 0.4436 0.0440 0.5486
H46 H 0.4432 0.0857 0.4643
H47 H 0.3640 0.0254 0.4607
H48 H 0.3288 0.2574 0.6500
H49 H 0.4630 0.2507 0.7087
H50 H 0.3263 0.2197 0.7386
loop_
_geom_bond_atom_site_label_1
_geom_bond_atom_site_label_2
_geom_bond_site_symmetry_1
_geom_bond_site_symmetry_2
P1 C6 1_555 1_555
O1 C5 1_555 1_555
C1 C2 1_555 1_555
C2 H1 1_555 1_555
C3 C1 1_555 1_555
C4 C1 1_555 1_555
C5 C1 1_555 1_555
C6 C5 1_555 1_555
C7 P1 1_555 1_555
C8 C7 1_555 1_555
C9 C8 1_555 1_555
C10 C9 1_555 1_555
C11 C10 1_555 1_555
C12 C7 1_555 1_555
C13 P1 1_555 1_555
C14 C13 1_555 1_555
C15 C14 1_555 1_555
C16 C15 1_555 1_555
C17 C16 1_555 1_555
C18 C13 1_555 1_555
C19 C14 1_555 1_555
C20 P1 1_555 1_555
H2 C2 1_555 1_555
H3 C2 1_555 1_555
H4 C3 1_555 1_555
H5 C3 1_555 1_555
H6 C3 1_555 1_555
H7 C4 1_555 1_555
H8 C4 1_555 1_555
H9 C4 1_555 1_555
H10 C6 1_555 1_555
H11 C8 1_555 1_555
H12 C9 1_555 1_555
H13 C10 1_555 1_555
H14 C11 1_555 1_555
H15 C12 1_555 1_555
H16 C15 1_555 1_555
H17 C16 1_555 1_555
H18 C17 1_555 1_555
H19 C18 1_555 1_555
H20 C19 1_555 1_555
H21 C19 1_555 1_555
H22 C19 1_555 1_555
H23 C20 1_555 1_555
H24 C20 1_555 1_555
H25 C20 1_555 1_555
P2 C26 1_555 1_555
O2 C25 1_555 1_555
C21 C22 1_555 1_555
C22 H26 1_555 1_555
C23 C21 1_555 1_555
C24 C21 1_555 1_555
C25 C21 1_555 1_555
C26 C25 1_555 1_555
C27 P2 1_555 1_555
C28 C27 1_555 1_555
C29 C28 1_555 1_555
C30 C29 1_555 1_555
C31 C30 1_555 1_555
C32 C27 1_555 1_555
C33 P2 1_555 1_555
C34 C33 1_555 1_555
C35 C34 1_555 1_555
C36 C35 1_555 1_555
C37 C36 1_555 1_555
C38 C33 1_555 1_555
C39 C34 1_555 1_555
C40 P2 1_555 1_555
H27 C22 1_555 1_555
H28 C22 1_555 1_555
H29 C23 1_555 1_555
H30 C23 1_555 1_555
H31 C23 1_555 1_555
H32 C24 1_555 1_555
H33 C24 1_555 1_555
H34 C24 1_555 1_555
H35 C26 1_555 1_555
H36 C28 1_555 1_555
H37 C29 1_555 1_555
H38 C30 1_555 1_555
H39 C31 1_555 1_555
H40 C32 1_555 1_555
H41 C35 1_555 1_555
H42 C36 1_555 1_555
H43 C37 1_555 1_555
H44 C38 1_555 1_555
H45 C39 1_555 1_555
H46 C39 1_555 1_555
H47 C39 1_555 1_555
H48 C40 1_555 1_555
H49 C40 1_555 1_555
H50 C40 1_555 1_555
C11 C12 1_555 1_555
C17 C18 1_555 1_555
C31 C32 1_555 1_555
C37 C38 1_555 1_555

#END
