
#######################################################################
#
#                 Cambridge Crystallographic Data Centre
#                                CCDC 
#
#######################################################################
#
# If this CIF has been generated from an entry in the Cambridge 
# Structural Database, then it will include bibliographic, chemical, 
# crystal, experimental, refinement or atomic coordinate data resulting 
# from the CCDC's data processing and validation procedures.
#
#######################################################################

data_EYESIM
_chemical_formula_moiety         'C24 H21 O4 P1'
_chemical_name_systematic        
'methyl 2,4-dioxo-3-(triphenylphosphoranylidene)pentanoate'
_symmetry_cell_setting           monoclinic
_symmetry_space_group_name_H-M   'P 21/c'
_symmetry_Int_Tables_number      14
_space_group_name_Hall           '-P 2ybc'
loop_
_symmetry_equiv_pos_site_id
_symmetry_equiv_pos_as_xyz
1 x,y,z
2 -x,1/2+y,1/2-z
3 -x,-y,-z
4 x,1/2-y,1/2+z
_cell_length_a                   12.7684(5)
_cell_length_b                   9.1236(3)
_cell_length_c                   17.6495(6)
_cell_angle_alpha                90
_cell_angle_beta                 92.2910(10)
_cell_angle_gamma                90
_cell_volume                     2054.41
_exptl_crystal_colour            purple
_exptl_crystal_description       prism
_cell_formula_units_Z            4
loop_
_atom_site_label
_atom_site_type_symbol
_atom_site_fract_x
_atom_site_fract_y
_atom_site_fract_z
P1 P 0.28845(3) 0.02406(5) 0.13988(2)
C1 C 0.26373(14) 0.01248(18) 0.23709(9)
C2 C 0.19677(14) 0.11004(19) 0.27518(10)
O1 O 0.17453(11) 0.10278(17) 0.34276(7)
C3 C 0.13464(14) 0.2272(2) 0.23149(10)
O2 O 0.06963(11) 0.20041(17) 0.18279(8)
O3 O 0.15663(12) 0.36023(15) 0.25855(8)
C4 C 0.0978(2) 0.4813(3) 0.22479(17)
H1 H 0.1199 0.5713 0.2487
H2 H 0.0244 0.4666 0.2318
H3 H 0.1103 0.4861 0.1716
C5 C 0.30780(15) -0.1190(2) 0.27324(10)
O4 O 0.33010(12) -0.22549(15) 0.23463(8)
C6 C 0.3293(2) -0.1217(3) 0.35762(12)
H4 H 0.2641 -0.1236 0.3829
H5 H 0.3681 -0.0357 0.3727
H6 H 0.3693 -0.2075 0.3711
C7 C 0.42012(13) -0.04352(18) 0.12522(10)
C8 C 0.44098(15) -0.1454(2) 0.06985(11)
H7 H 0.3872 -0.1772 0.0367
C9 C 0.54167(16) -0.2006(2) 0.06326(12)
H8 H 0.5548 -0.2704 0.0264
C10 C 0.62168(16) -0.1520(2) 0.11113(12)
H9 H 0.6888 -0.1900 0.1073
C11 C 0.60254(16) -0.0472(2) 0.16482(12)
H10 H 0.6572 -0.0126 0.1964
C12 C 0.50247(15) 0.0070(2) 0.17208(11)
H11 H 0.4901 0.0778 0.2086
C13 C 0.19623(13) -0.07772(19) 0.07993(10)
C14 C 0.11668(14) -0.1543(2) 0.11355(11)
H12 H 0.1116 -0.1527 0.1660
C15 C 0.04473(16) -0.2331(2) 0.06927(13)
H13 H -0.0083 -0.2849 0.0920
C16 C 0.05138(17) -0.2351(3) -0.00827(13)
H14 H 0.0032 -0.2888 -0.0378
C17 C 0.12902(17) -0.1579(2) -0.04221(12)
H15 H 0.1325 -0.1581 -0.0947
C18 C 0.20173(15) -0.0800(2) 0.00117(10)
H16 H 0.2546 -0.0288 -0.0221
C19 C 0.28751(12) 0.21431(18) 0.10884(9)
C20 C 0.35230(16) 0.3144(2) 0.14621(11)
H17 H 0.3961 0.2841 0.1866
C21 C 0.35204(18) 0.4595(2) 0.12372(12)
H18 H 0.3954 0.5268 0.1492
C22 C 0.28781(17) 0.5045(2) 0.06373(12)
H19 H 0.2877 0.6023 0.0488
C23 C 0.22440(16) 0.4063(2) 0.02606(11)
H20 H 0.1819 0.4370 -0.0149
C24 C 0.22304(14) 0.2614(2) 0.04858(10)
H21 H 0.1787 0.1952 0.0232
loop_
_geom_bond_atom_site_label_1
_geom_bond_atom_site_label_2
_geom_bond_site_symmetry_1
_geom_bond_site_symmetry_2
P1 C1 1_555 1_555
C1 C2 1_555 1_555
C2 O1 1_555 1_555
C3 C2 1_555 1_555
O2 C3 1_555 1_555
O3 C3 1_555 1_555
C4 O3 1_555 1_555
H1 C4 1_555 1_555
H2 C4 1_555 1_555
H3 C4 1_555 1_555
C5 C1 1_555 1_555
O4 C5 1_555 1_555
C6 C5 1_555 1_555
H4 C6 1_555 1_555
H5 C6 1_555 1_555
H6 C6 1_555 1_555
C7 P1 1_555 1_555
C8 C7 1_555 1_555
H7 C8 1_555 1_555
C9 C8 1_555 1_555
H8 C9 1_555 1_555
C10 C9 1_555 1_555
H9 C10 1_555 1_555
C11 C10 1_555 1_555
H10 C11 1_555 1_555
C12 C7 1_555 1_555
H11 C12 1_555 1_555
C13 P1 1_555 1_555
C14 C13 1_555 1_555
H12 C14 1_555 1_555
C15 C14 1_555 1_555
H13 C15 1_555 1_555
C16 C15 1_555 1_555
H14 C16 1_555 1_555
C17 C16 1_555 1_555
H15 C17 1_555 1_555
C18 C13 1_555 1_555
H16 C18 1_555 1_555
C19 P1 1_555 1_555
C20 C19 1_555 1_555
H17 C20 1_555 1_555
C21 C20 1_555 1_555
H18 C21 1_555 1_555
C22 C21 1_555 1_555
H19 C22 1_555 1_555
C23 C22 1_555 1_555
H20 C23 1_555 1_555
C24 C19 1_555 1_555
H21 C24 1_555 1_555
C11 C12 1_555 1_555
C17 C18 1_555 1_555
C23 C24 1_555 1_555

#END
