
#######################################################################
#
#                 Cambridge Crystallographic Data Centre
#                                CCDC 
#
#######################################################################
#
# If this CIF has been generated from an entry in the Cambridge 
# Structural Database, then it will include bibliographic, chemical, 
# crystal, experimental, refinement or atomic coordinate data resulting 
# from the CCDC's data processing and validation procedures.
#
#######################################################################

data_EYODIF
_chemical_formula_moiety         'C24 H32 N6 O15,0.35(C2 H6 O1)'
_chemical_name_systematic        
"2,2',3,3',4,4'-Hexa-O-acetyl-6,6'-dideoxy-6,6'-diazido-\a,\a'-trehalose ethanol solvate"
_symmetry_cell_setting           orthorhombic
_symmetry_space_group_name_H-M   'P 21 21 21'
_symmetry_Int_Tables_number      19
_space_group_name_Hall           'P 2ac 2ab'
loop_
_symmetry_equiv_pos_site_id
_symmetry_equiv_pos_as_xyz
1 x,y,z
2 1/2-x,-y,1/2+z
3 -x,1/2+y,1/2-z
4 1/2+x,1/2-y,-z
_cell_length_a                   12.2281(4)
_cell_length_b                   15.5803(6)
_cell_length_c                   18.1066(8)
_cell_angle_alpha                90
_cell_angle_beta                 90
_cell_angle_gamma                90
_cell_volume                     3449.62
_exptl_crystal_colour            colorless
_exptl_crystal_description       block
_chemical_melting_point          '413 K'
_cell_formula_units_Z            4
loop_
_atom_site_label
_atom_site_type_symbol
_atom_site_fract_x
_atom_site_fract_y
_atom_site_fract_z
C1 C 0.7273(4) 0.5181(3) 0.4466(3)
C2 C 0.7742(4) 0.4712(3) 0.3810(2)
C3 C 0.8923(4) 0.4959(3) 0.3658(2)
C4 C 0.9075(3) 0.5916(3) 0.3666(2)
C5 C 0.8580(3) 0.6310(3) 0.4358(2)
O1 O 0.7436(2) 0.60728(18) 0.43835(16)
O2 O 0.7729(3) 0.3800(2) 0.39166(17)
C6 C 0.6879(4) 0.3350(3) 0.3645(3)
O3 O 0.6104(3) 0.3700(3) 0.3364(2)
C7 C 0.7051(5) 0.2414(3) 0.3729(4)
O4 O 0.9178(2) 0.4638(2) 0.29326(16)
C8 C 1.0100(4) 0.4164(3) 0.2837(3)
O5 O 1.0708(3) 0.4003(3) 0.3329(2)
C9 C 1.0201(5) 0.3898(4) 0.2051(3)
O6 O 1.0246(2) 0.6075(2) 0.36833(17)
C10 C 1.0734(4) 0.6307(3) 0.3050(3)
O7 O 1.0256(3) 0.6505(3) 0.2501(2)
C11 C 1.1956(4) 0.6277(4) 0.3128(3)
C12 C 0.8601(4) 0.7286(3) 0.4344(3)
N1 N 0.8151(4) 0.7641(3) 0.5034(3)
N2 N 0.7133(5) 0.7705(4) 0.5022(3)
N3 N 0.6214(6) 0.7808(6) 0.5069(5)
O8 O 0.7745(3) 0.4874(2) 0.51250(16)
C13 C 0.7050(4) 0.4999(3) 0.5742(2)
C14 C 0.7717(4) 0.4976(3) 0.6441(2)
C15 C 0.8181(4) 0.4091(3) 0.6604(2)
C16 C 0.7299(4) 0.3419(3) 0.6550(3)
C17 C 0.6655(4) 0.3517(3) 0.5831(3)
O9 O 0.6234(3) 0.4363(2) 0.57713(17)
O10 O 0.8642(3) 0.5549(2) 0.64116(18)
C18 C 0.8466(4) 0.6365(3) 0.6612(3)
O11 O 0.7572(4) 0.6626(2) 0.6776(3)
C19 C 0.9484(5) 0.6890(3) 0.6601(3)
O12 O 0.8586(3) 0.4111(2) 0.73484(17)
C20 C 0.9673(4) 0.4051(3) 0.7473(3)
O13 O 1.0329(4) 0.3954(4) 0.6980(3)
C21 C 0.9931(4) 0.4164(3) 0.8266(3)
O14 O 0.7800(3) 0.2568(2) 0.65226(18)
C22 C 0.7822(4) 0.2105(3) 0.7152(3)
O15 O 0.7506(3) 0.2380(2) 0.77264(19)
C23 C 0.8330(4) 0.1250(3) 0.7022(3)
C24 C 0.5673(5) 0.2906(4) 0.5805(3)
N4 N 0.5151(5) 0.2915(4) 0.5069(3)
N5 N 0.4528(7) 0.3508(6) 0.4967(3)
N6 N 0.3935(8) 0.4041(8) 0.4793(5)
H1 H 0.6468 0.5069 0.4484
H2 H 0.7293 0.4853 0.3365
H3 H 0.9414 0.4686 0.4032
H4 H 0.8743 0.6179 0.3215
H5 H 0.8967 0.6092 0.4807
H6 H 0.7674 0.2235 0.3426
H7 H 0.6393 0.2107 0.3569
H8 H 0.7200 0.2281 0.4248
H9 H 1.0878 0.3571 0.1984
H10 H 1.0216 0.4408 0.1735
H11 H 0.9574 0.3538 0.1916
H12 H 1.2243 0.6863 0.3163
H13 H 1.2274 0.5991 0.2697
H14 H 1.2149 0.5958 0.3576
H15 H 0.9363 0.7487 0.4279
H16 H 0.8166 0.7495 0.3920
H17 H 0.6692 0.5574 0.5699
H18 H 0.7238 0.5152 0.6863
H19 H 0.8789 0.3956 0.6254
H20 H 0.6795 0.3461 0.6983
H21 H 0.7147 0.3397 0.5402
H22 H 0.9504 0.7261 0.7038
H23 H 0.9496 0.7246 0.6154
H24 H 1.0122 0.6510 0.6603
H25 H 0.9817 0.4765 0.8405
H26 H 1.0695 0.4006 0.8355
H27 H 0.9451 0.3796 0.8562
H28 H 0.8338 0.0923 0.7484
H29 H 0.9081 0.1327 0.6845
H30 H 0.7906 0.0936 0.6650
H31 H 0.5919 0.2316 0.5922
H32 H 0.5132 0.3080 0.6184
O16 O 0.3909(11) 0.5325(8) 1.0278(6)
C25 C 0.3130(10) 0.5005(8) 1.0798(7)
C26 C 0.2538(10) 0.4881(8) 1.1251(7)
H33 H 0.3970(10) 0.4977(8) 0.9940(7)
H34 H 0.2618 0.4809 1.0409
H35 H 0.3563 0.4483 1.0906
H36 H 0.1791 0.4930 1.1061
H37 H 0.2648 0.5302 1.1647
H38 H 0.2653 0.4301 1.1447
loop_
_geom_bond_atom_site_label_1
_geom_bond_atom_site_label_2
_geom_bond_site_symmetry_1
_geom_bond_site_symmetry_2
C1 C2 1_555 1_555
C2 C3 1_555 1_555
C3 C4 1_555 1_555
C4 C5 1_555 1_555
C5 O1 1_555 1_555
O1 C1 1_555 1_555
O2 C2 1_555 1_555
C6 O2 1_555 1_555
O3 C6 1_555 1_555
C7 C6 1_555 1_555
O4 C3 1_555 1_555
C8 O4 1_555 1_555
O5 C8 1_555 1_555
C9 C8 1_555 1_555
O6 C4 1_555 1_555
C10 O6 1_555 1_555
O7 C10 1_555 1_555
C11 C10 1_555 1_555
C12 C5 1_555 1_555
N1 C12 1_555 1_555
N2 N1 1_555 1_555
N3 N2 1_555 1_555
O8 C1 1_555 1_555
C13 O8 1_555 1_555
C14 C13 1_555 1_555
C15 C14 1_555 1_555
C16 C15 1_555 1_555
C17 C16 1_555 1_555
O9 C13 1_555 1_555
O10 C14 1_555 1_555
C18 O10 1_555 1_555
O11 C18 1_555 1_555
C19 C18 1_555 1_555
O12 C15 1_555 1_555
C20 O12 1_555 1_555
O13 C20 1_555 1_555
C21 C20 1_555 1_555
O14 C16 1_555 1_555
C22 O14 1_555 1_555
O15 C22 1_555 1_555
C23 C22 1_555 1_555
C24 C17 1_555 1_555
N4 C24 1_555 1_555
N5 N4 1_555 1_555
N6 N5 1_555 1_555
O16 C25 1_555 1_555
C25 C26 1_555 1_555
C26 H36 1_555 1_555
H1 C1 1_555 1_555
H2 C2 1_555 1_555
H3 C3 1_555 1_555
H4 C4 1_555 1_555
H5 C5 1_555 1_555
H6 C7 1_555 1_555
H7 C7 1_555 1_555
H8 C7 1_555 1_555
H9 C9 1_555 1_555
H10 C9 1_555 1_555
H11 C9 1_555 1_555
H12 C11 1_555 1_555
H13 C11 1_555 1_555
H14 C11 1_555 1_555
H15 C12 1_555 1_555
H16 C12 1_555 1_555
H17 C13 1_555 1_555
H18 C14 1_555 1_555
H19 C15 1_555 1_555
H20 C16 1_555 1_555
H21 C17 1_555 1_555
H22 C19 1_555 1_555
H23 C19 1_555 1_555
H24 C19 1_555 1_555
H25 C21 1_555 1_555
H26 C21 1_555 1_555
H27 C21 1_555 1_555
H28 C23 1_555 1_555
H29 C23 1_555 1_555
H30 C23 1_555 1_555
H31 C24 1_555 1_555
H32 C24 1_555 1_555
H33 O16 1_555 1_555
H34 C25 1_555 1_555
H35 C25 1_555 1_555
H37 C26 1_555 1_555
H38 C26 1_555 1_555
C17 O9 1_555 1_555

#END
