
#######################################################################
#
#                 Cambridge Crystallographic Data Centre
#                                CCDC 
#
#######################################################################
#
# If this CIF has been generated from an entry in the Cambridge 
# Structural Database, then it will include bibliographic, chemical, 
# crystal, experimental, refinement or atomic coordinate data resulting 
# from the CCDC's data processing and validation procedures.
#
#######################################################################

data_EYOFEE01
_chemical_formula_moiety         'C24 H15 N1 O3 S1'
_chemical_name_systematic        
7-Phenylsulfonyl-7H-benzofurano[2,3-b]carbazole
_symmetry_cell_setting           monoclinic
_symmetry_space_group_name_H-M   'P 21/c'
_symmetry_Int_Tables_number      14
_space_group_name_Hall           '-P 2ybc'
loop_
_symmetry_equiv_pos_site_id
_symmetry_equiv_pos_as_xyz
1 x,y,z
2 -x,1/2+y,1/2-z
3 -x,-y,-z
4 x,1/2-y,1/2+z
_cell_length_a                   9.031(5)
_cell_length_b                   10.752(6)
_cell_length_c                   19.217(5)
_cell_angle_alpha                90
_cell_angle_beta                 100.738(5)
_cell_angle_gamma                90
_cell_volume                     1833.32
_exptl_crystal_colour            colorless
_exptl_crystal_description       block
_cell_formula_units_Z            4
loop_
_atom_site_label
_atom_site_type_symbol
_atom_site_fract_x
_atom_site_fract_y
_atom_site_fract_z
C1 C 0.2652(2) 0.06505(18) 0.27600(9)
C2 C 0.1266(2) 0.1058(2) 0.28782(11)
H1 H 0.1027 0.1900 0.2854
C3 C 0.0258(3) 0.0206(4) 0.30312(14)
H2 H -0.0677 0.0471 0.3109
C4 C 0.0599(4) -0.1031(4) 0.30715(13)
H3 H -0.0105 -0.1603 0.3173
C5 C 0.1988(4) -0.1433(3) 0.29616(13)
H4 H 0.2224 -0.2276 0.2994
C6 C 0.3021(3) -0.0594(2) 0.28043(11)
H5 H 0.3958 -0.0861 0.2729
C7 C 0.56766(19) 0.14212(16) 0.38858(10)
C8 C 0.6548(2) 0.04173(18) 0.37621(13)
H6 H 0.6619 0.0176 0.3305
C9 C 0.7310(2) -0.0212(2) 0.43485(15)
H7 H 0.7893 -0.0900 0.4283
C10 C 0.7227(2) 0.0153(2) 0.50279(14)
H8 H 0.7770 -0.0279 0.5412
C11 C 0.6352(2) 0.11476(18) 0.51438(12)
H9 H 0.6297 0.1391 0.5603
C12 C 0.55535(19) 0.17832(16) 0.45685(10)
C13 C 0.45251(18) 0.28238(15) 0.45167(9)
C14 C 0.40052(19) 0.35208(15) 0.50305(10)
H10 H 0.4316 0.3350 0.5510
C15 C 0.30071(18) 0.44786(15) 0.48026(9)
C16 C 0.2592(2) 0.47184(15) 0.40826(9)
C17 C 0.3092(2) 0.40679(16) 0.35562(10)
H11 H 0.2806 0.4264 0.3079
C18 C 0.40576(19) 0.30960(15) 0.37963(9)
C19 C 0.21968(19) 0.53778(15) 0.51514(10)
C20 C 0.2091(2) 0.56435(19) 0.58450(10)
H12 H 0.2654 0.5200 0.6218
C21 C 0.1136(2) 0.6577(2) 0.59692(12)
H13 H 0.1056 0.6764 0.6433
C22 C 0.0298(2) 0.7241(2) 0.54246(12)
H14 H -0.0343 0.7864 0.5527
C23 C 0.0385(2) 0.70030(18) 0.47297(12)
H15 H -0.0179 0.7450 0.4358
C24 C 0.1350(2) 0.60726(16) 0.46146(10)
N1 N 0.47915(16) 0.22546(13) 0.33891(8)
O1 O 0.50962(17) 0.11440(14) 0.22963(8)
O2 O 0.31857(18) 0.27874(12) 0.22364(7)
O3 O 0.15849(15) 0.57003(11) 0.39524(7)
S1 S 0.39665(6) 0.17516(5) 0.25941(2)
loop_
_geom_bond_atom_site_label_1
_geom_bond_atom_site_label_2
_geom_bond_site_symmetry_1
_geom_bond_site_symmetry_2
C1 C2 1_555 1_555
C2 H1 1_555 1_555
C3 C2 1_555 1_555
H2 C3 1_555 1_555
C4 C3 1_555 1_555
H3 C4 1_555 1_555
C5 C4 1_555 1_555
H4 C5 1_555 1_555
C6 C1 1_555 1_555
H5 C6 1_555 1_555
C7 C8 1_555 1_555
C8 H6 1_555 1_555
C9 C8 1_555 1_555
H7 C9 1_555 1_555
C10 C9 1_555 1_555
H8 C10 1_555 1_555
C11 C10 1_555 1_555
H9 C11 1_555 1_555
C12 C7 1_555 1_555
C13 C12 1_555 1_555
C14 C13 1_555 1_555
H10 C14 1_555 1_555
C15 C14 1_555 1_555
C16 C15 1_555 1_555
C17 C16 1_555 1_555
H11 C17 1_555 1_555
C18 C13 1_555 1_555
C19 C15 1_555 1_555
C20 C19 1_555 1_555
H12 C20 1_555 1_555
C21 C20 1_555 1_555
H13 C21 1_555 1_555
C22 C21 1_555 1_555
H14 C22 1_555 1_555
C23 C22 1_555 1_555
H15 C23 1_555 1_555
C24 C19 1_555 1_555
N1 C7 1_555 1_555
O1 S1 1_555 1_555
O2 S1 1_555 1_555
O3 C16 1_555 1_555
S1 C1 1_555 1_555
C5 C6 1_555 1_555
C11 C12 1_555 1_555
C17 C18 1_555 1_555
C18 N1 1_555 1_555
C23 C24 1_555 1_555
C24 O3 1_555 1_555
N1 S1 1_555 1_555

#END
