
#######################################################################
#
#                 Cambridge Crystallographic Data Centre
#                                CCDC 
#
#######################################################################
#
# If this CIF has been generated from an entry in the Cambridge 
# Structural Database, then it will include bibliographic, chemical, 
# crystal, experimental, refinement or atomic coordinate data resulting 
# from the CCDC's data processing and validation procedures.
#
#######################################################################

data_EYOZIB
_chemical_formula_moiety         'C11 H11 N3 O3 S2'
_chemical_name_systematic        
N'-(Benzenesulfonyl)-4-methylthiazole-5-carbohydrazide
_symmetry_cell_setting           monoclinic
_symmetry_space_group_name_H-M   'P 21/c'
_symmetry_Int_Tables_number      14
_space_group_name_Hall           '-P 2ybc'
loop_
_symmetry_equiv_pos_site_id
_symmetry_equiv_pos_as_xyz
1 x,y,z
2 x,1/2-y,1/2+z
3 -x,-y,-z
4 -x,1/2+y,1/2-z
_cell_length_a                   10.5593(9)
_cell_length_b                   12.8979(11)
_cell_length_c                   10.1875(9)
_cell_angle_alpha                90
_cell_angle_beta                 111.703(2)
_cell_angle_gamma                90
_cell_volume                     1289.11
_exptl_crystal_colour            colorless
_exptl_crystal_description       prism
_cell_formula_units_Z            4
_exptl_crystal_recrystallization_method 'ethyl acetate'
loop_
_atom_site_label
_atom_site_type_symbol
_atom_site_fract_x
_atom_site_fract_y
_atom_site_fract_z
H1 H 0.8162(19) 0.2150(13) 0.214(2)
H2 H 0.711(2) 0.1542(16) -0.024(2)
S1 S 0.98520(6) 0.01366(4) 0.31617(5)
S2 S 0.63695(5) 0.14918(3) 0.22529(5)
N1 N 1.06229(17) -0.16075(12) 0.25524(18)
N2 N 0.75864(16) 0.11877(12) 0.05100(16)
N3 N 0.77553(16) 0.15443(11) 0.18567(16)
O1 O 0.78233(15) 0.00078(11) -0.09669(15)
O2 O 0.59350(14) 0.04366(10) 0.21108(15)
O3 O 0.67817(15) 0.19938(11) 0.36025(13)
C1 C 1.0838(2) -0.09411(17) 0.3570(2)
H3 H 1.1492 -0.1050 0.4467
C2 C 0.96289(19) -0.12569(14) 0.1331(2)
C3 C 0.90819(18) -0.03133(14) 0.14550(19)
C4 C 0.81143(18) 0.02815(14) 0.02579(19)
C5 C 0.9265(2) -0.19291(16) 0.0052(2)
H4 H 0.9816 -0.2544 0.0278
H5 H 0.9426 -0.1558 -0.0689
H6 H 0.8320 -0.2118 -0.0257
C6 C 0.51290(17) 0.22417(14) 0.09714(19)
C7 C 0.43317(19) 0.17754(16) -0.0288(2)
H7 H 0.4399 0.1067 -0.0417
C8 C 0.3436(2) 0.23751(18) -0.1349(2)
H8 H 0.2909 0.2074 -0.2206
C9 C 0.3321(2) 0.34225(19) -0.1137(2)
H9 H 0.2722 0.3826 -0.1855
C10 C 0.4091(2) 0.38700(17) 0.0134(3)
H10 H 0.3984 0.4571 0.0279
C11 C 0.5018(2) 0.32934(15) 0.1195(2)
H11 H 0.5558 0.3602 0.2042
loop_
_geom_bond_atom_site_label_1
_geom_bond_atom_site_label_2
_geom_bond_site_symmetry_1
_geom_bond_site_symmetry_2
H1 N3 1_555 1_555
H2 N2 1_555 1_555
S1 C1 1_555 1_555
S2 N3 1_555 1_555
N1 C1 1_555 1_555
N2 N3 1_555 1_555
O1 C4 1_555 1_555
O2 S2 1_555 1_555
O3 S2 1_555 1_555
C1 H3 1_555 1_555
C2 N1 1_555 1_555
C3 S1 1_555 1_555
C4 N2 1_555 1_555
C5 C2 1_555 1_555
H4 C5 1_555 1_555
H5 C5 1_555 1_555
H6 C5 1_555 1_555
C6 S2 1_555 1_555
C7 C6 1_555 1_555
H7 C7 1_555 1_555
C8 C7 1_555 1_555
H8 C8 1_555 1_555
C9 C8 1_555 1_555
H9 C9 1_555 1_555
C10 C9 1_555 1_555
H10 C10 1_555 1_555
C11 C6 1_555 1_555
H11 C11 1_555 1_555
C2 C3 1_555 1_555
C3 C4 1_555 1_555
C10 C11 1_555 1_555

#END
