
#######################################################################
#
#                 Cambridge Crystallographic Data Centre
#                                CCDC 
#
#######################################################################
#
# If this CIF has been generated from an entry in the Cambridge 
# Structural Database, then it will include bibliographic, chemical, 
# crystal, experimental, refinement or atomic coordinate data resulting 
# from the CCDC's data processing and validation procedures.
#
#######################################################################

data_EYUXAZ
_chemical_formula_moiety         'C28 H26 Br1 N3 O4 S1'
_chemical_name_systematic        
'ethyl 1-(2-bromobenzyl)-2-methylene-3-((4-methylphenyl)sulfonyl)-1,2,3,10b-tetrahydropyrazolo[1,5-c]quinazoline-1-carboxylate'
_symmetry_cell_setting           monoclinic
_symmetry_space_group_name_H-M   'P 21/n'
_symmetry_Int_Tables_number      14
_space_group_name_Hall           '-P 2yn'
loop_
_symmetry_equiv_pos_site_id
_symmetry_equiv_pos_as_xyz
1 x,y,z
2 1/2-x,1/2+y,1/2-z
3 -x,-y,-z
4 1/2+x,1/2-y,1/2+z
_cell_length_a                   8.3882(17)
_cell_length_b                   32.574(7)
_cell_length_c                   10.335(2)
_cell_angle_alpha                90
_cell_angle_beta                 111.49(3)
_cell_angle_gamma                90
_cell_volume                     2627.59
_exptl_crystal_colour            colorless
_exptl_crystal_description       block
_cell_formula_units_Z            4
loop_
_atom_site_label
_atom_site_type_symbol
_atom_site_fract_x
_atom_site_fract_y
_atom_site_fract_z
S1 S 0.89935(9) 0.60581(2) 0.52801(7)
O1 O 0.9129(3) 0.60166(8) 0.6688(2)
O2 O 1.0415(2) 0.61975(7) 0.4964(2)
O3 O 0.2387(3) 0.69712(7) 0.3496(3)
N1 N 0.7487(3) 0.64204(7) 0.4598(2)
N2 N 0.7176(3) 0.65087(6) 0.3173(2)
N3 N 0.7332(3) 0.70853(7) 0.1832(3)
C1 C 0.1498(3) 0.56822(7) 0.1147(3)
C2 C 0.0110(4) 0.55903(9) -0.0039(3)
H1 H 0.0094 0.5349 -0.0522
C3 C -0.1253(4) 0.58583(10) -0.0504(3)
H2 H -0.2203 0.5798 -0.1296
C4 C -0.1188(4) 0.62159(11) 0.0219(4)
H3 H -0.2102 0.6399 -0.0087
C5 C 0.0216(4) 0.63065(9) 0.1394(3)
H4 H 0.0232 0.6552 0.1860
C6 C 0.1618(3) 0.60402(8) 0.1907(3)
C7 C 0.3058(3) 0.61263(8) 0.3271(3)
H5 H 0.3669 0.5870 0.3584
H6 H 0.2540 0.6198 0.3939
C8 C 0.4413(3) 0.64600(7) 0.3362(3)
C9 C 0.5862(4) 0.64184(8) 0.4778(3)
C10 C 0.5400(3) 0.63950(6) 0.2340(3)
H7 H 0.5394 0.6100 0.2158
C11 C 0.5693(5) 0.64042(11) 0.6002(4)
H8 H 0.6660 0.6395 0.6814
H9 H 0.4606 0.6404 0.6049
C12 C 0.3686(4) 0.68934(8) 0.3329(4)
C13 C 0.8260(3) 0.55935(9) 0.4406(3)
C14 C 0.8383(4) 0.55236(9) 0.3126(3)
H10 H 0.8826 0.5725 0.2716
C15 C 0.7848(4) 0.51561(10) 0.2463(4)
H11 H 0.7911 0.5113 0.1594
C16 C 0.7215(4) 0.48473(10) 0.3064(4)
C17 C 0.7121(5) 0.49203(11) 0.4342(4)
H12 H 0.6704 0.4715 0.4760
C18 C 0.7625(4) 0.52881(10) 0.5019(3)
H13 H 0.7542 0.5332 0.5881
C19 C 0.6629(5) 0.44464(11) 0.2309(5)
H14 H 0.5783 0.4499 0.1404
H15 H 0.6140 0.4277 0.2828
H16 H 0.7590 0.4308 0.2214
C20 C 0.7842(4) 0.68803(8) 0.2950(3)
H17 H 0.8750 0.6989 0.3692
C21 C 0.5843(3) 0.69375(7) 0.0762(3)
C22 C 0.4864(3) 0.66105(6) 0.0946(3)
C23 C 0.3470(3) 0.64761(8) -0.0187(3)
H18 H 0.2822 0.6256 -0.0082
C24 C 0.3030(4) 0.66641(9) -0.1471(3)
H19 H 0.2100 0.6568 -0.2222
C25 C 0.3970(4) 0.69939(9) -0.1637(3)
H20 H 0.3664 0.7124 -0.2496
C26 C 0.5361(4) 0.71302(8) -0.0529(3)
H21 H 0.5987 0.7354 -0.0643
O4 O 0.4510(16) 0.7170(2) 0.2918(15)
C27 C 0.4711(14) 0.7599(3) 0.3713(16)
H22 H 0.4063 0.7617 0.4319
H23 H 0.5890 0.7684 0.4191
C28 C 0.3870(16) 0.7792(4) 0.2350(15)
H24 H 0.4578 0.7761 0.1807
H25 H 0.3700 0.8079 0.2473
H26 H 0.2782 0.7663 0.1878
Br2 Br 0.3330(5) 0.52928(12) 0.1613(11)
Br1? Br 0.3282(6) 0.52893(15) 0.1813(8)
O5? O 0.5083(12) 0.7167(2) 0.3612(13)
C29? C 0.4907(16) 0.7757(5) 0.4390(17)
H27? H 0.4769 0.8049 0.4420
H28? H 0.6105 0.7691 0.4701
H29? H 0.4411 0.7626 0.4986
C30? C 0.401(2) 0.7605(4) 0.2904(17)
H30? H 0.4383 0.7736 0.2218
H31? H 0.2776 0.7587 0.2596
loop_
_geom_bond_atom_site_label_1
_geom_bond_atom_site_label_2
_geom_bond_site_symmetry_1
_geom_bond_site_symmetry_2
S1 O1 1_555 1_555
O2 S1 1_555 1_555
O3 C12 1_555 1_555
N1 S1 1_555 1_555
N2 N1 1_555 1_555
N3 C20 1_555 1_555
C1 C2 1_555 1_555
C2 H1 1_555 1_555
C3 C2 1_555 1_555
H2 C3 1_555 1_555
C4 C3 1_555 1_555
H3 C4 1_555 1_555
C5 C4 1_555 1_555
H4 C5 1_555 1_555
C6 C1 1_555 1_555
C7 C6 1_555 1_555
H5 C7 1_555 1_555
H6 C7 1_555 1_555
C8 C7 1_555 1_555
C9 N1 1_555 1_555
C10 N2 1_555 1_555
H7 C10 1_555 1_555
C11 C9 1_555 1_555
H8 C11 1_555 1_555
H9 C11 1_555 1_555
C12 C8 1_555 1_555
C13 S1 1_555 1_555
C14 C13 1_555 1_555
H10 C14 1_555 1_555
C15 C14 1_555 1_555
H11 C15 1_555 1_555
C16 C15 1_555 1_555
C17 C16 1_555 1_555
H12 C17 1_555 1_555
C18 C13 1_555 1_555
H13 C18 1_555 1_555
C19 C16 1_555 1_555
H14 C19 1_555 1_555
H15 C19 1_555 1_555
H16 C19 1_555 1_555
C20 N2 1_555 1_555
H17 C20 1_555 1_555
C21 N3 1_555 1_555
C22 C10 1_555 1_555
C23 C22 1_555 1_555
H18 C23 1_555 1_555
C24 C23 1_555 1_555
H19 C24 1_555 1_555
C25 C24 1_555 1_555
H20 C25 1_555 1_555
C26 C21 1_555 1_555
H21 C26 1_555 1_555
O4 C12 1_555 1_555
C27 O4 1_555 1_555
H22 C27 1_555 1_555
H23 C27 1_555 1_555
C28 C27 1_555 1_555
H24 C28 1_555 1_555
H25 C28 1_555 1_555
H26 C28 1_555 1_555
Br2 C1 1_555 1_555
C5 C6 1_555 1_555
C8 C9 1_555 1_555
C8 C10 1_555 1_555
C17 C18 1_555 1_555
C21 C22 1_555 1_555
C25 C26 1_555 1_555

#END
