
#######################################################################
#
#                 Cambridge Crystallographic Data Centre
#                                CCDC 
#
#######################################################################
#
# If this CIF has been generated from an entry in the Cambridge 
# Structural Database, then it will include bibliographic, chemical, 
# crystal, experimental, refinement or atomic coordinate data resulting 
# from the CCDC's data processing and validation procedures.
#
#######################################################################

data_EZAJAR
_chemical_formula_moiety         'C75 H66 S3,1.5(C1 H1 Cl3),C1 H4 O1'
_chemical_name_systematic        
"2',6',10'-trihexyl-8',12'-dihydro-4'H-trispiro-(fluorene-9''',12'-fluorene-9'',8'-thieno[2',3':6,7]thieno[3'',2'':4',5']cyclopenta[1',2':4,5]-as-indaceno[1,2-b]thiene-4',9-fluorene) chloroform methanol solvate"
_symmetry_cell_setting           rhombohedral
_symmetry_space_group_name_H-M   'R -3'
_symmetry_Int_Tables_number      148
_space_group_name_Hall           '-R 3'
loop_
_symmetry_equiv_pos_site_id
_symmetry_equiv_pos_as_xyz
1 x,y,z
2 -y,x-y,z
3 -x+y,-x,z
4 2/3+x,1/3+y,1/3+z
5 2/3-y,1/3+x-y,1/3+z
6 2/3-x+y,1/3-x,1/3+z
7 1/3+x,2/3+y,2/3+z
8 1/3-y,2/3+x-y,2/3+z
9 1/3-x+y,2/3-x,2/3+z
10 -x,-y,-z
11 y,-x+y,-z
12 x-y,x,-z
13 1/3-x,2/3-y,2/3-z
14 1/3+y,2/3-x+y,2/3-z
15 1/3+x-y,2/3+x,2/3-z
16 2/3-x,1/3-y,1/3-z
17 2/3+y,1/3-x+y,1/3-z
18 2/3+x-y,1/3+x,1/3-z
_cell_length_a                   22.56270(10)
_cell_length_b                   22.56270(10)
_cell_length_c                   43.5749(5)
_cell_angle_alpha                90
_cell_angle_beta                 90
_cell_angle_gamma                120
_cell_volume                     19211
_cell_formula_units_Z            12
loop_
_atom_site_label
_atom_site_type_symbol
_atom_site_fract_x
_atom_site_fract_y
_atom_site_fract_z
S1 S 0.63459(6) 0.12596(4) 0.96234(2)
C1 C 0.82164(21) 0.33957(15) 0.99792(8)
C2 C 0.79176(26) 0.32469(19) 1.02676(8)
H1 H 0.7436 0.2964 1.0290
C3 C 0.8339(3) 0.3521(2) 1.05232(9)
H2 H 0.8143 0.3419 1.0723
C4 C 0.9031(3) 0.3936(2) 1.04904(10)
H3 H 0.9308 0.4125 1.0668
C5 C 0.93343(28) 0.4085(2) 1.02042(10)
H4 H 0.9815 0.4375 1.0184
C6 C 0.89252(23) 0.38041(16) 0.99448(8)
C7 C 0.90837(23) 0.38576(16) 0.96195(8)
C8 C 0.97151(25) 0.41918(18) 0.94668(10)
H5 H 1.0131 0.4427 0.9579
C9 C 0.9720(3) 0.4172(2) 0.91527(10)
H6 H 1.0145 0.4388 0.9047
C10 C 0.9117(3) 0.3842(2) 0.89855(9)
H7 H 0.9134 0.3846 0.8768
C11 C 0.84818(27) 0.35024(19) 0.91360(8)
H8 H 0.8068 0.3274 0.9023
C12 C 0.84748(22) 0.35094(16) 0.94501(8)
C13 C 0.78660(21) 0.31623(15) 0.96676(7)
C14 C 0.72787(21) 0.33132(15) 0.96330(7)
C15 C 0.66367(21) 0.26965(15) 0.96333(7)
C16 C 0.67888(22) 0.21385(15) 0.96385(8)
C17 C 0.74768(22) 0.23880(16) 0.96463(7)
C18 C 0.76640(23) 0.18726(17) 0.96400(8)
H9 H 0.8122 0.1962 0.9645
C19 C 0.71029(23) 0.12326(17) 0.96257(9)
C20 C 0.70696(25) 0.05482(18) 0.96185(9)
H10 H 0.7470 0.0595 0.9504
H11 H 0.6652 0.0216 0.9507
C21 C 0.7061(3) 0.0270(2) 0.99384(10)
H12 H 0.7491 0.0592 1.0046
H13 H 0.6677 0.0249 1.0056
C22 C 0.6992(4) -0.0436(3) 0.99356(13)
H14 H 0.6980 -0.0583 1.0151
H15 H 0.6546 -0.0761 0.9842
C23 C 0.7526(4) -0.0492(3) 0.97735(14)
H16 H 0.7975 -0.0123 0.9847
H17 H 0.7493 -0.0411 0.9552
C24 C 0.7508(6) -0.1148(5) 0.98063(19)
H18 H 0.7020 -0.1500 0.9829
H19 H 0.7727 -0.1127 1.0006
C25 C 0.7802(15) -0.1428(10) 0.9584(5)
H20 H 0.7851 -0.1792 0.9683
H21 H 0.8251 -0.1063 0.9516
H22 H 0.7496 -0.1617 0.9407
S1A S 0.87404(4) 0.50863(7) 0.96234(2)
S1B S 0.49137(7) 0.36541(6) 0.96234(2)
C1A C 0.66043(15) 0.48207(26) 0.99792(8)
C1B C 0.51793(26) 0.17836(21) 0.99792(8)
C2A C 0.67531(19) 0.46707(32) 1.02676(8)
C2B C 0.53293(32) 0.20824(26) 1.02676(8)
H1A H 0.7036 0.4472 1.0290
H1B H 0.5528 0.2564 1.0290
C3A C 0.6479(2) 0.4818(4) 1.05232(9)
C3B C 0.5182(4) 0.1661(3) 1.05232(9)
H2A H 0.6581 0.4724 1.0723
H2B H 0.5276 0.1857 1.0723
C4A C 0.6064(2) 0.5095(4) 1.04904(10)
C4B C 0.4905(4) 0.0969(3) 1.04904(10)
H3A H 0.5875 0.5183 1.0668
H3B H 0.4817 0.0692 1.0668
C5A C 0.5915(2) 0.52493(34) 1.02042(10)
C5B C 0.47507(34) 0.06657(28) 1.02042(10)
H4A H 0.5625 0.5440 1.0184
H4B H 0.4560 0.0185 1.0184
C6A C 0.61959(16) 0.51211(28) 0.99448(8)
C6B C 0.48789(28) 0.10748(23) 0.99448(8)
C7A C 0.61424(16) 0.52261(28) 0.96195(8)
C7B C 0.47739(28) 0.09163(23) 0.96195(8)
C8A C 0.58082(18) 0.55233(31) 0.94668(10)
C8B C 0.44767(31) 0.02849(25) 0.94668(10)
H5A H 0.5573 0.5704 0.9579
H5B H 0.4296 -0.0131 0.9579
C9A C 0.5828(2) 0.5548(4) 0.91527(10)
C9B C 0.4452(4) 0.0280(3) 0.91527(10)
H6A H 0.5612 0.5757 0.9047
H6B H 0.4243 -0.0145 0.9047
C10A C 0.6158(2) 0.5275(4) 0.89855(9)
C10B C 0.4725(4) 0.0883(3) 0.89855(9)
H7A H 0.6154 0.5288 0.8768
H7B H 0.4712 0.0866 0.8768
C11A C 0.64976(19) 0.49794(33) 0.91360(8)
C11B C 0.50206(33) 0.15182(27) 0.91360(8)
H8A H 0.6726 0.4794 0.9023
H8B H 0.5206 0.1932 0.9023
C12A C 0.64906(16) 0.49654(27) 0.94501(8)
C12B C 0.50346(27) 0.15252(22) 0.94501(8)
C13A C 0.68377(15) 0.47037(26) 0.96676(7)
C13B C 0.52963(26) 0.21340(21) 0.96676(7)
C14A C 0.66868(15) 0.39655(26) 0.96330(7)
C14B C 0.60345(26) 0.27213(21) 0.96330(7)
C15A C 0.73035(15) 0.39402(26) 0.96333(7)
C15B C 0.60598(26) 0.33633(21) 0.96333(7)
C16A C 0.78615(15) 0.46503(27) 0.96385(8)
C16B C 0.53497(27) 0.32112(22) 0.96385(8)
C17A C 0.76120(16) 0.50888(27) 0.96463(7)
C17B C 0.49112(27) 0.25232(22) 0.96463(7)
C18A C 0.81274(17) 0.57914(29) 0.96400(8)
C18B C 0.42086(29) 0.23360(23) 0.96400(8)
H9A H 0.8038 0.6160 0.9645
H9B H 0.3840 0.1878 0.9645
C19A C 0.87674(17) 0.58703(29) 0.96257(9)
C19B C 0.41297(29) 0.28971(23) 0.96257(9)
C20A C 0.94518(18) 0.65214(31) 0.96185(9)
C20B C 0.34786(31) 0.29304(25) 0.96185(9)
H10A H 0.9405 0.6875 0.9504
H10B H 0.3125 0.2530 0.9504
H11A H 0.9784 0.6436 0.9507
H11B H 0.3564 0.3348 0.9507
C21A C 0.9730(2) 0.6791(4) 0.99384(10)
C21B C 0.3209(4) 0.2939(3) 0.99384(10)
H12A H 0.9408 0.6899 1.0046
H12B H 0.3101 0.2509 1.0046
H13A H 0.9751 0.6428 1.0056
H13B H 0.3572 0.3323 1.0056
C22A C 1.0436(3) 0.7428(5) 0.99356(13)
C22B C 0.2572(5) 0.3008(4) 0.99356(13)
H14A H 1.0583 0.7563 1.0151
H14B H 0.2437 0.3020 1.0151
H15A H 1.0761 0.7307 0.9842
H15B H 0.2693 0.3454 0.9842
C23A C 1.0492(3) 0.8018(5) 0.97735(14)
C23B C 0.1982(5) 0.2474(4) 0.97735(14)
H16A H 1.0123 0.8098 0.9847
H16B H 0.1902 0.2025 0.9847
H17A H 1.0411 0.7904 0.9552
H17B H 0.2096 0.2507 0.9552
C24A C 1.1148(5) 0.8656(8) 0.98063(19)
C24B C 0.1344(8) 0.2492(6) 0.98063(19)
H18A H 1.1500 0.8520 0.9829
H18B H 0.1480 0.2980 0.9829
H19A H 1.1127 0.8854 1.0006
H19B H 0.1146 0.2273 1.0006
C25A C 1.1428(10) 0.9230(18) 0.9584(5)
C25B C 0.0770(18) 0.2198(15) 0.9584(5)
H20A H 1.1792 0.9643 0.9683
H20B H 0.0357 0.2149 0.9683
H21A H 1.1063 0.9314 0.9516
H21B H 0.0686 0.1749 0.9516
H22A H 1.1617 0.9113 0.9407
H22B H 0.0887 0.2504 0.9407
S2 S 0.46191(6) 0.15431(4) 0.13649(2)
C26 C 0.68330(22) 0.17300(15) 0.11090(8)
C27 C 0.67763(26) 0.17543(17) 0.07971(9)
H23 H 0.6548 0.1970 0.0708
C28 C 0.7061(3) 0.1455(2) 0.06115(11)
H24 H 0.7028 0.1467 0.0394
C29 C 0.7393(3) 0.1140(2) 0.07456(13)
H25 H 0.7583 0.0936 0.0618
C30 C 0.7452(3) 0.1117(2) 0.10564(13)
H26 H 0.7674 0.0894 0.1144
C31 C 0.71809(23) 0.14234(16) 0.12441(10)
C32 C 0.71897(23) 0.15050(16) 0.15754(9)
C33 C 0.7489(3) 0.1326(2) 0.18084(12)
H27 H 0.7734 0.1096 0.1762
C34 C 0.7431(4) 0.1486(2) 0.21089(12)
H28 H 0.7635 0.1363 0.2269
C35 C 0.7080(4) 0.1821(2) 0.21788(10)
H29 H 0.7042 0.1925 0.2387
C36 C 0.67776(27) 0.20096(18) 0.19484(8)
H30 H 0.6538 0.2244 0.1997
C37 C 0.68351(22) 0.18493(15) 0.16507(8)
C38 C 0.65401(21) 0.19822(14) 0.13607(7)
C39 C 0.66692(20) 0.27121(14) 0.13313(7)
C40 C 0.60421(20) 0.27184(14) 0.13305(7)
C41 C 0.54983(21) 0.20014(15) 0.13510(7)
C42 C 0.57646(21) 0.15803(15) 0.13688(7)
C43 C 0.52679(23) 0.08773(16) 0.14059(8)
H31 H 0.5375 0.0522 0.1424
C44 C 0.46248(25) 0.07756(17) 0.14116(10)
C45 C 0.39675(28) 0.01095(19) 0.14608(12)
H32 H 0.4079 -0.0226 0.1551
H33 H 0.3686 0.0187 0.1613
C46 C 0.3555(4) -0.0191(3) 0.11844(12)
H34 H 0.3814 -0.0315 0.1040
H35 H 0.3476 0.0156 0.1083
C47 C 0.2854(5) -0.0837(3) 0.12532(16)
H36 H 0.2604 -0.0717 0.1405
H37 H 0.2580 -0.0984 0.1062
C48 C 0.2919(6) -0.1405(4) 0.13720(15)
H38 H 0.2461 -0.1757 0.1446
H39 H 0.3222 -0.1236 0.1554
C49 C 0.3176(5) -0.1749(3) 0.11732(17)
H40 H 0.3638 -0.1396 0.1105
H41 H 0.2882 -0.1901 0.0988
C50 C 0.3235(8) -0.2367(5) 0.1285(2)
H42 H 0.3408 -0.2529 0.1118
H43 H 0.2783 -0.2735 0.1349
H44 H 0.3552 -0.2227 0.1459
S2A S 0.84569(4) 0.30760(7) 0.13649(2)
S2B S 0.69240(7) 0.53809(6) 0.13649(2)
C26A C 0.82700(15) 0.51030(27) 0.11090(8)
C26B C 0.48970(27) 0.31670(22) 0.11090(8)
C27A C 0.82457(17) 0.50220(31) 0.07971(9)
C27B C 0.49780(31) 0.32237(26) 0.07971(9)
H23A H 0.8030 0.4578 0.0708
H23B H 0.5422 0.3452 0.0708
C28A C 0.8545(2) 0.5606(4) 0.06115(11)
C28B C 0.4394(4) 0.2939(3) 0.06115(11)
H24A H 0.8533 0.5561 0.0394
H24B H 0.4439 0.2972 0.0394
C29A C 0.8860(2) 0.6253(4) 0.07456(13)
C29B C 0.3747(4) 0.2607(3) 0.07456(13)
H25A H 0.9064 0.6647 0.0618
H25B H 0.3353 0.2417 0.0618
C30A C 0.8883(2) 0.6335(4) 0.10564(13)
C30B C 0.3665(4) 0.2548(3) 0.10564(13)
H26A H 0.9106 0.6780 0.1144
H26B H 0.3220 0.2326 0.1144
C31A C 0.85766(16) 0.57575(28) 0.12441(10)
C31B C 0.42425(28) 0.28191(23) 0.12441(10)
C32A C 0.84950(16) 0.56847(28) 0.15754(9)
C32B C 0.43153(28) 0.28103(23) 0.15754(9)
C33A C 0.8674(2) 0.6163(4) 0.18084(12)
C33B C 0.3837(4) 0.2511(3) 0.18084(12)
H27A H 0.8904 0.6638 0.1762
H27B H 0.3362 0.2266 0.1762
C34A C 0.8514(2) 0.5945(4) 0.21089(12)
C34B C 0.4055(4) 0.2569(4) 0.21089(12)
H28A H 0.8637 0.6272 0.2269
H28B H 0.3728 0.2365 0.2269
C35A C 0.8179(2) 0.5259(4) 0.21788(10)
C35B C 0.4741(4) 0.2920(4) 0.21788(10)
H29A H 0.8075 0.5117 0.2387
H29B H 0.4883 0.2958 0.2387
C36A C 0.79904(18) 0.47680(32) 0.19484(8)
C36B C 0.52320(32) 0.32224(27) 0.19484(8)
H30A H 0.7756 0.4294 0.1997
H30B H 0.5706 0.3462 0.1997
C37A C 0.81507(15) 0.49858(27) 0.16507(8)
C37B C 0.50142(27) 0.31649(22) 0.16507(8)
C38A C 0.80178(14) 0.45579(25) 0.13607(7)
C38B C 0.54421(25) 0.34599(21) 0.13607(7)
C39A C 0.72879(14) 0.39571(24) 0.13313(7)
C39B C 0.60429(24) 0.33308(20) 0.13313(7)
C40A C 0.72816(14) 0.33237(24) 0.13305(7)
C40B C 0.66763(24) 0.39579(20) 0.13305(7)
C41A C 0.79986(15) 0.34969(26) 0.13510(7)
C41B C 0.65031(26) 0.45017(21) 0.13510(7)
C42A C 0.84197(15) 0.41843(26) 0.13688(7)
C42B C 0.58157(26) 0.42354(21) 0.13688(7)
C43A C 0.91227(16) 0.43906(28) 0.14059(8)
C43B C 0.56094(28) 0.47321(23) 0.14059(8)
H31A H 0.9478 0.4853 0.1424
H31B H 0.5147 0.4625 0.1424
C44A C 0.92244(17) 0.38492(30) 0.14116(10)
C44B C 0.61508(30) 0.53752(25) 0.14116(10)
C45A C 0.98905(19) 0.38580(34) 0.14608(12)
C45B C 0.61420(34) 0.60325(28) 0.14608(12)
H32A H 1.0226 0.4305 0.1551
H32B H 0.5695 0.5921 0.1551
H33A H 0.9813 0.3499 0.1613
H33B H 0.6501 0.6314 0.1613
C46A C 1.0191(3) 0.3746(5) 0.11844(12)
C46B C 0.6254(5) 0.6445(4) 0.11844(12)
H34A H 1.0315 0.4129 0.1040
H34B H 0.5871 0.6186 0.1040
H35A H 0.9844 0.3320 0.1083
H35B H 0.6680 0.6524 0.1083
C47A C 1.0837(3) 0.3691(6) 0.12532(16)
C47B C 0.6309(6) 0.7146(5) 0.12532(16)
H36A H 1.0717 0.3321 0.1405
H36B H 0.6679 0.7396 0.1405
H37A H 1.0984 0.3564 0.1062
H37B H 0.6436 0.7420 0.1062
C48A C 1.1405(4) 0.4324(7) 0.13720(15)
C48B C 0.5676(7) 0.7081(6) 0.13720(15)
H38A H 1.1757 0.4218 0.1446
H38B H 0.5782 0.7539 0.1446
H39A H 1.1236 0.4458 0.1554
H39B H 0.5542 0.6778 0.1554
C49A C 1.1749(3) 0.4925(6) 0.11732(17)
C49B C 0.5075(6) 0.6824(5) 0.11732(17)
H40A H 1.1396 0.5034 0.1105
H40B H 0.4966 0.6362 0.1105
H41A H 1.1901 0.4783 0.0988
H41B H 0.5217 0.7118 0.0988
C50A C 1.2367(5) 0.5602(9) 0.1285(2)
C50B C 0.4398(9) 0.6765(8) 0.1285(2)
H42A H 1.2529 0.5937 0.1118
H42B H 0.4063 0.6592 0.1118
H43A H 1.2735 0.5518 0.1349
H43B H 0.4482 0.7217 0.1349
H44A H 1.2227 0.5779 0.1459
H44B H 0.4221 0.6448 0.1459
Cl1 Cl 0.23152(8) 0.32189(7) 0.10209(4)
Cl2 Cl 0.16893(6) 0.17781(6) 0.11548(3)
Cl3 Cl 0.11415(8) 0.22528(8) 0.06784(3)
C51 C 0.1549(2) 0.2441(2) 0.10379(12)
H45 H 0.1243 0.2484 0.1191
O1 O 1.0367(8) 0.9480(7) -0.0376(3)
C52 C 0.9901(14) 0.9474(16) -0.0224(5)
O2? O 1.0000 1.0000 -0.0840(2)
C53? C 1.0489(12) 1.0231(12) -0.0644(5)
C54? C 1.1084(12) 0.9291(9) 0.9682(5)
H46? H 1.1258 0.9398 0.9471
H47? H 1.1352 0.9690 0.9813
H48? H 1.0602 0.9172 0.9685
loop_
_geom_bond_atom_site_label_1
_geom_bond_atom_site_label_2
_geom_bond_site_symmetry_1
_geom_bond_site_symmetry_2
S1 C16 1_555 1_555
C1 C2 1_555 1_555
C2 H1 1_555 1_555
C3 C2 1_555 1_555
H2 C3 1_555 1_555
C4 C3 1_555 1_555
H3 C4 1_555 1_555
C5 C4 1_555 1_555
H4 C5 1_555 1_555
C6 C1 1_555 1_555
C7 C6 1_555 1_555
C8 C7 1_555 1_555
H5 C8 1_555 1_555
C9 C8 1_555 1_555
H6 C9 1_555 1_555
C10 C9 1_555 1_555
H7 C10 1_555 1_555
C11 C10 1_555 1_555
H8 C11 1_555 1_555
C12 C7 1_555 1_555
C13 C1 1_555 1_555
C14 C13 1_555 1_555
C15 C14 1_555 1_555
C16 C15 1_555 1_555
C17 C13 1_555 1_555
C18 C17 1_555 1_555
H9 C18 1_555 1_555
C19 S1 1_555 1_555
C20 C19 1_555 1_555
H10 C20 1_555 1_555
H11 C20 1_555 1_555
C21 C20 1_555 1_555
H12 C21 1_555 1_555
H13 C21 1_555 1_555
C22 C21 1_555 1_555
H14 C22 1_555 1_555
H15 C22 1_555 1_555
C23 C22 1_555 1_555
H16 C23 1_555 1_555
H17 C23 1_555 1_555
C24 C23 1_555 1_555
H18 C24 1_555 1_555
H19 C24 1_555 1_555
C25 C24 1_555 1_555
H20 C25 1_555 1_555
H21 C25 1_555 1_555
H22 C25 1_555 1_555
S2 C41 1_555 1_555
C26 C27 1_555 1_555
C27 H23 1_555 1_555
C28 C27 1_555 1_555
H24 C28 1_555 1_555
C29 C28 1_555 1_555
H25 C29 1_555 1_555
C30 C29 1_555 1_555
H26 C30 1_555 1_555
C31 C26 1_555 1_555
C32 C31 1_555 1_555
C33 C32 1_555 1_555
H27 C33 1_555 1_555
C34 C33 1_555 1_555
H28 C34 1_555 1_555
C35 C34 1_555 1_555
H29 C35 1_555 1_555
C36 C35 1_555 1_555
H30 C36 1_555 1_555
C37 C32 1_555 1_555
C38 C26 1_555 1_555
C39 C38 1_555 1_555
C40 C39 1_555 1_555
C41 C40 1_555 1_555
C42 C38 1_555 1_555
C43 C42 1_555 1_555
H31 C43 1_555 1_555
C44 S2 1_555 1_555
C45 C44 1_555 1_555
H32 C45 1_555 1_555
H33 C45 1_555 1_555
C46 C45 1_555 1_555
H34 C46 1_555 1_555
H35 C46 1_555 1_555
C47 C46 1_555 1_555
H36 C47 1_555 1_555
H37 C47 1_555 1_555
C48 C47 1_555 1_555
H38 C48 1_555 1_555
H39 C48 1_555 1_555
C49 C48 1_555 1_555
H40 C49 1_555 1_555
H41 C49 1_555 1_555
C50 C49 1_555 1_555
H42 C50 1_555 1_555
H43 C50 1_555 1_555
H44 C50 1_555 1_555
Cl1 C51 1_555 1_555
Cl2 C51 1_555 1_555
Cl3 C51 1_555 1_555
C51 H45 1_555 1_555
O1 C52 1_555 1_555
S1A C16A 1_555 1_555
S1B C16B 1_555 1_555
C1A C2A 1_555 1_555
C1B C2B 1_555 1_555
C2A H1A 1_555 1_555
C2B H1B 1_555 1_555
C3A C2A 1_555 1_555
C3B C2B 1_555 1_555
H2A C3A 1_555 1_555
H2B C3B 1_555 1_555
C4A C3A 1_555 1_555
C4B C3B 1_555 1_555
H3A C4A 1_555 1_555
H3B C4B 1_555 1_555
C5A C4A 1_555 1_555
C5B C4B 1_555 1_555
H4A C5A 1_555 1_555
H4B C5B 1_555 1_555
C6A C1A 1_555 1_555
C6B C1B 1_555 1_555
C7A C6A 1_555 1_555
C7B C6B 1_555 1_555
C8A C7A 1_555 1_555
C8B C7B 1_555 1_555
H5A C8A 1_555 1_555
H5B C8B 1_555 1_555
C9A C8A 1_555 1_555
C9B C8B 1_555 1_555
H6A C9A 1_555 1_555
H6B C9B 1_555 1_555
C10A C9A 1_555 1_555
C10B C9B 1_555 1_555
H7A C10A 1_555 1_555
H7B C10B 1_555 1_555
C11A C10A 1_555 1_555
C11B C10B 1_555 1_555
H8A C11A 1_555 1_555
H8B C11B 1_555 1_555
C12A C7A 1_555 1_555
C12B C7B 1_555 1_555
C13A C1A 1_555 1_555
C13B C1B 1_555 1_555
C14A C13A 1_555 1_555
C14B C15 1_555 1_555
C15A C14 1_555 1_555
C15B C14A 1_555 1_555
C16A C15A 1_555 1_555
C16B C15B 1_555 1_555
C17A C13A 1_555 1_555
C17B C13B 1_555 1_555
C18A C17A 1_555 1_555
C18B C17B 1_555 1_555
H9A C18A 1_555 1_555
H9B C18B 1_555 1_555
C19A S1A 1_555 1_555
C19B S1B 1_555 1_555
C20A C19A 1_555 1_555
C20B C19B 1_555 1_555
H10A C20A 1_555 1_555
H10B C20B 1_555 1_555
H11A C20A 1_555 1_555
H11B C20B 1_555 1_555
C21A C20A 1_555 1_555
C21B C20B 1_555 1_555
H12A C21A 1_555 1_555
H12B C21B 1_555 1_555
H13A C21A 1_555 1_555
H13B C21B 1_555 1_555
C22A C21A 1_555 1_555
C22B C21B 1_555 1_555
H14A C22A 1_555 1_555
H14B C22B 1_555 1_555
H15A C22A 1_555 1_555
H15B C22B 1_555 1_555
C23A C22A 1_555 1_555
C23B C22B 1_555 1_555
H16A C23A 1_555 1_555
H16B C23B 1_555 1_555
H17A C23A 1_555 1_555
H17B C23B 1_555 1_555
C24A C23A 1_555 1_555
C24B C23B 1_555 1_555
H18A C24A 1_555 1_555
H18B C24B 1_555 1_555
H19A C24A 1_555 1_555
H19B C24B 1_555 1_555
C25A C24A 1_555 1_555
C25B C24B 1_555 1_555
H20A C25A 1_555 1_555
H20B C25B 1_555 1_555
H21A C25A 1_555 1_555
H21B C25B 1_555 1_555
H22A C25A 1_555 1_555
H22B C25B 1_555 1_555
S2A C41A 1_555 1_555
S2B C41B 1_555 1_555
C26A C27A 1_555 1_555
C26B C27B 1_555 1_555
C27A H23A 1_555 1_555
C27B H23B 1_555 1_555
C28A C27A 1_555 1_555
C28B C27B 1_555 1_555
H24A C28A 1_555 1_555
H24B C28B 1_555 1_555
C29A C28A 1_555 1_555
C29B C28B 1_555 1_555
H25A C29A 1_555 1_555
H25B C29B 1_555 1_555
C30A C29A 1_555 1_555
C30B C29B 1_555 1_555
H26A C30A 1_555 1_555
H26B C30B 1_555 1_555
C31A C26A 1_555 1_555
C31B C26B 1_555 1_555
C32A C31A 1_555 1_555
C32B C31B 1_555 1_555
C33A C32A 1_555 1_555
C33B C32B 1_555 1_555
H27A C33A 1_555 1_555
H27B C33B 1_555 1_555
C34A C33A 1_555 1_555
C34B C33B 1_555 1_555
H28A C34A 1_555 1_555
H28B C34B 1_555 1_555
C35A C34A 1_555 1_555
C35B C34B 1_555 1_555
H29A C35A 1_555 1_555
H29B C35B 1_555 1_555
C36A C35A 1_555 1_555
C36B C35B 1_555 1_555
H30A C36A 1_555 1_555
H30B C36B 1_555 1_555
C37A C32A 1_555 1_555
C37B C32B 1_555 1_555
C38A C26A 1_555 1_555
C38B C26B 1_555 1_555
C39A C38A 1_555 1_555
C39B C40 1_555 1_555
C40A C39 1_555 1_555
C40B C39A 1_555 1_555
C41A C40A 1_555 1_555
C41B C40B 1_555 1_555
C42A C38A 1_555 1_555
C42B C38B 1_555 1_555
C43A C42A 1_555 1_555
C43B C42B 1_555 1_555
H31A C43A 1_555 1_555
H31B C43B 1_555 1_555
C44A S2A 1_555 1_555
C44B S2B 1_555 1_555
C45A C44A 1_555 1_555
C45B C44B 1_555 1_555
H32A C45A 1_555 1_555
H32B C45B 1_555 1_555
H33A C45A 1_555 1_555
H33B C45B 1_555 1_555
C46A C45A 1_555 1_555
C46B C45B 1_555 1_555
H34A C46A 1_555 1_555
H34B C46B 1_555 1_555
H35A C46A 1_555 1_555
H35B C46B 1_555 1_555
C47A C46A 1_555 1_555
C47B C46B 1_555 1_555
H36A C47A 1_555 1_555
H36B C47B 1_555 1_555
H37A C47A 1_555 1_555
H37B C47B 1_555 1_555
C48A C47A 1_555 1_555
C48B C47B 1_555 1_555
H38A C48A 1_555 1_555
H38B C48B 1_555 1_555
H39A C48A 1_555 1_555
H39B C48B 1_555 1_555
C49A C48A 1_555 1_555
C49B C48B 1_555 1_555
H40A C49A 1_555 1_555
H40B C49B 1_555 1_555
H41A C49A 1_555 1_555
H41B C49B 1_555 1_555
C50A C49A 1_555 1_555
C50B C49B 1_555 1_555
H42A C50A 1_555 1_555
H42B C50B 1_555 1_555
H43A C50A 1_555 1_555
H43B C50B 1_555 1_555
H44A C50A 1_555 1_555
H44B C50B 1_555 1_555
C5 C6 1_555 1_555
C11 C12 1_555 1_555
C12 C13 1_555 1_555
C16 C17 1_555 1_555
C18 C19 1_555 1_555
C30 C31 1_555 1_555
C36 C37 1_555 1_555
C37 C38 1_555 1_555
C41 C42 1_555 1_555
C43 C44 1_555 1_555
C5A C6A 1_555 1_555
C5B C6B 1_555 1_555
C11A C12A 1_555 1_555
C11B C12B 1_555 1_555
C12A C13A 1_555 1_555
C12B C13B 1_555 1_555
C13B C14B 1_555 1_555
C14A C15A 1_555 1_555
C14B C15B 1_555 1_555
C16A C17A 1_555 1_555
C16B C17B 1_555 1_555
C18A C19A 1_555 1_555
C18B C19B 1_555 1_555
C30A C31A 1_555 1_555
C30B C31B 1_555 1_555
C36A C37A 1_555 1_555
C36B C37B 1_555 1_555
C37A C38A 1_555 1_555
C37B C38B 1_555 1_555
C38B C39B 1_555 1_555
C39A C40A 1_555 1_555
C39B C40B 1_555 1_555
C41A C42A 1_555 1_555
C41B C42B 1_555 1_555
C43A C44A 1_555 1_555
C43B C44B 1_555 1_555

#END
