
#######################################################################
#
#                 Cambridge Crystallographic Data Centre
#                                CCDC 
#
#######################################################################
#
# If this CIF has been generated from an entry in the Cambridge 
# Structural Database, then it will include bibliographic, chemical, 
# crystal, experimental, refinement or atomic coordinate data resulting 
# from the CCDC's data processing and validation procedures.
#
#######################################################################

data_EZALUN
_chemical_formula_moiety         'C19 H13 Cl1 O1 S1'
_chemical_name_systematic        
3-(4-Chlorophenyl)-3-phenyl-1-(2-thienyl)prop-2-en-1-one
_symmetry_cell_setting           monoclinic
_symmetry_space_group_name_H-M   'P 21/c'
_symmetry_Int_Tables_number      14
_space_group_name_Hall           '-P 2ybc'
loop_
_symmetry_equiv_pos_site_id
_symmetry_equiv_pos_as_xyz
1 x,y,z
2 -x,1/2+y,1/2-z
3 -x,-y,-z
4 x,1/2-y,1/2+z
_cell_length_a                   13.0170(11)
_cell_length_b                   9.1064(8)
_cell_length_c                   13.6673(11)
_cell_angle_alpha                90
_cell_angle_beta                 105.0840(10)
_cell_angle_gamma                90
_cell_volume                     1564.27
_exptl_crystal_colour            yellow
_exptl_crystal_description       block
_cell_formula_units_Z            4
loop_
_atom_site_label
_atom_site_type_symbol
_atom_site_fract_x
_atom_site_fract_y
_atom_site_fract_z
Cl1 Cl 0.57190(4) 0.92214(5) 0.92905(3)
S1 S 0.63988(7) 0.05997(8) 0.65553(6)
C1 C 0.7022(8) 0.1901(9) 0.5142(6)
H1 H 0.7321 0.2602 0.4781
O1 O 0.69257(9) 0.34564(11) 0.75810(8)
C2 C 0.62714(13) -0.02694(17) 0.54446(12)
H2 H 0.5986 -0.1232 0.5325
C3 C 0.66006(14) 0.04877(17) 0.47335(12)
H3 H 0.6563 0.0148 0.4068
C4 C 0.69349(12) 0.21029(15) 0.61251(11)
C5 C 0.72351(12) 0.33703(15) 0.68102(11)
C6 C 0.79582(13) 0.44496(16) 0.65293(11)
H4 H 0.8311 0.4135 0.6039
C7 C 0.81762(12) 0.58289(15) 0.68865(11)
C8 C 0.75586(12) 0.66100(15) 0.75054(10)
C9 C 0.80832(12) 0.73377(16) 0.83938(11)
H5 H 0.8837 0.7294 0.8620
C10 C 0.75197(13) 0.81224(16) 0.89505(11)
H6 H 0.7881 0.8602 0.9561
C11 C 0.64239(13) 0.81976(15) 0.86049(11)
C12 C 0.58783(12) 0.74956(15) 0.77263(11)
H7 H 0.5125 0.7557 0.7499
C13 C 0.64502(12) 0.67015(15) 0.71835(11)
H8 H 0.6082 0.6210 0.6581
C14 C 0.90378(12) 0.66771(16) 0.66127(10)
C15 C 0.99547(13) 0.59832(18) 0.64898(12)
H9 H 1.0043 0.4957 0.6606
C16 C 1.07336(14) 0.6777(2) 0.62013(13)
H10 H 1.1356 0.6294 0.6127
C17 C 1.06118(14) 0.82750(19) 0.60203(13)
H11 H 1.1145 0.8816 0.5816
C18 C 0.97145(13) 0.89699(18) 0.61391(13)
H12 H 0.9627 0.9994 0.6011
C19 C 0.89348(13) 0.81921(17) 0.64439(11)
H13 H 0.8327 0.8691 0.6539
C20? C 0.6464(11) 0.0845(14) 0.6329(11)
H14? H 0.6276 0.0671 0.6946
S2? S 0.7024(5) 0.2104(5) 0.4931(5)
loop_
_geom_bond_atom_site_label_1
_geom_bond_atom_site_label_2
_geom_bond_site_symmetry_1
_geom_bond_site_symmetry_2
Cl1 C11 1_555 1_555
S1 C2 1_555 1_555
C1 H1 1_555 1_555
O1 C5 1_555 1_555
C2 H2 1_555 1_555
C3 C1 1_555 1_555
H3 C3 1_555 1_555
C4 S1 1_555 1_555
C5 C4 1_555 1_555
C6 C5 1_555 1_555
H4 C6 1_555 1_555
C7 C6 1_555 1_555
C8 C7 1_555 1_555
C9 C8 1_555 1_555
H5 C9 1_555 1_555
C10 C9 1_555 1_555
H6 C10 1_555 1_555
C11 C10 1_555 1_555
C12 C11 1_555 1_555
H7 C12 1_555 1_555
C13 C8 1_555 1_555
H8 C13 1_555 1_555
C14 C7 1_555 1_555
C15 C14 1_555 1_555
H9 C15 1_555 1_555
C16 C15 1_555 1_555
H10 C16 1_555 1_555
C17 C16 1_555 1_555
H11 C17 1_555 1_555
C18 C17 1_555 1_555
H12 C18 1_555 1_555
C19 C14 1_555 1_555
H13 C19 1_555 1_555
C1 C4 1_555 1_555
C2 C3 1_555 1_555
C12 C13 1_555 1_555
C18 C19 1_555 1_555

#END
