
#######################################################################
#
#                 Cambridge Crystallographic Data Centre
#                                CCDC 
#
#######################################################################
#
# If this CIF has been generated from an entry in the Cambridge 
# Structural Database, then it will include bibliographic, chemical, 
# crystal, experimental, refinement or atomic coordinate data resulting 
# from the CCDC's data processing and validation procedures.
#
#######################################################################

data_EZAQED
_chemical_name_common            'isoliquiritigenin isonicotinamide'
_chemical_formula_moiety         'C15 H12 O4,C6 H6 N2 O1'
_chemical_name_systematic        
'1-(2,4-dihydroxyphenyl)-3-(4-hydroxyphenyl)prop-2-en-1-one isonicotinamide'
_chemical_properties_biological  
'Isoliquiritigenin has been investigated for its antioxidative, anti-inflammatory, estrogenic, chemopreventive, and antitumor activities.'
_symmetry_cell_setting           triclinic
_symmetry_space_group_name_H-M   'P -1'
_symmetry_Int_Tables_number      2
_space_group_name_Hall           '-P 1'
loop_
_symmetry_equiv_pos_site_id
_symmetry_equiv_pos_as_xyz
1 x,y,z
2 -x,-y,-z
_cell_length_a                   6.9223(13)
_cell_length_b                   8.2857(16)
_cell_length_c                   16.275(3)
_cell_angle_alpha                79.871(5)
_cell_angle_beta                 78.545(4)
_cell_angle_gamma                82.818(5)
_cell_volume                     896.682
_exptl_crystal_colour            yellow
_exptl_crystal_description       block
_chemical_melting_point          '459 K'
_cell_formula_units_Z            2
_exptl_crystal_recrystallization_method methanol
loop_
_atom_site_label
_atom_site_type_symbol
_atom_site_fract_x
_atom_site_fract_y
_atom_site_fract_z
C1 C 0.4970(5) 0.1342(4) 0.5910(2)
C2 C 0.3454(5) 0.1719(4) 0.5457(2)
H1 H 0.2235 0.1314 0.5683
C3 C 0.3717(5) 0.2691(5) 0.4672(2)
C4 C 0.5544(5) 0.3361(4) 0.43198(19)
C5 C 0.7039(5) 0.2979(4) 0.4805(2)
H2 H 0.8251 0.3408 0.4596
C6 C 0.6773(5) 0.1992(5) 0.5579(2)
H3 H 0.7801 0.1754 0.5885
C7 C 0.5821(5) 0.4342(4) 0.3481(2)
C8 C 0.7588(5) 0.5205(4) 0.3146(2)
H4 H 0.8515 0.5156 0.3495
C9 C 0.7950(5) 0.6062(4) 0.2365(2)
H5 H 0.7010 0.6083 0.2026
C10 C 0.9670(5) 0.6969(4) 0.1990(2)
C11 C 0.9955(5) 0.7662(5) 0.1134(2)
H6 H 0.9027 0.7556 0.0809
C12 C 1.1592(6) 0.8504(5) 0.0758(2)
H7 H 1.1763 0.8954 0.0186
C13 C 1.2959(6) 0.8671(5) 0.1235(2)
C14 C 1.2702(6) 0.8021(5) 0.2087(2)
H8 H 1.3619 0.8155 0.2411
C15 C 1.1079(5) 0.7173(4) 0.2453(2)
H9 H 1.0923 0.6725 0.3025
O1 O 0.4814(4) 0.0357(4) 0.66699(15)
H10 H 0.3726 -0.0005 0.6792
O2 O 0.4511(4) 0.4458(4) 0.30256(16)
O3 O 0.2177(4) 0.2992(4) 0.42588(17)
H11 H 0.2495 0.3574 0.3801
O4 O 1.4592(5) 0.9503(5) 0.0878(2)
H12 H 1.5183 0.9614 0.1251
C16 C 1.1777(5) 0.8190(5) 0.8165(2)
H13 H 1.2937 0.8334 0.8339
C17 C 1.0394(5) 0.7319(5) 0.8733(2)
H14 H 1.0633 0.6860 0.9272
C18 C 0.8633(5) 0.7131(4) 0.8493(2)
C19 C 0.8391(5) 0.7794(4) 0.7681(2)
H15 H 0.7240 0.7680 0.7491
C20 C 0.9881(5) 0.8632(4) 0.7149(2)
H16 H 0.9702 0.9073 0.6600
C21 C 0.7083(5) 0.6239(5) 0.9142(2)
N1 N 1.1550(4) 0.8839(4) 0.73792(18)
N2 N 0.5755(4) 0.5599(4) 0.88459(17)
H17 H 0.4825 0.5105 0.9192
H18 H 0.5820 0.5678 0.8307
O5 O 0.7090(4) 0.6178(4) 0.98975(15)
loop_
_geom_bond_atom_site_label_1
_geom_bond_atom_site_label_2
_geom_bond_site_symmetry_1
_geom_bond_site_symmetry_2
C1 C2 1_555 1_555
C2 H1 1_555 1_555
C3 C2 1_555 1_555
C4 C3 1_555 1_555
C5 C4 1_555 1_555
H2 C5 1_555 1_555
C6 C1 1_555 1_555
H3 C6 1_555 1_555
C7 C4 1_555 1_555
C8 C7 1_555 1_555
H4 C8 1_555 1_555
C9 C8 1_555 1_555
H5 C9 1_555 1_555
C10 C9 1_555 1_555
C11 C10 1_555 1_555
H6 C11 1_555 1_555
C12 C11 1_555 1_555
H7 C12 1_555 1_555
C13 C12 1_555 1_555
C14 C13 1_555 1_555
H8 C14 1_555 1_555
C15 C10 1_555 1_555
H9 C15 1_555 1_555
O1 C1 1_555 1_555
H10 O1 1_555 1_555
O2 C7 1_555 1_555
O3 C3 1_555 1_555
H11 O3 1_555 1_555
O4 C13 1_555 1_555
H12 O4 1_555 1_555
C16 H13 1_555 1_555
C17 C16 1_555 1_555
H14 C17 1_555 1_555
C18 C17 1_555 1_555
C19 C18 1_555 1_555
H15 C19 1_555 1_555
C20 C19 1_555 1_555
H16 C20 1_555 1_555
C21 C18 1_555 1_555
N1 C16 1_555 1_555
N2 C21 1_555 1_555
H17 N2 1_555 1_555
H18 N2 1_555 1_555
O5 C21 1_555 1_555
C5 C6 1_555 1_555
C14 C15 1_555 1_555
C20 N1 1_555 1_555

#END
