
#######################################################################
#
#                 Cambridge Crystallographic Data Centre
#                                CCDC 
#
#######################################################################
#
# If this CIF has been generated from an entry in the Cambridge 
# Structural Database, then it will include bibliographic, chemical, 
# crystal, experimental, refinement or atomic coordinate data resulting 
# from the CCDC's data processing and validation procedures.
#
#######################################################################

data_EZATUU
_chemical_formula_moiety         'C60 H64 K1 O18 1+,I1 1-,C1 H4 O1'
_chemical_name_systematic        
"bis(2,3-(4',5'-bis((4-Formylphenoxy)methyl)benzo)-1,4,7,10,13-pentaoxa-2-cyclopentadecene)-potassium iodide methanol solvate"
_symmetry_cell_setting           monoclinic
_symmetry_space_group_name_H-M   'P 21/c'
_symmetry_Int_Tables_number      14
_space_group_name_Hall           '-P 2ybc'
loop_
_symmetry_equiv_pos_site_id
_symmetry_equiv_pos_as_xyz
1 x,y,z
2 x,1/2-y,1/2+z
3 -x,-y,-z
4 -x,1/2+y,1/2-z
_cell_length_a                   13.586(8)
_cell_length_b                   30.360(17)
_cell_length_c                   15.894(9)
_cell_angle_alpha                90
_cell_angle_beta                 113.516(10)
_cell_angle_gamma                90
_cell_volume                     6011.34
_exptl_crystal_colour            colorless
_exptl_crystal_description       plane
_cell_formula_units_Z            4
loop_
_atom_site_label
_atom_site_type_symbol
_atom_site_fract_x
_atom_site_fract_y
_atom_site_fract_z
I1 I 0.83361(5) 0.08900(2) 0.69447(5)
K1 K 0.22845(12) 0.10422(5) 0.47077(11)
O1 O 0.2713(4) 0.15486(14) 0.6301(3)
O2 O 0.0882(4) 0.10552(15) 0.5645(3)
O3 O 0.2009(4) 0.02703(16) 0.5566(3)
O4 O 0.4005(4) 0.03992(15) 0.5367(4)
O5 O 0.4395(4) 0.11931(15) 0.6289(3)
O6 O 0.6795(4) 0.23758(15) 0.6016(4)
O7 O 1.1487(5) 0.2921(2) 0.6441(4)
O8 O 0.4802(4) 0.32827(16) 0.6641(3)
O9 O 0.6072(7) 0.5290(2) 0.6584(5)
O10 O 0.0408(4) 0.15709(15) 0.3651(4)
O11 O 0.0275(4) 0.06673(16) 0.3582(3)
O12 O 0.2172(4) 0.05798(16) 0.3199(3)
O13 O 0.3717(4) 0.12699(15) 0.3835(3)
O14 O 0.2175(3) 0.18807(14) 0.3709(4)
O15 O -0.1992(3) 0.27992(15) 0.3598(4)
O16 O -0.6496(4) 0.33357(19) 0.3636(4)
O17 O 0.0966(4) 0.36554(15) 0.4442(3)
O18 O 0.1988(8) 0.5693(3) 0.4315(6)
C1 C 1.0681(6) 0.3136(3) 0.6327(6)
H1 H 1.0715 0.3441 0.6301
C2 C 0.9665(5) 0.2930(3) 0.6231(5)
C3 C 0.8790(6) 0.3197(2) 0.6085(5)
H2 H 0.8861 0.3500 0.6036
C4 C 0.7815(6) 0.3031(2) 0.6008(5)
H3 H 0.7234 0.3216 0.5909
C5 C 0.7722(6) 0.2586(2) 0.6082(5)
C6 C 0.8581(6) 0.2306(2) 0.6231(6)
H4 H 0.8506 0.2003 0.6273
C7 C 0.9533(6) 0.2482(3) 0.6314(5)
H5 H 1.0116 0.2296 0.6430
C8 C 0.5974(5) 0.2646(2) 0.6082(5)
H6 H 0.5686 0.2838 0.5551
H7 H 0.6269 0.2829 0.6627
C9 C 0.5090(5) 0.2359(3) 0.6130(5)
C10 C 0.5196(5) 0.1903(2) 0.6199(5)
H8 H 0.5825 0.1773 0.6219
C11 C 0.4389(5) 0.1639(2) 0.6236(5)
C12 C 0.5240(5) 0.0954(2) 0.6159(5)
H9 H 0.5928 0.1014 0.6654
H10 H 0.5278 0.1036 0.5582
C13 C 0.4955(6) 0.0481(2) 0.6153(6)
H11 H 0.5533 0.0298 0.6138
H12 H 0.4843 0.0410 0.6703
C14 C 0.3523(6) -0.0017(2) 0.5359(6)
H13 H 0.4081 -0.0239 0.5581
H14 H 0.3060 -0.0091 0.4731
C15 C 0.2879(7) -0.0029(3) 0.5931(6)
H15 H 0.2609 -0.0325 0.5932
H16 H 0.3328 0.0051 0.6559
C16 C 0.1449(7) 0.0312(3) 0.6155(6)
H17 H 0.1931 0.0424 0.6748
H18 H 0.1189 0.0026 0.6245
C17 C 0.0533(6) 0.0618(2) 0.5735(6)
H19 H 0.0068 0.0509 0.5133
H20 H 0.0120 0.0628 0.6111
C18 C 0.1148(6) 0.1321(2) 0.6435(6)
H21 H 0.1593 0.1157 0.6977
H22 H 0.0501 0.1412 0.6505
C19 C 0.1744(5) 0.1717(2) 0.6325(5)
H23 H 0.1327 0.1872 0.5761
H24 H 0.1899 0.1917 0.6837
C20 C 0.3445(6) 0.1835(2) 0.6241(5)
C21 C 0.3347(5) 0.2287(2) 0.6176(5)
H25 H 0.2730 0.2418 0.6182
C22 C 0.4142(5) 0.2555(2) 0.6102(5)
C23 C 0.3934(6) 0.3037(2) 0.5960(5)
H26 H 0.3870 0.3118 0.5350
H27 H 0.3263 0.3108 0.6009
C24 C 0.4857(6) 0.3721(3) 0.6485(5)
C25 C 0.4022(6) 0.3967(3) 0.5926(6)
H28 H 0.3349 0.3843 0.5606
C26 C 0.4207(8) 0.4414(3) 0.5848(7)
H29 H 0.3643 0.4585 0.5456
C27 C 0.5150(8) 0.4610(3) 0.6306(6)
C28 C 0.5241(9) 0.5080(3) 0.6200(7)
H30 H 0.4632 0.5232 0.5817
C29 C 0.5978(7) 0.4357(3) 0.6865(6)
H31 H 0.6644 0.4487 0.7187
C30 C 0.5854(7) 0.3919(3) 0.6964(6)
H32 H 0.6431 0.3752 0.7350
C31 C -0.5758(6) 0.3545(3) 0.3584(6)
H33 H -0.5836 0.3849 0.3534
C32 C -0.4762(5) 0.3359(2) 0.3596(5)
C33 C -0.4625(6) 0.2908(3) 0.3597(5)
H34 H -0.5165 0.2721 0.3604
C34 C -0.3691(6) 0.2730(2) 0.3589(6)
H35 H -0.3609 0.2427 0.3576
C35 C -0.2881(5) 0.3008(2) 0.3599(5)
C36 C -0.3004(6) 0.3463(2) 0.3590(5)
H36 H -0.2469 0.3651 0.3577
C37 C -0.3939(6) 0.3625(2) 0.3602(5)
H37 H -0.4022 0.3928 0.3616
C38 C -0.1071(5) 0.3063(2) 0.3692(5)
H38 H -0.0847 0.3239 0.4247
H39 H -0.1250 0.3261 0.3172
C39 C -0.0177(5) 0.2757(2) 0.3734(5)
C40 C -0.0297(5) 0.2301(2) 0.3730(5)
H40 H -0.0923 0.2185 0.3747
C41 C 0.0480(5) 0.2013(2) 0.3703(5)
C42 C -0.0588(5) 0.1356(2) 0.3455(6)
H41 H -0.1174 0.1539 0.3056
H42 H -0.0687 0.1306 0.4019
C43 C -0.0585(6) 0.0929(2) 0.2998(6)
H43 H -0.1259 0.0776 0.2862
H44 H -0.0508 0.0981 0.2425
C44 C 0.0510(6) 0.0294(2) 0.3147(5)
H45 H 0.0423 -0.0009 0.3319
C45 C 0.1161(7) 0.0405(3) 0.2603(6)
H46 H 0.1270 0.0142 0.2304
H47 H 0.0780 0.0619 0.2133
C46 C 0.2847(7) 0.0676(3) 0.2739(6)
H48 H 0.2499 0.0884 0.2246
H49 H 0.3003 0.0410 0.2478
C47 C 0.3861(6) 0.0869(3) 0.3425(6)
H50 H 0.4199 0.0654 0.3906
H51 H 0.4347 0.0925 0.3126
C48 C 0.3545(6) 0.1643(2) 0.3269(6)
H52 H 0.3015 0.1576 0.2660
H53 H 0.4208 0.1724 0.3217
C49 C 0.3156(5) 0.2021(2) 0.3668(5)
H54 H 0.3680 0.2093 0.4277
H55 H 0.3038 0.2280 0.3283
C50 C 0.1447(5) 0.2189(2) 0.3734(5)
C51 C 0.1602(5) 0.2637(2) 0.3771(5)
H56 H 0.2259 0.2750 0.3817
C52 C 0.0786(5) 0.2927(2) 0.3740(4)
C53 C 0.0948(6) 0.3413(2) 0.3653(5)
H57 H 0.1620 0.3460 0.3587
H58 H 0.0373 0.3525 0.3105
C54 C 0.1147(5) 0.4093(2) 0.4455(5)
C55 C 0.1022(7) 0.4320(3) 0.5150(6)
H59 H 0.0803 0.4174 0.5560
C56 C 0.1221(8) 0.4768(3) 0.5242(7)
H60 H 0.1134 0.4920 0.5715
C57 C 0.1544(7) 0.4990(3) 0.4650(7)
C58 C 0.1735(10) 0.5471(4) 0.4789(8)
H61 H 0.1647 0.5601 0.5283
C59 C 0.1673(6) 0.4759(3) 0.3957(6)
H62 H 0.1901 0.4905 0.3552
C60 C 0.1467(6) 0.4315(2) 0.3857(5)
H63 H 0.1545 0.4163 0.3379
O19 O 0.7584(12) 0.1192(4) 0.4586(12)
H64 H 0.7534 0.0960 0.4828
C61 C 0.6804(12) 0.1430(7) 0.4487(11)
H65 H 0.7026 0.1662 0.4934
H66 H 0.6257 0.1257 0.4569
H67 H 0.6524 0.1555 0.3882
loop_
_geom_bond_atom_site_label_1
_geom_bond_atom_site_label_2
_geom_bond_site_symmetry_1
_geom_bond_site_symmetry_2
K1 O1 1_555 1_555
O1 C19 1_555 1_555
O2 K1 1_555 1_555
O3 K1 1_555 1_555
O4 K1 1_555 1_555
O5 K1 1_555 1_555
O6 C5 1_555 1_555
O7 C1 1_555 1_555
O8 C23 1_555 1_555
O9 C28 1_555 1_555
O10 K1 1_555 1_555
O11 K1 1_555 1_555
O12 K1 1_555 1_555
O13 K1 1_555 1_555
O14 K1 1_555 1_555
O15 C35 1_555 1_555
O16 C31 1_555 1_555
O17 C53 1_555 1_555
O18 C58 1_555 1_555
C1 H1 1_555 1_555
C2 C1 1_555 1_555
C3 C2 1_555 1_555
H2 C3 1_555 1_555
C4 C3 1_555 1_555
H3 C4 1_555 1_555
C5 C4 1_555 1_555
C6 C5 1_555 1_555
H4 C6 1_555 1_555
C7 C2 1_555 1_555
H5 C7 1_555 1_555
C8 O6 1_555 1_555
H6 C8 1_555 1_555
H7 C8 1_555 1_555
C9 C8 1_555 1_555
C10 C9 1_555 1_555
H8 C10 1_555 1_555
C11 O5 1_555 1_555
C12 O5 1_555 1_555
H9 C12 1_555 1_555
H10 C12 1_555 1_555
C13 O4 1_555 1_555
H11 C13 1_555 1_555
H12 C13 1_555 1_555
C14 O4 1_555 1_555
H13 C14 1_555 1_555
H14 C14 1_555 1_555
C15 O3 1_555 1_555
H15 C15 1_555 1_555
H16 C15 1_555 1_555
C16 O3 1_555 1_555
H17 C16 1_555 1_555
H18 C16 1_555 1_555
C17 O2 1_555 1_555
H19 C17 1_555 1_555
H20 C17 1_555 1_555
C18 O2 1_555 1_555
H21 C18 1_555 1_555
H22 C18 1_555 1_555
C19 C18 1_555 1_555
H23 C19 1_555 1_555
H24 C19 1_555 1_555
C20 O1 1_555 1_555
C21 C20 1_555 1_555
H25 C21 1_555 1_555
C22 C9 1_555 1_555
C23 C22 1_555 1_555
H26 C23 1_555 1_555
H27 C23 1_555 1_555
C24 O8 1_555 1_555
C25 C24 1_555 1_555
H28 C25 1_555 1_555
C26 C25 1_555 1_555
H29 C26 1_555 1_555
C27 C26 1_555 1_555
C28 C27 1_555 1_555
H30 C28 1_555 1_555
C29 C27 1_555 1_555
H31 C29 1_555 1_555
C30 C24 1_555 1_555
H32 C30 1_555 1_555
C31 H33 1_555 1_555
C32 C31 1_555 1_555
C33 C32 1_555 1_555
H34 C33 1_555 1_555
C34 C33 1_555 1_555
H35 C34 1_555 1_555
C35 C34 1_555 1_555
C36 C35 1_555 1_555
H36 C36 1_555 1_555
C37 C32 1_555 1_555
H37 C37 1_555 1_555
C38 O15 1_555 1_555
H38 C38 1_555 1_555
H39 C38 1_555 1_555
C39 C38 1_555 1_555
C40 C39 1_555 1_555
H40 C40 1_555 1_555
C41 O10 1_555 1_555
C42 O10 1_555 1_555
H41 C42 1_555 1_555
H42 C42 1_555 1_555
C43 O11 1_555 1_555
H43 C43 1_555 1_555
H44 C43 1_555 1_555
C44 O11 1_555 1_555
H45 C44 1_555 1_555
C45 O12 1_555 1_555
H46 C45 1_555 1_555
H47 C45 1_555 1_555
C46 O12 1_555 1_555
H48 C46 1_555 1_555
H49 C46 1_555 1_555
C47 O13 1_555 1_555
H50 C47 1_555 1_555
H51 C47 1_555 1_555
C48 O13 1_555 1_555
H52 C48 1_555 1_555
H53 C48 1_555 1_555
C49 O14 1_555 1_555
H54 C49 1_555 1_555
H55 C49 1_555 1_555
C50 O14 1_555 1_555
C51 C50 1_555 1_555
H56 C51 1_555 1_555
C52 C39 1_555 1_555
C53 C52 1_555 1_555
H57 C53 1_555 1_555
H58 C53 1_555 1_555
C54 O17 1_555 1_555
C55 C54 1_555 1_555
H59 C55 1_555 1_555
C56 C55 1_555 1_555
H60 C56 1_555 1_555
C57 C56 1_555 1_555
C58 C57 1_555 1_555
H61 C58 1_555 1_555
C59 C57 1_555 1_555
H62 C59 1_555 1_555
C60 C54 1_555 1_555
H63 C60 1_555 1_555
O19 H64 1_555 1_555
C61 O19 1_555 1_555
H65 C61 1_555 1_555
H66 C61 1_555 1_555
H67 C61 1_555 1_555
C6 C7 1_555 1_555
C10 C11 1_555 1_555
C11 C20 1_555 1_555
C12 C13 1_555 1_555
C14 C15 1_555 1_555
C16 C17 1_555 1_555
C21 C22 1_555 1_555
C29 C30 1_555 1_555
C36 C37 1_555 1_555
C40 C41 1_555 1_555
C41 C50 1_555 1_555
C42 C43 1_555 1_555
C44 C45 1_555 1_555
C46 C47 1_555 1_555
C48 C49 1_555 1_555
C51 C52 1_555 1_555
C59 C60 1_555 1_555

#END
