
#######################################################################
#
#                 Cambridge Crystallographic Data Centre
#                                CCDC 
#
#######################################################################
#
# If this CIF has been generated from an entry in the Cambridge 
# Structural Database, then it will include bibliographic, chemical, 
# crystal, experimental, refinement or atomic coordinate data resulting 
# from the CCDC's data processing and validation procedures.
#
#######################################################################

data_EZELOK01
_chemical_formula_moiety         'C28 H18 O2'
_chemical_name_systematic        9,10-Dibenzoylphenanthrene
_symmetry_cell_setting           monoclinic
_symmetry_space_group_name_H-M   'P 21/n'
_symmetry_Int_Tables_number      14
_space_group_name_Hall           '-P 2yn'
loop_
_symmetry_equiv_pos_site_id
_symmetry_equiv_pos_as_xyz
1 x,y,z
2 1/2-x,1/2+y,1/2-z
3 -x,-y,-z
4 1/2+x,1/2-y,1/2+z
_cell_length_a                   10.038(2)
_cell_length_b                   15.211(2)
_cell_length_c                   13.417(1)
_cell_angle_alpha                90
_cell_angle_beta                 92.324(9)
_cell_angle_gamma                90
_cell_volume                     2046.93
_exptl_crystal_colour            colorless
_exptl_crystal_description       prism
_chemical_melting_point          202-204deg.C
_cell_formula_units_Z            4
_exptl_crystal_recrystallization_method acetone
loop_
_atom_site_label
_atom_site_type_symbol
_atom_site_fract_x
_atom_site_fract_y
_atom_site_fract_z
O1 O 0.3718(2) 0.3426(1) 0.6903(1)
O2 O 0.6545(2) 0.3148(1) 0.8468(2)
C1 C 0.3620(2) 0.3686(2) 0.7755(2)
C2 C 0.3446(2) 0.3033(1) 0.8584(2)
C3 C 0.4480(2) 0.2506(2) 0.8876(2)
C4 C 0.5764(2) 0.2542(2) 0.8327(2)
C5 C 0.3686(2) 0.4640(2) 0.8004(2)
C6 C 0.3825(2) 0.5243(2) 0.7239(2)
C7 C 0.3898(3) 0.6132(2) 0.7460(2)
C8 C 0.3813(3) 0.6419(2) 0.8423(2)
C9 C 0.3684(3) 0.5829(2) 0.9190(2)
C10 C 0.3626(2) 0.4937(2) 0.8974(2)
C11 C 0.2161(2) 0.2933(1) 0.9012(2)
C12 C 0.1036(2) 0.3385(2) 0.8612(2)
C13 C -0.0206(2) 0.3238(2) 0.8965(2)
C14 C -0.0352(3) 0.2646(2) 0.9749(2)
C15 C 0.0719(3) 0.2201(2) 1.0149(2)
C16 C 0.2006(2) 0.2324(2) 0.9794(2)
C17 C 0.3148(2) 0.1821(2) 1.0167(2)
C18 C 0.3093(3) 0.1246(2) 1.0987(2)
C19 C 0.4175(4) 0.0762(2) 1.1302(2)
C20 C 0.5375(3) 0.0838(2) 1.0834(2)
C21 C 0.5478(3) 0.1397(2) 1.0047(2)
C22 C 0.4375(2) 0.1898(2) 0.9691(2)
C23 C 0.6020(2) 0.1815(2) 0.7620(2)
C24 C 0.4982(2) 0.1328(2) 0.7197(2)
C25 C 0.5223(2) 0.0687(2) 0.6498(2)
C26 C 0.6499(3) 0.0514(2) 0.6237(2)
C27 C 0.7545(3) 0.0981(2) 0.6667(2)
C28 C 0.7310(2) 0.1640(2) 0.7347(2)
H1 H 0.38698 0.50479 0.65686
H2 H 0.40072 0.65453 0.69395
H3 H 0.38443 0.70313 0.85624
H4 H 0.36364 0.60286 0.98579
H5 H 0.35429 0.45253 0.95005
H6 H 0.11405 0.37970 0.80894
H7 H -0.09606 0.35365 0.86794
H8 H -0.12087 0.25528 1.00053
H9 H 0.05943 0.18003 1.06801
H10 H 0.22865 0.11950 1.13292
H11 H 0.41053 0.03688 1.18476
H12 H 0.61246 0.05014 1.10603
H13 H 0.63060 0.14513 0.97343
H14 H 0.40955 0.14340 0.73895
H15 H 0.45006 0.03666 0.61975
H16 H 0.66627 0.00704 0.57588
H17 H 0.84324 0.08504 0.64960
H18 H 0.80335 0.19731 0.76263
loop_
_geom_bond_atom_site_label_1
_geom_bond_atom_site_label_2
_geom_bond_site_symmetry_1
_geom_bond_site_symmetry_2
O1 C1 1_555 1_555
O2 C4 1_555 1_555
C1 C2 1_555 1_555
C2 C3 1_555 1_555
C3 C4 1_555 1_555
C4 C23 1_555 1_555
C5 C1 1_555 1_555
C6 C5 1_555 1_555
C7 C6 1_555 1_555
C8 C7 1_555 1_555
C9 C8 1_555 1_555
C10 C5 1_555 1_555
C11 C2 1_555 1_555
C12 C11 1_555 1_555
C13 C12 1_555 1_555
C14 C13 1_555 1_555
C15 C14 1_555 1_555
C16 C11 1_555 1_555
C17 C16 1_555 1_555
C18 C17 1_555 1_555
C19 C18 1_555 1_555
C20 C19 1_555 1_555
C21 C20 1_555 1_555
C22 C3 1_555 1_555
C23 C24 1_555 1_555
C24 C25 1_555 1_555
C25 C26 1_555 1_555
C26 C27 1_555 1_555
C27 C28 1_555 1_555
C28 C23 1_555 1_555
H1 C6 1_555 1_555
H2 C7 1_555 1_555
H3 C8 1_555 1_555
H4 C9 1_555 1_555
H5 C10 1_555 1_555
H6 C12 1_555 1_555
H7 C13 1_555 1_555
H8 C14 1_555 1_555
H9 C15 1_555 1_555
H10 C18 1_555 1_555
H11 C19 1_555 1_555
H12 C20 1_555 1_555
H13 C21 1_555 1_555
H14 C24 1_555 1_555
H15 C25 1_555 1_555
H16 C26 1_555 1_555
H17 C27 1_555 1_555
H18 C28 1_555 1_555
C9 C10 1_555 1_555
C15 C16 1_555 1_555
C17 C22 1_555 1_555
C21 C22 1_555 1_555

#END
