
#######################################################################
#
#                 Cambridge Crystallographic Data Centre
#                                CCDC 
#
#######################################################################
#
# If this CIF has been generated from an entry in the Cambridge 
# Structural Database, then it will include bibliographic, chemical, 
# crystal, experimental, refinement or atomic coordinate data resulting 
# from the CCDC's data processing and validation procedures.
#
#######################################################################

data_EZEWAI
_chemical_formula_moiety         'C11 H16 O3'
_chemical_name_systematic        7-Hydroxyspiro[5.5]undecane-1,8-dione
_symmetry_cell_setting           orthorhombic
_symmetry_space_group_name_H-M   'P 21 21 21'
_symmetry_Int_Tables_number      19
_space_group_name_Hall           'P 2ac 2ab'
loop_
_symmetry_equiv_pos_site_id
_symmetry_equiv_pos_as_xyz
1 x,y,z
2 1/2-x,-y,1/2+z
3 -x,1/2+y,1/2-z
4 1/2+x,1/2-y,-z
_cell_length_a                   9.223(6)
_cell_length_b                   9.575(6)
_cell_length_c                   11.609(8)
_cell_angle_alpha                90
_cell_angle_beta                 90
_cell_angle_gamma                90
_cell_volume                     1025.19
_exptl_crystal_colour            colorless
_exptl_crystal_description       block
_cell_formula_units_Z            4
loop_
_atom_site_label
_atom_site_type_symbol
_atom_site_fract_x
_atom_site_fract_y
_atom_site_fract_z
C1 C 0.8275(4) -0.0194(3) 0.1579(3)
C2 C 0.9513(3) -0.0344(4) 0.2447(3)
H1 H 0.9498 -0.1314 0.2717
C3 C 1.1002(4) -0.0089(4) 0.1946(4)
C4 C 1.1325(4) -0.0827(4) 0.0846(3)
H2 H 1.1541 -0.1798 0.1012
H3 H 1.2181 -0.0415 0.0500
C5 C 1.0084(4) -0.0764(4) -0.0015(3)
H4 H 1.0272 -0.1417 -0.0636
H5 H 1.0037 0.0167 -0.0343
C6 C 0.8629(4) -0.1114(4) 0.0538(3)
H6 H 0.8639 -0.2084 0.0780
H7 H 0.7870 -0.1007 -0.0033
C7 C 0.8194(5) 0.1291(4) 0.1168(3)
C8 C 0.6770(4) 0.1804(4) 0.0692(3)
H8 H 0.6678 0.1491 -0.0099
H9 H 0.6776 0.2818 0.0688
C9 C 0.5460(4) 0.1303(5) 0.1371(4)
H10 H 0.5445 0.1758 0.2118
H11 H 0.4581 0.1558 0.0964
C10 C 0.5502(4) -0.0245(4) 0.1533(4)
H12 H 0.5474 -0.0703 0.0789
H13 H 0.4660 -0.0541 0.1970
C11 C 0.6866(4) -0.0663(4) 0.2166(3)
H14 H 0.6881 -0.1671 0.2243
H15 H 0.6835 -0.0269 0.2936
O1 O 0.9304(3) 0.0507(3) 0.3423(2)
H16 H 1.0054 0.0933 0.3565
O2 O 1.1873(3) 0.0605(3) 0.2477(3)
O3 O 0.9234(3) 0.2028(3) 0.1164(2)
loop_
_geom_bond_atom_site_label_1
_geom_bond_atom_site_label_2
_geom_bond_site_symmetry_1
_geom_bond_site_symmetry_2
C1 C2 1_555 1_555
C2 H1 1_555 1_555
C3 C2 1_555 1_555
C4 C3 1_555 1_555
H2 C4 1_555 1_555
H3 C4 1_555 1_555
C5 C4 1_555 1_555
H4 C5 1_555 1_555
H5 C5 1_555 1_555
C6 C1 1_555 1_555
H6 C6 1_555 1_555
H7 C6 1_555 1_555
C7 C1 1_555 1_555
C8 C7 1_555 1_555
H8 C8 1_555 1_555
H9 C8 1_555 1_555
C9 C8 1_555 1_555
H10 C9 1_555 1_555
H11 C9 1_555 1_555
C10 C9 1_555 1_555
H12 C10 1_555 1_555
H13 C10 1_555 1_555
C11 C1 1_555 1_555
H14 C11 1_555 1_555
H15 C11 1_555 1_555
O1 C2 1_555 1_555
H16 O1 1_555 1_555
O2 C3 1_555 1_555
O3 C7 1_555 1_555
C5 C6 1_555 1_555
C10 C11 1_555 1_555

#END
