
#######################################################################
#
#                 Cambridge Crystallographic Data Centre
#                                CCDC 
#
#######################################################################
#
# If this CIF has been generated from an entry in the Cambridge 
# Structural Database, then it will include bibliographic, chemical, 
# crystal, experimental, refinement or atomic coordinate data resulting 
# from the CCDC's data processing and validation procedures.
#
#######################################################################

data_EZEYAJ
_chemical_formula_moiety         'C42 H70 O35,C10 H8 N2,9(H2 O1)'
_chemical_name_systematic        
"\b-D-Cyclodextrin 2,2'-bipyridine clathrate nonahydrate"
_symmetry_cell_setting           monoclinic
_symmetry_space_group_name_H-M   'C 2'
_symmetry_Int_Tables_number      5
_space_group_name_Hall           'C 2y'
loop_
_symmetry_equiv_pos_site_id
_symmetry_equiv_pos_as_xyz
1 x,y,z
2 -x,y,-z
3 1/2+x,1/2+y,z
4 1/2-x,1/2+y,-z
_cell_length_a                   19.427(6)
_cell_length_b                   24.100(8)
_cell_length_c                   33.457(11)
_cell_angle_alpha                90
_cell_angle_beta                 103.783(6)
_cell_angle_gamma                90
_cell_volume                     15213.2
_exptl_crystal_colour            colorless
_exptl_crystal_description       block
_cell_formula_units_Z            8
loop_
_atom_site_label
_atom_site_type_symbol
_atom_site_fract_x
_atom_site_fract_y
_atom_site_fract_z
O1 O -0.0490(3) -0.0801(3) 0.1206(2)
O2 O -0.0756(4) -0.1561(4) 0.0581(3)
H1 H -0.0840 -0.1871 0.0480
O3 O 0.0583(5) -0.1493(5) 0.0371(3)
H2 H 0.0930 -0.1341 0.0321
O4 O 0.1889(8) -0.1592(8) 0.1912(5)
H3 H 0.2101 -0.1632 0.2154
O5 O 0.0423(4) -0.1338(4) 0.1595(2)
O6 O 0.1654(4) -0.0943(3) 0.0972(2)
O7 O 0.1924(4) -0.1305(3) 0.0235(2)
H4 H 0.1553 -0.1325 0.0310
O8 O 0.2752(4) -0.0363(4) 0.0123(2)
H5 H 0.2989 -0.0078 0.0146
O9 O 0.4256(5) -0.0534(4) 0.1593(3)
H6 H 0.4290 -0.0835 0.1709
O10 O 0.2870(4) -0.0997(3) 0.1290(2)
O11 O 0.3131(3) 0.0354(3) 0.0814(2)
O12 O 0.3488(4) 0.0641(3) 0.0092(2)
H7 H 0.3477 0.0829 -0.0114
O13 O 0.3064(4) 0.1787(3) 0.0094(2)
H8 H 0.3452 0.1915 0.0088
O14 O 0.4385(6) 0.1979(5) 0.1596(4)
H9 H 0.4390 0.2287 0.1701
O15 O 0.3983(4) 0.0968(3) 0.1188(2)
O16 O 0.2801(3) 0.2153(3) 0.08511(19)
O17 O 0.2543(4) 0.2851(3) 0.0156(2)
H10 H 0.2179 0.2695 0.0032
O18 O 0.1258(4) 0.3273(3) 0.0277(2)
H11 H 0.0860 0.3279 0.0322
O19 O 0.2432(4) 0.3727(4) 0.1776(2)
H12 H 0.2830 0.3767 0.1738
O20 O 0.2927(4) 0.2926(3) 0.12820(19)
O21 O 0.0975(3) 0.3050(3) 0.1071(2)
O22 O -0.0013(4) 0.3610(4) 0.0450(2)
H13 H 0.0361 0.3777 0.0472
O23 O -0.1216(3) 0.3026(4) 0.0558(2)
H14 H -0.1153 0.3018 0.0324
O24 O -0.0536(9) 0.3455(6) 0.2068(4)
H15 H -0.0797 0.3382 0.2221
O25 O 0.0419(4) 0.3389(3) 0.1565(2)
O26 O -0.1029(4) 0.2381(3) 0.1281(2)
O27 O -0.2365(4) 0.2442(3) 0.0722(2)
H16 H -0.2005 0.2610 0.0707
O28 O -0.2644(5) 0.1280(3) 0.0716(3)
H17 H -0.2592 0.0942 0.0721
O29 O -0.1968(7) 0.1196(5) 0.2280(3)
H18 H -0.2295 0.1232 0.2076
O30 O -0.1577(4) 0.2065(3) 0.1788(2)
O31 O -0.1705(4) 0.0656(3) 0.1346(2)
O32 O -0.2717(4) 0.0133(3) 0.0723(2)
H19 H -0.2511 0.0176 0.0538
O33 O -0.1765(4) -0.0720(3) 0.0600(2)
H20 H -0.2015 -0.0560 0.0402
O34 O -0.1110(4) -0.1166(4) 0.2100(2)
H21 H -0.1110 -0.1233 0.2341
O35 O -0.1675(4) -0.0117(3) 0.1773(2)
C1 C -0.0206(5) -0.1331(5) 0.1289(3)
H22 H -0.0554 -0.1559 0.1382
C2 C -0.0102(6) -0.1575(5) 0.0894(4)
H23 H 0.0053 -0.1961 0.0943
C3 C 0.0448(6) -0.1260(6) 0.0759(3)
H24 H 0.0289 -0.0875 0.0709
C4 C 0.1148(6) -0.1266(5) 0.1095(4)
H25 H 0.1321 -0.1648 0.1142
C5 C 0.0961(5) -0.1040(5) 0.1490(3)
H26 H 0.0794 -0.0658 0.1434
C6 C 0.1581(10) -0.1028(9) 0.1852(5)
H27 H 0.1932 -0.0767 0.1804
H28 H 0.1431 -0.0912 0.2096
C7 C 0.2318(5) -0.1201(5) 0.0981(3)
H29 H 0.2277 -0.1604 0.1010
C8 C 0.2466(5) -0.1065(4) 0.0558(3)
H30 H 0.2914 -0.1246 0.0550
C9 C 0.2557(5) -0.0474(5) 0.0500(3)
H31 H 0.2111 -0.0283 0.0497
C10 C 0.3135(5) -0.0249(4) 0.0852(3)
H32 H 0.3597 -0.0396 0.0834
C11 C 0.2984(6) -0.0403(5) 0.1272(3)
H33 H 0.2563 -0.0204 0.1308
C12 C 0.3626(7) -0.0263(6) 0.1633(3)
H34 H 0.3703 0.0135 0.1642
H35 H 0.3520 -0.0374 0.1890
C13 C 0.3755(5) 0.0626(5) 0.0823(3)
H36 H 0.4123 0.0348 0.0822
C14 C 0.3667(5) 0.0978(5) 0.0441(3)
H37 H 0.4124 0.1152 0.0445
C15 C 0.3136(5) 0.1433(5) 0.0446(3)
H38 H 0.2675 0.1263 0.0438
C16 C 0.3355(4) 0.1772(5) 0.0833(3)
H39 H 0.3792 0.1975 0.0834
C17 C 0.3468(7) 0.1389(5) 0.1214(3)
H40 H 0.3018 0.1209 0.1218
C18 C 0.3750(7) 0.1690(6) 0.1624(4)
H41 H 0.3400 0.1951 0.1674
H42 H 0.3854 0.1425 0.1848
C19 C 0.2978(5) 0.2727(4) 0.0895(3)
H43 H 0.3464 0.2780 0.0865
C20 C 0.2463(5) 0.3030(5) 0.0545(3)
H44 H 0.2579 0.3426 0.0570
C21 C 0.1718(5) 0.2965(5) 0.0589(3)
H45 H 0.1585 0.2572 0.0562
C22 C 0.1657(5) 0.3180(5) 0.1018(3)
H46 H 0.1724 0.3583 0.1032
C23 C 0.2226(6) 0.2902(5) 0.1360(3)
H47 H 0.2098 0.2511 0.1374
C24 C 0.2269(6) 0.3158(5) 0.1774(3)
H48 H 0.1819 0.3110 0.1848
H49 H 0.2630 0.2969 0.1979
C25 C 0.0560(5) 0.3477(5) 0.1172(3)
H50 H 0.0816 0.3829 0.1176
C26 C -0.0132(5) 0.3516(5) 0.0853(3)
H51 H -0.0409 0.3825 0.0924
C27 C -0.0541(5) 0.2984(5) 0.0854(3)
H52 H -0.0270 0.2668 0.0789
C28 C -0.0673(5) 0.2917(4) 0.1278(3)
H53 H -0.0977 0.3218 0.1333
C29 C 0.0014(6) 0.2916(5) 0.1594(3)
H54 H 0.0284 0.2579 0.1569
C30 C -0.0129(7) 0.2951(7) 0.2010(4)
H55 H -0.0393 0.2625 0.2056
H56 H 0.0318 0.2950 0.2215
C31 C -0.1652(6) 0.2373(5) 0.1421(3)
H57 H -0.1786 0.2755 0.1469
C32 C -0.2227(6) 0.2115(5) 0.1100(3)
H58 H -0.2659 0.2111 0.1202
C33 C -0.2049(6) 0.1540(5) 0.1021(3)
H59 H -0.1612 0.1526 0.0924
C34 C -0.1968(5) 0.1211(4) 0.1416(3)
H60 H -0.2419 0.1187 0.1498
C35 C -0.1397(7) 0.1492(6) 0.1753(3)
H61 H -0.0944 0.1473 0.1673
C36 C -0.1309(8) 0.1222(7) 0.2162(4)
H62 H -0.1125 0.0850 0.2151
H63 H -0.0969 0.1430 0.2366
C37 C -0.2084(6) 0.0195(5) 0.1443(3)
H64 H -0.2519 0.0322 0.1514
C38 C -0.2273(6) -0.0157(5) 0.1051(4)
H65 H -0.2532 -0.0485 0.1109
C39 C -0.1607(5) -0.0352(5) 0.0947(3)
H66 H -0.1341 -0.0032 0.0883
C40 C -0.1151(6) -0.0675(5) 0.1306(3)
H67 H -0.1391 -0.1022 0.1345
C41 C -0.1030(6) -0.0319(5) 0.1708(3)
H68 H -0.0723 -0.0004 0.1684
C42 C -0.0680(6) -0.0659(6) 0.2081(3)
H69 H -0.0206 -0.0763 0.2065
H70 H -0.0643 -0.0439 0.2329
O36 O 0.8539(4) 0.2591(3) 0.3791(2)
O37 O 0.8766(3) 0.3348(3) 0.4440(2)
H71 H 0.8424 0.3142 0.4361
O38 O 1.0277(3) 0.3276(3) 0.4643(2)
H72 H 1.0653 0.3106 0.4707
O39 O 1.0380(7) 0.3486(6) 0.3134(4)
H73 H 1.0221 0.3695 0.3284
O40 O 0.9132(4) 0.3180(3) 0.34327(18)
O41 O 1.0875(3) 0.2728(3) 0.40480(18)
O42 O 1.1752(3) 0.3085(3) 0.47926(19)
H74 H 1.1323 0.3032 0.4746
O43 O 1.2641(4) 0.2134(3) 0.4904(2)
H75 H 1.3043 0.2136 0.4866
O44 O 1.2967(4) 0.2272(4) 0.3450(3)
H76 H 1.2935 0.2586 0.3353
O45 O 1.1825(3) 0.2768(3) 0.37345(18)
O46 O 1.2464(4) 0.1425(3) 0.4218(2)
O47 O 1.3414(4) 0.1103(3) 0.4965(2)
H77 H 1.3082 0.1317 0.4957
O48 O 1.2949(4) -0.0016(3) 0.4924(2)
H78 H 1.2598 -0.0142 0.4988
O49 O 1.3132(7) -0.0181(5) 0.3437(3)
H79 H 1.3058 -0.0477 0.3314
O50 O 1.3013(4) 0.0825(3) 0.3852(2)
O51 O 1.2081(3) -0.0372(3) 0.41463(19)
O52 O 1.2386(3) -0.1065(3) 0.4840(2)
H80 H 1.2671 -0.0827 0.4810
O53 O 1.1016(4) -0.1502(3) 0.47201(19)
H81 H 1.0590 -0.1470 0.4705
O54 O 1.0947(5) -0.1937(4) 0.3221(3)
H82 H 1.1257 -0.1988 0.3096
O55 O 1.1837(4) -0.1140(3) 0.37189(19)
O56 O 1.0076(3) -0.1286(3) 0.39294(18)
O57 O 0.9623(3) -0.1851(3) 0.45627(19)
H83 H 1.0038 -0.1827 0.4550
O58 O 0.8339(4) -0.1247(3) 0.4452(2)
H84 H 0.8026 -0.1012 0.4393
O59 O 0.7777(4) -0.1778(4) 0.2936(2)
H85 H 0.7373 -0.1693 0.2946
O60 O 0.9130(3) -0.1698(3) 0.34490(18)
O61 O 0.7931(3) -0.0641(3) 0.37048(19)
O62 O 0.7030(4) -0.0684(3) 0.4241(2)
H86 H 0.6665 -0.0813 0.4286
O63 O 0.6757(4) 0.0493(3) 0.4239(2)
H87 H 0.7009 0.0456 0.4472
O64 O 0.7442(5) 0.0293(3) 0.2551(3)
H88 H 0.7715 0.0528 0.2500
O65 O 0.7010(3) -0.0304(3) 0.3184(2)
O66 O 0.7239(3) 0.1100(3) 0.3635(2)
O67 O 0.6713(4) 0.1629(3) 0.4238(2)
H89 H 0.6284 0.1642 0.4213
O68 O 0.7743(4) 0.2485(3) 0.4385(2)
H90 H 0.7834 0.2298 0.4595
O69 O 0.7691(13) 0.2126(11) 0.2568(6)
H91 H 0.8085 0.2081 0.2524
O70 O 0.6958(4) 0.1865(3) 0.3208(2)
C43 C 0.8745(6) 0.3155(5) 0.3725(3)
H92 H 0.8319 0.3385 0.3638
C44 C 0.9179(5) 0.3363(5) 0.4138(3)
H93 H 0.9303 0.3751 0.4103
C45 C 0.9845(6) 0.3049(5) 0.4266(3)
H94 H 0.9734 0.2662 0.4313
C46 C 1.0264(5) 0.3070(5) 0.3929(3)
H95 H 1.0414 0.3453 0.3900
C47 C 0.9786(6) 0.2880(5) 0.3518(3)
H96 H 0.9677 0.2486 0.3544
C48 C 1.0140(7) 0.2935(7) 0.3176(3)
H97 H 1.0541 0.2684 0.3222
H98 H 0.9812 0.2826 0.2921
C49 C 1.1536(5) 0.2988(5) 0.4051(3)
H99 H 1.1471 0.3390 0.4015
C50 C 1.2018(5) 0.2862(4) 0.4464(3)
H100 H 1.2477 0.3036 0.4474
C51 C 1.2137(5) 0.2243(4) 0.4523(3)
H101 H 1.1688 0.2059 0.4523
C52 C 1.2418(5) 0.2027(4) 0.4177(3)
H102 H 1.2894 0.2178 0.4199
C53 C 1.1958(5) 0.2168(4) 0.3757(3)
H103 H 1.1505 0.1972 0.3718
C54 C 1.2277(6) 0.2044(5) 0.3404(3)
H104 H 1.2303 0.1644 0.3374
H105 H 1.1970 0.2189 0.3154
C55 C 1.3092(6) 0.1142(5) 0.4215(4)
H106 H 1.3467 0.1416 0.4222
C56 C 1.3288(6) 0.0795(5) 0.4604(3)
H107 H 1.3734 0.0607 0.4600
C57 C 1.2731(5) 0.0343(4) 0.4579(3)
H108 H 1.2277 0.0515 0.4588
C58 C 1.2642(5) 0.0016(4) 0.4188(3)
H109 H 1.3082 -0.0184 0.4193
C59 C 1.2475(6) 0.0393(5) 0.3812(3)
H110 H 1.2013 0.0569 0.3792
C60 C 1.2468(8) 0.0104(6) 0.3408(4)
H111 H 1.2081 -0.0160 0.3344
H112 H 1.2397 0.0375 0.3187
C61 C 1.2225(5) -0.0937(4) 0.4102(3)
H113 H 1.2733 -0.0989 0.4126
C62 C 1.1999(5) -0.1256(5) 0.4446(3)
H114 H 1.2101 -0.1651 0.4420
C63 C 1.1202(5) -0.1185(5) 0.4402(2)
H115 H 1.1087 -0.0793 0.4429
C64 C 1.0807(5) -0.1404(4) 0.3988(3)
H116 H 1.0877 -0.1806 0.3976
C65 C 1.1089(5) -0.1114(5) 0.3643(3)
H117 H 1.0950 -0.0722 0.3634
C66 C 1.0794(6) -0.1362(6) 0.3225(3)
H118 H 1.0285 -0.1308 0.3149
H119 H 1.0996 -0.1173 0.3024
C67 C 0.9602(4) -0.1753(4) 0.3856(3)
H120 H 0.9874 -0.2098 0.3872
C68 C 0.9179(5) -0.1756(5) 0.4170(3)
H121 H 0.8845 -0.2067 0.4107
C69 C 0.8756(4) -0.1237(4) 0.4152(3)
H122 H 0.9076 -0.0917 0.4202
C70 C 0.8263(4) -0.1185(4) 0.3731(3)
H123 H 0.7900 -0.1475 0.3693
C71 C 0.8694(4) -0.1235(5) 0.3390(3)
H124 H 0.8987 -0.0902 0.3397
C72 C 0.8203(6) -0.1287(5) 0.2965(3)
H125 H 0.7898 -0.0964 0.2910
H126 H 0.8481 -0.1301 0.2760
C73 C 0.7199(6) -0.0625(5) 0.3552(3)
H127 H 0.7019 -0.1003 0.3495
C74 C 0.6860(5) -0.0362(4) 0.3872(3)
H128 H 0.6344 -0.0368 0.3766
C75 C 0.7092(6) 0.0242(4) 0.3951(3)
H129 H 0.7606 0.0251 0.4064
C76 C 0.6926(5) 0.0546(4) 0.3551(3)
H130 H 0.6411 0.0574 0.3444
C77 C 0.7269(6) 0.0272(4) 0.3232(3)
H131 H 0.7786 0.0274 0.3332
C78 C 0.7066(7) 0.0512(5) 0.2808(3)
H132 H 0.6565 0.0447 0.2693
H133 H 0.7140 0.0910 0.2825
C79 C 0.6810(6) 0.1583(5) 0.3532(3)
H134 H 0.6315 0.1461 0.3448
C80 C 0.6889(5) 0.1929(4) 0.3921(3)
H135 H 0.6572 0.2250 0.3858
C81 C 0.7635(5) 0.2132(5) 0.4037(3)
H136 H 0.7955 0.1813 0.4103
C82 C 0.7805(5) 0.2452(5) 0.3681(3)
H137 H 0.7521 0.2792 0.3631
C83 C 0.7677(6) 0.2109(5) 0.3286(3)
H138 H 0.8025 0.1807 0.3325
C84 C 0.7749(7) 0.2447(6) 0.2926(3)
N1 N 0.2407(9) 0.0646(6) 0.2086(6)
C85 C 0.2005(7) 0.1110(6) 0.1935(3)
C86 C 0.2194(8) 0.1628(6) 0.2110(5)
H139 H 0.1925 0.1939 0.2008
C87 C 0.2785(9) 0.1681(8) 0.2436(4)
H140 H 0.2912 0.2028 0.2554
C88 C 0.3187(7) 0.1217(10) 0.2588(4)
H141 H 0.3583 0.1253 0.2807
C89 C 0.2998(9) 0.0699(9) 0.2413(6)
H142 H 0.3267 0.0388 0.2515
N2 N 0.0924(10) 0.1516(6) 0.1460(6)
C90 C 0.1358(7) 0.1057(6) 0.1579(4)
C91 C 0.1198(11) 0.0556(6) 0.1371(6)
H143 H 0.1489 0.0249 0.1451
C92 C 0.0604(12) 0.0514(8) 0.1045(7)
H144 H 0.0497 0.0179 0.0907
C93 C 0.0170(8) 0.0973(10) 0.0927(5)
H145 H -0.0228 0.0945 0.0709
C94 C 0.0330(10) 0.1474(9) 0.1134(6)
H146 H 0.0039 0.1781 0.1055
N3 N 0.9930(11) 0.1276(6) 0.3910(5)
C95 C 1.0159(6) 0.0776(6) 0.4103(4)
C96 C 0.9982(11) 0.0278(6) 0.3894(5)
H147 H 1.0136 -0.0056 0.4024
C97 C 0.9576(12) 0.0280(8) 0.3491(5)
H148 H 0.9458 -0.0053 0.3351
C98 C 0.9347(8) 0.0780(10) 0.3298(4)
H149 H 0.9075 0.0782 0.3028
C99 C 0.9523(11) 0.1278(8) 0.3507(5)
H150 H 0.9370 0.1612 0.3377
N4 N 1.0806(12) 0.0285(7) 0.4755(5)
C100 C 1.0604(5) 0.0779(7) 0.4545(4)
C101 C 1.0807(10) 0.1284(7) 0.4738(5)
H151 H 1.0671 0.1614 0.4597
C102 C 1.1212(10) 0.1295(10) 0.5140(5)
H152 H 1.1348 0.1633 0.5269
C103 C 1.1415(8) 0.0802(12) 0.5350(4)
H153 H 1.1687 0.0809 0.5620
C104 C 1.1212(12) 0.0297(10) 0.5158(5)
H154 H 1.1348 -0.0034 0.5298
O71 O 0.1657(5) 0.4441(4) 0.2119(3)
O72 O 0.4237(5) 0.1733(5) 0.3573(4)
O73 O 0.6397(5) 0.8519(5) 0.2668(3)
O74 O 0.9588(5) 0.7834(4) 0.2176(3)
O75 O 0.9142(5) 0.7262(4) 0.4901(4)
O76 O 0.9201(7) 0.4482(5) 0.0088(4)
O77 O 0.5508(6) 0.9974(5) 0.1553(4)
O78 O 0.5369(8) 0.1992(7) 0.4243(4)
O79 O 0.9930(8) 0.7235(6) 0.3006(4)
O80 O 0.9386(9) 0.7417(6) 0.0204(5)
O81 O 0.8236(9) 0.3192(8) 0.2244(5)
O82 O 0.9199(8) 0.4357(6) 0.4808(6)
O83 O 0.4351(9) 0.0568(10) 0.3536(6)
O84 O 0.5730(12) 0.9344(8) 0.4437(9)
O85 O 0.6043(8) 0.2768(7) 0.2304(5)
O86 O -0.119(2) 0.1727(13) 0.0127(8)
O87 O 1.0000 0.6232(11) 0.5000
O88 O 0.5841(12) 0.9875(8) 0.0771(5)
O89 O 1.0715(15) 0.1177(18) 0.2749(13)
O90 O 1.2847(15) -0.1017(9) 0.2829(6)
O91 O 0.0000 0.2236(15) 0.0000
O92 O 1.072(2) 0.046(2) 0.2563(18)
O93 O 0.0628(13) -0.0124(14) -0.0034(6)
O94 O 1.0324(15) 0.6331(13) 0.2618(8)
O95 O 0.6463(13) 0.1725(10) 0.2061(10)
O96 O 0.5287(12) 1.0511(11) 0.4419(9)
O97 O 1.0387(17) 0.6040(16) 0.1895(12)
O98 O 0.9406(19) 0.4218(14) 0.2733(11)
O99 O 0.8797(12) 0.7445(10) -0.0505(10)
O100 O 0.874(2) 0.7589(18) 0.2659(11)
O101 O 0.4433(14) 0.0989(14) -0.0379(9)
O102 O -0.1524(17) 0.0720(14) 0.0164(7)
O103? O 0.7220(10) 0.2898(9) 0.2874(4)
H155? H 0.7260 0.3099 0.2683
loop_
_geom_bond_atom_site_label_1
_geom_bond_atom_site_label_2
_geom_bond_site_symmetry_1
_geom_bond_site_symmetry_2
O1 C1 1_555 1_555
O2 H1 1_555 1_555
O3 H2 1_555 1_555
O4 H3 1_555 1_555
O5 C1 1_555 1_555
O6 C4 1_555 1_555
O7 H4 1_555 1_555
O8 H5 1_555 1_555
O9 H6 1_555 1_555
O10 C7 1_555 1_555
O11 C10 1_555 1_555
O12 H7 1_555 1_555
O13 H8 1_555 1_555
O14 H9 1_555 1_555
O15 C13 1_555 1_555
O16 C16 1_555 1_555
O17 H10 1_555 1_555
O18 H11 1_555 1_555
O19 H12 1_555 1_555
O20 C19 1_555 1_555
O21 C22 1_555 1_555
O22 H13 1_555 1_555
O23 H14 1_555 1_555
O24 H15 1_555 1_555
O25 C25 1_555 1_555
O26 C28 1_555 1_555
O27 H16 1_555 1_555
O28 H17 1_555 1_555
O29 H18 1_555 1_555
O30 C31 1_555 1_555
O31 C34 1_555 1_555
O32 H19 1_555 1_555
O33 H20 1_555 1_555
O34 H21 1_555 1_555
O35 C37 1_555 1_555
C1 H22 1_555 1_555
C2 O2 1_555 1_555
H23 C2 1_555 1_555
C3 O3 1_555 1_555
H24 C3 1_555 1_555
C4 C3 1_555 1_555
H25 C4 1_555 1_555
C5 O5 1_555 1_555
H26 C5 1_555 1_555
C6 O4 1_555 1_555
H27 C6 1_555 1_555
H28 C6 1_555 1_555
C7 O6 1_555 1_555
H29 C7 1_555 1_555
C8 O7 1_555 1_555
H30 C8 1_555 1_555
C9 O8 1_555 1_555
H31 C9 1_555 1_555
C10 C9 1_555 1_555
H32 C10 1_555 1_555
C11 O10 1_555 1_555
H33 C11 1_555 1_555
C12 O9 1_555 1_555
H34 C12 1_555 1_555
H35 C12 1_555 1_555
C13 O11 1_555 1_555
H36 C13 1_555 1_555
C14 O12 1_555 1_555
H37 C14 1_555 1_555
C15 O13 1_555 1_555
H38 C15 1_555 1_555
C16 C15 1_555 1_555
H39 C16 1_555 1_555
C17 O15 1_555 1_555
H40 C17 1_555 1_555
C18 O14 1_555 1_555
H41 C18 1_555 1_555
H42 C18 1_555 1_555
C19 O16 1_555 1_555
H43 C19 1_555 1_555
C20 O17 1_555 1_555
H44 C20 1_555 1_555
C21 O18 1_555 1_555
H45 C21 1_555 1_555
C22 C21 1_555 1_555
H46 C22 1_555 1_555
C23 O20 1_555 1_555
H47 C23 1_555 1_555
C24 O19 1_555 1_555
H48 C24 1_555 1_555
H49 C24 1_555 1_555
C25 O21 1_555 1_555
H50 C25 1_555 1_555
C26 O22 1_555 1_555
H51 C26 1_555 1_555
C27 O23 1_555 1_555
H52 C27 1_555 1_555
C28 C27 1_555 1_555
H53 C28 1_555 1_555
C29 O25 1_555 1_555
H54 C29 1_555 1_555
C30 O24 1_555 1_555
H55 C30 1_555 1_555
H56 C30 1_555 1_555
C31 O26 1_555 1_555
H57 C31 1_555 1_555
C32 O27 1_555 1_555
H58 C32 1_555 1_555
C33 O28 1_555 1_555
H59 C33 1_555 1_555
C34 C33 1_555 1_555
H60 C34 1_555 1_555
C35 O30 1_555 1_555
H61 C35 1_555 1_555
C36 O29 1_555 1_555
H62 C36 1_555 1_555
H63 C36 1_555 1_555
C37 O31 1_555 1_555
H64 C37 1_555 1_555
C38 O32 1_555 1_555
H65 C38 1_555 1_555
C39 O33 1_555 1_555
H66 C39 1_555 1_555
C40 O1 1_555 1_555
H67 C40 1_555 1_555
C41 O35 1_555 1_555
H68 C41 1_555 1_555
C42 O34 1_555 1_555
H69 C42 1_555 1_555
H70 C42 1_555 1_555
O36 C43 1_555 1_555
O37 H71 1_555 1_555
O38 H72 1_555 1_555
O39 H73 1_555 1_555
O40 C43 1_555 1_555
O41 C46 1_555 1_555
O42 H74 1_555 1_555
O43 H75 1_555 1_555
O44 H76 1_555 1_555
O45 C49 1_555 1_555
O46 C52 1_555 1_555
O47 H77 1_555 1_555
O48 H78 1_555 1_555
O49 H79 1_555 1_555
O50 C55 1_555 1_555
O51 C58 1_555 1_555
O52 H80 1_555 1_555
O53 H81 1_555 1_555
O54 H82 1_555 1_555
O55 C61 1_555 1_555
O56 C64 1_555 1_555
O57 H83 1_555 1_555
O58 H84 1_555 1_555
O59 H85 1_555 1_555
O60 C67 1_555 1_555
O61 C70 1_555 1_555
O62 H86 1_555 1_555
O63 H87 1_555 1_555
O64 H88 1_555 1_555
O65 C73 1_555 1_555
O66 C76 1_555 1_555
O67 H89 1_555 1_555
O68 H90 1_555 1_555
O69 H91 1_555 1_555
O70 C79 1_555 1_555
C43 H92 1_555 1_555
C44 O37 1_555 1_555
H93 C44 1_555 1_555
C45 O38 1_555 1_555
H94 C45 1_555 1_555
C46 C45 1_555 1_555
H95 C46 1_555 1_555
C47 O40 1_555 1_555
H96 C47 1_555 1_555
C48 O39 1_555 1_555
H97 C48 1_555 1_555
H98 C48 1_555 1_555
C49 O41 1_555 1_555
H99 C49 1_555 1_555
C50 O42 1_555 1_555
H100 C50 1_555 1_555
C51 O43 1_555 1_555
H101 C51 1_555 1_555
C52 C51 1_555 1_555
H102 C52 1_555 1_555
C53 O45 1_555 1_555
H103 C53 1_555 1_555
C54 O44 1_555 1_555
H104 C54 1_555 1_555
H105 C54 1_555 1_555
C55 O46 1_555 1_555
H106 C55 1_555 1_555
C56 O47 1_555 1_555
H107 C56 1_555 1_555
C57 O48 1_555 1_555
H108 C57 1_555 1_555
C58 C57 1_555 1_555
H109 C58 1_555 1_555
C59 O50 1_555 1_555
H110 C59 1_555 1_555
C60 O49 1_555 1_555
H111 C60 1_555 1_555
H112 C60 1_555 1_555
C61 O51 1_555 1_555
H113 C61 1_555 1_555
C62 O52 1_555 1_555
H114 C62 1_555 1_555
C63 O53 1_555 1_555
H115 C63 1_555 1_555
C64 C63 1_555 1_555
H116 C64 1_555 1_555
C65 O55 1_555 1_555
H117 C65 1_555 1_555
C66 O54 1_555 1_555
H118 C66 1_555 1_555
H119 C66 1_555 1_555
C67 O56 1_555 1_555
H120 C67 1_555 1_555
C68 O57 1_555 1_555
H121 C68 1_555 1_555
C69 O58 1_555 1_555
H122 C69 1_555 1_555
C70 C69 1_555 1_555
H123 C70 1_555 1_555
C71 O60 1_555 1_555
H124 C71 1_555 1_555
C72 O59 1_555 1_555
H125 C72 1_555 1_555
H126 C72 1_555 1_555
C73 O61 1_555 1_555
H127 C73 1_555 1_555
C74 O62 1_555 1_555
H128 C74 1_555 1_555
C75 O63 1_555 1_555
H129 C75 1_555 1_555
C76 C75 1_555 1_555
H130 C76 1_555 1_555
C77 O65 1_555 1_555
H131 C77 1_555 1_555
C78 O64 1_555 1_555
H132 C78 1_555 1_555
H133 C78 1_555 1_555
C79 O66 1_555 1_555
H134 C79 1_555 1_555
C80 O67 1_555 1_555
H135 C80 1_555 1_555
C81 O68 1_555 1_555
H136 C81 1_555 1_555
C82 O36 1_555 1_555
H137 C82 1_555 1_555
C83 O70 1_555 1_555
H138 C83 1_555 1_555
C84 O69 1_555 1_555
N1 C85 1_555 1_555
C85 C86 1_555 1_555
C86 H139 1_555 1_555
C87 C86 1_555 1_555
H140 C87 1_555 1_555
C88 C87 1_555 1_555
H141 C88 1_555 1_555
C89 N1 1_555 1_555
H142 C89 1_555 1_555
N2 C90 1_555 1_555
C90 C85 1_555 1_555
C91 C90 1_555 1_555
H143 C91 1_555 1_555
C92 C91 1_555 1_555
H144 C92 1_555 1_555
C93 C92 1_555 1_555
H145 C93 1_555 1_555
C94 N2 1_555 1_555
H146 C94 1_555 1_555
N3 C95 1_555 1_555
C95 C96 1_555 1_555
C96 H147 1_555 1_555
C97 C96 1_555 1_555
H148 C97 1_555 1_555
C98 C97 1_555 1_555
H149 C98 1_555 1_555
C99 N3 1_555 1_555
H150 C99 1_555 1_555
N4 C100 1_555 1_555
C100 C95 1_555 1_555
C101 C100 1_555 1_555
H151 C101 1_555 1_555
C102 C101 1_555 1_555
H152 C102 1_555 1_555
C103 C102 1_555 1_555
H153 C103 1_555 1_555
C104 N4 1_555 1_555
H154 C104 1_555 1_555
C1 C2 1_555 1_555
C2 C3 1_555 1_555
C4 C5 1_555 1_555
C5 C6 1_555 1_555
C7 C8 1_555 1_555
C8 C9 1_555 1_555
C10 C11 1_555 1_555
C11 C12 1_555 1_555
C13 C14 1_555 1_555
C14 C15 1_555 1_555
C16 C17 1_555 1_555
C17 C18 1_555 1_555
C19 C20 1_555 1_555
C20 C21 1_555 1_555
C22 C23 1_555 1_555
C23 C24 1_555 1_555
C25 C26 1_555 1_555
C26 C27 1_555 1_555
C28 C29 1_555 1_555
C29 C30 1_555 1_555
C31 C32 1_555 1_555
C32 C33 1_555 1_555
C34 C35 1_555 1_555
C35 C36 1_555 1_555
C37 C38 1_555 1_555
C38 C39 1_555 1_555
C39 C40 1_555 1_555
C40 C41 1_555 1_555
C41 C42 1_555 1_555
C43 C44 1_555 1_555
C44 C45 1_555 1_555
C46 C47 1_555 1_555
C47 C48 1_555 1_555
C49 C50 1_555 1_555
C50 C51 1_555 1_555
C52 C53 1_555 1_555
C53 C54 1_555 1_555
C55 C56 1_555 1_555
C56 C57 1_555 1_555
C58 C59 1_555 1_555
C59 C60 1_555 1_555
C61 C62 1_555 1_555
C62 C63 1_555 1_555
C64 C65 1_555 1_555
C65 C66 1_555 1_555
C67 C68 1_555 1_555
C68 C69 1_555 1_555
C70 C71 1_555 1_555
C71 C72 1_555 1_555
C73 C74 1_555 1_555
C74 C75 1_555 1_555
C76 C77 1_555 1_555
C77 C78 1_555 1_555
C79 C80 1_555 1_555
C80 C81 1_555 1_555
C81 C82 1_555 1_555
C82 C83 1_555 1_555
C83 C84 1_555 1_555
C88 C89 1_555 1_555
C93 C94 1_555 1_555
C98 C99 1_555 1_555
C103 C104 1_555 1_555

#END
