
#######################################################################
#
#                 Cambridge Crystallographic Data Centre
#                                CCDC 
#
#######################################################################
#
# If this CIF has been generated from an entry in the Cambridge 
# Structural Database, then it will include bibliographic, chemical, 
# crystal, experimental, refinement or atomic coordinate data resulting 
# from the CCDC's data processing and validation procedures.
#
#######################################################################

data_EZIGEB
_chemical_formula_moiety         'C14 H26 Cl3 N1 O5 Si2'
_chemical_name_systematic        
N-(2,3-bis((trimethylsilyl)oxy)-6,8-dioxabicyclo[3.2.1]octan-4-yl)-2,2,2-trichloroacetamide
_symmetry_cell_setting           orthorhombic
_symmetry_space_group_name_H-M   'P 21 21 21'
_symmetry_Int_Tables_number      19
_space_group_name_Hall           'P 2ac 2ab'
loop_
_symmetry_equiv_pos_site_id
_symmetry_equiv_pos_as_xyz
1 x,y,z
2 1/2-x,-y,1/2+z
3 -x,1/2+y,1/2-z
4 1/2+x,1/2-y,-z
_cell_length_a                   9.4564(2)
_cell_length_b                   11.1358(2)
_cell_length_c                   20.3440(5)
_cell_angle_alpha                90
_cell_angle_beta                 90
_cell_angle_gamma                90
_cell_volume                     2142.32
_exptl_crystal_colour            colorless
_exptl_crystal_description       prism
_cell_formula_units_Z            4
loop_
_atom_site_label
_atom_site_type_symbol
_atom_site_fract_x
_atom_site_fract_y
_atom_site_fract_z
Cl1 Cl 0.12527(6) 0.40818(6) -0.05306(3)
Cl2 Cl -0.07105(8) 0.21389(5) -0.04002(3)
Cl3 Cl -0.14776(8) 0.44708(7) 0.00756(3)
Si1 Si 0.34307(6) 0.01222(5) 0.23448(3)
Si2 Si -0.08422(6) -0.15070(5) 0.05866(3)
O1 O -0.18617(15) 0.16029(13) 0.18074(7)
O2 O 0.16886(14) 0.03158(13) 0.22978(7)
O3 O -0.08661(16) -0.02203(13) 0.10107(6)
O4 O -0.05226(16) 0.19422(13) 0.27103(7)
O5 O 0.12413(17) 0.40562(14) 0.09332(7)
N1 N 0.03054(19) 0.21802(16) 0.09453(8)
C1 C -0.0691(2) 0.2263(2) 0.20397(9)
H1 H -0.0880 0.3144 0.2000
C2 C 0.0621(2) 0.19209(18) 0.16374(9)
H2 H 0.1451 0.2408 0.1785
C3 C 0.0963(2) 0.05670(18) 0.17011(9)
H3 H 0.1572 0.0320 0.1323
C4 C -0.0407(2) -0.01648(19) 0.16841(9)
H4 H -0.0230 -0.0993 0.1855
C5 C -0.1583(2) 0.04354(19) 0.20831(10)
H5 H -0.2458 -0.0069 0.2082
C6 C -0.1158(2) 0.07646(19) 0.27863(10)
H6 H -0.1994 0.0798 0.3079
H7 H -0.0470 0.0181 0.2966
C7 C 0.0580(2) 0.32467(19) 0.06795(9)
C8 C -0.0048(2) 0.3453(2) -0.00216(10)
C9 C 0.4001(2) -0.1014(2) 0.17287(11)
H8 H 0.3779 -0.0725 0.1286
H9 H 0.3501 -0.1771 0.1809
H10 H 0.5022 -0.1146 0.1767
C10 C 0.4318(2) 0.1584(2) 0.21906(11)
H11 H 0.4088 0.1863 0.1747
H12 H 0.5344 0.1484 0.2231
H13 H 0.3991 0.2176 0.2513
C11 C 0.3761(2) -0.0416(2) 0.31930(10)
H14 H 0.3372 -0.1227 0.3244
H15 H 0.3303 0.0126 0.3507
H16 H 0.4781 -0.0433 0.3276
C12 C -0.2293(3) -0.2461(2) 0.09109(11)
H17 H -0.2329 -0.3215 0.0663
H18 H -0.3196 -0.2037 0.0864
H19 H -0.2121 -0.2635 0.1376
C13 C 0.0879(2) -0.2276(2) 0.07022(10)
H20 H 0.0856 -0.3058 0.0482
H21 H 0.1054 -0.2393 0.1173
H22 H 0.1636 -0.1784 0.0513
C14 C -0.1040(2) -0.1059(2) -0.02862(10)
H23 H -0.0240 -0.0551 -0.0415
H24 H -0.1923 -0.0610 -0.0342
H25 H -0.1061 -0.1778 -0.0564
H26 H -0.026(2) 0.167(2) 0.0757(12)
loop_
_geom_bond_atom_site_label_1
_geom_bond_atom_site_label_2
_geom_bond_site_symmetry_1
_geom_bond_site_symmetry_2
Cl1 C8 1_555 1_555
Cl2 C8 1_555 1_555
Cl3 C8 1_555 1_555
Si1 O2 1_555 1_555
Si2 O3 1_555 1_555
O1 C1 1_555 1_555
O2 C3 1_555 1_555
O3 C4 1_555 1_555
O4 C1 1_555 1_555
O5 C7 1_555 1_555
N1 C2 1_555 1_555
C1 H1 1_555 1_555
C2 C1 1_555 1_555
H2 C2 1_555 1_555
C3 C2 1_555 1_555
H3 C3 1_555 1_555
C4 C3 1_555 1_555
H4 C4 1_555 1_555
C5 O1 1_555 1_555
H5 C5 1_555 1_555
C6 O4 1_555 1_555
H6 C6 1_555 1_555
H7 C6 1_555 1_555
C7 N1 1_555 1_555
C8 C7 1_555 1_555
C9 Si1 1_555 1_555
H8 C9 1_555 1_555
H9 C9 1_555 1_555
H10 C9 1_555 1_555
C10 Si1 1_555 1_555
H11 C10 1_555 1_555
H12 C10 1_555 1_555
H13 C10 1_555 1_555
C11 Si1 1_555 1_555
H14 C11 1_555 1_555
H15 C11 1_555 1_555
H16 C11 1_555 1_555
C12 Si2 1_555 1_555
H17 C12 1_555 1_555
H18 C12 1_555 1_555
H19 C12 1_555 1_555
C13 Si2 1_555 1_555
H20 C13 1_555 1_555
H21 C13 1_555 1_555
H22 C13 1_555 1_555
C14 Si2 1_555 1_555
H23 C14 1_555 1_555
H24 C14 1_555 1_555
H25 C14 1_555 1_555
H26 N1 1_555 1_555
C4 C5 1_555 1_555
C5 C6 1_555 1_555

#END
