
#######################################################################
#
#                 Cambridge Crystallographic Data Centre
#                                CCDC 
#
#######################################################################
#
# If this CIF has been generated from an entry in the Cambridge 
# Structural Database, then it will include bibliographic, chemical, 
# crystal, experimental, refinement or atomic coordinate data resulting 
# from the CCDC's data processing and validation procedures.
#
#######################################################################

data_EZIPOT
_chemical_compound_source        'whole plant of Ainsliaea macrocephala'
_chemical_name_common            'Ainsliadimer D methanol solvate monohydrate'
_chemical_formula_moiety         'C30 H32 O8,C1 H4 O1,H2 O1'
_chemical_name_systematic        
"5a'-Hydroxy-1'-(hydroxymethyl)-3,6,8'-tris(methylene)-3a,4,5,5',5a',6,6',6a,7,7',7a',8',9a,9b,10a',10b'-hexadecahydro-2H-spiro[azuleno[4,5-b]furan-9,3'-benzo[1,8]azuleno[4,5-b]furan]-2,2',8,9'(1'H,3H,4'H)-tetrone methanol solvate monohydrate"
_symmetry_cell_setting           orthorhombic
_symmetry_space_group_name_H-M   'P 21 21 21'
_symmetry_Int_Tables_number      19
_space_group_name_Hall           'P 2ac 2ab'
loop_
_symmetry_equiv_pos_site_id
_symmetry_equiv_pos_as_xyz
1 x,y,z
2 1/2-x,-y,1/2+z
3 -x,1/2+y,1/2-z
4 1/2+x,1/2-y,-z
_cell_length_a                   9.254(16)
_cell_length_b                   13.07(2)
_cell_length_c                   25.46(5)
_cell_angle_alpha                90
_cell_angle_beta                 90
_cell_angle_gamma                90
_cell_volume                     3079.38
_exptl_crystal_colour            colorless
_exptl_crystal_description       prism
_cell_formula_units_Z            4
loop_
_atom_site_label
_atom_site_type_symbol
_atom_site_fract_x
_atom_site_fract_y
_atom_site_fract_z
O1 O -0.4430(4) 0.5997(3) 0.21828(16)
O2 O -0.3143(4) 0.3892(3) 0.27172(19)
H1 H -0.3312 0.4079 0.2416
O3 O -0.0655(4) 0.5720(3) 0.37958(14)
O4 O 0.0230(5) 0.5564(4) 0.46242(19)
O5 O 0.0617(3) 0.7865(2) 0.23964(15)
H2 H 0.1380 0.8174 0.2358
O6 O -0.3298(4) 0.8503(3) 0.1821(2)
O7 O -0.0865(4) 0.4796(3) 0.10796(15)
O8 O 0.0118(5) 0.3230(4) 0.0987(2)
C1 C -0.0700(5) 0.6333(3) 0.23134(19)
C2 C -0.1922(5) 0.6450(3) 0.2032(2)
C3 C -0.3159(6) 0.6042(3) 0.2333(2)
C4 C -0.2629(5) 0.5715(3) 0.28811(19)
H3 H -0.2882 0.6258 0.3130
C5 C -0.0963(5) 0.5711(3) 0.2818(2)
H4 H -0.0662 0.5005 0.2749
C6 C -0.0074(5) 0.6109(4) 0.3286(2)
H5 H -0.0121 0.6858 0.3288
C7 C 0.1524(5) 0.5784(4) 0.3290(2)
H6 H 0.1569 0.5064 0.3184
C8 C 0.2512(5) 0.6396(4) 0.2920(2)
H7 H 0.3499 0.6164 0.2967
H8 H 0.2475 0.7111 0.3020
C9 C 0.2117(5) 0.6307(4) 0.2333(2)
H9 H 0.2917 0.6576 0.2130
H10 H 0.2031 0.5586 0.2248
C10 C 0.0729(5) 0.6845(3) 0.2150(2)
C11 C 0.1844(6) 0.5834(4) 0.3873(2)
C12 C 0.0450(7) 0.5690(4) 0.4160(3)
C13 C 0.3078(8) 0.5990(7) 0.4130(3)
H11 H 0.3084 0.6012 0.4495
H12 H 0.3933 0.6078 0.3944
C14 C 0.0720(5) 0.6967(4) 0.1550(2)
H13 H 0.0787 0.6296 0.1390
H14 H 0.1564 0.7355 0.1445
C15 C -0.3351(6) 0.4722(4) 0.3068(2)
H15 H -0.2963 0.4539 0.3409
H16 H -0.4379 0.4842 0.3109
C16 C -0.3779(6) 0.6790(5) 0.0708(3)
H17 H -0.4546 0.6318 0.0600
C17 C -0.4439(7) 0.7563(5) 0.1102(3)
H18 H -0.4715 0.8187 0.0921
H19 H -0.5292 0.7274 0.1266
C18 C -0.3285(6) 0.7789(4) 0.1514(2)
C19 C -0.2076(5) 0.6949(4) 0.1489(2)
C20 C -0.2674(5) 0.6169(4) 0.1072(2)
H20 H -0.3244 0.5661 0.1265
C21 C -0.1581(6) 0.5579(4) 0.0745(2)
H21 H -0.0846 0.6058 0.0617
C22 C -0.2191(6) 0.4974(4) 0.0271(2)
H22 H -0.3214 0.4826 0.0337
C23 C -0.2070(7) 0.5600(5) -0.0246(2)
H23 H -0.1077 0.5823 -0.0288
H24 H -0.2298 0.5154 -0.0539
C24 C -0.3068(7) 0.6549(5) -0.0272(3)
H25 H -0.2777 0.6957 -0.0572
H26 H -0.4045 0.6314 -0.0338
C25 C -0.3099(6) 0.7245(5) 0.0210(3)
C26 C -0.1360(7) 0.3979(5) 0.0284(2)
C27 C -0.0602(8) 0.3928(5) 0.0806(2)
C28 C -0.1293(9) 0.3234(6) -0.0067(3)
H27 H -0.0759 0.2647 0.0005
H28 H -0.1779 0.3297 -0.0385
C29 C -0.2663(7) 0.8216(5) 0.0172(3)
H29 H -0.2338 0.8470 -0.0148
H30 H -0.2683 0.8638 0.0466
C30 C -0.0652(6) 0.7511(4) 0.1345(2)
H31 H -0.0589 0.7570 0.0966
H32 H -0.0683 0.8198 0.1489
C31 C -0.5129(5) 0.3634(4) 0.1442(3)
H33 H -0.5438 0.4319 0.1365
H34 H -0.5689 0.3160 0.1238
H35 H -0.4126 0.3562 0.1354
O9 O -0.5336(5) 0.3423(4) 0.2006(3)
H36 H -0.4745 0.2995 0.2102
O10 O 0.1693(6) 0.3658(4) 0.1986(2)
H37 H 0.246(16) 0.34(2) 0.210(8)
H38 H 0.091(10) 0.371(12) 0.217(5)
loop_
_geom_bond_atom_site_label_1
_geom_bond_atom_site_label_2
_geom_bond_site_symmetry_1
_geom_bond_site_symmetry_2
O1 C3 1_555 1_555
O2 H1 1_555 1_555
O3 C6 1_555 1_555
O4 C12 1_555 1_555
O5 H2 1_555 1_555
O6 C18 1_555 1_555
O7 C21 1_555 1_555
O8 C27 1_555 1_555
C1 C2 1_555 1_555
C2 C3 1_555 1_555
C3 C4 1_555 1_555
C4 H3 1_555 1_555
C5 C1 1_555 1_555
H4 C5 1_555 1_555
C6 C5 1_555 1_555
H5 C6 1_555 1_555
C7 C6 1_555 1_555
H6 C7 1_555 1_555
C8 C7 1_555 1_555
H7 C8 1_555 1_555
H8 C8 1_555 1_555
C9 C8 1_555 1_555
H9 C9 1_555 1_555
H10 C9 1_555 1_555
C10 O5 1_555 1_555
C11 C7 1_555 1_555
C12 O3 1_555 1_555
C13 C11 1_555 1_555
H11 C13 1_555 1_555
H12 C13 1_555 1_555
C14 C10 1_555 1_555
H13 C14 1_555 1_555
H14 C14 1_555 1_555
C15 O2 1_555 1_555
H15 C15 1_555 1_555
H16 C15 1_555 1_555
C16 H17 1_555 1_555
C17 C16 1_555 1_555
H18 C17 1_555 1_555
H19 C17 1_555 1_555
C18 C17 1_555 1_555
C19 C2 1_555 1_555
C20 C16 1_555 1_555
H20 C20 1_555 1_555
C21 C20 1_555 1_555
H21 C21 1_555 1_555
C22 C21 1_555 1_555
H22 C22 1_555 1_555
C23 C22 1_555 1_555
H23 C23 1_555 1_555
H24 C23 1_555 1_555
C24 C23 1_555 1_555
H25 C24 1_555 1_555
H26 C24 1_555 1_555
C25 C16 1_555 1_555
C26 C22 1_555 1_555
C27 O7 1_555 1_555
C28 C26 1_555 1_555
H27 C28 1_555 1_555
H28 C28 1_555 1_555
C29 C25 1_555 1_555
H29 C29 1_555 1_555
H30 C29 1_555 1_555
C30 C14 1_555 1_555
H31 C30 1_555 1_555
H32 C30 1_555 1_555
C31 H33 1_555 1_555
H34 C31 1_555 1_555
H35 C31 1_555 1_555
O9 C31 1_555 1_555
H36 O9 1_555 1_555
O10 H37 1_555 1_555
H38 O10 1_555 1_555
C1 C10 1_555 1_555
C4 C5 1_555 1_555
C4 C15 1_555 1_555
C9 C10 1_555 1_555
C11 C12 1_555 1_555
C18 C19 1_555 1_555
C19 C20 1_555 1_555
C19 C30 1_555 1_555
C24 C25 1_555 1_555
C26 C27 1_555 1_555

#END
