
#######################################################################
#
#                 Cambridge Crystallographic Data Centre
#                                CCDC 
#
#######################################################################
#
# If this CIF has been generated from an entry in the Cambridge 
# Structural Database, then it will include bibliographic, chemical, 
# crystal, experimental, refinement or atomic coordinate data resulting 
# from the CCDC's data processing and validation procedures.
#
#######################################################################

data_EZIRUB
_chemical_compound_source        'flowers of Inula britannica L'
_chemical_name_common            'Inuchenolide C chloroform solvate hydrate'
_chemical_formula_moiety         'C19 H26 O7,0.33(C1 H1 Cl3),0.33(H2 O1)'
_chemical_name_systematic        
'(3aR,4S,4aS,5S,7S,7aS,8R,9aS)-4-Hydroxy-4a,8-dimethyl-3-methylene-2-oxododecahydroazuleno[6,5-b]furan-5,7-diyl diacetate chloroform solvate hydrate'
_symmetry_cell_setting           hexagonal
_symmetry_space_group_name_H-M   'P 63'
_symmetry_Int_Tables_number      173
_space_group_name_Hall           'P 6c'
loop_
_symmetry_equiv_pos_site_id
_symmetry_equiv_pos_as_xyz
1 x,y,z
2 -y,x-y,z
3 -x+y,-x,z
4 -x,-y,1/2+z
5 y,-x+y,1/2+z
6 x-y,x,1/2+z
_cell_length_a                   16.523(2)
_cell_length_b                   16.523(2)
_cell_length_c                   13.607(2)
_cell_angle_alpha                90
_cell_angle_beta                 90
_cell_angle_gamma                120
_cell_volume                     3217.15
_exptl_crystal_colour            colorless
_exptl_crystal_description       block
_cell_formula_units_Z            6
loop_
_atom_site_label
_atom_site_type_symbol
_atom_site_fract_x
_atom_site_fract_y
_atom_site_fract_z
C1 C 0.6542(3) 0.8201(3) 0.7320(3)
H1 H 0.7076 0.8837 0.7369
C2 C 0.6842(3) 0.7516(3) 0.7732(3)
H2 H 0.6547 0.6932 0.7355
C3 C 0.6525(3) 0.7325(4) 0.8812(4)
H3 H 0.6018 0.6689 0.8899
H4 H 0.7039 0.7433 0.9241
C4 C 0.6206(3) 0.8010(3) 0.9012(3)
H5 H 0.6746 0.8616 0.9186
C5 C 0.5776(3) 0.8107(3) 0.8053(3)
C6 C 0.5594(3) 0.8941(3) 0.8120(3)
H6 H 0.4948 0.8701 0.8338
C7 C 0.5738(3) 0.9476(3) 0.7156(3)
H7 H 0.6410 0.9910 0.7088
C8 C 0.5404(4) 0.8919(3) 0.6199(3)
H8 H 0.4832 0.8324 0.6328
C9 C 0.6102(4) 0.8728(3) 0.5714(3)
H9 H 0.6694 0.9309 0.5684
H10 H 0.5900 0.8530 0.5044
C10 C 0.6261(3) 0.7989(3) 0.6215(3)
H11 H 0.5678 0.7388 0.6177
C11 C 0.5253(3) 1.0056(3) 0.7115(4)
C12 C 0.5027(4) 1.0090(3) 0.6071(4)
C13 C 0.5049(4) 1.0466(3) 0.7823(4)
H12 H 0.4747 1.0798 0.7677
H13 H 0.5207 1.0423 0.8469
C14 C 0.7000(4) 0.7908(4) 0.5631(4)
H14 H 0.6835 0.7828 0.4947
H15 H 0.7039 0.7378 0.5860
H16 H 0.7594 0.8465 0.5716
C15 C 0.4833(3) 0.7205(3) 0.7879(3)
H17 H 0.4939 0.6690 0.7784
H18 H 0.4538 0.7279 0.7306
H19 H 0.4436 0.7085 0.8440
C17 C 0.8214(4) 0.7417(5) 0.7871(4)
C18 C 0.9258(4) 0.7937(5) 0.7808(5)
H20 H 0.9449 0.8264 0.7193
H21 H 0.9483 0.7504 0.7853
H22 H 0.9512 0.8378 0.8339
C19 C 0.5804(4) 0.7710(3) 1.0704(4)
C20 C 0.5037(5) 0.7372(5) 1.1424(4)
H23 H 0.5279 0.7401 1.2072
H24 H 0.4576 0.6738 1.1273
H25 H 0.4755 0.7758 1.1396
O1 O 0.4729(3) 1.0551(3) 0.5692(3)
O2 O 0.5183(2) 0.9487(2) 0.5553(2)
O3 O 0.6201(2) 0.9644(2) 0.8793(2)
H26 H 0.5937 0.9563 0.9324
O4 O 0.5506(2) 0.7715(2) 0.9791(2)
O5 O 0.6603(4) 0.7942(4) 1.0884(3)
O6 O 0.7855(2) 0.7966(2) 0.7660(2)
O7 O 0.7751(3) 0.6611(3) 0.8088(3)
C16 C 1.0000 1.0000 0.515(4)
Cl1 Cl 0.95778(14) 0.88444(14) 0.5058(2)
Cl1A Cl 1.11556(14) 1.07334(20) 0.5058(2)
Cl1B Cl 0.92666(20) 1.04222(14) 0.5058(2)
O8 O 0.3333 0.6667 0.5543(5)
loop_
_geom_bond_atom_site_label_1
_geom_bond_atom_site_label_2
_geom_bond_site_symmetry_1
_geom_bond_site_symmetry_2
C1 H1 1_555 1_555
C2 C1 1_555 1_555
H2 C2 1_555 1_555
C3 C2 1_555 1_555
H3 C3 1_555 1_555
H4 C3 1_555 1_555
C4 C3 1_555 1_555
H5 C4 1_555 1_555
C5 C1 1_555 1_555
C6 C5 1_555 1_555
H6 C6 1_555 1_555
C7 C6 1_555 1_555
H7 C7 1_555 1_555
C8 C7 1_555 1_555
H8 C8 1_555 1_555
C9 C8 1_555 1_555
H9 C9 1_555 1_555
H10 C9 1_555 1_555
C10 C1 1_555 1_555
H11 C10 1_555 1_555
C11 C7 1_555 1_555
C12 C11 1_555 1_555
C13 C11 1_555 1_555
H12 C13 1_555 1_555
H13 C13 1_555 1_555
C14 C10 1_555 1_555
H14 C14 1_555 1_555
H15 C14 1_555 1_555
H16 C14 1_555 1_555
C15 C5 1_555 1_555
H17 C15 1_555 1_555
H18 C15 1_555 1_555
H19 C15 1_555 1_555
C16 Cl1 1_555 1_555
C17 C18 1_555 1_555
C18 H20 1_555 1_555
H21 C18 1_555 1_555
H22 C18 1_555 1_555
C19 C20 1_555 1_555
C20 H23 1_555 1_555
H24 C20 1_555 1_555
H25 C20 1_555 1_555
O1 C12 1_555 1_555
O2 C8 1_555 1_555
O3 C6 1_555 1_555
H26 O3 1_555 1_555
O4 C4 1_555 1_555
O5 C19 1_555 1_555
O6 C2 1_555 1_555
O7 C17 1_555 1_555
Cl1A C16 1_555 1_555
Cl1B C16 1_555 1_555
C4 C5 1_555 1_555
C9 C10 1_555 1_555
C12 O2 1_555 1_555
C17 O6 1_555 1_555
C19 O4 1_555 1_555

#END
