
#######################################################################
#
#                 Cambridge Crystallographic Data Centre
#                                CCDC 
#
#######################################################################
#
# If this CIF has been generated from an entry in the Cambridge 
# Structural Database, then it will include bibliographic, chemical, 
# crystal, experimental, refinement or atomic coordinate data resulting 
# from the CCDC's data processing and validation procedures.
#
#######################################################################

data_EZOCON
_chemical_formula_moiety         'C44 H52 N24 O14,20(H2 O1)'
_chemical_name_systematic        
'dihydroxyoctamethylcucurbit[6]uril icosahydrate'
_symmetry_cell_setting           triclinic
_symmetry_space_group_name_H-M   'P -1'
_symmetry_Int_Tables_number      2
_space_group_name_Hall           '-P 1'
loop_
_symmetry_equiv_pos_site_id
_symmetry_equiv_pos_as_xyz
1 x,y,z
2 -x,-y,-z
_cell_length_a                   12.4005(17)
_cell_length_b                   12.7258(18)
_cell_length_c                   34.039(5)
_cell_angle_alpha                83.660(3)
_cell_angle_beta                 83.950(3)
_cell_angle_gamma                82.860(4)
_cell_volume                     5274.38
_exptl_crystal_colour            colorless
_exptl_crystal_description       Block
_cell_formula_units_Z            3
loop_
_atom_site_label
_atom_site_type_symbol
_atom_site_fract_x
_atom_site_fract_y
_atom_site_fract_z
C45 C 0.8495(3) 0.9195(4) 0.00466(11)
C46 C 0.8715(3) 0.7956(4) -0.04218(11)
C47 C 0.8979(4) 0.9030(4) -0.06349(12)
C48 C 0.7457(3) 0.8545(4) -0.09000(11)
C49 C 0.9114(4) 1.0784(4) -0.03442(13)
H49 H 0.9762 1.0826 -0.0534
H50 H 0.9318 1.0916 -0.0085
C50 C 0.8062(4) 1.0194(4) -0.12000(12)
H51 H 0.7657 1.0025 -0.1413
H52 H 0.8796 1.0322 -0.1317
C51 C 0.7644(4) 1.2214(4) -0.02003(12)
C52 C 0.8091(4) 1.1950(4) -0.08850(12)
C53 C 0.7140(4) 1.2921(4) -0.08370(13)
C54 C 0.6476(4) 1.1594(5) -0.11307(13)
C55 C 0.6238(4) 1.3761(5) -0.02082(18)
H53 H 0.6266 1.4444 -0.0370
H54 H 0.6517 1.3827 0.0046
C56 C 0.5211(4) 1.3250(5) -0.10708(15)
H55 H 0.5374 1.3986 -0.1139
H56 H 0.4907 1.3030 -0.1299
C57 C 0.4612(4) 1.3278(4) 0.02297(15)
C58 C 0.4351(4) 1.3877(4) -0.04261(14)
H57 H 0.4386 1.4633 -0.0528
C59 C 0.3233(4) 1.3712(5) -0.01889(15)
C60 C 0.3488(4) 1.2685(5) -0.07327(13)
C61 C 0.2724(4) 1.3251(4) 0.05550(14)
H58 H 0.3088 1.3313 0.0792
H59 H 0.2144 1.3845 0.0532
C62 C 0.8285(4) 0.7343(5) 0.03373(12)
H60 H 0.8776 0.6694 0.0291
H61 H 0.8475 0.7610 0.0577
C63 C 0.9638(4) 0.6980(5) -0.04411(14)
H62 H 0.9826 0.6834 -0.0715
H63 H 0.9375 0.6358 -0.0288
H64 H 1.0280 0.7150 -0.0332
C64 C 1.0131(4) 0.9024(5) -0.08489(14)
H65 H 1.0666 0.8838 -0.0657
H66 H 1.0222 0.9725 -0.0983
H67 H 1.0236 0.8505 -0.1042
C65 C 0.9100(4) 1.2233(5) -0.11286(14)
H68 H 0.8936 1.2451 -0.1400
H69 H 0.9649 1.1620 -0.1124
H70 H 0.9372 1.2813 -0.1021
C66 C 0.7444(5) 1.4037(5) -0.1036(2)
H71 H 0.8063 1.4225 -0.0919
H72 H 0.6825 1.4572 -0.0994
H73 H 0.7629 1.4000 -0.1319
N25 N 0.8445(3) 0.8160(3) -0.00080(9)
N26 N 0.8814(3) 0.9731(3) -0.03148(9)
N27 N 0.7765(3) 0.7745(3) -0.06073(10)
N28 N 0.8151(3) 0.9310(3) -0.09154(10)
N29 N 0.8281(3) 1.1620(3) -0.04664(10)
N30 N 0.6938(3) 1.2950(3) -0.04073(11)
N31 N 0.7521(3) 1.1173(3) -0.10464(10)
N32 N 0.6239(3) 1.2568(4) -0.10050(11)
N33 N 0.5108(3) 1.3538(4) -0.01346(12)
N34 N 0.3515(3) 1.3339(3) 0.02068(11)
N35 N 0.4406(3) 1.3224(4) -0.07413(11)
N36 N 0.2835(3) 1.2914(4) -0.03999(11)
O17 O 0.8349(2) 0.9583(3) 0.03642(8)
O18 O 0.7737(3) 1.2139(3) 0.01573(9)
O19 O 0.5077(3) 1.3075(4) 0.05296(11)
O20 O 0.6707(3) 0.8534(3) -0.11095(8)
O21 O 0.5850(3) 1.1146(3) -0.12937(9)
O22 O 0.3301(3) 1.2158(4) -0.09871(10)
O23 O 0.2458(4) 1.4673(4) -0.01908(12)
C45A C 0.1505(3) 1.0805(4) -0.00466(11)
C46A C 0.1285(3) 1.2044(4) 0.04218(11)
C47A C 0.1021(4) 1.0970(4) 0.06349(12)
C48A C 0.2543(3) 1.1455(4) 0.09000(11)
C49A C 0.0886(4) 0.9216(4) 0.03442(13)
H49A H 0.0238 0.9174 0.0534
H50A H 0.0682 0.9084 0.0085
C50A C 0.1938(4) 0.9806(4) 0.12000(12)
H51A H 0.2343 0.9975 0.1413
H52A H 0.1204 0.9678 0.1317
C51A C 0.2356(4) 0.7786(4) 0.02003(12)
C52A C 0.1909(4) 0.8050(4) 0.08850(12)
C53A C 0.2860(4) 0.7079(4) 0.08370(13)
C54A C 0.3524(4) 0.8406(5) 0.11307(13)
C55A C 0.3762(4) 0.6239(5) 0.02082(18)
H53A H 0.3734 0.5556 0.0370
H54A H 0.3483 0.6173 -0.0046
C56A C 0.4789(4) 0.6750(5) 0.10708(15)
H55A H 0.4626 0.6014 0.1139
H56A H 0.5093 0.6970 0.1299
C57A C 0.5388(4) 0.6722(4) -0.02297(15)
C58A C 0.5649(4) 0.6123(4) 0.04261(14)
H57A H 0.5614 0.5367 0.0528
C59A C 0.6767(4) 0.6288(5) 0.01889(15)
C60A C 0.6512(4) 0.7315(5) 0.07327(13)
C61A C 0.7276(4) 0.6749(4) -0.05550(14)
H58A H 0.6912 0.6687 -0.0792
H59A H 0.7856 0.6155 -0.0532
C62A C 0.1715(4) 1.2657(5) -0.03373(12)
H60A H 0.1224 1.3306 -0.0291
H61A H 0.1525 1.2390 -0.0577
C63A C 0.0362(4) 1.3020(5) 0.04411(14)
H62A H 0.0174 1.3166 0.0715
H63A H 0.0625 1.3642 0.0288
H64A H -0.0280 1.2850 0.0332
C64A C -0.0131(4) 1.0976(5) 0.08489(14)
H65A H -0.0666 1.1162 0.0657
H66A H -0.0222 1.0275 0.0983
H67A H -0.0236 1.1495 0.1042
C65A C 0.0900(4) 0.7767(5) 0.11286(14)
H68A H 0.1064 0.7549 0.1400
H69A H 0.0351 0.8380 0.1124
H70A H 0.0628 0.7187 0.1021
C66A C 0.2556(5) 0.5963(5) 0.1036(2)
H71A H 0.1937 0.5775 0.0919
H72A H 0.3175 0.5428 0.0994
H73A H 0.2371 0.6000 0.1319
N25A N 0.1555(3) 1.1840(3) 0.00080(9)
N26A N 0.1186(3) 1.0269(3) 0.03148(9)
N27A N 0.2235(3) 1.2255(3) 0.06073(10)
N28A N 0.1849(3) 1.0690(3) 0.09154(10)
N29A N 0.1719(3) 0.8380(3) 0.04664(10)
N30A N 0.3062(3) 0.7050(3) 0.04073(11)
N31A N 0.2479(3) 0.8827(3) 0.10464(10)
N32A N 0.3761(3) 0.7432(4) 0.10050(11)
N33A N 0.4892(3) 0.6462(4) 0.01346(12)
N34A N 0.6485(3) 0.6661(3) -0.02068(11)
N35A N 0.5594(3) 0.6776(4) 0.07413(11)
N36A N 0.7165(3) 0.7086(4) 0.03999(11)
O17A O 0.1651(2) 1.0417(3) -0.03642(8)
O18A O 0.2263(3) 0.7861(3) -0.01573(9)
O19A O 0.4923(3) 0.6925(4) -0.05296(11)
O20A O 0.3293(3) 1.1466(3) 0.11095(8)
O21A O 0.4150(3) 0.8854(3) 0.12937(9)
O22A O 0.6699(3) 0.7842(4) 0.09871(10)
O23A O 0.7542(4) 0.5327(4) 0.01908(12)
C1 C 0.7379(3) 0.8103(3) 0.24271(10)
C2 C 0.6183(3) 0.9667(3) 0.25492(11)
C3 C 0.7176(3) 0.9543(3) 0.28244(10)
C4 C 0.5511(3) 0.9518(3) 0.32273(10)
C5 C 0.8792(3) 0.8042(3) 0.28730(10)
H1 H 0.9234 0.8622 0.2887
H2 H 0.9171 0.7586 0.2676
C6 C 0.7135(3) 0.9472(3) 0.35893(11)
H3 H 0.6609 0.9795 0.3790
H4 H 0.7750 0.9899 0.3542
C7 C 0.8880(3) 0.6327(3) 0.32915(11)
C8 C 0.8610(3) 0.7841(3) 0.36488(11)
C9 C 0.8638(3) 0.6789(3) 0.39486(10)
C10 C 0.6953(3) 0.7866(3) 0.40468(11)
C11 C 0.9045(3) 0.4835(3) 0.38106(11)
H5 H 0.9461 0.4489 0.3590
H6 H 0.9510 0.4757 0.4030
C12 C 0.7177(4) 0.6217(3) 0.45032(10)
H7 H 0.7783 0.6033 0.4670
H8 H 0.6576 0.6607 0.4658
C13 C 0.7780(3) 0.3541(3) 0.37262(12)
C14 C 0.7549(3) 0.4289(3) 0.43330(11)
C15 C 0.6752(3) 0.3428(3) 0.43410(12)
C16 C 0.5748(3) 0.5035(3) 0.44861(11)
C17 C 0.6529(4) 0.2138(3) 0.38408(15)
H9 H 0.6576 0.1569 0.4059
H10 H 0.6994 0.1884 0.3612
C18 C 0.4700(4) 0.3469(4) 0.45675(13)
H11 H 0.4889 0.2829 0.4746
H12 H 0.4194 0.3960 0.4720
C19 C 0.5184(3) 0.2340(3) 0.33667(15)
C20 C 0.4454(4) 0.2246(3) 0.40337(15)
C21 C 0.3495(4) 0.2346(3) 0.37510(16)
C22 C 0.3265(4) 0.3814(4) 0.41340(14)
C23 C 0.3579(4) 0.2420(4) 0.29837(15)
H13 H 0.4125 0.2120 0.2785
H14 H 0.2978 0.1976 0.3022
C24 C 0.1816(4) 0.3781(4) 0.36952(14)
H15 H 0.1407 0.3184 0.3671
H16 H 0.1401 0.4214 0.3893
C25 C 0.3788(4) 0.4029(4) 0.25541(14)
C26 C 0.2055(3) 0.4023(4) 0.29167(13)
C27 C 0.2073(3) 0.5077(3) 0.26270(12)
C28 C 0.1754(3) 0.5515(3) 0.32889(12)
C29 C 0.3555(4) 0.5656(4) 0.20966(13)
H17 H 0.2967 0.5812 0.1920
H18 H 0.4176 0.5261 0.1954
C30 C 0.1594(3) 0.7032(3) 0.27858(11)
H19 H 0.1194 0.7369 0.3012
H20 H 0.1112 0.7116 0.2572
C31 C 0.4920(4) 0.6897(3) 0.21050(11)
C32 C 0.3099(3) 0.7605(3) 0.22563(10)
C33 C 0.3859(3) 0.8493(3) 0.22453(10)
C34 C 0.2867(3) 0.8333(3) 0.28726(10)
C35 C 0.5879(3) 0.8529(4) 0.20048(10)
H21 H 0.6368 0.8102 0.1823
H22 H 0.5626 0.9200 0.1855
C36 C 0.4108(3) 0.9732(3) 0.27611(11)
H23 H 0.3661 0.9970 0.2997
H24 H 0.4033 1.0308 0.2546
C37 C 0.6074(3) 1.0711(4) 0.22918(11)
H25 H 0.5890 1.1290 0.2459
H26 H 0.5502 1.0713 0.2118
H27 H 0.6759 1.0801 0.2133
C38 C 0.7905(4) 1.0399(4) 0.27531(13)
H28 H 0.8270 1.0397 0.2487
H29 H 0.8445 1.0278 0.2944
H30 H 0.7476 1.1082 0.2782
C39 C 0.9501(4) 0.8531(3) 0.36739(13)
H31 H 1.0206 0.8141 0.3603
H32 H 0.9476 0.8725 0.3943
H33 H 0.9396 0.9170 0.3492
C40 C 0.9483(4) 0.6694(4) 0.42452(12)
H34 H 0.9320 0.7273 0.4413
H35 H 1.0202 0.6728 0.4104
H36 H 0.9469 0.6020 0.4408
C41 C 0.4626(6) 0.1213(5) 0.43130(19)
H37 H 0.4816 0.0613 0.4157
H38 H 0.3959 0.1116 0.4482
H39 H 0.5212 0.1259 0.4476
C42 C 0.2723(4) 0.1418(4) 0.38377(17)
H40 H 0.3143 0.0745 0.3784
H41 H 0.2130 0.1565 0.3668
H42 H 0.2427 0.1380 0.4114
C43 C 0.1165(4) 0.3322(4) 0.28788(17)
H43 H 0.1272 0.3055 0.2620
H44 H 0.0455 0.3736 0.2909
H45 H 0.1202 0.2727 0.3083
C44 C 0.1226(4) 0.5225(4) 0.23302(12)
H46 H 0.1364 0.4654 0.2158
H47 H 0.1267 0.5903 0.2172
H48 H 0.0505 0.5212 0.2471
N1 N 0.6483(3) 0.8755(3) 0.23179(9)
N2 N 0.7754(3) 0.8488(3) 0.27416(9)
N3 N 0.5247(3) 0.9540(3) 0.28470(8)
N4 N 0.6617(3) 0.9524(2) 0.32229(8)
N5 N 0.8714(3) 0.7425(3) 0.32558(8)
N6 N 0.8795(3) 0.5966(2) 0.36850(8)
N7 N 0.7532(3) 0.8404(2) 0.37487(9)
N8 N 0.7530(3) 0.6906(2) 0.41499(9)
N9 N 0.8097(3) 0.4298(2) 0.39361(9)
N10 N 0.6951(3) 0.3063(3) 0.39569(11)
N11 N 0.6820(3) 0.5248(3) 0.44023(10)
N12 N 0.5710(3) 0.3978(3) 0.44345(9)
N13 N 0.5403(3) 0.2338(3) 0.37389(13)
N14 N 0.4072(3) 0.2368(3) 0.33581(12)
N15 N 0.4156(3) 0.3179(3) 0.42570(11)
N16 N 0.2883(3) 0.3360(3) 0.38372(12)
N17 N 0.3163(3) 0.3487(3) 0.28307(11)
N18 N 0.3189(3) 0.5006(3) 0.24439(10)
N19 N 0.1900(3) 0.4426(3) 0.33139(10)
N20 N 0.1854(3) 0.5909(3) 0.29033(9)
N21 N 0.3884(3) 0.6661(3) 0.21905(10)
N22 N 0.4947(3) 0.7964(3) 0.21471(9)
N23 N 0.2545(3) 0.7584(2) 0.26519(8)
N24 N 0.3697(2) 0.8813(3) 0.26482(9)
O1 O 0.7800(2) 0.7315(3) 0.22687(8)
O2 O 0.9074(2) 0.5793(2) 0.30134(7)
O3 O 0.8211(2) 0.3308(2) 0.33974(8)
O4 O 0.5848(3) 0.2307(3) 0.30614(10)
O5 O 0.4689(2) 0.3750(3) 0.24111(10)
O6 O 0.5709(3) 0.6331(2) 0.19865(8)
O7 O 0.4844(2) 0.9568(2) 0.35241(7)
O8 O 0.6062(2) 0.8214(2) 0.42152(8)
O9 O 0.4978(3) 0.5698(2) 0.45757(8)
O10 O 0.2819(3) 0.4597(3) 0.42837(10)
O11 O 0.1508(2) 0.6043(2) 0.35744(8)
O12 O 0.2454(2) 0.85417(19) 0.31939(7)
O13 O 0.8306(3) 0.4055(3) 0.46157(11)
O14 O 0.2393(3) 0.7719(3) 0.19636(11)
O15? O 0.7027(6) 0.2520(5) 0.4591(2)
O16? O 0.3629(5) 0.9440(5) 0.20036(15)
loop_
_geom_bond_atom_site_label_1
_geom_bond_atom_site_label_2
_geom_bond_site_symmetry_1
_geom_bond_site_symmetry_2
C1 N1 1_555 1_555
C2 C3 1_555 1_555
C3 C38 1_555 1_555
C4 N3 1_555 1_555
C5 H1 1_555 1_555
H2 C5 1_555 1_555
C6 H3 1_555 1_555
H4 C6 1_555 1_555
C7 N5 1_555 1_555
C8 C9 1_555 1_555
C9 C40 1_555 1_555
C10 N7 1_555 1_555
C11 H5 1_555 1_555
H6 C11 1_555 1_555
C12 H7 1_555 1_555
H8 C12 1_555 1_555
C13 N9 1_555 1_555
C14 C15 1_555 1_555
C15 N10 1_555 1_555
C16 N11 1_555 1_555
C17 H9 1_555 1_555
H10 C17 1_555 1_555
C18 H11 1_555 1_555
H12 C18 1_555 1_555
C19 N13 1_555 1_555
C20 C21 1_555 1_555
C21 C42 1_555 1_555
C22 N15 1_555 1_555
C23 H13 1_555 1_555
H14 C23 1_555 1_555
C24 H15 1_555 1_555
H16 C24 1_555 1_555
C25 N17 1_555 1_555
C26 C27 1_555 1_555
C27 C44 1_555 1_555
C28 N19 1_555 1_555
C29 H17 1_555 1_555
H18 C29 1_555 1_555
C30 H19 1_555 1_555
H20 C30 1_555 1_555
C31 N21 1_555 1_555
C32 C33 1_555 1_555
C33 N22 1_555 1_555
C34 N23 1_555 1_555
C35 H21 1_555 1_555
H22 C35 1_555 1_555
C36 H23 1_555 1_555
H24 C36 1_555 1_555
C37 C2 1_555 1_555
H25 C37 1_555 1_555
H26 C37 1_555 1_555
H27 C37 1_555 1_555
C38 H28 1_555 1_555
H29 C38 1_555 1_555
H30 C38 1_555 1_555
C39 C8 1_555 1_555
H31 C39 1_555 1_555
H32 C39 1_555 1_555
H33 C39 1_555 1_555
C40 H34 1_555 1_555
H35 C40 1_555 1_555
H36 C40 1_555 1_555
C41 C20 1_555 1_555
H37 C41 1_555 1_555
H38 C41 1_555 1_555
H39 C41 1_555 1_555
C42 H40 1_555 1_555
H41 C42 1_555 1_555
H42 C42 1_555 1_555
C43 C26 1_555 1_555
H43 C43 1_555 1_555
H44 C43 1_555 1_555
H45 C43 1_555 1_555
C44 H46 1_555 1_555
H47 C44 1_555 1_555
H48 C44 1_555 1_555
N1 C2 1_555 1_555
N2 C1 1_555 1_555
N3 C2 1_555 1_555
N4 C3 1_555 1_555
N5 C5 1_555 1_555
N6 C7 1_555 1_555
N7 C6 1_555 1_555
N8 C9 1_555 1_555
N9 C11 1_555 1_555
N10 C13 1_555 1_555
N11 C12 1_555 1_555
N12 C15 1_555 1_555
N13 C17 1_555 1_555
N14 C19 1_555 1_555
N15 C18 1_555 1_555
N16 C21 1_555 1_555
N17 C23 1_555 1_555
N18 C25 1_555 1_555
N19 C24 1_555 1_555
N20 C27 1_555 1_555
N21 C29 1_555 1_555
N22 C31 1_555 1_555
N23 C30 1_555 1_555
N24 C33 1_555 1_555
O1 C1 1_555 1_555
O2 C7 1_555 1_555
O3 C13 1_555 1_555
O4 C19 1_555 1_555
O5 C25 1_555 1_555
O6 C31 1_555 1_555
O7 C4 1_555 1_555
O8 C10 1_555 1_555
O9 C16 1_555 1_555
O10 C22 1_555 1_555
O11 C28 1_555 1_555
O12 C34 1_555 1_555
O13 C14 1_555 1_555
O14 C32 1_555 1_555
C45 N25 1_555 1_555
C46 C47 1_555 1_555
C47 C64 1_555 1_555
C48 N27 1_555 1_555
C49 H49 1_555 1_555
H50 C49 1_555 1_555
C50 H51 1_555 1_555
H52 C50 1_555 1_555
C51 N29 1_555 1_555
C52 C53 1_555 1_555
C53 C66 1_555 1_555
C54 N31 1_555 1_555
C55 H53 1_555 1_555
H54 C55 1_555 1_555
C56 H55 1_555 1_555
H56 C56 1_555 1_555
C57 N33 1_555 1_555
C58 H57 1_555 1_555
C59 C58 1_555 1_555
C60 N35 1_555 1_555
C61 H58 1_555 1_555
H59 C61 1_555 1_555
C62 H60 1_555 1_555
H61 C62 1_555 1_555
C63 C46 1_555 1_555
H62 C63 1_555 1_555
H63 C63 1_555 1_555
H64 C63 1_555 1_555
C64 H65 1_555 1_555
H66 C64 1_555 1_555
H67 C64 1_555 1_555
C65 C52 1_555 1_555
H68 C65 1_555 1_555
H69 C65 1_555 1_555
H70 C65 1_555 1_555
C66 H71 1_555 1_555
H72 C66 1_555 1_555
H73 C66 1_555 1_555
N25 C46 1_555 1_555
N26 C45 1_555 1_555
N27 C46 1_555 1_555
N28 C47 1_555 1_555
N29 C49 1_555 1_555
N30 C51 1_555 1_555
N31 C50 1_555 1_555
N32 C53 1_555 1_555
N33 C55 1_555 1_555
N34 C57 1_555 1_555
N35 C56 1_555 1_555
N36 C59 1_555 1_555
O17 C45 1_555 1_555
O18 C51 1_555 1_555
O19 C57 1_555 1_555
O20 C48 1_555 1_555
O21 C54 1_555 1_555
O22 C60 1_555 1_555
O23 C59 1_555 1_555
C45A N25A 1_555 1_555
C46A C47A 1_555 1_555
C47A C64A 1_555 1_555
C48A N27A 1_555 1_555
C49A H49A 1_555 1_555
H50A C49A 1_555 1_555
C50A H51A 1_555 1_555
H52A C50A 1_555 1_555
C51A N29A 1_555 1_555
C52A C53A 1_555 1_555
C53A C66A 1_555 1_555
C54A N31A 1_555 1_555
C55A H53A 1_555 1_555
H54A C55A 1_555 1_555
C56A H55A 1_555 1_555
H56A C56A 1_555 1_555
C57A N33A 1_555 1_555
C58A H57A 1_555 1_555
C59A C58A 1_555 1_555
C60A N35A 1_555 1_555
C61A N27 1_555 1_555
H58A C61A 1_555 1_555
H59A C61A 1_555 1_555
C62A N36 1_555 1_555
H60A C62A 1_555 1_555
H61A C62A 1_555 1_555
C63A C46A 1_555 1_555
H62A C63A 1_555 1_555
H63A C63A 1_555 1_555
H64A C63A 1_555 1_555
C64A H65A 1_555 1_555
H66A C64A 1_555 1_555
H67A C64A 1_555 1_555
C65A C52A 1_555 1_555
H68A C65A 1_555 1_555
H69A C65A 1_555 1_555
H70A C65A 1_555 1_555
C66A H71A 1_555 1_555
H72A C66A 1_555 1_555
H73A C66A 1_555 1_555
N25A C46A 1_555 1_555
N26A C45A 1_555 1_555
N27A C61 1_555 1_555
N28A C47A 1_555 1_555
N29A C49A 1_555 1_555
N30A C51A 1_555 1_555
N31A C50A 1_555 1_555
N32A C53A 1_555 1_555
N33A C55A 1_555 1_555
N34A C57A 1_555 1_555
N35A C56A 1_555 1_555
N36A C62 1_555 1_555
O17A C45A 1_555 1_555
O18A C51A 1_555 1_555
O19A C57A 1_555 1_555
O20A C48A 1_555 1_555
O21A C54A 1_555 1_555
O22A C60A 1_555 1_555
O23A C59A 1_555 1_555
C3 N2 1_555 1_555
C4 N4 1_555 1_555
C5 N2 1_555 1_555
C6 N4 1_555 1_555
C8 N5 1_555 1_555
C8 N7 1_555 1_555
C9 N6 1_555 1_555
C10 N8 1_555 1_555
C11 N6 1_555 1_555
C12 N8 1_555 1_555
C14 N9 1_555 1_555
C14 N11 1_555 1_555
C16 N12 1_555 1_555
C17 N10 1_555 1_555
C18 N12 1_555 1_555
C20 N13 1_555 1_555
C20 N15 1_555 1_555
C21 N14 1_555 1_555
C22 N16 1_555 1_555
C23 N14 1_555 1_555
C24 N16 1_555 1_555
C26 N17 1_555 1_555
C26 N19 1_555 1_555
C27 N18 1_555 1_555
C28 N20 1_555 1_555
C29 N18 1_555 1_555
C30 N20 1_555 1_555
C32 N21 1_555 1_555
C32 N23 1_555 1_555
C34 N24 1_555 1_555
C35 N1 1_555 1_555
C35 N22 1_555 1_555
C36 N3 1_555 1_555
C36 N24 1_555 1_555
C47 N26 1_555 1_555
C48 N28 1_555 1_555
C49 N26 1_555 1_555
C50 N28 1_555 1_555
C52 N29 1_555 1_555
C52 N31 1_555 1_555
C53 N30 1_555 1_555
C54 N32 1_555 1_555
C55 N30 1_555 1_555
C56 N32 1_555 1_555
C58 N33 1_555 1_555
C58 N35 1_555 1_555
C59 N34 1_555 1_555
C60 N36 1_555 1_555
C61 N34 1_555 1_555
C62 N25 1_555 1_555
C46A N27A 1_555 1_555
C47A N26A 1_555 1_555
C48A N28A 1_555 1_555
C49A N26A 1_555 1_555
C50A N28A 1_555 1_555
C52A N29A 1_555 1_555
C52A N31A 1_555 1_555
C53A N30A 1_555 1_555
C54A N32A 1_555 1_555
C55A N30A 1_555 1_555
C56A N32A 1_555 1_555
C58A N33A 1_555 1_555
C58A N35A 1_555 1_555
C59A N34A 1_555 1_555
C59A N36A 1_555 1_555
C60A N36A 1_555 1_555
C61A N34A 1_555 1_555
C62A N25A 1_555 1_555

#END
