
#######################################################################
#
#                 Cambridge Crystallographic Data Centre
#                                CCDC 
#
#######################################################################
#
# If this CIF has been generated from an entry in the Cambridge 
# Structural Database, then it will include bibliographic, chemical, 
# crystal, experimental, refinement or atomic coordinate data resulting 
# from the CCDC's data processing and validation procedures.
#
#######################################################################

data_EZOHIL
_chemical_compound_source        
'endophytic fungus Aspergillus terreus IFB-E030'
_chemical_name_common            'Rosellichalasin tetrahydrate'
_chemical_formula_moiety         'C28 H33 N1 O5,4(H2 O1)'
_chemical_name_systematic        
'13-Benzyl-4,6,14,14a-tetramethyl-13,13a,14,14a,15a,15b-hexahydro-3H-oxacyclododecino[2,3-d]oxireno[f]isoindole-5,9,11(4H,8H,12H)-trione tetrahydrate'
_symmetry_cell_setting           orthorhombic
_symmetry_space_group_name_H-M   'P 21 21 21'
_symmetry_Int_Tables_number      19
_space_group_name_Hall           'P 2ac 2ab'
loop_
_symmetry_equiv_pos_site_id
_symmetry_equiv_pos_as_xyz
1 x,y,z
2 1/2-x,-y,1/2+z
3 -x,1/2+y,1/2-z
4 1/2+x,1/2-y,-z
_cell_length_a                   12.660(3)
_cell_length_b                   13.871(3)
_cell_length_c                   17.184(3)
_cell_angle_alpha                90
_cell_angle_beta                 90
_cell_angle_gamma                90
_cell_volume                     3017.63
_cell_formula_units_Z            4
_exptl_crystal_recrystallization_method methanol/water
loop_
_atom_site_label
_atom_site_type_symbol
_atom_site_fract_x
_atom_site_fract_y
_atom_site_fract_z
O1 O -0.0092(4) 0.0624(3) 0.0482(3)
O2 O -0.0671(3) 0.0130(3) -0.2287(2)
O3 O 0.1896(5) 0.3930(4) 0.0774(3)
O4 O 0.1944(3) 0.0406(3) -0.0280(2)
O5 O 0.2861(3) 0.0239(4) -0.1387(3)
N1 N 0.0014(4) -0.0974(4) 0.0207(3)
H9 H -0.0419 -0.1161 0.0561
C1 C 0.2251(16) -0.179(2) 0.0539(15)
C2 C 0.3256(18) -0.159(2) 0.0256(11)
H10 H 0.3456 -0.1805 -0.0234
C3 C 0.3964(13) -0.1062(16) 0.0707(9)
H11 H 0.4636 -0.0928 0.0518
C4 C 0.3666(11) -0.0737(15) 0.1440(8)
H12 H 0.4139 -0.0386 0.1741
C5 C 0.2660(12) -0.0937(15) 0.1722(10)
H13 H 0.2461 -0.0720 0.2213
C6 C 0.1953(11) -0.1463(19) 0.1272(15)
H14 H 0.1281 -0.1597 0.1461
C7 C 0.1311(6) -0.2293(5) 0.0150(4)
H15 H 0.1585 -0.2779 -0.0202
H16 H 0.0913 -0.2626 0.0551
C8 C 0.0554(5) -0.1657(4) -0.0302(3)
H17 H 0.0025 -0.2067 -0.0554
C9 C 0.0226(5) -0.0060(5) 0.0093(4)
C10 C 0.0959(4) 0.0031(4) -0.0617(3)
C11 C 0.1064(5) -0.1013(4) -0.0919(3)
H18 H 0.1816 -0.1176 -0.0956
C12 C 0.0557(5) -0.1125(5) -0.1736(3)
H19 H 0.0983 -0.0731 -0.2090
C13 C 0.0614(6) -0.2163(5) -0.2049(4)
H20 H 0.0386 -0.2173 -0.2582
H21 H 0.0164 -0.2571 -0.1744
H22 H 0.1329 -0.2391 -0.2017
C14 C -0.1499(5) -0.1284(5) -0.1627(4)
H23 H -0.2110 -0.0878 -0.1585
H24 H -0.1430 -0.1666 -0.1163
H25 H -0.1575 -0.1702 -0.2069
C15 C -0.0537(5) -0.0674(5) -0.1726(3)
C16 C -0.0525(5) 0.0338(4) -0.1471(4)
H26 H -0.1148 0.0564 -0.1186
C17 C 0.0525(5) 0.0755(4) -0.1221(3)
H27 H 0.0997 0.0738 -0.1673
C18 C 0.0478(5) 0.1782(4) -0.0941(4)
H28 H -0.0005 0.1933 -0.0552
C19 C 0.1074(5) 0.2473(4) -0.1213(3)
H29 H 0.1568 0.2306 -0.1590
C20 C 0.1037(5) 0.3505(4) -0.0973(4)
H30 H 0.0465 0.3582 -0.0602
H31 H 0.0859 0.3887 -0.1428
C21 C 0.2050(5) 0.3934(4) -0.0608(4)
H32 H 0.2657 0.3771 -0.0936
C22 C 0.1960(6) 0.5026(5) -0.0546(5)
H33 H 0.2623 0.5289 -0.0378
H34 H 0.1420 0.5189 -0.0177
H35 H 0.1781 0.5288 -0.1046
C23 C 0.2208(6) 0.3499(5) 0.0191(4)
C24 C 0.2673(6) 0.2517(5) 0.0293(4)
C25 C 0.3247(5) 0.2132(5) -0.0280(4)
H36 H 0.3434 0.2535 -0.0690
C26 C 0.3616(5) 0.1109(5) -0.0317(4)
H37 H 0.3724 0.0860 0.0204
H38 H 0.4280 0.1072 -0.0596
C27 C 0.2791(5) 0.0525(5) -0.0730(4)
C28 C 0.2417(8) 0.2025(6) 0.1036(4)
H39 H 0.2863 0.1470 0.1096
H40 H 0.1691 0.1827 0.1031
H41 H 0.2533 0.2461 0.1461
O6 O -0.1184(5) -0.1878(4) 0.1415(3)
H1 H -0.1019 -0.2439 0.1572
H2 H -0.1467 -0.1573 0.1789
O7 O -0.0587(7) -0.3705(5) 0.1814(5)
H3 H -0.1009 -0.4166 0.1717
H4 H -0.0176 -0.3878 0.2179
O8 O -0.2127(5) -0.0755(4) 0.2575(3)
H5 H -0.2765 -0.0566 0.2553
H6 H -0.1979 -0.0871 0.3048
O9 O 0.0793(5) -0.4138(5) 0.2981(3)
H7 H 0.0594 -0.4234 0.3447
H8 H 0.1174 -0.4612 0.2840
C29? C 0.2151(15) -0.174(2) 0.0616(15)
C30? C 0.3093(18) -0.171(2) 0.0203(12)
C31? C 0.3953(13) -0.1204(17) 0.0499(9)
C32? C 0.3870(11) -0.0731(15) 0.1210(9)
C33? C 0.2927(12) -0.0762(15) 0.1624(10)
C34? C 0.2068(11) -0.1265(19) 0.1327(14)
H42? H 0.3149 -0.2023 -0.0273
H43? H 0.4584 -0.1183 0.0223
H44? H 0.4445 -0.0394 0.1409
H45? H 0.2871 -0.0446 0.2099
H46? H 0.1437 -0.1286 0.1604
loop_
_geom_bond_atom_site_label_1
_geom_bond_atom_site_label_2
_geom_bond_site_symmetry_1
_geom_bond_site_symmetry_2
O1 C9 1_555 1_555
O2 C15 1_555 1_555
O3 C23 1_555 1_555
O4 C10 1_555 1_555
O5 C27 1_555 1_555
O6 H1 1_555 1_555
H2 O6 1_555 1_555
O7 H3 1_555 1_555
H4 O7 1_555 1_555
O8 H5 1_555 1_555
H6 O8 1_555 1_555
O9 H7 1_555 1_555
H8 O9 1_555 1_555
N1 H9 1_555 1_555
C1 C2 1_555 1_555
C2 H10 1_555 1_555
C3 C2 1_555 1_555
H11 C3 1_555 1_555
C4 C3 1_555 1_555
H12 C4 1_555 1_555
C5 C4 1_555 1_555
H13 C5 1_555 1_555
C6 C1 1_555 1_555
H14 C6 1_555 1_555
C7 C1 1_555 1_555
H15 C7 1_555 1_555
H16 C7 1_555 1_555
C8 N1 1_555 1_555
H17 C8 1_555 1_555
C9 N1 1_555 1_555
C10 C9 1_555 1_555
C11 C8 1_555 1_555
H18 C11 1_555 1_555
C12 C11 1_555 1_555
H19 C12 1_555 1_555
C13 C12 1_555 1_555
H20 C13 1_555 1_555
H21 C13 1_555 1_555
H22 C13 1_555 1_555
C14 H23 1_555 1_555
H24 C14 1_555 1_555
H25 C14 1_555 1_555
C15 C12 1_555 1_555
C16 O2 1_555 1_555
H26 C16 1_555 1_555
C17 C10 1_555 1_555
H27 C17 1_555 1_555
C18 C17 1_555 1_555
H28 C18 1_555 1_555
C19 C18 1_555 1_555
H29 C19 1_555 1_555
C20 C19 1_555 1_555
H30 C20 1_555 1_555
H31 C20 1_555 1_555
C21 C20 1_555 1_555
H32 C21 1_555 1_555
C22 C21 1_555 1_555
H33 C22 1_555 1_555
H34 C22 1_555 1_555
H35 C22 1_555 1_555
C23 C21 1_555 1_555
C24 C23 1_555 1_555
C25 C24 1_555 1_555
H36 C25 1_555 1_555
C26 C25 1_555 1_555
H37 C26 1_555 1_555
H38 C26 1_555 1_555
C27 O4 1_555 1_555
C28 C24 1_555 1_555
H39 C28 1_555 1_555
H40 C28 1_555 1_555
H41 C28 1_555 1_555
C5 C6 1_555 1_555
C7 C8 1_555 1_555
C10 C11 1_555 1_555
C14 C15 1_555 1_555
C15 C16 1_555 1_555
C16 C17 1_555 1_555
C26 C27 1_555 1_555

#END
