
#######################################################################
#
#                 Cambridge Crystallographic Data Centre
#                                CCDC 
#
#######################################################################
#
# If this CIF has been generated from an entry in the Cambridge 
# Structural Database, then it will include bibliographic, chemical, 
# crystal, experimental, refinement or atomic coordinate data resulting 
# from the CCDC's data processing and validation procedures.
#
#######################################################################

data_EZOJAF
_chemical_compound_source        'root barks of Periploca sepium'
_chemical_name_common            'Perisesaccharide A'
_chemical_formula_moiety         'C14 H24 O7'
_chemical_name_systematic        
5-((5-Hydroxy-4-methoxy-6-methyltetrahydro-2H-pyran-2-yl)oxy)-4-methoxy-6-methyltetrahydro-2H-pyran-2-one
_symmetry_cell_setting           monoclinic
_symmetry_space_group_name_H-M   'I 2'
_symmetry_Int_Tables_number      5
_space_group_name_Hall           'I 2y'
loop_
_symmetry_equiv_pos_site_id
_symmetry_equiv_pos_as_xyz
1 x,y,z
2 -x,y,-z
3 1/2+x,1/2+y,1/2+z
4 1/2-x,1/2+y,1/2-z
_cell_length_a                   15.6858(14)
_cell_length_b                   5.1275(2)
_cell_length_c                   19.8021(8)
_cell_angle_alpha                90
_cell_angle_beta                 103.8860(10)
_cell_angle_gamma                90
_cell_volume                     1546.12
_exptl_crystal_colour            colorless
_exptl_crystal_description       bar
_cell_formula_units_Z            4
loop_
_atom_site_label
_atom_site_type_symbol
_atom_site_fract_x
_atom_site_fract_y
_atom_site_fract_z
C1 C 0.32173(11) 0.3667(3) 0.54778(8)
H1 H 0.3073 0.1930 0.5651
O1 O 0.33604(8) 0.3426(2) 0.48116(6)
C2 C 0.40305(11) 0.4777(4) 0.59581(9)
H2 H 0.4189 0.6446 0.5768
H3 H 0.4527 0.3550 0.5994
C3 C 0.38633(11) 0.5233(3) 0.66780(8)
H4 H 0.4377 0.6158 0.6979
O2 O 0.37287(8) 0.2809(2) 0.69920(6)
C4 C 0.30363(12) 0.6838(3) 0.66272(9)
H5 H 0.3152 0.8630 0.6470
O3 O 0.28309(9) 0.7080(2) 0.72882(6)
H6 H 0.2744 0.5573 0.7438
C5 C 0.22601(12) 0.5714(4) 0.60879(8)
H7 H 0.2097 0.3975 0.6247
O4 O 0.25038(8) 0.5433(2) 0.54349(6)
C6 C 0.14703(13) 0.7497(4) 0.59467(11)
H8 H 0.0989 0.6688 0.5602
H9 H 0.1624 0.9168 0.5767
H10 H 0.1285 0.7792 0.6379
C7 C 0.18613(12) 0.0763(4) 0.29355(9)
O5 O 0.13667(9) -0.0283(3) 0.24538(6)
C8 C 0.17200(13) 0.3329(3) 0.32435(9)
H11 H 0.1114 0.3941 0.3042
H12 H 0.2132 0.4634 0.3134
C9 C 0.18705(11) 0.3051(4) 0.40331(9)
H13 H 0.1852 0.4813 0.4246
O6 O 0.12261(9) 0.1422(3) 0.42102(7)
C10 C 0.27571(11) 0.1756(3) 0.43506(8)
H14 H 0.2653 0.0170 0.4614
C11 C 0.32302(12) 0.0937(3) 0.37949(8)
H15 H 0.3437 0.2529 0.3590
O7 O 0.26110(8) -0.0480(2) 0.32504(6)
C12 C 0.39937(13) -0.0860(4) 0.40544(10)
H16 H 0.4266 -0.1291 0.3672
H17 H 0.3787 -0.2463 0.4233
H18 H 0.4426 -0.0001 0.4428
C13 C 0.45001(13) 0.1740(4) 0.74183(10)
H19 H 0.4361 0.0086 0.7615
H20 H 0.4746 0.2960 0.7796
H21 H 0.4930 0.1433 0.7140
C14 C 0.04013(15) 0.2639(7) 0.41312(14)
H22 H -0.0011 0.1417 0.4264
H23 H 0.0177 0.3161 0.3645
H24 H 0.0465 0.4185 0.4430
loop_
_geom_bond_atom_site_label_1
_geom_bond_atom_site_label_2
_geom_bond_site_symmetry_1
_geom_bond_site_symmetry_2
C1 H1 1_555 1_555
O1 C1 1_555 1_555
C2 C1 1_555 1_555
H2 C2 1_555 1_555
H3 C2 1_555 1_555
C3 C2 1_555 1_555
H4 C3 1_555 1_555
O2 C3 1_555 1_555
C4 C3 1_555 1_555
H5 C4 1_555 1_555
O3 C4 1_555 1_555
H6 O3 1_555 1_555
C5 C4 1_555 1_555
H7 C5 1_555 1_555
O4 C1 1_555 1_555
C6 C5 1_555 1_555
H8 C6 1_555 1_555
H9 C6 1_555 1_555
H10 C6 1_555 1_555
C7 O5 1_555 1_555
C8 C7 1_555 1_555
H11 C8 1_555 1_555
H12 C8 1_555 1_555
C9 C8 1_555 1_555
H13 C9 1_555 1_555
O6 C9 1_555 1_555
C10 O1 1_555 1_555
H14 C10 1_555 1_555
C11 C10 1_555 1_555
H15 C11 1_555 1_555
O7 C7 1_555 1_555
C12 C11 1_555 1_555
H16 C12 1_555 1_555
H17 C12 1_555 1_555
H18 C12 1_555 1_555
C13 O2 1_555 1_555
H19 C13 1_555 1_555
H20 C13 1_555 1_555
H21 C13 1_555 1_555
C14 O6 1_555 1_555
H22 C14 1_555 1_555
H23 C14 1_555 1_555
H24 C14 1_555 1_555
C5 O4 1_555 1_555
C9 C10 1_555 1_555
C11 O7 1_555 1_555

#END
