
#######################################################################
#
#                 Cambridge Crystallographic Data Centre
#                                CCDC 
#
#######################################################################
#
# If this CIF has been generated from an entry in the Cambridge 
# Structural Database, then it will include bibliographic, chemical, 
# crystal, experimental, refinement or atomic coordinate data resulting 
# from the CCDC's data processing and validation procedures.
#
#######################################################################

data_EZOKAH
_chemical_formula_moiety         'C28 H26 Br1 N3 O4 S1'
_chemical_name_systematic        
'ethyl 4-(3-bromophenyl)-5-((4-methylphenyl)sulfonyl)-1,4,5,12b-tetrahydro[1,2]diazepino[1,7-c]quinazoline-3-carboxylate'
_symmetry_cell_setting           orthorhombic
_symmetry_space_group_name_H-M   'P 21 21 21'
_symmetry_Int_Tables_number      19
_space_group_name_Hall           'P 2ac 2ab'
loop_
_symmetry_equiv_pos_site_id
_symmetry_equiv_pos_as_xyz
1 x,y,z
2 1/2-x,-y,1/2+z
3 -x,1/2+y,1/2-z
4 1/2+x,1/2-y,-z
_cell_length_a                   11.331(2)
_cell_length_b                   11.352(2)
_cell_length_c                   20.576(4)
_cell_angle_alpha                90
_cell_angle_beta                 90
_cell_angle_gamma                90
_cell_volume                     2646.68
_exptl_crystal_colour            'light yellow'
_exptl_crystal_description       block
_cell_formula_units_Z            4
loop_
_atom_site_label
_atom_site_type_symbol
_atom_site_fract_x
_atom_site_fract_y
_atom_site_fract_z
Br1 Br 0.51827(4) 0.36309(5) 0.08362(2)
S1 S 0.17307(7) 0.41348(8) 0.40644(4)
O1 O 0.2372(2) 0.3763(2) 0.46272(12)
O2 O 0.0626(2) 0.3592(2) 0.39069(13)
O3 O 0.0774(2) 0.1276(2) 0.25621(13)
O4 O 0.2181(2) -0.0072(2) 0.27402(14)
N1 N 0.2573(2) 0.3964(2) 0.34117(13)
N2 N 0.3760(2) 0.4232(2) 0.35123(14)
N3 N 0.5243(3) 0.5645(3) 0.32998(15)
C1 C 0.2225(3) 0.3182(3) 0.28675(17)
H1 H 0.1361 0.3141 0.2878
C2 C 0.4541(3) 0.3319(3) 0.37706(17)
H2 H 0.4171 0.2976 0.4157
C3 C 0.4782(3) 0.2327(3) 0.32805(18)
H3 H 0.5093 0.2677 0.2886
H4 H 0.5390 0.1820 0.3458
C4 C 0.3740(3) 0.1577(3) 0.31026(17)
H5 H 0.3863 0.0768 0.3116
C5 C 0.2663(3) 0.1919(3) 0.29284(16)
C6 C 0.2546(3) 0.3778(3) 0.22284(16)
C7 C 0.1877(3) 0.4742(3) 0.20248(19)
H6 H 0.1241 0.4995 0.2274
C8 C 0.2155(4) 0.5322(3) 0.14532(19)
H7 H 0.1686 0.5944 0.1313
C9 C 0.3122(4) 0.4986(3) 0.10884(19)
H8 H 0.3312 0.5382 0.0707
C10 C 0.3801(4) 0.4055(4) 0.13008(18)
C11 C 0.3517(3) 0.3424(3) 0.18596(17)
H9 H 0.3967 0.2777 0.1985
C12 C 0.1525(3) 0.5665(3) 0.41353(17)
C13 C 0.0579(3) 0.6175(3) 0.38093(17)
H10 H 0.0114 0.5725 0.3532
C14 C 0.0336(4) 0.7355(3) 0.39007(19)
H11 H -0.0309 0.7691 0.3691
C15 C 0.1036(4) 0.8046(3) 0.42990(19)
C16 C 0.2001(4) 0.7521(3) 0.46130(19)
H12 H 0.2484 0.7975 0.4879
C17 C 0.2243(3) 0.6333(3) 0.45312(17)
H13 H 0.2883 0.5990 0.4741
C18 C 0.0772(5) 0.9335(4) 0.4399(2)
H14 H 0.0135 0.9567 0.4120
H15 H 0.1461 0.9792 0.4299
H16 H 0.0552 0.9466 0.4844
C19 C 0.4192(3) 0.5250(3) 0.32413(17)
H17 H 0.3672 0.5694 0.2992
C20 C 0.6003(3) 0.4986(3) 0.37071(17)
C21 C 0.7106(3) 0.5470(4) 0.38671(18)
H18 H 0.7325 0.6198 0.3698
C22 C 0.7863(3) 0.4874(4) 0.4272(2)
H19 H 0.8596 0.5198 0.4371
C23 C 0.7547(3) 0.3791(4) 0.4537(2)
H20 H 0.8063 0.3391 0.4811
C24 C 0.6454(3) 0.3317(3) 0.43868(19)
H21 H 0.6232 0.2600 0.4567
C25 C 0.5686(3) 0.3897(3) 0.39715(16)
C26 C 0.1768(3) 0.1034(3) 0.27257(17)
C27 C 0.1376(3) -0.0989(3) 0.2529(2)
H22 H 0.1070 -0.0812 0.2100
H23 H 0.0718 -0.1055 0.2829
C28 C 0.2070(4) -0.2113(3) 0.2517(3)
H24 H 0.2675 -0.2061 0.2192
H25 H 0.1553 -0.2758 0.2417
H26 H 0.2426 -0.2240 0.2935
loop_
_geom_bond_atom_site_label_1
_geom_bond_atom_site_label_2
_geom_bond_site_symmetry_1
_geom_bond_site_symmetry_2
Br1 C10 1_555 1_555
S1 O1 1_555 1_555
O2 S1 1_555 1_555
O3 C26 1_555 1_555
O4 C26 1_555 1_555
N1 S1 1_555 1_555
N2 N1 1_555 1_555
N3 C19 1_555 1_555
C1 N1 1_555 1_555
H1 C1 1_555 1_555
C2 N2 1_555 1_555
H2 C2 1_555 1_555
C3 C2 1_555 1_555
H3 C3 1_555 1_555
H4 C3 1_555 1_555
C4 C3 1_555 1_555
H5 C4 1_555 1_555
C5 C1 1_555 1_555
C6 C1 1_555 1_555
C7 C6 1_555 1_555
H6 C7 1_555 1_555
C8 C7 1_555 1_555
H7 C8 1_555 1_555
C9 C8 1_555 1_555
H8 C9 1_555 1_555
C10 C9 1_555 1_555
C11 C6 1_555 1_555
H9 C11 1_555 1_555
C12 S1 1_555 1_555
C13 C12 1_555 1_555
H10 C13 1_555 1_555
C14 C13 1_555 1_555
H11 C14 1_555 1_555
C15 C14 1_555 1_555
C16 C15 1_555 1_555
H12 C16 1_555 1_555
C17 C12 1_555 1_555
H13 C17 1_555 1_555
C18 C15 1_555 1_555
H14 C18 1_555 1_555
H15 C18 1_555 1_555
H16 C18 1_555 1_555
C19 N2 1_555 1_555
H17 C19 1_555 1_555
C20 N3 1_555 1_555
C21 C20 1_555 1_555
H18 C21 1_555 1_555
C22 C21 1_555 1_555
H19 C22 1_555 1_555
C23 C22 1_555 1_555
H20 C23 1_555 1_555
C24 C23 1_555 1_555
H21 C24 1_555 1_555
C25 C2 1_555 1_555
C26 C5 1_555 1_555
C27 O4 1_555 1_555
H22 C27 1_555 1_555
H23 C27 1_555 1_555
C28 C27 1_555 1_555
H24 C28 1_555 1_555
H25 C28 1_555 1_555
H26 C28 1_555 1_555
C4 C5 1_555 1_555
C10 C11 1_555 1_555
C16 C17 1_555 1_555
C20 C25 1_555 1_555
C24 C25 1_555 1_555

#END
