
#######################################################################
#
#                 Cambridge Crystallographic Data Centre
#                                CCDC 
#
#######################################################################
#
# If this CIF has been generated from an entry in the Cambridge 
# Structural Database, then it will include bibliographic, chemical, 
# crystal, experimental, refinement or atomic coordinate data resulting 
# from the CCDC's data processing and validation procedures.
#
#######################################################################

data_FABGEX
_chemical_formula_moiety         'C16 H14 O3'
_chemical_name_systematic        '(Z)-3-(2-Methylphenyl)-3-phenoxyacrylic acid'
_symmetry_cell_setting           monoclinic
_symmetry_space_group_name_H-M   'P 21/n'
_symmetry_Int_Tables_number      14
_space_group_name_Hall           '-P 2yn'
loop_
_symmetry_equiv_pos_site_id
_symmetry_equiv_pos_as_xyz
1 x,y,z
2 1/2-x,1/2+y,1/2-z
3 -x,-y,-z
4 1/2+x,1/2-y,1/2+z
_cell_length_a                   9.795(3)
_cell_length_b                   9.398(3)
_cell_length_c                   15.856(4)
_cell_angle_alpha                90
_cell_angle_beta                 107.043(6)
_cell_angle_gamma                90
_cell_volume                     1395.5
_exptl_crystal_colour            colorless
_exptl_crystal_description       prismatic
_cell_formula_units_Z            4
loop_
_atom_site_label
_atom_site_type_symbol
_atom_site_fract_x
_atom_site_fract_y
_atom_site_fract_z
O1 O 0.32453(16) 0.00724(14) 0.01324(10)
O2 O 0.50920(13) 0.15384(13) 0.05187(9)
O3 O 0.43799(13) 0.41933(12) 0.09563(8)
C1 C 0.38391(19) 0.12635(16) 0.04632(10)
C2 C 0.29038(17) 0.22161(17) 0.07549(10)
H1 H 0.2021 0.1850 0.0753
C3 C 0.31705(16) 0.35619(17) 0.10259(9)
C4 C 0.21529(17) 0.44253(18) 0.13387(10)
C5 C 0.1722(2) 0.3896(2) 0.20463(12)
H2 H 0.2085 0.3032 0.2302
C6 C 0.0776(3) 0.4631(3) 0.23656(17)
H3 H 0.0509 0.4285 0.2843
C7 C 0.0233(3) 0.5878(4) 0.1973(2)
H4 H -0.0414 0.6382 0.2187
C8 C 0.0616(2) 0.6407(3) 0.12753(19)
H5 H 0.0216 0.7257 0.1018
C9 C 0.15996(19) 0.56968(19) 0.09360(12)
C10 C 0.1968(3) 0.6282(2) 0.01560(15)
H6 H 0.1204 0.6878 -0.0178
H7 H 0.2108 0.5513 -0.0208
H8 H 0.2829 0.6832 0.0352
C11 C 0.51303(16) 0.51651(17) 0.15928(11)
C12 C 0.53012(19) 0.49867(19) 0.24733(12)
H9 H 0.4857 0.4239 0.2673
C13 C 0.6156(2) 0.5952(3) 0.30650(13)
H10 H 0.6282 0.5855 0.3667
C14 C 0.6815(2) 0.7046(3) 0.27591(17)
H11 H 0.7395 0.7682 0.3155
C15 C 0.66169(19) 0.7198(2) 0.18779(15)
H12 H 0.7052 0.7948 0.1673
C16 C 0.57825(18) 0.6254(2) 0.12903(12)
H13 H 0.5661 0.6355 0.0689
H14 H 0.388(3) -0.044(3) -0.0064(18)
loop_
_geom_bond_atom_site_label_1
_geom_bond_atom_site_label_2
_geom_bond_site_symmetry_1
_geom_bond_site_symmetry_2
O1 C1 1_555 1_555
O2 C1 1_555 1_555
O3 C3 1_555 1_555
C1 C2 1_555 1_555
C2 H1 1_555 1_555
C3 C2 1_555 1_555
C4 C3 1_555 1_555
C5 C4 1_555 1_555
H2 C5 1_555 1_555
C6 C5 1_555 1_555
H3 C6 1_555 1_555
C7 C6 1_555 1_555
H4 C7 1_555 1_555
C8 C7 1_555 1_555
H5 C8 1_555 1_555
C9 C4 1_555 1_555
C10 C9 1_555 1_555
H6 C10 1_555 1_555
H7 C10 1_555 1_555
H8 C10 1_555 1_555
C11 O3 1_555 1_555
C12 C11 1_555 1_555
H9 C12 1_555 1_555
C13 C12 1_555 1_555
H10 C13 1_555 1_555
C14 C13 1_555 1_555
H11 C14 1_555 1_555
C15 C14 1_555 1_555
H12 C15 1_555 1_555
C16 C11 1_555 1_555
H13 C16 1_555 1_555
H14 O1 1_555 1_555
C8 C9 1_555 1_555
C15 C16 1_555 1_555

#END
