
#######################################################################
#
#                 Cambridge Crystallographic Data Centre
#                                CCDC 
#
#######################################################################
#
# If this CIF has been generated from an entry in the Cambridge 
# Structural Database, then it will include bibliographic, chemical, 
# crystal, experimental, refinement or atomic coordinate data resulting 
# from the CCDC's data processing and validation procedures.
#
#######################################################################

data_FABROP10
_chemical_formula_moiety         'C18 H11 N5 O6'
_chemical_name_systematic        9-(2,4,6-Trinitroanilino)-carbazole
_symmetry_cell_setting           monoclinic
_symmetry_space_group_name_H-M   'P 21/c'
_symmetry_Int_Tables_number      14
_space_group_name_Hall           '-P 2ybc'
loop_
_symmetry_equiv_pos_site_id
_symmetry_equiv_pos_as_xyz
1 x,y,z
2 -x,1/2+y,1/2-z
3 -x,-y,-z
4 x,1/2-y,1/2+z
_cell_length_a                   14.686(11)
_cell_length_b                   24.601(12)
_cell_length_c                   10.047(5)
_cell_angle_alpha                90
_cell_angle_beta                 107.76(5)
_cell_angle_gamma                90
_cell_volume                     3456.89
_exptl_crystal_colour            orange
_cell_formula_units_Z            8
loop_
_atom_site_label
_atom_site_type_symbol
_atom_site_fract_x
_atom_site_fract_y
_atom_site_fract_z
C1 C 0.3209(2) 0.3465(1) 0.0608(3)
C2 C 0.2802(2) 0.3158(1) -0.0629(3)
C3 C 0.1935(2) 0.2897(1) -0.0894(3)
C4 C 0.1449(2) 0.2927(1) 0.0058(3)
C5 C 0.1784(2) 0.3232(1) 0.1257(3)
C6 C 0.2628(2) 0.3498(1) 0.1491(3)
N1 N 0.3278(2) 0.3100(1) -0.1693(3)
O1 O 0.4047(2) 0.3331(1) -0.1541(2)
O2 O 0.2903(2) 0.2822(1) -0.2717(2)
N2 N 0.0550(2) 0.2632(1) -0.0172(3)
O3 O 0.0186(2) 0.2430(1) -0.1316(3)
O4 O 0.0216(2) 0.2596(1) 0.0785(3)
N3 N 0.2863(2) 0.3872(1) 0.2707(3)
O5 O 0.2926(2) 0.4353(1) 0.2479(3)
O6 O 0.2907(2) 0.3666(1) 0.3832(3)
N4 N 0.4093(2) 0.3688(1) 0.0909(3)
N5 N 0.4587(2) 0.3876(1) 0.2227(2)
C7 C 0.4895(2) 0.4419(1) 0.2488(3)
C8 C 0.4649(2) 0.4868(1) 0.1636(4)
C9 C 0.5044(2) 0.5356(1) 0.2181(4)
C10 C 0.5653(3) 0.5390(2) 0.3533(4)
C11 C 0.5888(2) 0.4942(1) 0.4384(3)
C12 C 0.5507(2) 0.4440(1) 0.3862(3)
C13 C 0.5579(2) 0.3895(1) 0.4435(3)
C14 C 0.6041(2) 0.3668(2) 0.5735(4)
C15 C 0.5965(3) 0.3123(2) 0.5919(4)
C16 C 0.5457(3) 0.2786(2) 0.4836(4)
C17 C 0.4978(2) 0.3000(1) 0.3533(4)
C18 C 0.5034(2) 0.3551(1) 0.3374(3)
H1 H 0.173(2) 0.268(1) -0.174(3)
H2 H 0.440(2) 0.364(1) 0.035(3)
H3 H 0.142(2) 0.326(1) 0.187(2)
H4 H 0.422(2) 0.483(1) 0.069(3)
H5 H 0.487(2) 0.569(1) 0.154(3)
H6 H 0.588(2) 0.572(1) 0.386(2)
H7 H 0.628(2) 0.497(1) 0.533(3)
H8 H 0.639(2) 0.391(1) 0.642(3)
H9 H 0.628(2) 0.297(1) 0.689(3)
H10 H 0.543(2) 0.239(1) 0.495(3)
H11 H 0.461(2) 0.277(1) 0.285(3)
C19 C -0.1606(2) 0.1476(1) 0.0499(3)
C20 C -0.2121(2) 0.1880(1) -0.0432(3)
C21 C -0.2682(2) 0.1755(1) -0.1780(3)
C22 C -0.2731(2) 0.1234(1) -0.2232(3)
C23 C -0.2268(2) 0.0819(1) -0.1368(3)
C24 C -0.1749(2) 0.0946(1) -0.0029(3)
N6 N -0.2126(2) 0.2447(1) -0.0023(3)
O7 O -0.1764(2) 0.2571(1) 0.1207(2)
O8 O -0.2511(2) 0.2781(1) -0.0907(3)
N7 N -0.3340(2) 0.1098(1) -0.3645(3)
O9 O -0.3883(2) 0.1450(1) -0.4314(2)
O10 O -0.3273(2) 0.0641(1) -0.4070(2)
N8 N -0.1430(2) 0.0468(1) 0.0888(3)
O11 O -0.1792(2) 0.0410(1) 0.1822(3)
O12 O -0.0887(2) 0.0158(1) 0.0570(3)
N9 N -0.1012(2) 0.1607(1) 0.1787(3)
N10 N -0.0368(2) 0.1236(1) 0.2585(3)
C25 C -0.0381(2) 0.1069(1) 0.3895(3)
C26 C -0.1037(3) 0.1172(2) 0.4585(4)
C27 C -0.0846(4) 0.0963(2) 0.5916(5)
C28 C -0.0051(3) 0.0653(2) 0.6545(4)
C29 C 0.0593(3) 0.0551(1) 0.5847(4)
C30 C 0.0454(2) 0.0767(1) 0.4503(3)
C31 C 0.0990(2) 0.0767(1) 0.3539(3)
C32 C 0.1864(3) 0.0542(2) 0.3582(5)
C33 C 0.2204(4) 0.0639(2) 0.2499(6)
C34 C 0.1724(4) 0.0944(2) 0.1362(6)
C35 C 0.0828(3) 0.1176(2) 0.1258(4)
C36 C 0.0489(2) 0.1077(1) 0.2374(3)
H12 H -0.300(2) 0.206(1) -0.235(2)
H13 H -0.093(2) 0.195(1) 0.198(3)
H14 H -0.236(2) 0.043(1) -0.163(3)
H15 H -0.148(2) 0.138(1) 0.417(3)
H16 H -0.124(2) 0.106(1) 0.645(3)
H17 H 0.010(3) 0.048(2) 0.760(4)
H18 H 0.114(2) 0.035(1) 0.615(3)
H19 H 0.215(2) 0.034(1) 0.447(3)
H20 H 0.278(2) 0.051(1) 0.249(3)
H21 H 0.188(3) 0.106(2) 0.062(4)
H22 H 0.042(2) 0.1382(9) 0.050(2)
loop_
_geom_bond_atom_site_label_1
_geom_bond_atom_site_label_2
_geom_bond_site_symmetry_1
_geom_bond_site_symmetry_2
C1 C2 1_555 1_555
C2 C3 1_555 1_555
C3 C4 1_555 1_555
C4 C5 1_555 1_555
C5 C6 1_555 1_555
C6 C1 1_555 1_555
N1 C2 1_555 1_555
O1 N1 1_555 1_555
O2 N1 1_555 1_555
N2 C4 1_555 1_555
O3 N2 1_555 1_555
O4 N2 1_555 1_555
N3 C6 1_555 1_555
O5 N3 1_555 1_555
O6 N3 1_555 1_555
N4 C1 1_555 1_555
N5 N4 1_555 1_555
C7 N5 1_555 1_555
C8 C7 1_555 1_555
C9 C8 1_555 1_555
C10 C9 1_555 1_555
C11 C10 1_555 1_555
C12 C7 1_555 1_555
C13 C12 1_555 1_555
C14 C13 1_555 1_555
C15 C14 1_555 1_555
C16 C15 1_555 1_555
C17 C16 1_555 1_555
C18 N5 1_555 1_555
H1 C3 1_555 1_555
H2 N4 1_555 1_555
H3 C5 1_555 1_555
H4 C8 1_555 1_555
H5 C9 1_555 1_555
H6 C10 1_555 1_555
H7 C11 1_555 1_555
H8 C14 1_555 1_555
H9 C15 1_555 1_555
H10 C16 1_555 1_555
H11 C17 1_555 1_555
C19 C20 1_555 1_555
C20 C21 1_555 1_555
C21 C22 1_555 1_555
C22 C23 1_555 1_555
C23 C24 1_555 1_555
C24 C19 1_555 1_555
N6 C20 1_555 1_555
O7 N6 1_555 1_555
O8 N6 1_555 1_555
N7 C22 1_555 1_555
O9 N7 1_555 1_555
O10 N7 1_555 1_555
N8 C24 1_555 1_555
O11 N8 1_555 1_555
O12 N8 1_555 1_555
N9 C19 1_555 1_555
N10 N9 1_555 1_555
C25 N10 1_555 1_555
C26 C25 1_555 1_555
C27 C26 1_555 1_555
C28 C27 1_555 1_555
C29 C28 1_555 1_555
C30 C25 1_555 1_555
C31 C30 1_555 1_555
C32 C31 1_555 1_555
C33 C32 1_555 1_555
C34 C33 1_555 1_555
C35 C34 1_555 1_555
C36 N10 1_555 1_555
H12 C21 1_555 1_555
H13 N9 1_555 1_555
H14 C23 1_555 1_555
H15 C26 1_555 1_555
H16 C27 1_555 1_555
H17 C28 1_555 1_555
H18 C29 1_555 1_555
H19 C32 1_555 1_555
H20 C33 1_555 1_555
H21 C34 1_555 1_555
H22 C35 1_555 1_555
C11 C12 1_555 1_555
C13 C18 1_555 1_555
C17 C18 1_555 1_555
C29 C30 1_555 1_555
C31 C36 1_555 1_555
C35 C36 1_555 1_555

#END
