
#######################################################################
#
#                 Cambridge Crystallographic Data Centre
#                                CCDC 
#
#######################################################################
#
# If this CIF has been generated from an entry in the Cambridge 
# Structural Database, then it will include bibliographic, chemical, 
# crystal, experimental, refinement or atomic coordinate data resulting 
# from the CCDC's data processing and validation procedures.
#
#######################################################################

data_FACBOC
_chemical_formula_moiety         'C18 H16 N2 S3'
_chemical_name_systematic        
5,6-bis(2,5-dimethyl-3-thienyl)-2,1,3-benzothiadiazole
_symmetry_cell_setting           orthorhombic
_symmetry_space_group_name_H-M   'P 21 21 21'
_symmetry_Int_Tables_number      19
_space_group_name_Hall           'P 2ac 2ab'
loop_
_symmetry_equiv_pos_site_id
_symmetry_equiv_pos_as_xyz
1 x,y,z
2 1/2-x,-y,1/2+z
3 -x,1/2+y,1/2-z
4 1/2+x,1/2-y,-z
_cell_length_a                   6.7369(5)
_cell_length_b                   16.0514(12)
_cell_length_c                   16.1610(12)
_cell_angle_alpha                90
_cell_angle_beta                 90
_cell_angle_gamma                90
_cell_volume                     1747.6
_exptl_crystal_colour            yellow
_exptl_crystal_description       prismatic
_cell_formula_units_Z            4
_exptl_crystal_recrystallization_method methanol/water
loop_
_atom_site_label
_atom_site_type_symbol
_atom_site_fract_x
_atom_site_fract_y
_atom_site_fract_z
S1 S 0.19734(10) 0.21612(4) -0.09808(3)
S2 S 0.18263(11) 0.52674(3) 0.32304(4)
S3 S 0.19326(13) 0.19056(4) 0.43320(3)
N1 N 0.1969(3) 0.30715(12) -0.05622(10)
N2 N 0.2015(3) 0.15615(12) -0.01804(10)
C1 C 0.2009(3) 0.29380(13) 0.02650(11)
C2 C 0.2031(3) 0.20790(12) 0.04799(11)
C3 C 0.2114(3) 0.18436(12) 0.13224(12)
H1 H 0.2118 0.1283 0.1469
C4 C 0.2190(3) 0.24432(11) 0.19187(11)
C5 C 0.2189(3) 0.33200(11) 0.16993(11)
C6 C 0.2095(3) 0.35489(12) 0.08866(12)
H2 H 0.2088 0.4110 0.0744
C7 C 0.2370(3) 0.39736(12) 0.23466(11)
C8 C 0.3893(3) 0.39837(12) 0.29564(12)
H3 H 0.4867 0.3574 0.2989
C9 C 0.3815(4) 0.46319(13) 0.34821(13)
C10 C 0.1123(4) 0.46365(13) 0.24142(13)
C11 C -0.0714(4) 0.48530(16) 0.19409(18)
H4 H -0.0790 0.4515 0.1452
H5 H -0.0673 0.5430 0.1786
H6 H -0.1858 0.4753 0.2281
C12 C 0.5138(4) 0.48311(15) 0.41993(15)
H7 H 0.4641 0.4563 0.4688
H8 H 0.5165 0.5423 0.4284
H9 H 0.6457 0.4636 0.4086
C13 C 0.2403(3) 0.21694(12) 0.27971(11)
C14 C 0.4021(4) 0.16674(13) 0.30567(14)
H10 H 0.5016 0.1491 0.2698
C15 C 0.3994(5) 0.14680(14) 0.38677(15)
C16 C 0.1113(4) 0.23466(13) 0.34185(12)
C17 C -0.0780(4) 0.28250(18) 0.33988(14)
H11 H -0.0538 0.3387 0.3575
H12 H -0.1724 0.2569 0.3764
H13 H -0.1298 0.2827 0.2845
C18 C 0.5433(6) 0.09443(19) 0.43498(18)
H14 H 0.6421 0.0724 0.3982
H15 H 0.4734 0.0494 0.4610
H16 H 0.6062 0.1280 0.4765
loop_
_geom_bond_atom_site_label_1
_geom_bond_atom_site_label_2
_geom_bond_site_symmetry_1
_geom_bond_site_symmetry_2
S1 N1 1_555 1_555
S2 C9 1_555 1_555
S3 C15 1_555 1_555
N1 C1 1_555 1_555
N2 S1 1_555 1_555
C1 C2 1_555 1_555
C2 N2 1_555 1_555
C3 C2 1_555 1_555
H1 C3 1_555 1_555
C4 C3 1_555 1_555
C5 C4 1_555 1_555
C6 C1 1_555 1_555
H2 C6 1_555 1_555
C7 C5 1_555 1_555
C8 C7 1_555 1_555
H3 C8 1_555 1_555
C9 C8 1_555 1_555
C10 S2 1_555 1_555
C11 C10 1_555 1_555
H4 C11 1_555 1_555
H5 C11 1_555 1_555
H6 C11 1_555 1_555
C12 C9 1_555 1_555
H7 C12 1_555 1_555
H8 C12 1_555 1_555
H9 C12 1_555 1_555
C13 C4 1_555 1_555
C14 C13 1_555 1_555
H10 C14 1_555 1_555
C15 C14 1_555 1_555
C16 S3 1_555 1_555
C17 C16 1_555 1_555
H11 C17 1_555 1_555
H12 C17 1_555 1_555
H13 C17 1_555 1_555
C18 C15 1_555 1_555
H14 C18 1_555 1_555
H15 C18 1_555 1_555
H16 C18 1_555 1_555
C5 C6 1_555 1_555
C7 C10 1_555 1_555
C13 C16 1_555 1_555

#END
