
#######################################################################
#
#                 Cambridge Crystallographic Data Centre
#                                CCDC 
#
#######################################################################
#
# If this CIF has been generated from an entry in the Cambridge 
# Structural Database, then it will include bibliographic, chemical, 
# crystal, experimental, refinement or atomic coordinate data resulting 
# from the CCDC's data processing and validation procedures.
#
#######################################################################

data_FADMII
_chemical_name_common            nit07
_chemical_formula_moiety         'C26 H28 N2 O2 S2'
_chemical_name_systematic        
4-(3-((2-((4-(Morpholin-4-yl)phenyl)sulfanyl)phenyl)sulfanyl)phenyl)morpholine
_symmetry_cell_setting           triclinic
_symmetry_space_group_name_H-M   'P -1'
_symmetry_Int_Tables_number      2
_space_group_name_Hall           '-P 1'
loop_
_symmetry_equiv_pos_site_id
_symmetry_equiv_pos_as_xyz
1 x,y,z
2 -x,-y,-z
_cell_length_a                   10.043(2)
_cell_length_b                   11.070(2)
_cell_length_c                   12.627(2)
_cell_angle_alpha                105.79(2)
_cell_angle_beta                 110.56(2)
_cell_angle_gamma                102.20(2)
_cell_volume                     1189.17
_chemical_melting_point          120-121deg.C
_cell_formula_units_Z            2
loop_
_atom_site_label
_atom_site_type_symbol
_atom_site_fract_x
_atom_site_fract_y
_atom_site_fract_z
S1 S 0.1099(1) 0.3136(1) 0.4832(1)
S2 S 0.4592(1) 0.4358(1) 0.6100(1)
O1 O -0.8485(4) -0.1223(5) 0.2481(6)
O2 O 1.3360(3) 0.7427(4) 0.9219(4)
N1 N -0.5378(3) 0.0185(3) 0.3437(4)
N2 N 1.0271(3) 0.7139(3) 0.8395(4)
C1 C -0.7971(5) 0.0073(6) 0.3110(6)
C2 C -0.7534(5) -0.1897(5) 0.2581(6)
C3 C -0.6406(5) 0.0877(5) 0.3452(6)
C4 C -0.5947(5) -0.1218(5) 0.2876(6)
C5 C -0.3880(4) 0.0876(4) 0.3752(4)
C6 C -0.3286(4) 0.2273(4) 0.4239(4)
C7 C -0.1784(4) 0.2951(4) 0.4580(4)
C8 C -0.2886(4) 0.0195(4) 0.3595(4)
C9 C -0.1387(4) 0.0885(4) 0.3943(4)
C10 C -0.0807(4) 0.2264(4) 0.4443(3)
C11 C 0.2064(4) 0.3157(3) 0.6318(3)
C12 C 0.1332(4) 0.2644(4) 0.6940(4)
C13 C 0.2133(5) 0.2706(4) 0.8101(4)
C14 C 0.3691(5) 0.3274(4) 0.8671(4)
C15 C 0.4446(4) 0.3770(4) 0.8074(4)
C16 C 0.3650(4) 0.3736(3) 0.6901(3)
C17 C 0.6131(4) 0.5763(4) 0.7309(3)
C18 C 0.5866(4) 0.6727(4) 0.8095(4)
C19 C 0.7080(4) 0.7810(4) 0.9010(4)
C20 C 0.8534(4) 0.7964(4) 0.9131(4)
C21 C 0.8808(4) 0.7018(4) 0.8325(4)
C22 C 0.7584(4) 0.5907(4) 0.7417(4)
C23 C 1.0761(5) 0.6039(5) 0.8457(6)
C24 C 1.1418(4) 0.8420(4) 0.9106(5)
C25 C 1.2889(5) 0.8477(5) 0.9089(6)
C26 C 1.2268(5) 0.6199(5) 0.8470(6)
H1 H -0.8086(5) 0.0203(6) 0.3860(6)
H2 H -0.8634(5) 0.0452(6) 0.2647(6)
H3 H -0.7949(5) -0.2654(5) 0.1814(6)
H4 H -0.7531(5) -0.2252(5) 0.3204(6)
H5 H -0.6436(5) 0.1346(5) 0.2902(6)
H6 H -0.6009(5) 0.1546(5) 0.4268(6)
H7 H -0.5318(5) -0.1564(5) 0.3408(6)
H8 H -0.5829(5) -0.1465(5) 0.2124(6)
H9 H -0.3917(4) 0.2757(4) 0.4336(4)
H10 H -0.1423(4) 0.3879(4) 0.4905(4)
H11 H -0.3243(4) -0.0733(4) 0.3253(4)
H12 H -0.0753(4) 0.0409(4) 0.3838(4)
H13 H 0.0284(4) 0.2254(4) 0.6562(4)
H14 H 0.1624(5) 0.2364(4) 0.8502(4)
H15 H 0.4229(5) 0.3322(4) 0.9458(4)
H16 H 0.5497(4) 0.4131(4) 0.8454(4)
H17 H 0.4888(4) 0.6644(4) 0.8007(4)
H18 H 0.6918(4) 0.8449(4) 0.9556(4)
H19 H 0.9336(4) 0.8704(4) 0.9755(4)
H20 H 0.7743(4) 0.5256(4) 0.6878(4)
H21 H 1.0026(5) 0.5244(5) 0.7761(6)
H22 H 1.0787(5) 0.5903(5) 0.9190(6)
H23 H 1.1552(4) 0.8672(4) 0.9944(5)
H24 H 1.1080(4) 0.9069(4) 0.8802(5)
H25 H 1.2837(5) 0.8531(5) 0.8322(6)
H26 H 1.3651(5) 0.9294(5) 0.9740(6)
H27 H 1.2620(5) 0.5526(5) 0.8721(6)
loop_
_geom_bond_atom_site_label_1
_geom_bond_atom_site_label_2
_geom_bond_site_symmetry_1
_geom_bond_site_symmetry_2
S1 C10 1_555 1_555
S2 C16 1_555 1_555
O1 C1 1_555 1_555
O2 C25 1_555 1_555
N1 C3 1_555 1_555
N2 C21 1_555 1_555
C1 C3 1_555 1_555
C2 O1 1_555 1_555
C3 H5 1_555 1_555
C4 N1 1_555 1_555
C5 N1 1_555 1_555
C6 C5 1_555 1_555
C7 C6 1_555 1_555
C8 C5 1_555 1_555
C9 C8 1_555 1_555
C10 C7 1_555 1_555
C11 S1 1_555 1_555
C12 C11 1_555 1_555
C13 C12 1_555 1_555
C14 C13 1_555 1_555
C15 C14 1_555 1_555
C16 C11 1_555 1_555
C17 S2 1_555 1_555
C18 C17 1_555 1_555
C19 C18 1_555 1_555
C20 C19 1_555 1_555
C21 C20 1_555 1_555
C22 C17 1_555 1_555
C23 N2 1_555 1_555
C24 N2 1_555 1_555
C25 C24 1_555 1_555
C26 O2 1_555 1_555
H1 C1 1_555 1_555
H2 C1 1_555 1_555
H3 C2 1_555 1_555
H4 C2 1_555 1_555
H6 C3 1_555 1_555
H7 C4 1_555 1_555
H8 C4 1_555 1_555
H9 C6 1_555 1_555
H10 C7 1_555 1_555
H11 C8 1_555 1_555
H12 C9 1_555 1_555
H13 C12 1_555 1_555
H14 C13 1_555 1_555
H15 C14 1_555 1_555
H16 C15 1_555 1_555
H17 C18 1_555 1_555
H18 C19 1_555 1_555
H19 C20 1_555 1_555
H20 C22 1_555 1_555
H21 C23 1_555 1_555
H22 C23 1_555 1_555
H23 C24 1_555 1_555
H24 C24 1_555 1_555
H25 C25 1_555 1_555
H26 C25 1_555 1_555
H27 C26 1_555 1_555
C2 C4 1_555 1_555
C9 C10 1_555 1_555
C15 C16 1_555 1_555
C21 C22 1_555 1_555
C23 C26 1_555 1_555

#END
