
#######################################################################
#
#                 Cambridge Crystallographic Data Centre
#                                CCDC 
#
#######################################################################
#
# If this CIF has been generated from an entry in the Cambridge 
# Structural Database, then it will include bibliographic, chemical, 
# crystal, experimental, refinement or atomic coordinate data resulting 
# from the CCDC's data processing and validation procedures.
#
#######################################################################

data_FAFSUD
_chemical_formula_moiety         'C22 H25 N1 O1 Si1'
_chemical_name_systematic        
11-((t-butyl(dimethyl)silyl)oxy)-11H-indeno[1,2-b]quinoline
_symmetry_cell_setting           monoclinic
_symmetry_space_group_name_H-M   'P 21/c'
_symmetry_Int_Tables_number      14
_space_group_name_Hall           '-P 2ybc'
loop_
_symmetry_equiv_pos_site_id
_symmetry_equiv_pos_as_xyz
1 x,y,z
2 -x,1/2+y,1/2-z
3 -x,-y,-z
4 x,1/2-y,1/2+z
_cell_length_a                   11.4725(10)
_cell_length_b                   6.1417(5)
_cell_length_c                   28.015(3)
_cell_angle_alpha                90
_cell_angle_beta                 90.682(2)
_cell_angle_gamma                90
_cell_volume                     1973.82
_exptl_crystal_colour            colorless
_exptl_crystal_description       prismatic
_cell_formula_units_Z            4
loop_
_atom_site_label
_atom_site_type_symbol
_atom_site_fract_x
_atom_site_fract_y
_atom_site_fract_z
Si1 Si 0.22994(4) 0.90250(7) 0.07914(2)
N1 N -0.05319(11) 0.2570(2) 0.19328(5)
O1 O 0.19913(10) 0.68245(18) 0.11025(4)
C1 C 0.15407(14) 0.3562(3) 0.20547(5)
C2 C 0.19858(15) 0.1915(3) 0.23448(6)
H1 H 0.1508 0.0811 0.2458
C3 C 0.31568(16) 0.1968(3) 0.24595(6)
H2 H 0.3475 0.0887 0.2654
C4 C 0.38625(16) 0.3604(4) 0.22899(7)
H3 H 0.4651 0.3607 0.2371
C5 C 0.34204(15) 0.5242(3) 0.20010(6)
H4 H 0.3903 0.6337 0.1887
C6 C 0.22482(14) 0.5214(3) 0.18859(5)
C7 C 0.15504(14) 0.6784(3) 0.15749(5)
H5 H 0.1556 0.8248 0.1714
C8 C 0.03420(14) 0.5815(3) 0.15885(5)
C9 C 0.03551(13) 0.3874(3) 0.18678(5)
C10 C -0.06751(14) 0.6434(3) 0.13795(6)
H6 H -0.0720 0.7709 0.1201
C11 C -0.16691(14) 0.5101(3) 0.14381(6)
C12 C -0.15533(14) 0.3170(3) 0.17097(6)
C13 C -0.25233(16) 0.1785(3) 0.17607(7)
H7 H -0.2450 0.0497 0.1933
C14 C -0.35720(17) 0.2335(4) 0.15574(7)
H8 H -0.4211 0.1422 0.1595
C15 C -0.36951(17) 0.4242(4) 0.12946(7)
H9 H -0.4414 0.4590 0.1158
C16 C -0.27690(16) 0.5610(4) 0.12347(7)
H10 H -0.2863 0.6884 0.1059
C17 C 0.3599(2) 1.0381(4) 0.10557(9)
H11 H 0.3443 1.0779 0.1380
H12 H 0.3777 1.1665 0.0875
H13 H 0.4251 0.9401 0.1049
C18 C 0.1054(2) 1.0932(3) 0.07972(9)
H14 H 0.0447 1.0397 0.0590
H15 H 0.1304 1.2337 0.0689
H16 H 0.0765 1.1053 0.1116
C19 C 0.25934(18) 0.7973(3) 0.01776(6)
C20 C 0.3634(2) 0.6442(5) 0.01845(10)
H17 H 0.3771 0.5919 -0.0133
H18 H 0.3476 0.5233 0.0391
H19 H 0.4310 0.7207 0.0300
C21 C 0.2813(3) 0.9873(4) -0.01638(9)
H20 H 0.3499 1.0648 -0.0063
H21 H 0.2155 1.0840 -0.0162
H22 H 0.2921 0.9322 -0.0481
C22 C 0.1520(2) 0.6690(4) -0.00024(8)
H23 H 0.0838 0.7585 0.0022
H24 H 0.1426 0.5406 0.0188
H25 H 0.1630 0.6281 -0.0330
loop_
_geom_bond_atom_site_label_1
_geom_bond_atom_site_label_2
_geom_bond_site_symmetry_1
_geom_bond_site_symmetry_2
Si1 O1 1_555 1_555
N1 C9 1_555 1_555
O1 C7 1_555 1_555
C1 C2 1_555 1_555
C2 H1 1_555 1_555
C3 C2 1_555 1_555
H2 C3 1_555 1_555
C4 C3 1_555 1_555
H3 C4 1_555 1_555
C5 C4 1_555 1_555
H4 C5 1_555 1_555
C6 C1 1_555 1_555
C7 C6 1_555 1_555
H5 C7 1_555 1_555
C8 C7 1_555 1_555
C9 C1 1_555 1_555
C10 C8 1_555 1_555
H6 C10 1_555 1_555
C11 C10 1_555 1_555
C12 N1 1_555 1_555
C13 C12 1_555 1_555
H7 C13 1_555 1_555
C14 C13 1_555 1_555
H8 C14 1_555 1_555
C15 C14 1_555 1_555
H9 C15 1_555 1_555
C16 C11 1_555 1_555
H10 C16 1_555 1_555
C17 Si1 1_555 1_555
H11 C17 1_555 1_555
H12 C17 1_555 1_555
H13 C17 1_555 1_555
C18 Si1 1_555 1_555
H14 C18 1_555 1_555
H15 C18 1_555 1_555
H16 C18 1_555 1_555
C19 Si1 1_555 1_555
C20 C19 1_555 1_555
H17 C20 1_555 1_555
H18 C20 1_555 1_555
H19 C20 1_555 1_555
C21 C19 1_555 1_555
H20 C21 1_555 1_555
H21 C21 1_555 1_555
H22 C21 1_555 1_555
C22 C19 1_555 1_555
H23 C22 1_555 1_555
H24 C22 1_555 1_555
H25 C22 1_555 1_555
C5 C6 1_555 1_555
C8 C9 1_555 1_555
C11 C12 1_555 1_555
C15 C16 1_555 1_555

#END
