
#######################################################################
#
#                 Cambridge Crystallographic Data Centre
#                                CCDC 
#
#######################################################################
#
# If this CIF has been generated from an entry in the Cambridge 
# Structural Database, then it will include bibliographic, chemical, 
# crystal, experimental, refinement or atomic coordinate data resulting 
# from the CCDC's data processing and validation procedures.
#
#######################################################################

data_FAHBIB
_chemical_formula_moiety         'C2 H7 N1 O6 P2 2-,C3 H12 N2 2+,H2 O1'
_chemical_name_systematic        
'Propane-1,2-diammonium (1-ammonio-1-(hydroxyphosphinato)ethyl)phosphonate monohydrate'
_symmetry_cell_setting           monoclinic
_symmetry_space_group_name_H-M   'P 21/n'
_symmetry_Int_Tables_number      14
_space_group_name_Hall           '-P 2yn'
loop_
_symmetry_equiv_pos_site_id
_symmetry_equiv_pos_as_xyz
1 x,y,z
2 1/2-x,1/2+y,1/2-z
3 -x,-y,-z
4 1/2+x,1/2-y,1/2+z
_cell_length_a                   9.9533(8)
_cell_length_b                   6.9947(6)
_cell_length_c                   18.0126(15)
_cell_angle_alpha                90
_cell_angle_beta                 103.3600(10)
_cell_angle_gamma                90
_cell_volume                     1220.11
_exptl_crystal_colour            colorless
_exptl_crystal_description       block
_cell_formula_units_Z            4
loop_
_atom_site_label
_atom_site_type_symbol
_atom_site_fract_x
_atom_site_fract_y
_atom_site_fract_z
C1 C 0.87808(13) 0.75394(17) 0.17620(7)
C2 C 0.95349(14) 0.6002(2) 0.14060(8)
H1 H 1.0508 0.6076 0.1627
H2 H 0.9369 0.6206 0.0865
H3 H 0.9200 0.4761 0.1503
H12 H 0.858(2) 1.201(3) 0.2175(8)
N1 N 0.90995(11) 0.71753(16) 0.26162(6)
H13 H 0.8769 0.6037 0.2705
H14 H 0.8707 0.8080 0.2842
H15 H 1.0009 0.7196 0.2801
O1 O 0.62762(9) 0.83240(13) 0.20265(5)
O2 O 0.64635(10) 0.83318(14) 0.06487(5)
O3 O 0.65590(10) 0.51963(13) 0.13752(5)
O4 O 0.84227(10) 1.14030(13) 0.17611(5)
O5 O 0.96098(10) 1.00131(14) 0.08022(5)
O6 O 1.08379(10) 1.01096(14) 0.22140(6)
P1 P 0.68703(3) 0.73188(4) 0.141935(17)
P2 P 0.95063(3) 0.99149(4) 0.161641(17)
C3 C 0.69746(18) 0.4663(2) 0.94304(9)
H4 H 0.6096 0.4654 0.9071
H5 H 0.7685 0.4995 0.9173
H6 H 0.6958 0.5586 0.9823
C4 C 0.72642(15) 0.27034(19) 0.97843(8)
H7 H 0.8215 0.2667 1.0092
C5 C 0.70939(15) 0.1191(2) 0.91626(8)
H8 H 0.6117 0.0984 0.8949
H9 H 0.7500 0.1657 0.8757
N2 N 0.77452(13) -0.06504(17) 0.94454(7)
H16 H 0.8659 -0.0512 0.9570
H17 H 0.7516 -0.1533 0.9082
H18 H 0.7453 -0.1015 0.9855
N3 N 0.62885(13) 0.23334(16) 1.02920(6)
H19 H 0.6375 0.3255 1.0640
H20 H 0.6487 0.1211 1.0524
H21 H 0.5425 0.2315 1.0012
H10 H 0.2819(18) 0.676(3) 0.2919(13)
H11 H 0.189(2) 0.830(2) 0.2777(11)
O7 O 0.21599(12) 0.73359(17) 0.30508(7)
loop_
_geom_bond_atom_site_label_1
_geom_bond_atom_site_label_2
_geom_bond_site_symmetry_1
_geom_bond_site_symmetry_2
C1 C2 1_555 1_555
C2 H1 1_555 1_555
H2 C2 1_555 1_555
H3 C2 1_555 1_555
C3 H4 1_555 1_555
H5 C3 1_555 1_555
H6 C3 1_555 1_555
C4 C3 1_555 1_555
H7 C4 1_555 1_555
C5 C4 1_555 1_555
H8 C5 1_555 1_555
H9 C5 1_555 1_555
H10 O7 1_555 1_555
H11 O7 1_555 1_555
H12 O4 1_555 1_555
N1 C1 1_555 1_555
H13 N1 1_555 1_555
H14 N1 1_555 1_555
H15 N1 1_555 1_555
N2 C5 1_555 1_555
H16 N2 1_555 1_555
H17 N2 1_555 1_555
H18 N2 1_555 1_555
N3 C4 1_555 1_555
H19 N3 1_555 1_555
H20 N3 1_555 1_555
H21 N3 1_555 1_555
O1 P1 1_555 1_555
O2 P1 1_555 1_555
O3 P1 1_555 1_555
O4 P2 1_555 1_555
O5 P2 1_555 1_555
O6 P2 1_555 1_555
P1 C1 1_555 1_555
P2 C1 1_555 1_555

#END
