
#######################################################################
#
#                 Cambridge Crystallographic Data Centre
#                                CCDC 
#
#######################################################################
#
# If this CIF has been generated from an entry in the Cambridge 
# Structural Database, then it will include bibliographic, chemical, 
# crystal, experimental, refinement or atomic coordinate data resulting 
# from the CCDC's data processing and validation procedures.
#
#######################################################################

data_FAJBUQ
_chemical_formula_moiety         'C38 H70 O4 Si1,C1 H4 O1'
_chemical_name_systematic        
'3-((t-butyl(dimethyl)silyl)oxy)-11-hydroxylanostan-7-yl acetate methanol solvate'
_symmetry_cell_setting           monoclinic
_symmetry_space_group_name_H-M   'P 21'
_symmetry_Int_Tables_number      4
_space_group_name_Hall           'P 2yb'
loop_
_symmetry_equiv_pos_site_id
_symmetry_equiv_pos_as_xyz
1 x,y,z
2 -x,1/2+y,-z
_cell_length_a                   6.2841(3)
_cell_length_b                   31.6830(16)
_cell_length_c                   10.0930(5)
_cell_angle_alpha                90
_cell_angle_beta                 93.1715(17)
_cell_angle_gamma                90
_cell_volume                     2006.43
_exptl_crystal_description       block
_cell_formula_units_Z            2
loop_
_atom_site_label
_atom_site_type_symbol
_atom_site_fract_x
_atom_site_fract_y
_atom_site_fract_z
Si1 Si 0.83987(14) 0.76609(3) 0.02466(9)
O1 O 1.0281(4) 1.03582(7) -0.09608(19)
O2 O 0.9662(4) 0.80913(7) 0.0732(2)
O3 O 0.8690(5) 1.02052(10) -0.2934(2)
O4 O 0.9439(5) 0.99198(9) 0.4297(2)
H1 H 0.9172 1.0006 0.5036
C1 C 0.8921(4) 1.01899(8) 0.1149(3)
H2 H 1.0373 1.0257 0.1488
C2 C 0.8077(5) 0.98223(9) 0.2004(3)
H3 H 0.6684 0.9753 0.1576
C3 C 0.9409(5) 0.94082(9) 0.1890(3)
C4 C 0.8877(6) 0.85098(9) 0.0959(3)
H4 H 0.7331 0.8508 0.0769
C5 C 0.9161(5) 0.92803(9) 0.0406(3)
H5 H 0.7627 0.9294 0.0175
C6 C 1.0151(6) 0.96194(9) -0.0440(3)
H6 H 1.1650 0.9649 -0.0173
H7 H 1.0042 0.9534 -0.1365
C7 C 0.9857(5) 0.88242(9) 0.0000(3)
C8 C 0.9293(6) 0.86224(10) 0.2395(3)
H8 H 1.0816 0.8619 0.2610
H9 H 0.8641 0.8413 0.2942
C9 C 0.8405(6) 0.90570(9) 0.2706(3)
H10 H 0.8674 0.9116 0.3643
H11 H 0.6874 0.9056 0.2519
C10 C 0.9032(5) 1.00408(9) -0.0286(3)
H12 H 0.7591 1.0026 -0.0708
C11 C 0.7562(5) 1.07294(9) 0.2778(3)
C12 C 0.7532(5) 1.05914(9) 0.1288(3)
C13 C 0.6505(6) 1.03803(10) 0.3558(3)
H13 H 0.5023 1.0357 0.3244
H14 H 0.6538 1.0460 0.4487
C14 C 0.8300(6) 1.09962(10) 0.0628(3)
H15 H 0.7835 1.1004 -0.0304
H16 H 0.9842 1.1017 0.0708
C15 C 0.7577(6) 0.99473(10) 0.3435(3)
H17 H 0.6572 0.9737 0.3742
C16 C 0.6396(5) 1.11625(9) 0.2690(3)
H18 H 0.4872 1.1106 0.2517
C17 C 0.7258(6) 1.13549(10) 0.1401(3)
H19 H 0.6099 1.1480 0.0862
H20 H 0.8298 1.1573 0.1627
C18 C 0.9850(5) 1.08075(10) 0.3348(3)
H21 H 0.9816 1.0893 0.4259
H22 H 1.0497 1.1026 0.2847
H23 H 1.0665 1.0552 0.3293
C19 C 1.1752(5) 0.94699(11) 0.2385(4)
H24 H 1.2578 0.9232 0.2125
H25 H 1.1837 0.9494 0.3335
H26 H 1.2300 0.9723 0.2004
C20 C 0.5183(7) 1.26666(13) 0.4117(4)
H27 H 0.3730 1.2632 0.4377
H28 H 0.5124 1.2722 0.3171
C21 C 0.6365(7) 1.22585(12) 0.4374(4)
H29 H 0.6314 1.2188 0.5307
H30 H 0.7849 1.2299 0.4187
C22 C 0.5480(7) 1.18888(11) 0.3551(4)
H31 H 0.5597 1.1953 0.2618
H32 H 0.3979 1.1856 0.3705
C23 C 0.6629(6) 1.14702(10) 0.3871(3)
H33 H 0.8150 1.1532 0.4028
C24 C 0.6147(8) 1.30498(12) 0.4839(4)
H34 H 0.6390 1.2977 0.5779
C25 C 0.5833(8) 1.12869(13) 0.5145(4)
H35 H 0.5825 1.1503 0.5810
H36 H 0.6757 1.1062 0.5449
H37 H 0.4414 1.1180 0.4979
C26 C 0.8231(9) 1.31824(17) 0.4322(6)
H38 H 0.9269 1.2964 0.4496
H39 H 0.8705 1.3438 0.4756
H40 H 0.8055 1.3230 0.3383
C27 C 0.4570(10) 1.34185(17) 0.4737(8)
H41 H 0.5131 1.3652 0.5254
H42 H 0.3235 1.3332 0.5067
H43 H 0.4356 1.3503 0.3826
C28 C 0.8884(8) 0.87351(12) -0.1400(4)
H44 H 0.9581 0.8906 -0.2031
H45 H 0.7391 0.8801 -0.1436
H46 H 0.9071 0.8442 -0.1610
C29 C 1.2265(6) 0.87624(12) -0.0013(5)
H47 H 1.2866 0.8754 0.0882
H48 H 1.2880 0.8992 -0.0479
H49 H 1.2563 0.8502 -0.0451
C30 C 0.5237(5) 1.05099(11) 0.0704(4)
H50 H 0.5274 1.0448 -0.0226
H51 H 0.4380 1.0756 0.0824
H52 H 0.4635 1.0275 0.1151
C31 C 0.8832(6) 0.72439(11) 0.1575(4)
C32 C 0.9539(7) 0.74780(13) -0.1319(4)
H53 H 0.9089 0.7664 -0.2031
H54 H 0.9049 0.7197 -0.1519
H55 H 1.1066 0.7479 -0.1212
C33 C 0.7605(9) 0.68431(13) 0.1137(6)
H56 H 0.8212 0.6727 0.0364
H57 H 0.6136 0.6913 0.0932
H58 H 0.7700 0.6639 0.1841
C34 C 0.8026(9) 0.73986(15) 0.2879(5)
H59 H 0.8092 0.7173 0.3513
H60 H 0.6578 0.7492 0.2741
H61 H 0.8898 0.7629 0.3207
C35 C 1.1181(7) 0.71333(16) 0.1760(5)
H62 H 1.1988 0.7385 0.1962
H63 H 1.1651 0.7010 0.0959
H64 H 1.1387 0.6936 0.2477
C36 C 0.5492(6) 0.77613(12) -0.0084(5)
H65 H 0.4875 0.7845 0.0724
H66 H 0.4810 0.7508 -0.0414
H67 H 0.5296 0.7982 -0.0731
C37 C 1.0005(7) 1.03967(11) -0.2261(3)
C38 C 1.1505(9) 1.07061(15) -0.2795(4)
H68 H 1.1923 1.0613 -0.3647
H69 H 1.2744 1.0730 -0.2198
H70 H 1.0821 1.0976 -0.2884
O5 O 0.3955(19) 0.9538(3) 0.6437(7)
H71 H 0.3732 0.9668 0.5741
C39 C 0.4590(12) 0.9800(3) 0.7378(8)
H72 H 0.5913 0.9703 0.7791
H73 H 0.3534 0.9815 0.8028
H74 H 0.4789 1.0075 0.7005
loop_
_geom_bond_atom_site_label_1
_geom_bond_atom_site_label_2
_geom_bond_site_symmetry_1
_geom_bond_site_symmetry_2
Si1 O2 1_555 1_555
O1 C10 1_555 1_555
O2 C4 1_555 1_555
O3 C37 1_555 1_555
O4 H1 1_555 1_555
C1 H2 1_555 1_555
C2 C1 1_555 1_555
H3 C2 1_555 1_555
C3 C2 1_555 1_555
C4 H4 1_555 1_555
C5 C3 1_555 1_555
H5 C5 1_555 1_555
C6 C5 1_555 1_555
H6 C6 1_555 1_555
H7 C6 1_555 1_555
C7 C4 1_555 1_555
C8 C4 1_555 1_555
H8 C8 1_555 1_555
H9 C8 1_555 1_555
C9 C3 1_555 1_555
H10 C9 1_555 1_555
H11 C9 1_555 1_555
C10 C1 1_555 1_555
H12 C10 1_555 1_555
C11 C12 1_555 1_555
C12 C1 1_555 1_555
C13 C11 1_555 1_555
H13 C13 1_555 1_555
H14 C13 1_555 1_555
C14 C12 1_555 1_555
H15 C14 1_555 1_555
H16 C14 1_555 1_555
C15 O4 1_555 1_555
H17 C15 1_555 1_555
C16 C11 1_555 1_555
H18 C16 1_555 1_555
C17 C14 1_555 1_555
H19 C17 1_555 1_555
H20 C17 1_555 1_555
C18 C11 1_555 1_555
H21 C18 1_555 1_555
H22 C18 1_555 1_555
H23 C18 1_555 1_555
C19 C3 1_555 1_555
H24 C19 1_555 1_555
H25 C19 1_555 1_555
H26 C19 1_555 1_555
C20 H27 1_555 1_555
H28 C20 1_555 1_555
C21 C20 1_555 1_555
H29 C21 1_555 1_555
H30 C21 1_555 1_555
C22 C21 1_555 1_555
H31 C22 1_555 1_555
H32 C22 1_555 1_555
C23 C16 1_555 1_555
H33 C23 1_555 1_555
C24 C20 1_555 1_555
H34 C24 1_555 1_555
C25 C23 1_555 1_555
H35 C25 1_555 1_555
H36 C25 1_555 1_555
H37 C25 1_555 1_555
C26 C24 1_555 1_555
H38 C26 1_555 1_555
H39 C26 1_555 1_555
H40 C26 1_555 1_555
C27 C24 1_555 1_555
H41 C27 1_555 1_555
H42 C27 1_555 1_555
H43 C27 1_555 1_555
C28 C7 1_555 1_555
H44 C28 1_555 1_555
H45 C28 1_555 1_555
H46 C28 1_555 1_555
C29 C7 1_555 1_555
H47 C29 1_555 1_555
H48 C29 1_555 1_555
H49 C29 1_555 1_555
C30 C12 1_555 1_555
H50 C30 1_555 1_555
H51 C30 1_555 1_555
H52 C30 1_555 1_555
C31 Si1 1_555 1_555
C32 Si1 1_555 1_555
H53 C32 1_555 1_555
H54 C32 1_555 1_555
H55 C32 1_555 1_555
C33 C31 1_555 1_555
H56 C33 1_555 1_555
H57 C33 1_555 1_555
H58 C33 1_555 1_555
C34 C31 1_555 1_555
H59 C34 1_555 1_555
H60 C34 1_555 1_555
H61 C34 1_555 1_555
C35 C31 1_555 1_555
H62 C35 1_555 1_555
H63 C35 1_555 1_555
H64 C35 1_555 1_555
C36 Si1 1_555 1_555
H65 C36 1_555 1_555
H66 C36 1_555 1_555
H67 C36 1_555 1_555
C37 O1 1_555 1_555
C38 C37 1_555 1_555
H68 C38 1_555 1_555
H69 C38 1_555 1_555
H70 C38 1_555 1_555
O5 H71 1_555 1_555
C39 O5 1_555 1_555
H72 C39 1_555 1_555
H73 C39 1_555 1_555
H74 C39 1_555 1_555
C2 C15 1_555 1_555
C5 C7 1_555 1_555
C6 C10 1_555 1_555
C8 C9 1_555 1_555
C13 C15 1_555 1_555
C16 C17 1_555 1_555
C22 C23 1_555 1_555

#END
