
#######################################################################
#
#                 Cambridge Crystallographic Data Centre
#                                CCDC 
#
#######################################################################
#
# If this CIF has been generated from an entry in the Cambridge 
# Structural Database, then it will include bibliographic, chemical, 
# crystal, experimental, refinement or atomic coordinate data resulting 
# from the CCDC's data processing and validation procedures.
#
#######################################################################

data_FAJXEV
_chemical_formula_moiety         'C30 H21 N3 O9'
_chemical_name_systematic        
"4,4',4''-(Benzene-1,3,5-triyltris(carbonylimino))tribenzoic acid"
_symmetry_cell_setting           hexagonal
_symmetry_space_group_name_H-M   'P 65'
_symmetry_Int_Tables_number      170
_space_group_name_Hall           'P 65'
loop_
_symmetry_equiv_pos_site_id
_symmetry_equiv_pos_as_xyz
1 x,y,z
2 -y,x-y,2/3+z
3 -x+y,-x,1/3+z
4 -x,-y,1/2+z
5 y,-x+y,1/6+z
6 x-y,x,5/6+z
_cell_length_a                   15.0699(6)
_cell_length_b                   15.0699(6)
_cell_length_c                   18.9408(9)
_cell_angle_alpha                90
_cell_angle_beta                 90
_cell_angle_gamma                120
_cell_volume                     3725.2
_exptl_crystal_colour            colorless
_exptl_crystal_description       block
_cell_formula_units_Z            6
loop_
_atom_site_label
_atom_site_type_symbol
_atom_site_fract_x
_atom_site_fract_y
_atom_site_fract_z
C1 C 0.0957(2) 0.2177(2) 0.08966(15)
H1 H 0.0298 0.1599 0.0976
C2 C 0.2096(2) -0.2140(2) 0.06834(17)
C3 C 0.7066(2) 0.8380(2) 0.09315(16)
O1 O -0.52370(16) 0.21899(16) 0.07372(14)
N1 N 0.41807(17) 0.56986(17) 0.08451(14)
H2 H 0.3656 0.5777 0.0952
C4 C 0.2046(2) 0.3998(2) 0.07566(16)
H3 H 0.2127 0.4663 0.0723
O2 O 0.82361(15) 1.01911(15) 0.09336(13)
C5 C 0.8090(2) 0.9322(2) 0.09402(16)
C6 C 0.2774(2) 0.2899(2) 0.07777(15)
H4 H 0.3356 0.2814 0.0748
C7 C 0.3121(2) -0.0295(2) 0.07119(17)
H5 H 0.3774 0.0309 0.0731
N2 N 0.23440(17) 0.07664(17) 0.07153(13)
H6 H 0.2940 0.1291 0.0594
N3 N -0.07703(16) 0.25837(18) 0.09150(13)
H7 H -0.0856 0.1977 0.1021
C8 C -0.4370(2) 0.2905(2) 0.07501(16)
O3 O 0.27105(16) -0.33263(15) 0.07892(13)
C9 C 0.2897(2) 0.3876(2) 0.07414(15)
C10 C -0.3433(2) 0.2823(2) 0.08139(16)
C11 C 0.5225(2) 0.7530(2) 0.09789(16)
H8 H 0.4616 0.7565 0.1031
C12 C -0.1655(2) 0.2684(2) 0.08942(15)
O4 O 0.07777(13) 0.03033(14) 0.11566(12)
C13 C 0.2241(2) -0.0222(2) 0.06816(16)
C14 C -0.2484(2) 0.3690(2) 0.09220(17)
H9 H -0.2442 0.4338 0.0968
C15 C 0.1808(2) 0.2049(2) 0.08571(15)
C16 C -0.3482(2) 0.1871(2) 0.07707(17)
H10 H -0.4127 0.1266 0.0712
C17 C 0.1226(2) -0.2048(2) 0.06255(18)
H11 H 0.0575 -0.2651 0.0585
C18 C 0.2002(2) -0.3169(2) 0.07203(18)
O5 O -0.41406(17) 0.38713(17) 0.06950(17)
O6 O 0.88346(16) 0.91084(16) 0.09592(15)
C19 C 0.6167(2) 0.8414(2) 0.10025(17)
H12 H 0.6201 0.9056 0.1068
C20 C 0.1062(2) 0.3136(2) 0.08217(17)
C21 C -0.2613(2) 0.1806(2) 0.08113(16)
H13 H -0.2660 0.1154 0.0783
C22 C 0.3972(2) 0.4747(2) 0.06647(16)
C23 C 0.16017(19) 0.0969(2) 0.09188(16)
C24 C -0.1606(2) 0.3630(2) 0.09636(18)
H14 H -0.0965 0.4233 0.1040
C25 C 0.6060(2) 0.6538(2) 0.08291(19)
H15 H 0.6027 0.5895 0.0781
C26 C 0.3049(2) -0.1252(2) 0.07136(18)
H16 H 0.3654 -0.1300 0.0736
C27 C 0.1283(2) -0.1113(2) 0.06249(19)
H17 H 0.0678 -0.1069 0.0586
O7 O 0.46290(14) 0.45714(15) 0.04283(14)
C28 C 0.5166(2) 0.6584(2) 0.08784(15)
O8 O 0.10400(18) -0.38999(19) 0.0666(2)
O9 O 0.03581(18) 0.41798(18) 0.0567(2)
C29 C 0.0187(2) 0.3337(2) 0.0786(2)
C30 C 0.6994(2) 0.7427(2) 0.08495(18)
H18 H 0.7603 0.7391 0.0807
H19 H 0.946(3) 0.961(3) 0.103(3)
H20 H 0.090(4) -0.445(4) 0.072(3)
H21 H -0.469(4) 0.400(4) 0.066(3)
loop_
_geom_bond_atom_site_label_1
_geom_bond_atom_site_label_2
_geom_bond_site_symmetry_1
_geom_bond_site_symmetry_2
C1 H1 1_555 1_555
C2 C17 1_555 1_555
C3 C5 1_555 1_555
O1 C8 1_555 1_555
N1 H2 1_555 1_555
C4 H3 1_555 1_555
O2 C5 1_555 1_555
C5 O6 1_555 1_555
C6 H4 1_555 1_555
C7 H5 1_555 1_555
N2 H6 1_555 1_555
N3 H7 1_555 1_555
C8 C10 1_555 1_555
O3 C18 1_555 1_555
C9 C4 1_555 1_555
C10 C14 1_555 1_555
C11 H8 1_555 1_555
C12 N3 1_555 1_555
O4 C23 1_555 1_555
C13 C7 1_555 1_555
C14 H9 1_555 1_555
C15 C1 1_555 1_555
C16 C10 1_555 1_555
H10 C16 1_555 1_555
C17 H11 1_555 1_555
C18 C2 1_555 1_555
O5 C8 1_555 1_555
O6 H19 1_555 1_555
C19 C3 1_555 1_555
H12 C19 1_555 1_555
C20 C1 1_555 1_555
C21 C12 1_555 1_555
H13 C21 1_555 1_555
C22 N1 1_555 1_555
C23 N2 1_555 1_555
C24 C12 1_555 1_555
H14 C24 1_555 1_555
C25 H15 1_555 1_555
C26 C2 1_555 1_555
H16 C26 1_555 1_555
C27 C13 1_555 1_555
H17 C27 1_555 1_555
O7 C22 1_555 1_555
C28 N1 1_555 1_555
O8 C18 1_555 1_555
O9 C29 1_555 1_555
C29 N3 1_555 1_555
C30 C3 1_555 1_555
H18 C30 1_555 1_555
H20 O8 1_555 1_555
H21 O5 1_555 1_555
C4 C20 1_555 1_555
C6 C9 1_555 1_555
C6 C15 1_555 1_555
C7 C26 1_555 1_555
N2 C13 1_555 1_555
C9 C22 1_555 1_555
C11 C19 1_555 1_555
C11 C28 1_555 1_555
C14 C24 1_555 1_555
C15 C23 1_555 1_555
C16 C21 1_555 1_555
C17 C27 1_555 1_555
C20 C29 1_555 1_555
C25 C28 1_555 1_555
C25 C30 1_555 1_555

#END
