
#######################################################################
#
#                 Cambridge Crystallographic Data Centre
#                                CCDC 
#
#######################################################################
#
# If this CIF has been generated from an entry in the Cambridge 
# Structural Database, then it will include bibliographic, chemical, 
# crystal, experimental, refinement or atomic coordinate data resulting 
# from the CCDC's data processing and validation procedures.
#
#######################################################################

data_FAKLIP
_chemical_formula_moiety         'C20 H18 S2'
_chemical_name_systematic        1,4-bis((phenylsulfanyl)methyl)benzene
_symmetry_cell_setting           monoclinic
_symmetry_space_group_name_H-M   'P 21/c'
_symmetry_Int_Tables_number      14
_space_group_name_Hall           '-P 2ybc'
loop_
_symmetry_equiv_pos_site_id
_symmetry_equiv_pos_as_xyz
1 x,y,z
2 -x,1/2+y,1/2-z
3 -x,-y,-z
4 x,1/2-y,1/2+z
_cell_length_a                   18.885(8)
_cell_length_b                   5.415(2)
_cell_length_c                   7.743(3)
_cell_angle_alpha                90
_cell_angle_beta                 94.422(6)
_cell_angle_gamma                90
_cell_volume                     789.46
_exptl_crystal_colour            colorless
_exptl_crystal_description       Plate
_cell_formula_units_Z            2
loop_
_atom_site_label
_atom_site_type_symbol
_atom_site_fract_x
_atom_site_fract_y
_atom_site_fract_z
S1 S 0.29935(2) 0.59353(6) 0.53870(4)
C1 C 0.21155(7) 0.5377(2) 0.45479(16)
C2 C 0.16079(7) 0.7086(2) 0.49732(16)
H1 H 0.1744(9) 0.848(3) 0.565(2)
C3 C 0.09032(7) 0.6748(3) 0.43973(17)
H2 H 0.0546(9) 0.797(3) 0.473(2)
C4 C 0.06982(7) 0.4730(3) 0.33854(17)
H3 H 0.0222(9) 0.447(3) 0.299(2)
C5 C 0.12033(7) 0.3038(2) 0.29553(17)
H4 H 0.1055(9) 0.165(3) 0.223(2)
C6 C 0.19117(7) 0.3341(2) 0.35366(17)
H5 H 0.2246(9) 0.211(3) 0.323(2)
C7 C 0.35125(7) 0.4048(2) 0.40280(18)
H6 H 0.3386(9) 0.451(3) 0.281(2)
H7 H 0.3399(9) 0.231(3) 0.423(2)
C8 C 0.42828(7) 0.4552(2) 0.45263(16)
C9 C 0.46093(7) 0.6673(3) 0.39700(16)
H8 H 0.4350(9) 0.785(3) 0.324(2)
C10 C 0.53187(7) 0.7109(2) 0.44378(16)
H9 H 0.5538(9) 0.860(3) 0.404(2)
S1B S 0.70065(2) 0.40647(6) 0.46130(4)
C1B C 0.78845(7) 0.4623(2) 0.54521(16)
C2B C 0.83921(7) 0.2914(2) 0.50268(16)
H1B H 0.8256(9) 0.152(3) 0.435(2)
C3B C 0.90968(7) 0.3252(3) 0.56027(17)
H2B H 0.9454(9) 0.203(3) 0.527(2)
C4B C 0.93018(7) 0.5270(3) 0.66146(17)
H3B H 0.9778(9) 0.553(3) 0.701(2)
C5B C 0.87967(7) 0.6962(2) 0.70447(17)
H4B H 0.8945(9) 0.835(3) 0.777(2)
C6B C 0.80883(7) 0.6659(2) 0.64634(17)
H5B H 0.7754(9) 0.789(3) 0.677(2)
C7B C 0.64875(7) 0.5952(2) 0.59720(18)
H6B H 0.6614(9) 0.549(3) 0.719(2)
H7B H 0.6601(9) 0.769(3) 0.577(2)
C8B C 0.57172(7) 0.5448(2) 0.54737(16)
C9B C 0.53907(7) 0.3327(3) 0.60300(16)
H8B H 0.5650(9) 0.215(3) 0.676(2)
C10B C 0.46813(7) 0.2891(2) 0.55622(16)
H9B H 0.4462(9) 0.140(3) 0.596(2)
loop_
_geom_bond_atom_site_label_1
_geom_bond_atom_site_label_2
_geom_bond_site_symmetry_1
_geom_bond_site_symmetry_2
S1 C1 1_555 1_555
C1 C2 1_555 1_555
C2 H1 1_555 1_555
C3 C2 1_555 1_555
H2 C3 1_555 1_555
C4 C3 1_555 1_555
H3 C4 1_555 1_555
C5 C4 1_555 1_555
H4 C5 1_555 1_555
C6 C1 1_555 1_555
H5 C6 1_555 1_555
C7 S1 1_555 1_555
H6 C7 1_555 1_555
H7 C7 1_555 1_555
C8 C7 1_555 1_555
C9 C8 1_555 1_555
H8 C9 1_555 1_555
C10 C9 1_555 1_555
H9 C10 1_555 1_555
S1B C1B 1_555 1_555
C1B C2B 1_555 1_555
C2B H1B 1_555 1_555
C3B C2B 1_555 1_555
H2B C3B 1_555 1_555
C4B C3B 1_555 1_555
H3B C4B 1_555 1_555
C5B C4B 1_555 1_555
H4B C5B 1_555 1_555
C6B C1B 1_555 1_555
H5B C6B 1_555 1_555
C7B S1B 1_555 1_555
H6B C7B 1_555 1_555
H7B C7B 1_555 1_555
C8B C10 1_555 1_555
C9B C8B 1_555 1_555
H8B C9B 1_555 1_555
C10B C8 1_555 1_555
H9B C10B 1_555 1_555
C5 C6 1_555 1_555
C5B C6B 1_555 1_555
C7B C8B 1_555 1_555
C9B C10B 1_555 1_555

#END
