
#######################################################################
#
#                 Cambridge Crystallographic Data Centre
#                                CCDC 
#
#######################################################################
#
# If this CIF has been generated from an entry in the Cambridge 
# Structural Database, then it will include bibliographic, chemical, 
# crystal, experimental, refinement or atomic coordinate data resulting 
# from the CCDC's data processing and validation procedures.
#
#######################################################################

data_FALDON01
_chemical_formula_moiety         'C32 H44 N2 O4'
_chemical_name_systematic        
2,4-bis(4-(N,N-di-n-butylamino)-2-hydroxyphenyl)squaraine
_symmetry_cell_setting           monoclinic
_symmetry_space_group_name_H-M   'P 21/c'
_symmetry_Int_Tables_number      14
_space_group_name_Hall           '-P 2ybc'
loop_
_symmetry_equiv_pos_site_id
_symmetry_equiv_pos_as_xyz
1 x,y,z
2 -x,1/2+y,1/2-z
3 -x,-y,-z
4 x,1/2-y,1/2+z
_cell_length_a                   9.148(6)
_cell_length_b                   19.763(11)
_cell_length_c                   9.189(8)
_cell_angle_alpha                90
_cell_angle_beta                 119.657(6)
_cell_angle_gamma                90
_cell_volume                     1443.67
_exptl_crystal_colour            green
_exptl_crystal_description       needle
_cell_formula_units_Z            2
loop_
_atom_site_label
_atom_site_type_symbol
_atom_site_fract_x
_atom_site_fract_y
_atom_site_fract_z
O1 O -0.14712(15) 0.07169(6) 0.07352(16)
C1 C -0.0667(2) 0.03198(9) 0.0329(2)
C2 C 0.0937(2) 0.03690(9) 0.0339(2)
C3 C 0.2192(2) 0.08642(8) 0.0789(2)
C4 C 0.2075(2) 0.15134(8) 0.1402(2)
C5 C 0.3284(2) 0.19982(8) 0.1786(2)
H1 H 0.3138 0.2433 0.2136
C6 C 0.4753(2) 0.18643(8) 0.1672(2)
C7 C 0.4892(2) 0.12104(8) 0.1082(2)
H2 H 0.5859 0.1102 0.0997
C8 C 0.3648(2) 0.07402(8) 0.0641(2)
H3 H 0.3758 0.0315 0.0221
O2 O 0.08115(19) 0.16801(8) 0.1709(2)
H4 H -0.005(3) 0.1285(13) 0.140(3)
N1 N 0.59816(17) 0.23394(7) 0.21210(18)
C9 C 0.5772(2) 0.30296(8) 0.2608(2)
H5 H 0.6893 0.3243 0.3261
H6 H 0.5265 0.3000 0.3340
C10 C 0.4665(2) 0.34778(8) 0.1101(2)
H7 H 0.5147 0.3495 0.0346
H8 H 0.3528 0.3275 0.0472
C11 C 0.4515(2) 0.41957(9) 0.1621(2)
H9 H 0.5634 0.4415 0.2136
H10 H 0.4162 0.4175 0.2479
C12 C 0.3259(3) 0.46271(10) 0.0157(2)
H11 H 0.3589 0.4643 -0.0708
H12 H 0.3248 0.5087 0.0551
H13 H 0.2134 0.4428 -0.0313
C13 C 0.7598(2) 0.22147(9) 0.2191(2)
H14 H 0.7918 0.2622 0.1784
H15 H 0.7466 0.1835 0.1433
C14 C 0.9010(2) 0.20456(10) 0.3957(2)
H16 H 1.0089 0.2033 0.3950
H17 H 0.9087 0.2413 0.4724
C15 C 0.8781(2) 0.13758(10) 0.4638(2)
H18 H 0.8770 0.1003 0.3911
H19 H 0.7680 0.1377 0.4598
C16 C 1.0169(3) 0.12425(12) 0.6435(3)
H20 H 1.1262 0.1236 0.6481
H21 H 0.9973 0.0805 0.6809
H22 H 1.0161 0.1601 0.7167
O1B O 0.14712(15) -0.07169(6) -0.07352(16)
C1B C 0.0667(2) -0.03198(9) -0.0329(2)
C2B C -0.0937(2) -0.03690(9) -0.0339(2)
C3B C -0.2192(2) -0.08642(8) -0.0789(2)
C4B C -0.2075(2) -0.15134(8) -0.1402(2)
C5B C -0.3284(2) -0.19982(8) -0.1786(2)
H1B H -0.3138 -0.2433 -0.2136
C6B C -0.4753(2) -0.18643(8) -0.1672(2)
C7B C -0.4892(2) -0.12104(8) -0.1082(2)
H2B H -0.5859 -0.1102 -0.0997
C8B C -0.3648(2) -0.07402(8) -0.0641(2)
H3B H -0.3758 -0.0315 -0.0221
O2B O -0.08115(19) -0.16801(8) -0.1709(2)
H4B H 0.005(3) -0.1285(13) -0.140(3)
N1B N -0.59816(17) -0.23394(7) -0.21210(18)
C9B C -0.5772(2) -0.30296(8) -0.2608(2)
H5B H -0.6893 -0.3243 -0.3261
H6B H -0.5265 -0.3000 -0.3340
C10B C -0.4665(2) -0.34778(8) -0.1101(2)
H7B H -0.5147 -0.3495 -0.0346
H8B H -0.3528 -0.3275 -0.0472
C11B C -0.4515(2) -0.41957(9) -0.1621(2)
H9B H -0.5634 -0.4415 -0.2136
H10B H -0.4162 -0.4175 -0.2479
C12B C -0.3259(3) -0.46271(10) -0.0157(2)
H11B H -0.3589 -0.4643 0.0708
H12B H -0.3248 -0.5087 -0.0551
H13B H -0.2134 -0.4428 0.0313
C13B C -0.7598(2) -0.22147(9) -0.2191(2)
H14B H -0.7918 -0.2622 -0.1784
H15B H -0.7466 -0.1835 -0.1433
C14B C -0.9010(2) -0.20456(10) -0.3957(2)
H16B H -1.0089 -0.2033 -0.3950
H17B H -0.9087 -0.2413 -0.4724
C15B C -0.8781(2) -0.13758(10) -0.4638(2)
H18B H -0.8770 -0.1003 -0.3911
H19B H -0.7680 -0.1377 -0.4598
C16B C -1.0169(3) -0.12425(12) -0.6435(3)
H20B H -1.1262 -0.1236 -0.6481
H21B H -0.9973 -0.0805 -0.6809
H22B H -1.0161 -0.1601 -0.7167
H23? H 0.1139 0.1612 0.1547
O3? O 0.3882(6) 0.0172(2) -0.0043(6)
H24? H 0.3073 -0.0094 -0.0305
loop_
_geom_bond_atom_site_label_1
_geom_bond_atom_site_label_2
_geom_bond_site_symmetry_1
_geom_bond_site_symmetry_2
O1 C1 1_555 1_555
C1 C2 1_555 1_555
C2 C3 1_555 1_555
C3 C4 1_555 1_555
C4 C5 1_555 1_555
C5 H1 1_555 1_555
C6 C5 1_555 1_555
C7 C6 1_555 1_555
H2 C7 1_555 1_555
C8 C3 1_555 1_555
H3 C8 1_555 1_555
O2 C4 1_555 1_555
H4 O2 1_555 1_555
N1 C6 1_555 1_555
C9 N1 1_555 1_555
H5 C9 1_555 1_555
H6 C9 1_555 1_555
C10 C9 1_555 1_555
H7 C10 1_555 1_555
H8 C10 1_555 1_555
C11 C10 1_555 1_555
H9 C11 1_555 1_555
H10 C11 1_555 1_555
C12 C11 1_555 1_555
H11 C12 1_555 1_555
H12 C12 1_555 1_555
H13 C12 1_555 1_555
C13 N1 1_555 1_555
H14 C13 1_555 1_555
H15 C13 1_555 1_555
C14 C13 1_555 1_555
H16 C14 1_555 1_555
H17 C14 1_555 1_555
C15 C14 1_555 1_555
H18 C15 1_555 1_555
H19 C15 1_555 1_555
C16 C15 1_555 1_555
H20 C16 1_555 1_555
H21 C16 1_555 1_555
H22 C16 1_555 1_555
O1B C1B 1_555 1_555
C1B C2 1_555 1_555
C2B C1 1_555 1_555
C3B C2B 1_555 1_555
C4B C3B 1_555 1_555
C5B C4B 1_555 1_555
H1B C5B 1_555 1_555
C6B C5B 1_555 1_555
C7B C6B 1_555 1_555
H2B C7B 1_555 1_555
C8B C3B 1_555 1_555
H3B C8B 1_555 1_555
O2B C4B 1_555 1_555
H4B O2B 1_555 1_555
N1B C6B 1_555 1_555
C9B N1B 1_555 1_555
H5B C9B 1_555 1_555
H6B C9B 1_555 1_555
C10B C9B 1_555 1_555
H7B C10B 1_555 1_555
H8B C10B 1_555 1_555
C11B C10B 1_555 1_555
H9B C11B 1_555 1_555
H10B C11B 1_555 1_555
C12B C11B 1_555 1_555
H11B C12B 1_555 1_555
H12B C12B 1_555 1_555
H13B C12B 1_555 1_555
C13B N1B 1_555 1_555
H14B C13B 1_555 1_555
H15B C13B 1_555 1_555
C14B C13B 1_555 1_555
H16B C14B 1_555 1_555
H17B C14B 1_555 1_555
C15B C14B 1_555 1_555
H18B C15B 1_555 1_555
H19B C15B 1_555 1_555
C16B C15B 1_555 1_555
H20B C16B 1_555 1_555
H21B C16B 1_555 1_555
H22B C16B 1_555 1_555
C7 C8 1_555 1_555
C1B C2B 1_555 1_555
C7B C8B 1_555 1_555

#END
