
#######################################################################
#
#                 Cambridge Crystallographic Data Centre
#                                CCDC 
#
#######################################################################
#
# If this CIF has been generated from an entry in the Cambridge 
# Structural Database, then it will include bibliographic, chemical, 
# crystal, experimental, refinement or atomic coordinate data resulting 
# from the CCDC's data processing and validation procedures.
#
#######################################################################

data_FALKOV
_chemical_formula_moiety         'C4 H1 N8 O10 1-,C3 H7 N8 1+'
_chemical_name_systematic        
'3,6,7-Triamino-7H-[1,2,4]triazolo[4,3-b][1,2,4]triazol-2-ium dinitro(3-(trinitromethyl)-1H-1,2,4-triazol-5-yl)methanide'
_symmetry_cell_setting           monoclinic
_symmetry_space_group_name_H-M   'P 21/c'
_symmetry_Int_Tables_number      14
_space_group_name_Hall           '-P 2ybc'
loop_
_symmetry_equiv_pos_site_id
_symmetry_equiv_pos_as_xyz
1 x,y,z
2 -x,1/2+y,1/2-z
3 -x,-y,-z
4 x,1/2-y,1/2+z
_cell_length_a                   12.337(2)
_cell_length_b                   11.4124(19)
_cell_length_c                   11.8204(19)
_cell_angle_alpha                90
_cell_angle_beta                 100.961(6)
_cell_angle_gamma                90
_cell_volume                     1633.89
_exptl_crystal_colour            colorless
_exptl_crystal_description       chunk
_cell_formula_units_Z            4
loop_
_atom_site_label
_atom_site_type_symbol
_atom_site_fract_x
_atom_site_fract_y
_atom_site_fract_z
O1 O 0.41083(13) 0.30273(16) 0.07370(14)
N1 N 0.45651(14) 0.22467(16) 0.13427(14)
C1 C 0.55004(16) 0.26537(16) 0.23207(16)
O2 O 0.67065(12) 0.10649(13) 0.28531(13)
N2 N 0.65761(13) 0.43925(14) 0.18953(13)
C2 C 0.63644(15) 0.32394(17) 0.17844(16)
C3 C 0.72882(15) 0.45486(16) 0.11754(15)
O3 O 0.44065(12) 0.12003(13) 0.12345(13)
N3 N 0.58918(13) 0.15610(14) 0.30462(14)
C4 C 0.77812(15) 0.56558(16) 0.09140(16)
O4 O 0.41231(12) 0.38221(13) 0.29018(14)
N4 N 0.76049(13) 0.66832(14) 0.15071(13)
O5 O 0.57523(13) 0.37061(13) 0.39976(13)
N5 N 0.68687(13) 0.26528(14) 0.10781(14)
N6 N 0.50681(15) 0.34829(15) 0.31458(15)
O6 O 0.53384(12) 0.12870(13) 0.37547(12)
N7 N 0.84177(13) 0.56943(14) 0.00639(13)
N8 N 0.74704(13) 0.35045(14) 0.07012(13)
H1 H 0.7919 0.3396 0.0214
O7 O 0.87057(11) 0.47244(12) -0.02933(12)
O8 O 0.87192(13) 0.66188(12) -0.03387(13)
O9 O 0.79920(11) 0.76462(11) 0.12745(12)
O10 O 0.70900(12) 0.65961(12) 0.22979(13)
C5 C 0.81744(15) 0.49741(17) 0.49142(15)
C6 C 0.91253(15) 0.27418(16) 0.33545(16)
C7 C 0.91697(15) 0.46617(16) 0.35987(15)
N9 N 0.85551(13) 0.41229(13) 0.42835(13)
N10 N 0.85206(13) 0.29026(13) 0.41624(14)
N11 N 0.93329(13) 0.17259(14) 0.28978(14)
H2 H 0.9060 0.1074 0.3127
H3 H 0.9743 0.1703 0.2365
N12 N 0.95338(13) 0.37852(13) 0.29823(13)
N13 N 1.02171(15) 0.39775(15) 0.21852(15)
H4 H 0.9876(18) 0.3766(19) 0.150(2)
H5 H 1.0842(18) 0.3595(19) 0.2411(18)
N14 N 0.75782(13) 0.48261(14) 0.57194(13)
H6 H 0.7410 0.5432 0.6112
H7 H 0.7349 0.4121 0.5863
N15 N 0.85951(13) 0.59634(14) 0.45718(13)
H8 H 0.8481 0.6657 0.4853
N16 N 0.92365(13) 0.57928(14) 0.37203(13)
loop_
_geom_bond_atom_site_label_1
_geom_bond_atom_site_label_2
_geom_bond_site_symmetry_1
_geom_bond_site_symmetry_2
O1 N1 1_555 1_555
N1 C1 1_555 1_555
C1 C2 1_555 1_555
O2 N3 1_555 1_555
N2 C2 1_555 1_555
C2 N5 1_555 1_555
C3 N2 1_555 1_555
O3 N1 1_555 1_555
N3 C1 1_555 1_555
C4 C3 1_555 1_555
O4 N6 1_555 1_555
N4 C4 1_555 1_555
O5 N6 1_555 1_555
N5 N8 1_555 1_555
N6 C1 1_555 1_555
O6 N3 1_555 1_555
N7 C4 1_555 1_555
N8 C3 1_555 1_555
H1 N8 1_555 1_555
O7 N7 1_555 1_555
O8 N7 1_555 1_555
O9 N4 1_555 1_555
O10 N4 1_555 1_555
C5 N9 1_555 1_555
C6 N10 1_555 1_555
C7 N9 1_555 1_555
N9 N10 1_555 1_555
N11 C6 1_555 1_555
H2 N11 1_555 1_555
H3 N11 1_555 1_555
N12 C6 1_555 1_555
N13 N12 1_555 1_555
H4 N13 1_555 1_555
H5 N13 1_555 1_555
N14 C5 1_555 1_555
H6 N14 1_555 1_555
H7 N14 1_555 1_555
N15 C5 1_555 1_555
H8 N15 1_555 1_555
N16 C7 1_555 1_555
C7 N12 1_555 1_555
N15 N16 1_555 1_555

#END
