
#######################################################################
#
#                 Cambridge Crystallographic Data Centre
#                                CCDC 
#
#######################################################################
#
# If this CIF has been generated from an entry in the Cambridge 
# Structural Database, then it will include bibliographic, chemical, 
# crystal, experimental, refinement or atomic coordinate data resulting 
# from the CCDC's data processing and validation procedures.
#
#######################################################################

data_FANNUD
_chemical_formula_moiety         'C6 H9 N1 O2'
_chemical_name_systematic        8-Oxa-6-azabicyclo(3.2.1)octan-7-one
_symmetry_cell_setting           orthorhombic
_symmetry_space_group_name_H-M   'P 21 21 21'
_symmetry_Int_Tables_number      19
_space_group_name_Hall           'P 2ac 2ab'
loop_
_symmetry_equiv_pos_site_id
_symmetry_equiv_pos_as_xyz
1 x,y,z
2 1/2+x,1/2-y,-z
3 -x,1/2+y,1/2-z
4 1/2-x,-y,1/2+z
_cell_length_a                   10.926(3)
_cell_length_b                   9.115(2)
_cell_length_c                   6.280(2)
_cell_angle_alpha                90
_cell_angle_beta                 90
_cell_angle_gamma                90
_cell_volume                     625.428
_exptl_crystal_colour            colorless
_cell_formula_units_Z            4
loop_
_atom_site_label
_atom_site_type_symbol
_atom_site_fract_x
_atom_site_fract_y
_atom_site_fract_z
C1 C 0.6462(2) 0.3455(2) 0.0045(4)
C2 C 0.5100(2) 0.3619(4) 0.0409(5)
C3 C 0.4725(2) 0.2920(4) 0.2510(5)
C4 C 0.5666(3) 0.3205(3) 0.4291(4)
C5 C 0.6953(2) 0.3090(3) 0.3445(4)
N1 N 0.7158(2) 0.1711(2) 0.2304(4)
C6 C 0.6830(2) 0.1853(3) 0.0277(4)
O1 O 0.7100(2) 0.4135(2) 0.1771(3)
O2 O 0.6783(2) 0.0914(2) -0.1118(3)
H1 H 0.673(2) 0.381(3) -0.117(5)
H2 H 0.495(3) 0.457(5) 0.039(7)
H3 H 0.469(3) 0.310(4) -0.061(8)
H4 H 0.396(2) 0.333(3) 0.297(5)
H5 H 0.470(2) 0.188(3) 0.232(5)
H6 H 0.551(3) 0.419(4) 0.494(6)
H7 H 0.548(4) 0.259(4) 0.547(9)
H8 H 0.764(2) 0.318(3) 0.451(6)
H9 H 0.742(3) 0.094(4) 0.296(7)
loop_
_geom_bond_atom_site_label_1
_geom_bond_atom_site_label_2
_geom_bond_site_symmetry_1
_geom_bond_site_symmetry_2
C1 C2 1_555 1_555
C2 C3 1_555 1_555
C3 C4 1_555 1_555
C4 C5 1_555 1_555
C5 N1 1_555 1_555
N1 C6 1_555 1_555
C6 C1 1_555 1_555
O1 C1 1_555 1_555
O2 C6 1_555 1_555
H1 C1 1_555 1_555
H2 C2 1_555 1_555
H3 C2 1_555 1_555
H4 C3 1_555 1_555
H5 C3 1_555 1_555
H6 C4 1_555 1_555
H7 C4 1_555 1_555
H8 C5 1_555 1_555
H9 N1 1_555 1_555
C5 O1 1_555 1_555

#END
