
#######################################################################
#
#                 Cambridge Crystallographic Data Centre
#                                CCDC 
#
#######################################################################
#
# If this CIF has been generated from an entry in the Cambridge 
# Structural Database, then it will include bibliographic, chemical, 
# crystal, experimental, refinement or atomic coordinate data resulting 
# from the CCDC's data processing and validation procedures.
#
#######################################################################

data_FANPES
_chemical_formula_moiety         'C25 H12 B1 F3 N6 O3 S1'
_chemical_name_systematic        
'14d-([(trifluoromethyl)sulfonyl]oxy)-14dH-5,9c,10,14c,14e,15-hexaaza-14d-boradibenzo[2,3:5,6]-s-indaceno[1,8,7-bcde]fluoranthene unknown solvate'
_symmetry_cell_setting           monoclinic
_symmetry_space_group_name_H-M   'P 21/c'
_symmetry_Int_Tables_number      14
_space_group_name_Hall           '-P 2ybc'
loop_
_symmetry_equiv_pos_site_id
_symmetry_equiv_pos_as_xyz
1 x,y,z
2 -x,1/2+y,1/2-z
3 -x,-y,-z
4 x,1/2-y,1/2+z
_cell_length_a                   11.109(2)
_cell_length_b                   19.380(4)
_cell_length_c                   23.085(5)
_cell_angle_alpha                90
_cell_angle_beta                 93.32(3)
_cell_angle_gamma                90
_cell_volume                     4961.68
_exptl_crystal_colour            red
_exptl_crystal_description       block
_cell_formula_units_Z            8
loop_
_atom_site_label
_atom_site_type_symbol
_atom_site_fract_x
_atom_site_fract_y
_atom_site_fract_z
S1 S -0.40826(10) 0.30911(6) -0.06032(5)
F1 F -0.5351(5) 0.4176(3) -0.0451(2)
F2 F -0.3934(4) 0.4047(2) 0.0192(2)
F3 F -0.5463(3) 0.3427(3) 0.02123(18)
O1 O -0.5049(3) 0.2752(2) -0.09155(15)
O2 O -0.3196(4) 0.3448(2) -0.08991(19)
O3 O -0.3505(3) 0.26412(15) -0.01351(14)
N1 N -0.2576(3) 0.16697(16) 0.03669(14)
N2 N -0.4193(3) 0.12506(17) 0.08935(14)
N3 N -0.4463(3) 0.14576(16) -0.01177(14)
N4 N -0.4498(3) 0.10788(18) -0.11006(15)
N5 N -0.2742(3) 0.16008(17) -0.06540(15)
N6 N -0.0811(3) 0.15211(18) -0.01471(16)
C1 C -0.1357(3) 0.1577(2) 0.03521(18)
C2 C -0.0946(4) 0.1389(2) 0.09336(18)
C3 C 0.0204(4) 0.1241(2) 0.1180(2)
H1 H 0.0902 0.1291 0.0964
C4 C 0.0284(4) 0.1020(2) 0.1748(2)
H2 H 0.1057 0.0926 0.1928
C5 C -0.0724(4) 0.0929(2) 0.2068(2)
H3 H -0.0624 0.0774 0.2458
C6 C -0.1878(4) 0.1059(2) 0.18269(19)
H4 H -0.2568 0.0986 0.2044
C7 C -0.1990(3) 0.1299(2) 0.12598(19)
C8 C -0.3027(3) 0.14365(19) 0.08637(17)
C9 C -0.4863(3) 0.1221(2) 0.03947(18)
C10 C -0.5962(3) 0.0838(2) 0.02343(18)
C11 C -0.6822(4) 0.0528(2) 0.0571(2)
H5 H -0.6748 0.0543 0.0983
C12 C -0.7783(4) 0.0200(2) 0.0280(2)
H6 H -0.8395 0.0000 0.0497
C13 C -0.7876(4) 0.0156(2) -0.0325(2)
H7 H -0.8554 -0.0067 -0.0511
C14 C -0.7004(4) 0.0430(2) -0.0655(2)
H8 H -0.7051 0.0377 -0.1065
C15 C -0.6057(4) 0.0784(2) -0.03784(19)
C16 C -0.5016(3) 0.1142(2) -0.05920(18)
C17 C -0.3337(4) 0.1269(2) -0.11107(18)
C18 C -0.2412(4) 0.1058(2) -0.14923(19)
C19 C -0.2485(5) 0.0735(2) -0.2030(2)
H9 H -0.3240 0.0628 -0.2225
C20 C -0.1394(5) 0.0574(3) -0.2272(2)
H10 H -0.1408 0.0360 -0.2642
C21 C -0.0287(5) 0.0720(2) -0.1982(2)
H11 H 0.0434 0.0600 -0.2161
C22 C -0.0210(4) 0.1026(2) -0.1455(2)
H12 H 0.0551 0.1118 -0.1262
C23 C -0.1280(4) 0.1203(2) -0.12022(19)
C24 C -0.1507(4) 0.1495(2) -0.06417(19)
C25 C -0.4749(5) 0.3730(3) -0.0134(3)
B1 B -0.3347(4) 0.1857(2) -0.0147(2)
S2 S 0.2874(4) 0.4180(2) 0.20382(19)
F4 F 0.3712(6) 0.5127(4) 0.1360(3)
F5 F 0.2421(6) 0.4483(4) 0.0924(3)
F6 F 0.1836(6) 0.5261(3) 0.1503(3)
O4 O 0.3779(5) 0.3744(3) 0.1827(3)
O5 O 0.2974(5) 0.4631(3) 0.2525(2)
O6 O 0.1652(2) 0.38584(14) 0.19790(11)
N7 N 0.1244(3) 0.30320(15) 0.11469(12)
N8 N 0.2951(3) 0.22907(17) 0.11758(13)
N9 N 0.1984(2) 0.25651(16) 0.20390(12)
N10 N 0.0591(3) 0.23232(16) 0.27628(12)
N11 N 0.0017(3) 0.30293(15) 0.19493(12)
N12 N -0.0865(3) 0.32406(15) 0.10023(13)
C26 C 0.2829(3) 0.22078(19) 0.17486(15)
C27 C 0.3300(3) 0.1691(2) 0.21561(16)
C28 C 0.4206(3) 0.1199(2) 0.21189(18)
H13 H 0.4681 0.1181 0.1790
C29 C 0.4398(4) 0.0743(3) 0.2568(2)
H14 H 0.5009 0.0403 0.2548
C30 C 0.3702(4) 0.0771(3) 0.3059(2)
H15 H 0.3877 0.0461 0.3372
C31 C 0.2781(4) 0.1235(2) 0.30941(17)
H16 H 0.2288 0.1231 0.3417
C32 C 0.2577(3) 0.1714(2) 0.26468(15)
C33 C 0.1672(3) 0.2237(2) 0.25344(14)
C34 C -0.0250(3) 0.26807(19) 0.24353(15)
C35 C -0.1552(3) 0.26635(19) 0.24317(16)
C36 C -0.2338(4) 0.2386(2) 0.28257(18)
H17 H -0.2042 0.2180 0.3179
C37 C -0.3566(4) 0.2424(2) 0.2679(2)
H18 H -0.4125 0.2257 0.2941
C38 C -0.3992(4) 0.2710(2) 0.2143(2)
H19 H -0.4837 0.2727 0.2054
C39 C -0.3236(3) 0.2962(2) 0.1747(2)
H20 H -0.3542 0.3142 0.1385
C40 C -0.1999(3) 0.29482(19) 0.18937(16)
C41 C -0.0961(3) 0.31312(19) 0.15695(16)
C42 C 0.0232(3) 0.31548(19) 0.07947(15)
C43 C 0.0579(3) 0.29952(19) 0.02110(16)
C44 C -0.0035(4) 0.3068(2) -0.03306(16)
H21 H -0.0820 0.3263 -0.0369
C45 C 0.0542(4) 0.2847(2) -0.08025(17)
H22 H 0.0156 0.2906 -0.1177
C46 C 0.1676(5) 0.2538(2) -0.07545(18)
H23 H 0.2036 0.2385 -0.1095
C47 C 0.2288(4) 0.2451(2) -0.02215(17)
H24 H 0.3056 0.2235 -0.0189
C48 C 0.1741(4) 0.2690(2) 0.02633(15)
C49 C 0.2120(3) 0.26719(19) 0.08792(15)
C50 C 0.2759(9) 0.4796(5) 0.1424(4)
B2 B 0.1267(3) 0.3126(2) 0.17792(17)
S3? S 0.2877(9) 0.4178(5) 0.1940(4)
C51? C 0.3435(15) 0.4023(9) 0.2648(7)
F7? F 0.4532(12) 0.4302(8) 0.2749(7)
F8? F 0.2806(13) 0.4299(8) 0.3064(6)
F9? F 0.3573(9) 0.3364(6) 0.2755(5)
O7? O 0.2708(13) 0.4896(6) 0.1919(7)
O8? O 0.3609(13) 0.3783(8) 0.1498(6)
loop_
_geom_bond_atom_site_label_1
_geom_bond_atom_site_label_2
_geom_bond_site_symmetry_1
_geom_bond_site_symmetry_2
S1 O1 1_555 1_555
F1 C25 1_555 1_555
F2 C25 1_555 1_555
F3 C25 1_555 1_555
O2 S1 1_555 1_555
O3 S1 1_555 1_555
N1 C1 1_555 1_555
N2 C8 1_555 1_555
N3 C9 1_555 1_555
N4 C16 1_555 1_555
N5 C17 1_555 1_555
N6 C1 1_555 1_555
C1 C2 1_555 1_555
C2 C3 1_555 1_555
C3 H1 1_555 1_555
C4 C3 1_555 1_555
H2 C4 1_555 1_555
C5 C4 1_555 1_555
H3 C5 1_555 1_555
C6 C5 1_555 1_555
H4 C6 1_555 1_555
C7 C2 1_555 1_555
C8 N1 1_555 1_555
C9 N2 1_555 1_555
C10 C9 1_555 1_555
C11 C10 1_555 1_555
H5 C11 1_555 1_555
C12 C11 1_555 1_555
H6 C12 1_555 1_555
C13 C12 1_555 1_555
H7 C13 1_555 1_555
C14 C13 1_555 1_555
H8 C14 1_555 1_555
C15 C10 1_555 1_555
C16 N3 1_555 1_555
C17 N4 1_555 1_555
C18 C17 1_555 1_555
C19 C18 1_555 1_555
H9 C19 1_555 1_555
C20 C19 1_555 1_555
H10 C20 1_555 1_555
C21 C20 1_555 1_555
H11 C21 1_555 1_555
C22 C21 1_555 1_555
H12 C22 1_555 1_555
C23 C18 1_555 1_555
C24 N5 1_555 1_555
C25 S1 1_555 1_555
B1 O3 1_555 1_555
S2 O4 1_555 1_555
F4 C50 1_555 1_555
F5 C50 1_555 1_555
F6 C50 1_555 1_555
O5 S2 1_555 1_555
O6 S2 1_555 1_555
N7 C42 1_555 1_555
N8 C26 1_555 1_555
N9 C26 1_555 1_555
N10 C33 1_555 1_555
N11 C34 1_555 1_555
N12 C41 1_555 1_555
C26 C27 1_555 1_555
C27 C28 1_555 1_555
C28 H13 1_555 1_555
C29 C28 1_555 1_555
H14 C29 1_555 1_555
C30 C29 1_555 1_555
H15 C30 1_555 1_555
C31 C30 1_555 1_555
H16 C31 1_555 1_555
C32 C27 1_555 1_555
C33 N9 1_555 1_555
C34 N10 1_555 1_555
C35 C34 1_555 1_555
C36 C35 1_555 1_555
H17 C36 1_555 1_555
C37 C36 1_555 1_555
H18 C37 1_555 1_555
C38 C37 1_555 1_555
H19 C38 1_555 1_555
C39 C38 1_555 1_555
H20 C39 1_555 1_555
C40 C35 1_555 1_555
C41 N11 1_555 1_555
C42 N12 1_555 1_555
C43 C42 1_555 1_555
C44 C43 1_555 1_555
H21 C44 1_555 1_555
C45 C44 1_555 1_555
H22 C45 1_555 1_555
C46 C45 1_555 1_555
H23 C46 1_555 1_555
C47 C46 1_555 1_555
H24 C47 1_555 1_555
C48 C43 1_555 1_555
C49 N7 1_555 1_555
C50 S2 1_555 1_555
B2 O6 1_555 1_555
N1 B1 1_555 1_555
N3 B1 1_555 1_555
N5 B1 1_555 1_555
N6 C24 1_555 1_555
C6 C7 1_555 1_555
C7 C8 1_555 1_555
C14 C15 1_555 1_555
C15 C16 1_555 1_555
C22 C23 1_555 1_555
C23 C24 1_555 1_555
N7 B2 1_555 1_555
N8 C49 1_555 1_555
N9 B2 1_555 1_555
N11 B2 1_555 1_555
C31 C32 1_555 1_555
C32 C33 1_555 1_555
C39 C40 1_555 1_555
C40 C41 1_555 1_555
C47 C48 1_555 1_555
C48 C49 1_555 1_555

#END
