
#######################################################################
#
#                 Cambridge Crystallographic Data Centre
#                                CCDC 
#
#######################################################################
#
# If this CIF has been generated from an entry in the Cambridge 
# Structural Database, then it will include bibliographic, chemical, 
# crystal, experimental, refinement or atomic coordinate data resulting 
# from the CCDC's data processing and validation procedures.
#
#######################################################################

data_FAQNOD
_chemical_formula_moiety         'C21 H19 B1 N4'
_chemical_name_systematic        
1,3,7,9-tetramethyl-10-phenyl-5H-6,5-dipyrrolo[1,2-c:2',1'-f][1,3,2]diazaborinine-5,5-dicarbonitrile
_symmetry_cell_setting           orthorhombic
_symmetry_space_group_name_H-M   'P c a 21'
_symmetry_Int_Tables_number      29
_space_group_name_Hall           'P 2c -2ac'
loop_
_symmetry_equiv_pos_site_id
_symmetry_equiv_pos_as_xyz
1 x,y,z
2 -x,-y,1/2+z
3 1/2+x,-y,z
4 1/2-x,y,1/2+z
_cell_length_a                   23.449(6)
_cell_length_b                   7.1532(18)
_cell_length_c                   21.231(5)
_cell_angle_alpha                90
_cell_angle_beta                 90
_cell_angle_gamma                90
_cell_volume                     3561.19
_exptl_crystal_colour            orange
_exptl_crystal_description       lath
_cell_formula_units_Z            8
loop_
_atom_site_label
_atom_site_type_symbol
_atom_site_fract_x
_atom_site_fract_y
_atom_site_fract_z
N1 N 0.33581(8) -0.1466(3) 0.35689(9)
N2 N 0.38726(8) 0.1541(3) 0.33901(9)
N3 N 0.28437(10) 0.0705(4) 0.21748(11)
N4 N 0.45759(10) -0.2049(3) 0.25505(11)
C1 C 0.30800(10) -0.3101(3) 0.34710(12)
C2 C 0.28434(10) -0.3687(4) 0.40414(12)
H1 H 0.2624 -0.4791 0.4099
C3 C 0.29774(10) -0.2414(3) 0.45084(12)
C4 C 0.33104(10) -0.0995(3) 0.42113(11)
C5 C 0.35542(10) 0.0655(3) 0.44385(11)
C6 C 0.38357(10) 0.1898(3) 0.40411(11)
C7 C 0.41292(10) 0.3619(3) 0.41590(12)
C8 C 0.43236(10) 0.4234(3) 0.35820(12)
H2 H 0.4533 0.5352 0.3512
C9 C 0.41643(10) 0.2950(3) 0.31166(12)
C10 C 0.30467(11) -0.4020(4) 0.28424(12)
H3 H 0.2761 -0.3383 0.2583
H4 H 0.2938 -0.5334 0.2896
H5 H 0.3419 -0.3948 0.2635
C11 C 0.27986(11) -0.2563(4) 0.51850(12)
H6 H 0.2469 -0.3399 0.5219
H7 H 0.2695 -0.1321 0.5343
H8 H 0.3115 -0.3065 0.5435
C12 C 0.42257(11) 0.4606(4) 0.47735(12)
H9 H 0.4520 0.5564 0.4719
H10 H 0.4350 0.3701 0.5092
H11 H 0.3870 0.5198 0.4911
C13 C 0.42947(12) 0.3033(4) 0.24293(12)
H12 H 0.4571 0.2056 0.2323
H13 H 0.4455 0.4260 0.2326
H14 H 0.3943 0.2836 0.2188
C14 C 0.35119(10) 0.1087(3) 0.51260(11)
C15 C 0.31053(10) 0.2362(3) 0.53421(12)
H15 H 0.2861 0.2972 0.5050
C16 C 0.30565(11) 0.2741(4) 0.59798(12)
H16 H 0.2775 0.3591 0.6126
C17 C 0.34211(11) 0.1873(4) 0.64046(12)
H17 H 0.3387 0.2124 0.6842
C18 C 0.38335(12) 0.0643(4) 0.61915(12)
H18 H 0.4089 0.0083 0.6483
C19 C 0.38761(11) 0.0223(4) 0.55553(12)
H19 H 0.4153 -0.0650 0.5413
C20 C 0.31888(10) 0.0299(3) 0.25305(12)
C21 C 0.41802(10) -0.1318(3) 0.27515(11)
B1 B 0.36480(12) -0.0229(4) 0.30664(13)
N5 N 0.07636(8) 0.6398(3) 0.50673(9)
N6 N 0.12665(8) 0.3366(3) 0.49315(9)
N7 N 0.00382(9) 0.2872(3) 0.59343(11)
N8 N 0.17688(10) 0.5629(3) 0.63110(11)
C22 C 0.04686(10) 0.7851(3) 0.53212(12)
C23 C 0.03201(10) 0.9090(3) 0.48409(12)
H20 H 0.0116 1.0225 0.4896
C24 C 0.05163(10) 0.8408(3) 0.42745(12)
C25 C 0.08033(10) 0.6696(3) 0.44149(11)
C26 C 0.10891(10) 0.5405(3) 0.40339(11)
C27 C 0.13284(10) 0.3777(3) 0.42881(11)
C28 C 0.16621(10) 0.2326(3) 0.40121(12)
C29 C 0.17845(10) 0.1082(3) 0.44950(12)
H21 H 0.2000 -0.0035 0.4453
C30 C 0.15394(10) 0.1735(3) 0.50541(12)
C31 C 0.03338(12) 0.7978(4) 0.60067(12)
H22 H 0.0045 0.7042 0.6115
H23 H 0.0188 0.9229 0.6103
H24 H 0.0680 0.7745 0.6252
C32 C 0.04233(11) 0.9337(4) 0.36480(12)
H25 H 0.0128 1.0298 0.3689
H26 H 0.0302 0.8402 0.3339
H27 H 0.0780 0.9918 0.3507
C33 C 0.18672(11) 0.2120(4) 0.33448(12)
H28 H 0.2189 0.1247 0.3333
H29 H 0.1989 0.3340 0.3184
H30 H 0.1557 0.1637 0.3082
C34 C 0.15696(11) 0.0881(4) 0.56937(12)
H31 H 0.1867 0.1504 0.5940
H32 H 0.1660 -0.0452 0.5655
H33 H 0.1201 0.1028 0.5906
C35 C 0.11255(10) 0.5742(3) 0.33410(11)
C36 C 0.07692(11) 0.4754(4) 0.29328(12)
H34 H 0.0510 0.3855 0.3096
C37 C 0.07918(11) 0.5083(4) 0.22885(12)
H35 H 0.0544 0.4424 0.2013
C38 C 0.11752(12) 0.6373(4) 0.20482(12)
H36 H 0.1191 0.6595 0.1607
C39 C 0.15357(11) 0.7342(4) 0.24507(12)
H37 H 0.1801 0.8217 0.2285
C40 C 0.15098(11) 0.7034(4) 0.30950(13)
H38 H 0.1755 0.7707 0.3370
C41 C 0.04323(10) 0.3600(3) 0.57307(11)
C42 C 0.14267(11) 0.5214(3) 0.59495(12)
B2 B 0.09735(12) 0.4642(4) 0.54130(13)
loop_
_geom_bond_atom_site_label_1
_geom_bond_atom_site_label_2
_geom_bond_site_symmetry_1
_geom_bond_site_symmetry_2
N1 C1 1_555 1_555
N2 C6 1_555 1_555
N3 C20 1_555 1_555
N4 C21 1_555 1_555
C1 C2 1_555 1_555
C2 H1 1_555 1_555
C3 C2 1_555 1_555
C4 N1 1_555 1_555
C5 C4 1_555 1_555
C6 C5 1_555 1_555
C7 C6 1_555 1_555
C8 C7 1_555 1_555
H2 C8 1_555 1_555
C9 N2 1_555 1_555
C10 C1 1_555 1_555
H3 C10 1_555 1_555
H4 C10 1_555 1_555
H5 C10 1_555 1_555
C11 C3 1_555 1_555
H6 C11 1_555 1_555
H7 C11 1_555 1_555
H8 C11 1_555 1_555
C12 C7 1_555 1_555
H9 C12 1_555 1_555
H10 C12 1_555 1_555
H11 C12 1_555 1_555
C13 C9 1_555 1_555
H12 C13 1_555 1_555
H13 C13 1_555 1_555
H14 C13 1_555 1_555
C14 C5 1_555 1_555
C15 C14 1_555 1_555
H15 C15 1_555 1_555
C16 C15 1_555 1_555
H16 C16 1_555 1_555
C17 C16 1_555 1_555
H17 C17 1_555 1_555
C18 C17 1_555 1_555
H18 C18 1_555 1_555
C19 C14 1_555 1_555
H19 C19 1_555 1_555
C20 B1 1_555 1_555
C21 B1 1_555 1_555
B1 N1 1_555 1_555
N5 C22 1_555 1_555
N6 C27 1_555 1_555
N7 C41 1_555 1_555
N8 C42 1_555 1_555
C22 C23 1_555 1_555
C23 H20 1_555 1_555
C24 C23 1_555 1_555
C25 N5 1_555 1_555
C26 C25 1_555 1_555
C27 C26 1_555 1_555
C28 C27 1_555 1_555
C29 C28 1_555 1_555
H21 C29 1_555 1_555
C30 N6 1_555 1_555
C31 C22 1_555 1_555
H22 C31 1_555 1_555
H23 C31 1_555 1_555
H24 C31 1_555 1_555
C32 C24 1_555 1_555
H25 C32 1_555 1_555
H26 C32 1_555 1_555
H27 C32 1_555 1_555
C33 C28 1_555 1_555
H28 C33 1_555 1_555
H29 C33 1_555 1_555
H30 C33 1_555 1_555
C34 C30 1_555 1_555
H31 C34 1_555 1_555
H32 C34 1_555 1_555
H33 C34 1_555 1_555
C35 C26 1_555 1_555
C36 C35 1_555 1_555
H34 C36 1_555 1_555
C37 C36 1_555 1_555
H35 C37 1_555 1_555
C38 C37 1_555 1_555
H36 C38 1_555 1_555
C39 C38 1_555 1_555
H37 C39 1_555 1_555
C40 C35 1_555 1_555
H38 C40 1_555 1_555
C41 B2 1_555 1_555
C42 B2 1_555 1_555
B2 N5 1_555 1_555
N2 B1 1_555 1_555
C3 C4 1_555 1_555
C8 C9 1_555 1_555
C18 C19 1_555 1_555
N6 B2 1_555 1_555
C24 C25 1_555 1_555
C29 C30 1_555 1_555
C39 C40 1_555 1_555

#END
