
#######################################################################
#
#                 Cambridge Crystallographic Data Centre
#                                CCDC 
#
#######################################################################
#
# If this CIF has been generated from an entry in the Cambridge 
# Structural Database, then it will include bibliographic, chemical, 
# crystal, experimental, refinement or atomic coordinate data resulting 
# from the CCDC's data processing and validation procedures.
#
#######################################################################

data_FARCIN
_chemical_formula_moiety         'C9 H7 I1 N4'
_chemical_name_systematic        
1-(4-iodophenyl)-N-(4H-1,2,4-triazol-4-yl)methanimine
_symmetry_cell_setting           monoclinic
_symmetry_space_group_name_H-M   'P 21/n'
_symmetry_Int_Tables_number      14
_space_group_name_Hall           '-P 2yn'
loop_
_symmetry_equiv_pos_site_id
_symmetry_equiv_pos_as_xyz
1 x,y,z
2 1/2-x,1/2+y,1/2-z
3 -x,-y,-z
4 1/2+x,1/2-y,1/2+z
_cell_length_a                   4.4720(9)
_cell_length_b                   11.701(2)
_cell_length_c                   19.032(4)
_cell_angle_alpha                90
_cell_angle_beta                 95.38(3)
_cell_angle_gamma                90
_cell_volume                     991.498
_cell_formula_units_Z            4
loop_
_atom_site_label
_atom_site_type_symbol
_atom_site_fract_x
_atom_site_fract_y
_atom_site_fract_z
I1 I 0.16287(11) 0.37267(4) 0.09294(3)
N1 N 1.4131(18) -0.0153(7) -0.2809(4)
C1 C 1.2640(18) 0.0553(8) -0.2442(4)
H1 H 1.2503 0.1335 -0.2529
N2 N 1.3826(17) -0.1216(6) -0.2516(4)
C2 C 1.217(2) -0.1072(7) -0.1975(5)
H2 H 1.1658 -0.1651 -0.1674
C3 C 0.8763(16) 0.1456(6) -0.1424(4)
H3 H 0.9303 0.1920 -0.1788
N3 N 1.1332(14) 0.0029(5) -0.1927(3)
N4 N 0.9581(14) 0.0395(5) -0.1403(3)
C4 C 0.7021(17) 0.1932(6) -0.0892(4)
C5 C 0.6423(17) 0.1327(6) -0.0295(4)
H4 H 0.7136 0.0583 -0.0237
C6 C 0.4791(18) 0.1797(6) 0.0219(4)
H5 H 0.4438 0.1383 0.0620
C7 C 0.3686(16) 0.2913(6) 0.0117(4)
C8 C 0.4204(16) 0.3512(6) -0.0473(4)
H6 H 0.3436 0.4247 -0.0538
C9 C 0.5896(17) 0.3025(6) -0.0984(4)
H7 H 0.6256 0.3441 -0.1384
loop_
_geom_bond_atom_site_label_1
_geom_bond_atom_site_label_2
_geom_bond_site_symmetry_1
_geom_bond_site_symmetry_2
I1 C7 1_555 1_555
N1 C1 1_555 1_555
C1 H1 1_555 1_555
N2 N1 1_555 1_555
C2 N2 1_555 1_555
H2 C2 1_555 1_555
C3 H3 1_555 1_555
N3 C1 1_555 1_555
N4 C3 1_555 1_555
C4 C3 1_555 1_555
C5 C4 1_555 1_555
H4 C5 1_555 1_555
C6 C5 1_555 1_555
H5 C6 1_555 1_555
C7 C6 1_555 1_555
C8 C7 1_555 1_555
H6 C8 1_555 1_555
C9 C4 1_555 1_555
H7 C9 1_555 1_555
C2 N3 1_555 1_555
N3 N4 1_555 1_555
C8 C9 1_555 1_555

#END
