
#######################################################################
#
#                 Cambridge Crystallographic Data Centre
#                                CCDC 
#
#######################################################################
#
# If this CIF has been generated from an entry in the Cambridge 
# Structural Database, then it will include bibliographic, chemical, 
# crystal, experimental, refinement or atomic coordinate data resulting 
# from the CCDC's data processing and validation procedures.
#
#######################################################################

data_FARDOU
_chemical_formula_moiety         'C23 H33 B11 N3 O7 S3 1-,C8 H20 N1 1+'
_chemical_name_systematic        
'tetraethylammonium 2,4-bis(p-tosylamino)-1-(p-tosylaminocarbonyl)-1-carba-closo-dodecaborate'
_symmetry_cell_setting           monoclinic
_symmetry_space_group_name_H-M   'P 21/n'
_symmetry_Int_Tables_number      14
_space_group_name_Hall           '-P 2yn'
loop_
_symmetry_equiv_pos_site_id
_symmetry_equiv_pos_as_xyz
1 x,y,z
2 1/2-x,1/2+y,1/2-z
3 -x,-y,-z
4 1/2+x,1/2-y,1/2+z
_cell_length_a                   11.7951(8)
_cell_length_b                   18.4270(10)
_cell_length_c                   20.4333(16)
_cell_angle_alpha                90
_cell_angle_beta                 99.150(7)
_cell_angle_gamma                90
_cell_volume                     4384.63
_exptl_crystal_colour            colorless
_exptl_crystal_description       block
_cell_formula_units_Z            4
loop_
_atom_site_label
_atom_site_type_symbol
_atom_site_fract_x
_atom_site_fract_y
_atom_site_fract_z
S1 S 0.10075(10) 0.18836(6) 0.19600(6)
S2 S 0.0353(2) 0.35992(10) 0.34644(11)
S3 S 0.11504(9) 0.55833(6) 0.17401(6)
O1 O 0.0977(3) 0.12756(17) 0.2398(2)
O2 O 0.0161(3) 0.24385(18) 0.19582(19)
O3 O 0.0675(7) 0.3035(3) 0.3885(3)
O4 O -0.0753(6) 0.3598(4) 0.3126(4)
O5 O 0.2847(5) 0.3815(4) 0.3478(2)
O6 O 0.0212(3) 0.50855(18) 0.15949(19)
O7 O 0.1031(3) 0.61790(17) 0.21773(19)
N1 N 0.2254(3) 0.2233(2) 0.21473(19)
H1 H 0.2744 0.1888 0.2142
N2 N 0.1124(4) 0.3661(2) 0.2861(2)
H2 H 0.0761 0.3646 0.2461
N3 N 0.2272(3) 0.51476(19) 0.20698(18)
H3 H 0.2824 0.5454 0.2164
C1 C 0.0834(6) 0.1533(4) 0.1152(3)
C2 C 0.0236(6) 0.1899(4) 0.0631(3)
H4 H -0.0100 0.2343 0.0701
C3 C 0.0126(7) 0.1617(5) 0.0000(4)
H5 H -0.0334 0.1854 -0.0347
C4 C 0.0660(9) 0.1018(6) -0.0120(4)
C5 C 0.1122(8) 0.0563(5) 0.0435(5)
H6 H 0.1312 0.0081 0.0372
C6 C 0.1272(8) 0.0860(5) 0.1058(4)
H7 H 0.1671 0.0605 0.1415
C7 C 0.0630(11) 0.0731(8) -0.0855(6)
H8 H 0.0139 0.1038 -0.1157
H9 H 0.0339 0.0244 -0.0888
H10 H 0.1392 0.0739 -0.0963
C8 C 0.2805(4) 0.3704(2) 0.2324(2)
C9 C 0.2291(5) 0.3736(3) 0.2941(3)
C10 C 0.0623(10) 0.4425(4) 0.3891(5)
C11 C 0.0459(9) 0.5067(4) 0.3556(5)
H11 H 0.0272 0.5068 0.3096
C12 C 0.0569(11) 0.5702(5) 0.3894(6)
H12 H 0.0306 0.6136 0.3691
C13 C 0.1142(11) 0.5682(5) 0.4623(6)
C14 C 0.1367(10) 0.5007(5) 0.4948(6)
H13 H 0.1625 0.4993 0.5402
C15 C 0.1204(10) 0.4371(5) 0.4592(6)
H14 H 0.1446 0.3927 0.4781
C16 C 0.1359(13) 0.6377(5) 0.5017(7)
H15 H 0.1173 0.6305 0.5453
H16 H 0.0889 0.6758 0.4798
H17 H 0.2154 0.6510 0.5051
C17 C 0.1425(4) 0.5945(2) 0.0987(2)
C18 C 0.0721(5) 0.5800(3) 0.0402(3)
H18 H 0.0070 0.5517 0.0408
C19 C 0.0946(6) 0.6058(4) -0.0184(3)
H19 H 0.0446 0.5953 -0.0572
C20 C 0.1909(7) 0.6473(4) -0.0213(3)
C21 C 0.2623(7) 0.6655(4) 0.0379(4)
H20 H 0.3253 0.6957 0.0373
C22 C 0.2380(6) 0.6379(4) 0.0975(3)
H21 H 0.2862 0.6487 0.1369
C23 C 0.2226(8) 0.6750(6) -0.0858(4)
H22 H 0.1641 0.6614 -0.1219
H23 H 0.2946 0.6542 -0.0923
H24 H 0.2293 0.7269 -0.0840
B1 B 0.2753(5) 0.2895(3) 0.1880(3)
B2 B 0.4060(4) 0.3220(3) 0.2362(3)
H25 H 0.4482 0.2928 0.2804
B3 B 0.4038(5) 0.4179(3) 0.2323(3)
H26 H 0.4448 0.4507 0.2745
B4 B 0.2748(4) 0.4475(3) 0.1826(3)
B5 B 0.1954(5) 0.3672(3) 0.1560(3)
H27 H 0.1009 0.3669 0.1487
B6 B 0.2744(5) 0.3164(3) 0.1043(3)
H28 H 0.2324 0.2835 0.0624
B7 B 0.4063(5) 0.2884(3) 0.1558(4)
H29 H 0.4494 0.2370 0.1475
B8 B 0.4843(6) 0.3681(3) 0.1814(4)
H30 H 0.5788 0.3686 0.1896
B9 B 0.4042(5) 0.4445(3) 0.1488(3)
H31 H 0.4464 0.4946 0.1359
B10 B 0.2736(5) 0.4129(3) 0.1016(3)
H32 H 0.2297 0.4421 0.0578
B11 B 0.4058(6) 0.3656(3) 0.1007(4)
H33 H 0.4485 0.3643 0.0566
N4 N -0.2735(4) 0.6252(3) 0.1757(3)
C24 C -0.1723(7) 0.6554(6) 0.1438(7)
H34 H -0.1385 0.6165 0.1214
H35 H -0.1137 0.6745 0.1782
C25 C -0.2149(12) 0.7165(7) 0.0933(7)
H36 H -0.2102 0.7001 0.0492
H37 H -0.1676 0.7588 0.1031
H38 H -0.2931 0.7284 0.0964
C26 C -0.3211(8) 0.6887(6) 0.2074(7)
H39 H -0.3871 0.6741 0.2272
H40 H -0.3453 0.7260 0.1747
C27 C -0.2247(9) 0.7182(7) 0.2615(7)
H41 H -0.1512 0.7039 0.2513
H42 H -0.2342 0.6987 0.3039
H43 H -0.2290 0.7702 0.2629
C28 C -0.2207(10) 0.5686(6) 0.2205(6)
H44 H -0.1593 0.5904 0.2514
H45 H -0.1862 0.5331 0.1947
C29 C -0.2993(12) 0.5291(7) 0.2598(8)
H46 H -0.3775 0.5427 0.2440
H47 H -0.2799 0.5417 0.3058
H48 H -0.2908 0.4777 0.2546
C30 C -0.3747(11) 0.6087(9) 0.1259(6)
H49 H -0.3950 0.6491 0.0960
H50 H -0.4404 0.5954 0.1465
C31 C -0.3211(17) 0.5321(8) 0.0841(8)
H51 H -0.3843 0.5074 0.0579
H52 H -0.2817 0.4992 0.1165
H53 H -0.2690 0.5491 0.0559
loop_
_geom_bond_atom_site_label_1
_geom_bond_atom_site_label_2
_geom_bond_site_symmetry_1
_geom_bond_site_symmetry_2
S1 O1 1_555 1_555
S2 O3 1_555 1_555
S3 O6 1_555 1_555
O2 S1 1_555 1_555
O4 S2 1_555 1_555
O5 C9 1_555 1_555
O7 S3 1_555 1_555
N1 S1 1_555 1_555
H1 N1 1_555 1_555
N2 S2 1_555 1_555
H2 N2 1_555 1_555
N3 S3 1_555 1_555
H3 N3 1_555 1_555
C1 S1 1_555 1_555
C2 C1 1_555 1_555
H4 C2 1_555 1_555
C3 C2 1_555 1_555
H5 C3 1_555 1_555
C4 C3 1_555 1_555
C5 C4 1_555 1_555
H6 C5 1_555 1_555
C6 C1 1_555 1_555
H7 C6 1_555 1_555
C7 C4 1_555 1_555
H8 C7 1_555 1_555
H9 C7 1_555 1_555
H10 C7 1_555 1_555
C8 C9 1_555 1_555
C9 N2 1_555 1_555
C10 S2 1_555 1_555
C11 C10 1_555 1_555
H11 C11 1_555 1_555
C12 C11 1_555 1_555
H12 C12 1_555 1_555
C13 C12 1_555 1_555
C14 C13 1_555 1_555
H13 C14 1_555 1_555
C15 C10 1_555 1_555
H14 C15 1_555 1_555
C16 C13 1_555 1_555
H15 C16 1_555 1_555
H16 C16 1_555 1_555
H17 C16 1_555 1_555
C17 S3 1_555 1_555
C18 C17 1_555 1_555
H18 C18 1_555 1_555
C19 C18 1_555 1_555
H19 C19 1_555 1_555
C20 C19 1_555 1_555
C21 C20 1_555 1_555
H20 C21 1_555 1_555
C22 C17 1_555 1_555
H21 C22 1_555 1_555
C23 C20 1_555 1_555
H22 C23 1_555 1_555
H23 C23 1_555 1_555
H24 C23 1_555 1_555
B1 N1 1_555 1_555
B2 C8 1_555 1_555
H25 B2 1_555 1_555
B3 C8 1_555 1_555
H26 B3 1_555 1_555
B4 N3 1_555 1_555
B5 C8 1_555 1_555
H27 B5 1_555 1_555
B6 B1 1_555 1_555
H28 B6 1_555 1_555
B7 B1 1_555 1_555
H29 B7 1_555 1_555
B8 B2 1_555 1_555
H30 B8 1_555 1_555
B9 B3 1_555 1_555
H31 B9 1_555 1_555
B10 B4 1_555 1_555
H32 B10 1_555 1_555
B11 B6 1_555 1_555
H33 B11 1_555 1_555
N4 C24 1_555 1_555
C24 H34 1_555 1_555
H35 C24 1_555 1_555
C25 C24 1_555 1_555
H36 C25 1_555 1_555
H37 C25 1_555 1_555
H38 C25 1_555 1_555
C26 N4 1_555 1_555
H39 C26 1_555 1_555
H40 C26 1_555 1_555
C27 C26 1_555 1_555
H41 C27 1_555 1_555
H42 C27 1_555 1_555
H43 C27 1_555 1_555
C28 N4 1_555 1_555
H44 C28 1_555 1_555
H45 C28 1_555 1_555
C29 C28 1_555 1_555
H46 C29 1_555 1_555
H47 C29 1_555 1_555
H48 C29 1_555 1_555
C30 N4 1_555 1_555
H49 C30 1_555 1_555
H50 C30 1_555 1_555
C31 C30 1_555 1_555
H51 C31 1_555 1_555
H52 C31 1_555 1_555
H53 C31 1_555 1_555
C5 C6 1_555 1_555
C8 B1 1_555 1_555
C8 B4 1_555 1_555
C14 C15 1_555 1_555
C21 C22 1_555 1_555
B1 B2 1_555 1_555
B1 B5 1_555 1_555
B2 B3 1_555 1_555
B2 B7 1_555 1_555
B3 B4 1_555 1_555
B3 B8 1_555 1_555
B4 B5 1_555 1_555
B4 B9 1_555 1_555
B5 B6 1_555 1_555
B5 B10 1_555 1_555
B6 B7 1_555 1_555
B6 B10 1_555 1_555
B7 B8 1_555 1_555
B7 B11 1_555 1_555
B8 B9 1_555 1_555
B8 B11 1_555 1_555
B9 B10 1_555 1_555
B9 B11 1_555 1_555
B10 B11 1_555 1_555

#END
