
#######################################################################
#
#                 Cambridge Crystallographic Data Centre
#                                CCDC 
#
#######################################################################
#
# If this CIF has been generated from an entry in the Cambridge 
# Structural Database, then it will include bibliographic, chemical, 
# crystal, experimental, refinement or atomic coordinate data resulting 
# from the CCDC's data processing and validation procedures.
#
#######################################################################

data_FASFUB01
_chemical_name_common            'PDB Chemical Component code: 1M1'
_chemical_formula_moiety         'C19 H14 N4'
_chemical_name_systematic        
6-(Pyridin-2-yl)-5,6-dihydrobenzimidazo[1,2-c]quinazoline
_symmetry_cell_setting           monoclinic
_symmetry_space_group_name_H-M   'P 21/c'
_symmetry_Int_Tables_number      14
_space_group_name_Hall           '-P 2ybc'
loop_
_symmetry_equiv_pos_site_id
_symmetry_equiv_pos_as_xyz
1 x,y,z
2 -x,1/2+y,1/2-z
3 -x,-y,-z
4 x,1/2-y,1/2+z
_cell_length_a                   8.724(11)
_cell_length_b                   13.085(15)
_cell_length_c                   13.323(15)
_cell_angle_alpha                90
_cell_angle_beta                 97.447(10)
_cell_angle_gamma                90
_cell_volume                     1508.04
_exptl_crystal_colour            white
_exptl_crystal_description       parallelepiped
_cell_formula_units_Z            4
loop_
_atom_site_label
_atom_site_type_symbol
_atom_site_fract_x
_atom_site_fract_y
_atom_site_fract_z
C1 C 1.1375(2) 0.13238(15) 0.07205(15)
H1 H 1.1351 0.1452 0.1405
C2 C 1.2086(3) 0.04542(17) 0.04263(17)
H2 H 1.2558 0.0003 0.0910
C3 C 1.2094(2) 0.02535(16) -0.05979(18)
H3 H 1.2557 -0.0341 -0.0796
C4 C 1.1425(2) 0.09220(15) -0.13214(15)
H4 H 1.1443 0.0776 -0.2003
C5 C 1.0717(2) 0.18215(14) -0.10444(13)
N1 N 1.01143(18) 0.25306(13) -0.17612(11)
H5 H 1.004(2) 0.2334(15) -0.2383(13)
C6 C 0.8929(2) 0.32644(14) -0.15784(12)
H6 H 0.9089 0.3889 -0.1957
C7 C 0.7301(2) 0.28746(13) -0.19263(13)
N2 N 0.6713(2) 0.31588(16) -0.28566(13)
C8 C 0.5306(3) 0.2789(2) -0.3212(2)
H7 H 0.4877 0.2979 -0.3860
C9 C 0.4476(3) 0.2154(2) -0.2681(2)
H8 H 0.3511 0.1916 -0.2964
C10 C 0.5091(3) 0.1870(2) -0.1717(2)
H9 H 0.4548 0.1440 -0.1334
C11 C 0.6533(3) 0.22387(17) -0.13327(19)
H10 H 0.6978 0.2061 -0.0684
N3 N 0.91283(17) 0.35153(11) -0.05034(10)
C12 C 0.8357(2) 0.42845(13) -0.00480(14)
C13 C 0.7365(2) 0.50577(15) -0.04403(16)
H11 H 0.7114 0.5151 -0.1134
C14 C 0.6770(3) 0.56813(17) 0.02501(19)
H12 H 0.6105 0.6209 0.0017
C15 C 0.7147(3) 0.55368(17) 0.12951(19)
H13 H 0.6728 0.5972 0.1740
C16 C 0.8127(3) 0.47634(16) 0.16782(16)
H14 H 0.8371 0.4672 0.2373
C17 C 0.8739(2) 0.41234(14) 0.09955(14)
N4 N 0.97129(19) 0.32750(12) 0.11701(11)
C18 C 0.9884(2) 0.29286(13) 0.02604(13)
C19 C 1.0690(2) 0.20138(13) -0.00016(13)
loop_
_geom_bond_atom_site_label_1
_geom_bond_atom_site_label_2
_geom_bond_site_symmetry_1
_geom_bond_site_symmetry_2
C1 H1 1_555 1_555
C2 C1 1_555 1_555
H2 C2 1_555 1_555
C3 C2 1_555 1_555
H3 C3 1_555 1_555
C4 C3 1_555 1_555
H4 C4 1_555 1_555
C5 C4 1_555 1_555
N1 C5 1_555 1_555
H5 N1 1_555 1_555
C6 N1 1_555 1_555
H6 C6 1_555 1_555
C7 C6 1_555 1_555
N2 C7 1_555 1_555
C8 N2 1_555 1_555
H7 C8 1_555 1_555
C9 C8 1_555 1_555
H8 C9 1_555 1_555
C10 C9 1_555 1_555
H9 C10 1_555 1_555
C11 C7 1_555 1_555
H10 C11 1_555 1_555
N3 C6 1_555 1_555
C12 N3 1_555 1_555
C13 C12 1_555 1_555
H11 C13 1_555 1_555
C14 C13 1_555 1_555
H12 C14 1_555 1_555
C15 C14 1_555 1_555
H13 C15 1_555 1_555
C16 C15 1_555 1_555
H14 C16 1_555 1_555
C17 C12 1_555 1_555
N4 C17 1_555 1_555
C18 N3 1_555 1_555
C19 C1 1_555 1_555
C5 C19 1_555 1_555
C10 C11 1_555 1_555
C16 C17 1_555 1_555
N4 C18 1_555 1_555
C18 C19 1_555 1_555

#END
