
#######################################################################
#
#                 Cambridge Crystallographic Data Centre
#                                CCDC 
#
#######################################################################
#
# If this CIF has been generated from an entry in the Cambridge 
# Structural Database, then it will include bibliographic, chemical, 
# crystal, experimental, refinement or atomic coordinate data resulting 
# from the CCDC's data processing and validation procedures.
#
#######################################################################

data_FASYAB
_chemical_formula_moiety         'C15 H12 Br2 N2 O2'
_chemical_name_systematic        
2,4-Dibromo-6-(((3-(N-hydroxyethanimidoyl)phenyl)imino)methyl)phenol
_symmetry_cell_setting           monoclinic
_symmetry_space_group_name_H-M   'P 21/n'
_symmetry_Int_Tables_number      14
_space_group_name_Hall           '-P 2yn'
loop_
_symmetry_equiv_pos_site_id
_symmetry_equiv_pos_as_xyz
1 x,y,z
2 1/2-x,1/2+y,1/2-z
3 -x,-y,-z
4 1/2+x,1/2-y,1/2+z
_cell_length_a                   12.6952(14)
_cell_length_b                   9.3693(13)
_cell_length_c                   13.8755(18)
_cell_angle_alpha                90
_cell_angle_beta                 114.9400(10)
_cell_angle_gamma                90
_cell_volume                     1496.52
_exptl_crystal_colour            brown
_exptl_crystal_description       block
_chemical_melting_point          '441-442 K'
_cell_formula_units_Z            4
loop_
_atom_site_label
_atom_site_type_symbol
_atom_site_fract_x
_atom_site_fract_y
_atom_site_fract_z
Br1 Br 0.65807(8) 0.04273(12) 0.81414(7)
Br2 Br 0.20783(6) -0.11195(9) 0.51520(7)
N1 N 0.8956(5) 0.5915(7) 0.4294(6)
N2 N 0.5509(5) 0.3575(6) 0.4516(5)
O1 O 1.0050(4) 0.6564(7) 0.4538(6)
H1 H 1.0569 0.6048 0.4944
O2 O 0.6437(4) 0.2384(6) 0.6387(4)
H2 H 0.6391 0.2926 0.5907
C1 C 0.8277(7) 0.8062(8) 0.3234(8)
H3 H 0.8855 0.8604 0.3795
H4 H 0.7556 0.8577 0.2955
H5 H 0.8526 0.7906 0.2678
C2 C 0.8111(6) 0.6660(8) 0.3659(6)
C3 C 0.6932(6) 0.6076(7) 0.3378(5)
C4 C 0.6718(6) 0.5084(7) 0.4019(5)
H6 H 0.7333 0.4782 0.4640
C5 C 0.5622(5) 0.4531(7) 0.3769(5)
C6 C 0.4708(6) 0.4965(8) 0.2810(6)
H7 H 0.3966 0.4593 0.2611
C7 C 0.4911(6) 0.5930(8) 0.2175(6)
H8 H 0.4299 0.6214 0.1545
C8 C 0.6000(6) 0.6499(8) 0.2440(6)
H9 H 0.6113 0.7163 0.1995
C9 C 0.4601(6) 0.2811(7) 0.4304(5)
H10 H 0.3982 0.2884 0.3637
C10 C 0.4517(5) 0.1831(7) 0.5084(5)
C11 C 0.5448(5) 0.1661(7) 0.6096(5)
C12 C 0.5325(6) 0.0684(8) 0.6799(6)
C13 C 0.4328(6) -0.0113(7) 0.6538(6)
H11 H 0.4261 -0.0750 0.7023
C14 C 0.3425(6) 0.0058(7) 0.5531(6)
C15 C 0.3508(6) 0.1013(7) 0.4807(6)
H12 H 0.2896 0.1112 0.4139
loop_
_geom_bond_atom_site_label_1
_geom_bond_atom_site_label_2
_geom_bond_site_symmetry_1
_geom_bond_site_symmetry_2
Br1 C12 1_555 1_555
Br2 C14 1_555 1_555
N1 O1 1_555 1_555
N2 C5 1_555 1_555
O1 H1 1_555 1_555
O2 H2 1_555 1_555
C1 H3 1_555 1_555
H4 C1 1_555 1_555
H5 C1 1_555 1_555
C2 N1 1_555 1_555
C3 C2 1_555 1_555
C4 C3 1_555 1_555
H6 C4 1_555 1_555
C5 C4 1_555 1_555
C6 C5 1_555 1_555
H7 C6 1_555 1_555
C7 C6 1_555 1_555
H8 C7 1_555 1_555
C8 C3 1_555 1_555
H9 C8 1_555 1_555
C9 N2 1_555 1_555
H10 C9 1_555 1_555
C10 C9 1_555 1_555
C11 O2 1_555 1_555
C12 C11 1_555 1_555
C13 C12 1_555 1_555
H11 C13 1_555 1_555
C14 C13 1_555 1_555
C15 C10 1_555 1_555
H12 C15 1_555 1_555
C1 C2 1_555 1_555
C7 C8 1_555 1_555
C10 C11 1_555 1_555
C14 C15 1_555 1_555

#END
