
#######################################################################
#
#                 Cambridge Crystallographic Data Centre
#                                CCDC 
#
#######################################################################
#
# If this CIF has been generated from an entry in the Cambridge 
# Structural Database, then it will include bibliographic, chemical, 
# crystal, experimental, refinement or atomic coordinate data resulting 
# from the CCDC's data processing and validation procedures.
#
#######################################################################

data_FAVCIQ
_chemical_formula_moiety         'C14 H15 N3'
_chemical_name_systematic        '(E)-2-Aminoacetophenone phenylhydrazone'
_symmetry_cell_setting           monoclinic
_symmetry_space_group_name_H-M   'P 21'
_symmetry_Int_Tables_number      4
_space_group_name_Hall           'P 2yb'
loop_
_symmetry_equiv_pos_site_id
_symmetry_equiv_pos_as_xyz
1 x,y,z
2 -x,1/2+y,-z
_cell_length_a                   5.9544(3)
_cell_length_b                   9.4214(5)
_cell_length_c                   10.8369(6)
_cell_angle_alpha                90
_cell_angle_beta                 99.746(3)
_cell_angle_gamma                90
_cell_volume                     599.163
_exptl_crystal_colour            colorless
_exptl_crystal_description       block
_cell_formula_units_Z            2
loop_
_atom_site_label
_atom_site_type_symbol
_atom_site_fract_x
_atom_site_fract_y
_atom_site_fract_z
N1 N 0.5124(4) 0.4832(3) 0.3156(2)
N2 N 0.3298(5) 0.4670(3) 0.2186(2)
H1 H 0.200(6) 0.447(4) 0.244(3)
N3 N 0.9596(5) 0.5471(3) 0.3865(3)
H2 H 1.061(5) 0.617(3) 0.394(3)
H3 H 0.829(4) 0.571(4) 0.334(3)
C1 C 0.7260(5) 0.4095(3) 0.5101(3)
C2 C 0.9273(5) 0.4865(3) 0.4993(3)
C3 C 1.1028(5) 0.4954(4) 0.6032(3)
H4 H 1.2402 0.5428 0.5946
C4 C 1.0813(6) 0.4377(4) 0.7167(3)
H5 H 1.2025 0.4457 0.7857
C5 C 0.8812(6) 0.3671(3) 0.7309(3)
H6 H 0.8632 0.3291 0.8098
C6 C 0.7094(6) 0.3532(3) 0.6283(3)
H7 H 0.5747 0.3036 0.6382
C7 C 0.5327(5) 0.3917(3) 0.4057(3)
C8 C 0.3723(6) 0.2680(4) 0.4046(3)
H8 H 0.2236 0.3023 0.4193
H9 H 0.4344 0.2009 0.4708
H10 H 0.3545 0.2204 0.3232
C9 C 0.3073(5) 0.5657(3) 0.1207(3)
C10 C 0.0996(6) 0.5789(4) 0.0413(3)
H11 H -0.0269 0.5236 0.0556
C11 C 0.0759(6) 0.6717(4) -0.0582(3)
H12 H -0.0672 0.6798 -0.1119
C12 C 0.2575(6) 0.7534(4) -0.0812(3)
H13 H 0.2403 0.8170 -0.1502
C13 C 0.4627(6) 0.7410(4) -0.0027(3)
H14 H 0.5877 0.7976 -0.0172
C14 C 0.4914(6) 0.6475(4) 0.0976(3)
H15 H 0.6355 0.6391 0.1502
loop_
_geom_bond_atom_site_label_1
_geom_bond_atom_site_label_2
_geom_bond_site_symmetry_1
_geom_bond_site_symmetry_2
N1 N2 1_555 1_555
N2 H1 1_555 1_555
N3 H2 1_555 1_555
H3 N3 1_555 1_555
C1 C2 1_555 1_555
C2 N3 1_555 1_555
C3 C2 1_555 1_555
H4 C3 1_555 1_555
C4 C3 1_555 1_555
H5 C4 1_555 1_555
C5 C4 1_555 1_555
H6 C5 1_555 1_555
C6 C1 1_555 1_555
H7 C6 1_555 1_555
C7 N1 1_555 1_555
C8 C7 1_555 1_555
H8 C8 1_555 1_555
H9 C8 1_555 1_555
H10 C8 1_555 1_555
C9 N2 1_555 1_555
C10 C9 1_555 1_555
H11 C10 1_555 1_555
C11 C10 1_555 1_555
H12 C11 1_555 1_555
C12 C11 1_555 1_555
H13 C12 1_555 1_555
C13 C12 1_555 1_555
H14 C13 1_555 1_555
C14 C9 1_555 1_555
H15 C14 1_555 1_555
C1 C7 1_555 1_555
C5 C6 1_555 1_555
C13 C14 1_555 1_555

#END
