
#######################################################################
#
#                 Cambridge Crystallographic Data Centre
#                                CCDC 
#
#######################################################################
#
# If this CIF has been generated from an entry in the Cambridge 
# Structural Database, then it will include bibliographic, chemical, 
# crystal, experimental, refinement or atomic coordinate data resulting 
# from the CCDC's data processing and validation procedures.
#
#######################################################################

data_FAVDUD
_chemical_formula_moiety         'C7 H10 N4 2+,2(C7 H4 N1 O4 1-)'
_chemical_name_systematic        
'bis(Imidazol-3-ium-1-yl)methane bis(4-nitrobenzoate)'
_symmetry_cell_setting           monoclinic
_symmetry_space_group_name_H-M   'C 2/c'
_symmetry_Int_Tables_number      15
_space_group_name_Hall           '-C 2yn'
loop_
_symmetry_equiv_pos_site_id
_symmetry_equiv_pos_as_xyz
1 x,y,z
2 -x,y,1/2-z
3 1/2+x,1/2+y,z
4 1/2-x,1/2+y,1/2-z
5 -x,-y,-z
6 x,-y,1/2+z
7 1/2-x,1/2-y,-z
8 1/2+x,1/2-y,1/2+z
_cell_length_a                   26.565(2)
_cell_length_b                   7.5095(6)
_cell_length_c                   11.4005(14)
_cell_angle_alpha                90
_cell_angle_beta                 109.6220(10)
_cell_angle_gamma                90
_cell_volume                     2142.21
_exptl_crystal_colour            colorless
_exptl_crystal_description       block
_cell_formula_units_Z            4
loop_
_atom_site_label
_atom_site_type_symbol
_atom_site_fract_x
_atom_site_fract_y
_atom_site_fract_z
N1 N 0.10505(9) 0.5741(3) 0.3745(2)
O1 O 0.32361(7) 0.7225(2) 0.81331(16)
O2 O 0.35151(7) 0.5119(3) 0.71582(16)
O3 O 0.09743(8) 0.4761(3) 0.28494(17)
O4 O 0.07099(8) 0.6686(3) 0.3912(2)
C1 C 0.31672(9) 0.6075(3) 0.7262(2)
C2 C 0.26083(9) 0.5959(3) 0.63611(18)
C3 C 0.21968(9) 0.6925(3) 0.6538(2)
H2 H 0.2268 0.7647 0.7238
C4 C 0.16821(9) 0.6843(3) 0.5701(2)
H3 H 0.1406 0.7484 0.5832
C5 C 0.15921(9) 0.5791(3) 0.46746(19)
C6 C 0.19843(10) 0.4809(3) 0.4463(2)
H4 H 0.1909 0.4095 0.3758
C7 C 0.24986(10) 0.4893(3) 0.5316(2)
H5 H 0.2771 0.4231 0.5184
N2 N 0.47719(8) 0.6109(2) 0.13951(16)
N3 N 0.41755(8) 0.7178(3) -0.02572(17)
H1 H 0.3874 0.7414 -0.0819
C8 C 0.42525(10) 0.6192(3) 0.0723(2)
H6 H 0.3983 0.5621 0.0929
C9 C 0.46640(10) 0.7763(3) -0.0225(2)
H7 H 0.4729 0.8500 -0.0814
C10 C 0.50374(10) 0.7107(3) 0.0793(2)
H8 H 0.5404 0.7295 0.1038
C11 C 0.5000 0.5047(5) 0.2500
H9 H 0.4724 0.4286 0.2611
N2A N 0.52281(8) 0.6109(2) 0.36049(16)
N3A N 0.58245(8) 0.7178(3) 0.52572(17)
H1A H 0.6126 0.7414 0.5819
C8A C 0.57475(10) 0.6192(3) 0.4277(2)
H6A H 0.6017 0.5621 0.4071
C9A C 0.53360(10) 0.7763(3) 0.5225(2)
H7A H 0.5271 0.8500 0.5814
C10A C 0.49626(10) 0.7107(3) 0.4207(2)
H8A H 0.4596 0.7295 0.3962
H9A H 0.5276 0.4286 0.2389
loop_
_geom_bond_atom_site_label_1
_geom_bond_atom_site_label_2
_geom_bond_site_symmetry_1
_geom_bond_site_symmetry_2
N1 O3 1_555 1_555
N2 C8 1_555 1_555
N3 H1 1_555 1_555
O1 C1 1_555 1_555
O2 C1 1_555 1_555
O4 N1 1_555 1_555
C1 C2 1_555 1_555
C2 C3 1_555 1_555
C3 H2 1_555 1_555
C4 C3 1_555 1_555
H3 C4 1_555 1_555
C5 N1 1_555 1_555
C6 C5 1_555 1_555
H4 C6 1_555 1_555
C7 C2 1_555 1_555
H5 C7 1_555 1_555
C8 N3 1_555 1_555
H6 C8 1_555 1_555
C9 N3 1_555 1_555
H7 C9 1_555 1_555
C10 N2 1_555 1_555
H8 C10 1_555 1_555
C11 N2 1_555 1_555
H9 C11 1_555 1_555
N2A C11 1_555 1_555
N3A H1A 1_555 1_555
C8A N2A 1_555 1_555
H6A C8A 1_555 1_555
C9A N3A 1_555 1_555
H7A C9A 1_555 1_555
C10A N2A 1_555 1_555
H8A C10A 1_555 1_555
H9A C11 1_555 1_555
C4 C5 1_555 1_555
C6 C7 1_555 1_555
C9 C10 1_555 1_555
N3A C8A 1_555 1_555
C9A C10A 1_555 1_555

#END
