
#######################################################################
#
#                 Cambridge Crystallographic Data Centre
#                                CCDC 
#
#######################################################################
#
# If this CIF has been generated from an entry in the Cambridge 
# Structural Database, then it will include bibliographic, chemical, 
# crystal, experimental, refinement or atomic coordinate data resulting 
# from the CCDC's data processing and validation procedures.
#
#######################################################################

data_FAVKIX
_chemical_formula_moiety         'C18 H24 N1 O1 1+,H2 O1,Br1 1-'
_chemical_name_systematic        
'1,3-Dihydro-4-(diethylmethylammoniomethyl)naphtho[1,2-c]furan bromide monohydrate'
_symmetry_cell_setting           monoclinic
_symmetry_space_group_name_H-M   'P 21/c'
_symmetry_Int_Tables_number      14
_space_group_name_Hall           '-P 2ybc'
loop_
_symmetry_equiv_pos_site_id
_symmetry_equiv_pos_as_xyz
1 x,y,z
2 -x,1/2+y,1/2-z
3 -x,-y,-z
4 x,1/2-y,1/2+z
_cell_length_a                   13.474(3)
_cell_length_b                   9.052(2)
_cell_length_c                   15.013(3)
_cell_angle_alpha                90
_cell_angle_beta                 108.57(3)
_cell_angle_gamma                90
_cell_volume                     1735.75
_cell_formula_units_Z            4
loop_
_atom_site_label
_atom_site_type_symbol
_atom_site_fract_x
_atom_site_fract_y
_atom_site_fract_z
Br1 Br 0.62084(5) 0.83046(8) 0.64915(5)
O1 O 0.6267(10) 0.0752(10) 0.4787(6)
C1 C 0.8316(5) 0.7834(7) 0.4985(5)
C2 C 0.8162(5) 0.6865(8) 0.4265(5)
C3 C 0.9005(6) 0.6297(8) 0.4023(5)
C4 C 1.0004(6) 0.6730(8) 0.4502(5)
C5 C 1.0208(5) 0.7743(7) 0.5262(4)
C6 C 0.9347(4) 0.8299(6) 0.5497(4)
C7 C 0.9569(4) 0.9334(6) 0.6242(4)
C8 C 0.8812(5) 1.0192(8) 0.6576(4)
O2 O 0.9425(3) 1.1183(5) 0.7261(3)
C9 C 1.0515(5) 1.0877(7) 0.7455(4)
C10 C 1.0570(4) 0.9748(6) 0.6736(4)
C11 C 1.1433(4) 0.9179(6) 0.6514(4)
C12 C 1.1226(4) 0.8220(7) 0.5761(4)
C13 C 1.2551(4) 0.9649(7) 0.6997(4)
N1 N 1.3173(4) 0.8651(6) 0.7811(3)
C14 C 1.2707(6) 0.8834(11) 0.8646(6)
C15 C 1.3110(6) 0.7067(8) 0.7558(7)
C16 C 1.3654(7) 0.6704(10) 0.6939(7)
C17 C 1.4277(5) 0.9236(8) 0.8131(5)
C18 C 1.5030(6) 0.8365(10) 0.8941(6)
loop_
_geom_bond_atom_site_label_1
_geom_bond_atom_site_label_2
_geom_bond_site_symmetry_1
_geom_bond_site_symmetry_2
C1 C2 1_555 1_555
C2 C3 1_555 1_555
C3 C4 1_555 1_555
C4 C5 1_555 1_555
C5 C6 1_555 1_555
C6 C1 1_555 1_555
C7 C6 1_555 1_555
C8 C7 1_555 1_555
O2 C8 1_555 1_555
C9 O2 1_555 1_555
C10 C7 1_555 1_555
C11 C10 1_555 1_555
C12 C5 1_555 1_555
C13 C11 1_555 1_555
N1 C13 1_555 1_555
C14 N1 1_555 1_555
C15 N1 1_555 1_555
C16 C15 1_555 1_555
C17 N1 1_555 1_555
C18 C17 1_555 1_555
C9 C10 1_555 1_555
C11 C12 1_555 1_555

#END
