
#######################################################################
#
#                 Cambridge Crystallographic Data Centre
#                                CCDC 
#
#######################################################################
#
# If this CIF has been generated from an entry in the Cambridge 
# Structural Database, then it will include bibliographic, chemical, 
# crystal, experimental, refinement or atomic coordinate data resulting 
# from the CCDC's data processing and validation procedures.
#
#######################################################################

data_FAVTOO
_chemical_formula_moiety         'C28 H40 N6 O4'
_chemical_name_systematic        
2,2'-(1,6-dioxohexane-1,6-diyl)bis[N-(4-t-butylphenyl)hydrazine-1-carboxamide]
_symmetry_cell_setting           monoclinic
_symmetry_space_group_name_H-M   'P 21/c'
_symmetry_Int_Tables_number      14
_space_group_name_Hall           '-P 2ybc'
loop_
_symmetry_equiv_pos_site_id
_symmetry_equiv_pos_as_xyz
1 x,y,z
2 -x,1/2+y,1/2-z
3 -x,-y,-z
4 x,1/2-y,1/2+z
_cell_length_a                   11.7602(12)
_cell_length_b                   16.5881(16)
_cell_length_c                   7.5405(7)
_cell_angle_alpha                90
_cell_angle_beta                 102.485(2)
_cell_angle_gamma                90
_cell_volume                     1436.21
_exptl_crystal_colour            colorless
_exptl_crystal_description       prism
_cell_formula_units_Z            2
loop_
_atom_site_label
_atom_site_type_symbol
_atom_site_fract_x
_atom_site_fract_y
_atom_site_fract_z
C1 C 0.27421(12) 0.14922(8) 0.26237(18)
C2 C 0.36120(13) 0.10193(9) 0.3631(2)
H1 H 0.3481 0.0733 0.4660
C3 C 0.46831(14) 0.09623(10) 0.3134(2)
H2 H 0.5272 0.0633 0.3841
C4 C 0.49246(13) 0.13659(9) 0.1653(2)
C5 C 0.40460(15) 0.18546(11) 0.0699(3)
H3 H 0.4184 0.2157 -0.0304
C6 C 0.29754(14) 0.19152(11) 0.1162(2)
H4 H 0.2391 0.2252 0.0468
C7 C 0.60880(14) 0.13001(10) 0.1052(2)
C8 C 0.68627(17) 0.06374(15) 0.2096(4)
H5 H 0.7591 0.0606 0.1667
H6 H 0.6456 0.0119 0.1892
H7 H 0.7036 0.0763 0.3397
C9 C 0.67354(17) 0.21004(13) 0.1371(3)
H8 H 0.6238 0.2531 0.0736
H9 H 0.7451 0.2067 0.0907
H10 H 0.6934 0.2217 0.2676
C10 C 0.58556(17) 0.10969(14) -0.0972(3)
H11 H 0.5362 0.1515 -0.1665
H12 H 0.5460 0.0575 -0.1184
H13 H 0.6596 0.1070 -0.1366
C11 C 0.11027(12) 0.11371(8) 0.40734(18)
C12 C -0.03664(12) 0.13822(8) 0.70639(19)
C13 C -0.07723(13) 0.08710(9) 0.8455(2)
H14 H -0.1482 0.0571 0.7870
H15 H -0.0968 0.1220 0.9411
C14 C 0.01878(12) 0.02752(8) 0.93095(18)
H16 H 0.0399 -0.0057 0.8339
H17 H 0.0889 0.0580 0.9913
N1 N 0.16299(10) 0.16051(7) 0.30178(16)
N2 N -0.00258(11) 0.13847(7) 0.40661(16)
N3 N -0.05337(11) 0.10539(7) 0.54038(16)
O1 O 0.15245(9) 0.05297(6) 0.48749(14)
O2 O 0.01086(10) 0.20417(6) 0.74175(16)
H18 H 0.1235(15) 0.2007(10) 0.254(2)
H19 H -0.0198(14) 0.1888(10) 0.382(2)
H20 H -0.0821(14) 0.0564(11) 0.519(2)
C1B C -0.27421(12) -0.14922(8) 1.73763(18)
C2B C -0.36120(13) -0.10193(9) 1.6369(2)
H1B H -0.3481 -0.0733 1.5340
C3B C -0.46831(14) -0.09623(10) 1.6866(2)
H2B H -0.5272 -0.0633 1.6159
C4B C -0.49246(13) -0.13659(9) 1.8347(2)
C5B C -0.40460(15) -0.18546(11) 1.9301(3)
H3B H -0.4184 -0.2157 2.0304
C6B C -0.29754(14) -0.19152(11) 1.8838(2)
H4B H -0.2391 -0.2252 1.9532
C7B C -0.60880(14) -0.13001(10) 1.8948(2)
C8B C -0.68627(17) -0.06374(15) 1.7904(4)
H5B H -0.7591 -0.0606 1.8333
H6B H -0.6456 -0.0119 1.8108
H7B H -0.7036 -0.0763 1.6603
C9B C -0.67354(17) -0.21004(13) 1.8629(3)
H8B H -0.6238 -0.2531 1.9264
H9B H -0.7451 -0.2067 1.9093
H10B H -0.6934 -0.2217 1.7324
C10B C -0.58556(17) -0.10969(14) 2.0972(3)
H11B H -0.5362 -0.1515 2.1665
H12B H -0.5460 -0.0575 2.1184
H13B H -0.6596 -0.1070 2.1366
C11B C -0.11027(12) -0.11371(8) 1.59266(18)
C12B C 0.03664(12) -0.13822(8) 1.29361(19)
C13B C 0.07723(13) -0.08710(9) 1.1545(2)
H14B H 0.1482 -0.0571 1.2130
H15B H 0.0968 -0.1220 1.0589
C14B C -0.01878(12) -0.02752(8) 1.06905(18)
H16B H -0.0399 0.0057 1.1661
H17B H -0.0889 -0.0580 1.0087
N1B N -0.16299(10) -0.16051(7) 1.69822(16)
N2B N 0.00258(11) -0.13847(7) 1.59339(16)
N3B N 0.05337(11) -0.10539(7) 1.45962(16)
O1B O -0.15245(9) -0.05297(6) 1.51251(14)
O2B O -0.01086(10) -0.20417(6) 1.25825(16)
H18B H -0.1235(15) -0.2007(10) 1.746(2)
H19B H 0.0198(14) -0.1888(10) 1.618(2)
H20B H 0.0821(14) -0.0564(11) 1.481(2)
loop_
_geom_bond_atom_site_label_1
_geom_bond_atom_site_label_2
_geom_bond_site_symmetry_1
_geom_bond_site_symmetry_2
C1 C2 1_555 1_555
C2 H1 1_555 1_555
C3 C2 1_555 1_555
H2 C3 1_555 1_555
C4 C3 1_555 1_555
C5 C4 1_555 1_555
H3 C5 1_555 1_555
C6 C1 1_555 1_555
H4 C6 1_555 1_555
C7 C4 1_555 1_555
C8 C7 1_555 1_555
H5 C8 1_555 1_555
H6 C8 1_555 1_555
H7 C8 1_555 1_555
C9 C7 1_555 1_555
H8 C9 1_555 1_555
H9 C9 1_555 1_555
H10 C9 1_555 1_555
C10 C7 1_555 1_555
H11 C10 1_555 1_555
H12 C10 1_555 1_555
H13 C10 1_555 1_555
C11 N1 1_555 1_555
C12 C13 1_555 1_555
C13 H14 1_555 1_555
H15 C13 1_555 1_555
C14 C13 1_555 1_555
H16 C14 1_555 1_555
H17 C14 1_555 1_555
N1 C1 1_555 1_555
N2 C11 1_555 1_555
N3 C12 1_555 1_555
O1 C11 1_555 1_555
O2 C12 1_555 1_555
H18 N1 1_555 1_555
H19 N2 1_555 1_555
H20 N3 1_555 1_555
C1B C2B 1_555 1_555
C2B H1B 1_555 1_555
C3B C2B 1_555 1_555
H2B C3B 1_555 1_555
C4B C3B 1_555 1_555
C5B C4B 1_555 1_555
H3B C5B 1_555 1_555
C6B C1B 1_555 1_555
H4B C6B 1_555 1_555
C7B C4B 1_555 1_555
C8B C7B 1_555 1_555
H5B C8B 1_555 1_555
H6B C8B 1_555 1_555
H7B C8B 1_555 1_555
C9B C7B 1_555 1_555
H8B C9B 1_555 1_555
H9B C9B 1_555 1_555
H10B C9B 1_555 1_555
C10B C7B 1_555 1_555
H11B C10B 1_555 1_555
H12B C10B 1_555 1_555
H13B C10B 1_555 1_555
C11B N1B 1_555 1_555
C12B C13B 1_555 1_555
C13B H14B 1_555 1_555
H15B C13B 1_555 1_555
C14B C14 1_555 1_555
H16B C14B 1_555 1_555
H17B C14B 1_555 1_555
N1B C1B 1_555 1_555
N2B C11B 1_555 1_555
N3B C12B 1_555 1_555
O1B C11B 1_555 1_555
O2B C12B 1_555 1_555
H18B N1B 1_555 1_555
H19B N2B 1_555 1_555
H20B N3B 1_555 1_555
C5 C6 1_555 1_555
N2 N3 1_555 1_555
C5B C6B 1_555 1_555
C13B C14B 1_555 1_555
N2B N3B 1_555 1_555

#END
