
#######################################################################
#
#                 Cambridge Crystallographic Data Centre
#                                CCDC 
#
#######################################################################
#
# If this CIF has been generated from an entry in the Cambridge 
# Structural Database, then it will include bibliographic, chemical, 
# crystal, experimental, refinement or atomic coordinate data resulting 
# from the CCDC's data processing and validation procedures.
#
#######################################################################

data_FAVVOP
_chemical_formula_moiety         'C15 H15 Cl1 O6'
_chemical_name_systematic        
'(2R,3R,4R)-2-Ethyl 4-methyl 3-(4-chlorophenyl)-5-oxotetrahydrofuran-2,4-dicarboxylate'
_symmetry_cell_setting           monoclinic
_symmetry_space_group_name_H-M   'P 21'
_symmetry_Int_Tables_number      4
_space_group_name_Hall           'P 2yb'
loop_
_symmetry_equiv_pos_site_id
_symmetry_equiv_pos_as_xyz
1 x,y,z
2 -x,1/2+y,-z
_cell_length_a                   9.1401(5)
_cell_length_b                   8.7933(4)
_cell_length_c                   9.4025(4)
_cell_angle_alpha                90
_cell_angle_beta                 91.943(2)
_cell_angle_gamma                90
_cell_volume                     755.26
_exptl_crystal_colour            colorless
_exptl_crystal_description       block
_cell_formula_units_Z            2
loop_
_atom_site_label
_atom_site_type_symbol
_atom_site_fract_x
_atom_site_fract_y
_atom_site_fract_z
Cl1 Cl 1.25636(4) 0.47554(4) 0.21008(3)
O1 O 0.46597(12) 0.63030(12) 0.52814(10)
O2 O 0.83045(14) 0.56461(14) 0.87580(12)
O3 O 0.65026(13) 0.39763(13) 0.82431(11)
O4 O 0.46047(14) 0.69308(13) 0.75750(12)
O5 O 0.65298(14) 0.83277(12) 0.41072(12)
O6 O 0.65043(13) 0.68254(12) 0.21562(11)
C1 C 0.96266(18) 0.56221(19) 0.50480(16)
H1 H 0.9586 0.6193 0.5903
C2 C 1.09277(19) 0.55653(18) 0.43164(17)
H2 H 1.1776 0.6082 0.4675
C3 C 1.09656(16) 0.47524(18) 0.30712(14)
C4 C 0.97683(18) 0.39232(17) 0.25573(15)
H3 H 0.9826 0.3333 0.1715
C5 C 0.84792(18) 0.39779(16) 0.33068(16)
H4 H 0.7652 0.3411 0.2973
C6 C 0.83853(16) 0.48490(16) 0.45358(14)
C7 C 0.69200(17) 0.49628(16) 0.52436(14)
H5 H 0.6583 0.3912 0.5474
C8 C 0.68628(18) 0.59367(16) 0.65943(15)
H6 H 0.7486 0.6857 0.6462
C9 C 0.52759(18) 0.64384(17) 0.65951(16)
C10 C 0.57124(17) 0.57490(17) 0.42972(15)
H7 H 0.5249 0.5009 0.3611
C11 C 0.73343(17) 0.51856(17) 0.79839(14)
C12 C 0.6762(2) 0.3277(2) 0.96243(17)
H8 H 0.6644 0.4040 1.0372
H9 H 0.7759 0.2867 0.9687
H10 H 0.6058 0.2451 0.9749
C13 C 0.62954(17) 0.71356(17) 0.35183(15)
C14 C 0.7151(2) 0.80607(18) 0.13354(16)
H11 H 0.6716 0.9042 0.1616
H12 H 0.6922 0.7902 0.0310
C15 C 0.8782(2) 0.8125(2) 0.15819(19)
H13 H 0.9010 0.8318 0.2592
H14 H 0.9186 0.8945 0.1009
H15 H 0.9214 0.7153 0.1306
loop_
_geom_bond_atom_site_label_1
_geom_bond_atom_site_label_2
_geom_bond_site_symmetry_1
_geom_bond_site_symmetry_2
Cl1 C3 1_555 1_555
O1 C9 1_555 1_555
O2 C11 1_555 1_555
O3 C11 1_555 1_555
O4 C9 1_555 1_555
O5 C13 1_555 1_555
O6 C13 1_555 1_555
C1 H1 1_555 1_555
C2 C1 1_555 1_555
H2 C2 1_555 1_555
C3 C2 1_555 1_555
C4 C3 1_555 1_555
H3 C4 1_555 1_555
C5 C4 1_555 1_555
H4 C5 1_555 1_555
C6 C1 1_555 1_555
C7 C6 1_555 1_555
H5 C7 1_555 1_555
C8 C7 1_555 1_555
H6 C8 1_555 1_555
C9 C8 1_555 1_555
C10 O1 1_555 1_555
H7 C10 1_555 1_555
C11 C8 1_555 1_555
C12 O3 1_555 1_555
H8 C12 1_555 1_555
H9 C12 1_555 1_555
H10 C12 1_555 1_555
C13 C10 1_555 1_555
C14 O6 1_555 1_555
H11 C14 1_555 1_555
H12 C14 1_555 1_555
C15 C14 1_555 1_555
H13 C15 1_555 1_555
H14 C15 1_555 1_555
H15 C15 1_555 1_555
C5 C6 1_555 1_555
C7 C10 1_555 1_555

#END
