
#######################################################################
#
#                 Cambridge Crystallographic Data Centre
#                                CCDC 
#
#######################################################################
#
# If this CIF has been generated from an entry in the Cambridge 
# Structural Database, then it will include bibliographic, chemical, 
# crystal, experimental, refinement or atomic coordinate data resulting 
# from the CCDC's data processing and validation procedures.
#
#######################################################################

data_FAVYUY
_chemical_formula_moiety         'C18 H23 N1 O2'
_chemical_name_systematic        
(E)-1-Cyclohexyl-3-(4-methoxybenzylidene)pyrrolidin-2-one
_chemical_properties_biological  'Tested for cytotoxic activity'
_symmetry_cell_setting           monoclinic
_symmetry_space_group_name_H-M   'P 21/c'
_symmetry_Int_Tables_number      14
_space_group_name_Hall           '-P 2ybc'
loop_
_symmetry_equiv_pos_site_id
_symmetry_equiv_pos_as_xyz
1 x,y,z
2 -x,1/2+y,1/2-z
3 -x,-y,-z
4 x,1/2-y,1/2+z
_cell_length_a                   6.0461(10)
_cell_length_b                   31.050(4)
_cell_length_c                   16.291(3)
_cell_angle_alpha                90
_cell_angle_beta                 93.288(4)
_cell_angle_gamma                90
_cell_volume                     3053.3
_exptl_crystal_colour            colorless
_exptl_crystal_description       plate
_chemical_melting_point          '137 deg.C'
_cell_formula_units_Z            8
_exptl_crystal_recrystallization_method methanol
loop_
_atom_site_label
_atom_site_type_symbol
_atom_site_fract_x
_atom_site_fract_y
_atom_site_fract_z
C1 C 0.6040(3) 0.59152(5) 0.14867(10)
C2 C 0.5538(3) 0.54482(5) 0.14187(10)
C3 C 0.3388(3) 0.53659(5) 0.18124(10)
H1 H 0.3590 0.5150 0.2257
H2 H 0.2245 0.5261 0.1401
C4 C 0.2721(3) 0.58049(5) 0.21617(11)
H3 H 0.1216 0.5888 0.1948
H4 H 0.2754 0.5797 0.2770
C5 C 0.6922(3) 0.51868(5) 0.10393(10)
H5 H 0.8229 0.5322 0.0870
C6 C 0.6754(3) 0.47281(5) 0.08434(10)
C7 C 0.8516(3) 0.45228(5) 0.04812(10)
H6 H 0.9827 0.4682 0.0401
C8 C 0.8417(3) 0.40972(5) 0.02359(10)
H7 H 0.9636 0.3969 -0.0014
C9 C 0.6515(3) 0.38585(5) 0.03576(10)
C10 C 0.4737(3) 0.40509(5) 0.07158(10)
H8 H 0.3433 0.3889 0.0797
C11 C 0.4862(3) 0.44794(5) 0.09550(10)
H9 H 0.3635 0.4607 0.1200
C12 C 0.4626(3) 0.31839(6) 0.01982(12)
H10 H 0.4313 0.3168 0.0781
H11 H 0.4861 0.2893 -0.0013
H12 H 0.3368 0.3317 -0.0112
C13 C 0.4368(3) 0.65652(5) 0.20599(10)
H13 H 0.5319 0.6711 0.1661
C14 C 0.2058(3) 0.67571(6) 0.19444(12)
H14 H 0.1067 0.6617 0.2327
H15 H 0.1457 0.6703 0.1376
C15 C 0.2118(3) 0.72407(6) 0.21070(12)
H16 H 0.3020 0.7384 0.1698
H17 H 0.0597 0.7359 0.2045
C16 C 0.3099(4) 0.73353(6) 0.29678(11)
H18 H 0.3187 0.7651 0.3051
H19 H 0.2120 0.7215 0.3378
C17 C 0.5383(4) 0.71417(6) 0.30981(14)
H20 H 0.5942 0.7192 0.3673
H21 H 0.6402 0.7287 0.2732
C18 C 0.5369(3) 0.66582(6) 0.29223(12)
H22 H 0.6904 0.6546 0.2975
H23 H 0.4497 0.6508 0.3332
N1 N 0.4382(2) 0.61046(4) 0.18789(8)
O1 O 0.7655(2) 0.61051(4) 0.12265(8)
O2 O 0.6570(2) 0.34366(4) 0.01076(8)
C19 C 0.1418(3) 0.47719(5) 0.40188(10)
C20 C 0.0785(3) 0.52315(5) 0.40886(10)
C21 C -0.1443(3) 0.52871(5) 0.36374(11)
H24 H -0.1384 0.5515 0.3215
H25 H -0.2585 0.5364 0.4024
C22 C -0.1954(3) 0.48472(5) 0.32364(11)
H26 H -0.3393 0.4735 0.3404
H27 H -0.2006 0.4870 0.2629
C23 C 0.2174(3) 0.55045(5) 0.44879(10)
H28 H 0.3492 0.5377 0.4722
C24 C 0.1988(3) 0.59684(5) 0.46223(10)
C25 C 0.3852(3) 0.61876(5) 0.49727(10)
H29 H 0.5172 0.6031 0.5109
C26 C 0.3800(3) 0.66245(5) 0.51216(10)
H30 H 0.5082 0.6765 0.5355
C27 C 0.1879(3) 0.68600(5) 0.49316(10)
C28 C 0.0014(3) 0.66512(5) 0.45911(10)
H31 H -0.1307 0.6809 0.4462
C29 C 0.0084(3) 0.62109(5) 0.44397(10)
H32 H -0.1201 0.6072 0.4206
C30 C 0.0041(3) 0.75395(6) 0.49706(13)
H33 H -0.0443 0.7530 0.4386
H34 H 0.0338 0.7839 0.5135
H35 H -0.1125 0.7421 0.5298
C31 C 0.0145(3) 0.41176(5) 0.33039(10)
H36 H 0.0697 0.3959 0.3810
C32 C 0.1890(3) 0.40700(5) 0.26718(11)
H37 H 0.3274 0.4215 0.2875
H38 H 0.1363 0.4210 0.2151
C33 C 0.2353(3) 0.35954(6) 0.25156(11)
H39 H 0.3463 0.3569 0.2095
H40 H 0.2976 0.3460 0.3029
C34 C 0.0239(3) 0.33609(6) 0.22225(11)
H41 H 0.0552 0.3050 0.2168
H42 H -0.0281 0.3472 0.1675
C35 C -0.1566(3) 0.34254(6) 0.28267(12)
H43 H -0.1119 0.3281 0.3352
H44 H -0.2952 0.3289 0.2603
C36 C -0.2004(3) 0.39023(5) 0.29912(11)
H45 H -0.2580 0.4044 0.2478
H46 H -0.3130 0.3931 0.3406
N2 N -0.0143(2) 0.45679(4) 0.35333(8)
O3 O 0.3095(2) 0.45960(4) 0.43346(8)
O4 O 0.2006(2) 0.72912(4) 0.51051(8)
loop_
_geom_bond_atom_site_label_1
_geom_bond_atom_site_label_2
_geom_bond_site_symmetry_1
_geom_bond_site_symmetry_2
C1 C2 1_555 1_555
C2 C3 1_555 1_555
C3 H1 1_555 1_555
H2 C3 1_555 1_555
C4 C3 1_555 1_555
H3 C4 1_555 1_555
H4 C4 1_555 1_555
C5 C2 1_555 1_555
H5 C5 1_555 1_555
C6 C5 1_555 1_555
C7 C6 1_555 1_555
H6 C7 1_555 1_555
C8 C7 1_555 1_555
H7 C8 1_555 1_555
C9 C8 1_555 1_555
C10 C9 1_555 1_555
H8 C10 1_555 1_555
C11 C6 1_555 1_555
H9 C11 1_555 1_555
C12 H10 1_555 1_555
H11 C12 1_555 1_555
H12 C12 1_555 1_555
C13 H13 1_555 1_555
C14 C13 1_555 1_555
H14 C14 1_555 1_555
H15 C14 1_555 1_555
C15 C14 1_555 1_555
H16 C15 1_555 1_555
H17 C15 1_555 1_555
C16 C15 1_555 1_555
H18 C16 1_555 1_555
H19 C16 1_555 1_555
C17 C16 1_555 1_555
H20 C17 1_555 1_555
H21 C17 1_555 1_555
C18 C13 1_555 1_555
H22 C18 1_555 1_555
H23 C18 1_555 1_555
N1 C1 1_555 1_555
O1 C1 1_555 1_555
O2 C9 1_555 1_555
C19 C20 1_555 1_555
C20 C21 1_555 1_555
C21 H24 1_555 1_555
H25 C21 1_555 1_555
C22 C21 1_555 1_555
H26 C22 1_555 1_555
H27 C22 1_555 1_555
C23 C20 1_555 1_555
H28 C23 1_555 1_555
C24 C23 1_555 1_555
C25 C24 1_555 1_555
H29 C25 1_555 1_555
C26 C25 1_555 1_555
H30 C26 1_555 1_555
C27 C26 1_555 1_555
C28 C27 1_555 1_555
H31 C28 1_555 1_555
C29 C24 1_555 1_555
H32 C29 1_555 1_555
C30 H33 1_555 1_555
H34 C30 1_555 1_555
H35 C30 1_555 1_555
C31 H36 1_555 1_555
C32 C31 1_555 1_555
H37 C32 1_555 1_555
H38 C32 1_555 1_555
C33 C32 1_555 1_555
H39 C33 1_555 1_555
H40 C33 1_555 1_555
C34 C33 1_555 1_555
H41 C34 1_555 1_555
H42 C34 1_555 1_555
C35 C34 1_555 1_555
H43 C35 1_555 1_555
H44 C35 1_555 1_555
C36 C31 1_555 1_555
H45 C36 1_555 1_555
H46 C36 1_555 1_555
N2 C19 1_555 1_555
O3 C19 1_555 1_555
O4 C27 1_555 1_555
C4 N1 1_555 1_555
C10 C11 1_555 1_555
C12 O2 1_555 1_555
C13 N1 1_555 1_555
C17 C18 1_555 1_555
C22 N2 1_555 1_555
C28 C29 1_555 1_555
C30 O4 1_555 1_555
C31 N2 1_555 1_555
C35 C36 1_555 1_555

#END
