
#######################################################################
#
#                 Cambridge Crystallographic Data Centre
#                                CCDC 
#
#######################################################################
#
# If this CIF has been generated from an entry in the Cambridge 
# Structural Database, then it will include bibliographic, chemical, 
# crystal, experimental, refinement or atomic coordinate data resulting 
# from the CCDC's data processing and validation procedures.
#
#######################################################################

data_FAWFIU01
_chemical_formula_moiety         'C20 H28 O3'
_chemical_name_systematic        
3,6-dihydroxy-3a,5a-dimethyl-1-isopropyl-2,3,3a,4,5,5a,6,7-octahydrocyclohepta[e]indene-8-carbaldehyde
_symmetry_cell_setting           orthorhombic
_symmetry_space_group_name_H-M   'P 21 21 21'
_symmetry_Int_Tables_number      19
_space_group_name_Hall           'P 2ac 2ab'
loop_
_symmetry_equiv_pos_site_id
_symmetry_equiv_pos_as_xyz
1 x,y,z
2 1/2-x,-y,1/2+z
3 -x,1/2+y,1/2-z
4 1/2+x,1/2-y,-z
_cell_length_a                   6.9296(2)
_cell_length_b                   13.6851(3)
_cell_length_c                   18.2162(4)
_cell_angle_alpha                90
_cell_angle_beta                 90
_cell_angle_gamma                90
_cell_volume                     1727.48
_exptl_crystal_colour            yellow
_exptl_crystal_description       block
_cell_formula_units_Z            4
loop_
_atom_site_label
_atom_site_type_symbol
_atom_site_fract_x
_atom_site_fract_y
_atom_site_fract_z
O1 O 0.8631(2) 0.59524(10) 0.57658(7)
H1 H 0.760039 0.627010 0.580938
O2 O 0.6352(2) 0.45494(10) 0.92552(7)
H2 H 0.642868 0.450022 0.971396
O3 O 0.9749(2) 0.89086(12) 0.46810(8)
C1 C 0.9991(3) 0.52940(13) 0.71654(10)
H3 H 0.907509 0.494774 0.683926
H4 H 1.130104 0.504672 0.705397
C2 C 0.7441(3) 0.65284(13) 0.80120(10)
C3 C 0.6998(2) 0.75605(13) 0.69409(10)
H5 H 0.581510 0.770150 0.718201
C4 C 0.8656(3) 0.88408(14) 0.52010(10)
H6 H 0.761733 0.929309 0.522358
C5 C 1.1652(3) 0.69105(16) 0.73499(12)
H7 H 1.163528 0.677456 0.787809
H8 H 1.156822 0.761724 0.726951
H9 H 1.285460 0.666225 0.713679
C6 C 1.0503(3) 0.74565(15) 0.57961(11)
H10 H 1.156868 0.778008 0.606410
H11 H 1.093118 0.736171 0.528260
C7 C 0.6722(3) 0.70466(14) 0.85770(10)
C8 C 0.5889(3) 0.49110(15) 0.77871(11)
H12 H 0.464882 0.512483 0.798967
H13 H 0.602724 0.420399 0.785447
H14 H 0.593881 0.506663 0.726229
C9 C 0.7536(3) 0.54394(13) 0.81859(10)
C10 C 0.9921(3) 0.64034(13) 0.69812(10)
C11 C 0.8798(3) 0.81239(14) 0.57957(9)
C12 C 0.7321(3) 0.81275(13) 0.62776(9)
H15 H 0.632084 0.857756 0.616415
C13 C 0.9507(3) 0.50387(14) 0.79577(11)
H16 H 1.051225 0.531128 0.828511
H17 H 0.951085 0.431951 0.801627
C14 C 0.6111(3) 0.63613(14) 0.91896(10)
H18 H 0.470401 0.623697 0.917476
H19 H 0.645701 0.663093 0.967638
C15 C 0.6531(3) 0.81374(14) 0.86753(10)
H20 H 0.684902 0.846059 0.819810
C16 C 0.8077(3) 0.68678(13) 0.72779(9)
C17 C 0.7250(3) 0.54317(14) 0.90253(10)
H21 H 0.854296 0.548127 0.926662
C18 C 1.0157(3) 0.64561(14) 0.61392(10)
H22 H 1.134914 0.607131 0.602952
C19 C 0.4476(4) 0.84288(17) 0.88931(13)
H23 H 0.357330 0.822215 0.850906
H24 H 0.440529 0.913969 0.895232
H25 H 0.413297 0.811115 0.935730
C20 C 0.7965(4) 0.84939(17) 0.92540(13)
H26 H 0.765280 0.819754 0.972912
H27 H 0.788619 0.920687 0.929443
H28 H 0.927569 0.830587 0.910941
loop_
_geom_bond_atom_site_label_1
_geom_bond_atom_site_label_2
_geom_bond_site_symmetry_1
_geom_bond_site_symmetry_2
O1 H1 1_555 1_555
O2 H2 1_555 1_555
O3 C4 1_555 1_555
C1 H3 1_555 1_555
H4 C1 1_555 1_555
C2 C7 1_555 1_555
C3 H5 1_555 1_555
C4 H6 1_555 1_555
C5 H7 1_555 1_555
H8 C5 1_555 1_555
H9 C5 1_555 1_555
C6 H10 1_555 1_555
H11 C6 1_555 1_555
C7 C14 1_555 1_555
C8 H12 1_555 1_555
H13 C8 1_555 1_555
H14 C8 1_555 1_555
C9 C2 1_555 1_555
C10 C1 1_555 1_555
C11 C4 1_555 1_555
C12 C3 1_555 1_555
H15 C12 1_555 1_555
C13 C1 1_555 1_555
H16 C13 1_555 1_555
H17 C13 1_555 1_555
C14 H18 1_555 1_555
H19 C14 1_555 1_555
C15 C7 1_555 1_555
H20 C15 1_555 1_555
C16 C2 1_555 1_555
C17 O2 1_555 1_555
H21 C17 1_555 1_555
C18 O1 1_555 1_555
H22 C18 1_555 1_555
C19 C15 1_555 1_555
H23 C19 1_555 1_555
H24 C19 1_555 1_555
H25 C19 1_555 1_555
C20 C15 1_555 1_555
H26 C20 1_555 1_555
H27 C20 1_555 1_555
H28 C20 1_555 1_555
C3 C16 1_555 1_555
C5 C10 1_555 1_555
C6 C11 1_555 1_555
C6 C18 1_555 1_555
C8 C9 1_555 1_555
C9 C13 1_555 1_555
C9 C17 1_555 1_555
C10 C16 1_555 1_555
C10 C18 1_555 1_555
C11 C12 1_555 1_555
C14 C17 1_555 1_555

#END
