
#######################################################################
#
#                 Cambridge Crystallographic Data Centre
#                                CCDC 
#
#######################################################################
#
# If this CIF has been generated from an entry in the Cambridge 
# Structural Database, then it will include bibliographic, chemical, 
# crystal, experimental, refinement or atomic coordinate data resulting 
# from the CCDC's data processing and validation procedures.
#
#######################################################################

data_FAWJUL
_chemical_formula_moiety         'C21 H16 F2 O4'
_chemical_name_systematic        
'ethyl difluoro(3-(2-methylphenyl)-1,4-dioxo-1,4-dihydronaphthalen-2-yl)acetate'
_symmetry_cell_setting           monoclinic
_symmetry_space_group_name_H-M   'P 21/c'
_symmetry_Int_Tables_number      14
_space_group_name_Hall           '-P 2ybc'
loop_
_symmetry_equiv_pos_site_id
_symmetry_equiv_pos_as_xyz
1 x,y,z
2 -x,1/2+y,1/2-z
3 -x,-y,-z
4 x,1/2-y,1/2+z
_cell_length_a                   16.0450(19)
_cell_length_b                   14.1739(16)
_cell_length_c                   8.0985(9)
_cell_angle_alpha                90
_cell_angle_beta                 96.802(9)
_cell_angle_gamma                90
_cell_volume                     1828.8
_exptl_crystal_colour            colorless
_exptl_crystal_description       block
_cell_formula_units_Z            4
loop_
_atom_site_label
_atom_site_type_symbol
_atom_site_fract_x
_atom_site_fract_y
_atom_site_fract_z
C1 C 0.9694(3) 1.3446(3) 0.3580(5)
H1 H 0.9899 1.4056 0.3762
C2 C 1.0146(2) 1.2693(3) 0.4281(5)
H2 H 1.0658 1.2795 0.4923
C3 C 0.9845(2) 1.1793(3) 0.4040(5)
H3 H 1.0152 1.1286 0.4524
C4 C 0.8934(2) 1.3303(3) 0.2602(5)
H4 H 0.8636 1.3814 0.2112
C5 C 0.8619(2) 1.2389(2) 0.2356(4)
C6 C 0.9079(2) 1.1634(2) 0.3069(4)
C7 C 0.8752(2) 1.0673(3) 0.2812(4)
C8 C 0.7917(2) 1.0524(2) 0.1817(4)
C9 C 0.74555(19) 1.1247(2) 0.1133(4)
C10 C 0.7818(2) 1.2227(2) 0.1286(4)
C11 C 0.6613(2) 1.1178(2) 0.0134(4)
C12 C 0.5880(2) 1.1239(2) 0.0885(4)
C13 C 0.6568(3) 1.1101(3) -0.1582(5)
H5 H 0.7060 1.1058 -0.2081
C14 C 0.5118(2) 1.1228(3) -0.0133(5)
H6 H 0.4621 1.1269 0.0347
C15 C 0.5801(3) 1.1087(3) -0.2559(5)
H7 H 0.5776 1.1029 -0.3708
C16 C 0.5084(3) 1.1157(3) -0.1832(6)
H8 H 0.4567 1.1158 -0.2486
C17 C 0.5892(2) 1.1300(3) 0.2724(4)
H9 H 0.6463 1.1298 0.3240
H10 H 0.5600 1.0768 0.3113
H11 H 0.5622 1.1872 0.3006
C18 C 0.7690(2) 0.9487(3) 0.1635(5)
C19 C 0.7808(3) 0.8884(3) 0.3214(6)
C20 C 0.7508(4) 0.8851(4) 0.6032(6)
H12 H 0.7907 0.8335 0.6097
H13 H 0.7679 0.9285 0.6934
C21 C 0.6678(4) 0.8489(5) 0.6197(7)
H14 H 0.6685 0.8168 0.7243
H15 H 0.6512 0.8056 0.5307
H16 H 0.6286 0.9002 0.6151
O1 O 0.74531(16) 1.28661(18) 0.0508(3)
O2 O 0.91411(17) 0.9985(2) 0.3385(4)
O3 O 0.8092(2) 0.8105(2) 0.3249(4)
O4 O 0.75032(19) 0.9337(2) 0.4436(4)
F1 F 0.68833(14) 0.93627(14) 0.0993(3)
F2 F 0.81576(16) 0.91117(16) 0.0495(3)
loop_
_geom_bond_atom_site_label_1
_geom_bond_atom_site_label_2
_geom_bond_site_symmetry_1
_geom_bond_site_symmetry_2
C1 H1 1_555 1_555
C2 C1 1_555 1_555
H2 C2 1_555 1_555
C3 C2 1_555 1_555
H3 C3 1_555 1_555
C4 C1 1_555 1_555
H4 C4 1_555 1_555
C5 C4 1_555 1_555
C6 C3 1_555 1_555
C7 C6 1_555 1_555
C8 C7 1_555 1_555
C9 C8 1_555 1_555
C10 C5 1_555 1_555
C11 C9 1_555 1_555
C12 C11 1_555 1_555
C13 C11 1_555 1_555
H5 C13 1_555 1_555
C14 C12 1_555 1_555
H6 C14 1_555 1_555
C15 C13 1_555 1_555
H7 C15 1_555 1_555
C16 C14 1_555 1_555
H8 C16 1_555 1_555
C17 C12 1_555 1_555
H9 C17 1_555 1_555
H10 C17 1_555 1_555
H11 C17 1_555 1_555
C18 C8 1_555 1_555
C19 C18 1_555 1_555
C20 H12 1_555 1_555
H13 C20 1_555 1_555
C21 C20 1_555 1_555
H14 C21 1_555 1_555
H15 C21 1_555 1_555
H16 C21 1_555 1_555
O1 C10 1_555 1_555
O2 C7 1_555 1_555
O3 C19 1_555 1_555
O4 C19 1_555 1_555
F1 C18 1_555 1_555
F2 C18 1_555 1_555
C5 C6 1_555 1_555
C9 C10 1_555 1_555
C15 C16 1_555 1_555
C20 O4 1_555 1_555

#END
