
#######################################################################
#
#                 Cambridge Crystallographic Data Centre
#                                CCDC 
#
#######################################################################
#
# If this CIF has been generated from an entry in the Cambridge 
# Structural Database, then it will include bibliographic, chemical, 
# crystal, experimental, refinement or atomic coordinate data resulting 
# from the CCDC's data processing and validation procedures.
#
#######################################################################

data_FAWLEX
_chemical_formula_moiety         'C30 H22 Cl1 N1 O4 S1'
_chemical_name_systematic        
1'-(4-chlorophenyl)-3a'-methyl-5'-(phenylsulfonyl)-3',3a'-dihydro-4H-spiro[cyclohexa-2,5-diene-1,2'-cyclopenta[c]quinoline]-4,4'(5'H)-dione
_symmetry_cell_setting           monoclinic
_symmetry_space_group_name_H-M   'P 21/c'
_symmetry_Int_Tables_number      14
_space_group_name_Hall           '-P 2ybc'
loop_
_symmetry_equiv_pos_site_id
_symmetry_equiv_pos_as_xyz
1 x,y,z
2 -x,1/2+y,1/2-z
3 -x,-y,-z
4 x,1/2-y,1/2+z
_cell_length_a                   8.5801(7)
_cell_length_b                   10.7907(9)
_cell_length_c                   27.200(3)
_cell_angle_alpha                90
_cell_angle_beta                 93.5150(10)
_cell_angle_gamma                90
_cell_volume                     2513.58
_exptl_crystal_colour            orange
_exptl_crystal_description       block
_cell_formula_units_Z            4
loop_
_atom_site_label
_atom_site_type_symbol
_atom_site_fract_x
_atom_site_fract_y
_atom_site_fract_z
S1 S 0.3667(2) 0.2179(2) 0.48109(8)
Cl1 Cl 0.0979(3) 0.2024(3) 0.11675(8)
N1 N 0.2256(7) 0.1402(5) 0.4467(2)
O1 O 0.0427(5) 0.2526(5) 0.48411(19)
O2 O 0.3372(5) 0.2029(5) 0.53112(16)
O3 O 0.5094(5) 0.1757(4) 0.46406(17)
O4 O -0.5833(7) 0.4207(6) 0.2726(3)
C1 C 0.0715(9) 0.1842(7) 0.4504(3)
C2 C -0.0495(9) 0.1408(7) 0.4127(3)
C3 C 0.0168(9) 0.1288(7) 0.3635(3)
C4 C 0.1659(9) 0.0548(6) 0.3638(3)
C5 C 0.2622(8) 0.0557(7) 0.4075(3)
C6 C 0.3855(8) -0.0248(7) 0.4136(3)
H1 H 0.4459 -0.0284 0.4431
C7 C 0.4178(9) -0.1010(8) 0.3742(3)
H2 H 0.5021 -0.1550 0.3780
C8 C 0.3344(10) -0.1004(8) 0.3314(3)
H3 H 0.3624 -0.1503 0.3055
C9 C 0.2054(9) -0.0242(7) 0.3262(3)
H4 H 0.1436 -0.0257 0.2969
C10 C -0.1701(8) 0.2446(7) 0.4018(3)
H5 H -0.2659 0.2267 0.4176
H6 H -0.1294 0.3233 0.4141
C11 C -0.2012(8) 0.2498(7) 0.3462(3)
C12 C -0.3507(9) 0.1859(7) 0.3274(3)
H7 H -0.3577 0.1013 0.3336
C13 C -0.4728(9) 0.2379(8) 0.3030(3)
H8 H -0.5593 0.1900 0.2931
C14 C -0.4714(10) 0.3701(9) 0.2918(3)
C15 C -0.3265(10) 0.4330(8) 0.3070(3)
H9 H -0.3199 0.5171 0.3000
C16 C -0.2028(9) 0.3802(7) 0.3300(3)
H10 H -0.1132 0.4275 0.3362
C17 C -0.0623(8) 0.1835(7) 0.3271(3)
C18 C -0.0256(9) 0.1894(7) 0.2749(3)
C19 C 0.0973(8) 0.2590(7) 0.2604(3)
H11 H 0.1574 0.3042 0.2836
C20 C 0.1328(10) 0.2625(8) 0.2113(3)
H12 H 0.2162 0.3109 0.2024
C21 C 0.0512(10) 0.1985(10) 0.1764(3)
C22 C -0.0732(11) 0.1309(8) 0.1896(3)
H13 H -0.1339 0.0878 0.1658
C23 C -0.1097(9) 0.1263(7) 0.2388(3)
H14 H -0.1942 0.0785 0.2474
C24 C -0.1135(8) 0.0179(7) 0.4309(3)
H15 H -0.0297 -0.0407 0.4356
H16 H -0.1902 -0.0137 0.4070
H17 H -0.1606 0.0309 0.4616
C25 C 0.3419(8) 0.3718(7) 0.4629(3)
C26 C 0.2707(9) 0.4545(9) 0.4928(3)
H18 H 0.2335 0.4289 0.5225
C27 C 0.2552(10) 0.5777(9) 0.4775(3)
H19 H 0.2059 0.6353 0.4967
C28 C 0.3124(10) 0.6120(8) 0.4345(4)
H20 H 0.3002 0.6935 0.4239
C29 C 0.3875(10) 0.5302(10) 0.4064(4)
H21 H 0.4303 0.5570 0.3777
C30 C 0.4005(9) 0.4086(9) 0.4201(3)
H22 H 0.4488 0.3518 0.4003
loop_
_geom_bond_atom_site_label_1
_geom_bond_atom_site_label_2
_geom_bond_site_symmetry_1
_geom_bond_site_symmetry_2
S1 N1 1_555 1_555
Cl1 C21 1_555 1_555
N1 C1 1_555 1_555
O1 C1 1_555 1_555
O2 S1 1_555 1_555
O3 S1 1_555 1_555
O4 C14 1_555 1_555
C1 C2 1_555 1_555
C2 C3 1_555 1_555
C3 C4 1_555 1_555
C4 C5 1_555 1_555
C5 N1 1_555 1_555
C6 C5 1_555 1_555
H1 C6 1_555 1_555
C7 C6 1_555 1_555
H2 C7 1_555 1_555
C8 C7 1_555 1_555
H3 C8 1_555 1_555
C9 C4 1_555 1_555
H4 C9 1_555 1_555
C10 C2 1_555 1_555
H5 C10 1_555 1_555
H6 C10 1_555 1_555
C11 C10 1_555 1_555
C12 C11 1_555 1_555
H7 C12 1_555 1_555
C13 C12 1_555 1_555
H8 C13 1_555 1_555
C14 C13 1_555 1_555
C15 C14 1_555 1_555
H9 C15 1_555 1_555
C16 C11 1_555 1_555
H10 C16 1_555 1_555
C17 C3 1_555 1_555
C18 C17 1_555 1_555
C19 C18 1_555 1_555
H11 C19 1_555 1_555
C20 C19 1_555 1_555
H12 C20 1_555 1_555
C21 C20 1_555 1_555
C22 C21 1_555 1_555
H13 C22 1_555 1_555
C23 C18 1_555 1_555
H14 C23 1_555 1_555
C24 C2 1_555 1_555
H15 C24 1_555 1_555
H16 C24 1_555 1_555
H17 C24 1_555 1_555
C25 S1 1_555 1_555
C26 C25 1_555 1_555
H18 C26 1_555 1_555
C27 C26 1_555 1_555
H19 C27 1_555 1_555
C28 C27 1_555 1_555
H20 C28 1_555 1_555
C29 C28 1_555 1_555
H21 C29 1_555 1_555
C30 C25 1_555 1_555
H22 C30 1_555 1_555
C8 C9 1_555 1_555
C11 C17 1_555 1_555
C15 C16 1_555 1_555
C22 C23 1_555 1_555
C29 C30 1_555 1_555

#END
