
#######################################################################
#
#                 Cambridge Crystallographic Data Centre
#                                CCDC 
#
#######################################################################
#
# If this CIF has been generated from an entry in the Cambridge 
# Structural Database, then it will include bibliographic, chemical, 
# crystal, experimental, refinement or atomic coordinate data resulting 
# from the CCDC's data processing and validation procedures.
#
#######################################################################

data_FAWXUY
_chemical_formula_moiety         'C27 H22 Br1 N1 O3'
_chemical_name_systematic        
2-(4-Bromophenyl)-6-methyl-4-(2-(2-naphthyl)-2-oxoethyl)-3a,4,7,7a-tetrahydro-1H-isoindole-1,3(2H)-dione
_symmetry_cell_setting           monoclinic
_symmetry_space_group_name_H-M   'P 21'
_symmetry_Int_Tables_number      4
_space_group_name_Hall           'P 2yb'
loop_
_symmetry_equiv_pos_site_id
_symmetry_equiv_pos_as_xyz
1 x,y,z
2 -x,1/2+y,-z
_cell_length_a                   13.302(4)
_cell_length_b                   6.3192(17)
_cell_length_c                   13.356(4)
_cell_angle_alpha                90
_cell_angle_beta                 96.409(4)
_cell_angle_gamma                90
_cell_volume                     1115.66
_exptl_crystal_colour            colorless
_exptl_crystal_description       prism
_cell_formula_units_Z            2
loop_
_atom_site_label
_atom_site_type_symbol
_atom_site_fract_x
_atom_site_fract_y
_atom_site_fract_z
Br1 Br 0.92862(2) 0.83989(6) -0.06233(2)
O1 O 0.46391(12) 0.5166(3) 0.03843(12)
O2 O 0.70700(12) 0.1496(3) 0.23278(11)
O3 O 0.58978(12) -0.1380(4) 0.42773(11)
N1 N 0.60247(13) 0.3630(4) 0.12817(12)
C1 C 0.49904(18) 0.3880(4) 0.10010(17)
C2 C 0.44278(17) 0.2322(4) 0.15716(17)
H1 H 0.4179 0.1138 0.1112
C3 C 0.35294(15) 0.3387(5) 0.19788(14)
H2 H 0.3086 0.4035 0.1417
H3 H 0.3130 0.2320 0.2306
C4 C 0.39020(19) 0.5071(4) 0.27338(17)
C5 C 0.46958(18) 0.4621(4) 0.33927(18)
H4 H 0.4994 0.5702 0.3822
C6 C 0.51264(18) 0.2432(4) 0.34666(18)
H5 H 0.4620 0.1531 0.3768
C7 C 0.52455(17) 0.1460(4) 0.23983(16)
H6 H 0.5204 -0.0119 0.2429
C8 C 0.62338(19) 0.2113(4) 0.20347(17)
C9 C 0.68067(18) 0.4756(4) 0.08366(18)
C10 C 0.70552(19) 0.6796(4) 0.11491(18)
H7 H 0.6710 0.7450 0.1653
C11 C 0.78087(18) 0.7882(4) 0.07260(18)
H8 H 0.7978 0.9291 0.0928
C12 C 0.83037(18) 0.6896(4) 0.00152(19)
C13 C 0.80710(18) 0.4826(4) -0.03012(18)
H9 H 0.8424 0.4164 -0.0797
C14 C 0.73102(17) 0.3762(5) 0.01280(15)
H10 H 0.7140 0.2351 -0.0069
C15 C 0.33636(18) 0.7186(4) 0.26672(18)
H11 H 0.3659 0.8108 0.3212
H12 H 0.2644 0.6971 0.2730
H13 H 0.3439 0.7846 0.2016
C16 C 0.61056(17) 0.2352(3) 0.42042(17)
H14 H 0.6653 0.3070 0.3891
H15 H 0.5996 0.3145 0.4822
C17 C 0.64423(19) 0.0142(4) 0.44942(18)
C18 C 0.7444(2) -0.0203(4) 0.51219(18)
C19 C 0.81976(19) 0.1318(4) 0.52393(17)
H16 H 0.8093 0.2650 0.4915
C20 C 0.91242(19) 0.0900(4) 0.58411(18)
C21 C 0.99039(19) 0.2431(4) 0.59571(19)
H17 H 0.9803 0.3768 0.5636
C22 C 1.0813(2) 0.2002(5) 0.6533(2)
H18 H 1.1334 0.3037 0.6617
C23 C 1.0950(2) -0.0013(5) 0.6996(2)
H19 H 1.1576 -0.0330 0.7379
C24 C 1.02095(18) -0.1499(6) 0.69052(16)
H20 H 1.0321 -0.2827 0.7231
C25 C 0.9264(2) -0.1082(5) 0.63234(18)
C26 C 0.8477(2) -0.2593(4) 0.62096(19)
H21 H 0.8556 -0.3910 0.6552
C27 C 0.76027(19) -0.2166(4) 0.56093(18)
H22 H 0.7090 -0.3217 0.5518
loop_
_geom_bond_atom_site_label_1
_geom_bond_atom_site_label_2
_geom_bond_site_symmetry_1
_geom_bond_site_symmetry_2
Br1 C12 1_555 1_555
O1 C1 1_555 1_555
O2 C8 1_555 1_555
O3 C17 1_555 1_555
N1 C1 1_555 1_555
C1 C2 1_555 1_555
C2 H1 1_555 1_555
C3 C2 1_555 1_555
H2 C3 1_555 1_555
H3 C3 1_555 1_555
C4 C3 1_555 1_555
C5 C4 1_555 1_555
H4 C5 1_555 1_555
C6 C5 1_555 1_555
H5 C6 1_555 1_555
C7 C2 1_555 1_555
H6 C7 1_555 1_555
C8 N1 1_555 1_555
C9 N1 1_555 1_555
C10 C9 1_555 1_555
H7 C10 1_555 1_555
C11 C10 1_555 1_555
H8 C11 1_555 1_555
C12 C11 1_555 1_555
C13 C12 1_555 1_555
H9 C13 1_555 1_555
C14 C9 1_555 1_555
H10 C14 1_555 1_555
C15 C4 1_555 1_555
H11 C15 1_555 1_555
H12 C15 1_555 1_555
H13 C15 1_555 1_555
C16 C6 1_555 1_555
H14 C16 1_555 1_555
H15 C16 1_555 1_555
C17 C16 1_555 1_555
C18 C17 1_555 1_555
C19 C18 1_555 1_555
H16 C19 1_555 1_555
C20 C19 1_555 1_555
C21 C20 1_555 1_555
H17 C21 1_555 1_555
C22 C21 1_555 1_555
H18 C22 1_555 1_555
C23 C22 1_555 1_555
H19 C23 1_555 1_555
C24 C23 1_555 1_555
H20 C24 1_555 1_555
C25 C20 1_555 1_555
C26 C25 1_555 1_555
H21 C26 1_555 1_555
C27 C18 1_555 1_555
H22 C27 1_555 1_555
C6 C7 1_555 1_555
C7 C8 1_555 1_555
C13 C14 1_555 1_555
C24 C25 1_555 1_555
C26 C27 1_555 1_555

#END
