
#######################################################################
#
#                 Cambridge Crystallographic Data Centre
#                                CCDC 
#
#######################################################################
#
# If this CIF has been generated from an entry in the Cambridge 
# Structural Database, then it will include bibliographic, chemical, 
# crystal, experimental, refinement or atomic coordinate data resulting 
# from the CCDC's data processing and validation procedures.
#
#######################################################################

data_FAWYUZ
_chemical_formula_moiety         'C19 H19 N1 O2'
_chemical_name_systematic        
(4-Hydroxy-6-(4-methylphenyl)-3,4-dihydropyridin-1(2H)-yl)(phenyl)methanone
_symmetry_cell_setting           monoclinic
_symmetry_space_group_name_H-M   'P 21'
_symmetry_Int_Tables_number      4
_space_group_name_Hall           'P 2yb'
loop_
_symmetry_equiv_pos_site_id
_symmetry_equiv_pos_as_xyz
1 x,y,z
2 -x,1/2+y,-z
_cell_length_a                   8.4871(13)
_cell_length_b                   8.0225(12)
_cell_length_c                   11.8248(19)
_cell_angle_alpha                90
_cell_angle_beta                 107.824(10)
_cell_angle_gamma                90
_cell_volume                     766.479
_exptl_crystal_colour            colorless
_exptl_crystal_description       block
_cell_formula_units_Z            2
loop_
_atom_site_label
_atom_site_type_symbol
_atom_site_fract_x
_atom_site_fract_y
_atom_site_fract_z
O1 O 0.45699(17) -0.06334(17) 0.67621(15)
H1 H 0.5104 -0.1520 0.6781
O2 O 0.64084(17) 0.64225(17) 0.70941(14)
N1 N 0.68681(19) 0.36520(19) 0.73284(14)
C1 C 0.5317(2) 0.0610(2) 0.62289(18)
H2 H 0.5215 0.0268 0.5396
C2 C 0.7115(2) 0.0778(2) 0.69197(18)
H3 H 0.7780 -0.0197 0.7019
C3 C 0.7859(2) 0.2193(2) 0.74078(17)
C4 C 0.5153(2) 0.3291(2) 0.72847(19)
H4 H 0.4528 0.4344 0.7237
H5 H 0.5139 0.2691 0.8013
C5 C 0.4360(2) 0.2226(2) 0.62013(18)
H6 H 0.4323 0.2861 0.5476
H7 H 0.3208 0.1961 0.6170
C6 C 0.9614(2) 0.2249(2) 0.81635(17)
C7 C 1.0801(2) 0.1289(2) 0.78697(18)
H8 H 1.0491 0.0660 0.7155
C8 C 1.2419(2) 0.1237(2) 0.85994(18)
H9 H 1.3199 0.0557 0.8385
C9 C 1.2927(2) 0.2165(3) 0.96447(18)
C10 C 1.1750(3) 0.3129(3) 0.99339(18)
H10 H 1.2069 0.3771 1.0643
C11 C 1.0119(3) 0.3179(3) 0.92123(18)
H11 H 0.9338 0.3850 0.9433
C12 C 1.4707(3) 0.2120(3) 1.0428(2)
H12 H 1.5354 0.1405 1.0063
H13 H 1.4757 0.1674 1.1210
H14 H 1.5165 0.3251 1.0519
C13 C 0.7301(2) 0.5215(2) 0.70862(17)
C14 C 0.8861(2) 0.5443(2) 0.67683(17)
C15 C 0.9120(2) 0.4557(2) 0.58337(18)
H15 H 0.8330 0.3755 0.5419
C16 C 1.0534(3) 0.4843(2) 0.55025(19)
H16 H 1.0715 0.4226 0.4868
C17 C 1.1674(2) 0.6020(2) 0.6093(2)
H17 H 1.2638 0.6215 0.5864
C18 C 1.1409(2) 0.6918(3) 0.7020(2)
H18 H 1.2197 0.7725 0.7428
C19 C 1.0002(2) 0.6644(2) 0.73529(19)
H19 H 0.9816 0.7276 0.7980
loop_
_geom_bond_atom_site_label_1
_geom_bond_atom_site_label_2
_geom_bond_site_symmetry_1
_geom_bond_site_symmetry_2
O1 H1 1_555 1_555
O2 C13 1_555 1_555
N1 C3 1_555 1_555
C1 O1 1_555 1_555
H2 C1 1_555 1_555
C2 C1 1_555 1_555
H3 C2 1_555 1_555
C3 C2 1_555 1_555
C4 N1 1_555 1_555
H4 C4 1_555 1_555
H5 C4 1_555 1_555
C5 C1 1_555 1_555
H6 C5 1_555 1_555
H7 C5 1_555 1_555
C6 C3 1_555 1_555
C7 C6 1_555 1_555
H8 C7 1_555 1_555
C8 C7 1_555 1_555
H9 C8 1_555 1_555
C9 C8 1_555 1_555
C10 C9 1_555 1_555
H10 C10 1_555 1_555
C11 C6 1_555 1_555
H11 C11 1_555 1_555
C12 C9 1_555 1_555
H12 C12 1_555 1_555
H13 C12 1_555 1_555
H14 C12 1_555 1_555
C13 N1 1_555 1_555
C14 C13 1_555 1_555
C15 C14 1_555 1_555
H15 C15 1_555 1_555
C16 C15 1_555 1_555
H16 C16 1_555 1_555
C17 C16 1_555 1_555
H17 C17 1_555 1_555
C18 C17 1_555 1_555
H18 C18 1_555 1_555
C19 C14 1_555 1_555
H19 C19 1_555 1_555
C4 C5 1_555 1_555
C10 C11 1_555 1_555
C18 C19 1_555 1_555

#END
