
#######################################################################
#
#                 Cambridge Crystallographic Data Centre
#                                CCDC 
#
#######################################################################
#
# If this CIF has been generated from an entry in the Cambridge 
# Structural Database, then it will include bibliographic, chemical, 
# crystal, experimental, refinement or atomic coordinate data resulting 
# from the CCDC's data processing and validation procedures.
#
#######################################################################

data_FAXQAW
_chemical_formula_moiety         'C51 H57 N9'
_chemical_name_systematic        
1,3,5-tris(bis(Pyrid-2-ylmethyl)amino)methyl-2,4,6-triethyl-benzene
_symmetry_cell_setting           triclinic
_symmetry_space_group_name_H-M   'P -1'
_symmetry_Int_Tables_number      2
_space_group_name_Hall           '-P 1'
loop_
_symmetry_equiv_pos_site_id
_symmetry_equiv_pos_as_xyz
1 x,y,z
2 -x,-y,-z
_cell_length_a                   12.0751(3)
_cell_length_b                   12.4215(3)
_cell_length_c                   16.77080(10)
_cell_angle_alpha                85.288(2)
_cell_angle_beta                 81.2730(10)
_cell_angle_gamma                67.5570(10)
_cell_volume                     2297.22
_exptl_crystal_colour            yellow-red
_exptl_crystal_description       plate
_chemical_melting_point          185-190deg.C
_cell_formula_units_Z            2
_exptl_crystal_recrystallization_method acetonitrile
loop_
_atom_site_label
_atom_site_type_symbol
_atom_site_fract_x
_atom_site_fract_y
_atom_site_fract_z
N1 N 0.6229(4) 0.6000(4) 0.1854(3)
C1 C 0.1248(4) 1.1402(3) 0.3322(2)
N2 N 0.2565(3) 1.1357(3) 0.4821(2)
N3 N 0.5170(3) 0.8919(3) 0.1688(2)
C2 C 0.2180(4) 1.0478(3) 0.3661(2)
C3 C 0.3068(4) 0.9624(3) 0.3168(2)
N4 N 0.0976(3) 1.3236(3) 0.1641(2)
C4 C 0.3030(4) 0.9663(3) 0.2331(2)
N5 N 0.0667(5) 1.2839(5) 0.6141(3)
C5 C 0.2100(4) 1.0571(3) 0.1986(2)
C6 C 0.2914(10) 1.3485(7) 0.4503(5)
H1 H 0.2113(10) 1.3484(7) 0.4637(5)
C7 C 0.1238(4) 1.1454(3) 0.2479(2)
N6 N 0.6644(5) 1.0773(5) 0.0861(3)
C8 C 0.0275(4) 1.2307(4) 0.3874(3)
H2 H 0.0600(4) 1.2349(4) 0.4353(3)
H3 H 0.0061(4) 1.3057(4) 0.3604(3)
N7 N -0.1382(5) 1.3939(4) 0.0422(3)
C9 C -0.0859(4) 1.2036(5) 0.4113(3)
H4 H -0.1436(4) 1.2632(5) 0.4458(3)
H5 H -0.0656(4) 1.1296(5) 0.4395(3)
H6 H -0.1201(4) 1.2011(5) 0.3638(3)
C10 C 0.4095(4) 0.8643(4) 0.3521(3)
H7 H 0.4283(4) 0.8928(4) 0.3977(3)
H8 H 0.4799(4) 0.8426(4) 0.3124(3)
N8 N 0.3230(5) 1.3451(5) 0.1051(3)
C11 C 0.3812(5) 0.7560(4) 0.3788(3)
H9 H 0.4495(5) 0.6981(4) 0.4003(3)
H10 H 0.3642(5) 0.7255(4) 0.3333(3)
H11 H 0.3121(5) 0.7763(4) 0.4196(3)
C12 C 0.1980(4) 1.0607(4) 0.1093(2)
H12 H 0.1674(4) 1.1404(4) 0.0904(2)
H13 H 0.2764(4) 1.0225(4) 0.0797(2)
C13 C 0.1144(5) 1.0022(5) 0.0930(3)
H14 H 0.1093(5) 1.0064(5) 0.0362(3)
H15 H 0.0354(5) 1.0411(5) 0.1217(3)
H16 H 0.1455(5) 0.9220(5) 0.1108(3)
C14 C 0.2206(4) 1.0448(4) 0.4567(2)
H17 H 0.1419(4) 1.0542(4) 0.4842(2)
H18 H 0.2762(4) 0.9699(4) 0.4725(2)
C15 C 0.2553(4) 1.1295(4) 0.5700(3)
H19 H 0.2953(4) 1.1774(4) 0.5842(3)
H20 H 0.2999(4) 1.0507(4) 0.5863(3)
C16 C 0.1295(5) 1.1688(5) 0.6150(3)
C17 C 0.0823(7) 1.0906(6) 0.6527(3)
H21 H 0.1295(7) 1.0085(6) 0.6523(3)
C18 C -0.0353(9) 1.1330(11) 0.6915(4)
H22 H -0.0720(9) 1.0802(11) 0.7164(4)
C19 C -0.0963(9) 1.2465(14) 0.6940(6)
H23 H -0.1762(9) 1.2765(14) 0.7232(6)
C20 C -0.0470(8) 1.3202(8) 0.6560(6)
H24 H -0.0939(8) 1.4024(8) 0.6583(6)
C21 C 0.3729(5) 1.1346(4) 0.4394(3)
H25 H 0.3800(5) 1.1133(4) 0.3846(3)
H26 H 0.4369(5) 1.0755(4) 0.4641(3)
C22 C 0.3899(7) 1.2466(6) 0.4390(3)
N9 N 0.5063(6) 1.2366(6) 0.4282(3)
C23 C 0.5206(13) 1.3438(14) 0.4238(5)
H27 H 0.6003(13) 1.3456(14) 0.4155(5)
C24 C 0.4257(18) 1.4421(10) 0.4310(7)
H28 H 0.4423(18) 1.5121(10) 0.4281(7)
C25 C 0.3121(15) 1.4560(14) 0.4415(9)
H29 H 0.2477(15) 1.5313(14) 0.4432(9)
C26 C 0.4019(4) 0.8742(4) 0.1803(2)
H30 H 0.4141(4) 0.7985(4) 0.2047(2)
H31 H 0.3761(4) 0.8762(4) 0.1286(2)
C27 C 0.5093(5) 0.9990(4) 0.1233(3)
H32 H 0.4280(5) 1.0550(4) 0.1330(3)
H33 H 0.5272(5) 0.9831(4) 0.0668(3)
C28 C 0.5945(4) 1.0504(4) 0.1455(3)
C29 C 0.5923(7) 1.0753(7) 0.2221(4)
H34 H 0.5400(7) 1.0539(7) 0.2638(4)
C30 C 0.6631(8) 1.1311(8) 0.2428(5)
H35 H 0.6593(8) 1.1509(8) 0.2975(5)
C31 C 0.7366(7) 1.1559(7) 0.1835(6)
H36 H 0.7892(7) 1.1926(7) 0.1950(6)
C32 C 0.7371(7) 1.1303(7) 0.1091(6)
H37 H 0.7913(7) 1.1494(7) 0.0676(6)
C33 C 0.6174(4) 0.7887(4) 0.1320(3)
H38 H 0.6850(4) 0.8100(4) 0.1113(3)
H39 H 0.5917(4) 0.7644(4) 0.0876(3)
C34 C 0.6562(4) 0.6892(5) 0.1915(3)
C35 C 0.7243(4) 0.6907(5) 0.2506(3)
H40 H 0.7487(4) 0.7552(5) 0.2532(3)
C36 C 0.7567(5) 0.5990(5) 0.3057(3)
H41 H 0.8034(5) 0.5993(5) 0.3471(3)
C37 C 0.7221(5) 0.5086(5) 0.3008(4)
H42 H 0.7438(5) 0.4435(5) 0.3382(4)
C38 C 0.6558(5) 0.5126(5) 0.2414(5)
H43 H 0.6303(5) 0.4488(5) 0.2389(5)
C39 C 0.0339(4) 1.2512(3) 0.2079(2)
H44 H -0.0039(4) 1.2256(3) 0.1709(2)
H45 H -0.0281(4) 1.2965(3) 0.2483(2)
C40 C 0.0174(5) 1.4157(4) 0.1149(3)
H46 H 0.0566(5) 1.4682(4) 0.0938(3)
H47 H -0.0553(5) 1.4593(4) 0.1487(3)
C41 C -0.0153(5) 1.3686(4) 0.0460(3)
C42 C 0.0695(4) 1.3090(4) -0.0095(3)
H48 H 0.1529(4) 1.2933(4) -0.0060(3)
C43 C 0.0388(6) 1.2706(5) -0.0706(3)
H49 H 0.1024(6) 1.2257(5) -0.1102(3)
C44 C -0.0775(7) 1.2904(5) -0.0811(4)
H50 H -0.0952(7) 1.2613(5) -0.1269(4)
C45 C -0.1653(6) 1.3517(6) -0.0254(4)
H51 H -0.2480(6) 1.3675(6) -0.0312(4)
C46 C 0.1499(4) 1.3738(4) 0.2166(3)
H52 H 0.1754(4) 1.3202(4) 0.2609(3)
H53 H 0.0885(4) 1.4440(4) 0.2384(3)
C47 C 0.2562(4) 1.4017(4) 0.1752(3)
C48 C 0.2820(4) 1.4761(4) 0.2114(3)
H54 H 0.2323(4) 1.5142(4) 0.2590(3)
C49 C 0.3776(6) 1.4971(5) 0.1806(4)
H55 H 0.3972(6) 1.5508(5) 0.2083(4)
C50 C 0.4534(6) 1.4487(6) 0.1117(4)
H56 H 0.5219(6) 1.4690(6) 0.0916(4)
C51 C 0.4263(6) 1.3709(6) 0.0734(4)
H57 H 0.4765(6) 1.3339(6) 0.0256(4)
loop_
_geom_bond_atom_site_label_1
_geom_bond_atom_site_label_2
_geom_bond_site_symmetry_1
_geom_bond_site_symmetry_2
N1 C34 1_555 1_555
C1 C2 1_555 1_555
N2 C14 1_555 1_555
N3 C26 1_555 1_555
C2 C3 1_555 1_555
C3 C4 1_555 1_555
N4 C39 1_555 1_555
C4 C5 1_555 1_555
N5 C16 1_555 1_555
C5 C7 1_555 1_555
C6 H1 1_555 1_555
C7 C1 1_555 1_555
N6 C28 1_555 1_555
C8 C1 1_555 1_555
H2 C8 1_555 1_555
H3 C8 1_555 1_555
N7 C41 1_555 1_555
C9 C8 1_555 1_555
H4 C9 1_555 1_555
H5 C9 1_555 1_555
H6 C9 1_555 1_555
C10 C3 1_555 1_555
H7 C10 1_555 1_555
H8 C10 1_555 1_555
N8 C47 1_555 1_555
C11 C10 1_555 1_555
H9 C11 1_555 1_555
H10 C11 1_555 1_555
H11 C11 1_555 1_555
C12 C5 1_555 1_555
H12 C12 1_555 1_555
H13 C12 1_555 1_555
C13 C12 1_555 1_555
H14 C13 1_555 1_555
H15 C13 1_555 1_555
H16 C13 1_555 1_555
C14 C2 1_555 1_555
H17 C14 1_555 1_555
H18 C14 1_555 1_555
C15 N2 1_555 1_555
H19 C15 1_555 1_555
H20 C15 1_555 1_555
C16 C15 1_555 1_555
C17 C16 1_555 1_555
H21 C17 1_555 1_555
C18 C17 1_555 1_555
H22 C18 1_555 1_555
C19 C18 1_555 1_555
H23 C19 1_555 1_555
C20 N5 1_555 1_555
H24 C20 1_555 1_555
C21 N2 1_555 1_555
H25 C21 1_555 1_555
H26 C21 1_555 1_555
C22 C6 1_555 1_555
N9 C22 1_555 1_555
C23 N9 1_555 1_555
H27 C23 1_555 1_555
C24 C23 1_555 1_555
H28 C24 1_555 1_555
C25 C6 1_555 1_555
H29 C25 1_555 1_555
C26 C4 1_555 1_555
H30 C26 1_555 1_555
H31 C26 1_555 1_555
C27 N3 1_555 1_555
H32 C27 1_555 1_555
H33 C27 1_555 1_555
C28 C27 1_555 1_555
C29 C28 1_555 1_555
H34 C29 1_555 1_555
C30 C29 1_555 1_555
H35 C30 1_555 1_555
C31 C30 1_555 1_555
H36 C31 1_555 1_555
C32 N6 1_555 1_555
H37 C32 1_555 1_555
C33 N3 1_555 1_555
H38 C33 1_555 1_555
H39 C33 1_555 1_555
C34 C33 1_555 1_555
C35 C34 1_555 1_555
H40 C35 1_555 1_555
C36 C35 1_555 1_555
H41 C36 1_555 1_555
C37 C36 1_555 1_555
H42 C37 1_555 1_555
C38 N1 1_555 1_555
H43 C38 1_555 1_555
C39 C7 1_555 1_555
H44 C39 1_555 1_555
H45 C39 1_555 1_555
C40 N4 1_555 1_555
H46 C40 1_555 1_555
H47 C40 1_555 1_555
C41 C40 1_555 1_555
C42 C41 1_555 1_555
H48 C42 1_555 1_555
C43 C42 1_555 1_555
H49 C43 1_555 1_555
C44 C43 1_555 1_555
H50 C44 1_555 1_555
C45 N7 1_555 1_555
H51 C45 1_555 1_555
C46 N4 1_555 1_555
H52 C46 1_555 1_555
H53 C46 1_555 1_555
C47 C46 1_555 1_555
C48 C47 1_555 1_555
H54 C48 1_555 1_555
C49 C48 1_555 1_555
H55 C49 1_555 1_555
C50 C49 1_555 1_555
H56 C50 1_555 1_555
C51 N8 1_555 1_555
H57 C51 1_555 1_555
C19 C20 1_555 1_555
C21 C22 1_555 1_555
C24 C25 1_555 1_555
C31 C32 1_555 1_555
C37 C38 1_555 1_555
C44 C45 1_555 1_555
C50 C51 1_555 1_555

#END
