
#######################################################################
#
#                 Cambridge Crystallographic Data Centre
#                                CCDC 
#
#######################################################################
#
# If this CIF has been generated from an entry in the Cambridge 
# Structural Database, then it will include bibliographic, chemical, 
# crystal, experimental, refinement or atomic coordinate data resulting 
# from the CCDC's data processing and validation procedures.
#
#######################################################################

data_FAXTON
_chemical_name_common            
9alpha-Acetoxy-8beta-(2'-(N-morpholino)ethyl)-10beta-methyl-trans-2-decalone
_chemical_formula_moiety         'C19 H31 N1 O4'
_chemical_name_systematic        
"4a-Methyl-8-(2'-(N-morpholino)-ethyl)-2-oxo-trans-decahydro-8a-naphthyl acetate"
_symmetry_cell_setting           monoclinic
_symmetry_space_group_name_H-M   'P 21/c'
_symmetry_Int_Tables_number      14
_space_group_name_Hall           '-P 2ybc'
loop_
_symmetry_equiv_pos_site_id
_symmetry_equiv_pos_as_xyz
1 x,y,z
2 -x,1/2+y,1/2-z
3 -x,-y,-z
4 x,1/2-y,1/2+z
_cell_length_a                   8.289(8)
_cell_length_b                   10.631(1)
_cell_length_c                   21.500(2)
_cell_angle_alpha                90
_cell_angle_beta                 94.25(1)
_cell_angle_gamma                90
_cell_volume                     1889.38
_cell_formula_units_Z            4
loop_
_atom_site_label
_atom_site_type_symbol
_atom_site_fract_x
_atom_site_fract_y
_atom_site_fract_z
C1 C 0.6024(4) -0.0661(3) 0.4097(1)
C2 C 0.4776(4) 0.0306(3) 0.4225(2)
C3 C 0.5372(5) 0.1631(3) 0.4317(2)
C4 C 0.6540(4) 0.2024(3) 0.3845(2)
C5 C 0.8904(4) 0.1486(3) 0.3230(2)
C6 C 1.0106(5) 0.0510(4) 0.3054(2)
C7 C 0.9277(5) -0.0732(4) 0.2882(2)
C8 C 0.8269(4) -0.1246(3) 0.3396(1)
C9 C 0.7102(3) -0.0235(2) 0.3595(1)
C10 C 0.7902(4) 0.1061(3) 0.3763(1)
O1 O 0.3372(3) 0.0028(3) 0.4289(1)
O2 O 0.6031(2) 0.0104(2) 0.3034(1)
C11 C 0.4973(4) -0.0706(3) 0.2736(2)
O3 O 0.4755(3) -0.1764(2) 0.2888(1)
C12 C 0.4129(5) -0.0067(4) 0.2185(2)
C13 C 0.9007(4) 0.1011(3) 0.4369(1)
C14 C 0.9362(4) -0.1859(3) 0.3924(1)
C15 C 0.9587(4) -0.3247(3) 0.3785(2)
N1 N 1.0868(3) -0.3857(2) 0.4179(1)
C16 C 1.2451(4) -0.3476(3) 0.4001(2)
C17 C 1.3767(5) -0.4155(4) 0.4382(2)
O4 O 1.3611(3) -0.5481(2) 0.4321(1)
C18 C 1.2090(6) -0.5859(4) 0.4495(2)
C19 C 1.0735(4) -0.5224(3) 0.4118(2)
H1 H 0.539(4) -0.149(4) 0.399(2)
H2 H 0.667(3) -0.080(2) 0.452(1)
H3 H 0.440(6) 0.224(5) 0.431(2)
H4 H 0.585(4) 0.164(4) 0.473(2)
H5 H 0.604(4) 0.213(3) 0.344(1)
H6 H 0.702(4) 0.278(4) 0.395(2)
H7 H 0.820(4) 0.167(4) 0.286(2)
H8 H 0.984(6) 0.234(5) 0.335(2)
H9 H 1.053(5) 0.089(4) 0.269(2)
H10 H 1.095(5) 0.039(4) 0.340(2)
H11 H 0.862(5) -0.065(4) 0.251(2)
H12 H 1.006(4) -0.137(3) 0.279(1)
H13 H 0.754(4) -0.192(3) 0.323(2)
H14 H 0.409(5) 0.077(4) 0.226(2)
H15 H 0.478(6) -0.017(5) 0.186(2)
H16 H 0.304(8) -0.033(6) 0.207(3)
H17 H 1.004(4) 0.053(3) 0.431(1)
H18 H 0.845(4) 0.071(3) 0.470(1)
H19 H 0.931(5) 0.189(4) 0.449(2)
H20 H 0.890(3) -0.175(3) 0.433(1)
H21 H 1.040(3) -0.144(3) 0.393(1)
H22 H 0.981(4) -0.333(3) 0.336(1)
H23 H 0.857(5) -0.369(4) 0.390(2)
H24 H 1.260(5) -0.254(4) 0.400(2)
H25 H 1.261(4) -0.361(3) 0.358(2)
H26 H 1.351(4) -0.403(3) 0.482(2)
H27 H 1.481(5) -0.399(4) 0.423(2)
H28 H 1.200(5) -0.570(4) 0.490(2)
H29 H 1.196(6) -0.675(5) 0.444(2)
H30 H 0.975(5) -0.547(4) 0.430(2)
H31 H 1.086(5) -0.544(4) 0.360(2)
loop_
_geom_bond_atom_site_label_1
_geom_bond_atom_site_label_2
_geom_bond_site_symmetry_1
_geom_bond_site_symmetry_2
C1 C2 1_555 1_555
C2 C3 1_555 1_555
C3 C4 1_555 1_555
C4 C10 1_555 1_555
C5 C6 1_555 1_555
C6 C7 1_555 1_555
C7 C8 1_555 1_555
C8 C9 1_555 1_555
C9 C1 1_555 1_555
C10 C5 1_555 1_555
O1 C2 1_555 1_555
O2 C9 1_555 1_555
C11 O2 1_555 1_555
O3 C11 1_555 1_555
C12 C11 1_555 1_555
C13 C10 1_555 1_555
C14 C8 1_555 1_555
C15 C14 1_555 1_555
N1 C15 1_555 1_555
C16 N1 1_555 1_555
C17 C16 1_555 1_555
O4 C17 1_555 1_555
C18 O4 1_555 1_555
C19 N1 1_555 1_555
H1 C1 1_555 1_555
H2 C1 1_555 1_555
H3 C3 1_555 1_555
H4 C3 1_555 1_555
H5 C4 1_555 1_555
H6 C4 1_555 1_555
H7 C5 1_555 1_555
H8 C5 1_555 1_555
H9 C6 1_555 1_555
H10 C6 1_555 1_555
H11 C7 1_555 1_555
H12 C7 1_555 1_555
H13 C8 1_555 1_555
H14 C12 1_555 1_555
H15 C12 1_555 1_555
H16 C12 1_555 1_555
H17 C13 1_555 1_555
H18 C13 1_555 1_555
H19 C13 1_555 1_555
H20 C14 1_555 1_555
H21 C14 1_555 1_555
H22 C15 1_555 1_555
H23 C15 1_555 1_555
H24 C16 1_555 1_555
H25 C16 1_555 1_555
H26 C17 1_555 1_555
H27 C17 1_555 1_555
H28 C18 1_555 1_555
H29 C18 1_555 1_555
H30 C19 1_555 1_555
H31 C19 1_555 1_555
C9 C10 1_555 1_555
C18 C19 1_555 1_555

#END
