
#######################################################################
#
#                 Cambridge Crystallographic Data Centre
#                                CCDC 
#
#######################################################################
#
# If this CIF has been generated from an entry in the Cambridge 
# Structural Database, then it will include bibliographic, chemical, 
# crystal, experimental, refinement or atomic coordinate data resulting 
# from the CCDC's data processing and validation procedures.
#
#######################################################################

data_FAZPAA
_chemical_formula_moiety         'C23 H31 N2 1-,C12 H24 K1 O6 1+'
_chemical_name_systematic        
'(18-crown-6)-potassium {N-[2,6-bis(propan-2-yl)phenyl]-2,2-dimethylpropanimidoyl}(phenyl)azanide'
_symmetry_cell_setting           triclinic
_symmetry_space_group_name_H-M   'P -1'
_symmetry_Int_Tables_number      2
_space_group_name_Hall           '-P 1'
loop_
_symmetry_equiv_pos_site_id
_symmetry_equiv_pos_as_xyz
1 x,y,z
2 -x,-y,-z
_cell_length_a                   10.1263(5)
_cell_length_b                   10.5558(6)
_cell_length_c                   17.6128(11)
_cell_angle_alpha                92.002(5)
_cell_angle_beta                 99.625(5)
_cell_angle_gamma                106.490(5)
_cell_volume                     1773.03
_exptl_crystal_colour            colorless
_exptl_crystal_description       block
_cell_formula_units_Z            2
loop_
_atom_site_label
_atom_site_type_symbol
_atom_site_fract_x
_atom_site_fract_y
_atom_site_fract_z
K1 K 1.0000 1.0000 0.5000
O1 O 1.07188(16) 1.15457(16) 0.37845(9)
O2 O 1.11266(16) 0.90273(16) 0.38688(9)
O3 O 1.08942(16) 0.77318(15) 0.52146(9)
C1 C 0.9848(3) 1.2367(2) 0.35840(14)
H1 H 0.8908 1.1828 0.3356
H2 H 1.0211 1.2959 0.3209
C2 C 1.0808(3) 1.0765(3) 0.31281(13)
H3 H 1.1164 1.1337 0.2743
H4 H 0.9886 1.0186 0.2899
C3 C 1.1768(3) 0.9961(3) 0.33826(14)
H5 H 1.1937 0.9505 0.2937
H6 H 1.2659 1.0531 0.3662
C4 C 1.1877(3) 0.8114(3) 0.40929(15)
H7 H 1.2768 0.8572 0.4422
H8 H 1.2062 0.7693 0.3640
C5 C 1.1022(3) 0.7098(2) 0.45172(15)
H9 H 1.0103 0.6690 0.4204
H10 H 1.1472 0.6411 0.4632
C6 C 1.0182(3) 0.6848(2) 0.57008(16)
H11 H 1.0663 0.6189 0.5833
H12 H 0.9234 0.6393 0.5437
O1A O 0.92812(16) 0.84543(16) 0.62155(9)
O2A O 0.88734(16) 1.09727(16) 0.61312(9)
O3A O 0.91058(16) 1.22682(15) 0.47854(9)
C1A C 1.0152(3) 0.7633(2) 0.64160(14)
H1A H 1.1092 0.8172 0.6644
H2A H 0.9789 0.7041 0.6791
C2A C 0.9192(3) 0.9235(3) 0.68719(13)
H3A H 0.8836 0.8663 0.7257
H4A H 1.0114 0.9814 0.7101
C3A C 0.8232(3) 1.0039(3) 0.66174(14)
H5A H 0.8063 1.0495 0.7063
H6A H 0.7341 0.9469 0.6338
C4A C 0.8123(3) 1.1886(3) 0.59071(15)
H7A H 0.7232 1.1428 0.5578
H8A H 0.7938 1.2307 0.6360
C5A C 0.8978(3) 1.2902(2) 0.54828(15)
H9A H 0.9897 1.3310 0.5796
H10A H 0.8528 1.3589 0.5368
C6A C 0.9818(3) 1.3152(2) 0.42992(16)
H11A H 0.9337 1.3811 0.4167
H12A H 1.0766 1.3607 0.4563
N1 N 0.76739(16) 0.79150(16) 0.24703(9)
N2 N 0.62940(16) 0.56108(15) 0.21603(9)
C7 C 0.71589(19) 0.81827(19) 0.31200(11)
C8 C 0.6676(2) 0.9295(2) 0.31822(12)
H13 H 0.6679 0.9835 0.2776
C9 C 0.6195(2) 0.9610(2) 0.38320(13)
H14 H 0.5863 1.0345 0.3850
C10 C 0.6199(2) 0.8854(2) 0.44526(13)
H15 H 0.5860 0.9060 0.4886
C11 C 0.6720(2) 0.7778(2) 0.44164(12)
H16 H 0.6745 0.7266 0.4834
C12 C 0.7203(2) 0.7455(2) 0.37717(11)
H17 H 0.7565 0.6738 0.3768
C13 C 0.73321(19) 0.66880(19) 0.21323(11)
C14 C 0.8371(2) 0.6435(2) 0.16387(11)
C15 C 0.9332(2) 0.7722(2) 0.14253(13)
H18 H 0.8775 0.8208 0.1140
H19 H 0.9948 0.7516 0.1113
H20 H 0.9876 0.8249 0.1888
C16 C 0.9268(2) 0.5712(2) 0.21371(13)
H21 H 0.9755 0.6262 0.2603
H22 H 0.9936 0.5529 0.1855
H23 H 0.8675 0.4895 0.2266
C17 C 0.7611(2) 0.5550(2) 0.08998(12)
H24 H 0.7029 0.4728 0.1030
H25 H 0.8286 0.5375 0.0620
H26 H 0.7040 0.5990 0.0584
C18 C 0.5160(2) 0.55466(18) 0.25217(11)
C19 C 0.4903(2) 0.46124(19) 0.30824(11)
C20 C 0.3724(2) 0.4443(2) 0.34182(12)
H27 H 0.3556 0.3831 0.3784
C21 C 0.2798(2) 0.5167(2) 0.32177(13)
H28 H 0.2023 0.5057 0.3455
C22 C 0.3028(2) 0.60557(19) 0.26635(11)
H29 H 0.2395 0.6535 0.2528
C23 C 0.41809(19) 0.62543(18) 0.23022(11)
C24 C 0.4329(2) 0.71462(19) 0.16455(11)
H30 H 0.5330 0.7587 0.1674
C25 C 0.3780(2) 0.6297(2) 0.08739(12)
H31 H 0.4296 0.5668 0.0842
H32 H 0.3895 0.6857 0.0457
H33 H 0.2805 0.5834 0.0838
C26 C 0.3593(3) 0.8220(2) 0.16722(15)
H34 H 0.2597 0.7816 0.1576
H35 H 0.3837 0.8816 0.1284
H36 H 0.3882 0.8704 0.2173
C27 C 0.5942(2) 0.3835(2) 0.33055(12)
H37 H 0.6879 0.4441 0.3314
C28 C 0.5729(3) 0.2684(2) 0.27043(13)
H38 H 0.4831 0.2051 0.2691
H39 H 0.6452 0.2264 0.2838
H40 H 0.5772 0.3012 0.2205
C29 C 0.5932(3) 0.3333(2) 0.41085(13)
H41 H 0.6097 0.4067 0.4485
H42 H 0.6656 0.2910 0.4228
H43 H 0.5038 0.2708 0.4117
K2 K 1.0000 1.0000 0.0000
O4 O 1.24380(15) 1.20019(14) 0.05950(8)
O5 O 0.99674(15) 1.18043(14) 0.11715(8)
O6 O 0.74043(15) 1.01300(14) 0.03398(8)
C30 C 1.3726(2) 1.1728(2) 0.05783(13)
H44 H 1.3879 1.1130 0.0967
H45 H 1.4494 1.2543 0.0691
C31 C 1.2439(2) 1.2660(2) 0.13142(12)
H46 H 1.3225 1.3461 0.1426
H47 H 1.2533 1.2088 0.1726
C32 C 1.1097(2) 1.3004(2) 0.12713(14)
H48 H 1.1116 1.3518 0.1743
H49 H 1.0974 1.3533 0.0840
C33 C 0.8658(2) 1.2045(2) 0.11861(14)
H50 H 0.8453 1.2578 0.0770
H51 H 0.8696 1.2526 0.1672
C34 C 0.7540(2) 1.0747(2) 0.10939(13)
H52 H 0.7786 1.0182 0.1482
H53 H 0.6658 1.0886 0.1160
C35 C 0.6324(2) 0.8895(2) 0.02060(13)
H54 H 0.5428 0.9038 0.0236
H55 H 0.6511 0.8312 0.0597
O4A O 0.75620(15) 0.79981(14) -0.05950(8)
O5A O 1.00326(15) 0.81957(14) -0.11715(8)
O6A O 1.25957(15) 0.98700(14) -0.03398(8)
C30A C 0.6274(2) 0.8272(2) -0.05783(13)
H44A H 0.6121 0.8870 -0.0967
H45A H 0.5506 0.7457 -0.0691
C31A C 0.7561(2) 0.7340(2) -0.13142(12)
H46A H 0.6775 0.6539 -0.1426
H47A H 0.7467 0.7912 -0.1726
C32A C 0.8903(2) 0.6996(2) -0.12713(14)
H48A H 0.8884 0.6482 -0.1743
H49A H 0.9026 0.6467 -0.0840
C33A C 1.1342(2) 0.7955(2) -0.11861(14)
H50A H 1.1547 0.7422 -0.0770
H51A H 1.1304 0.7474 -0.1672
C34A C 1.2460(2) 0.9253(2) -0.10939(13)
H52A H 1.2214 0.9818 -0.1482
H53A H 1.3342 0.9114 -0.1160
C35A C 1.3676(2) 1.1105(2) -0.02060(13)
H54A H 1.4572 1.0962 -0.0236
H55A H 1.3489 1.1688 -0.0597
N1A N 1.23261(16) 1.20850(16) -0.24703(9)
N2A N 1.37060(16) 1.43892(15) -0.21603(9)
C7A C 1.28411(19) 1.18173(19) -0.31200(11)
C8A C 1.3324(2) 1.0705(2) -0.31822(12)
H13A H 1.3321 1.0165 -0.2776
C9A C 1.3805(2) 1.0390(2) -0.38320(13)
H14A H 1.4137 0.9655 -0.3850
C10A C 1.3801(2) 1.1146(2) -0.44526(13)
H15A H 1.4140 1.0940 -0.4886
C11A C 1.3280(2) 1.2222(2) -0.44164(12)
H16A H 1.3255 1.2734 -0.4834
C12A C 1.2797(2) 1.2545(2) -0.37717(11)
H17A H 1.2435 1.3262 -0.3768
C13A C 1.26679(19) 1.33120(19) -0.21323(11)
C14A C 1.1629(2) 1.3565(2) -0.16387(11)
C15A C 1.0668(2) 1.2278(2) -0.14253(13)
H18A H 1.1225 1.1792 -0.1140
H19A H 1.0052 1.2484 -0.1113
H20A H 1.0124 1.1751 -0.1888
C16A C 1.0732(2) 1.4288(2) -0.21371(13)
H21A H 1.0245 1.3738 -0.2603
H22A H 1.0064 1.4471 -0.1855
H23A H 1.1325 1.5105 -0.2266
C17A C 1.2389(2) 1.4450(2) -0.08998(12)
H24A H 1.2971 1.5272 -0.1030
H25A H 1.1714 1.4625 -0.0620
H26A H 1.2960 1.4010 -0.0584
C18A C 1.4840(2) 1.44534(18) -0.25217(11)
C19A C 1.5097(2) 1.53876(19) -0.30824(11)
C20A C 1.6276(2) 1.5557(2) -0.34182(12)
H27A H 1.6444 1.6169 -0.3784
C21A C 1.7202(2) 1.4833(2) -0.32177(13)
H28A H 1.7977 1.4943 -0.3455
C22A C 1.6972(2) 1.39443(19) -0.26635(11)
H29A H 1.7605 1.3465 -0.2528
C23A C 1.58191(19) 1.37457(18) -0.23022(11)
C24A C 1.5671(2) 1.28538(19) -0.16455(11)
H30A H 1.4670 1.2413 -0.1674
C25A C 1.6220(2) 1.3703(2) -0.08739(12)
H31A H 1.5704 1.4332 -0.0842
H32A H 1.6105 1.3143 -0.0457
H33A H 1.7195 1.4166 -0.0838
C26A C 1.6407(3) 1.1780(2) -0.16722(15)
H34A H 1.7403 1.2184 -0.1576
H35A H 1.6163 1.1184 -0.1284
H36A H 1.6118 1.1296 -0.2173
C27A C 1.4058(2) 1.6165(2) -0.33055(12)
H37A H 1.3121 1.5559 -0.3314
C28A C 1.4271(3) 1.7316(2) -0.27043(13)
H38A H 1.5169 1.7949 -0.2691
H39A H 1.3548 1.7736 -0.2838
H40A H 1.4228 1.6988 -0.2205
C29A C 1.4068(3) 1.6667(2) -0.41085(13)
H41A H 1.3903 1.5933 -0.4485
H42A H 1.3344 1.7090 -0.4228
H43A H 1.4962 1.7292 -0.4117
loop_
_geom_bond_atom_site_label_1
_geom_bond_atom_site_label_2
_geom_bond_site_symmetry_1
_geom_bond_site_symmetry_2
K1 O1 1_555 1_555
O1 C1 1_555 1_555
O2 K1 1_555 1_555
O3 K1 1_555 1_555
C1 H1 1_555 1_555
H2 C1 1_555 1_555
C2 O1 1_555 1_555
H3 C2 1_555 1_555
H4 C2 1_555 1_555
C3 O2 1_555 1_555
H5 C3 1_555 1_555
H6 C3 1_555 1_555
C4 O2 1_555 1_555
H7 C4 1_555 1_555
H8 C4 1_555 1_555
C5 O3 1_555 1_555
H9 C5 1_555 1_555
H10 C5 1_555 1_555
C6 O3 1_555 1_555
H11 C6 1_555 1_555
H12 C6 1_555 1_555
N1 C7 1_555 1_555
N2 C13 1_555 1_555
C7 C8 1_555 1_555
C8 H13 1_555 1_555
C9 C8 1_555 1_555
H14 C9 1_555 1_555
C10 C9 1_555 1_555
H15 C10 1_555 1_555
C11 C10 1_555 1_555
H16 C11 1_555 1_555
C12 C7 1_555 1_555
H17 C12 1_555 1_555
C13 N1 1_555 1_555
C14 C13 1_555 1_555
C15 C14 1_555 1_555
H18 C15 1_555 1_555
H19 C15 1_555 1_555
H20 C15 1_555 1_555
C16 C14 1_555 1_555
H21 C16 1_555 1_555
H22 C16 1_555 1_555
H23 C16 1_555 1_555
C17 C14 1_555 1_555
H24 C17 1_555 1_555
H25 C17 1_555 1_555
H26 C17 1_555 1_555
C18 N2 1_555 1_555
C19 C18 1_555 1_555
C20 C19 1_555 1_555
H27 C20 1_555 1_555
C21 C20 1_555 1_555
H28 C21 1_555 1_555
C22 C21 1_555 1_555
H29 C22 1_555 1_555
C23 C18 1_555 1_555
C24 C23 1_555 1_555
H30 C24 1_555 1_555
C25 C24 1_555 1_555
H31 C25 1_555 1_555
H32 C25 1_555 1_555
H33 C25 1_555 1_555
C26 C24 1_555 1_555
H34 C26 1_555 1_555
H35 C26 1_555 1_555
H36 C26 1_555 1_555
C27 C19 1_555 1_555
H37 C27 1_555 1_555
C28 C27 1_555 1_555
H38 C28 1_555 1_555
H39 C28 1_555 1_555
H40 C28 1_555 1_555
C29 C27 1_555 1_555
H41 C29 1_555 1_555
H42 C29 1_555 1_555
H43 C29 1_555 1_555
K2 O4 1_555 1_555
O4 C30 1_555 1_555
O5 K2 1_555 1_555
O6 K2 1_555 1_555
C30 H44 1_555 1_555
H45 C30 1_555 1_555
C31 O4 1_555 1_555
H46 C31 1_555 1_555
H47 C31 1_555 1_555
C32 O5 1_555 1_555
H48 C32 1_555 1_555
H49 C32 1_555 1_555
C33 O5 1_555 1_555
H50 C33 1_555 1_555
H51 C33 1_555 1_555
C34 O6 1_555 1_555
H52 C34 1_555 1_555
H53 C34 1_555 1_555
C35 O6 1_555 1_555
H54 C35 1_555 1_555
H55 C35 1_555 1_555
O1A K1 1_555 1_555
O2A K1 1_555 1_555
O3A K1 1_555 1_555
C1A C6 1_555 1_555
H1A C1A 1_555 1_555
H2A C1A 1_555 1_555
C2A O1A 1_555 1_555
H3A C2A 1_555 1_555
H4A C2A 1_555 1_555
C3A O2A 1_555 1_555
H5A C3A 1_555 1_555
H6A C3A 1_555 1_555
C4A O2A 1_555 1_555
H7A C4A 1_555 1_555
H8A C4A 1_555 1_555
C5A O3A 1_555 1_555
H9A C5A 1_555 1_555
H10A C5A 1_555 1_555
C6A C1 1_555 1_555
H11A C6A 1_555 1_555
H12A C6A 1_555 1_555
O4A K2 1_555 1_555
O5A K2 1_555 1_555
O6A K2 1_555 1_555
C30A C35 1_555 1_555
H44A C30A 1_555 1_555
H45A C30A 1_555 1_555
C31A O4A 1_555 1_555
H46A C31A 1_555 1_555
H47A C31A 1_555 1_555
C32A O5A 1_555 1_555
H48A C32A 1_555 1_555
H49A C32A 1_555 1_555
C33A O5A 1_555 1_555
H50A C33A 1_555 1_555
H51A C33A 1_555 1_555
C34A O6A 1_555 1_555
H52A C34A 1_555 1_555
H53A C34A 1_555 1_555
C35A C30 1_555 1_555
H54A C35A 1_555 1_555
H55A C35A 1_555 1_555
N1A C7A 1_555 1_555
N2A C13A 1_555 1_555
C7A C8A 1_555 1_555
C8A H13A 1_555 1_555
C9A C8A 1_555 1_555
H14A C9A 1_555 1_555
C10A C9A 1_555 1_555
H15A C10A 1_555 1_555
C11A C10A 1_555 1_555
H16A C11A 1_555 1_555
C12A C7A 1_555 1_555
H17A C12A 1_555 1_555
C13A N1A 1_555 1_555
C14A C13A 1_555 1_555
C15A C14A 1_555 1_555
H18A C15A 1_555 1_555
H19A C15A 1_555 1_555
H20A C15A 1_555 1_555
C16A C14A 1_555 1_555
H21A C16A 1_555 1_555
H22A C16A 1_555 1_555
H23A C16A 1_555 1_555
C17A C14A 1_555 1_555
H24A C17A 1_555 1_555
H25A C17A 1_555 1_555
H26A C17A 1_555 1_555
C18A N2A 1_555 1_555
C19A C18A 1_555 1_555
C20A C19A 1_555 1_555
H27A C20A 1_555 1_555
C21A C20A 1_555 1_555
H28A C21A 1_555 1_555
C22A C21A 1_555 1_555
H29A C22A 1_555 1_555
C23A C18A 1_555 1_555
C24A C23A 1_555 1_555
H30A C24A 1_555 1_555
C25A C24A 1_555 1_555
H31A C25A 1_555 1_555
H32A C25A 1_555 1_555
H33A C25A 1_555 1_555
C26A C24A 1_555 1_555
H34A C26A 1_555 1_555
H35A C26A 1_555 1_555
H36A C26A 1_555 1_555
C27A C19A 1_555 1_555
H37A C27A 1_555 1_555
C28A C27A 1_555 1_555
H38A C28A 1_555 1_555
H39A C28A 1_555 1_555
H40A C28A 1_555 1_555
C29A C27A 1_555 1_555
H41A C29A 1_555 1_555
H42A C29A 1_555 1_555
H43A C29A 1_555 1_555
C2 C3 1_555 1_555
C4 C5 1_555 1_555
C11 C12 1_555 1_555
C22 C23 1_555 1_555
C31 C32 1_555 1_555
C33 C34 1_555 1_555
O1A C1A 1_555 1_555
O3A C6A 1_555 1_555
C2A C3A 1_555 1_555
C4A C5A 1_555 1_555
O4A C30A 1_555 1_555
O6A C35A 1_555 1_555
C31A C32A 1_555 1_555
C33A C34A 1_555 1_555
C11A C12A 1_555 1_555
C22A C23A 1_555 1_555

#END
