
#######################################################################
#
#                 Cambridge Crystallographic Data Centre
#                                CCDC 
#
#######################################################################
#
# If this CIF has been generated from an entry in the Cambridge 
# Structural Database, then it will include bibliographic, chemical, 
# crystal, experimental, refinement or atomic coordinate data resulting 
# from the CCDC's data processing and validation procedures.
#
#######################################################################

data_FAZRUW
_chemical_formula_moiety         'C16 H10 F1 N1 O3'
_chemical_name_systematic        
5-fluoro-1'-methyl-3H-spiro[2-benzofuran-1,3'-indole]-2',3(1'H)-dione
_symmetry_cell_setting           monoclinic
_symmetry_space_group_name_H-M   'P 21/c'
_symmetry_Int_Tables_number      14
_space_group_name_Hall           '-P 2ybc'
loop_
_symmetry_equiv_pos_site_id
_symmetry_equiv_pos_as_xyz
1 x,y,z
2 -x,1/2+y,1/2-z
3 -x,-y,-z
4 x,1/2-y,1/2+z
_cell_length_a                   10.8437(15)
_cell_length_b                   16.386(2)
_cell_length_c                   7.5183(10)
_cell_angle_alpha                90
_cell_angle_beta                 100.479(15)
_cell_angle_gamma                90
_cell_volume                     1313.61
_exptl_crystal_description       block
_cell_formula_units_Z            4
loop_
_atom_site_label
_atom_site_type_symbol
_atom_site_fract_x
_atom_site_fract_y
_atom_site_fract_z
O1 O 0.69871(13) 0.01563(8) 0.39210(19)
N1 N 0.95546(15) -0.08362(10) 0.3099(2)
C1 C 0.82511(18) -0.10254(11) 0.5147(3)
O2 O 0.82601(15) -0.01433(10) 0.0843(2)
C2 C 0.94636(18) -0.11449(11) 0.4824(2)
C3 C 0.63550(18) -0.10838(12) 0.2568(3)
O3 O 0.51509(15) 0.08142(9) 0.3365(2)
C4 C 1.03794(19) -0.15147(13) 0.6061(3)
H1 H 1.1184 -0.1594 0.5826
C5 C 0.53319(18) -0.05768(12) 0.2359(3)
C6 C 0.7949(2) -0.12717(12) 0.6768(3)
H2 H 0.7148 -0.1186 0.7013
C7 C 0.6240(2) -0.18702(13) 0.1929(3)
H3 H 0.6932 -0.2215 0.2062
C8 C 0.74850(18) -0.06287(11) 0.3528(3)
C9 C 1.0054(2) -0.17657(13) 0.7679(3)
H4 H 1.0654 -0.2018 0.8546
C10 C 0.8462(2) -0.04900(12) 0.2286(3)
C11 C 0.8866(2) -0.16500(13) 0.8027(3)
H5 H 0.8674 -0.1827 0.9120
F1 F 0.29379(16) -0.18943(11) 0.0072(3)
C12 C 0.5729(2) 0.02072(13) 0.3205(3)
C13 C 0.4149(2) -0.08240(15) 0.1502(3)
H6 H 0.3458 -0.0478 0.1352
C14 C 1.06993(19) -0.08473(15) 0.2349(3)
H7 H 1.0542 -0.0606 0.1166
H8 H 1.0973 -0.1401 0.2264
H9 H 1.1339 -0.0543 0.3121
C15 C 0.5075(2) -0.21346(15) 0.1086(3)
H10 H 0.4965 -0.2665 0.0647
C16 C 0.4071(2) -0.16051(17) 0.0898(4)
loop_
_geom_bond_atom_site_label_1
_geom_bond_atom_site_label_2
_geom_bond_site_symmetry_1
_geom_bond_site_symmetry_2
O1 C8 1_555 1_555
N1 C2 1_555 1_555
C1 C2 1_555 1_555
O2 C10 1_555 1_555
C2 C4 1_555 1_555
C3 C5 1_555 1_555
O3 C12 1_555 1_555
C4 H1 1_555 1_555
C5 C12 1_555 1_555
C6 C1 1_555 1_555
H2 C6 1_555 1_555
C7 C3 1_555 1_555
H3 C7 1_555 1_555
C8 C1 1_555 1_555
C9 C4 1_555 1_555
H4 C9 1_555 1_555
C10 N1 1_555 1_555
C11 C6 1_555 1_555
H5 C11 1_555 1_555
F1 C16 1_555 1_555
C12 O1 1_555 1_555
C13 C5 1_555 1_555
H6 C13 1_555 1_555
C14 N1 1_555 1_555
H7 C14 1_555 1_555
H8 C14 1_555 1_555
H9 C14 1_555 1_555
C15 C7 1_555 1_555
H10 C15 1_555 1_555
C16 C13 1_555 1_555
C3 C8 1_555 1_555
C8 C10 1_555 1_555
C9 C11 1_555 1_555
C15 C16 1_555 1_555

#END
