
#######################################################################
#
#                 Cambridge Crystallographic Data Centre
#                                CCDC 
#
#######################################################################
#
# If this CIF has been generated from an entry in the Cambridge 
# Structural Database, then it will include bibliographic, chemical, 
# crystal, experimental, refinement or atomic coordinate data resulting 
# from the CCDC's data processing and validation procedures.
#
#######################################################################

data_FAZSOR
_chemical_formula_moiety         'C30 H22 F6 N4 O4,1.5(C2 H6 O1 S1)'
_chemical_name_systematic        
"3,8-bis(furan-2-yl)-4,9-diphenyl-2,7-bis(trifluoromethyl)-3a,4,8a,9-tetrahydro-3H,8H-dipyrazolo[1,5-a:1',5'-d]pyrazine-4,9-diol dimethyl sulfoxide solvate"
_symmetry_cell_setting           monoclinic
_symmetry_space_group_name_H-M   'P 21'
_symmetry_Int_Tables_number      4
_space_group_name_Hall           'P 2yb'
loop_
_symmetry_equiv_pos_site_id
_symmetry_equiv_pos_as_xyz
1 x,y,z
2 -x,1/2+y,-z
_cell_length_a                   11.9665(13)
_cell_length_b                   19.693(2)
_cell_length_c                   15.9001(17)
_cell_angle_alpha                90
_cell_angle_beta                 109.008(2)
_cell_angle_gamma                90
_cell_volume                     3542.65
_exptl_crystal_colour            colorless
_exptl_crystal_description       block
_cell_formula_units_Z            4
loop_
_atom_site_label
_atom_site_type_symbol
_atom_site_fract_x
_atom_site_fract_y
_atom_site_fract_z
F1 F -0.2551(4) 0.5174(3) 0.3280(3)
F2 F -0.3373(4) 0.4228(3) 0.3220(3)
F3 F -0.3603(4) 0.4972(4) 0.4078(4)
F4 F 0.3527(4) 0.5131(4) 0.9071(3)
F5 F 0.4723(5) 0.4477(4) 0.8883(5)
F6 F 0.4425(6) 0.5353(4) 0.8211(4)
O1 O 0.1295(3) 0.52237(19) 0.5735(3)
H1 H 0.0961 0.5276 0.6106
O2 O -0.0270(3) 0.49729(17) 0.6652(2)
H2 H -0.0140 0.5142 0.7146
O3 O -0.3720(4) 0.3512(4) 0.4927(4)
O4 O 0.3986(5) 0.3249(3) 0.7510(4)
N1 N 0.1257(3) 0.4140(2) 0.7003(3)
N2 N 0.1942(4) 0.4474(2) 0.7766(3)
N3 N 0.0072(3) 0.4255(2) 0.5178(3)
N4 N -0.0729(4) 0.4562(2) 0.4468(3)
C1 C 0.1913(6) 0.3834(4) 0.4424(4)
H3 H 0.1523 0.3465 0.4565
C2 C 0.2514(7) 0.3759(6) 0.3816(5)
H4 H 0.2528 0.3341 0.3547
C3 C 0.3084(8) 0.4306(7) 0.3616(6)
H5 H 0.3473 0.4261 0.3199
C4 C 0.3090(8) 0.4903(7) 0.4014(7)
H6 H 0.3505 0.5263 0.3879
C5 C 0.2500(6) 0.5004(4) 0.4621(5)
H7 H 0.2508 0.5425 0.4888
C6 C 0.1892(5) 0.4457(3) 0.4820(4)
C7 C 0.1268(4) 0.4539(3) 0.5506(3)
C8 C -0.1772(5) 0.4453(3) 0.4505(4)
C9 C -0.2815(5) 0.4697(4) 0.3770(4)
C10 C -0.1819(4) 0.4094(3) 0.5326(4)
H8 H -0.2102 0.4412 0.5685
C11 C -0.2528(5) 0.3451(4) 0.5210(4)
C12 C -0.2249(6) 0.2819(4) 0.5337(5)
H9 H -0.1487 0.2643 0.5533
C13 C -0.3313(10) 0.2441(6) 0.5123(6)
H10 H -0.3383 0.1972 0.5149
C14 C -0.4167(9) 0.2878(6) 0.4885(6)
H11 H -0.4967 0.2772 0.4711
C15 C -0.0493(4) 0.3964(2) 0.5793(3)
H12 H -0.0355 0.3472 0.5831
C16 C -0.0008(4) 0.4268(3) 0.6742(3)
C17 C -0.0566(4) 0.3908(3) 0.7344(3)
C18 C -0.0265(5) 0.3245(3) 0.7574(4)
H13 H 0.0335 0.3040 0.7411
C19 C -0.0845(7) 0.2879(4) 0.8045(5)
H14 H -0.0640 0.2429 0.8194
C20 C -0.1719(7) 0.3176(5) 0.8294(5)
H15 H -0.2114 0.2927 0.8606
C21 C -0.2017(6) 0.3849(5) 0.8082(5)
H16 H -0.2595 0.4055 0.8268
C22 C -0.1455(5) 0.4214(4) 0.7592(4)
H17 H -0.1672 0.4662 0.7432
C23 C 0.2977(4) 0.4546(3) 0.7716(3)
C24 C 0.3152(4) 0.4315(3) 0.6865(3)
H18 H 0.3373 0.4704 0.6569
C25 C 0.1874(4) 0.4089(3) 0.6331(3)
H19 H 0.1879 0.3615 0.6144
C26 C 0.3894(5) 0.4868(4) 0.8465(4)
C27 C 0.4024(5) 0.3765(3) 0.6963(4)
C28 C 0.4848(6) 0.3630(4) 0.6610(6)
H20 H 0.5050 0.3902 0.6204
C29 C 0.4839(8) 0.2784(5) 0.7462(7)
H21 H 0.4998 0.2372 0.7762
C30 C 0.5369(7) 0.3012(5) 0.6944(6)
H22 H 0.5991 0.2804 0.6813
F7 F 1.2313(4) 0.5675(3) 1.1757(3)
F8 F 1.3247(4) 0.6568(3) 1.1656(3)
F9 F 1.3313(4) 0.5703(3) 1.0895(4)
F10 F 0.5032(10) 0.6209(6) 0.6082(10)
F11 F 0.5543(12) 0.5265(6) 0.6726(6)
F12 F 0.6355(8) 0.5579(8) 0.5816(6)
O5 O 1.0095(3) 0.56936(16) 0.8309(2)
H23 H 0.9705 0.5567 0.8619
O6 O 0.8530(3) 0.55365(17) 0.9208(2)
H24 H 0.8840 0.5317 0.9663
O7 O 1.3532(4) 0.7209(3) 0.9961(3)
O8 O 0.5884(4) 0.7481(2) 0.7351(3)
N5 N 0.9725(3) 0.6517(2) 0.9754(3)
N6 N 1.0514(3) 0.6226(2) 1.0494(3)
N7 N 0.8583(3) 0.6547(2) 0.7909(3)
N8 N 0.7913(3) 0.6217(2) 0.7162(3)
C31 C 0.6982(5) 0.5907(3) 1.0122(4)
H25 H 0.6825 0.5525 0.9758
C32 C 0.6337(6) 0.6016(5) 1.0696(5)
H26 H 0.5760 0.5709 1.0723
C33 C 0.6570(8) 0.6592(7) 1.1226(6)
H27 H 0.6144 0.6673 1.1612
C34 C 0.7421(8) 0.7042(5) 1.1186(6)
H28 H 0.7574 0.7425 1.1548
C35 C 0.8063(6) 0.6931(4) 1.0604(4)
H29 H 0.8628 0.7244 1.0570
C36 C 0.7855(4) 0.6357(3) 1.0084(3)
C37 C 0.8525(4) 0.6246(3) 0.9427(3)
C38 C 0.7946(4) 0.6632(3) 0.8568(3)
H30 H 0.7933 0.7115 0.8709
C39 C 0.6670(4) 0.6407(3) 0.8021(3)
H31 H 0.6436 0.6027 0.8324
C40 C 0.6860(4) 0.6151(3) 0.7187(3)
C41 C 0.5932(5) 0.5827(3) 0.6425(4)
C42 C 0.5798(4) 0.6965(3) 0.7901(4)
C43 C 0.4937(5) 0.7087(4) 0.8232(5)
H32 H 0.4693 0.6807 0.8609
C44 C 0.4458(6) 0.7730(4) 0.7898(5)
H33 H 0.3861 0.7961 0.8034
C45 C 0.5022(7) 0.7937(4) 0.7361(6)
H34 H 0.4858 0.8337 0.7033
C46 C 0.9846(4) 0.6400(2) 0.8223(3)
C47 C 1.0444(4) 0.6690(3) 0.7598(3)
C48 C 1.0127(5) 0.7332(3) 0.7227(4)
H35 H 0.9507 0.7566 0.7327
C49 C 1.0738(6) 0.7624(4) 0.6707(4)
H36 H 1.0511 0.8048 0.6450
C50 C 1.1663(6) 0.7294(5) 0.6573(4)
H37 H 1.2080 0.7499 0.6239
C51 C 1.1984(5) 0.6661(4) 0.6927(4)
H38 H 1.2604 0.6431 0.6821
C52 C 1.1386(4) 0.6367(3) 0.7439(4)
H39 H 1.1619 0.5941 0.7686
C53 C 1.0310(4) 0.6765(3) 0.9126(3)
H40 H 1.0165 0.7254 0.9034
C54 C 1.1630(4) 0.6647(3) 0.9617(3)
H41 H 1.1937 0.6315 0.9287
C55 C 1.2348(4) 0.7283(3) 0.9745(3)
C56 C 1.2055(6) 0.7935(3) 0.9702(4)
H42 H 1.1295 0.8111 0.9563
C57 C 1.3126(8) 0.8316(4) 0.9910(5)
H43 H 1.3204 0.8786 0.9943
C58 C 1.3969(7) 0.7872(5) 1.0043(6)
H44 H 1.4763 0.7981 1.0177
C59 C 1.1563(4) 0.6319(3) 1.0475(4)
C60 C 1.2589(5) 0.6064(4) 1.1194(5)
S1 S 0.8211(3) 0.88668(19) 0.9201(2)
O9 O 0.8731(14) 0.8197(8) 0.9092(15)
C61 C 0.9069(14) 0.9223(8) 1.0227(8)
H45 H 0.8744 0.9655 1.0305
H46 H 0.9062 0.8924 1.0703
H47 H 0.9867 0.9283 1.0231
C62 C 0.6976(12) 0.8662(11) 0.9553(15)
H48 H 0.6594 0.9073 0.9637
H49 H 0.6426 0.8388 0.9108
H50 H 0.7245 0.8416 1.0104
S3 S 0.0157(4) 0.9801(3) 0.8432(3)
O11 O 0.106(2) 0.9771(14) 0.9349(7)
C65 C 0.056(2) 1.0476(7) 0.7864(13)
H57 H 0.0001 1.0510 0.7275
H58 H 0.0563 1.0893 0.8179
H59 H 0.1334 1.0394 0.7829
C66 C 0.030(2) 0.9132(8) 0.7811(13)
H60 H -0.0279 0.9162 0.7230
H61 H 0.1079 0.9137 0.7756
H62 H 0.0194 0.8718 0.8092
S5 S 0.8616(17) 0.6883(11) 0.4036(14)
O13 O 0.907(2) 0.7591(9) 0.424(2)
C69 C 0.9888(18) 0.6375(10) 0.4129(19)
H69 H 0.9653 0.5910 0.4004
H70 H 1.0256 0.6532 0.3711
H71 H 1.0438 0.6411 0.4722
C70 C 0.840(2) 0.6577(13) 0.5023(15)
H72 H 0.8106 0.6120 0.4930
H73 H 0.9136 0.6586 0.5502
H74 H 0.7836 0.6861 0.5170
F13? F 0.4960(10) 0.5766(12) 0.6559(9)
F14? F 0.6226(14) 0.5268(8) 0.6188(14)
F15? F 0.5642(15) 0.6233(8) 0.5697(7)
S2? S 0.8380(9) 0.8539(4) 0.9820(9)
O10? O 0.903(2) 0.8305(18) 0.924(3)
C63? C 0.885(3) 0.9345(12) 1.024(3)
H51? H 0.8417 0.9487 1.0624
H52? H 0.9681 0.9330 1.0579
H53? H 0.8724 0.9661 0.9762
C64? C 0.6935(19) 0.875(2) 0.914(3)
H54? H 0.6488 0.8907 0.9508
H55? H 0.6971 0.9104 0.8736
H56? H 0.6560 0.8358 0.8813
S4? S 0.1213(5) 0.9794(3) 0.8459(3)
O12? O 0.108(2) 0.9720(16) 0.9353(7)
C67? C 0.009(3) 1.0319(16) 0.7798(18)
H63? H 0.0173 1.0367 0.7220
H64? H -0.0666 1.0120 0.7737
H65? H 0.0143 1.0757 0.8072
C68? C 0.089(3) 0.9046(10) 0.7877(19)
H66? H 0.0983 0.9105 0.7303
H67? H 0.1420 0.8697 0.8198
H68? H 0.0092 0.8916 0.7802
S6? S 0.8360(18) 0.6877(12) 0.4067(14)
O14? O 0.905(3) 0.7505(12) 0.411(3)
C71? C 0.9253(18) 0.6328(9) 0.4901(15)
H75? H 0.8838 0.5910 0.4896
H76? H 0.9977 0.6236 0.4786
H77? H 0.9425 0.6540 0.5473
C72? C 0.7285(18) 0.7025(13) 0.4590(18)
H78? H 0.6829 0.6619 0.4563
H79? H 0.7671 0.7147 0.5200
H80? H 0.6773 0.7387 0.4290
loop_
_geom_bond_atom_site_label_1
_geom_bond_atom_site_label_2
_geom_bond_site_symmetry_1
_geom_bond_site_symmetry_2
F1 C9 1_555 1_555
F2 C9 1_555 1_555
F3 C9 1_555 1_555
F4 C26 1_555 1_555
F5 C26 1_555 1_555
F6 C26 1_555 1_555
O1 H1 1_555 1_555
O2 H2 1_555 1_555
O3 C11 1_555 1_555
O4 C27 1_555 1_555
N1 N2 1_555 1_555
N2 C23 1_555 1_555
N3 N4 1_555 1_555
N4 C8 1_555 1_555
C1 H3 1_555 1_555
C2 C1 1_555 1_555
H4 C2 1_555 1_555
C3 C2 1_555 1_555
H5 C3 1_555 1_555
C4 C3 1_555 1_555
H6 C4 1_555 1_555
C5 C4 1_555 1_555
H7 C5 1_555 1_555
C6 C1 1_555 1_555
C7 O1 1_555 1_555
C8 C9 1_555 1_555
C10 C8 1_555 1_555
H8 C10 1_555 1_555
C11 C10 1_555 1_555
C12 C11 1_555 1_555
H9 C12 1_555 1_555
C13 C12 1_555 1_555
H10 C13 1_555 1_555
C14 O3 1_555 1_555
H11 C14 1_555 1_555
C15 N3 1_555 1_555
H12 C15 1_555 1_555
C16 O2 1_555 1_555
C17 C16 1_555 1_555
C18 C17 1_555 1_555
H13 C18 1_555 1_555
C19 C18 1_555 1_555
H14 C19 1_555 1_555
C20 C19 1_555 1_555
H15 C20 1_555 1_555
C21 C20 1_555 1_555
H16 C21 1_555 1_555
C22 C17 1_555 1_555
H17 C22 1_555 1_555
C23 C24 1_555 1_555
C24 H18 1_555 1_555
C25 N1 1_555 1_555
H19 C25 1_555 1_555
C26 C23 1_555 1_555
C27 C24 1_555 1_555
C28 C27 1_555 1_555
H20 C28 1_555 1_555
C29 O4 1_555 1_555
H21 C29 1_555 1_555
C30 C28 1_555 1_555
H22 C30 1_555 1_555
F7 C60 1_555 1_555
F8 C60 1_555 1_555
F9 C60 1_555 1_555
F10 C41 1_555 1_555
F11 C41 1_555 1_555
F12 C41 1_555 1_555
O5 H23 1_555 1_555
O6 H24 1_555 1_555
O7 C55 1_555 1_555
O8 C42 1_555 1_555
N5 N6 1_555 1_555
N6 C59 1_555 1_555
N7 N8 1_555 1_555
N8 C40 1_555 1_555
C31 H25 1_555 1_555
C32 C31 1_555 1_555
H26 C32 1_555 1_555
C33 C32 1_555 1_555
H27 C33 1_555 1_555
C34 C33 1_555 1_555
H28 C34 1_555 1_555
C35 C34 1_555 1_555
H29 C35 1_555 1_555
C36 C31 1_555 1_555
C37 O6 1_555 1_555
C38 N7 1_555 1_555
H30 C38 1_555 1_555
C39 C38 1_555 1_555
H31 C39 1_555 1_555
C40 C39 1_555 1_555
C41 C40 1_555 1_555
C42 C39 1_555 1_555
C43 C42 1_555 1_555
H32 C43 1_555 1_555
C44 C43 1_555 1_555
H33 C44 1_555 1_555
C45 O8 1_555 1_555
H34 C45 1_555 1_555
C46 O5 1_555 1_555
C47 C46 1_555 1_555
C48 C47 1_555 1_555
H35 C48 1_555 1_555
C49 C48 1_555 1_555
H36 C49 1_555 1_555
C50 C49 1_555 1_555
H37 C50 1_555 1_555
C51 C50 1_555 1_555
H38 C51 1_555 1_555
C52 C47 1_555 1_555
H39 C52 1_555 1_555
C53 N5 1_555 1_555
H40 C53 1_555 1_555
C54 C53 1_555 1_555
H41 C54 1_555 1_555
C55 C54 1_555 1_555
C56 C55 1_555 1_555
H42 C56 1_555 1_555
C57 C56 1_555 1_555
H43 C57 1_555 1_555
C58 O7 1_555 1_555
H44 C58 1_555 1_555
C59 C54 1_555 1_555
C60 C59 1_555 1_555
S1 O9 1_555 1_555
C61 S1 1_555 1_555
H45 C61 1_555 1_555
H46 C61 1_555 1_555
H47 C61 1_555 1_555
C62 S1 1_555 1_555
H48 C62 1_555 1_555
H49 C62 1_555 1_555
H50 C62 1_555 1_555
S3 O11 1_555 1_555
C65 S3 1_555 1_555
H57 C65 1_555 1_555
H58 C65 1_555 1_555
H59 C65 1_555 1_555
C66 S3 1_555 1_555
H60 C66 1_555 1_555
H61 C66 1_555 1_555
H62 C66 1_555 1_555
S5 O13 1_555 1_555
C69 S5 1_555 1_555
H69 C69 1_555 1_555
H70 C69 1_555 1_555
H71 C69 1_555 1_555
C70 S5 1_555 1_555
H72 C70 1_555 1_555
H73 C70 1_555 1_555
H74 C70 1_555 1_555
N1 C16 1_555 1_555
N3 C7 1_555 1_555
C5 C6 1_555 1_555
C6 C7 1_555 1_555
C7 C25 1_555 1_555
C10 C15 1_555 1_555
C13 C14 1_555 1_555
C15 C16 1_555 1_555
C21 C22 1_555 1_555
C24 C25 1_555 1_555
C29 C30 1_555 1_555
N5 C37 1_555 1_555
N7 C46 1_555 1_555
C35 C36 1_555 1_555
C36 C37 1_555 1_555
C37 C38 1_555 1_555
C44 C45 1_555 1_555
C46 C53 1_555 1_555
C51 C52 1_555 1_555
C57 C58 1_555 1_555

#END
