
#######################################################################
#
#                 Cambridge Crystallographic Data Centre
#                                CCDC 
#
#######################################################################
#
# If this CIF has been generated from an entry in the Cambridge 
# Structural Database, then it will include bibliographic, chemical, 
# crystal, experimental, refinement or atomic coordinate data resulting 
# from the CCDC's data processing and validation procedures.
#
#######################################################################

data_FEBBOD
_chemical_formula_moiety         'C24 H34 O8'
_chemical_name_systematic        
1,4-Epoxy-2,6,6-tris(methoxycarbonyl)-10-methyl-13-isopropyl-14-hydroxytricyclo(8.4.0.0^4,9^)tetradec-2-ene
_symmetry_cell_setting           triclinic
_symmetry_space_group_name_H-M   'P -1'
_symmetry_Int_Tables_number      2
_space_group_name_Hall           '-P 1'
loop_
_symmetry_equiv_pos_site_id
_symmetry_equiv_pos_as_xyz
1 x,y,z
2 -x,-y,-z
_cell_length_a                   9.4124(13)
_cell_length_b                   9.8140(11)
_cell_length_c                   13.2718(15)
_cell_angle_alpha                86.483(9)
_cell_angle_beta                 70.810(10)
_cell_angle_gamma                87.215(10)
_cell_volume                     1155.13
_cell_formula_units_Z            2
loop_
_atom_site_label
_atom_site_type_symbol
_atom_site_fract_x
_atom_site_fract_y
_atom_site_fract_z
C1 C 0.9986(6) 0.7989(5) 0.8636(4)
C2 C 0.8410(6) 0.7558(5) 0.9366(4)
C3 C 0.7194(6) 0.7679(5) 0.8829(4)
C4 C 0.7189(5) 0.9119(5) 0.8353(4)
C5 C 0.6075(5) 0.9670(5) 0.7759(4)
C6 C 0.7225(5) 1.0307(5) 0.6716(4)
C7 C 0.8082(5) 0.9123(5) 0.6057(4)
C8 C 0.8978(5) 0.8574(5) 0.6570(4)
C9 C 0.8738(5) 0.9429(5) 0.7530(4)
C10 C 0.9961(5) 0.9390(5) 0.8029(4)
C11 C 0.5028(5) 1.0805(5) 0.8366(4)
C12 C 0.4402(6) 1.1748(6) 0.7647(4)
C13 C 0.5656(6) 1.2546(6) 0.6811(4)
C14 C 0.6681(6) 1.1475(6) 0.6103(4)
C15 C 0.5134(6) 0.8561(6) 0.7538(5)
C16 C 0.6449(6) 1.3574(5) 0.7269(5)
C17 C 0.7263(7) 1.4666(6) 0.6438(5)
C18 C 0.5351(7) 1.4310(6) 0.8215(5)
C19 C 0.7814(7) 0.8582(6) 0.5113(4)
C20 C 0.8754(7) 0.7081(6) 0.3713(5)
C21 C 1.0732(6) 0.6869(6) 0.7866(4)
C22 C 1.2988(7) 0.6260(6) 0.6511(5)
C23 C 1.0967(6) 0.8087(6) 0.9340(4)
C24 C 1.1992(8) 0.6777(7) 1.0514(5)
O1 O 0.7948(5) 1.1992(4) 0.5275(3)
O2 O 0.8401(3) 1.0759(3) 0.71087(25)
O3 O 0.6769(5) 0.8868(5) 0.4823(4)
O4 O 0.8906(4) 0.7696(4) 0.4631(3)
O5 O 1.0174(4) 0.5831(4) 0.7768(3)
O6 O 1.2127(4) 0.7205(4) 0.7288(3)
O7 O 1.1514(4) 0.9097(4) 0.9489(3)
O8 O 1.1125(5) 0.6866(4) 0.9799(3)
H1 H 0.869(8) 1.192(8) 0.553(6)
H2 H 0.850 0.660 0.961
H3 H 0.810 0.813 0.999
H4 H 0.620 0.748 0.935
H5 H 0.742 0.704 0.825
H6 H 0.703 0.972 0.895
H7 H 0.966 0.777 0.636
H8 H 1.093 0.954 0.747
H9 H 0.976 1.011 0.855
H10 H 0.562 1.136 0.867
H11 H 0.419 1.041 0.895
H12 H 0.394 1.117 0.727
H13 H 0.364 1.239 0.807
H14 H 0.517 1.310 0.636
H15 H 0.607 1.105 0.574
H16 H 0.580 0.783 0.715
H17 H 0.445 0.818 0.822
H18 H 0.455 0.897 0.710
H19 H 0.719 1.307 0.753
H20 H 0.800 1.423 0.583
H21 H 0.652 1.520 0.619
H22 H 0.778 1.528 0.675
H23 H 0.482 1.364 0.878
H24 H 0.589 1.492 0.851
H25 H 0.463 1.484 0.795
H26 H 0.960 0.644 0.342
H27 H 0.781 0.659 0.393
H28 H 0.874 0.780 0.316
H29 H 1.399 0.662 0.614
H30 H 1.309 0.537 0.687
H31 H 1.247 0.615 0.599
H32 H 1.206 0.584 1.080
H33 H 1.301 0.710 1.013
H34 H 1.150 0.737 1.111
loop_
_geom_bond_atom_site_label_1
_geom_bond_atom_site_label_2
_geom_bond_site_symmetry_1
_geom_bond_site_symmetry_2
C1 C2 1_555 1_555
C2 C3 1_555 1_555
C3 C4 1_555 1_555
C4 C5 1_555 1_555
C5 C6 1_555 1_555
C6 C7 1_555 1_555
C7 C8 1_555 1_555
C8 C9 1_555 1_555
C9 C4 1_555 1_555
C10 C1 1_555 1_555
C11 C5 1_555 1_555
C12 C11 1_555 1_555
C13 C12 1_555 1_555
C14 C6 1_555 1_555
C15 C5 1_555 1_555
C16 C13 1_555 1_555
C17 C16 1_555 1_555
C18 C16 1_555 1_555
C19 C7 1_555 1_555
C20 O4 1_555 1_555
C21 C1 1_555 1_555
C22 O6 1_555 1_555
C23 C1 1_555 1_555
C24 O8 1_555 1_555
O1 C14 1_555 1_555
O2 C6 1_555 1_555
O3 C19 1_555 1_555
O4 C19 1_555 1_555
O5 C21 1_555 1_555
O6 C21 1_555 1_555
O7 C23 1_555 1_555
O8 C23 1_555 1_555
H1 O1 1_555 1_555
H2 C2 1_555 1_555
H3 C2 1_555 1_555
H4 C3 1_555 1_555
H5 C3 1_555 1_555
H6 C4 1_555 1_555
H7 C8 1_555 1_555
H8 C10 1_555 1_555
H9 C10 1_555 1_555
H10 C11 1_555 1_555
H11 C11 1_555 1_555
H12 C12 1_555 1_555
H13 C12 1_555 1_555
H14 C13 1_555 1_555
H15 C14 1_555 1_555
H16 C15 1_555 1_555
H17 C15 1_555 1_555
H18 C15 1_555 1_555
H19 C16 1_555 1_555
H20 C17 1_555 1_555
H21 C17 1_555 1_555
H22 C17 1_555 1_555
H23 C18 1_555 1_555
H24 C18 1_555 1_555
H25 C18 1_555 1_555
H26 C20 1_555 1_555
H27 C20 1_555 1_555
H28 C20 1_555 1_555
H29 C22 1_555 1_555
H30 C22 1_555 1_555
H31 C22 1_555 1_555
H32 C24 1_555 1_555
H33 C24 1_555 1_555
H34 C24 1_555 1_555
C9 C10 1_555 1_555
C9 O2 1_555 1_555
C13 C14 1_555 1_555

#END
