
#######################################################################
#
#                 Cambridge Crystallographic Data Centre
#                                CCDC 
#
#######################################################################
#
# If this CIF has been generated from an entry in the Cambridge 
# Structural Database, then it will include bibliographic, chemical, 
# crystal, experimental, refinement or atomic coordinate data resulting 
# from the CCDC's data processing and validation procedures.
#
#######################################################################

data_FEBNAE
_chemical_formula_moiety         'C25 H32 N1 1+,0.26(H2 O1),Cl1 1-'
_chemical_name_systematic        
'1-[3-(9H-fluoren-9-ylidene)propyl]-2,2,6,6-tetramethylpiperidin-1-ium chloride hydrate'
_symmetry_cell_setting           monoclinic
_symmetry_space_group_name_H-M   'P 21/c'
_symmetry_Int_Tables_number      14
_space_group_name_Hall           '-P 2ybc'
loop_
_symmetry_equiv_pos_site_id
_symmetry_equiv_pos_as_xyz
1 x,y,z
2 -x,1/2+y,1/2-z
3 -x,-y,-z
4 x,1/2-y,1/2+z
_cell_length_a                   25.0211(8)
_cell_length_b                   13.2663(5)
_cell_length_c                   13.5992(4)
_cell_angle_alpha                90
_cell_angle_beta                 103.116(2)
_cell_angle_gamma                90
_cell_volume                     4396.32
_exptl_crystal_colour            colorless
_exptl_crystal_description       prism
_cell_formula_units_Z            8
loop_
_atom_site_label
_atom_site_type_symbol
_atom_site_fract_x
_atom_site_fract_y
_atom_site_fract_z
Cl1 Cl 0.04048(2) 0.36385(4) 0.79413(4)
N1 N -0.01850(7) 0.25674(13) 0.59626(13)
H1 H 0.0000(9) 0.2881(17) 0.6580(18)
C1 C 0.01813(8) 0.26474(18) 0.52183(15)
H2 H 0.0003 0.3091 0.4654
H3 H 0.022 0.1971 0.4935
C2 C 0.07504(8) 0.30620(17) 0.56877(16)
H4 H 0.0722 0.3774 0.5887
H5 H 0.0919 0.267 0.6299
C3 C 0.10992(8) 0.29861(17) 0.49256(16)
H6 H 0.099 0.2498 0.4408
C4 C 0.15457(8) 0.35258(16) 0.48911(15)
C5 C -0.07133(8) 0.32121(17) 0.56548(16)
C6 C -0.10239(9) 0.31279(17) 0.64998(16)
H7 H -0.0811 0.3476 0.7107
H8 H -0.138 0.348 0.6286
C7 C -0.11297(9) 0.20422(17) 0.67813(16)
H9 H -0.1321 0.204 0.7343
H10 H -0.1367 0.17 0.6195
C8 C -0.05867(8) 0.14801(17) 0.70983(15)
H11 H -0.0662 0.0778 0.7274
H12 H -0.0364 0.1803 0.7712
C9 C -0.02547(8) 0.14604(16) 0.62837(15)
C10 C -0.05297(9) 0.43055(17) 0.55961(18)
H13 H -0.0844 0.4756 0.5562
H14 H -0.0384 0.4396 0.4991
H15 H -0.0244 0.4466 0.6197
C11 C -0.10767(9) 0.28962(18) 0.46385(16)
H16 H -0.1299 0.2313 0.4736
H17 H -0.0845 0.2717 0.4172
H18 H -0.1318 0.3457 0.4356
C12 C 0.03206(8) 0.10494(17) 0.67532(16)
H19 H 0.0289 0.0372 0.7022
H20 H 0.0503 0.1495 0.7302
H21 H 0.0536 0.1019 0.6236
C13 C -0.05301(9) 0.07962(17) 0.53976(16)
H22 H -0.0493 0.0087 0.5603
H23 H -0.0354 0.0904 0.4832
H24 H -0.092 0.0971 0.5189
C14 C 0.18328(8) 0.34679(16) 0.40511(15)
C15 C 0.17528(9) 0.28203(17) 0.32259(16)
H25 H 0.1484 0.2302 0.3143
C16 C 0.20760(9) 0.29500(18) 0.25228(17)
H26 H 0.2027 0.2514 0.1955
C17 C 0.24671(9) 0.37075(19) 0.26426(17)
H27 H 0.268 0.3786 0.2152
C18 C 0.25529(9) 0.43561(18) 0.34692(16)
H28 H 0.2824 0.487 0.3551
C19 C 0.22312(8) 0.42320(16) 0.41741(15)
C20 C 0.18295(8) 0.43275(16) 0.55707(15)
C21 C 0.17763(8) 0.46573(17) 0.65131(15)
H29 H 0.1514 0.4358 0.6829
C22 C 0.21144(9) 0.54344(17) 0.69893(16)
H30 H 0.2084 0.5659 0.7637
C23 C 0.24955(9) 0.58827(18) 0.65262(17)
H31 H 0.2718 0.6417 0.6857
C24 C 0.25540(9) 0.55585(17) 0.55864(16)
H32 H 0.2813 0.5871 0.527
C25 C 0.22295(8) 0.47720(16) 0.51143(15)
Cl2 Cl 0.5039(3) 0.8069(4) 0.4351(5)
O1 O 0.44094(17) 1.0049(3) 0.4636(3)
H33 H 0.465(2) 1.051(4) 0.497(5)
H34 H 0.459(3) 0.949(3) 0.454(6)
N2 N 0.55387(7) 0.66388(16) 0.29179(14)
H35 H 0.5362(12) 0.705(2) 0.340(2)
C26 C 0.50751(8) 0.62672(19) 0.20680(16)
H36 H 0.5128 0.6531 0.1416
H37 H 0.5085 0.5522 0.204
C27 C 0.45191(9) 0.6605(2) 0.22207(18)
H38 H 0.4492 0.644 0.2918
H39 H 0.4487 0.7346 0.2137
C28 C 0.40548(9) 0.6109(2) 0.14859(17)
H40 H 0.4142 0.5759 0.0933
C29 C 0.35296(9) 0.61184(19) 0.15478(16)
C30 C 0.58189(9) 0.57767(19) 0.36177(17)
C31 C 0.62447(10) 0.6247(2) 0.44834(19)
H41 H 0.6049 0.6619 0.4927
H42 H 0.6456 0.5699 0.4889
C32 C 0.66446(10) 0.6960(2) 0.4155(2)
H43 H 0.6865 0.6591 0.3753
H44 H 0.6897 0.7251 0.4755
C33 C 0.63189(11) 0.7798(2) 0.3521(2)
H45 H 0.6578 0.8279 0.3321
H46 H 0.6107 0.8169 0.3937
C34 C 0.59235(10) 0.7408(2) 0.2569(2)
C35 C 0.53720(11) 0.5305(2) 0.4077(2)
H47 H 0.5106 0.4953 0.3549
H48 H 0.5185 0.5835 0.4372
H49 H 0.554 0.4823 0.4604
C36 C 0.60715(11) 0.4977(2) 0.3061(2)
H50 H 0.6425 0.5218 0.296
H51 H 0.5825 0.4843 0.2404
H52 H 0.6127 0.4356 0.3461
C37 C 0.55603(12) 0.8285(2) 0.2081(2)
H53 H 0.5792 0.885 0.1972
H54 H 0.5324 0.8499 0.2528
H55 H 0.5332 0.8067 0.1432
C38 C 0.62195(11) 0.6961(3) 0.1815(2)
H56 H 0.6394 0.7502 0.1509
H57 H 0.5956 0.6604 0.1287
H58 H 0.65 0.6487 0.2161
C39 C 0.30739(9) 0.55959(18) 0.08492(17)
C40 C 0.30790(10) 0.4972(2) 0.00268(18)
H59 H 0.3409 0.4853 -0.0188
C41 C 0.25864(11) 0.4526(2) -0.0474(2)
H60 H 0.2584 0.4096 -0.1033
C42 C 0.20998(11) 0.4697(2) -0.0174(2)
H61 H 0.177 0.4388 -0.0529
C43 C 0.20953(10) 0.5319(2) 0.0647(2)
H62 H 0.1764 0.5438 0.0856
C44 C 0.25836(9) 0.57658(18) 0.11567(18)
C45 C 0.32744(9) 0.66160(18) 0.23104(17)
C46 C 0.34933(10) 0.7193(2) 0.31567(18)
H63 H 0.3873 0.7353 0.3323
C47 C 0.31483(10) 0.7535(2) 0.37604(19)
H64 H 0.3296 0.7921 0.4348
C48 C 0.25907(10) 0.7318(2) 0.3510(2)
H65 H 0.236 0.7559 0.3925
C49 C 0.23673(10) 0.6753(2) 0.2662(2)
H66 H 0.1986 0.6607 0.2492
C50 C 0.27070(9) 0.64035(18) 0.20627(18)
Cl3? Cl 0.4974(3) 0.7919(6) 0.4415(5)
loop_
_geom_bond_atom_site_label_1
_geom_bond_atom_site_label_2
_geom_bond_site_symmetry_1
_geom_bond_site_symmetry_2
N1 H1 1_555 1_555
C1 N1 1_555 1_555
H2 C1 1_555 1_555
H3 C1 1_555 1_555
C2 C1 1_555 1_555
H4 C2 1_555 1_555
H5 C2 1_555 1_555
C3 C2 1_555 1_555
H6 C3 1_555 1_555
C4 C3 1_555 1_555
C5 N1 1_555 1_555
C6 C5 1_555 1_555
H7 C6 1_555 1_555
H8 C6 1_555 1_555
C7 C6 1_555 1_555
H9 C7 1_555 1_555
H10 C7 1_555 1_555
C8 C7 1_555 1_555
H11 C8 1_555 1_555
H12 C8 1_555 1_555
C9 N1 1_555 1_555
C10 C5 1_555 1_555
H13 C10 1_555 1_555
H14 C10 1_555 1_555
H15 C10 1_555 1_555
C11 C5 1_555 1_555
H16 C11 1_555 1_555
H17 C11 1_555 1_555
H18 C11 1_555 1_555
C12 C9 1_555 1_555
H19 C12 1_555 1_555
H20 C12 1_555 1_555
H21 C12 1_555 1_555
C13 C9 1_555 1_555
H22 C13 1_555 1_555
H23 C13 1_555 1_555
H24 C13 1_555 1_555
C14 C4 1_555 1_555
C15 C14 1_555 1_555
H25 C15 1_555 1_555
C16 C15 1_555 1_555
H26 C16 1_555 1_555
C17 C16 1_555 1_555
H27 C17 1_555 1_555
C18 C17 1_555 1_555
H28 C18 1_555 1_555
C19 C14 1_555 1_555
C20 C4 1_555 1_555
C21 C20 1_555 1_555
H29 C21 1_555 1_555
C22 C21 1_555 1_555
H30 C22 1_555 1_555
C23 C22 1_555 1_555
H31 C23 1_555 1_555
C24 C23 1_555 1_555
H32 C24 1_555 1_555
C25 C19 1_555 1_555
O1 H33 1_555 1_555
H34 O1 1_555 1_555
N2 H35 1_555 1_555
C26 N2 1_555 1_555
H36 C26 1_555 1_555
H37 C26 1_555 1_555
C27 C26 1_555 1_555
H38 C27 1_555 1_555
H39 C27 1_555 1_555
C28 C27 1_555 1_555
H40 C28 1_555 1_555
C29 C28 1_555 1_555
C30 N2 1_555 1_555
C31 C30 1_555 1_555
H41 C31 1_555 1_555
H42 C31 1_555 1_555
C32 C31 1_555 1_555
H43 C32 1_555 1_555
H44 C32 1_555 1_555
C33 C32 1_555 1_555
H45 C33 1_555 1_555
H46 C33 1_555 1_555
C34 N2 1_555 1_555
C35 C30 1_555 1_555
H47 C35 1_555 1_555
H48 C35 1_555 1_555
H49 C35 1_555 1_555
C36 C30 1_555 1_555
H50 C36 1_555 1_555
H51 C36 1_555 1_555
H52 C36 1_555 1_555
C37 C34 1_555 1_555
H53 C37 1_555 1_555
H54 C37 1_555 1_555
H55 C37 1_555 1_555
C38 C34 1_555 1_555
H56 C38 1_555 1_555
H57 C38 1_555 1_555
H58 C38 1_555 1_555
C39 C29 1_555 1_555
C40 C39 1_555 1_555
H59 C40 1_555 1_555
C41 C40 1_555 1_555
H60 C41 1_555 1_555
C42 C41 1_555 1_555
H61 C42 1_555 1_555
C43 C42 1_555 1_555
H62 C43 1_555 1_555
C44 C39 1_555 1_555
C45 C29 1_555 1_555
C46 C45 1_555 1_555
H63 C46 1_555 1_555
C47 C46 1_555 1_555
H64 C47 1_555 1_555
C48 C47 1_555 1_555
H65 C48 1_555 1_555
C49 C48 1_555 1_555
H66 C49 1_555 1_555
C50 C44 1_555 1_555
C8 C9 1_555 1_555
C18 C19 1_555 1_555
C20 C25 1_555 1_555
C24 C25 1_555 1_555
C33 C34 1_555 1_555
C43 C44 1_555 1_555
C45 C50 1_555 1_555
C49 C50 1_555 1_555

#END
