
#######################################################################
#
#                 Cambridge Crystallographic Data Centre
#                                CCDC 
#
#######################################################################
#
# If this CIF has been generated from an entry in the Cambridge 
# Structural Database, then it will include bibliographic, chemical, 
# crystal, experimental, refinement or atomic coordinate data resulting 
# from the CCDC's data processing and validation procedures.
#
#######################################################################

data_FEBXIW
_chemical_formula_moiety         'C21 H18 P1 1+,F6 P1 1-'
_chemical_name_systematic        
'1-methyl-1,2-diphenyl-1H-phosphindol-1-ium hexafluorophosphate'
_symmetry_cell_setting           monoclinic
_symmetry_space_group_name_H-M   'P 21/c'
_symmetry_Int_Tables_number      14
_space_group_name_Hall           '-P 2ybc'
loop_
_symmetry_equiv_pos_site_id
_symmetry_equiv_pos_as_xyz
1 x,y,z
2 -x,1/2+y,1/2-z
3 -x,-y,-z
4 x,1/2-y,1/2+z
_cell_length_a                   11.5651(2)
_cell_length_b                   8.32080(10)
_cell_length_c                   20.4281(3)
_cell_angle_alpha                90
_cell_angle_beta                 94.8115(9)
_cell_angle_gamma                90
_cell_volume                     1958.89
_exptl_crystal_colour            colorless
_exptl_crystal_description       prism
_cell_formula_units_Z            4
_exptl_crystal_recrystallization_method 'dichloromethane/diethyl ether'
loop_
_atom_site_label
_atom_site_type_symbol
_atom_site_fract_x
_atom_site_fract_y
_atom_site_fract_z
P1 P 0.68917(4) 0.00444(6) 0.63245(2)
C1 C 0.83801(17) 0.0681(2) 0.63226(9)
C2 C 0.7875(2) -0.4331(3) 0.51905(11)
H1 H 0.814(2) -0.517(3) 0.4957(13)
C3 C 1.01612(19) 0.4453(3) 0.65283(12)
H2 H 1.080(2) 0.494(3) 0.6356(13)
C4 C 0.9616(2) 0.5261(3) 0.70041(11)
H3 H 0.992(2) 0.631(4) 0.7144(13)
C5 C 0.8675(2) 0.4585(3) 0.72646(11)
H4 H 0.830(2) 0.513(3) 0.7592(14)
C6 C 0.8261(2) 0.3093(3) 0.70476(11)
H5 H 0.763(2) 0.266(3) 0.7236(12)
C7 C 0.6888(2) -0.1511(3) 0.81985(11)
C8 C 0.5944(2) -0.0724(3) 0.84185(10)
H6 H 0.579(2) -0.082(3) 0.8866(13)
C9 C 0.5246(2) 0.0239(3) 0.80039(11)
H7 H 0.458(2) 0.076(3) 0.8143(12)
C10 C 0.89574(18) -0.0462(3) 0.60132(10)
H8 H 0.978(2) -0.035(3) 0.5943(10)
C11 C 0.6710(2) -0.4238(3) 0.53174(10)
H9 H 0.618(2) -0.503(3) 0.5159(12)
C12 C 0.59291(19) 0.1440(3) 0.58938(10)
C13 C 0.64705(16) -0.0294(2) 0.71382(9)
C14 C 0.71620(19) -0.1296(3) 0.75564(10)
H10 H 0.783(2) -0.184(3) 0.7399(12)
C15 C 0.55039(18) 0.0466(3) 0.73590(10)
H11 H 0.501(2) 0.116(3) 0.7066(12)
C16 C 0.86595(19) -0.3131(3) 0.54079(10)
H12 H 0.948(2) -0.321(3) 0.5323(11)
C17 C 0.70947(18) -0.1776(2) 0.58825(9)
C18 C 0.63075(19) -0.2942(3) 0.56662(10)
H13 H 0.550(2) -0.286(3) 0.5754(11)
C19 C 0.88044(17) 0.2257(2) 0.65651(9)
C20 C 0.82641(17) -0.1848(2) 0.57592(9)
C21 C 0.97688(18) 0.2961(3) 0.63069(11)
H14 H 1.012(2) 0.239(3) 0.5951(13)
H15 H 0.598(2) 0.244(3) 0.6127(12)
H16 H 0.735(2) -0.219(3) 0.8487(13)
H17 H 0.516(2) 0.101(3) 0.5862(11)
H18 H 0.620(2) 0.157(3) 0.5455(13)
P2 P 0.74089(4) 0.12563(6) 0.41002(2)
F1 F 0.67210(13) -0.00255(17) 0.45051(7)
F2 F 0.82904(13) 0.15355(18) 0.47320(7)
F3 F 0.65178(13) 0.09743(18) 0.34788(7)
F4 F 0.66023(12) 0.26644(16) 0.43485(7)
F5 F 0.80895(13) 0.25321(17) 0.37066(7)
F6 F 0.82111(11) -0.01564(16) 0.38657(7)
loop_
_geom_bond_atom_site_label_1
_geom_bond_atom_site_label_2
_geom_bond_site_symmetry_1
_geom_bond_site_symmetry_2
P1 C1 1_555 1_555
C1 C10 1_555 1_555
C2 H1 1_555 1_555
C3 H2 1_555 1_555
C4 C3 1_555 1_555
H3 C4 1_555 1_555
C5 C4 1_555 1_555
H4 C5 1_555 1_555
C6 C5 1_555 1_555
H5 C6 1_555 1_555
C7 C8 1_555 1_555
C8 H6 1_555 1_555
C9 C8 1_555 1_555
H7 C9 1_555 1_555
C10 H8 1_555 1_555
C11 C2 1_555 1_555
H9 C11 1_555 1_555
C12 P1 1_555 1_555
C13 P1 1_555 1_555
C14 C7 1_555 1_555
H10 C14 1_555 1_555
C15 C9 1_555 1_555
H11 C15 1_555 1_555
C16 C2 1_555 1_555
H12 C16 1_555 1_555
C17 P1 1_555 1_555
C18 C11 1_555 1_555
H13 C18 1_555 1_555
C19 C1 1_555 1_555
C20 C10 1_555 1_555
C21 C3 1_555 1_555
H14 C21 1_555 1_555
H15 C12 1_555 1_555
H16 C7 1_555 1_555
H17 C12 1_555 1_555
H18 C12 1_555 1_555
P2 F1 1_555 1_555
F2 P2 1_555 1_555
F3 P2 1_555 1_555
F4 P2 1_555 1_555
F5 P2 1_555 1_555
F6 P2 1_555 1_555
C6 C19 1_555 1_555
C13 C14 1_555 1_555
C13 C15 1_555 1_555
C16 C20 1_555 1_555
C17 C18 1_555 1_555
C17 C20 1_555 1_555
C19 C21 1_555 1_555

#END
