
#######################################################################
#
#                 Cambridge Crystallographic Data Centre
#                                CCDC 
#
#######################################################################
#
# If this CIF has been generated from an entry in the Cambridge 
# Structural Database, then it will include bibliographic, chemical, 
# crystal, experimental, refinement or atomic coordinate data resulting 
# from the CCDC's data processing and validation procedures.
#
#######################################################################

data_FECFUR
_chemical_formula_moiety         'C1 H4 N2 O1,C7 H5 N1 O4'
_chemical_name_systematic        'urea 3-nitrobenzoic acid'
_symmetry_cell_setting           monoclinic
_symmetry_space_group_name_H-M   'P 21/c'
_symmetry_Int_Tables_number      14
_space_group_name_Hall           '-P 2ybc'
loop_
_symmetry_equiv_pos_site_id
_symmetry_equiv_pos_as_xyz
1 x,y,z
2 -x,1/2+y,1/2-z
3 -x,-y,-z
4 x,1/2-y,1/2+z
_cell_length_a                   8.084(4)
_cell_length_b                   12.756(6)
_cell_length_c                   9.490(4)
_cell_angle_alpha                90
_cell_angle_beta                 93.543(12)
_cell_angle_gamma                90
_cell_volume                     976.734
_exptl_crystal_colour            colorless
_exptl_crystal_description       Brick
_cell_formula_units_Z            4
loop_
_atom_site_label
_atom_site_type_symbol
_atom_site_fract_x
_atom_site_fract_y
_atom_site_fract_z
C1 C 0.1197(4) 0.2606(2) 0.3695(3)
H1 H 0.111(5) 0.315(3) 0.1848(18)
H2 H 0.102(5) 0.3964(13) 0.303(4)
N1 N 0.0939(4) 0.3331(2) 0.2698(3)
N2 N 0.1026(4) 0.16072(18) 0.3317(3)
H3 H 0.1176 0.112 0.3938
H4 H 0.0764 0.1448 0.2451
O1 O 0.1578(3) 0.28421(15) 0.4955(2)
N3 N 0.2689(4) 0.93060(18) 0.5294(3)
C2 C 0.3280(4) 0.8288(2) 0.5838(3)
C3 C 0.2609(4) 0.7391(2) 0.5189(3)
H5 H 0.1831 0.7438 0.4428
C4 C 0.3140(4) 0.6427(2) 0.5714(3)
C5 C 0.4309(4) 0.6380(2) 0.6841(4)
H6 H 0.4662 0.5731 0.719
C6 C 0.4960(5) 0.7286(2) 0.7457(4)
H7 H 0.5745 0.7242 0.8214
C7 C 0.4450(4) 0.8251(2) 0.6953(4)
H8 H 0.4885 0.8864 0.7357
C8 C 0.2417(4) 0.5457(2) 0.5030(3)
O2 O 0.1493(3) 0.54792(16) 0.3977(3)
H9 H 0.237(5) 0.407(2) 0.530(4)
O3 O 0.2887(3) 0.45956(16) 0.5706(3)
O4 O 0.1625(4) 0.9333(2) 0.4353(3)
O5 O 0.3285(4) 1.0098(2) 0.5831(3)
loop_
_geom_bond_atom_site_label_1
_geom_bond_atom_site_label_2
_geom_bond_site_symmetry_1
_geom_bond_site_symmetry_2
C1 N1 1_555 1_555
H1 N1 1_555 1_555
H2 N1 1_555 1_555
N2 C1 1_555 1_555
H3 N2 1_555 1_555
H4 N2 1_555 1_555
O1 C1 1_555 1_555
N3 C2 1_555 1_555
C2 C3 1_555 1_555
C3 H5 1_555 1_555
C4 C3 1_555 1_555
C5 C4 1_555 1_555
H6 C5 1_555 1_555
C6 C5 1_555 1_555
H7 C6 1_555 1_555
C7 C2 1_555 1_555
H8 C7 1_555 1_555
C8 C4 1_555 1_555
O2 C8 1_555 1_555
H9 O3 1_555 1_555
O3 C8 1_555 1_555
O4 N3 1_555 1_555
O5 N3 1_555 1_555
C6 C7 1_555 1_555

#END
