
#######################################################################
#
#                 Cambridge Crystallographic Data Centre
#                                CCDC 
#
#######################################################################
#
# If this CIF has been generated from an entry in the Cambridge 
# Structural Database, then it will include bibliographic, chemical, 
# crystal, experimental, refinement or atomic coordinate data resulting 
# from the CCDC's data processing and validation procedures.
#
#######################################################################

data_FECGIG
_chemical_formula_moiety         'C6 H7 N2 O1 1+,C7 H5 N1 O4,C7 H4 N1 O4 1-'
_chemical_name_systematic        
'3-carbamoylpyridin-1-ium 2-nitrobenzoic acid 2-nitrobenzoate'
_symmetry_cell_setting           monoclinic
_symmetry_space_group_name_H-M   'C 2/c'
_symmetry_Int_Tables_number      15
_space_group_name_Hall           '-C 2yn'
loop_
_symmetry_equiv_pos_site_id
_symmetry_equiv_pos_as_xyz
1 x,y,z
2 -x,y,1/2-z
3 1/2+x,1/2+y,z
4 1/2-x,1/2+y,1/2-z
5 -x,-y,-z
6 x,-y,1/2+z
7 1/2-x,1/2-y,-z
8 1/2+x,1/2-y,1/2+z
_cell_length_a                   27.715(3)
_cell_length_b                   7.0371(7)
_cell_length_c                   21.947(2)
_cell_angle_alpha                90
_cell_angle_beta                 105.132(4)
_cell_angle_gamma                90
_cell_volume                     4131.98
_exptl_crystal_colour            colorless
_exptl_crystal_description       Block
_cell_formula_units_Z            8
loop_
_atom_site_label
_atom_site_type_symbol
_atom_site_fract_x
_atom_site_fract_y
_atom_site_fract_z
C1 C 0.38483(7) 0.1466(3) 0.26047(8)
C2 C 0.40375(8) 0.1384(3) 0.20806(9)
H1 H 0.3994 0.0305 0.1827
C3 C 0.42926(9) 0.2940(4) 0.19431(10)
H2 H 0.4425 0.2912 0.1595
C4 C 0.43520(8) 0.4527(4) 0.23164(11)
H3 H 0.4521 0.5575 0.2217
C5 C 0.41627(7) 0.4587(3) 0.28411(9)
H4 H 0.4207 0.5671 0.3092
C6 C 0.39074(6) 0.3047(3) 0.29946(8)
C7 C 0.36688(7) 0.3219(3) 0.35301(9)
O1 O 0.32173(6) 0.3072(3) 0.34378(7)
O2 O 0.39825(6) 0.3600(2) 0.40622(6)
H5 H 0.3873(10) 0.360(4) 0.4386(9)
N1 N 0.35944(7) -0.0206(2) 0.27589(9)
O3 O 0.36650(8) -0.0658(3) 0.33066(9)
O4 O 0.33156(9) -0.1087(3) 0.23294(10)
C8 C 0.30731(6) 0.6973(2) 0.58311(8)
H6 H 0.3227 0.7166 0.5507
N2 N 0.31678(6) 0.5391(2) 0.61740(7)
H7 H 0.3378(7) 0.452(3) 0.6107(11)
C9 C 0.29562(8) 0.5055(3) 0.66405(10)
H8 H 0.3032 0.3944 0.6876
C10 C 0.26274(9) 0.6331(3) 0.67774(11)
H9 H 0.2476 0.6088 0.7101
C11 C 0.25224(8) 0.7983(3) 0.64296(9)
H10 H 0.2299 0.8861 0.6518
C12 C 0.27491(6) 0.8335(2) 0.59494(8)
C13 C 0.26665(6) 1.0081(2) 0.55433(8)
N3 N 0.24124(6) 1.1498(2) 0.57097(9)
H11 H 0.2253(8) 1.137(3) 0.6001(11)
H12 H 0.2323(8) 1.250(3) 0.5454(10)
O5 O 0.28371(5) 1.01457(18) 0.50780(6)
C14 C 0.41655(7) 0.0928(2) 0.53773(8)
C15 C 0.39604(8) -0.0334(3) 0.48965(10)
H13 H 0.365 -0.0081 0.4622
C16 C 0.42176(10) -0.1985(3) 0.48224(12)
H14 H 0.4077 -0.2829 0.4499
C17 C 0.46765(11) -0.2372(3) 0.52245(13)
H15 H 0.4843 -0.3484 0.5172
C18 C 0.48934(9) -0.1138(3) 0.57030(11)
H16 H 0.5205 -0.1395 0.5975
C19 C 0.46348(7) 0.0499(3) 0.57684(9)
N4 N 0.48845(6) 0.1874(3) 0.62515(8)
O6 O 0.48339(6) 0.3558(2) 0.61251(8)
O7 O 0.51337(8) 0.1257(3) 0.67551(9)
C20 C 0.38608(6) 0.2611(2) 0.54882(8)
O8 O 0.37786(5) 0.27224(18) 0.60212(6)
O9 O 0.36913(5) 0.37579(18) 0.50460(6)
loop_
_geom_bond_atom_site_label_1
_geom_bond_atom_site_label_2
_geom_bond_site_symmetry_1
_geom_bond_site_symmetry_2
C1 C2 1_555 1_555
C2 H1 1_555 1_555
C3 C2 1_555 1_555
H2 C3 1_555 1_555
C4 C3 1_555 1_555
H3 C4 1_555 1_555
C5 C4 1_555 1_555
H4 C5 1_555 1_555
C6 C1 1_555 1_555
C7 C6 1_555 1_555
O1 C7 1_555 1_555
O2 C7 1_555 1_555
H5 O2 1_555 1_555
N1 C1 1_555 1_555
O3 N1 1_555 1_555
O4 N1 1_555 1_555
C8 H6 1_555 1_555
N2 C8 1_555 1_555
H7 N2 1_555 1_555
C9 N2 1_555 1_555
H8 C9 1_555 1_555
C10 C9 1_555 1_555
H9 C10 1_555 1_555
C11 C10 1_555 1_555
H10 C11 1_555 1_555
C12 C8 1_555 1_555
C13 C12 1_555 1_555
N3 C13 1_555 1_555
H11 N3 1_555 1_555
H12 N3 1_555 1_555
O5 C13 1_555 1_555
C14 C15 1_555 1_555
C15 H13 1_555 1_555
C16 C15 1_555 1_555
H14 C16 1_555 1_555
C17 C16 1_555 1_555
H15 C17 1_555 1_555
C18 C17 1_555 1_555
H16 C18 1_555 1_555
C19 C14 1_555 1_555
N4 C19 1_555 1_555
O6 N4 1_555 1_555
O7 N4 1_555 1_555
C20 C14 1_555 1_555
O8 C20 1_555 1_555
O9 C20 1_555 1_555
C5 C6 1_555 1_555
C11 C12 1_555 1_555
C18 C19 1_555 1_555

#END
