
#######################################################################
#
#                 Cambridge Crystallographic Data Centre
#                                CCDC 
#
#######################################################################
#
# If this CIF has been generated from an entry in the Cambridge 
# Structural Database, then it will include bibliographic, chemical, 
# crystal, experimental, refinement or atomic coordinate data resulting 
# from the CCDC's data processing and validation procedures.
#
#######################################################################

data_FECHUT
_chemical_formula_moiety         'C20 H30 N3 O5 P1,H2 O1'
_chemical_name_systematic        
"P-(3-hydroxy-11b-(2-hydroxyethyl)-4,4a,6,11b-tetrahydro[1,3]dioxolo[4,5-j]phenanthridin-5(3H)-yl)-N,N,N',N'-tetramethylphosphonic diamide monohydrate"
_symmetry_cell_setting           orthorhombic
_symmetry_space_group_name_H-M   'P 21 21 2'
_symmetry_Int_Tables_number      18
_space_group_name_Hall           'P 2 2ab'
loop_
_symmetry_equiv_pos_site_id
_symmetry_equiv_pos_as_xyz
1 x,y,z
2 -x,-y,z
3 1/2-x,1/2+y,-z
4 1/2+x,1/2-y,-z
_cell_length_a                   11.8092(4)
_cell_length_b                   22.5105(7)
_cell_length_c                   8.1573(3)
_cell_angle_alpha                90
_cell_angle_beta                 90
_cell_angle_gamma                90
_cell_volume                     2168.46
_exptl_crystal_colour            colorless
_exptl_crystal_description       block
_cell_formula_units_Z            4
loop_
_atom_site_label
_atom_site_type_symbol
_atom_site_fract_x
_atom_site_fract_y
_atom_site_fract_z
P1 P 0.70236(5) 0.57810(3) -0.11329(8)
N1 N 0.78098(17) 0.63226(9) -0.0389(3)
N2 N 0.6916(2) 0.58748(11) -0.3135(3)
N3 N 0.5759(2) 0.58743(11) -0.0331(3)
O1 O 0.75119(15) 0.51889(8) -0.0752(2)
O2 O 1.14999(16) 0.56679(9) -0.2721(2)
O3 O 1.09073(16) 0.57776(10) 0.4036(3)
O4 O 0.93669(19) 0.78702(11) 0.5842(3)
O5 O 0.7513(2) 0.81181(11) 0.5245(3)
C1 C 0.9053(2) 0.63684(11) -0.0519(3)
H1 H 0.9210 0.6756 -0.1047
C2 C 0.9631(2) 0.59000(11) -0.1578(3)
H2 H 0.9213 0.5846 -0.2605
H3 H 0.9653 0.5519 -0.0999
C3 C 1.0832(2) 0.61151(11) -0.1933(3)
H4 H 1.0767 0.6451 -0.2711
C4 C 1.1395(2) 0.63508(12) -0.0416(4)
H5 H 1.2183 0.6410 -0.0446
C5 C 1.0856(2) 0.64815(10) 0.0962(3)
H6 H 1.1283 0.6634 0.1839
C6 C 0.95932(19) 0.63998(10) 0.1213(3)
C7 C 0.9049(2) 0.69143(11) 0.2153(3)
C8 C 0.9604(2) 0.71686(11) 0.3515(4)
H7 H 1.0347 0.7057 0.3792
C9 C 0.9030(2) 0.75814(12) 0.4421(4)
C10 C 0.7920(2) 0.77360(11) 0.4070(4)
C11 C 0.7362(2) 0.75014(12) 0.2754(4)
H8 H 0.6612 0.7611 0.2515
C12 C 0.7945(2) 0.70915(10) 0.1772(3)
C13 C 0.7348(2) 0.68820(12) 0.0238(3)
H9 H 0.6541 0.6829 0.0476
H10 H 0.7417 0.7188 -0.0611
C14 C 0.6969(3) 0.64478(15) -0.3926(4)
H11 H 0.7408 0.6416 -0.4926
H12 H 0.7325 0.6732 -0.3195
H13 H 0.6208 0.6580 -0.4187
C15 C 0.6535(3) 0.53899(18) -0.4167(4)
H14 H 0.5767 0.5467 -0.4532
H15 H 0.6554 0.5022 -0.3549
H16 H 0.7030 0.5357 -0.5112
C16 C 0.4792(3) 0.6125(2) -0.1168(6)
H17 H 0.4139 0.5870 -0.1006
H18 H 0.4955 0.6156 -0.2331
H19 H 0.4633 0.6517 -0.0729
C17 C 0.5615(3) 0.57983(17) 0.1442(5)
H20 H 0.5569 0.6185 0.1962
H21 H 0.6257 0.5582 0.1882
H22 H 0.4925 0.5578 0.1654
C18 C 0.9344(2) 0.58137(11) 0.2158(3)
H23 H 0.8526 0.5743 0.2112
H24 H 0.9711 0.5488 0.1563
C19 C 0.9707(2) 0.57759(11) 0.3932(3)
H25 H 0.9400 0.6115 0.4541
H26 H 0.9408 0.5411 0.4423
C20 C 0.8494(3) 0.82977(19) 0.6131(6)
H27 H 0.8324 0.8320 0.7305
H28 H 0.8742 0.8691 0.5762
H29 H 1.108(3) 0.5688(16) 0.499(4)
H30 H 1.172(3) 0.5381(16) -0.211(4)
O6 O 0.7160(2) 0.45649(12) 0.2262(3)
H31 H 0.730(4) 0.470(2) 0.135(5)
H32 H 0.777(4) 0.450(3) 0.281(6)
loop_
_geom_bond_atom_site_label_1
_geom_bond_atom_site_label_2
_geom_bond_site_symmetry_1
_geom_bond_site_symmetry_2
P1 N1 1_555 1_555
N1 C1 1_555 1_555
N2 P1 1_555 1_555
N3 P1 1_555 1_555
O1 P1 1_555 1_555
O2 C3 1_555 1_555
O3 C19 1_555 1_555
O4 C9 1_555 1_555
O5 C10 1_555 1_555
C1 H1 1_555 1_555
C2 C1 1_555 1_555
H2 C2 1_555 1_555
H3 C2 1_555 1_555
C3 C2 1_555 1_555
H4 C3 1_555 1_555
C4 C3 1_555 1_555
H5 C4 1_555 1_555
C5 C4 1_555 1_555
H6 C5 1_555 1_555
C6 C1 1_555 1_555
C7 C6 1_555 1_555
C8 C7 1_555 1_555
H7 C8 1_555 1_555
C9 C8 1_555 1_555
C10 C9 1_555 1_555
C11 C10 1_555 1_555
H8 C11 1_555 1_555
C12 C7 1_555 1_555
C13 N1 1_555 1_555
H9 C13 1_555 1_555
H10 C13 1_555 1_555
C14 N2 1_555 1_555
H11 C14 1_555 1_555
H12 C14 1_555 1_555
H13 C14 1_555 1_555
C15 N2 1_555 1_555
H14 C15 1_555 1_555
H15 C15 1_555 1_555
H16 C15 1_555 1_555
C16 N3 1_555 1_555
H17 C16 1_555 1_555
H18 C16 1_555 1_555
H19 C16 1_555 1_555
C17 N3 1_555 1_555
H20 C17 1_555 1_555
H21 C17 1_555 1_555
H22 C17 1_555 1_555
C18 C6 1_555 1_555
H23 C18 1_555 1_555
H24 C18 1_555 1_555
C19 C18 1_555 1_555
H25 C19 1_555 1_555
H26 C19 1_555 1_555
C20 O4 1_555 1_555
H27 C20 1_555 1_555
H28 C20 1_555 1_555
H29 O3 1_555 1_555
H30 O2 1_555 1_555
O6 H31 1_555 1_555
H32 O6 1_555 1_555
O5 C20 1_555 1_555
C5 C6 1_555 1_555
C11 C12 1_555 1_555
C12 C13 1_555 1_555

#END
