
#######################################################################
#
#                 Cambridge Crystallographic Data Centre
#                                CCDC 
#
#######################################################################
#
# If this CIF has been generated from an entry in the Cambridge 
# Structural Database, then it will include bibliographic, chemical, 
# crystal, experimental, refinement or atomic coordinate data resulting 
# from the CCDC's data processing and validation procedures.
#
#######################################################################

data_FECHUS
_chemical_formula_moiety         'C17 H15 N3 O5'
_chemical_name_systematic        
'Methyl (1R*,2S*)-1-cyano-5,7-dimethyl-4,6,8-trioxo-2-phenyl-5,7-diazaspiro[2.5]octane-1-carboxylate'
_symmetry_cell_setting           orthorhombic
_symmetry_space_group_name_H-M   'P 21 21 21'
_symmetry_Int_Tables_number      19
_space_group_name_Hall           'P 2ac 2ab'
loop_
_symmetry_equiv_pos_site_id
_symmetry_equiv_pos_as_xyz
1 x,y,z
2 1/2-x,-y,1/2+z
3 -x,1/2+y,1/2-z
4 1/2+x,1/2-y,-z
_cell_length_a                   9.4235(11)
_cell_length_b                   10.3957(12)
_cell_length_c                   15.9888(18)
_cell_angle_alpha                90
_cell_angle_beta                 90
_cell_angle_gamma                90
_cell_volume                     1566.32
_exptl_crystal_colour            yellow
_exptl_crystal_description       prism
_chemical_melting_point          '204 deg.C'
_cell_formula_units_Z            4
loop_
_atom_site_label
_atom_site_type_symbol
_atom_site_fract_x
_atom_site_fract_y
_atom_site_fract_z
O1 O 0.76244(11) 0.05119(10) 0.13511(7)
N1 N 0.34282(13) 0.13922(12) 0.13952(7)
O2 O 0.54548(12) 0.43778(10) 0.05152(6)
N2 N 0.53365(13) -0.00507(11) 0.11154(7)
O3 O 0.59903(13) 0.54401(10) 0.17081(7)
N3 N 0.89671(14) 0.30521(13) 0.05308(8)
O4 O 0.38325(12) 0.32821(10) 0.20625(7)
C1 C 0.38845(16) 0.02248(13) 0.10672(8)
O5 O 0.30531(13) -0.05284(11) 0.07666(7)
C2 C 0.58588(15) 0.20413(12) 0.17180(9)
C3 C 0.18894(16) 0.16489(15) 0.13506(10)
H1 H 0.1581 0.1629 0.0765
H2 H 0.1689 0.2498 0.1589
H3 H 0.1376 0.0990 0.1668
C4 C 0.80304(15) 0.22407(13) 0.27987(8)
C5 C 0.63745(15) 0.07886(13) 0.13870(8)
C6 C 0.60006(15) 0.44947(13) 0.12739(8)
C7 C 0.80075(16) 0.30659(13) 0.09699(8)
C8 C 0.67400(15) 0.27600(13) 0.23738(8)
H4 H 0.6145 0.3304 0.2752
C9 C 0.67630(15) 0.32454(13) 0.14956(8)
C10 C 0.58116(17) -0.13172(13) 0.08214(10)
H5 H 0.6187 -0.1811 0.1294
H6 H 0.6557 -0.1206 0.0400
H7 H 0.5008 -0.1779 0.0574
C11 C 0.92280(16) 0.30195(15) 0.28535(9)
H8 H 0.9235 0.3837 0.2588
C12 C 0.48455(17) 0.55276(15) 0.01424(9)
H9 H 0.4289 0.5289 -0.0352
H10 H 0.5609 0.6115 -0.0023
H11 H 0.4228 0.5954 0.0550
C13 C 0.42924(15) 0.22972(13) 0.17501(9)
C14 C 0.80175(17) 0.10406(14) 0.31881(9)
H12 H 0.7202 0.0506 0.3153
C15 C 0.92089(18) 0.06304(16) 0.36298(9)
H13 H 0.9203 -0.0187 0.3895
C16 C 1.04168(17) 0.26058(17) 0.32956(10)
H14 H 1.1232 0.3140 0.3331
C17 C 1.04096(18) 0.14075(17) 0.36856(10)
H15 H 1.1218 0.1122 0.3988
loop_
_geom_bond_atom_site_label_1
_geom_bond_atom_site_label_2
_geom_bond_site_symmetry_1
_geom_bond_site_symmetry_2
O1 C5 1_555 1_555
N1 C1 1_555 1_555
O2 C6 1_555 1_555
N2 C1 1_555 1_555
O3 C6 1_555 1_555
N3 C7 1_555 1_555
O4 C13 1_555 1_555
C1 O5 1_555 1_555
C2 C5 1_555 1_555
C3 N1 1_555 1_555
H1 C3 1_555 1_555
H2 C3 1_555 1_555
H3 C3 1_555 1_555
C4 C8 1_555 1_555
C5 N2 1_555 1_555
C6 C9 1_555 1_555
C7 C9 1_555 1_555
C8 C2 1_555 1_555
H4 C8 1_555 1_555
C9 C2 1_555 1_555
C10 N2 1_555 1_555
H5 C10 1_555 1_555
H6 C10 1_555 1_555
H7 C10 1_555 1_555
C11 C4 1_555 1_555
H8 C11 1_555 1_555
C12 O2 1_555 1_555
H9 C12 1_555 1_555
H10 C12 1_555 1_555
H11 C12 1_555 1_555
C13 N1 1_555 1_555
C14 C4 1_555 1_555
H12 C14 1_555 1_555
C15 C14 1_555 1_555
H13 C15 1_555 1_555
C16 C11 1_555 1_555
H14 C16 1_555 1_555
C17 C15 1_555 1_555
H15 C17 1_555 1_555
C2 C13 1_555 1_555
C8 C9 1_555 1_555
C16 C17 1_555 1_555

#END
