
#######################################################################
#
#                 Cambridge Crystallographic Data Centre
#                                CCDC 
#
#######################################################################
#
# If this CIF has been generated from an entry in the Cambridge 
# Structural Database, then it will include bibliographic, chemical, 
# crystal, experimental, refinement or atomic coordinate data resulting 
# from the CCDC's data processing and validation procedures.
#
#######################################################################

data_FECKEG
_chemical_formula_moiety         'C13 H13 N1 O3 S1'
_chemical_name_systematic        
'5-cyclobutylidene-4-phenyl-5,6-dihydro-1,2,3-oxathiazine 2,2-dioxide'
_symmetry_cell_setting           orthorhombic
_symmetry_space_group_name_H-M   'P 21 21 21'
_symmetry_Int_Tables_number      19
_space_group_name_Hall           'P 2ac 2ab'
loop_
_symmetry_equiv_pos_site_id
_symmetry_equiv_pos_as_xyz
1 x,y,z
2 1/2-x,-y,1/2+z
3 -x,1/2+y,1/2-z
4 1/2+x,1/2-y,-z
_cell_length_a                   5.4587(10)
_cell_length_b                   9.1326(16)
_cell_length_c                   24.374(4)
_cell_angle_alpha                90
_cell_angle_beta                 90
_cell_angle_gamma                90
_cell_volume                     1215.1
_exptl_crystal_colour            colorless
_exptl_crystal_description       prismatic
_cell_formula_units_Z            4
loop_
_atom_site_label
_atom_site_type_symbol
_atom_site_fract_x
_atom_site_fract_y
_atom_site_fract_z
S1 S -0.2378(3) 0.05172(13) 0.93676(5)
N1 N -0.0850(9) 0.0936(4) 0.88121(16)
O1 O -0.2498(9) 0.1952(4) 0.97226(14)
O2 O -0.4630(9) -0.0022(7) 0.92060(19)
O3 O -0.0878(9) -0.0383(5) 0.97102(16)
C1 C -0.3263(11) 0.3219(6) 0.9393(2)
H1 H -0.3521 0.4061 0.9628
H2 H -0.4789 0.3004 0.9205
C2 C -0.1299(9) 0.3544(5) 0.89829(18)
C3 C -0.0335(9) 0.4869(5) 0.89465(19)
C4 C -0.0752(11) 0.6226(6) 0.9286(2)
H3 H -0.2151 0.6802 0.9169
H4 H -0.0806 0.6043 0.9678
C5 C 0.1669(12) 0.6813(6) 0.9088(3)
H5 H 0.2967 0.6750 0.9358
H6 H 0.1568 0.7791 0.8935
C6 C 0.1768(10) 0.5592(5) 0.8650(2)
H7 H 0.1370 0.5920 0.8283
H8 H 0.3272 0.5028 0.8654
C7 C -0.0433(9) 0.2269(5) 0.86702(18)
C8 C 0.0935(8) 0.2437(5) 0.81507(17)
C9 C 0.0147(10) 0.3391(5) 0.77486(19)
H9 H -0.1219 0.3976 0.7812
C10 C 0.1364(11) 0.3489(6) 0.7253(2)
H10 H 0.0798 0.4116 0.6980
C11 C 0.3434(11) 0.2643(7) 0.7166(2)
H11 H 0.4276 0.2713 0.6835
C12 C 0.4252(10) 0.1699(6) 0.7567(2)
H12 H 0.5656 0.1144 0.7507
C13 C 0.3001(9) 0.1572(5) 0.80564(19)
H13 H 0.3531 0.0913 0.8322
loop_
_geom_bond_atom_site_label_1
_geom_bond_atom_site_label_2
_geom_bond_site_symmetry_1
_geom_bond_site_symmetry_2
S1 N1 1_555 1_555
N1 C7 1_555 1_555
O1 S1 1_555 1_555
O2 S1 1_555 1_555
O3 S1 1_555 1_555
C1 O1 1_555 1_555
H1 C1 1_555 1_555
H2 C1 1_555 1_555
C2 C1 1_555 1_555
C3 C2 1_555 1_555
C4 C3 1_555 1_555
H3 C4 1_555 1_555
H4 C4 1_555 1_555
C5 C4 1_555 1_555
H5 C5 1_555 1_555
H6 C5 1_555 1_555
C6 C3 1_555 1_555
H7 C6 1_555 1_555
H8 C6 1_555 1_555
C7 C2 1_555 1_555
C8 C7 1_555 1_555
C9 C8 1_555 1_555
H9 C9 1_555 1_555
C10 C9 1_555 1_555
H10 C10 1_555 1_555
C11 C10 1_555 1_555
H11 C11 1_555 1_555
C12 C11 1_555 1_555
H12 C12 1_555 1_555
C13 C8 1_555 1_555
H13 C13 1_555 1_555
C5 C6 1_555 1_555
C12 C13 1_555 1_555

#END
