
#######################################################################
#
#                 Cambridge Crystallographic Data Centre
#                                CCDC 
#
#######################################################################
#
# If this CIF has been generated from an entry in the Cambridge 
# Structural Database, then it will include bibliographic, chemical, 
# crystal, experimental, refinement or atomic coordinate data resulting 
# from the CCDC's data processing and validation procedures.
#
#######################################################################

data_FECZOE
_chemical_formula_moiety         'C22 H12 Cl2'
_chemical_name_systematic        6,13-Dichloropentacene
_symmetry_cell_setting           monoclinic
_symmetry_space_group_name_H-M   'P 21/c'
_symmetry_Int_Tables_number      14
_space_group_name_Hall           '-P 2ybc'
loop_
_symmetry_equiv_pos_site_id
_symmetry_equiv_pos_as_xyz
1 x,y,z
2 -x,1/2+y,1/2-z
3 -x,-y,-z
4 x,1/2-y,1/2+z
_cell_length_a                   3.8836(11)
_cell_length_b                   18.718(5)
_cell_length_c                   10.383(3)
_cell_angle_alpha                90
_cell_angle_beta                 94.058(5)
_cell_angle_gamma                90
_cell_volume                     752.881
_exptl_crystal_colour            black
_exptl_crystal_description       prismatic
_cell_formula_units_Z            2
loop_
_atom_site_label
_atom_site_type_symbol
_atom_site_fract_x
_atom_site_fract_y
_atom_site_fract_z
Cl1 Cl 0.31126(19) 0.61905(3) 0.69427(6)
C1 C 0.4171(6) 0.55266(13) 0.5868(2)
C2 C 0.5799(6) 0.49069(13) 0.6353(2)
C3 C 0.6698(6) 0.43573(13) 0.5461(2)
C4 C 0.8393(7) 0.37423(13) 0.5941(2)
H1 H 0.8976 0.3389 0.5364
C5 C 0.9229(7) 0.36430(13) 0.7251(2)
C6 C 1.1030(7) 0.30244(14) 0.7750(3)
H2 H 1.1668 0.2671 0.7184
C7 C 1.1814(8) 0.29458(15) 0.9027(3)
H3 H 1.3000 0.2541 0.9333
C8 C 1.0849(8) 0.34735(16) 0.9906(3)
H4 H 1.1409 0.3412 1.0784
C9 C 0.9132(7) 0.40642(15) 0.9490(2)
H5 H 0.8491 0.4401 1.0086
C10 C 0.8275(7) 0.41813(14) 0.8138(2)
C11 C 0.6623(7) 0.47919(14) 0.7683(2)
H6 H 0.6034 0.5139 0.8270
Cl1B Cl 0.68874(19) 0.38095(3) 0.30573(6)
C1B C 0.5829(6) 0.44734(13) 0.4132(2)
C2B C 0.4201(6) 0.50931(13) 0.3647(2)
C3B C 0.3302(6) 0.56427(13) 0.4539(2)
C4B C 0.1607(7) 0.62577(13) 0.4059(2)
H1B H 0.1024 0.6611 0.4636
C5B C 0.0771(7) 0.63570(13) 0.2749(2)
C6B C -0.1030(7) 0.69756(14) 0.2250(3)
H2B H -0.1668 0.7329 0.2816
C7B C -0.1814(8) 0.70542(15) 0.0973(3)
H3B H -0.3000 0.7459 0.0667
C8B C -0.0849(8) 0.65265(16) 0.0094(3)
H4B H -0.1409 0.6588 -0.0784
C9B C 0.0868(7) 0.59358(15) 0.0510(2)
H5B H 0.1509 0.5599 -0.0086
C10B C 0.1725(7) 0.58187(14) 0.1862(2)
C11B C 0.3377(7) 0.52081(14) 0.2317(2)
H6B H 0.3966 0.4861 0.1730
loop_
_geom_bond_atom_site_label_1
_geom_bond_atom_site_label_2
_geom_bond_site_symmetry_1
_geom_bond_site_symmetry_2
Cl1 C1 1_555 1_555
C1 C2 1_555 1_555
C2 C3 1_555 1_555
C3 C4 1_555 1_555
C4 H1 1_555 1_555
C5 C4 1_555 1_555
C6 C5 1_555 1_555
H2 C6 1_555 1_555
C7 C6 1_555 1_555
H3 C7 1_555 1_555
C8 C7 1_555 1_555
H4 C8 1_555 1_555
C9 C8 1_555 1_555
H5 C9 1_555 1_555
C10 C5 1_555 1_555
C11 C2 1_555 1_555
H6 C11 1_555 1_555
Cl1B C1B 1_555 1_555
C1B C3 1_555 1_555
C2B C1B 1_555 1_555
C3B C1 1_555 1_555
C4B C3B 1_555 1_555
H1B C4B 1_555 1_555
C5B C4B 1_555 1_555
C6B C5B 1_555 1_555
H2B C6B 1_555 1_555
C7B C6B 1_555 1_555
H3B C7B 1_555 1_555
C8B C7B 1_555 1_555
H4B C8B 1_555 1_555
C9B C8B 1_555 1_555
H5B C9B 1_555 1_555
C10B C5B 1_555 1_555
C11B C2B 1_555 1_555
H6B C11B 1_555 1_555
C9 C10 1_555 1_555
C10 C11 1_555 1_555
C2B C3B 1_555 1_555
C9B C10B 1_555 1_555
C10B C11B 1_555 1_555

#END
