
#######################################################################
#
#                 Cambridge Crystallographic Data Centre
#                                CCDC 
#
#######################################################################
#
# If this CIF has been generated from an entry in the Cambridge 
# Structural Database, then it will include bibliographic, chemical, 
# crystal, experimental, refinement or atomic coordinate data resulting 
# from the CCDC's data processing and validation procedures.
#
#######################################################################

data_FEFQEN
_chemical_formula_moiety         'C21 H22 N2'
_chemical_name_systematic        
1-(p-(N,N-Dimethylamino)phenyl)-4-(p-cyanophenyl)-4-ethylbuta-1E,3E-diene
_symmetry_cell_setting           orthorhombic
_symmetry_space_group_name_H-M   'P n a 21'
_symmetry_Int_Tables_number      33
_space_group_name_Hall           'P 2c -2n'
loop_
_symmetry_equiv_pos_site_id
_symmetry_equiv_pos_as_xyz
1 x,y,z
2 -x,-y,1/2+z
3 1/2+x,1/2-y,z
4 1/2-x,1/2+y,1/2+z
_cell_length_a                   16.1420(3)
_cell_length_b                   18.9857(4)
_cell_length_c                   11.1379(2)
_cell_angle_alpha                90
_cell_angle_beta                 90
_cell_angle_gamma                90
_cell_volume                     3413.4
_exptl_crystal_colour            orange
_exptl_crystal_description       irregular
_chemical_melting_point          142-143deg.C
_cell_formula_units_Z            8
loop_
_atom_site_label
_atom_site_type_symbol
_atom_site_fract_x
_atom_site_fract_y
_atom_site_fract_z
N1 N 0.3799(2) 1.4525(2) 0.2000(4)
N2 N 0.3439(2) 0.64505(18) 0.4884(3)
C1 C 0.3847(2) 1.3919(3) 0.2025(4)
C2 C 0.3922(2) 1.3164(2) 0.2072(4)
C3 C 0.4449(2) 1.2814(2) 0.1290(4)
H1 H 0.4751 1.3072 0.0704
C4 C 0.4534(2) 1.2094(2) 0.1360(4)
H2 H 0.4902 1.1867 0.0819
C5 C 0.4103(2) 1.1682(2) 0.2195(3)
C6 C 0.3561(2) 1.2058(2) 0.2965(4)
H3 H 0.3247 1.1803 0.3540
C7 C 0.3473(2) 1.2769(2) 0.2915(3)
H4 H 0.3106 1.3000 0.3452
C8 C 0.4204(2) 1.0915(2) 0.2246(4)
C9 C 0.3835(2) 1.0520(2) 0.3112(3)
H5 H 0.3519 1.0768 0.3695
C10 C 0.3872(2) 0.9770(2) 0.3238(4)
H6 H 0.4155 0.9511 0.2633
C11 C 0.3535(2) 0.9407(2) 0.4152(4)
H7 H 0.3254 0.9678 0.4741
C12 C 0.3548(2) 0.8650(2) 0.4352(4)
C13 C 0.3989(2) 0.8171(2) 0.3622(4)
H8 H 0.4321 0.8350 0.2987
C14 C 0.3955(2) 0.7466(2) 0.3794(4)
H9 H 0.4255 0.7166 0.3267
C15 C 0.3486(2) 0.7160(2) 0.4736(3)
C16 C 0.3072(2) 0.7634(2) 0.5496(3)
H10 H 0.2762 0.7455 0.6153
C17 C 0.3104(2) 0.8350(2) 0.5315(3)
H11 H 0.2818 0.8651 0.5855
C18 C 0.3745(3) 0.5980(2) 0.3938(5)
H12 H 0.4351 0.5993 0.3923
H13 H 0.3529 0.6135 0.3160
H14 H 0.3558 0.5498 0.4100
C19 C 0.2909(2) 0.6149(2) 0.5797(4)
H15 H 0.2332 0.6276 0.5632
H16 H 0.3070 0.6332 0.6586
H17 H 0.2967 0.5635 0.5792
C20 C 0.4734(2) 1.0582(2) 0.1289(4)
H18 H 0.4908 1.0109 0.1564
H19 H 0.5239 1.0870 0.1178
C21 C 0.4293(3) 1.0512(2) 0.0091(5)
H20 H 0.4187 1.0981 -0.0241
H21 H 0.3766 1.0265 0.0206
H22 H 0.4642 1.0244 -0.0466
N3 N 0.8395(2) 0.4870(2) 0.7086(4)
N4 N 0.8452(2) -0.32074(19) 0.9774(3)
C22 C 0.8558(2) 0.4283(2) 0.7098(4)
C23 C 0.8732(2) 0.3544(2) 0.7143(4)
C24 C 0.9241(2) 0.3221(2) 0.6322(4)
H23 H 0.9487 0.3497 0.5705
C25 C 0.9403(2) 0.2516(2) 0.6368(3)
H24 H 0.9767 0.2315 0.5791
C26 C 0.9043(2) 0.2078(2) 0.7250(4)
C27 C 0.8516(2) 0.2405(2) 0.8067(4)
H25 H 0.8257 0.2129 0.8670
C28 C 0.8361(2) 0.3114(2) 0.8026(4)
H26 H 0.7998 0.3319 0.8600
C29 C 0.9209(2) 0.1314(2) 0.7290(3)
C30 C 0.8860(2) 0.0885(2) 0.8127(4)
H27 H 0.8525 0.1111 0.8715
C31 C 0.8934(2) 0.0137(2) 0.8233(4)
H28 H 0.9261 -0.0105 0.7657
C32 C 0.8565(2) -0.0242(2) 0.9104(4)
H29 H 0.8266 0.0021 0.9685
C33 C 0.8566(2) -0.0996(2) 0.9271(3)
C34 C 0.8997(2) -0.1465(2) 0.8543(4)
H30 H 0.9326 -0.1279 0.7911
C35 C 0.8973(2) -0.2185(2) 0.8690(4)
H31 H 0.9274 -0.2480 0.8159
C36 C 0.8503(3) -0.2484(2) 0.9625(4)
C37 C 0.8088(2) -0.2016(2) 1.0407(4)
H32 H 0.7781 -0.2196 1.1067
C38 C 0.8127(2) -0.1305(2) 1.0215(4)
H33 H 0.7839 -0.1005 1.0755
C39 C 0.8779(3) -0.3680(2) 0.8857(4)
H34 H 0.9385 -0.3650 0.8847
H35 H 0.8560 -0.3544 0.8070
H36 H 0.8611 -0.4165 0.9039
C40 C 0.7952(2) -0.3517(2) 1.0704(4)
H37 H 0.7374 -0.3373 1.0598
H38 H 0.8151 -0.3357 1.1489
H39 H 0.7991 -0.4031 1.0658
C41 C 0.9768(2) 0.0991(2) 0.6352(3)
H40 H 1.0019 0.0556 0.6680
H41 H 1.0222 0.1324 0.6164
C42 C 0.9299(2) 0.0814(2) 0.5197(4)
H42 H 0.9122 0.1251 0.4804
H43 H 0.8811 0.0528 0.5392
H44 H 0.9662 0.0549 0.4656
loop_
_geom_bond_atom_site_label_1
_geom_bond_atom_site_label_2
_geom_bond_site_symmetry_1
_geom_bond_site_symmetry_2
N1 C1 1_555 1_555
N2 C15 1_555 1_555
C1 C2 1_555 1_555
C2 C3 1_555 1_555
C3 H1 1_555 1_555
C4 C3 1_555 1_555
H2 C4 1_555 1_555
C5 C4 1_555 1_555
C6 C5 1_555 1_555
H3 C6 1_555 1_555
C7 C2 1_555 1_555
H4 C7 1_555 1_555
C8 C5 1_555 1_555
C9 C8 1_555 1_555
H5 C9 1_555 1_555
C10 C9 1_555 1_555
H6 C10 1_555 1_555
C11 C10 1_555 1_555
H7 C11 1_555 1_555
C12 C11 1_555 1_555
C13 C12 1_555 1_555
H8 C13 1_555 1_555
C14 C13 1_555 1_555
H9 C14 1_555 1_555
C15 C14 1_555 1_555
C16 C15 1_555 1_555
H10 C16 1_555 1_555
C17 C12 1_555 1_555
H11 C17 1_555 1_555
C18 N2 1_555 1_555
H12 C18 1_555 1_555
H13 C18 1_555 1_555
H14 C18 1_555 1_555
C19 N2 1_555 1_555
H15 C19 1_555 1_555
H16 C19 1_555 1_555
H17 C19 1_555 1_555
C20 C8 1_555 1_555
H18 C20 1_555 1_555
H19 C20 1_555 1_555
C21 C20 1_555 1_555
H20 C21 1_555 1_555
H21 C21 1_555 1_555
H22 C21 1_555 1_555
N3 C22 1_555 1_555
N4 C36 1_555 1_555
C22 C23 1_555 1_555
C23 C24 1_555 1_555
C24 H23 1_555 1_555
C25 C24 1_555 1_555
H24 C25 1_555 1_555
C26 C25 1_555 1_555
C27 C26 1_555 1_555
H25 C27 1_555 1_555
C28 C23 1_555 1_555
H26 C28 1_555 1_555
C29 C26 1_555 1_555
C30 C29 1_555 1_555
H27 C30 1_555 1_555
C31 C30 1_555 1_555
H28 C31 1_555 1_555
C32 C31 1_555 1_555
H29 C32 1_555 1_555
C33 C32 1_555 1_555
C34 C33 1_555 1_555
H30 C34 1_555 1_555
C35 C34 1_555 1_555
H31 C35 1_555 1_555
C36 C35 1_555 1_555
C37 C36 1_555 1_555
H32 C37 1_555 1_555
C38 C33 1_555 1_555
H33 C38 1_555 1_555
C39 N4 1_555 1_555
H34 C39 1_555 1_555
H35 C39 1_555 1_555
H36 C39 1_555 1_555
C40 N4 1_555 1_555
H37 C40 1_555 1_555
H38 C40 1_555 1_555
H39 C40 1_555 1_555
C41 C29 1_555 1_555
H40 C41 1_555 1_555
H41 C41 1_555 1_555
C42 C41 1_555 1_555
H42 C42 1_555 1_555
H43 C42 1_555 1_555
H44 C42 1_555 1_555
C6 C7 1_555 1_555
C16 C17 1_555 1_555
C27 C28 1_555 1_555
C37 C38 1_555 1_555

#END
