
#######################################################################
#
#                 Cambridge Crystallographic Data Centre
#                                CCDC 
#
#######################################################################
#
# If this CIF has been generated from an entry in the Cambridge 
# Structural Database, then it will include bibliographic, chemical, 
# crystal, experimental, refinement or atomic coordinate data resulting 
# from the CCDC's data processing and validation procedures.
#
#######################################################################

data_FEFTES
_chemical_formula_moiety         'C20 H18 Br1 N1 O5'
_chemical_name_systematic        
'dimethyl 7-bromo-2-phenyl-2,3-dihydro-1,5-epoxy-1-benzazepine-4,4(5H)-dicarboxylate'
_symmetry_cell_setting           orthorhombic
_symmetry_space_group_name_H-M   'P 21 21 21'
_symmetry_Int_Tables_number      19
_space_group_name_Hall           'P 2ac 2ab'
loop_
_symmetry_equiv_pos_site_id
_symmetry_equiv_pos_as_xyz
1 x,y,z
2 1/2-x,-y,1/2+z
3 1/2+x,1/2-y,-z
4 -x,1/2+y,1/2-z
_cell_length_a                   6.8280(3)
_cell_length_b                   11.7422(5)
_cell_length_c                   23.4879(10)
_cell_angle_alpha                90
_cell_angle_beta                 90
_cell_angle_gamma                90
_cell_volume                     1883.16
_exptl_crystal_colour            'light colorless'
_exptl_crystal_description       block
_cell_formula_units_Z            4
loop_
_atom_site_label
_atom_site_type_symbol
_atom_site_fract_x
_atom_site_fract_y
_atom_site_fract_z
Br1 Br 0.61853(14) 0.90707(7) 0.12210(4)
O1 O 1.2654(5) 1.2920(3) 0.10617(16)
O2 O 1.0966(7) 1.1586(4) 0.26316(19)
O3 O 0.9602(6) 1.3245(4) 0.28682(17)
O4 O 1.4729(6) 1.3294(4) 0.2233(2)
O5 O 1.2991(5) 1.4900(3) 0.2198(2)
N1 N 1.0888(6) 1.3340(4) 0.07674(19)
C1 C 0.9621(8) 1.2362(5) 0.0824(2)
C2 C 0.8037(9) 1.2088(5) 0.0486(2)
H1 H 0.7674 1.2545 0.0181
C3 C 0.7010(9) 1.1110(6) 0.0617(3)
H2 H 0.5942 1.0896 0.0396
C4 C 0.7563(10) 1.0454(5) 0.1072(3)
C5 C 0.9150(9) 1.0721(5) 0.1420(2)
H3 H 0.9499 1.0269 0.1729
C6 C 1.0164(8) 1.1685(4) 0.1283(2)
C7 C 1.1897(8) 1.2281(5) 0.1544(2)
H4 H 1.2863 1.1740 0.1692
C8 C 1.1291(8) 1.3163(4) 0.1995(2)
C9 C 0.9702(7) 1.3946(4) 0.1745(2)
H5 H 0.9571 1.4616 0.1983
H6 H 0.8457 1.3548 0.1746
C10 C 1.0196(7) 1.4316(4) 0.1132(2)
H7 H 1.1290 1.4853 0.1160
C11 C 0.8583(8) 1.4917(5) 0.0810(2)
C12 C 0.9078(9) 1.5770(5) 0.0426(2)
H8 H 1.0373 1.6011 0.0404
C13 C 0.7705(10) 1.6267(5) 0.0078(3)
H9 H 0.8076 1.6835 -0.0176
C14 C 0.5785(10) 1.5925(6) 0.0106(3)
H10 H 0.4849 1.6253 -0.0130
C15 C 0.5267(9) 1.5093(6) 0.0487(3)
H11 H 0.3968 1.4859 0.0507
C16 C 0.6622(8) 1.4601(5) 0.0840(3)
H12 H 0.6228 1.4052 0.1101
C17 C 1.0622(8) 1.2562(5) 0.2528(2)
C18 C 0.8902(11) 1.2742(6) 0.3393(3)
H13 H 0.8107 1.2090 0.3307
H14 H 0.8137 1.3292 0.3598
H15 H 0.9999 1.2512 0.3621
C19 C 1.3221(8) 1.3791(5) 0.2158(2)
C20 C 1.4754(10) 1.5554(6) 0.2341(4)
H16 H 1.5583 1.5608 0.2012
H17 H 1.5449 1.5177 0.2642
H18 H 1.4385 1.6304 0.2462
loop_
_geom_bond_atom_site_label_1
_geom_bond_atom_site_label_2
_geom_bond_site_symmetry_1
_geom_bond_site_symmetry_2
Br1 C4 1_555 1_555
O1 N1 1_555 1_555
O2 C17 1_555 1_555
O3 C17 1_555 1_555
O4 C19 1_555 1_555
O5 C19 1_555 1_555
N1 C1 1_555 1_555
C1 C2 1_555 1_555
C2 H1 1_555 1_555
C3 C2 1_555 1_555
H2 C3 1_555 1_555
C4 C3 1_555 1_555
C5 C4 1_555 1_555
H3 C5 1_555 1_555
C6 C1 1_555 1_555
C7 O1 1_555 1_555
H4 C7 1_555 1_555
C8 C7 1_555 1_555
C9 C8 1_555 1_555
H5 C9 1_555 1_555
H6 C9 1_555 1_555
C10 N1 1_555 1_555
H7 C10 1_555 1_555
C11 C10 1_555 1_555
C12 C11 1_555 1_555
H8 C12 1_555 1_555
C13 C12 1_555 1_555
H9 C13 1_555 1_555
C14 C13 1_555 1_555
H10 C14 1_555 1_555
C15 C14 1_555 1_555
H11 C15 1_555 1_555
C16 C11 1_555 1_555
H12 C16 1_555 1_555
C17 C8 1_555 1_555
C18 O3 1_555 1_555
H13 C18 1_555 1_555
H14 C18 1_555 1_555
H15 C18 1_555 1_555
C19 C8 1_555 1_555
C20 O5 1_555 1_555
H16 C20 1_555 1_555
H17 C20 1_555 1_555
H18 C20 1_555 1_555
C5 C6 1_555 1_555
C6 C7 1_555 1_555
C9 C10 1_555 1_555
C15 C16 1_555 1_555

#END
