
#######################################################################
#
#                 Cambridge Crystallographic Data Centre
#                                CCDC 
#
#######################################################################
#
# If this CIF has been generated from an entry in the Cambridge 
# Structural Database, then it will include bibliographic, chemical, 
# crystal, experimental, refinement or atomic coordinate data resulting 
# from the CCDC's data processing and validation procedures.
#
#######################################################################

data_FEGYEY
_chemical_formula_moiety         'C14 H9 F1 N4'
_chemical_name_systematic        
2-(((2-fluorophenyl)diazenyl)methylene)-2H-benzimidazole
_symmetry_cell_setting           orthorhombic
_symmetry_space_group_name_H-M   'P 21 21 21'
_symmetry_Int_Tables_number      19
_space_group_name_Hall           'P 2ac 2ab'
loop_
_symmetry_equiv_pos_site_id
_symmetry_equiv_pos_as_xyz
1 x,y,z
2 1/2-x,-y,1/2+z
3 -x,1/2+y,1/2-z
4 1/2+x,1/2-y,-z
_cell_length_a                   7.0588(13)
_cell_length_b                   18.246(3)
_cell_length_c                   9.712(2)
_cell_angle_alpha                90
_cell_angle_beta                 90
_cell_angle_gamma                90
_cell_volume                     1250.86
_cell_formula_units_Z            4
loop_
_atom_site_label
_atom_site_type_symbol
_atom_site_fract_x
_atom_site_fract_y
_atom_site_fract_z
C1 C 0.1430(4) 0.40333(15) 1.0112(3)
C2 C -0.0201(5) 0.41757(19) 1.0875(4)
H1 H -0.0491 0.3904 1.1658
C3 C -0.1359(6) 0.4729(2) 1.0433(5)
H2 H -0.2451 0.4833 1.0932
C4 C -0.0963(5) 0.5135(2) 0.9277(5)
H3 H -0.1797 0.5503 0.9008
C5 C 0.0651(5) 0.50092(17) 0.8502(4)
H4 H 0.0930 0.5286 0.7725
C6 C 0.1832(4) 0.44490(16) 0.8946(3)
C7 C 0.4015(4) 0.35932(16) 0.9264(3)
C8 C 0.5609(4) 0.31385(16) 0.9032(3)
H5 H 0.5796 0.2725 0.9576
C9 C 0.9694(4) 0.30224(16) 0.6983(3)
C10 C 1.1273(5) 0.25832(16) 0.6834(3)
C11 C 1.2728(5) 0.2735(2) 0.5953(4)
H6 H 1.3770 0.2425 0.5889
C12 C 1.2608(6) 0.3356(2) 0.5163(4)
H7 H 1.3572 0.3470 0.4546
C13 C 1.1070(6) 0.3809(2) 0.5284(4)
H8 H 1.1009 0.4232 0.4751
C14 C 0.9613(5) 0.36517(17) 0.6180(3)
H9 H 0.8578 0.3965 0.6248
F1 F 1.1342(3) 0.19620(11) 0.76133(18)
N1 N 0.2814(4) 0.35026(15) 1.0282(3)
N2 N 0.3523(4) 0.41720(12) 0.8417(2)
N3 N 0.6793(4) 0.32930(13) 0.8075(3)
N4 N 0.8288(4) 0.28269(13) 0.7923(3)
loop_
_geom_bond_atom_site_label_1
_geom_bond_atom_site_label_2
_geom_bond_site_symmetry_1
_geom_bond_site_symmetry_2
C1 C2 1_555 1_555
C2 H1 1_555 1_555
C3 C2 1_555 1_555
H2 C3 1_555 1_555
C4 C3 1_555 1_555
H3 C4 1_555 1_555
C5 C4 1_555 1_555
H4 C5 1_555 1_555
C6 C1 1_555 1_555
C7 C8 1_555 1_555
C8 H5 1_555 1_555
C9 C10 1_555 1_555
C10 C11 1_555 1_555
C11 H6 1_555 1_555
C12 C11 1_555 1_555
H7 C12 1_555 1_555
C13 C12 1_555 1_555
H8 C13 1_555 1_555
C14 C9 1_555 1_555
H9 C14 1_555 1_555
F1 C10 1_555 1_555
N1 C1 1_555 1_555
N2 C6 1_555 1_555
N3 C8 1_555 1_555
N4 C9 1_555 1_555
C5 C6 1_555 1_555
C7 N1 1_555 1_555
C7 N2 1_555 1_555
C13 C14 1_555 1_555
N3 N4 1_555 1_555

#END
