
#######################################################################
#
#                 Cambridge Crystallographic Data Centre
#                                CCDC 
#
#######################################################################
#
# If this CIF has been generated from an entry in the Cambridge 
# Structural Database, then it will include bibliographic, chemical, 
# crystal, experimental, refinement or atomic coordinate data resulting 
# from the CCDC's data processing and validation procedures.
#
#######################################################################

data_FEGZOI
_chemical_formula_moiety         'C36 H32 B1 F10 O2 P1 S1'
_chemical_name_systematic        
'1,1-bis(pentafluorophenyl)-4,4-dimesityloctahydro-2,3,4,1-benzoxathiaphosphaborinin-4-ium-1-ide 3-oxide'
_symmetry_cell_setting           triclinic
_symmetry_space_group_name_H-M   'P -1'
_symmetry_Int_Tables_number      2
_space_group_name_Hall           '-P 1'
loop_
_symmetry_equiv_pos_site_id
_symmetry_equiv_pos_as_xyz
1 x,y,z
2 -x,-y,-z
_cell_length_a                   10.5993(4)
_cell_length_b                   11.8650(4)
_cell_length_c                   14.4165(9)
_cell_angle_alpha                92.700(3)
_cell_angle_beta                 95.322(2)
_cell_angle_gamma                111.030(4)
_cell_volume                     1678.66
_exptl_crystal_colour            colorless
_exptl_crystal_description       plate
_cell_formula_units_Z            2
loop_
_atom_site_label
_atom_site_type_symbol
_atom_site_fract_x
_atom_site_fract_y
_atom_site_fract_z
P1 P 0.18422(6) 0.89909(5) 0.25401(4)
B1 B 0.2934(3) 0.6582(2) 0.27524(19)
O1 O 0.34311(15) 0.76159(14) 0.20820(11)
S1 S 0.24419(7) 0.78997(6) 0.13556(4)
O2 O 0.1356(3) 0.6898(2) 0.08959(17)
C1 C 0.2165(2) 0.8272(2) 0.36116(15)
H1 H 0.3129 0.8702 0.3871
C2 C 0.1268(3) 0.8495(2) 0.43322(17)
H2 H 0.1492 0.9369 0.4453
H3 H 0.0309 0.8128 0.4072
C3 C 0.1475(3) 0.7963(3) 0.52502(18)
H4 H 0.2417 0.8372 0.5537
H5 H 0.0873 0.8099 0.5682
C4 C 0.1171(3) 0.6617(3) 0.5083(2)
H6 H 0.0210 0.6199 0.4842
H7 H 0.1342 0.6294 0.5675
C5 C 0.2060(3) 0.6386(3) 0.43850(18)
H8 H 0.1826 0.5509 0.4277
H9 H 0.3013 0.6740 0.4662
C6 C 0.1930(2) 0.6902(2) 0.34309(16)
H10 H 0.0983 0.6483 0.3135
C7 C 0.3148(2) 1.0412(2) 0.23232(17)
C8 C 0.4263(2) 1.1130(2) 0.29681(18)
C9 C 0.5251(3) 1.2125(2) 0.2655(2)
H11 H 0.6008 1.2597 0.3078
C10 C 0.5166(3) 1.2447(3) 0.1752(2)
C11 C 0.4035(3) 1.1774(2) 0.1145(2)
H12 H 0.3954 1.2003 0.0534
C12 C 0.3006(3) 1.0764(2) 0.14031(18)
C13 C 0.4432(3) 1.0966(2) 0.39990(19)
H13 H 0.4900 1.0407 0.4100
H14 H 0.3543 1.0645 0.4218
H15 H 0.4960 1.1743 0.4341
C14 C 0.6266(4) 1.3541(3) 0.1444(3)
H16 H 0.5926 1.4194 0.1375
H17 H 0.6517 1.3324 0.0850
H18 H 0.7058 1.3804 0.1910
C15 C 0.1764(3) 1.0188(3) 0.06998(19)
H19 H 0.1056 1.0479 0.0853
H20 H 0.1440 0.9314 0.0714
H21 H 0.1996 1.0399 0.0079
C16 C 0.0198(2) 0.9182(2) 0.24442(16)
C17 C 0.0117(2) 1.0334(2) 0.26292(17)
C18 C -0.1118(3) 1.0463(2) 0.23655(18)
H22 H -0.1182 1.1224 0.2490
C19 C -0.2254(3) 0.9527(3) 0.19299(18)
C20 C -0.2184(2) 0.8389(2) 0.18348(17)
H23 H -0.2968 0.7729 0.1587
C21 C -0.0986(2) 0.8187(2) 0.20946(16)
C22 C 0.1252(3) 1.1444(2) 0.3109(2)
H24 H 0.1763 1.1205 0.3603
H25 H 0.0868 1.1999 0.3374
H26 H 0.1852 1.1841 0.2657
C23 C -0.3522(3) 0.9754(3) 0.1571(2)
H27 H -0.3354 1.0208 0.1024
H28 H -0.3759 1.0213 0.2054
H29 H -0.4267 0.8984 0.1404
C24 C -0.1048(3) 0.6900(2) 0.2028(2)
H30 H -0.1141 0.6591 0.2639
H31 H -0.0219 0.6873 0.1811
H32 H -0.1824 0.6406 0.1590
C25 C 0.4371(2) 0.6600(2) 0.33229(16)
C26 C 0.5490(2) 0.7642(2) 0.36008(16)
F1 F 0.54287(14) 0.87455(12) 0.34646(11)
C27 C 0.6710(2) 0.7662(2) 0.40454(17)
F2 F 0.77541(15) 0.87219(15) 0.42909(12)
C28 C 0.6848(3) 0.6594(3) 0.42484(18)
F3 F 0.80210(16) 0.65938(18) 0.46925(13)
C29 C 0.5770(3) 0.5533(2) 0.40070(18)
F4 F 0.58857(18) 0.44742(16) 0.42127(13)
C30 C 0.4570(2) 0.5555(2) 0.35701(17)
F5 F 0.35444(16) 0.44590(13) 0.33995(12)
C31 C 0.2267(2) 0.5331(2) 0.20384(17)
C32 C 0.3033(3) 0.5111(2) 0.13679(18)
F6 F 0.43295(15) 0.58745(15) 0.13473(11)
C33 C 0.2569(3) 0.4144(3) 0.06954(19)
F7 F 0.33859(19) 0.39982(16) 0.00742(12)
C34 C 0.1272(3) 0.3335(2) 0.0668(2)
F8 F 0.0806(2) 0.23722(15) 0.00230(13)
C35 C 0.0459(3) 0.3495(2) 0.1295(2)
F9 F -0.08363(18) 0.27191(15) 0.12644(14)
C36 C 0.0970(3) 0.4468(2) 0.19753(19)
F10 F 0.00942(16) 0.45257(14) 0.25888(12)
O3? O 0.3035(7) 0.8558(6) 0.0698(4)
loop_
_geom_bond_atom_site_label_1
_geom_bond_atom_site_label_2
_geom_bond_site_symmetry_1
_geom_bond_site_symmetry_2
P1 S1 1_555 1_555
B1 O1 1_555 1_555
O1 S1 1_555 1_555
S1 O2 1_555 1_555
C1 P1 1_555 1_555
H1 C1 1_555 1_555
C2 C1 1_555 1_555
H2 C2 1_555 1_555
H3 C2 1_555 1_555
C3 C2 1_555 1_555
H4 C3 1_555 1_555
H5 C3 1_555 1_555
C4 C3 1_555 1_555
H6 C4 1_555 1_555
H7 C4 1_555 1_555
C5 C4 1_555 1_555
H8 C5 1_555 1_555
H9 C5 1_555 1_555
C6 B1 1_555 1_555
H10 C6 1_555 1_555
C7 P1 1_555 1_555
C8 C7 1_555 1_555
C9 C8 1_555 1_555
H11 C9 1_555 1_555
C10 C9 1_555 1_555
C11 C10 1_555 1_555
H12 C11 1_555 1_555
C12 C7 1_555 1_555
C13 C8 1_555 1_555
H13 C13 1_555 1_555
H14 C13 1_555 1_555
H15 C13 1_555 1_555
C14 C10 1_555 1_555
H16 C14 1_555 1_555
H17 C14 1_555 1_555
H18 C14 1_555 1_555
C15 C12 1_555 1_555
H19 C15 1_555 1_555
H20 C15 1_555 1_555
H21 C15 1_555 1_555
C16 P1 1_555 1_555
C17 C16 1_555 1_555
C18 C17 1_555 1_555
H22 C18 1_555 1_555
C19 C18 1_555 1_555
C20 C19 1_555 1_555
H23 C20 1_555 1_555
C21 C16 1_555 1_555
C22 C17 1_555 1_555
H24 C22 1_555 1_555
H25 C22 1_555 1_555
H26 C22 1_555 1_555
C23 C19 1_555 1_555
H27 C23 1_555 1_555
H28 C23 1_555 1_555
H29 C23 1_555 1_555
C24 C21 1_555 1_555
H30 C24 1_555 1_555
H31 C24 1_555 1_555
H32 C24 1_555 1_555
C25 B1 1_555 1_555
C26 C25 1_555 1_555
F1 C26 1_555 1_555
C27 C26 1_555 1_555
F2 C27 1_555 1_555
C28 C27 1_555 1_555
F3 C28 1_555 1_555
C29 C28 1_555 1_555
F4 C29 1_555 1_555
C30 C25 1_555 1_555
F5 C30 1_555 1_555
C31 B1 1_555 1_555
C32 C31 1_555 1_555
F6 C32 1_555 1_555
C33 C32 1_555 1_555
F7 C33 1_555 1_555
C34 C33 1_555 1_555
F8 C34 1_555 1_555
C35 C34 1_555 1_555
F9 C35 1_555 1_555
C36 C31 1_555 1_555
F10 C36 1_555 1_555
C1 C6 1_555 1_555
C5 C6 1_555 1_555
C11 C12 1_555 1_555
C20 C21 1_555 1_555
C29 C30 1_555 1_555
C35 C36 1_555 1_555

#END
