
#######################################################################
#
#                 Cambridge Crystallographic Data Centre
#                                CCDC 
#
#######################################################################
#
# If this CIF has been generated from an entry in the Cambridge 
# Structural Database, then it will include bibliographic, chemical, 
# crystal, experimental, refinement or atomic coordinate data resulting 
# from the CCDC's data processing and validation procedures.
#
#######################################################################

data_FEHQIV
_chemical_formula_moiety         'C6 H16 N1 O1 1+,C1 H1 O3 1-'
_chemical_name_systematic        
'N-(2-hydroxyethyl)-2-methylpropan-2-aminium hydrogen carbonate'
_symmetry_cell_setting           monoclinic
_symmetry_space_group_name_H-M   'P 21/c'
_symmetry_Int_Tables_number      14
_space_group_name_Hall           '-P 2ybc'
loop_
_symmetry_equiv_pos_site_id
_symmetry_equiv_pos_as_xyz
1 x,y,z
2 -x,1/2+y,1/2-z
3 -x,-y,-z
4 x,1/2-y,1/2+z
_cell_length_a                   8.424(3)
_cell_length_b                   9.711(3)
_cell_length_c                   23.089(6)
_cell_angle_alpha                90
_cell_angle_beta                 93.937(19)
_cell_angle_gamma                90
_cell_volume                     1884.35
_exptl_crystal_colour            colorless
_exptl_crystal_description       needle
_cell_formula_units_Z            8
_chemical_properties_physical    Heat-sensitive
loop_
_atom_site_label
_atom_site_type_symbol
_atom_site_fract_x
_atom_site_fract_y
_atom_site_fract_z
C1 C 0.60805(18) 0.72843(18) 0.06725(7)
H1 H 0.7156 0.7285 0.0525
H2 H 0.5960 0.8135 0.0902
C2 C 0.48407(17) 0.72465(19) 0.01731(7)
H3 H 0.4892 0.6348 -0.0027
H4 H 0.5071 0.7976 -0.0108
C3 C 0.18846(17) 0.76615(16) -0.01082(6)
C4 C 0.1731(2) 0.63580(19) -0.04659(7)
H5 H 0.0855 0.6459 -0.0765
H6 H 0.1513 0.5579 -0.0213
H7 H 0.2725 0.6191 -0.0651
C5 C 0.03424(17) 0.79307(19) 0.01876(7)
H8 H -0.0530 0.8084 -0.0108
H9 H 0.0474 0.8748 0.0435
H10 H 0.0096 0.7133 0.0425
C6 C 0.2296(2) 0.89004(19) -0.04685(7)
H11 H 0.3230 0.8689 -0.0683
H12 H 0.2532 0.9689 -0.0212
H13 H 0.1393 0.9124 -0.0743
N1 N 0.31928(13) 0.74527(12) 0.03692(5)
H14 H 0.3209 0.8207 0.0611
H15 H 0.2936 0.6699 0.0585
O1 O 0.58976(12) 0.61232(11) 0.10254(5)
H16 H 0.6740 0.5991 0.1234
C7 C 0.21107(17) 0.44761(15) 0.12243(6)
O2 O 0.18160(12) 0.57566(10) 0.11874(4)
O3 O 0.18249(14) 0.37469(11) 0.16480(4)
O4 O 0.27354(13) 0.39255(11) 0.07672(4)
H17 H 0.2898 0.3082 0.0826
C8 C 0.27312(16) 0.05474(16) 0.12434(6)
O5 O 0.29180(13) -0.07410(11) 0.12671(4)
O6 O 0.32413(14) 0.13020(11) 0.08604(5)
O7 O 0.19097(13) 0.10867(11) 0.16610(4)
H18 H 0.1887 0.1948 0.1627
C9 C -0.08532(17) 0.77654(17) 0.17962(7)
H19 H -0.1880 0.8149 0.1905
H20 H -0.0497 0.8316 0.1468
C10 C 0.03599(17) 0.78939(18) 0.23062(6)
H21 H 0.0327 0.8838 0.2467
H22 H 0.0094 0.7242 0.2614
C11 C 0.33164(17) 0.73758(16) 0.26033(6)
C12 C 0.48650(17) 0.72916(19) 0.22976(7)
H23 H 0.5054 0.8170 0.2105
H24 H 0.4784 0.6553 0.2008
H25 H 0.5750 0.7098 0.2584
C13 C 0.2999(2) 0.60231(18) 0.29041(7)
H26 H 0.3881 0.5820 0.3190
H27 H 0.2904 0.5282 0.2616
H28 H 0.2007 0.6094 0.3100
C14 C 0.3336(2) 0.85914(18) 0.30138(7)
H29 H 0.2363 0.8588 0.3223
H30 H 0.3393 0.9448 0.2792
H31 H 0.4265 0.8525 0.3292
N2 N 0.20056(13) 0.75941(12) 0.21263(5)
H32 H 0.2306 0.8311 0.1897
H33 H 0.1951 0.6818 0.1897
O8 O -0.10860(12) 0.63796(11) 0.16133(5)
H34 H -0.0268 0.6097 0.1462
loop_
_geom_bond_atom_site_label_1
_geom_bond_atom_site_label_2
_geom_bond_site_symmetry_1
_geom_bond_site_symmetry_2
C1 H1 1_555 1_555
H2 C1 1_555 1_555
C2 C1 1_555 1_555
H3 C2 1_555 1_555
H4 C2 1_555 1_555
C3 C4 1_555 1_555
C4 H5 1_555 1_555
H6 C4 1_555 1_555
H7 C4 1_555 1_555
C5 C3 1_555 1_555
H8 C5 1_555 1_555
H9 C5 1_555 1_555
H10 C5 1_555 1_555
C6 C3 1_555 1_555
H11 C6 1_555 1_555
H12 C6 1_555 1_555
H13 C6 1_555 1_555
N1 C2 1_555 1_555
H14 N1 1_555 1_555
H15 N1 1_555 1_555
O1 C1 1_555 1_555
H16 O1 1_555 1_555
C7 O2 1_555 1_555
O3 C7 1_555 1_555
O4 C7 1_555 1_555
H17 O4 1_555 1_555
C8 O5 1_555 1_555
O6 C8 1_555 1_555
O7 C8 1_555 1_555
H18 O7 1_555 1_555
C9 H19 1_555 1_555
H20 C9 1_555 1_555
C10 C9 1_555 1_555
H21 C10 1_555 1_555
H22 C10 1_555 1_555
C11 C12 1_555 1_555
C12 H23 1_555 1_555
H24 C12 1_555 1_555
H25 C12 1_555 1_555
C13 C11 1_555 1_555
H26 C13 1_555 1_555
H27 C13 1_555 1_555
H28 C13 1_555 1_555
C14 C11 1_555 1_555
H29 C14 1_555 1_555
H30 C14 1_555 1_555
H31 C14 1_555 1_555
N2 C10 1_555 1_555
H32 N2 1_555 1_555
H33 N2 1_555 1_555
O8 C9 1_555 1_555
H34 O8 1_555 1_555
C3 N1 1_555 1_555
C11 N2 1_555 1_555

#END
