
#######################################################################
#
#                 Cambridge Crystallographic Data Centre
#                                CCDC 
#
#######################################################################
#
# If this CIF has been generated from an entry in the Cambridge 
# Structural Database, then it will include bibliographic, chemical, 
# crystal, experimental, refinement or atomic coordinate data resulting 
# from the CCDC's data processing and validation procedures.
#
#######################################################################

data_FEJMAJ
_chemical_formula_moiety         'C25 H30 N2 O4 S1'
_chemical_name_systematic        
1-(4-methylphenyl)sulfonyl-2-dimethoxymethyl-2,3,4,6,7,12,12b-octahydroindolo[2,3-a]quinolizidine
_symmetry_cell_setting           monoclinic
_symmetry_space_group_name_H-M   'P 21/n'
_symmetry_Int_Tables_number      14
_space_group_name_Hall           '-P 2yn'
loop_
_symmetry_equiv_pos_site_id
_symmetry_equiv_pos_as_xyz
1 x,y,z
2 1/2-x,1/2+y,1/2-z
3 -x,-y,-z
4 1/2+x,1/2-y,1/2+z
_cell_length_a                   13.701(2)
_cell_length_b                   9.718(3)
_cell_length_c                   17.823(3)
_cell_angle_alpha                90
_cell_angle_beta                 100.81(1)
_cell_angle_gamma                90
_cell_volume                     2330.96
_exptl_crystal_colour            orange
_exptl_crystal_description       prism
_cell_formula_units_Z            4
_exptl_crystal_recrystallization_method 'ethyl acetate/dichloromethane'
loop_
_atom_site_label
_atom_site_type_symbol
_atom_site_fract_x
_atom_site_fract_y
_atom_site_fract_z
S1 S 0.5239(2) 0.4773(2) 0.1318(1)
O1 O 0.7934(5) 0.4635(9) 0.0481(4)
O2 O 0.8876(4) 0.3998(8) 0.1653(4)
O3 O 0.4294(4) 0.4554(7) 0.0825(3)
O4 O 0.5605(6) 0.6146(6) 0.1365(4)
N1 N 0.6428(4) 0.2211(7) -0.0487(3)
N2 N 0.5878(4) 0.1355(7) 0.1431(3)
C1 C 0.6844(6) 0.1247(9) -0.0901(4)
C2 C 0.7091(7) 0.137(1) -0.1623(5)
C3 C 0.7469(9) 0.026(1) -0.1916(6)
C4 C 0.7623(7) -0.098(1) -0.1508(7)
C5 C 0.7388(7) -0.114(1) -0.0784(5)
C6 C 0.6989(5) 0.0034(9) -0.0480(4)
C7 C 0.6625(5) 0.0298(8) 0.0223(4)
C8 C 0.6488(6) -0.0690(9) 0.0845(4)
C9 C 0.5714(6) -0.0084(9) 0.1245(4)
C10 C 0.5791(5) 0.2254(8) 0.0768(4)
C11 C 0.6300(5) 0.1570(8) 0.0189(3)
C12 C 0.6141(5) 0.3719(8) 0.0964(4)
C13 C 0.7163(5) 0.3820(9) 0.1512(4)
C14 C 0.7225(6) 0.268(1) 0.2106(4)
C15 C 0.6652(6) 0.161(1) 0.2025(4)
C16 C 0.8025(6) 0.371(1) 0.1099(5)
C17 C 0.798(1) 0.600(2) 0.068(1)
C19 C 0.9789(7) 0.372(1) 0.1455(7)
C20 C 0.5137(6) 0.4219(9) 0.2237(4)
C21 C 0.5653(6) 0.495(1) 0.2865(5)
C22 C 0.5536(7) 0.452(1) 0.3586(5)
C23 C 0.4948(7) 0.344(1) 0.3694(5)
C24 C 0.4463(6) 0.272(1) 0.3065(5)
C25 C 0.4554(6) 0.311(1) 0.2329(4)
C26 C 0.4807(9) 0.304(1) 0.4484(6)
H1 H 0.7002 0.2206 -0.1897
H2 H 0.7621 0.0316 -0.2415
H3 H 0.7898 -0.1743 -0.1734
H4 H 0.7490 -0.1992 -0.0510
H5 H 0.6277 -0.1561 0.0631
H6 H 0.7102 -0.0807 0.1197
H7 H 0.5724 -0.0580 0.1707
H8 H 0.5086 -0.0185 0.0923
H9 H 0.5106 0.2310 0.0548
H10 H 0.6230 0.4121 0.0496
H11 H 0.7198 0.4692 0.1763
H12 H 0.7892 0.2342 0.2177
H13 H 0.7133 0.3120 0.2568
H14 H 0.6371 0.1585 0.2474
H15 H 0.7092 0.0845 0.2031
H16 H 0.8059 0.2796 0.0916
H17 H 0.9827 0.2782 0.1328
H18 H 0.9855 0.4275 0.1025
H19 H 1.0307 0.3946 0.1870
H20 H 0.6062 0.5713 0.2796
H21 H 0.5875 0.4999 0.4016
H22 H 0.4053 0.1951 0.3130
H23 H 0.4216 0.2614 0.1896
H24 H 0.4528 0.3788 0.4716
H25 H 0.4383 0.2266 0.4457
H26 H 0.5438 0.2815 0.4791
H27 H 0.6224 0.3171 -0.0685
C18? C 0.812(3) 0.496(4) -0.033(2)
loop_
_geom_bond_atom_site_label_1
_geom_bond_atom_site_label_2
_geom_bond_site_symmetry_1
_geom_bond_site_symmetry_2
S1 O3 1_555 1_555
O1 C16 1_555 1_555
O2 C16 1_555 1_555
O4 S1 1_555 1_555
N1 C1 1_555 1_555
N2 C9 1_555 1_555
C1 C2 1_555 1_555
C2 C3 1_555 1_555
C3 C4 1_555 1_555
C4 C5 1_555 1_555
C5 C6 1_555 1_555
C6 C1 1_555 1_555
C7 C6 1_555 1_555
C8 C7 1_555 1_555
C9 C8 1_555 1_555
C10 N2 1_555 1_555
C11 N1 1_555 1_555
C12 S1 1_555 1_555
C13 C12 1_555 1_555
C14 C13 1_555 1_555
C15 N2 1_555 1_555
C16 C13 1_555 1_555
C17 O1 1_555 1_555
C19 O2 1_555 1_555
C20 S1 1_555 1_555
C21 C20 1_555 1_555
C22 C21 1_555 1_555
C23 C22 1_555 1_555
C24 C23 1_555 1_555
C25 C20 1_555 1_555
C26 C23 1_555 1_555
H1 C2 1_555 1_555
H2 C3 1_555 1_555
H3 C4 1_555 1_555
H4 C5 1_555 1_555
H5 C8 1_555 1_555
H6 C8 1_555 1_555
H7 C9 1_555 1_555
H8 C9 1_555 1_555
H9 C10 1_555 1_555
H10 C12 1_555 1_555
H11 C13 1_555 1_555
H12 C14 1_555 1_555
H13 C14 1_555 1_555
H14 C15 1_555 1_555
H15 C15 1_555 1_555
H16 C16 1_555 1_555
H17 C19 1_555 1_555
H18 C19 1_555 1_555
H19 C19 1_555 1_555
H20 C21 1_555 1_555
H21 C22 1_555 1_555
H22 C24 1_555 1_555
H23 C25 1_555 1_555
H24 C26 1_555 1_555
H25 C26 1_555 1_555
H26 C26 1_555 1_555
H27 N1 1_555 1_555
C7 C11 1_555 1_555
C10 C11 1_555 1_555
C10 C12 1_555 1_555
C14 C15 1_555 1_555
C24 C25 1_555 1_555

#END
