
#######################################################################
#
#                 Cambridge Crystallographic Data Centre
#                                CCDC 
#
#######################################################################
#
# If this CIF has been generated from an entry in the Cambridge 
# Structural Database, then it will include bibliographic, chemical, 
# crystal, experimental, refinement or atomic coordinate data resulting 
# from the CCDC's data processing and validation procedures.
#
#######################################################################

data_FELFIN
_chemical_formula_moiety         'C13 H15 N1 O1'
_chemical_name_systematic        
7-Methyl-2,3,10,10a-tetrahydropyrrolo[1,2-b]isoquinolin-5(1H)-one
_symmetry_cell_setting           monoclinic
_symmetry_space_group_name_H-M   'P 21/n'
_symmetry_Int_Tables_number      14
_space_group_name_Hall           '-P 2yn'
loop_
_symmetry_equiv_pos_site_id
_symmetry_equiv_pos_as_xyz
1 x,y,z
2 1/2-x,1/2+y,1/2-z
3 -x,-y,-z
4 1/2+x,1/2-y,1/2+z
_cell_length_a                   8.303(4)
_cell_length_b                   11.685(5)
_cell_length_c                   11.372(5)
_cell_angle_alpha                90
_cell_angle_beta                 101.556(4)
_cell_angle_gamma                90
_cell_volume                     1080.95
_exptl_crystal_colour            colorless
_exptl_crystal_description       block
_cell_formula_units_Z            4
loop_
_atom_site_label
_atom_site_type_symbol
_atom_site_fract_x
_atom_site_fract_y
_atom_site_fract_z
C1 C 0.3244(5) -0.0832(3) 0.6173(3)
H1 H 0.4356 -0.1096 0.6191
H2 H 0.3025 -0.0943 0.6972
C2 C 0.3197(3) 0.0417(2) 0.5927(2)
C3 C 0.3919(4) 0.1220(3) 0.6770(3)
H3 H 0.4469 0.0973 0.7520
C4 C 0.3838(4) 0.2364(3) 0.6521(3)
H4 H 0.4330 0.2880 0.7106
C5 C 0.3038(4) 0.2770(2) 0.5416(3)
C6 C 0.2322(3) 0.1972(2) 0.4572(3)
H5 H 0.1779 0.2225 0.3822
C7 C 0.2387(3) 0.0815(2) 0.4808(2)
C8 C 0.1611(3) -0.0005(2) 0.3863(2)
C9 C 0.1017(4) -0.2005(2) 0.3323(3)
H6 H 0.1427 -0.1966 0.2583
H7 H -0.0171 -0.1943 0.3134
C10 C 0.1533(5) -0.3091(3) 0.3971(3)
H8 H 0.2261 -0.3518 0.3563
H9 H 0.0581 -0.3562 0.4004
C11 C 0.2401(4) -0.2779(2) 0.5207(3)
H10 H 0.1961 -0.3216 0.5796
H11 H 0.3565 -0.2946 0.5308
C12 C 0.2942(5) 0.4032(3) 0.5141(4)
H12 H 0.3180 0.4160 0.4359
H13 H 0.3729 0.4434 0.5730
H14 H 0.1857 0.4306 0.5156
N1 N 0.1727(3) -0.11032(18) 0.41392(18)
O1 O 0.0877(4) 0.0326(2) 0.28731(19)
C13 C 0.215(3) -0.1554(6) 0.5372(7)
H15 H 0.121(8) -0.141(6) 0.589(6)
C14? C 0.299(2) -0.1528(6) 0.5137(10)
H16? H 0.402(6) -0.148(4) 0.502(4)
loop_
_geom_bond_atom_site_label_1
_geom_bond_atom_site_label_2
_geom_bond_site_symmetry_1
_geom_bond_site_symmetry_2
C1 H1 1_555 1_555
H2 C1 1_555 1_555
C2 C1 1_555 1_555
C3 C2 1_555 1_555
H3 C3 1_555 1_555
C4 C3 1_555 1_555
H4 C4 1_555 1_555
C5 C4 1_555 1_555
C6 C5 1_555 1_555
H5 C6 1_555 1_555
C7 C2 1_555 1_555
C8 C7 1_555 1_555
C9 H6 1_555 1_555
H7 C9 1_555 1_555
C10 C9 1_555 1_555
H8 C10 1_555 1_555
H9 C10 1_555 1_555
C11 C10 1_555 1_555
H10 C11 1_555 1_555
H11 C11 1_555 1_555
C12 C5 1_555 1_555
H12 C12 1_555 1_555
H13 C12 1_555 1_555
H14 C12 1_555 1_555
N1 C8 1_555 1_555
O1 C8 1_555 1_555
C13 C1 1_555 1_555
H15 C13 1_555 1_555
C6 C7 1_555 1_555
C9 N1 1_555 1_555
C11 C13 1_555 1_555
N1 C13 1_555 1_555

#END
