
#######################################################################
#
#                 Cambridge Crystallographic Data Centre
#                                CCDC 
#
#######################################################################
#
# If this CIF has been generated from an entry in the Cambridge 
# Structural Database, then it will include bibliographic, chemical, 
# crystal, experimental, refinement or atomic coordinate data resulting 
# from the CCDC's data processing and validation procedures.
#
#######################################################################

data_FELVIC01
_chemical_formula_moiety         'C8 H9 N1 O2'
_chemical_name_systematic        4-Formamidoanisole
_symmetry_cell_setting           orthorhombic
_symmetry_space_group_name_H-M   'P n a 21'
_symmetry_Int_Tables_number      33
_space_group_name_Hall           'P 2c -2n'
loop_
_symmetry_equiv_pos_site_id
_symmetry_equiv_pos_as_xyz
1 x,y,z
2 -x,-y,1/2+z
3 1/2+x,1/2-y,z
4 1/2-x,1/2+y,1/2+z
_cell_length_a                   10.5598(7)
_cell_length_b                   7.6553(5)
_cell_length_c                   9.2511(6)
_cell_angle_alpha                90
_cell_angle_beta                 90
_cell_angle_gamma                90
_cell_volume                     747.844
_exptl_crystal_colour            colorless
_exptl_crystal_description       block
_cell_formula_units_Z            4
_exptl_crystal_recrystallization_method 'diethyl ether'
loop_
_atom_site_label
_atom_site_type_symbol
_atom_site_fract_x
_atom_site_fract_y
_atom_site_fract_z
N1 N 0.97587(10) 0.86895(14) 0.48793(11)
O1 O 0.77434(9) 0.19937(12) 0.43197(10)
C1 C 0.92492(10) 0.69819(15) 0.47305(11)
C2 C 0.82221(11) 0.36320(15) 0.45429(12)
C3 C 0.95586(11) 0.59008(15) 0.35645(12)
C4 C 0.79384(11) 0.46846(16) 0.57302(13)
O2 O 1.00725(10) 0.94305(12) 0.25067(12)
C5 C 0.84497(11) 0.63572(16) 0.58099(11)
C6 C 0.90386(11) 0.42460(16) 0.34746(13)
C7 C 1.00933(11) 0.97662(16) 0.38064(14)
C8 C 0.70962(13) 0.11966(17) 0.55083(15)
H1 H 0.6299(16) 0.181(2) 0.5707(17)
H2 H 0.6949(15) 0.003(2) 0.5173(18)
H3 H 0.7650(19) 0.118(2) 0.627(2)
H4 H 1.0151(15) 0.628(2) 0.2862(19)
H5 H 1.0334(15) 1.088(2) 0.411(2)
H6 H 0.9237(16) 0.347(2) 0.271(2)
H7 H 0.8225(16) 0.711(2) 0.664(2)
H8 H 0.9789(17) 0.910(2) 0.570(2)
H9 H 0.7423(19) 0.432(2) 0.648(3)
loop_
_geom_bond_atom_site_label_1
_geom_bond_atom_site_label_2
_geom_bond_site_symmetry_1
_geom_bond_site_symmetry_2
N1 C1 1_555 1_555
O1 C2 1_555 1_555
C1 C3 1_555 1_555
C2 C4 1_555 1_555
C3 C6 1_555 1_555
C4 C5 1_555 1_555
O2 C7 1_555 1_555
C5 C1 1_555 1_555
C6 C2 1_555 1_555
C7 N1 1_555 1_555
C8 O1 1_555 1_555
H1 C8 1_555 1_555
H2 C8 1_555 1_555
H3 C8 1_555 1_555
H4 C3 1_555 1_555
H5 C7 1_555 1_555
H6 C6 1_555 1_555
H7 C5 1_555 1_555
H8 N1 1_555 1_555
H9 C4 1_555 1_555

#END
