
#######################################################################
#
#                 Cambridge Crystallographic Data Centre
#                                CCDC 
#
#######################################################################
#
# If this CIF has been generated from an entry in the Cambridge 
# Structural Database, then it will include bibliographic, chemical, 
# crystal, experimental, refinement or atomic coordinate data resulting 
# from the CCDC's data processing and validation procedures.
#
#######################################################################

data_FEMJOX
_chemical_formula_moiety         'C23 H26 N2 O4 S1,C1 D4 O1'
_chemical_name_systematic        
'2-(2-Methyl-(1S)-(naphthylmethylaminomethyl)propylcarbamoyl)benzenesulfonic acid deuteromethanol solvate'
_symmetry_cell_setting           orthorhombic
_symmetry_space_group_name_H-M   'P 21 21 21'
_symmetry_Int_Tables_number      19
_space_group_name_Hall           'P 2ac 2ab'
loop_
_symmetry_equiv_pos_site_id
_symmetry_equiv_pos_as_xyz
1 x,y,z
2 1/2-x,-y,1/2+z
3 -x,1/2+y,1/2-z
4 1/2+x,1/2-y,-z
_cell_length_a                   10.520(3)
_cell_length_b                   12.047(4)
_cell_length_c                   20.267(6)
_cell_angle_alpha                90
_cell_angle_beta                 90
_cell_angle_gamma                90
_cell_volume                     2568.53
_exptl_crystal_colour            colorless
_exptl_crystal_description       ingot
_chemical_melting_point          '286-288 deg.C'
_cell_formula_units_Z            4
loop_
_atom_site_label
_atom_site_type_symbol
_atom_site_fract_x
_atom_site_fract_y
_atom_site_fract_z
S1 S 0.92991(8) 0.17791(6) 0.12198(4)
O1 O 1.0025(2) 0.27383(17) 0.10254(11)
O2 O 0.8346(3) 0.2034(2) 0.17118(12)
O3 O 0.8778(2) 0.11879(19) 0.06522(12)
C1 C 1.0386(4) 0.0838(3) 0.15933(15)
C2 C 1.1599(3) 0.0647(3) 0.13279(16)
C3 C 1.2413(5) -0.0063(3) 0.16598(17)
H1 H 1.3238 -0.0193 0.1486
C4 C 1.2056(5) -0.0588(3) 0.22373(19)
H2 H 1.2623 -0.1081 0.2454
C5 C 1.0870(5) -0.0387(3) 0.24921(17)
H3 H 1.0618 -0.0745 0.2889
C6 C 1.0041(4) 0.0326(3) 0.21830(16)
H4 H 0.9231 0.0469 0.2372
C7 C 1.2073(3) 0.1161(3) 0.07049(16)
O4 O 1.3048(3) 0.1740(3) 0.07078(12)
N1 N 1.1413(3) 0.0933(2) 0.01552(13)
H5 H 1.0762 0.0476 0.0179
C8 C 1.1747(3) 0.1423(3) -0.04865(15)
H6 H 1.2673 0.1611 -0.0477
C9 C 1.1531(4) 0.0593(3) -0.10506(15)
H7 H 1.1816 0.0969 -0.1465
C10 C 1.2350(5) -0.0415(3) -0.0970(2)
H8 H 1.2189 -0.0931 -0.1334
H9 H 1.2150 -0.0778 -0.0550
H10 H 1.3247 -0.0194 -0.0973
C11 C 1.0129(4) 0.0294(3) -0.11484(19)
H11 H 1.0049 -0.0239 -0.1512
H12 H 0.9645 0.0966 -0.1254
H13 H 0.9794 -0.0038 -0.0742
C12 C 1.1014(3) 0.2496(2) -0.05951(15)
H14 H 1.1190 0.2782 -0.1044
H15 H 1.0090 0.2347 -0.0561
N2 N 1.1381(3) 0.3338(2) -0.01006(13)
H16 H 1.1887 0.3196 0.0235
C13 C 1.0815(4) 0.4447(2) -0.02241(16)
H17 H 0.9886 0.4366 -0.0285
H18 H 1.1172 0.4756 -0.0637
C14 C 1.1065(3) 0.5243(3) 0.03342(16)
C15 C 1.0444(3) 0.6294(3) 0.03074(16)
C16 C 0.9676(4) 0.6633(3) -0.02220(19)
H19 H 0.9588 0.6160 -0.0594
C17 C 0.9054(4) 0.7622(3) -0.0214(2)
H20 H 0.8560 0.7839 -0.0584
C18 C 0.9136(4) 0.8317(3) 0.0330(2)
H21 H 0.8666 0.8991 0.0340
C19 C 0.9883(4) 0.8039(3) 0.08470(19)
H22 H 0.9952 0.8533 0.1211
C20 C 1.0566(4) 0.7021(3) 0.08565(17)
C21 C 1.1335(4) 0.6706(3) 0.13923(16)
H23 H 1.1424 0.7195 0.1757
C22 C 1.1950(4) 0.5720(3) 0.13974(17)
H24 H 1.2477 0.5523 0.1760
C23 C 1.1802(3) 0.4988(3) 0.08616(16)
H25 H 1.2232 0.4295 0.0870
loop_
_geom_bond_atom_site_label_1
_geom_bond_atom_site_label_2
_geom_bond_site_symmetry_1
_geom_bond_site_symmetry_2
S1 O1 1_555 1_555
O2 S1 1_555 1_555
O3 S1 1_555 1_555
C1 S1 1_555 1_555
C2 C1 1_555 1_555
C3 C2 1_555 1_555
H1 C3 1_555 1_555
C4 C3 1_555 1_555
H2 C4 1_555 1_555
C5 C4 1_555 1_555
H3 C5 1_555 1_555
C6 C1 1_555 1_555
H4 C6 1_555 1_555
C7 C2 1_555 1_555
O4 C7 1_555 1_555
N1 C7 1_555 1_555
H5 N1 1_555 1_555
C8 N1 1_555 1_555
H6 C8 1_555 1_555
C9 C8 1_555 1_555
H7 C9 1_555 1_555
C10 C9 1_555 1_555
H8 C10 1_555 1_555
H9 C10 1_555 1_555
H10 C10 1_555 1_555
C11 C9 1_555 1_555
H11 C11 1_555 1_555
H12 C11 1_555 1_555
H13 C11 1_555 1_555
C12 C8 1_555 1_555
H14 C12 1_555 1_555
H15 C12 1_555 1_555
N2 C12 1_555 1_555
H16 N2 1_555 1_555
C13 N2 1_555 1_555
H17 C13 1_555 1_555
H18 C13 1_555 1_555
C14 C13 1_555 1_555
C15 C14 1_555 1_555
C16 C15 1_555 1_555
H19 C16 1_555 1_555
C17 C16 1_555 1_555
H20 C17 1_555 1_555
C18 C17 1_555 1_555
H21 C18 1_555 1_555
C19 C18 1_555 1_555
H22 C19 1_555 1_555
C20 C15 1_555 1_555
C21 C20 1_555 1_555
H23 C21 1_555 1_555
C22 C21 1_555 1_555
H24 C22 1_555 1_555
C23 C14 1_555 1_555
H25 C23 1_555 1_555
C5 C6 1_555 1_555
C19 C20 1_555 1_555
C22 C23 1_555 1_555

#END
