
#######################################################################
#
#                 Cambridge Crystallographic Data Centre
#                                CCDC 
#
#######################################################################
#
# If this CIF has been generated from an entry in the Cambridge 
# Structural Database, then it will include bibliographic, chemical, 
# crystal, experimental, refinement or atomic coordinate data resulting 
# from the CCDC's data processing and validation procedures.
#
#######################################################################

data_FEMJOZ
_chemical_formula_moiety         'C54 H52 Br2 Mg2 N6'
_chemical_name_systematic        
bis(\m-N-[[(2,6-diethylphenyl)imino](phenyl)methyl]-2-methylquinolin-8-aminido)-dibromo-di-magnesium
_symmetry_cell_setting           orthorhombic
_symmetry_space_group_name_H-M   'P b c a'
_symmetry_Int_Tables_number      61
_space_group_name_Hall           '-P 2ac 2ab'
loop_
_symmetry_equiv_pos_site_id
_symmetry_equiv_pos_as_xyz
1 x,y,z
2 1/2-x,-y,1/2+z
3 1/2+x,1/2-y,-z
4 -x,1/2+y,1/2-z
5 -x,-y,-z
6 1/2+x,y,1/2-z
7 1/2-x,1/2+y,z
8 x,1/2-y,1/2+z
_cell_length_a                   14.887(3)
_cell_length_b                   16.686(3)
_cell_length_c                   19.186(4)
_cell_angle_alpha                90
_cell_angle_beta                 90
_cell_angle_gamma                90
_cell_volume                     4765.89
_exptl_crystal_colour            colorless
_exptl_crystal_description       plate
_cell_formula_units_Z            4
loop_
_atom_site_label
_atom_site_type_symbol
_atom_site_fract_x
_atom_site_fract_y
_atom_site_fract_z
Br1 Br 0.35933(3) 0.07034(3) 0.63948(2)
Mg1 Mg 0.44795(7) -0.02428(6) 0.57048(5)
C1 C 0.6294(2) 0.1883(3) 0.3670(2)
N1 N 0.57457(18) -0.05936(16) 0.61013(13)
N2 N 0.61043(19) 0.14387(17) 0.42299(14)
C2 C 0.7734(2) 0.0172(2) 0.52732(17)
H1 H 0.7453 0.0188 0.4840
C3 C 0.6228(2) -0.00420(19) 0.58084(15)
C4 C 0.7658(2) 0.0032(2) 0.65190(18)
H2 H 0.7326 -0.0055 0.6923
C5 C 0.6553(3) -0.2667(2) 0.6370(2)
H3 H 0.6716 -0.3111 0.6106
C6 C 0.6274(3) 0.2632(2) 0.4964(2)
C7 C 0.8581(2) 0.0145(2) 0.6563(2)
H4 H 0.8864 0.0143 0.6995
C8 C 0.8658(2) 0.0270(2) 0.5319(2)
H5 H 0.8996 0.0342 0.4916
C9 C 0.6112(2) 0.17952(19) 0.48751(18)
C10 C 0.6324(2) -0.1950(2) 0.60333(18)
C11 C 0.7224(2) 0.00497(19) 0.58756(16)
C12 C 0.6088(2) -0.1291(2) 0.64494(16)
C13 C 0.6073(2) -0.1331(2) 0.71796(17)
C14 C 0.6305(3) -0.2063(3) 0.7489(2)
H6 H 0.6303 -0.2108 0.7972
C15 C 0.9078(2) 0.0260(2) 0.5963(2)
H7 H 0.9696 0.0332 0.5992
C16 C 0.6320(2) -0.1876(2) 0.52487(18)
H8 H 0.6842 -0.1567 0.5111
H9 H 0.5793 -0.1571 0.5114
C17 C 0.6467(3) 0.3071(3) 0.4344(3)
H10 H 0.6579 0.3619 0.4370
C18 C 0.5802(3) -0.0625(2) 0.76224(19)
H11 H 0.5845 -0.0145 0.7339
H12 H 0.5176 -0.0690 0.7751
C19 C 0.5957(2) 0.13036(19) 0.54723(16)
C20 C 0.6539(3) -0.2720(3) 0.7090(2)
H13 H 0.6687 -0.3201 0.7306
C21 C 0.6276(3) 0.2962(2) 0.5637(2)
H14 H 0.6385 0.3506 0.5699
C22 C 0.5964(3) 0.1651(2) 0.61209(19)
H15 H 0.5867 0.1337 0.6514
C23 C 0.6487(3) 0.2698(3) 0.3722(2)
H16 H 0.6631 0.2987 0.3323
C24 C 0.6119(3) 0.2487(3) 0.6196(2)
H17 H 0.6113 0.2713 0.6639
N3 N 0.57612(18) 0.04769(15) 0.53731(13)
C25 C 0.6322(3) -0.2658(2) 0.4836(2)
H18 H 0.6299 -0.2540 0.4346
H19 H 0.5808 -0.2973 0.4964
H20 H 0.6860 -0.2952 0.4937
C26 C 0.6285(3) 0.1481(3) 0.29727(19)
H21 H 0.5771 0.1658 0.2712
H22 H 0.6823 0.1615 0.2723
H23 H 0.6255 0.0911 0.3035
C27 C 0.6336(4) -0.0491(4) 0.8278(3)
H24 H 0.6966 -0.0489 0.8169
H25 H 0.6212 -0.0913 0.8604
H26 H 0.6173 0.0015 0.8480
Br1D Br 0.64067(3) -0.07034(3) 0.36052(2)
Mg1D Mg 0.55205(7) 0.02428(6) 0.42952(5)
C1D C 0.3706(2) -0.1883(3) 0.6330(2)
N1D N 0.42543(18) 0.05936(16) 0.38987(13)
N2D N 0.38957(19) -0.14387(17) 0.57701(14)
C2D C 0.2266(2) -0.0172(2) 0.47268(17)
H1D H 0.2547 -0.0188 0.5160
C3D C 0.3772(2) 0.00420(19) 0.41916(15)
C4D C 0.2342(2) -0.0032(2) 0.34810(18)
H2D H 0.2674 0.0055 0.3077
C5D C 0.3447(3) 0.2667(2) 0.3630(2)
H3D H 0.3284 0.3111 0.3894
C6D C 0.3726(3) -0.2632(2) 0.5036(2)
C7D C 0.1419(2) -0.0145(2) 0.3437(2)
H4D H 0.1136 -0.0143 0.3005
C8D C 0.1342(2) -0.0270(2) 0.4681(2)
H5D H 0.1004 -0.0342 0.5084
C9D C 0.3888(2) -0.17952(19) 0.51249(18)
C10D C 0.3676(2) 0.1950(2) 0.39667(18)
C11D C 0.2776(2) -0.00497(19) 0.41244(16)
C12D C 0.3912(2) 0.1291(2) 0.35506(16)
C13D C 0.3927(2) 0.1331(2) 0.28204(17)
C14D C 0.3695(3) 0.2063(3) 0.2511(2)
H6D H 0.3697 0.2108 0.2028
C15D C 0.0922(2) -0.0260(2) 0.4037(2)
H7D H 0.0304 -0.0332 0.4008
C16D C 0.3680(2) 0.1876(2) 0.47513(18)
H8D H 0.3158 0.1567 0.4889
H9D H 0.4207 0.1571 0.4886
C17D C 0.3533(3) -0.3071(3) 0.5656(3)
H10D H 0.3421 -0.3619 0.5630
C18D C 0.4198(3) 0.0625(2) 0.23776(19)
H11D H 0.4155 0.0145 0.2661
H12D H 0.4824 0.0690 0.2249
C19D C 0.4043(2) -0.13036(19) 0.45277(16)
C20D C 0.3461(3) 0.2720(3) 0.2910(2)
H13D H 0.3313 0.3201 0.2694
C21D C 0.3724(3) -0.2962(2) 0.4363(2)
H14D H 0.3615 -0.3506 0.4301
C22D C 0.4036(3) -0.1651(2) 0.38791(19)
H15D H 0.4133 -0.1337 0.3486
C23D C 0.3513(3) -0.2698(3) 0.6278(2)
H16D H 0.3369 -0.2987 0.6677
C24D C 0.3881(3) -0.2487(3) 0.3804(2)
H17D H 0.3887 -0.2713 0.3361
N3D N 0.42388(18) -0.04769(15) 0.46269(13)
C25D C 0.3678(3) 0.2658(2) 0.5164(2)
H18D H 0.3701 0.2540 0.5654
H19D H 0.4192 0.2973 0.5036
H20D H 0.3140 0.2952 0.5063
C26D C 0.3715(3) -0.1481(3) 0.70273(19)
H21D H 0.4229 -0.1658 0.7288
H22D H 0.3177 -0.1615 0.7277
H23D H 0.3745 -0.0911 0.6965
C27D C 0.3664(4) 0.0491(4) 0.1722(3)
H24D H 0.3034 0.0489 0.1831
H25D H 0.3788 0.0913 0.1396
H26D H 0.3827 -0.0015 0.1520
loop_
_geom_bond_atom_site_label_1
_geom_bond_atom_site_label_2
_geom_bond_site_symmetry_1
_geom_bond_site_symmetry_2
Br1 Mg1 1_555 1_555
Mg1 N1 1_555 1_555
C1 N2 1_555 1_555
N1 C3 1_555 1_555
N2 C9 1_555 1_555
C2 H1 1_555 1_555
C3 C11 1_555 1_555
C4 H2 1_555 1_555
C5 H3 1_555 1_555
C6 C9 1_555 1_555
C7 C4 1_555 1_555
H4 C7 1_555 1_555
C8 C2 1_555 1_555
H5 C8 1_555 1_555
C9 C19 1_555 1_555
C10 C5 1_555 1_555
C11 C2 1_555 1_555
C12 N1 1_555 1_555
C13 C12 1_555 1_555
C14 C13 1_555 1_555
H6 C14 1_555 1_555
C15 C7 1_555 1_555
H7 C15 1_555 1_555
C16 C10 1_555 1_555
H8 C16 1_555 1_555
H9 C16 1_555 1_555
C17 C6 1_555 1_555
H10 C17 1_555 1_555
C18 C13 1_555 1_555
H11 C18 1_555 1_555
H12 C18 1_555 1_555
C19 C22 1_555 1_555
C20 C5 1_555 1_555
H13 C20 1_555 1_555
C21 C6 1_555 1_555
H14 C21 1_555 1_555
C22 H15 1_555 1_555
C23 C1 1_555 1_555
H16 C23 1_555 1_555
C24 C21 1_555 1_555
H17 C24 1_555 1_555
N3 Mg1 1_555 1_555
C25 C16 1_555 1_555
H18 C25 1_555 1_555
H19 C25 1_555 1_555
H20 C25 1_555 1_555
C26 C1 1_555 1_555
H21 C26 1_555 1_555
H22 C26 1_555 1_555
H23 C26 1_555 1_555
C27 C18 1_555 1_555
H24 C27 1_555 1_555
H25 C27 1_555 1_555
H26 C27 1_555 1_555
Br1D Mg1D 1_555 1_555
Mg1D N2 1_555 1_555
C1D N2D 1_555 1_555
N1D Mg1D 1_555 1_555
N2D Mg1 1_555 1_555
C2D H1D 1_555 1_555
C3D N1D 1_555 1_555
C4D H2D 1_555 1_555
C5D H3D 1_555 1_555
C6D C9D 1_555 1_555
C7D C4D 1_555 1_555
H4D C7D 1_555 1_555
C8D C2D 1_555 1_555
H5D C8D 1_555 1_555
C9D N2D 1_555 1_555
C10D C5D 1_555 1_555
C11D C2D 1_555 1_555
C12D N1D 1_555 1_555
C13D C12D 1_555 1_555
C14D C13D 1_555 1_555
H6D C14D 1_555 1_555
C15D C7D 1_555 1_555
H7D C15D 1_555 1_555
C16D C10D 1_555 1_555
H8D C16D 1_555 1_555
H9D C16D 1_555 1_555
C17D C6D 1_555 1_555
H10D C17D 1_555 1_555
C18D C13D 1_555 1_555
H11D C18D 1_555 1_555
H12D C18D 1_555 1_555
C19D C9D 1_555 1_555
C20D C5D 1_555 1_555
H13D C20D 1_555 1_555
C21D C6D 1_555 1_555
H14D C21D 1_555 1_555
C22D C19D 1_555 1_555
H15D C22D 1_555 1_555
C23D C1D 1_555 1_555
H16D C23D 1_555 1_555
C24D C21D 1_555 1_555
H17D C24D 1_555 1_555
N3D Mg1 1_555 1_555
C25D C16D 1_555 1_555
H18D C25D 1_555 1_555
H19D C25D 1_555 1_555
H20D C25D 1_555 1_555
C26D C1D 1_555 1_555
H21D C26D 1_555 1_555
H22D C26D 1_555 1_555
H23D C26D 1_555 1_555
C27D C18D 1_555 1_555
H24D C27D 1_555 1_555
H25D C27D 1_555 1_555
H26D C27D 1_555 1_555
C3 N3 1_555 1_555
C4 C11 1_555 1_555
C8 C15 1_555 1_555
C10 C12 1_555 1_555
C14 C20 1_555 1_555
C17 C23 1_555 1_555
C19 N3 1_555 1_555
C22 C24 1_555 1_555
N3 Mg1D 1_555 1_555
Mg1D N3D 1_555 1_555
C3D C11D 1_555 1_555
C3D N3D 1_555 1_555
C4D C11D 1_555 1_555
C8D C15D 1_555 1_555
C10D C12D 1_555 1_555
C14D C20D 1_555 1_555
C17D C23D 1_555 1_555
C19D N3D 1_555 1_555
C22D C24D 1_555 1_555

#END
