
#######################################################################
#
#                 Cambridge Crystallographic Data Centre
#                                CCDC 
#
#######################################################################
#
# If this CIF has been generated from an entry in the Cambridge 
# Structural Database, then it will include bibliographic, chemical, 
# crystal, experimental, refinement or atomic coordinate data resulting 
# from the CCDC's data processing and validation procedures.
#
#######################################################################

data_FEMMAO02
_chemical_formula_moiety         'C8 H12 N1 1+,Cl1 O4 1-,H2 O1'
_chemical_name_systematic        '2,6-dimethylanilinium perchlorate monohydrate'
_symmetry_cell_setting           orthorhombic
_symmetry_space_group_name_H-M   'I b a 2'
_symmetry_Int_Tables_number      45
_space_group_name_Hall           'I 2 -2c'
loop_
_symmetry_equiv_pos_site_id
_symmetry_equiv_pos_as_xyz
1 x,y,z
2 -x,-y,z
3 -x,y,1/2+z
4 x,-y,1/2+z
5 1/2+x,1/2+y,1/2+z
6 1/2-x,1/2-y,1/2+z
7 1/2-x,1/2+y,z
8 1/2+x,1/2-y,z
_cell_length_a                   13.757(3)
_cell_length_b                   23.222(5)
_cell_length_c                   7.4718(17)
_cell_angle_alpha                90
_cell_angle_beta                 90
_cell_angle_gamma                90
_cell_volume                     2386.98
_exptl_crystal_description       block
_cell_formula_units_Z            8
loop_
_atom_site_label
_atom_site_type_symbol
_atom_site_fract_x
_atom_site_fract_y
_atom_site_fract_z
Cl1 Cl -0.23575(4) -0.582680(17) -0.65634(15)
O1 O -0.2877(3) -0.54522(13) -0.5128(5)
O2 O -0.2038(3) -0.54382(16) -0.7782(5)
O3 O -0.3064(2) -0.62406(13) -0.6931(4)
O4 O -0.1606(3) -0.61653(15) -0.7331(4)
C1 C -0.24036(14) -0.68583(9) -0.1490(6)
C2 C -0.28687(11) -0.63293(6) -0.1567(4)
N1 N -0.22927(8) -0.58069(5) -0.1564(4)
H1 H -0.2634 -0.5522 -0.1072
H2 H -0.2138 -0.5714 -0.2683
H3 H -0.1752 -0.5864 -0.0933
C3 C -0.38666(12) -0.62806(8) -0.1544(6)
C4 C -0.39612(18) -0.72979(10) -0.1704(8)
H4 H -0.4328 -0.7623 -0.1973
C5 C -0.2963(2) -0.73440(9) -0.1500(8)
H5 H -0.2676 -0.7704 -0.1372
C6 C -0.43500(15) -0.56892(10) -0.1649(5)
H6 H -0.4210 -0.5517 -0.2787
H7 H -0.4104 -0.5448 -0.0709
H8 H -0.5040 -0.5731 -0.1516
C7 C -0.13066(15) -0.68871(10) -0.1728(6)
H9 H -0.1064 -0.6512 -0.2035
H10 H -0.1152 -0.7154 -0.2667
H11 H -0.1012 -0.7013 -0.0631
C8 C -0.44033(17) -0.67797(10) -0.1510(6)
H12 H -0.5073 -0.6762 -0.1354
O5 O -0.02399(13) -0.55870(9) -0.1956(5)
O6? O -0.2787(3) -0.54501(17) -0.7813(5)
O7? O -0.1830(3) -0.55184(13) -0.5132(5)
O8? O -0.1601(3) -0.60863(17) -0.5335(5)
O9? O -0.2975(3) -0.6225(2) -0.5642(6)
H13? H -0.1184 -0.4989 -0.2033
H14? H -0.0621 -0.5459 -0.2525
O10? O -0.0614(4) -0.5131(3) -0.2027(16)
loop_
_geom_bond_atom_site_label_1
_geom_bond_atom_site_label_2
_geom_bond_site_symmetry_1
_geom_bond_site_symmetry_2
Cl1 O1 1_555 1_555
O2 Cl1 1_555 1_555
O3 Cl1 1_555 1_555
O4 Cl1 1_555 1_555
C1 C2 1_555 1_555
C2 N1 1_555 1_555
N1 H1 1_555 1_555
H2 N1 1_555 1_555
H3 N1 1_555 1_555
C3 C2 1_555 1_555
C4 H4 1_555 1_555
C5 C1 1_555 1_555
H5 C5 1_555 1_555
C6 C3 1_555 1_555
H6 C6 1_555 1_555
H7 C6 1_555 1_555
H8 C6 1_555 1_555
C7 C1 1_555 1_555
H9 C7 1_555 1_555
H10 C7 1_555 1_555
H11 C7 1_555 1_555
C8 C3 1_555 1_555
H12 C8 1_555 1_555
C4 C5 1_555 1_555
C4 C8 1_555 1_555

#END
