
#######################################################################
#
#                 Cambridge Crystallographic Data Centre
#                                CCDC 
#
#######################################################################
#
# If this CIF has been generated from an entry in the Cambridge 
# Structural Database, then it will include bibliographic, chemical, 
# crystal, experimental, refinement or atomic coordinate data resulting 
# from the CCDC's data processing and validation procedures.
#
#######################################################################

data_FEMYUT
_chemical_formula_moiety         'C17 H15 N3'
_chemical_name_systematic        
2-(4-Methyl-7,8,9,10-tetrahydrocyclohepta[b]indol-6(5H)-ylidene)malononitrile
_symmetry_cell_setting           orthorhombic
_symmetry_space_group_name_H-M   'P b c a'
_symmetry_Int_Tables_number      61
_space_group_name_Hall           '-P 2ac 2ab'
loop_
_symmetry_equiv_pos_site_id
_symmetry_equiv_pos_as_xyz
1 x,y,z
2 1/2-x,-y,1/2+z
3 -x,1/2+y,1/2-z
4 1/2+x,1/2-y,-z
5 -x,-y,-z
6 1/2+x,y,1/2-z
7 x,1/2-y,1/2+z
8 1/2-x,1/2+y,z
_cell_length_a                   9.2109(15)
_cell_length_b                   9.5729(15)
_cell_length_c                   30.842(5)
_cell_angle_alpha                90
_cell_angle_beta                 90
_cell_angle_gamma                90
_cell_volume                     2719.49
_exptl_crystal_colour            yellow
_exptl_crystal_description       block
_chemical_melting_point          '189 deg.C'
_cell_formula_units_Z            8
loop_
_atom_site_label
_atom_site_type_symbol
_atom_site_fract_x
_atom_site_fract_y
_atom_site_fract_z
C1 C 1.03293(14) 0.79463(14) 0.09587(4)
C2 C 1.08499(15) 0.66868(14) 0.07840(5)
C3 C 1.05064(17) 0.64552(16) 0.03539(5)
H1 H 1.0843 0.5624 0.0219
C4 C 0.96743(17) 0.74066(17) 0.01071(5)
H2 H 0.9447 0.7187 -0.0185
C5 C 0.91863(17) 0.86434(15) 0.02807(4)
H3 H 0.8641 0.9285 0.0111
C6 C 0.95200(14) 0.89320(14) 0.07184(4)
C7 C 0.91667(14) 1.00531(14) 0.10044(4)
C8 C 0.84069(16) 1.13833(14) 0.08805(5)
H4 H 0.7382 1.1334 0.0976
H5 H 0.8415 1.1479 0.0561
C9 C 0.91226(17) 1.26739(15) 0.10830(5)
H6 H 1.0189 1.2586 0.1054
H7 H 0.8818 1.3512 0.0918
C10 C 0.87482(17) 1.28916(15) 0.15626(5)
H8 H 0.7879 1.3497 0.1581
H9 H 0.9560 1.3398 0.1702
C11 C 0.84525(15) 1.15501(15) 0.18226(5)
H10 H 0.8283 1.1805 0.2130
H11 H 0.7552 1.1114 0.1712
C12 C 0.96564(14) 1.04926(14) 0.18034(4)
C13 C 0.97705(14) 0.97154(14) 0.14050(4)
C14 C 1.17147(17) 0.56897(16) 0.10527(5)
H12 H 1.2080 0.4934 0.0868
H13 H 1.1097 0.5298 0.1281
H14 H 1.2534 0.6184 0.1185
C15 C 1.05301(14) 1.02934(14) 0.21573(4)
C16 C 1.17788(15) 0.93959(14) 0.21714(4)
C17 C 1.02342(15) 1.10030(14) 0.25576(4)
N1 N 1.05049(12) 0.84506(12) 0.13715(4)
H15 H 1.0695(17) 0.7915(17) 0.1600(5)
N2 N 1.27887(14) 0.86955(13) 0.21954(4)
N3 N 0.99869(13) 1.15374(14) 0.28824(4)
loop_
_geom_bond_atom_site_label_1
_geom_bond_atom_site_label_2
_geom_bond_site_symmetry_1
_geom_bond_site_symmetry_2
C1 C2 1_555 1_555
C2 C3 1_555 1_555
C3 H1 1_555 1_555
C4 C3 1_555 1_555
H2 C4 1_555 1_555
C5 C4 1_555 1_555
H3 C5 1_555 1_555
C6 C1 1_555 1_555
C7 C6 1_555 1_555
C8 C7 1_555 1_555
H4 C8 1_555 1_555
H5 C8 1_555 1_555
C9 C8 1_555 1_555
H6 C9 1_555 1_555
H7 C9 1_555 1_555
C10 C9 1_555 1_555
H8 C10 1_555 1_555
H9 C10 1_555 1_555
C11 C10 1_555 1_555
H10 C11 1_555 1_555
H11 C11 1_555 1_555
C12 C11 1_555 1_555
C13 C7 1_555 1_555
C14 C2 1_555 1_555
H12 C14 1_555 1_555
H13 C14 1_555 1_555
H14 C14 1_555 1_555
C15 C12 1_555 1_555
C16 C15 1_555 1_555
C17 C15 1_555 1_555
N1 C1 1_555 1_555
H15 N1 1_555 1_555
N2 C16 1_555 1_555
N3 C17 1_555 1_555
C5 C6 1_555 1_555
C12 C13 1_555 1_555
C13 N1 1_555 1_555

#END
