
#######################################################################
#
#                 Cambridge Crystallographic Data Centre
#                                CCDC 
#
#######################################################################
#
# If this CIF has been generated from an entry in the Cambridge 
# Structural Database, then it will include bibliographic, chemical, 
# crystal, experimental, refinement or atomic coordinate data resulting 
# from the CCDC's data processing and validation procedures.
#
#######################################################################

data_FENKAN
_chemical_formula_moiety         'C16 H24 O5'
_chemical_name_systematic        
2-(2,4-dihydroxy-4-methyloctahydro-11aH-furo[3,2-k][2]benzoxepin-7(4H)-ylidene)propanal
_symmetry_cell_setting           orthorhombic
_symmetry_space_group_name_H-M   'P 21 21 21'
_symmetry_Int_Tables_number      19
_space_group_name_Hall           'P 2ac 2ab'
loop_
_symmetry_equiv_pos_site_id
_symmetry_equiv_pos_as_xyz
1 x,y,z
2 1/2+x,1/2-y,-z
3 -x,1/2+y,1/2-z
4 1/2-x,-y,1/2+z
_cell_length_a                   8.9370(4)
_cell_length_b                   9.3938(4)
_cell_length_c                   16.8955(7)
_cell_angle_alpha                90
_cell_angle_beta                 90
_cell_angle_gamma                90
_cell_volume                     1418.42
_exptl_crystal_colour            colorless
_exptl_crystal_description       block
_cell_formula_units_Z            4
_exptl_crystal_recrystallization_method methanol
loop_
_atom_site_label
_atom_site_type_symbol
_atom_site_fract_x
_atom_site_fract_y
_atom_site_fract_z
O1 O 0.6364(3) 0.1088(2) 0.11101(16)
O2 O 0.9103(3) 0.4791(3) 0.38472(15)
H1 H 0.9831 0.4459 0.3593
O3 O 0.9466(3) 0.6835(2) 0.31174(14)
O4 O 1.0817(2) 0.5801(2) 0.21333(14)
O5 O 0.7898(2) 0.8476(2) 0.12903(13)
H2 H 0.7539 0.9301 0.1317
C1 C 0.6929(4) 0.2282(3) 0.11116(19)
H3 H 0.7908 0.2389 0.1322
C2 C 0.6165(3) 0.3547(3) 0.08046(17)
C3 C 0.6752(3) 0.4866(3) 0.08813(18)
C4 C 0.8276(3) 0.5226(3) 0.12266(18)
H4 H 0.8725 0.4314 0.1419
C5 C 0.8087(3) 0.6219(3) 0.19667(17)
C6 C 0.7525(4) 0.5322(3) 0.26734(19)
H5 H 0.6437 0.5464 0.2753
H6 H 0.7713 0.4297 0.2579
C7 C 0.8406(4) 0.5844(4) 0.3401(2)
H7 H 0.7695 0.6363 0.3754
C8 C 0.9620(4) 0.6741(3) 0.22968(19)
H8 H 0.9853 0.7703 0.2076
C9 C 1.1613(3) 0.6123(3) 0.1417(2)
H9 H 1.2667 0.5817 0.1476
H10 H 1.1608 0.7166 0.1333
C10 C 1.0942(3) 0.5402(3) 0.0701(2)
H11 H 1.1018 0.4357 0.0770
H12 H 1.1535 0.5664 0.0228
C11 C 0.9304(3) 0.5793(3) 0.05563(19)
H13 H 0.8976 0.5388 0.0044
H14 H 0.9209 0.6842 0.0524
C12 C 0.7065(3) 0.7539(3) 0.18026(18)
C13 C 0.6641(4) 0.8352(3) 0.25490(19)
H15 H 0.7550 0.8628 0.2834
H16 H 0.6023 0.7744 0.2889
H17 H 0.6075 0.9207 0.2404
C14 C 0.5629(3) 0.7081(3) 0.13793(19)
H18 H 0.5004 0.6527 0.1752
H19 H 0.5059 0.7942 0.1227
C15 C 0.5911(3) 0.6182(3) 0.06393(19)
H20 H 0.4948 0.5917 0.0391
H21 H 0.6504 0.6733 0.0250
C16 C 0.4682(3) 0.3273(3) 0.03999(19)
H22 H 0.3881 0.3752 0.0693
H23 H 0.4487 0.2246 0.0387
H24 H 0.4718 0.3642 -0.0142
loop_
_geom_bond_atom_site_label_1
_geom_bond_atom_site_label_2
_geom_bond_site_symmetry_1
_geom_bond_site_symmetry_2
O1 C1 1_555 1_555
O2 H1 1_555 1_555
O3 C7 1_555 1_555
O4 C8 1_555 1_555
O5 H2 1_555 1_555
C1 H3 1_555 1_555
C2 C1 1_555 1_555
C3 C2 1_555 1_555
C4 C3 1_555 1_555
H4 C4 1_555 1_555
C5 C4 1_555 1_555
C6 C5 1_555 1_555
H5 C6 1_555 1_555
H6 C6 1_555 1_555
C7 O2 1_555 1_555
H7 C7 1_555 1_555
C8 O3 1_555 1_555
H8 C8 1_555 1_555
C9 O4 1_555 1_555
H9 C9 1_555 1_555
H10 C9 1_555 1_555
C10 C9 1_555 1_555
H11 C10 1_555 1_555
H12 C10 1_555 1_555
C11 C4 1_555 1_555
H13 C11 1_555 1_555
H14 C11 1_555 1_555
C12 O5 1_555 1_555
C13 C12 1_555 1_555
H15 C13 1_555 1_555
H16 C13 1_555 1_555
H17 C13 1_555 1_555
C14 C12 1_555 1_555
H18 C14 1_555 1_555
H19 C14 1_555 1_555
C15 C3 1_555 1_555
H20 C15 1_555 1_555
H21 C15 1_555 1_555
C16 C2 1_555 1_555
H22 C16 1_555 1_555
H23 C16 1_555 1_555
H24 C16 1_555 1_555
C5 C8 1_555 1_555
C5 C12 1_555 1_555
C6 C7 1_555 1_555
C10 C11 1_555 1_555
C14 C15 1_555 1_555

#END
