
#######################################################################
#
#                 Cambridge Crystallographic Data Centre
#                                CCDC 
#
#######################################################################
#
# If this CIF has been generated from an entry in the Cambridge 
# Structural Database, then it will include bibliographic, chemical, 
# crystal, experimental, refinement or atomic coordinate data resulting 
# from the CCDC's data processing and validation procedures.
#
#######################################################################

data_FENWIG
_chemical_formula_moiety         'C10 H10 N2'
_chemical_name_systematic        2-Cyclopropyl-1H-benzimidazole
_symmetry_cell_setting           orthorhombic
_symmetry_space_group_name_H-M   'P c a 21'
_symmetry_Int_Tables_number      29
_space_group_name_Hall           'P 2c -2ac'
loop_
_symmetry_equiv_pos_site_id
_symmetry_equiv_pos_as_xyz
1 x,y,z
2 -x,-y,1/2+z
3 1/2+x,-y,z
4 1/2-x,y,1/2+z
_cell_length_a                   8.5482(10)
_cell_length_b                   10.7471(12)
_cell_length_c                   9.6662(11)
_cell_angle_alpha                90
_cell_angle_beta                 90
_cell_angle_gamma                90
_cell_volume                     888.018
_exptl_crystal_colour            colorless
_exptl_crystal_description       block
_cell_formula_units_Z            4
loop_
_atom_site_label
_atom_site_type_symbol
_atom_site_fract_x
_atom_site_fract_y
_atom_site_fract_z
N1 N 0.2226(2) 0.26385(17) 0.2921(2)
H1 H 0.2712 0.2746 0.2151
N2 N 0.1662(2) 0.27952(19) 0.51547(19)
C1 C 0.0538(3) 0.2042(2) 0.4508(2)
C2 C -0.0767(3) 0.1443(3) 0.5062(3)
H2 H -0.1030 0.1514 0.5992
C3 C -0.1648(3) 0.0738(2) 0.4153(3)
H3 H -0.2516 0.0312 0.4489
C4 C -0.1287(3) 0.0643(2) 0.2779(3)
H4 H -0.1922 0.0161 0.2210
C5 C -0.0016(3) 0.1239(2) 0.2212(3)
H5 H 0.0230 0.1172 0.1278
C6 C 0.0886(2) 0.19502(18) 0.3123(2)
C7 C 0.2630(3) 0.3112(2) 0.4164(2)
C8 C 0.3998(3) 0.3920(3) 0.4367(3)
H6 H 0.4047 0.4331 0.5272
C9 C 0.5524(4) 0.3607(5) 0.3767(6)
H7 H 0.6450 0.3786 0.4312
H8 H 0.5592 0.2861 0.3204
C10 C 0.4658(5) 0.4644(4) 0.3221(5)
H9 H 0.4183 0.4550 0.2316
H10 H 0.5041 0.5474 0.3424
loop_
_geom_bond_atom_site_label_1
_geom_bond_atom_site_label_2
_geom_bond_site_symmetry_1
_geom_bond_site_symmetry_2
N1 H1 1_555 1_555
N2 C1 1_555 1_555
C1 C2 1_555 1_555
C2 H2 1_555 1_555
C3 C2 1_555 1_555
H3 C3 1_555 1_555
C4 C3 1_555 1_555
H4 C4 1_555 1_555
C5 C4 1_555 1_555
H5 C5 1_555 1_555
C6 N1 1_555 1_555
C7 N1 1_555 1_555
C8 C7 1_555 1_555
H6 C8 1_555 1_555
C9 C8 1_555 1_555
H7 C9 1_555 1_555
H8 C9 1_555 1_555
C10 C8 1_555 1_555
H9 C10 1_555 1_555
H10 C10 1_555 1_555
N2 C7 1_555 1_555
C1 C6 1_555 1_555
C5 C6 1_555 1_555
C9 C10 1_555 1_555

#END
