
#######################################################################
#
#                 Cambridge Crystallographic Data Centre
#                                CCDC 
#
#######################################################################
#
# If this CIF has been generated from an entry in the Cambridge 
# Structural Database, then it will include bibliographic, chemical, 
# crystal, experimental, refinement or atomic coordinate data resulting 
# from the CCDC's data processing and validation procedures.
#
#######################################################################

data_FEPKIU
_chemical_formula_moiety         'C20 H26 P1 1+,Br1 1-'
_chemical_name_systematic        
'1-Benzyl-2,2,3,3-tetramethyl-1-phenylphosphetanium bromide'
_symmetry_cell_setting           monoclinic
_symmetry_space_group_name_H-M   'P 21'
_symmetry_Int_Tables_number      4
_space_group_name_Hall           'P 2yb'
loop_
_symmetry_equiv_pos_site_id
_symmetry_equiv_pos_as_xyz
1 x,y,z
2 -x,1/2+y,-z
_cell_length_a                   9.596(2)
_cell_length_b                   9.853(6)
_cell_length_c                   10.252(7)
_cell_angle_alpha                90
_cell_angle_beta                 102.59(3)
_cell_angle_gamma                90
_cell_volume                     946.013
_exptl_crystal_colour            colorless
_cell_formula_units_Z            2
loop_
_atom_site_label
_atom_site_type_symbol
_atom_site_fract_x
_atom_site_fract_y
_atom_site_fract_z
Br1 Br 0.2077(1) 0.0000 0.1385(1)
P1 P 0.1783(1) 0.5576(1) 0.1910(1)
C1 C 0.1907(5) 0.6591(5) -0.0557(4)
C2 C 0.2844(4) 0.5844(4) 0.0627(3)
C3 C 0.2816(5) 0.4246(5) 0.0464(5)
C4 C 0.1482(4) 0.3981(4) 0.1085(4)
C5 C 0.2649(5) 0.3763(9) -0.0977(4)
C6 C 0.4132(5) 0.3570(5) 0.1312(4)
C7 C 0.4309(5) 0.6514(5) 0.1032(5)
C8 C 0.0233(4) 0.6630(5) 0.1899(4)
C9 C -0.0544(4) 0.6112(4) 0.2938(4)
C10 C -0.1532(5) 0.5093(7) 0.2619(4)
C11 C -0.2201(6) 0.4553(10) 0.3567(5)
C12 C -0.1893(6) 0.5052(8) 0.4851(6)
C13 C -0.0899(6) 0.6033(7) 0.5187(5)
C14 C -0.0217(5) 0.6606(6) 0.4218(5)
C15 C 0.2796(4) 0.5455(5) 0.3605(3)
C16 C 0.2708(5) 0.4314(6) 0.4339(4)
C17 C 0.3462(7) 0.4236(8) 0.5645(5)
C18 C 0.4347(5) 0.5297(9) 0.6173(4)
C19 C 0.4424(6) 0.6452(9) 0.5469(5)
C20 C 0.3635(5) 0.6563(7) 0.4137(5)
H1 H 0.0595 0.3921 0.0438
H2 H 0.1576 0.3214 0.1674
H3 H 0.2612 0.2790 -0.0996
H4 H 0.3450 0.4067 -0.1319
H5 H 0.1785 0.4123 -0.1519
H6 H 0.3923 0.2637 0.1460
H7 H 0.4399 0.4030 0.2155
H8 H 0.4905 0.3617 0.0856
H9 H 0.2117 0.6268 -0.1377
H10 H 0.0920 0.6427 -0.0563
H11 H 0.4192 0.7447 0.1256
H12 H 0.4786 0.6467 0.0302
H13 H 0.4868 0.6052 0.1793
H14 H -0.0395 0.6596 0.1031
H15 H 0.0532 0.7549 0.2104
H16 H -0.1767 0.4752 0.1721
H17 H -0.2870 0.3822 0.3331
H18 H -0.2389 0.4710 0.5500
H19 H -0.0649 0.6349 0.6093
H20 H 0.0466 0.7326 0.4455
H21 H 0.2122 0.3566 0.3950
H22 H 0.3374 0.3457 0.6184
H23 H 0.4926 0.5219 0.7061
H24 H 0.5012 0.7193 0.5873
H25 H 0.3675 0.7368 0.3619
loop_
_geom_bond_atom_site_label_1
_geom_bond_atom_site_label_2
_geom_bond_site_symmetry_1
_geom_bond_site_symmetry_2
P1 C2 1_555 1_555
C1 C2 1_555 1_555
C2 C3 1_555 1_555
C3 C4 1_555 1_555
C4 P1 1_555 1_555
C5 C3 1_555 1_555
C6 C3 1_555 1_555
C7 C2 1_555 1_555
C8 P1 1_555 1_555
C9 C8 1_555 1_555
C10 C9 1_555 1_555
C11 C10 1_555 1_555
C12 C11 1_555 1_555
C13 C12 1_555 1_555
C14 C9 1_555 1_555
C15 P1 1_555 1_555
C16 C15 1_555 1_555
C17 C16 1_555 1_555
C18 C17 1_555 1_555
C19 C18 1_555 1_555
C20 C15 1_555 1_555
H1 C4 1_555 1_555
H2 C4 1_555 1_555
H3 C5 1_555 1_555
H4 C5 1_555 1_555
H5 C5 1_555 1_555
H6 C6 1_555 1_555
H7 C6 1_555 1_555
H8 C6 1_555 1_555
H9 C1 1_555 1_555
H10 C1 1_555 1_555
H11 C7 1_555 1_555
H12 C7 1_555 1_555
H13 C7 1_555 1_555
H14 C8 1_555 1_555
H15 C8 1_555 1_555
H16 C10 1_555 1_555
H17 C11 1_555 1_555
H18 C12 1_555 1_555
H19 C13 1_555 1_555
H20 C14 1_555 1_555
H21 C16 1_555 1_555
H22 C17 1_555 1_555
H23 C18 1_555 1_555
H24 C19 1_555 1_555
H25 C20 1_555 1_555
C13 C14 1_555 1_555
C19 C20 1_555 1_555

#END
