
#######################################################################
#
#                 Cambridge Crystallographic Data Centre
#                                CCDC 
#
#######################################################################
#
# If this CIF has been generated from an entry in the Cambridge 
# Structural Database, then it will include bibliographic, chemical, 
# crystal, experimental, refinement or atomic coordinate data resulting 
# from the CCDC's data processing and validation procedures.
#
#######################################################################

data_FEPWAA
_chemical_formula_moiety         'C17 H14 N2 S1'
_chemical_name_systematic        4-(Methylsulfanyl)-3,6-diphenylpyridazine
_symmetry_cell_setting           monoclinic
_symmetry_space_group_name_H-M   'P 21/c'
_symmetry_Int_Tables_number      14
_space_group_name_Hall           '-P 2ybc'
loop_
_symmetry_equiv_pos_site_id
_symmetry_equiv_pos_as_xyz
1 x,y,z
2 -x,1/2+y,1/2-z
3 -x,-y,-z
4 x,1/2-y,1/2+z
_cell_length_a                   7.5731(11)
_cell_length_b                   18.470(3)
_cell_length_c                   20.894(3)
_cell_angle_alpha                90
_cell_angle_beta                 95.706(2)
_cell_angle_gamma                90
_cell_volume                     2908.07
_exptl_crystal_colour            colorless
_exptl_crystal_description       block
_cell_formula_units_Z            8
loop_
_atom_site_label
_atom_site_type_symbol
_atom_site_fract_x
_atom_site_fract_y
_atom_site_fract_z
C1 C 0.2722(5) 0.5484(2) 0.26954(19)
C2 C 0.3256(5) 0.4801(3) 0.2526(2)
H1 H 0.3614 0.4727 0.2117
C3 C 0.3271(6) 0.4222(3) 0.2951(3)
H2 H 0.3644 0.3767 0.2828
C4 C 0.2735(7) 0.4324(4) 0.3550(3)
H3 H 0.2722 0.3938 0.3835
C5 C 0.2216(7) 0.5002(4) 0.3727(2)
H4 H 0.1857 0.5072 0.4135
C6 C 0.2217(6) 0.5579(3) 0.3310(2)
H5 H 0.1878 0.6035 0.3441
C7 C 0.2740(5) 0.6101(2) 0.22465(17)
C8 C 0.2517(5) 0.6012(2) 0.15819(17)
H6 H 0.2345 0.5552 0.1405
C9 C 0.2552(4) 0.6605(2) 0.11897(17)
C10 C 0.2857(5) 0.7284(2) 0.14953(17)
C11 C 0.2939(5) 0.7983(2) 0.11530(18)
C12 C 0.3859(5) 0.8068(2) 0.0617(2)
H7 H 0.4458 0.7675 0.0464
C13 C 0.3900(6) 0.8723(3) 0.0308(2)
H8 H 0.4509 0.8769 -0.0055
C14 C 0.3041(7) 0.9313(3) 0.0535(2)
H9 H 0.3069 0.9758 0.0327
C15 C 0.2147(6) 0.9240(2) 0.1068(2)
H10 H 0.1572 0.9638 0.1224
C16 C 0.2088(6) 0.8588(2) 0.1375(2)
H11 H 0.1471 0.8548 0.1737
C17 C 0.1289(6) 0.5676(2) 0.02065(19)
H12 H 0.2207 0.5328 0.0322
H13 H 0.0876 0.5622 -0.0240
H14 H 0.0322 0.5599 0.0462
N1 N 0.2937(5) 0.6754(2) 0.25118(15)
N2 N 0.3016(5) 0.73370(19) 0.21346(16)
S1 S 0.21547(15) 0.65730(6) 0.03470(5)
C18 C 0.6471(5) 0.7549(2) 0.41254(17)
C19 C 0.6026(6) 0.6909(3) 0.3808(2)
H15 H 0.5051 0.6897 0.3500
C20 C 0.6998(7) 0.6290(3) 0.3940(2)
H16 H 0.6687 0.5866 0.3717
C21 C 0.8427(7) 0.6293(3) 0.4398(2)
H17 H 0.9073 0.5871 0.4491
C22 C 0.8891(7) 0.6920(3) 0.4716(2)
H18 H 0.9861 0.6924 0.5026
C23 C 0.7941(6) 0.7546(3) 0.4583(2)
H19 H 0.8284 0.7971 0.4800
C24 C 0.5438(5) 0.8227(2) 0.39878(17)
C25 C 0.3745(5) 0.8226(2) 0.36598(18)
H20 H 0.3208 0.7793 0.3521
C26 C 0.2882(5) 0.8872(2) 0.35440(17)
C27 C 0.3811(5) 0.9502(2) 0.37385(18)
C28 C 0.3162(5) 1.0248(2) 0.35908(19)
C29 C 0.2533(6) 1.0449(3) 0.2964(2)
H21 H 0.2455 1.0103 0.2639
C30 C 0.2026(7) 1.1152(3) 0.2821(3)
H22 H 0.1617 1.1277 0.2401
C31 C 0.2121(7) 1.1668(3) 0.3294(3)
H23 H 0.1769 1.2141 0.3198
C32 C 0.2738(7) 1.1480(3) 0.3909(3)
H24 H 0.2814 1.1830 0.4230
C33 C 0.3252(6) 1.0773(3) 0.4061(2)
H25 H 0.3660 1.0655 0.4482
C34 C -0.0075(6) 0.8035(3) 0.3151(3)
H26 H 0.0545 0.7778 0.2842
H27 H -0.1326 0.8024 0.3020
H28 H 0.0155 0.7810 0.3565
N3 N 0.6221(5) 0.8835(2) 0.42023(16)
N4 N 0.5407(5) 0.9473(2) 0.40706(17)
S2 S 0.06719(14) 0.89535(7) 0.31975(6)
loop_
_geom_bond_atom_site_label_1
_geom_bond_atom_site_label_2
_geom_bond_site_symmetry_1
_geom_bond_site_symmetry_2
C1 C2 1_555 1_555
C2 H1 1_555 1_555
C3 C2 1_555 1_555
H2 C3 1_555 1_555
C4 C3 1_555 1_555
H3 C4 1_555 1_555
C5 C4 1_555 1_555
H4 C5 1_555 1_555
C6 C1 1_555 1_555
H5 C6 1_555 1_555
C7 C1 1_555 1_555
C8 C7 1_555 1_555
H6 C8 1_555 1_555
C9 C8 1_555 1_555
C10 C9 1_555 1_555
C11 C10 1_555 1_555
C12 C11 1_555 1_555
H7 C12 1_555 1_555
C13 C12 1_555 1_555
H8 C13 1_555 1_555
C14 C13 1_555 1_555
H9 C14 1_555 1_555
C15 C14 1_555 1_555
H10 C15 1_555 1_555
C16 C11 1_555 1_555
H11 C16 1_555 1_555
C17 H12 1_555 1_555
H13 C17 1_555 1_555
H14 C17 1_555 1_555
C18 C19 1_555 1_555
C19 H15 1_555 1_555
C20 C19 1_555 1_555
H16 C20 1_555 1_555
C21 C20 1_555 1_555
H17 C21 1_555 1_555
C22 C21 1_555 1_555
H18 C22 1_555 1_555
C23 C18 1_555 1_555
H19 C23 1_555 1_555
C24 C18 1_555 1_555
C25 C24 1_555 1_555
H20 C25 1_555 1_555
C26 C25 1_555 1_555
C27 C26 1_555 1_555
C28 C27 1_555 1_555
C29 C28 1_555 1_555
H21 C29 1_555 1_555
C30 C29 1_555 1_555
H22 C30 1_555 1_555
C31 C30 1_555 1_555
H23 C31 1_555 1_555
C32 C31 1_555 1_555
H24 C32 1_555 1_555
C33 C28 1_555 1_555
H25 C33 1_555 1_555
C34 H26 1_555 1_555
H27 C34 1_555 1_555
H28 C34 1_555 1_555
N1 C7 1_555 1_555
N2 C10 1_555 1_555
N3 C24 1_555 1_555
N4 C27 1_555 1_555
S1 C9 1_555 1_555
S2 C26 1_555 1_555
C5 C6 1_555 1_555
C15 C16 1_555 1_555
C17 S1 1_555 1_555
C22 C23 1_555 1_555
C32 C33 1_555 1_555
C34 S2 1_555 1_555
N1 N2 1_555 1_555
N3 N4 1_555 1_555

#END
