
#######################################################################
#
#                 Cambridge Crystallographic Data Centre
#                                CCDC 
#
#######################################################################
#
# If this CIF has been generated from an entry in the Cambridge 
# Structural Database, then it will include bibliographic, chemical, 
# crystal, experimental, refinement or atomic coordinate data resulting 
# from the CCDC's data processing and validation procedures.
#
#######################################################################

data_FEPYAC
_chemical_formula_moiety         'C15 H16 O5'
_chemical_name_systematic        
'(-)-Dimethyl 12-oxatricyclo[7.2.1.0^2,7^]dodeca-2,4,6-triene-11,11-dicarboxylate'
_symmetry_cell_setting           monoclinic
_symmetry_space_group_name_H-M   'P 21'
_symmetry_Int_Tables_number      4
_space_group_name_Hall           'P 2yb'
loop_
_symmetry_equiv_pos_site_id
_symmetry_equiv_pos_as_xyz
1 x,y,z
2 -x,1/2+y,-z
_cell_length_a                   8.9200(10)
_cell_length_b                   8.7290(8)
_cell_length_c                   9.4230(12)
_cell_angle_alpha                90
_cell_angle_beta                 112.218(14)
_cell_angle_gamma                90
_cell_volume                     679.224
_exptl_crystal_colour            colorless
_exptl_crystal_description       prism
_cell_formula_units_Z            2
loop_
_atom_site_label
_atom_site_type_symbol
_atom_site_fract_x
_atom_site_fract_y
_atom_site_fract_z
O1 O 0.96886(19) 1.07670(18) 0.36012(17)
O2 O 0.64854(19) 1.23726(17) 0.37991(16)
O3 O 0.55051(19) 1.02535(16) 0.45187(17)
O4 O 0.5490(2) 0.76579(18) 0.16827(18)
O5 O 0.46671(18) 1.00736(17) 0.09582(16)
C1 C 0.8178(3) 1.0636(2) 0.2338(2)
H1 H 0.7741 1.1668 0.1927
C2 C 0.7089(2) 0.9838(2) 0.3064(2)
C3 C 0.8301(3) 0.8747(2) 0.4234(2)
H2 H 0.8269 0.8875 0.5265
H3 H 0.8062 0.7665 0.3913
C4 C 0.9962(3) 0.9235(3) 0.4226(2)
H4 H 1.0792 0.9250 0.5296
C5 C 1.0539(3) 0.8240(3) 0.3208(2)
H5 H 1.1671 0.8511 0.3375
H6 H 1.0519 0.7151 0.3494
C6 C 0.9487(2) 0.8448(3) 0.1535(2)
C7 C 0.8347(3) 0.9633(2) 0.1094(2)
C8 C 0.7358(2) 0.9823(2) -0.0444(2)
H7 H 0.6574 1.0619 -0.0736
C9 C 0.7509(3) 0.8860(3) -0.1552(2)
H8 H 0.6833 0.8997 -0.2600
C10 C 0.8658(3) 0.7690(3) -0.1122(3)
H9 H 0.8773 0.7030 -0.1876
C11 C 0.9633(3) 0.7495(3) 0.0413(3)
H10 H 1.0414 0.6696 0.0702
C12 C 0.6350(3) 1.1005(2) 0.3825(2)
C13 C 0.4680(3) 1.1190(3) 0.5261(3)
H11 H 0.5468 1.1845 0.6030
H12 H 0.4140 1.0528 0.5763
H13 H 0.3872 1.1831 0.4495
C14 C 0.5674(3) 0.9020(2) 0.1850(2)
C15 C 0.3330(3) 0.9506(3) -0.0360(3)
H14 H 0.3750 0.8930 -0.1023
H15 H 0.2680 1.0371 -0.0932
H16 H 0.2654 0.8833 -0.0018
loop_
_geom_bond_atom_site_label_1
_geom_bond_atom_site_label_2
_geom_bond_site_symmetry_1
_geom_bond_site_symmetry_2
O1 C1 1_555 1_555
O2 C12 1_555 1_555
O3 C12 1_555 1_555
O4 C14 1_555 1_555
O5 C14 1_555 1_555
C1 H1 1_555 1_555
C2 C1 1_555 1_555
C3 C2 1_555 1_555
H2 C3 1_555 1_555
H3 C3 1_555 1_555
C4 O1 1_555 1_555
H4 C4 1_555 1_555
C5 C4 1_555 1_555
H5 C5 1_555 1_555
H6 C5 1_555 1_555
C6 C5 1_555 1_555
C7 C1 1_555 1_555
C8 C7 1_555 1_555
H7 C8 1_555 1_555
C9 C8 1_555 1_555
H8 C9 1_555 1_555
C10 C9 1_555 1_555
H9 C10 1_555 1_555
C11 C6 1_555 1_555
H10 C11 1_555 1_555
C12 C2 1_555 1_555
C13 O3 1_555 1_555
H11 C13 1_555 1_555
H12 C13 1_555 1_555
H13 C13 1_555 1_555
C14 C2 1_555 1_555
C15 O5 1_555 1_555
H14 C15 1_555 1_555
H15 C15 1_555 1_555
H16 C15 1_555 1_555
C3 C4 1_555 1_555
C6 C7 1_555 1_555
C10 C11 1_555 1_555

#END
