
#######################################################################
#
#                 Cambridge Crystallographic Data Centre
#                                CCDC 
#
#######################################################################
#
# If this CIF has been generated from an entry in the Cambridge 
# Structural Database, then it will include bibliographic, chemical, 
# crystal, experimental, refinement or atomic coordinate data resulting 
# from the CCDC's data processing and validation procedures.
#
#######################################################################

data_FEQFOZ
_chemical_formula_moiety         'C12 H12 O5'
_chemical_name_systematic        
'3-hydroxy-4-(2-methyl-5-oxooxolan-2-yl)benzoic acid'
_symmetry_cell_setting           monoclinic
_symmetry_space_group_name_H-M   'P 21'
_symmetry_Int_Tables_number      4
_space_group_name_Hall           'P 2yb'
loop_
_symmetry_equiv_pos_site_id
_symmetry_equiv_pos_as_xyz
1 x,y,z
2 -x,1/2+y,-z
_cell_length_a                   8.2807(2)
_cell_length_b                   7.48529(19)
_cell_length_c                   18.9181(6)
_cell_angle_alpha                90
_cell_angle_beta                 98.357(3)
_cell_angle_gamma                90
_cell_volume                     1160.16
_exptl_crystal_colour            colorless
_exptl_crystal_description       prism
_cell_formula_units_Z            4
loop_
_atom_site_label
_atom_site_type_symbol
_atom_site_fract_x
_atom_site_fract_y
_atom_site_fract_z
O1 O 0.0796(3) 0.8918(4) 0.40671(15)
O2 O 0.7646(5) 0.4257(4) 0.2847(2)
C1 C 0.5172(6) 0.5344(5) 0.31685(19)
C2 C 0.5970(5) 0.6795(5) 0.3510(2)
H1 H 0.7079 0.6960 0.3499
O3 O 0.5412(4) 0.2544(4) 0.26130(16)
C3 C 0.3439(5) 0.7820(4) 0.38666(19)
C4 C 0.2645(5) 0.6375(4) 0.35010(19)
H2 H 0.1523 0.6243 0.3485
O4 O 0.5878(4) 0.9355(5) 0.4270(2)
H3 H 0.6700 0.9653 0.4105
C5 C 0.3504(5) 0.5141(5) 0.31639(18)
H4 H 0.2965 0.4168 0.2932
C6 C 0.5119(5) 0.8005(5) 0.3870(2)
O5 O -0.1449(4) 1.0615(5) 0.38976(18)
C7 C 0.2836(5) 1.1104(5) 0.4095(3)
H5 H 0.3717 1.1624 0.4425
H6 H 0.3083 1.1227 0.3611
C8 C 0.2564(4) 0.9154(5) 0.4276(2)
C9 C 0.6124(6) 0.3960(5) 0.2847(2)
C10 C 0.2933(7) 0.8793(8) 0.5079(2)
H7 H 0.2336 0.9621 0.5329
H8 H 0.4081 0.8935 0.5235
H9 H 0.2613 0.7595 0.5175
C11 C 0.0031(4) 1.0487(6) 0.4027(2)
C12 C 0.1210(5) 1.1970(6) 0.4172(3)
H10 H 0.1216 1.2441 0.4650
H11 H 0.0957 1.2929 0.3829
H12 H 0.821(12) 0.337(9) 0.280(7)
O6 O 0.3961(3) 0.5164(4) 0.09463(14)
O7 O -0.2784(4) 1.0037(4) 0.21592(17)
O8 O -0.0490(4) 1.1641(4) 0.24558(16)
O9 O -0.1165(3) 0.4674(4) 0.08938(15)
H13 H -0.2131 0.4942 0.0792
C13 C 0.1363(4) 0.6138(4) 0.12635(16)
C14 C -0.0301(5) 0.8791(5) 0.19171(17)
C15 C 0.2197(4) 0.7565(5) 0.16256(18)
H14 H 0.3326 0.7630 0.1653
C16 C -0.1159(4) 0.7351(5) 0.15836(17)
H15 H -0.2279 0.7260 0.1582
C17 C -0.1249(6) 1.0242(6) 0.22028(19)
C18 C 0.1376(5) 0.8891(5) 0.19455(19)
H16 H 0.1952 0.9840 0.2178
C19 C -0.0338(4) 0.6053(5) 0.12547(17)
O10 O 0.5843(3) 0.5929(5) 0.02932(18)
C20 C 0.4425(4) 0.5626(5) 0.0333(2)
C21 C 0.2204(3) 0.4740(5) 0.08620(19)
C22 C 0.2117(5) 0.2874(5) 0.1179(2)
H17 H 0.2636 0.2035 0.0900
H18 H 0.0996 0.2542 0.1173
H19 H 0.2666 0.2871 0.1662
C23 C 0.1674(4) 0.4813(8) 0.0057(2)
H20 H 0.1492 0.3619 -0.0138
H21 H 0.0674 0.5497 -0.0056
C24 C 0.3001(5) 0.5675(9) -0.0231(2)
H22 H 0.2717 0.6900 -0.0362
H23 H 0.3237 0.5046 -0.0652
H24 H -0.341(8) 1.068(10) 0.234(5)
loop_
_geom_bond_atom_site_label_1
_geom_bond_atom_site_label_2
_geom_bond_site_symmetry_1
_geom_bond_site_symmetry_2
O1 C8 1_555 1_555
O2 C9 1_555 1_555
C1 C2 1_555 1_555
C2 H1 1_555 1_555
O3 C9 1_555 1_555
C3 C4 1_555 1_555
C4 H2 1_555 1_555
O4 H3 1_555 1_555
C5 C1 1_555 1_555
H4 C5 1_555 1_555
C6 C2 1_555 1_555
O5 C11 1_555 1_555
C7 H5 1_555 1_555
H6 C7 1_555 1_555
C8 C3 1_555 1_555
C9 C1 1_555 1_555
C10 C8 1_555 1_555
H7 C10 1_555 1_555
H8 C10 1_555 1_555
H9 C10 1_555 1_555
C11 O1 1_555 1_555
C12 C7 1_555 1_555
H10 C12 1_555 1_555
H11 C12 1_555 1_555
H12 O2 1_555 1_555
O6 C20 1_555 1_555
O7 C17 1_555 1_555
O8 C17 1_555 1_555
O9 H13 1_555 1_555
C13 C15 1_555 1_555
C14 C16 1_555 1_555
C15 H14 1_555 1_555
C16 H15 1_555 1_555
C17 C14 1_555 1_555
C18 C14 1_555 1_555
H16 C18 1_555 1_555
C19 O9 1_555 1_555
O10 C20 1_555 1_555
C20 C24 1_555 1_555
C21 O6 1_555 1_555
C22 C21 1_555 1_555
H17 C22 1_555 1_555
H18 C22 1_555 1_555
H19 C22 1_555 1_555
C23 C21 1_555 1_555
H20 C23 1_555 1_555
H21 C23 1_555 1_555
C24 C23 1_555 1_555
H22 C24 1_555 1_555
H23 C24 1_555 1_555
H24 O7 1_555 1_555
C3 C6 1_555 1_555
C4 C5 1_555 1_555
O4 C6 1_555 1_555
C7 C8 1_555 1_555
C11 C12 1_555 1_555
C13 C19 1_555 1_555
C13 C21 1_555 1_555
C15 C18 1_555 1_555
C16 C19 1_555 1_555

#END
