
#######################################################################
#
#                 Cambridge Crystallographic Data Centre
#                                CCDC 
#
#######################################################################
#
# If this CIF has been generated from an entry in the Cambridge 
# Structural Database, then it will include bibliographic, chemical, 
# crystal, experimental, refinement or atomic coordinate data resulting 
# from the CCDC's data processing and validation procedures.
#
#######################################################################

data_FEQHAM
_chemical_formula_moiety         'C16 H32 Ca1 O4'
_chemical_name_systematic        
bis(\h^3^-1-Methylallyl)-(2,5,8,11-tetraoxadodecane)-calcium
_symmetry_cell_setting           monoclinic
_symmetry_space_group_name_H-M   'C 2/c'
_symmetry_Int_Tables_number      15
_space_group_name_Hall           '-C 2yn'
loop_
_symmetry_equiv_pos_site_id
_symmetry_equiv_pos_as_xyz
1 x,y,z
2 -x,y,1/2-z
3 1/2+x,1/2+y,z
4 1/2-x,1/2+y,1/2-z
5 -x,-y,-z
6 x,-y,1/2+z
7 1/2-x,1/2-y,-z
8 1/2+x,1/2-y,1/2+z
_cell_length_a                   29.591(3)
_cell_length_b                   8.4339(9)
_cell_length_c                   14.9723(16)
_cell_angle_alpha                90
_cell_angle_beta                 94.126(3)
_cell_angle_gamma                90
_cell_volume                     3726.92
_exptl_crystal_colour            colorless
_cell_formula_units_Z            8
loop_
_atom_site_label
_atom_site_type_symbol
_atom_site_fract_x
_atom_site_fract_y
_atom_site_fract_z
O1 O 0.05386(7) 0.3488(3) 0.14407(14)
O2 O 0.16634(7) -0.0070(2) 0.20251(14)
O3 O 0.19693(6) 0.2102(2) 0.32198(13)
O4 O 0.09515(7) 0.0854(2) 0.09288(13)
Ca1 Ca 0.125160(19) 0.24756(7) 0.22199(4)
C1 C 0.16093(11) 0.5301(4) 0.2096(2)
H1 H 0.1860 0.5025 0.2496
H2 H 0.1445 0.6190 0.2243
C2 C 0.15980(10) 0.4755(4) 0.1214(2)
H3 H 0.1385 0.5224 0.0823
C3 C 0.18198(11) 0.3524(4) 0.0850(2)
H4 H 0.2050 0.3009 0.1223
C4 C 0.17559(13) 0.3058(4) -0.0122(2)
H5 H 0.1531 0.3755 -0.0431
H6 H 0.1651 0.1957 -0.0169
H7 H 0.2045 0.3158 -0.0399
C5 C 0.0844(4) 0.3034(11) 0.3690(9)
H8 H 0.1150 0.2923 0.3918
H9 H 0.0703 0.4047 0.3678
C6 C 0.0620(3) 0.1814(9) 0.3398(5)
H10 H 0.0313 0.1892 0.3166
C7 C 0.0859(3) 0.0311(8) 0.3438(5)
H11 H 0.1168 0.0199 0.3647
C8 C 0.0554(2) -0.1095(8) 0.3103(5)
H12 H 0.0402 -0.1543 0.3607
H13 H 0.0741 -0.1913 0.2847
H14 H 0.0326 -0.0719 0.2645
C9 C 0.04135(11) 0.5109(4) 0.1486(2)
H15 H 0.0539 0.5693 0.0996
H16 H 0.0532 0.5555 0.2061
H17 H 0.0082 0.5199 0.1434
C10 C 0.03936(11) 0.2796(4) 0.0596(2)
H18 H 0.0562 0.3270 0.0114
H19 H 0.0066 0.2988 0.0457
C11 C 0.04852(11) 0.1059(4) 0.0661(2)
H20 H 0.0296 0.0570 0.1106
H21 H 0.0412 0.0545 0.0074
C12 C 0.10947(12) -0.0768(4) 0.0935(2)
H22 H 0.1026 -0.1249 0.0337
H23 H 0.0934 -0.1378 0.1379
C13 C 0.15931(12) -0.0801(4) 0.1173(2)
H24 H 0.1705 -0.1908 0.1198
H25 H 0.1756 -0.0214 0.0722
C14 C 0.21274(11) -0.0143(4) 0.2367(2)
H26 H 0.2320 0.0461 0.1973
H27 H 0.2232 -0.1258 0.2388
C15 C 0.21605(11) 0.0546(4) 0.3278(2)
H28 H 0.1993 -0.0119 0.3687
H29 H 0.2481 0.0601 0.3513
C16 C 0.20522(11) 0.2937(4) 0.4041(2)
H30 H 0.1918 0.2354 0.4522
H31 H 0.1916 0.3995 0.3985
H32 H 0.2380 0.3038 0.4180
C17? C 0.0865(5) 0.3291(13) 0.3734(11)
C18? C 0.0821(3) 0.1523(10) 0.3607(6)
C19? C 0.0616(3) 0.0435(9) 0.3122(6)
C20? C 0.0727(3) -0.1298(10) 0.3266(6)
H33? H 0.0692 0.3990 0.3348
H34? H 0.1066 0.3705 0.4200
H35? H 0.1018 0.1019 0.4049
H36? H 0.0392 0.0732 0.2667
H37? H 0.0486 -0.1805 0.3579
H38? H 0.1015 -0.1398 0.3626
H39? H 0.0751 -0.1815 0.2685
loop_
_geom_bond_atom_site_label_1
_geom_bond_atom_site_label_2
_geom_bond_site_symmetry_1
_geom_bond_site_symmetry_2
O1 Ca1 1_555 1_555
O2 Ca1 1_555 1_555
O3 Ca1 1_555 1_555
O4 Ca1 1_555 1_555
Ca1 C1 1_555 1_555
C1 H1 1_555 1_555
H2 C1 1_555 1_555
C2 Ca1 1_555 1_555
H3 C2 1_555 1_555
C3 Ca1 1_555 1_555
H4 C3 1_555 1_555
C4 C3 1_555 1_555
H5 C4 1_555 1_555
H6 C4 1_555 1_555
H7 C4 1_555 1_555
C5 Ca1 1_555 1_555
H8 C5 1_555 1_555
H9 C5 1_555 1_555
C6 Ca1 1_555 1_555
H10 C6 1_555 1_555
C7 Ca1 1_555 1_555
H11 C7 1_555 1_555
C8 C7 1_555 1_555
H12 C8 1_555 1_555
H13 C8 1_555 1_555
H14 C8 1_555 1_555
C9 O1 1_555 1_555
H15 C9 1_555 1_555
H16 C9 1_555 1_555
H17 C9 1_555 1_555
C10 O1 1_555 1_555
H18 C10 1_555 1_555
H19 C10 1_555 1_555
C11 O4 1_555 1_555
H20 C11 1_555 1_555
H21 C11 1_555 1_555
C12 O4 1_555 1_555
H22 C12 1_555 1_555
H23 C12 1_555 1_555
C13 O2 1_555 1_555
H24 C13 1_555 1_555
H25 C13 1_555 1_555
C14 O2 1_555 1_555
H26 C14 1_555 1_555
H27 C14 1_555 1_555
C15 O3 1_555 1_555
H28 C15 1_555 1_555
H29 C15 1_555 1_555
C16 O3 1_555 1_555
H30 C16 1_555 1_555
H31 C16 1_555 1_555
H32 C16 1_555 1_555
C1 C2 1_555 1_555
C2 C3 1_555 1_555
C5 C6 1_555 1_555
C6 C7 1_555 1_555
C10 C11 1_555 1_555
C12 C13 1_555 1_555
C14 C15 1_555 1_555

#END
