
#######################################################################
#
#                 Cambridge Crystallographic Data Centre
#                                CCDC 
#
#######################################################################
#
# If this CIF has been generated from an entry in the Cambridge 
# Structural Database, then it will include bibliographic, chemical, 
# crystal, experimental, refinement or atomic coordinate data resulting 
# from the CCDC's data processing and validation procedures.
#
#######################################################################

data_FEQQIB
_chemical_formula_moiety         'C16 H12 S4'
_chemical_name_systematic        
8,9-bis(Methylsulfanyl)acenaphtho(1,2-b)(1,4)dithiine
_symmetry_cell_setting           monoclinic
_symmetry_space_group_name_H-M   'P 21/n'
_symmetry_Int_Tables_number      14
_space_group_name_Hall           '-P 2yn'
loop_
_symmetry_equiv_pos_site_id
_symmetry_equiv_pos_as_xyz
1 x,y,z
2 1/2+x,1/2-y,1/2+z
3 -x,-y,-z
4 1/2-x,1/2+y,1/2-z
_cell_length_a                   11.928(1)
_cell_length_b                   8.302(1)
_cell_length_c                   15.736(1)
_cell_angle_alpha                90
_cell_angle_beta                 103.34(1)
_cell_angle_gamma                90
_cell_volume                     1516.23
_exptl_crystal_colour            purple
_exptl_crystal_description       plate
_chemical_melting_point          375-377K
_cell_formula_units_Z            4
_exptl_crystal_recrystallization_method methanol
loop_
_atom_site_label
_atom_site_type_symbol
_atom_site_fract_x
_atom_site_fract_y
_atom_site_fract_z
S1 S 0.29073(6) 0.54232(9) 0.21419(4)
S2 S 0.38873(7) 0.87233(9) 0.14030(5)
S3 S 0.48529(8) 0.56965(10) 0.37575(5)
S4 S 0.56838(7) 0.90238(11) 0.30066(5)
C1 C 0.3058(2) 0.4315(3) 0.0430(2)
C2 C 0.2739(3) 0.2721(4) 0.0375(2)
H1 H 0.2543(24) 0.2163(36) 0.0837(19)
C3 C 0.2733(3) 0.1891(4) -0.0418(2)
H2 H 0.2463(29) 0.0805(42) -0.0448(21)
C4 C 0.3028(3) 0.2615(5) -0.1118(2)
H3 H 0.3009(29) 0.2064(42) -0.1633(22)
C5 C 0.3731(3) 0.5221(5) -0.1716(2)
H4 H 0.3723(25) 0.4770(37) -0.2245(20)
C6 C 0.4051(3) 0.6786(5) -0.1551(2)
H5 H 0.4282(25) 0.7408(37) -0.1988(20)
C7 C 0.4048(3) 0.7550(4) -0.0743(2)
H6 H 0.4292(25) 0.8636(37) -0.0637(19)
C8 C 0.3697(2) 0.6678(3) -0.0112(2)
C9 C 0.3377(2) 0.5052(4) -0.0292(2)
C10 C 0.3379(2) 0.4261(4) -0.1075(2)
C11 C 0.3162(2) 0.5594(3) 0.1092(2)
C12 C 0.3546(2) 0.6971(3) 0.0780(2)
C13 C 0.4129(2) 0.6498(3) 0.2738(2)
C14 C 0.4494(2) 0.7878(3) 0.2449(2)
C15 C 0.4538(5) 0.3605(5) 0.3703(3)
H7 H 0.3783(46) 0.3616(63) 0.3756(33)
H8 H 0.4933(34) 0.3230(47) 0.4267(28)
H9 H 0.4735(53) 0.3097(76) 0.3191(42)
C16 C 0.5334(4) 0.9495(5) 0.4036(2)
H10 H 0.5807(30) 1.0400(45) 0.4270(23)
H11 H 0.5535(42) 0.8678(62) 0.4404(32)
H12 H 0.4502(40) 0.9778(52) 0.3914(28)
loop_
_geom_bond_atom_site_label_1
_geom_bond_atom_site_label_2
_geom_bond_site_symmetry_1
_geom_bond_site_symmetry_2
S1 C11 1_555 1_555
S2 C12 1_555 1_555
S3 C13 1_555 1_555
S4 C14 1_555 1_555
C1 C2 1_555 1_555
C2 H1 1_555 1_555
C3 C2 1_555 1_555
H2 C3 1_555 1_555
C4 C3 1_555 1_555
H3 C4 1_555 1_555
C5 H4 1_555 1_555
C6 C5 1_555 1_555
H5 C6 1_555 1_555
C7 C6 1_555 1_555
H6 C7 1_555 1_555
C8 C7 1_555 1_555
C9 C1 1_555 1_555
C10 C4 1_555 1_555
C11 C1 1_555 1_555
C12 C8 1_555 1_555
C13 S1 1_555 1_555
C14 S2 1_555 1_555
C15 S3 1_555 1_555
H7 C15 1_555 1_555
H8 C15 1_555 1_555
H9 C15 1_555 1_555
C16 S4 1_555 1_555
H10 C16 1_555 1_555
H11 C16 1_555 1_555
H12 C16 1_555 1_555
C5 C10 1_555 1_555
C8 C9 1_555 1_555
C9 C10 1_555 1_555
C11 C12 1_555 1_555
C13 C14 1_555 1_555

#END
