
#######################################################################
#
#                 Cambridge Crystallographic Data Centre
#                                CCDC 
#
#######################################################################
#
# If this CIF has been generated from an entry in the Cambridge 
# Structural Database, then it will include bibliographic, chemical, 
# crystal, experimental, refinement or atomic coordinate data resulting 
# from the CCDC's data processing and validation procedures.
#
#######################################################################

data_FEQRAU
_chemical_formula_moiety         'C16 H12 S4 1+,2(I2),I3 1-'
_chemical_name_systematic        
'8,9-bis(Methylsulfanyl)acenaphtho(1,2-b)(1,4)dithiine bis(di-iodine) tri-iodide'
_symmetry_cell_setting           triclinic
_symmetry_space_group_name_H-M   'P -1'
_symmetry_Int_Tables_number      2
_space_group_name_Hall           '-P 1'
loop_
_symmetry_equiv_pos_site_id
_symmetry_equiv_pos_as_xyz
1 x,y,z
2 -x,-y,-z
_cell_length_a                   10.420(1)
_cell_length_b                   11.263(1)
_cell_length_c                   13.087(1)
_cell_angle_alpha                64.76(1)
_cell_angle_beta                 78.80(1)
_cell_angle_gamma                79.74(1)
_cell_volume                     1354.92
_exptl_crystal_colour            black
_exptl_crystal_description       rhombohedron
_cell_formula_units_Z            2
loop_
_atom_site_label
_atom_site_type_symbol
_atom_site_fract_x
_atom_site_fract_y
_atom_site_fract_z
I1 I 0.87969(7) -0.21339(7) 1.04910(5)
I3 I 0.70233(4) 0.00892(4) 1.02836(4)
I4 I 0.50166(4) 0.25991(4) 1.01423(4)
I5 I 0.72318(4) 0.42545(4) 0.91662(3)
I6 I 0.94680(5) 0.57517(4) 0.82475(4)
I7 I 0.95620(4) 0.67266(4) 0.54641(4)
I8 I 0.97273(5) 0.74885(4) 0.31550(4)
S1 S 0.37696(14) 0.14726(14) 0.35169(12)
S2 S 0.34765(14) 0.03930(14) 0.64780(12)
S3 S 0.18735(15) -0.0449(2) 0.40523(13)
S4 S 0.15931(14) -0.13133(15) 0.65355(13)
C1 C 0.5307(5) 0.3128(5) 0.3737(5)
C2 C 0.5788(6) 0.3909(6) 0.2630(6)
H1 H 0.5535(6) 0.3840(6) 0.2001(6)
C3 C 0.6678(6) 0.4821(6) 0.2465(6)
H2 H 0.7027(6) 0.5353(6) 0.1709(6)
C4 C 0.7053(6) 0.4962(6) 0.3364(6)
H3 H 0.7654(6) 0.5577(6) 0.3216(6)
C5 C 0.6792(6) 0.4192(6) 0.5542(6)
H4 H 0.7370(6) 0.4778(6) 0.5504(6)
C6 C 0.6210(6) 0.3359(7) 0.6592(6)
H5 H 0.6402(6) 0.3394(7) 0.7259(6)
C7 C 0.5342(6) 0.2455(6) 0.6717(5)
H6 H 0.4947(6) 0.1899(6) 0.7446(5)
C8 C 0.5096(5) 0.2420(5) 0.5724(5)
C9 C 0.5685(5) 0.3285(6) 0.4655(5)
C10 C 0.6534(6) 0.4180(6) 0.4521(6)
C11 C 0.4431(5) 0.2077(5) 0.4281(5)
C12 C 0.4323(5) 0.1654(5) 0.5454(5)
C13 C 0.2810(5) 0.0284(5) 0.4554(5)
C14 C 0.2692(5) -0.0122(5) 0.5713(5)
C15 C 0.2194(7) 0.0388(7) 0.2524(6)
H7 H 0.1633(36) 0.0096(37) 0.2173(6)
H8 H 0.3120(14) 0.0180(39) 0.2267(7)
H9 H 0.2001(46) 0.1343(8) 0.2299(6)
C16 C 0.1684(7) -0.1574(7) 0.7980(5)
H10 H 0.2589(12) -0.1896(45) 0.8149(14)
H11 H 0.1094(36) -0.2229(36) 0.8507(6)
H12 H 0.1419(46) -0.0740(12) 0.8068(12)
I2? I 0.9159(6) -0.1832(7) 1.0414(6)
loop_
_geom_bond_atom_site_label_1
_geom_bond_atom_site_label_2
_geom_bond_site_symmetry_1
_geom_bond_site_symmetry_2
I1 I3 1_555 1_555
I4 I5 1_555 1_555
I5 I6 1_555 1_555
I7 I8 1_555 1_555
S1 C11 1_555 1_555
S2 C12 1_555 1_555
S3 C13 1_555 1_555
S4 C14 1_555 1_555
C1 C2 1_555 1_555
C2 H1 1_555 1_555
C3 C2 1_555 1_555
H2 C3 1_555 1_555
C4 C3 1_555 1_555
H3 C4 1_555 1_555
C5 H4 1_555 1_555
C6 C5 1_555 1_555
H5 C6 1_555 1_555
C7 C6 1_555 1_555
H6 C7 1_555 1_555
C8 C7 1_555 1_555
C9 C1 1_555 1_555
C10 C4 1_555 1_555
C11 C1 1_555 1_555
C12 C8 1_555 1_555
C13 S1 1_555 1_555
C14 S2 1_555 1_555
C15 S3 1_555 1_555
H7 C15 1_555 1_555
H8 C15 1_555 1_555
H9 C15 1_555 1_555
C16 S4 1_555 1_555
H10 C16 1_555 1_555
H11 C16 1_555 1_555
H12 C16 1_555 1_555
C5 C10 1_555 1_555
C8 C9 1_555 1_555
C9 C10 1_555 1_555
C11 C12 1_555 1_555
C13 C14 1_555 1_555

#END
