
#######################################################################
#
#                 Cambridge Crystallographic Data Centre
#                                CCDC 
#
#######################################################################
#
# If this CIF has been generated from an entry in the Cambridge 
# Structural Database, then it will include bibliographic, chemical, 
# crystal, experimental, refinement or atomic coordinate data resulting 
# from the CCDC's data processing and validation procedures.
#
#######################################################################

data_FEQVAB01
_chemical_compound_source        
'Isolated from the endophytic fungus Xylaria sp. GDG-102 cultured from the Chinese medicinal plant Sophora tonkinensis.'
_chemical_name_common            'xylarphthalide A'
_chemical_formula_moiety         'C11 H10 O6'
_chemical_name_systematic        
'7-hydroxy-3-(1-hydroxyethyl)-1-oxo-1,3-dihydro-2-benzofuran-4-carboxylic acid'
_chemical_properties_biological  
'Broad inhibition against bacterial strains Bacillus anthracis, B. megaterium, Bacillus subtilis, S. aureus, E. coli, S. dysenteriae and Salmonella paratyphi B.'
_symmetry_cell_setting           monoclinic
_symmetry_space_group_name_H-M   'P 21'
_symmetry_Int_Tables_number      4
_space_group_name_Hall           'P 2yb'
loop_
_symmetry_equiv_pos_site_id
_symmetry_equiv_pos_as_xyz
1 x,y,z
2 -x,1/2+y,-z
_cell_length_a                   10.32230(10)
_cell_length_b                   8.111(10)
_cell_length_c                   12.38590(10)
_cell_angle_alpha                90
_cell_angle_beta                 98.8510(10)
_cell_angle_gamma                90
_cell_volume                     1024.65
_exptl_crystal_colour            colorless
_exptl_crystal_description       block
_cell_formula_units_Z            4
loop_
_atom_site_label
_atom_site_type_symbol
_atom_site_fract_x
_atom_site_fract_y
_atom_site_fract_z
O1 O -0.86712(12) -0.17427(15) -0.28289(10)
O2 O -0.85824(14) -0.82455(18) -0.47135(11)
H1 H -0.8357 -0.8392 -0.5313
O3 O -0.83577(15) -0.55998(18) -0.51522(10)
O4 O -0.93634(13) -0.14796(18) -0.12220(11)
O5 O -0.61372(12) -0.34217(17) -0.26175(9)
H2 H -0.6276 -0.2771 -0.2142
O6 O -0.98155(14) -0.4850(2) -0.03748(11)
H3 H -1.0019 -0.5643 -0.0026
C1 C -0.88621(16) -0.6228(2) -0.33969(14)
C2 C -0.95227(16) -0.5369(2) -0.13358(14)
C3 C -0.90920(16) -0.2381(2) -0.19277(14)
C4 C -0.88103(16) -0.4594(2) -0.30499(13)
C5 C -0.92340(18) -0.7427(2) -0.26866(16)
H4 H -0.9267 -0.8527 -0.2901
C6 C -0.91552(16) -0.4174(2) -0.20456(14)
C7 C -0.83762(16) -0.3055(2) -0.35616(12)
H5 H -0.8889 -0.2898 -0.4289
C8 C -0.69062(16) -0.2974(2) -0.36306(12)
H6 H -0.6732 -0.3788 -0.4175
C9 C -0.6505(2) -0.1302(2) -0.40159(16)
H7 H -0.6642 -0.0477 -0.3489
H8 H -0.7024 -0.1044 -0.4706
H9 H -0.5595 -0.1326 -0.4096
C10 C -0.85706(16) -0.6664(2) -0.44960(14)
C11 C -0.95532(18) -0.7014(3) -0.16714(15)
H10 H -0.9788 -0.7835 -0.1214
O7 O -0.78270(16) -0.61729(18) -0.71167(11)
H11 H -0.8038 -0.6044 -0.6511
O8 O -0.64843(13) -1.27450(16) -1.05473(10)
O9 O -0.77393(14) -0.88108(17) -0.65869(11)
O10 O -0.68858(12) -1.25720(15) -0.88342(10)
C12 C -0.69974(17) -0.6855(2) -0.90634(14)
H12 H -0.7123 -0.5764 -0.8873
C13 C -0.66422(16) -1.1883(2) -0.97887(13)
O11 O -0.61804(14) -0.92271(17) -1.13854(10)
H13 H -0.5983 -0.8391 -1.1695
C14 C -0.71594(16) -0.8110(2) -0.83160(13)
O12 O -0.45857(12) -1.15464(17) -0.75711(10)
H14 H -0.4302 -1.0604 -0.7587
C15 C -0.69548(16) -0.9728(2) -0.86320(13)
C16 C -0.66684(16) -1.0083(2) -0.96643(13)
C17 C -0.64928(16) -0.8825(2) -1.04082(13)
C18 C -0.57692(16) -1.1533(2) -0.71089(12)
H15 H -0.5741 -1.0613 -0.6593
C19 C -0.66550(17) -0.7199(2) -1.00781(14)
H16 H -0.6531 -0.6336 -1.0546
C20 C -0.69625(16) -1.1313(2) -0.80142(13)
H17 H -0.7780 -1.1424 -0.7710
C21 C -0.75885(17) -0.7739(2) -0.72643(14)
C22 C -0.5848(2) -1.3131(3) -0.64976(14)
H18 H -0.5823 -1.4041 -0.6989
H19 H -0.6653 -1.3162 -0.6199
H20 H -0.5119 -1.3205 -0.5916
loop_
_geom_bond_atom_site_label_1
_geom_bond_atom_site_label_2
_geom_bond_site_symmetry_1
_geom_bond_site_symmetry_2
O1 C3 1_555 1_555
O2 H1 1_555 1_555
O3 C10 1_555 1_555
O4 C3 1_555 1_555
O5 H2 1_555 1_555
O6 H3 1_555 1_555
C1 C4 1_555 1_555
C2 O6 1_555 1_555
C3 C6 1_555 1_555
C4 C6 1_555 1_555
C5 C1 1_555 1_555
H4 C5 1_555 1_555
C6 C2 1_555 1_555
C7 O1 1_555 1_555
H5 C7 1_555 1_555
C8 O5 1_555 1_555
H6 C8 1_555 1_555
C9 C8 1_555 1_555
H7 C9 1_555 1_555
H8 C9 1_555 1_555
H9 C9 1_555 1_555
C10 O2 1_555 1_555
C11 C2 1_555 1_555
H10 C11 1_555 1_555
O7 H11 1_555 1_555
O8 C13 1_555 1_555
O9 C21 1_555 1_555
O10 C13 1_555 1_555
C12 H12 1_555 1_555
C13 C16 1_555 1_555
O11 H13 1_555 1_555
C14 C12 1_555 1_555
O12 H14 1_555 1_555
C15 C14 1_555 1_555
C16 C15 1_555 1_555
C17 O11 1_555 1_555
C18 O12 1_555 1_555
H15 C18 1_555 1_555
C19 C12 1_555 1_555
H16 C19 1_555 1_555
C20 O10 1_555 1_555
H17 C20 1_555 1_555
C21 O7 1_555 1_555
C22 C18 1_555 1_555
H18 C22 1_555 1_555
H19 C22 1_555 1_555
H20 C22 1_555 1_555
C1 C10 1_555 1_555
C4 C7 1_555 1_555
C5 C11 1_555 1_555
C7 C8 1_555 1_555
C14 C21 1_555 1_555
C15 C20 1_555 1_555
C16 C17 1_555 1_555
C17 C19 1_555 1_555
C18 C20 1_555 1_555

#END
