
#######################################################################
#
#                 Cambridge Crystallographic Data Centre
#                                CCDC 
#
#######################################################################
#
# If this CIF has been generated from an entry in the Cambridge 
# Structural Database, then it will include bibliographic, chemical, 
# crystal, experimental, refinement or atomic coordinate data resulting 
# from the CCDC's data processing and validation procedures.
#
#######################################################################

data_FERHAM
_chemical_formula_moiety         'C17 H15 Br1 F1 N1 O3'
_chemical_name_systematic        
'(-)-(4S)-(3-Bromo-4-fluorophenyl)-2-methyl-5-oxo-4,5,6,7-tetrahydro-1H-cyclopenta(b)pyridine-3-carboxylic acid methyl ester'
_symmetry_cell_setting           orthorhombic
_symmetry_space_group_name_H-M   'P 21 21 21'
_symmetry_Int_Tables_number      19
_space_group_name_Hall           'P 2ac 2ab'
loop_
_symmetry_equiv_pos_site_id
_symmetry_equiv_pos_as_xyz
1 x,y,z
2 1/2-x,-y,1/2+z
3 1/2+x,1/2-y,-z
4 -x,1/2+y,1/2-z
_cell_length_a                   7.5361(2)
_cell_length_b                   13.9928(2)
_cell_length_c                   15.4460(4)
_cell_angle_alpha                90
_cell_angle_beta                 90
_cell_angle_gamma                90
_cell_volume                     1628.8
_exptl_crystal_description       rod
_cell_formula_units_Z            4
loop_
_atom_site_label
_atom_site_type_symbol
_atom_site_fract_x
_atom_site_fract_y
_atom_site_fract_z
Br1 Br -0.01874(6) 0.21255(3) 0.58019(3)
F1 F 0.2640(3) 0.3590(2) 0.6101(2)
O1 O -0.5064(6) 0.4129(2) 0.7729(2)
O2 O -0.4401(6) 0.6665(2) 0.4069(2)
O3 O -0.4436(7) 0.5134(2) 0.4366(2)
N1 N -0.4287(5) 0.7260(2) 0.6738(2)
C1 C -0.0760(6) 0.5367(2) 0.6243(3)
C2 C -0.2246(5) 0.4861(2) 0.6094(2)
C3 C 0.0902(6) 0.4974(3) 0.6243(3)
C4 C -0.2084(5) 0.3887(2) 0.5942(2)
C5 C 0.1035(5) 0.4010(3) 0.6089(3)
C6 C -0.0450(5) 0.3460(2) 0.5951(2)
C7 C -0.4222(7) 0.8000(3) 0.5335(3)
C8 C -0.4232(5) 0.7092(2) 0.5849(2)
C9 C -0.4232(5) 0.6184(2) 0.5539(2)
C10 C -0.4103(5) 0.5319(2) 0.6122(2)
C11 C -0.4531(5) 0.5620(2) 0.7032(2)
C12 C -0.4574(5) 0.6520(2) 0.7294(2)
C13 C -0.4927(7) 0.6642(3) 0.8238(3)
C14 C -0.5213(8) 0.5626(3) 0.8546(3)
C15 C -0.4952(6) 0.5004(3) 0.7751(3)
C16 C -0.4351(7) 0.5942(3) 0.4622(3)
C17 C -0.458(1) 0.6449(4) 0.3171(3)
H1 H -0.4129 0.7906 0.6977
H2 H -0.0890 0.6057 0.6339
H3 H 0.1944 0.5343 0.6345
H4 H -0.3160 0.3508 0.5808
H5 H -0.3202 0.8387 0.5505
H6 H -0.4207 0.7911 0.4741
H7 H -0.5260 0.8386 0.5489
H8 H -0.4944 0.4862 0.5924
H9 H -0.3994 0.6953 0.8554
H10 H -0.5992 0.7034 0.8323
H11 H -0.4395 0.5494 0.8995
H12 H -0.6403 0.5584 0.8788
H13 H -0.5545 0.6063 0.2996
H14 H -0.4553 0.7006 0.2782
H15 H -0.3489 0.6074 0.2945
loop_
_geom_bond_atom_site_label_1
_geom_bond_atom_site_label_2
_geom_bond_site_symmetry_1
_geom_bond_site_symmetry_2
Br1 C6 1_555 1_555
F1 C5 1_555 1_555
O1 C15 1_555 1_555
O2 C16 1_555 1_555
O3 C16 1_555 1_555
N1 C8 1_555 1_555
C1 C2 1_555 1_555
C2 C4 1_555 1_555
C3 C1 1_555 1_555
C4 C6 1_555 1_555
C5 C3 1_555 1_555
C6 C5 1_555 1_555
C7 C8 1_555 1_555
C8 C9 1_555 1_555
C9 C10 1_555 1_555
C10 C2 1_555 1_555
C11 C10 1_555 1_555
C12 N1 1_555 1_555
C13 C12 1_555 1_555
C14 C13 1_555 1_555
C15 C11 1_555 1_555
C16 C9 1_555 1_555
C17 O2 1_555 1_555
H1 N1 1_555 1_555
H2 C1 1_555 1_555
H3 C3 1_555 1_555
H4 C4 1_555 1_555
H5 C7 1_555 1_555
H6 C7 1_555 1_555
H7 C7 1_555 1_555
H8 C10 1_555 1_555
H9 C13 1_555 1_555
H10 C13 1_555 1_555
H11 C14 1_555 1_555
H12 C14 1_555 1_555
H13 C17 1_555 1_555
H14 C17 1_555 1_555
H15 C17 1_555 1_555
C11 C12 1_555 1_555
C14 C15 1_555 1_555

#END
