
#######################################################################
#
#                 Cambridge Crystallographic Data Centre
#                                CCDC 
#
#######################################################################
#
# If this CIF has been generated from an entry in the Cambridge 
# Structural Database, then it will include bibliographic, chemical, 
# crystal, experimental, refinement or atomic coordinate data resulting 
# from the CCDC's data processing and validation procedures.
#
#######################################################################

data_FERSEB
_chemical_formula_moiety         'C16 H20 O2,0.5(C4 H10 O1)'
_chemical_name_systematic        
"(E)-(3S,3'S,4S,4'S,5R,5'R)-1,1'-bi(dispiro(2.0.2.1)heptan)-1(1')-ene-5,5'-diyldimethanol diethyl ether solvate"
_symmetry_cell_setting           monoclinic
_symmetry_space_group_name_H-M   'P 21'
_symmetry_Int_Tables_number      4
_space_group_name_Hall           'P 2yb'
loop_
_symmetry_equiv_pos_site_id
_symmetry_equiv_pos_as_xyz
1 x,y,z
2 -x,1/2+y,-z
_cell_length_a                   11.498(2)
_cell_length_b                   5.0671(11)
_cell_length_c                   13.351(3)
_cell_angle_alpha                90
_cell_angle_beta                 110.989(6)
_cell_angle_gamma                90
_cell_volume                     726.239
_exptl_crystal_colour            colorless
_exptl_crystal_description       needle
_chemical_melting_point          142-143deg.C
_cell_formula_units_Z            2
loop_
_atom_site_label
_atom_site_type_symbol
_atom_site_fract_x
_atom_site_fract_y
_atom_site_fract_z
O3 O 0.0153(11) 0.032(2) 0.4893(8)
C18 C -0.0304(13) -0.129(3) 0.4727(10)
O1 O 0.3433(3) 0.1164(7) 0.9720(2)
O2 O -0.2451(3) 0.1097(7) 0.0084(2)
C1 C 0.4091(4) 0.1197(11) 0.8978(3)
C2 C 0.3229(4) 0.1060(9) 0.7828(3)
C3 C 0.2918(5) -0.1639(9) 0.7272(4)
C4 C 0.3771(4) 0.0218(8) 0.7016(3)
C5 C 0.5022(4) 0.0073(10) 0.6939(3)
C6 C 0.3955(4) 0.1352(9) 0.6070(3)
C7 C 0.3718(5) 0.3975(8) 0.5486(3)
C8 C 0.3331(4) 0.1421(9) 0.4918(3)
C9 C 0.2700(4) 0.0196(8) 0.4031(3)
C10 C 0.2205(5) -0.2374(9) 0.3512(3)
C11 C 0.1935(4) 0.0185(8) 0.2896(3)
C12 C 0.1956(4) 0.1095(10) 0.1827(3)
C13 C 0.0818(4) 0.1406(9) 0.2114(3)
C14 C -0.0090(5) 0.3514(9) 0.2091(4)
C15 C -0.0518(4) 0.0782(8) 0.1651(3)
C16 C -0.1148(4) 0.0469(9) 0.0454(3)
H1 H 0.306(6) -0.056(13) 0.971(4)
H2 H -0.281(5) -0.049(12) 0.007(4)
H3 H 0.454(4) 0.289(9) 0.910(3)
H4 H 0.473(5) -0.032(11) 0.913(4)
H5 H 0.262(4) 0.242(9) 0.766(3)
H6 H 0.338(5) -0.317(10) 0.780(4)
H7 H 0.207(5) -0.184(10) 0.676(4)
H8 H 0.532(4) -0.143(9) 0.678(3)
H9 H 0.569(4) 0.140(10) 0.742(3)
H10 H 0.313(4) 0.532(9) 0.557(3)
H11 H 0.449(5) 0.483(10) 0.543(4)
H12 H 0.287(5) -0.361(11) 0.345(4)
H13 H 0.151(4) -0.318(9) 0.369(3)
H14 H 0.201(5) -0.026(10) 0.128(4)
H15 H 0.241(4) 0.278(8) 0.180(3)
H16 H -0.026(5) 0.487(11) 0.153(4)
H17 H -0.008(5) 0.394(12) 0.282(4)
H18 H -0.085(4) -0.043(9) 0.203(3)
H19 H -0.107(4) -0.128(9) 0.024(3)
H20 H -0.087(5) 0.173(11) 0.003(4)
C17? C 0.0564(14) 0.254(3) 0.5103(11)
loop_
_geom_bond_atom_site_label_1
_geom_bond_atom_site_label_2
_geom_bond_site_symmetry_1
_geom_bond_site_symmetry_2
O1 C1 1_555 1_555
O2 C16 1_555 1_555
C1 C2 1_555 1_555
C2 C3 1_555 1_555
C3 C4 1_555 1_555
C4 C2 1_555 1_555
C5 C4 1_555 1_555
C6 C4 1_555 1_555
C7 C6 1_555 1_555
C8 C6 1_555 1_555
C9 C8 1_555 1_555
C10 C9 1_555 1_555
C11 C9 1_555 1_555
C12 C11 1_555 1_555
C13 C11 1_555 1_555
C14 C13 1_555 1_555
C15 C13 1_555 1_555
C16 C15 1_555 1_555
O3 C18 1_555 1_555
H1 O1 1_555 1_555
H2 O2 1_555 1_555
H3 C1 1_555 1_555
H4 C1 1_555 1_555
H5 C2 1_555 1_555
H6 C3 1_555 1_555
H7 C3 1_555 1_555
H8 C5 1_555 1_555
H9 C5 1_555 1_555
H10 C7 1_555 1_555
H11 C7 1_555 1_555
H12 C10 1_555 1_555
H13 C10 1_555 1_555
H14 C12 1_555 1_555
H15 C12 1_555 1_555
H16 C14 1_555 1_555
H17 C14 1_555 1_555
H18 C15 1_555 1_555
H19 C16 1_555 1_555
H20 C16 1_555 1_555
C5 C6 1_555 1_555
C7 C8 1_555 1_555
C10 C11 1_555 1_555
C12 C13 1_555 1_555
C14 C15 1_555 1_555

#END
