
#######################################################################
#
#                 Cambridge Crystallographic Data Centre
#                                CCDC 
#
#######################################################################
#
# If this CIF has been generated from an entry in the Cambridge 
# Structural Database, then it will include bibliographic, chemical, 
# crystal, experimental, refinement or atomic coordinate data resulting 
# from the CCDC's data processing and validation procedures.
#
#######################################################################

data_FESGAN
_chemical_formula_moiety         'C17 H14 F3 N1 O2 S1'
_chemical_name_systematic        
1a-Phenyl-3-((trifluoromethyl)sulfonyl)-1a,2,3,7b-tetrahydro-1H-cyclopropa[c]quinoline
_symmetry_cell_setting           orthorhombic
_symmetry_space_group_name_H-M   'P 21 21 21'
_symmetry_Int_Tables_number      19
_space_group_name_Hall           'P 2ac 2ab'
loop_
_symmetry_equiv_pos_site_id
_symmetry_equiv_pos_as_xyz
1 x,y,z
2 1/2-x,-y,1/2+z
3 -x,1/2+y,1/2-z
4 1/2+x,1/2-y,-z
_cell_length_a                   6.5757(12)
_cell_length_b                   12.517(2)
_cell_length_c                   18.7675(10)
_cell_angle_alpha                90
_cell_angle_beta                 90
_cell_angle_gamma                90
_cell_volume                     1544.72
_exptl_crystal_colour            colorless
_exptl_crystal_description       prismatic
_cell_formula_units_Z            4
loop_
_atom_site_label
_atom_site_type_symbol
_atom_site_fract_x
_atom_site_fract_y
_atom_site_fract_z
S1 S 0.22405(3) 0.387926(17) 0.470876(12)
F1 F 0.38777(12) 0.56424(5) 0.41988(4)
F2 F 0.43638(12) 0.42416(6) 0.35528(4)
F3 F 0.60454(11) 0.44461(7) 0.45346(4)
N1 N 0.22450(13) 0.44721(6) 0.54731(4)
O1 O 0.04056(11) 0.41106(6) 0.43312(4)
O2 O 0.30032(12) 0.28146(5) 0.47749(4)
C1 C 0.37939(14) 0.41706(8) 0.60143(5)
H1 H 0.467(2) 0.4830(12) 0.6120(8)
H2 H 0.463(2) 0.3635(11) 0.5811(7)
C2 C 0.27944(14) 0.37662(7) 0.66950(5)
C3 C 0.07893(14) 0.43006(7) 0.68851(5)
H3 H 0.052(2) 0.4445(11) 0.7384(8)
C4 C -0.00002(14) 0.51425(7) 0.63968(5)
C5 C 0.07046(14) 0.52271(7) 0.56909(5)
C6 C 0.08506(15) 0.31403(8) 0.66323(6)
H4 H 0.055(3) 0.2601(12) 0.6978(8)
H5 H 0.034(2) 0.2977(11) 0.6165(8)
C7 C 0.43091(14) 0.34745(7) 0.72612(5)
C8 C 0.52685(15) 0.24745(8) 0.72326(5)
H6 H 0.487(3) 0.1940(13) 0.6867(8)
C9 C 0.67396(16) 0.21979(8) 0.77370(6)
H7 H 0.739(3) 0.1538(14) 0.7736(9)
C10 C 0.72710(16) 0.29144(8) 0.82769(5)
H8 H 0.827(3) 0.2733(13) 0.8619(9)
C11 C 0.63266(14) 0.39084(9) 0.83090(5)
H9 H 0.658(3) 0.4416(13) 0.8700(9)
C12 C 0.48523(15) 0.41900(8) 0.78034(5)
H10 H 0.419(2) 0.4907(12) 0.7836(8)
C13 C -0.14574(15) 0.58861(8) 0.66293(6)
H11 H -0.192(3) 0.5865(13) 0.7117(9)
C14 C -0.22131(16) 0.66714(8) 0.61755(6)
H12 H -0.329(3) 0.7160(15) 0.6329(10)
C15 C -0.15035(16) 0.67353(8) 0.54753(6)
H13 H -0.200(3) 0.7285(14) 0.5156(9)
C16 C -0.00169(14) 0.60252(7) 0.52352(5)
H14 H 0.058(3) 0.6068(13) 0.4766(9)
C17 C 0.42633(15) 0.45964(8) 0.42222(5)
loop_
_geom_bond_atom_site_label_1
_geom_bond_atom_site_label_2
_geom_bond_site_symmetry_1
_geom_bond_site_symmetry_2
S1 N1 1_555 1_555
F1 C17 1_555 1_555
F2 C17 1_555 1_555
F3 C17 1_555 1_555
N1 C1 1_555 1_555
O1 S1 1_555 1_555
O2 S1 1_555 1_555
C1 H1 1_555 1_555
H2 C1 1_555 1_555
C2 C1 1_555 1_555
C3 C2 1_555 1_555
H3 C3 1_555 1_555
C4 C3 1_555 1_555
C5 N1 1_555 1_555
C6 C2 1_555 1_555
H4 C6 1_555 1_555
H5 C6 1_555 1_555
C7 C2 1_555 1_555
C8 C7 1_555 1_555
H6 C8 1_555 1_555
C9 C8 1_555 1_555
H7 C9 1_555 1_555
C10 C9 1_555 1_555
H8 C10 1_555 1_555
C11 C10 1_555 1_555
H9 C11 1_555 1_555
C12 C7 1_555 1_555
H10 C12 1_555 1_555
C13 C4 1_555 1_555
H11 C13 1_555 1_555
C14 C13 1_555 1_555
H12 C14 1_555 1_555
C15 C14 1_555 1_555
H13 C15 1_555 1_555
C16 C5 1_555 1_555
H14 C16 1_555 1_555
C17 S1 1_555 1_555
C3 C6 1_555 1_555
C4 C5 1_555 1_555
C11 C12 1_555 1_555
C15 C16 1_555 1_555

#END
