
#######################################################################
#
#                 Cambridge Crystallographic Data Centre
#                                CCDC 
#
#######################################################################
#
# If this CIF has been generated from an entry in the Cambridge 
# Structural Database, then it will include bibliographic, chemical, 
# crystal, experimental, refinement or atomic coordinate data resulting 
# from the CCDC's data processing and validation procedures.
#
#######################################################################

data_FESJEV
_chemical_formula_moiety         'C29 H28 O4 S1,C2 H6 O1 S1'
_chemical_name_systematic        
'5-methoxy-1-methyl-3-[(4-methylphenyl)sulfonyl]-4-phenyl-1,2,3,4-tetrahydrophenanthren-9-ol dimethyl sulfoxide solvate'
_symmetry_cell_setting           triclinic
_symmetry_space_group_name_H-M   'P -1'
_symmetry_Int_Tables_number      2
_space_group_name_Hall           '-P 1'
loop_
_symmetry_equiv_pos_site_id
_symmetry_equiv_pos_as_xyz
1 x,y,z
2 -x,-y,-z
_cell_length_a                   8.1394(6)
_cell_length_b                   9.4166(7)
_cell_length_c                   19.4343(15)
_cell_angle_alpha                95.957(2)
_cell_angle_beta                 97.141(2)
_cell_angle_gamma                109.052(2)
_cell_volume                     1380.39
_exptl_crystal_colour            colorless
_cell_formula_units_Z            2
loop_
_atom_site_label
_atom_site_type_symbol
_atom_site_fract_x
_atom_site_fract_y
_atom_site_fract_z
S1 S 0.11101(5) -0.13692(4) 0.41026(2)
O1 O 0.31512(14) 0.08635(11) 0.22933(6)
O2 O -0.18003(16) -0.51172(12) 0.06961(5)
H1 H -0.291(3) -0.571(2) 0.0696(10)
O3 O 0.14562(15) -0.25500(11) 0.36770(6)
O4 O 0.04429(14) -0.16968(12) 0.47453(5)
C1 C 0.7730(2) 0.41969(19) 0.46979(10)
H2 H 0.7592 0.4968 0.5043
H3 H 0.7903 0.4600 0.4257
H4 H 0.8756 0.3935 0.4877
C2 C 0.6103(2) 0.27990(17) 0.45694(8)
C3 C 0.5996(2) 0.15295(18) 0.41041(8)
H5 H 0.6972 0.1545 0.3879
C4 C 0.4488(2) 0.02444(17) 0.39649(8)
H6 H 0.4423 -0.0612 0.3643
C5 C 0.30782(19) 0.02257(16) 0.43011(7)
C6 C -0.04437(19) -0.07534(15) 0.35806(7)
H7 H -0.0604 0.0114 0.3874
C7 C 0.03292(19) -0.01523(15) 0.29320(7)
H8 H 0.1636 0.0125 0.3059
C8 C -0.02341(19) -0.13768(15) 0.22889(7)
C9 C 0.0948(2) -0.15236(15) 0.18166(7)
C10 C 0.0376(2) -0.28238(16) 0.12764(7)
C11 C 0.1495(2) -0.30394(18) 0.08038(8)
H9 H 0.1105 -0.3922 0.0458
C12 C 0.3126(2) -0.19860(19) 0.08444(9)
H10 H 0.3870 -0.2141 0.0526
C13 C 0.4681(2) 0.27370(17) 0.49062(8)
H11 H 0.4751 0.3586 0.5233
C14 C 0.3159(2) 0.14640(17) 0.47773(7)
H12 H 0.2192 0.1440 0.5010
C15 C 0.3724(2) -0.06697(18) 0.13526(9)
H13 H 0.4862 0.0061 0.1372
C16 C 0.2670(2) -0.04381(16) 0.18196(8)
C17 C 0.4887(2) 0.19489(17) 0.23503(8)
H14 H 0.5761 0.1461 0.2463
H15 H 0.5064 0.2796 0.2723
H16 H 0.5026 0.2333 0.1904
C18 C -0.1361(2) -0.38864(16) 0.12067(7)
C19 C -0.2510(2) -0.36449(16) 0.16236(7)
H17 H -0.3694 -0.4324 0.1545
C20 C -0.1949(2) -0.23937(15) 0.21701(7)
C21 C -0.31662(19) -0.21617(16) 0.26683(7)
H18 H -0.3305 -0.1156 0.2625
C22 C -0.2229(2) -0.20657(16) 0.34174(7)
H19 H -0.2037 -0.3037 0.3469
H20 H -0.2986 -0.1905 0.3757
C23 C -0.5008(2) -0.33650(17) 0.25391(8)
H21 H -0.5600 -0.3397 0.2064
H22 H -0.5694 -0.3109 0.2882
H23 H -0.4912 -0.4361 0.2589
C24 C 0.0018(2) 0.13199(15) 0.27994(7)
C25 C -0.0796(2) 0.14956(17) 0.21601(8)
H24 H -0.1283 0.0648 0.1796
C26 C -0.0912(2) 0.29002(18) 0.20435(8)
H25 H -0.1476 0.3000 0.1602
C27 C -0.0212(2) 0.41452(18) 0.25665(9)
H26 H -0.0282 0.5103 0.2486
C28 C 0.0592(3) 0.39820(18) 0.32072(9)
H27 H 0.1076 0.4832 0.3571
C29 C 0.0696(3) 0.25818(18) 0.33225(8)
H28 H 0.1242 0.2484 0.3768
S2 S 0.34197(6) 0.29651(5) 0.02378(2)
O5 O 0.50315(15) 0.28744(12) 0.06811(6)
C30 C 0.1912(3) 0.2999(2) 0.08243(11)
H29 H 0.1753 0.2142 0.1086
H30 H 0.0774 0.2918 0.0556
H31 H 0.2379 0.3955 0.1153
C31 C 0.2271(3) 0.1083(2) -0.02212(10)
H32 H 0.2961 0.0829 -0.0563
H33 H 0.1120 0.1028 -0.0467
H34 H 0.2103 0.0360 0.0114
loop_
_geom_bond_atom_site_label_1
_geom_bond_atom_site_label_2
_geom_bond_site_symmetry_1
_geom_bond_site_symmetry_2
S1 O3 1_555 1_555
O1 C16 1_555 1_555
O2 H1 1_555 1_555
O4 S1 1_555 1_555
C1 H2 1_555 1_555
H3 C1 1_555 1_555
H4 C1 1_555 1_555
C2 C1 1_555 1_555
C3 C2 1_555 1_555
H5 C3 1_555 1_555
C4 C3 1_555 1_555
H6 C4 1_555 1_555
C5 S1 1_555 1_555
C6 S1 1_555 1_555
H7 C6 1_555 1_555
C7 C6 1_555 1_555
H8 C7 1_555 1_555
C8 C7 1_555 1_555
C9 C8 1_555 1_555
C10 C9 1_555 1_555
C11 C10 1_555 1_555
H9 C11 1_555 1_555
C12 C11 1_555 1_555
H10 C12 1_555 1_555
C13 C2 1_555 1_555
H11 C13 1_555 1_555
C14 C5 1_555 1_555
H12 C14 1_555 1_555
C15 C12 1_555 1_555
H13 C15 1_555 1_555
C16 C9 1_555 1_555
C17 O1 1_555 1_555
H14 C17 1_555 1_555
H15 C17 1_555 1_555
H16 C17 1_555 1_555
C18 O2 1_555 1_555
C19 C18 1_555 1_555
H17 C19 1_555 1_555
C20 C8 1_555 1_555
C21 C20 1_555 1_555
H18 C21 1_555 1_555
C22 C6 1_555 1_555
H19 C22 1_555 1_555
H20 C22 1_555 1_555
C23 C21 1_555 1_555
H21 C23 1_555 1_555
H22 C23 1_555 1_555
H23 C23 1_555 1_555
C24 C7 1_555 1_555
C25 C24 1_555 1_555
H24 C25 1_555 1_555
C26 C25 1_555 1_555
H25 C26 1_555 1_555
C27 C26 1_555 1_555
H26 C27 1_555 1_555
C28 C27 1_555 1_555
H27 C28 1_555 1_555
C29 C24 1_555 1_555
H28 C29 1_555 1_555
S2 O5 1_555 1_555
C30 S2 1_555 1_555
H29 C30 1_555 1_555
H30 C30 1_555 1_555
H31 C30 1_555 1_555
C31 S2 1_555 1_555
H32 C31 1_555 1_555
H33 C31 1_555 1_555
H34 C31 1_555 1_555
C4 C5 1_555 1_555
C10 C18 1_555 1_555
C13 C14 1_555 1_555
C15 C16 1_555 1_555
C19 C20 1_555 1_555
C21 C22 1_555 1_555
C28 C29 1_555 1_555

#END
