
#######################################################################
#
#                 Cambridge Crystallographic Data Centre
#                                CCDC 
#
#######################################################################
#
# If this CIF has been generated from an entry in the Cambridge 
# Structural Database, then it will include bibliographic, chemical, 
# crystal, experimental, refinement or atomic coordinate data resulting 
# from the CCDC's data processing and validation procedures.
#
#######################################################################

data_FESXOT
_chemical_formula_moiety         'C22 H28 O6'
_chemical_name_systematic        
4-methoxy-3-(1-(4-methoxy-2-oxo-1-oxaspiro[4.5]dec-3-en-3-yl)vinyl)-1-oxaspiro[4.5]dec-3-en-2-one
_symmetry_cell_setting           orthorhombic
_symmetry_space_group_name_H-M   'A b a 2'
_symmetry_Int_Tables_number      41
_space_group_name_Hall           'A 2 -2ac'
loop_
_symmetry_equiv_pos_site_id
_symmetry_equiv_pos_as_xyz
1 x,y,z
2 -x,-y,z
3 1/2-x,y,1/2+z
4 1/2+x,-y,1/2+z
5 x,1/2+y,1/2+z
6 -x,1/2-y,1/2+z
7 1/2-x,1/2+y,z
8 1/2+x,1/2-y,z
_cell_length_a                   17.4406(9)
_cell_length_b                   17.7952(8)
_cell_length_c                   6.4663(3)
_cell_angle_alpha                90
_cell_angle_beta                 90
_cell_angle_gamma                90
_cell_volume                     2006.87
_cell_formula_units_Z            4
loop_
_atom_site_label
_atom_site_type_symbol
_atom_site_fract_x
_atom_site_fract_y
_atom_site_fract_z
O1 O -0.08331(9) -0.08639(7) -0.1287(2)
O2 O 0.16616(8) -0.08674(7) 0.1658(2)
O3 O 0.01954(8) -0.16177(6) -0.1554(2)
C1 C 0.09828(13) -0.09911(10) 0.0761(3)
C2 C 0.09745(12) -0.16469(10) -0.0729(3)
C3 C 0.0000 0.0000 0.2031(5)
C4 C 0.15317(13) -0.15307(10) -0.2517(3)
H1 H 0.2057 -0.1467 -0.1962
H2 H 0.1393 -0.1065 -0.3268
C5 C 0.10997(13) -0.30591(10) -0.1178(3)
H3 H 0.1225 -0.3530 -0.0435
H4 H 0.0583 -0.3116 -0.1791
C6 C 0.10938(13) -0.24030(9) 0.0358(3)
H5 H 0.0678 -0.2481 0.1378
H6 H 0.1587 -0.2393 0.1117
C7 C -0.01886(13) -0.10173(11) -0.0729(3)
C8 C 0.16841(13) -0.29323(10) -0.2901(3)
H7 H 0.1659 -0.3353 -0.3900
H8 H 0.2207 -0.2919 -0.2306
C9 C 0.15205(13) -0.21920(11) -0.4018(3)
H9 H 0.1911 -0.2112 -0.5106
H10 H 0.1012 -0.2220 -0.4695
C10 C 0.03012(12) -0.06406(10) 0.0805(3)
C11 C 0.0000 0.0000 0.4079(5)
H11 H 0.0146 -0.0401 0.4775
C12 C 0.18033(13) -0.01387(10) 0.2593(4)
H12 H 0.1542 -0.0111 0.3932
H13 H 0.1608 0.0258 0.1682
H14 H 0.2356 -0.0071 0.2796
O1A O 0.08331(9) 0.08639(7) -0.1287(2)
O2A O -0.16616(8) 0.08674(7) 0.1658(2)
O3A O -0.01954(8) 0.16177(6) -0.1554(2)
C1A C -0.09828(13) 0.09911(10) 0.0761(3)
C2A C -0.09745(12) 0.16469(10) -0.0729(3)
C4A C -0.15317(13) 0.15307(10) -0.2517(3)
H1A H -0.2057 0.1467 -0.1962
H2A H -0.1393 0.1065 -0.3268
C5A C -0.10997(13) 0.30591(10) -0.1178(3)
H3A H -0.1225 0.3530 -0.0435
H4A H -0.0583 0.3116 -0.1791
C6A C -0.10938(13) 0.24030(9) 0.0358(3)
H5A H -0.0678 0.2481 0.1378
H6A H -0.1587 0.2393 0.1117
C7A C 0.01886(13) 0.10173(11) -0.0729(3)
C8A C -0.16841(13) 0.29323(10) -0.2901(3)
H7A H -0.1659 0.3353 -0.3900
H8A H -0.2207 0.2919 -0.2306
C9A C -0.15205(13) 0.21920(11) -0.4018(3)
H9A H -0.1911 0.2112 -0.5106
H10A H -0.1012 0.2220 -0.4695
C10A C -0.03012(12) 0.06406(10) 0.0805(3)
H11A H -0.0146 0.0401 0.4775
C12A C -0.18033(13) 0.01387(10) 0.2593(4)
H12A H -0.1542 0.0111 0.3932
H13A H -0.1608 -0.0258 0.1682
H14A H -0.2356 0.0071 0.2796
loop_
_geom_bond_atom_site_label_1
_geom_bond_atom_site_label_2
_geom_bond_site_symmetry_1
_geom_bond_site_symmetry_2
O1 C7 1_555 1_555
O2 C1 1_555 1_555
O3 C2 1_555 1_555
C1 C2 1_555 1_555
C2 C4 1_555 1_555
C3 C10 1_555 1_555
C4 H1 1_555 1_555
H2 C4 1_555 1_555
C5 H3 1_555 1_555
H4 C5 1_555 1_555
C6 C2 1_555 1_555
H5 C6 1_555 1_555
H6 C6 1_555 1_555
C7 O3 1_555 1_555
C8 C5 1_555 1_555
H7 C8 1_555 1_555
H8 C8 1_555 1_555
C9 C4 1_555 1_555
H9 C9 1_555 1_555
H10 C9 1_555 1_555
C10 C1 1_555 1_555
C11 C3 1_555 1_555
H11 C11 1_555 1_555
C12 O2 1_555 1_555
H12 C12 1_555 1_555
H13 C12 1_555 1_555
H14 C12 1_555 1_555
O1A C7A 1_555 1_555
O2A C1A 1_555 1_555
O3A C2A 1_555 1_555
C1A C2A 1_555 1_555
C2A C4A 1_555 1_555
C4A H1A 1_555 1_555
H2A C4A 1_555 1_555
C5A H3A 1_555 1_555
H4A C5A 1_555 1_555
C6A C2A 1_555 1_555
H5A C6A 1_555 1_555
H6A C6A 1_555 1_555
C7A O3A 1_555 1_555
C8A C5A 1_555 1_555
H7A C8A 1_555 1_555
H8A C8A 1_555 1_555
C9A C4A 1_555 1_555
H9A C9A 1_555 1_555
H10A C9A 1_555 1_555
C10A C3 1_555 1_555
H11A C11 1_555 1_555
C12A O2A 1_555 1_555
H12A C12A 1_555 1_555
H13A C12A 1_555 1_555
H14A C12A 1_555 1_555
C5 C6 1_555 1_555
C7 C10 1_555 1_555
C8 C9 1_555 1_555
C1A C10A 1_555 1_555
C5A C6A 1_555 1_555
C7A C10A 1_555 1_555
C8A C9A 1_555 1_555

#END
