
#######################################################################
#
#                 Cambridge Crystallographic Data Centre
#                                CCDC 
#
#######################################################################
#
# If this CIF has been generated from an entry in the Cambridge 
# Structural Database, then it will include bibliographic, chemical, 
# crystal, experimental, refinement or atomic coordinate data resulting 
# from the CCDC's data processing and validation procedures.
#
#######################################################################

data_FETRAA01
_chemical_formula_moiety         'C7 H16 N1 1+,C6 H2 N3 O7 1-'
_chemical_name_systematic        
'N-methylcyclohexanaminium 2,4,6-trinitrophenolate'
_symmetry_cell_setting           monoclinic
_symmetry_space_group_name_H-M   'P 21/n'
_symmetry_Int_Tables_number      14
_space_group_name_Hall           '-P 2yn'
loop_
_symmetry_equiv_pos_site_id
_symmetry_equiv_pos_as_xyz
1 x,y,z
2 1/2-x,1/2+y,1/2-z
3 -x,-y,-z
4 1/2+x,1/2-y,1/2+z
_cell_length_a                   6.7455(2)
_cell_length_b                   18.3207(6)
_cell_length_c                   12.8506(5)
_cell_angle_alpha                90
_cell_angle_beta                 93.473(4)
_cell_angle_gamma                90
_cell_volume                     1585.19
_cell_formula_units_Z            4
loop_
_atom_site_label
_atom_site_type_symbol
_atom_site_fract_x
_atom_site_fract_y
_atom_site_fract_z
O1 O 0.2604(4) 0.64493(11) 0.47228(17)
O2 O 0.2474(5) 0.33667(14) 0.6769(2)
O3 O 0.2244(5) 0.30739(13) 0.5152(2)
O4 O 0.3924(8) 0.6604(2) 0.6777(3)
O5 O 0.1784(14) 0.5992(4) 0.7593(6)
O6 O 0.3067(11) 0.4883(3) 0.2534(3)
O7 O 0.1701(12) 0.5905(2) 0.2800(3)
N1 N 0.2782(6) 0.60881(17) 0.6860(2)
N2 N 0.2404(4) 0.35275(15) 0.5849(2)
N3 N 0.2451(5) 0.53350(15) 0.3122(2)
C1 C 0.2588(4) 0.57958(15) 0.4964(2)
C2 C 0.2637(4) 0.55402(15) 0.6030(2)
C3 C 0.2568(4) 0.48264(16) 0.6331(2)
H1 H 0.257597 0.470211 0.703324
C4 C 0.2486(4) 0.42910(15) 0.5567(2)
C5 C 0.2468(4) 0.44741(15) 0.4524(2)
H2 H 0.243382 0.410993 0.401933
C6 C 0.2500(4) 0.51890(15) 0.4237(2)
N4 N 0.1748(6) 0.75427(16) 0.3289(2)
H3 H 0.212(6) 0.7156(13) 0.369(2)
H4 H 0.047(2) 0.756(2) 0.304(3)
C7 C 0.2810(8) 0.7472(2) 0.2322(3)
H5 H 0.263137 0.790980 0.191593
H6 H 0.228844 0.706358 0.192615
H7 H 0.419915 0.739787 0.249566
C8 C 0.2233(6) 0.82297(16) 0.3907(2)
H8 H 0.213142 0.864527 0.342650
C9 C 0.0710(6) 0.8325(2) 0.4695(3)
H9 H 0.075744 0.791379 0.517064
H10 H -0.060572 0.834341 0.434595
C10 C 0.1118(9) 0.9034(2) 0.5304(4)
H11 H 0.088630 0.944732 0.484132
H12 H 0.020604 0.907066 0.585703
C11 C 0.3209(9) 0.9059(3) 0.5765(3)
H13 H 0.345601 0.953403 0.607948
H14 H 0.336769 0.869527 0.631310
C12 C 0.4700(8) 0.8923(3) 0.4984(4)
H15 H 0.601397 0.890013 0.533301
H16 H 0.468146 0.932410 0.449142
C13 C 0.4278(6) 0.8215(2) 0.4401(3)
H17 H 0.522632 0.815193 0.386969
H18 H 0.441702 0.780660 0.487994
O8? O 0.192(6) 0.6649(9) 0.6738(13)
O9? O 0.316(4) 0.5900(14) 0.7722(15)
O10? O 0.180(3) 0.4812(9) 0.2576(11)
O11? O 0.325(3) 0.5922(7) 0.2854(9)
loop_
_geom_bond_atom_site_label_1
_geom_bond_atom_site_label_2
_geom_bond_site_symmetry_1
_geom_bond_site_symmetry_2
O1 C1 1_555 1_555
O2 N2 1_555 1_555
O3 N2 1_555 1_555
O4 N1 1_555 1_555
O5 N1 1_555 1_555
O6 N3 1_555 1_555
O7 N3 1_555 1_555
N1 C2 1_555 1_555
N2 C4 1_555 1_555
N3 C6 1_555 1_555
C1 C2 1_555 1_555
C2 C3 1_555 1_555
C3 H1 1_555 1_555
C4 C3 1_555 1_555
C5 C4 1_555 1_555
H2 C5 1_555 1_555
C6 C1 1_555 1_555
N4 H3 1_555 1_555
H4 N4 1_555 1_555
C7 N4 1_555 1_555
H5 C7 1_555 1_555
H6 C7 1_555 1_555
H7 C7 1_555 1_555
C8 N4 1_555 1_555
H8 C8 1_555 1_555
C9 C8 1_555 1_555
H9 C9 1_555 1_555
H10 C9 1_555 1_555
C10 C9 1_555 1_555
H11 C10 1_555 1_555
H12 C10 1_555 1_555
C11 C10 1_555 1_555
H13 C11 1_555 1_555
H14 C11 1_555 1_555
C12 C11 1_555 1_555
H15 C12 1_555 1_555
H16 C12 1_555 1_555
C13 C8 1_555 1_555
H17 C13 1_555 1_555
H18 C13 1_555 1_555
C5 C6 1_555 1_555
C12 C13 1_555 1_555

#END
