
#######################################################################
#
#                 Cambridge Crystallographic Data Centre
#                                CCDC 
#
#######################################################################
#
# If this CIF has been generated from an entry in the Cambridge 
# Structural Database, then it will include bibliographic, chemical, 
# crystal, experimental, refinement or atomic coordinate data resulting 
# from the CCDC's data processing and validation procedures.
#
#######################################################################

data_FETXUA
_chemical_formula_moiety         'C25 H22 Cl1 N1 O3 S1'
_chemical_name_systematic        
(2R,3R,4S)-3,6-dibenzyl-3-chloro-2-hydroxy-4-(thiophen-2-yl)-3,4,5,6-tetrahydropyrano[2,3-c]pyrrol-7(2H)-one
_symmetry_cell_setting           orthorhombic
_symmetry_space_group_name_H-M   'P 21 21 21'
_symmetry_Int_Tables_number      19
_space_group_name_Hall           'P 2ac 2ab'
loop_
_symmetry_equiv_pos_site_id
_symmetry_equiv_pos_as_xyz
1 x,y,z
2 1/2-x,-y,1/2+z
3 -x,1/2+y,1/2-z
4 1/2+x,1/2-y,-z
_cell_length_a                   9.8316(2)
_cell_length_b                   11.1785(2)
_cell_length_c                   20.8666(6)
_cell_angle_alpha                90
_cell_angle_beta                 90
_cell_angle_gamma                90
_cell_volume                     2293.29
_exptl_crystal_colour            colorless
_exptl_crystal_description       plate
_cell_formula_units_Z            4
loop_
_atom_site_label
_atom_site_type_symbol
_atom_site_fract_x
_atom_site_fract_y
_atom_site_fract_z
Cl1 Cl 0.34557(11) 0.38928(9) 0.85908(5)
S1 S 0.62515(11) 0.39216(10) 0.76425(7)
O1 O 0.1153(3) 0.3248(3) 0.77386(16)
O2 O 0.0357(4) 0.4791(3) 0.66497(18)
O3 O 0.1522(3) 0.1196(3) 0.78065(19)
H1 H 0.0842 0.0862 0.7947
N1 N 0.2478(4) 0.4299(4) 0.6271(2)
C1 C 0.6465(4) 0.1633(4) 0.7572(2)
H2 H 0.6276 0.0820 0.7541
C2 C 0.1950(4) 0.3511(3) 0.7229(2)
C3 C 0.3973(4) 0.2360(3) 0.7578(2)
H3 H 0.3829 0.1542 0.7423
C4 C 0.3219(4) 0.3158(3) 0.7122(2)
C5 C 0.1456(4) 0.4275(4) 0.6706(2)
C6 C 0.3654(4) 0.3616(4) 0.6482(2)
H4 H 0.4452 0.4121 0.6518
H5 H 0.3848 0.2963 0.6189
C7 C 0.5483(4) 0.2539(3) 0.75940(19)
C8 C 0.3797(5) 0.1489(4) 0.8692(2)
H6 H 0.3716 0.0717 0.8482
H7 H 0.4760 0.1646 0.8747
C9 C 0.3171(5) 0.1380(4) 0.9349(2)
C10 C 0.3228(4) 0.2438(3) 0.8233(2)
C11 C 0.1699(5) 0.2292(4) 0.8120(2)
H8 H 0.1229 0.2269 0.8534
C12 C 0.7806(5) 0.2136(5) 0.7605(3)
H9 H 0.8590 0.1671 0.7605
C13 C 0.7832(4) 0.3312(5) 0.7634(3)
H10 H 0.8629 0.3759 0.7649
C14 C 0.2464(7) 0.4960(5) 0.5672(2)
H11 H 0.3174 0.5562 0.5683
H12 H 0.1598 0.5369 0.5629
C15 C 0.2061(6) 0.0657(6) 0.9461(3)
H13 H 0.1655 0.0255 0.9121
C16 C 0.2675(7) 0.4174(5) 0.5106(3)
C17 C 0.3724(8) 0.1981(5) 0.9867(3)
H14 H 0.4457 0.2493 0.9803
C18 C 0.1543(8) 0.0525(9) 1.0073(4)
H15 H 0.0798 0.0028 1.0140
C19 C 0.3211(12) 0.1835(8) 1.0469(3)
H16 H 0.3608 0.2229 1.0814
C20 C 0.2092(10) 0.1095(9) 1.0567(3)
H17 H 0.1732 0.1001 1.0976
C21 C 0.1813(9) 0.3220(7) 0.5014(4)
H18 H 0.1108 0.3099 0.5304
C22 C 0.3714(11) 0.4352(8) 0.4679(4)
H19 H 0.4304 0.4992 0.4740
C23 C 0.2975(14) 0.2687(11) 0.4082(5)
H20 H 0.3032 0.2204 0.3720
C24 C 0.3913(14) 0.3581(10) 0.4144(4)
H21 H 0.4630 0.3680 0.3858
C25 C 0.1951(13) 0.2445(10) 0.4515(5)
H22 H 0.1383 0.1785 0.4468
loop_
_geom_bond_atom_site_label_1
_geom_bond_atom_site_label_2
_geom_bond_site_symmetry_1
_geom_bond_site_symmetry_2
Cl1 C10 1_555 1_555
S1 C7 1_555 1_555
O1 C2 1_555 1_555
O2 C5 1_555 1_555
O3 H1 1_555 1_555
N1 C5 1_555 1_555
C1 H2 1_555 1_555
C2 C4 1_555 1_555
C3 H3 1_555 1_555
C4 C3 1_555 1_555
C5 C2 1_555 1_555
C6 N1 1_555 1_555
H4 C6 1_555 1_555
H5 C6 1_555 1_555
C7 C1 1_555 1_555
C8 H6 1_555 1_555
H7 C8 1_555 1_555
C9 C8 1_555 1_555
C10 C3 1_555 1_555
C11 O1 1_555 1_555
H8 C11 1_555 1_555
C12 C1 1_555 1_555
H9 C12 1_555 1_555
C13 S1 1_555 1_555
H10 C13 1_555 1_555
C14 N1 1_555 1_555
H11 C14 1_555 1_555
H12 C14 1_555 1_555
C15 C9 1_555 1_555
H13 C15 1_555 1_555
C16 C14 1_555 1_555
C17 C9 1_555 1_555
H14 C17 1_555 1_555
C18 C15 1_555 1_555
H15 C18 1_555 1_555
C19 C17 1_555 1_555
H16 C19 1_555 1_555
C20 C18 1_555 1_555
H17 C20 1_555 1_555
C21 C16 1_555 1_555
H18 C21 1_555 1_555
C22 C16 1_555 1_555
H19 C22 1_555 1_555
C23 H20 1_555 1_555
C24 C22 1_555 1_555
H21 C24 1_555 1_555
C25 C21 1_555 1_555
H22 C25 1_555 1_555
O3 C11 1_555 1_555
C3 C7 1_555 1_555
C4 C6 1_555 1_555
C8 C10 1_555 1_555
C10 C11 1_555 1_555
C12 C13 1_555 1_555
C19 C20 1_555 1_555
C23 C24 1_555 1_555
C23 C25 1_555 1_555

#END
