
#######################################################################
#
#                 Cambridge Crystallographic Data Centre
#                                CCDC 
#
#######################################################################
#
# If this CIF has been generated from an entry in the Cambridge 
# Structural Database, then it will include bibliographic, chemical, 
# crystal, experimental, refinement or atomic coordinate data resulting 
# from the CCDC's data processing and validation procedures.
#
#######################################################################

data_FETYUZ
_chemical_formula_moiety         'C18 H24 N2 O9'
_chemical_name_systematic        
'(4S)-4-(Methoxycarbonylmethylaminocarbonyl)-4-(3,4,5-trimethoxybenzamido)butanoic acid'
_chemical_properties_biological  'potential antitumour agent'
_symmetry_cell_setting           monoclinic
_symmetry_space_group_name_H-M   'P 21/c'
_symmetry_Int_Tables_number      14
_space_group_name_Hall           '-P 2ybc'
loop_
_symmetry_equiv_pos_site_id
_symmetry_equiv_pos_as_xyz
1 x,y,z
2 -x,1/2+y,1/2-z
3 -x,-y,-z
4 x,1/2-y,1/2+z
_cell_length_a                   27.665(9)
_cell_length_b                   5.1444(16)
_cell_length_c                   13.907(4)
_cell_angle_alpha                90
_cell_angle_beta                 98.401(5)
_cell_angle_gamma                90
_cell_volume                     1958
_exptl_crystal_colour            colorless
_exptl_crystal_description       block
_chemical_melting_point          '442-445 K'
_cell_formula_units_Z            4
loop_
_atom_site_label
_atom_site_type_symbol
_atom_site_fract_x
_atom_site_fract_y
_atom_site_fract_z
C1 C 0.31738(9) 0.8462(5) 1.07123(19)
H1 H 0.2897 0.9431 1.0777
C2 C 0.36107(10) 0.8945(5) 1.13138(19)
C3 C 0.32610(12) 1.2220(6) 1.2200(2)
H2 H 0.3134 1.3122 1.1613
H3 H 0.3356 1.3458 1.2709
H4 H 0.3014 1.1090 1.2384
C4 C 0.45221(14) 0.6629(9) 1.2670(3)
H5 H 0.4259 0.7042 1.3022
H6 H 0.4827 0.7115 1.3049
H7 H 0.4522 0.4795 1.2542
C5 C 0.40260(9) 0.7524(6) 1.1206(2)
C6 C 0.40048(10) 0.5643(6) 1.0483(2)
C7 C 0.44438(12) 0.2634(7) 0.9643(3)
H8 H 0.4237 0.1183 0.9736
H9 H 0.4773 0.2036 0.9642
H10 H 0.4328 0.3456 0.9034
C8 C 0.35650(9) 0.5099(6) 0.9899(2)
H11 H 0.3547 0.3789 0.9435
C9 C 0.31536(9) 0.6530(5) 1.00163(18)
C10 C 0.26846(9) 0.5816(5) 0.93978(17)
C11 C 0.18944(8) 0.7257(5) 0.85856(17)
H12 H 0.1921 0.5768 0.8157
C12 C 0.17095(9) 0.9580(5) 0.79693(19)
H13 H 0.1371 0.9265 0.7697
H14 H 0.1715 1.1088 0.8390
C13 C 0.19905(10) 1.0222(5) 0.71492(19)
H15 H 0.2326 1.0641 0.7410
H16 H 0.1993 0.8726 0.6725
C14 C 0.17601(10) 1.2476(5) 0.65829(18)
C15 C 0.15135(9) 0.6651(5) 0.92317(18)
C16 C 0.07441(10) 0.4562(6) 0.9360(2)
H17 H 0.0574 0.6193 0.9417
H18 H 0.0853 0.3912 1.0010
C17 C 0.04017(10) 0.2651(6) 0.8817(2)
C18 C -0.03991(12) 0.0996(8) 0.8654(3)
H19 H -0.0483 0.1578 0.7995
H20 H -0.0682 0.1087 0.8979
H21 H -0.0285 -0.0768 0.8658
N1 N 0.23689(7) 0.7748(4) 0.91463(14)
H22 H 0.2449 0.9312 0.9321
N2 N 0.11623(7) 0.5008(4) 0.88709(15)
H23 H 0.1185 0.4198 0.8338
O1 O 0.44343(7) 0.4434(5) 1.04041(17)
O2 O 0.44611(7) 0.8005(5) 1.17804(16)
O3 O 0.36722(7) 1.0733(4) 1.20430(14)
O4 O 0.25945(7) 0.3569(4) 0.91342(14)
O5 O 0.19976(8) 1.3243(4) 0.58779(15)
H24 H 0.1865 1.4539 0.5617
O6 O 0.13979(8) 1.3549(4) 0.67562(14)
O7 O 0.15089(7) 0.7706(4) 1.00235(13)
O8 O 0.04948(8) 0.1342(5) 0.81607(17)
O9 O -0.00192(7) 0.2632(5) 0.91513(15)
loop_
_geom_bond_atom_site_label_1
_geom_bond_atom_site_label_2
_geom_bond_site_symmetry_1
_geom_bond_site_symmetry_2
C1 H1 1_555 1_555
C2 C1 1_555 1_555
C3 H2 1_555 1_555
H3 C3 1_555 1_555
H4 C3 1_555 1_555
C4 H5 1_555 1_555
H6 C4 1_555 1_555
H7 C4 1_555 1_555
C5 C2 1_555 1_555
C6 C5 1_555 1_555
C7 H8 1_555 1_555
H9 C7 1_555 1_555
H10 C7 1_555 1_555
C8 C6 1_555 1_555
H11 C8 1_555 1_555
C9 C1 1_555 1_555
C10 C9 1_555 1_555
C11 H12 1_555 1_555
C12 C11 1_555 1_555
H13 C12 1_555 1_555
H14 C12 1_555 1_555
C13 C12 1_555 1_555
H15 C13 1_555 1_555
H16 C13 1_555 1_555
C14 C13 1_555 1_555
C15 C11 1_555 1_555
C16 H17 1_555 1_555
H18 C16 1_555 1_555
C17 C16 1_555 1_555
C18 H19 1_555 1_555
H20 C18 1_555 1_555
H21 C18 1_555 1_555
N1 C10 1_555 1_555
H22 N1 1_555 1_555
N2 C15 1_555 1_555
H23 N2 1_555 1_555
O1 C6 1_555 1_555
O2 C4 1_555 1_555
O3 C2 1_555 1_555
O4 C10 1_555 1_555
O5 C14 1_555 1_555
H24 O5 1_555 1_555
O6 C14 1_555 1_555
O7 C15 1_555 1_555
O8 C17 1_555 1_555
O9 C17 1_555 1_555
C3 O3 1_555 1_555
C5 O2 1_555 1_555
C7 O1 1_555 1_555
C8 C9 1_555 1_555
C11 N1 1_555 1_555
C16 N2 1_555 1_555
C18 O9 1_555 1_555

#END
