
#######################################################################
#
#                 Cambridge Crystallographic Data Centre
#                                CCDC 
#
#######################################################################
#
# If this CIF has been generated from an entry in the Cambridge 
# Structural Database, then it will include bibliographic, chemical, 
# crystal, experimental, refinement or atomic coordinate data resulting 
# from the CCDC's data processing and validation procedures.
#
#######################################################################

data_FEVWIO
_chemical_formula_moiety         'C16 H48 Si8 Te2'
_chemical_name_systematic        
4,4,5,5-Tetramethyl-3,3,6,6-tetrakis(trimethylsilyl)-1,2,3,4,5,6-ditelluratetrasilinane
_symmetry_cell_setting           monoclinic
_symmetry_space_group_name_H-M   'P 21/n'
_symmetry_Int_Tables_number      14
_space_group_name_Hall           '-P 2yn'
loop_
_symmetry_equiv_pos_site_id
_symmetry_equiv_pos_as_xyz
1 x,y,z
2 1/2-x,1/2+y,1/2-z
3 -x,-y,-z
4 1/2+x,1/2-y,1/2+z
_cell_length_a                   12.2346(11)
_cell_length_b                   15.2729(13)
_cell_length_c                   19.1413(16)
_cell_angle_alpha                90
_cell_angle_beta                 103.656(2)
_cell_angle_gamma                90
_cell_volume                     3475.59
_exptl_crystal_colour            red
_exptl_crystal_description       block
_cell_formula_units_Z            4
loop_
_atom_site_label
_atom_site_type_symbol
_atom_site_fract_x
_atom_site_fract_y
_atom_site_fract_z
Te1 Te 0.038605(18) 0.479427(19) 0.111821(12)
Te2 Te 0.13096(2) 0.599388(17) 0.214522(12)
Si1 Si 0.20159(8) 0.49664(7) 0.31939(5)
Si2 Si 0.05481(8) 0.39788(7) 0.32371(5)
Si3 Si -0.12425(8) 0.45199(7) 0.26594(5)
Si4 Si -0.15219(7) 0.46248(6) 0.14036(5)
Si5 Si 0.36785(9) 0.43158(8) 0.30242(6)
Si6 Si 0.24262(9) 0.59164(8) 0.41974(5)
Si7 Si -0.26230(9) 0.58342(8) 0.08930(6)
Si8 Si -0.22638(9) 0.33316(8) 0.07968(6)
C1 C 0.3519(4) 0.6745(4) 0.4113(3)
H1 H 0.3544 0.7199 0.4462
H2 H 0.3332 0.6994 0.3639
H3 H 0.4241 0.6465 0.4193
C2 C 0.2948(6) 0.5264(4) 0.5043(2)
H4 H 0.3086 0.5650 0.5450
H5 H 0.3634 0.4971 0.5021
H6 H 0.2392 0.4839 0.5088
C3 C 0.1161(4) 0.6540(4) 0.4286(3)
H7 H 0.0577 0.6139 0.4331
H8 H 0.0902 0.6898 0.3867
H9 H 0.1349 0.6905 0.4705
C4 C 0.4740(5) 0.5190(4) 0.2987(4)
H10 H 0.5380 0.4933 0.2857
H11 H 0.4975 0.5463 0.3450
H12 H 0.4409 0.5621 0.2636
C5 C 0.4243(4) 0.3553(4) 0.3794(3)
H13 H 0.3695 0.3109 0.3810
H14 H 0.4402 0.3877 0.4236
H15 H 0.4922 0.3284 0.3729
C6 C 0.3427(4) 0.3667(4) 0.2180(3)
H16 H 0.3207 0.4052 0.1774
H17 H 0.2839 0.3248 0.2175
H18 H 0.4104 0.3364 0.2154
C7 C 0.0824(4) 0.2892(3) 0.2853(3)
H19 H 0.1469 0.2624 0.3163
H20 H 0.0964 0.2977 0.2385
H21 H 0.0181 0.2520 0.2815
C8 C 0.0512(4) 0.3767(4) 0.4203(2)
H22 H -0.0031 0.3319 0.4221
H23 H 0.0307 0.4295 0.4412
H24 H 0.1241 0.3579 0.4467
C9 C -0.1507(4) 0.5612(4) 0.3056(3)
H25 H -0.2272 0.5787 0.2861
H26 H -0.1007 0.6043 0.2940
H27 H -0.1377 0.5559 0.3569
C10 C -0.2320(4) 0.3726(4) 0.2862(3)
H28 H -0.2353 0.3786 0.3356
H29 H -0.2107 0.3138 0.2777
H30 H -0.3045 0.3853 0.2557
C11 C -0.1788(5) 0.6863(3) 0.1099(3)
H31 H -0.1116 0.6815 0.0926
H32 H -0.1590 0.6956 0.1610
H33 H -0.2228 0.7348 0.0869
C12 C -0.3916(4) 0.5942(4) 0.1251(3)
H34 H -0.4378 0.6407 0.1004
H35 H -0.3702 0.6071 0.1756
H36 H -0.4331 0.5402 0.1177
C13 C -0.3069(5) 0.5700(4) -0.0103(2)
H37 H -0.3432 0.6226 -0.0314
H38 H -0.3583 0.5218 -0.0217
H39 H -0.2420 0.5588 -0.0290
C14 C -0.3799(4) 0.3272(4) 0.0775(3)
H40 H -0.4201 0.3687 0.0433
H41 H -0.3911 0.3405 0.1243
H42 H -0.4071 0.2693 0.0638
C15 C -0.1570(5) 0.2329(3) 0.1252(3)
H43 H -0.1601 0.2336 0.1748
H44 H -0.0799 0.2315 0.1219
H45 H -0.1953 0.1819 0.1022
C16 C -0.2078(6) 0.3337(4) -0.0138(3)
H46 H -0.2606 0.2940 -0.0426
H47 H -0.1326 0.3156 -0.0137
H48 H -0.2205 0.3917 -0.0333
loop_
_geom_bond_atom_site_label_1
_geom_bond_atom_site_label_2
_geom_bond_site_symmetry_1
_geom_bond_site_symmetry_2
Te1 Te2 1_555 1_555
Te2 Si1 1_555 1_555
Si1 Si2 1_555 1_555
Si2 Si3 1_555 1_555
Si3 Si4 1_555 1_555
Si4 Te1 1_555 1_555
Si5 Si1 1_555 1_555
Si6 Si1 1_555 1_555
Si7 Si4 1_555 1_555
Si8 Si4 1_555 1_555
C1 Si6 1_555 1_555
H1 C1 1_555 1_555
H2 C1 1_555 1_555
H3 C1 1_555 1_555
C2 Si6 1_555 1_555
H4 C2 1_555 1_555
H5 C2 1_555 1_555
H6 C2 1_555 1_555
C3 Si6 1_555 1_555
H7 C3 1_555 1_555
H8 C3 1_555 1_555
H9 C3 1_555 1_555
C4 Si5 1_555 1_555
H10 C4 1_555 1_555
H11 C4 1_555 1_555
H12 C4 1_555 1_555
C5 Si5 1_555 1_555
H13 C5 1_555 1_555
H14 C5 1_555 1_555
H15 C5 1_555 1_555
C6 Si5 1_555 1_555
H16 C6 1_555 1_555
H17 C6 1_555 1_555
H18 C6 1_555 1_555
C7 Si2 1_555 1_555
H19 C7 1_555 1_555
H20 C7 1_555 1_555
H21 C7 1_555 1_555
C8 Si2 1_555 1_555
H22 C8 1_555 1_555
H23 C8 1_555 1_555
H24 C8 1_555 1_555
C9 Si3 1_555 1_555
H25 C9 1_555 1_555
H26 C9 1_555 1_555
H27 C9 1_555 1_555
C10 Si3 1_555 1_555
H28 C10 1_555 1_555
H29 C10 1_555 1_555
H30 C10 1_555 1_555
C11 Si7 1_555 1_555
H31 C11 1_555 1_555
H32 C11 1_555 1_555
H33 C11 1_555 1_555
C12 Si7 1_555 1_555
H34 C12 1_555 1_555
H35 C12 1_555 1_555
H36 C12 1_555 1_555
C13 Si7 1_555 1_555
H37 C13 1_555 1_555
H38 C13 1_555 1_555
H39 C13 1_555 1_555
C14 Si8 1_555 1_555
H40 C14 1_555 1_555
H41 C14 1_555 1_555
H42 C14 1_555 1_555
C15 Si8 1_555 1_555
H43 C15 1_555 1_555
H44 C15 1_555 1_555
H45 C15 1_555 1_555
C16 Si8 1_555 1_555
H46 C16 1_555 1_555
H47 C16 1_555 1_555
H48 C16 1_555 1_555

#END
