
#######################################################################
#
#                 Cambridge Crystallographic Data Centre
#                                CCDC 
#
#######################################################################
#
# If this CIF has been generated from an entry in the Cambridge 
# Structural Database, then it will include bibliographic, chemical, 
# crystal, experimental, refinement or atomic coordinate data resulting 
# from the CCDC's data processing and validation procedures.
#
#######################################################################

data_FEVXOW
_chemical_formula_moiety         'C16 H14 O2 S8'
_chemical_name_systematic        
2-[4,5-bis(methylsulfanyl)-2H-1,3-dithiol-2-ylidene]-6,7-dimethoxy-2H-[1,3]dithiolo[4,5-b][1,4]benzodithiine
_symmetry_cell_setting           monoclinic
_symmetry_space_group_name_H-M   'P 21/c'
_symmetry_Int_Tables_number      14
_space_group_name_Hall           '-P 2ybc'
loop_
_symmetry_equiv_pos_site_id
_symmetry_equiv_pos_as_xyz
1 x,y,z
2 -x,1/2+y,1/2-z
3 -x,-y,-z
4 x,1/2-y,1/2+z
_cell_length_a                   31.739(3)
_cell_length_b                   4.5314(4)
_cell_length_c                   14.5044(12)
_cell_angle_alpha                90
_cell_angle_beta                 101.228(5)
_cell_angle_gamma                90
_cell_volume                     2046.13
_exptl_crystal_colour            yellow
_exptl_crystal_description       plate
_cell_formula_units_Z            4
loop_
_atom_site_label
_atom_site_type_symbol
_atom_site_fract_x
_atom_site_fract_y
_atom_site_fract_z
S1 S 0.91093(3) 0.3969(2) 0.07833(6)
C1 C 0.87190(12) 0.1636(8) 0.0066(3)
H1 H 0.8477 0.2838 -0.0252
H2 H 0.8615 0.0162 0.0463
H3 H 0.8852 0.0635 -0.0404
O1 O 0.54578(8) 0.4386(6) 0.47328(18)
S2 S 0.95451(3) 0.7961(2) 0.26181(6)
C2 C 0.97046(12) 0.6113(9) 0.3737(3)
H4 H 0.9647 0.3994 0.3657
H5 H 0.9541 0.6916 0.4187
H6 H 1.0012 0.6428 0.3975
O2 O 0.58636(8) 0.7639(6) 0.60647(18)
S3 S 0.82549(3) 0.50281(18) 0.13843(6)
C3 C 0.88207(11) 0.5400(7) 0.1595(2)
S4 S 0.86515(3) 0.86111(18) 0.30107(6)
C4 C 0.89998(11) 0.7006(8) 0.2340(2)
S5 S 0.78536(3) 0.76944(18) 0.39963(6)
C5 C 0.78673(11) 0.6107(7) 0.2894(2)
S6 S 0.73941(3) 0.41665(19) 0.24073(6)
C6 C 0.82086(11) 0.6498(7) 0.2481(2)
S7 S 0.73534(3) 0.50604(19) 0.53686(6)
C7 C 0.74626(10) 0.5231(7) 0.4233(2)
S8 S 0.68366(3) 0.11820(18) 0.36063(6)
C8 C 0.72515(10) 0.3634(7) 0.3514(2)
C9 C 0.65641(11) 0.3260(7) 0.4358(2)
C10 C 0.67840(11) 0.4918(7) 0.5086(2)
C11 C 0.61164(11) 0.3038(7) 0.4206(2)
H7 H 0.5967 0.1897 0.3696
C12 C 0.65567(11) 0.6473(8) 0.5674(2)
H8 H 0.6707 0.7668 0.6169
C13 C 0.58891(11) 0.4481(8) 0.4799(2)
C14 C 0.61132(11) 0.6257(7) 0.5529(2)
C15 C 0.52228(11) 0.2386(9) 0.4059(3)
H9 H 0.5243 0.3027 0.3424
H10 H 0.4921 0.2364 0.4121
H11 H 0.5344 0.0399 0.4172
C16 C 0.60794(12) 0.9459(9) 0.6814(3)
H12 H 0.6232 1.1047 0.6557
H13 H 0.6286 0.8265 0.7250
H14 H 0.5869 1.0314 0.7149
loop_
_geom_bond_atom_site_label_1
_geom_bond_atom_site_label_2
_geom_bond_site_symmetry_1
_geom_bond_site_symmetry_2
S1 C1 1_555 1_555
C1 H1 1_555 1_555
H2 C1 1_555 1_555
H3 C1 1_555 1_555
O1 C13 1_555 1_555
S2 C2 1_555 1_555
C2 H4 1_555 1_555
H5 C2 1_555 1_555
H6 C2 1_555 1_555
O2 C14 1_555 1_555
S3 C3 1_555 1_555
C3 S1 1_555 1_555
S4 C4 1_555 1_555
C4 S2 1_555 1_555
S5 C5 1_555 1_555
C5 S6 1_555 1_555
S6 C8 1_555 1_555
C6 S3 1_555 1_555
S7 C7 1_555 1_555
C7 S5 1_555 1_555
S8 C8 1_555 1_555
C8 C7 1_555 1_555
C9 S8 1_555 1_555
C10 S7 1_555 1_555
C11 C9 1_555 1_555
H7 C11 1_555 1_555
C12 C10 1_555 1_555
H8 C12 1_555 1_555
C13 C11 1_555 1_555
C14 C12 1_555 1_555
C15 O1 1_555 1_555
H9 C15 1_555 1_555
H10 C15 1_555 1_555
H11 C15 1_555 1_555
C16 O2 1_555 1_555
H12 C16 1_555 1_555
H13 C16 1_555 1_555
H14 C16 1_555 1_555
C3 C4 1_555 1_555
S4 C6 1_555 1_555
C5 C6 1_555 1_555
C9 C10 1_555 1_555
C13 C14 1_555 1_555

#END
