
#######################################################################
#
#                 Cambridge Crystallographic Data Centre
#                                CCDC 
#
#######################################################################
#
# If this CIF has been generated from an entry in the Cambridge 
# Structural Database, then it will include bibliographic, chemical, 
# crystal, experimental, refinement or atomic coordinate data resulting 
# from the CCDC's data processing and validation procedures.
#
#######################################################################

data_FEYBET
_chemical_formula_moiety         'C16 H8 F3 N1 O7 S1'
_chemical_name_systematic        
'2-oxo-4-(trifluoromethyl)-2H-chromen-7-yl 4-nitrobenzenesulfonate'
_symmetry_cell_setting           triclinic
_symmetry_space_group_name_H-M   'P -1'
_symmetry_Int_Tables_number      2
_space_group_name_Hall           '-P 1'
loop_
_symmetry_equiv_pos_site_id
_symmetry_equiv_pos_as_xyz
1 x,y,z
2 -x,-y,-z
_cell_length_a                   8.1056(6)
_cell_length_b                   10.1495(8)
_cell_length_c                   10.5702(8)
_cell_angle_alpha                79.008(2)
_cell_angle_beta                 79.011(2)
_cell_angle_gamma                76.984(2)
_cell_volume                     821.727
_exptl_crystal_colour            colorless
_exptl_crystal_description       rectangular
_cell_formula_units_Z            2
loop_
_atom_site_label
_atom_site_type_symbol
_atom_site_fract_x
_atom_site_fract_y
_atom_site_fract_z
S1 S 0.21473(8) 0.33796(6) 0.04846(6)
O1 O 0.1098(2) 0.34293(16) 0.19313(15)
O2 O 0.3379(2) 0.34785(16) 0.56971(15)
O3 O 0.2466(2) 0.47024(16) -0.00719(15)
O4 O 0.1179(2) 0.27270(18) -0.00928(17)
F1 F 0.2846(2) 0.84444(16) 0.42419(18)
F2 F 0.0469(2) 0.83525(17) 0.54630(19)
O5 O 0.4384(2) 0.33446(19) 0.75204(17)
F3 F 0.2709(3) 0.82738(19) 0.6277(2)
N1 N 0.8573(3) -0.0305(2) 0.1837(2)
C1 C 0.2619(3) 0.4230(2) 0.4660(2)
C2 C 0.4082(3) 0.2266(2) 0.0797(2)
C3 C 0.1545(3) 0.4194(2) 0.2752(2)
O6 O 0.8416(3) -0.1327(2) 0.2593(3)
C4 C 0.2329(3) 0.3488(2) 0.3786(2)
H1 H 0.2656 0.2539 0.3895
C5 C 0.2167(3) 0.5653(2) 0.4507(2)
O7 O 0.9917(3) 0.0041(3) 0.1447(3)
C6 C 0.6998(3) 0.0578(2) 0.1408(2)
C7 C 0.5594(3) 0.2725(3) 0.0427(2)
H2 H 0.5612 0.3606 -0.0019
C8 C 0.4015(3) 0.0947(2) 0.1439(2)
H3 H 0.2980 0.0644 0.1651
C9 C 0.5509(3) 0.0093(2) 0.1755(3)
H4 H 0.5503 -0.0792 0.2194
C10 C 0.1050(3) 0.5603(2) 0.2560(2)
H5 H 0.0504 0.6056 0.1856
C11 C 0.2535(3) 0.6310(2) 0.5495(2)
C12 C 0.3703(3) 0.4082(3) 0.6661(2)
C13 C 0.1382(3) 0.6321(3) 0.3428(2)
H6 H 0.1079 0.7271 0.3296
C14 C 0.7097(3) 0.1855(3) 0.0726(2)
H7 H 0.8146 0.2131 0.0471
C15 C 0.3221(3) 0.5557(3) 0.6524(2)
H8 H 0.3392 0.5997 0.7170
C16 C 0.2142(4) 0.7848(3) 0.5377(3)
loop_
_geom_bond_atom_site_label_1
_geom_bond_atom_site_label_2
_geom_bond_site_symmetry_1
_geom_bond_site_symmetry_2
S1 O1 1_555 1_555
O1 C3 1_555 1_555
O2 C1 1_555 1_555
O3 S1 1_555 1_555
O4 S1 1_555 1_555
F1 C16 1_555 1_555
F2 C16 1_555 1_555
O5 C12 1_555 1_555
F3 C16 1_555 1_555
N1 O6 1_555 1_555
C1 C4 1_555 1_555
C2 S1 1_555 1_555
C3 C4 1_555 1_555
C4 H1 1_555 1_555
C5 C1 1_555 1_555
O7 N1 1_555 1_555
C6 N1 1_555 1_555
C7 C2 1_555 1_555
H2 C7 1_555 1_555
C8 C2 1_555 1_555
H3 C8 1_555 1_555
C9 C6 1_555 1_555
H4 C9 1_555 1_555
C10 C3 1_555 1_555
H5 C10 1_555 1_555
C11 C5 1_555 1_555
C12 O2 1_555 1_555
C13 C5 1_555 1_555
H6 C13 1_555 1_555
C14 C6 1_555 1_555
H7 C14 1_555 1_555
C15 C11 1_555 1_555
H8 C15 1_555 1_555
C16 C11 1_555 1_555
C7 C14 1_555 1_555
C8 C9 1_555 1_555
C10 C13 1_555 1_555
C12 C15 1_555 1_555

#END
