
#######################################################################
#
#                 Cambridge Crystallographic Data Centre
#                                CCDC 
#
#######################################################################
#
# If this CIF has been generated from an entry in the Cambridge 
# Structural Database, then it will include bibliographic, chemical, 
# crystal, experimental, refinement or atomic coordinate data resulting 
# from the CCDC's data processing and validation procedures.
#
#######################################################################

data_FEYMIH
_chemical_formula_moiety         'C22 H25 Cl2 I1 N3 O3 P1'
_chemical_name_systematic        
'Diethyl (4-(t-butylimino)-6-chloro-3-(4-chloro-2-iodophenyl)-3,4-dihydroquinazolin-2-yl)phosphonate'
_symmetry_cell_setting           monoclinic
_symmetry_space_group_name_H-M   'P 21/c'
_symmetry_Int_Tables_number      14
_space_group_name_Hall           '-P 2ybc'
loop_
_symmetry_equiv_pos_site_id
_symmetry_equiv_pos_as_xyz
1 x,y,z
2 -x,1/2+y,1/2-z
3 -x,-y,-z
4 x,1/2-y,1/2+z
_cell_length_a                   17.266(14)
_cell_length_b                   8.920(7)
_cell_length_c                   16.576(13)
_cell_angle_alpha                90
_cell_angle_beta                 97.576(10)
_cell_angle_gamma                90
_cell_volume                     2530.63
_exptl_crystal_colour            colorless
_exptl_crystal_description       prism
_cell_formula_units_Z            4
loop_
_atom_site_label
_atom_site_type_symbol
_atom_site_fract_x
_atom_site_fract_y
_atom_site_fract_z
P1 P 0.12605(11) -0.1234(2) 0.30303(11)
O1 O 0.1504(3) -0.1519(6) 0.2189(3)
O2 O 0.1296(3) -0.2865(6) 0.3361(4)
O3 O 0.0571(3) -0.0407(6) 0.3085(4)
C1 C 0.4315(3) 0.0785(7) 0.5654(3)
C2 C 0.3999(4) -0.0531(7) 0.5861(4)
H1 H 0.4218 -0.1059 0.6319
C3 C 0.3355(3) -0.1064(7) 0.5384(3)
H2 H 0.3128 -0.1954 0.5528
C4 C 0.3028(3) -0.0312(6) 0.4689(3)
C5 C 0.2123(3) -0.0333(6) 0.3569(4)
C6 C 0.0980(7) -0.3332(14) 0.4016(8)
H3 H 0.1325 -0.3024 0.4497
H4 H 0.0490 -0.2801 0.4023
C7 C 0.0839(12) -0.4783(11) 0.4085(10)
H5 H 0.0601 -0.4958 0.4568
H6 H 0.1322 -0.5329 0.4118
H7 H 0.0493 -0.5115 0.3618
C8 C 0.1232(11) -0.2463(19) 0.1610(9)
H8 H 0.1343 -0.3437 0.1858
H9 H 0.1595 -0.2360 0.1214
C9 C 0.0482(14) -0.269(3) 0.1106(15)
H10 H 0.0471 -0.3665 0.0863
H11 H 0.0415 -0.1939 0.0687
H12 H 0.0069 -0.2606 0.1438
C10 C 0.2465(2) 0.1365(6) 0.1840(3)
C11 C 0.2175(3) 0.1956(6) 0.1100(3)
H13 H 0.2436 0.1808 0.0650
C12 C 0.1500(3) 0.2764(6) 0.1030(3)
C13 C 0.1112(3) 0.2974(6) 0.1687(4)
H14 H 0.0645 0.3506 0.1632
C14 C 0.1416(3) 0.2393(6) 0.2431(3)
H15 H 0.1161 0.2565 0.2883
C15 C 0.2085(2) 0.1573(5) 0.2515(3)
C16 C 0.2996(2) 0.1848(6) 0.3758(3)
C17 C 0.3617(3) 0.4358(6) 0.3613(3)
C18 C 0.3304(4) 0.5518(7) 0.2959(4)
H16 H 0.2778 0.5786 0.3027
H17 H 0.3312 0.5093 0.2428
H18 H 0.3628 0.6397 0.3015
C19 C 0.4437(3) 0.3964(8) 0.3508(4)
H19 H 0.4445 0.3505 0.2985
H20 H 0.4644 0.3278 0.3927
H21 H 0.4750 0.4858 0.3542
C20 C 0.3546(4) 0.5083(6) 0.4424(4)
H22 H 0.3008 0.5315 0.4456
H23 H 0.3848 0.5990 0.4475
H24 H 0.3737 0.4407 0.4855
C21 C 0.3350(3) 0.1042(6) 0.4487(3)
C22 C 0.4007(3) 0.1567(6) 0.4993(3)
H25 H 0.4234 0.2470 0.4871
Cl1 Cl 0.51362(9) 0.1468(2) 0.62430(10)
Cl2 Cl 0.11255(10) 0.3486(2) 0.00926(10)
I1 I 0.35042(2) 0.01618(5) 0.19351(2)
N1 N 0.2399(3) -0.0979(5) 0.4236(3)
N2 N 0.2396(2) 0.0969(4) 0.3290(2)
N3 N 0.3092(2) 0.3097(5) 0.3434(2)
H26? H 0.0736 -0.2001 0.1405
H27? H 0.1093 -0.3297 0.1938
C23? C 0.140(2) -0.332(4) 0.0895(15)
H28? H 0.1016 -0.4090 0.0771
H29? H 0.1910 -0.3781 0.1013
H30? H 0.1400 -0.2664 0.0437
loop_
_geom_bond_atom_site_label_1
_geom_bond_atom_site_label_2
_geom_bond_site_symmetry_1
_geom_bond_site_symmetry_2
P1 O1 1_555 1_555
O1 C8 1_555 1_555
O2 P1 1_555 1_555
O3 P1 1_555 1_555
C1 C2 1_555 1_555
C2 H1 1_555 1_555
C3 C2 1_555 1_555
H2 C3 1_555 1_555
C4 C3 1_555 1_555
C5 P1 1_555 1_555
C6 O2 1_555 1_555
H3 C6 1_555 1_555
H4 C6 1_555 1_555
C7 C6 1_555 1_555
H5 C7 1_555 1_555
H6 C7 1_555 1_555
H7 C7 1_555 1_555
C8 H8 1_555 1_555
H9 C8 1_555 1_555
C9 C8 1_555 1_555
H10 C9 1_555 1_555
H11 C9 1_555 1_555
H12 C9 1_555 1_555
C10 C11 1_555 1_555
C11 H13 1_555 1_555
C12 C11 1_555 1_555
C13 C12 1_555 1_555
H14 C13 1_555 1_555
C14 C13 1_555 1_555
H15 C14 1_555 1_555
C15 C10 1_555 1_555
C16 C21 1_555 1_555
C17 C18 1_555 1_555
C18 H16 1_555 1_555
H17 C18 1_555 1_555
H18 C18 1_555 1_555
C19 C17 1_555 1_555
H19 C19 1_555 1_555
H20 C19 1_555 1_555
H21 C19 1_555 1_555
C20 C17 1_555 1_555
H22 C20 1_555 1_555
H23 C20 1_555 1_555
H24 C20 1_555 1_555
C21 C4 1_555 1_555
C22 C1 1_555 1_555
H25 C22 1_555 1_555
Cl1 C1 1_555 1_555
Cl2 C12 1_555 1_555
I1 C10 1_555 1_555
N1 C4 1_555 1_555
N2 C5 1_555 1_555
N3 C16 1_555 1_555
C5 N1 1_555 1_555
C14 C15 1_555 1_555
C15 N2 1_555 1_555
C16 N2 1_555 1_555
C17 N3 1_555 1_555
C21 C22 1_555 1_555

#END
