
#######################################################################
#
#                 Cambridge Crystallographic Data Centre
#                                CCDC 
#
#######################################################################
#
# If this CIF has been generated from an entry in the Cambridge 
# Structural Database, then it will include bibliographic, chemical, 
# crystal, experimental, refinement or atomic coordinate data resulting 
# from the CCDC's data processing and validation procedures.
#
#######################################################################

data_FEYYEQ
_chemical_formula_moiety         'C22 H21 N1 O4'
_chemical_name_systematic        
'dimethyl 2,3-diphenyl-2-azabicyclo[3.2.0]hept-6-ene-6,7-dicarboxylate'
_symmetry_cell_setting           monoclinic
_symmetry_space_group_name_H-M   'P 21/n'
_symmetry_Int_Tables_number      14
_space_group_name_Hall           '-P 2yn'
loop_
_symmetry_equiv_pos_site_id
_symmetry_equiv_pos_as_xyz
1 x,y,z
2 1/2-x,1/2+y,1/2-z
3 -x,-y,-z
4 1/2+x,1/2-y,1/2+z
_cell_length_a                   8.9323(18)
_cell_length_b                   5.4480(11)
_cell_length_c                   38.734(8)
_cell_angle_alpha                90
_cell_angle_beta                 94.87(3)
_cell_angle_gamma                90
_cell_volume                     1878.11
_exptl_crystal_colour            yellow
_cell_formula_units_Z            4
_exptl_crystal_recrystallization_method dichloromethane/hexane
loop_
_atom_site_label
_atom_site_type_symbol
_atom_site_fract_x
_atom_site_fract_y
_atom_site_fract_z
O1 O 1.0101(3) 1.0595(5) 0.07553(7)
O2 O 1.0285(4) 0.6826(6) 0.05327(11)
O3 O 0.7331(3) 1.1678(5) 0.02446(6)
O4 O 0.4920(3) 1.1662(5) 0.03815(7)
N1 N 0.7622(3) 0.6687(5) 0.13844(7)
C1 C 0.5365(4) 1.0786(6) 0.19428(9)
H1 H 0.5131 1.2110 0.1788
C2 C 0.4861(4) 1.0846(7) 0.22729(10)
H2 H 0.4281 1.2195 0.2341
C3 C 0.5208(4) 0.8926(7) 0.25021(9)
H3 H 0.4867 0.8960 0.2728
C4 C 0.6059(4) 0.6950(7) 0.24002(9)
H4 H 0.6306 0.5643 0.2557
C5 C 0.6549(4) 0.6894(6) 0.20666(9)
H5 H 0.7120 0.5535 0.1997
C6 C 0.6208(4) 0.8813(7) 0.18348(9)
C7 C 0.6623(4) 0.8747(7) 0.14604(9)
H6 H 0.7107 1.0335 0.1404
C8 C 0.5217(4) 0.8329(8) 0.12083(9)
H7 H 0.4508 0.7193 0.1310
H8 H 0.4695 0.9900 0.1152
C9 C 0.5812(4) 0.7211(7) 0.08862(9)
H9 H 0.5110 0.6047 0.0755
C10 C 0.6685(4) 0.8888(7) 0.06618(9)
C11 C 0.8041(4) 0.7963(7) 0.07661(9)
C12 C 0.7383(4) 0.6109(7) 0.10116(9)
H10 H 0.7525 0.4344 0.0951
C13 C 0.9149(4) 0.6703(6) 0.15248(8)
C14 C 0.9729(4) 0.8544(7) 0.17506(9)
H11 H 0.9105 0.9871 0.1807
C15 C 1.1214(4) 0.8446(7) 0.18925(9)
H12 H 1.1590 0.9710 0.2045
C16 C 1.2147(4) 0.6541(8) 0.18149(10)
H13 H 1.3153 0.6473 0.1916
C17 C 1.1593(4) 0.4728(8) 0.15871(10)
H14 H 1.2230 0.3420 0.1529
C18 C 1.0117(4) 0.4807(7) 0.14424(10)
H15 H 0.9759 0.3558 0.1285
C19 C 0.9593(4) 0.8384(7) 0.06711(9)
C20 C 1.1594(5) 1.1181(9) 0.06515(14)
H16 H 1.2327 1.0016 0.0760
H17 H 1.1869 1.2851 0.0726
H18 H 1.1588 1.1067 0.0399
C21 C 0.6189(4) 1.0878(7) 0.04166(9)
C22 C 0.7009(5) 1.3691(7) 0.00059(10)
H19 H 0.6285 1.3153 -0.0183
H20 H 0.7939 1.4218 -0.0089
H21 H 0.6585 1.5066 0.0128
loop_
_geom_bond_atom_site_label_1
_geom_bond_atom_site_label_2
_geom_bond_site_symmetry_1
_geom_bond_site_symmetry_2
O1 C19 1_555 1_555
O2 C19 1_555 1_555
O3 C21 1_555 1_555
O4 C21 1_555 1_555
N1 C7 1_555 1_555
C1 H1 1_555 1_555
C2 C1 1_555 1_555
H2 C2 1_555 1_555
C3 C2 1_555 1_555
H3 C3 1_555 1_555
C4 C3 1_555 1_555
H4 C4 1_555 1_555
C5 C4 1_555 1_555
H5 C5 1_555 1_555
C6 C1 1_555 1_555
C7 C6 1_555 1_555
H6 C7 1_555 1_555
C8 C7 1_555 1_555
H7 C8 1_555 1_555
H8 C8 1_555 1_555
C9 C8 1_555 1_555
H9 C9 1_555 1_555
C10 C9 1_555 1_555
C11 C10 1_555 1_555
C12 N1 1_555 1_555
H10 C12 1_555 1_555
C13 N1 1_555 1_555
C14 C13 1_555 1_555
H11 C14 1_555 1_555
C15 C14 1_555 1_555
H12 C15 1_555 1_555
C16 C15 1_555 1_555
H13 C16 1_555 1_555
C17 C16 1_555 1_555
H14 C17 1_555 1_555
C18 C13 1_555 1_555
H15 C18 1_555 1_555
C19 C11 1_555 1_555
C20 O1 1_555 1_555
H16 C20 1_555 1_555
H17 C20 1_555 1_555
H18 C20 1_555 1_555
C21 C10 1_555 1_555
C22 O3 1_555 1_555
H19 C22 1_555 1_555
H20 C22 1_555 1_555
H21 C22 1_555 1_555
C5 C6 1_555 1_555
C9 C12 1_555 1_555
C11 C12 1_555 1_555
C17 C18 1_555 1_555

#END
