
#######################################################################
#
#                 Cambridge Crystallographic Data Centre
#                                CCDC 
#
#######################################################################
#
# If this CIF has been generated from an entry in the Cambridge 
# Structural Database, then it will include bibliographic, chemical, 
# crystal, experimental, refinement or atomic coordinate data resulting 
# from the CCDC's data processing and validation procedures.
#
#######################################################################

data_FEYYUE
_chemical_name_common            
'C-Isobutylcalix(4)resorcinarene pyridine-2,6-dicarboxylic acid acetonitrile solvate dihydrate'
_chemical_formula_moiety         'C44 H56 O8,C7 H5 N1 O4,0.5(C2 H3 N1),2(H2 O1)'
_chemical_name_systematic        
'2,8,14,20-Tetra-isobutyl-4,6,10,12,16,18,22,24-octahydroxycalix(4)arene pyridine-2,6-dicarboxylic acid acetonitrile solvate dihydrate'
_symmetry_cell_setting           monoclinic
_symmetry_space_group_name_H-M   'P 21/m'
_symmetry_Int_Tables_number      11
_space_group_name_Hall           '-P 2yb'
loop_
_symmetry_equiv_pos_site_id
_symmetry_equiv_pos_as_xyz
1 x,y,z
2 -x,1/2+y,-z
3 -x,-y,-z
4 x,1/2-y,z
_cell_length_a                   10.845(9)
_cell_length_b                   20.805(17)
_cell_length_c                   12.881(11)
_cell_angle_alpha                90
_cell_angle_beta                 103.884(19)
_cell_angle_gamma                90
_cell_volume                     2821.43
_exptl_crystal_colour            'light yellow'
_exptl_crystal_description       block
_chemical_melting_point          'above 340deg.C'
_cell_formula_units_Z            2
loop_
_atom_site_label
_atom_site_type_symbol
_atom_site_fract_x
_atom_site_fract_y
_atom_site_fract_z
O1 O 0.8254(3) 0.47491(17) 0.4607(3)
H1 H 0.8014 0.5052 0.4916
O2 O 0.3803(3) 0.47505(16) 0.2690(4)
H2 H 0.3780 0.5052 0.3096
O3 O 0.2547(4) 0.36224(18) 0.2892(6)
H3 H 0.2807 0.3940 0.2633
O4 O 0.9389(4) 0.36205(16) 0.5719(3)
H4 H 0.9277 0.3940 0.5335
C1 C 0.6036(4) 0.4769(2) 0.3680(5)
H6 H 0.5889 0.5109 0.4104
C2 C 0.7243(4) 0.4514(2) 0.3831(4)
C3 C 0.7482(4) 0.3997(2) 0.3230(4)
C4 C 0.6451(4) 0.3745(2) 0.2456(4)
H7 H 0.6595 0.3391 0.2061
C5 C 0.5222(4) 0.4000(2) 0.2250(5)
C6 C 0.5022(4) 0.4515(2) 0.2880(5)
C7 C 0.4145(5) 0.3720(2) 0.1341(6)
H8 H 0.343(6) 0.402(3) 0.125(5)
C8 C 0.4495(7) 0.3689(3) 0.0275(6)
H9 H 0.5161 0.3369 0.0350
H10 H 0.4882 0.4099 0.0185
C9 C 0.3689(5) 0.3087(2) 0.1710(5)
C10 C 0.9256(5) 0.3074(2) 0.5090(4)
C11 C 0.8982(4) 0.30903(18) 0.3991(4)
C12 C 0.8832(4) 0.3721(2) 0.3360(4)
H11 H 0.941(5) 0.403(3) 0.380(4)
C13 C 0.9224(5) 0.3682(2) 0.2297(5)
H12 H 0.8670 0.3378 0.1837
H13 H 1.0081 0.3513 0.2434
C14 C 0.9183(6) 0.4321(3) 0.1692(6)
H14 H 0.832(7) 0.449(4) 0.156(6)
C15 C 0.9486(16) 0.4198(6) 0.0651(10)
H15 H 0.9360 0.4584 0.0232
H16 H 0.8939 0.3866 0.0278
H17 H 1.0355 0.4063 0.0767
C16 C 1.0059(7) 0.4814(3) 0.2296(8)
H18 H 1.0904 0.4642 0.2499
H19 H 0.9786 0.4933 0.2926
H20 H 1.0052 0.5186 0.1854
C17 C 0.2925(5) 0.3074(2) 0.2452(7)
C18 C 0.2546(7) 0.2500 0.2825(11)
H21 H 0.2046 0.2500 0.3319
C19 C 0.4054(7) 0.2500 0.1378(7)
H22 H 0.4578 0.2500 0.0902
C24 C 0.3533(12) 0.3545(6) -0.0799(9)
H25 H 0.312(13) 0.313(7) -0.072(11)
C25 C 0.255(2) 0.4030(13) -0.1049(16)
H26 H 0.2923 0.4449 -0.0912
H27 H 0.1956 0.3966 -0.0611
H28 H 0.2111 0.3998 -0.1789
C26 C 0.8851(5) 0.2500 0.3459(6)
H29 H 0.8669 0.2500 0.2716
C27 C 0.9405(7) 0.2500 0.5643(6)
H30 H 0.9605 0.2500 0.6387
C28 C 0.418(2) 0.3476(10) -0.1730(11)
H31 H 0.3560 0.3345 -0.2361
H32 H 0.4838 0.3160 -0.1554
H33 H 0.4536 0.3882 -0.1859
O1C O 0.8254(3) 0.02509(17) 0.4607(3)
H1C H 0.8014 -0.0052 0.4916
O2C O 0.3803(3) 0.02495(16) 0.2690(4)
H2C H 0.3780 -0.0052 0.3096
O3C O 0.2547(4) 0.13776(18) 0.2892(6)
H3C H 0.2807 0.1060 0.2633
O4C O 0.9389(4) 0.13795(16) 0.5719(3)
H4C H 0.9277 0.1060 0.5335
C1C C 0.6036(4) 0.0231(2) 0.3680(5)
H6C H 0.5889 -0.0109 0.4104
C2C C 0.7243(4) 0.0486(2) 0.3831(4)
C3C C 0.7482(4) 0.1003(2) 0.3230(4)
C4C C 0.6451(4) 0.1255(2) 0.2456(4)
H7C H 0.6595 0.1609 0.2061
C5C C 0.5222(4) 0.1000(2) 0.2250(5)
C6C C 0.5022(4) 0.0485(2) 0.2880(5)
C7C C 0.4145(5) 0.1280(2) 0.1341(6)
H8C H 0.343(6) 0.098(3) 0.125(5)
C8C C 0.4495(7) 0.1311(3) 0.0275(6)
H9C H 0.5161 0.1631 0.0350
H10C H 0.4882 0.0901 0.0185
C9C C 0.3689(5) 0.1913(2) 0.1710(5)
C10C C 0.9256(5) 0.1926(2) 0.5090(4)
C11C C 0.8982(4) 0.19097(18) 0.3991(4)
C12C C 0.8832(4) 0.1279(2) 0.3360(4)
H11C H 0.941(5) 0.097(3) 0.380(4)
C13C C 0.9224(5) 0.1318(2) 0.2297(5)
H12C H 0.8670 0.1622 0.1837
H13C H 1.0081 0.1487 0.2434
C14C C 0.9183(6) 0.0679(3) 0.1692(6)
H14C H 0.832(7) 0.051(4) 0.156(6)
C15C C 0.9486(16) 0.0802(6) 0.0651(10)
H15C H 0.9360 0.0416 0.0232
H16C H 0.8939 0.1134 0.0278
H17C H 1.0355 0.0937 0.0767
C16C C 1.0059(7) 0.0186(3) 0.2296(8)
H18C H 1.0904 0.0358 0.2499
H19C H 0.9786 0.0067 0.2926
H20C H 1.0052 -0.0186 0.1854
C17C C 0.2925(5) 0.1926(2) 0.2452(7)
C24C C 0.3533(12) 0.1455(6) -0.0799(9)
H25C H 0.312(13) 0.187(7) -0.072(11)
C25C C 0.255(2) 0.0970(13) -0.1049(16)
H26C H 0.2923 0.0551 -0.0912
H27C H 0.1956 0.1034 -0.0611
H28C H 0.2111 0.1002 -0.1789
C28C C 0.418(2) 0.1524(10) -0.1730(11)
H31C H 0.3560 0.1655 -0.2361
H32C H 0.4838 0.1840 -0.1554
H33C H 0.4536 0.1118 -0.1859
O5 O 0.3746(4) 0.58463(17) 0.3771(4)
O6 O 0.2415(9) 0.6360(3) 0.2252(7)
H5 H 0.2195 0.6732 0.2102
N1 N 0.3280(5) 0.7500 0.3416(5)
C20 C 0.3567(5) 0.69567(19) 0.3999(4)
C21 C 0.4062(5) 0.6939(2) 0.5075(5)
H23 H 0.4246 0.6546 0.5424
C22 C 0.4285(7) 0.7500 0.5641(6)
H24 H 0.4578 0.7500 0.6382
C23 C 0.3272(5) 0.6335(2) 0.3360(5)
O5C O 0.3746(4) 0.91537(17) 0.3771(4)
O6C O 0.2415(9) 0.8640(3) 0.2252(7)
H5C H 0.2195 0.8268 0.2102
C20C C 0.3567(5) 0.80433(19) 0.3999(4)
C21C C 0.4062(5) 0.8061(2) 0.5075(5)
H23C H 0.4246 0.8454 0.5424
C23C C 0.3272(5) 0.8665(2) 0.3360(5)
O7 O 0.7934(6) 0.5989(3) 0.5035(9)
H34 H 0.766(3) 0.6336(13) 0.465(3)
H35 H 0.740(3) 0.5872(14) 0.540(2)
C29 C 1.007(3) 0.2500 0.996(5)
C30 C 0.876(3) 0.2500 1.007(3)
N2 N 0.778(3) 0.2500 1.020(4)
loop_
_geom_bond_atom_site_label_1
_geom_bond_atom_site_label_2
_geom_bond_site_symmetry_1
_geom_bond_site_symmetry_2
O1 H1 1_555 1_555
O2 H2 1_555 1_555
O3 H3 1_555 1_555
O4 H4 1_555 1_555
O5 C23 1_555 1_555
O6 H5 1_555 1_555
N1 C20 1_555 1_555
C1 H6 1_555 1_555
C2 O1 1_555 1_555
C3 C2 1_555 1_555
C4 C3 1_555 1_555
H7 C4 1_555 1_555
C5 C4 1_555 1_555
C6 O2 1_555 1_555
C7 C5 1_555 1_555
H8 C7 1_555 1_555
C8 C7 1_555 1_555
H9 C8 1_555 1_555
H10 C8 1_555 1_555
C9 C7 1_555 1_555
C10 O4 1_555 1_555
C11 C10 1_555 1_555
C12 C3 1_555 1_555
H11 C12 1_555 1_555
C13 C12 1_555 1_555
H12 C13 1_555 1_555
H13 C13 1_555 1_555
C14 C13 1_555 1_555
H14 C14 1_555 1_555
C15 C14 1_555 1_555
H15 C15 1_555 1_555
H16 C15 1_555 1_555
H17 C15 1_555 1_555
C16 C14 1_555 1_555
H18 C16 1_555 1_555
H19 C16 1_555 1_555
H20 C16 1_555 1_555
C17 O3 1_555 1_555
C18 C17 1_555 1_555
H21 C18 1_555 1_555
C19 C9 1_555 1_555
H22 C19 1_555 1_555
C20 C21 1_555 1_555
C21 H23 1_555 1_555
C22 C21 1_555 1_555
H24 C22 1_555 1_555
C23 O6 1_555 1_555
C24 C8 1_555 1_555
H25 C24 1_555 1_555
C25 C24 1_555 1_555
H26 C25 1_555 1_555
H27 C25 1_555 1_555
H28 C25 1_555 1_555
C26 C11 1_555 1_555
H29 C26 1_555 1_555
C27 C10 1_555 1_555
H30 C27 1_555 1_555
C28 C24 1_555 1_555
H31 C28 1_555 1_555
H32 C28 1_555 1_555
H33 C28 1_555 1_555
O7 H34 1_555 1_555
H35 O7 1_555 1_555
C29 C30 1_555 1_555
C30 N2 1_555 1_555
O1C H1C 1_555 1_555
O2C H2C 1_555 1_555
O3C H3C 1_555 1_555
O4C H4C 1_555 1_555
O5C C23C 1_555 1_555
O6C H5C 1_555 1_555
C1C H6C 1_555 1_555
C2C O1C 1_555 1_555
C3C C2C 1_555 1_555
C4C C3C 1_555 1_555
H7C C4C 1_555 1_555
C5C C4C 1_555 1_555
C6C O2C 1_555 1_555
C7C C5C 1_555 1_555
H8C C7C 1_555 1_555
C8C C7C 1_555 1_555
H9C C8C 1_555 1_555
H10C C8C 1_555 1_555
C9C C19 1_555 1_555
C10C C27 1_555 1_555
C11C C26 1_555 1_555
C12C C3C 1_555 1_555
H11C C12C 1_555 1_555
C13C C12C 1_555 1_555
H12C C13C 1_555 1_555
H13C C13C 1_555 1_555
C14C C13C 1_555 1_555
H14C C14C 1_555 1_555
C15C C14C 1_555 1_555
H15C C15C 1_555 1_555
H16C C15C 1_555 1_555
H17C C15C 1_555 1_555
C16C C14C 1_555 1_555
H18C C16C 1_555 1_555
H19C C16C 1_555 1_555
H20C C16C 1_555 1_555
C17C C18 1_555 1_555
C20C N1 1_555 1_555
C21C C22 1_555 1_555
H23C C21C 1_555 1_555
C23C O6C 1_555 1_555
C24C C8C 1_555 1_555
H25C C24C 1_555 1_555
C25C C24C 1_555 1_555
H26C C25C 1_555 1_555
H27C C25C 1_555 1_555
H28C C25C 1_555 1_555
C28C C24C 1_555 1_555
H31C C28C 1_555 1_555
H32C C28C 1_555 1_555
H33C C28C 1_555 1_555
C1 C2 1_555 1_555
C1 C6 1_555 1_555
C5 C6 1_555 1_555
C9 C17 1_555 1_555
C11 C12 1_555 1_555
C20 C23 1_555 1_555
O3C C17C 1_555 1_555
O4C C10C 1_555 1_555
C1C C2C 1_555 1_555
C1C C6C 1_555 1_555
C5C C6C 1_555 1_555
C7C C9C 1_555 1_555
C9C C17C 1_555 1_555
C10C C11C 1_555 1_555
C11C C12C 1_555 1_555
C20C C21C 1_555 1_555
C20C C23C 1_555 1_555

#END
