
#######################################################################
#
#                 Cambridge Crystallographic Data Centre
#                                CCDC 
#
#######################################################################
#
# If this CIF has been generated from an entry in the Cambridge 
# Structural Database, then it will include bibliographic, chemical, 
# crystal, experimental, refinement or atomic coordinate data resulting 
# from the CCDC's data processing and validation procedures.
#
#######################################################################

data_FICJAC
_chemical_name_common            Alclofenac
_chemical_formula_moiety         'C11 H11 Cl1 O3'
_chemical_name_systematic        '4-Allyloxy-3-chlorophenyl acetic acid'
_chemical_properties_biological  
'antiinflammatory agent which inhibits prostaglandin synthesis'
_symmetry_cell_setting           monoclinic
_symmetry_space_group_name_H-M   'C 2/c'
_symmetry_Int_Tables_number      15
_space_group_name_Hall           '-C 2yn'
loop_
_symmetry_equiv_pos_site_id
_symmetry_equiv_pos_as_xyz
1 x,y,z
2 1/2+x,1/2+y,z
3 -x,y,1/2-z
4 1/2-x,1/2+y,1/2-z
5 -x,-y,-z
6 1/2-x,1/2-y,-z
7 x,-y,1/2+z
8 1/2+x,1/2-y,1/2+z
_cell_length_a                   23.349(9)
_cell_length_b                   14.295(3)
_cell_length_c                   7.192(2)
_cell_angle_alpha                90
_cell_angle_beta                 111.32(3)
_cell_angle_gamma                90
_cell_volume                     2236.22
_exptl_crystal_colour            colorless
_cell_formula_units_Z            8
loop_
_atom_site_label
_atom_site_type_symbol
_atom_site_fract_x
_atom_site_fract_y
_atom_site_fract_z
H1 H 0.323(2) 0.222(3) 0.330(6)
H2 H 0.347(2) -0.044(3) 0.455(5)
H3 H 0.246(2) -0.089(3) 0.318(6)
H4 H 0.401(2) 0.178(3) 0.567(6)
H5 H 0.417(2) 0.079(3) 0.616(6)
H6 H 0.142(2) -0.108(3) 0.228(6)
H7 H 0.164(2) -0.109(3) 0.034(6)
H8 H 0.060(3) -0.052(5) -0.125(9)
H9 H 0.039(3) -0.157(4) 0.178(9)
H10 H -0.013(3) -0.133(5) -0.010(10)
H11 H 0.532(2) 0.129(3) 0.396(7)
Cl1 Cl 0.1776(1) 0.2178(1) 0.1278(2)
C1 C 0.2312(2) 0.1331(3) 0.2386(5)
C2 C 0.2897(2) 0.1599(3) 0.3365(6)
C3 C 0.3339(2) 0.0937(3) 0.4239(5)
C4 C 0.3160(2) 0.0010(3) 0.4099(6)
C5 C 0.2574(2) -0.0270(3) 0.3113(6)
C6 C 0.2135(2) 0.0390(3) 0.2245(5)
C7 C 0.3982(2) 0.1219(5) 0.5294(7)
C8 C 0.4422(2) 0.1254(3) 0.4074(6)
C9 C 0.1369(2) -0.0777(3) 0.1052(8)
C10 C 0.0723(3) -0.0837(4) -0.0058(10)
C11 C 0.0316(4) -0.1318(5) 0.0391(14)
O1 O 0.1545(1) 0.0195(2) 0.1255(4)
O2 O 0.4267(1) 0.1309(2) 0.2327(4)
O3 O 0.5006(1) 0.1256(4) 0.5022(4)
loop_
_geom_bond_atom_site_label_1
_geom_bond_atom_site_label_2
_geom_bond_site_symmetry_1
_geom_bond_site_symmetry_2
H1 C2 1_555 1_555
H2 C4 1_555 1_555
H3 C5 1_555 1_555
H4 C7 1_555 1_555
H5 C7 1_555 1_555
H6 C9 1_555 1_555
H7 C9 1_555 1_555
H8 C10 1_555 1_555
H9 C11 1_555 1_555
H10 C11 1_555 1_555
H11 O3 1_555 1_555
Cl1 C1 1_555 1_555
C1 C2 1_555 1_555
C2 C3 1_555 1_555
C3 C4 1_555 1_555
C4 C5 1_555 1_555
C5 C6 1_555 1_555
C6 C1 1_555 1_555
C7 C3 1_555 1_555
C8 C7 1_555 1_555
C9 C10 1_555 1_555
C10 C11 1_555 1_555
O1 C6 1_555 1_555
O2 C8 1_555 1_555
O3 C8 1_555 1_555
C9 O1 1_555 1_555

#END
