
#######################################################################
#
#                 Cambridge Crystallographic Data Centre
#                                CCDC 
#
#######################################################################
#
# If this CIF has been generated from an entry in the Cambridge 
# Structural Database, then it will include bibliographic, chemical, 
# crystal, experimental, refinement or atomic coordinate data resulting 
# from the CCDC's data processing and validation procedures.
#
#######################################################################

data_FICMAI
_chemical_formula_moiety         'C27 H22 O2'
_chemical_name_systematic        
3'-methylidene-2,6-diphenyl-4H-spiro[cyclohexane-1,2'-indene]-1',4(3'H)-dione
_symmetry_cell_setting           triclinic
_symmetry_space_group_name_H-M   'P -1'
_symmetry_Int_Tables_number      2
_space_group_name_Hall           '-P 1'
loop_
_symmetry_equiv_pos_site_id
_symmetry_equiv_pos_as_xyz
1 x,y,z
2 -x,-y,-z
_cell_length_a                   9.406(5)
_cell_length_b                   10.699(5)
_cell_length_c                   11.526(5)
_cell_angle_alpha                106.520(5)
_cell_angle_beta                 91.391(5)
_cell_angle_gamma                114.439(5)
_cell_volume                     998.928
_exptl_crystal_colour            colorless
_exptl_crystal_description       plate
_cell_formula_units_Z            2
loop_
_atom_site_label
_atom_site_type_symbol
_atom_site_fract_x
_atom_site_fract_y
_atom_site_fract_z
O1 O 0.4316(2) -0.40250(18) 0.27339(18)
O2 O 0.70572(17) 0.06339(17) 0.51116(13)
C1 C 0.5894(2) 0.0685(2) 0.21964(17)
C2 C 0.5043(2) 0.1212(2) 0.3006(2)
H1 H 0.4756 0.0857 0.3656
C3 C 0.4622(3) 0.2257(3) 0.2855(2)
H2 H 0.4049 0.2592 0.3403
C4 C 0.5035(3) 0.2808(3) 0.1910(2)
H3 H 0.4742 0.3507 0.1813
C5 C 0.5887(3) 0.2314(3) 0.1109(2)
H4 H 0.6190 0.2693 0.0474
C6 C 0.6300(3) 0.1254(2) 0.12430(19)
H5 H 0.6859 0.0916 0.0683
C7 C 0.6322(2) -0.0507(2) 0.23028(17)
H6 H 0.6424 -0.1005 0.1475
C8 C 0.4972(2) -0.1653(2) 0.2698(2)
H7 H 0.4663 -0.1150 0.3412
H8 H 0.4068 -0.2145 0.2044
C9 C 0.5319(3) -0.2779(2) 0.2997(2)
C10 C 0.6918(2) -0.2276(2) 0.3698(2)
H9 H 0.7101 -0.3116 0.3649
H10 H 0.6930 -0.1802 0.4554
C11 C 0.8283(2) -0.1221(2) 0.32388(18)
H11 H 0.9208 -0.0782 0.3882
C12 C 0.7940(2) 0.0072(2) 0.31245(16)
C13 C 0.8726(2) -0.2010(2) 0.20971(19)
C14 C 0.7623(3) -0.3102(2) 0.1116(2)
H12 H 0.6553 -0.3373 0.1146
C15 C 0.8069(4) -0.3806(3) 0.0089(2)
H13 H 0.7307 -0.4533 -0.0564
C16 C 0.9653(5) -0.3417(4) 0.0047(3)
H14 H 0.9964 -0.3885 -0.0636
C17 C 1.0764(4) -0.2349(4) 0.1005(3)
H15 H 1.1833 -0.2085 0.0971
C18 C 1.0310(3) -0.1655(3) 0.2027(2)
H16 H 1.1080 -0.0937 0.2680
C19 C 0.9697(3) 0.0881(3) 0.1569(2)
H17 H 1.0564 0.1595 0.1398
H18 H 0.9096 0.0003 0.0957
C20 C 0.8008(2) 0.1003(2) 0.44294(17)
C21 C 0.9414(2) 0.2398(2) 0.47346(18)
C22 C 0.9974(3) 0.3553(2) 0.58328(19)
H19 H 0.9447 0.3509 0.6504
C23 C 1.1341(3) 0.4762(3) 0.5885(2)
H20 H 1.1752 0.5549 0.6605
C24 C 1.2105(3) 0.4818(3) 0.4877(3)
H21 H 1.3024 0.5646 0.4937
C25 C 1.1551(2) 0.3695(2) 0.3793(2)
H22 H 1.2077 0.3756 0.3124
C26 C 1.0175(2) 0.2453(2) 0.37177(18)
C27 C 0.9317(2) 0.1117(2) 0.26859(18)
loop_
_geom_bond_atom_site_label_1
_geom_bond_atom_site_label_2
_geom_bond_site_symmetry_1
_geom_bond_site_symmetry_2
O1 C9 1_555 1_555
O2 C20 1_555 1_555
C1 C2 1_555 1_555
C2 H1 1_555 1_555
C3 C2 1_555 1_555
H2 C3 1_555 1_555
C4 C3 1_555 1_555
H3 C4 1_555 1_555
C5 C4 1_555 1_555
H4 C5 1_555 1_555
C6 C1 1_555 1_555
H5 C6 1_555 1_555
C7 C1 1_555 1_555
H6 C7 1_555 1_555
C8 C7 1_555 1_555
H7 C8 1_555 1_555
H8 C8 1_555 1_555
C9 C8 1_555 1_555
C10 C9 1_555 1_555
H9 C10 1_555 1_555
H10 C10 1_555 1_555
C11 C10 1_555 1_555
H11 C11 1_555 1_555
C12 C7 1_555 1_555
C13 C11 1_555 1_555
C14 C13 1_555 1_555
H12 C14 1_555 1_555
C15 C14 1_555 1_555
H13 C15 1_555 1_555
C16 C15 1_555 1_555
H14 C16 1_555 1_555
C17 C16 1_555 1_555
H15 C17 1_555 1_555
C18 C13 1_555 1_555
H16 C18 1_555 1_555
C19 H17 1_555 1_555
H18 C19 1_555 1_555
C20 C12 1_555 1_555
C21 C20 1_555 1_555
C22 C21 1_555 1_555
H19 C22 1_555 1_555
C23 C22 1_555 1_555
H20 C23 1_555 1_555
C24 C23 1_555 1_555
H21 C24 1_555 1_555
C25 C24 1_555 1_555
H22 C25 1_555 1_555
C26 C21 1_555 1_555
C27 C12 1_555 1_555
C5 C6 1_555 1_555
C11 C12 1_555 1_555
C17 C18 1_555 1_555
C19 C27 1_555 1_555
C25 C26 1_555 1_555
C26 C27 1_555 1_555

#END
