
#######################################################################
#
#                 Cambridge Crystallographic Data Centre
#                                CCDC 
#
#######################################################################
#
# If this CIF has been generated from an entry in the Cambridge 
# Structural Database, then it will include bibliographic, chemical, 
# crystal, experimental, refinement or atomic coordinate data resulting 
# from the CCDC's data processing and validation procedures.
#
#######################################################################

data_FICQEO
_chemical_formula_moiety         'C12 H16 Cl1 P1 Se1'
_chemical_name_systematic        
'P-Cyclohexyl-P-phenylphosphinoselenoic chloride'
_symmetry_cell_setting           monoclinic
_symmetry_space_group_name_H-M   'P 21/c'
_symmetry_Int_Tables_number      14
_space_group_name_Hall           '-P 2ybc'
loop_
_symmetry_equiv_pos_site_id
_symmetry_equiv_pos_as_xyz
1 x,y,z
2 -x,1/2+y,1/2-z
3 -x,-y,-z
4 x,1/2-y,1/2+z
_cell_length_a                   9.605(4)
_cell_length_b                   12.504(5)
_cell_length_c                   12.317(5)
_cell_angle_alpha                90
_cell_angle_beta                 115.094(4)
_cell_angle_gamma                90
_cell_volume                     1339.66
_exptl_crystal_colour            colorless
_exptl_crystal_description       block
_chemical_melting_point          79-81deg.C.(dec.)
_cell_formula_units_Z            4
loop_
_atom_site_label
_atom_site_type_symbol
_atom_site_fract_x
_atom_site_fract_y
_atom_site_fract_z
Se1 Se 0.42354(4) 0.09665(3) 0.07480(3)
Cl1 Cl 0.29298(10) 0.33536(6) 0.13530(8)
P1 P 0.36463(7) 0.18269(5) 0.19384(5)
C1 C 0.2032(3) 0.1305(2) 0.2157(2)
C2 C 0.1294(3) 0.0385(2) 0.1571(2)
C3 C 0.0056(3) -0.0015(3) 0.1740(3)
C4 C -0.0440(3) 0.0504(3) 0.2488(3)
C5 C 0.0296(4) 0.1412(3) 0.3085(3)
C6 C 0.1530(3) 0.1818(2) 0.2924(3)
C7 C 0.5181(3) 0.2052(2) 0.3423(2)
C8 C 0.6569(3) 0.2615(2) 0.3379(2)
C9 C 0.7845(3) 0.2749(2) 0.4644(3)
C10 C 0.8284(3) 0.1702(3) 0.5312(3)
C11 C 0.6902(3) 0.1157(3) 0.5341(3)
C12 C 0.5641(3) 0.0995(2) 0.4092(3)
H1 H 0.1656 0.0021 0.1046
H2 H -0.0460 -0.0644 0.1332
H3 H -0.1289 0.0251 0.2623
H4 H -0.0085 0.1764 0.3593
H5 H 0.2036 0.2461 0.3340
H6 H 0.4778 0.2506 0.3849
H7 H 0.6981 0.2186 0.2935
H8 H 0.6296 0.3293 0.3007
H9 H 0.8715 0.3076 0.4605
H10 H 0.7462 0.3227 0.5074
H11 H 0.8744 0.1244 0.4930
H12 H 0.9045 0.1825 0.6121
H13 H 0.7193 0.0471 0.5728
H14 H 0.6510 0.1580 0.5795
H15 H 0.4774 0.0680 0.4160
H16 H 0.6008 0.0521 0.3674
loop_
_geom_bond_atom_site_label_1
_geom_bond_atom_site_label_2
_geom_bond_site_symmetry_1
_geom_bond_site_symmetry_2
Se1 P1 1_555 1_555
Cl1 P1 1_555 1_555
P1 C1 1_555 1_555
C1 C2 1_555 1_555
C2 C3 1_555 1_555
C3 C4 1_555 1_555
C4 C5 1_555 1_555
C5 C6 1_555 1_555
C6 C1 1_555 1_555
C7 P1 1_555 1_555
C8 C7 1_555 1_555
C9 C8 1_555 1_555
C10 C9 1_555 1_555
C11 C10 1_555 1_555
C12 C7 1_555 1_555
H1 C2 1_555 1_555
H2 C3 1_555 1_555
H3 C4 1_555 1_555
H4 C5 1_555 1_555
H5 C6 1_555 1_555
H6 C7 1_555 1_555
H7 C8 1_555 1_555
H8 C8 1_555 1_555
H9 C9 1_555 1_555
H10 C9 1_555 1_555
H11 C10 1_555 1_555
H12 C10 1_555 1_555
H13 C11 1_555 1_555
H14 C11 1_555 1_555
H15 C12 1_555 1_555
H16 C12 1_555 1_555
C11 C12 1_555 1_555

#END
