
#######################################################################
#
#                 Cambridge Crystallographic Data Centre
#                                CCDC 
#
#######################################################################
#
# If this CIF has been generated from an entry in the Cambridge 
# Structural Database, then it will include bibliographic, chemical, 
# crystal, experimental, refinement or atomic coordinate data resulting 
# from the CCDC's data processing and validation procedures.
#
#######################################################################

data_FICYOH
_chemical_formula_moiety         'C13 H15 Cl1 N2 O1'
_chemical_name_systematic        
1-(4-Chlorophenyl)-2-(1,3-diazepan-2-ylidene)ethanone
_symmetry_cell_setting           triclinic
_symmetry_space_group_name_H-M   'P -1'
_symmetry_Int_Tables_number      2
_space_group_name_Hall           '-P 1'
loop_
_symmetry_equiv_pos_site_id
_symmetry_equiv_pos_as_xyz
1 x,y,z
2 -x,-y,-z
_cell_length_a                   10.779(4)
_cell_length_b                   10.815(3)
_cell_length_c                   12.158(4)
_cell_angle_alpha                96.091(4)
_cell_angle_beta                 110.710(4)
_cell_angle_gamma                101.244(4)
_cell_volume                     1276.39
_exptl_crystal_colour            white
_exptl_crystal_description       block
_cell_formula_units_Z            4
loop_
_atom_site_label
_atom_site_type_symbol
_atom_site_fract_x
_atom_site_fract_y
_atom_site_fract_z
Cl1 Cl 0.01481(9) 0.17456(9) 0.95043(7)
O1 O 0.2480(2) 0.42103(17) 0.56002(18)
N1 N 0.3217(2) 0.1261(2) 0.3506(2)
H1 H 0.3486 0.0677 0.3921
N2 N 0.3187(2) 0.3421(2) 0.3784(2)
H2 H 0.2633 0.3913 0.3810
C1 C 0.3117(3) 0.1092(3) 0.2266(3)
H3 H 0.2231 0.1235 0.1755
H4 H 0.3110 0.0192 0.2005
C2 C 0.4259(4) 0.1975(3) 0.2056(3)
H5 H 0.4211 0.1679 0.1239
H6 H 0.5153 0.1917 0.2634
C3 C 0.4181(4) 0.3370(3) 0.2190(3)
H7 H 0.4910 0.3887 0.1993
H8 H 0.3287 0.3428 0.1612
C4 C 0.4338(3) 0.3927(3) 0.3444(3)
H9 H 0.5178 0.3768 0.4022
H10 H 0.4473 0.4869 0.3519
C5 C 0.2926(3) 0.2248(2) 0.4058(2)
C6 C 0.2356(3) 0.2047(2) 0.4922(2)
H11 H 0.2061 0.1188 0.5006
C7 C 0.2198(3) 0.3026(2) 0.5660(2)
C8 C 0.1675(3) 0.2680(2) 0.6605(2)
C9 C 0.0618(3) 0.1599(3) 0.6392(2)
H12 H 0.0222 0.1047 0.5628
C10 C 0.0134(3) 0.1315(3) 0.7275(3)
H13 H -0.0601 0.0587 0.7118
C11 C 0.0741(3) 0.2111(3) 0.8384(2)
C12 C 0.1789(3) 0.3185(3) 0.8625(3)
H14 H 0.2196 0.3719 0.9398
C13 C 0.2243(3) 0.3477(3) 0.7732(3)
H15 H 0.2950 0.4229 0.7887
Cl2 Cl 0.43184(9) 0.64786(9) 0.02814(7)
O2 O 0.3033(2) 0.92241(17) 0.48282(17)
N3 N 0.1989(2) 0.8486(2) 0.6444(2)
H16 H 0.1868 0.9035 0.5954
N4 N 0.1648(2) 0.6291(2) 0.6502(2)
H17 H 0.2118 0.5704 0.6555
C14 C 0.2192(3) 0.8941(3) 0.7685(3)
H18 H 0.2364 0.9889 0.7827
H19 H 0.3023 0.8726 0.8219
C15 C 0.1006(3) 0.8396(3) 0.8037(3)
H20 H 0.0144 0.8483 0.7429
H21 H 0.1138 0.8906 0.8813
C16 C 0.0865(4) 0.6990(3) 0.8145(3)
H22 H 0.1724 0.6903 0.8755
H23 H 0.0117 0.6713 0.8427
C17 C 0.0566(3) 0.6115(3) 0.6977(3)
H24 H 0.0362 0.5216 0.7089
H25 H -0.0273 0.6239 0.6366
C18 C 0.1976(3) 0.7281(2) 0.5993(2)
C19 C 0.2322(3) 0.7060(2) 0.4985(2)
H26 H 0.2198 0.6194 0.4635
C20 C 0.2834(3) 0.8023(2) 0.4467(2)
C21 C 0.3180(3) 0.7624(2) 0.3414(2)
C22 C 0.2356(3) 0.6569(3) 0.2512(3)
H27 H 0.1552 0.6079 0.2564
C23 C 0.2687(3) 0.6221(3) 0.1543(3)
H28 H 0.2111 0.5508 0.0927
C24 C 0.3869(3) 0.6927(3) 0.1485(2)
C25 C 0.4705(3) 0.7977(3) 0.2366(3)
H29 H 0.5520 0.8451 0.2319
C26 C 0.4345(3) 0.8334(3) 0.3316(2)
H30 H 0.4901 0.9073 0.3908
loop_
_geom_bond_atom_site_label_1
_geom_bond_atom_site_label_2
_geom_bond_site_symmetry_1
_geom_bond_site_symmetry_2
Cl1 C11 1_555 1_555
O1 C7 1_555 1_555
N1 H1 1_555 1_555
N2 H2 1_555 1_555
C1 N1 1_555 1_555
H3 C1 1_555 1_555
H4 C1 1_555 1_555
C2 C1 1_555 1_555
H5 C2 1_555 1_555
H6 C2 1_555 1_555
C3 C2 1_555 1_555
H7 C3 1_555 1_555
H8 C3 1_555 1_555
C4 N2 1_555 1_555
H9 C4 1_555 1_555
H10 C4 1_555 1_555
C5 N1 1_555 1_555
C6 C5 1_555 1_555
H11 C6 1_555 1_555
C7 C6 1_555 1_555
C8 C7 1_555 1_555
C9 C8 1_555 1_555
H12 C9 1_555 1_555
C10 C9 1_555 1_555
H13 C10 1_555 1_555
C11 C10 1_555 1_555
C12 C11 1_555 1_555
H14 C12 1_555 1_555
C13 C8 1_555 1_555
H15 C13 1_555 1_555
Cl2 C24 1_555 1_555
O2 C20 1_555 1_555
N3 H16 1_555 1_555
N4 H17 1_555 1_555
C14 N3 1_555 1_555
H18 C14 1_555 1_555
H19 C14 1_555 1_555
C15 C14 1_555 1_555
H20 C15 1_555 1_555
H21 C15 1_555 1_555
C16 C15 1_555 1_555
H22 C16 1_555 1_555
H23 C16 1_555 1_555
C17 N4 1_555 1_555
H24 C17 1_555 1_555
H25 C17 1_555 1_555
C18 N3 1_555 1_555
C19 C18 1_555 1_555
H26 C19 1_555 1_555
C20 C19 1_555 1_555
C21 C20 1_555 1_555
C22 C21 1_555 1_555
H27 C22 1_555 1_555
C23 C22 1_555 1_555
H28 C23 1_555 1_555
C24 C23 1_555 1_555
C25 C24 1_555 1_555
H29 C25 1_555 1_555
C26 C21 1_555 1_555
H30 C26 1_555 1_555
N2 C5 1_555 1_555
C3 C4 1_555 1_555
C12 C13 1_555 1_555
N4 C18 1_555 1_555
C16 C17 1_555 1_555
C25 C26 1_555 1_555

#END
