
#######################################################################
#
#                 Cambridge Crystallographic Data Centre
#                                CCDC 
#
#######################################################################
#
# If this CIF has been generated from an entry in the Cambridge 
# Structural Database, then it will include bibliographic, chemical, 
# crystal, experimental, refinement or atomic coordinate data resulting 
# from the CCDC's data processing and validation procedures.
#
#######################################################################

data_FIDLUA
_chemical_formula_moiety         'C12 H12 N2 S1,C13 H12 O2'
_chemical_name_systematic        
'4-(4-Hydroxybenzyl)phenol 4-(4-aminophenylsulfanyl)aniline'
_symmetry_cell_setting           monoclinic
_symmetry_space_group_name_H-M   'P 21/n'
_symmetry_Int_Tables_number      14
_space_group_name_Hall           '-P 2yn'
loop_
_symmetry_equiv_pos_site_id
_symmetry_equiv_pos_as_xyz
1 x,y,z
2 1/2-x,1/2+y,1/2-z
3 -x,-y,-z
4 1/2+x,1/2-y,1/2+z
_cell_length_a                   5.25280(10)
_cell_length_b                   42.3571(6)
_cell_length_c                   9.42140(10)
_cell_angle_alpha                90
_cell_angle_beta                 94.8010(10)
_cell_angle_gamma                90
_cell_volume                     2088.84
_exptl_crystal_colour            colorless
_exptl_crystal_description       cube
_cell_formula_units_Z            4
loop_
_atom_site_label
_atom_site_type_symbol
_atom_site_fract_x
_atom_site_fract_y
_atom_site_fract_z
O1 O 0.3507(2) -0.13105(2) 1.10365(12)
O2 O 0.5089(2) -0.35664(2) 1.07047(12)
C2 C 0.8277(3) -0.20859(3) 1.05719(16)
C3 C 0.5058(3) -0.15651(3) 1.08477(15)
C6 C 0.6266(3) -0.20232(3) 0.95527(16)
C13 C 0.7066(3) -0.16222(3) 1.18645(15)
C15 C 0.9464(3) -0.29403(4) 0.97275(17)
C18 C 0.6311(3) -0.32803(3) 1.06210(15)
C19 C 0.8635(3) -0.26855(3) 1.04938(16)
C20 C 0.8652(3) -0.18810(3) 1.17205(16)
C21 C 0.8330(3) -0.32351(4) 0.97912(16)
C22 C 0.4667(3) -0.17665(3) 0.96788(16)
C23 C 0.6612(3) -0.27366(3) 1.13341(17)
C24 C 0.5452(3) -0.30296(4) 1.14023(16)
C25 C 0.9988(3) -0.23699(4) 1.0445(2)
H2 H 1.006(3) -0.1918(4) 1.2441(18)
H3 H 0.733(3) -0.1483(4) 1.2673(17)
H7 H 0.598(3) -0.2165(4) 0.8780(18)
H9 H 0.600(3) -0.2563(4) 1.1903(19)
H11 H 0.406(4) -0.3063(4) 1.197(2)
H13 H 0.326(3) -0.1723(4) 0.8978(19)
H16 H 1.089(4) -0.2357(4) 0.955(2)
H17 H 0.892(3) -0.3406(4) 0.9266(19)
H19 H 1.136(4) -0.2362(4) 1.122(2)
H20 H 1.086(4) -0.2913(4) 0.917(2)
H22 H 0.240(4) -0.1290(4) 1.030(2)
H23 H 0.572(4) -0.3700(5) 1.014(2)
N1 N -0.1896(3) 0.09887(3) 0.62274(15)
N2 N 0.0203(2) -0.11312(3) 0.86549(14)
C1 C 0.3698(3) -0.08726(3) 0.75609(15)
C4 C 0.3662(3) 0.05710(3) 0.80676(15)
C5 C 0.3912(3) 0.03145(3) 0.71696(14)
C7 C 0.0935(3) -0.05625(3) 0.89176(15)
C8 C 0.0333(3) 0.05069(3) 0.56358(15)
C9 C 0.4430(3) -0.03119(3) 0.78527(14)
C10 C 0.2351(3) -0.02951(3) 0.86761(14)
C11 C 0.1743(3) 0.07935(3) 0.77565(15)
C12 C 0.0035(3) 0.07606(3) 0.65557(15)
C14 C 0.5089(3) -0.06027(3) 0.72992(15)
C16 C 0.1579(3) -0.08540(3) 0.83576(14)
C17 C 0.2246(3) 0.02864(3) 0.59450(15)
S1 S 0.63297(6) 0.002647(8) 0.75660(4)
H1 H 0.413(3) -0.1073(4) 0.7195(17)
H4 H -0.051(3) -0.0550(4) 0.9470(18)
H5 H -0.233(3) 0.1091(4) 0.697(2)
H6 H -0.082(3) 0.0480(4) 0.4782(18)
H8 H 0.155(3) 0.0965(4) 0.8384(18)
H10 H 0.650(3) -0.0617(4) 0.6737(18)
H12 H 0.189(3) -0.0103(4) 0.9081(18)
H14 H 0.008(3) -0.1263(4) 0.789(2)
H15 H -0.135(4) -0.1086(4) 0.8865(18)
H18 H 0.482(3) 0.0596(4) 0.8903(19)
H21 H 0.249(3) 0.0117(4) 0.5307(19)
H24 H -0.328(4) 0.0898(5) 0.576(2)
loop_
_geom_bond_atom_site_label_1
_geom_bond_atom_site_label_2
_geom_bond_site_symmetry_1
_geom_bond_site_symmetry_2
O1 C3 1_555 1_555
O2 C18 1_555 1_555
N1 C12 1_555 1_555
N2 C16 1_555 1_555
C1 C14 1_555 1_555
C2 C6 1_555 1_555
C3 C13 1_555 1_555
C4 C5 1_555 1_555
C5 C17 1_555 1_555
C6 C22 1_555 1_555
C7 C10 1_555 1_555
C8 C12 1_555 1_555
C9 C10 1_555 1_555
C10 H12 1_555 1_555
C11 C4 1_555 1_555
C12 C11 1_555 1_555
C13 C20 1_555 1_555
C14 C9 1_555 1_555
C15 C19 1_555 1_555
C16 C1 1_555 1_555
C17 C8 1_555 1_555
C18 C21 1_555 1_555
C19 C23 1_555 1_555
C20 C2 1_555 1_555
C21 C15 1_555 1_555
C22 C3 1_555 1_555
C23 C24 1_555 1_555
C24 C18 1_555 1_555
C25 C2 1_555 1_555
S1 C5 1_555 1_555
H1 C1 1_555 1_555
H2 C20 1_555 1_555
H3 C13 1_555 1_555
H4 C7 1_555 1_555
H5 N1 1_555 1_555
H6 C8 1_555 1_555
H7 C6 1_555 1_555
H8 C11 1_555 1_555
H9 C23 1_555 1_555
H10 C14 1_555 1_555
H11 C24 1_555 1_555
H13 C22 1_555 1_555
H14 N2 1_555 1_555
H15 N2 1_555 1_555
H16 C25 1_555 1_555
H17 C21 1_555 1_555
H18 C4 1_555 1_555
H19 C25 1_555 1_555
H20 C15 1_555 1_555
H21 C17 1_555 1_555
H22 O1 1_555 1_555
H23 O2 1_555 1_555
H24 N1 1_555 1_555
C7 C16 1_555 1_555
C9 S1 1_555 1_555
C19 C25 1_555 1_555

#END
