
#######################################################################
#
#                 Cambridge Crystallographic Data Centre
#                                CCDC 
#
#######################################################################
#
# If this CIF has been generated from an entry in the Cambridge 
# Structural Database, then it will include bibliographic, chemical, 
# crystal, experimental, refinement or atomic coordinate data resulting 
# from the CCDC's data processing and validation procedures.
#
#######################################################################

data_FIDMOW
_chemical_formula_moiety         'C21 H14 Cl2 N4 O3'
_chemical_name_systematic        
"Methyl 6'-amino-5-chloro-1'-(4-chlorophenyl)-5'-cyano-2-oxo-1,2-dihydro-1'H-spiro[indole-3,4'-pyridine]-3'-carboxylate unknown solvate"
_symmetry_cell_setting           monoclinic
_symmetry_space_group_name_H-M   'P 21/c'
_symmetry_Int_Tables_number      14
_space_group_name_Hall           '-P 2ybc'
loop_
_symmetry_equiv_pos_site_id
_symmetry_equiv_pos_as_xyz
1 x,y,z
2 -x,1/2+y,1/2-z
3 -x,-y,-z
4 x,1/2-y,1/2+z
_cell_length_a                   9.3039(11)
_cell_length_b                   22.262(3)
_cell_length_c                   13.8435(13)
_cell_angle_alpha                90
_cell_angle_beta                 116.985(6)
_cell_angle_gamma                90
_cell_volume                     2555.14
_cell_formula_units_Z            4
loop_
_atom_site_label
_atom_site_type_symbol
_atom_site_fract_x
_atom_site_fract_y
_atom_site_fract_z
Cl1 Cl 0.78609(8) -0.48193(4) 0.55334(6)
Cl2 Cl -0.17476(14) -0.29946(5) 0.67235(8)
O1 O 0.14532(15) -0.33067(6) 0.05726(10)
O2 O 0.14331(16) -0.47425(6) 0.13282(11)
O3 O -0.04912(16) -0.47652(6) 0.18816(12)
N1 N 0.38851(18) -0.37959(7) 0.12310(12)
H1 H 0.4033 -0.3777 0.0662
N2 N 0.4873(2) -0.23091(8) 0.27032(17)
N3 N 0.2536(2) -0.23618(7) 0.41805(14)
H2 H 0.3186 -0.2102 0.4134
H3 H 0.2053 -0.2286 0.4569
N4 N 0.11846(18) -0.32766(6) 0.37482(12)
C1 C 0.5256(2) -0.42410(8) 0.39954(16)
H4 H 0.4888 -0.4205 0.4515
C2 C 0.6717(2) -0.45314(9) 0.42292(18)
C3 C 0.7273(2) -0.45933(9) 0.3472(2)
H5 H 0.8237 -0.4795 0.3650
C4 C 0.6402(2) -0.43564(9) 0.24378(19)
H6 H 0.6777 -0.4391 0.1921
C5 C 0.4963(2) -0.40689(8) 0.21987(15)
C6 C 0.4390(2) -0.40124(7) 0.29697(14)
C7 C 0.28204(18) -0.36568(7) 0.24728(12)
C8 C 0.2995(2) -0.30424(7) 0.30101(14)
C9 C 0.4032(2) -0.26294(8) 0.28578(15)
C10 C 0.2277(2) -0.28854(7) 0.36466(14)
C11 C 0.0726(2) -0.37873(7) 0.31135(13)
H7 H -0.0100 -0.4018 0.3124
C12 C 0.13853(19) -0.39754(7) 0.24837(13)
C13 C 0.2574(2) -0.35636(7) 0.12910(14)
C14 C 0.08092(19) -0.45257(7) 0.18427(13)
C15 C -0.1103(3) -0.53199(12) 0.1285(2)
H8 H -0.0425 -0.5648 0.1685
H9 H -0.1108 -0.5290 0.0591
H10 H -0.2182 -0.5389 0.1182
C16 C 0.0502(2) -0.31791(8) 0.44841(14)
C17 C -0.1087(3) -0.30111(10) 0.40802(18)
H11 H -0.1696 -0.2935 0.3344
C18 C -0.1774(3) -0.29562(12) 0.4780(2)
H12 H -0.2851 -0.2846 0.4518
C19 C -0.0851(4) -0.30663(12) 0.5859(2)
C20 C 0.0722(4) -0.32218(13) 0.6268(2)
H13 H 0.1334 -0.3287 0.7008
C21 C 0.1408(3) -0.32824(11) 0.55726(17)
H14 H 0.2485 -0.3393 0.5843
loop_
_geom_bond_atom_site_label_1
_geom_bond_atom_site_label_2
_geom_bond_site_symmetry_1
_geom_bond_site_symmetry_2
Cl1 C2 1_555 1_555
Cl2 C19 1_555 1_555
O1 C13 1_555 1_555
O2 C14 1_555 1_555
O3 C14 1_555 1_555
N1 H1 1_555 1_555
N2 C9 1_555 1_555
N3 H2 1_555 1_555
H3 N3 1_555 1_555
N4 C10 1_555 1_555
C1 H4 1_555 1_555
C2 C1 1_555 1_555
C3 C2 1_555 1_555
H5 C3 1_555 1_555
C4 C3 1_555 1_555
H6 C4 1_555 1_555
C5 N1 1_555 1_555
C6 C1 1_555 1_555
C7 C6 1_555 1_555
C8 C7 1_555 1_555
C9 C8 1_555 1_555
C10 N3 1_555 1_555
C11 N4 1_555 1_555
H7 C11 1_555 1_555
C12 C7 1_555 1_555
C13 N1 1_555 1_555
C14 C12 1_555 1_555
C15 O3 1_555 1_555
H8 C15 1_555 1_555
H9 C15 1_555 1_555
H10 C15 1_555 1_555
C16 N4 1_555 1_555
C17 C16 1_555 1_555
H11 C17 1_555 1_555
C18 C17 1_555 1_555
H12 C18 1_555 1_555
C19 C18 1_555 1_555
C20 C19 1_555 1_555
H13 C20 1_555 1_555
C21 C16 1_555 1_555
H14 C21 1_555 1_555
C4 C5 1_555 1_555
C5 C6 1_555 1_555
C7 C13 1_555 1_555
C8 C10 1_555 1_555
C11 C12 1_555 1_555
C20 C21 1_555 1_555

#END
