
#######################################################################
#
#                 Cambridge Crystallographic Data Centre
#                                CCDC 
#
#######################################################################
#
# If this CIF has been generated from an entry in the Cambridge 
# Structural Database, then it will include bibliographic, chemical, 
# crystal, experimental, refinement or atomic coordinate data resulting 
# from the CCDC's data processing and validation procedures.
#
#######################################################################

data_FIDYOJ
_chemical_formula_moiety         'C16 H24 N4'
_chemical_name_systematic        
N^2^-ethyl-N^2^,N^4^-di-isopropylquinazoline-2,4-diamine
_symmetry_cell_setting           monoclinic
_symmetry_space_group_name_H-M   'C c'
_symmetry_Int_Tables_number      9
_space_group_name_Hall           'C -2yc'
loop_
_symmetry_equiv_pos_site_id
_symmetry_equiv_pos_as_xyz
1 x,y,z
2 x,-y,1/2+z
3 1/2+x,1/2+y,z
4 1/2+x,1/2-y,1/2+z
_cell_length_a                   11.6764(3)
_cell_length_b                   13.5154(2)
_cell_length_c                   11.4870(3)
_cell_angle_alpha                90
_cell_angle_beta                 116.666(3)
_cell_angle_gamma                90
_cell_volume                     1619.97
_exptl_crystal_colour            colorless
_exptl_crystal_description       block
_cell_formula_units_Z            4
loop_
_atom_site_label
_atom_site_type_symbol
_atom_site_fract_x
_atom_site_fract_y
_atom_site_fract_z
N1 N -0.52075(9) -0.62280(7) -0.45397(9)
N2 N -0.74548(10) -0.65837(8) -0.53504(9)
N3 N -0.67232(10) -0.53524(9) -0.62516(10)
N4 N -0.36576(10) -0.70102(8) -0.27696(11)
C1 C -0.64714(11) -0.60832(8) -0.53489(10)
C2 C -0.71447(11) -0.72628(8) -0.43667(10)
C3 C -0.58793(11) -0.74532(8) -0.34376(10)
C4 C -0.49000(11) -0.68890(8) -0.35932(10)
C5 C -0.56310(12) -0.81510(9) -0.24453(11)
H1 H -0.479147 -0.827574 -0.183354
C6 C -0.81484(13) -0.78001(10) -0.42860(13)
H2 H -0.899253 -0.769113 -0.489701
C7 C -0.56648(14) -0.48466(10) -0.63528(14)
H3 H -0.500941 -0.469138 -0.548344
H4 H -0.597624 -0.422704 -0.681363
C8 C -0.78822(14) -0.84805(11) -0.33112(14)
H5 H -0.854908 -0.883321 -0.327432
C9 C -0.66265(15) -0.86504(10) -0.23757(14)
H6 H -0.646132 -0.910007 -0.170612
C10 C -0.26407(13) -0.64399(10) -0.28733(13)
H7 H -0.296908 -0.577378 -0.318021
C11 C -0.8127(2) -0.39015(14) -0.6651(2)
H8 H -0.781789 -0.384465 -0.572532
H9 H -0.900586 -0.369278 -0.708339
H10 H -0.762028 -0.349094 -0.692245
C12 C -0.15065(15) -0.63483(12) -0.15356(16)
H11 H -0.178849 -0.607691 -0.093570
H12 H -0.087438 -0.591986 -0.158586
H13 H -0.113913 -0.699027 -0.123921
C13 C -0.50682(18) -0.54489(14) -0.70513(18)
H14 H -0.570422 -0.558834 -0.792264
H15 H -0.474379 -0.605908 -0.659309
H16 H -0.437839 -0.508121 -0.708108
C14 C -0.22572(18) -0.69054(17) -0.38509(19)
H17 H -0.190833 -0.755211 -0.355403
H18 H -0.162401 -0.649911 -0.393505
H19 H -0.299697 -0.695897 -0.468119
C15 C -0.80283(14) -0.49713(11) -0.69999(14)
H20 H -0.859344 -0.536332 -0.675624
C16 C -0.8493(2) -0.51011(15) -0.84570(17)
H21 H -0.795664 -0.472593 -0.872786
H22 H -0.936104 -0.487092 -0.891471
H23 H -0.845593 -0.578830 -0.864842
H24 H -0.3418(18) -0.7418(14) -0.2112(19)
loop_
_geom_bond_atom_site_label_1
_geom_bond_atom_site_label_2
_geom_bond_site_symmetry_1
_geom_bond_site_symmetry_2
N1 C1 1_555 1_555
N2 C1 1_555 1_555
N3 C1 1_555 1_555
N4 C4 1_555 1_555
C2 N2 1_555 1_555
C3 C2 1_555 1_555
C4 N1 1_555 1_555
C5 C3 1_555 1_555
H1 C5 1_555 1_555
C6 C2 1_555 1_555
H2 C6 1_555 1_555
C7 N3 1_555 1_555
H3 C7 1_555 1_555
H4 C7 1_555 1_555
C8 C6 1_555 1_555
H5 C8 1_555 1_555
C9 C5 1_555 1_555
H6 C9 1_555 1_555
C10 N4 1_555 1_555
H7 C10 1_555 1_555
C11 H8 1_555 1_555
H9 C11 1_555 1_555
H10 C11 1_555 1_555
C12 C10 1_555 1_555
H11 C12 1_555 1_555
H12 C12 1_555 1_555
H13 C12 1_555 1_555
C13 C7 1_555 1_555
H14 C13 1_555 1_555
H15 C13 1_555 1_555
H16 C13 1_555 1_555
C14 C10 1_555 1_555
H17 C14 1_555 1_555
H18 C14 1_555 1_555
H19 C14 1_555 1_555
C15 N3 1_555 1_555
H20 C15 1_555 1_555
C16 C15 1_555 1_555
H21 C16 1_555 1_555
H22 C16 1_555 1_555
H23 C16 1_555 1_555
H24 N4 1_555 1_555
C3 C4 1_555 1_555
C8 C9 1_555 1_555
C11 C15 1_555 1_555

#END
