
#######################################################################
#
#                 Cambridge Crystallographic Data Centre
#                                CCDC 
#
#######################################################################
#
# If this CIF has been generated from an entry in the Cambridge 
# Structural Database, then it will include bibliographic, chemical, 
# crystal, experimental, refinement or atomic coordinate data resulting 
# from the CCDC's data processing and validation procedures.
#
#######################################################################

data_FIDZUP
_chemical_formula_moiety         'C47 H44 N4 O2'
_chemical_name_systematic        
3',6'-bis(Diethylamino)-2-(2-((pyren-1-ylmethylene)amino)ethyl)spiro[isoindole-1,9'-xanthen]-3(2H)-one
_symmetry_cell_setting           monoclinic
_symmetry_space_group_name_H-M   'C 2/c'
_symmetry_Int_Tables_number      15
_space_group_name_Hall           '-C 2yn'
loop_
_symmetry_equiv_pos_site_id
_symmetry_equiv_pos_as_xyz
1 x,y,z
2 -x,y,1/2-z
3 1/2+x,1/2+y,z
4 1/2-x,1/2+y,1/2-z
5 -x,-y,-z
6 x,-y,1/2+z
7 1/2-x,1/2-y,-z
8 1/2+x,1/2-y,1/2+z
_cell_length_a                   23.9547(15)
_cell_length_b                   8.7450(4)
_cell_length_c                   36.317(2)
_cell_angle_alpha                90
_cell_angle_beta                 103.866(4)
_cell_angle_gamma                90
_cell_volume                     7386.12
_exptl_crystal_colour            'light brown'
_exptl_crystal_description       plate
_cell_formula_units_Z            8
loop_
_atom_site_label
_atom_site_type_symbol
_atom_site_fract_x
_atom_site_fract_y
_atom_site_fract_z
O1 O 0.56811(11) 0.8542(3) 0.54971(8)
O2 O 0.54738(10) 0.6962(3) 0.71809(7)
N1 N 0.56628(12) 0.7797(3) 0.61020(8)
N2 N 0.73412(14) 0.8640(3) 0.77829(10)
N3 N 0.36603(13) 0.4647(4) 0.67442(9)
N4 N 0.67384(12) 0.4783(3) 0.60592(9)
C1 C 0.55663(14) 0.8784(4) 0.58059(12)
C2 C 0.58857(14) 0.6274(3) 0.60742(10)
H1 H 0.5713 0.5846 0.5820
H2 H 0.5778 0.5603 0.6266
C3 C 0.65361(15) 0.6304(4) 0.61383(11)
H3 H 0.6649 0.7069 0.5969
H4 H 0.6714 0.6595 0.6404
C4 C 0.70335(14) 0.4711(4) 0.58156(10)
H5 H 0.7128 0.5632 0.5706
C5 C 0.54749(15) 0.8361(3) 0.64421(10)
C6 C 0.52603(15) 0.9944(3) 0.62989(11)
C7 C 0.53079(15) 1.0162(3) 0.59337(11)
C8 C 0.51303(17) 1.1503(4) 0.57386(12)
H6 H 0.5160 1.1639 0.5484
C9 C 0.49074(19) 1.2641(4) 0.59283(14)
H7 H 0.4777 1.3572 0.5802
C10 C 0.48737(19) 1.2435(4) 0.62988(14)
H8 H 0.4733 1.3244 0.6426
C11 C 0.50410(17) 1.1073(4) 0.64906(12)
H9 H 0.5006 1.0924 0.6743
C12 C 0.59665(15) 0.8453(3) 0.67949(10)
C13 C 0.59414(15) 0.7786(3) 0.71325(11)
C14 C 0.63760(16) 0.7879(4) 0.74616(11)
H10 H 0.6325 0.7419 0.7688
C15 C 0.68913(16) 0.8648(4) 0.74633(11)
C16 C 0.69168(17) 0.9366(4) 0.71223(12)
H11 H 0.7249 0.9942 0.7113
C17 C 0.64770(17) 0.9262(4) 0.68031(11)
H12 H 0.6518 0.9756 0.6578
C18 C 0.78402(18) 0.9679(4) 0.78293(13)
H13 H 0.7789 1.0547 0.7993
H14 H 0.7854 1.0098 0.7578
C19 C 0.84039(19) 0.8894(5) 0.80017(14)
H15 H 0.8720 0.9626 0.8023
H16 H 0.8459 0.8039 0.7840
H17 H 0.8398 0.8509 0.8254
C20 C 0.72447(17) 0.8008(4) 0.81449(12)
H18 H 0.7054 0.6999 0.8094
H19 H 0.7621 0.7854 0.8326
C21 C 0.68836(19) 0.9037(5) 0.83190(13)
H20 H 0.6830 0.8578 0.8554
H21 H 0.6508 0.9180 0.8142
H22 H 0.7075 1.0030 0.8375
C22 C 0.49974(14) 0.7362(3) 0.65196(10)
C23 C 0.50168(15) 0.6739(4) 0.68704(10)
C24 C 0.45867(15) 0.5838(4) 0.69465(10)
H23 H 0.4623 0.5446 0.7195
C25 C 0.41020(16) 0.5499(4) 0.66639(11)
C26 C 0.40777(16) 0.6107(4) 0.63014(11)
H24 H 0.3754 0.5897 0.6099
C27 C 0.45116(15) 0.6990(4) 0.62382(10)
H25 H 0.4482 0.7373 0.5989
C28 C 0.3127(2) 0.4297(6) 0.64487(13)
H26 H 0.2807 0.4096 0.6572
H27 H 0.3021 0.5190 0.6279
C29 C 0.3213(3) 0.2968(5) 0.62272(16)
H28 H 0.2858 0.2752 0.6035
H29 H 0.3314 0.2082 0.6395
H30 H 0.3525 0.3174 0.6102
C30 C 0.37390(17) 0.3830(4) 0.71040(12)
H31 H 0.3358 0.3465 0.7127
H32 H 0.3880 0.4569 0.7312
C31 C 0.4145(2) 0.2477(4) 0.71639(13)
H33 H 0.4160 0.2017 0.7412
H34 H 0.4531 0.2822 0.7154
H35 H 0.4008 0.1717 0.6964
C32 C 0.72363(14) 0.3260(4) 0.56955(9)
C33 C 0.77444(14) 0.3185(3) 0.55632(9)
C34 C 0.79044(14) 0.1757(3) 0.54330(9)
C35 C 0.75677(15) 0.0444(3) 0.54365(10)
C36 C 0.70666(15) 0.0572(4) 0.55687(10)
H36 H 0.6831 -0.0301 0.5569
C37 C 0.69117(15) 0.1947(4) 0.56984(10)
H37 H 0.6575 0.1999 0.5792
C38 C 0.81173(15) 0.4478(4) 0.55608(10)
H38 H 0.8023 0.5432 0.5655
C39 C 0.85985(15) 0.4370(4) 0.54278(10)
H39 H 0.8829 0.5253 0.5427
C40 C 0.77501(16) -0.0966(4) 0.53028(11)
H40 H 0.7522 -0.1854 0.5303
C41 C 0.82301(17) -0.1078(4) 0.51783(11)
H41 H 0.8337 -0.2042 0.5096
C42 C 0.84231(14) 0.1653(4) 0.52965(9)
C43 C 0.87654(15) 0.2958(4) 0.52897(10)
C44 C 0.92637(16) 0.2828(4) 0.51535(11)
H42 H 0.9496 0.3701 0.5144
C45 C 0.94155(17) 0.1416(5) 0.50324(12)
H43 H 0.9759 0.1335 0.4947
C46 C 0.90867(17) 0.0141(5) 0.50324(11)
H44 H 0.9198 -0.0801 0.4941
C47 C 0.85844(16) 0.0216(4) 0.51671(10)
loop_
_geom_bond_atom_site_label_1
_geom_bond_atom_site_label_2
_geom_bond_site_symmetry_1
_geom_bond_site_symmetry_2
O1 C1 1_555 1_555
O2 C13 1_555 1_555
N1 C1 1_555 1_555
N2 C15 1_555 1_555
N3 C25 1_555 1_555
N4 C3 1_555 1_555
C1 C7 1_555 1_555
C2 N1 1_555 1_555
H1 C2 1_555 1_555
H2 C2 1_555 1_555
C3 C2 1_555 1_555
H3 C3 1_555 1_555
H4 C3 1_555 1_555
C4 N4 1_555 1_555
H5 C4 1_555 1_555
C5 N1 1_555 1_555
C6 C5 1_555 1_555
C7 C6 1_555 1_555
C8 C7 1_555 1_555
H6 C8 1_555 1_555
C9 C8 1_555 1_555
H7 C9 1_555 1_555
C10 C9 1_555 1_555
H8 C10 1_555 1_555
C11 C6 1_555 1_555
H9 C11 1_555 1_555
C12 C5 1_555 1_555
C13 C12 1_555 1_555
C14 C13 1_555 1_555
H10 C14 1_555 1_555
C15 C14 1_555 1_555
C16 C15 1_555 1_555
H11 C16 1_555 1_555
C17 C12 1_555 1_555
H12 C17 1_555 1_555
C18 N2 1_555 1_555
H13 C18 1_555 1_555
H14 C18 1_555 1_555
C19 C18 1_555 1_555
H15 C19 1_555 1_555
H16 C19 1_555 1_555
H17 C19 1_555 1_555
C20 N2 1_555 1_555
H18 C20 1_555 1_555
H19 C20 1_555 1_555
C21 C20 1_555 1_555
H20 C21 1_555 1_555
H21 C21 1_555 1_555
H22 C21 1_555 1_555
C22 C5 1_555 1_555
C23 O2 1_555 1_555
C24 C23 1_555 1_555
H23 C24 1_555 1_555
C25 C24 1_555 1_555
C26 C25 1_555 1_555
H24 C26 1_555 1_555
C27 C22 1_555 1_555
H25 C27 1_555 1_555
C28 N3 1_555 1_555
H26 C28 1_555 1_555
H27 C28 1_555 1_555
C29 C28 1_555 1_555
H28 C29 1_555 1_555
H29 C29 1_555 1_555
H30 C29 1_555 1_555
C30 N3 1_555 1_555
H31 C30 1_555 1_555
H32 C30 1_555 1_555
C31 C30 1_555 1_555
H33 C31 1_555 1_555
H34 C31 1_555 1_555
H35 C31 1_555 1_555
C32 C4 1_555 1_555
C33 C32 1_555 1_555
C34 C33 1_555 1_555
C35 C34 1_555 1_555
C36 C35 1_555 1_555
H36 C36 1_555 1_555
C37 C32 1_555 1_555
H37 C37 1_555 1_555
C38 C33 1_555 1_555
H38 C38 1_555 1_555
C39 C38 1_555 1_555
H39 C39 1_555 1_555
C40 C35 1_555 1_555
H40 C40 1_555 1_555
C41 C40 1_555 1_555
H41 C41 1_555 1_555
C42 C34 1_555 1_555
C43 C39 1_555 1_555
C44 C43 1_555 1_555
H42 C44 1_555 1_555
C45 C44 1_555 1_555
H43 C45 1_555 1_555
C46 C45 1_555 1_555
H44 C46 1_555 1_555
C47 C41 1_555 1_555
C10 C11 1_555 1_555
C16 C17 1_555 1_555
C22 C23 1_555 1_555
C26 C27 1_555 1_555
C36 C37 1_555 1_555
C42 C43 1_555 1_555
C42 C47 1_555 1_555
C46 C47 1_555 1_555

#END
