
#######################################################################
#
#                 Cambridge Crystallographic Data Centre
#                                CCDC 
#
#######################################################################
#
# If this CIF has been generated from an entry in the Cambridge 
# Structural Database, then it will include bibliographic, chemical, 
# crystal, experimental, refinement or atomic coordinate data resulting 
# from the CCDC's data processing and validation procedures.
#
#######################################################################

data_FIFDOP
_chemical_formula_moiety         'C28 H21 Br1 N2 O3'
_chemical_name_systematic        
N-(1-(4-Bromophenyl)-3-phenylprop-2-en-1-yl)-4-nitro-N-phenylbenzamide
_symmetry_cell_setting           triclinic
_symmetry_space_group_name_H-M   'P -1'
_symmetry_Int_Tables_number      2
_space_group_name_Hall           '-P 1'
loop_
_symmetry_equiv_pos_site_id
_symmetry_equiv_pos_as_xyz
1 x,y,z
2 -x,-y,-z
_cell_length_a                   11.7470(8)
_cell_length_b                   12.8990(10)
_cell_length_c                   15.9804(12)
_cell_angle_alpha                102.110(2)
_cell_angle_beta                 90.224(2)
_cell_angle_gamma                91.077(2)
_cell_volume                     2367.04
_exptl_crystal_colour            colorless
_exptl_crystal_description       prismatic
_cell_formula_units_Z            4
loop_
_atom_site_label
_atom_site_type_symbol
_atom_site_fract_x
_atom_site_fract_y
_atom_site_fract_z
Br1 Br 0.41303(3) 0.16670(3) 0.47487(3)
N1 N 0.0387(2) -0.0491(2) 0.71678(15)
N2 N 0.1737(3) -0.3745(3) 0.9532(2)
O1 O -0.08616(18) -0.18547(18) 0.66865(15)
O2 O 0.1119(3) -0.3950(3) 1.0076(2)
O3 O 0.2737(3) -0.3981(2) 0.9470(2)
C1 C -0.0096(2) -0.1458(3) 0.71710(19)
C2 C 0.0396(2) -0.2058(2) 0.77863(18)
C3 C -0.0318(3) -0.2481(3) 0.8320(2)
H1 H -0.1101 -0.2396 0.8290
C4 C 0.0123(3) -0.3027(3) 0.8897(2)
H2 H -0.0353 -0.3287 0.9273
C5 C 0.1261(3) -0.3180(3) 0.8910(2)
C6 C 0.1980(3) -0.2820(3) 0.8353(2)
H3 H 0.2752 -0.2965 0.8354
C7 C 0.1554(2) -0.2248(3) 0.7797(2)
H4 H 0.2039 -0.1987 0.7428
C8 C -0.0042(3) 0.0094(3) 0.6514(2)
H5 H -0.0450 -0.0426 0.6075
C9 C -0.0892(3) 0.0893(3) 0.6917(2)
H6 H -0.0626 0.1521 0.7267
C10 C -0.1997(3) 0.0750(3) 0.6799(2)
H7 H -0.2230 0.0138 0.6413
C11 C -0.2914(3) 0.1450(3) 0.7208(2)
C12 C -0.2727(3) 0.2277(3) 0.7901(3)
H8 H -0.1990 0.2424 0.8114
C13 C -0.3597(4) 0.2882(3) 0.8280(3)
H9 H -0.3450 0.3438 0.8744
C14 C -0.4686(3) 0.2675(3) 0.7979(3)
H10 H -0.5281 0.3079 0.8246
C15 C -0.4898(3) 0.1889(4) 0.7299(3)
H11 H -0.5636 0.1770 0.7083
C16 C -0.4018(3) 0.1245(3) 0.6911(2)
H12 H -0.4177 0.0682 0.6454
C17 C 0.0958(2) 0.0128(2) 0.79100(19)
C18 C 0.0397(3) 0.0364(3) 0.8676(2)
H13 H -0.0350 0.0123 0.8707
C19 C 0.0915(4) 0.0946(4) 0.9396(2)
H14 H 0.0525 0.1082 0.9912
C20 C 0.2003(4) 0.1327(3) 0.9361(3)
H15 H 0.2355 0.1727 0.9849
C21 C 0.2564(3) 0.1116(3) 0.8605(3)
H16 H 0.3299 0.1384 0.8574
C22 C 0.2057(3) 0.0510(3) 0.7887(2)
H17 H 0.2461 0.0356 0.7379
C23 C 0.0962(3) 0.0512(3) 0.60751(19)
C24 C 0.1821(3) -0.0169(3) 0.5760(2)
H18 H 0.1762 -0.0876 0.5804
C25 C 0.2769(3) 0.0174(3) 0.5381(2)
H19 H 0.3351 -0.0290 0.5183
C26 C 0.2840(3) 0.1205(3) 0.5300(2)
C27 C 0.1992(3) 0.1890(3) 0.5590(2)
H20 H 0.2044 0.2590 0.5525
C28 C 0.1055(3) 0.1543(3) 0.5979(2)
H21 H 0.0479 0.2014 0.6180
Br2 Br 0.91261(3) 0.32382(3) 0.47882(3)
N3 N 0.6904(3) 1.1028(3) 0.9544(2)
N4 N 0.5372(2) 0.6561(2) 0.71793(15)
O4 O 0.41808(19) 0.76795(19) 0.66940(15)
O5 O 0.7930(2) 1.1150(2) 0.9560(2)
O6 O 0.6265(3) 1.1626(2) 1.00084(19)
C29 C 0.4930(2) 0.7531(3) 0.71892(19)
C30 C 0.5451(2) 0.8445(2) 0.77991(19)
C31 C 0.4774(3) 0.9155(3) 0.8326(2)
H22 H 0.3987 0.9061 0.8294
C32 C 0.5238(3) 0.9999(3) 0.8897(2)
H23 H 0.4775 1.0468 0.9259
C33 C 0.6391(3) 1.0138(3) 0.8927(2)
C34 C 0.7092(3) 0.9474(3) 0.8386(2)
H24 H 0.7875 0.9598 0.8399
C35 C 0.6616(2) 0.8624(3) 0.7824(2)
H25 H 0.7082 0.8164 0.7457
C36 C 0.4949(3) 0.5647(3) 0.65165(19)
H26 H 0.4563 0.5942 0.6077
C37 C 0.4073(3) 0.5029(3) 0.6891(2)
H27 H 0.4319 0.4575 0.7233
C38 C 0.2980(3) 0.5090(3) 0.6764(2)
H28 H 0.2771 0.5489 0.6368
C39 C 0.2038(3) 0.4614(3) 0.7163(2)
C40 C 0.2195(3) 0.4080(3) 0.7804(3)
H29 H 0.2931 0.3963 0.7975
C41 C 0.1273(4) 0.3705(3) 0.8209(3)
H30 H 0.1395 0.3347 0.8648
C42 C 0.0205(3) 0.3863(3) 0.7962(3)
H31 H -0.0409 0.3640 0.8250
C43 C 0.0016(3) 0.4333(4) 0.7313(3)
H32 H -0.0725 0.4393 0.7123
C44 C 0.0939(3) 0.4744(3) 0.6908(2)
H33 H 0.0803 0.5101 0.6470
C45 C 0.5870(2) 0.6333(2) 0.79453(19)
C46 C 0.5260(3) 0.6508(3) 0.8684(2)
H34 H 0.4535 0.6785 0.8687
C47 C 0.5699(4) 0.6281(4) 0.9428(2)
H35 H 0.5276 0.6414 0.9929
C48 C 0.6757(4) 0.5860(3) 0.9423(3)
H36 H 0.7058 0.5699 0.9918
C49 C 0.7368(3) 0.5676(3) 0.8686(3)
H37 H 0.8086 0.5383 0.8682
C50 C 0.6941(3) 0.5918(3) 0.7947(2)
H38 H 0.7375 0.5802 0.7452
C51 C 0.5961(3) 0.5023(3) 0.60831(19)
C52 C 0.6852(3) 0.5560(3) 0.5795(2)
H39 H 0.6814 0.6291 0.5851
C53 C 0.7805(3) 0.5037(3) 0.5423(2)
H40 H 0.8410 0.5411 0.5246
C54 C 0.7832(3) 0.3969(3) 0.5323(2)
C55 C 0.6970(3) 0.3406(3) 0.5588(3)
H41 H 0.7008 0.2673 0.5518
C56 C 0.6034(3) 0.3942(3) 0.5966(2)
H42 H 0.5437 0.3560 0.6146
loop_
_geom_bond_atom_site_label_1
_geom_bond_atom_site_label_2
_geom_bond_site_symmetry_1
_geom_bond_site_symmetry_2
Br1 C26 1_555 1_555
N1 C1 1_555 1_555
N2 O2 1_555 1_555
O1 C1 1_555 1_555
O3 N2 1_555 1_555
C1 C2 1_555 1_555
C2 C3 1_555 1_555
C3 H1 1_555 1_555
C4 C3 1_555 1_555
H2 C4 1_555 1_555
C5 N2 1_555 1_555
C6 C5 1_555 1_555
H3 C6 1_555 1_555
C7 C2 1_555 1_555
H4 C7 1_555 1_555
C8 N1 1_555 1_555
H5 C8 1_555 1_555
C9 C8 1_555 1_555
H6 C9 1_555 1_555
C10 C9 1_555 1_555
H7 C10 1_555 1_555
C11 C10 1_555 1_555
C12 C11 1_555 1_555
H8 C12 1_555 1_555
C13 C12 1_555 1_555
H9 C13 1_555 1_555
C14 C13 1_555 1_555
H10 C14 1_555 1_555
C15 C14 1_555 1_555
H11 C15 1_555 1_555
C16 C11 1_555 1_555
H12 C16 1_555 1_555
C17 N1 1_555 1_555
C18 C17 1_555 1_555
H13 C18 1_555 1_555
C19 C18 1_555 1_555
H14 C19 1_555 1_555
C20 C19 1_555 1_555
H15 C20 1_555 1_555
C21 C20 1_555 1_555
H16 C21 1_555 1_555
C22 C17 1_555 1_555
H17 C22 1_555 1_555
C23 C8 1_555 1_555
C24 C23 1_555 1_555
H18 C24 1_555 1_555
C25 C24 1_555 1_555
H19 C25 1_555 1_555
C26 C25 1_555 1_555
C27 C26 1_555 1_555
H20 C27 1_555 1_555
C28 C23 1_555 1_555
H21 C28 1_555 1_555
Br2 C54 1_555 1_555
N3 O5 1_555 1_555
N4 C29 1_555 1_555
O4 C29 1_555 1_555
O6 N3 1_555 1_555
C29 C30 1_555 1_555
C30 C31 1_555 1_555
C31 H22 1_555 1_555
C32 C31 1_555 1_555
H23 C32 1_555 1_555
C33 N3 1_555 1_555
C34 C33 1_555 1_555
H24 C34 1_555 1_555
C35 C30 1_555 1_555
H25 C35 1_555 1_555
C36 N4 1_555 1_555
H26 C36 1_555 1_555
C37 C36 1_555 1_555
H27 C37 1_555 1_555
C38 C37 1_555 1_555
H28 C38 1_555 1_555
C39 C38 1_555 1_555
C40 C39 1_555 1_555
H29 C40 1_555 1_555
C41 C40 1_555 1_555
H30 C41 1_555 1_555
C42 C41 1_555 1_555
H31 C42 1_555 1_555
C43 C42 1_555 1_555
H32 C43 1_555 1_555
C44 C39 1_555 1_555
H33 C44 1_555 1_555
C45 N4 1_555 1_555
C46 C45 1_555 1_555
H34 C46 1_555 1_555
C47 C46 1_555 1_555
H35 C47 1_555 1_555
C48 C47 1_555 1_555
H36 C48 1_555 1_555
C49 C48 1_555 1_555
H37 C49 1_555 1_555
C50 C45 1_555 1_555
H38 C50 1_555 1_555
C51 C36 1_555 1_555
C52 C51 1_555 1_555
H39 C52 1_555 1_555
C53 C52 1_555 1_555
H40 C53 1_555 1_555
C54 C53 1_555 1_555
C55 C54 1_555 1_555
H41 C55 1_555 1_555
C56 C51 1_555 1_555
H42 C56 1_555 1_555
C4 C5 1_555 1_555
C6 C7 1_555 1_555
C15 C16 1_555 1_555
C21 C22 1_555 1_555
C27 C28 1_555 1_555
C32 C33 1_555 1_555
C34 C35 1_555 1_555
C43 C44 1_555 1_555
C49 C50 1_555 1_555
C55 C56 1_555 1_555

#END
