
#######################################################################
#
#                 Cambridge Crystallographic Data Centre
#                                CCDC 
#
#######################################################################
#
# If this CIF has been generated from an entry in the Cambridge 
# Structural Database, then it will include bibliographic, chemical, 
# crystal, experimental, refinement or atomic coordinate data resulting 
# from the CCDC's data processing and validation procedures.
#
#######################################################################

data_FIFSUJ
_chemical_formula_moiety         'C84 H54 N12'
_chemical_name_systematic        hexakis(4-(7-Azaindolyl)phenyl)benzene
_symmetry_cell_setting           monoclinic
_symmetry_space_group_name_H-M   'P 21/n'
_symmetry_Int_Tables_number      14
_space_group_name_Hall           '-P 2yn'
loop_
_symmetry_equiv_pos_site_id
_symmetry_equiv_pos_as_xyz
1 x,y,z
2 1/2-x,1/2+y,1/2-z
3 -x,-y,-z
4 1/2+x,1/2-y,1/2+z
_cell_length_a                   17.099(5)
_cell_length_b                   12.510(4)
_cell_length_c                   29.612(9)
_cell_angle_alpha                90
_cell_angle_beta                 90.397(7)
_cell_angle_gamma                90
_cell_volume                     6334.11
_exptl_crystal_colour            'light yellow'
_exptl_crystal_description       block
_cell_formula_units_Z            4
_exptl_crystal_preparation       luminescent
loop_
_atom_site_label
_atom_site_type_symbol
_atom_site_fract_x
_atom_site_fract_y
_atom_site_fract_z
N1 N 0.75979(19) 0.8243(3) -0.02556(12)
N2 N 0.8336(2) 0.6616(3) -0.02488(13)
N3 N 0.89983(19) 0.7070(3) 0.20569(12)
N4 N 0.9554(2) 0.8755(3) 0.18514(12)
N5 N 0.62932(18) 0.7227(3) 0.38300(13)
N6 N 0.67199(19) 0.9018(3) 0.39829(13)
N7 N 0.2213(2) 0.7598(3) 0.33495(12)
N8 N 0.1460(2) 0.5982(3) 0.32814(13)
N9 N 0.08881(18) 0.6901(3) 0.10637(11)
N10 N 0.05497(19) 0.8548(3) 0.07052(13)
N11 N 0.37853(19) 0.7304(3) -0.07589(12)
N12 N 0.4592(2) 0.5857(3) -0.10078(13)
C1 C 0.6038(2) 0.7683(4) 0.08179(14)
C2 C 0.6362(2) 0.8670(4) 0.07536(14)
H1 H 0.6234 0.9228 0.0947
C3 C 0.6884(2) 0.8849(3) 0.04018(15)
H2 H 0.7104 0.9523 0.0365
C4 C 0.7076(2) 0.8040(4) 0.01090(15)
C5 C 0.6754(2) 0.7047(3) 0.01758(14)
H3 H 0.6878 0.6488 -0.0018
C6 C 0.6247(2) 0.6874(3) 0.05270(14)
H4 H 0.6041 0.6194 0.0569
C7 C 0.7650(3) 0.9181(4) -0.04897(15)
H5 H 0.7318 0.9763 -0.0452
C8 C 0.8248(3) 0.9144(4) -0.07814(17)
H6 H 0.8397 0.9684 -0.0979
C9 C 0.8602(3) 0.8149(4) -0.07342(17)
C10 C 0.9239(3) 0.7636(5) -0.0919(2)
H7 H 0.9534 0.7949 -0.1146
C11 C 0.9411(3) 0.6649(5) -0.0752(2)
H8 H 0.9856 0.6302 -0.0856
C12 C 0.8966(3) 0.6151(4) -0.0441(2)
H9 H 0.9097 0.5458 -0.0355
C13 C 0.8189(3) 0.7582(4) -0.04053(15)
C14 C 0.6603(2) 0.7434(4) 0.17369(13)
C15 C 0.7000(2) 0.6485(4) 0.16444(13)
H10 H 0.6729 0.5918 0.1513
C16 C 0.7787(2) 0.6367(4) 0.17434(14)
H11 H 0.8041 0.5724 0.1686
C17 C 0.8189(2) 0.7218(4) 0.19294(14)
C18 C 0.7815(2) 0.8178(4) 0.20088(14)
H12 H 0.8092 0.8753 0.2128
C19 C 0.7019(2) 0.8284(3) 0.19096(13)
H13 H 0.6769 0.8933 0.1960
C20 C 0.9270(3) 0.6148(4) 0.22643(17)
H14 H 0.8970 0.5550 0.2332
C21 C 1.0048(3) 0.6261(5) 0.23531(17)
H15 H 1.0373 0.5753 0.2486
C22 C 1.0271(3) 0.7281(4) 0.22071(16)
C23 C 1.0960(3) 0.7836(5) 0.22054(18)
H16 H 1.1420 0.7548 0.2322
C24 C 1.0933(3) 0.8842(5) 0.20215(19)
H17 H 1.1390 0.9243 0.2008
C25 C 1.0239(3) 0.9276(4) 0.18554(16)
H18 H 1.0251 0.9968 0.1741
C26 C 0.9613(2) 0.7790(4) 0.20200(15)
C27 C 0.5511(2) 0.7402(4) 0.24792(14)
C28 C 0.5425(2) 0.8261(3) 0.27618(15)
H19 H 0.5175 0.8874 0.2658
C29 C 0.5707(2) 0.8221(3) 0.32013(14)
H20 H 0.5655 0.8814 0.3388
C30 C 0.6062(2) 0.7312(4) 0.33621(15)
C31 C 0.6169(2) 0.6449(4) 0.30812(16)
H21 H 0.6425 0.5840 0.3185
C32 C 0.5892(2) 0.6499(3) 0.26416(14)
H22 H 0.5962 0.5916 0.2451
C33 C 0.6236(2) 0.6303(4) 0.40754(18)
H23 H 0.6080 0.5643 0.3962
C34 C 0.6443(3) 0.6506(4) 0.45120(17)
H24 H 0.6439 0.6018 0.4749
C35 C 0.6665(2) 0.7585(4) 0.45394(17)
C36 C 0.6945(3) 0.8247(5) 0.48790(16)
H25 H 0.7016 0.8004 0.5173
C37 C 0.7111(3) 0.9273(5) 0.4759(2)
H26 H 0.7299 0.9750 0.4975
C38 C 0.7001(2) 0.9611(4) 0.4319(2)
H27 H 0.7136 1.0313 0.4252
C39 C 0.6573(2) 0.8031(4) 0.41054(16)
C40 C 0.3827(2) 0.7446(4) 0.22837(13)
C41 C 0.3653(2) 0.6562(4) 0.25313(15)
H28 H 0.3899 0.5919 0.2463
C42 C 0.3119(3) 0.6591(4) 0.28823(15)
H29 H 0.3015 0.5976 0.3048
C43 C 0.2748(2) 0.7521(4) 0.29816(14)
C44 C 0.2902(2) 0.8422(4) 0.27249(15)
H30 H 0.2646 0.9061 0.2787
C45 C 0.3427(2) 0.8377(3) 0.23819(14)
H31 H 0.3518 0.8985 0.2210
C46 C 0.2203(3) 0.8469(4) 0.36309(17)
H32 H 0.2534 0.9057 0.3611
C47 C 0.1630(3) 0.8332(4) 0.39451(16)
H33 H 0.1506 0.8807 0.4175
C48 C 0.1258(3) 0.7344(4) 0.38590(16)
C49 C 0.0663(3) 0.6766(5) 0.40492(17)
H34 H 0.0410 0.7010 0.4306
C50 C 0.0452(3) 0.5825(5) 0.3851(2)
H35 H 0.0040 0.5428 0.3967
C51 C 0.0847(3) 0.5467(4) 0.34841(19)
H36 H 0.0688 0.4818 0.3360
C52 C 0.1630(3) 0.6884(4) 0.34804(16)
C53 C 0.3290(2) 0.7289(3) 0.13533(13)
C54 C 0.2928(3) 0.6344(4) 0.13849(19)
H37 H 0.3219 0.5748 0.1471
C55 C 0.2139(3) 0.6220(4) 0.1295(2)
H38 H 0.1909 0.5552 0.1329
C56 C 0.1703(2) 0.7044(4) 0.11587(13)
C57 C 0.2053(2) 0.8000(4) 0.11143(17)
H39 H 0.1763 0.8589 0.1019
C58 C 0.2847(2) 0.8116(4) 0.12097(16)
H40 H 0.3079 0.8783 0.1173
C59 C 0.0459(3) 0.6002(4) 0.11818(16)
H41 H 0.0663 0.5398 0.1323
C60 C -0.0293(3) 0.6134(4) 0.10625(17)
H42 H -0.0693 0.5643 0.1108
C61 C -0.0371(3) 0.7119(4) 0.08611(16)
C62 C -0.0981(3) 0.7720(4) 0.06760(17)
H43 H -0.1489 0.7455 0.0667
C63 C -0.0818(3) 0.8669(5) 0.05151(18)
H44 H -0.1214 0.9083 0.0388
C64 C -0.0059(3) 0.9061(4) 0.05323(15)
H45 H 0.0028 0.9738 0.0413
C65 C 0.0370(2) 0.7601(4) 0.08655(14)
C66 C 0.4401(2) 0.7425(4) 0.06197(14)
C67 C 0.4303(2) 0.6456(4) 0.04027(15)
H46 H 0.4378 0.5825 0.0563
C68 C 0.4093(2) 0.6412(4) -0.00477(16)
H47 H 0.4032 0.5753 -0.0189
C69 C 0.3976(2) 0.7334(4) -0.02871(14)
C70 C 0.4074(2) 0.8296(4) -0.00768(15)
H48 H 0.4001 0.8927 -0.0238
C71 C 0.4281(2) 0.8332(4) 0.03722(16)
H49 H 0.4340 0.8994 0.0512
C72 C 0.3330(2) 0.8080(4) -0.09817(18)
H50 H 0.3051 0.8619 -0.0839
C73 C 0.3356(3) 0.7929(5) -0.14342(19)
H51 H 0.3096 0.8327 -0.1654
C74 C 0.3854(3) 0.7047(5) -0.15058(17)
C75 C 0.4152(3) 0.6516(5) -0.18788(17)
H52 H 0.3996 0.6709 -0.2169
C76 C 0.4674(3) 0.5710(5) -0.18133(18)
H53 H 0.4899 0.5372 -0.2060
C77 C 0.4868(3) 0.5400(4) -0.13868(19)
H54 H 0.5215 0.4832 -0.1354
C78 C 0.4103(3) 0.6648(4) -0.10879(17)
C79 C 0.5478(2) 0.7528(3) 0.11918(13)
C80 C 0.5744(2) 0.7478(3) 0.16431(13)
C81 C 0.5210(2) 0.7444(3) 0.19979(13)
C82 C 0.4401(2) 0.7424(3) 0.19069(13)
C83 C 0.4143(2) 0.7393(3) 0.14536(13)
C84 C 0.4673(2) 0.7462(3) 0.11016(13)
loop_
_geom_bond_atom_site_label_1
_geom_bond_atom_site_label_2
_geom_bond_site_symmetry_1
_geom_bond_site_symmetry_2
N1 C4 1_555 1_555
N2 C12 1_555 1_555
N3 C17 1_555 1_555
N4 C25 1_555 1_555
N5 C30 1_555 1_555
N6 C38 1_555 1_555
N7 C43 1_555 1_555
N8 C51 1_555 1_555
N9 C56 1_555 1_555
N10 C64 1_555 1_555
N11 C69 1_555 1_555
N12 C77 1_555 1_555
C1 C2 1_555 1_555
C2 H1 1_555 1_555
C3 C2 1_555 1_555
H2 C3 1_555 1_555
C4 C3 1_555 1_555
C5 C4 1_555 1_555
H3 C5 1_555 1_555
C6 C1 1_555 1_555
H4 C6 1_555 1_555
C7 N1 1_555 1_555
H5 C7 1_555 1_555
C8 C7 1_555 1_555
H6 C8 1_555 1_555
C9 C8 1_555 1_555
C10 C9 1_555 1_555
H7 C10 1_555 1_555
C11 C10 1_555 1_555
H8 C11 1_555 1_555
C12 C11 1_555 1_555
H9 C12 1_555 1_555
C13 N1 1_555 1_555
C14 C15 1_555 1_555
C15 H10 1_555 1_555
C16 C15 1_555 1_555
H11 C16 1_555 1_555
C17 C16 1_555 1_555
C18 C17 1_555 1_555
H12 C18 1_555 1_555
C19 C14 1_555 1_555
H13 C19 1_555 1_555
C20 N3 1_555 1_555
H14 C20 1_555 1_555
C21 C20 1_555 1_555
H15 C21 1_555 1_555
C22 C21 1_555 1_555
C23 C22 1_555 1_555
H16 C23 1_555 1_555
C24 C23 1_555 1_555
H17 C24 1_555 1_555
C25 C24 1_555 1_555
H18 C25 1_555 1_555
C26 N3 1_555 1_555
C27 C28 1_555 1_555
C28 H19 1_555 1_555
C29 C28 1_555 1_555
H20 C29 1_555 1_555
C30 C29 1_555 1_555
C31 C30 1_555 1_555
H21 C31 1_555 1_555
C32 C27 1_555 1_555
H22 C32 1_555 1_555
C33 N5 1_555 1_555
H23 C33 1_555 1_555
C34 C33 1_555 1_555
H24 C34 1_555 1_555
C35 C34 1_555 1_555
C36 C35 1_555 1_555
H25 C36 1_555 1_555
C37 C36 1_555 1_555
H26 C37 1_555 1_555
C38 C37 1_555 1_555
H27 C38 1_555 1_555
C39 N5 1_555 1_555
C40 C41 1_555 1_555
C41 H28 1_555 1_555
C42 C41 1_555 1_555
H29 C42 1_555 1_555
C43 C42 1_555 1_555
C44 C43 1_555 1_555
H30 C44 1_555 1_555
C45 C40 1_555 1_555
H31 C45 1_555 1_555
C46 N7 1_555 1_555
H32 C46 1_555 1_555
C47 C46 1_555 1_555
H33 C47 1_555 1_555
C48 C47 1_555 1_555
C49 C48 1_555 1_555
H34 C49 1_555 1_555
C50 C49 1_555 1_555
H35 C50 1_555 1_555
C51 C50 1_555 1_555
H36 C51 1_555 1_555
C52 N7 1_555 1_555
C53 C54 1_555 1_555
C54 H37 1_555 1_555
C55 C54 1_555 1_555
H38 C55 1_555 1_555
C56 C55 1_555 1_555
C57 C56 1_555 1_555
H39 C57 1_555 1_555
C58 C53 1_555 1_555
H40 C58 1_555 1_555
C59 N9 1_555 1_555
H41 C59 1_555 1_555
C60 C59 1_555 1_555
H42 C60 1_555 1_555
C61 C60 1_555 1_555
C62 C61 1_555 1_555
H43 C62 1_555 1_555
C63 C62 1_555 1_555
H44 C63 1_555 1_555
C64 C63 1_555 1_555
H45 C64 1_555 1_555
C65 N9 1_555 1_555
C66 C67 1_555 1_555
C67 H46 1_555 1_555
C68 C67 1_555 1_555
H47 C68 1_555 1_555
C69 C68 1_555 1_555
C70 C69 1_555 1_555
H48 C70 1_555 1_555
C71 C66 1_555 1_555
H49 C71 1_555 1_555
C72 N11 1_555 1_555
H50 C72 1_555 1_555
C73 C72 1_555 1_555
H51 C73 1_555 1_555
C74 C73 1_555 1_555
C75 C74 1_555 1_555
H52 C75 1_555 1_555
C76 C75 1_555 1_555
H53 C76 1_555 1_555
C77 C76 1_555 1_555
H54 C77 1_555 1_555
C78 N11 1_555 1_555
C79 C1 1_555 1_555
C80 C14 1_555 1_555
C81 C27 1_555 1_555
C82 C40 1_555 1_555
C83 C53 1_555 1_555
C84 C66 1_555 1_555
N2 C13 1_555 1_555
N4 C26 1_555 1_555
N6 C39 1_555 1_555
N8 C52 1_555 1_555
N10 C65 1_555 1_555
N12 C78 1_555 1_555
C5 C6 1_555 1_555
C9 C13 1_555 1_555
C18 C19 1_555 1_555
C22 C26 1_555 1_555
C31 C32 1_555 1_555
C35 C39 1_555 1_555
C44 C45 1_555 1_555
C48 C52 1_555 1_555
C57 C58 1_555 1_555
C61 C65 1_555 1_555
C70 C71 1_555 1_555
C74 C78 1_555 1_555
C79 C80 1_555 1_555
C79 C84 1_555 1_555
C80 C81 1_555 1_555
C81 C82 1_555 1_555
C82 C83 1_555 1_555
C83 C84 1_555 1_555

#END
