
#######################################################################
#
#                 Cambridge Crystallographic Data Centre
#                                CCDC 
#
#######################################################################
#
# If this CIF has been generated from an entry in the Cambridge 
# Structural Database, then it will include bibliographic, chemical, 
# crystal, experimental, refinement or atomic coordinate data resulting 
# from the CCDC's data processing and validation procedures.
#
#######################################################################

data_FIFTAQ
_chemical_formula_moiety         
'C138 H96 N18,3(C1 H1 Cl3),3(C4 H8 O1),3(C7 H8)'
_chemical_name_systematic        
"hexakis(4'-(2,2'-Dipyridylamino)biphenyl-4-yl)benzene chloroform tetrahydrofuran toluene solvate"
_symmetry_cell_setting           triclinic
_symmetry_space_group_name_H-M   'P -1'
_symmetry_Int_Tables_number      2
_space_group_name_Hall           '-P 1'
loop_
_symmetry_equiv_pos_site_id
_symmetry_equiv_pos_as_xyz
1 x,y,z
2 -x,-y,-z
_cell_length_a                   9.4077(19)
_cell_length_b                   18.504(4)
_cell_length_c                   21.967(4)
_cell_angle_alpha                88.74(3)
_cell_angle_beta                 80.80(3)
_cell_angle_gamma                82.14(3)
_cell_volume                     3739.36
_cell_formula_units_Z            1
_exptl_crystal_preparation       luminescent
loop_
_atom_site_label
_atom_site_type_symbol
_atom_site_fract_x
_atom_site_fract_y
_atom_site_fract_z
C94 C 0.389(4) 0.024(2) 0.766(2)
C95 C 0.265(3) 0.0425(14) 0.7431(11)
C97 C 0.425(5) 0.116(3) 0.794(2)
C98 C 0.3641(10) 0.1750(6) 0.7449(5)
C100 C 0.5542(16) 0.0500(10) 0.7573(9)
C102 C 0.579(2) 0.0987(13) 0.8138(12)
C104 C 0.246(4) 0.138(2) 0.7272(18)
C120 C 0.4536(14) 0.7895(8) 0.6719(6)
H26 H 0.3541 0.7802 0.6706
Cl1 Cl 0.5019(8) 0.8618(4) 0.6220(4)
Cl2 Cl 0.4749(9) 0.8201(6) 0.7505(6)
Cl3 Cl 0.5677(7) 0.7189(5) 0.6543(4)
C1 C 0.0178(7) 0.9273(4) 0.5182(4)
C2 C 0.0313(7) 0.9445(4) 0.4548(4)
C3 C -0.0147(7) 0.9812(5) 0.5627(4)
C4 C -0.0319(7) 0.9612(4) 0.6289(4)
C5 C -0.1553(8) 0.9339(5) 0.6579(4)
H1 H -0.2270 0.9275 0.6346
C6 C -0.1771(8) 0.9154(5) 0.7205(4)
H2 H -0.2640 0.9000 0.7387
C7 C -0.0683(8) 0.9204(4) 0.7550(4)
C8 C 0.050(2) 0.9600(12) 0.7314(10)
C10 C 0.0664(18) 0.9788(11) 0.6687(9)
C12 C 0.0665(7) 0.8855(4) 0.4068(3)
C14 C 0.198(3) 0.8631(15) 0.3860(13)
C15 C 0.2257(18) 0.8274(11) 0.3166(9)
C17 C 0.1297(8) 0.7717(4) 0.3188(4)
C18 C 0.0095(17) 0.7742(10) 0.3639(8)
C20 C -0.0308(16) 0.8301(10) 0.4094(8)
C22 C 0.0518(8) 0.8486(4) 0.5374(3)
C23 C 0.1948(9) 0.8219(5) 0.5403(5)
H3 H 0.2668 0.8518 0.5300
C24 C 0.2330(9) 0.7478(6) 0.5592(5)
H4 H 0.3298 0.7305 0.5612
C25 C 0.1326(9) 0.7032(5) 0.5740(4)
C26 C -0.0087(9) 0.7297(5) 0.5690(4)
H5 H -0.0793 0.6986 0.5770
C27 C -0.0503(9) 0.8032(5) 0.5520(4)
H6 H -0.1475 0.8203 0.5509
C28 C -0.0879(8) 0.8970(5) 0.8209(4)
C29 C 0.0257(9) 0.8679(6) 0.8488(4)
H7 H 0.1190 0.8621 0.8263
C30 C 0.0053(9) 0.8464(6) 0.9103(4)
H8 H 0.0852 0.8268 0.9282
C31 C -0.1302(10) 0.8535(5) 0.9448(4)
C32 C -0.2459(9) 0.8844(5) 0.9176(4)
H9 H -0.3392 0.8901 0.9401
C33 C -0.2239(9) 0.9070(5) 0.8572(4)
H10 H -0.3028 0.9297 0.8401
C34 C 0.1655(8) 0.7130(5) 0.2714(4)
C35 C 0.0731(19) 0.6639(10) 0.2667(9)
C37 C 0.091(2) 0.6300(13) 0.2032(11)
C39 C 0.2273(10) 0.6069(5) 0.1795(4)
C40 C 0.315(2) 0.6469(10) 0.1890(8)
C42 C 0.2865(18) 0.7078(10) 0.2312(9)
C44 C -0.0785(9) 0.8552(6) 1.0520(4)
C45 C -0.0336(10) 0.9179(5) 1.0440(4)
H11 H -0.0527 0.9467 1.0103
C46 C 0.0423(13) 0.9411(7) 1.0857(7)
H12 H 0.0835 0.9839 1.0778
C47 C 0.0597(12) 0.9041(9) 1.1380(6)
H13 H 0.1040 0.9231 1.1678
C48 C 0.0115(13) 0.8392(8) 1.1458(5)
H14 H 0.0269 0.8123 1.1810
C49 C -0.2666(16) 0.7868(9) 1.0250(6)
C50 C -0.3522(19) 0.6759(11) 0.9931(9)
C52 C -0.460(2) 0.6830(13) 1.0438(10)
C54 C -0.457(2) 0.7494(11) 1.0824(9)
C57 C -0.2408(16) 0.7182(8) 0.9810(7)
C58 C 0.3574(19) 0.4900(8) 0.1355(7)
C59 C 0.4800(18) 0.4727(10) 0.0791(9)
C61 C 0.576(2) 0.4186(13) 0.0841(12)
C63 C 0.595(2) 0.3784(12) 0.1358(12)
C65 C 0.4930(16) 0.3990(9) 0.1930(7)
C66 C 0.2054(17) 0.5671(8) 0.0765(6)
C67 C 0.141(3) 0.5002(12) 0.0559(11)
C74 C 0.114(5) 0.578(3) -0.026(2)
C75 C 0.153(4) 0.514(2) -0.0069(19)
C76 C 0.036(2) 0.6332(14) 0.0123(12)
C78 C 0.1736(10) 0.6262(5) 0.5949(4)
C79 C 0.3203(9) 0.5933(5) 0.5772(5)
C80 C 0.3597(11) 0.5218(5) 0.6023(5)
H15 H 0.4549 0.4988 0.5936
C81 C 0.2561(11) 0.4877(5) 0.6393(5)
C82 C 0.1186(10) 0.5217(5) 0.6527(5)
H16 H 0.0487 0.4977 0.6766
C83 C 0.0796(10) 0.5906(5) 0.6322(5)
H17 H -0.0148 0.6134 0.6445
C84 C 0.3402(10) 0.3580(5) 0.6229(5)
C85 C 0.4552(14) 0.3102(8) 0.6268(6)
H18 H 0.5150 0.3146 0.6560
C86 C 0.4830(13) 0.2532(9) 0.5853(8)
H19 H 0.5594 0.2165 0.5885
C87 C 0.4030(14) 0.2492(6) 0.5403(6)
H20 H 0.4235 0.2110 0.5121
C88 C 0.2912(13) 0.3032(7) 0.5378(7)
H21 H 0.2365 0.3042 0.5060
C89 C 0.2910(9) 0.4086(6) 0.7275(5)
C90 C 0.2750(11) 0.4660(7) 0.7655(6)
H22 H 0.2779 0.5126 0.7489
C91 C 0.2541(11) 0.4574(7) 0.8289(7)
H23 H 0.2424 0.4966 0.8558
C92 C 0.2518(12) 0.3852(10) 0.8499(7)
H24 H 0.2387 0.3743 0.8918
C93 C 0.2691(13) 0.3328(7) 0.8072(7)
H25 H 0.2660 0.2855 0.8219
N1 N -0.1523(8) 0.8279(4) 1.0090(3)
N2 N -0.0618(10) 0.8101(5) 1.1029(4)
N3 N -0.3552(14) 0.7948(8) 1.0731(7)
N5 N 0.2588(9) 0.5528(5) 0.1304(4)
N6 N 0.3912(12) 0.4648(7) 0.1880(5)
N7 N 0.1414(11) 0.6344(6) 0.0641(5)
N8 N 0.3065(8) 0.4159(5) 0.6640(4)
N9 N 0.2892(8) 0.3401(5) 0.7491(4)
N10 N 0.2583(9) 0.3571(5) 0.5828(5)
H28 H 0.185(8) 0.970(4) 0.641(4)
H31 H 0.031(8) 0.627(4) 0.199(4)
H32 H -0.020(8) 0.671(4) 0.269(3)
C1A C -0.0178(7) 1.0727(4) 0.4818(4)
C2A C -0.0313(7) 1.0555(4) 0.5452(4)
C3A C 0.0147(7) 1.0188(5) 0.4373(4)
C4A C 0.0319(7) 1.0388(4) 0.3711(4)
C5A C 0.1553(8) 1.0661(5) 0.3421(4)
H1A H 0.2270 1.0725 0.3654
C6A C 0.1771(8) 1.0846(5) 0.2795(4)
H2A H 0.2640 1.1000 0.2613
C7A C 0.0683(8) 1.0796(4) 0.2450(4)
C8A C -0.050(2) 1.0400(12) 0.2686(10)
C10A C -0.0664(18) 1.0212(11) 0.3313(9)
C12A C -0.0665(7) 1.1145(4) 0.5932(3)
C14A C -0.198(3) 1.1369(15) 0.6140(13)
C15A C -0.2257(18) 1.1726(11) 0.6834(9)
C17A C -0.1297(8) 1.2283(4) 0.6812(4)
C18A C -0.0095(17) 1.2258(10) 0.6361(8)
C20A C 0.0308(16) 1.1699(10) 0.5906(8)
C22A C -0.0518(8) 1.1514(4) 0.4626(3)
C23A C -0.1948(9) 1.1781(5) 0.4597(5)
H3A H -0.2668 1.1482 0.4700
C24A C -0.2330(9) 1.2522(6) 0.4408(5)
H4A H -0.3298 1.2695 0.4388
C25A C -0.1326(9) 1.2968(5) 0.4260(4)
C26A C 0.0087(9) 1.2703(5) 0.4310(4)
H5A H 0.0793 1.3014 0.4230
C27A C 0.0503(9) 1.1968(5) 0.4480(4)
H6A H 0.1475 1.1797 0.4491
C28A C 0.0879(8) 1.1030(5) 0.1791(4)
C29A C -0.0257(9) 1.1321(6) 0.1512(4)
H7A H -0.1190 1.1379 0.1737
C30A C -0.0053(9) 1.1536(6) 0.0897(4)
H8A H -0.0852 1.1732 0.0718
C31A C 0.1302(10) 1.1465(5) 0.0552(4)
C32A C 0.2459(9) 1.1156(5) 0.0824(4)
H9A H 0.3392 1.1099 0.0599
C33A C 0.2239(9) 1.0930(5) 0.1428(4)
H10A H 0.3028 1.0703 0.1599
C34A C -0.1655(8) 1.2870(5) 0.7286(4)
C35A C -0.0731(19) 1.3361(10) 0.7333(9)
C37A C -0.091(2) 1.3700(13) 0.7968(11)
C39A C -0.2273(10) 1.3931(5) 0.8205(4)
C40A C -0.315(2) 1.3531(10) 0.8110(8)
C42A C -0.2865(18) 1.2922(10) 0.7688(9)
C44A C 0.0785(9) 1.1448(6) -0.0520(4)
C45A C 0.0336(10) 1.0821(5) -0.0440(4)
H11A H 0.0527 1.0533 -0.0103
C46A C -0.0423(13) 1.0589(7) -0.0857(7)
H12A H -0.0835 1.0161 -0.0778
C47A C -0.0597(12) 1.0959(9) -0.1380(6)
H13A H -0.1040 1.0769 -0.1678
C48A C -0.0115(13) 1.1608(8) -0.1458(5)
H14A H -0.0269 1.1877 -0.1810
C49A C 0.2666(16) 1.2132(9) -0.0250(6)
C50A C 0.3522(19) 1.3241(11) 0.0069(9)
C52A C 0.460(2) 1.3170(13) -0.0438(10)
C54A C 0.457(2) 1.2506(11) -0.0824(9)
C57A C 0.2408(16) 1.2818(8) 0.0190(7)
C58A C -0.3574(19) 1.5100(8) 0.8645(7)
C59A C -0.4800(18) 1.5273(10) 0.9209(9)
C61A C -0.576(2) 1.5814(13) 0.9159(12)
C63A C -0.595(2) 1.6216(12) 0.8642(12)
C65A C -0.4930(16) 1.6010(9) 0.8070(7)
C66A C -0.2054(17) 1.4329(8) 0.9235(6)
C67A C -0.141(3) 1.4998(12) 0.9441(11)
C74A C -0.114(5) 1.422(3) 1.026(2)
C75A C -0.153(4) 1.486(2) 1.0069(19)
C76A C -0.036(2) 1.3668(14) 0.9877(12)
C78A C -0.1736(10) 1.3738(5) 0.4051(4)
C79A C -0.3203(9) 1.4067(5) 0.4228(5)
C80A C -0.3597(11) 1.4782(5) 0.3977(5)
H15A H -0.4549 1.5012 0.4064
C81A C -0.2561(11) 1.5123(5) 0.3607(5)
C82A C -0.1186(10) 1.4783(5) 0.3473(5)
H16A H -0.0487 1.5023 0.3234
C83A C -0.0796(10) 1.4094(5) 0.3678(5)
H17A H 0.0148 1.3866 0.3555
C84A C -0.3402(10) 1.6420(5) 0.3771(5)
C85A C -0.4552(14) 1.6898(8) 0.3732(6)
H18A H -0.5150 1.6854 0.3440
C86A C -0.4830(13) 1.7468(9) 0.4147(8)
H19A H -0.5594 1.7835 0.4115
C87A C -0.4030(14) 1.7508(6) 0.4597(6)
H20A H -0.4235 1.7890 0.4879
C88A C -0.2912(13) 1.6968(7) 0.4622(7)
H21A H -0.2365 1.6958 0.4940
C89A C -0.2910(9) 1.5914(6) 0.2725(5)
C90A C -0.2750(11) 1.5340(7) 0.2345(6)
H22A H -0.2779 1.4874 0.2511
C91A C -0.2541(11) 1.5426(7) 0.1711(7)
H23A H -0.2424 1.5034 0.1442
C92A C -0.2518(12) 1.6148(10) 0.1501(7)
H24A H -0.2387 1.6257 0.1082
C93A C -0.2691(13) 1.6672(7) 0.1928(7)
H25A H -0.2660 1.7145 0.1781
N1A N 0.1523(8) 1.1721(4) -0.0090(3)
N2A N 0.0618(10) 1.1899(5) -0.1029(4)
N3A N 0.3552(14) 1.2052(8) -0.0731(7)
N5A N -0.2588(9) 1.4472(5) 0.8696(4)
N6A N -0.3912(12) 1.5352(7) 0.8120(5)
N7A N -0.1414(11) 1.3656(6) 0.9359(5)
N8A N -0.3065(8) 1.5841(5) 0.3360(4)
N9A N -0.2892(8) 1.6599(5) 0.2509(4)
N10A N -0.2583(9) 1.6429(5) 0.4172(5)
H28A H -0.185(8) 1.030(4) 0.359(4)
H31A H -0.031(8) 1.373(4) 0.801(4)
H32A H 0.020(8) 1.329(4) 0.731(3)
C9? C -0.059(2) 1.0675(12) 0.2734(9)
C11? C -0.079(2) 1.0469(13) 0.3398(10)
C13? C 0.1922(14) 0.8803(9) 0.3624(7)
C16? C 0.232(2) 0.8090(14) 0.3339(11)
C19? C -0.018(2) 0.7950(12) 0.3465(11)
C21? C -0.038(2) 0.8547(12) 0.3904(10)
C36? C 0.054(2) 0.6845(11) 0.2484(10)
C38? C 0.106(2) 0.6072(13) 0.2220(11)
C41? C 0.365(2) 0.6353(12) 0.1988(10)
C43? C 0.3193(18) 0.6837(10) 0.2480(8)
C51? C 0.485(4) 1.270(2) -0.0262(18)
C53? C 0.568(4) 1.230(2) -0.0757(17)
C55? C 0.529(4) 1.175(2) -0.0987(17)
C56? C 0.396(3) 1.1490(19) -0.0833(15)
C60? C 0.287(3) 0.4280(18) 0.1090(14)
C62? C 0.360(5) 0.358(3) 0.121(2)
C64? C 0.438(4) 0.347(2) 0.160(2)
C68? C 0.330(3) 0.5407(16) 0.0243(14)
C69? C 0.222(3) 0.5048(14) 0.0453(12)
C70? C 0.057(3) 0.5050(19) 0.0114(15)
C71? C 0.319(3) 0.5723(16) -0.0355(14)
C72? C -0.003(3) 0.5615(18) -0.0103(14)
C73? C 0.226(3) 0.6322(18) -0.0443(15)
C77? C 0.131(2) 0.6624(11) 0.0065(10)
C96? C 0.344(5) 0.139(2) 0.7341(17)
C99? C 0.444(2) 0.0235(14) 0.6991(12)
C101? C 0.567(2) 0.0820(14) 0.7917(13)
C103? C 0.405(3) 0.093(2) 0.7376(15)
C105? C 0.1647(13) 0.6005(7) 0.4251(6)
C106? C 0.2173(9) 0.5230(5) 0.4061(5)
C107? C 0.2072(14) 0.4695(8) 0.4541(7)
C108? C 0.2697(13) 0.5101(8) 0.3437(7)
C109? C 0.300(2) 0.4385(13) 0.3374(10)
C110? C 0.2799(16) 0.4007(9) 0.4176(8)
C111? C -0.077(3) 0.6103(17) 0.8310(14)
C112? C -0.043(2) 0.6690(13) 0.7952(11)
C113? C 0.013(5) 0.680(2) 0.802(2)
C114? C -0.177(3) 0.7101(18) 0.7726(16)
C115? C -0.031(2) 0.7058(13) 0.7556(11)
C116? C 0.081(3) 0.7298(14) 0.7372(12)
C117? C 0.220(2) 0.7215(13) 0.7375(11)
C118? C -0.151(3) 0.7250(16) 0.7410(15)
C119? C 0.184(2) 0.6703(13) 0.7967(11)
C121? C -0.363(2) 1.1146(17) 0.0841(13)
C122? C -0.397(3) 1.1642(16) 0.1019(16)
C123? C -0.373(2) 1.1736(14) 0.0613(16)
C124? C -0.337(2) 1.0274(13) 0.1507(12)
C125? C -0.436(3) 1.1524(17) 0.1575(19)
C126? C -0.330(3) 1.064(2) 0.0434(18)
C127? C -0.395(2) 1.0739(15) -0.0285(13)
C128? C -0.336(6) 1.140(4) 0.015(3)
C129? C -0.441(4) 0.979(2) 0.0660(19)
C130? C -0.377(2) 1.0316(14) 0.0154(13)
C131? C -0.3536(18) 1.0570(12) 0.1102(11)
C132? C -0.506(3) 0.9786(12) 0.5113(12)
N4? N 0.322(3) 1.2498(18) 0.0007(14)
Cl4? Cl -0.3367(10) 0.9735(5) 0.4892(6)
Cl5? Cl -0.3557(9) 1.0138(5) 0.5117(5)
Cl6? Cl -0.5392(8) 1.0528(5) 0.5830(5)
H27? H -0.187(8) 1.070(5) 0.249(4)
H29? H 0.401(7) 0.708(4) 0.260(3)
H30? H 0.245(6) 0.905(3) 0.366(3)
loop_
_geom_bond_atom_site_label_1
_geom_bond_atom_site_label_2
_geom_bond_site_symmetry_1
_geom_bond_site_symmetry_2
C1 C2 1_555 1_555
C2 C12 1_555 1_555
C3 C1 1_555 1_555
C4 C3 1_555 1_555
C5 C4 1_555 1_555
H1 C5 1_555 1_555
C6 C5 1_555 1_555
H2 C6 1_555 1_555
C7 C6 1_555 1_555
C8 C7 1_555 1_555
C10 C4 1_555 1_555
C12 C14 1_555 1_555
C14 C15 1_555 1_555
C15 C17 1_555 1_555
C17 C18 1_555 1_555
C18 C20 1_555 1_555
C20 C12 1_555 1_555
C22 C1 1_555 1_555
C23 C22 1_555 1_555
H3 C23 1_555 1_555
C24 C23 1_555 1_555
H4 C24 1_555 1_555
C25 C24 1_555 1_555
C26 C25 1_555 1_555
H5 C26 1_555 1_555
C27 C22 1_555 1_555
H6 C27 1_555 1_555
C28 C7 1_555 1_555
C29 C28 1_555 1_555
H7 C29 1_555 1_555
C30 C29 1_555 1_555
H8 C30 1_555 1_555
C31 C30 1_555 1_555
C32 C31 1_555 1_555
H9 C32 1_555 1_555
C33 C28 1_555 1_555
H10 C33 1_555 1_555
C34 C17 1_555 1_555
C35 C34 1_555 1_555
C37 C35 1_555 1_555
C39 C37 1_555 1_555
C40 C39 1_555 1_555
C42 C34 1_555 1_555
C44 C45 1_555 1_555
C45 H11 1_555 1_555
C46 C45 1_555 1_555
H12 C46 1_555 1_555
C47 C46 1_555 1_555
H13 C47 1_555 1_555
C48 C47 1_555 1_555
H14 C48 1_555 1_555
C49 C57 1_555 1_555
C50 C52 1_555 1_555
C52 C54 1_555 1_555
C54 N3 1_555 1_555
C57 C50 1_555 1_555
C58 C59 1_555 1_555
C59 C61 1_555 1_555
C61 C63 1_555 1_555
C63 C65 1_555 1_555
C65 N6 1_555 1_555
C66 C67 1_555 1_555
C67 C75 1_555 1_555
C74 C75 1_555 1_555
C76 C74 1_555 1_555
C78 C25 1_555 1_555
C79 C78 1_555 1_555
C80 C79 1_555 1_555
H15 C80 1_555 1_555
C81 C80 1_555 1_555
C82 C81 1_555 1_555
H16 C82 1_555 1_555
C83 C78 1_555 1_555
H17 C83 1_555 1_555
C84 C85 1_555 1_555
C85 H18 1_555 1_555
C86 C85 1_555 1_555
H19 C86 1_555 1_555
C87 C86 1_555 1_555
H20 C87 1_555 1_555
C88 C87 1_555 1_555
H21 C88 1_555 1_555
C89 C90 1_555 1_555
C90 H22 1_555 1_555
C91 C90 1_555 1_555
H23 C91 1_555 1_555
C92 C91 1_555 1_555
H24 C92 1_555 1_555
C93 C92 1_555 1_555
H25 C93 1_555 1_555
C94 C95 1_555 1_555
C95 C104 1_555 1_555
C97 C98 1_555 1_555
C98 C104 1_555 1_555
C100 C94 1_555 1_555
C102 C100 1_555 1_555
C120 H26 1_555 1_555
N1 C31 1_555 1_555
N2 C44 1_555 1_555
N3 C49 1_555 1_555
N5 C39 1_555 1_555
N6 C58 1_555 1_555
N7 C66 1_555 1_555
N8 C81 1_555 1_555
N9 C89 1_555 1_555
N10 C84 1_555 1_555
Cl1 C120 1_555 1_555
Cl2 C120 1_555 1_555
Cl3 C120 1_555 1_555
H28 C10 1_555 1_555
H31 C37 1_555 1_555
H32 C35 1_555 1_555
C1A C2A 1_555 1_555
C2A C3 1_555 1_555
C3A C2 1_555 1_555
C4A C3A 1_555 1_555
C5A C4A 1_555 1_555
H1A C5A 1_555 1_555
C6A C5A 1_555 1_555
H2A C6A 1_555 1_555
C7A C6A 1_555 1_555
C8A C7A 1_555 1_555
C10A C4A 1_555 1_555
C12A C2A 1_555 1_555
C14A C12A 1_555 1_555
C15A C14A 1_555 1_555
C17A C15A 1_555 1_555
C18A C17A 1_555 1_555
C20A C12A 1_555 1_555
C22A C1A 1_555 1_555
C23A C22A 1_555 1_555
H3A C23A 1_555 1_555
C24A C23A 1_555 1_555
H4A C24A 1_555 1_555
C25A C24A 1_555 1_555
C26A C25A 1_555 1_555
H5A C26A 1_555 1_555
C27A C22A 1_555 1_555
H6A C27A 1_555 1_555
C28A C7A 1_555 1_555
C29A C28A 1_555 1_555
H7A C29A 1_555 1_555
C30A C29A 1_555 1_555
H8A C30A 1_555 1_555
C31A C30A 1_555 1_555
C32A C31A 1_555 1_555
H9A C32A 1_555 1_555
C33A C28A 1_555 1_555
H10A C33A 1_555 1_555
C34A C17A 1_555 1_555
C35A C34A 1_555 1_555
C37A C35A 1_555 1_555
C39A C37A 1_555 1_555
C40A C39A 1_555 1_555
C42A C34A 1_555 1_555
C44A C45A 1_555 1_555
C45A H11A 1_555 1_555
C46A C45A 1_555 1_555
H12A C46A 1_555 1_555
C47A C46A 1_555 1_555
H13A C47A 1_555 1_555
C48A C47A 1_555 1_555
H14A C48A 1_555 1_555
C49A C57A 1_555 1_555
C50A C52A 1_555 1_555
C52A C54A 1_555 1_555
C54A N3A 1_555 1_555
C57A C50A 1_555 1_555
C58A C59A 1_555 1_555
C59A C61A 1_555 1_555
C61A C63A 1_555 1_555
C63A C65A 1_555 1_555
C65A N6A 1_555 1_555
C66A C67A 1_555 1_555
C67A C75A 1_555 1_555
C74A C75A 1_555 1_555
C76A C74A 1_555 1_555
C78A C25A 1_555 1_555
C79A C78A 1_555 1_555
C80A C79A 1_555 1_555
H15A C80A 1_555 1_555
C81A C80A 1_555 1_555
C82A C81A 1_555 1_555
H16A C82A 1_555 1_555
C83A C78A 1_555 1_555
H17A C83A 1_555 1_555
C84A C85A 1_555 1_555
C85A H18A 1_555 1_555
C86A C85A 1_555 1_555
H19A C86A 1_555 1_555
C87A C86A 1_555 1_555
H20A C87A 1_555 1_555
C88A C87A 1_555 1_555
H21A C88A 1_555 1_555
C89A C90A 1_555 1_555
C90A H22A 1_555 1_555
C91A C90A 1_555 1_555
H23A C91A 1_555 1_555
C92A C91A 1_555 1_555
H24A C92A 1_555 1_555
C93A C92A 1_555 1_555
H25A C93A 1_555 1_555
N1A C31A 1_555 1_555
N2A C44A 1_555 1_555
N3A C49A 1_555 1_555
N5A C39A 1_555 1_555
N6A C58A 1_555 1_555
N7A C66A 1_555 1_555
N8A C81A 1_555 1_555
N9A C89A 1_555 1_555
N10A C84A 1_555 1_555
H28A C10A 1_555 1_555
H31A C37A 1_555 1_555
H32A C35A 1_555 1_555
C8 C10 1_555 1_555
C26 C27 1_555 1_555
C32 C33 1_555 1_555
C40 C42 1_555 1_555
C44 N1 1_555 1_555
C48 N2 1_555 1_555
C49 N1 1_555 1_555
C58 N5 1_555 1_555
C66 N5 1_555 1_555
C76 N7 1_555 1_555
C82 C83 1_555 1_555
C84 N8 1_555 1_555
C88 N10 1_555 1_555
C89 N8 1_555 1_555
C93 N9 1_555 1_555
C97 C100 1_555 1_555
C1A C3A 1_555 1_555
C8A C10A 1_555 1_555
C18A C20A 1_555 1_555
C26A C27A 1_555 1_555
C32A C33A 1_555 1_555
C40A C42A 1_555 1_555
C44A N1A 1_555 1_555
C48A N2A 1_555 1_555
C49A N1A 1_555 1_555
C58A N5A 1_555 1_555
C66A N5A 1_555 1_555
C76A N7A 1_555 1_555
C82A C83A 1_555 1_555
C84A N8A 1_555 1_555
C88A N10A 1_555 1_555
C89A N8A 1_555 1_555
C93A N9A 1_555 1_555

#END
