
#######################################################################
#
#                 Cambridge Crystallographic Data Centre
#                                CCDC 
#
#######################################################################
#
# If this CIF has been generated from an entry in the Cambridge 
# Structural Database, then it will include bibliographic, chemical, 
# crystal, experimental, refinement or atomic coordinate data resulting 
# from the CCDC's data processing and validation procedures.
#
#######################################################################

data_FIFWEZ
_chemical_formula_moiety         'C24 H18 N2 O4 2+,2(Cl1 1-),4(H2 O1)'
_chemical_name_systematic        
"1,1'-bis(4-carboxyphenyl)-4,4'-bipyridin-1-ium bis(chloride) tetrahydrate"
_symmetry_cell_setting           monoclinic
_symmetry_space_group_name_H-M   'P 21/c'
_symmetry_Int_Tables_number      14
_space_group_name_Hall           '-P 2ybc'
loop_
_symmetry_equiv_pos_site_id
_symmetry_equiv_pos_as_xyz
1 x,y,z
2 -x,1/2+y,1/2-z
3 -x,-y,-z
4 x,1/2-y,1/2+z
_cell_length_a                   7.6272(3)
_cell_length_b                   26.0909(10)
_cell_length_c                   6.9724(3)
_cell_angle_alpha                90
_cell_angle_beta                 113.4510(10)
_cell_angle_gamma                90
_cell_volume                     1272.9
_exptl_crystal_colour            yellow
_exptl_crystal_description       prism
_cell_formula_units_Z            2
loop_
_atom_site_label
_atom_site_type_symbol
_atom_site_fract_x
_atom_site_fract_y
_atom_site_fract_z
C1 C 0.4538(2) 0.47434(6) 0.9779(3)
C2 C 0.3350(3) 0.46013(6) 0.7778(3)
H1 H 0.3096 0.4831 0.6680
C3 C 0.2542(3) 0.41235(6) 0.7400(3)
H2 H 0.1745 0.4032 0.6042
C4 C 0.4021(3) 0.39141(6) 1.0930(3)
H3 H 0.4241 0.3679 1.2005
C5 C 0.4857(3) 0.43879(7) 1.1366(3)
H4 H 0.5646 0.4473 1.2735
C6 C 0.2017(2) 0.32806(6) 0.8478(3)
C7 C 0.0089(2) 0.32439(6) 0.7251(3)
H5 H -0.0646 0.3537 0.6757
C8 C -0.0727(2) 0.27633(6) 0.6770(3)
H6 H -0.2026 0.2732 0.5947
C9 C 0.0372(2) 0.23279(6) 0.7504(3)
C10 C 0.2310(2) 0.23718(6) 0.8747(3)
H7 H 0.3045 0.2079 0.9245
C11 C 0.3150(2) 0.28514(6) 0.9248(3)
H8 H 0.4446 0.2884 1.0082
C12 C -0.0569(2) 0.18151(6) 0.6892(3)
N1 N 0.28805(19) 0.37866(5) 0.8952(2)
O1 O 0.06367(19) 0.14312(4) 0.7579(2)
H9 H 0.008(4) 0.1122(7) 0.719(4)
O2 O -0.22558(19) 0.17660(5) 0.5857(2)
C1B C 0.5462(2) 0.52566(6) 1.0221(3)
C2B C 0.6650(3) 0.53987(6) 1.2222(3)
H1B H 0.6904 0.5169 1.3320
C3B C 0.7458(3) 0.58765(6) 1.2600(3)
H2B H 0.8255 0.5968 1.3958
C4B C 0.5979(3) 0.60859(6) 0.9070(3)
H3B H 0.5759 0.6321 0.7995
C5B C 0.5143(3) 0.56121(7) 0.8634(3)
H4B H 0.4354 0.5527 0.7265
C6B C 0.7983(2) 0.67194(6) 1.1522(3)
C7B C 0.9911(2) 0.67561(6) 1.2749(3)
H5B H 1.0646 0.6463 1.3243
C8B C 1.0727(2) 0.72367(6) 1.3230(3)
H6B H 1.2026 0.7268 1.4053
C9B C 0.9628(2) 0.76721(6) 1.2496(3)
C10B C 0.7690(2) 0.76282(6) 1.1253(3)
H7B H 0.6955 0.7921 1.0755
C11B C 0.6850(2) 0.71486(6) 1.0752(3)
H8B H 0.5554 0.7116 0.9918
C12B C 1.0569(2) 0.81849(6) 1.3108(3)
N1B N 0.71195(19) 0.62134(5) 1.1048(2)
O1B O 0.93633(19) 0.85688(4) 1.2421(2)
H9B H 0.992(4) 0.8878(7) 1.281(4)
O2B O 1.22558(19) 0.82340(5) 1.4143(2)
O3 O -0.0684(2) 0.05361(5) 0.6537(3)
H10 H 0.017(4) 0.0299(11) 0.710(4)
H11 H -0.104(4) 0.0493(9) 0.523(5)
O4 O -0.4425(2) 0.14524(6) 0.1359(3)
H12 H -0.383(4) 0.1560(11) 0.265(3)
H13 H -0.388(4) 0.1154(8) 0.138(5)
Cl1 Cl 0.79516(9) 0.04146(2) 0.17778(8)
loop_
_geom_bond_atom_site_label_1
_geom_bond_atom_site_label_2
_geom_bond_site_symmetry_1
_geom_bond_site_symmetry_2
C1 C2 1_555 1_555
C2 H1 1_555 1_555
C3 C2 1_555 1_555
H2 C3 1_555 1_555
C4 H3 1_555 1_555
C5 C1 1_555 1_555
H4 C5 1_555 1_555
C6 C7 1_555 1_555
C7 H5 1_555 1_555
C8 C7 1_555 1_555
H6 C8 1_555 1_555
C9 C8 1_555 1_555
C10 C9 1_555 1_555
H7 C10 1_555 1_555
C11 C6 1_555 1_555
H8 C11 1_555 1_555
C12 C9 1_555 1_555
N1 C3 1_555 1_555
O1 C12 1_555 1_555
H9 O1 1_555 1_555
O2 C12 1_555 1_555
O3 H10 1_555 1_555
H11 O3 1_555 1_555
O4 H12 1_555 1_555
H13 O4 1_555 1_555
C1B C1 1_555 1_555
C2B C1B 1_555 1_555
H1B C2B 1_555 1_555
C3B C2B 1_555 1_555
H2B C3B 1_555 1_555
C4B H3B 1_555 1_555
C5B C1B 1_555 1_555
H4B C5B 1_555 1_555
C6B C7B 1_555 1_555
C7B H5B 1_555 1_555
C8B C7B 1_555 1_555
H6B C8B 1_555 1_555
C9B C8B 1_555 1_555
C10B C9B 1_555 1_555
H7B C10B 1_555 1_555
C11B C6B 1_555 1_555
H8B C11B 1_555 1_555
C12B C9B 1_555 1_555
N1B C3B 1_555 1_555
O1B C12B 1_555 1_555
H9B O1B 1_555 1_555
O2B C12B 1_555 1_555
C4 C5 1_555 1_555
C4 N1 1_555 1_555
C6 N1 1_555 1_555
C10 C11 1_555 1_555
C4B C5B 1_555 1_555
C4B N1B 1_555 1_555
C6B N1B 1_555 1_555
C10B C11B 1_555 1_555

#END
