
#######################################################################
#
#                 Cambridge Crystallographic Data Centre
#                                CCDC 
#
#######################################################################
#
# If this CIF has been generated from an entry in the Cambridge 
# Structural Database, then it will include bibliographic, chemical, 
# crystal, experimental, refinement or atomic coordinate data resulting 
# from the CCDC's data processing and validation procedures.
#
#######################################################################

data_FIGDUX
_chemical_formula_moiety         'C10 H7 N3 O2'
_chemical_name_systematic        3H-pyrimido[5,4-b][1,4]benzoxazin-2(10H)-one
_symmetry_cell_setting           monoclinic
_symmetry_space_group_name_H-M   'P 21/c'
_symmetry_Int_Tables_number      14
_space_group_name_Hall           '-P 2ybc'
loop_
_symmetry_equiv_pos_site_id
_symmetry_equiv_pos_as_xyz
1 x,y,z
2 -x,1/2+y,1/2-z
3 -x,-y,-z
4 x,1/2-y,1/2+z
_cell_length_a                   9.268(7)
_cell_length_b                   8.872(6)
_cell_length_c                   11.160(8)
_cell_angle_alpha                90
_cell_angle_beta                 112.90(3)
_cell_angle_gamma                90
_cell_volume                     845.315
_cell_formula_units_Z            4
loop_
_atom_site_label
_atom_site_type_symbol
_atom_site_fract_x
_atom_site_fract_y
_atom_site_fract_z
O1 O 0.3157(4) 0.5235(4) 0.5206(3)
O2 O -0.0352(4) 0.0958(4) 0.6220(3)
N1 N 0.0656(5) 0.3346(5) 0.6628(4)
N2 N 0.1692(5) 0.5736(5) 0.6967(4)
H1 H 0.1195 0.5918 0.7584
N3 N 0.1000(4) 0.1797(5) 0.5037(4)
H2 H 0.0788 0.0953 0.4586
C1 C 0.0421(5) 0.2004(6) 0.5984(5)
C2 C 0.1506(5) 0.4388(5) 0.6365(4)
C3 C 0.2591(5) 0.6884(6) 0.6723(4)
C4 C 0.2747(6) 0.8285(6) 0.7307(5)
H3 H 0.2216 0.8491 0.7865
C5 C 0.3675(6) 0.9391(6) 0.7083(5)
H4 H 0.3781 1.0347 0.7493
C6 C 0.4451(6) 0.9103(6) 0.6256(5)
H5 H 0.5106 0.9849 0.6118
C7 C 0.4254(6) 0.7698(6) 0.5630(5)
H6 H 0.4765 0.7492 0.5057
C8 C 0.3316(5) 0.6622(6) 0.5851(5)
C9 C 0.2217(5) 0.4179(6) 0.5444(4)
C10 C 0.1901(5) 0.2871(6) 0.4775(4)
H7 H 0.2302 0.2694 0.4123
loop_
_geom_bond_atom_site_label_1
_geom_bond_atom_site_label_2
_geom_bond_site_symmetry_1
_geom_bond_site_symmetry_2
O1 C8 1_555 1_555
O2 C1 1_555 1_555
N1 C1 1_555 1_555
N2 H1 1_555 1_555
N3 H2 1_555 1_555
C1 N3 1_555 1_555
C2 N1 1_555 1_555
C3 N2 1_555 1_555
C4 C3 1_555 1_555
H3 C4 1_555 1_555
C5 C4 1_555 1_555
H4 C5 1_555 1_555
C6 C5 1_555 1_555
H5 C6 1_555 1_555
C7 C6 1_555 1_555
H6 C7 1_555 1_555
C8 C3 1_555 1_555
C9 O1 1_555 1_555
C10 N3 1_555 1_555
H7 C10 1_555 1_555
N2 C2 1_555 1_555
C2 C9 1_555 1_555
C7 C8 1_555 1_555
C9 C10 1_555 1_555

#END
