
#######################################################################
#
#                 Cambridge Crystallographic Data Centre
#                                CCDC 
#
#######################################################################
#
# If this CIF has been generated from an entry in the Cambridge 
# Structural Database, then it will include bibliographic, chemical, 
# crystal, experimental, refinement or atomic coordinate data resulting 
# from the CCDC's data processing and validation procedures.
#
#######################################################################

data_FIGSEW
_chemical_formula_moiety         'C44 H25 Cl2 N1,C1 H1 Cl3'
_chemical_name_systematic        
"6-t-butyl-1,11-dichlorobenzo[7,8]dibenzo[1',10':6',7']fluorantheno[2',3':1,2]indolizino[6,5,4,3-def]phenanthridine chloroform solvate"
_symmetry_cell_setting           orthorhombic
_symmetry_space_group_name_H-M   'P 21 21 21'
_symmetry_Int_Tables_number      19
_space_group_name_Hall           'P 2ac 2ab'
loop_
_symmetry_equiv_pos_site_id
_symmetry_equiv_pos_as_xyz
1 x,y,z
2 1/2-x,-y,1/2+z
3 1/2+x,1/2-y,-z
4 -x,1/2+y,1/2-z
_cell_length_a                   9.813(3)
_cell_length_b                   17.409(5)
_cell_length_c                   19.711(6)
_cell_angle_alpha                90
_cell_angle_beta                 90
_cell_angle_gamma                90
_cell_volume                     3367.32
_exptl_crystal_colour            yellow
_exptl_crystal_description       Prism
_cell_formula_units_Z            4
_exptl_crystal_recrystallization_method 
'Re-crystallisation from solvent: chloroform/hexane'
loop_
_atom_site_label
_atom_site_type_symbol
_atom_site_fract_x
_atom_site_fract_y
_atom_site_fract_z
Cl1 Cl 0.36886(14) 0.49954(8) 0.10520(6)
Cl2 Cl 0.86326(14) 0.59510(8) 0.33798(7)
N1 N 0.4301(4) 0.6303(2) 0.2930(2)
C1 C 0.0852(6) 0.6834(3) 0.1773(3)
H1 H 0.030322 0.726431 0.188847
C2 C 0.0567(6) 0.6426(3) 0.1194(3)
H2 H -0.020803 0.655410 0.092831
C3 C 0.1939(5) 0.6628(3) 0.2198(3)
C4 C 0.1689(5) 0.7790(3) 0.2950(3)
H3 H 0.084527 0.790406 0.273545
C5 C 0.7577(5) 0.6566(3) 0.3831(3)
C6 C 0.8188(6) 0.7060(3) 0.4279(3)
H4 H 0.912337 0.699990 0.439039
C7 C 0.2177(5) 0.8298(3) 0.3431(3)
C8 C 0.5494(5) 0.2681(3) 0.3451(3)
C9 C 0.1414(6) 0.9044(3) 0.3599(3)
C10 C 0.3393(5) 0.8111(3) 0.3765(2)
H5 H 0.373396 0.844789 0.410387
C11 C 0.5791(6) 0.2022(3) 0.4500(3)
H6 H 0.567657 0.157532 0.477088
C12 C 0.6163(6) 0.6603(3) 0.3687(2)
C13 C 0.2365(5) 0.7125(3) 0.2763(3)
C14 C 0.2724(5) 0.5965(3) 0.2044(3)
C15 C 0.6614(6) 0.2610(3) 0.4734(3)
H7 H 0.704566 0.256057 0.516315
C16 C 0.6100(6) 0.7768(3) 0.4365(3)
H8 H 0.561002 0.819614 0.453787
C17 C 0.6098(5) 0.3939(3) 0.3281(2)
C18 C 0.3599(5) 0.6972(3) 0.3097(2)
C19 C 0.4123(5) 0.7439(3) 0.3613(2)
C20 C 0.7426(6) 0.7654(3) 0.4572(3)
H9 H 0.781984 0.797485 0.490874
C21 C 0.1412(6) 0.5829(3) 0.0997(3)
H10 H 0.124430 0.556130 0.058516
C22 C 0.4177(5) 0.4257(3) 0.2508(3)
C23 C 0.6353(6) 0.3274(3) 0.3680(3)
C24 C 0.6831(5) 0.3302(3) 0.4335(3)
C25 C 0.3905(6) 0.1665(3) 0.3613(3)
H11 H 0.366154 0.119179 0.381985
C26 C 0.7191(5) 0.4056(3) 0.4570(3)
H12 H 0.762548 0.410873 0.499802
C27 C 0.5058(5) 0.3738(3) 0.2798(2)
C28 C 0.3793(5) 0.5736(3) 0.2511(2)
C29 C 0.5454(5) 0.7273(3) 0.3911(3)
C30 C 0.5106(6) 0.2071(3) 0.3857(3)
C31 C 0.3447(5) 0.2654(3) 0.2750(3)
C32 C 0.2489(5) 0.5626(3) 0.1399(3)
C33 C 0.6296(6) 0.4666(3) 0.3530(3)
C34 C 0.2574(6) 0.3165(3) 0.2375(3)
H13 H 0.174437 0.297341 0.219273
C35 C 0.6923(6) 0.4708(3) 0.4190(3)
H14 H 0.715968 0.519627 0.436925
C36 C 0.0911(6) 0.9436(3) 0.2944(3)
H15 H 0.045971 0.992095 0.305806
H16 H 0.026412 0.909705 0.271137
H17 H 0.168919 0.953780 0.264573
C37 C 0.2912(5) 0.3923(3) 0.2272(3)
H18 H 0.228720 0.424232 0.203531
C38 C 0.5552(5) 0.5254(3) 0.3161(3)
C39 C 0.4695(6) 0.2960(3) 0.2906(3)
C40 C 0.3113(6) 0.1941(3) 0.3096(3)
H19 H 0.232924 0.166045 0.295974
C41 C 0.0203(6) 0.8846(3) 0.4056(3)
H20 H 0.053238 0.859301 0.446876
H21 H -0.041616 0.849935 0.381351
H22 H -0.028399 0.931745 0.417789
C42 C 0.5440(5) 0.6048(3) 0.3285(3)
C43 C 0.4503(5) 0.5059(3) 0.2658(2)
C44 C 0.2320(7) 0.9622(3) 0.3960(4)
H23 H 0.263313 0.940457 0.439099
H24 H 0.180272 1.009334 0.404718
H25 H 0.310892 0.974120 0.367358
Cl3 Cl 0.31657(15) 0.39282(9) 0.42157(8)
Cl4 Cl 0.03458(17) 0.43164(10) 0.39756(10)
Cl5 Cl 0.2313(2) 0.55238(10) 0.42387(10)
C45 C 0.2050(6) 0.4615(3) 0.3871(3)
H26 H 0.223942 0.465595 0.337410
loop_
_geom_bond_atom_site_label_1
_geom_bond_atom_site_label_2
_geom_bond_site_symmetry_1
_geom_bond_site_symmetry_2
Cl1 C32 1_555 1_555
Cl2 C5 1_555 1_555
N1 C18 1_555 1_555
C1 H1 1_555 1_555
C2 C1 1_555 1_555
H2 C2 1_555 1_555
C3 C1 1_555 1_555
C4 H3 1_555 1_555
C5 C6 1_555 1_555
C6 H4 1_555 1_555
C7 C4 1_555 1_555
C8 C23 1_555 1_555
C9 C7 1_555 1_555
C10 C7 1_555 1_555
H5 C10 1_555 1_555
C11 H6 1_555 1_555
C12 C5 1_555 1_555
C13 C3 1_555 1_555
C14 C3 1_555 1_555
C15 C11 1_555 1_555
H7 C15 1_555 1_555
C16 H8 1_555 1_555
C17 C23 1_555 1_555
C18 C13 1_555 1_555
C19 C10 1_555 1_555
C20 C6 1_555 1_555
H9 C20 1_555 1_555
C21 C2 1_555 1_555
H10 C21 1_555 1_555
C22 C27 1_555 1_555
C23 C24 1_555 1_555
C24 C15 1_555 1_555
C25 H11 1_555 1_555
C26 C24 1_555 1_555
H12 C26 1_555 1_555
C27 C17 1_555 1_555
C28 N1 1_555 1_555
C29 C12 1_555 1_555
C30 C8 1_555 1_555
C31 C34 1_555 1_555
C32 C14 1_555 1_555
C33 C17 1_555 1_555
C34 H13 1_555 1_555
C35 C26 1_555 1_555
H14 C35 1_555 1_555
C36 C9 1_555 1_555
H15 C36 1_555 1_555
H16 C36 1_555 1_555
H17 C36 1_555 1_555
C37 C22 1_555 1_555
H18 C37 1_555 1_555
C38 C33 1_555 1_555
C39 C8 1_555 1_555
C40 C25 1_555 1_555
H19 C40 1_555 1_555
C41 C9 1_555 1_555
H20 C41 1_555 1_555
H21 C41 1_555 1_555
H22 C41 1_555 1_555
C42 N1 1_555 1_555
C43 C22 1_555 1_555
C44 C9 1_555 1_555
H23 C44 1_555 1_555
H24 C44 1_555 1_555
H25 C44 1_555 1_555
Cl3 C45 1_555 1_555
Cl4 C45 1_555 1_555
Cl5 C45 1_555 1_555
C45 H26 1_555 1_555
C4 C13 1_555 1_555
C11 C30 1_555 1_555
C12 C42 1_555 1_555
C14 C28 1_555 1_555
C16 C20 1_555 1_555
C16 C29 1_555 1_555
C18 C19 1_555 1_555
C19 C29 1_555 1_555
C21 C32 1_555 1_555
C25 C30 1_555 1_555
C27 C39 1_555 1_555
C28 C43 1_555 1_555
C31 C39 1_555 1_555
C31 C40 1_555 1_555
C33 C35 1_555 1_555
C34 C37 1_555 1_555
C38 C42 1_555 1_555
C38 C43 1_555 1_555

#END
