
#######################################################################
#
#                 Cambridge Crystallographic Data Centre
#                                CCDC 
#
#######################################################################
#
# If this CIF has been generated from an entry in the Cambridge 
# Structural Database, then it will include bibliographic, chemical, 
# crystal, experimental, refinement or atomic coordinate data resulting 
# from the CCDC's data processing and validation procedures.
#
#######################################################################

data_FIHPOD01
_chemical_formula_moiety         'C5 H11 N3 O1'
_chemical_name_systematic        5-Ethyl-1,3,5-triazinan-2-one
_symmetry_cell_setting           orthorhombic
_symmetry_space_group_name_H-M   'P b c a'
_symmetry_Int_Tables_number      61
_space_group_name_Hall           '-P 2ac 2ab'
loop_
_symmetry_equiv_pos_site_id
_symmetry_equiv_pos_as_xyz
1 x,y,z
2 1/2-x,-y,1/2+z
3 1/2+x,1/2-y,-z
4 -x,1/2+y,1/2-z
5 -x,-y,-z
6 1/2+x,y,1/2-z
7 1/2-x,1/2+y,z
8 x,1/2-y,1/2+z
_cell_length_a                   9.590(2)
_cell_length_b                   7.1860(10)
_cell_length_c                   19.6370(10)
_cell_angle_alpha                90
_cell_angle_beta                 90
_cell_angle_gamma                90
_cell_volume                     1353.26
_exptl_crystal_colour            colorless
_exptl_crystal_description       block
_cell_formula_units_Z            8
loop_
_atom_site_label
_atom_site_type_symbol
_atom_site_fract_x
_atom_site_fract_y
_atom_site_fract_z
O1 O 0.2274(4) 0.7133(5) 0.1833(2)
N1 N 0.4294(2) 0.8755(4) 0.16743(14)
N2 N 0.4287(2) 0.5555(5) 0.16857(15)
N3 N 0.6254(2) 0.7132(3) 0.11881(12)
C1 C 0.3569(3) 0.7155(5) 0.17391(16)
C2 C 0.5803(3) 0.5532(7) 0.1579(2)
C3 C 0.5800(3) 0.8771(5) 0.15566(19)
C4 C 0.5759(4) 0.7065(7) 0.0483(2)
C5 C 0.6554(5) 0.8366(9) 0.0023(2)
H1 H 0.3733(6) 0.4365(13) 0.1727(4)
H2 H 0.3739(7) 0.9941(11) 0.1712(5)
H3 H 0.6360(7) 0.8831(14) 0.2038(4)
H4 H 0.6062(9) 1.0008(13) 0.1269(5)
H5 H 0.6336(8) 0.5566(17) 0.2066(5)
H6 H 0.6075(8) 0.4275(14) 0.1315(6)
H7 H 0.4635(10) 0.7379(16) 0.0451(5)
H8 H 0.5897(10) 0.5681(16) 0.0309(5)
H9 H 0.6430(16) 0.980(2) 0.0163(7)
H10 H 0.7645(12) 0.810(3) 0.0044(7)
H11 H 0.6218(16) 0.822(3) -0.0504(6)
loop_
_geom_bond_atom_site_label_1
_geom_bond_atom_site_label_2
_geom_bond_site_symmetry_1
_geom_bond_site_symmetry_2
O1 C1 1_555 1_555
N1 C1 1_555 1_555
N2 C1 1_555 1_555
N3 C2 1_555 1_555
C2 N2 1_555 1_555
C3 N1 1_555 1_555
C4 N3 1_555 1_555
C5 C4 1_555 1_555
H1 N2 1_555 1_555
H2 N1 1_555 1_555
H3 C3 1_555 1_555
H4 C3 1_555 1_555
H5 C2 1_555 1_555
H6 C2 1_555 1_555
H7 C4 1_555 1_555
H8 C4 1_555 1_555
H9 C5 1_555 1_555
H10 C5 1_555 1_555
H11 C5 1_555 1_555
N3 C3 1_555 1_555

#END
