
#######################################################################
#
#                 Cambridge Crystallographic Data Centre
#                                CCDC 
#
#######################################################################
#
# If this CIF has been generated from an entry in the Cambridge 
# Structural Database, then it will include bibliographic, chemical, 
# crystal, experimental, refinement or atomic coordinate data resulting 
# from the CCDC's data processing and validation procedures.
#
#######################################################################

data_FIHTIC
_chemical_formula_moiety         'C27 H32 N6 O8,C4 H12 N1 1+,N1 O3 1-'
_chemical_name_systematic        
'tetramethylammonium ethyl 2,7-bis{[(4-nitrophenyl)carbamoyl]amino}octahydronaphthalene-4a(2H)-carboxylate nitrate'
_symmetry_cell_setting           triclinic
_symmetry_space_group_name_H-M   'P -1'
_symmetry_Int_Tables_number      2
_space_group_name_Hall           '-P 1'
loop_
_symmetry_equiv_pos_site_id
_symmetry_equiv_pos_as_xyz
1 x,y,z
2 -x,-y,-z
_cell_length_a                   9.7778(5)
_cell_length_b                   12.4706(6)
_cell_length_c                   15.6404(7)
_cell_angle_alpha                80.496(4)
_cell_angle_beta                 71.891(4)
_cell_angle_gamma                69.465(5)
_cell_volume                     1694.1
_exptl_crystal_colour            colorless
_exptl_crystal_description       block
_cell_formula_units_Z            2
loop_
_atom_site_label
_atom_site_type_symbol
_atom_site_fract_x
_atom_site_fract_y
_atom_site_fract_z
O1 O -0.1180(3) 1.1475(3) 0.72314(18)
O2 O -0.0819(3) 1.0363(3) 0.62045(19)
O3 O 0.5042(4) 1.3283(3) 0.54074(18)
O4 O 1.0370(16) 1.5132(11) 0.2543(7)
O5 O 1.2112(10) 1.4051(8) 0.3176(6)
O6 O 1.2855(3) 1.0539(3) 0.00119(18)
O7 O 1.2976(5) 0.4588(3) -0.0255(3)
O8 O 1.4783(5) 0.5118(3) -0.1230(3)
N1 N -0.0431(4) 1.1012(3) 0.6516(2)
N2 N 0.4969(4) 1.1932(3) 0.4604(2)
H1 H 0.548(4) 1.156(3) 0.413(2)
N3 N 0.6682(10) 1.2881(7) 0.4039(6)
H2 H 0.7094 1.2390 0.3615
N4 N 1.0694(9) 1.1513(7) 0.1102(5)
H3 H 1.0293 1.1240 0.1639
N5 N 1.1050(4) 0.9678(3) 0.0749(2)
H4 H 1.023(3) 0.974(3) 0.117(2)
N6 N 1.3606(5) 0.5313(4) -0.0599(3)
C1 C 0.1939(4) 1.0634(3) 0.5303(2)
H5 H 0.1701 1.0044 0.5124
C2 C 0.3257(4) 1.0875(3) 0.4845(2)
H6 H 0.3938 1.0445 0.4348
C3 C 0.3609(4) 1.1752(3) 0.5105(2)
C4 C 0.2597(4) 1.2378(3) 0.5837(2)
H7 H 0.2813 1.2979 0.6016
C5 C 0.1283(4) 1.2125(3) 0.6299(2)
H8 H 0.0599 1.2544 0.6802
C6 C 0.0967(4) 1.1266(3) 0.6029(2)
C7 C 0.5605(5) 1.2682(4) 0.4756(3)
C8 C 0.7215(11) 1.3871(8) 0.3920(6)
H9 H 0.633(6) 1.450(5) 0.418(4)
C9 C 0.8458(8) 1.3657(8) 0.4397(4)
H10 H 0.8703 1.4372 0.4361
H11 H 0.8091 1.3422 0.5040
C10 C 0.9880(5) 1.2711(4) 0.3940(2)
H12 H 0.9622 1.2007 0.3956
H13 H 1.0657 1.2531 0.4271
C11 C 1.0543(8) 1.3112(7) 0.2928(4)
C12 C 0.7811(5) 1.4239(4) 0.2926(3)
H14 H 0.8044 1.4961 0.2884
H15 H 0.7023 1.4382 0.2610
C13 C 0.9268(8) 1.3284(7) 0.2471(4)
H16 H 0.9029 1.2550 0.2555
C14 C 1.1029(13) 1.4225(8) 0.2844(6)
C15 C 1.1885(5) 1.2064(4) 0.2478(3)
H17 H 1.2726 1.1883 0.2758
H18 H 1.1538 1.1385 0.2584
C16 C 0.9824(5) 1.3578(4) 0.1457(2)
H19 H 1.0173 1.4256 0.1359
H20 H 0.8988 1.3760 0.1173
C17 C 1.1176(9) 1.2509(8) 0.1028(5)
H21 H 1.152(7) 1.274(5) 0.0395(18)
C18 C 1.2462(9) 1.2320(9) 0.1462(6)
H22 H 1.3352 1.1669 0.1197
H23 H 1.2777 1.3015 0.1349
C19 C 1.246(2) 1.5103(17) 0.3219(17)
H24 H 1.2770 1.5474 0.2613
H25 H 1.1594 1.5663 0.3608
C20 C 1.3634(15) 1.463(2) 0.3592(13)
H26 H 1.4440 1.4048 0.3208
H27 H 1.3283 1.4279 0.4191
H28 H 1.4030 1.5232 0.3647
C21 C 1.1687(5) 1.0534(4) 0.0614(3)
C22 C 1.1690(4) 0.8630(3) 0.0365(2)
C23 C 1.1113(5) 0.7746(3) 0.0807(3)
H29 H 1.0287 0.7893 0.1336
C24 C 1.1727(5) 0.6660(4) 0.0487(3)
H30 H 1.1321 0.6064 0.0783
C25 C 1.2947(5) 0.6464(4) -0.0276(3)
C26 C 1.3514(5) 0.7321(4) -0.0730(3)
H31 H 1.4337 0.7165 -0.1261
C27 C 1.2899(5) 0.8406(4) -0.0422(3)
H32 H 1.3290 0.9001 -0.0740
O11 O 0.6056(3) 1.0742(3) 0.29527(18)
O12 O 0.8216(3) 1.1033(3) 0.26588(18)
O13 O 0.8032(3) 0.9720(2) 0.19947(17)
N9 N 0.7433(4) 1.0498(3) 0.2533(2)
N10 N 0.5372(3) 0.7880(3) 0.1940(2)
C37 C 0.7076(4) 0.7443(4) 0.1644(3)
H55 H 0.7470 0.7295 0.2172
H56 H 0.7455 0.8019 0.1228
H57 H 0.7415 0.6731 0.1340
C38 C 0.4866(5) 0.8946(4) 0.2422(3)
H58 H 0.3755 0.9212 0.2644
H59 H 0.5204 0.9541 0.2008
H60 H 0.5304 0.8786 0.2932
C39 C 0.4770(5) 0.8119(4) 0.1139(3)
H61 H 0.5108 0.7413 0.0828
H62 H 0.5147 0.8700 0.0728
H63 H 0.3657 0.8404 0.1334
C40 C 0.4786(5) 0.6997(4) 0.2552(3)
H64 H 0.5119 0.6296 0.2234
H65 H 0.3674 0.7287 0.2745
H66 H 0.5179 0.6825 0.3082
O9? O 0.9949(13) 1.5682(9) 0.2269(7)
O10? O 1.145(2) 1.4272(16) 0.3017(12)
N7? N 0.7183(14) 1.2440(10) 0.4268(8)
H33? H 0.7540 1.2008 0.3824
N8? N 1.1289(13) 1.1126(10) 0.1340(8)
H34? H 1.0497 1.1057 0.1778
C28? C 0.8069(13) 1.3127(10) 0.4373(8)
H35? H 0.7876 1.3176 0.5035
C29? C 0.7530(16) 1.4302(14) 0.3983(10)
H36? H 0.8091 1.4774 0.4083
H37? H 0.6435 1.4659 0.4273
H38? H 1.0325 1.3263 0.4045
H39? H 1.0355 1.1947 0.4210
C30? C 1.0143(12) 1.2654(10) 0.2903(7)
H40? H 0.9571 1.2173 0.2818
C31? C 0.9586(13) 1.3813(10) 0.2489(7)
H41? H 0.7350 1.3698 0.2823
H42? H 0.7347 1.5005 0.2655
C32? C 1.031(3) 1.470(2) 0.261(2)
H43? H 1.2470 1.2553 0.2516
H44? H 1.2248 1.1312 0.2800
H45? H 0.9287 1.3045 0.1441
H46? H 0.9416 1.4306 0.1120
C33? C 1.1548(16) 1.3048(11) 0.1032(8)
H47? H 1.1754 1.2986 0.0378
H48? H 1.2093 1.3543 0.1113
C34? C 1.2082(18) 1.1903(12) 0.1473(10)
H49? H 1.3192 1.1564 0.1179
C35? C 1.204(4) 1.515(3) 0.312(3)
H50? H 1.1178 1.5833 0.3363
H51? H 1.2611 1.5390 0.2518
C36? C 1.306(3) 1.474(4) 0.373(2)
H52? H 1.4006 1.4161 0.3438
H53? H 1.2550 1.4389 0.4295
H54? H 1.3290 1.5383 0.3868
loop_
_geom_bond_atom_site_label_1
_geom_bond_atom_site_label_2
_geom_bond_site_symmetry_1
_geom_bond_site_symmetry_2
O1 N1 1_555 1_555
O2 N1 1_555 1_555
O3 C7 1_555 1_555
O4 C14 1_555 1_555
O5 C14 1_555 1_555
O6 C21 1_555 1_555
O7 N6 1_555 1_555
O8 N6 1_555 1_555
N1 C6 1_555 1_555
N2 H1 1_555 1_555
N3 H2 1_555 1_555
N4 H3 1_555 1_555
N5 H4 1_555 1_555
N6 C25 1_555 1_555
C1 H5 1_555 1_555
C2 C1 1_555 1_555
H6 C2 1_555 1_555
C3 N2 1_555 1_555
C4 C3 1_555 1_555
H7 C4 1_555 1_555
C5 C4 1_555 1_555
H8 C5 1_555 1_555
C6 C1 1_555 1_555
C7 N2 1_555 1_555
C8 N3 1_555 1_555
H9 C8 1_555 1_555
C9 C8 1_555 1_555
H10 C9 1_555 1_555
H11 C9 1_555 1_555
C10 C9 1_555 1_555
H12 C10 1_555 1_555
H13 C10 1_555 1_555
C11 C10 1_555 1_555
C12 C8 1_555 1_555
H14 C12 1_555 1_555
H15 C12 1_555 1_555
C13 C11 1_555 1_555
H16 C13 1_555 1_555
C14 C11 1_555 1_555
C15 C11 1_555 1_555
H17 C15 1_555 1_555
H18 C15 1_555 1_555
C16 C13 1_555 1_555
H19 C16 1_555 1_555
H20 C16 1_555 1_555
C17 N4 1_555 1_555
H21 C17 1_555 1_555
C18 C15 1_555 1_555
H22 C18 1_555 1_555
H23 C18 1_555 1_555
C19 O5 1_555 1_555
H24 C19 1_555 1_555
H25 C19 1_555 1_555
C20 C19 1_555 1_555
H26 C20 1_555 1_555
H27 C20 1_555 1_555
H28 C20 1_555 1_555
C21 N4 1_555 1_555
C22 N5 1_555 1_555
C23 C22 1_555 1_555
H29 C23 1_555 1_555
C24 C23 1_555 1_555
H30 C24 1_555 1_555
C25 C24 1_555 1_555
C26 C25 1_555 1_555
H31 C26 1_555 1_555
C27 C22 1_555 1_555
H32 C27 1_555 1_555
O11 N9 1_555 1_555
O12 N9 1_555 1_555
O13 N9 1_555 1_555
N10 C37 1_555 1_555
C37 H55 1_555 1_555
H56 C37 1_555 1_555
H57 C37 1_555 1_555
C38 N10 1_555 1_555
H58 C38 1_555 1_555
H59 C38 1_555 1_555
H60 C38 1_555 1_555
C39 N10 1_555 1_555
H61 C39 1_555 1_555
H62 C39 1_555 1_555
H63 C39 1_555 1_555
C40 N10 1_555 1_555
H64 C40 1_555 1_555
H65 C40 1_555 1_555
H66 C40 1_555 1_555
N3 C7 1_555 1_555
N5 C21 1_555 1_555
C2 C3 1_555 1_555
C5 C6 1_555 1_555
C12 C13 1_555 1_555
C16 C17 1_555 1_555
C17 C18 1_555 1_555
C26 C27 1_555 1_555

#END
