
#######################################################################
#
#                 Cambridge Crystallographic Data Centre
#                                CCDC 
#
#######################################################################
#
# If this CIF has been generated from an entry in the Cambridge 
# Structural Database, then it will include bibliographic, chemical, 
# crystal, experimental, refinement or atomic coordinate data resulting 
# from the CCDC's data processing and validation procedures.
#
#######################################################################

data_FIHYEA02
_chemical_formula_moiety         '0.5(C10 H8 N2),C7 H4 N2 O6'
_chemical_name_systematic        
'3,5-Dinitrobenzoic acid hemikis(4,4-bipyridine)'
_symmetry_cell_setting           monoclinic
_symmetry_space_group_name_H-M   'P 21/c'
_symmetry_Int_Tables_number      14
_space_group_name_Hall           '-P 2ybc'
loop_
_symmetry_equiv_pos_site_id
_symmetry_equiv_pos_as_xyz
1 x,y,z
2 -x,1/2+y,1/2-z
3 -x,-y,-z
4 x,1/2-y,1/2+z
_cell_length_a                   6.169(2)
_cell_length_b                   22.252(9)
_cell_length_c                   10.396(3)
_cell_angle_alpha                90
_cell_angle_beta                 116.387(17)
_cell_angle_gamma                90
_cell_volume                     1278.4
_exptl_crystal_colour            colorless
_exptl_crystal_description       block
_chemical_melting_point          158-160deg.C
_cell_formula_units_Z            4
loop_
_atom_site_label
_atom_site_type_symbol
_atom_site_fract_x
_atom_site_fract_y
_atom_site_fract_z
O1 O 0.1323(12) 0.1744(2) 0.2650(6)
O2 O 0.4930(12) 0.20919(19) 0.3748(6)
O3 O 0.6291(10) 0.3892(2) 0.6487(5)
O4 O 0.3402(9) 0.4504(2) 0.5972(5)
O5 O -0.4802(6) 0.39711(16) 0.2803(4)
H1 H -0.6220 0.4055 0.2281
O6 O -0.5695(7) 0.31331(18) 0.1530(4)
N1 N 0.4172(10) 0.4033(3) 0.5830(5)
N2 N 0.2740(15) 0.2126(2) 0.3324(7)
C1 C -0.4282(9) 0.3459(2) 0.2414(5)
C2 C -0.1618(8) 0.33219(19) 0.3236(5)
C3 C -0.0702(11) 0.2779(2) 0.2978(5)
H2 H -0.1763 0.2492 0.2375
C4 C 0.1699(12) 0.2672(2) 0.3597(6)
C5 C 0.3379(9) 0.3077(2) 0.4591(5)
H3 H 0.5032 0.2999 0.5047
C6 C 0.2424(9) 0.3585(2) 0.4834(5)
C7 C 0.0004(9) 0.37184(19) 0.4183(5)
H4 H -0.0538 0.4079 0.4386
N3 N 1.0821(8) 0.0669(2) 0.6484(5)
C8 C 0.8894(11) 0.0950(3) 0.5448(7)
H5 H 0.9114 0.1328 0.5141
C9 C 0.6587(9) 0.0696(2) 0.4821(5)
H6 H 0.5310 0.0895 0.4087
C10 C 0.6222(8) 0.01361(18) 0.5311(5)
C11 C 0.8224(10) -0.0129(2) 0.6408(6)
H7 H 0.8060 -0.0496 0.6782
C12 C 1.0435(10) 0.0145(3) 0.6945(6)
H8 H 1.1740 -0.0048 0.7674
N3B N -0.0821(8) -0.0669(2) 0.3516(5)
C8B C 0.1106(11) -0.0950(3) 0.4552(7)
H5B H 0.0886 -0.1328 0.4859
C9B C 0.3413(9) -0.0696(2) 0.5179(5)
H6B H 0.4690 -0.0895 0.5913
C10B C 0.3778(8) -0.01361(18) 0.4689(5)
C11B C 0.1776(10) 0.0129(2) 0.3592(6)
H7B H 0.1940 0.0496 0.3218
C12B C -0.0435(10) -0.0145(3) 0.3055(6)
H8B H -0.1740 0.0048 0.2326
loop_
_geom_bond_atom_site_label_1
_geom_bond_atom_site_label_2
_geom_bond_site_symmetry_1
_geom_bond_site_symmetry_2
O1 N2 1_555 1_555
O2 N2 1_555 1_555
O3 N1 1_555 1_555
O4 N1 1_555 1_555
O5 H1 1_555 1_555
O6 C1 1_555 1_555
N1 C6 1_555 1_555
N2 C4 1_555 1_555
C1 O5 1_555 1_555
C2 C1 1_555 1_555
C3 C2 1_555 1_555
H2 C3 1_555 1_555
C4 C3 1_555 1_555
C5 C4 1_555 1_555
H3 C5 1_555 1_555
C6 C5 1_555 1_555
C7 C2 1_555 1_555
H4 C7 1_555 1_555
N3 C8 1_555 1_555
C8 H5 1_555 1_555
C9 C8 1_555 1_555
H6 C9 1_555 1_555
C10 C9 1_555 1_555
C11 C10 1_555 1_555
H7 C11 1_555 1_555
C12 N3 1_555 1_555
H8 C12 1_555 1_555
N3B C8B 1_555 1_555
C8B H5B 1_555 1_555
C9B C8B 1_555 1_555
H6B C9B 1_555 1_555
C10B C10 1_555 1_555
C11B C10B 1_555 1_555
H7B C11B 1_555 1_555
C12B N3B 1_555 1_555
H8B C12B 1_555 1_555
C6 C7 1_555 1_555
C11 C12 1_555 1_555
C9B C10B 1_555 1_555
C11B C12B 1_555 1_555

#END
