
#######################################################################
#
#                 Cambridge Crystallographic Data Centre
#                                CCDC 
#
#######################################################################
#
# If this CIF has been generated from an entry in the Cambridge 
# Structural Database, then it will include bibliographic, chemical, 
# crystal, experimental, refinement or atomic coordinate data resulting 
# from the CCDC's data processing and validation procedures.
#
#######################################################################

data_FIJBAE
_chemical_formula_moiety         'C21 H16 N2 S2'
_chemical_name_systematic        
3-(10-ethyl-10H-phenothiazin-3-yl)-2-(thiophen-2-yl)prop-2-enenitrile
_symmetry_cell_setting           orthorhombic
_symmetry_space_group_name_H-M   'P b c a'
_symmetry_Int_Tables_number      61
_space_group_name_Hall           '-P 2ac 2ab'
loop_
_symmetry_equiv_pos_site_id
_symmetry_equiv_pos_as_xyz
1 x,y,z
2 1/2-x,-y,1/2+z
3 1/2+x,1/2-y,-z
4 -x,1/2+y,1/2-z
5 -x,-y,-z
6 1/2+x,y,1/2-z
7 1/2-x,1/2+y,z
8 x,1/2-y,1/2+z
_cell_length_a                   15.888(5)
_cell_length_b                   7.873(5)
_cell_length_c                   28.030(5)
_cell_angle_alpha                90
_cell_angle_beta                 90
_cell_angle_gamma                90
_cell_volume                     3506.17
_exptl_crystal_colour            orange
_cell_formula_units_Z            8
loop_
_atom_site_label
_atom_site_type_symbol
_atom_site_fract_x
_atom_site_fract_y
_atom_site_fract_z
S1 S 0.98699(7) 0.22131(12) 0.69151(3)
S2 S 0.83922(11) 0.6067(2) 0.42746(5)
N1 N 0.8621(2) -0.0545(4) 0.67805(10)
C1 C 0.9202(2) 0.1993(4) 0.64157(12)
C2 C 0.9150(2) 0.8672(4) 0.47035(10)
H1 H 0.9421 0.9373 0.4922
C3 C 0.9142(2) 0.1542(4) 0.73517(12)
C4 C 0.8605(2) 0.0180(4) 0.72466(12)
C5 C 0.8754(2) 0.2972(5) 0.56358(12)
C6 C 0.8189(2) 0.0367(5) 0.59740(12)
H2 H 0.7830 -0.0561 0.5945
C7 C 0.8666(2) 0.0573(4) 0.63923(12)
C8 C 0.8878(3) 0.6808(5) 0.47622(14)
C9 C 0.9236(2) 0.3178(4) 0.60530(13)
H3 H 0.9581 0.4124 0.6085
C10 C 0.9018(2) 0.5754(5) 0.51861(13)
C11 C 0.9115(3) 0.2309(5) 0.77975(14)
H4 H 0.9451 0.3250 0.7861
C12 C 0.8711(3) 0.4170(5) 0.52424(13)
H5 H 0.8417 0.3767 0.4979
C13 C 0.8236(3) -0.2226(5) 0.67086(14)
H6 H 0.8237 -0.2494 0.6371
H7 H 0.7655 -0.2191 0.6814
C14 C 0.8060(3) -0.0400(5) 0.75961(13)
H8 H 0.7693 -0.1290 0.7530
C15 C 0.8062(3) 0.0343(6) 0.80418(13)
H9 H 0.7699 -0.0063 0.8276
C16 C 0.8246(3) 0.1516(5) 0.56085(13)
H10 H 0.7938 0.1324 0.5332
C17 C 0.8696(3) -0.3611(5) 0.69772(16)
H11 H 0.9268 -0.3669 0.6868
H12 H 0.8424 -0.4682 0.6921
H13 H 0.8688 -0.3362 0.7312
C18 C 0.8487(4) 0.7866(7) 0.39795(18)
H14 H 0.8282 0.8016 0.3672
C19 C 0.8592(3) 0.1676(6) 0.81458(14)
H15 H 0.8596 0.2147 0.8450
C20 C 0.9528(3) 0.6560(5) 0.55467(14)
N2 N 0.9931(3) 0.7273(5) 0.58216(16)
C21 C 0.8875(4) 0.9067(6) 0.4217(2)
H16 H 0.8973 1.0127 0.4081
C22? C 0.83922(11) 0.6067(2) 0.42746(5)
S3? S 0.9150(2) 0.8672(4) 0.47035(10)
H17? H 0.8087 0.4717 0.4176
loop_
_geom_bond_atom_site_label_1
_geom_bond_atom_site_label_2
_geom_bond_site_symmetry_1
_geom_bond_site_symmetry_2
S1 C1 1_555 1_555
S2 C8 1_555 1_555
N1 C4 1_555 1_555
C1 C7 1_555 1_555
C2 H1 1_555 1_555
C3 S1 1_555 1_555
C4 C3 1_555 1_555
C5 C9 1_555 1_555
C6 H2 1_555 1_555
C7 N1 1_555 1_555
C8 C2 1_555 1_555
C9 C1 1_555 1_555
H3 C9 1_555 1_555
C10 C8 1_555 1_555
C11 C3 1_555 1_555
H4 C11 1_555 1_555
C12 C5 1_555 1_555
H5 C12 1_555 1_555
C13 N1 1_555 1_555
H6 C13 1_555 1_555
H7 C13 1_555 1_555
C14 C4 1_555 1_555
H8 C14 1_555 1_555
C15 C14 1_555 1_555
H9 C15 1_555 1_555
C16 C5 1_555 1_555
H10 C16 1_555 1_555
C17 C13 1_555 1_555
H11 C17 1_555 1_555
H12 C17 1_555 1_555
H13 C17 1_555 1_555
C18 S2 1_555 1_555
H14 C18 1_555 1_555
C19 C11 1_555 1_555
H15 C19 1_555 1_555
C20 C10 1_555 1_555
N2 C20 1_555 1_555
C21 C2 1_555 1_555
H16 C21 1_555 1_555
C6 C7 1_555 1_555
C6 C16 1_555 1_555
C10 C12 1_555 1_555
C15 C19 1_555 1_555
C18 C21 1_555 1_555

#END
