
#######################################################################
#
#                 Cambridge Crystallographic Data Centre
#                                CCDC 
#
#######################################################################
#
# If this CIF has been generated from an entry in the Cambridge 
# Structural Database, then it will include bibliographic, chemical, 
# crystal, experimental, refinement or atomic coordinate data resulting 
# from the CCDC's data processing and validation procedures.
#
#######################################################################

data_FIJLIW
_chemical_formula_moiety         'C22 H26 O4 S1'
_chemical_name_systematic        
'methyl 3-[(4-t-butylphenyl)sulfonyl]-2-methyl-4-phenylbut-3-enoate'
_symmetry_cell_setting           triclinic
_symmetry_space_group_name_H-M   'P -1'
_symmetry_Int_Tables_number      2
_space_group_name_Hall           '-P 1'
loop_
_symmetry_equiv_pos_site_id
_symmetry_equiv_pos_as_xyz
1 x,y,z
2 -x,-y,-z
_cell_length_a                   10.3175(2)
_cell_length_b                   13.2790(4)
_cell_length_c                   16.4622(5)
_cell_angle_alpha                70.836(3)
_cell_angle_beta                 88.115(2)
_cell_angle_gamma                79.078(2)
_cell_volume                     2090.8
_exptl_crystal_description       block
_cell_formula_units_Z            4
loop_
_atom_site_label
_atom_site_type_symbol
_atom_site_fract_x
_atom_site_fract_y
_atom_site_fract_z
S1 S 0.73833(5) 0.66564(5) 0.67334(4)
O1 O 0.8113(2) 0.61365(16) 0.61744(12)
O2 O 0.59989(17) 0.70917(16) 0.65557(13)
C1 C 0.7568(2) 0.57041(18) 0.77824(15)
C2 C 0.9440(2) 0.76223(19) 0.65526(16)
H1 H 0.9774 0.7003 0.6410
C3 C 1.0396(2) 0.83206(19) 0.65215(16)
C4 C 0.6478(2) 0.5516(2) 0.82767(16)
H2 H 0.5641 0.5899 0.8063
C5 C 0.6639(2) 0.4757(2) 0.90907(17)
H3 H 0.5898 0.4631 0.9418
C6 C 0.7873(2) 0.41758(19) 0.94365(17)
C7 C 0.8174(2) 0.77301(19) 0.67514(17)
C8 C 0.8811(2) 0.5117(2) 0.81056(17)
H4 H 0.9548 0.5232 0.7772
C9 C 1.1695(2) 0.7820(2) 0.67667(17)
H5 H 1.1924 0.7067 0.6935
C10 C 0.8952(2) 0.4372(2) 0.89135(18)
H6 H 0.9790 0.3985 0.9121
C11 C 0.8067(3) 0.3373(2) 1.03474(19)
C12 C 1.2655(3) 0.8418(3) 0.6766(2)
H7 H 1.3520 0.8067 0.6934
C13 C 1.0104(3) 0.9447(2) 0.6247(2)
H8 H 0.9251 0.9809 0.6055
C14 C 1.2335(3) 0.9516(3) 0.6520(3)
H9 H 1.2979 0.9916 0.6531
C15 C 1.1077(3) 1.0036(3) 0.6256(3)
H10 H 1.0868 1.0790 0.6081
C16 C 0.8909(5) 0.3804(4) 1.0869(3)
H11 H 0.9682 0.3983 1.0557
H12 H 0.9169 0.3255 1.1415
H13 H 0.8401 0.4440 1.0960
C17 C 0.8795(6) 0.2292(3) 1.0340(3)
H14 H 0.8203 0.1925 1.0157
H15 H 0.9141 0.1864 1.0908
H16 H 0.9508 0.2390 0.9949
C18 C 0.6794(4) 0.3253(5) 1.0800(3)
H17 H 0.6390 0.3930 1.0873
H18 H 0.6965 0.2701 1.1353
H19 H 0.6211 0.3050 1.0464
C19 C 0.6448(6) 0.9478(5) 0.6200(3)
H20 H 0.5984 1.0069 0.6373
H21 H 0.5824 0.9103 0.6061
H22 H 0.6953 0.9756 0.5704
C20 C 0.7348(3) 0.8715(3) 0.6915(2)
H23 H 0.7986 0.9134 0.7002
O3 O 0.5488(3) 0.8756(3) 0.7840(2)
O4 O 0.7436(3) 0.7742(3) 0.8402(2)
C21 C 0.6617(3) 0.8409(3) 0.7757(3)
C22 C 0.6898(5) 0.7446(4) 0.9249(3)
H24 H 0.7571 0.6971 0.9659
H25 H 0.6176 0.7083 0.9252
H26 H 0.6588 0.8089 0.9399
S2 S 0.67746(5) 0.65720(5) 0.16934(4)
O7 O 0.59830(17) 0.77476(17) 0.35020(12)
O8 O 0.79480(16) 0.70119(16) 0.14155(12)
O9 O 0.62570(19) 0.60165(16) 0.11972(12)
O10 O 0.78149(18) 0.8230(2) 0.28961(14)
C27 C 0.7079(2) 0.56576(18) 0.27486(15)
C28 C 0.7551(2) 0.41761(17) 0.44255(16)
C29 C 0.5491(2) 0.76435(18) 0.17666(14)
C30 C 0.6689(2) 0.81664(19) 0.28357(16)
C31 C 0.2994(2) 0.82479(19) 0.15856(15)
C32 C 0.5854(2) 0.85622(19) 0.20119(16)
H34 H 0.5021 0.8978 0.2130
C33 C 0.8236(2) 0.55421(19) 0.31915(16)
H35 H 0.8862 0.5959 0.2937
C34 C 0.6153(2) 0.5019(2) 0.31348(17)
H36 H 0.5376 0.5080 0.2837
C35 C 0.4279(2) 0.75422(19) 0.15870(15)
H37 H 0.4242 0.6929 0.1440
C36 C 0.6394(2) 0.43029(19) 0.39542(17)
H38 H 0.5766 0.3886 0.4206
C37 C 0.8468(2) 0.48054(19) 0.40153(16)
H39 H 0.9260 0.4729 0.4303
C38 C 0.1910(2) 0.7742(2) 0.18205(17)
H40 H 0.2031 0.6991 0.1973
C39 C 0.7745(2) 0.3416(2) 0.53520(17)
C40 C 0.0670(3) 0.8329(3) 0.1831(2)
H41 H -0.0042 0.7976 0.1985
C41 C 0.6474(3) 0.9359(2) 0.1283(2)
H42 H 0.7281 0.8984 0.1127
H43 H 0.6657 0.9931 0.1472
H44 H 0.5872 0.9663 0.0794
C42 C 0.6700(3) 0.3868(3) 0.5892(2)
H45 H 0.6811 0.4581 0.5862
H46 H 0.6800 0.3398 0.6480
H47 H 0.5834 0.3907 0.5673
C43 C 0.2782(3) 0.9365(2) 0.1336(3)
H48 H 0.3483 0.9726 0.1155
C44 C 0.6637(3) 0.7355(3) 0.43414(19)
H49 H 0.7409 0.6820 0.4347
H50 H 0.6046 0.7035 0.4769
H51 H 0.6891 0.7949 0.4466
C45 C 0.7552(4) 0.2278(2) 0.5415(2)
H52 H 0.6683 0.2319 0.5201
H53 H 0.7656 0.1816 0.6005
H54 H 0.8198 0.1985 0.5078
C46 C 0.9112(3) 0.3332(3) 0.5732(2)
H55 H 0.9780 0.3076 0.5389
H56 H 0.9198 0.2834 0.6310
H57 H 0.9215 0.4035 0.5735
C47 C 0.0476(3) 0.9426(3) 0.1619(3)
H58 H -0.0359 0.9820 0.1653
C48 C 0.1519(3) 0.9953(3) 0.1353(3)
H59 H 0.1379 1.0706 0.1184
O5? O 0.5392(12) 0.9491(15) 0.7161(11)
C23? C 0.6414(14) 0.9139(13) 0.6869(12)
C24? C 0.7511(15) 0.8366(12) 0.7433(11)
H27? H 0.8143 0.8804 0.7494
O6? O 0.665(2) 0.9412(16) 0.5973(12)
C25? C 0.566(2) 1.0127(17) 0.5482(11)
H28? H 0.5890 1.0305 0.4889
H29? H 0.5500 1.0773 0.5641
H30? H 0.4876 0.9817 0.5564
C26? C 0.704(3) 0.795(2) 0.824(2)
H31? H 0.7735 0.7450 0.8615
H32? H 0.6338 0.7575 0.8206
H33? H 0.6700 0.8529 0.8461
loop_
_geom_bond_atom_site_label_1
_geom_bond_atom_site_label_2
_geom_bond_site_symmetry_1
_geom_bond_site_symmetry_2
S1 O1 1_555 1_555
O2 S1 1_555 1_555
C1 S1 1_555 1_555
C2 H1 1_555 1_555
C3 C2 1_555 1_555
C4 C1 1_555 1_555
H2 C4 1_555 1_555
C5 C4 1_555 1_555
H3 C5 1_555 1_555
C6 C5 1_555 1_555
C7 S1 1_555 1_555
C8 C1 1_555 1_555
H4 C8 1_555 1_555
C9 C3 1_555 1_555
H5 C9 1_555 1_555
C10 C6 1_555 1_555
H6 C10 1_555 1_555
C11 C6 1_555 1_555
C12 C9 1_555 1_555
H7 C12 1_555 1_555
C13 C3 1_555 1_555
H8 C13 1_555 1_555
C14 C12 1_555 1_555
H9 C14 1_555 1_555
C15 C13 1_555 1_555
H10 C15 1_555 1_555
C16 C11 1_555 1_555
H11 C16 1_555 1_555
H12 C16 1_555 1_555
H13 C16 1_555 1_555
C17 C11 1_555 1_555
H14 C17 1_555 1_555
H15 C17 1_555 1_555
H16 C17 1_555 1_555
C18 C11 1_555 1_555
H17 C18 1_555 1_555
H18 C18 1_555 1_555
H19 C18 1_555 1_555
C19 H20 1_555 1_555
H21 C19 1_555 1_555
H22 C19 1_555 1_555
C20 C7 1_555 1_555
H23 C20 1_555 1_555
O3 C21 1_555 1_555
O4 C21 1_555 1_555
C21 C20 1_555 1_555
C22 O4 1_555 1_555
H24 C22 1_555 1_555
H25 C22 1_555 1_555
H26 C22 1_555 1_555
S2 O8 1_555 1_555
O7 C30 1_555 1_555
O9 S2 1_555 1_555
O10 C30 1_555 1_555
C27 S2 1_555 1_555
C28 C36 1_555 1_555
C29 S2 1_555 1_555
C30 C32 1_555 1_555
C31 C35 1_555 1_555
C32 C29 1_555 1_555
H34 C32 1_555 1_555
C33 C27 1_555 1_555
H35 C33 1_555 1_555
C34 C27 1_555 1_555
H36 C34 1_555 1_555
C35 C29 1_555 1_555
H37 C35 1_555 1_555
C36 C34 1_555 1_555
H38 C36 1_555 1_555
C37 C28 1_555 1_555
H39 C37 1_555 1_555
C38 C31 1_555 1_555
H40 C38 1_555 1_555
C39 C28 1_555 1_555
C40 C38 1_555 1_555
H41 C40 1_555 1_555
C41 C32 1_555 1_555
H42 C41 1_555 1_555
H43 C41 1_555 1_555
H44 C41 1_555 1_555
C42 C39 1_555 1_555
H45 C42 1_555 1_555
H46 C42 1_555 1_555
H47 C42 1_555 1_555
C43 C31 1_555 1_555
H48 C43 1_555 1_555
C44 O7 1_555 1_555
H49 C44 1_555 1_555
H50 C44 1_555 1_555
H51 C44 1_555 1_555
C45 C39 1_555 1_555
H52 C45 1_555 1_555
H53 C45 1_555 1_555
H54 C45 1_555 1_555
C46 C39 1_555 1_555
H55 C46 1_555 1_555
H56 C46 1_555 1_555
H57 C46 1_555 1_555
C47 C40 1_555 1_555
H58 C47 1_555 1_555
C48 C43 1_555 1_555
H59 C48 1_555 1_555
C2 C7 1_555 1_555
C8 C10 1_555 1_555
C14 C15 1_555 1_555
C19 C20 1_555 1_555
C33 C37 1_555 1_555
C47 C48 1_555 1_555

#END
