
#######################################################################
#
#                 Cambridge Crystallographic Data Centre
#                                CCDC 
#
#######################################################################
#
# If this CIF has been generated from an entry in the Cambridge 
# Structural Database, then it will include bibliographic, chemical, 
# crystal, experimental, refinement or atomic coordinate data resulting 
# from the CCDC's data processing and validation procedures.
#
#######################################################################

data_FIJXED
_chemical_formula_moiety         'C25 H22 N2 O2'
_chemical_name_systematic        
1-(4-(2-Hydroxyphenyl)-2-phenyl-2,3-dihydro-1H-1,5-benzodiazepin-1-yl)but-2-en-1-one
_symmetry_cell_setting           monoclinic
_symmetry_space_group_name_H-M   'C 2/c'
_symmetry_Int_Tables_number      15
_space_group_name_Hall           '-C 2yn'
loop_
_symmetry_equiv_pos_site_id
_symmetry_equiv_pos_as_xyz
1 x,y,z
2 -x,y,1/2-z
3 1/2+x,1/2+y,z
4 1/2-x,1/2+y,1/2-z
5 -x,-y,-z
6 x,-y,1/2+z
7 1/2-x,1/2-y,-z
8 1/2+x,1/2-y,1/2+z
_cell_length_a                   30.0009(11)
_cell_length_b                   7.5964(2)
_cell_length_c                   17.0719(6)
_cell_angle_alpha                90
_cell_angle_beta                 93.392(3)
_cell_angle_gamma                90
_cell_volume                     3883.85
_cell_formula_units_Z            8
loop_
_atom_site_label
_atom_site_type_symbol
_atom_site_fract_x
_atom_site_fract_y
_atom_site_fract_z
O1 O 0.19984(4) 0.66605(16) 0.03000(7)
O2 O 0.03216(5) 0.75387(16) -0.08159(7)
H1 H 0.0365 0.7935 -0.0371
N1 N 0.14825(4) 0.71942(17) 0.11822(8)
C1 C 0.06730(5) 0.5854(2) 0.06127(9)
N2 N 0.05842(4) 0.75305(18) 0.06301(8)
C2 C 0.04194(5) 0.5808(2) -0.08142(10)
C3 C 0.17153(6) 0.9577(2) 0.03402(10)
H2 H 0.1500 1.0294 0.0546
C4 C 0.11960(5) 0.8392(2) 0.15652(10)
C5 C 0.04739(6) 0.9761(2) 0.16283(10)
H3 H 0.0181 0.9917 0.1431
C6 C 0.14122(5) 0.5280(2) 0.12870(9)
H4 H 0.1511 0.4699 0.0815
C7 C 0.07471(5) 0.8530(2) 0.12886(9)
C8 C 0.16870(5) 0.4510(2) 0.19791(10)
C9 C 0.06643(6) 0.3092(2) -0.01971(10)
H5 H 0.0762 0.2466 0.0249
C10 C 0.13605(6) 0.9413(2) 0.21895(10)
H6 H 0.1658 0.9314 0.2370
C11 C 0.09072(5) 0.4947(2) 0.13078(9)
H7 H 0.0847 0.3692 0.1286
H8 H 0.0799 0.5405 0.1791
C12 C 0.17539(5) 0.7720(2) 0.06021(9)
C13 C 0.04627(6) 0.3141(2) -0.15711(11)
H9 H 0.0429 0.2563 -0.2051
C14 C 0.20464(6) 0.3427(2) 0.18356(11)
H10 H 0.2115 0.3199 0.1321
C15 C 0.10806(6) 1.0582(2) 0.25454(10)
H11 H 0.1188 1.1248 0.2973
C16 C 0.06109(6) 0.2217(2) -0.09026(11)
H12 H 0.0673 0.1020 -0.0932
C17 C 0.15897(6) 0.4842(2) 0.27532(10)
H13 H 0.1351 0.5566 0.2859
C18 C 0.05758(5) 0.4899(2) -0.01287(10)
C19 C 0.06407(6) 1.0754(2) 0.22625(11)
H14 H 0.0454 1.1546 0.2500
C20 C 0.22046(6) 0.3016(3) 0.32152(13)
H15 H 0.2377 0.2519 0.3629
C21 C 0.03651(6) 0.4909(2) -0.15254(10)
H16 H 0.0262 0.5511 -0.1975
C22 C 0.19775(6) 1.0235(2) -0.01757(11)
H17 H 0.2213 0.9537 -0.0324
C23 C 0.18479(6) 0.4096(2) 0.33649(11)
H18 H 0.1781 0.4322 0.3880
C24 C 0.19283(7) 1.2011(2) -0.05429(12)
H19 H 0.1889 1.1887 -0.1102
H20 H 0.2191 1.2695 -0.0413
H21 H 0.1673 1.2593 -0.0349
C25 C 0.23035(6) 0.2679(3) 0.24520(13)
H22 H 0.2542 0.1951 0.2349
loop_
_geom_bond_atom_site_label_1
_geom_bond_atom_site_label_2
_geom_bond_site_symmetry_1
_geom_bond_site_symmetry_2
O1 C12 1_555 1_555
O2 H1 1_555 1_555
N1 C4 1_555 1_555
C1 N2 1_555 1_555
N2 C7 1_555 1_555
C2 O2 1_555 1_555
C3 H2 1_555 1_555
C4 C7 1_555 1_555
C5 H3 1_555 1_555
C6 N1 1_555 1_555
H4 C6 1_555 1_555
C7 C5 1_555 1_555
C8 C6 1_555 1_555
C9 H5 1_555 1_555
C10 C4 1_555 1_555
H6 C10 1_555 1_555
C11 C1 1_555 1_555
H7 C11 1_555 1_555
H8 C11 1_555 1_555
C12 N1 1_555 1_555
C13 H9 1_555 1_555
C14 C8 1_555 1_555
H10 C14 1_555 1_555
C15 C10 1_555 1_555
H11 C15 1_555 1_555
C16 C9 1_555 1_555
H12 C16 1_555 1_555
C17 C8 1_555 1_555
H13 C17 1_555 1_555
C18 C1 1_555 1_555
C19 C5 1_555 1_555
H14 C19 1_555 1_555
C20 H15 1_555 1_555
C21 C2 1_555 1_555
H16 C21 1_555 1_555
C22 C3 1_555 1_555
H17 C22 1_555 1_555
C23 C17 1_555 1_555
H18 C23 1_555 1_555
C24 C22 1_555 1_555
H19 C24 1_555 1_555
H20 C24 1_555 1_555
H21 C24 1_555 1_555
C25 C14 1_555 1_555
H22 C25 1_555 1_555
C2 C18 1_555 1_555
C3 C12 1_555 1_555
C6 C11 1_555 1_555
C9 C18 1_555 1_555
C13 C16 1_555 1_555
C13 C21 1_555 1_555
C15 C19 1_555 1_555
C20 C23 1_555 1_555
C20 C25 1_555 1_555

#END
