
#######################################################################
#
#                 Cambridge Crystallographic Data Centre
#                                CCDC 
#
#######################################################################
#
# If this CIF has been generated from an entry in the Cambridge 
# Structural Database, then it will include bibliographic, chemical, 
# crystal, experimental, refinement or atomic coordinate data resulting 
# from the CCDC's data processing and validation procedures.
#
#######################################################################

data_FIKCOU
_chemical_formula_moiety         'C34 H33 O8 P1,C1 H2 Cl2'
_chemical_name_systematic        
'1-{2-[bis(3,5-dimethoxyphenyl)phosphoryl]-4,6-dimethoxyphenyl}naphthalen-2-ol dichloromethane solvate'
_symmetry_cell_setting           orthorhombic
_symmetry_space_group_name_H-M   'P 21 21 21'
_symmetry_Int_Tables_number      19
_space_group_name_Hall           'P 2ac 2ab'
loop_
_symmetry_equiv_pos_site_id
_symmetry_equiv_pos_as_xyz
1 x,y,z
2 1/2-x,-y,1/2+z
3 -x,1/2+y,1/2-z
4 1/2+x,1/2-y,-z
_cell_length_a                   9.7797(7)
_cell_length_b                   13.5904(15)
_cell_length_c                   25.408(4)
_cell_angle_alpha                90
_cell_angle_beta                 90
_cell_angle_gamma                90
_cell_volume                     3376.98
_exptl_crystal_colour            colorless
_exptl_crystal_description       prism
_cell_formula_units_Z            4
loop_
_atom_site_label
_atom_site_type_symbol
_atom_site_fract_x
_atom_site_fract_y
_atom_site_fract_z
P1 P 0.70478(7) 0.64155(5) 0.63121(3)
O1 O 0.5624(2) 0.68319(14) 0.63647(8)
O2 O 0.8085(2) 0.47372(15) 0.45099(8)
O3 O 0.5424(3) 0.29792(16) 0.57680(9)
O4 O 0.3858(2) 0.53552(18) 0.64153(9)
H1 H 0.434(3) 0.584(3) 0.6341(14)
O5 O 1.0486(2) 0.45121(19) 0.74429(9)
O6 O 0.6467(2) 0.57201(17) 0.82976(8)
O7 O 1.1698(2) 0.77771(17) 0.55661(10)
C1 C 0.7075(3) 0.5360(2) 0.58704(10)
C2 C 0.7644(3) 0.5479(2) 0.53676(10)
H2 H 0.809416 0.607395 0.527542
C3 C 0.7542(3) 0.4714(2) 0.50058(11)
C4 C 0.6813(3) 0.3864(2) 0.51302(11)
H3 H 0.672502 0.335172 0.487782
C5 C 0.6215(3) 0.3765(2) 0.56248(12)
C6 C 0.6373(3) 0.4499(2) 0.60161(11)
C7 C 0.9059(3) 0.5495(2) 0.43957(12)
H4 H 0.940948 0.540743 0.403738
H5 H 0.981825 0.545634 0.464671
H6 H 0.861645 0.613955 0.442493
C8 C 0.5138(4) 0.2257(2) 0.53737(14)
H7 H 0.472544 0.257648 0.506676
H8 H 0.450327 0.176590 0.551556
H9 H 0.599089 0.193244 0.526874
C9 C 0.5814(3) 0.4300(2) 0.65563(11)
C10 C 0.6513(3) 0.3617(2) 0.68973(11)
C11 C 0.7748(3) 0.3136(2) 0.67487(12)
H10 H 0.813959 0.326703 0.641375
C12 C 0.8380(3) 0.2488(3) 0.70819(14)
H11 H 0.920001 0.217216 0.697395
C13 C 0.7829(4) 0.2281(3) 0.75837(14)
H12 H 0.827586 0.182844 0.781071
C14 C 0.6652(3) 0.2735(3) 0.77418(13)
H13 H 0.629129 0.259930 0.808133
C15 C 0.5958(3) 0.3407(2) 0.74059(12)
C16 C 0.4707(3) 0.3858(2) 0.75554(12)
H14 H 0.432628 0.371694 0.789106
C17 C 0.4042(3) 0.4489(2) 0.72255(12)
H15 H 0.320155 0.477821 0.733208
C18 C 0.4595(3) 0.4717(2) 0.67266(12)
C19 C 0.7721(3) 0.6004(2) 0.69393(10)
C20 C 0.8923(3) 0.5468(2) 0.69714(12)
H16 H 0.948693 0.538538 0.667017
C21 C 0.9294(3) 0.5051(2) 0.74533(12)
C22 C 0.8467(3) 0.5162(2) 0.78918(12)
H17 H 0.872301 0.487450 0.821802
C23 C 0.7251(3) 0.5701(2) 0.78508(11)
C24 C 0.6877(3) 0.6148(2) 0.73805(10)
H18 H 0.607473 0.653972 0.735771
C25 C 1.0852(4) 0.3984(4) 0.79118(17)
H19 H 1.163125 0.355225 0.783748
H20 H 1.007322 0.358753 0.802912
H21 H 1.110286 0.445278 0.818868
C26 C 0.5242(4) 0.6306(3) 0.82836(13)
H22 H 0.548450 0.699883 0.823204
H23 H 0.474656 0.623212 0.861656
H24 H 0.465974 0.608571 0.799248
C27 C 0.8182(3) 0.7330(2) 0.60336(10)
C28 C 0.7601(3) 0.8228(2) 0.59105(14)
H25 H 0.665977 0.834492 0.597876
C29 C 0.8414(4) 0.8963(3) 0.5684(2)
C30 C 0.9783(4) 0.8788(3) 0.55762(18)
H26 H 1.033185 0.928469 0.541917
C31 C 1.0347(3) 0.7871(2) 0.57014(13)
C32 C 0.9569(3) 0.7144(2) 0.59324(11)
H27 H 0.996477 0.652789 0.602157
C33 C 1.2346(4) 0.6855(3) 0.56846(18)
H28 H 1.191006 0.632949 0.548088
H29 H 1.225254 0.671497 0.606125
H30 H 1.331788 0.689220 0.559265
O8 O 0.7719(6) 0.9726(6) 0.5436(5)
C34 C 0.8507(8) 1.0452(7) 0.5164(6)
H31 H 0.890472 1.016174 0.484590
H32 H 0.924188 1.068853 0.539407
H33 H 0.791574 1.100474 0.506611
Cl1 Cl 0.54977(10) 0.07466(7) 0.42370(3)
Cl2 Cl 0.66437(10) 0.25724(7) 0.38144(4)
C36 C 0.6663(4) 0.1284(3) 0.37812(15)
H37 H 0.759877 0.104360 0.385703
H38 H 0.641949 0.107347 0.342016
O9? O 0.7803(7) 0.9938(5) 0.5763(6)
C35? C 0.8654(11) 1.0765(7) 0.5615(9)
H34? H 0.896284 1.068167 0.525043
H35? H 0.944891 1.079727 0.584868
H36? H 0.812519 1.137482 0.564452
loop_
_geom_bond_atom_site_label_1
_geom_bond_atom_site_label_2
_geom_bond_site_symmetry_1
_geom_bond_site_symmetry_2
P1 O1 1_555 1_555
O2 C3 1_555 1_555
O3 C5 1_555 1_555
O4 H1 1_555 1_555
O5 C21 1_555 1_555
O6 C23 1_555 1_555
O7 C31 1_555 1_555
C1 P1 1_555 1_555
C2 C1 1_555 1_555
H2 C2 1_555 1_555
C3 C2 1_555 1_555
C4 C3 1_555 1_555
H3 C4 1_555 1_555
C5 C4 1_555 1_555
C6 C1 1_555 1_555
C7 O2 1_555 1_555
H4 C7 1_555 1_555
H5 C7 1_555 1_555
H6 C7 1_555 1_555
C8 O3 1_555 1_555
H7 C8 1_555 1_555
H8 C8 1_555 1_555
H9 C8 1_555 1_555
C9 C6 1_555 1_555
C10 C9 1_555 1_555
C11 C10 1_555 1_555
H10 C11 1_555 1_555
C12 C11 1_555 1_555
H11 C12 1_555 1_555
C13 C12 1_555 1_555
H12 C13 1_555 1_555
C14 C13 1_555 1_555
H13 C14 1_555 1_555
C15 C10 1_555 1_555
C16 C15 1_555 1_555
H14 C16 1_555 1_555
C17 C16 1_555 1_555
H15 C17 1_555 1_555
C18 O4 1_555 1_555
C19 P1 1_555 1_555
C20 C19 1_555 1_555
H16 C20 1_555 1_555
C21 C20 1_555 1_555
C22 C21 1_555 1_555
H17 C22 1_555 1_555
C23 C22 1_555 1_555
C24 C19 1_555 1_555
H18 C24 1_555 1_555
C25 O5 1_555 1_555
H19 C25 1_555 1_555
H20 C25 1_555 1_555
H21 C25 1_555 1_555
C26 O6 1_555 1_555
H22 C26 1_555 1_555
H23 C26 1_555 1_555
H24 C26 1_555 1_555
C27 P1 1_555 1_555
C28 C27 1_555 1_555
H25 C28 1_555 1_555
C29 C28 1_555 1_555
C30 C29 1_555 1_555
H26 C30 1_555 1_555
C31 C30 1_555 1_555
C32 C27 1_555 1_555
H27 C32 1_555 1_555
C33 O7 1_555 1_555
H28 C33 1_555 1_555
H29 C33 1_555 1_555
H30 C33 1_555 1_555
O8 C29 1_555 1_555
C34 O8 1_555 1_555
H31 C34 1_555 1_555
H32 C34 1_555 1_555
H33 C34 1_555 1_555
Cl1 C36 1_555 1_555
Cl2 C36 1_555 1_555
C36 H37 1_555 1_555
H38 C36 1_555 1_555
C5 C6 1_555 1_555
C9 C18 1_555 1_555
C14 C15 1_555 1_555
C17 C18 1_555 1_555
C23 C24 1_555 1_555
C31 C32 1_555 1_555

#END
