
#######################################################################
#
#                 Cambridge Crystallographic Data Centre
#                                CCDC 
#
#######################################################################
#
# If this CIF has been generated from an entry in the Cambridge 
# Structural Database, then it will include bibliographic, chemical, 
# crystal, experimental, refinement or atomic coordinate data resulting 
# from the CCDC's data processing and validation procedures.
#
#######################################################################

data_FIKTIF
_chemical_formula_moiety         'C27 H34 Br1 N1 O4 S1'
_chemical_name_systematic        
(3S,4S)-4-(2-(4-bromophenyl)-2-oxoethyl)-3-heptyl-1-((4-methylphenyl)sulfonyl)piperidin-2-one
_symmetry_cell_setting           monoclinic
_symmetry_space_group_name_H-M   'P 21'
_symmetry_Int_Tables_number      4
_space_group_name_Hall           'P 2yb'
loop_
_symmetry_equiv_pos_site_id
_symmetry_equiv_pos_as_xyz
1 x,y,z
2 -x,1/2+y,-z
_cell_length_a                   5.8371(14)
_cell_length_b                   27.923(7)
_cell_length_c                   8.194(2)
_cell_angle_alpha                90
_cell_angle_beta                 102.039(4)
_cell_angle_gamma                90
_cell_volume                     1306.16
_exptl_crystal_colour            colorless
_exptl_crystal_description       plate
_chemical_melting_point          '104-105 deg.C'
_cell_formula_units_Z            2
_exptl_crystal_recrystallization_method 'dichloromethane/diethyl ether'
loop_
_atom_site_label
_atom_site_type_symbol
_atom_site_fract_x
_atom_site_fract_y
_atom_site_fract_z
Br1 Br -0.24697(6) 0.72656(2) -0.21187(4)
C1 C 0.4836(5) 0.56322(10) 0.6159(3)
H1 H 0.3523 0.5444 0.6393
N1 N 0.8123(4) 0.53440(9) 0.9142(3)
O1 O 1.0200(4) 0.49012(8) 0.7639(2)
S1 S 0.96040(13) 0.51030(3) 1.09319(8)
C2 C 0.6848(5) 0.52895(10) 0.6012(3)
H2 H 0.7774 0.5451 0.5307
O2 O 0.0719(4) 0.61934(9) 0.5506(3)
C3 C 0.8533(5) 0.51658(10) 0.7632(3)
O3 O 1.2072(4) 0.51568(8) 1.1047(3)
C4 C 0.6261(6) 0.56992(12) 0.9232(4)
H3 H 0.6796 0.5919 1.0149
H4 H 0.4874 0.5537 0.9425
O4 O 0.8576(4) 0.53123(8) 1.2203(2)
C5 C 0.5682(6) 0.59728(11) 0.7609(4)
H5 H 0.7062 0.6142 0.7436
H6 H 0.4473 0.6207 0.7660
C6 C 0.4026(5) 0.58974(11) 0.4500(4)
H7 H 0.5253 0.6116 0.4345
H8 H 0.3809 0.5666 0.3598
C7 C 0.1768(5) 0.61780(11) 0.4379(4)
C8 C 0.0836(5) 0.64471(11) 0.2775(4)
C9 C 0.1817(6) 0.64087(12) 0.1371(4)
H9 H 0.3127 0.6216 0.1406
C10 C 0.0852(6) 0.66563(13) -0.0089(4)
H10 H 0.1523 0.6635 -0.1021
C11 C -0.1108(6) 0.69331(12) -0.0127(4)
C12 C -0.2125(6) 0.69796(12) 0.1247(4)
H11 H -0.3439 0.7172 0.1200
C13 C -0.1145(6) 0.67341(12) 0.2696(4)
H12 H -0.1815 0.6761 0.3627
C14 C 0.5993(5) 0.48140(11) 0.5127(3)
H13 H 0.4878 0.4887 0.4103
H14 H 0.7319 0.4654 0.4823
C15 C 0.4844(6) 0.44690(11) 0.6159(4)
H15 H 0.6046 0.4326 0.7018
H16 H 0.3792 0.4647 0.6707
C16 C 0.3479(6) 0.40737(12) 0.5109(4)
H17 H 0.2359 0.4218 0.4200
H18 H 0.4555 0.3882 0.4625
C17 C 0.2180(6) 0.37480(13) 0.6088(4)
H19 H 0.1246 0.3945 0.6676
H20 H 0.3321 0.3579 0.6920
C18 C 0.0574(7) 0.33791(13) 0.5040(4)
H21 H -0.0507 0.3545 0.4161
H22 H 0.1518 0.3166 0.4515
C19 C -0.0819(8) 0.30821(15) 0.6040(5)
H23 H 0.0261 0.2904 0.6883
H24 H -0.1703 0.3296 0.6611
C20 C -0.2495(9) 0.27346(18) 0.4985(6)
H25 H -0.3646 0.2910 0.4203
H26 H -0.3260 0.2546 0.5693
H27 H -0.1640 0.2528 0.4390
C21 C 0.8893(5) 0.44914(11) 1.0756(3)
C22 C 1.0374(5) 0.41717(11) 1.0191(4)
H28 H 1.1763 0.4278 0.9927
C23 C 0.9754(6) 0.36917(12) 1.0024(4)
H29 H 1.0750 0.3476 0.9655
C24 C 0.7672(6) 0.35265(11) 1.0398(4)
C25 C 0.6242(5) 0.38550(12) 1.0991(4)
H30 H 0.4871 0.3748 1.1279
C26 C 0.6807(5) 0.43358(11) 1.1160(3)
H31 H 0.5817 0.4551 1.1535
C27 C 0.6966(7) 0.30093(12) 1.0150(5)
H32 H 0.7708 0.2870 0.9322
H33 H 0.5296 0.2988 0.9785
H34 H 0.7443 0.2840 1.1184
loop_
_geom_bond_atom_site_label_1
_geom_bond_atom_site_label_2
_geom_bond_site_symmetry_1
_geom_bond_site_symmetry_2
Br1 C11 1_555 1_555
C1 H1 1_555 1_555
N1 S1 1_555 1_555
O1 C3 1_555 1_555
S1 O3 1_555 1_555
C2 C1 1_555 1_555
H2 C2 1_555 1_555
O2 C7 1_555 1_555
C3 N1 1_555 1_555
C4 N1 1_555 1_555
H3 C4 1_555 1_555
H4 C4 1_555 1_555
O4 S1 1_555 1_555
C5 C1 1_555 1_555
H5 C5 1_555 1_555
H6 C5 1_555 1_555
C6 C1 1_555 1_555
H7 C6 1_555 1_555
H8 C6 1_555 1_555
C7 C6 1_555 1_555
C8 C7 1_555 1_555
C9 C8 1_555 1_555
H9 C9 1_555 1_555
C10 C9 1_555 1_555
H10 C10 1_555 1_555
C11 C10 1_555 1_555
C12 C11 1_555 1_555
H11 C12 1_555 1_555
C13 C8 1_555 1_555
H12 C13 1_555 1_555
C14 C2 1_555 1_555
H13 C14 1_555 1_555
H14 C14 1_555 1_555
C15 C14 1_555 1_555
H15 C15 1_555 1_555
H16 C15 1_555 1_555
C16 C15 1_555 1_555
H17 C16 1_555 1_555
H18 C16 1_555 1_555
C17 C16 1_555 1_555
H19 C17 1_555 1_555
H20 C17 1_555 1_555
C18 C17 1_555 1_555
H21 C18 1_555 1_555
H22 C18 1_555 1_555
C19 C18 1_555 1_555
H23 C19 1_555 1_555
H24 C19 1_555 1_555
C20 C19 1_555 1_555
H25 C20 1_555 1_555
H26 C20 1_555 1_555
H27 C20 1_555 1_555
C21 S1 1_555 1_555
C22 C21 1_555 1_555
H28 C22 1_555 1_555
C23 C22 1_555 1_555
H29 C23 1_555 1_555
C24 C23 1_555 1_555
C25 C24 1_555 1_555
H30 C25 1_555 1_555
C26 C21 1_555 1_555
H31 C26 1_555 1_555
C27 C24 1_555 1_555
H32 C27 1_555 1_555
H33 C27 1_555 1_555
H34 C27 1_555 1_555
C2 C3 1_555 1_555
C4 C5 1_555 1_555
C12 C13 1_555 1_555
C25 C26 1_555 1_555

#END
