
#######################################################################
#
#                 Cambridge Crystallographic Data Centre
#                                CCDC 
#
#######################################################################
#
# If this CIF has been generated from an entry in the Cambridge 
# Structural Database, then it will include bibliographic, chemical, 
# crystal, experimental, refinement or atomic coordinate data resulting 
# from the CCDC's data processing and validation procedures.
#
#######################################################################

data_FILHUF
_chemical_formula_moiety         'C16 H14 N1 1+,B1 F4 1-'
_chemical_name_systematic        
'3-Methyl-4-phenylquinolizinium tetrafluoroborate'
_symmetry_cell_setting           monoclinic
_symmetry_space_group_name_H-M   'P 21/c'
_symmetry_Int_Tables_number      14
_space_group_name_Hall           '-P 2ybc'
loop_
_symmetry_equiv_pos_site_id
_symmetry_equiv_pos_as_xyz
1 x,y,z
2 -x,1/2+y,1/2-z
3 -x,-y,-z
4 x,1/2-y,1/2+z
_cell_length_a                   9.2845(6)
_cell_length_b                   8.1916(5)
_cell_length_c                   19.3256(12)
_cell_angle_alpha                90
_cell_angle_beta                 102.541(3)
_cell_angle_gamma                90
_cell_volume                     1434.74
_exptl_crystal_colour            orange
_cell_formula_units_Z            4
loop_
_atom_site_label
_atom_site_type_symbol
_atom_site_fract_x
_atom_site_fract_y
_atom_site_fract_z
N1 N 0.21724(14) 0.93104(17) 0.13779(7)
C1 C 0.28821(17) 0.7798(2) 0.14482(8)
C2 C 0.32702(18) 0.7077(2) 0.08731(9)
C3 C 0.2964(2) 0.7899(2) 0.02137(9)
H1 H 0.3235 0.7413 -0.0186
C4 C 0.2286(2) 0.9377(2) 0.01472(9)
H2 H 0.2105 0.9927 -0.0296
C5 C 0.18488(18) 1.0104(2) 0.07301(9)
C6 C 0.11046(19) 1.1616(2) 0.06753(10)
H3 H 0.0884 1.2169 0.0233
C7 C 0.0697(2) 1.2295(2) 0.12479(11)
H4 H 0.0172 1.3298 0.1205
C8 C 0.10679(19) 1.1484(2) 0.19018(10)
H5 H 0.0817 1.1958 0.2309
C9 C 0.17819(18) 1.0028(2) 0.19587(9)
H6 H 0.2017 0.9492 0.2405
C10 C 0.32069(17) 0.7025(2) 0.21644(8)
C11 C 0.22169(18) 0.5922(2) 0.23505(9)
H7 H 0.1315 0.5685 0.2027
C12 C 0.2545(2) 0.5167(2) 0.30096(9)
H8 H 0.1873 0.4404 0.3133
C13 C 0.3851(2) 0.5523(2) 0.34885(9)
H9 H 0.4077 0.4999 0.3938
C14 C 0.48254(19) 0.6645(2) 0.33084(9)
H10 H 0.5709 0.6910 0.3640
C15 C 0.45163(18) 0.7387(2) 0.26457(9)
H11 H 0.5197 0.8138 0.2521
C16 C 0.3999(2) 0.5437(2) 0.09377(9)
H12 H 0.4129 0.5045 0.1427
H13 H 0.4964 0.5527 0.0813
H14 H 0.3380 0.4666 0.0616
B1 B 0.1731(2) 0.1385(2) 0.40599(10)
F1 F 0.30272(13) 0.21697(15) 0.43869(7)
F2 F 0.12693(16) 0.03893(15) 0.45535(7)
F3 F 0.06624(14) 0.25537(16) 0.38307(8)
F4 F 0.19329(19) 0.0430(2) 0.35078(7)
loop_
_geom_bond_atom_site_label_1
_geom_bond_atom_site_label_2
_geom_bond_site_symmetry_1
_geom_bond_site_symmetry_2
N1 C1 1_555 1_555
C1 C2 1_555 1_555
C2 C3 1_555 1_555
C3 H1 1_555 1_555
C4 C3 1_555 1_555
H2 C4 1_555 1_555
C5 N1 1_555 1_555
C6 C5 1_555 1_555
H3 C6 1_555 1_555
C7 C6 1_555 1_555
H4 C7 1_555 1_555
C8 C7 1_555 1_555
H5 C8 1_555 1_555
C9 N1 1_555 1_555
H6 C9 1_555 1_555
C10 C1 1_555 1_555
C11 C10 1_555 1_555
H7 C11 1_555 1_555
C12 C11 1_555 1_555
H8 C12 1_555 1_555
C13 C12 1_555 1_555
H9 C13 1_555 1_555
C14 C13 1_555 1_555
H10 C14 1_555 1_555
C15 C10 1_555 1_555
H11 C15 1_555 1_555
C16 C2 1_555 1_555
H12 C16 1_555 1_555
H13 C16 1_555 1_555
H14 C16 1_555 1_555
B1 F1 1_555 1_555
F2 B1 1_555 1_555
F3 B1 1_555 1_555
F4 B1 1_555 1_555
C4 C5 1_555 1_555
C8 C9 1_555 1_555
C14 C15 1_555 1_555

#END
