
#######################################################################
#
#                 Cambridge Crystallographic Data Centre
#                                CCDC 
#
#######################################################################
#
# If this CIF has been generated from an entry in the Cambridge 
# Structural Database, then it will include bibliographic, chemical, 
# crystal, experimental, refinement or atomic coordinate data resulting 
# from the CCDC's data processing and validation procedures.
#
#######################################################################

data_FIMQUO
_chemical_formula_moiety         'C40 H24 N6'
_chemical_name_systematic        
1,2-bis((2,2':6',2''-Terpyridin-4'-yl)ethynyl)benzene
_symmetry_cell_setting           triclinic
_symmetry_space_group_name_H-M   'P -1'
_symmetry_Int_Tables_number      2
_space_group_name_Hall           '-P 1'
loop_
_symmetry_equiv_pos_site_id
_symmetry_equiv_pos_as_xyz
1 x,y,z
2 -x,-y,-z
_cell_length_a                   10.8137(10)
_cell_length_b                   12.4510(10)
_cell_length_c                   13.061(2)
_cell_angle_alpha                68.247(5)
_cell_angle_beta                 75.799(5)
_cell_angle_gamma                66.262(7)
_cell_volume                     1485.55
_exptl_crystal_colour            colorless
_cell_formula_units_Z            2
_exptl_crystal_recrystallization_method hexane/chloroform
loop_
_atom_site_label
_atom_site_type_symbol
_atom_site_fract_x
_atom_site_fract_y
_atom_site_fract_z
N1 N 0.70030(10) 0.39861(9) -0.02000(8)
N2 N 0.45872(10) 0.27587(9) 0.18188(9)
N3 N 0.94019(10) 0.55217(10) -0.15795(8)
N4 N 0.84459(10) 0.00278(9) 0.62412(8)
N5 N 0.79310(11) 0.07932(10) 0.34018(9)
C1 C 0.59405(11) 0.69744(10) 0.35888(9)
C2 C 0.61414(11) 0.63342(10) 0.47147(9)
C3 C 0.58502(12) 0.70077(11) 0.54535(10)
H1 H 0.6001 0.6586 0.6209
C4 C 0.53462(13) 0.82795(11) 0.50878(11)
H2 H 0.5135 0.8728 0.5596
C5 C 0.51466(13) 0.89068(11) 0.39827(11)
H3 H 0.4799 0.9782 0.3737
C6 C 0.54509(13) 0.82631(11) 0.32376(10)
H4 H 0.5326 0.8700 0.2479
C7 C 0.62158(12) 0.63195(10) 0.28071(9)
C8 C 0.64296(12) 0.58021(11) 0.21376(10)
C9 C 0.66586(12) 0.51678(10) 0.13473(9)
C10 C 0.60235(12) 0.43181(11) 0.15645(10)
H5 H 0.5467 0.4128 0.2244
C11 C 0.62185(11) 0.37517(10) 0.07663(9)
C12 C 0.76311(11) 0.47898(10) -0.03983(9)
C13 C 0.74919(12) 0.54038(10) 0.03496(9)
H6 H 0.7952 0.5967 0.0184
C14 C 0.55276(12) 0.28712(10) 0.09283(10)
C15 C 0.58421(13) 0.22228(11) 0.01745(11)
H7 H 0.6525 0.2310 -0.0435
C16 C 0.51372(14) 0.14471(12) 0.03321(12)
H8 H 0.5330 0.0993 -0.0168
C17 C 0.41521(14) 0.13454(12) 0.12257(12)
H9 H 0.3646 0.0829 0.1347
C18 C 0.39173(13) 0.20135(12) 0.19427(12)
H10 H 0.3240 0.1937 0.2558
C19 C 0.84863(11) 0.50094(10) -0.14837(9)
C20 C 0.83139(12) 0.46874(12) -0.23416(10)
H11 H 0.7657 0.4320 -0.2243
C21 C 0.91260(13) 0.49166(13) -0.33432(11)
H12 H 0.9023 0.4721 -0.3948
C22 C 1.00851(13) 0.54328(13) -0.34508(11)
H13 H 1.0664 0.5586 -0.4124
C23 C 1.01807(12) 0.57203(12) -0.25531(11)
H14 H 1.0838 0.6080 -0.2631
C24 C 0.66200(11) 0.50130(11) 0.50979(9)
C25 C 0.70261(12) 0.39155(11) 0.53911(10)
C26 C 0.75221(12) 0.25921(11) 0.56878(10)
C27 C 0.76810(12) 0.20254(11) 0.48954(10)
H15 H 0.7487 0.2504 0.4157
C28 C 0.81321(11) 0.07393(11) 0.52154(10)
C29 C 0.83179(11) 0.05771(10) 0.69940(10)
C30 C 0.78462(11) 0.18547(10) 0.67562(10)
H16 H 0.7748 0.2215 0.7311
C31 C 0.82498(12) 0.00835(11) 0.44288(10)
C32 C 0.86519(13) -0.11974(11) 0.47634(11)
H17 H 0.8871 -0.1672 0.5497
C33 C 0.87259(14) -0.17652(13) 0.40085(11)
H18 H 0.8989 -0.2636 0.4217
C34 C 0.84106(14) -0.10454(13) 0.29467(12)
H19 H 0.8460 -0.1411 0.2408
C35 C 0.80196(14) 0.02236(13) 0.26847(11)
H20 H 0.7803 0.0715 0.1954
C36 C 0.86997(12) -0.02629(11) 0.81062(10)
C37 C 0.93077(13) -0.15280(11) 0.83016(11)
H21 H 0.9498 -0.1866 0.7713
C38 C 0.96347(15) -0.22923(13) 0.93423(12)
H22 H 0.9835 -0.3161 0.9550
N6 N 0.8672(3) 0.0335(3) 0.8851(3)
C39 C 0.9656(4) -0.1678(4) 1.0119(4)
H24 H 1.0025 -0.2151 1.0805
C40 C 0.9124(4) -0.0395(3) 0.9821(3)
H25 H 0.9082 -0.0018 1.0347
H23? H 1.0243 -0.3117 0.9446
N7? N 0.8166(4) 0.0178(3) 0.8936(3)
C41? C 0.9084(5) -0.1858(4) 1.0191(4)
H26? H 0.9153 -0.2390 1.0933
C42? C 0.8398(5) -0.0593(3) 0.9965(3)
H27? H 0.8079 -0.0259 1.0567
loop_
_geom_bond_atom_site_label_1
_geom_bond_atom_site_label_2
_geom_bond_site_symmetry_1
_geom_bond_site_symmetry_2
N1 C11 1_555 1_555
N2 C14 1_555 1_555
N3 C19 1_555 1_555
N4 C28 1_555 1_555
N5 C31 1_555 1_555
C1 C2 1_555 1_555
C2 C3 1_555 1_555
C3 H1 1_555 1_555
C4 C3 1_555 1_555
H2 C4 1_555 1_555
C5 C4 1_555 1_555
H3 C5 1_555 1_555
C6 C1 1_555 1_555
H4 C6 1_555 1_555
C7 C1 1_555 1_555
C8 C7 1_555 1_555
C9 C8 1_555 1_555
C10 C9 1_555 1_555
H5 C10 1_555 1_555
C11 C10 1_555 1_555
C12 N1 1_555 1_555
C13 C9 1_555 1_555
H6 C13 1_555 1_555
C14 C11 1_555 1_555
C15 C14 1_555 1_555
H7 C15 1_555 1_555
C16 C15 1_555 1_555
H8 C16 1_555 1_555
C17 C16 1_555 1_555
H9 C17 1_555 1_555
C18 N2 1_555 1_555
H10 C18 1_555 1_555
C19 C12 1_555 1_555
C20 C19 1_555 1_555
H11 C20 1_555 1_555
C21 C20 1_555 1_555
H12 C21 1_555 1_555
C22 C21 1_555 1_555
H13 C22 1_555 1_555
C23 N3 1_555 1_555
H14 C23 1_555 1_555
C24 C2 1_555 1_555
C25 C24 1_555 1_555
C26 C25 1_555 1_555
C27 C26 1_555 1_555
H15 C27 1_555 1_555
C28 C27 1_555 1_555
C29 N4 1_555 1_555
C30 C26 1_555 1_555
H16 C30 1_555 1_555
C31 C28 1_555 1_555
C32 C31 1_555 1_555
H17 C32 1_555 1_555
C33 C32 1_555 1_555
H18 C33 1_555 1_555
C34 C33 1_555 1_555
H19 C34 1_555 1_555
C35 N5 1_555 1_555
H20 C35 1_555 1_555
C36 C29 1_555 1_555
C37 C36 1_555 1_555
H21 C37 1_555 1_555
C38 C37 1_555 1_555
H22 C38 1_555 1_555
N6 C36 1_555 1_555
C39 C38 1_555 1_555
H24 C39 1_555 1_555
C40 N6 1_555 1_555
H25 C40 1_555 1_555
C5 C6 1_555 1_555
C12 C13 1_555 1_555
C17 C18 1_555 1_555
C22 C23 1_555 1_555
C29 C30 1_555 1_555
C34 C35 1_555 1_555
C39 C40 1_555 1_555

#END
