
#######################################################################
#
#                 Cambridge Crystallographic Data Centre
#                                CCDC 
#
#######################################################################
#
# If this CIF has been generated from an entry in the Cambridge 
# Structural Database, then it will include bibliographic, chemical, 
# crystal, experimental, refinement or atomic coordinate data resulting 
# from the CCDC's data processing and validation procedures.
#
#######################################################################

data_FIMYUY
_chemical_formula_moiety         'C44 H39 N3 S1'
_chemical_name_systematic        
9-{5'-butyl-2'-[7-(4-butylphenyl)-2,1,3-benzothiadiazol-4-yl][1,1'-biphenyl]-4-yl}-9H-carbazole
_symmetry_cell_setting           monoclinic
_symmetry_space_group_name_H-M   'P 21/c'
_symmetry_Int_Tables_number      14
_space_group_name_Hall           '-P 2ybc'
loop_
_symmetry_equiv_pos_site_id
_symmetry_equiv_pos_as_xyz
1 x,y,z
2 -x,1/2+y,1/2-z
3 -x,-y,-z
4 x,1/2-y,1/2+z
_cell_length_a                   12.2226(13)
_cell_length_b                   7.2731(6)
_cell_length_c                   39.701(6)
_cell_angle_alpha                90
_cell_angle_beta                 90.766(12)
_cell_angle_gamma                90
_cell_volume                     3528.95
_exptl_crystal_colour            colorless
_exptl_crystal_description       block
_cell_formula_units_Z            4
loop_
_atom_site_label
_atom_site_type_symbol
_atom_site_fract_x
_atom_site_fract_y
_atom_site_fract_z
S1 S 0.32835(13) 0.37497(17) 0.49746(4)
N1 N 0.5424(3) 0.1758(5) 0.32114(10)
C1 C 0.2631(4) 0.4257(6) 0.44162(12)
N2 N 0.3870(4) 0.5460(5) 0.47993(11)
C2 C 0.5797(4) 0.6151(5) 0.38931(12)
C3 C 0.5615(4) 0.3236(5) 0.34403(12)
N3 N 0.2474(4) 0.3126(5) 0.46767(11)
C4 C 0.5489(4) 0.2931(6) 0.37799(12)
H1 H 0.534952 0.175134 0.385877
C5 C 0.4753(4) 0.9570(6) 0.45271(12)
H2 H 0.411069 0.984085 0.463998
C6 C 0.1413(4) 0.0924(6) 0.40932(14)
H3 H 0.196799 0.059374 0.424390
C7 C 0.3452(4) 0.5624(6) 0.44867(12)
C8 C 0.5972(4) 0.6417(6) 0.35501(13)
H4 H 0.615360 0.758223 0.347210
C9 C 0.6190(4) 0.0951(6) 0.29975(11)
C10 C 0.7849(5) 0.0407(7) 0.27178(14)
H5 H 0.858038 0.068682 0.268189
C11 C 0.3798(4) 0.6928(6) 0.42411(12)
C12 C 0.5881(4) 0.4978(6) 0.33246(13)
H6 H 0.599621 0.517593 0.309634
C13 C 0.5682(4) -0.0485(6) 0.28253(12)
C14 C 0.4437(4) 0.0831(6) 0.31712(12)
C15 C -0.0862(4) -0.1470(7) 0.36036(15)
H7 H -0.157360 -0.095927 0.354572
H8 H -0.096967 -0.242660 0.377011
C16 C 0.5670(4) 1.0637(6) 0.45875(12)
H9 H 0.564558 1.158779 0.474381
C17 C 0.4762(4) 0.8101(6) 0.43018(12)
C18 C 0.2428(4) 0.5516(6) 0.38725(14)
H10 H 0.207898 0.555555 0.366301
C19 C 0.5759(4) 0.7728(6) 0.41299(12)
C20 C 0.3258(4) 0.6847(6) 0.39419(13)
H11 H 0.343390 0.769130 0.377527
C21 C 0.3429(5) 0.1194(7) 0.33204(14)
H12 H 0.334611 0.214569 0.347428
C22 C 0.6625(4) 1.0292(6) 0.44159(13)
C23 C 0.2115(4) 0.4190(6) 0.40938(13)
C24 C 0.4560(4) -0.0576(6) 0.29325(12)
C25 C 0.1307(4) 0.2751(6) 0.39930(13)
C26 C 0.7272(4) 0.1428(6) 0.29515(13)
H13 H 0.759825 0.238522 0.307128
C27 C 0.2579(5) 0.0093(7) 0.32302(15)
H14 H 0.190449 0.029895 0.332890
C28 C 0.5570(4) 0.4384(6) 0.40030(12)
H15 H 0.547071 0.417288 0.423161
C29 C -0.0363(4) -0.2309(6) 0.32907(14)
H16 H -0.024787 -0.134449 0.312621
H17 H 0.034584 -0.282263 0.334999
C30 C -0.1062(5) -0.3798(7) 0.31317(15)
H18 H -0.118859 -0.475458 0.329699
H19 H -0.176683 -0.328094 0.306815
C31 C 0.0711(4) -0.0387(7) 0.39726(14)
H20 H 0.081303 -0.160173 0.403900
C32 C 0.6654(5) 0.8841(6) 0.41908(13)
H21 H 0.729857 0.860834 0.407655
C33 C -0.0146(4) 0.0030(6) 0.37548(15)
C34 C 0.6296(5) -0.1484(6) 0.25855(13)
H22 H 0.597544 -0.243993 0.246404
C35 C 0.2664(5) -0.1319(8) 0.29995(16)
H23 H 0.205437 -0.202695 0.294390
C36 C 0.3674(5) -0.1681(7) 0.28493(14)
H24 H 0.374683 -0.264310 0.269700
C37 C 0.7369(5) -0.1018(7) 0.25357(14)
H25 H 0.777794 -0.166140 0.237885
C38 C -0.0271(5) 0.1845(7) 0.36687(18)
H26 H -0.084755 0.218072 0.352635
C39 C 0.8150(5) 1.1336(8) 0.48111(17)
H27 H 0.836543 1.006861 0.484907
H28 H 0.761681 1.165742 0.497996
C40 C 0.0431(5) 0.3187(7) 0.37867(17)
H29 H 0.031203 0.440645 0.372585
C41 C 0.9146(5) 1.2559(9) 0.48557(19)
H30 H 0.970818 1.216141 0.470167
H31 H 0.894805 1.381169 0.479702
C42 C -0.0549(6) -0.4644(9) 0.28249(19)
H32 H -0.037742 -0.369369 0.266619
H33 H -0.105137 -0.549861 0.272297
H34 H 0.011003 -0.527623 0.289035
C43 C 0.7630(5) 1.1491(8) 0.44719(15)
H35 H 0.816854 1.117293 0.430437
H36 H 0.742355 1.276340 0.443477
C44 C 0.9602(7) 1.2532(11) 0.5207(2)
H37 H 1.024729 1.328353 0.521836
H38 H 0.978598 1.129231 0.526830
H39 H 0.906656 1.300211 0.535893
H40? H 0.436450 0.615003 0.488941
H41? H 0.201886 0.222473 0.468277
loop_
_geom_bond_atom_site_label_1
_geom_bond_atom_site_label_2
_geom_bond_site_symmetry_1
_geom_bond_site_symmetry_2
S1 N2 1_555 1_555
N1 C3 1_555 1_555
C1 N3 1_555 1_555
N2 C7 1_555 1_555
C2 C8 1_555 1_555
C3 C4 1_555 1_555
N3 S1 1_555 1_555
C4 H1 1_555 1_555
C5 H2 1_555 1_555
C6 H3 1_555 1_555
C7 C1 1_555 1_555
C8 H4 1_555 1_555
C9 N1 1_555 1_555
C10 H5 1_555 1_555
C11 C7 1_555 1_555
C12 C3 1_555 1_555
H6 C12 1_555 1_555
C13 C9 1_555 1_555
C14 N1 1_555 1_555
C15 H7 1_555 1_555
H8 C15 1_555 1_555
C16 C5 1_555 1_555
H9 C16 1_555 1_555
C17 C5 1_555 1_555
C18 H10 1_555 1_555
C19 C2 1_555 1_555
C20 C11 1_555 1_555
H11 C20 1_555 1_555
C21 C14 1_555 1_555
H12 C21 1_555 1_555
C22 C16 1_555 1_555
C23 C1 1_555 1_555
C24 C13 1_555 1_555
C25 C6 1_555 1_555
C26 C9 1_555 1_555
H13 C26 1_555 1_555
C27 C21 1_555 1_555
H14 C27 1_555 1_555
C28 C2 1_555 1_555
H15 C28 1_555 1_555
C29 C15 1_555 1_555
H16 C29 1_555 1_555
H17 C29 1_555 1_555
C30 C29 1_555 1_555
H18 C30 1_555 1_555
H19 C30 1_555 1_555
C31 C6 1_555 1_555
H20 C31 1_555 1_555
C32 C19 1_555 1_555
H21 C32 1_555 1_555
C33 C15 1_555 1_555
C34 C13 1_555 1_555
H22 C34 1_555 1_555
C35 C27 1_555 1_555
H23 C35 1_555 1_555
C36 C24 1_555 1_555
H24 C36 1_555 1_555
C37 C10 1_555 1_555
H25 C37 1_555 1_555
C38 C33 1_555 1_555
H26 C38 1_555 1_555
C39 H27 1_555 1_555
H28 C39 1_555 1_555
C40 C25 1_555 1_555
H29 C40 1_555 1_555
C41 C39 1_555 1_555
H30 C41 1_555 1_555
H31 C41 1_555 1_555
C42 C30 1_555 1_555
H32 C42 1_555 1_555
H33 C42 1_555 1_555
H34 C42 1_555 1_555
C43 C22 1_555 1_555
H35 C43 1_555 1_555
H36 C43 1_555 1_555
C44 C41 1_555 1_555
H37 C44 1_555 1_555
H38 C44 1_555 1_555
H39 C44 1_555 1_555
C4 C28 1_555 1_555
C8 C12 1_555 1_555
C10 C26 1_555 1_555
C11 C17 1_555 1_555
C14 C24 1_555 1_555
C17 C19 1_555 1_555
C18 C20 1_555 1_555
C18 C23 1_555 1_555
C22 C32 1_555 1_555
C23 C25 1_555 1_555
C31 C33 1_555 1_555
C34 C37 1_555 1_555
C35 C36 1_555 1_555
C38 C40 1_555 1_555
C39 C43 1_555 1_555

#END
