
#######################################################################
#
#                 Cambridge Crystallographic Data Centre
#                                CCDC 
#
#######################################################################
#
# If this CIF has been generated from an entry in the Cambridge 
# Structural Database, then it will include bibliographic, chemical, 
# crystal, experimental, refinement or atomic coordinate data resulting 
# from the CCDC's data processing and validation procedures.
#
#######################################################################

data_FIMZIN
_chemical_formula_moiety         'C19 H16 Br1 F3 O2'
_chemical_name_systematic        
'ethyl 1-(4-bromophenyl)-2-phenyl-2-(trifluoromethyl)cyclopropane-1-carboxylate'
_symmetry_cell_setting           monoclinic
_symmetry_space_group_name_H-M   'P 21'
_symmetry_Int_Tables_number      4
_space_group_name_Hall           'P 2yb'
loop_
_symmetry_equiv_pos_site_id
_symmetry_equiv_pos_as_xyz
1 x,y,z
2 -x,1/2+y,-z
_cell_length_a                   6.745(7)
_cell_length_b                   8.537(9)
_cell_length_c                   16.422(17)
_cell_angle_alpha                90
_cell_angle_beta                 101.342(16)
_cell_angle_gamma                90
_cell_volume                     927.146
_exptl_crystal_colour            colorless
_exptl_crystal_description       prism
_cell_formula_units_Z            2
loop_
_atom_site_label
_atom_site_type_symbol
_atom_site_fract_x
_atom_site_fract_y
_atom_site_fract_z
C1 C 0.1761(12) 0.2909(11) 0.3079(7)
H1 H 0.1072 0.3014 0.2533
C2 C 0.0759(12) 0.3203(12) 0.3725(6)
H2 H -0.0605 0.3467 0.3615
C3 C 0.1804(14) 0.3099(15) 0.4524(8)
C4 C 0.3784(17) 0.2681(18) 0.4651(8)
H3 H 0.4489 0.2628 0.5198
C5 C 0.4793(16) 0.2343(15) 0.4055(9)
H4 H 0.6141 0.2036 0.4185
C6 C 0.3800(12) 0.2456(10) 0.3241(7)
C7 C 0.4918(12) 0.2196(11) 0.2558(7)
C8 C 0.6640(12) 0.1043(11) 0.2639(7)
H5 H 0.7013 0.048 0.316
H6 H 0.7767 0.1314 0.2379
C9 C 0.4651(13) 0.0604(11) 0.2072(7)
C10 C 0.3340(13) -0.0621(11) 0.2327(7)
C11 C 0.1256(13) -0.0651(11) 0.1994(8)
H7 H 0.0697 0.0151 0.1638
C12 C 0.0044(13) -0.1792(14) 0.2170(8)
H8 H -0.1323 -0.1796 0.1926
C13 C 0.0832(18) -0.2951(14) 0.2711(8)
H9 H -0.0018 -0.3731 0.284
C14 C 0.2884(18) -0.2991(12) 0.3076(8)
H10 H 0.3398 -0.3779 0.345
C15 C 0.4131(13) -0.1839(12) 0.2871(6)
H11 H 0.5508 -0.1868 0.3095
C16 C 0.5120(14) 0.3669(11) 0.2089(6)
C17 C 0.340(2) 0.5414(13) 0.1056(8)
H12 H 0.4438 0.535 0.0725
H13 H 0.3653 0.6336 0.1407
C18 C 0.138(2) 0.5514(16) 0.0514(8)
H14 H 0.1195 0.464 0.0139
H15 H 0.128 0.6472 0.0203
H16 H 0.0365 0.5494 0.0848
C19 C 0.4722(16) 0.0613(14) 0.1198(7)
Br1 Br 0.04066(17) 0.3477(3) 0.53798(8)
F1 F 0.6080(9) 0.1629(7) 0.0990(4)
F2 F 0.2986(10) 0.0905(8) 0.0706(4)
F3 F 0.5324(10) -0.0825(7) 0.0972(5)
O1 O 0.6639(10) 0.4465(8) 0.2184(5)
O2 O 0.3426(9) 0.4013(7) 0.1563(4)
loop_
_geom_bond_atom_site_label_1
_geom_bond_atom_site_label_2
_geom_bond_site_symmetry_1
_geom_bond_site_symmetry_2
C1 H1 1_555 1_555
C2 C1 1_555 1_555
H2 C2 1_555 1_555
C3 C2 1_555 1_555
C4 C3 1_555 1_555
H3 C4 1_555 1_555
C5 C4 1_555 1_555
H4 C5 1_555 1_555
C6 C1 1_555 1_555
C7 C6 1_555 1_555
C8 C7 1_555 1_555
H5 C8 1_555 1_555
H6 C8 1_555 1_555
C9 C7 1_555 1_555
C10 C9 1_555 1_555
C11 C10 1_555 1_555
H7 C11 1_555 1_555
C12 C11 1_555 1_555
H8 C12 1_555 1_555
C13 C12 1_555 1_555
H9 C13 1_555 1_555
C14 C13 1_555 1_555
H10 C14 1_555 1_555
C15 C10 1_555 1_555
H11 C15 1_555 1_555
C16 C7 1_555 1_555
C17 H12 1_555 1_555
H13 C17 1_555 1_555
C18 C17 1_555 1_555
H14 C18 1_555 1_555
H15 C18 1_555 1_555
H16 C18 1_555 1_555
C19 C9 1_555 1_555
Br1 C3 1_555 1_555
F1 C19 1_555 1_555
F2 C19 1_555 1_555
F3 C19 1_555 1_555
O1 C16 1_555 1_555
O2 C16 1_555 1_555
C5 C6 1_555 1_555
C8 C9 1_555 1_555
C14 C15 1_555 1_555
C17 O2 1_555 1_555

#END
