
#######################################################################
#
#                 Cambridge Crystallographic Data Centre
#                                CCDC 
#
#######################################################################
#
# If this CIF has been generated from an entry in the Cambridge 
# Structural Database, then it will include bibliographic, chemical, 
# crystal, experimental, refinement or atomic coordinate data resulting 
# from the CCDC's data processing and validation procedures.
#
#######################################################################

data_FINHIU
_chemical_formula_moiety         'C17 H16 O2'
_chemical_name_systematic        
1-(4-methylphenyl)-3-(4-methoxyphenyl)-2-propen-1-one
_symmetry_cell_setting           monoclinic
_symmetry_space_group_name_H-M   'P 21/c'
_symmetry_Int_Tables_number      14
_space_group_name_Hall           '-P 2ybc'
loop_
_symmetry_equiv_pos_site_id
_symmetry_equiv_pos_as_xyz
1 x,y,z
2 -x,1/2+y,1/2-z
3 -x,-y,-z
4 x,1/2-y,1/2+z
_cell_length_a                   11.5763(14)
_cell_length_b                   11.0321(11)
_cell_length_c                   11.5094(13)
_cell_angle_alpha                90
_cell_angle_beta                 114.581(3)
_cell_angle_gamma                90
_cell_volume                     1336.67
_exptl_crystal_colour            colorless
_exptl_crystal_description       block
_chemical_melting_point          '369-370 K'
_cell_formula_units_Z            4
_exptl_crystal_recrystallization_method ethanol
loop_
_atom_site_label
_atom_site_type_symbol
_atom_site_fract_x
_atom_site_fract_y
_atom_site_fract_z
O1 O 0.97607(10) 0.56297(8) 0.82003(9)
O2 O 0.51479(10) 0.90173(9) 0.12620(9)
C1 C 0.97679(12) 0.67439(11) 0.82108(12)
C2 C 0.90106(12) 0.74411(12) 0.70462(12)
H1 H 0.9174 0.8281 0.7013
C3 C 0.81012(12) 0.69104(12) 0.60393(12)
H2 H 0.7949 0.6077 0.6129
C4 C 0.73132(12) 0.74700(11) 0.48132(12)
C5 C 0.74696(13) 0.86753(11) 0.45194(12)
H3 H 0.8097 0.9166 0.5143
C6 C 0.67258(13) 0.91566(12) 0.33398(13)
H4 H 0.6837 0.9978 0.3161
C7 C 0.58110(12) 0.84484(12) 0.24065(12)
C8 C 0.56336(13) 0.72586(12) 0.26736(13)
H5 H 0.5007 0.6770 0.2046
C9 C 0.63803(13) 0.67873(12) 0.38673(14)
H6 H 0.6252 0.5971 0.4047
C10 C 1.05402(12) 0.74092(11) 0.94141(12)
C11 C 1.10664(13) 0.67542(12) 1.05589(12)
H7 H 1.0934 0.5904 1.0549
C12 C 1.17733(13) 0.73268(12) 1.16993(12)
H8 H 1.2121 0.6862 1.2463
C13 C 1.19895(12) 0.85754(12) 1.17581(12)
C14 C 1.14515(13) 0.92197(12) 1.06215(13)
H9 H 1.1572 1.0072 1.0636
C15 C 1.07458(12) 0.86584(12) 0.94689(12)
H10 H 1.0398 0.9126 0.8708
C16 C 0.42735(14) 0.83061(15) 0.02416(14)
H11 H 0.4721 0.7617 0.0080
H12 H 0.3898 0.8805 -0.0531
H13 H 0.3600 0.8007 0.0474
C17 C 1.27721(15) 0.91993(14) 1.30003(14)
H14 H 1.2535 0.8890 1.3670
H15 H 1.2616 1.0074 1.2904
H16 H 1.3675 0.9040 1.3237
loop_
_geom_bond_atom_site_label_1
_geom_bond_atom_site_label_2
_geom_bond_site_symmetry_1
_geom_bond_site_symmetry_2
O1 C1 1_555 1_555
O2 C7 1_555 1_555
C1 C2 1_555 1_555
C2 H1 1_555 1_555
C3 C2 1_555 1_555
H2 C3 1_555 1_555
C4 C3 1_555 1_555
C5 C4 1_555 1_555
H3 C5 1_555 1_555
C6 C5 1_555 1_555
H4 C6 1_555 1_555
C7 C6 1_555 1_555
C8 C7 1_555 1_555
H5 C8 1_555 1_555
C9 C4 1_555 1_555
H6 C9 1_555 1_555
C10 C1 1_555 1_555
C11 C10 1_555 1_555
H7 C11 1_555 1_555
C12 C11 1_555 1_555
H8 C12 1_555 1_555
C13 C12 1_555 1_555
C14 C13 1_555 1_555
H9 C14 1_555 1_555
C15 C10 1_555 1_555
H10 C15 1_555 1_555
C16 O2 1_555 1_555
H11 C16 1_555 1_555
H12 C16 1_555 1_555
H13 C16 1_555 1_555
C17 C13 1_555 1_555
H14 C17 1_555 1_555
H15 C17 1_555 1_555
H16 C17 1_555 1_555
C8 C9 1_555 1_555
C14 C15 1_555 1_555

#END
