
#######################################################################
#
#                 Cambridge Crystallographic Data Centre
#                                CCDC 
#
#######################################################################
#
# If this CIF has been generated from an entry in the Cambridge 
# Structural Database, then it will include bibliographic, chemical, 
# crystal, experimental, refinement or atomic coordinate data resulting 
# from the CCDC's data processing and validation procedures.
#
#######################################################################

data_FINKIX
_chemical_formula_moiety         'C17 H19 Cl2 N2 O3 P1'
_chemical_name_systematic        
'cis-2-(6-chloro-3-pyridylmethylamino)-4-(4-chlorophenyl)-5,5-dimethyl-1,3,2-dioxaphosphinane 2-oxide'
_chemical_properties_biological  
'potential insecticidal and fungicidal activity'
_symmetry_cell_setting           monoclinic
_symmetry_space_group_name_H-M   'P 21/n'
_symmetry_Int_Tables_number      14
_space_group_name_Hall           '-P 2yn'
loop_
_symmetry_equiv_pos_site_id
_symmetry_equiv_pos_as_xyz
1 x,y,z
2 1/2-x,1/2+y,1/2-z
3 -x,-y,-z
4 1/2+x,1/2-y,1/2+z
_cell_length_a                   6.1648(6)
_cell_length_b                   19.943(2)
_cell_length_c                   15.2676(16)
_cell_angle_alpha                90
_cell_angle_beta                 99.220(2)
_cell_angle_gamma                90
_cell_volume                     1852.82
_exptl_crystal_colour            colorless
_chemical_melting_point          185.3-186.9deg.C
_cell_formula_units_Z            4
_exptl_crystal_recrystallization_method 'absolute methanol'
loop_
_atom_site_label
_atom_site_type_symbol
_atom_site_fract_x
_atom_site_fract_y
_atom_site_fract_z
P1 P 0.18326(13) 1.01283(4) 0.13428(6)
O1 O -0.0455(4) 0.99058(13) 0.11026(17)
O2 O 0.3508(3) 0.95223(11) 0.15320(14)
O3 O 0.2346(4) 1.05512(13) 0.22204(16)
N1 N 0.2687(4) 1.05859(14) 0.06036(19)
H1 H 0.1765 1.0696 0.0142
C1 C 0.5427(6) 1.28616(19) 0.0009(2)
C2 C 0.3719(5) 1.26685(16) 0.0343(2)
H2 H 0.2628 1.2970 0.0436
C3 C 0.3591(6) 1.20277(19) 0.0546(2)
H3 H 0.2369 1.1888 0.0784
C4 C 0.5136(5) 1.15506(17) 0.0431(2)
C5 C 0.6950(6) 1.1769(2) 0.0082(3)
H4 H 0.8044 1.1467 -0.0006
N2 N 0.7128(7) 1.2447(2) -0.0136(3)
C6 C 0.4943(5) 1.08252(18) 0.0673(3)
H5 H 0.5701 1.0555 0.0289
H6 H 0.5680 1.0759 0.1277
C7 C 0.3500(5) 0.91363(17) 0.2350(2)
H7 H 0.2006 0.8968 0.2350
C8 C 0.4084(5) 0.96109(19) 0.3151(2)
C9 C 0.3806(8) 0.9227(2) 0.3998(3)
H8 H 0.4057 0.9525 0.4497
H9 H 0.4846 0.8865 0.4088
H10 H 0.2342 0.9050 0.3938
C10 C 0.6441(5) 0.9877(2) 0.3230(2)
H11 H 0.6640 1.0086 0.2682
H12 H 0.7458 0.9512 0.3356
H13 H 0.6701 1.0200 0.3702
C11 C 0.2451(6) 1.0187(2) 0.3053(3)
H14 H 0.1003 1.0011 0.3093
H15 H 0.2851 1.0497 0.3541
C12 C 0.4979(5) 0.85463(17) 0.2302(2)
C13 C 0.4489(6) 0.79263(19) 0.2641(2)
H16 H 0.3247 0.7883 0.2912
C14 C 0.5809(7) 0.7374(2) 0.2584(3)
H17 H 0.5461 0.6962 0.2812
C15 C 0.7657(6) 0.7441(2) 0.2183(2)
C16 C 0.8167(6) 0.80447(19) 0.1843(2)
H18 H 0.9407 0.8084 0.1571
C17 C 0.6851(5) 0.85933(18) 0.1902(2)
H19 H 0.7216 0.9002 0.1672
Cl1 Cl 0.5532(2) 1.37030(6) -0.02894(9)
Cl2 Cl 0.9330(2) 0.67511(6) 0.21039(9)
loop_
_geom_bond_atom_site_label_1
_geom_bond_atom_site_label_2
_geom_bond_site_symmetry_1
_geom_bond_site_symmetry_2
P1 O1 1_555 1_555
O2 P1 1_555 1_555
O3 P1 1_555 1_555
N1 P1 1_555 1_555
H1 N1 1_555 1_555
C1 C2 1_555 1_555
C2 H2 1_555 1_555
C3 C2 1_555 1_555
H3 C3 1_555 1_555
C4 C3 1_555 1_555
C5 C4 1_555 1_555
H4 C5 1_555 1_555
N2 C1 1_555 1_555
C6 N1 1_555 1_555
H5 C6 1_555 1_555
H6 C6 1_555 1_555
C7 O2 1_555 1_555
H7 C7 1_555 1_555
C8 C7 1_555 1_555
C9 C8 1_555 1_555
H8 C9 1_555 1_555
H9 C9 1_555 1_555
H10 C9 1_555 1_555
C10 C8 1_555 1_555
H11 C10 1_555 1_555
H12 C10 1_555 1_555
H13 C10 1_555 1_555
C11 O3 1_555 1_555
H14 C11 1_555 1_555
H15 C11 1_555 1_555
C12 C7 1_555 1_555
C13 C12 1_555 1_555
H16 C13 1_555 1_555
C14 C13 1_555 1_555
H17 C14 1_555 1_555
C15 C14 1_555 1_555
C16 C15 1_555 1_555
H18 C16 1_555 1_555
C17 C12 1_555 1_555
H19 C17 1_555 1_555
Cl1 C1 1_555 1_555
Cl2 C15 1_555 1_555
C4 C6 1_555 1_555
C5 N2 1_555 1_555
C8 C11 1_555 1_555
C16 C17 1_555 1_555

#END
