
#######################################################################
#
#                 Cambridge Crystallographic Data Centre
#                                CCDC 
#
#######################################################################
#
# If this CIF has been generated from an entry in the Cambridge 
# Structural Database, then it will include bibliographic, chemical, 
# crystal, experimental, refinement or atomic coordinate data resulting 
# from the CCDC's data processing and validation procedures.
#
#######################################################################

data_FINNUO
_chemical_formula_moiety         'C18 H34 B2 N4 Se2'
_chemical_name_systematic        
2,2'-(2,4-di-t-butyl-1,3,2,4-diselenadiboretane-2,4-diylidene)bis(1,3-dimethyl-2,3-dihydro-1H-imidazole)
_symmetry_cell_setting           triclinic
_symmetry_space_group_name_H-M   'P -1'
_symmetry_Int_Tables_number      2
_space_group_name_Hall           '-P 1'
loop_
_symmetry_equiv_pos_site_id
_symmetry_equiv_pos_as_xyz
1 x,y,z
2 -x,-y,-z
_cell_length_a                   8.085(2)
_cell_length_b                   8.208(3)
_cell_length_c                   9.845(3)
_cell_angle_alpha                108.77(2)
_cell_angle_beta                 100.22(2)
_cell_angle_gamma                108.10(2)
_cell_volume                     559.348
_exptl_crystal_colour            colorless
_exptl_crystal_description       plate
_cell_formula_units_Z            1
loop_
_atom_site_label
_atom_site_type_symbol
_atom_site_fract_x
_atom_site_fract_y
_atom_site_fract_z
Se1 Se 0.35969(6) 0.58907(6) 0.50961(5)
B1 B 0.5090(8) 0.5016(8) 0.6477(7)
C1 C 0.6472(7) 0.6729(7) 0.8079(6)
C2 C 0.7898(8) 0.8263(7) 0.7823(7)
H1 H 0.857423 0.935187 0.878352
H2 H 0.727274 0.863682 0.710355
H3 H 0.875106 0.777518 0.742062
C3 C 0.7557(8) 0.6045(8) 0.9055(6)
H4 H 0.836213 0.710265 1.000286
H5 H 0.829469 0.550900 0.851144
H6 H 0.670582 0.508850 0.927150
C4 C 0.5392(8) 0.7629(8) 0.8988(7)
H7 H 0.623669 0.862937 0.995190
H8 H 0.449558 0.667774 0.917767
H9 H 0.475645 0.815534 0.841551
C5 C 0.3727(8) 0.3225(7) 0.6688(6)
N1 N 0.4071(7) 0.1729(6) 0.6748(5)
C6 C 0.2541(8) 0.0421(8) 0.6794(7)
H10 H 0.242888 -0.075367 0.682248
N2 N 0.1991(6) 0.2851(6) 0.6736(5)
C7 C 0.1247(8) 0.1114(8) 0.6793(7)
H11 H 0.004740 0.052994 0.682429
C8 C 0.5791(8) 0.1473(8) 0.6918(7)
H12 H 0.553803 0.013873 0.642059
H13 H 0.644378 0.193406 0.799179
H14 H 0.654630 0.217236 0.645429
C9 C 0.0943(8) 0.4022(9) 0.6789(8)
H15 H 0.035496 0.403383 0.757912
H16 H 0.000504 0.351623 0.581231
H17 H 0.176520 0.530226 0.701059
Se1A Se 0.64031(6) 0.41093(6) 0.49039(5)
B1A B 0.4910(8) 0.4984(8) 0.3523(7)
C1A C 0.3528(7) 0.3271(7) 0.1921(6)
C2A C 0.2102(8) 0.1737(7) 0.2177(7)
H1A H 0.142577 0.064813 0.121648
H2A H 0.272726 0.136318 0.289645
H3A H 0.124894 0.222482 0.257938
C3A C 0.2443(8) 0.3955(8) 0.0945(6)
H4A H 0.163787 0.289735 -0.000286
H5A H 0.170531 0.449100 0.148856
H6A H 0.329418 0.491150 0.072850
C4A C 0.4608(8) 0.2371(8) 0.1012(7)
H7A H 0.376331 0.137063 0.004810
H8A H 0.550442 0.332226 0.082233
H9A H 0.524355 0.184466 0.158449
C5A C 0.6273(8) 0.6775(7) 0.3312(6)
N1A N 0.5929(7) 0.8271(6) 0.3252(5)
C6A C 0.7459(8) 0.9579(8) 0.3206(7)
H10A H 0.757112 1.075367 0.317752
N2A N 0.8009(6) 0.7149(6) 0.3264(5)
C7A C 0.8753(8) 0.8886(8) 0.3207(7)
H11A H 0.995260 0.947006 0.317571
C8A C 0.4209(8) 0.8527(8) 0.3082(7)
H12A H 0.446197 0.986127 0.357941
H13A H 0.355622 0.806594 0.200821
H14A H 0.345370 0.782764 0.354571
C9A C 0.9057(8) 0.5978(9) 0.3211(8)
H15A H 0.964504 0.596617 0.242088
H16A H 0.999496 0.648377 0.418769
H17A H 0.823480 0.469774 0.298941
loop_
_geom_bond_atom_site_label_1
_geom_bond_atom_site_label_2
_geom_bond_site_symmetry_1
_geom_bond_site_symmetry_2
Se1 B1 1_555 1_555
B1 C1 1_555 1_555
C1 C2 1_555 1_555
C2 H1 1_555 1_555
H2 C2 1_555 1_555
H3 C2 1_555 1_555
C3 C1 1_555 1_555
H4 C3 1_555 1_555
H5 C3 1_555 1_555
H6 C3 1_555 1_555
C4 C1 1_555 1_555
H7 C4 1_555 1_555
H8 C4 1_555 1_555
H9 C4 1_555 1_555
C5 B1 1_555 1_555
N1 C5 1_555 1_555
C6 N1 1_555 1_555
H10 C6 1_555 1_555
N2 C5 1_555 1_555
C7 C6 1_555 1_555
H11 C7 1_555 1_555
C8 N1 1_555 1_555
H12 C8 1_555 1_555
H13 C8 1_555 1_555
H14 C8 1_555 1_555
C9 N2 1_555 1_555
H15 C9 1_555 1_555
H16 C9 1_555 1_555
H17 C9 1_555 1_555
Se1A B1 1_555 1_555
B1A Se1 1_555 1_555
C1A B1A 1_555 1_555
C2A C1A 1_555 1_555
H1A C2A 1_555 1_555
H2A C2A 1_555 1_555
H3A C2A 1_555 1_555
C3A C1A 1_555 1_555
H4A C3A 1_555 1_555
H5A C3A 1_555 1_555
H6A C3A 1_555 1_555
C4A C1A 1_555 1_555
H7A C4A 1_555 1_555
H8A C4A 1_555 1_555
H9A C4A 1_555 1_555
C5A B1A 1_555 1_555
N1A C5A 1_555 1_555
C6A N1A 1_555 1_555
H10A C6A 1_555 1_555
N2A C5A 1_555 1_555
C7A C6A 1_555 1_555
H11A C7A 1_555 1_555
C8A N1A 1_555 1_555
H12A C8A 1_555 1_555
H13A C8A 1_555 1_555
H14A C8A 1_555 1_555
C9A N2A 1_555 1_555
H15A C9A 1_555 1_555
H16A C9A 1_555 1_555
H17A C9A 1_555 1_555
N2 C7 1_555 1_555
Se1A B1A 1_555 1_555
N2A C7A 1_555 1_555

#END
