
#######################################################################
#
#                 Cambridge Crystallographic Data Centre
#                                CCDC 
#
#######################################################################
#
# If this CIF has been generated from an entry in the Cambridge 
# Structural Database, then it will include bibliographic, chemical, 
# crystal, experimental, refinement or atomic coordinate data resulting 
# from the CCDC's data processing and validation procedures.
#
#######################################################################

data_FINNOI
_chemical_formula_moiety         'C18 H34 B2 N4 S2'
_chemical_name_systematic        
2,2'-(2,4-di-t-butyl-1,3,2,4-dithiadiboretane-2,4-diylidene)bis(1,3-dimethyl-2,3-dihydro-1H-imidazole)
_symmetry_cell_setting           triclinic
_symmetry_space_group_name_H-M   'P -1'
_symmetry_Int_Tables_number      2
_space_group_name_Hall           '-P 1'
loop_
_symmetry_equiv_pos_site_id
_symmetry_equiv_pos_as_xyz
1 x,y,z
2 -x,-y,-z
_cell_length_a                   8.0243(20)
_cell_length_b                   8.053(3)
_cell_length_c                   9.721(4)
_cell_angle_alpha                105.103(9)
_cell_angle_beta                 104.95(2)
_cell_angle_gamma                106.457(18)
_cell_volume                     543
_exptl_crystal_colour            colorless
_exptl_crystal_description       block
_cell_formula_units_Z            1
loop_
_atom_site_label
_atom_site_type_symbol
_atom_site_fract_x
_atom_site_fract_y
_atom_site_fract_z
S1 S 0.37473(6) 0.59502(6) 0.50890(5)
B1 B 0.4815(3) 0.5014(3) 0.3610(2)
C1 C 0.3293(3) 0.3385(3) 0.1988(2)
C2 C 0.4294(3) 0.2410(3) 0.1095(2)
H1 H 0.336995 0.138058 0.017525
H2 H 0.503724 0.193064 0.173915
H3 H 0.511237 0.330060 0.080375
C3 C 0.1874(3) 0.1928(3) 0.2293(2)
H4 H 0.110121 0.087549 0.133720
H5 H 0.108165 0.248232 0.270124
H6 H 0.253455 0.149497 0.303465
C4 C 0.2189(3) 0.4154(3) 0.0949(2)
H7 H 0.128225 0.313089 0.001706
H8 H 0.304687 0.503858 0.068084
H9 H 0.153464 0.478415 0.148655
C5 C 0.6180(3) 0.6765(3) 0.3342(2)
N1 N 0.7905(2) 0.7067(2) 0.32856(18)
C6 C 0.8648(3) 0.8779(3) 0.3178(2)
H10 H 0.984233 0.930725 0.313123
N2 N 0.5857(2) 0.8305(2) 0.32377(18)
C7 C 0.7379(3) 0.9554(3) 0.3151(2)
H11 H 0.749849 1.073590 0.308587
C8 C 0.8916(3) 0.5816(3) 0.3267(3)
H12 H 0.918412 0.554099 0.232302
H13 H 0.815555 0.465971 0.331910
H14 H 1.008691 0.640767 0.414683
C9 C 0.4145(3) 0.8650(3) 0.3083(2)
H15 H 0.444833 0.997335 0.360450
H16 H 0.341440 0.792401 0.354136
H17 H 0.342033 0.828357 0.199896
S1A S 0.62527(6) 0.40498(6) 0.49110(5)
B1A B 0.5185(3) 0.4986(3) 0.6390(2)
C1A C 0.6707(3) 0.6615(3) 0.8012(2)
C2A C 0.5706(3) 0.7590(3) 0.8905(2)
H1A H 0.663005 0.861942 0.982475
H2A H 0.496276 0.806936 0.826085
H3A H 0.488763 0.669940 0.919625
C3A C 0.8126(3) 0.8072(3) 0.7707(2)
H4A H 0.889879 0.912451 0.866280
H5A H 0.891835 0.751768 0.729876
H6A H 0.746545 0.850503 0.696535
C4A C 0.7811(3) 0.5846(3) 0.9051(2)
H7A H 0.871775 0.686911 0.998294
H8A H 0.695313 0.496142 0.931916
H9A H 0.846536 0.521585 0.851345
C5A C 0.3820(3) 0.3235(3) 0.6658(2)
N1A N 0.2095(2) 0.2933(2) 0.67144(18)
C6A C 0.1352(3) 0.1221(3) 0.6822(2)
H10A H 0.015767 0.069275 0.686877
N2A N 0.4143(2) 0.1695(2) 0.67623(18)
C7A C 0.2621(3) 0.0446(3) 0.6849(2)
H11A H 0.250151 -0.073590 0.691413
C8A C 0.1084(3) 0.4184(3) 0.6733(3)
H12A H 0.081588 0.445901 0.767698
H13A H 0.184445 0.534029 0.668090
H14A H -0.008691 0.359233 0.585317
C9A C 0.5855(3) 0.1350(3) 0.6917(2)
H15A H 0.555167 0.002665 0.639550
H16A H 0.658560 0.207599 0.645864
H17A H 0.657967 0.171643 0.800104
loop_
_geom_bond_atom_site_label_1
_geom_bond_atom_site_label_2
_geom_bond_site_symmetry_1
_geom_bond_site_symmetry_2
S1 B1 1_555 1_555
B1 C1 1_555 1_555
C1 C2 1_555 1_555
C2 H1 1_555 1_555
H2 C2 1_555 1_555
H3 C2 1_555 1_555
C3 C1 1_555 1_555
H4 C3 1_555 1_555
H5 C3 1_555 1_555
H6 C3 1_555 1_555
C4 C1 1_555 1_555
H7 C4 1_555 1_555
H8 C4 1_555 1_555
H9 C4 1_555 1_555
C5 B1 1_555 1_555
N1 C5 1_555 1_555
C6 N1 1_555 1_555
H10 C6 1_555 1_555
N2 C5 1_555 1_555
C7 C6 1_555 1_555
H11 C7 1_555 1_555
C8 N1 1_555 1_555
H12 C8 1_555 1_555
H13 C8 1_555 1_555
H14 C8 1_555 1_555
C9 N2 1_555 1_555
H15 C9 1_555 1_555
H16 C9 1_555 1_555
H17 C9 1_555 1_555
S1A B1 1_555 1_555
B1A S1 1_555 1_555
C1A B1A 1_555 1_555
C2A C1A 1_555 1_555
H1A C2A 1_555 1_555
H2A C2A 1_555 1_555
H3A C2A 1_555 1_555
C3A C1A 1_555 1_555
H4A C3A 1_555 1_555
H5A C3A 1_555 1_555
H6A C3A 1_555 1_555
C4A C1A 1_555 1_555
H7A C4A 1_555 1_555
H8A C4A 1_555 1_555
H9A C4A 1_555 1_555
C5A B1A 1_555 1_555
N1A C5A 1_555 1_555
C6A N1A 1_555 1_555
H10A C6A 1_555 1_555
N2A C5A 1_555 1_555
C7A C6A 1_555 1_555
H11A C7A 1_555 1_555
C8A N1A 1_555 1_555
H12A C8A 1_555 1_555
H13A C8A 1_555 1_555
H14A C8A 1_555 1_555
C9A N2A 1_555 1_555
H15A C9A 1_555 1_555
H16A C9A 1_555 1_555
H17A C9A 1_555 1_555
N2 C7 1_555 1_555
S1A B1A 1_555 1_555
N2A C7A 1_555 1_555

#END
