
#######################################################################
#
#                 Cambridge Crystallographic Data Centre
#                                CCDC 
#
#######################################################################
#
# If this CIF has been generated from an entry in the Cambridge 
# Structural Database, then it will include bibliographic, chemical, 
# crystal, experimental, refinement or atomic coordinate data resulting 
# from the CCDC's data processing and validation procedures.
#
#######################################################################

data_FINRUP
_chemical_compound_source        
'Raurolfia verticillata(Lour) Baill.f.rubrocarpa H.T.Chang.mss'
_chemical_formula_moiety         'C40 H46 N4 O3 2+,2(Cl1 1-),3(H2 O1)'
_chemical_name_systematic        'Macrospegatrine dichloride trihydrate'
_chemical_properties_biological  'alpha adrenergic blocking agent'
_symmetry_cell_setting           orthorhombic
_symmetry_space_group_name_H-M   'P 21 21 21'
_symmetry_Int_Tables_number      19
_space_group_name_Hall           'P 2ac 2ab'
loop_
_symmetry_equiv_pos_site_id
_symmetry_equiv_pos_as_xyz
1 x,y,z
2 1/2+x,1/2-y,-z
3 -x,1/2+y,1/2-z
4 1/2-x,-y,1/2+z
_cell_length_a                   19.867(4)
_cell_length_b                   15.793(3)
_cell_length_c                   12.997(2)
_cell_angle_alpha                90
_cell_angle_beta                 90
_cell_angle_gamma                90
_cell_volume                     4077.93
_exptl_crystal_colour            yellowish
_cell_formula_units_Z            4
loop_
_atom_site_label
_atom_site_type_symbol
_atom_site_fract_x
_atom_site_fract_y
_atom_site_fract_z
N1 N 0.2492(5) 0.2263(8) 0.9358(8)
C1 C 0.2728(6) 0.2073(10) 0.8343(10)
C2 C 0.2806(7) 0.1180(10) 0.7940(11)
N2 N 0.2625(5) 0.1269(7) 0.6845(8)
C3 C 0.3060(6) 0.1874(9) 0.6279(9)
C4 C 0.2898(6) 0.2781(8) 0.6666(11)
C5 C 0.2774(7) 0.2805(9) 0.7777(10)
C6 C 0.2637(7) 0.3468(9) 0.8471(12)
C7 C 0.2690(8) 0.4357(12) 0.8399(13)
C8 C 0.2424(10) 0.4892(13) 0.9210(20)
C9 C 0.2298(13) 0.4503(13) 1.0146(20)
C10 C 0.2327(8) 0.3686(17) 1.0270(12)
C11 C 0.2514(7) 0.3125(10) 0.9422(13)
C12 C 0.3521(6) 0.0809(8) 0.8028(9)
C13 C 0.4034(6) 0.1380(7) 0.7462(8)
C14 C 0.3787(6) 0.1572(8) 0.6361(9)
C15 C 0.4273(6) 0.2139(8) 0.5816(11)
C16 C 0.5602(7) 0.0039(9) 0.8293(11)
C17 C 0.5052(6) 0.0733(8) 0.8391(9)
C18 C 0.4719(6) 0.0932(7) 0.7369(8)
C19 C 0.5203(6) 0.1440(9) 0.6698(9)
C20 C 0.4058(5) 0.2250(6) 0.4836(6)
N3 N 0.5797(4) 0.2318(6) 1.1354(7)
C21 C 0.5491(5) 0.1590(7) 1.1633(8)
C22 C 0.5384(6) 0.1338(7) 1.2756(9)
N4 N 0.4794(5) 0.0741(6) 1.2782(7)
C23 C 0.4944(6) 0.0020(8) 1.2023(9)
C24 C 0.4861(6) 0.0335(8) 1.0906(9)
C25 C 0.5273(6) 0.1147(7) 1.0806(9)
C26 C 0.5461(6) 0.1644(7) 0.9939(8)
C27 C 0.5347(6) 0.1543(8) 0.8864(9)
C28 C 0.5555(7) 0.2208(9) 0.8240(10)
C29 C 0.5895(6) 0.2904(8) 0.8625(10)
C30 C 0.6018(6) 0.3003(8) 0.9651(10)
C31 C 0.5783(6) 0.2362(8) 1.0306(9)
C32 C 0.5994(6) 0.0908(8) 1.3271(10)
C33 C 0.5880(7) -0.0043(8) 1.3348(11)
C34 C 0.5629(6) -0.0351(7) 1.2241(10)
C35 C 0.5624(7) -0.1314(9) 1.2206(10)
C36 C 0.5824(9) -0.1305(10) 1.5183(12)
C37 C 0.5300(7) -0.0698(9) 1.4868(11)
C38 C 0.5319(6) -0.0146(7) 1.4091(9)
C39 C 0.4731(6) 0.0380(7) 1.3865(8)
C40 C 0.4144(6) 0.1189(8) 1.2533(10)
O1 O 0.5325(5) -0.1630(6) 1.1253(7)
O2 O 0.4912(4) 0.1735(6) 0.5757(6)
O3 O 0.5433(4) 0.2191(6) 0.7174(6)
Cl1 Cl 0.1165(2) 0.1754(2) 0.6480(2)
Cl2 Cl 0.7565(4) 0.4365(4) 0.8975(5)
O4 O 0.2346(9) 0.1300(11) 0.3337(14)
O5 O 0.4019(11) -0.1319(11) 0.9062(12)
O6 O 0.8087(6) -0.5103(8) 1.5329(14)
loop_
_geom_bond_atom_site_label_1
_geom_bond_atom_site_label_2
_geom_bond_site_symmetry_1
_geom_bond_site_symmetry_2
N1 C1 1_555 1_555
C1 C2 1_555 1_555
C2 N2 1_555 1_555
N2 C3 1_555 1_555
C3 C4 1_555 1_555
C4 C5 1_555 1_555
C5 C1 1_555 1_555
C6 C5 1_555 1_555
C7 C6 1_555 1_555
C8 C7 1_555 1_555
C9 C8 1_555 1_555
C10 C9 1_555 1_555
C11 N1 1_555 1_555
C12 C2 1_555 1_555
C13 C12 1_555 1_555
C14 C3 1_555 1_555
C15 C14 1_555 1_555
C16 C17 1_555 1_555
C17 C18 1_555 1_555
C18 C13 1_555 1_555
C19 C18 1_555 1_555
C20 C15 1_555 1_555
N3 C21 1_555 1_555
C21 C22 1_555 1_555
C22 N4 1_555 1_555
N4 C23 1_555 1_555
C23 C24 1_555 1_555
C24 C25 1_555 1_555
C25 C21 1_555 1_555
C26 C25 1_555 1_555
C27 C17 1_555 1_555
C28 C27 1_555 1_555
C29 C28 1_555 1_555
C30 C29 1_555 1_555
C31 N3 1_555 1_555
C32 C22 1_555 1_555
C33 C32 1_555 1_555
C34 C23 1_555 1_555
C35 C34 1_555 1_555
C36 C37 1_555 1_555
C37 C38 1_555 1_555
C38 C33 1_555 1_555
C39 N4 1_555 1_555
C40 N4 1_555 1_555
O1 C35 1_555 1_555
O2 C15 1_555 1_555
O3 C19 1_555 1_555
C6 C11 1_555 1_555
C10 C11 1_555 1_555
C13 C14 1_555 1_555
C19 O2 1_555 1_555
C26 C27 1_555 1_555
C26 C31 1_555 1_555
C28 O3 1_555 1_555
C30 C31 1_555 1_555
C33 C34 1_555 1_555
C38 C39 1_555 1_555

#END
