
#######################################################################
#
#                 Cambridge Crystallographic Data Centre
#                                CCDC 
#
#######################################################################
#
# If this CIF has been generated from an entry in the Cambridge 
# Structural Database, then it will include bibliographic, chemical, 
# crystal, experimental, refinement or atomic coordinate data resulting 
# from the CCDC's data processing and validation procedures.
#
#######################################################################

data_FINTIH
_chemical_formula_moiety         'C6 H12 N2 O2,C4 H6 O6'
_chemical_name_systematic        
"1,4-Diazabicyclo(2.2.2)octane-N,N'-dioxide D-tartaric acid"
_symmetry_cell_setting           tetragonal
_symmetry_space_group_name_H-M   'P 43'
_symmetry_Int_Tables_number      78
_space_group_name_Hall           'P 4cw'
loop_
_symmetry_equiv_pos_site_id
_symmetry_equiv_pos_as_xyz
1 x,y,z
2 -x,-y,1/2+z
3 -y,x,3/4+z
4 y,-x,1/4+z
_cell_length_a                   7.7369(11)
_cell_length_b                   7.7369(11)
_cell_length_c                   21.197(4)
_cell_angle_alpha                90
_cell_angle_beta                 90
_cell_angle_gamma                90
_cell_volume                     1268.84
_exptl_crystal_colour            colorless
_exptl_crystal_description       block
_cell_formula_units_Z            4
loop_
_atom_site_label
_atom_site_type_symbol
_atom_site_fract_x
_atom_site_fract_y
_atom_site_fract_z
C1 C 0.1308(3) 0.5855(4) -0.04613(15)
H1 H 0.0995 0.5944 -0.0903
H2 H 0.1198 0.4655 -0.0335
C2 C 0.3668(3) 0.6135(4) 0.02924(11)
H3 H 0.3739 0.4903 0.0373
H4 H 0.4801 0.6635 0.0363
C3 C 0.3256(4) 0.8357(3) -0.05025(12)
H5 H 0.4458 0.8714 -0.0487
H6 H 0.2810 0.8617 -0.0919
C4 C 0.0089(3) 0.6978(4) -0.00664(15)
H7 H -0.0690 0.6249 0.0174
H8 H -0.0598 0.7713 -0.0340
C5 C 0.2351(4) 0.6968(3) 0.07393(11)
H9 H 0.2946 0.7659 0.1053
H10 H 0.1704 0.6074 0.0956
C6 C 0.2209(4) 0.9350(3) -0.00018(12)
H11 H 0.2933 0.9873 0.0323
N1 N 0.3120(2) 0.6443(2) -0.03780(8)
N2 N 0.1142(2) 0.8080(2) 0.03725(8)
O1 O 0.4172(2) 0.5521(2) -0.07887(8)
O2 O 0.0034(2) 0.89339(19) 0.07819(7)
H12 H 0.1403 1.0082 -0.0156
C7 C 0.1616(3) 0.2380(3) 0.15576(11)
C8 C 0.2450(3) 0.3238(3) 0.21277(9)
H13 H 0.3678 0.2926 0.2131
C9 C 0.1639(3) 0.2600(3) 0.27412(10)
H14 H 0.1769 0.1341 0.2763
C10 C 0.2554(3) 0.3402(3) 0.33091(10)
O3 O 0.1118(3) 0.3139(2) 0.10937(9)
O4 O 0.1537(3) 0.0676(2) 0.16271(8)
H15 H 0.107(6) 0.030(7) 0.135(2)
O5 O 0.2324(2) 0.5067(2) 0.20942(7)
H16 H 0.325(5) 0.541(4) 0.1998(18)
O6 O -0.0154(2) 0.3001(2) 0.27447(8)
H17 H -0.063(4) 0.215(5) 0.2940(17)
O7 O 0.4216(2) 0.2995(2) 0.33159(7)
H18 H 0.466(6) 0.365(7) 0.363(2)
O8 O 0.1841(3) 0.4257(3) 0.37089(9)
loop_
_geom_bond_atom_site_label_1
_geom_bond_atom_site_label_2
_geom_bond_site_symmetry_1
_geom_bond_site_symmetry_2
C1 H1 1_555 1_555
H2 C1 1_555 1_555
C2 H3 1_555 1_555
H4 C2 1_555 1_555
C3 H5 1_555 1_555
H6 C3 1_555 1_555
C4 C1 1_555 1_555
H7 C4 1_555 1_555
H8 C4 1_555 1_555
C5 C2 1_555 1_555
H9 C5 1_555 1_555
H10 C5 1_555 1_555
C6 C3 1_555 1_555
H11 C6 1_555 1_555
N1 C1 1_555 1_555
N2 C4 1_555 1_555
O1 N1 1_555 1_555
O2 N2 1_555 1_555
H12 C6 1_555 1_555
C7 C8 1_555 1_555
C8 H13 1_555 1_555
C9 C8 1_555 1_555
H14 C9 1_555 1_555
C10 C9 1_555 1_555
O3 C7 1_555 1_555
O4 C7 1_555 1_555
H15 O4 1_555 1_555
O5 C8 1_555 1_555
H16 O5 1_555 1_555
O6 C9 1_555 1_555
H17 O6 1_555 1_555
O7 C10 1_555 1_555
H18 O7 1_555 1_555
O8 C10 1_555 1_555
C2 N1 1_555 1_555
C3 N1 1_555 1_555
C5 N2 1_555 1_555
C6 N2 1_555 1_555

#END
