
#######################################################################
#
#                 Cambridge Crystallographic Data Centre
#                                CCDC 
#
#######################################################################
#
# If this CIF has been generated from an entry in the Cambridge 
# Structural Database, then it will include bibliographic, chemical, 
# crystal, experimental, refinement or atomic coordinate data resulting 
# from the CCDC's data processing and validation procedures.
#
#######################################################################

data_FINTIF
_chemical_compound_source        'Culture of dung fungus Poronia punctata'
_chemical_formula_moiety         'C15 H24 O3'
_chemical_name_systematic        'Punctatin D'
_chemical_properties_biological  
'marginal activity against a mycelial form of Candida albicans'
_symmetry_cell_setting           triclinic
_symmetry_space_group_name_H-M   'P 1'
_symmetry_Int_Tables_number      1
_space_group_name_Hall           'P 1'
loop_
_symmetry_equiv_pos_site_id
_symmetry_equiv_pos_as_xyz
1 x,y,z
_cell_length_a                   8.701(1)
_cell_length_b                   10.924(2)
_cell_length_c                   12.574(2)
_cell_angle_alpha                70.30(1)
_cell_angle_beta                 80.56(1)
_cell_angle_gamma                82.43(1)
_cell_volume                     1106.2
_chemical_melting_point          199-201deg.C
_cell_formula_units_Z            3
loop_
_atom_site_label
_atom_site_type_symbol
_atom_site_fract_x
_atom_site_fract_y
_atom_site_fract_z
O1 O 0.5110(2) 0.0796(2) 0.2669(1)
C1 C 0.5107(3) 0.0617(2) 0.3855(2)
C2 C 0.3548(3) 0.0318(3) 0.4551(2)
C3 C 0.3315(3) 0.0853(3) 0.5364(2)
C4 C 0.4653(3) 0.1623(2) 0.5346(2)
C5 C 0.3918(3) 0.2811(3) 0.5672(2)
O2 O 0.5002(3) 0.3733(2) 0.5571(2)
C6 C 0.5830(3) 0.0724(2) 0.6115(2)
C7 C 0.5927(3) 0.0319(3) 0.7404(2)
C8 C 0.7734(3) 0.0110(3) 0.7109(2)
C9 C 0.8284(4) -0.1276(3) 0.7099(3)
C10 C 0.8752(4) 0.0510(4) 0.7797(3)
C11 C 0.7510(3) 0.1098(2) 0.5901(2)
O3 O 0.7612(3) 0.2369(2) 0.5945(2)
C12 C 0.8286(3) 0.1029(3) 0.4758(2)
C13 C 0.7281(3) 0.1967(3) 0.3870(2)
C14 C 0.5491(3) 0.1850(2) 0.4075(2)
C15 C 0.4734(4) 0.3056(2) 0.3237(2)
H1 H 0.5846(32) 0.0335(27) 0.2448(24)
H2 H 0.5889 -0.0096 0.4071
H3 H 0.2820 -0.0188 0.4421
H4 H 0.2396 0.0764 0.5914
H5 H 0.3442 0.2514 0.6450
H6 H 0.3130 0.3244 0.5188
H7 H 0.4617(45) 0.4163(37) 0.6043(32)
H8 H 0.6093(31) -0.0223(25) 0.5998(23)
H9 H 0.5589 0.0998 0.7736
H10 H 0.5427 -0.0457 0.7857
H11 H 0.7713 -0.1662 0.6720
H12 H 0.8174 -0.1753 0.7899
H13 H 0.9369 -0.1303 0.6793
H14 H 0.8329 0.1323 0.7905
H15 H 0.9806 0.0592 0.7423
H16 H 0.8746 -0.0163 0.8523
H17 H 0.6628(39) 0.2873(31) 0.5841(28)
H18 H 0.9328 0.1298 0.4610
H19 H 0.8324 0.0155 0.4736
H20 H 0.7439 0.2839 0.3820
H21 H 0.7664 0.1833 0.3154
H22 H 0.3644 0.3010 0.3223
H23 H 0.5285 0.3200 0.2484
H24 H 0.4860 0.3762 0.3500
O4 O 0.2342(3) 0.1045(2) 1.1891(2)
C16 C 0.2058(3) 0.2351(3) 1.1152(2)
C17 C 0.0513(4) 0.2975(3) 1.1445(2)
C18 C -0.0110(3) 0.3715(3) 1.0527(2)
C19 C 0.0933(3) 0.3712(2) 0.9438(2)
C20 C -0.0066(3) 0.3728(3) 0.8540(2)
O5 O 0.0862(3) 0.3520(2) 0.7574(2)
C21 C 0.1990(3) 0.4843(2) 0.9082(2)
C22 C 0.1736(4) 0.6304(3) 0.8400(3)
C23 C 0.3550(4) 0.6277(3) 0.8109(2)
C24 C 0.4321(6) 0.6580(4) 0.8988(3)
C25 C 0.4160(6) 0.7121(4) 0.6917(3)
C26 C 0.3530(3) 0.4781(2) 0.8322(2)
O6 O 0.3380(2) 0.4650(2) 0.7251(1)
C27 C 0.4603(3) 0.3674(3) 0.8942(3)
C28 C 0.3723(4) 0.2431(3) 0.9254(3)
C29 C 0.2064(3) 0.2427(2) 0.9890(2)
C30 C 0.1349(5) 0.1223(3) 0.9882(3)
H25 H 0.3124(41) 0.0965(32) 1.2127(29)
H26 H 0.2889 0.2788 1.1246
H27 H 0.0018 0.2854 1.2210
H28 H -0.1110 0.4203 1.0546
H29 H -0.0658 0.4559 0.8310
H30 H -0.0767 0.3051 0.8869
H31 H 0.0593(46) 0.3781(36) 0.6924(32)
H32 H 0.2474(35) 0.4883(27) 0.9805(25)
H33 H 0.1179 0.6491 0.7756
H34 H 0.1282 0.6852 0.8847
H35 H 0.3939 0.6050 0.9742
H36 H 0.4116 0.7485 0.8928
H37 H 0.5427 0.6379 0.8840
H38 H 0.3664 0.6935 0.6367
H39 H 0.5267 0.6907 0.6794
H40 H 0.3961 0.8031 0.6837
H41 H 0.2468(45) 0.4312(36) 0.7299(33)
H42 H 0.5565 0.3606 0.8459
H43 H 0.4821 0.3801 0.9620
H44 H 0.4341 0.1720 0.9720
H45 H 0.3661 0.2279 0.8554
H46 H 0.0320 0.1178 1.0301
H47 H 0.1993 0.0452 1.0229
H48 H 0.1286 0.1284 0.9110
O7 O 0.9443(3) 0.4162(2) 0.5720(2)
C31 C 0.9435(3) 0.4899(2) 0.4542(2)
C32 C 1.0788(3) 0.4563(3) 0.3775(3)
C33 C 1.1259(3) 0.5606(3) 0.2960(3)
C34 C 1.0255(3) 0.6839(2) 0.3018(2)
C35 C 1.1278(3) 0.7978(3) 0.2656(3)
O8 O 1.0441(2) 0.9092(2) 0.2869(2)
C36 C 0.8908(3) 0.7013(2) 0.2309(2)
C37 C 0.8757(4) 0.7609(3) 0.1029(2)
C38 C 0.6955(3) 0.7799(3) 0.1393(2)
C39 C 0.6106(5) 0.6626(4) 0.1518(3)
C40 C 0.6078(5) 0.9029(4) 0.0701(3)
C41 C 0.7411(3) 0.7814(2) 0.2552(2)
O9 O 0.7604(2) 0.9133(2) 0.2416(2)
C42 C 0.6630(3) 0.7165(3) 0.3743(2)
C43 C 0.7832(3) 0.7037(3) 0.4552(2)
C44 C 0.9472(3) 0.6385(2) 0.4305(2)
C45 C 1.0531(4) 0.6588(3) 0.5086(2)
H49 H 0.9025(41) 0.3424(33) 0.5819(30)
H50 H 0.8484 0.4677 0.4383
H51 H 1.1256 0.3694 0.3863
H52 H 1.2138 0.5595 0.2390
H53 H 1.1642 0.8191 0.1857
H54 H 1.2157 0.7724 0.3078
H55 H 1.0895(41) 0.9780(33) 0.2500(30)
H56 H 0.8378(34) 0.6083(27) 0.2539(24)
H57 H 0.9259 0.8402 0.0648
H58 H 0.9058 0.7017 0.0599
H59 H 0.6679 0.5836 0.1916
H60 H 0.6004 0.6613 0.0772
H61 H 0.5087 0.6692 0.1933
H62 H 0.6657 0.9769 0.0564
H63 H 0.5060 0.9162 0.1095
H64 H 0.5971 0.8928 -0.0012
H65 H 0.8433(49) 0.9294(38) 0.2572(33)
H66 H 0.5713 0.7692 0.3916
H67 H 0.6345 0.6320 0.3812
H68 H 0.7965 0.7901 0.4540
H69 H 0.7395 0.6537 0.5301
H70 H 1.1540 0.6126 0.5017
H71 H 1.0045 0.6282 0.5861
H72 H 1.0647 0.7505 0.4871
loop_
_geom_bond_atom_site_label_1
_geom_bond_atom_site_label_2
_geom_bond_site_symmetry_1
_geom_bond_site_symmetry_2
O1 C1 1_555 1_555
C1 C2 1_555 1_555
C2 C3 1_555 1_555
C3 C4 1_555 1_555
C4 C5 1_555 1_555
C5 O2 1_555 1_555
O2 H7 1_555 1_555
C6 C4 1_555 1_555
C7 C6 1_555 1_555
C8 C7 1_555 1_555
C9 C8 1_555 1_555
C10 C8 1_555 1_555
C11 C6 1_555 1_555
O3 C11 1_555 1_555
C12 C11 1_555 1_555
C13 C12 1_555 1_555
C14 C1 1_555 1_555
C15 C14 1_555 1_555
H1 O1 1_555 1_555
H2 C1 1_555 1_555
H3 C2 1_555 1_555
H4 C3 1_555 1_555
H5 C5 1_555 1_555
H6 C5 1_555 1_555
H8 C6 1_555 1_555
H9 C7 1_555 1_555
H10 C7 1_555 1_555
H11 C9 1_555 1_555
H12 C9 1_555 1_555
H13 C9 1_555 1_555
H14 C10 1_555 1_555
H15 C10 1_555 1_555
H16 C10 1_555 1_555
H17 O3 1_555 1_555
H18 C12 1_555 1_555
H19 C12 1_555 1_555
H20 C13 1_555 1_555
H21 C13 1_555 1_555
H22 C15 1_555 1_555
H23 C15 1_555 1_555
H24 C15 1_555 1_555
O4 C16 1_555 1_555
C16 C17 1_555 1_555
C17 C18 1_555 1_555
C18 C19 1_555 1_555
C19 C20 1_555 1_555
C20 O5 1_555 1_555
O5 H31 1_555 1_555
C21 C19 1_555 1_555
C22 C21 1_555 1_555
C23 C22 1_555 1_555
C24 C23 1_555 1_555
C25 C23 1_555 1_555
C26 C21 1_555 1_555
O6 C26 1_555 1_555
C27 C26 1_555 1_555
C28 C27 1_555 1_555
C29 C16 1_555 1_555
C30 C29 1_555 1_555
H25 O4 1_555 1_555
H26 C16 1_555 1_555
H27 C17 1_555 1_555
H28 C18 1_555 1_555
H29 C20 1_555 1_555
H30 C20 1_555 1_555
H32 C21 1_555 1_555
H33 C22 1_555 1_555
H34 C22 1_555 1_555
H35 C24 1_555 1_555
H36 C24 1_555 1_555
H37 C24 1_555 1_555
H38 C25 1_555 1_555
H39 C25 1_555 1_555
H40 C25 1_555 1_555
H41 O6 1_555 1_555
H42 C27 1_555 1_555
H43 C27 1_555 1_555
H44 C28 1_555 1_555
H45 C28 1_555 1_555
H46 C30 1_555 1_555
H47 C30 1_555 1_555
H48 C30 1_555 1_555
O7 C31 1_555 1_555
C31 C32 1_555 1_555
C32 C33 1_555 1_555
C33 C34 1_555 1_555
C34 C35 1_555 1_555
C35 O8 1_555 1_555
O8 H55 1_555 1_555
C36 C34 1_555 1_555
C37 C36 1_555 1_555
C38 C37 1_555 1_555
C39 C38 1_555 1_555
C40 C38 1_555 1_555
C41 C36 1_555 1_555
O9 C41 1_555 1_555
C42 C41 1_555 1_555
C43 C42 1_555 1_555
C44 C31 1_555 1_555
C45 C44 1_555 1_555
H49 O7 1_555 1_555
H50 C31 1_555 1_555
H51 C32 1_555 1_555
H52 C33 1_555 1_555
H53 C35 1_555 1_555
H54 C35 1_555 1_555
H56 C36 1_555 1_555
H57 C37 1_555 1_555
H58 C37 1_555 1_555
H59 C39 1_555 1_555
H60 C39 1_555 1_555
H61 C39 1_555 1_555
H62 C40 1_555 1_555
H63 C40 1_555 1_555
H64 C40 1_555 1_555
H65 O9 1_555 1_555
H66 C42 1_555 1_555
H67 C42 1_555 1_555
H68 C43 1_555 1_555
H69 C43 1_555 1_555
H70 C45 1_555 1_555
H71 C45 1_555 1_555
H72 C45 1_555 1_555
C4 C14 1_555 1_555
C8 C11 1_555 1_555
C13 C14 1_555 1_555
C19 C29 1_555 1_555
C23 C26 1_555 1_555
C28 C29 1_555 1_555
C34 C44 1_555 1_555
C38 C41 1_555 1_555
C43 C44 1_555 1_555

#END
