
#######################################################################
#
#                 Cambridge Crystallographic Data Centre
#                                CCDC 
#
#######################################################################
#
# If this CIF has been generated from an entry in the Cambridge 
# Structural Database, then it will include bibliographic, chemical, 
# crystal, experimental, refinement or atomic coordinate data resulting 
# from the CCDC's data processing and validation procedures.
#
#######################################################################

data_FIPLOH
_chemical_formula_moiety         'C2 H8 N8 2+,2(N1 O3 1-)'
_chemical_name_systematic        
"2,2'-(1,2,4,5-Tetrazine-3,6-diyl)dihydrazinium dinitrate"
_symmetry_cell_setting           monoclinic
_symmetry_space_group_name_H-M   'C 2/c'
_symmetry_Int_Tables_number      15
_space_group_name_Hall           '-C 2yn'
loop_
_symmetry_equiv_pos_site_id
_symmetry_equiv_pos_as_xyz
1 x,y,z
2 -x,y,1/2-z
3 1/2+x,1/2+y,z
4 1/2-x,1/2+y,1/2-z
5 -x,-y,-z
6 x,-y,1/2+z
7 1/2-x,1/2-y,-z
8 1/2+x,1/2-y,1/2+z
_cell_length_a                   13.000(6)
_cell_length_b                   8.349(3)
_cell_length_c                   10.187(5)
_cell_angle_alpha                90
_cell_angle_beta                 118.891(5)
_cell_angle_gamma                90
_cell_volume                     968.056
_exptl_crystal_colour            orange
_exptl_crystal_description       Block
_cell_formula_units_Z            4
loop_
_atom_site_label
_atom_site_type_symbol
_atom_site_fract_x
_atom_site_fract_y
_atom_site_fract_z
O1 O 0.85767(10) 0.45581(12) 0.47215(12)
O2 O 0.83014(10) 0.48695(12) 0.66556(12)
O3 O 0.87680(8) 0.25460(11) 0.61647(11)
N1 N 0.85401(10) 0.40156(14) 0.58333(12)
N2 N 0.58971(10) 0.65758(14) 0.21589(13)
N3 N 0.61445(9) 0.65885(13) 0.35781(12)
N4 N 0.55018(10) 0.66926(13) 0.53429(12)
N5 N 0.66564(10) 0.72400(14) 0.63702(13)
C1 C 0.52420(11) 0.66554(15) 0.38684(14)
H1 H 0.4951(15) 0.7091(18) 0.5526(19)
H2 H 0.6689(14) 0.732(2) 0.733(2)
H3 H 0.7181(16) 0.648(2) 0.6380(19)
H4 H 0.6785(15) 0.822(2) 0.615(2)
N2A N 0.41029(10) 0.65758(14) 0.28411(13)
N3A N 0.38555(9) 0.65885(13) 0.14219(12)
N4A N 0.44982(10) 0.66926(13) -0.03429(12)
N5A N 0.33436(10) 0.72400(14) -0.13702(13)
C1A C 0.47580(11) 0.66554(15) 0.11316(14)
H1A H 0.5049(15) 0.7091(18) -0.0526(19)
H2A H 0.3311(14) 0.732(2) -0.233(2)
H3A H 0.2819(16) 0.648(2) -0.1380(19)
H4A H 0.3215(15) 0.822(2) -0.115(2)
loop_
_geom_bond_atom_site_label_1
_geom_bond_atom_site_label_2
_geom_bond_site_symmetry_1
_geom_bond_site_symmetry_2
O1 N1 1_555 1_555
O2 N1 1_555 1_555
O3 N1 1_555 1_555
N2 N3 1_555 1_555
N3 C1 1_555 1_555
N4 N5 1_555 1_555
N5 H2 1_555 1_555
C1 N4 1_555 1_555
H1 N4 1_555 1_555
H3 N5 1_555 1_555
H4 N5 1_555 1_555
N2A C1 1_555 1_555
N3A N2A 1_555 1_555
N4A N5A 1_555 1_555
N5A H2A 1_555 1_555
C1A N2 1_555 1_555
H1A N4A 1_555 1_555
H3A N5A 1_555 1_555
H4A N5A 1_555 1_555
N3A C1A 1_555 1_555
N4A C1A 1_555 1_555

#END
