
#######################################################################
#
#                 Cambridge Crystallographic Data Centre
#                                CCDC 
#
#######################################################################
#
# If this CIF has been generated from an entry in the Cambridge 
# Structural Database, then it will include bibliographic, chemical, 
# crystal, experimental, refinement or atomic coordinate data resulting 
# from the CCDC's data processing and validation procedures.
#
#######################################################################

data_FIPPAX
_chemical_formula_moiety         'C46 H48 N4 O2 S4,2(C1 H1 Cl3)'
_chemical_name_systematic        
'2-(5-(1-Benzothiophen-2-yl)-2-thienyl)-5-(2-(5-(1-benzothiophen-2-yl)-2-thienyl)-1-(2-ethylhexyl)-5-oxo-1,5-dihydro-4H-imidazol-4-ylidene)-3-(2-ethylhexyl)-3,5-dihydro-4H-imidazol-4-one chloroform solvate'
_symmetry_cell_setting           monoclinic
_symmetry_space_group_name_H-M   'P 21/n'
_symmetry_Int_Tables_number      14
_space_group_name_Hall           '-P 2yn'
loop_
_symmetry_equiv_pos_site_id
_symmetry_equiv_pos_as_xyz
1 x,y,z
2 1/2-x,1/2+y,1/2-z
3 -x,-y,-z
4 1/2+x,1/2-y,1/2+z
_cell_length_a                   11.408(2)
_cell_length_b                   19.620(4)
_cell_length_c                   11.720(2)
_cell_angle_alpha                90
_cell_angle_beta                 106.43(3)
_cell_angle_gamma                90
_cell_volume                     2516.11
_exptl_crystal_colour            black
_exptl_crystal_description       block
_cell_formula_units_Z            2
loop_
_atom_site_label
_atom_site_type_symbol
_atom_site_fract_x
_atom_site_fract_y
_atom_site_fract_z
Cl1 Cl -0.47078(17) -0.43840(14) 0.10357(16)
Cl2 Cl -0.29317(19) -0.47466(12) 0.3226(2)
Cl3 Cl -0.3144(2) -0.33720(11) 0.2413(2)
C1 C -0.3940(6) -0.4119(4) 0.2468(6)
H1 H -0.4554 -0.4028 0.2912
S1 S 0.45106(16) 0.16571(10) 0.54936(16)
C2 C 0.5006(8) 0.0743(4) 0.7142(8)
H2 H 0.5034 0.0323 0.7551
S2 S 0.28311(12) 0.05235(8) 0.37192(11)
O1 O -0.0123(4) -0.1382(2) -0.0091(4)
N1 N 0.1027(4) 0.0102(3) 0.1526(4)
N2 N 0.0983(4) -0.1042(3) 0.1796(4)
C3 C 0.5401(4) 0.1866(3) 0.6896(5)
C4 C 0.5889(6) 0.2517(3) 0.7258(7)
H3 H 0.5759 0.2890 0.6720
C5 C 0.6575(5) 0.2588(3) 0.8449(7)
H4 H 0.6887 0.3024 0.8732
C6 C 0.6807(6) 0.2052(4) 0.9208(6)
H5 H 0.7310 0.2118 0.9998
C7 C 0.6339(5) 0.1422(3) 0.8868(5)
H6 H 0.6506 0.1054 0.9418
C8 C 0.5606(4) 0.1321(3) 0.7697(4)
C9 C 0.4365(4) 0.0818(3) 0.5955(4)
C10 C 0.3625(4) 0.0314(3) 0.5162(4)
C11 C 0.3423(5) -0.0345(3) 0.5400(5)
H7 H 0.3771 -0.0552 0.6153
C12 C 0.2645(4) -0.0693(3) 0.4424(5)
H8 H 0.2429 -0.1160 0.4447
C13 C 0.2236(5) -0.0290(3) 0.3442(4)
C14 C 0.1398(5) -0.0413(3) 0.2263(5)
C15 C 0.0319(5) -0.0173(3) 0.0490(5)
C16 C 0.0314(5) -0.0927(3) 0.0614(4)
C17 C 0.1096(5) -0.1705(3) 0.2340(5)
H9 H 0.1957 -0.1784 0.2798
H10 H 0.0860 -0.2059 0.1715
C18 C 0.0267(6) -0.1759(5) 0.3180(7)
H11 H 0.0387 -0.1317 0.3623
C19 C -0.1082(6) -0.1752(5) 0.2438(7)
H12 H -0.1204 -0.1376 0.1852
H13 H -0.1266 -0.2185 0.1989
C20 C -0.1986(9) -0.1663(6) 0.3171(10)
H14 H -0.2818 -0.1745 0.2665
H15 H -0.1927 -0.1198 0.3487
H16 H -0.1793 -0.1989 0.3831
C21 C 0.0731(11) -0.2296(5) 0.4131(9)
H17 H 0.0247 -0.2277 0.4711
H18 H 0.1594 -0.2199 0.4563
C22 C 0.0638(11) -0.3005(5) 0.3594(10)
H19 H 0.1069 -0.3027 0.2972
H20 H -0.0228 -0.3134 0.3238
C23 C 0.1264(11) -0.3492(5) 0.4667(10)
H21 H 0.2160 -0.3425 0.4915
H22 H 0.0948 -0.3398 0.5356
C24 C 0.0944(13) -0.4217(6) 0.4213(13)
H23 H 0.1486 -0.4358 0.3740
H24 H 0.0093 -0.4232 0.3718
H25 H 0.1047 -0.4527 0.4891
S1B S -0.45106(16) -0.16571(10) -0.54936(16)
C2B C -0.5006(8) -0.0743(4) -0.7142(8)
H2B H -0.5034 -0.0323 -0.7551
S2B S -0.28311(12) -0.05235(8) -0.37192(11)
O1B O 0.0123(4) 0.1382(2) 0.0091(4)
N1B N -0.1027(4) -0.0102(3) -0.1526(4)
N2B N -0.0983(4) 0.1042(3) -0.1796(4)
C3B C -0.5401(4) -0.1866(3) -0.6896(5)
C4B C -0.5889(6) -0.2517(3) -0.7258(7)
H3B H -0.5759 -0.2890 -0.6720
C5B C -0.6575(5) -0.2588(3) -0.8449(7)
H4B H -0.6887 -0.3024 -0.8732
C6B C -0.6807(6) -0.2052(4) -0.9208(6)
H5B H -0.7310 -0.2118 -0.9998
C7B C -0.6339(5) -0.1422(3) -0.8868(5)
H6B H -0.6506 -0.1054 -0.9418
C8B C -0.5606(4) -0.1321(3) -0.7697(4)
C9B C -0.4365(4) -0.0818(3) -0.5955(4)
C10B C -0.3625(4) -0.0314(3) -0.5162(4)
C11B C -0.3423(5) 0.0345(3) -0.5400(5)
H7B H -0.3771 0.0552 -0.6153
C12B C -0.2645(4) 0.0693(3) -0.4424(5)
H8B H -0.2429 0.1160 -0.4447
C13B C -0.2236(5) 0.0290(3) -0.3442(4)
C14B C -0.1398(5) 0.0413(3) -0.2263(5)
C15B C -0.0319(5) 0.0173(3) -0.0490(5)
C16B C -0.0314(5) 0.0927(3) -0.0614(4)
C17B C -0.1096(5) 0.1705(3) -0.2340(5)
H9B H -0.1957 0.1784 -0.2798
H10B H -0.0860 0.2059 -0.1715
C18B C -0.0267(6) 0.1759(5) -0.3180(7)
H11B H -0.0387 0.1317 -0.3623
C19B C 0.1082(6) 0.1752(5) -0.2438(7)
H12B H 0.1204 0.1376 -0.1852
H13B H 0.1266 0.2185 -0.1989
C20B C 0.1986(9) 0.1663(6) -0.3171(10)
H14B H 0.2818 0.1745 -0.2665
H15B H 0.1927 0.1198 -0.3487
H16B H 0.1793 0.1989 -0.3831
C21B C -0.0731(11) 0.2296(5) -0.4131(9)
H17B H -0.0247 0.2277 -0.4711
H18B H -0.1594 0.2199 -0.4563
C22B C -0.0638(11) 0.3005(5) -0.3594(10)
H19B H -0.1069 0.3027 -0.2972
H20B H 0.0228 0.3134 -0.3238
C23B C -0.1264(11) 0.3492(5) -0.4667(10)
H21B H -0.2160 0.3425 -0.4915
H22B H -0.0948 0.3398 -0.5356
C24B C -0.0944(13) 0.4217(6) -0.4213(13)
H23B H -0.1486 0.4358 -0.3740
H24B H -0.0093 0.4232 -0.3718
H25B H -0.1047 0.4527 -0.4891
S3? S 0.4970(12) 0.0529(6) 0.7445(10)
C25? C 0.464(4) 0.1507(11) 0.591(3)
H26? H 0.4305 0.1748 0.5193
C26? C -0.0044(15) -0.2006(9) 0.261(2)
H27? H -0.0742 -0.2079 0.1884
C27? C -0.0354(18) -0.1515(12) 0.351(2)
H28? H -0.0134 -0.1046 0.3335
H29? H 0.0145 -0.1635 0.4318
C28? C -0.1716(18) -0.1533(18) 0.346(3)
H30? H -0.2208 -0.1353 0.2697
H31? H -0.1845 -0.1254 0.4110
H32? H -0.1960 -0.2005 0.3553
C29? C 0.025(2) -0.2639(13) 0.342(3)
H33? H -0.0406 -0.2954 0.3100
H34? H 0.0104 -0.2467 0.4140
C30? C 0.140(2) -0.3037(12) 0.407(3)
H35? H 0.1782 -0.3013 0.4913
H36? H 0.1996 -0.2971 0.3638
C31? C 0.064(3) -0.3700(13) 0.366(3)
H37? H 0.0590 -0.3857 0.2876
H38? H -0.0159 -0.3665 0.3784
C32? C 0.155(3) -0.4083(18) 0.467(3)
H39? H 0.1311 -0.4550 0.4689
H40? H 0.2341 -0.4062 0.4528
H41? H 0.1601 -0.3873 0.5424
loop_
_geom_bond_atom_site_label_1
_geom_bond_atom_site_label_2
_geom_bond_site_symmetry_1
_geom_bond_site_symmetry_2
Cl1 C1 1_555 1_555
Cl2 C1 1_555 1_555
Cl3 C1 1_555 1_555
C1 H1 1_555 1_555
S1 C3 1_555 1_555
C2 H2 1_555 1_555
S2 C10 1_555 1_555
O1 C16 1_555 1_555
N1 C14 1_555 1_555
N2 C14 1_555 1_555
C3 C4 1_555 1_555
C4 H3 1_555 1_555
C5 C4 1_555 1_555
H4 C5 1_555 1_555
C6 C5 1_555 1_555
H5 C6 1_555 1_555
C7 C6 1_555 1_555
H6 C7 1_555 1_555
C8 C2 1_555 1_555
C9 S1 1_555 1_555
C10 C9 1_555 1_555
C11 C10 1_555 1_555
H7 C11 1_555 1_555
C12 C11 1_555 1_555
H8 C12 1_555 1_555
C13 S2 1_555 1_555
C14 C13 1_555 1_555
C15 N1 1_555 1_555
C16 N2 1_555 1_555
C17 N2 1_555 1_555
H9 C17 1_555 1_555
H10 C17 1_555 1_555
C18 C17 1_555 1_555
H11 C18 1_555 1_555
C19 C18 1_555 1_555
H12 C19 1_555 1_555
H13 C19 1_555 1_555
C20 C19 1_555 1_555
H14 C20 1_555 1_555
H15 C20 1_555 1_555
H16 C20 1_555 1_555
C21 C18 1_555 1_555
H17 C21 1_555 1_555
H18 C21 1_555 1_555
C22 C21 1_555 1_555
H19 C22 1_555 1_555
H20 C22 1_555 1_555
C23 C22 1_555 1_555
H21 C23 1_555 1_555
H22 C23 1_555 1_555
C24 C23 1_555 1_555
H23 C24 1_555 1_555
H24 C24 1_555 1_555
H25 C24 1_555 1_555
S1B C3B 1_555 1_555
C2B H2B 1_555 1_555
S2B C10B 1_555 1_555
O1B C16B 1_555 1_555
N1B C14B 1_555 1_555
N2B C14B 1_555 1_555
C3B C4B 1_555 1_555
C4B H3B 1_555 1_555
C5B C4B 1_555 1_555
H4B C5B 1_555 1_555
C6B C5B 1_555 1_555
H5B C6B 1_555 1_555
C7B C6B 1_555 1_555
H6B C7B 1_555 1_555
C8B C2B 1_555 1_555
C9B S1B 1_555 1_555
C10B C9B 1_555 1_555
C11B C10B 1_555 1_555
H7B C11B 1_555 1_555
C12B C11B 1_555 1_555
H8B C12B 1_555 1_555
C13B S2B 1_555 1_555
C14B C13B 1_555 1_555
C15B C15 1_555 1_555
C16B N2B 1_555 1_555
C17B N2B 1_555 1_555
H9B C17B 1_555 1_555
H10B C17B 1_555 1_555
C18B C17B 1_555 1_555
H11B C18B 1_555 1_555
C19B C18B 1_555 1_555
H12B C19B 1_555 1_555
H13B C19B 1_555 1_555
C20B C19B 1_555 1_555
H14B C20B 1_555 1_555
H15B C20B 1_555 1_555
H16B C20B 1_555 1_555
C21B C18B 1_555 1_555
H17B C21B 1_555 1_555
H18B C21B 1_555 1_555
C22B C21B 1_555 1_555
H19B C22B 1_555 1_555
H20B C22B 1_555 1_555
C23B C22B 1_555 1_555
H21B C23B 1_555 1_555
H22B C23B 1_555 1_555
C24B C23B 1_555 1_555
H23B C24B 1_555 1_555
H24B C24B 1_555 1_555
H25B C24B 1_555 1_555
C2 C9 1_555 1_555
C3 C8 1_555 1_555
C7 C8 1_555 1_555
C12 C13 1_555 1_555
C15 C16 1_555 1_555
C2B C9B 1_555 1_555
N1B C15B 1_555 1_555
C3B C8B 1_555 1_555
C7B C8B 1_555 1_555
C12B C13B 1_555 1_555
C15B C16B 1_555 1_555

#END
