
#######################################################################
#
#                 Cambridge Crystallographic Data Centre
#                                CCDC 
#
#######################################################################
#
# If this CIF has been generated from an entry in the Cambridge 
# Structural Database, then it will include bibliographic, chemical, 
# crystal, experimental, refinement or atomic coordinate data resulting 
# from the CCDC's data processing and validation procedures.
#
#######################################################################

data_FIQSEG
_chemical_formula_moiety         'C12 H10 S4'
_chemical_name_systematic        
2,6-bis(methylsulfanyl)benzo[1,2-b:4,5-b']dithiophene
_symmetry_cell_setting           monoclinic
_symmetry_space_group_name_H-M   'P 21/c'
_symmetry_Int_Tables_number      14
_space_group_name_Hall           '-P 2ybc'
loop_
_symmetry_equiv_pos_site_id
_symmetry_equiv_pos_as_xyz
1 x,y,z
2 -x,1/2+y,1/2-z
3 -x,-y,-z
4 x,1/2-y,1/2+z
_cell_length_a                   9.6642(3)
_cell_length_b                   5.65404(18)
_cell_length_c                   11.1188(4)
_cell_angle_alpha                90
_cell_angle_beta                 91.6704(19)
_cell_angle_gamma                90
_cell_volume                     607.293
_exptl_crystal_colour            colorless
_exptl_crystal_description       platelet
_cell_formula_units_Z            2
loop_
_atom_site_label
_atom_site_type_symbol
_atom_site_fract_x
_atom_site_fract_y
_atom_site_fract_z
S1 S 0.74202(6) 0.26453(9) 0.37780(5)
S2 S 0.60362(6) 0.49959(10) 0.16800(5)
C1 C 0.7392(2) 0.5001(3) 0.27521(19)
C2 C 1.0464(2) 0.7135(4) 0.4461(2)
H1 H 1.0783 0.8557 0.4108
C3 C 0.9320(2) 0.5926(4) 0.39689(17)
C4 C 0.8447(2) 0.6564(4) 0.29477(18)
H2 H 0.8591 0.7924 0.2465
C5 C 0.88827(19) 0.3797(4) 0.45247(18)
C6 C 0.6407(3) 0.7635(4) 0.0855(2)
H3 H 0.5707 0.7849 0.0209
H4 H 0.6394 0.8999 0.1398
H5 H 0.7324 0.7499 0.0507
S1B S 1.25798(6) 0.73547(9) 0.62220(5)
S2B S 1.39638(6) 0.50041(10) 0.83200(5)
C1B C 1.2608(2) 0.4999(3) 0.72479(19)
C2B C 0.9536(2) 0.2865(4) 0.5539(2)
H1B H 0.9217 0.1443 0.5892
C3B C 1.0680(2) 0.4074(4) 0.60311(17)
C4B C 1.1553(2) 0.3436(4) 0.70523(18)
H2B H 1.1409 0.2076 0.7535
C5B C 1.11173(19) 0.6203(4) 0.54753(18)
C6B C 1.3593(3) 0.2365(4) 0.9145(2)
H3B H 1.4293 0.2151 0.9791
H4B H 1.3606 0.1001 0.8602
H5B H 1.2676 0.2501 0.9493
loop_
_geom_bond_atom_site_label_1
_geom_bond_atom_site_label_2
_geom_bond_site_symmetry_1
_geom_bond_site_symmetry_2
S1 C1 1_555 1_555
S2 C1 1_555 1_555
C1 C4 1_555 1_555
C2 H1 1_555 1_555
C3 C2 1_555 1_555
C4 C3 1_555 1_555
H2 C4 1_555 1_555
C5 S1 1_555 1_555
C6 S2 1_555 1_555
H3 C6 1_555 1_555
H4 C6 1_555 1_555
H5 C6 1_555 1_555
S1B C1B 1_555 1_555
S2B C1B 1_555 1_555
C1B C4B 1_555 1_555
C2B C5 1_555 1_555
H1B C2B 1_555 1_555
C3B C2B 1_555 1_555
C4B C3B 1_555 1_555
H2B C4B 1_555 1_555
C5B C2 1_555 1_555
C6B S2B 1_555 1_555
H3B C6B 1_555 1_555
H4B C6B 1_555 1_555
H5B C6B 1_555 1_555
C3 C5 1_555 1_555
S1B C5B 1_555 1_555
C3B C5B 1_555 1_555

#END
