
#######################################################################
#
#                 Cambridge Crystallographic Data Centre
#                                CCDC 
#
#######################################################################
#
# If this CIF has been generated from an entry in the Cambridge 
# Structural Database, then it will include bibliographic, chemical, 
# crystal, experimental, refinement or atomic coordinate data resulting 
# from the CCDC's data processing and validation procedures.
#
#######################################################################

data_FISHEU
_chemical_formula_moiety         'C16 H24 O5'
_chemical_name_systematic        
Tetrahydropyran(3,2-b)tetrahydropyran-2-spiro-2'-(tetrahydropyran-(2,3-f)oxepan-3-one)
_symmetry_cell_setting           monoclinic
_symmetry_space_group_name_H-M   'P 21'
_symmetry_Int_Tables_number      4
_space_group_name_Hall           'P 2yb'
loop_
_symmetry_equiv_pos_site_id
_symmetry_equiv_pos_as_xyz
1 x,y,z
2 -x,1/2+y,-z
_cell_length_a                   10.051(3)
_cell_length_b                   7.190(1)
_cell_length_c                   10.695(1)
_cell_angle_alpha                90
_cell_angle_beta                 99.47(1)
_cell_angle_gamma                90
_cell_volume                     762.359
_exptl_crystal_colour            colorless
_chemical_melting_point          104-105deg.C
_cell_formula_units_Z            2
loop_
_atom_site_label
_atom_site_type_symbol
_atom_site_fract_x
_atom_site_fract_y
_atom_site_fract_z
C1 C 0.8355(7) 0.2090 -0.1541(6)
C2 C 0.9032(6) 0.3760(12) -0.0879(5)
C3 C 0.8047(5) 0.4705(11) -0.0141(5)
C4 C 0.7572(5) 0.3330(8) 0.0725(4)
C5 C 0.7003(5) 0.1575(10) 0.0058(4)
C6 C 0.6726(7) 0.0026(10) 0.0914(6)
C7 C 0.5890(5) 0.0615(9) 0.1919(5)
C8 C 0.6701(5) 0.1884(8) 0.2892(5)
C9 C 0.6596(4) 0.3986(8) 0.2589(4)
C10 C 0.5329(5) 0.4782(9) 0.2984(4)
C11 C 0.5476(5) 0.5034(9) 0.4419(5)
C12 C 0.6696(5) 0.6245(8) 0.4825(4)
C13 C 0.7951(4) 0.5340(8) 0.4496(4)
C14 C 0.9136(5) 0.6639(8) 0.4832(5)
C15 C 0.9306(5) 0.7068(9) 0.6209(5)
C16 C 0.7979(5) 0.7747(9) 0.6596(4)
O1 O 0.6895(3) 0.6465(6) 0.6178(3)
O2 O 0.6501(3) 0.4201(6) 0.1283(3)
O3 O 0.7787(3) 0.4984(5) 0.3128(3)
O4 O 0.7958(4) 0.0807(8) -0.0684(3)
O5 O 0.7367(4) 0.1289(6) 0.3862(3)
loop_
_geom_bond_atom_site_label_1
_geom_bond_atom_site_label_2
_geom_bond_site_symmetry_1
_geom_bond_site_symmetry_2
C1 C2 1_555 1_555
C2 C3 1_555 1_555
C3 C4 1_555 1_555
C4 C5 1_555 1_555
C5 C6 1_555 1_555
C6 C7 1_555 1_555
C7 C8 1_555 1_555
C8 C9 1_555 1_555
C9 C10 1_555 1_555
C10 C11 1_555 1_555
C11 C12 1_555 1_555
C12 C13 1_555 1_555
C13 C14 1_555 1_555
C14 C15 1_555 1_555
C15 C16 1_555 1_555
C16 O1 1_555 1_555
O1 C12 1_555 1_555
O2 C4 1_555 1_555
O3 C9 1_555 1_555
O4 C1 1_555 1_555
O5 C8 1_555 1_555
C5 O4 1_555 1_555
C9 O2 1_555 1_555
C13 O3 1_555 1_555

#END
