
#######################################################################
#
#                 Cambridge Crystallographic Data Centre
#                                CCDC 
#
#######################################################################
#
# If this CIF has been generated from an entry in the Cambridge 
# Structural Database, then it will include bibliographic, chemical, 
# crystal, experimental, refinement or atomic coordinate data resulting 
# from the CCDC's data processing and validation procedures.
#
#######################################################################

data_FITBER
_chemical_formula_moiety         'C53 H61 N5 Si2,H2 O1'
_chemical_name_systematic        
'4-(4,11-bis((triisopropylsilyl)ethynyl)-1H-imidazo[4,5-b]phenazin-2-yl)-N,N-diphenylaniline monohydrate'
_symmetry_cell_setting           triclinic
_symmetry_space_group_name_H-M   'P -1'
_symmetry_Int_Tables_number      2
_space_group_name_Hall           '-P 1'
loop_
_symmetry_equiv_pos_site_id
_symmetry_equiv_pos_as_xyz
1 x,y,z
2 -x,-y,-z
_cell_length_a                   16.2246(8)
_cell_length_b                   18.3824(8)
_cell_length_c                   19.0006(9)
_cell_angle_alpha                65.031(4)
_cell_angle_beta                 85.550(4)
_cell_angle_gamma                87.965(4)
_cell_volume                     5121.72
_exptl_crystal_colour            red
_exptl_crystal_description       plate
_cell_formula_units_Z            4
loop_
_atom_site_label
_atom_site_type_symbol
_atom_site_fract_x
_atom_site_fract_y
_atom_site_fract_z
Si1 Si 0.6113(2) 0.30056(17) 0.1047(2)
Si2 Si 0.6194(3) -0.38749(18) 0.2636(2)
C1 C 0.6311(15) 0.4641(8) 0.0026(12)
C2 C 0.4865(13) 0.3639(11) 0.1807(13)
C3 C 0.6674(17) 0.3623(10) -0.0577(10)
C4 C 0.5946(13) 0.2564(10) -0.5318(11)
C5 C 0.4332(10) 0.2879(11) 0.1071(11)
C6 C 0.7042(18) -0.4072(18) 0.1857(17)
C7 C 0.5336(11) 0.2441(10) -0.4717(11)
C8 C 0.6127(13) -0.3861(13) 0.4129(12)
C9 C 0.7789(10) 0.3074(12) 0.1294(12)
C10 C 0.6753(13) 0.2415(12) 0.2517(8)
C11 C 0.6527(17) -0.3854(17) 0.1169(16)
C12 C 0.6163(11) 0.3813(11) 0.0017(11)
C13 C 0.6669(13) -0.4198(13) 0.3673(13)
C14 C 0.5017(9) 0.2950(9) 0.1546(10)
C15 C 0.6390(9) -0.1643(8) -0.3284(7)
C16 C 0.6552(11) 0.1982(10) -0.5247(8)
C17 C 0.5318(8) 0.1706(9) -0.4045(8)
C18 C 0.6545(7) 0.1237(8) -0.4566(6)
C19 C 0.5767(10) -0.1730(9) -0.3720(7)
C20 C 0.6900(10) 0.3070(7) 0.1687(8)
C21 C 0.5189(9) -0.1091(9) -0.4032(8)
C22 C 0.5240(7) -0.0381(8) -0.3910(6)
C23 C 0.6192(8) -0.2775(6) 0.2210(7)
C24 C 0.6443(7) -0.0954(7) -0.3149(6)
C25 C 0.5921(6) 0.1109(7) -0.3974(6)
C26 C 0.7215(7) -0.1417(7) 0.4853(6)
C27 C 0.7123(6) -0.0575(8) 0.4662(6)
C28 C 0.5692(6) -0.0529(6) -0.1157(5)
C29 C 0.5849(6) -0.0328(6) -0.3465(5)
C30 C 0.6940(6) -0.0020(7) 0.3930(6)
C31 C 0.5648(6) -0.0421(6) -0.1957(6)
C32 C 0.7078(7) -0.1701(7) 0.4310(5)
C33 C 0.6099(6) 0.0936(6) -0.2406(6)
C34 C 0.5883(6) 0.0291(7) -0.2544(5)
C35 C 0.6131(6) 0.0842(6) -0.1618(5)
C36 C 0.6268(6) 0.2019(5) 0.1027(6)
C37 C 0.5919(5) 0.0116(6) -0.1024(5)
C38 C 0.6232(7) -0.2073(6) 0.2010(6)
C39 C 0.6857(5) -0.1157(6) 0.3553(5)
C40 C 0.6817(5) -0.0323(6) 0.3363(5)
C41 C 0.6338(6) 0.1319(6) 0.1152(5)
C42 C 0.6510(5) -0.0926(5) 0.2323(5)
C43 C 0.6305(5) -0.1221(5) 0.1774(5)
C44 C 0.6517(5) -0.0067(5) 0.2109(5)
C45 C 0.6243(5) 0.0193(5) 0.0807(5)
C46 C 0.6377(5) 0.0497(5) 0.1326(5)
C47 C 0.6177(5) -0.0657(5) 0.1041(5)
C48 C 0.6005(6) 0.0015(6) -0.0227(5)
N1 N 0.5999(4) -0.0762(4) 0.0379(4)
N2 N 0.6140(4) 0.0576(4) 0.0010(4)
N3 N 0.6680(5) -0.1450(4) 0.3041(4)
N4 N 0.6650(4) 0.0225(4) 0.2631(4)
N5 N 0.5888(5) 0.0365(5) -0.3318(4)
C49 C 0.7555(15) -0.3880(15) 0.3439(15)
C50 C 0.695(3) -0.497(2) 0.231(2)
C51 C 0.502(3) -0.431(3) 0.235(2)
C52 C 0.504(2) -0.505(2) 0.313(2)
C53 C 0.439(2) -0.377(2) 0.2497(19)
Si3 Si 0.8683(3) 0.30428(19) -0.3830(2)
Si4 Si 0.8966(3) -0.38234(19) -0.2322(3)
C55 C 0.7353(16) -0.4012(14) -0.2605(19)
C56 C 1.0282(16) -0.4903(11) -0.244(2)
C57 C 1.0747(12) -0.3584(14) -0.2503(16)
C58 C 0.8600(15) -0.4180(15) -0.1270(14)
C59 C 0.8461(17) -0.3845(13) -0.3753(15)
C60 C 0.9065(12) 0.2598(10) -1.0236(8)
C61 C 1.0079(11) -0.4012(9) -0.2674(15)
C62 C 0.9684(10) 0.2506(9) -0.9735(10)
C63 C 0.8252(13) -0.4182(10) -0.2852(16)
C64 C 0.8482(10) 0.1995(10) -1.0056(8)
C65 C 0.8650(9) -0.1605(8) -0.8052(7)
C66 C 0.9261(10) -0.1698(9) -0.8590(8)
C67 C 0.9852(8) -0.1053(9) -0.9012(8)
C68 C 0.9752(8) 0.1784(8) -0.9044(8)
C69 C 0.9818(7) -0.0359(8) -0.8902(6)
C70 C 0.8864(8) -0.2741(6) -0.2694(7)
C71 C 0.8635(7) -0.0888(7) -0.7956(6)
C72 C 0.8522(7) 0.1250(8) -0.9391(7)
C73 C 0.7946(6) -0.0579(8) -0.0055(6)
C74 C 0.7974(7) -0.1699(7) -0.0427(5)
C75 C 0.9157(7) 0.1171(7) -0.8885(6)
C76 C 0.7864(7) -0.1411(7) 0.0128(6)
C77 C 0.9454(6) -0.0358(6) -0.6875(6)
C78 C 0.8551(7) 0.2051(6) -0.3823(6)
C79 C 0.8946(6) 0.0997(6) -0.7296(6)
C80 C 0.9230(6) -0.0272(6) -0.8372(6)
C81 C 0.8061(6) -0.0011(7) -0.0820(6)
C82 C 0.9197(6) 0.0358(6) -0.7461(5)
C83 C 0.8896(6) 0.0905(6) -0.6509(6)
C84 C 0.9387(6) -0.0454(6) -0.6112(6)
C85 C 0.8755(7) -0.2026(6) -0.2878(6)
C86 C 0.8135(6) -0.1144(6) -0.1219(5)
C87 C 0.9097(5) 0.0178(6) -0.5925(5)
C88 C 0.8509(6) 0.1357(6) -0.3690(5)
C89 C 0.8443(5) -0.0890(5) -0.2504(5)
C90 C 0.8159(5) -0.0305(6) -0.1422(5)
C91 C 0.8969(5) 0.0055(6) -0.5136(5)
C92 C 0.8671(5) 0.0217(5) -0.4066(5)
C93 C 0.8402(5) -0.0044(5) -0.2720(5)
C94 C 0.8521(5) 0.0512(5) -0.3505(5)
C95 C 0.8656(5) -0.1192(5) -0.3084(5)
C96 C 0.8765(5) -0.0627(5) -0.3838(5)
N6 N 0.9206(5) 0.0414(5) -0.8224(5)
N7 N 0.8287(5) -0.1440(4) -0.1769(4)
N8 N 0.8277(4) 0.0232(4) -0.2162(4)
N9 N 0.8980(4) -0.0717(4) -0.4517(4)
N10 N 0.8792(4) 0.0608(4) -0.4857(4)
C97 C 0.8018(18) 0.3778(16) -0.4641(15)
C98 C 0.8391(18) 0.3727(17) -0.5409(16)
C99 C 0.8862(16) -0.3818(15) -0.0784(15)
C100 C 0.8958(18) -0.5049(16) -0.0848(17)
C101 C 0.7155(18) 0.3524(18) -0.421(3)
C102 C 0.987(3) 0.349(3) -0.422(2)
C103 C 1.0469(19) 0.2802(17) -0.4118(17)
C104 C 0.9965(19) 0.3626(19) -0.3460(18)
C105 C 0.786(3) 0.305(2) -0.290(2)
C106 C 0.831(3) 0.3738(16) -0.287(3)
C107 C 0.8099(16) 0.2272(14) -0.2237(15)
O1 O 0.5181(5) 0.2070(4) -0.0636(5)
O2 O 1.0123(6) -0.2001(4) -0.4457(5)
C54? C 0.5076(12) -0.4185(19) 0.2984(18)
C108? C 0.9820(12) 0.285(2) -0.353(2)
C109? C 0.869(2) 0.293(2) -0.2764(12)
loop_
_geom_bond_atom_site_label_1
_geom_bond_atom_site_label_2
_geom_bond_site_symmetry_1
_geom_bond_site_symmetry_2
Si1 C12 1_555 1_555
Si2 C6 1_555 1_555
C1 C12 1_555 1_555
C2 C14 1_555 1_555
C3 C12 1_555 1_555
C4 C7 1_555 1_555
C5 C14 1_555 1_555
C6 C11 1_555 1_555
C7 C17 1_555 1_555
C8 C13 1_555 1_555
C9 C20 1_555 1_555
C10 C20 1_555 1_555
C13 Si2 1_555 1_555
C14 Si1 1_555 1_555
C15 C19 1_555 1_555
C16 C4 1_555 1_555
C17 C25 1_555 1_555
C18 C16 1_555 1_555
C19 C21 1_555 1_555
C20 Si1 1_555 1_555
C21 C22 1_555 1_555
C22 C29 1_555 1_555
C23 Si2 1_555 1_555
C24 C15 1_555 1_555
C25 C18 1_555 1_555
C26 C27 1_555 1_555
C27 C30 1_555 1_555
C28 C31 1_555 1_555
C29 C24 1_555 1_555
C30 C40 1_555 1_555
C31 C34 1_555 1_555
C32 C26 1_555 1_555
C33 C34 1_555 1_555
C34 N5 1_555 1_555
C35 C33 1_555 1_555
C36 Si1 1_555 1_555
C37 C28 1_555 1_555
C38 C23 1_555 1_555
C39 C32 1_555 1_555
C40 C39 1_555 1_555
C41 C36 1_555 1_555
C42 C43 1_555 1_555
C43 C38 1_555 1_555
C44 C42 1_555 1_555
C45 C46 1_555 1_555
C46 C41 1_555 1_555
C47 C43 1_555 1_555
C48 C37 1_555 1_555
N1 C47 1_555 1_555
N2 C45 1_555 1_555
N3 C39 1_555 1_555
N4 C40 1_555 1_555
N5 C25 1_555 1_555
C49 C13 1_555 1_555
C50 C6 1_555 1_555
C51 Si2 1_555 1_555
C52 C51 1_555 1_555
C53 C51 1_555 1_555
Si3 C78 1_555 1_555
Si4 C58 1_555 1_555
C55 C63 1_555 1_555
C56 C61 1_555 1_555
C57 C61 1_555 1_555
C58 C99 1_555 1_555
C59 C63 1_555 1_555
C60 C62 1_555 1_555
C61 Si4 1_555 1_555
C62 C68 1_555 1_555
C63 Si4 1_555 1_555
C64 C60 1_555 1_555
C65 C66 1_555 1_555
C66 C67 1_555 1_555
C67 C69 1_555 1_555
C68 C75 1_555 1_555
C69 C80 1_555 1_555
C70 Si4 1_555 1_555
C71 C65 1_555 1_555
C72 C64 1_555 1_555
C73 C76 1_555 1_555
C74 C76 1_555 1_555
C75 C72 1_555 1_555
C77 C82 1_555 1_555
C78 C88 1_555 1_555
C79 C82 1_555 1_555
C80 C71 1_555 1_555
C81 C73 1_555 1_555
C82 N6 1_555 1_555
C83 C79 1_555 1_555
C84 C77 1_555 1_555
C85 C70 1_555 1_555
C86 C74 1_555 1_555
C87 C83 1_555 1_555
C88 C94 1_555 1_555
C89 C93 1_555 1_555
C90 C81 1_555 1_555
C91 C87 1_555 1_555
C92 C94 1_555 1_555
C93 C94 1_555 1_555
C95 C85 1_555 1_555
C96 C92 1_555 1_555
N6 C75 1_555 1_555
N7 C86 1_555 1_555
N8 C90 1_555 1_555
N9 C91 1_555 1_555
N10 C91 1_555 1_555
C97 Si3 1_555 1_555
C98 C97 1_555 1_555
C100 C58 1_555 1_555
C101 C97 1_555 1_555
C102 Si3 1_555 1_555
C103 C102 1_555 1_555
C104 C102 1_555 1_555
C105 Si3 1_555 1_555
C106 C105 1_555 1_555
C107 C105 1_555 1_555
C29 N5 1_555 1_555
C35 C37 1_555 1_555
C42 N3 1_555 1_555
C44 C46 1_555 1_555
C44 N4 1_555 1_555
C45 C47 1_555 1_555
C48 N1 1_555 1_555
C48 N2 1_555 1_555
C80 N6 1_555 1_555
C84 C87 1_555 1_555
C86 C90 1_555 1_555
C89 C95 1_555 1_555
C89 N7 1_555 1_555
C92 N10 1_555 1_555
C93 N8 1_555 1_555
C95 C96 1_555 1_555
C96 N9 1_555 1_555

#END
