
#######################################################################
#
#                 Cambridge Crystallographic Data Centre
#                                CCDC 
#
#######################################################################
#
# If this CIF has been generated from an entry in the Cambridge 
# Structural Database, then it will include bibliographic, chemical, 
# crystal, experimental, refinement or atomic coordinate data resulting 
# from the CCDC's data processing and validation procedures.
#
#######################################################################

data_FITSIM
_chemical_formula_moiety         'C16 H16 Cl2 N4 O7'
_chemical_name_systematic        
2-(Acetoxymethyl)-5-(2,6-dichloro-9H-purin-9-yl)-tetrahydrofuran-3,4-diyl-diacetate
_symmetry_cell_setting           monoclinic
_symmetry_space_group_name_H-M   'P 21'
_symmetry_Int_Tables_number      4
_space_group_name_Hall           'P 2yb'
loop_
_symmetry_equiv_pos_site_id
_symmetry_equiv_pos_as_xyz
1 x,y,z
2 -x,1/2+y,-z
_cell_length_a                   10.1324(2)
_cell_length_b                   9.6887(3)
_cell_length_c                   10.5399(2)
_cell_angle_alpha                90
_cell_angle_beta                 106.537(2)
_cell_angle_gamma                90
_cell_volume                     991.901
_exptl_crystal_colour            colorless
_exptl_crystal_description       prism
_cell_formula_units_Z            2
loop_
_atom_site_label
_atom_site_type_symbol
_atom_site_fract_x
_atom_site_fract_y
_atom_site_fract_z
N1 N 1.0850(3) 0.1139(3) 0.4785(3)
C1 C 0.9650(4) 0.1787(4) 0.4602(3)
N2 N 0.9178(3) 0.2553(3) 0.5399(2)
C2 C 1.0170(3) 0.2704(3) 0.6574(3)
C3 C 1.1477(3) 0.2135(4) 0.6915(3)
C4 C 1.1761(4) 0.1309(4) 0.5952(3)
N3 N 1.2211(3) 0.2508(3) 0.8196(3)
C5 C 1.1331(3) 0.3266(4) 0.8596(3)
H1 H 1.1540 0.3671 0.9430
N4 N 1.0071(2) 0.3404(3) 0.7669(2)
Cl1 Cl 1.32958(12) 0.04548(15) 0.62312(11)
Cl2 Cl 0.85038(11) 0.15549(12) 0.30379(9)
C6 C 0.8877(3) 0.4205(4) 0.7769(3)
H2 H 0.8574 0.4827 0.7008
C7 C 0.7695(3) 0.3282(4) 0.7845(3)
H3 H 0.7642 0.2421 0.7344
C8 C 0.8034(3) 0.3062(3) 0.9343(3)
H4 H 0.8772 0.2380 0.9639
C9 C 0.8537(3) 0.4472(3) 0.9862(3)
H5 H 0.7733 0.5063 0.9786
C10 C 0.9455(3) 0.4570(4) 1.1251(3)
H6 H 0.9788 0.5509 1.1437
H7 H 0.8946 0.4325 1.1870
O1 O 0.9264(2) 0.4982(2) 0.89486(18)
O2 O 0.6460(2) 0.4081(2) 0.74576(19)
C11 C 0.5479(3) 0.3728(4) 0.6337(3)
C12 C 0.4297(4) 0.4704(5) 0.6096(4)
H8 H 0.4616 0.5627 0.6031
H9 H 0.3895 0.4651 0.6816
H10 H 0.3620 0.4462 0.5285
O3 O 0.5636(3) 0.2809(4) 0.5649(3)
O4 O 0.6883(2) 0.2701(2) 0.9804(2)
C13 C 0.6474(4) 0.1370(4) 0.9636(3)
C14 C 0.5286(4) 0.1098(5) 1.0189(5)
H11 H 0.5188 0.0122 1.0288
H12 H 0.4456 0.1462 0.9597
H13 H 0.5455 0.1538 1.1037
O5 O 0.7012(3) 0.0544(3) 0.9110(3)
O6 O 1.0599(2) 0.3644(2) 1.13994(18)
C15 C 1.1551(3) 0.3677(4) 1.2595(3)
C16 C 1.2746(4) 0.2794(4) 1.2628(3)
H14 H 1.3570 0.3342 1.2865
H15 H 1.2630 0.2393 1.1770
H16 H 1.2816 0.2075 1.3270
O7 O 1.1385(3) 0.4370(4) 1.3478(2)
loop_
_geom_bond_atom_site_label_1
_geom_bond_atom_site_label_2
_geom_bond_site_symmetry_1
_geom_bond_site_symmetry_2
N1 C1 1_555 1_555
C1 N2 1_555 1_555
N2 C2 1_555 1_555
C2 C3 1_555 1_555
C3 C4 1_555 1_555
C4 N1 1_555 1_555
N3 C3 1_555 1_555
C5 N3 1_555 1_555
H1 C5 1_555 1_555
N4 C2 1_555 1_555
Cl1 C4 1_555 1_555
Cl2 C1 1_555 1_555
C6 N4 1_555 1_555
H2 C6 1_555 1_555
C7 C6 1_555 1_555
H3 C7 1_555 1_555
C8 C7 1_555 1_555
H4 C8 1_555 1_555
C9 C8 1_555 1_555
H5 C9 1_555 1_555
C10 C9 1_555 1_555
H6 C10 1_555 1_555
H7 C10 1_555 1_555
O1 C6 1_555 1_555
O2 C7 1_555 1_555
C11 O2 1_555 1_555
C12 C11 1_555 1_555
H8 C12 1_555 1_555
H9 C12 1_555 1_555
H10 C12 1_555 1_555
O3 C11 1_555 1_555
O4 C8 1_555 1_555
C13 O4 1_555 1_555
C14 C13 1_555 1_555
H11 C14 1_555 1_555
H12 C14 1_555 1_555
H13 C14 1_555 1_555
O5 C13 1_555 1_555
O6 C10 1_555 1_555
C15 O6 1_555 1_555
C16 C15 1_555 1_555
H14 C16 1_555 1_555
H15 C16 1_555 1_555
H16 C16 1_555 1_555
O7 C15 1_555 1_555
C5 N4 1_555 1_555
C9 O1 1_555 1_555

#END
