
#######################################################################
#
#                 Cambridge Crystallographic Data Centre
#                                CCDC 
#
#######################################################################
#
# If this CIF has been generated from an entry in the Cambridge 
# Structural Database, then it will include bibliographic, chemical, 
# crystal, experimental, refinement or atomic coordinate data resulting 
# from the CCDC's data processing and validation procedures.
#
#######################################################################

data_FIVWOZ
_chemical_formula_moiety         'C63 H52 N2 O3 S1,0.5(C1 H1 Cl3),C1 H2 Cl2'
_chemical_name_systematic        
"9-(9,9'-diphenyl-9H,9'H-[3,3'-bicarbazol]-6-yl)-9-(4-(octyloxy)phenyl)-9H-thioxanthene 10,10-dioxide chloroform dichloromethane solvate"
_symmetry_cell_setting           triclinic
_symmetry_space_group_name_H-M   'P -1'
_symmetry_Int_Tables_number      2
_space_group_name_Hall           '-P 1'
loop_
_symmetry_equiv_pos_site_id
_symmetry_equiv_pos_as_xyz
1 x,y,z
2 -x,-y,-z
_cell_length_a                   12.3902(9)
_cell_length_b                   12.7585(8)
_cell_length_c                   18.9724(12)
_cell_angle_alpha                95.506(2)
_cell_angle_beta                 102.141(2)
_cell_angle_gamma                107.482(2)
_cell_volume                     2755.63
_exptl_crystal_colour            colorless
_exptl_crystal_description       flake
_cell_formula_units_Z            2
_exptl_crystal_recrystallization_method 'Re-crystallisation from solvent'
loop_
_atom_site_label
_atom_site_type_symbol
_atom_site_fract_x
_atom_site_fract_y
_atom_site_fract_z
N1 N 0.5993(4) 0.6408(4) 0.8180(3)
N2 N 1.1240(4) 0.4264(4) 0.5549(2)
O1 O 0.9738(4) -0.2107(3) 0.2292(2)
O2 O 0.4067(4) -0.1915(4) 0.3879(2)
O3 O 0.5500(4) -0.2264(3) 0.3249(2)
S1 S 0.52156(13) -0.15265(12) 0.37442(8)
C1 C 0.4927(5) 0.5768(5) 0.8324(3)
C2 C 0.3984(6) 0.5147(5) 0.7739(3)
H1 H 0.4043 0.5185 0.7250
C3 C 0.2965(6) 0.4475(6) 0.7872(4)
H2 H 0.2330 0.4039 0.7476
C4 C 0.2875(7) 0.4441(7) 0.8583(4)
H3 H 0.2182 0.3971 0.8676
C5 C 0.3796(7) 0.5096(7) 0.9163(4)
H4 H 0.3718 0.5093 0.9650
C6 C 0.4838(6) 0.5758(6) 0.9034(4)
H5 H 0.5474 0.6194 0.9430
C7 C 0.6347(6) 0.8305(5) 0.8880(3)
H6 H 0.5683 0.8090 0.9076
C8 C 0.7100(6) 0.9386(6) 0.9031(4)
H7 H 0.6949 0.9929 0.9340
C9 C 0.8075(6) 0.9713(5) 0.8747(4)
H8 H 0.8572 1.0468 0.8865
C10 C 0.8332(6) 0.8950(5) 0.8293(3)
H9 H 0.8996 0.9175 0.8098
C11 C 0.7588(5) 0.7842(5) 0.8129(3)
C12 C 0.6606(5) 0.7540(5) 0.8425(3)
C13 C 0.6592(5) 0.5985(5) 0.7738(3)
C14 C 0.7578(5) 0.6841(5) 0.7693(3)
C15 C 0.8329(5) 0.6611(5) 0.7294(3)
H10 H 0.8983 0.7197 0.7247
C16 C 0.8119(5) 0.5527(5) 0.6965(3)
C17 C 0.7109(5) 0.4686(4) 0.7024(3)
H11 H 0.6954 0.3943 0.6793
C18 C 0.6344(5) 0.4896(5) 0.7401(3)
H12 H 0.5670 0.4317 0.7431
C19 C 0.8950(5) 0.5226(4) 0.6591(3)
C20 C 1.0151(5) 0.5843(4) 0.6827(3)
H13 H 1.0402 0.6458 0.7216
C21 C 1.0980(5) 0.5599(4) 0.6520(3)
H14 H 1.1785 0.6031 0.6691
C22 C 1.0594(5) 0.4698(4) 0.5951(3)
C23 C 0.9407(5) 0.4031(4) 0.5720(3)
C24 C 0.8592(5) 0.4310(4) 0.6043(3)
H15 H 0.7789 0.3868 0.5884
C25 C 1.2468(5) 0.4688(4) 0.5655(3)
C26 C 1.3123(5) 0.3976(5) 0.5701(3)
H16 H 1.2755 0.3195 0.5658
C27 C 1.4335(5) 0.4425(5) 0.5813(3)
H17 H 1.4789 0.3942 0.5826
C28 C 1.4878(5) 0.5563(5) 0.5906(3)
H18 H 1.5703 0.5863 0.5988
C29 C 1.4221(5) 0.6260(5) 0.5880(3)
H19 H 1.4598 0.7044 0.5962
C30 C 1.3021(5) 0.5836(4) 0.5737(3)
H20 H 1.2572 0.6323 0.5693
C31 C 1.0454(5) 0.3300(4) 0.5075(3)
C32 C 1.0670(5) 0.2581(4) 0.4560(3)
H21 H 1.1418 0.2734 0.4462
C33 C 0.9746(5) 0.1635(4) 0.4199(3)
H22 H 0.9876 0.1130 0.3851
C34 C 0.8631(5) 0.1390(4) 0.4325(3)
C35 C 0.8421(5) 0.2166(4) 0.4805(3)
H23 H 0.7660 0.2038 0.4878
C36 C 0.7348(5) -0.0313(4) 0.4647(3)
C37 C 0.8161(5) -0.0067(5) 0.5324(3)
H24 H 0.8905 0.0484 0.5395
C38 C 0.7897(5) -0.0615(5) 0.5892(3)
H25 H 0.8465 -0.0431 0.6347
C39 C 0.6818(5) -0.1432(5) 0.5812(3)
H26 H 0.6647 -0.1806 0.6205
C40 C 0.6005(6) -0.1682(5) 0.5147(3)
H27 H 0.5260 -0.2230 0.5079
C41 C 0.6275(5) -0.1138(4) 0.4581(3)
C42 C 0.6586(5) 0.0481(4) 0.3546(3)
C43 C 0.6708(5) 0.1421(4) 0.3215(3)
H28 H 0.7468 0.1925 0.3256
C44 C 0.5739(5) 0.1636(5) 0.2827(3)
H29 H 0.5848 0.2278 0.2599
C45 C 0.4613(6) 0.0933(5) 0.2766(3)
H30 H 0.3955 0.1104 0.2515
C46 C 0.4462(5) -0.0028(5) 0.3079(3)
H31 H 0.3700 -0.0525 0.3042
C47 C 0.5436(5) -0.0244(4) 0.3442(3)
C48 C 0.8108(5) -0.0483(4) 0.3520(3)
C49 C 0.8669(5) -0.1179(4) 0.3828(3)
H32 H 0.8683 -0.1274 0.4320
C50 C 0.9213(5) -0.1741(5) 0.3434(3)
H33 H 0.9597 -0.2212 0.3657
C51 C 0.9194(5) -0.1616(5) 0.2720(3)
C52 C 0.8602(5) -0.0942(5) 0.2394(3)
H34 H 0.8570 -0.0861 0.1898
C53 C 0.8066(5) -0.0396(5) 0.2795(3)
H35 H 0.7657 0.0053 0.2567
C54 C 1.0620(6) -0.2511(6) 0.2672(4)
H36 H 1.0261 -0.3138 0.2909
H37 H 1.1202 -0.1909 0.3057
C55 C 1.1214(6) -0.2897(6) 0.2124(4)
H38 H 1.1392 -0.2331 0.1806
H39 H 1.1965 -0.2957 0.2392
C56 C 1.0481(6) -0.4000(6) 0.1656(4)
H40 H 0.9789 -0.3907 0.1333
H41 H 1.0197 -0.4534 0.1976
C57 C 1.1132(6) -0.4498(6) 0.1181(4)
H42 H 1.1273 -0.4046 0.0793
H43 H 1.1902 -0.4451 0.1489
C58 C 1.0461(7) -0.5709(6) 0.0827(4)
H44 H 0.9713 -0.5746 0.0495
H45 H 1.0274 -0.6149 0.1213
C59 C 1.1131(7) -0.6241(6) 0.0391(4)
H46 H 1.1277 -0.5827 -0.0014
H47 H 1.1899 -0.6164 0.0716
C60 C 1.0505(7) -0.7441(6) 0.0081(4)
H48 H 0.9738 -0.7515 -0.0244
H49 H 1.0353 -0.7851 0.0486
C61 C 1.1160(8) -0.7984(7) -0.0350(4)
H50 H 1.1182 -0.7683 -0.0805
H51 H 1.0761 -0.8792 -0.0465
H52 H 1.1961 -0.7826 -0.0056
C62 C 0.9332(5) 0.3127(4) 0.5175(3)
C63 C 0.7660(5) 0.0268(4) 0.4008(3)
Cl1 Cl 0.3755(2) 0.1981(2) 0.92296(13)
Cl2 Cl 0.5025(3) 0.0958(2) 0.84454(14)
Cl3 Cl 0.5832(3) 0.3339(2) 0.88894(17)
C64 C 0.4624(8) 0.2121(7) 0.8573(4)
Cl4 Cl 0.2537(2) 0.6967(2) 0.84298(15)
Cl5 Cl 0.3753(3) 0.8733(3) 0.96366(17)
C65 C 0.2856(12) 0.8379(11) 0.8775(7)
Cl6? Cl 0.4319(17) 0.2925(15) 0.8813(10)
Cl7? Cl 0.4319(19) 0.0684(16) 0.8799(11)
Cl8? Cl 0.6253(13) 0.2329(13) 0.8531(8)
Cl9? Cl 0.1639(7) 0.8804(7) 0.8795(6)
Cl10? Cl 0.1452(7) 0.8585(7) 0.8573(6)
loop_
_geom_bond_atom_site_label_1
_geom_bond_atom_site_label_2
_geom_bond_site_symmetry_1
_geom_bond_site_symmetry_2
N1 C1 1_555 1_555
N2 C22 1_555 1_555
O1 C51 1_555 1_555
O2 S1 1_555 1_555
O3 S1 1_555 1_555
S1 C41 1_555 1_555
C1 C2 1_555 1_555
C2 H1 1_555 1_555
C3 C2 1_555 1_555
H2 C3 1_555 1_555
C4 C3 1_555 1_555
H3 C4 1_555 1_555
C5 C4 1_555 1_555
H4 C5 1_555 1_555
C6 C1 1_555 1_555
H5 C6 1_555 1_555
C7 H6 1_555 1_555
C8 C7 1_555 1_555
H7 C8 1_555 1_555
C9 C8 1_555 1_555
H8 C9 1_555 1_555
C10 C9 1_555 1_555
H9 C10 1_555 1_555
C11 C10 1_555 1_555
C12 N1 1_555 1_555
C13 N1 1_555 1_555
C14 C11 1_555 1_555
C15 C14 1_555 1_555
H10 C15 1_555 1_555
C16 C15 1_555 1_555
C17 C16 1_555 1_555
H11 C17 1_555 1_555
C18 C13 1_555 1_555
H12 C18 1_555 1_555
C19 C16 1_555 1_555
C20 C19 1_555 1_555
H13 C20 1_555 1_555
C21 C20 1_555 1_555
H14 C21 1_555 1_555
C22 C21 1_555 1_555
C23 C22 1_555 1_555
C24 C19 1_555 1_555
H15 C24 1_555 1_555
C25 N2 1_555 1_555
C26 C25 1_555 1_555
H16 C26 1_555 1_555
C27 C26 1_555 1_555
H17 C27 1_555 1_555
C28 C27 1_555 1_555
H18 C28 1_555 1_555
C29 C28 1_555 1_555
H19 C29 1_555 1_555
C30 C25 1_555 1_555
H20 C30 1_555 1_555
C31 N2 1_555 1_555
C32 C31 1_555 1_555
H21 C32 1_555 1_555
C33 C32 1_555 1_555
H22 C33 1_555 1_555
C34 C33 1_555 1_555
C35 C34 1_555 1_555
H23 C35 1_555 1_555
C36 C37 1_555 1_555
C37 H24 1_555 1_555
C38 C37 1_555 1_555
H25 C38 1_555 1_555
C39 C38 1_555 1_555
H26 C39 1_555 1_555
C40 C39 1_555 1_555
H27 C40 1_555 1_555
C41 C36 1_555 1_555
C42 C43 1_555 1_555
C43 H28 1_555 1_555
C44 C43 1_555 1_555
H29 C44 1_555 1_555
C45 C44 1_555 1_555
H30 C45 1_555 1_555
C46 C45 1_555 1_555
H31 C46 1_555 1_555
C47 S1 1_555 1_555
C48 C49 1_555 1_555
C49 H32 1_555 1_555
C50 C49 1_555 1_555
H33 C50 1_555 1_555
C51 C50 1_555 1_555
C52 C51 1_555 1_555
H34 C52 1_555 1_555
C53 C48 1_555 1_555
H35 C53 1_555 1_555
C54 O1 1_555 1_555
H36 C54 1_555 1_555
H37 C54 1_555 1_555
C55 C54 1_555 1_555
H38 C55 1_555 1_555
H39 C55 1_555 1_555
C56 C55 1_555 1_555
H40 C56 1_555 1_555
H41 C56 1_555 1_555
C57 C56 1_555 1_555
H42 C57 1_555 1_555
H43 C57 1_555 1_555
C58 C57 1_555 1_555
H44 C58 1_555 1_555
H45 C58 1_555 1_555
C59 C58 1_555 1_555
H46 C59 1_555 1_555
H47 C59 1_555 1_555
C60 C59 1_555 1_555
H48 C60 1_555 1_555
H49 C60 1_555 1_555
C61 C60 1_555 1_555
H50 C61 1_555 1_555
H51 C61 1_555 1_555
H52 C61 1_555 1_555
C62 C23 1_555 1_555
C63 C34 1_555 1_555
Cl1 C64 1_555 1_555
Cl2 C64 1_555 1_555
Cl3 C64 1_555 1_555
Cl4 C65 1_555 1_555
Cl5 C65 1_555 1_555
C5 C6 1_555 1_555
C7 C12 1_555 1_555
C11 C12 1_555 1_555
C13 C14 1_555 1_555
C17 C18 1_555 1_555
C23 C24 1_555 1_555
C29 C30 1_555 1_555
C31 C62 1_555 1_555
C35 C62 1_555 1_555
C36 C63 1_555 1_555
C40 C41 1_555 1_555
C42 C47 1_555 1_555
C42 C63 1_555 1_555
C46 C47 1_555 1_555
C48 C63 1_555 1_555
C52 C53 1_555 1_555

#END
