
#######################################################################
#
#                 Cambridge Crystallographic Data Centre
#                                CCDC 
#
#######################################################################
#
# If this CIF has been generated from an entry in the Cambridge 
# Structural Database, then it will include bibliographic, chemical, 
# crystal, experimental, refinement or atomic coordinate data resulting 
# from the CCDC's data processing and validation procedures.
#
#######################################################################

data_FIWGUO
_chemical_formula_moiety         'C9 H10 N2 O2'
_chemical_name_systematic        
'1-Methyl-6,7-dihydropyrrolo(2,3 -c)azepine-4,8(1H,5H)-dione'
_chemical_properties_biological  
'possesses moderately antilipoperoxidation properties'
_symmetry_cell_setting           orthorhombic
_symmetry_space_group_name_H-M   'P 21 21 21'
_symmetry_Int_Tables_number      19
_space_group_name_Hall           'P 2ac 2ab'
loop_
_symmetry_equiv_pos_site_id
_symmetry_equiv_pos_as_xyz
1 x,y,z
2 1/2-x,-y,1/2+z
3 -x,1/2+y,1/2-z
4 1/2+x,1/2-y,-z
_cell_length_a                   8.589(3)
_cell_length_b                   8.686(3)
_cell_length_c                   11.375(4)
_cell_angle_alpha                90
_cell_angle_beta                 90
_cell_angle_gamma                90
_cell_volume                     848.621
_exptl_crystal_colour            'pale yellow'
_exptl_crystal_description       block
_chemical_melting_point          '470-471 K'
_cell_formula_units_Z            4
_exptl_crystal_recrystallization_method methanol
loop_
_atom_site_label
_atom_site_type_symbol
_atom_site_fract_x
_atom_site_fract_y
_atom_site_fract_z
O1 O 0.04462(17) 0.86100(16) 0.20396(14)
O2 O 0.4332(2) 0.41611(16) 0.40611(13)
C1 C 0.3491(3) 0.8785(2) 0.48757(17)
H1 H 0.3693 0.9474 0.5482
C2 C 0.3976(2) 0.7293(2) 0.48375(17)
H2 H 0.4548 0.6780 0.5411
C3 C 0.3444(2) 0.6670(2) 0.37587(16)
C4 C 0.2610(2) 0.78326(19) 0.31886(15)
C5 C 0.1620(2) 0.78013(19) 0.21187(16)
C6 C 0.3399(2) 0.5856(2) 0.12434(16)
H3 H 0.4318 0.6481 0.1375
H4 H 0.3491 0.5396 0.0469
C7 C 0.3353(3) 0.4587(2) 0.21540(18)
H5 H 0.2319 0.4138 0.2155
H6 H 0.4079 0.3788 0.1922
C8 C 0.3740(2) 0.5086(2) 0.33844(16)
C9 C 0.2061(3) 1.0644(2) 0.3625(2)
H7 H 0.2253 1.1314 0.4280
H8 H 0.0961 1.0582 0.3482
H9 H 0.2572 1.1043 0.2939
N1 N 0.26655(19) 0.91067(17) 0.38880(14)
N2 N 0.20374(18) 0.68391(18) 0.12651(14)
H10 H 0.1435 0.6796 0.0662
loop_
_geom_bond_atom_site_label_1
_geom_bond_atom_site_label_2
_geom_bond_site_symmetry_1
_geom_bond_site_symmetry_2
O1 C5 1_555 1_555
O2 C8 1_555 1_555
C1 H1 1_555 1_555
C2 C1 1_555 1_555
H2 C2 1_555 1_555
C3 C2 1_555 1_555
C4 C3 1_555 1_555
C5 C4 1_555 1_555
C6 H3 1_555 1_555
H4 C6 1_555 1_555
C7 C6 1_555 1_555
H5 C7 1_555 1_555
H6 C7 1_555 1_555
C8 C3 1_555 1_555
C9 H7 1_555 1_555
H8 C9 1_555 1_555
H9 C9 1_555 1_555
N1 C1 1_555 1_555
N2 C5 1_555 1_555
H10 N2 1_555 1_555
C4 N1 1_555 1_555
C6 N2 1_555 1_555
C7 C8 1_555 1_555
C9 N1 1_555 1_555

#END
