
#######################################################################
#
#                 Cambridge Crystallographic Data Centre
#                                CCDC 
#
#######################################################################
#
# If this CIF has been generated from an entry in the Cambridge 
# Structural Database, then it will include bibliographic, chemical, 
# crystal, experimental, refinement or atomic coordinate data resulting 
# from the CCDC's data processing and validation procedures.
#
#######################################################################

data_FIXDUN
_chemical_formula_moiety         'C16 H15 N2 P1'
_chemical_name_systematic        
3,5-bis(4-methylphenyl)-1H-1,2,4-diazaphosphole
_symmetry_cell_setting           triclinic
_symmetry_space_group_name_H-M   'P -1'
_symmetry_Int_Tables_number      2
_space_group_name_Hall           '-P 1'
loop_
_symmetry_equiv_pos_site_id
_symmetry_equiv_pos_as_xyz
1 x,y,z
2 -x,-y,-z
_cell_length_a                   9.6653(16)
_cell_length_b                   9.6809(16)
_cell_length_c                   16.449(3)
_cell_angle_alpha                74.227(3)
_cell_angle_beta                 75.002(3)
_cell_angle_gamma                75.181(3)
_cell_volume                     1401.95
_cell_formula_units_Z            4
loop_
_atom_site_label
_atom_site_type_symbol
_atom_site_fract_x
_atom_site_fract_y
_atom_site_fract_z
P1 P 0.67618(13) 0.83595(13) 0.02678(9)
N1 N 0.8917(4) 0.6170(4) 0.0416(3)
N2 N 0.8733(4) 0.6357(4) -0.0401(2)
C1 C 0.8076(5) 0.6972(4) 0.1763(3)
C2 C 0.6869(5) 0.7463(5) 0.2358(3)
H1 H 0.5983 0.7889 0.2186
C3 C 0.6957(5) 0.7330(5) 0.3201(3)
H2 H 0.6141 0.7705 0.3580
C4 C 0.8243(6) 0.6648(5) 0.3493(3)
C5 C 0.9440(5) 0.6159(5) 0.2902(3)
H3 H 1.0314 0.5700 0.3083
C6 C 0.9383(5) 0.6329(5) 0.2055(3)
H4 H 1.0222 0.6014 0.1670
C7 C 0.7977(5) 0.7111(4) 0.0876(3)
C8 C 0.7639(4) 0.7457(4) -0.0579(3)
C9 C 0.7255(5) 0.7820(4) -0.1444(3)
C10 C 0.8256(5) 0.7505(5) -0.2170(3)
H5 H 0.9215 0.7051 -0.2127
C11 C 0.7855(5) 0.7854(5) -0.2953(3)
H6 H 0.8555 0.7642 -0.3434
C12 C 0.6443(5) 0.8508(5) -0.3051(3)
C13 C 0.5443(5) 0.8849(5) -0.2323(3)
H7 H 0.4490 0.9319 -0.2371
C14 C 0.5827(5) 0.8509(5) -0.1539(3)
H8 H 0.5130 0.8739 -0.1061
C15 C 0.8340(7) 0.6490(7) 0.4419(4)
H9 H 0.9306 0.5991 0.4501
H10 H 0.7640 0.5935 0.4799
H11 H 0.8137 0.7442 0.4544
C16 C 0.5982(7) 0.8868(6) -0.3907(4)
H12 H 0.6804 0.8565 -0.4337
H13 H 0.5632 0.9905 -0.4072
H14 H 0.5217 0.8364 -0.3855
P2 P 0.16418(14) 0.82317(13) 0.46778(9)
N3 N 0.3865(4) 0.6105(4) 0.4539(3)
N4 N 0.3699(4) 0.6296(4) 0.5350(3)
C17 C 0.2232(5) 0.7757(5) 0.6379(3)
C18 C 0.1524(5) 0.9170(5) 0.6473(3)
H15 H 0.1267 0.9869 0.5994
C19 C 0.1198(5) 0.9551(5) 0.7254(4)
H16 H 0.0728 1.0503 0.7295
C20 C 0.1558(5) 0.8540(5) 0.7987(3)
C21 C 0.2281(5) 0.7156(5) 0.7894(3)
H17 H 0.2565 0.6473 0.8371
C22 C 0.2597(5) 0.6752(5) 0.7119(3)
H18 H 0.3061 0.5795 0.7084
C23 C 0.2580(5) 0.7377(4) 0.5527(3)
C24 C 0.2891(5) 0.7031(5) 0.4090(3)
C25 C 0.3002(5) 0.6897(5) 0.3203(3)
C26 C 0.3556(5) 0.5560(5) 0.2965(4)
H19 H 0.3836 0.4728 0.3376
C27 C 0.3694(6) 0.5450(5) 0.2138(4)
H20 H 0.4083 0.4542 0.1997
C28 C 0.3277(6) 0.6638(6) 0.1500(3)
C29 C 0.2730(6) 0.7983(6) 0.1743(4)
H21 H 0.2458 0.8812 0.1329
C30 C 0.2581(5) 0.8120(5) 0.2575(3)
H22 H 0.2200 0.9029 0.2717
C31 C 0.1184(7) 0.9013(7) 0.8844(4)
H23 H 0.1499 0.8197 0.9284
H24 H 0.0146 0.9346 0.8999
H25 H 0.1671 0.9793 0.8788
C32 C 0.3413(8) 0.6508(8) 0.0589(4)
H26 H 0.3814 0.5510 0.0544
H27 H 0.4047 0.7129 0.0201
H28 H 0.2466 0.6803 0.0443
loop_
_geom_bond_atom_site_label_1
_geom_bond_atom_site_label_2
_geom_bond_site_symmetry_1
_geom_bond_site_symmetry_2
P1 C7 1_555 1_555
N1 N2 1_555 1_555
N2 C8 1_555 1_555
C1 C2 1_555 1_555
C2 H1 1_555 1_555
C3 C2 1_555 1_555
H2 C3 1_555 1_555
C4 C3 1_555 1_555
C5 C4 1_555 1_555
H3 C5 1_555 1_555
C6 C1 1_555 1_555
H4 C6 1_555 1_555
C7 N1 1_555 1_555
C8 P1 1_555 1_555
C9 C8 1_555 1_555
C10 C9 1_555 1_555
H5 C10 1_555 1_555
C11 C10 1_555 1_555
H6 C11 1_555 1_555
C12 C11 1_555 1_555
C13 C12 1_555 1_555
H7 C13 1_555 1_555
C14 C9 1_555 1_555
H8 C14 1_555 1_555
C15 C4 1_555 1_555
H9 C15 1_555 1_555
H10 C15 1_555 1_555
H11 C15 1_555 1_555
C16 C12 1_555 1_555
H12 C16 1_555 1_555
H13 C16 1_555 1_555
H14 C16 1_555 1_555
P2 C23 1_555 1_555
N3 N4 1_555 1_555
N4 C23 1_555 1_555
C17 C18 1_555 1_555
C18 H15 1_555 1_555
C19 C18 1_555 1_555
H16 C19 1_555 1_555
C20 C19 1_555 1_555
C21 C20 1_555 1_555
H17 C21 1_555 1_555
C22 C17 1_555 1_555
H18 C22 1_555 1_555
C23 C17 1_555 1_555
C24 P2 1_555 1_555
C25 C24 1_555 1_555
C26 C25 1_555 1_555
H19 C26 1_555 1_555
C27 C26 1_555 1_555
H20 C27 1_555 1_555
C28 C27 1_555 1_555
C29 C28 1_555 1_555
H21 C29 1_555 1_555
C30 C25 1_555 1_555
H22 C30 1_555 1_555
C31 C20 1_555 1_555
H23 C31 1_555 1_555
H24 C31 1_555 1_555
H25 C31 1_555 1_555
C32 C28 1_555 1_555
H26 C32 1_555 1_555
H27 C32 1_555 1_555
H28 C32 1_555 1_555
C1 C7 1_555 1_555
C5 C6 1_555 1_555
C13 C14 1_555 1_555
N3 C24 1_555 1_555
C21 C22 1_555 1_555
C29 C30 1_555 1_555

#END
