
#######################################################################
#
#                 Cambridge Crystallographic Data Centre
#                                CCDC 
#
#######################################################################
#
# If this CIF has been generated from an entry in the Cambridge 
# Structural Database, then it will include bibliographic, chemical, 
# crystal, experimental, refinement or atomic coordinate data resulting 
# from the CCDC's data processing and validation procedures.
#
#######################################################################

data_FIXPAG
_chemical_formula_moiety         'C12 H13 N3 O2'
_chemical_name_systematic        
2-methyl-N-(7-oxo-7,8-dihydro-1,8-naphthyridin-2-yl)propanamide
_symmetry_cell_setting           monoclinic
_symmetry_space_group_name_H-M   'P 21/n'
_symmetry_Int_Tables_number      14
_space_group_name_Hall           '-P 2yn'
loop_
_symmetry_equiv_pos_site_id
_symmetry_equiv_pos_as_xyz
1 x,y,z
2 1/2-x,1/2+y,1/2-z
3 -x,-y,-z
4 1/2+x,1/2-y,1/2+z
_cell_length_a                   4.8837(11)
_cell_length_b                   22.962(4)
_cell_length_c                   9.9321(18)
_cell_angle_alpha                90
_cell_angle_beta                 101.26(2)
_cell_angle_gamma                90
_cell_volume                     1092.34
_exptl_crystal_colour            colorless
_exptl_crystal_description       needle
_cell_formula_units_Z            4
loop_
_atom_site_label
_atom_site_type_symbol
_atom_site_fract_x
_atom_site_fract_y
_atom_site_fract_z
O1 O 0.1425(6) 0.63530(11) 0.3415(3)
N1 N 0.2316(7) 0.56436(13) 0.5032(3)
C1 C 0.2989(8) 0.61569(15) 0.4448(3)
O2 O 0.6783(7) 0.38848(12) 1.0034(3)
N2 N 0.2983(6) 0.48947(12) 0.6629(3)
C2 C 0.5567(8) 0.64366(16) 0.5115(4)
H1 H 0.6121 0.6781 0.4754
N3 N 0.3492(7) 0.41320(12) 0.8154(3)
C3 C 0.7170(9) 0.62055(15) 0.6247(3)
H2 H 0.8817 0.6391 0.6654
C4 C 0.6372(8) 0.56799(15) 0.6830(3)
C5 C 0.3917(8) 0.53960(14) 0.6190(3)
C6 C 0.7939(9) 0.54163(16) 0.8006(4)
H3 H 0.9597 0.5586 0.8456
C7 C 0.7018(9) 0.49083(16) 0.8489(4)
H4 H 0.8016 0.4735 0.9282
C8 C 0.4537(8) 0.46515(15) 0.7769(3)
C9 C 0.4663(9) 0.37701(15) 0.9221(4)
C10 C 0.3149(9) 0.31929(16) 0.9266(4)
H5 H 0.1195 0.3243 0.8809
C11 C 0.4459(18) 0.2732(2) 0.8504(7)
H6 H 0.4336 0.2851 0.7567
H7 H 0.3489 0.2370 0.8530
H8 H 0.6385 0.2684 0.8932
C12 C 0.323(2) 0.3006(2) 1.0703(5)
H9 H 0.5128 0.2935 1.1147
H10 H 0.2159 0.2656 1.0706
H11 H 0.2454 0.3307 1.1185
H12 H 0.180(9) 0.4025(17) 0.771(4)
H13 H 0.056(10) 0.5485(19) 0.465(4)
loop_
_geom_bond_atom_site_label_1
_geom_bond_atom_site_label_2
_geom_bond_site_symmetry_1
_geom_bond_site_symmetry_2
O1 C1 1_555 1_555
N1 C1 1_555 1_555
C1 C2 1_555 1_555
O2 C9 1_555 1_555
N2 C5 1_555 1_555
C2 H1 1_555 1_555
N3 C8 1_555 1_555
C3 C2 1_555 1_555
H2 C3 1_555 1_555
C4 C3 1_555 1_555
C5 N1 1_555 1_555
C6 C4 1_555 1_555
H3 C6 1_555 1_555
C7 C6 1_555 1_555
H4 C7 1_555 1_555
C8 N2 1_555 1_555
C9 N3 1_555 1_555
C10 C9 1_555 1_555
H5 C10 1_555 1_555
C11 C10 1_555 1_555
H6 C11 1_555 1_555
H7 C11 1_555 1_555
H8 C11 1_555 1_555
C12 C10 1_555 1_555
H9 C12 1_555 1_555
H10 C12 1_555 1_555
H11 C12 1_555 1_555
H12 N3 1_555 1_555
H13 N1 1_555 1_555
C4 C5 1_555 1_555
C7 C8 1_555 1_555

#END
