
#######################################################################
#
#                 Cambridge Crystallographic Data Centre
#                                CCDC 
#
#######################################################################
#
# If this CIF has been generated from an entry in the Cambridge 
# Structural Database, then it will include bibliographic, chemical, 
# crystal, experimental, refinement or atomic coordinate data resulting 
# from the CCDC's data processing and validation procedures.
#
#######################################################################

data_FIXREL
_chemical_formula_moiety         'C29 H30 Br1 N1 O5'
_chemical_name_systematic        
'1-Ethyl 4-methyl N,N-dibenzyl-3-(2-(4-bromophenyl)vinyl)-3-hydroxyaspartate'
_symmetry_cell_setting           monoclinic
_symmetry_space_group_name_H-M   'P 21/n'
_symmetry_Int_Tables_number      14
_space_group_name_Hall           '-P 2yn'
loop_
_symmetry_equiv_pos_site_id
_symmetry_equiv_pos_as_xyz
1 x,y,z
2 1/2-x,1/2+y,1/2-z
3 -x,-y,-z
4 1/2+x,1/2-y,1/2+z
_cell_length_a                   10.1046(7)
_cell_length_b                   10.2534(7)
_cell_length_c                   27.1451(19)
_cell_angle_alpha                90
_cell_angle_beta                 98.586(2)
_cell_angle_gamma                90
_cell_volume                     2780.89
_exptl_crystal_colour            colorless
_exptl_crystal_description       block
_cell_formula_units_Z            4
loop_
_atom_site_label
_atom_site_type_symbol
_atom_site_fract_x
_atom_site_fract_y
_atom_site_fract_z
Br1 Br 0.97569(5) 0.76794(6) 0.21089(2)
O1 O 0.1653(3) 1.2765(3) 0.22451(11)
O2 O 0.2938(3) 1.3879(3) 0.17939(9)
O3 O 0.2517(4) 1.1734(4) 0.02232(13)
O4 O 0.1551(4) 1.0201(3) 0.06062(14)
O5 O 0.1468(2) 1.0760(3) 0.16354(10)
H1 H 0.1235 1.0315 0.1386
N1 N 0.0663(3) 1.3012(3) 0.09321(10)
C1 C -0.1718(4) 1.2900(4) 0.10304(16)
C2 C -0.2950(4) 1.2887(5) 0.07311(19)
H2 H -0.3054 1.2454 0.0427
C3 C -0.4023(4) 1.3514(6) 0.0883(3)
H3 H -0.4849 1.3498 0.0679
C4 C -0.3898(5) 1.4150(6) 0.1322(3)
H4 H -0.4631 1.4575 0.1418
C5 C -0.2675(5) 1.4166(5) 0.1628(2)
H5 H -0.2577 1.4602 0.1931
C6 C -0.1599(4) 1.3528(4) 0.14780(18)
H6 H -0.0779 1.3527 0.1686
C7 C 0.1488(4) 1.5125(4) 0.06471(14)
C8 C 0.2640(4) 1.5235(4) 0.04368(16)
H7 H 0.2844 1.4602 0.0215
C9 C 0.3503(5) 1.6286(5) 0.0554(2)
H8 H 0.4292 1.6335 0.0417
C10 C 0.3204(7) 1.7235(5) 0.0864(2)
H9 H 0.3782 1.7936 0.0942
C11 C 0.2040(8) 1.7152(5) 0.1064(3)
H10 H 0.1814 1.7814 0.1270
C12 C 0.1205(5) 1.6103(4) 0.09618(19)
H11 H 0.0432 1.6051 0.1108
C13 C 0.5534(3) 0.9617(3) 0.18688(12)
C14 C 0.5712(4) 0.8336(4) 0.20234(16)
H12 H 0.4973 0.7850 0.2081
C15 C 0.6960(4) 0.7765(4) 0.20941(17)
H13 H 0.7063 0.6899 0.2194
C16 C 0.8050(4) 0.8488(4) 0.20147(14)
C17 C 0.7921(4) 0.9771(4) 0.18787(14)
H14 H 0.8669 1.0262 0.1835
C18 C 0.6662(4) 1.0328(4) 0.18071(14)
H15 H 0.6570 1.1201 0.1715
C19 C 0.1950(3) 1.2318(3) 0.09929(12)
H16 H 0.2634 1.2965 0.0946
C20 C 0.2340(3) 1.1754(3) 0.15221(13)
C21 C 0.3780(3) 1.1280(3) 0.15924(12)
H17 H 0.4424 1.1830 0.1494
C22 C 0.4168(3) 1.0150(3) 0.17816(13)
H18 H 0.3500 0.9617 0.1872
C23 C 0.2246(4) 1.2850(4) 0.18944(14)
C24 C 0.2928(6) 1.5004(5) 0.21190(18)
H19 H 0.3464 1.5686 0.2009
H20 H 0.3287 1.4761 0.2454
H21 H 0.2025 1.5308 0.2109
C25 C 0.1999(4) 1.1271(4) 0.05977(15)
C26 C 0.2502(11) 1.0811(9) -0.0197(3)
H22 H 0.3052 1.0054 -0.0096
H23 H 0.1597 1.0523 -0.0318
C27 C 0.3047(15) 1.1550(14) -0.0579(5)
H24 H 0.3041 1.1017 -0.0870
H25 H 0.3949 1.1806 -0.0455
H26 H 0.2510 1.2313 -0.0663
C28 C 0.0551(4) 1.4001(4) 0.05305(13)
H27 H -0.0360 1.4327 0.0472
H28 H 0.0731 1.3587 0.0226
C29 C -0.0544(4) 1.2183(4) 0.08685(16)
H29 H -0.0366 1.1395 0.1065
H30 H -0.0765 1.1932 0.0521
loop_
_geom_bond_atom_site_label_1
_geom_bond_atom_site_label_2
_geom_bond_site_symmetry_1
_geom_bond_site_symmetry_2
Br1 C16 1_555 1_555
O1 C23 1_555 1_555
O2 C23 1_555 1_555
O3 C25 1_555 1_555
O4 C25 1_555 1_555
O5 H1 1_555 1_555
N1 C19 1_555 1_555
C1 C2 1_555 1_555
C2 H2 1_555 1_555
C3 C2 1_555 1_555
H3 C3 1_555 1_555
C4 C3 1_555 1_555
H4 C4 1_555 1_555
C5 C4 1_555 1_555
H5 C5 1_555 1_555
C6 C1 1_555 1_555
H6 C6 1_555 1_555
C7 C8 1_555 1_555
C8 H7 1_555 1_555
C9 C8 1_555 1_555
H8 C9 1_555 1_555
C10 C9 1_555 1_555
H9 C10 1_555 1_555
C11 C10 1_555 1_555
H10 C11 1_555 1_555
C12 C7 1_555 1_555
H11 C12 1_555 1_555
C13 C14 1_555 1_555
C14 H12 1_555 1_555
C15 C14 1_555 1_555
H13 C15 1_555 1_555
C16 C15 1_555 1_555
C17 C16 1_555 1_555
H14 C17 1_555 1_555
C18 C13 1_555 1_555
H15 C18 1_555 1_555
C19 H16 1_555 1_555
C20 O5 1_555 1_555
C21 C20 1_555 1_555
H17 C21 1_555 1_555
C22 C13 1_555 1_555
H18 C22 1_555 1_555
C23 C20 1_555 1_555
C24 O2 1_555 1_555
H19 C24 1_555 1_555
H20 C24 1_555 1_555
H21 C24 1_555 1_555
C25 C19 1_555 1_555
C26 O3 1_555 1_555
H22 C26 1_555 1_555
H23 C26 1_555 1_555
C27 C26 1_555 1_555
H24 C27 1_555 1_555
H25 C27 1_555 1_555
H26 C27 1_555 1_555
C28 N1 1_555 1_555
H27 C28 1_555 1_555
H28 C28 1_555 1_555
C29 N1 1_555 1_555
H29 C29 1_555 1_555
H30 C29 1_555 1_555
C1 C29 1_555 1_555
C5 C6 1_555 1_555
C7 C28 1_555 1_555
C11 C12 1_555 1_555
C17 C18 1_555 1_555
C19 C20 1_555 1_555
C21 C22 1_555 1_555

#END
