
#######################################################################
#
#                 Cambridge Crystallographic Data Centre
#                                CCDC 
#
#######################################################################
#
# If this CIF has been generated from an entry in the Cambridge 
# Structural Database, then it will include bibliographic, chemical, 
# crystal, experimental, refinement or atomic coordinate data resulting 
# from the CCDC's data processing and validation procedures.
#
#######################################################################

data_FIXSUC
_chemical_formula_moiety         'C16 H13 F3 O1 S1'
_chemical_name_systematic        
2-(5-(Methylsulfanyl)-2-(trifluoromethyl)phenyl)-1-phenylethanone
_symmetry_cell_setting           monoclinic
_symmetry_space_group_name_H-M   'P 21/n'
_symmetry_Int_Tables_number      14
_space_group_name_Hall           '-P 2yn'
loop_
_symmetry_equiv_pos_site_id
_symmetry_equiv_pos_as_xyz
1 x,y,z
2 1/2-x,1/2+y,1/2-z
3 -x,-y,-z
4 1/2+x,1/2-y,1/2+z
_cell_length_a                   9.2750(3)
_cell_length_b                   5.21000(10)
_cell_length_c                   30.1440(8)
_cell_angle_alpha                90
_cell_angle_beta                 92.211(2)
_cell_angle_gamma                90
_cell_volume                     1455.56
_exptl_crystal_colour            colorless
_exptl_crystal_description       needle
_cell_formula_units_Z            4
loop_
_atom_site_label
_atom_site_type_symbol
_atom_site_fract_x
_atom_site_fract_y
_atom_site_fract_z
C1 C 0.7866(3) 0.6130(5) 0.10102(9)
H1 H 0.7459 0.7187 0.1220
C2 C 0.7263(3) 0.6074(5) 0.05765(9)
C3 C 0.7878(4) 0.4487(6) 0.02691(10)
H2 H 0.7485 0.4411 -0.0019
C4 C 0.9065(4) 0.3020(6) 0.03847(10)
H3 H 0.9471 0.1971 0.0173
C5 C 0.9666(3) 0.3089(5) 0.08153(9)
C6 C 0.9055(3) 0.4646(5) 0.11334(8)
C7 C 0.9617(3) 0.4759(5) 0.16093(9)
H4 H 0.9331 0.6382 0.1737
H5 H 1.0663 0.4712 0.1614
C8 C 0.9080(3) 0.2591(5) 0.18959(9)
C9 C 0.9748(3) 0.2253(5) 0.23531(9)
C10 C 1.0837(4) 0.3820(7) 0.25187(10)
H6 H 1.1182 0.5138 0.2344
C11 C 1.1422(5) 0.3447(8) 0.29441(12)
H7 H 1.2151 0.4524 0.3054
C12 C 1.0933(5) 0.1509(9) 0.32017(11)
H8 H 1.1334 0.1252 0.3486
C13 C 0.9840(5) -0.0071(8) 0.30406(12)
H9 H 0.9507 -0.1394 0.3217
C14 C 0.9233(4) 0.0302(7) 0.26167(10)
H10 H 0.8487 -0.0751 0.2511
C15 C 0.5531(4) 1.0135(7) 0.08226(13)
H11 H 0.4712 1.1201 0.0749
H12 H 0.6382 1.1181 0.0853
H13 H 0.5381 0.9264 0.1098
C16 C 1.1011(4) 0.1598(7) 0.09139(10)
O1 O 0.8127(3) 0.1172(5) 0.17607(7)
F1 F 1.2166(2) 0.3111(5) 0.09725(9)
F2 F 1.0967(2) 0.0166(4) 0.12838(7)
F3 F 1.1342(3) -0.0035(5) 0.05940(8)
S1 S 0.57519(11) 0.78468(19) 0.03959(3)
loop_
_geom_bond_atom_site_label_1
_geom_bond_atom_site_label_2
_geom_bond_site_symmetry_1
_geom_bond_site_symmetry_2
C1 H1 1_555 1_555
C2 C1 1_555 1_555
C3 C2 1_555 1_555
H2 C3 1_555 1_555
C4 C3 1_555 1_555
H3 C4 1_555 1_555
C5 C4 1_555 1_555
C6 C1 1_555 1_555
C7 C6 1_555 1_555
H4 C7 1_555 1_555
H5 C7 1_555 1_555
C8 C7 1_555 1_555
C9 C8 1_555 1_555
C10 C9 1_555 1_555
H6 C10 1_555 1_555
C11 C10 1_555 1_555
H7 C11 1_555 1_555
C12 C11 1_555 1_555
H8 C12 1_555 1_555
C13 C12 1_555 1_555
H9 C13 1_555 1_555
C14 C9 1_555 1_555
H10 C14 1_555 1_555
C15 H11 1_555 1_555
H12 C15 1_555 1_555
H13 C15 1_555 1_555
C16 C5 1_555 1_555
O1 C8 1_555 1_555
F1 C16 1_555 1_555
F2 C16 1_555 1_555
F3 C16 1_555 1_555
S1 C2 1_555 1_555
C5 C6 1_555 1_555
C13 C14 1_555 1_555
C15 S1 1_555 1_555

#END
