
#######################################################################
#
#                 Cambridge Crystallographic Data Centre
#                                CCDC 
#
#######################################################################
#
# If this CIF has been generated from an entry in the Cambridge 
# Structural Database, then it will include bibliographic, chemical, 
# crystal, experimental, refinement or atomic coordinate data resulting 
# from the CCDC's data processing and validation procedures.
#
#######################################################################

data_FIXXIU
_chemical_formula_moiety         'C12 H12 Cl1 N1 O3'
_chemical_name_systematic        
'Methyl (Z)-3-(N-acetylamino)-3-(p-chlorophenyl)propenoate'
_symmetry_cell_setting           orthorhombic
_symmetry_space_group_name_H-M   'P b c a'
_symmetry_Int_Tables_number      61
_space_group_name_Hall           '-P 2ac 2ab'
loop_
_symmetry_equiv_pos_site_id
_symmetry_equiv_pos_as_xyz
1 x,y,z
2 1/2-x,-y,1/2+z
3 -x,1/2+y,1/2-z
4 1/2+x,1/2-y,-z
5 -x,-y,-z
6 1/2+x,y,1/2-z
7 x,1/2-y,1/2+z
8 1/2-x,1/2+y,z
_cell_length_a                   9.4010(19)
_cell_length_b                   19.911(4)
_cell_length_c                   27.147(5)
_cell_angle_alpha                90
_cell_angle_beta                 90
_cell_angle_gamma                90
_cell_volume                     5081.47
_exptl_crystal_colour            colorless
_exptl_crystal_description       rod
_cell_formula_units_Z            16
loop_
_atom_site_label
_atom_site_type_symbol
_atom_site_fract_x
_atom_site_fract_y
_atom_site_fract_z
Cl1 Cl 0.18088(12) 0.47221(6) 0.48402(4)
O1 O 0.4223(3) 0.75522(14) 0.47300(9)
O2 O 0.8912(3) 0.74794(17) 0.40437(10)
O3 O 0.9440(4) 0.65836(15) 0.35802(11)
N1 N 0.6553(5) 0.72661(19) 0.46521(13)
H1 H 0.741(4) 0.740(2) 0.4693(13)
C1 C 0.5959(4) 0.8288(2) 0.50800(15)
H2 H 0.5152 0.8549 0.5181
H3 H 0.6545 0.8551 0.4864
H4 H 0.6500 0.8159 0.5365
C2 C 0.5458(6) 0.7669(2) 0.48137(14)
C3 C 0.6411(4) 0.6690(2) 0.43707(16)
C4 C 0.7398(5) 0.6516(2) 0.40382(15)
H5 H 0.7296 0.6102 0.3883
C5 C 0.8622(5) 0.6926(3) 0.39007(16)
C6 C 1.0727(5) 0.6916(3) 0.34180(17)
H6 H 1.1228 0.6631 0.3192
H7 H 1.1321 0.7008 0.3698
H8 H 1.0486 0.7330 0.3257
C7 C 0.5218(4) 0.62337(19) 0.44862(15)
C8 C 0.4858(4) 0.6094(2) 0.49665(15)
H9 H 0.5318 0.6321 0.5221
C9 C 0.3827(4) 0.5625(2) 0.50780(14)
H10 H 0.3617 0.5524 0.5405
C10 C 0.3118(4) 0.53080(19) 0.47049(17)
C11 C 0.3421(4) 0.5444(2) 0.42267(15)
H11 H 0.2920 0.5232 0.3976
C12 C 0.4487(5) 0.5902(2) 0.41155(14)
H12 H 0.4714 0.5988 0.3788
Cl2 Cl 1.55472(15) 0.74602(7) 0.31374(5)
O4 O 1.2849(4) 1.01897(16) 0.29748(11)
O5 O 0.7876(3) 1.00488(18) 0.32625(12)
O6 O 0.7068(4) 0.92339(16) 0.37483(11)
N2 N 1.0530(5) 0.9866(2) 0.29037(13)
H13 H 0.967(4) 1.0065(17) 0.2837(12)
C13 C 1.1269(4) 1.0908(2) 0.25271(15)
H14 H 1.2094 1.1185 0.2480
H15 H 1.0557 1.1157 0.2703
H16 H 1.0900 1.0774 0.2212
C14 C 1.1671(7) 1.0295(3) 0.28181(15)
C15 C 1.0536(6) 0.9296(3) 0.31979(15)
C16 C 0.9353(6) 0.9116(2) 0.34552(14)
H17 H 0.9366 0.8713 0.3628
C17 C 0.8077(6) 0.9522(3) 0.34724(17)
C18 C 0.5728(5) 0.9589(3) 0.37744(17)
H18 H 0.5081 0.9345 0.3982
H19 H 0.5331 0.9628 0.3450
H20 H 0.5881 1.0029 0.3909
C19 C 1.1781(5) 0.8862(2) 0.31885(18)
C20 C 1.2457(5) 0.8709(2) 0.27503(16)
H21 H 1.2137 0.8908 0.2461
C21 C 1.3580(5) 0.8274(2) 0.27287(17)
H22 H 1.4004 0.8169 0.2429
C22 C 1.4072(5) 0.7994(2) 0.3162(2)
C23 C 1.3444(6) 0.8137(3) 0.35992(19)
H23 H 1.3792 0.7948 0.3888
C24 C 1.2294(6) 0.8562(2) 0.36134(16)
H24 H 1.1852 0.8650 0.3913
loop_
_geom_bond_atom_site_label_1
_geom_bond_atom_site_label_2
_geom_bond_site_symmetry_1
_geom_bond_site_symmetry_2
Cl1 C10 1_555 1_555
O1 C2 1_555 1_555
O2 C5 1_555 1_555
O3 C5 1_555 1_555
N1 H1 1_555 1_555
C1 H2 1_555 1_555
H3 C1 1_555 1_555
H4 C1 1_555 1_555
C2 N1 1_555 1_555
C3 N1 1_555 1_555
C4 C3 1_555 1_555
H5 C4 1_555 1_555
C5 C4 1_555 1_555
C6 O3 1_555 1_555
H6 C6 1_555 1_555
H7 C6 1_555 1_555
H8 C6 1_555 1_555
C7 C3 1_555 1_555
C8 C7 1_555 1_555
H9 C8 1_555 1_555
C9 C8 1_555 1_555
H10 C9 1_555 1_555
C10 C9 1_555 1_555
C11 C10 1_555 1_555
H11 C11 1_555 1_555
C12 C7 1_555 1_555
H12 C12 1_555 1_555
Cl2 C22 1_555 1_555
O4 C14 1_555 1_555
O5 C17 1_555 1_555
O6 C17 1_555 1_555
N2 H13 1_555 1_555
C13 H14 1_555 1_555
H15 C13 1_555 1_555
H16 C13 1_555 1_555
C14 N2 1_555 1_555
C15 N2 1_555 1_555
C16 C15 1_555 1_555
H17 C16 1_555 1_555
C17 C16 1_555 1_555
C18 O6 1_555 1_555
H18 C18 1_555 1_555
H19 C18 1_555 1_555
H20 C18 1_555 1_555
C19 C15 1_555 1_555
C20 C19 1_555 1_555
H21 C20 1_555 1_555
C21 C20 1_555 1_555
H22 C21 1_555 1_555
C22 C21 1_555 1_555
C23 C22 1_555 1_555
H23 C23 1_555 1_555
C24 C19 1_555 1_555
H24 C24 1_555 1_555
C1 C2 1_555 1_555
C11 C12 1_555 1_555
C13 C14 1_555 1_555
C23 C24 1_555 1_555

#END
