
#######################################################################
#
#                 Cambridge Crystallographic Data Centre
#                                CCDC 
#
#######################################################################
#
# If this CIF has been generated from an entry in the Cambridge 
# Structural Database, then it will include bibliographic, chemical, 
# crystal, experimental, refinement or atomic coordinate data resulting 
# from the CCDC's data processing and validation procedures.
#
#######################################################################

data_FIYCUM
_chemical_formula_moiety         'C23 H18 Br1 N1 O4'
_chemical_name_systematic        
'(3R,4R)-1-(4-methoxyphenyl)-2-oxo-4-phenylazetidin-3-yl p-bromobenzoate'
_symmetry_cell_setting           orthorhombic
_symmetry_space_group_name_H-M   'P 21 21 21'
_symmetry_Int_Tables_number      19
_space_group_name_Hall           'P 2ac 2ab'
loop_
_symmetry_equiv_pos_site_id
_symmetry_equiv_pos_as_xyz
1 x,y,z
2 1/2-x,-y,1/2+z
3 -x,1/2+y,1/2-z
4 1/2+x,1/2-y,-z
_cell_length_a                   8.901(3)
_cell_length_b                   10.392(4)
_cell_length_c                   21.842(8)
_cell_angle_alpha                90
_cell_angle_beta                 90
_cell_angle_gamma                90
_cell_volume                     2020.37
_exptl_crystal_colour            colorless
_exptl_crystal_description       rod
_cell_formula_units_Z            4
loop_
_atom_site_label
_atom_site_type_symbol
_atom_site_fract_x
_atom_site_fract_y
_atom_site_fract_z
Br1 Br 0.82758(15) 0.69214(14) 0.87890(5)
O1 O 0.4459(7) 0.6843(7) 0.6095(3)
O2 O 0.4399(10) 0.4724(8) 0.6288(3)
O3 O 0.2846(9) 0.8973(7) 0.5358(3)
O4 O 0.5880(9) 0.9487(8) 0.2555(4)
N1 N 0.3851(8) 0.7332(7) 0.4736(4)
C1 C 0.3411(12) 0.6644(10) 0.5609(4)
H1 H 0.2452 0.6275 0.5743
C2 C 0.3246(14) 0.7882(12) 0.5249(5)
C3 C 0.4046(11) 0.6022(9) 0.5003(4)
H2 H 0.5106 0.5778 0.5041
C4 C 0.4813(12) 0.5789(13) 0.6422(5)
C5 C 0.6772(13) 0.8778(11) 0.2145(5)
H3 H 0.7048 0.9314 0.1805
H4 H 0.6214 0.8049 0.1998
H5 H 0.7662 0.8487 0.2350
C6 C 0.7273(11) 0.6587(13) 0.8044(5)
C7 C 0.7028(12) 0.7589(11) 0.7630(5)
H6 H 0.7371 0.8417 0.7712
C8 C 0.6256(11) 0.7313(11) 0.7094(5)
H7 H 0.6082 0.7966 0.6811
C9 C 0.5740(12) 0.6084(12) 0.6973(5)
C10 C 0.6038(13) 0.5101(12) 0.7380(5)
H8 H 0.5729 0.4267 0.7292
C11 C 0.6806(13) 0.5360(12) 0.7926(5)
H9 H 0.6996 0.4704 0.8205
C12 C 0.4305(11) 0.7835(12) 0.4167(5)
C13 C 0.4990(10) 0.7057(11) 0.3735(5)
H10 H 0.5104 0.6183 0.3813
C14 C 0.5509(13) 0.7564(11) 0.3183(5)
H11 H 0.5941 0.7031 0.2890
C15 C 0.5377(14) 0.8847(14) 0.3081(6)
C16 C 0.4669(13) 0.9646(11) 0.3499(6)
H12 H 0.4554 1.0518 0.3414
C17 C 0.4136(13) 0.9147(11) 0.4040(5)
H13 H 0.3664 0.9681 0.4322
C18 C 0.3119(13) 0.4983(11) 0.4721(4)
C19 C 0.1729(14) 0.5251(11) 0.4488(5)
H14 H 0.1373 0.6093 0.4484
C20 C 0.0869(16) 0.4279(16) 0.4263(5)
H15 H -0.0077 0.4470 0.4107
C21 C 0.1344(18) 0.3039(18) 0.4257(6)
H16 H 0.0750 0.2399 0.4085
C22 C 0.273(2) 0.2737(13) 0.4514(6)
H17 H 0.3058 0.1887 0.4532
C23 C 0.3628(15) 0.3725(11) 0.4742(4)
H18 H 0.4565 0.3541 0.4909
loop_
_geom_bond_atom_site_label_1
_geom_bond_atom_site_label_2
_geom_bond_site_symmetry_1
_geom_bond_site_symmetry_2
Br1 C6 1_555 1_555
O1 C1 1_555 1_555
O2 C4 1_555 1_555
O3 C2 1_555 1_555
O4 C5 1_555 1_555
N1 C2 1_555 1_555
C1 H1 1_555 1_555
C2 C1 1_555 1_555
C3 N1 1_555 1_555
H2 C3 1_555 1_555
C4 O1 1_555 1_555
C5 H3 1_555 1_555
H4 C5 1_555 1_555
H5 C5 1_555 1_555
C6 C7 1_555 1_555
C7 H6 1_555 1_555
C8 C7 1_555 1_555
H7 C8 1_555 1_555
C9 C4 1_555 1_555
C10 C9 1_555 1_555
H8 C10 1_555 1_555
C11 C6 1_555 1_555
H9 C11 1_555 1_555
C12 N1 1_555 1_555
C13 C12 1_555 1_555
H10 C13 1_555 1_555
C14 C13 1_555 1_555
H11 C14 1_555 1_555
C15 O4 1_555 1_555
C16 C15 1_555 1_555
H12 C16 1_555 1_555
C17 C12 1_555 1_555
H13 C17 1_555 1_555
C18 C3 1_555 1_555
C19 C18 1_555 1_555
H14 C19 1_555 1_555
C20 C19 1_555 1_555
H15 C20 1_555 1_555
C21 C20 1_555 1_555
H16 C21 1_555 1_555
C22 C21 1_555 1_555
H17 C22 1_555 1_555
C23 C18 1_555 1_555
H18 C23 1_555 1_555
C1 C3 1_555 1_555
C8 C9 1_555 1_555
C10 C11 1_555 1_555
C14 C15 1_555 1_555
C16 C17 1_555 1_555
C22 C23 1_555 1_555

#END
