
#######################################################################
#
#                 Cambridge Crystallographic Data Centre
#                                CCDC 
#
#######################################################################
#
# If this CIF has been generated from an entry in the Cambridge 
# Structural Database, then it will include bibliographic, chemical, 
# crystal, experimental, refinement or atomic coordinate data resulting 
# from the CCDC's data processing and validation procedures.
#
#######################################################################

data_FIZFAV
_chemical_formula_moiety         'C40 H24 N4'
_chemical_name_systematic        
cis-(R,R)/(S,S)-Bi(14H-dibenzo(4,5:6,7)(1,3)diazepino(2,1-a)isoindol-14-ylidene)
_symmetry_cell_setting           orthorhombic
_symmetry_space_group_name_H-M   'P b c a'
_symmetry_Int_Tables_number      61
_space_group_name_Hall           '-P 2ac 2ab'
loop_
_symmetry_equiv_pos_site_id
_symmetry_equiv_pos_as_xyz
1 x,y,z
2 1/2-x,1/2+y,z
3 x,1/2-y,1/2+z
4 1/2-x,-y,1/2+z
5 -x,-y,-z
6 1/2+x,1/2-y,-z
7 -x,1/2+y,1/2-z
8 1/2+x,y,1/2-z
_cell_length_a                   24.600(3)
_cell_length_b                   14.039(1)
_cell_length_c                   15.931(2)
_cell_angle_alpha                90
_cell_angle_beta                 90
_cell_angle_gamma                90
_cell_volume                     5501.92
_exptl_crystal_colour            orange-red
_chemical_melting_point          270-272deg.C
_cell_formula_units_Z            8
loop_
_atom_site_label
_atom_site_type_symbol
_atom_site_fract_x
_atom_site_fract_y
_atom_site_fract_z
C1 C 0.4689(1) 0.0676(2) 0.1752(2)
C2 C 0.5240(1) 0.0831(2) 0.1419(2)
C3 C 0.5631(1) 0.0227(2) 0.1076(2)
C4 C 0.6130(1) 0.0603(2) 0.0849(2)
C5 C 0.6247(1) 0.1563(2) 0.0951(2)
C6 C 0.5867(1) 0.2174(2) 0.1295(2)
C7 C 0.5371(1) 0.1794(2) 0.1538(2)
C8 C 0.4909(1) 0.2272(2) 0.1929(2)
N1 N 0.4839(1) 0.3177(2) 0.1988(1)
C9 C 0.4325(1) 0.3545(2) 0.2213(2)
C10 C 0.4175(1) 0.4371(2) 0.1780(2)
C11 C 0.3666(1) 0.4777(2) 0.1891(2)
C12 C 0.3311(1) 0.4383(2) 0.2462(2)
C13 C 0.3461(1) 0.3594(2) 0.2931(2)
C14 C 0.3968(1) 0.3161(2) 0.2817(2)
C15 C 0.4114(1) 0.2339(2) 0.3349(2)
C16 C 0.3978(1) 0.2346(2) 0.4202(2)
C17 C 0.4084(1) 0.1573(2) 0.4715(2)
C18 C 0.4331(1) 0.0772(2) 0.4373(2)
C19 C 0.4481(1) 0.0754(2) 0.3538(2)
C20 C 0.4375(1) 0.1536(2) 0.3033(2)
N2 N 0.4533(1) 0.1543(1) 0.2159(1)
C21 C 0.4318(1) -0.0039(2) 0.1688(2)
C22 C 0.4343(1) -0.1017(2) 0.1362(2)
C23 C 0.4689(1) -0.1478(2) 0.0804(2)
C24 C 0.4600(1) -0.2434(2) 0.0632(2)
C25 C 0.4183(1) -0.2936(2) 0.1014(2)
C26 C 0.3828(1) -0.2491(2) 0.1559(2)
C27 C 0.3908(1) -0.1521(2) 0.1712(2)
C28 C 0.3593(1) -0.0885(2) 0.2246(2)
N3 N 0.3229(1) -0.1143(2) 0.2777(2)
C29 C 0.3039(1) -0.0519(2) 0.3404(2)
C30 C 0.2925(1) -0.0949(2) 0.4172(2)
C31 C 0.2757(1) -0.0430(2) 0.4855(2)
C32 C 0.2684(1) 0.0544(2) 0.4779(2)
C33 C 0.2776(1) 0.0977(2) 0.4020(2)
C34 C 0.2953(1) 0.0470(2) 0.3318(2)
C35 C 0.3011(1) 0.0972(2) 0.2508(2)
C36 C 0.2636(1) 0.1691(2) 0.2295(2)
C37 C 0.2689(1) 0.2222(2) 0.1573(2)
C38 C 0.3112(1) 0.2036(2) 0.1030(2)
C39 C 0.3478(1) 0.1313(2) 0.1209(2)
C40 C 0.3430(1) 0.0789(2) 0.1938(2)
N4 N 0.3810(1) 0.0044(1) 0.2120(1)
H1 H 0.5567(12) -0.0500(21) 0.1074(18)
H2 H 0.6446(13) 0.0143(24) 0.0651(21)
H3 H 0.6598(14) 0.1806(25) 0.0835(23)
H4 H 0.5943(13) 0.2875(23) 0.1372(21)
H5 H 0.4432(11) 0.4628(20) 0.1380(17)
H6 H 0.3543(13) 0.5358(23) 0.1507(20)
H7 H 0.2969(14) 0.4620(24) 0.2490(23)
H8 H 0.3201(12) 0.3335(21) 0.3436(19)
H9 H 0.3793(12) 0.2986(21) 0.4386(19)
H10 H 0.3953(14) 0.1540(26) 0.5479(23)
H11 H 0.4402(15) 0.0178(27) 0.4677(23)
H12 H 0.4660(12) 0.0260(21) 0.3287(18)
H13 H 0.5014(12) -0.1097(21) 0.0538(18)
H14 H 0.4846(13) -0.2758(23) 0.0219(21)
H15 H 0.4152(14) -0.3649(24) 0.0957(21)
H16 H 0.3527(13) -0.2856(22) 0.1828(20)
H17 H 0.2977(15) -0.1604(27) 0.4136(24)
H18 H 0.2722(14) -0.0778(26) 0.5434(23)
H19 H 0.2591(14) 0.0957(25) 0.5289(21)
H20 H 0.2756(12) 0.1685(21) 0.3929(19)
H21 H 0.2326(15) 0.1807(26) 0.2866(23)
H22 H 0.2379(15) 0.2714(27) 0.1403(22)
H23 H 0.3151(13) 0.2407(24) 0.0519(20)
H24 H 0.3784(12) 0.1188(21) 0.0911(18)
loop_
_geom_bond_atom_site_label_1
_geom_bond_atom_site_label_2
_geom_bond_site_symmetry_1
_geom_bond_site_symmetry_2
C1 C2 1_555 1_555
C2 C3 1_555 1_555
C3 C4 1_555 1_555
C4 C5 1_555 1_555
C5 C6 1_555 1_555
C6 C7 1_555 1_555
C7 C2 1_555 1_555
C8 C7 1_555 1_555
N1 C8 1_555 1_555
C9 N1 1_555 1_555
C10 C9 1_555 1_555
C11 C10 1_555 1_555
C12 C11 1_555 1_555
C13 C12 1_555 1_555
C14 C9 1_555 1_555
C15 C14 1_555 1_555
C16 C15 1_555 1_555
C17 C16 1_555 1_555
C18 C17 1_555 1_555
C19 C18 1_555 1_555
C20 C15 1_555 1_555
N2 C1 1_555 1_555
C21 C1 1_555 1_555
C22 C21 1_555 1_555
C23 C22 1_555 1_555
C24 C23 1_555 1_555
C25 C24 1_555 1_555
C26 C25 1_555 1_555
C27 C22 1_555 1_555
C28 C27 1_555 1_555
N3 C28 1_555 1_555
C29 N3 1_555 1_555
C30 C29 1_555 1_555
C31 C30 1_555 1_555
C32 C31 1_555 1_555
C33 C32 1_555 1_555
C34 C29 1_555 1_555
C35 C34 1_555 1_555
C36 C35 1_555 1_555
C37 C36 1_555 1_555
C38 C37 1_555 1_555
C39 C38 1_555 1_555
C40 C35 1_555 1_555
N4 C21 1_555 1_555
H1 C3 1_555 1_555
H2 C4 1_555 1_555
H3 C5 1_555 1_555
H4 C6 1_555 1_555
H5 C10 1_555 1_555
H6 C11 1_555 1_555
H7 C12 1_555 1_555
H8 C13 1_555 1_555
H9 C16 1_555 1_555
H10 C17 1_555 1_555
H11 C18 1_555 1_555
H12 C19 1_555 1_555
H13 C23 1_555 1_555
H14 C24 1_555 1_555
H15 C25 1_555 1_555
H16 C26 1_555 1_555
H17 C30 1_555 1_555
H18 C31 1_555 1_555
H19 C32 1_555 1_555
H20 C33 1_555 1_555
H21 C36 1_555 1_555
H22 C37 1_555 1_555
H23 C38 1_555 1_555
H24 C39 1_555 1_555
C8 N2 1_555 1_555
C13 C14 1_555 1_555
C19 C20 1_555 1_555
C20 N2 1_555 1_555
C26 C27 1_555 1_555
C28 N4 1_555 1_555
C33 C34 1_555 1_555
C39 C40 1_555 1_555
C40 N4 1_555 1_555

#END
