
#######################################################################
#
#                 Cambridge Crystallographic Data Centre
#                                CCDC 
#
#######################################################################
#
# If this CIF has been generated from an entry in the Cambridge 
# Structural Database, then it will include bibliographic, chemical, 
# crystal, experimental, refinement or atomic coordinate data resulting 
# from the CCDC's data processing and validation procedures.
#
#######################################################################

data_FIZLOR
_chemical_formula_moiety         'C26 H22 N1 S1 1+,Cl1 O4 1-'
_chemical_name_systematic        
'10,10-Dimethyl-8-(2-(5-phenyl-2-thienyl)vinyl)-10H-pyrido[1,2-a]indolium perchlorate'
_symmetry_cell_setting           monoclinic
_symmetry_space_group_name_H-M   'P 21/c'
_symmetry_Int_Tables_number      14
_space_group_name_Hall           '-P 2ybc'
loop_
_symmetry_equiv_pos_site_id
_symmetry_equiv_pos_as_xyz
1 x,y,z
2 -x,1/2+y,1/2-z
3 -x,-y,-z
4 x,1/2-y,1/2+z
_cell_length_a                   9.726(5)
_cell_length_b                   17.453(9)
_cell_length_c                   13.922(7)
_cell_angle_alpha                90
_cell_angle_beta                 93.884(8)
_cell_angle_gamma                90
_cell_volume                     2357.8
_exptl_crystal_description       BLOCK
_cell_formula_units_Z            4
loop_
_atom_site_label
_atom_site_type_symbol
_atom_site_fract_x
_atom_site_fract_y
_atom_site_fract_z
S1 S 0.31010(13) 1.01124(9) 0.45383(9)
N1 N -0.1620(4) 0.8817(2) 0.8253(2)
C1 C -0.2593(4) 0.8538(3) 0.8886(3)
C2 C -0.3331(5) 0.8954(3) 0.9523(3)
H1 H -0.3179 0.9475 0.9626
C3 C -0.4308(6) 0.8553(4) 1.0000(4)
H2 H -0.4839 0.8808 1.0430
C4 C -0.4505(6) 0.7765(4) 0.9839(4)
H3 H -0.5183 0.7507 1.0150
C5 C -0.3691(6) 0.7362(3) 0.9214(4)
H4 H -0.3796 0.6836 0.9129
C6 C -0.2734(5) 0.7762(3) 0.8731(3)
C7 C -0.1771(5) 0.7491(3) 0.7982(4)
C8 C -0.1143(5) 0.8235(2) 0.7699(3)
C9 C -0.2521(7) 0.7096(3) 0.7120(4)
H5 H -0.3291 0.7404 0.6888
H6 H -0.2842 0.6603 0.7312
H7 H -0.1900 0.7034 0.6619
C10 C -0.0614(6) 0.6975(3) 0.8444(5)
H8 H -0.0008 0.6824 0.7961
H9 H -0.1014 0.6527 0.8712
H10 H -0.0101 0.7253 0.8943
C11 C -0.0251(5) 0.8426(3) 0.6992(3)
H11 H 0.0078 0.8038 0.6609
C12 C 0.0163(5) 0.9180(3) 0.6840(3)
C13 C -0.0317(5) 0.9732(3) 0.7449(4)
H12 H -0.0036 1.0238 0.7385
C14 C -0.1203(5) 0.9549(2) 0.8150(4)
H13 H -0.1513 0.9929 0.8550
C15 C 0.1049(5) 0.9433(3) 0.6065(4)
H14 H 0.1290 0.9948 0.6040
C16 C 0.1499(5) 0.8975(3) 0.5426(4)
H15 H 0.1231 0.8465 0.5454
C17 C 0.2405(5) 0.9192(3) 0.4652(4)
C18 C 0.2791(6) 0.8712(4) 0.3972(4)
H16 H 0.2523 0.8202 0.3917
C19 C 0.3656(6) 0.9083(3) 0.3352(4)
H17 H 0.4017 0.8832 0.2836
C20 C 0.3936(5) 0.9836(3) 0.3551(3)
C21 C 0.4832(4) 1.0357(3) 0.3044(3)
C22 C 0.5594(6) 1.0074(3) 0.2299(4)
H18 H 0.5514 0.9563 0.2116
C23 C 0.6476(7) 1.0566(5) 0.1832(4)
H19 H 0.6990 1.0379 0.1344
C24 C 0.6583(6) 1.1326(4) 0.2098(5)
H20 H 0.7151 1.1656 0.1781
C25 C 0.5862(6) 1.1583(4) 0.2814(5)
H21 H 0.5945 1.2096 0.2993
C26 C 0.5007(6) 1.1121(3) 0.3292(4)
H22 H 0.4535 1.1322 0.3794
Cl1 Cl 0.84972(14) 0.14786(6) 0.94265(9)
O1 O 0.9474(10) 0.1359(6) 0.8807(8)
O2 O 0.7535(8) 0.0897(3) 0.9423(6)
O3 O 0.7954(15) 0.1980(8) 0.8757(10)
O4 O 0.8330(13) 0.2019(5) 1.0080(8)
loop_
_geom_bond_atom_site_label_1
_geom_bond_atom_site_label_2
_geom_bond_site_symmetry_1
_geom_bond_site_symmetry_2
S1 C17 1_555 1_555
N1 C1 1_555 1_555
C1 C2 1_555 1_555
C2 H1 1_555 1_555
C3 C2 1_555 1_555
H2 C3 1_555 1_555
C4 C3 1_555 1_555
H3 C4 1_555 1_555
C5 C4 1_555 1_555
H4 C5 1_555 1_555
C6 C1 1_555 1_555
C7 C6 1_555 1_555
C8 N1 1_555 1_555
C9 C7 1_555 1_555
H5 C9 1_555 1_555
H6 C9 1_555 1_555
H7 C9 1_555 1_555
C10 C7 1_555 1_555
H8 C10 1_555 1_555
H9 C10 1_555 1_555
H10 C10 1_555 1_555
C11 C8 1_555 1_555
H11 C11 1_555 1_555
C12 C11 1_555 1_555
C13 C12 1_555 1_555
H12 C13 1_555 1_555
C14 N1 1_555 1_555
H13 C14 1_555 1_555
C15 C12 1_555 1_555
H14 C15 1_555 1_555
C16 C15 1_555 1_555
H15 C16 1_555 1_555
C17 C16 1_555 1_555
C18 C17 1_555 1_555
H16 C18 1_555 1_555
C19 C18 1_555 1_555
H17 C19 1_555 1_555
C20 S1 1_555 1_555
C21 C20 1_555 1_555
C22 C21 1_555 1_555
H18 C22 1_555 1_555
C23 C22 1_555 1_555
H19 C23 1_555 1_555
C24 C23 1_555 1_555
H20 C24 1_555 1_555
C25 C24 1_555 1_555
H21 C25 1_555 1_555
C26 C21 1_555 1_555
H22 C26 1_555 1_555
Cl1 O1 1_555 1_555
O2 Cl1 1_555 1_555
O3 Cl1 1_555 1_555
O4 Cl1 1_555 1_555
C5 C6 1_555 1_555
C7 C8 1_555 1_555
C13 C14 1_555 1_555
C19 C20 1_555 1_555
C25 C26 1_555 1_555

#END
