
#######################################################################
#
#                 Cambridge Crystallographic Data Centre
#                                CCDC 
#
#######################################################################
#
# If this CIF has been generated from an entry in the Cambridge 
# Structural Database, then it will include bibliographic, chemical, 
# crystal, experimental, refinement or atomic coordinate data resulting 
# from the CCDC's data processing and validation procedures.
#
#######################################################################

data_FIZLIK
_chemical_compound_source        
'stems of Casearia membranacea Hance (Flacourtiaceae)'
_chemical_name_common            'Casearimene A'
_chemical_formula_moiety         'C20 H30 O2'
_chemical_name_systematic        15-Hydroxydolabell-2Z,7E,11E-trien-1-one
_chemical_properties_biological  
'no cytotoxicity against P-388, A549 or HT-29 cancer cell lines'
_symmetry_cell_setting           orthorhombic
_symmetry_space_group_name_H-M   'P 21 21 21'
_symmetry_Int_Tables_number      19
_space_group_name_Hall           'P 2ac 2ab'
loop_
_symmetry_equiv_pos_site_id
_symmetry_equiv_pos_as_xyz
1 x,y,z
2 1/2-x,-y,1/2+z
3 1/2+x,1/2-y,-z
4 -x,1/2+y,1/2-z
_cell_length_a                   8.4384(11)
_cell_length_b                   9.9271(13)
_cell_length_c                   21.627(3)
_cell_angle_alpha                90
_cell_angle_beta                 90
_cell_angle_gamma                90
_cell_volume                     1811.67
_exptl_crystal_colour            colorless
_exptl_crystal_description       needle
_chemical_melting_point          176-178deg.C
_cell_formula_units_Z            4
_exptl_crystal_recrystallization_method methanol
loop_
_atom_site_label
_atom_site_type_symbol
_atom_site_fract_x
_atom_site_fract_y
_atom_site_fract_z
C1 C 0.7041(3) 0.0759(3) 0.2405(1)
C2 C 0.6672(3) 0.0949(3) 0.1729(1)
C3 C 0.7339(4) 0.2325(3) 0.1507(1)
C4 C 0.7478(5) 0.2544(4) 0.0802(2)
C5 C 0.8207(4) 0.1387(4) 0.0464(2)
C6 C 0.7372(4) 0.0710(4) 0.0052(2)
C7 C 0.7738(5) -0.0626(4) -0.0238(2)
C8 C 0.6385(5) -0.1623(4) -0.0115(2)
C9 C 0.6025(4) -0.1699(3) 0.0567(2)
C10 C 0.4860(4) -0.0984(3) 0.0808(2)
C11 C 0.4469(3) -0.0727(3) 0.1467(1)
C12 C 0.4847(3) 0.0725(3) 0.1689(1)
C13 C 0.4337(3) 0.0754(3) 0.2362(1)
C14 C 0.5732(3) 0.0700(3) 0.2750(1)
C15 C 0.8696(3) 0.0654(3) 0.2663(1)
C16 C 0.9070(4) 0.1916(3) 0.3039(1)
O1 O 0.9763(2) 0.0540(2) 0.2156(1)
C17 C 0.9866(4) 0.1043(4) 0.0645(2)
C18 C 0.7182(5) -0.2500(4) 0.0943(2)
C19 C 0.3877(4) 0.1752(3) 0.1323(2)
O2 O 0.2959(2) 0.0755(3) 0.2550(1)
C20 C 0.8860(4) -0.0600(3) 0.3068(1)
H1 H 0.7199 0.0231 0.1495
H2 H 0.6668 0.3031 0.1673
H3 H 0.8384 0.2440 0.1686
H4 H 0.6429 0.2707 0.0635
H5 H 0.8110 0.3344 0.0727
H6 H 0.6433 0.1115 -0.0075
H7 H 0.7878 -0.0514 -0.0681
H8 H 0.8718 -0.0979 -0.0068
H9 H 0.6681 -0.2509 -0.0266
H10 H 0.5444 -0.1337 -0.0337
H11 H 0.4184 -0.0582 0.0522
H12 H 0.5054 -0.1359 0.1722
H13 H 0.3349 -0.0899 0.1530
H14 H 0.5718 0.0634 0.3179
H15 H 0.8966 0.2697 0.2781
H16 H 1.0135 0.1862 0.3194
H17 H 0.8345 0.1982 0.3380
H18 H 1.0677 0.0610 0.2281
H19 H 1.0225 0.0288 0.0405
H20 H 0.9897 0.0816 0.1076
H21 H 1.0543 0.1802 0.0569
H22 H 0.6857 -0.2500 0.1368
H23 H 0.8216 -0.2104 0.0909
H24 H 0.7214 -0.3410 0.0792
H25 H 0.4120 0.2644 0.1466
H26 H 0.2768 0.1577 0.1380
H27 H 0.4134 0.1682 0.0891
H28 H 0.8617 -0.1387 0.2827
H29 H 0.8141 -0.0540 0.3410
H30 H 0.9927 -0.0663 0.3219
loop_
_geom_bond_atom_site_label_1
_geom_bond_atom_site_label_2
_geom_bond_site_symmetry_1
_geom_bond_site_symmetry_2
C1 C2 1_555 1_555
C2 C3 1_555 1_555
C3 C4 1_555 1_555
C4 C5 1_555 1_555
C5 C6 1_555 1_555
C6 C7 1_555 1_555
C7 C8 1_555 1_555
C8 C9 1_555 1_555
C9 C10 1_555 1_555
C10 C11 1_555 1_555
C11 C12 1_555 1_555
C12 C2 1_555 1_555
C13 C12 1_555 1_555
C14 C1 1_555 1_555
C15 C1 1_555 1_555
C16 C15 1_555 1_555
O1 C15 1_555 1_555
C17 C5 1_555 1_555
C18 C9 1_555 1_555
C19 C12 1_555 1_555
O2 C13 1_555 1_555
C20 C15 1_555 1_555
H1 C2 1_555 1_555
H2 C3 1_555 1_555
H3 C3 1_555 1_555
H4 C4 1_555 1_555
H5 C4 1_555 1_555
H6 C6 1_555 1_555
H7 C7 1_555 1_555
H8 C7 1_555 1_555
H9 C8 1_555 1_555
H10 C8 1_555 1_555
H11 C10 1_555 1_555
H12 C11 1_555 1_555
H13 C11 1_555 1_555
H14 C14 1_555 1_555
H15 C16 1_555 1_555
H16 C16 1_555 1_555
H17 C16 1_555 1_555
H18 O1 1_555 1_555
H19 C17 1_555 1_555
H20 C17 1_555 1_555
H21 C17 1_555 1_555
H22 C18 1_555 1_555
H23 C18 1_555 1_555
H24 C18 1_555 1_555
H25 C19 1_555 1_555
H26 C19 1_555 1_555
H27 C19 1_555 1_555
H28 C20 1_555 1_555
H29 C20 1_555 1_555
H30 C20 1_555 1_555
C13 C14 1_555 1_555

#END
