
#######################################################################
#
#                 Cambridge Crystallographic Data Centre
#                                CCDC 
#
#######################################################################
#
# If this CIF has been generated from an entry in the Cambridge 
# Structural Database, then it will include bibliographic, chemical, 
# crystal, experimental, refinement or atomic coordinate data resulting 
# from the CCDC's data processing and validation procedures.
#
#######################################################################

data_FIZMEJ
_chemical_formula_moiety         'C18 H18 O8,C4 H10 O1'
_chemical_name_systematic        
'1-butoxy-7,8-dihydroxy-3-methyl-10-oxo-1H,10H-pyrano[4,3-b][1]benzopyran-9-carboxylic acid butan-1-ol solvate'
_symmetry_cell_setting           triclinic
_symmetry_space_group_name_H-M   'P -1'
_symmetry_Int_Tables_number      2
_space_group_name_Hall           '-P 1'
loop_
_symmetry_equiv_pos_site_id
_symmetry_equiv_pos_as_xyz
1 x,y,z
2 -x,-y,-z
_cell_length_a                   8.8799(3)
_cell_length_b                   9.3901(3)
_cell_length_c                   13.5777(4)
_cell_angle_alpha                80.294(6)
_cell_angle_beta                 73.539(5)
_cell_angle_gamma                84.330(6)
_cell_volume                     1068.65
_exptl_crystal_colour            yellow
_exptl_crystal_description       platelet
_cell_formula_units_Z            2
loop_
_atom_site_label
_atom_site_type_symbol
_atom_site_fract_x
_atom_site_fract_y
_atom_site_fract_z
O1 O -0.1934(15) 0.5953(14) 0.8555(10)
C1 C -0.3215(16) 0.5594(11) 0.9439(10)
H1 H -0.3489 0.4587 0.9474
H2 H -0.4145 0.6244 0.9385
C2 C -0.2245(17) 0.7429(16) 1.1522(8)
H3 H -0.2137 0.8449 1.1550
H4 H -0.3110 0.7050 1.2107
H5 H -0.1264 0.6874 1.1562
C3 C -0.2777(10) 0.5747(11) 1.0396(6)
H6 H -0.1774 0.5183 1.0396
H7 H -0.3594 0.5325 1.1009
C4 C -0.2593(9) 0.7294(10) 1.0499(6)
H8 H -0.3572 0.7875 1.0457
H9 H -0.1727 0.7698 0.9912
O2 O 0.1149(2) 0.6925(2) 0.53240(17)
O3 O 0.4716(3) 0.1969(2) 0.46242(18)
H10 H 0.5496 0.2243 0.4133
O4 O 0.0595(3) 0.1203(2) 0.68206(18)
H11 H 0.0016 0.1965 0.6876
O5 O -0.3164(3) 0.7419(2) 0.73322(18)
O6 O -0.0917(3) 0.3389(2) 0.71944(18)
O7 O 0.5490(2) 0.4500(2) 0.34202(17)
H12 H 0.5924 0.3667 0.3385
O8 O 0.2950(3) 0.0489(2) 0.59864(18)
C5 C 0.3706(4) 0.3100(3) 0.4841(3)
C6 C 0.1327(4) 0.4306(3) 0.5826(2)
C7 C 0.1905(4) 0.5597(3) 0.5207(3)
C8 C 0.3274(4) 0.5665(3) 0.4404(3)
H13 H 0.3579 0.6566 0.3992
C9 C 0.2299(4) 0.3001(3) 0.5621(3)
C10 C 0.4181(4) 0.4440(3) 0.4205(3)
C11 C -0.0846(4) 0.5862(3) 0.6710(3)
C12 C -0.0160(4) 0.4441(4) 0.6599(3)
C13 C 0.1927(4) 0.1494(3) 0.6176(3)
C14 C -0.0192(4) 0.7038(4) 0.6094(3)
C15 C -0.2302(4) 0.6077(4) 0.7556(3)
H14 H -0.2997 0.5275 0.7610
C16 C -0.2351(4) 0.8583(4) 0.6800(3)
C17 C -0.0884(4) 0.8457(4) 0.6190(3)
H15 H -0.0324 0.9287 0.5833
C18 C -0.3298(4) 0.9966(4) 0.6940(3)
H16 H -0.4331 0.9769 0.7426
H17 H -0.2754 1.0596 0.7219
H18 H -0.3432 1.0447 0.6269
O10 O 0.2433(3) 0.7633(2) 0.70105(17)
H28 H 0.2575 0.8462 0.6663
C23 C 0.1590(4) 0.7763(4) 0.8066(3)
H29 H 0.1123 0.6832 0.8411
H30 H 0.0719 0.8509 0.8070
C24 C 0.2623(4) 0.8167(5) 0.8672(3)
H31 H 0.3088 0.9099 0.8328
H32 H 0.3495 0.7422 0.8667
C25 C 0.1738(5) 0.8302(5) 0.9785(3)
H33 H 0.1326 0.7352 1.0138
H34 H 0.0826 0.9001 0.9787
C26 C 0.2731(5) 0.8795(6) 1.0399(4)
H35 H 0.2088 0.8860 1.1109
H36 H 0.3622 0.8097 1.0417
H37 H 0.3123 0.9747 1.0066
O9? O -0.171(3) 0.628(2) 0.8317(17)
C19? C -0.296(2) 0.6226(16) 0.9297(13)
H19? H -0.3422 0.5266 0.9491
H20? H -0.3810 0.6974 0.9228
C20? C -0.266(2) 0.7070(19) 1.1925(12)
H21? H -0.3469 0.7142 1.2579
H22? H -0.1839 0.6336 1.2049
H23? H -0.2187 0.8008 1.1654
C21? C -0.2215(14) 0.6503(12) 1.0098(9)
H24? H -0.1646 0.7406 0.9844
H25? H -0.1434 0.5701 1.0195
C22? C -0.3394(12) 0.6639(13) 1.1134(7)
H26? H -0.3886 0.5703 1.1420
H27? H -0.4234 0.7374 1.1026
loop_
_geom_bond_atom_site_label_1
_geom_bond_atom_site_label_2
_geom_bond_site_symmetry_1
_geom_bond_site_symmetry_2
O1 C1 1_555 1_555
C1 H1 1_555 1_555
H2 C1 1_555 1_555
C2 H3 1_555 1_555
H4 C2 1_555 1_555
H5 C2 1_555 1_555
C3 C1 1_555 1_555
H6 C3 1_555 1_555
H7 C3 1_555 1_555
C4 C2 1_555 1_555
H8 C4 1_555 1_555
H9 C4 1_555 1_555
O2 C7 1_555 1_555
O3 H10 1_555 1_555
O4 H11 1_555 1_555
O5 C15 1_555 1_555
O6 C12 1_555 1_555
O7 H12 1_555 1_555
O8 C13 1_555 1_555
C5 O3 1_555 1_555
C6 C7 1_555 1_555
C7 C8 1_555 1_555
C8 H13 1_555 1_555
C9 C5 1_555 1_555
C10 O7 1_555 1_555
C11 C12 1_555 1_555
C12 C6 1_555 1_555
C13 O4 1_555 1_555
C14 O2 1_555 1_555
C15 O1 1_555 1_555
H14 C15 1_555 1_555
C16 O5 1_555 1_555
C17 C14 1_555 1_555
H15 C17 1_555 1_555
C18 C16 1_555 1_555
H16 C18 1_555 1_555
H17 C18 1_555 1_555
H18 C18 1_555 1_555
O10 H28 1_555 1_555
C23 O10 1_555 1_555
H29 C23 1_555 1_555
H30 C23 1_555 1_555
C24 C23 1_555 1_555
H31 C24 1_555 1_555
H32 C24 1_555 1_555
C25 C24 1_555 1_555
H33 C25 1_555 1_555
H34 C25 1_555 1_555
C26 C25 1_555 1_555
H35 C26 1_555 1_555
H36 C26 1_555 1_555
H37 C26 1_555 1_555
C3 C4 1_555 1_555
C5 C10 1_555 1_555
C6 C9 1_555 1_555
C8 C10 1_555 1_555
C9 C13 1_555 1_555
C11 C14 1_555 1_555
C11 C15 1_555 1_555
C16 C17 1_555 1_555

#END
