
#######################################################################
#
#                 Cambridge Crystallographic Data Centre
#                                CCDC 
#
#######################################################################
#
# If this CIF has been generated from an entry in the Cambridge 
# Structural Database, then it will include bibliographic, chemical, 
# crystal, experimental, refinement or atomic coordinate data resulting 
# from the CCDC's data processing and validation procedures.
#
#######################################################################

data_FIZQAH
_chemical_formula_moiety         'C9 H13 N1 O2'
_chemical_name_systematic        
(1S*,2S*,7aS*)-1-Ethenyl-2-hydroxy-5-oxohexahydro-1H-pyrrolizine
_symmetry_cell_setting           orthorhombic
_symmetry_space_group_name_H-M   'P b c a'
_symmetry_Int_Tables_number      61
_space_group_name_Hall           '-P 2ac 2ab'
loop_
_symmetry_equiv_pos_site_id
_symmetry_equiv_pos_as_xyz
1 x,y,z
2 1/2-x,-y,1/2+z
3 1/2+x,1/2-y,-z
4 -x,1/2+y,1/2-z
5 -x,-y,-z
6 1/2+x,y,1/2-z
7 1/2-x,1/2+y,z
8 x,1/2-y,1/2+z
_cell_length_a                   10.1964(6)
_cell_length_b                   8.2249(5)
_cell_length_c                   20.1219(12)
_cell_angle_alpha                90
_cell_angle_beta                 90
_cell_angle_gamma                90
_cell_volume                     1687.51
_exptl_crystal_colour            white
_chemical_melting_point          100.2deg.C
_cell_formula_units_Z            8
loop_
_atom_site_label
_atom_site_type_symbol
_atom_site_fract_x
_atom_site_fract_y
_atom_site_fract_z
O1 O 0.49009(9) 0.37118(13) 0.11468(5)
O2 O 0.07824(10) 0.46964(12) 0.26090(5)
N1 N 0.27679(11) 0.30038(14) 0.13534(6)
C1 C 0.17983(15) 0.3423(2) 0.03005(7)
C2 C 0.32988(15) 0.33863(19) 0.02480(7)
C3 C 0.37757(13) 0.33959(16) 0.09613(7)
C4 C 0.26167(13) 0.32768(18) 0.20686(6)
C5 C 0.11159(13) 0.34503(16) 0.21570(6)
C6 C 0.06052(13) 0.38682(16) 0.14551(6)
C7 C 0.15054(13) 0.28549(17) 0.10112(7)
C8 C -0.08258(13) 0.35672(19) 0.13568(7)
C9 C -0.16997(14) 0.4708(2) 0.12453(7)
H1 H 0.0549 0.4282 0.2972
H2 H 0.1460 0.4537 0.0226
H3 H 0.1395 0.2682 -0.0029
H4 H 0.3597 0.2393 0.0015
H5 H 0.3627 0.4351 0.0005
H6 H 0.3078 0.4278 0.2210
H7 H 0.2959 0.2344 0.2327
H8 H 0.0733 0.2394 0.2308
H9 H 0.0784 0.5044 0.1368
H10 H 0.1213 0.1694 0.1000
H11 H -0.1125 0.2474 0.1376
H12 H -0.1436 0.5814 0.1222
H13 H -0.2596 0.4426 0.1187
loop_
_geom_bond_atom_site_label_1
_geom_bond_atom_site_label_2
_geom_bond_site_symmetry_1
_geom_bond_site_symmetry_2
O1 C3 1_555 1_555
O2 C5 1_555 1_555
N1 C3 1_555 1_555
C1 C2 1_555 1_555
C2 C3 1_555 1_555
C4 N1 1_555 1_555
C5 C4 1_555 1_555
C6 C5 1_555 1_555
C7 N1 1_555 1_555
C8 C6 1_555 1_555
C9 C8 1_555 1_555
H1 O2 1_555 1_555
H2 C1 1_555 1_555
H3 C1 1_555 1_555
H4 C2 1_555 1_555
H5 C2 1_555 1_555
H6 C4 1_555 1_555
H7 C4 1_555 1_555
H8 C5 1_555 1_555
H9 C6 1_555 1_555
H10 C7 1_555 1_555
H11 C8 1_555 1_555
H12 C9 1_555 1_555
H13 C9 1_555 1_555
C1 C7 1_555 1_555
C6 C7 1_555 1_555

#END
