
#######################################################################
#
#                 Cambridge Crystallographic Data Centre
#                                CCDC 
#
#######################################################################
#
# If this CIF has been generated from an entry in the Cambridge 
# Structural Database, then it will include bibliographic, chemical, 
# crystal, experimental, refinement or atomic coordinate data resulting 
# from the CCDC's data processing and validation procedures.
#
#######################################################################

data_FOBMEP
_chemical_formula_moiety         'C12 H8 Cl1 N3 O3'
_chemical_name_systematic        2-Chloro-N-(2-nitrophenyl)nicotinamide
_symmetry_cell_setting           monoclinic
_symmetry_space_group_name_H-M   'P 21/c'
_symmetry_Int_Tables_number      14
_space_group_name_Hall           '-P 2ybc'
loop_
_symmetry_equiv_pos_site_id
_symmetry_equiv_pos_as_xyz
1 x,y,z
2 -x,1/2+y,1/2-z
3 -x,-y,-z
4 x,1/2-y,1/2+z
_cell_length_a                   6.99640(10)
_cell_length_b                   22.4244(4)
_cell_length_c                   7.20850(10)
_cell_angle_alpha                90
_cell_angle_beta                 93.0910(11)
_cell_angle_gamma                90
_cell_volume                     1129.3
_exptl_crystal_colour            colorless
_exptl_crystal_description       block
_chemical_melting_point          430-432K
_cell_formula_units_Z            4
_exptl_crystal_recrystallization_method acetone
loop_
_atom_site_label
_atom_site_type_symbol
_atom_site_fract_x
_atom_site_fract_y
_atom_site_fract_z
Cl1 Cl 0.52679(5) 0.284888(15) 0.46820(5)
O1 O 0.08692(16) 0.40079(5) 0.48472(16)
O2 O 0.68027(16) 0.36970(4) 0.86260(16)
O3 O 0.89794(16) 0.43787(5) 0.86521(19)
N1 N 0.27639(18) 0.20372(5) 0.53499(17)
N2 N 0.34113(17) 0.39216(5) 0.69864(17)
N3 N 0.73074(17) 0.42201(5) 0.84092(17)
C1 C 0.3039(2) 0.26202(6) 0.53946(18)
C2 C 0.1696(2) 0.30406(6) 0.59056(18)
C3 C -0.0066(2) 0.28190(6) 0.6405(2)
C4 C -0.0387(2) 0.22109(7) 0.6399(2)
C5 C 0.1063(2) 0.18371(6) 0.5865(2)
C6 C 0.1949(2) 0.37087(6) 0.58400(19)
C7 C 0.3999(2) 0.45183(6) 0.71937(18)
C8 C 0.5865(2) 0.46698(6) 0.78843(18)
C9 C 0.6440(2) 0.52602(6) 0.81192(19)
C10 C 0.5170(2) 0.57156(6) 0.7690(2)
C11 C 0.3328(2) 0.55773(6) 0.6999(2)
C12 C 0.2747(2) 0.49912(6) 0.67514(19)
H1 H -0.1043 0.3085 0.6748
H2 H -0.1573 0.2053 0.6752
H3 H 0.0842 0.1419 0.5863
H4 H 0.4055 0.3657 0.7669
H5 H 0.7707 0.5349 0.8575
H6 H 0.5548 0.6120 0.7863
H7 H 0.2453 0.5891 0.6691
H8 H 0.1482 0.4909 0.6275
loop_
_geom_bond_atom_site_label_1
_geom_bond_atom_site_label_2
_geom_bond_site_symmetry_1
_geom_bond_site_symmetry_2
Cl1 C1 1_555 1_555
O1 C6 1_555 1_555
O2 N3 1_555 1_555
O3 N3 1_555 1_555
N1 C1 1_555 1_555
N2 C6 1_555 1_555
N3 C8 1_555 1_555
C1 C2 1_555 1_555
C2 C3 1_555 1_555
C3 C4 1_555 1_555
C4 C5 1_555 1_555
C5 N1 1_555 1_555
C6 C2 1_555 1_555
C7 N2 1_555 1_555
C8 C7 1_555 1_555
C9 C8 1_555 1_555
C10 C9 1_555 1_555
C11 C10 1_555 1_555
C12 C7 1_555 1_555
H1 C3 1_555 1_555
H2 C4 1_555 1_555
H3 C5 1_555 1_555
H4 N2 1_555 1_555
H5 C9 1_555 1_555
H6 C10 1_555 1_555
H7 C11 1_555 1_555
H8 C12 1_555 1_555
C11 C12 1_555 1_555

#END
