
#######################################################################
#
#                 Cambridge Crystallographic Data Centre
#                                CCDC 
#
#######################################################################
#
# If this CIF has been generated from an entry in the Cambridge 
# Structural Database, then it will include bibliographic, chemical, 
# crystal, experimental, refinement or atomic coordinate data resulting 
# from the CCDC's data processing and validation procedures.
#
#######################################################################

data_FOBMAN
_chemical_formula_moiety         'C70 H46 N6 O12,2.5(C1 H1 Cl3)'
_chemical_name_systematic        
"cyclo-2,2':9',2'':9''-9-tris(cyclohexane-1,2-diyl)tris(isoquinolino[4',5',6':6,5,10]anthra[2,1,9-def]isoquinoline-1,3,8,10(2H,9H)-tetrone) chloroform unknown solvate"
_symmetry_cell_setting           monoclinic
_symmetry_space_group_name_H-M   'C 2'
_symmetry_Int_Tables_number      5
_space_group_name_Hall           'C 2y'
loop_
_symmetry_equiv_pos_site_id
_symmetry_equiv_pos_as_xyz
1 x,y,z
2 -x,y,-z
3 1/2+x,1/2+y,z
4 1/2-x,1/2+y,-z
_cell_length_a                   43.1347(12)
_cell_length_b                   14.6175(4)
_cell_length_c                   24.2886(6)
_cell_angle_alpha                90
_cell_angle_beta                 102.9369(16)
_cell_angle_gamma                90
_cell_volume                     14925.8
_exptl_crystal_colour            orange
_exptl_crystal_description       plate
_cell_formula_units_Z            8
loop_
_atom_site_label
_atom_site_type_symbol
_atom_site_fract_x
_atom_site_fract_y
_atom_site_fract_z
O1 O 0.30117(13) 0.8472(3) -0.0374(2)
O2 O 0.18339(14) 0.9307(4) 0.3329(3)
O3 O 0.14305(14) 0.6485(4) 0.3019(3)
O4 O 0.28179(14) 0.5416(3) -0.0374(2)
O5 O 0.10718(14) 0.9599(4) 0.2593(2)
O6 O 0.06326(17) 1.0340(4) -0.0333(3)
O7 O 0.02875(16) 0.7394(4) -0.0591(3)
O8 O 0.07209(17) 0.6668(4) 0.2331(3)
O9 O 0.09423(14) 0.9806(4) -0.1456(3)
O10 O 0.25307(12) 0.9103(3) -0.1620(2)
O11 O 0.23974(13) 0.6046(3) -0.1480(3)
O12 O 0.08527(16) 0.6783(5) -0.1053(5)
N1 N 0.28931(15) 0.6946(4) -0.0410(2)
N2 N 0.15692(14) 0.7987(4) 0.3079(3)
N3 N 0.09164(14) 0.8124(4) 0.2475(3)
N4 N 0.04952(16) 0.8832(5) -0.0482(3)
N5 N 0.08795(16) 0.8282(5) -0.1331(3)
N6 N 0.24848(15) 0.7580(4) -0.1438(3)
C1 C 0.30056(19) 0.6831(6) -0.0950(3)
H1 H 0.2952 0.6191 -0.1084
C2 C 0.06562(18) 0.8535(5) 0.0700(3)
C3 C 0.2901(2) 0.7141(6) -0.1983(3)
H2 H 0.2825 0.6506 -0.2062
H3 H 0.2789 0.7538 -0.2294
C4 C 0.3256(2) 0.7186(7) -0.1938(4)
H4 H 0.3325 0.7834 -0.1905
H5 H 0.3305 0.6935 -0.2288
C5 C 0.3446(2) 0.6649(6) -0.1427(4)
H6 H 0.3404 0.5987 -0.1487
H7 H 0.3677 0.6752 -0.1395
C6 C 0.3357(2) 0.6945(6) -0.0886(4)
H8 H 0.3473 0.6568 -0.0567
H9 H 0.3417 0.7593 -0.0804
C7 C 0.28340(18) 0.7469(5) -0.1415(3)
H10 H 0.2934 0.8087 -0.1335
C8 C 0.29038(17) 0.7817(5) -0.0167(3)
C9 C 0.27651(17) 0.7919(5) 0.0338(3)
C10 C 0.27796(17) 0.8746(5) 0.0612(3)
H11 H 0.2890 0.9244 0.0491
C11 C 0.26354(17) 0.8860(5) 0.1059(3)
H12 H 0.2648 0.9441 0.1239
C12 C 0.24727(17) 0.8162(5) 0.1257(3)
C13 C 0.22998(16) 0.8282(5) 0.1701(3)
C14 C 0.22919(17) 0.9129(5) 0.1964(3)
H13 H 0.2399 0.9636 0.1846
C15 C 0.21298(17) 0.9245(5) 0.2399(3)
H14 H 0.2137 0.9817 0.2587
C16 C 0.19576(16) 0.8518(5) 0.2556(3)
C17 C 0.17917(17) 0.8636(5) 0.3018(3)
C18 C 0.15810(19) 0.7093(5) 0.2866(3)
C19 C 0.17745(18) 0.6942(5) 0.2451(3)
C20 C 0.1781(2) 0.6095(6) 0.2201(4)
H15 H 0.1665 0.5600 0.2308
C21 C 0.1953(2) 0.5966(5) 0.1800(4)
H16 H 0.1959 0.5366 0.1652
C22 C 0.21203(18) 0.6655(5) 0.1592(3)
C23 C 0.22884(18) 0.6538(5) 0.1153(3)
C24 C 0.2289(2) 0.5699(5) 0.0869(3)
H17 H 0.2170 0.5202 0.0969
C25 C 0.2454(2) 0.5573(5) 0.0453(3)
H18 H 0.2457 0.4987 0.0285
C26 C 0.26175(19) 0.6308(5) 0.0273(3)
C27 C 0.27786(18) 0.6167(5) -0.0183(3)
C28 C 0.26128(17) 0.7164(5) 0.0531(3)
C29 C 0.24543(17) 0.7290(5) 0.0985(3)
C30 C 0.21257(17) 0.7538(5) 0.1861(3)
C31 C 0.19531(18) 0.7666(5) 0.2288(3)
C32 C 0.13282(17) 0.8260(5) 0.3402(3)
H19 H 0.1328 0.8943 0.3429
C33 C 0.1396(2) 0.7869(6) 0.4004(3)
H20 H 0.1615 0.8028 0.4208
H21 H 0.1375 0.7194 0.3992
C34 C 0.1151(2) 0.8291(6) 0.4309(4)
H22 H 0.1186 0.8036 0.4695
H23 H 0.1185 0.8960 0.4342
C35 C 0.0817(2) 0.8108(6) 0.4006(4)
H24 H 0.0672 0.8444 0.4196
H25 H 0.0773 0.7446 0.4031
C36 C 0.07485(18) 0.8385(6) 0.3388(3)
H26 H 0.0760 0.9059 0.3359
H27 H 0.0531 0.8190 0.3200
C37 C 0.09880(17) 0.7945(5) 0.3090(3)
H28 H 0.0976 0.7268 0.3142
C38 C 0.09672(18) 0.8984(5) 0.2271(3)
C39 C 0.08757(18) 0.9133(5) 0.1649(3)
C40 C 0.0903(2) 0.9992(5) 0.1429(4)
H29 H 0.0976 1.0493 0.1673
C41 C 0.0821(2) 1.0124(5) 0.0841(4)
H30 H 0.0852 1.0707 0.0689
C42 C 0.06996(18) 0.9429(5) 0.0487(3)
C43 C 0.0608(2) 0.9592(5) -0.0131(4)
C44 C 0.0423(2) 0.7969(6) -0.0269(4)
C45 C 0.05219(19) 0.7821(5) 0.0351(3)
C46 C 0.0468(2) 0.7001(6) 0.0567(4)
H31 H 0.0367 0.6526 0.0324
C47 C 0.0562(2) 0.6851(6) 0.1161(4)
H32 H 0.0531 0.6270 0.1314
C48 C 0.0698(2) 0.7548(5) 0.1508(3)
C49 C 0.07789(19) 0.7387(5) 0.2129(3)
C50 C 0.07477(18) 0.8395(5) 0.1300(3)
C51 C 0.03869(19) 0.9036(6) -0.1104(3)
H33 H 0.0463 0.9663 -0.1173
C52 C 0.0032(2) 0.9036(7) -0.1271(4)
H34 H -0.0055 0.9464 -0.1028
H35 H -0.0050 0.8416 -0.1221
C53 C -0.0075(2) 0.9330(8) -0.1896(4)
H36 H -0.0310 0.9354 -0.2008
H37 H 0.0009 0.9947 -0.1948
C54 C 0.0050(2) 0.8646(8) -0.2258(4)
H38 H -0.0019 0.8820 -0.2661
H39 H -0.0038 0.8032 -0.2210
C55 C 0.0412(2) 0.8612(8) -0.2092(4)
H40 H 0.0499 0.9215 -0.2163
H41 H 0.0491 0.8152 -0.2326
C56 C 0.05266(19) 0.8362(6) -0.1463(3)
H42 H 0.0439 0.7744 -0.1409
C57 C 0.10644(19) 0.9041(5) -0.1395(3)
C58 C 0.13993(19) 0.8920(5) -0.1388(3)
C59 C 0.15931(19) 0.9638(5) -0.1458(3)
H43 H 0.1510 1.0242 -0.1482
C60 C 0.1908(2) 0.9503(5) -0.1493(3)
H44 H 0.2034 1.0015 -0.1544
C61 C 0.20398(18) 0.8631(5) -0.1454(3)
C62 C 0.23700(19) 0.8493(5) -0.1509(3)
C63 C 0.22956(19) 0.6818(5) -0.1423(3)
C64 C 0.19676(19) 0.6977(5) -0.1346(4)
C65 C 0.1783(2) 0.6243(6) -0.1221(5)
H45 H 0.1872 0.5649 -0.1155
C66 C 0.1474(2) 0.6396(6) -0.1195(5)
H46 H 0.1345 0.5885 -0.1157
C67 C 0.13434(19) 0.7253(5) -0.1222(4)
C68 C 0.1008(2) 0.7407(6) -0.1191(5)
C69 C 0.15330(18) 0.8010(5) -0.1336(3)
C70 C 0.18482(18) 0.7875(5) -0.1373(3)
O13 O 0.22301(13) 0.9899(3) 0.5569(2)
O14 O 0.35014(14) 0.9612(3) 0.1964(3)
O15 O 0.32272(12) 0.6641(3) 0.1671(2)
O16 O 0.19453(14) 0.6911(3) 0.5252(2)
O17 O 0.41596(15) 0.8712(4) 0.2534(2)
O18 O 0.4615(3) 0.8704(5) 0.5482(3)
O19 O 0.44325(16) 0.5647(4) 0.5494(3)
O20 O 0.38378(17) 0.5737(4) 0.2564(3)
O21 O 0.42900(15) 0.8574(5) 0.6588(3)
O22 O 0.27456(13) 0.9844(3) 0.6791(2)
O23 O 0.24189(13) 0.6903(3) 0.6494(2)
O24 O 0.39566(14) 0.5612(4) 0.6292(3)
N7 N 0.21177(14) 0.8380(4) 0.5458(2)
N8 N 0.34149(14) 0.8079(4) 0.1904(2)
N9 N 0.39846(14) 0.7239(4) 0.2528(3)
N10 N 0.45025(15) 0.7190(5) 0.5516(3)
N11 N 0.41322(14) 0.7079(5) 0.6429(3)
N12 N 0.25632(14) 0.8398(4) 0.6535(3)
C71 C 0.42793(18) 0.7214(5) 0.4314(3)
C72 C 0.22315(17) 0.8705(5) 0.6503(3)
H47 H 0.2230 0.9386 0.6463
C73 C 0.2111(2) 0.8492(6) 0.7036(3)
H48 H 0.2102 0.7821 0.7087
H49 H 0.2260 0.8750 0.7371
C74 C 0.1781(2) 0.8899(6) 0.6989(4)
H50 H 0.1795 0.9575 0.6987
H51 H 0.1698 0.8714 0.7321
C75 C 0.1550(2) 0.8577(6) 0.6448(4)
H52 H 0.1520 0.7907 0.6466
H53 H 0.1341 0.8876 0.6418
C76 C 0.16781(19) 0.8808(6) 0.5927(3)
H54 H 0.1704 0.9478 0.5899
H55 H 0.1527 0.8596 0.5581
C77 C 0.20007(18) 0.8328(5) 0.5981(3)
H56 H 0.1968 0.7666 0.6054
C78 C 0.22385(16) 0.9200(5) 0.5294(3)
C79 C 0.23782(18) 0.9175(5) 0.4793(3)
C80 C 0.25335(19) 0.9937(5) 0.4652(3)
H57 H 0.2540 1.0480 0.4869
C81 C 0.26801(18) 0.9923(4) 0.4198(3)
H58 H 0.2789 1.0454 0.4116
C82 C 0.26713(17) 0.9151(4) 0.3862(3)
C83 C 0.28240(18) 0.9116(5) 0.3375(3)
C84 C 0.2957(2) 0.9890(5) 0.3187(4)
H59 H 0.2935 1.0464 0.3356
C85 C 0.31224(19) 0.9842(5) 0.2754(4)
H60 H 0.3208 1.0382 0.2629
C86 C 0.31604(17) 0.9022(5) 0.2511(3)
C87 C 0.33729(18) 0.8940(5) 0.2106(3)
C88 C 0.32257(16) 0.7326(5) 0.1954(3)
C89 C 0.30312(16) 0.7385(5) 0.2391(3)
C90 C 0.28740(17) 0.6626(5) 0.2519(3)
H61 H 0.2886 0.6068 0.2325
C91 C 0.26976(17) 0.6671(5) 0.2929(3)
H62 H 0.2587 0.6143 0.3009
C92 C 0.26793(17) 0.7476(5) 0.3227(3)
C93 C 0.25043(17) 0.7524(4) 0.3684(3)
C94 C 0.23367(17) 0.6778(5) 0.3827(3)
H63 H 0.2318 0.6236 0.3606
C95 C 0.21979(17) 0.6817(5) 0.4286(3)
H64 H 0.2086 0.6299 0.4376
C96 C 0.22169(17) 0.7580(4) 0.4614(3)
C97 C 0.20798(18) 0.7585(5) 0.5118(3)
C98 C 0.23685(16) 0.8370(4) 0.4473(3)
C99 C 0.25195(16) 0.8357(4) 0.3998(3)
C100 C 0.28390(16) 0.8284(5) 0.3101(3)
C101 C 0.30116(16) 0.8217(5) 0.2665(3)
C102 C 0.36855(17) 0.7955(5) 0.1613(3)
H65 H 0.3812 0.8534 0.1671
C103 C 0.35935(19) 0.7789(6) 0.0979(3)
H66 H 0.3478 0.7200 0.0902
H67 H 0.3450 0.8283 0.0794
C104 C 0.3889(2) 0.7765(6) 0.0740(3)
H68 H 0.3995 0.8369 0.0796
H69 H 0.3827 0.7644 0.0329
C105 C 0.41227(19) 0.7016(6) 0.1031(4)
H70 H 0.4023 0.6407 0.0949
H71 H 0.4317 0.7030 0.0878
C106 C 0.42099(19) 0.7166(6) 0.1655(3)
H72 H 0.4327 0.7750 0.1738
H73 H 0.4351 0.6666 0.1837
C107 C 0.39069(17) 0.7192(6) 0.1903(3)
H74 H 0.3792 0.6602 0.1797
C108 C 0.41066(19) 0.8041(5) 0.2802(3)
C109 C 0.4200(2) 0.8045(5) 0.3424(3)
C110 C 0.4310(3) 0.8797(6) 0.3724(4)
H75 H 0.4322 0.9347 0.3521
C111 C 0.4409(3) 0.8830(6) 0.4318(4)
H76 H 0.4483 0.9383 0.4507
C112 C 0.4395(2) 0.8030(6) 0.4618(4)
C113 C 0.4511(2) 0.8029(6) 0.5226(4)
C114 C 0.4407(2) 0.6365(6) 0.5233(4)
C115 C 0.4270(2) 0.6381(6) 0.4613(4)
C116 C 0.4163(3) 0.5622(6) 0.4335(4)
H77 H 0.4159 0.5068 0.4537
C117 C 0.4055(3) 0.5629(6) 0.3742(4)
H78 H 0.3981 0.5080 0.3547
C118 C 0.40564(19) 0.6426(5) 0.3446(4)
C119 C 0.39444(19) 0.6434(6) 0.2822(3)
C120 C 0.41742(17) 0.7227(6) 0.3737(3)
C121 C 0.46586(19) 0.7193(7) 0.6120(4)
H79 H 0.4692 0.7848 0.6237
C122 C 0.4988(2) 0.6750(9) 0.6221(5)
H80 H 0.4965 0.6100 0.6106
H81 H 0.5116 0.7060 0.5985
C123 C 0.5161(2) 0.6812(9) 0.6842(5)
H82 H 0.5197 0.7462 0.6952
H83 H 0.5370 0.6507 0.6897
C124 C 0.4961(2) 0.6351(10) 0.7216(4)
H84 H 0.4930 0.5696 0.7115
H85 H 0.5074 0.6392 0.7618
C125 C 0.4643(2) 0.6817(10) 0.7134(4)
H86 H 0.4674 0.7468 0.7247
H87 H 0.4515 0.6522 0.7376
C126 C 0.44618(18) 0.6753(7) 0.6501(3)
H88 H 0.4448 0.6087 0.6405
C127 C 0.4074(2) 0.8006(7) 0.6520(4)
C128 C 0.37390(19) 0.8276(6) 0.6532(4)
C129 C 0.3672(2) 0.9193(6) 0.6621(4)
H89 H 0.3835 0.9640 0.6660
C130 C 0.3365(2) 0.9449(6) 0.6652(4)
H90 H 0.3316 1.0074 0.6701
C131 C 0.31313(17) 0.8789(5) 0.6612(3)
C132 C 0.28001(18) 0.9076(5) 0.6657(3)
C133 C 0.26271(17) 0.7456(5) 0.6496(3)
C134 C 0.29560(17) 0.7199(5) 0.6467(3)
C135 C 0.30295(19) 0.6313(5) 0.6393(4)
H91 H 0.2869 0.5860 0.6374
C136 C 0.3336(2) 0.6038(6) 0.6342(5)
H92 H 0.3382 0.5417 0.6277
C137 C 0.35695(18) 0.6714(5) 0.6391(3)
C138 C 0.38963(19) 0.6398(6) 0.6357(4)
C139 C 0.35063(18) 0.7612(5) 0.6485(3)
C140 C 0.31958(18) 0.7882(5) 0.6515(3)
Cl1 Cl 0.15092(5) 0.87092(18) 0.09904(11)
Cl2 Cl 0.13978(5) 0.97281(15) -0.00491(9)
Cl3 Cl 0.17931(7) 0.8115(2) 0.00876(12)
C141 C 0.1672(2) 0.9047(6) 0.0428(4)
H93 H 0.1864 0.9430 0.0584
Cl4 Cl 0.31076(8) 0.7369(2) 0.50332(13)
Cl5 Cl 0.34124(6) 0.7089(2) 0.41074(14)
Cl6 Cl 0.35329(5) 0.58439(14) 0.50473(10)
C142 C 0.3251(2) 0.6558(6) 0.4627(4)
H94 H 0.3068 0.6170 0.4433
Cl7 Cl 0.35275(8) 0.9807(2) -0.01283(19)
Cl8 Cl 0.37411(10) 1.1417(3) -0.0589(3)
Cl9 Cl 0.41708(9) 0.9956(3) -0.0191(3)
C143 C 0.3868(4) 1.0525(11) -0.0063(10)
H95 H 0.3925 1.0799 0.0324
Cl10 Cl 0.44900(9) 0.9633(2) 0.1422(2)
Cl11 Cl 0.49605(10) 1.0048(2) 0.07392(17)
Cl12 Cl 0.49693(7) 1.0988(2) 0.18028(12)
C144 C 0.4727(3) 1.0471(7) 0.1197(6)
H96 H 0.4583 1.0953 0.0988
Cl13 Cl 0.45408(8) 1.0820(2) 0.67949(14)
Cl14 Cl 0.49238(16) 1.0786(3) 0.5972(2)
Cl15 Cl 0.50559(8) 0.9548(2) 0.69036(16)
C145 C 0.4759(3) 1.0155(9) 0.6403(6)
H97 H 0.4612 0.9701 0.6172
loop_
_geom_bond_atom_site_label_1
_geom_bond_atom_site_label_2
_geom_bond_site_symmetry_1
_geom_bond_site_symmetry_2
O1 C8 1_555 1_555
O2 C17 1_555 1_555
O3 C18 1_555 1_555
O4 C27 1_555 1_555
O5 C38 1_555 1_555
O6 C43 1_555 1_555
O7 C44 1_555 1_555
O8 C49 1_555 1_555
O9 C57 1_555 1_555
O10 C62 1_555 1_555
O11 C63 1_555 1_555
O12 C68 1_555 1_555
N1 C1 1_555 1_555
N2 C17 1_555 1_555
N3 C37 1_555 1_555
N4 C43 1_555 1_555
N5 C56 1_555 1_555
N6 C7 1_555 1_555
C1 H1 1_555 1_555
C2 C42 1_555 1_555
C3 H2 1_555 1_555
H3 C3 1_555 1_555
C4 C3 1_555 1_555
H4 C4 1_555 1_555
H5 C4 1_555 1_555
C5 C4 1_555 1_555
H6 C5 1_555 1_555
H7 C5 1_555 1_555
C6 C1 1_555 1_555
H8 C6 1_555 1_555
H9 C6 1_555 1_555
C7 C1 1_555 1_555
H10 C7 1_555 1_555
C8 N1 1_555 1_555
C9 C8 1_555 1_555
C10 C9 1_555 1_555
H11 C10 1_555 1_555
C11 C10 1_555 1_555
H12 C11 1_555 1_555
C12 C11 1_555 1_555
C13 C12 1_555 1_555
C14 C13 1_555 1_555
H13 C14 1_555 1_555
C15 C14 1_555 1_555
H14 C15 1_555 1_555
C16 C15 1_555 1_555
C17 C16 1_555 1_555
C18 N2 1_555 1_555
C19 C18 1_555 1_555
C20 C19 1_555 1_555
H15 C20 1_555 1_555
C21 C20 1_555 1_555
H16 C21 1_555 1_555
C22 C21 1_555 1_555
C23 C22 1_555 1_555
C24 C23 1_555 1_555
H17 C24 1_555 1_555
C25 C24 1_555 1_555
H18 C25 1_555 1_555
C26 C25 1_555 1_555
C27 N1 1_555 1_555
C28 C9 1_555 1_555
C29 C12 1_555 1_555
C30 C13 1_555 1_555
C31 C16 1_555 1_555
C32 N2 1_555 1_555
H19 C32 1_555 1_555
C33 C32 1_555 1_555
H20 C33 1_555 1_555
H21 C33 1_555 1_555
C34 C33 1_555 1_555
H22 C34 1_555 1_555
H23 C34 1_555 1_555
C35 C34 1_555 1_555
H24 C35 1_555 1_555
H25 C35 1_555 1_555
C36 C35 1_555 1_555
H26 C36 1_555 1_555
H27 C36 1_555 1_555
C37 C32 1_555 1_555
H28 C37 1_555 1_555
C38 N3 1_555 1_555
C39 C38 1_555 1_555
C40 C39 1_555 1_555
H29 C40 1_555 1_555
C41 C40 1_555 1_555
H30 C41 1_555 1_555
C42 C41 1_555 1_555
C43 C42 1_555 1_555
C44 N4 1_555 1_555
C45 C2 1_555 1_555
C46 C45 1_555 1_555
H31 C46 1_555 1_555
C47 C46 1_555 1_555
H32 C47 1_555 1_555
C48 C47 1_555 1_555
C49 N3 1_555 1_555
C50 C2 1_555 1_555
C51 N4 1_555 1_555
H33 C51 1_555 1_555
C52 C51 1_555 1_555
H34 C52 1_555 1_555
H35 C52 1_555 1_555
C53 C52 1_555 1_555
H36 C53 1_555 1_555
H37 C53 1_555 1_555
C54 C53 1_555 1_555
H38 C54 1_555 1_555
H39 C54 1_555 1_555
C55 C54 1_555 1_555
H40 C55 1_555 1_555
H41 C55 1_555 1_555
C56 C51 1_555 1_555
H42 C56 1_555 1_555
C57 N5 1_555 1_555
C58 C57 1_555 1_555
C59 C58 1_555 1_555
H43 C59 1_555 1_555
C60 C59 1_555 1_555
H44 C60 1_555 1_555
C61 C60 1_555 1_555
C62 N6 1_555 1_555
C63 N6 1_555 1_555
C64 C63 1_555 1_555
C65 C64 1_555 1_555
H45 C65 1_555 1_555
C66 C65 1_555 1_555
H46 C66 1_555 1_555
C67 C66 1_555 1_555
C68 N5 1_555 1_555
C69 C58 1_555 1_555
C70 C61 1_555 1_555
O13 C78 1_555 1_555
O14 C87 1_555 1_555
O15 C88 1_555 1_555
O16 C97 1_555 1_555
O17 C108 1_555 1_555
O18 C113 1_555 1_555
O19 C114 1_555 1_555
O20 C119 1_555 1_555
O21 C127 1_555 1_555
O22 C132 1_555 1_555
O23 C133 1_555 1_555
O24 C138 1_555 1_555
N7 C77 1_555 1_555
N8 C87 1_555 1_555
N9 C107 1_555 1_555
N10 C113 1_555 1_555
N11 C126 1_555 1_555
N12 C72 1_555 1_555
C71 C112 1_555 1_555
C72 H47 1_555 1_555
C73 C72 1_555 1_555
H48 C73 1_555 1_555
H49 C73 1_555 1_555
C74 C73 1_555 1_555
H50 C74 1_555 1_555
H51 C74 1_555 1_555
C75 C74 1_555 1_555
H52 C75 1_555 1_555
H53 C75 1_555 1_555
C76 C75 1_555 1_555
H54 C76 1_555 1_555
H55 C76 1_555 1_555
C77 C72 1_555 1_555
H56 C77 1_555 1_555
C78 N7 1_555 1_555
C79 C78 1_555 1_555
C80 C79 1_555 1_555
H57 C80 1_555 1_555
C81 C80 1_555 1_555
H58 C81 1_555 1_555
C82 C81 1_555 1_555
C83 C82 1_555 1_555
C84 C83 1_555 1_555
H59 C84 1_555 1_555
C85 C84 1_555 1_555
H60 C85 1_555 1_555
C86 C85 1_555 1_555
C87 C86 1_555 1_555
C88 N8 1_555 1_555
C89 C88 1_555 1_555
C90 C89 1_555 1_555
H61 C90 1_555 1_555
C91 C90 1_555 1_555
H62 C91 1_555 1_555
C92 C91 1_555 1_555
C93 C92 1_555 1_555
C94 C93 1_555 1_555
H63 C94 1_555 1_555
C95 C94 1_555 1_555
H64 C95 1_555 1_555
C96 C95 1_555 1_555
C97 N7 1_555 1_555
C98 C79 1_555 1_555
C99 C82 1_555 1_555
C100 C83 1_555 1_555
C101 C86 1_555 1_555
C102 N8 1_555 1_555
H65 C102 1_555 1_555
C103 C102 1_555 1_555
H66 C103 1_555 1_555
H67 C103 1_555 1_555
C104 C103 1_555 1_555
H68 C104 1_555 1_555
H69 C104 1_555 1_555
C105 C104 1_555 1_555
H70 C105 1_555 1_555
H71 C105 1_555 1_555
C106 C105 1_555 1_555
H72 C106 1_555 1_555
H73 C106 1_555 1_555
C107 C102 1_555 1_555
H74 C107 1_555 1_555
C108 N9 1_555 1_555
C109 C108 1_555 1_555
C110 C109 1_555 1_555
H75 C110 1_555 1_555
C111 C110 1_555 1_555
H76 C111 1_555 1_555
C112 C111 1_555 1_555
C113 C112 1_555 1_555
C114 N10 1_555 1_555
C115 C71 1_555 1_555
C116 C115 1_555 1_555
H77 C116 1_555 1_555
C117 C116 1_555 1_555
H78 C117 1_555 1_555
C118 C117 1_555 1_555
C119 N9 1_555 1_555
C120 C71 1_555 1_555
C121 N10 1_555 1_555
H79 C121 1_555 1_555
C122 C121 1_555 1_555
H80 C122 1_555 1_555
H81 C122 1_555 1_555
C123 C122 1_555 1_555
H82 C123 1_555 1_555
H83 C123 1_555 1_555
C124 C123 1_555 1_555
H84 C124 1_555 1_555
H85 C124 1_555 1_555
C125 C124 1_555 1_555
H86 C125 1_555 1_555
H87 C125 1_555 1_555
C126 C121 1_555 1_555
H88 C126 1_555 1_555
C127 N11 1_555 1_555
C128 C127 1_555 1_555
C129 C128 1_555 1_555
H89 C129 1_555 1_555
C130 C129 1_555 1_555
H90 C130 1_555 1_555
C131 C130 1_555 1_555
C132 N12 1_555 1_555
C133 N12 1_555 1_555
C134 C133 1_555 1_555
C135 C134 1_555 1_555
H91 C135 1_555 1_555
C136 C135 1_555 1_555
H92 C136 1_555 1_555
C137 C136 1_555 1_555
C138 N11 1_555 1_555
C139 C128 1_555 1_555
C140 C131 1_555 1_555
Cl1 C141 1_555 1_555
Cl2 C141 1_555 1_555
Cl3 C141 1_555 1_555
C141 H93 1_555 1_555
Cl4 C142 1_555 1_555
Cl5 C142 1_555 1_555
Cl6 C142 1_555 1_555
C142 H94 1_555 1_555
Cl7 C143 1_555 1_555
Cl8 C143 1_555 1_555
Cl9 C143 1_555 1_555
C143 H95 1_555 1_555
Cl10 C144 1_555 1_555
Cl11 C144 1_555 1_555
Cl12 C144 1_555 1_555
C144 H96 1_555 1_555
Cl13 C145 1_555 1_555
Cl14 C145 1_555 1_555
Cl15 C145 1_555 1_555
C145 H97 1_555 1_555
C3 C7 1_555 1_555
C5 C6 1_555 1_555
C19 C31 1_555 1_555
C22 C30 1_555 1_555
C23 C29 1_555 1_555
C26 C27 1_555 1_555
C26 C28 1_555 1_555
C28 C29 1_555 1_555
C30 C31 1_555 1_555
C36 C37 1_555 1_555
C39 C50 1_555 1_555
C44 C45 1_555 1_555
C48 C49 1_555 1_555
C48 C50 1_555 1_555
C55 C56 1_555 1_555
C61 C62 1_555 1_555
C64 C70 1_555 1_555
C67 C68 1_555 1_555
C67 C69 1_555 1_555
C69 C70 1_555 1_555
C76 C77 1_555 1_555
C89 C101 1_555 1_555
C92 C100 1_555 1_555
C93 C99 1_555 1_555
C96 C97 1_555 1_555
C96 C98 1_555 1_555
C98 C99 1_555 1_555
C100 C101 1_555 1_555
C106 C107 1_555 1_555
C109 C120 1_555 1_555
C114 C115 1_555 1_555
C118 C119 1_555 1_555
C118 C120 1_555 1_555
C125 C126 1_555 1_555
C131 C132 1_555 1_555
C134 C140 1_555 1_555
C137 C138 1_555 1_555
C137 C139 1_555 1_555
C139 C140 1_555 1_555

#END
