
#######################################################################
#
#                 Cambridge Crystallographic Data Centre
#                                CCDC 
#
#######################################################################
#
# If this CIF has been generated from an entry in the Cambridge 
# Structural Database, then it will include bibliographic, chemical, 
# crystal, experimental, refinement or atomic coordinate data resulting 
# from the CCDC's data processing and validation procedures.
#
#######################################################################

data_FOBMER
_chemical_formula_moiety         'C62 H42 N6 O12,0.5(C6 H14),0.325(C2 H4 Cl2)'
_chemical_name_systematic        
"2,9-(2,2'-(cyclohexane-1,2-diyl)bis[6-(cyclohex-2-yl)pyrrolo[3,4-f]isoindole-1,3,5,7(2H,6H)-tetrone])isoquinolino[4',5',6':6,5,10]anthra[2,1,9-def]isoquinoline-1,3,8,10(2H,9H)-tetrone 1,2-dichloroethane n-hexane unknown solvate"
_symmetry_cell_setting           orthorhombic
_symmetry_space_group_name_H-M   'P 21 21 2'
_symmetry_Int_Tables_number      18
_space_group_name_Hall           'P 2 2ab'
loop_
_symmetry_equiv_pos_site_id
_symmetry_equiv_pos_as_xyz
1 x,y,z
2 -x,-y,z
3 1/2-x,1/2+y,-z
4 1/2+x,1/2-y,-z
_cell_length_a                   30.1044(9)
_cell_length_b                   31.9984(10)
_cell_length_c                   12.4179(4)
_cell_angle_alpha                90
_cell_angle_beta                 90
_cell_angle_gamma                90
_cell_volume                     11962.1
_exptl_crystal_colour            red
_exptl_crystal_description       block
_cell_formula_units_Z            8
_exptl_crystal_recrystallization_method 'slow vapor diffusion'
_exptl_crystal_preparation       Luminescent
loop_
_atom_site_label
_atom_site_type_symbol
_atom_site_fract_x
_atom_site_fract_y
_atom_site_fract_z
O1 O 0.13446(12) 0.12128(12) 1.0888(4)
O2 O 0.39982(10) 0.37421(11) 1.0803(3)
O3 O 0.30612(11) 0.45785(10) 1.2718(3)
O4 O 0.05167(11) 0.20234(11) 1.3097(3)
O5 O 0.36293(11) 0.42900(11) 0.9065(3)
O6 O 0.22605(13) 0.36296(13) 0.5973(3)
O7 O 0.12171(13) 0.44776(15) 0.7523(4)
O8 O 0.25777(12) 0.51296(12) 1.0608(3)
O9 O 0.13188(15) 0.29277(13) 0.5899(3)
O10 O 0.09591(18) 0.14172(14) 0.8598(4)
O11 O -0.00047(15) 0.21722(15) 1.0687(4)
O12 O 0.03683(18) 0.36916(16) 0.7982(5)
N1 N 0.08937(13) 0.16583(13) 1.1813(3)
N2 N 0.35035(12) 0.41830(12) 1.1631(3)
N3 N 0.31859(13) 0.47402(13) 1.0047(3)
N4 N 0.16492(14) 0.39925(14) 0.6598(4)
N5 N 0.08807(15) 0.34102(14) 0.6799(4)
N6 N 0.04470(14) 0.16993(14) 0.9797(3)
C1 C 0.12970(16) 0.15537(16) 1.1317(4)
C2 C 0.16457(16) 0.18710(15) 1.1305(4)
C3 C 0.20131(16) 0.18285(16) 1.0662(4)
H1 H 0.203982 0.159061 1.020916
C4 C 0.23494(17) 0.21305(16) 1.0664(4)
H2 H 0.260205 0.209257 1.021617
C5 C 0.23213(16) 0.24848(16) 1.1309(4)
C6 C 0.26704(16) 0.28059(14) 1.1317(4)
C7 C 0.30575(16) 0.27705(15) 1.0722(4)
H3 H 0.310685 0.252374 1.031395
C8 C 0.33784(15) 0.30867(15) 1.0703(4)
H4 H 0.364575 0.304957 1.030770
C9 C 0.33039(14) 0.34538(15) 1.1263(4)
C10 C 0.36352(15) 0.37940(15) 1.1209(4)
C11 C 0.31390(15) 0.42386(15) 1.2301(4)
C12 C 0.28433(15) 0.38797(15) 1.2468(4)
C13 C 0.24846(17) 0.39172(16) 1.3135(5)
H5 H 0.244039 0.416784 1.353067
C14 C 0.21819(16) 0.35869(16) 1.3237(4)
H6 H 0.194183 0.361168 1.372947
C15 C 0.22264(16) 0.32217(15) 1.2629(4)
C16 C 0.18992(15) 0.28863(15) 1.2678(4)
C17 C 0.15416(17) 0.29002(16) 1.3391(4)
H7 H 0.152651 0.311991 1.390375
C18 C 0.12036(16) 0.25990(15) 1.3371(4)
H8 H 0.095862 0.261888 1.385067
C19 C 0.12311(15) 0.22758(15) 1.2651(4)
C20 C 0.08526(15) 0.19810(15) 1.2562(4)
C21 C 0.16057(16) 0.22295(15) 1.1974(4)
C22 C 0.19424(16) 0.25377(15) 1.1980(4)
C23 C 0.25997(15) 0.31741(14) 1.1941(4)
C24 C 0.29150(15) 0.35017(15) 1.1881(4)
C25 C 0.37813(16) 0.45473(15) 1.1342(4)
H9 H 0.399708 0.444735 1.078694
C26 C 0.40577(16) 0.47213(15) 1.2269(4)
H10 H 0.386331 0.486593 1.279341
H11 H 0.421348 0.449146 1.264647
C27 C 0.43930(17) 0.50265(18) 1.1800(5)
H12 H 0.457509 0.514627 1.238797
H13 H 0.459398 0.487643 1.130174
C28 C 0.41591(18) 0.53764(17) 1.1199(5)
H14 H 0.438448 0.556192 1.087005
H15 H 0.398453 0.554455 1.171770
C29 C 0.38445(18) 0.52107(16) 1.0304(4)
H16 H 0.368090 0.544595 0.997148
H17 H 0.401918 0.506889 0.973622
C30 C 0.35153(16) 0.49010(15) 1.0818(4)
H18 H 0.335136 0.505181 1.140064
C31 C 0.32734(17) 0.44424(15) 0.9238(4)
C32 C 0.28423(17) 0.43580(16) 0.8705(4)
C33 C 0.27460(17) 0.40931(17) 0.7859(4)
H19 H 0.296393 0.391714 0.754190
C34 C 0.23133(18) 0.41015(17) 0.7507(4)
C35 C 0.20978(18) 0.38747(17) 0.6600(4)
C36 C 0.15692(18) 0.43048(19) 0.7376(5)
C37 C 0.19919(17) 0.43642(18) 0.7972(4)
C38 C 0.20869(18) 0.46255(18) 0.8819(4)
H20 H 0.186833 0.479992 0.913924
C39 C 0.25194(17) 0.46175(16) 0.9172(4)
C40 C 0.27365(18) 0.48680(15) 1.0037(4)
C41 C 0.13556(18) 0.38902(16) 0.5702(4)
H21 H 0.148966 0.364791 0.531049
C42 C 0.13344(19) 0.42577(18) 0.4911(5)
H22 H 0.121036 0.450515 0.528378
H23 H 0.163868 0.432824 0.466999
C43 C 0.1047(2) 0.41556(18) 0.3930(5)
H24 H 0.102782 0.440415 0.345753
H25 H 0.118689 0.392662 0.351400
C44 C 0.0588(2) 0.40262(19) 0.4275(5)
H26 H 0.041193 0.394596 0.363400
H27 H 0.043716 0.426531 0.462601
C45 C 0.06074(19) 0.36597(19) 0.5056(5)
H28 H 0.073686 0.341445 0.468474
H29 H 0.030209 0.358542 0.528242
C46 C 0.08852(17) 0.37610(17) 0.6051(4)
H30 H 0.074534 0.400551 0.642069
C47 C 0.10649(18) 0.30154(18) 0.6615(4)
C48 C 0.08834(18) 0.27366(18) 0.7466(4)
C49 C 0.0970(2) 0.23137(18) 0.7648(4)
H31 H 0.117131 0.215526 0.722346
C50 C 0.07347(18) 0.21462(18) 0.8508(4)
C51 C 0.0742(2) 0.17121(18) 0.8921(5)
C52 C 0.02562(18) 0.20917(19) 0.9984(5)
C53 C 0.04413(17) 0.23768(18) 0.9141(4)
C54 C 0.03649(19) 0.2794(2) 0.8966(5)
H32 H 0.016856 0.295365 0.940121
C55 C 0.05965(18) 0.29658(19) 0.8103(5)
C56 C 0.0583(2) 0.33976(19) 0.7663(5)
C57 C 0.03992(18) 0.13197(17) 1.0448(4)
H33 H 0.061932 0.110959 1.018250
C58 C -0.00699(18) 0.11260(19) 1.0352(5)
H34 H -0.029336 0.132169 1.064873
H35 H -0.014163 0.107579 0.958474
C59 C -0.00850(18) 0.07130(19) 1.0973(5)
H36 H -0.039118 0.060042 1.095400
H37 H 0.011263 0.050788 1.061704
C60 C 0.00576(18) 0.07663(17) 1.2129(4)
H38 H 0.007219 0.048882 1.247938
H39 H -0.016668 0.093566 1.251552
C61 C 0.05125(17) 0.09805(16) 1.2217(4)
H40 H 0.058990 0.102386 1.298351
H41 H 0.074397 0.080210 1.188589
C62 C 0.04916(16) 0.13990(15) 1.1638(4)
H42 H 0.023244 0.155645 1.193659
O13 O 0.12342(11) 0.09207(11) 0.4433(3)
O14 O 0.37010(12) 0.36364(11) 0.4340(4)
O15 O 0.46560(12) 0.28005(12) 0.2522(3)
O16 O 0.20540(12) 0.02943(11) 0.1885(3)
O17 O 0.43589(12) 0.33868(11) 0.6248(3)
O18 O 0.37540(14) 0.20468(12) 0.9399(3)
O19 O 0.47641(14) 0.11491(12) 0.7911(3)
O20 O 0.52858(12) 0.24346(11) 0.4675(3)
O21 O 0.30874(12) 0.11021(13) 0.9311(3)
O22 O 0.15377(12) 0.05933(12) 0.6630(3)
O23 O 0.24436(12) -0.02030(13) 0.4506(3)
O24 O 0.40046(13) 0.03062(15) 0.7206(4)
N7 N 0.17145(13) 0.05688(12) 0.3352(3)
N8 N 0.42076(12) 0.31962(12) 0.3582(3)
N9 N 0.42064(13) 0.15069(13) 0.8791(3)
N10 N 0.36448(13) 0.07463(13) 0.8414(3)
N11 N 0.18953(13) 0.01823(12) 0.5362(3)
N12 N 0.48294(13) 0.29817(12) 0.5220(3)
C63 C 0.15724(16) 0.09212(15) 0.3905(4)
C64 C 0.18734(15) 0.12939(15) 0.3857(4)
C65 C 0.17965(16) 0.16307(15) 0.4518(4)
H43 H 0.154235 0.163367 0.497107
C66 C 0.20954(17) 0.19749(16) 0.4526(4)
H44 H 0.203515 0.220837 0.497530
C67 C 0.24745(15) 0.19749(15) 0.3886(4)
C68 C 0.28005(15) 0.23180(15) 0.3913(4)
C69 C 0.27336(16) 0.26777(16) 0.4511(4)
H45 H 0.246790 0.270890 0.491621
C70 C 0.30541(16) 0.29973(15) 0.4528(4)
H46 H 0.299985 0.324406 0.493210
C71 C 0.34442(15) 0.29570(14) 0.3966(4)
C72 C 0.37830(16) 0.32963(15) 0.3981(4)
C73 C 0.42950(16) 0.28500(15) 0.2931(4)
C74 C 0.39273(16) 0.25524(15) 0.2773(4)
C75 C 0.39973(18) 0.22112(17) 0.2122(4)
H47 H 0.427150 0.217976 0.175266
C76 C 0.36627(18) 0.19093(16) 0.2006(5)
H48 H 0.370648 0.168271 0.152285
C77 C 0.32693(17) 0.19357(15) 0.2582(4)
C78 C 0.29270(16) 0.16091(16) 0.2483(4)
C79 C 0.29595(17) 0.12864(16) 0.1756(4)
H49 H 0.319915 0.128540 0.125773
C80 C 0.26535(18) 0.09621(16) 0.1726(4)
H50 H 0.268384 0.074620 0.120546
C81 C 0.23082(16) 0.09520(16) 0.2443(4)
C82 C 0.20207(16) 0.05845(16) 0.2495(4)
C83 C 0.22470(15) 0.12880(15) 0.3170(4)
C84 C 0.25489(15) 0.16284(14) 0.3182(4)
C85 C 0.31935(15) 0.22798(15) 0.3279(4)
C86 C 0.35245(16) 0.25923(14) 0.3348(4)
C87 C 0.45737(15) 0.34919(14) 0.3835(4)
H51 H 0.445194 0.370314 0.435032
C88 C 0.47453(17) 0.37314(16) 0.2856(4)
H52 H 0.489800 0.353673 0.235889
H53 H 0.449297 0.385974 0.246612
C89 C 0.50662(18) 0.40694(17) 0.3218(5)
H54 H 0.490449 0.427817 0.365721
H55 H 0.518807 0.421412 0.257859
C90 C 0.54463(17) 0.38885(17) 0.3877(4)
H56 H 0.563040 0.411982 0.416222
H57 H 0.563644 0.371526 0.340395
C91 C 0.52796(17) 0.36218(16) 0.4814(4)
H58 H 0.511899 0.380047 0.533567
H59 H 0.553536 0.349314 0.519012
C92 C 0.49681(16) 0.32780(15) 0.4397(4)
H60 H 0.513410 0.311743 0.383531
C93 C 0.45456(15) 0.30559(14) 0.6072(4)
C94 C 0.45009(16) 0.26517(14) 0.6671(4)
C95 C 0.42302(17) 0.25490(16) 0.7542(4)
H61 H 0.403116 0.274266 0.786315
C96 C 0.42755(16) 0.21401(15) 0.7901(4)
C97 C 0.40360(17) 0.19185(16) 0.8788(4)
C98 C 0.45423(18) 0.14588(17) 0.8037(4)
C99 C 0.45709(17) 0.18646(15) 0.7448(4)
C100 C 0.48423(18) 0.19660(16) 0.6586(4)
H62 H 0.504678 0.177366 0.627947
C101 C 0.47917(16) 0.23690(15) 0.6208(4)
C102 C 0.50074(17) 0.25791(16) 0.5275(4)
C103 C 0.40923(16) 0.12033(16) 0.9640(4)
H63 H 0.381567 0.130348 1.000368
C104 C 0.44662(18) 0.11961(18) 1.0485(4)
H64 H 0.451033 0.148129 1.077501
H65 H 0.474679 0.110683 1.013886
C105 C 0.4354(2) 0.08947(18) 1.1418(4)
H66 H 0.460498 0.088699 1.193240
H67 H 0.408873 0.099838 1.180627
C106 C 0.4265(2) 0.04569(18) 1.1001(5)
H68 H 0.417808 0.027292 1.160637
H69 H 0.453808 0.034202 1.067160
C107 C 0.38921(19) 0.04664(17) 1.0162(4)
H70 H 0.384415 0.018112 0.987605
H71 H 0.361285 0.055945 1.050838
C108 C 0.40068(16) 0.07618(16) 0.9235(4)
H72 H 0.428571 0.065806 0.888903
C109 C 0.32098(17) 0.08849(16) 0.8584(4)
C110 C 0.29399(17) 0.07006(15) 0.7696(4)
C111 C 0.24880(17) 0.07344(16) 0.7519(4)
H73 H 0.229993 0.090497 0.794820
C112 C 0.23320(16) 0.04980(15) 0.6661(4)
C113 C 0.18690(16) 0.04485(15) 0.6267(4)
C114 C 0.23274(17) 0.00431(16) 0.5186(4)
C115 C 0.26103(17) 0.02560(16) 0.6023(4)
C116 C 0.30630(17) 0.02295(18) 0.6191(5)
H74 H 0.325329 0.006760 0.574545
C117 C 0.32176(17) 0.04593(16) 0.7065(4)
C118 C 0.36725(17) 0.04817(17) 0.7519(4)
C119 C 0.14948(16) 0.00569(15) 0.4789(4)
H75 H 0.124020 0.022046 0.508860
C120 C 0.13873(17) -0.04134(15) 0.4922(4)
H76 H 0.162263 -0.058369 0.457936
H77 H 0.137578 -0.048606 0.569669
C121 C 0.09419(18) -0.05060(16) 0.4398(4)
H78 H 0.087439 -0.080744 0.447026
H79 H 0.070573 -0.034734 0.477264
C122 C 0.0945(2) -0.03883(17) 0.3219(5)
H80 H 0.064567 -0.043483 0.291129
H81 H 0.115659 -0.057053 0.282914
C123 C 0.10782(18) 0.00703(16) 0.3056(4)
H82 H 0.109485 0.013365 0.227678
H83 H 0.085157 0.025532 0.338242
C124 C 0.15247(16) 0.01492(15) 0.3576(4)
H84 H 0.173560 -0.005983 0.326437
C125 C 0.3258(4) 0.1722(3) 0.6558(8)
H85 H 0.347393 0.168410 0.713970
H86 H 0.339634 0.187722 0.596590
H87 H 0.315946 0.144831 0.629683
C126 C 0.2865(8) 0.1962(7) 0.6973(17)
H88 H 0.265036 0.196251 0.636912
H89 H 0.273384 0.178040 0.753337
C127 C 0.2841(6) 0.2393(6) 0.7430(11)
H90 H 0.296001 0.259328 0.689571
H91 H 0.303099 0.240742 0.807952
C128 C 0.2379(7) 0.2517(7) 0.7722(13)
H92 H 0.220709 0.254238 0.704533
H93 H 0.224606 0.228396 0.813669
C129 C 0.2308(7) 0.2906(6) 0.8349(9)
H94 H 0.248281 0.311458 0.793853
H95 H 0.248300 0.285447 0.901132
C130 C 0.1923(4) 0.3159(3) 0.8756(8)
H96 H 0.202445 0.334756 0.932599
H97 H 0.169499 0.297059 0.904421
H98 H 0.179713 0.332258 0.816280
Cl1 Cl 0.15249(19) 0.4318(2) 1.1172(4)
Cl2 Cl 0.0853(2) 0.3374(2) 1.1403(3)
C131 C 0.1170(7) 0.4007(11) 1.0272(14)
H99 H 0.110449 0.417478 0.962071
H100 H 0.133703 0.375643 1.004004
C132 C 0.0758(5) 0.3876(7) 1.0745(12)
H101 H 0.052698 0.384726 1.018195
H102 H 0.065545 0.408492 1.127812
loop_
_geom_bond_atom_site_label_1
_geom_bond_atom_site_label_2
_geom_bond_site_symmetry_1
_geom_bond_site_symmetry_2
O1 C1 1_555 1_555
O2 C10 1_555 1_555
O3 C11 1_555 1_555
O4 C20 1_555 1_555
O5 C31 1_555 1_555
O6 C35 1_555 1_555
O7 C36 1_555 1_555
O8 C40 1_555 1_555
O9 C47 1_555 1_555
O10 C51 1_555 1_555
O11 C52 1_555 1_555
O12 C56 1_555 1_555
N1 C1 1_555 1_555
N2 C10 1_555 1_555
N3 C30 1_555 1_555
N4 C35 1_555 1_555
N5 C46 1_555 1_555
N6 C51 1_555 1_555
C1 C2 1_555 1_555
C2 C3 1_555 1_555
C3 H1 1_555 1_555
C4 C3 1_555 1_555
H2 C4 1_555 1_555
C5 C4 1_555 1_555
C6 C5 1_555 1_555
C7 C6 1_555 1_555
H3 C7 1_555 1_555
C8 C7 1_555 1_555
H4 C8 1_555 1_555
C9 C8 1_555 1_555
C10 C9 1_555 1_555
C11 N2 1_555 1_555
C12 C11 1_555 1_555
C13 C12 1_555 1_555
H5 C13 1_555 1_555
C14 C13 1_555 1_555
H6 C14 1_555 1_555
C15 C14 1_555 1_555
C16 C15 1_555 1_555
C17 C16 1_555 1_555
H7 C17 1_555 1_555
C18 C17 1_555 1_555
H8 C18 1_555 1_555
C19 C18 1_555 1_555
C20 N1 1_555 1_555
C21 C2 1_555 1_555
C22 C5 1_555 1_555
C23 C6 1_555 1_555
C24 C9 1_555 1_555
C25 N2 1_555 1_555
H9 C25 1_555 1_555
C26 C25 1_555 1_555
H10 C26 1_555 1_555
H11 C26 1_555 1_555
C27 C26 1_555 1_555
H12 C27 1_555 1_555
H13 C27 1_555 1_555
C28 C27 1_555 1_555
H14 C28 1_555 1_555
H15 C28 1_555 1_555
C29 C28 1_555 1_555
H16 C29 1_555 1_555
H17 C29 1_555 1_555
C30 C25 1_555 1_555
H18 C30 1_555 1_555
C31 N3 1_555 1_555
C32 C31 1_555 1_555
C33 C32 1_555 1_555
H19 C33 1_555 1_555
C34 C33 1_555 1_555
C35 C34 1_555 1_555
C36 N4 1_555 1_555
C37 C34 1_555 1_555
C38 C37 1_555 1_555
H20 C38 1_555 1_555
C39 C32 1_555 1_555
C40 N3 1_555 1_555
C41 N4 1_555 1_555
H21 C41 1_555 1_555
C42 C41 1_555 1_555
H22 C42 1_555 1_555
H23 C42 1_555 1_555
C43 C42 1_555 1_555
H24 C43 1_555 1_555
H25 C43 1_555 1_555
C44 C43 1_555 1_555
H26 C44 1_555 1_555
H27 C44 1_555 1_555
C45 C44 1_555 1_555
H28 C45 1_555 1_555
H29 C45 1_555 1_555
C46 C41 1_555 1_555
H30 C46 1_555 1_555
C47 N5 1_555 1_555
C48 C47 1_555 1_555
C49 C48 1_555 1_555
H31 C49 1_555 1_555
C50 C49 1_555 1_555
C51 C50 1_555 1_555
C52 N6 1_555 1_555
C53 C50 1_555 1_555
C54 C53 1_555 1_555
H32 C54 1_555 1_555
C55 C48 1_555 1_555
C56 N5 1_555 1_555
C57 N6 1_555 1_555
H33 C57 1_555 1_555
C58 C57 1_555 1_555
H34 C58 1_555 1_555
H35 C58 1_555 1_555
C59 C58 1_555 1_555
H36 C59 1_555 1_555
H37 C59 1_555 1_555
C60 C59 1_555 1_555
H38 C60 1_555 1_555
H39 C60 1_555 1_555
C61 C60 1_555 1_555
H40 C61 1_555 1_555
H41 C61 1_555 1_555
C62 N1 1_555 1_555
H42 C62 1_555 1_555
O13 C63 1_555 1_555
O14 C72 1_555 1_555
O15 C73 1_555 1_555
O16 C82 1_555 1_555
O17 C93 1_555 1_555
O18 C97 1_555 1_555
O19 C98 1_555 1_555
O20 C102 1_555 1_555
O21 C109 1_555 1_555
O22 C113 1_555 1_555
O23 C114 1_555 1_555
O24 C118 1_555 1_555
N7 C63 1_555 1_555
N8 C72 1_555 1_555
N9 C97 1_555 1_555
N10 C108 1_555 1_555
N11 C113 1_555 1_555
N12 C92 1_555 1_555
C63 C64 1_555 1_555
C64 C65 1_555 1_555
C65 H43 1_555 1_555
C66 C65 1_555 1_555
H44 C66 1_555 1_555
C67 C66 1_555 1_555
C68 C67 1_555 1_555
C69 C68 1_555 1_555
H45 C69 1_555 1_555
C70 C69 1_555 1_555
H46 C70 1_555 1_555
C71 C70 1_555 1_555
C72 C71 1_555 1_555
C73 N8 1_555 1_555
C74 C73 1_555 1_555
C75 C74 1_555 1_555
H47 C75 1_555 1_555
C76 C75 1_555 1_555
H48 C76 1_555 1_555
C77 C76 1_555 1_555
C78 C77 1_555 1_555
C79 C78 1_555 1_555
H49 C79 1_555 1_555
C80 C79 1_555 1_555
H50 C80 1_555 1_555
C81 C80 1_555 1_555
C82 N7 1_555 1_555
C83 C64 1_555 1_555
C84 C67 1_555 1_555
C85 C68 1_555 1_555
C86 C71 1_555 1_555
C87 N8 1_555 1_555
H51 C87 1_555 1_555
C88 C87 1_555 1_555
H52 C88 1_555 1_555
H53 C88 1_555 1_555
C89 C88 1_555 1_555
H54 C89 1_555 1_555
H55 C89 1_555 1_555
C90 C89 1_555 1_555
H56 C90 1_555 1_555
H57 C90 1_555 1_555
C91 C90 1_555 1_555
H58 C91 1_555 1_555
H59 C91 1_555 1_555
C92 C87 1_555 1_555
H60 C92 1_555 1_555
C93 N12 1_555 1_555
C94 C93 1_555 1_555
C95 C94 1_555 1_555
H61 C95 1_555 1_555
C96 C95 1_555 1_555
C97 C96 1_555 1_555
C98 N9 1_555 1_555
C99 C96 1_555 1_555
C100 C99 1_555 1_555
H62 C100 1_555 1_555
C101 C94 1_555 1_555
C102 N12 1_555 1_555
C103 N9 1_555 1_555
H63 C103 1_555 1_555
C104 C103 1_555 1_555
H64 C104 1_555 1_555
H65 C104 1_555 1_555
C105 C104 1_555 1_555
H66 C105 1_555 1_555
H67 C105 1_555 1_555
C106 C105 1_555 1_555
H68 C106 1_555 1_555
H69 C106 1_555 1_555
C107 C106 1_555 1_555
H70 C107 1_555 1_555
H71 C107 1_555 1_555
C108 C103 1_555 1_555
H72 C108 1_555 1_555
C109 N10 1_555 1_555
C110 C109 1_555 1_555
C111 C110 1_555 1_555
H73 C111 1_555 1_555
C112 C111 1_555 1_555
C113 C112 1_555 1_555
C114 N11 1_555 1_555
C115 C112 1_555 1_555
C116 C115 1_555 1_555
H74 C116 1_555 1_555
C117 C110 1_555 1_555
C118 N10 1_555 1_555
C119 N11 1_555 1_555
H75 C119 1_555 1_555
C120 C119 1_555 1_555
H76 C120 1_555 1_555
H77 C120 1_555 1_555
C121 C120 1_555 1_555
H78 C121 1_555 1_555
H79 C121 1_555 1_555
C122 C121 1_555 1_555
H80 C122 1_555 1_555
H81 C122 1_555 1_555
C123 C122 1_555 1_555
H82 C123 1_555 1_555
H83 C123 1_555 1_555
C124 N7 1_555 1_555
H84 C124 1_555 1_555
C125 H85 1_555 1_555
H86 C125 1_555 1_555
H87 C125 1_555 1_555
C126 C125 1_555 1_555
H88 C126 1_555 1_555
H89 C126 1_555 1_555
C127 C126 1_555 1_555
H90 C127 1_555 1_555
H91 C127 1_555 1_555
C128 C127 1_555 1_555
H92 C128 1_555 1_555
H93 C128 1_555 1_555
C129 C128 1_555 1_555
H94 C129 1_555 1_555
H95 C129 1_555 1_555
C130 C129 1_555 1_555
H96 C130 1_555 1_555
H97 C130 1_555 1_555
H98 C130 1_555 1_555
Cl1 C131 1_555 1_555
Cl2 C132 1_555 1_555
C131 H99 1_555 1_555
H100 C131 1_555 1_555
C132 C131 1_555 1_555
H101 C132 1_555 1_555
H102 C132 1_555 1_555
C12 C24 1_555 1_555
C15 C23 1_555 1_555
C16 C22 1_555 1_555
C19 C20 1_555 1_555
C19 C21 1_555 1_555
C21 C22 1_555 1_555
C23 C24 1_555 1_555
C29 C30 1_555 1_555
C36 C37 1_555 1_555
C38 C39 1_555 1_555
C39 C40 1_555 1_555
C45 C46 1_555 1_555
C52 C53 1_555 1_555
C54 C55 1_555 1_555
C55 C56 1_555 1_555
C57 C62 1_555 1_555
C61 C62 1_555 1_555
C74 C86 1_555 1_555
C77 C85 1_555 1_555
C78 C84 1_555 1_555
C81 C82 1_555 1_555
C81 C83 1_555 1_555
C83 C84 1_555 1_555
C85 C86 1_555 1_555
C91 C92 1_555 1_555
C98 C99 1_555 1_555
C100 C101 1_555 1_555
C101 C102 1_555 1_555
C107 C108 1_555 1_555
C114 C115 1_555 1_555
C116 C117 1_555 1_555
C117 C118 1_555 1_555
C119 C124 1_555 1_555
C123 C124 1_555 1_555

#END
