
#######################################################################
#
#                 Cambridge Crystallographic Data Centre
#                                CCDC 
#
#######################################################################
#
# If this CIF has been generated from an entry in the Cambridge 
# Structural Database, then it will include bibliographic, chemical, 
# crystal, experimental, refinement or atomic coordinate data resulting 
# from the CCDC's data processing and validation procedures.
#
#######################################################################

data_FOBVIC
_chemical_formula_moiety         'C13 H14 O4'
_chemical_name_systematic        
3-((4-Hydroxy-3-methoxyphenyl)methylene)-2,4-pentanedione
_symmetry_cell_setting           monoclinic
_symmetry_space_group_name_H-M   'C 2/c'
_symmetry_Int_Tables_number      15
_space_group_name_Hall           '-C 2yn'
loop_
_symmetry_equiv_pos_site_id
_symmetry_equiv_pos_as_xyz
1 x,y,z
2 1/2+x,1/2+y,z
3 -x,y,1/2-z
4 1/2-x,1/2+y,1/2-z
5 -x,-y,-z
6 1/2-x,1/2-y,-z
7 x,-y,1/2+z
8 1/2+x,1/2-y,1/2+z
_cell_length_a                   20.792(3)
_cell_length_b                   8.2470(10)
_cell_length_c                   15.097(2)
_cell_angle_alpha                90
_cell_angle_beta                 111.778(2)
_cell_angle_gamma                90
_cell_volume                     2403.95
_exptl_crystal_colour            yellow
_exptl_crystal_description       block
_cell_formula_units_Z            8
_exptl_crystal_recrystallization_method ethanol
loop_
_atom_site_label
_atom_site_type_symbol
_atom_site_fract_x
_atom_site_fract_y
_atom_site_fract_z
O1 O 0.23660(10) 0.6901(2) 0.68690(10)
O2 O 0.07200(10) 0.7002(2) 0.52360(10)
O3 O 0.42700(10) 0.3703(2) 0.43800(10)
O4 O 0.47680(10) 0.2309(2) 0.60910(10)
C1 C 0.15960(10) 0.4766(3) 0.67980(10)
C2 C 0.19490(10) 0.5934(2) 0.63820(10)
C3 C 0.17660(10) 0.5916(2) 0.53210(10)
C4 C 0.10720(10) 0.6590(2) 0.47880(10)
C5 C 0.08090(10) 0.6794(3) 0.37310(10)
C6 C 0.21820(10) 0.5392(2) 0.48820(10)
C7 C 0.28590(10) 0.4610(2) 0.52520(10)
C8 C 0.32270(10) 0.4551(2) 0.46380(10)
C9 C 0.38670(10) 0.3821(2) 0.49150(10)
C10 C 0.41510(10) 0.3088(2) 0.58100(10)
C11 C 0.37910(10) 0.3132(2) 0.64190(10)
C12 C 0.31530(10) 0.3885(2) 0.61460(10)
C13 C 0.40390(10) 0.4496(2) 0.34820(10)
H1 H 0.4934 0.2380 0.5655
H2 H 0.1780 0.3699 0.6796
H3 H 0.1108 0.4765 0.6426
H4 H 0.1672 0.5077 0.7442
H5 H 0.0357 0.7278 0.3516
H6 H 0.0781 0.5753 0.3434
H7 H 0.1118 0.7481 0.3563
H8 H 0.2008 0.5557 0.4226
H9 H 0.3035 0.5013 0.4035
H10 H 0.3981 0.2651 0.7018
H11 H 0.2918 0.3907 0.6563
H12 H 0.3611 0.4019 0.3070
H13 H 0.4381 0.4379 0.3200
H14 H 0.3968 0.5626 0.3567
loop_
_geom_bond_atom_site_label_1
_geom_bond_atom_site_label_2
_geom_bond_site_symmetry_1
_geom_bond_site_symmetry_2
O1 C2 1_555 1_555
O2 C4 1_555 1_555
O3 C9 1_555 1_555
O4 C10 1_555 1_555
C1 C2 1_555 1_555
C2 C3 1_555 1_555
C3 C4 1_555 1_555
C4 C5 1_555 1_555
C5 H5 1_555 1_555
C6 C3 1_555 1_555
C7 C6 1_555 1_555
C8 C7 1_555 1_555
C9 C8 1_555 1_555
C10 C9 1_555 1_555
C11 C10 1_555 1_555
C12 C7 1_555 1_555
C13 O3 1_555 1_555
H1 O4 1_555 1_555
H2 C1 1_555 1_555
H3 C1 1_555 1_555
H4 C1 1_555 1_555
H6 C5 1_555 1_555
H7 C5 1_555 1_555
H8 C6 1_555 1_555
H9 C8 1_555 1_555
H10 C11 1_555 1_555
H11 C12 1_555 1_555
H12 C13 1_555 1_555
H13 C13 1_555 1_555
H14 C13 1_555 1_555
C11 C12 1_555 1_555

#END
