
#######################################################################
#
#                 Cambridge Crystallographic Data Centre
#                                CCDC 
#
#######################################################################
#
# If this CIF has been generated from an entry in the Cambridge 
# Structural Database, then it will include bibliographic, chemical, 
# crystal, experimental, refinement or atomic coordinate data resulting 
# from the CCDC's data processing and validation procedures.
#
#######################################################################

data_FOBYON
_chemical_formula_moiety         'C72 H42 B2 F30 P2 Si2,2.5(C1 H1 Cl3)'
_chemical_name_systematic        
'([6-methanidylidene-2,2,5,5-tetramethyl-1,1,4,4-tetrakis(4-methylphenyl)-1,4,2,5-diphosphadisilinane-1,4-diium-3-ylidene]methanyl)-hexakis(pentafluorophenyl)-di-borate chloroform solvate'
_symmetry_cell_setting           orthorhombic
_symmetry_space_group_name_H-M   'F d d 2'
_symmetry_Int_Tables_number      43
_space_group_name_Hall           'F 2 -2d'
loop_
_symmetry_equiv_pos_site_id
_symmetry_equiv_pos_as_xyz
1 x,y,z
2 -x,-y,z
3 1/4+x,1/4-y,1/4+z
4 1/4-x,1/4+y,1/4+z
5 x,1/2+y,1/2+z
6 -x,1/2-y,1/2+z
7 1/4+x,3/4-y,3/4+z
8 1/4-x,3/4+y,3/4+z
9 1/2+x,y,1/2+z
10 1/2-x,-y,1/2+z
11 3/4+x,1/4-y,3/4+z
12 3/4-x,1/4+y,3/4+z
13 1/2+x,1/2+y,z
14 1/2-x,1/2-y,z
15 3/4+x,3/4-y,1/4+z
16 3/4-x,3/4+y,1/4+z
_cell_length_a                   35.6477(3)
_cell_length_b                   36.9030(3)
_cell_length_c                   12.09680(10)
_cell_angle_alpha                90
_cell_angle_beta                 90
_cell_angle_gamma                90
_cell_volume                     15913.4
_exptl_crystal_colour            colorless
_exptl_crystal_description       plate
_cell_formula_units_Z            8
loop_
_atom_site_label
_atom_site_type_symbol
_atom_site_fract_x
_atom_site_fract_y
_atom_site_fract_z
P1 P 0.04360(3) 0.02456(2) 0.45593(8)
Si1 Si -0.04078(3) 0.03304(3) 0.38083(9)
B1 B -0.00991(12) 0.12688(10) 0.3757(4)
F1 F 0.04454(7) 0.14860(6) 0.5386(2)
F2 F 0.09703(8) 0.19892(7) 0.5247(3)
F3 F 0.10653(7) 0.23809(7) 0.3355(3)
F4 F 0.05877(9) 0.22685(8) 0.1627(3)
F5 F 0.00480(7) 0.17867(7) 0.1753(2)
F6 F -0.02336(8) 0.09803(6) 0.6122(2)
F7 F -0.06790(14) 0.12873(9) 0.7598(3)
F8 F -0.10550(13) 0.19099(9) 0.7133(3)
F9 F -0.09747(8) 0.22225(6) 0.5109(3)
F10 F -0.05250(6) 0.19219(6) 0.3602(2)
F11 F -0.09576(6) 0.13224(6) 0.3209(2)
F12 F -0.12647(7) 0.11699(8) 0.1305(3)
F13 F -0.08434(10) 0.09349(9) -0.0430(3)
F14 F -0.00857(10) 0.08749(8) -0.0186(2)
F15 F 0.02375(7) 0.10273(7) 0.1739(2)
C1 C 0.00597(11) 0.05425(9) 0.4138(3)
C2 C 0.01423(11) 0.09023(9) 0.4097(3)
H1 H 0.0393 0.0954 0.4310
C3 C -0.08257(13) 0.05618(10) 0.4418(4)
H2 H -0.1053 0.0483 0.4030
H3 H -0.0798 0.0825 0.4342
H4 H -0.0846 0.0499 0.5203
C4 C -0.04687(19) 0.02208(13) 0.2318(4)
H5 H -0.0735 0.0179 0.2163
H6 H -0.0325 0.0002 0.2139
H7 H -0.0378 0.0424 0.1869
C5 C 0.04766(12) 0.02308(10) 0.6053(3)
C6 C 0.04401(13) -0.00980(11) 0.6620(4)
H8 H 0.0394 -0.0315 0.6219
C7 C 0.04707(13) -0.01102(13) 0.7759(4)
H9 H 0.0445 -0.0335 0.8132
C8 C 0.05386(12) 0.02022(13) 0.8365(4)
C9 C 0.05707(13) 0.05297(12) 0.7800(4)
H10 H 0.0614 0.0746 0.8205
C10 C 0.05407(14) 0.05457(11) 0.6654(4)
H11 H 0.0564 0.0772 0.6283
C11 C 0.05731(14) 0.01870(17) 0.9607(4)
H12 H 0.0371 0.0037 0.9909
H13 H 0.0555 0.0433 0.9910
H14 H 0.0816 0.0082 0.9807
C12 C 0.08788(11) 0.04004(9) 0.4005(3)
C13 C 0.12136(13) 0.03166(10) 0.4537(4)
H15 H 0.1209 0.0229 0.5275
C14 C 0.15538(13) 0.03603(11) 0.3995(4)
H16 H 0.1780 0.0302 0.4369
C15 C 0.15682(12) 0.04884(11) 0.2909(4)
C16 C 0.12347(12) 0.05869(11) 0.2399(4)
H17 H 0.1240 0.0687 0.1675
C17 C 0.08916(12) 0.05414(10) 0.2933(4)
H18 H 0.0666 0.0606 0.2568
C18 C 0.19378(13) 0.05196(14) 0.2308(5)
H19 H 0.1893 0.0527 0.1509
H20 H 0.2095 0.0310 0.2487
H21 H 0.2066 0.0742 0.2538
C19 C 0.02220(10) 0.15921(9) 0.3566(3)
C20 C 0.04681(11) 0.16726(10) 0.4424(4)
C21 C 0.07431(11) 0.19343(10) 0.4383(4)
C22 C 0.07880(11) 0.21331(10) 0.3434(5)
C23 C 0.05512(12) 0.20745(11) 0.2565(5)
C24 C 0.02745(11) 0.18121(10) 0.2642(4)
C25 C -0.03646(11) 0.14281(9) 0.4759(3)
C26 C -0.04139(14) 0.12887(11) 0.5805(4)
C27 C -0.06416(19) 0.14414(13) 0.6605(5)
C28 C -0.08323(18) 0.17571(12) 0.6368(5)
C29 C -0.07883(13) 0.19145(11) 0.5356(4)
C30 C -0.05563(11) 0.17555(10) 0.4592(4)
C31 C -0.03344(10) 0.11837(9) 0.2603(3)
C32 C -0.07191(11) 0.12149(10) 0.2416(4)
C33 C -0.08886(12) 0.11360(11) 0.1408(4)
C34 C -0.06812(14) 0.10209(12) 0.0531(4)
C35 C -0.02941(15) 0.09896(11) 0.0661(4)
C36 C -0.01381(11) 0.10679(10) 0.1676(4)
P1A P -0.04360(3) -0.02456(2) 0.45593(8)
Si1A Si 0.04078(3) -0.03304(3) 0.38083(9)
B1A B 0.00991(12) -0.12688(10) 0.3757(4)
F1A F -0.04454(7) -0.14860(6) 0.5386(2)
F2A F -0.09703(8) -0.19892(7) 0.5247(3)
F3A F -0.10653(7) -0.23809(7) 0.3355(3)
F4A F -0.05877(9) -0.22685(8) 0.1627(3)
F5A F -0.00480(7) -0.17867(7) 0.1753(2)
F6A F 0.02336(8) -0.09803(6) 0.6122(2)
F7A F 0.06790(14) -0.12873(9) 0.7598(3)
F8A F 0.10550(13) -0.19099(9) 0.7133(3)
F9A F 0.09747(8) -0.22225(6) 0.5109(3)
F10A F 0.05250(6) -0.19219(6) 0.3602(2)
F11A F 0.09576(6) -0.13224(6) 0.3209(2)
F12A F 0.12647(7) -0.11699(8) 0.1305(3)
F13A F 0.08434(10) -0.09349(9) -0.0430(3)
F14A F 0.00857(10) -0.08749(8) -0.0186(2)
F15A F -0.02375(7) -0.10273(7) 0.1739(2)
C1A C -0.00597(11) -0.05425(9) 0.4138(3)
C2A C -0.01423(11) -0.09023(9) 0.4097(3)
H1A H -0.0393 -0.0954 0.4310
C3A C 0.08257(13) -0.05618(10) 0.4418(4)
H2A H 0.1053 -0.0483 0.4030
H3A H 0.0798 -0.0825 0.4342
H4A H 0.0846 -0.0499 0.5203
C4A C 0.04687(19) -0.02208(13) 0.2318(4)
H5A H 0.0735 -0.0179 0.2163
H6A H 0.0325 -0.0002 0.2139
H7A H 0.0378 -0.0424 0.1869
C5A C -0.04766(12) -0.02308(10) 0.6053(3)
C6A C -0.04401(13) 0.00980(11) 0.6620(4)
H8A H -0.0394 0.0315 0.6219
C7A C -0.04707(13) 0.01102(13) 0.7759(4)
H9A H -0.0445 0.0335 0.8132
C8A C -0.05386(12) -0.02022(13) 0.8365(4)
C9A C -0.05707(13) -0.05297(12) 0.7800(4)
H10A H -0.0614 -0.0746 0.8205
C10A C -0.05407(14) -0.05457(11) 0.6654(4)
H11A H -0.0564 -0.0772 0.6283
C11A C -0.05731(14) -0.01870(17) 0.9607(4)
H12A H -0.0371 -0.0037 0.9909
H13A H -0.0555 -0.0433 0.9910
H14A H -0.0816 -0.0082 0.9807
C12A C -0.08788(11) -0.04004(9) 0.4005(3)
C13A C -0.12136(13) -0.03166(10) 0.4537(4)
H15A H -0.1209 -0.0229 0.5275
C14A C -0.15538(13) -0.03603(11) 0.3995(4)
H16A H -0.1780 -0.0302 0.4369
C15A C -0.15682(12) -0.04884(11) 0.2909(4)
C16A C -0.12347(12) -0.05869(11) 0.2399(4)
H17A H -0.1240 -0.0687 0.1675
C17A C -0.08916(12) -0.05414(10) 0.2933(4)
H18A H -0.0666 -0.0606 0.2568
C18A C -0.19378(13) -0.05196(14) 0.2308(5)
H19A H -0.1893 -0.0527 0.1509
H20A H -0.2095 -0.0310 0.2487
H21A H -0.2066 -0.0742 0.2538
C19A C -0.02220(10) -0.15921(9) 0.3566(3)
C20A C -0.04681(11) -0.16726(10) 0.4424(4)
C21A C -0.07431(11) -0.19343(10) 0.4383(4)
C22A C -0.07880(11) -0.21331(10) 0.3434(5)
C23A C -0.05512(12) -0.20745(11) 0.2565(5)
C24A C -0.02745(11) -0.18121(10) 0.2642(4)
C25A C 0.03646(11) -0.14281(9) 0.4759(3)
C26A C 0.04139(14) -0.12887(11) 0.5805(4)
C27A C 0.06416(19) -0.14414(13) 0.6605(5)
C28A C 0.08323(18) -0.17571(12) 0.6368(5)
C29A C 0.07883(13) -0.19145(11) 0.5356(4)
C30A C 0.05563(11) -0.17555(10) 0.4592(4)
C31A C 0.03344(10) -0.11837(9) 0.2603(3)
C32A C 0.07191(11) -0.12149(10) 0.2416(4)
C33A C 0.08886(12) -0.11360(11) 0.1408(4)
C34A C 0.06812(14) -0.10209(12) 0.0531(4)
C35A C 0.02941(15) -0.09896(11) 0.0661(4)
C36A C 0.01381(11) -0.10679(10) 0.1676(4)
C37 C 0.1529(4) -0.0896(4) 0.7102(18)
H22 H 0.1781 -0.0779 0.7059
Cl1 Cl 0.15482(16) -0.12249(17) 0.8115(7)
Cl2 Cl 0.14300(9) -0.10962(10) 0.5774(4)
Cl3 Cl 0.12027(9) -0.05634(10) 0.7394(4)
C38 C 0.2034(3) -0.0596(2) 0.5145(9)
H23 H 0.1835 -0.0655 0.4591
Cl4 Cl 0.18270(9) -0.03533(6) 0.6224(2)
Cl5 Cl 0.22303(14) -0.10046(7) 0.5618(3)
Cl6 Cl 0.23801(10) -0.03301(7) 0.4483(3)
C39? C 0.2196(4) -0.0532(4) 0.4993(14)
H24? H 0.1955 -0.0592 0.4610
Cl7? Cl 0.21017(15) -0.02462(11) 0.6116(4)
Cl8? Cl 0.24067(13) -0.09405(11) 0.5485(3)
Cl9? Cl 0.24968(15) -0.03152(11) 0.4063(5)
loop_
_geom_bond_atom_site_label_1
_geom_bond_atom_site_label_2
_geom_bond_site_symmetry_1
_geom_bond_site_symmetry_2
P1 C1 1_555 1_555
Si1 C1 1_555 1_555
B1 C2 1_555 1_555
F1 C20 1_555 1_555
F2 C21 1_555 1_555
F3 C22 1_555 1_555
F4 C23 1_555 1_555
F5 C24 1_555 1_555
F6 C26 1_555 1_555
F7 C27 1_555 1_555
F8 C28 1_555 1_555
F9 C29 1_555 1_555
F10 C30 1_555 1_555
F11 C32 1_555 1_555
F12 C33 1_555 1_555
F13 C34 1_555 1_555
F14 C35 1_555 1_555
F15 C36 1_555 1_555
C1 C2 1_555 1_555
C2 H1 1_555 1_555
C3 Si1 1_555 1_555
H2 C3 1_555 1_555
H3 C3 1_555 1_555
H4 C3 1_555 1_555
C4 Si1 1_555 1_555
H5 C4 1_555 1_555
H6 C4 1_555 1_555
H7 C4 1_555 1_555
C5 P1 1_555 1_555
C6 C5 1_555 1_555
H8 C6 1_555 1_555
C7 C6 1_555 1_555
H9 C7 1_555 1_555
C8 C7 1_555 1_555
C9 C8 1_555 1_555
H10 C9 1_555 1_555
C10 C5 1_555 1_555
H11 C10 1_555 1_555
C11 C8 1_555 1_555
H12 C11 1_555 1_555
H13 C11 1_555 1_555
H14 C11 1_555 1_555
C12 P1 1_555 1_555
C13 C12 1_555 1_555
H15 C13 1_555 1_555
C14 C13 1_555 1_555
H16 C14 1_555 1_555
C15 C14 1_555 1_555
C16 C15 1_555 1_555
H17 C16 1_555 1_555
C17 C12 1_555 1_555
H18 C17 1_555 1_555
C18 C15 1_555 1_555
H19 C18 1_555 1_555
H20 C18 1_555 1_555
H21 C18 1_555 1_555
C19 B1 1_555 1_555
C20 C19 1_555 1_555
C21 C20 1_555 1_555
C22 C21 1_555 1_555
C23 C22 1_555 1_555
C24 C19 1_555 1_555
C25 B1 1_555 1_555
C26 C25 1_555 1_555
C27 C26 1_555 1_555
C28 C27 1_555 1_555
C29 C28 1_555 1_555
C30 C25 1_555 1_555
C31 B1 1_555 1_555
C32 C31 1_555 1_555
C33 C32 1_555 1_555
C34 C33 1_555 1_555
C35 C34 1_555 1_555
C36 C31 1_555 1_555
C37 H22 1_555 1_555
Cl1 C37 1_555 1_555
Cl2 C37 1_555 1_555
Cl3 C37 1_555 1_555
C38 H23 1_555 1_555
Cl4 C38 1_555 1_555
Cl5 C38 1_555 1_555
Cl6 C38 1_555 1_555
P1A Si1 1_555 1_555
Si1A P1 1_555 1_555
B1A C2A 1_555 1_555
F1A C20A 1_555 1_555
F2A C21A 1_555 1_555
F3A C22A 1_555 1_555
F4A C23A 1_555 1_555
F5A C24A 1_555 1_555
F6A C26A 1_555 1_555
F7A C27A 1_555 1_555
F8A C28A 1_555 1_555
F9A C29A 1_555 1_555
F10A C30A 1_555 1_555
F11A C32A 1_555 1_555
F12A C33A 1_555 1_555
F13A C34A 1_555 1_555
F14A C35A 1_555 1_555
F15A C36A 1_555 1_555
C1A P1A 1_555 1_555
C2A C1A 1_555 1_555
H1A C2A 1_555 1_555
C3A Si1A 1_555 1_555
H2A C3A 1_555 1_555
H3A C3A 1_555 1_555
H4A C3A 1_555 1_555
C4A Si1A 1_555 1_555
H5A C4A 1_555 1_555
H6A C4A 1_555 1_555
H7A C4A 1_555 1_555
C5A P1A 1_555 1_555
C6A C5A 1_555 1_555
H8A C6A 1_555 1_555
C7A C6A 1_555 1_555
H9A C7A 1_555 1_555
C8A C7A 1_555 1_555
C9A C8A 1_555 1_555
H10A C9A 1_555 1_555
C10A C5A 1_555 1_555
H11A C10A 1_555 1_555
C11A C8A 1_555 1_555
H12A C11A 1_555 1_555
H13A C11A 1_555 1_555
H14A C11A 1_555 1_555
C12A P1A 1_555 1_555
C13A C12A 1_555 1_555
H15A C13A 1_555 1_555
C14A C13A 1_555 1_555
H16A C14A 1_555 1_555
C15A C14A 1_555 1_555
C16A C15A 1_555 1_555
H17A C16A 1_555 1_555
C17A C12A 1_555 1_555
H18A C17A 1_555 1_555
C18A C15A 1_555 1_555
H19A C18A 1_555 1_555
H20A C18A 1_555 1_555
H21A C18A 1_555 1_555
C19A B1A 1_555 1_555
C20A C19A 1_555 1_555
C21A C20A 1_555 1_555
C22A C21A 1_555 1_555
C23A C22A 1_555 1_555
C24A C19A 1_555 1_555
C25A B1A 1_555 1_555
C26A C25A 1_555 1_555
C27A C26A 1_555 1_555
C28A C27A 1_555 1_555
C29A C28A 1_555 1_555
C30A C25A 1_555 1_555
C31A B1A 1_555 1_555
C32A C31A 1_555 1_555
C33A C32A 1_555 1_555
C34A C33A 1_555 1_555
C35A C34A 1_555 1_555
C36A C31A 1_555 1_555
C9 C10 1_555 1_555
C16 C17 1_555 1_555
C23 C24 1_555 1_555
C29 C30 1_555 1_555
C35 C36 1_555 1_555
Si1A C1A 1_555 1_555
C9A C10A 1_555 1_555
C16A C17A 1_555 1_555
C23A C24A 1_555 1_555
C29A C30A 1_555 1_555
C35A C36A 1_555 1_555

#END
