
#######################################################################
#
#                 Cambridge Crystallographic Data Centre
#                                CCDC 
#
#######################################################################
#
# If this CIF has been generated from an entry in the Cambridge 
# Structural Database, then it will include bibliographic, chemical, 
# crystal, experimental, refinement or atomic coordinate data resulting 
# from the CCDC's data processing and validation procedures.
#
#######################################################################

data_FOCCUW
_chemical_formula_moiety         'C22 H8 Cl4 F6 N8 S2,2(C2 H3 N1)'
_chemical_name_systematic        
'bis(5-amino-3-cyano-1-(2,6-dichloro-4-(trifluoromethyl)phenyl)-1H-pyrazol-4-yl)disulfide acetonitrile solvate'
_symmetry_cell_setting           monoclinic
_symmetry_space_group_name_H-M   'C 2/c'
_symmetry_Int_Tables_number      15
_space_group_name_Hall           '-C 2yn'
loop_
_symmetry_equiv_pos_site_id
_symmetry_equiv_pos_as_xyz
1 x,y,z
2 1/2+x,1/2+y,z
3 -x,y,1/2-z
4 1/2-x,1/2+y,1/2-z
5 -x,-y,-z
6 1/2-x,1/2-y,-z
7 x,-y,1/2+z
8 1/2+x,1/2-y,1/2+z
_cell_length_a                   12.267(3)
_cell_length_b                   13.083(3)
_cell_length_c                   20.919(6)
_cell_angle_alpha                90
_cell_angle_beta                 92.423(5)
_cell_angle_gamma                90
_cell_volume                     3354.27
_exptl_crystal_colour            yellow
_exptl_crystal_description       block
_chemical_melting_point          '576 K'
_cell_formula_units_Z            4
_exptl_crystal_recrystallization_method acetonitrile
loop_
_atom_site_label
_atom_site_type_symbol
_atom_site_fract_x
_atom_site_fract_y
_atom_site_fract_z
S1 S 1.02599(7) 0.43899(6) 0.29834(4)
Cl1 Cl 0.80232(9) 0.58066(10) 0.51887(5)
Cl2 Cl 0.65557(9) 0.69557(8) 0.28458(4)
F1 F 0.3882(3) 0.6716(5) 0.5299(2)
F2 F 0.3996(4) 0.8082(4) 0.4921(3)
F3 F 0.3297(3) 0.7022(6) 0.4386(2)
N1 N 0.8191(2) 0.6163(2) 0.37915(13)
N2 N 0.8996(2) 0.6884(2) 0.37329(15)
N3 N 1.1596(3) 0.7237(3) 0.3201(2)
N4 N 0.7771(3) 0.4435(2) 0.35485(19)
C1 C 0.4071(4) 0.7112(4) 0.4774(2)
C2 C 0.5168(3) 0.6883(3) 0.45207(18)
C3 C 0.5324(3) 0.7034(3) 0.38815(17)
H1 H 0.4764 0.7283 0.3612
C4 C 0.6331(3) 0.6808(2) 0.36473(16)
C5 C 0.7175(3) 0.6433(2) 0.40483(16)
C6 C 0.6985(3) 0.6288(3) 0.46899(16)
C7 C 0.5987(3) 0.6511(3) 0.49296(17)
H2 H 0.5865 0.6413 0.5361
C8 C 1.0783(3) 0.6869(3) 0.33188(19)
C9 C 0.9775(3) 0.6374(3) 0.34575(16)
C10 C 0.9500(3) 0.5339(2) 0.33287(15)
C11 C 0.8455(3) 0.5239(2) 0.35503(15)
H6 H 0.793 0.387 0.339
H7 H 0.7120 0.450 0.362
S1B S 0.97401(7) 0.43899(6) 0.20166(4)
Cl1B Cl 1.19768(9) 0.58066(10) -0.01887(5)
Cl2B Cl 1.34443(9) 0.69557(8) 0.21542(4)
F1B F 1.6118(3) 0.6716(5) -0.0299(2)
F2B F 1.6004(4) 0.8082(4) 0.0079(3)
F3B F 1.6703(3) 0.7022(6) 0.0614(2)
N1B N 1.1809(2) 0.6163(2) 0.12085(13)
N2B N 1.1004(2) 0.6884(2) 0.12671(15)
N3B N 0.8404(3) 0.7237(3) 0.1799(2)
N4B N 1.2229(3) 0.4435(2) 0.14515(19)
C1B C 1.5929(4) 0.7112(4) 0.0226(2)
C2B C 1.4832(3) 0.6883(3) 0.04793(18)
C3B C 1.4676(3) 0.7034(3) 0.11185(17)
H1B H 1.5236 0.7283 0.1388
C4B C 1.3669(3) 0.6808(2) 0.13527(16)
C5B C 1.2825(3) 0.6433(2) 0.09517(16)
C6B C 1.3015(3) 0.6288(3) 0.03101(16)
C7B C 1.4013(3) 0.6511(3) 0.00704(17)
H2B H 1.4135 0.6413 -0.0361
C8B C 0.9217(3) 0.6869(3) 0.16812(19)
C9B C 1.0225(3) 0.6374(3) 0.15425(16)
C10B C 1.0500(3) 0.5339(2) 0.16713(15)
C11B C 1.1545(3) 0.5239(2) 0.14497(15)
H6B H 1.207 0.387 0.161
H7B H 1.2880 0.450 0.138
N5 N 1.0281(4) 0.9578(3) 0.3522(3)
C12 C 0.8295(4) 0.9399(5) 0.3115(3)
H3 H 0.7995 0.8784 0.3286
H4 H 0.8256 0.9367 0.2656
H5 H 0.7886 0.9977 0.3254
C13 C 0.9415(4) 0.9501(3) 0.3337(2)
loop_
_geom_bond_atom_site_label_1
_geom_bond_atom_site_label_2
_geom_bond_site_symmetry_1
_geom_bond_site_symmetry_2
S1 C10 1_555 1_555
Cl1 C6 1_555 1_555
Cl2 C4 1_555 1_555
F1 C1 1_555 1_555
F2 C1 1_555 1_555
F3 C1 1_555 1_555
N1 N2 1_555 1_555
N2 C9 1_555 1_555
N3 C8 1_555 1_555
N4 C11 1_555 1_555
N5 C13 1_555 1_555
C1 C2 1_555 1_555
C2 C3 1_555 1_555
C3 H1 1_555 1_555
C4 C3 1_555 1_555
C5 N1 1_555 1_555
C6 C5 1_555 1_555
C7 C2 1_555 1_555
H2 C7 1_555 1_555
C8 C9 1_555 1_555
C9 C10 1_555 1_555
C10 C11 1_555 1_555
C11 N1 1_555 1_555
C12 H3 1_555 1_555
H4 C12 1_555 1_555
H5 C12 1_555 1_555
C13 C12 1_555 1_555
H6 N4 1_555 1_555
H7 N4 1_555 1_555
S1B S1 1_555 1_555
Cl1B C6B 1_555 1_555
Cl2B C4B 1_555 1_555
F1B C1B 1_555 1_555
F2B C1B 1_555 1_555
F3B C1B 1_555 1_555
N1B N2B 1_555 1_555
N2B C9B 1_555 1_555
N3B C8B 1_555 1_555
N4B C11B 1_555 1_555
C1B C2B 1_555 1_555
C2B C3B 1_555 1_555
C3B H1B 1_555 1_555
C4B C3B 1_555 1_555
C5B N1B 1_555 1_555
C6B C5B 1_555 1_555
C7B C2B 1_555 1_555
H2B C7B 1_555 1_555
C8B C9B 1_555 1_555
C9B C10B 1_555 1_555
C10B S1B 1_555 1_555
C11B N1B 1_555 1_555
H6B N4B 1_555 1_555
H7B N4B 1_555 1_555
C4 C5 1_555 1_555
C6 C7 1_555 1_555
C4B C5B 1_555 1_555
C6B C7B 1_555 1_555
C10B C11B 1_555 1_555

#END
