
#######################################################################
#
#                 Cambridge Crystallographic Data Centre
#                                CCDC 
#
#######################################################################
#
# If this CIF has been generated from an entry in the Cambridge 
# Structural Database, then it will include bibliographic, chemical, 
# crystal, experimental, refinement or atomic coordinate data resulting 
# from the CCDC's data processing and validation procedures.
#
#######################################################################

data_FODCAD
_chemical_formula_moiety         'C17 H16 O2'
_chemical_name_systematic        
rac-(2-(Hydroxy(phenyl)methyl)cyclopropyl)(phenyl)methanone
_symmetry_cell_setting           orthorhombic
_symmetry_space_group_name_H-M   'P c c n'
_symmetry_Int_Tables_number      56
_space_group_name_Hall           '-P 2ab 2ac'
loop_
_symmetry_equiv_pos_site_id
_symmetry_equiv_pos_as_xyz
1 x,y,z
2 1/2-x,1/2-y,z
3 1/2+x,-y,1/2-z
4 -x,1/2+y,1/2-z
5 -x,-y,-z
6 1/2+x,1/2+y,-z
7 1/2-x,y,1/2+z
8 x,1/2-y,1/2+z
_cell_length_a                   13.1650(8)
_cell_length_b                   28.102(2)
_cell_length_c                   7.2735(3)
_cell_angle_alpha                90
_cell_angle_beta                 90
_cell_angle_gamma                90
_cell_volume                     2690.92
_exptl_crystal_colour            colorless
_cell_formula_units_Z            8
loop_
_atom_site_label
_atom_site_type_symbol
_atom_site_fract_x
_atom_site_fract_y
_atom_site_fract_z
O1 O 0.28199(18) 0.53284(8) -0.3799(3)
O2 O 0.10624(17) 0.45106(7) 0.0895(3)
H1 H 0.138(2) 0.4828(7) 0.086(4)
C1 C 0.1961(3) 0.54562(11) -0.3349(4)
C2 C 0.1161(2) 0.51073(10) -0.2894(4)
H2 H 0.0526 0.5237 -0.2330
C3 C 0.1454(2) 0.46040(10) -0.2352(4)
H3 H 0.2200 0.4538 -0.2300
C4 C 0.1033(3) 0.46862(11) -0.4199(4)
H4 H 0.0335 0.4573 -0.4446
H5 H 0.1504 0.4664 -0.5258
C5 C 0.0819(2) 0.43546(10) -0.0937(4)
H6 H 0.0089 0.4431 -0.1181
C6 C 0.0950(2) 0.38214(10) -0.1046(4)
C7 C 0.0347(3) 0.35543(11) -0.2227(5)
H7 H -0.0158 0.3708 -0.2946
C8 C 0.0473(3) 0.30678(12) -0.2369(5)
H8 H 0.0057 0.2890 -0.3186
C9 C 0.1201(3) 0.28391(12) -0.1331(5)
H9 H 0.1283 0.2504 -0.1418
C10 C 0.1809(3) 0.31007(12) -0.0165(5)
H10 H 0.2313 0.2945 0.0550
C11 C 0.1687(3) 0.35874(11) -0.0032(5)
H11 H 0.2115 0.3764 0.0767
C12 C 0.1724(3) 0.59758(11) -0.3319(4)
C13 C 0.2485(3) 0.62927(12) -0.3819(5)
H12 H 0.3134 0.6174 -0.4158
C14 C 0.2312(3) 0.67754(12) -0.3831(6)
H13 H 0.2838 0.6989 -0.4177
C15 C 0.1367(3) 0.69473(13) -0.3334(6)
H14 H 0.1241 0.7280 -0.3352
C16 C 0.0610(3) 0.66396(12) -0.2816(5)
H15 H -0.0033 0.6760 -0.2452
C17 C 0.0782(3) 0.61553(11) -0.2825(4)
H16 H 0.0251 0.5943 -0.2489
loop_
_geom_bond_atom_site_label_1
_geom_bond_atom_site_label_2
_geom_bond_site_symmetry_1
_geom_bond_site_symmetry_2
O1 C1 1_555 1_555
O2 H1 1_555 1_555
C1 C2 1_555 1_555
C2 H2 1_555 1_555
C3 C2 1_555 1_555
H3 C3 1_555 1_555
C4 C2 1_555 1_555
H4 C4 1_555 1_555
H5 C4 1_555 1_555
C5 O2 1_555 1_555
H6 C5 1_555 1_555
C6 C5 1_555 1_555
C7 C6 1_555 1_555
H7 C7 1_555 1_555
C8 C7 1_555 1_555
H8 C8 1_555 1_555
C9 C8 1_555 1_555
H9 C9 1_555 1_555
C10 C9 1_555 1_555
H10 C10 1_555 1_555
C11 C6 1_555 1_555
H11 C11 1_555 1_555
C12 C1 1_555 1_555
C13 C12 1_555 1_555
H12 C13 1_555 1_555
C14 C13 1_555 1_555
H13 C14 1_555 1_555
C15 C14 1_555 1_555
H14 C15 1_555 1_555
C16 C15 1_555 1_555
H15 C16 1_555 1_555
C17 C12 1_555 1_555
H16 C17 1_555 1_555
C3 C4 1_555 1_555
C3 C5 1_555 1_555
C10 C11 1_555 1_555
C16 C17 1_555 1_555

#END
