
#######################################################################
#
#                 Cambridge Crystallographic Data Centre
#                                CCDC 
#
#######################################################################
#
# If this CIF has been generated from an entry in the Cambridge 
# Structural Database, then it will include bibliographic, chemical, 
# crystal, experimental, refinement or atomic coordinate data resulting 
# from the CCDC's data processing and validation procedures.
#
#######################################################################

data_FODMOC
_chemical_formula_moiety         'C28 H18 N4 O2 S4,C1 H2 Cl2'
_chemical_name_systematic        
"1,1'-([1,2,5]thiadiazolo[3,4-e][2,1,3]benzothiadiazole-4,5-diylbis(2-methyl-1-benzothiene-3,6-diyl))diethanone dichloromethane solvate"
_symmetry_cell_setting           monoclinic
_symmetry_space_group_name_H-M   'P 21/n'
_symmetry_Int_Tables_number      14
_space_group_name_Hall           '-P 2yn'
loop_
_symmetry_equiv_pos_site_id
_symmetry_equiv_pos_as_xyz
1 x,y,z
2 1/2-x,1/2+y,1/2-z
3 -x,-y,-z
4 1/2+x,1/2-y,1/2+z
_cell_length_a                   8.0715(8)
_cell_length_b                   20.240(2)
_cell_length_c                   17.2409(18)
_cell_angle_alpha                90
_cell_angle_beta                 91.688(2)
_cell_angle_gamma                90
_cell_volume                     2815.37
_exptl_crystal_colour            colorless
_exptl_crystal_description       block
_cell_formula_units_Z            4
loop_
_atom_site_label
_atom_site_type_symbol
_atom_site_fract_x
_atom_site_fract_y
_atom_site_fract_z
S1 S 0.68158(5) 0.10680(2) 0.01504(2)
S2 S 0.36236(5) 0.32135(2) 0.16549(2)
S3 S 1.08968(7) 0.29635(3) -0.19053(3)
S4 S 0.76214(6) 0.53311(2) -0.03935(3)
N1 N 0.98112(19) 0.26105(8) -0.12423(9)
N2 N 1.0462(2) 0.37353(8) -0.17436(10)
N3 N 0.69354(19) 0.47250(7) 0.01219(9)
N4 N 0.8798(2) 0.49332(7) -0.09879(9)
O1 O 1.0648(2) 0.14767(7) 0.34149(8)
O2 O 0.85609(18) 0.45516(8) 0.41583(8)
C1 C 0.6110(2) 0.18530(9) -0.11532(10)
H1 H 0.6277 0.2297 -0.1363
H2 H 0.4920 0.1764 -0.1124
H3 H 0.6617 0.1527 -0.1493
C2 C 0.6898(2) 0.18092(8) -0.03583(9)
C3 C 0.77059(19) 0.22942(7) 0.00559(9)
C4 C 0.83183(19) 0.20695(7) 0.08006(9)
C5 C 0.9267(2) 0.24169(8) 0.13645(9)
H4 H 0.9588 0.2861 0.1274
C6 C 0.9724(2) 0.21066(8) 0.20471(9)
H5 H 1.0361 0.2342 0.2428
C7 C 0.92664(19) 0.14469(8) 0.21944(9)
C8 C 0.83659(19) 0.10885(8) 0.16368(9)
H6 H 0.8069 0.0641 0.1727
C9 C 0.79097(19) 0.14038(8) 0.09402(9)
C10 C 0.9806(2) 0.11518(8) 0.29560(10)
C11 C 0.9274(2) 0.04643(9) 0.31532(10)
H7 H 0.9768 0.0337 0.3657
H8 H 0.9642 0.0158 0.2753
H9 H 0.8063 0.0449 0.3178
C12 C 0.79501(19) 0.29814(7) -0.02203(9)
C13 C 0.9038(2) 0.30944(8) -0.08671(9)
C14 C 0.9419(2) 0.37355(8) -0.11572(10)
C15 C 0.8661(2) 0.42960(8) -0.07965(9)
C16 C 0.7602(2) 0.41735(8) -0.01603(9)
C17 C 0.72511(19) 0.35157(7) 0.01321(9)
C18 C 0.61400(19) 0.34611(7) 0.07981(9)
C19 C 0.4585(2) 0.31858(8) 0.07636(9)
C20 C 0.3666(2) 0.28927(9) 0.00811(10)
H10 H 0.4187 0.3033 -0.0398
H11 H 0.2512 0.3043 0.0076
H12 H 0.3698 0.2410 0.0118
C21 C 0.65894(19) 0.37087(7) 0.15616(9)
C22 C 0.8071(2) 0.40108(8) 0.18236(9)
H13 H 0.8927 0.4098 0.1471
C23 C 0.8272(2) 0.41795(8) 0.25964(10)
H14 H 0.9280 0.4379 0.2774
C24 C 0.7005(2) 0.40612(8) 0.31303(9)
C25 C 0.5521(2) 0.37718(8) 0.28770(9)
H15 H 0.4657 0.3694 0.3228
C26 C 0.5332(2) 0.35991(8) 0.20965(9)
C27 C 0.7294(2) 0.42622(9) 0.39569(10)
C28 C 0.5995(3) 0.41081(15) 0.45313(12)
H16 H 0.6396 0.4234 0.5053
H17 H 0.5754 0.3634 0.4520
H18 H 0.4983 0.4356 0.4398
C29 C 0.8896(3) 0.44453(12) 0.6436(2)
H19 H 0.9185 0.4573 0.5903
H20 H 0.9912 0.4482 0.6770
Cl1 Cl 0.73995(8) 0.49961(3) 0.67748(4)
Cl2 Cl 0.82255(8) 0.36240(3) 0.64311(4)
loop_
_geom_bond_atom_site_label_1
_geom_bond_atom_site_label_2
_geom_bond_site_symmetry_1
_geom_bond_site_symmetry_2
S1 C2 1_555 1_555
S2 C19 1_555 1_555
S3 N1 1_555 1_555
S4 N3 1_555 1_555
N1 C13 1_555 1_555
N2 S3 1_555 1_555
N3 C16 1_555 1_555
N4 S4 1_555 1_555
O1 C10 1_555 1_555
O2 C27 1_555 1_555
C1 H1 1_555 1_555
H2 C1 1_555 1_555
H3 C1 1_555 1_555
C2 C1 1_555 1_555
C3 C2 1_555 1_555
C4 C3 1_555 1_555
C5 C4 1_555 1_555
H4 C5 1_555 1_555
C6 C5 1_555 1_555
H5 C6 1_555 1_555
C7 C6 1_555 1_555
C8 C7 1_555 1_555
H6 C8 1_555 1_555
C9 S1 1_555 1_555
C10 C7 1_555 1_555
C11 C10 1_555 1_555
H7 C11 1_555 1_555
H8 C11 1_555 1_555
H9 C11 1_555 1_555
C12 C3 1_555 1_555
C13 C12 1_555 1_555
C14 N2 1_555 1_555
C15 N4 1_555 1_555
C16 C15 1_555 1_555
C17 C12 1_555 1_555
C18 C17 1_555 1_555
C19 C18 1_555 1_555
C20 C19 1_555 1_555
H10 C20 1_555 1_555
H11 C20 1_555 1_555
H12 C20 1_555 1_555
C21 C18 1_555 1_555
C22 C21 1_555 1_555
H13 C22 1_555 1_555
C23 C22 1_555 1_555
H14 C23 1_555 1_555
C24 C23 1_555 1_555
C25 C24 1_555 1_555
H15 C25 1_555 1_555
C26 S2 1_555 1_555
C27 C24 1_555 1_555
C28 C27 1_555 1_555
H16 C28 1_555 1_555
H17 C28 1_555 1_555
H18 C28 1_555 1_555
C29 H19 1_555 1_555
H20 C29 1_555 1_555
Cl1 C29 1_555 1_555
Cl2 C29 1_555 1_555
C4 C9 1_555 1_555
C8 C9 1_555 1_555
C13 C14 1_555 1_555
C14 C15 1_555 1_555
C16 C17 1_555 1_555
C21 C26 1_555 1_555
C25 C26 1_555 1_555

#END
