
#######################################################################
#
#                 Cambridge Crystallographic Data Centre
#                                CCDC 
#
#######################################################################
#
# If this CIF has been generated from an entry in the Cambridge 
# Structural Database, then it will include bibliographic, chemical, 
# crystal, experimental, refinement or atomic coordinate data resulting 
# from the CCDC's data processing and validation procedures.
#
#######################################################################

data_FODWAY
_chemical_formula_moiety         'C15 H17 B1 F2 N2'
_chemical_name_systematic        
(2-(1-(3,5-dimethyl-2H-pyrrol-2-ylidene)prop-2-en-1-yl)-3,5-dimethyl-1H-pyrrolato)(difluoro)boron
_symmetry_cell_setting           monoclinic
_symmetry_space_group_name_H-M   'P 21/n'
_symmetry_Int_Tables_number      14
_space_group_name_Hall           '-P 2yn'
loop_
_symmetry_equiv_pos_site_id
_symmetry_equiv_pos_as_xyz
1 x,y,z
2 1/2-x,1/2+y,1/2-z
3 -x,-y,-z
4 1/2+x,1/2-y,1/2+z
_cell_length_a                   10.0991(5)
_cell_length_b                   11.7547(6)
_cell_length_c                   11.9808(7)
_cell_angle_alpha                90
_cell_angle_beta                 107.886(3)
_cell_angle_gamma                90
_cell_volume                     1353.52
_exptl_crystal_colour            'red orange'
_exptl_crystal_description       plate
_cell_formula_units_Z            4
loop_
_atom_site_label
_atom_site_type_symbol
_atom_site_fract_x
_atom_site_fract_y
_atom_site_fract_z
F1 F 0.57997(5) 0.50516(4) 0.21296(5)
F2 F 0.49019(5) 0.33589(4) 0.13163(4)
N1 N 0.34348(6) 0.46042(5) 0.20468(5)
N2 N 0.54374(6) 0.35895(5) 0.34168(5)
C1 C 0.26107(8) 0.51564(6) 0.10965(7)
C2 C 0.14092(8) 0.55448(7) 0.13404(7)
H1 H 0.0668 0.5960 0.0818
C3 C 0.14931(7) 0.52174(6) 0.24764(7)
C4 C 0.27752(7) 0.46081(6) 0.29228(6)
C5 C 0.34055(7) 0.40834(6) 0.40052(6)
C6 C 0.47314(7) 0.35876(6) 0.42569(6)
C7 C 0.55800(7) 0.30165(6) 0.52775(6)
C8 C 0.67834(7) 0.26909(6) 0.50254(7)
H2 H 0.7550 0.2296 0.5540
C9 C 0.66706(7) 0.30460(6) 0.38805(7)
C10 C 0.29707(10) 0.52955(8) -0.00122(8)
H3 H 0.3887 0.5655 0.0160
H4 H 0.2271 0.5775 -0.0557
H5 H 0.2991 0.4548 -0.0368
C11 C 0.04233(8) 0.55073(7) 0.30628(8)
H6 H -0.0205 0.6091 0.2605
H7 H 0.0887 0.5796 0.3854
H8 H -0.0112 0.4824 0.3113
C12 C 0.26692(8) 0.40139(6) 0.49052(7)
H9 H 0.2976 0.4484 0.5581
C13 C 0.16027(9) 0.33225(8) 0.48004(8)
H10 H 0.1280 0.2846 0.4131
H11 H 0.1160 0.3303 0.5395
C14 C 0.53015(9) 0.27687(7) 0.64117(7)
H12 H 0.6115 0.2394 0.6952
H13 H 0.4491 0.2267 0.6265
H14 H 0.5117 0.3482 0.6760
C15 C 0.76999(8) 0.28780(8) 0.32280(8)
H15 H 0.7331 0.2327 0.2594
H16 H 0.8575 0.2591 0.3766
H17 H 0.7869 0.3605 0.2896
B1 B 0.49201(8) 0.41492(7) 0.21941(7)
loop_
_geom_bond_atom_site_label_1
_geom_bond_atom_site_label_2
_geom_bond_site_symmetry_1
_geom_bond_site_symmetry_2
F1 B1 1_555 1_555
F2 B1 1_555 1_555
N1 C1 1_555 1_555
N2 C6 1_555 1_555
C1 C2 1_555 1_555
C2 H1 1_555 1_555
C3 C2 1_555 1_555
C4 N1 1_555 1_555
C5 C4 1_555 1_555
C6 C5 1_555 1_555
C7 C6 1_555 1_555
C8 C7 1_555 1_555
H2 C8 1_555 1_555
C9 N2 1_555 1_555
C10 C1 1_555 1_555
H3 C10 1_555 1_555
H4 C10 1_555 1_555
H5 C10 1_555 1_555
C11 C3 1_555 1_555
H6 C11 1_555 1_555
H7 C11 1_555 1_555
H8 C11 1_555 1_555
C12 C5 1_555 1_555
H9 C12 1_555 1_555
C13 C12 1_555 1_555
H10 C13 1_555 1_555
H11 C13 1_555 1_555
C14 C7 1_555 1_555
H12 C14 1_555 1_555
H13 C14 1_555 1_555
H14 C14 1_555 1_555
C15 C9 1_555 1_555
H15 C15 1_555 1_555
H16 C15 1_555 1_555
H17 C15 1_555 1_555
B1 N1 1_555 1_555
N2 B1 1_555 1_555
C3 C4 1_555 1_555
C8 C9 1_555 1_555

#END
