
#######################################################################
#
#                 Cambridge Crystallographic Data Centre
#                                CCDC 
#
#######################################################################
#
# If this CIF has been generated from an entry in the Cambridge 
# Structural Database, then it will include bibliographic, chemical, 
# crystal, experimental, refinement or atomic coordinate data resulting 
# from the CCDC's data processing and validation procedures.
#
#######################################################################

data_FOGWII
_chemical_formula_moiety         'C33 H25 Br1 N4'
_chemical_name_systematic        
5-(4'-(Bromomethyl)biphenyl-2-yl)-2-trityl-2H-tetrazole
_symmetry_cell_setting           monoclinic
_symmetry_space_group_name_H-M   'P 21/n'
_symmetry_Int_Tables_number      14
_space_group_name_Hall           '-P 2yn'
loop_
_symmetry_equiv_pos_site_id
_symmetry_equiv_pos_as_xyz
1 x,y,z
2 1/2-x,1/2+y,1/2-z
3 -x,-y,-z
4 1/2+x,1/2-y,1/2+z
_cell_length_a                   10.6150(6)
_cell_length_b                   14.9140(5)
_cell_length_c                   17.3961(9)
_cell_angle_alpha                90
_cell_angle_beta                 102.263(4)
_cell_angle_gamma                90
_cell_volume                     2691.17
_exptl_crystal_colour            colorless
_exptl_crystal_description       block
_chemical_melting_point          '411 K'
_cell_formula_units_Z            4
_exptl_crystal_recrystallization_method 'ethyl methyl ketone'
loop_
_atom_site_label
_atom_site_type_symbol
_atom_site_fract_x
_atom_site_fract_y
_atom_site_fract_z
N1 N 0.60825(18) 0.38667(14) 0.73782(12)
N2 N 0.4869(2) 0.41555(15) 0.71005(13)
C1 C 0.4728(2) 0.40187(16) 0.63327(14)
N3 N 0.5807(2) 0.36741(17) 0.61461(13)
N4 N 0.6660(2) 0.35774(16) 0.68203(13)
C2 C 0.6679(2) 0.38389(17) 0.82493(14)
C3 C 0.7855(2) 0.31968(16) 0.83616(14)
C4 C 0.8971(2) 0.34701(18) 0.81077(15)
H1 H 0.8990 0.4040 0.7866
C5 C 1.0046(2) 0.29123(19) 0.82080(17)
H2 H 1.0790 0.3100 0.8030
C6 C 1.0032(3) 0.20779(19) 0.85691(17)
H3 H 1.0765 0.1697 0.8639
C7 C 0.8939(3) 0.1808(2) 0.88257(18)
H4 H 0.8927 0.1241 0.9073
C8 C 0.7855(3) 0.23666(19) 0.87217(16)
H5 H 0.7112 0.2175 0.8900
C9 C 0.7154(2) 0.47861(17) 0.85317(14)
C10 C 0.7998(2) 0.48690(18) 0.92685(15)
H6 H 0.8268 0.4348 0.9574
C11 C 0.8443(2) 0.57115(19) 0.95558(16)
H7 H 0.9001 0.5761 1.0059
C12 C 0.8073(3) 0.64799(19) 0.91078(17)
H8 H 0.8381 0.7052 0.9302
C13 C 0.7250(3) 0.64001(19) 0.83755(18)
H9 H 0.6997 0.6921 0.8067
C14 C 0.6790(3) 0.55605(18) 0.80889(16)
H10 H 0.6224 0.5516 0.7588
C15 C 0.5598(2) 0.34901(17) 0.86463(14)
C16 C 0.5364(2) 0.38664(18) 0.93369(15)
H11 H 0.5882 0.4351 0.9578
C17 C 0.4376(2) 0.35387(19) 0.96782(16)
H12 H 0.4229 0.3800 1.0149
C18 C 0.3609(2) 0.28314(19) 0.93293(17)
H13 H 0.2932 0.2614 0.9558
C19 C 0.3836(3) 0.24445(19) 0.86459(17)
H14 H 0.3318 0.1957 0.8410
C20 C 0.4821(2) 0.27675(18) 0.83041(15)
H15 H 0.4969 0.2498 0.7836
C21 C 0.2482(2) 0.35903(17) 0.56175(14)
C22 C 0.3512(2) 0.42050(17) 0.57453(14)
C23 C 0.3402(3) 0.50141(17) 0.53305(16)
H16 H 0.4106 0.5421 0.5418
C24 C 0.2272(3) 0.5233(2) 0.47898(17)
H17 H 0.2204 0.5783 0.4509
C25 C 0.1250(3) 0.4633(2) 0.46701(16)
H18 H 0.0476 0.4776 0.4305
C26 C 0.1345(2) 0.3826(2) 0.50772(16)
H19 H 0.0632 0.3427 0.4990
C27 C 0.2543(2) 0.26879(17) 0.59983(15)
C28 C 0.1558(2) 0.23989(19) 0.63600(16)
H20 H 0.0882 0.2800 0.6406
C29 C 0.1556(3) 0.1530(2) 0.66529(16)
H21 H 0.0882 0.1348 0.6900
C30 C 0.2529(3) 0.09229(18) 0.65893(15)
C31 C 0.3529(3) 0.12168(18) 0.62384(16)
H22 H 0.4211 0.0818 0.6201
C32 C 0.3535(2) 0.20802(18) 0.59453(16)
H23 H 0.4217 0.2264 0.5705
C33 C 0.2509(3) -0.00222(19) 0.68819(18)
H24 H 0.2758 -0.0439 0.6497
H25 H 0.1627 -0.0179 0.6938
Br1 Br 0.37148(3) -0.01461(2) 0.790376(18)
loop_
_geom_bond_atom_site_label_1
_geom_bond_atom_site_label_2
_geom_bond_site_symmetry_1
_geom_bond_site_symmetry_2
N1 N2 1_555 1_555
N2 C1 1_555 1_555
C1 N3 1_555 1_555
N3 N4 1_555 1_555
N4 N1 1_555 1_555
C2 N1 1_555 1_555
C3 C2 1_555 1_555
C4 C3 1_555 1_555
H1 C4 1_555 1_555
C5 C4 1_555 1_555
H2 C5 1_555 1_555
C6 C5 1_555 1_555
H3 C6 1_555 1_555
C7 C6 1_555 1_555
H4 C7 1_555 1_555
C8 C3 1_555 1_555
H5 C8 1_555 1_555
C9 C2 1_555 1_555
C10 C9 1_555 1_555
H6 C10 1_555 1_555
C11 C10 1_555 1_555
H7 C11 1_555 1_555
C12 C11 1_555 1_555
H8 C12 1_555 1_555
C13 C12 1_555 1_555
H9 C13 1_555 1_555
C14 C9 1_555 1_555
H10 C14 1_555 1_555
C15 C2 1_555 1_555
C16 C15 1_555 1_555
H11 C16 1_555 1_555
C17 C16 1_555 1_555
H12 C17 1_555 1_555
C18 C17 1_555 1_555
H13 C18 1_555 1_555
C19 C18 1_555 1_555
H14 C19 1_555 1_555
C20 C15 1_555 1_555
H15 C20 1_555 1_555
C21 C22 1_555 1_555
C22 C1 1_555 1_555
C23 C22 1_555 1_555
H16 C23 1_555 1_555
C24 C23 1_555 1_555
H17 C24 1_555 1_555
C25 C24 1_555 1_555
H18 C25 1_555 1_555
C26 C21 1_555 1_555
H19 C26 1_555 1_555
C27 C21 1_555 1_555
C28 C27 1_555 1_555
H20 C28 1_555 1_555
C29 C28 1_555 1_555
H21 C29 1_555 1_555
C30 C29 1_555 1_555
C31 C30 1_555 1_555
H22 C31 1_555 1_555
C32 C27 1_555 1_555
H23 C32 1_555 1_555
C33 C30 1_555 1_555
H24 C33 1_555 1_555
H25 C33 1_555 1_555
Br1 C33 1_555 1_555
C7 C8 1_555 1_555
C13 C14 1_555 1_555
C19 C20 1_555 1_555
C25 C26 1_555 1_555
C31 C32 1_555 1_555

#END
