
#######################################################################
#
#                 Cambridge Crystallographic Data Centre
#                                CCDC 
#
#######################################################################
#
# If this CIF has been generated from an entry in the Cambridge 
# Structural Database, then it will include bibliographic, chemical, 
# crystal, experimental, refinement or atomic coordinate data resulting 
# from the CCDC's data processing and validation procedures.
#
#######################################################################

data_FOHHIU
_chemical_formula_moiety         'C14 H15 N1 O1'
_chemical_name_systematic        4-Methoxy-2-methyl-N-phenylaniline
_symmetry_cell_setting           monoclinic
_symmetry_space_group_name_H-M   'P 21'
_symmetry_Int_Tables_number      4
_space_group_name_Hall           'P 2yb'
loop_
_symmetry_equiv_pos_site_id
_symmetry_equiv_pos_as_xyz
1 x,y,z
2 -x,1/2+y,-z
_cell_length_a                   6.3265(13)
_cell_length_b                   11.047(2)
_cell_length_c                   9.0030(18)
_cell_angle_alpha                90
_cell_angle_beta                 109.14(3)
_cell_angle_gamma                90
_cell_volume                     594.427
_exptl_crystal_colour            colorless
_exptl_crystal_description       platelet
_chemical_melting_point          '345-347 K'
_cell_formula_units_Z            2
_exptl_crystal_recrystallization_method ethanol
loop_
_atom_site_label
_atom_site_type_symbol
_atom_site_fract_x
_atom_site_fract_y
_atom_site_fract_z
O1 O 0.3265(2) 0.66277(13) 0.72281(15)
N1 N 0.3033(3) 0.9632(2) 0.21992(18)
H1 H 0.4130 1.0122 0.2312
C1 C 0.4484(3) 0.78547(19) 0.3847(2)
C2 C 0.3091(3) 0.88723(18) 0.34898(18)
C3 C 0.1761(4) 0.91264(18) 0.4393(2)
H2 H 0.0840 0.9805 0.4152
C4 C 0.1748(3) 0.84048(18) 0.5648(2)
H3 H 0.0830 0.8592 0.6238
C5 C 0.3118(3) 0.74099(16) 0.60035(18)
C6 C 0.4495(3) 0.71469(18) 0.5125(2)
H4 H 0.5446 0.6482 0.5396
C7 C 0.1981(4) 0.6904(2) 0.8220(2)
H5 H 0.2229 0.6295 0.9020
H6 H 0.0422 0.6924 0.7606
H7 H 0.2425 0.7679 0.8704
C8 C 0.5938(4) 0.7511(3) 0.2881(3)
H8 H 0.6765 0.6792 0.3308
H9 H 0.6960 0.8159 0.2905
H10 H 0.5014 0.7364 0.1815
C9 C 0.1317(3) 0.96263(15) 0.07779(18)
C10 C 0.1369(3) 1.04281(17) -0.0403(2)
H11 H 0.2579 1.0949 -0.0235
C11 C -0.0345(4) 1.0459(2) -0.1815(2)
H12 H -0.0286 1.1004 -0.2587
C12 C -0.2155(3) 0.9688(2) -0.2098(2)
H13 H -0.3316 0.9711 -0.3053
C13 C -0.2209(3) 0.8884(2) -0.0938(2)
H14 H -0.3413 0.8356 -0.1120
C14 C -0.0504(3) 0.88494(17) 0.0487(2)
H15 H -0.0572 0.8304 0.1258
loop_
_geom_bond_atom_site_label_1
_geom_bond_atom_site_label_2
_geom_bond_site_symmetry_1
_geom_bond_site_symmetry_2
O1 C5 1_555 1_555
N1 H1 1_555 1_555
C1 C2 1_555 1_555
C2 N1 1_555 1_555
C3 C2 1_555 1_555
H2 C3 1_555 1_555
C4 C3 1_555 1_555
H3 C4 1_555 1_555
C5 C4 1_555 1_555
C6 C1 1_555 1_555
H4 C6 1_555 1_555
C7 O1 1_555 1_555
H5 C7 1_555 1_555
H6 C7 1_555 1_555
H7 C7 1_555 1_555
C8 C1 1_555 1_555
H8 C8 1_555 1_555
H9 C8 1_555 1_555
H10 C8 1_555 1_555
C9 N1 1_555 1_555
C10 C9 1_555 1_555
H11 C10 1_555 1_555
C11 C10 1_555 1_555
H12 C11 1_555 1_555
C12 C11 1_555 1_555
H13 C12 1_555 1_555
C13 C12 1_555 1_555
H14 C13 1_555 1_555
C14 C9 1_555 1_555
H15 C14 1_555 1_555
C5 C6 1_555 1_555
C13 C14 1_555 1_555

#END
