
#######################################################################
#
#                 Cambridge Crystallographic Data Centre
#                                CCDC 
#
#######################################################################
#
# If this CIF has been generated from an entry in the Cambridge 
# Structural Database, then it will include bibliographic, chemical, 
# crystal, experimental, refinement or atomic coordinate data resulting 
# from the CCDC's data processing and validation procedures.
#
#######################################################################

data_FOHJAO
_chemical_formula_moiety         'C14 H10 Cl1 N1 O1'
_chemical_name_systematic        
8-Chloro-10,11-dihydro-4-aza-5H-dibenzo(a,d)cyclohepten-5-one
_symmetry_cell_setting           monoclinic
_symmetry_space_group_name_H-M   'P 21/n'
_symmetry_Int_Tables_number      14
_space_group_name_Hall           '-P 2yn'
loop_
_symmetry_equiv_pos_site_id
_symmetry_equiv_pos_as_xyz
1 x,y,z
2 1/2-x,1/2+y,1/2-z
3 -x,-y,-z
4 1/2+x,1/2-y,1/2+z
_cell_length_a                   6.8221(3)
_cell_length_b                   23.0230(10)
_cell_length_c                   7.6719(3)
_cell_angle_alpha                90
_cell_angle_beta                 107.176(2)
_cell_angle_gamma                90
_cell_volume                     1151.25
_exptl_crystal_colour            colorless
_exptl_crystal_description       block
_chemical_melting_point          '373 K'
_cell_formula_units_Z            4
_exptl_crystal_recrystallization_method methanol
loop_
_atom_site_label
_atom_site_type_symbol
_atom_site_fract_x
_atom_site_fract_y
_atom_site_fract_z
Cl1 Cl 0.29730(10) 0.38736(2) 0.58020(8)
O1 O 0.9062(2) 0.59633(6) 1.0202(2)
N1 N 0.8241(3) 0.69819(7) 0.8186(3)
C1 C 0.7392(3) 0.60450(7) 0.9104(3)
C2 C 0.6758(3) 0.66636(7) 0.8551(2)
C3 C 0.7803(4) 0.75370(10) 0.7749(3)
C4 C 0.5984(4) 0.77960(10) 0.7693(4)
C5 C 0.4495(4) 0.74639(9) 0.8093(3)
C6 C 0.4864(3) 0.68803(8) 0.8534(3)
C7 C 0.3303(3) 0.64971(8) 0.8978(3)
C8 C 0.2529(3) 0.60225(9) 0.7577(3)
C9 C 0.3962(3) 0.55204(8) 0.7577(2)
C10 C 0.3043(3) 0.49931(9) 0.6857(2)
C11 C 0.4188(3) 0.45142(8) 0.6734(2)
C12 C 0.6300(3) 0.45281(8) 0.7345(3)
C13 C 0.7238(3) 0.50361(7) 0.8128(2)
C14 C 0.6100(3) 0.55362(7) 0.8249(2)
H1 H 0.1543 0.4965 0.6427
H2 H 0.7104 0.4187 0.7217
H3 H 0.8736 0.5051 0.8616
H4 H 0.3937 0.6312 1.0145
H5 H 0.2157 0.6734 0.9061
H6 H 0.8857 0.7774 0.7457
H7 H 0.5732 0.8206 0.7356
H8 H 0.2213 0.6208 0.6390
H9 H 0.1283 0.5863 0.7749
H10 H 0.3180 0.7639 0.8079
loop_
_geom_bond_atom_site_label_1
_geom_bond_atom_site_label_2
_geom_bond_site_symmetry_1
_geom_bond_site_symmetry_2
Cl1 C11 1_555 1_555
O1 C1 1_555 1_555
N1 C2 1_555 1_555
C1 C2 1_555 1_555
C2 C6 1_555 1_555
C3 N1 1_555 1_555
C4 C3 1_555 1_555
C5 C4 1_555 1_555
C6 C5 1_555 1_555
C7 C6 1_555 1_555
C8 C7 1_555 1_555
C9 C8 1_555 1_555
C10 C9 1_555 1_555
C11 C10 1_555 1_555
C12 C11 1_555 1_555
C13 C12 1_555 1_555
C14 C1 1_555 1_555
H1 C10 1_555 1_555
H2 C12 1_555 1_555
H3 C13 1_555 1_555
H4 C7 1_555 1_555
H5 C7 1_555 1_555
H6 C3 1_555 1_555
H7 C4 1_555 1_555
H8 C8 1_555 1_555
H9 C8 1_555 1_555
H10 C5 1_555 1_555
C9 C14 1_555 1_555
C13 C14 1_555 1_555

#END
