
#######################################################################
#
#                 Cambridge Crystallographic Data Centre
#                                CCDC 
#
#######################################################################
#
# If this CIF has been generated from an entry in the Cambridge 
# Structural Database, then it will include bibliographic, chemical, 
# crystal, experimental, refinement or atomic coordinate data resulting 
# from the CCDC's data processing and validation procedures.
#
#######################################################################

data_FOJFUG
_chemical_formula_moiety         'C17 H20 N2 O2'
_chemical_name_systematic        
1-Dimethylamino-3,3-diethyl-3H-furo(3,4-b)quinolin-9-one
_symmetry_cell_setting           monoclinic
_symmetry_space_group_name_H-M   'C c'
_symmetry_Int_Tables_number      9
_space_group_name_Hall           'C -2yc'
loop_
_symmetry_equiv_pos_site_id
_symmetry_equiv_pos_as_xyz
1 x,y,z
2 x,-y,1/2+z
3 1/2+x,1/2+y,z
4 1/2+x,1/2-y,1/2+z
_cell_length_a                   15.0430(10)
_cell_length_b                   15.1431(9)
_cell_length_c                   27.4512(12)
_cell_angle_alpha                90
_cell_angle_beta                 104.991(6)
_cell_angle_gamma                90
_cell_volume                     6040.5
_exptl_crystal_colour            'light yellow'
_chemical_melting_point          190deg.C
_cell_formula_units_Z            16
loop_
_atom_site_label
_atom_site_type_symbol
_atom_site_fract_x
_atom_site_fract_y
_atom_site_fract_z
N1 N 1.4214(4) 0.1805(3) 1.0548(2)
O1 O 1.3511(4) 0.0941(4) 1.1851(2)
C1 C 1.5376(4) 0.0449(4) 1.1565(2)
O2 O 1.6006(3) 0.0465(3) 1.1300(2)
C2 C 1.4584(4) 0.0950(4) 1.1339(2)
N2 N 1.5624(4) -0.0065(3) 1.1971(2)
C3 C 1.3743(4) 0.1179(4) 1.1463(2)
C4 C 1.3152(4) 0.1772(4) 1.1093(2)
C5 C 1.2328(5) 0.2080(5) 1.1175(3)
C6 C 1.1738(6) 0.2605(6) 1.0829(3)
C7 C 1.1974(5) 0.2853(5) 1.0390(3)
C8 C 1.2775(5) 0.2579(4) 1.0303(3)
C9 C 1.3393(4) 0.2037(4) 1.0652(2)
C10 C 1.4750(4) 0.1301(4) 1.0890(2)
C11 C 1.5683(4) 0.1028(4) 1.0844(2)
C12 C 1.6520(5) -0.0526(5) 1.2093(3)
C13 C 1.5077(5) -0.0188(5) 1.2331(2)
C14 C 1.5674(6) 0.0459(5) 1.0386(3)
C15 C 1.5087(7) -0.0335(6) 1.0324(3)
C16 C 1.6347(5) 0.1801(5) 1.0891(3)
C17 C 1.6438(6) 0.2387(5) 1.1351(3)
H1 H 1.2174 0.1926 1.1471
H2 H 1.1187 0.2794 1.0888
H3 H 1.1577 0.3209 1.0155
H4 H 1.2921 0.2751 1.0008
H5 H 1.6589 -0.0860 1.2397
H6 H 1.7007 -0.0100 1.2138
H7 H 1.6546 -0.0917 1.1821
H8 H 1.5391 -0.0583 1.2592
H9 H 1.4490 -0.0433 1.2162
H10 H 1.4990 0.0371 1.2476
H11 H 1.5472 0.0821 1.0086
H12 H 1.6300 0.0274 1.0407
H13 H 1.5137 -0.0654 1.0030
H14 H 1.4458 -0.0161 1.0285
H15 H 1.5283 -0.0705 1.0616
H16 H 1.6149 0.2164 1.0591
H17 H 1.6951 0.1569 1.0896
H18 H 1.6883 0.2842 1.1352
H19 H 1.6635 0.2038 1.1652
H20 H 1.5853 0.2652 1.1340
N3 N 0.9041(4) 0.1197(3) 1.0562(2)
C18 C 1.0771(4) 0.0509(4) 1.1630(2)
O3 O 1.0316(4) 0.2487(3) 1.1920(2)
N4 N 1.1438(3) 0.0456(3) 1.2051(2)
C19 C 1.0172(4) 0.1201(4) 1.1389(2)
O4 O 1.0636(3) -0.0244(3) 1.1366(2)
C20 C 0.9957(4) 0.2079(4) 1.1513(2)
C21 C 0.9237(4) 0.2499(4) 1.1121(2)
C22 C 0.8943(5) 0.3355(4) 1.1191(3)
C23 C 0.8261(5) 0.3772(5) 1.0835(3)
C24 C 0.7858(5) 0.3335(5) 1.0390(3)
C25 C 0.8132(5) 0.2510(5) 1.0304(3)
C26 C 0.8819(4) 0.2059(4) 1.0667(2)
C27 C 0.9662(4) 0.0835(4) 1.0921(2)
C28 C 0.9930(5) -0.0113(4) 1.0891(2)
C29 C 1.1957(5) -0.0352(4) 1.2189(3)
C30 C 1.1748(5) 0.1196(5) 1.2393(2)
C31 C 1.0365(7) -0.0310(5) 1.0448(3)
C32 C 1.1173(8) 0.0257(7) 1.0442(4)
C33 C 0.9133(6) -0.0738(5) 1.0898(3)
C34 C 0.8636(6) -0.0546(6) 1.1308(3)
H21 H 0.9218 0.3651 1.1488
H22 H 0.8073 0.4339 1.0892
H23 H 0.7394 0.3610 1.0147
H24 H 0.7862 0.2235 0.9999
H25 H 1.2413 -0.0268 1.2502
H26 H 1.2255 -0.0505 1.1930
H27 H 1.1548 -0.0820 1.2225
H28 H 1.2240 0.1005 1.2672
H29 H 1.1246 0.1407 1.2517
H30 H 1.1963 0.1663 1.2216
H31 H 1.0555 -0.0924 1.0467
H32 H 0.9899 -0.0230 1.0133
H33 H 1.1416 0.0087 1.0165
H34 H 1.1639 0.0184 1.0753
H35 H 1.0984 0.0864 1.0404
H36 H 0.9369 -0.1337 1.0942
H37 H 0.8688 -0.0710 1.0572
H38 H 0.8153 -0.0970 1.1286
H39 H 0.8377 0.0037 1.1260
H40 H 0.9066 -0.0584 1.1633
N5 N 0.6558(3) 0.3852(3) 0.9125(2)
C35 C 0.4694(4) 0.3165(4) 0.8118(2)
O5 O 0.5068(4) 0.5153(3) 0.7820(2)
O6 O 0.4851(3) 0.2418(3) 0.8389(2)
C36 C 0.5318(4) 0.3844(4) 0.8335(2)
N6 N 0.3990(4) 0.3110(3) 0.7710(2)
C37 C 0.5489(5) 0.4743(4) 0.8206(2)
C38 C 0.6250(4) 0.5167(4) 0.8579(2)
C39 C 0.6521(5) 0.6034(4) 0.8490(3)
C40 C 0.7219(5) 0.6449(5) 0.8825(3)
C41 C 0.7684(5) 0.6014(4) 0.9267(3)
C42 C 0.7440(4) 0.5170(4) 0.9357(2)
C43 C 0.6741(4) 0.4732(4) 0.9016(2)
C44 C 0.5892(4) 0.3488(4) 0.8782(2)
C45 C 0.5630(4) 0.2537(4) 0.8838(2)
C46 C 0.3694(5) 0.3802(5) 0.7351(2)
C47 C 0.3454(5) 0.2270(5) 0.7599(3)
C48 C 0.6388(5) 0.1894(4) 0.8782(3)
C49 C 0.6731(6) 0.2006(5) 0.8324(3)
C50 C 0.5302(6) 0.2348(5) 0.9307(3)
C51 C 0.4541(7) 0.2946(6) 0.9385(3)
H41 H 0.6214 0.6326 0.8197
H42 H 0.7387 0.7020 0.8761
H43 H 0.8158 0.6297 0.9500
H44 H 0.7751 0.4886 0.9652
H45 H 0.3175 0.3604 0.7091
H46 H 0.4187 0.3958 0.7205
H47 H 0.3522 0.4307 0.7517
H48 H 0.2962 0.2342 0.7299
H49 H 0.3204 0.2126 0.7877
H50 H 0.3853 0.1803 0.7549
H51 H 0.6905 0.1955 0.9076
H52 H 0.6155 0.1297 0.8783
H53 H 0.7200 0.1574 0.8326
H54 H 0.6984 0.2588 0.8322
H55 H 0.6232 0.1927 0.8028
H56 H 0.5088 0.1742 0.9291
H57 H 0.5825 0.2398 0.9600
H58 H 0.4371 0.2771 0.9685
H59 H 0.4015 0.2899 0.9100
H60 H 0.4754 0.3546 0.9419
N7 N 0.5996(3) 0.9034(3) 0.9152(2)
O7 O 0.6638(3) 0.8426(4) 0.7791(2)
C52 C 0.4804(4) 0.7799(4) 0.8081(2)
O8 O 0.4179(3) 0.7793(3) 0.8354(2)
C53 C 0.5598(4) 0.8303(4) 0.8323(2)
N8 N 0.4544(3) 0.7364(3) 0.7657(2)
C54 C 0.6416(4) 0.8586(4) 0.8193(2)
C55 C 0.7026(4) 0.9122(4) 0.8586(2)
C56 C 0.7844(5) 0.9475(5) 0.8507(3)
C57 C 0.8419(5) 1.0000(5) 0.8862(3)
C58 C 0.8198(5) 1.0182(5) 0.9318(3)
C59 C 0.7401(4) 0.9838(4) 0.9410(2)
C60 C 0.6804(4) 0.9319(4) 0.9047(2)
C61 C 0.5463(4) 0.8575(4) 0.8792(2)
C62 C 0.4535(4) 0.8281(4) 0.8830(2)
C63 C 0.3640(5) 0.6882(5) 0.7525(3)
C64 C 0.5120(5) 0.7234(5) 0.7313(2)
C65 C 0.4516(6) 0.7668(6) 0.9266(3)
C66 C 0.5129(6) 0.6859(6) 0.9298(3)
C67 C 0.3896(5) 0.9072(6) 0.8819(3)
C68 C 0.3880(6) 0.9747(6) 0.8414(3)
H61 H 0.7999 0.9351 0.8208
H62 H 0.8952 1.0232 0.8801
H63 H 0.8587 1.0533 0.9560
H64 H 0.7264 0.9955 0.9715
H65 H 0.3551 0.6610 0.7200
H66 H 0.3150 0.7292 0.7517
H67 H 0.3643 0.6435 0.7773
H68 H 0.4783 0.6910 0.7023
H69 H 0.5660 0.6908 0.7480
H70 H 0.5297 0.7797 0.7208
H71 H 0.3888 0.7475 0.9231
H72 H 0.4709 0.7996 0.9579
H73 H 0.5085 0.6502 0.9579
H74 H 0.5755 0.7043 0.9341
H75 H 0.4932 0.6521 0.8993
H76 H 0.3275 0.8852 0.8777
H77 H 0.4077 0.9366 0.9144
H78 H 0.3459 1.0212 0.8437
H79 H 0.3685 0.9471 0.8089
H80 H 0.4485 0.9989 0.8457
H81? H 1.4523 0.0154 1.2228
H82? H 1.5424 0.0003 1.2658
H83? H 1.4924 -0.0801 1.2344
H84? H 1.1393 0.1711 1.2265
H85? H 1.2387 0.1310 1.2420
H86? H 1.1669 0.1053 1.2720
H87? H 0.4081 0.4309 0.7451
H88? H 0.3069 0.3955 0.7337
H89? H 0.3734 0.3606 0.7025
loop_
_geom_bond_atom_site_label_1
_geom_bond_atom_site_label_2
_geom_bond_site_symmetry_1
_geom_bond_site_symmetry_2
N1 C9 1_555 1_555
O1 C3 1_555 1_555
C1 O2 1_555 1_555
O2 C11 1_555 1_555
C2 C1 1_555 1_555
N2 C1 1_555 1_555
C3 C2 1_555 1_555
C4 C3 1_555 1_555
C5 C4 1_555 1_555
C6 C5 1_555 1_555
C7 C6 1_555 1_555
C8 C7 1_555 1_555
C9 C4 1_555 1_555
C10 N1 1_555 1_555
C11 C10 1_555 1_555
C12 N2 1_555 1_555
C13 N2 1_555 1_555
C14 C11 1_555 1_555
C15 C14 1_555 1_555
C16 C11 1_555 1_555
C17 C16 1_555 1_555
H1 C5 1_555 1_555
H2 C6 1_555 1_555
H3 C7 1_555 1_555
H4 C8 1_555 1_555
H5 C12 1_555 1_555
H6 C12 1_555 1_555
H7 C12 1_555 1_555
H8 C13 1_555 1_555
H9 C13 1_555 1_555
H10 C13 1_555 1_555
H11 C14 1_555 1_555
H12 C14 1_555 1_555
H13 C15 1_555 1_555
H14 C15 1_555 1_555
H15 C15 1_555 1_555
H16 C16 1_555 1_555
H17 C16 1_555 1_555
H18 C17 1_555 1_555
H19 C17 1_555 1_555
H20 C17 1_555 1_555
N3 C26 1_555 1_555
C18 N4 1_555 1_555
O3 C20 1_555 1_555
N4 C29 1_555 1_555
C19 C18 1_555 1_555
O4 C18 1_555 1_555
C20 C19 1_555 1_555
C21 C20 1_555 1_555
C22 C21 1_555 1_555
C23 C22 1_555 1_555
C24 C23 1_555 1_555
C25 C24 1_555 1_555
C26 C21 1_555 1_555
C27 N3 1_555 1_555
C28 O4 1_555 1_555
C29 H25 1_555 1_555
C30 N4 1_555 1_555
C31 C28 1_555 1_555
C32 C31 1_555 1_555
C33 C28 1_555 1_555
C34 C33 1_555 1_555
H21 C22 1_555 1_555
H22 C23 1_555 1_555
H23 C24 1_555 1_555
H24 C25 1_555 1_555
H26 C29 1_555 1_555
H27 C29 1_555 1_555
H28 C30 1_555 1_555
H29 C30 1_555 1_555
H30 C30 1_555 1_555
H31 C31 1_555 1_555
H32 C31 1_555 1_555
H33 C32 1_555 1_555
H34 C32 1_555 1_555
H35 C32 1_555 1_555
H36 C33 1_555 1_555
H37 C33 1_555 1_555
H38 C34 1_555 1_555
H39 C34 1_555 1_555
H40 C34 1_555 1_555
N5 C43 1_555 1_555
C35 O6 1_555 1_555
O5 C37 1_555 1_555
O6 C45 1_555 1_555
C36 C35 1_555 1_555
N6 C35 1_555 1_555
C37 C36 1_555 1_555
C38 C37 1_555 1_555
C39 C38 1_555 1_555
C40 C39 1_555 1_555
C41 C40 1_555 1_555
C42 C41 1_555 1_555
C43 C38 1_555 1_555
C44 N5 1_555 1_555
C45 C44 1_555 1_555
C46 N6 1_555 1_555
C47 N6 1_555 1_555
C48 C45 1_555 1_555
C49 C48 1_555 1_555
C50 C45 1_555 1_555
C51 C50 1_555 1_555
H41 C39 1_555 1_555
H42 C40 1_555 1_555
H43 C41 1_555 1_555
H44 C42 1_555 1_555
H45 C46 1_555 1_555
H46 C46 1_555 1_555
H47 C46 1_555 1_555
H48 C47 1_555 1_555
H49 C47 1_555 1_555
H50 C47 1_555 1_555
H51 C48 1_555 1_555
H52 C48 1_555 1_555
H53 C49 1_555 1_555
H54 C49 1_555 1_555
H55 C49 1_555 1_555
H56 C50 1_555 1_555
H57 C50 1_555 1_555
H58 C51 1_555 1_555
H59 C51 1_555 1_555
H60 C51 1_555 1_555
N7 C60 1_555 1_555
O7 C54 1_555 1_555
C52 O8 1_555 1_555
O8 C62 1_555 1_555
C53 C52 1_555 1_555
N8 C52 1_555 1_555
C54 C53 1_555 1_555
C55 C54 1_555 1_555
C56 C55 1_555 1_555
C57 C56 1_555 1_555
C58 C57 1_555 1_555
C59 C58 1_555 1_555
C60 C55 1_555 1_555
C61 N7 1_555 1_555
C62 C61 1_555 1_555
C63 N8 1_555 1_555
C64 N8 1_555 1_555
C65 C62 1_555 1_555
C66 C65 1_555 1_555
C67 C62 1_555 1_555
C68 C67 1_555 1_555
H61 C56 1_555 1_555
H62 C57 1_555 1_555
H63 C58 1_555 1_555
H64 C59 1_555 1_555
H65 C63 1_555 1_555
H66 C63 1_555 1_555
H67 C63 1_555 1_555
H68 C64 1_555 1_555
H69 C64 1_555 1_555
H70 C64 1_555 1_555
H71 C65 1_555 1_555
H72 C65 1_555 1_555
H73 C66 1_555 1_555
H74 C66 1_555 1_555
H75 C66 1_555 1_555
H76 C67 1_555 1_555
H77 C67 1_555 1_555
H78 C68 1_555 1_555
H79 C68 1_555 1_555
H80 C68 1_555 1_555
C2 C10 1_555 1_555
C8 C9 1_555 1_555
C19 C27 1_555 1_555
C25 C26 1_555 1_555
C27 C28 1_555 1_555
C36 C44 1_555 1_555
C42 C43 1_555 1_555
C53 C61 1_555 1_555
C59 C60 1_555 1_555

#END
