
#######################################################################
#
#                 Cambridge Crystallographic Data Centre
#                                CCDC 
#
#######################################################################
#
# If this CIF has been generated from an entry in the Cambridge 
# Structural Database, then it will include bibliographic, chemical, 
# crystal, experimental, refinement or atomic coordinate data resulting 
# from the CCDC's data processing and validation procedures.
#
#######################################################################

data_FOLBUE03
_chemical_name_common            N-Benzylphthalimide
_chemical_formula_moiety         'C15 H11 N1 O2'
_chemical_name_systematic        2-Benzylisoindoline-1,3-dione
_symmetry_cell_setting           monoclinic
_symmetry_space_group_name_H-M   'P 21/n'
_symmetry_Int_Tables_number      14
_space_group_name_Hall           '-P 2yn'
loop_
_symmetry_equiv_pos_site_id
_symmetry_equiv_pos_as_xyz
1 x,y,z
2 1/2-x,1/2+y,1/2-z
3 -x,-y,-z
4 1/2+x,1/2-y,1/2+z
_cell_length_a                   8.8324(6)
_cell_length_b                   5.3656(4)
_cell_length_c                   25.1926(18)
_cell_angle_alpha                90
_cell_angle_beta                 98.851(3)
_cell_angle_gamma                90
_cell_volume                     1179.69
_exptl_crystal_colour            colorless
_exptl_crystal_description       needle
_cell_formula_units_Z            4
loop_
_atom_site_label
_atom_site_type_symbol
_atom_site_fract_x
_atom_site_fract_y
_atom_site_fract_z
O1 O 0.5810(4) 0.7318(7) 0.08609(13)
N1 N 0.7327(4) 1.0824(8) 0.09212(14)
O2 O 0.8908(4) 1.4018(7) 0.07261(13)
H1 H 0.579(6) 0.595(10) -0.030(2)
H2 H 0.631(6) 1.076(10) 0.1573(18)
H3 H 1.040(6) 1.130(11) 0.309(2)
H4 H 0.895(6) 1.300(11) -0.042(2)
H5 H 0.717(7) 1.326(13) 0.149(2)
H6 H 0.834(6) 1.292(12) 0.244(2)
H7 H 1.167(6) 0.743(11) 0.291(2)
H8 H 0.666(6) 0.677(11) -0.112(2)
H9 H 0.815(6) 1.037(10) -0.120(2)
H10 H 1.099(7) 0.588(12) 0.204(2)
H11 H 0.905(7) 0.729(12) 0.140(2)
C1 C 0.7860(5) 1.0946(9) 0.00582(17)
C2 C 0.6932(5) 0.8927(9) 0.00966(17)
C3 C 0.6470(6) 0.7357(11) -0.0330(2)
C4 C 0.6984(7) 0.7930(12) -0.0809(2)
C5 C 0.7910(6) 0.9958(12) -0.0849(2)
C6 C 0.8377(6) 1.1518(11) -0.0419(2)
C7 C 0.8157(5) 1.2218(9) 0.05865(18)
C8 C 0.6581(5) 0.8804(10) 0.06590(18)
C9 C 0.7296(7) 1.1484(13) 0.1487(2)
C10 C 0.8568(5) 1.0365(9) 0.18740(17)
C11 C 0.8977(7) 1.1438(12) 0.2375(2)
C12 C 1.0108(8) 1.0414(13) 0.2747(2)
C13 C 1.0886(7) 0.8336(13) 0.2625(2)
C14 C 1.0491(7) 0.7241(13) 0.2137(2)
C15 C 0.9351(6) 0.8245(10) 0.1757(2)
loop_
_geom_bond_atom_site_label_1
_geom_bond_atom_site_label_2
_geom_bond_site_symmetry_1
_geom_bond_site_symmetry_2
O1 C8 1_555 1_555
N1 C7 1_555 1_555
O2 C7 1_555 1_555
H1 C3 1_555 1_555
H2 C9 1_555 1_555
H3 C12 1_555 1_555
H4 C6 1_555 1_555
H5 C9 1_555 1_555
H6 C11 1_555 1_555
H7 C13 1_555 1_555
H8 C4 1_555 1_555
H9 C5 1_555 1_555
H10 C14 1_555 1_555
H11 C15 1_555 1_555
C1 C2 1_555 1_555
C2 C3 1_555 1_555
C3 C4 1_555 1_555
C4 C5 1_555 1_555
C5 C6 1_555 1_555
C6 C1 1_555 1_555
C7 C1 1_555 1_555
C8 N1 1_555 1_555
C9 N1 1_555 1_555
C10 C9 1_555 1_555
C11 C10 1_555 1_555
C12 C11 1_555 1_555
C13 C12 1_555 1_555
C14 C13 1_555 1_555
C15 C10 1_555 1_555
C2 C8 1_555 1_555
C14 C15 1_555 1_555

#END
