
#######################################################################
#
#                 Cambridge Crystallographic Data Centre
#                                CCDC 
#
#######################################################################
#
# If this CIF has been generated from an entry in the Cambridge 
# Structural Database, then it will include bibliographic, chemical, 
# crystal, experimental, refinement or atomic coordinate data resulting 
# from the CCDC's data processing and validation procedures.
#
#######################################################################

data_FOLBUE05
_chemical_name_common            N-Benzylphthalimide
_chemical_formula_moiety         'C15 H11 N1 O2'
_chemical_name_systematic        2-benzyl-1H-isoindole-1,3(2H)-dione
_symmetry_cell_setting           triclinic
_symmetry_space_group_name_H-M   'P -1'
_symmetry_Int_Tables_number      2
_space_group_name_Hall           '-P 1'
loop_
_symmetry_equiv_pos_site_id
_symmetry_equiv_pos_as_xyz
1 x,y,z
2 -x,-y,-z
_cell_length_a                   7.1914(4)
_cell_length_b                   8.5292(4)
_cell_length_c                   10.2554(6)
_cell_angle_alpha                99.184(4)
_cell_angle_beta                 97.479(4)
_cell_angle_gamma                106.803(4)
_cell_volume                     584.022
_exptl_crystal_description       block
_cell_formula_units_Z            2
loop_
_atom_site_label
_atom_site_type_symbol
_atom_site_fract_x
_atom_site_fract_y
_atom_site_fract_z
O1 O 0.07543(17) 0.35429(14) 0.14302(11)
O2 O 0.27189(17) 0.81284(12) 0.48568(11)
N1 N 0.16984(16) 0.60876(13) 0.29146(11)
C1 C 0.18329(18) 0.38247(16) 0.38287(14)
C2 C 0.24258(17) 0.52146(16) 0.48720(13)
C3 C 0.13479(18) 0.43719(16) 0.25590(13)
C4 C 0.23374(18) 0.66883(16) 0.42943(13)
C5 C 0.34434(19) 0.78403(17) 0.14851(13)
C6 C 0.1518(2) 0.71551(18) 0.19504(15)
H1 H 0.1117 0.8078 0.2366
H2 H 0.0500 0.6511 0.1179
C7 C 0.2976(2) 0.5085(2) 0.61819(15)
H3 H 0.3365 0.6016 0.6885
C8 C 0.4803(2) 0.93526(18) 0.21633(16)
H4 H 0.4513 0.9974 0.2894
C9 C 0.3896(2) 0.6930(2) 0.03995(15)
H5 H 0.2986 0.5916 -0.0068
C10 C 0.1789(2) 0.22647(19) 0.40505(17)
H6 H 0.1399 0.1335 0.3346
C11 C 0.2929(2) 0.3518(2) 0.64099(17)
H7 H 0.3293 0.3395 0.7282
C12 C 0.7031(3) 0.9035(3) 0.0691(2)
H8 H 0.8237 0.9438 0.0423
C13 C 0.6587(2) 0.9943(2) 0.1761(2)
H9 H 0.7492 1.0964 0.2219
C14 C 0.2351(2) 0.2133(2) 0.53671(19)
H10 H 0.2338 0.1097 0.5549
C15 C 0.5687(3) 0.7517(3) 0.00078(17)
H11 H 0.5992 0.6893 -0.0715
loop_
_geom_bond_atom_site_label_1
_geom_bond_atom_site_label_2
_geom_bond_site_symmetry_1
_geom_bond_site_symmetry_2
O1 C3 1_555 1_555
O2 C4 1_555 1_555
N1 C3 1_555 1_555
C1 C2 1_555 1_555
C2 C4 1_555 1_555
C3 C1 1_555 1_555
C4 N1 1_555 1_555
C5 C6 1_555 1_555
C6 N1 1_555 1_555
H1 C6 1_555 1_555
H2 C6 1_555 1_555
C7 C2 1_555 1_555
H3 C7 1_555 1_555
C8 C5 1_555 1_555
H4 C8 1_555 1_555
C9 C5 1_555 1_555
H5 C9 1_555 1_555
C10 C1 1_555 1_555
H6 C10 1_555 1_555
C11 C7 1_555 1_555
H7 C11 1_555 1_555
C12 H8 1_555 1_555
C13 C8 1_555 1_555
H9 C13 1_555 1_555
C14 C10 1_555 1_555
H10 C14 1_555 1_555
C15 C9 1_555 1_555
H11 C15 1_555 1_555
C11 C14 1_555 1_555
C12 C13 1_555 1_555
C12 C15 1_555 1_555

#END
