
#######################################################################
#
#                 Cambridge Crystallographic Data Centre
#                                CCDC 
#
#######################################################################
#
# If this CIF has been generated from an entry in the Cambridge 
# Structural Database, then it will include bibliographic, chemical, 
# crystal, experimental, refinement or atomic coordinate data resulting 
# from the CCDC's data processing and validation procedures.
#
#######################################################################

data_FOLREE
_chemical_formula_moiety         'C32 H34 Cl2 N2 O2'
_chemical_name_systematic        
2,3-Di-(N-(3-chloropropyl)-5-methylpyrrol-2-yl)-1,4-diphenylbutane-1,4-dione
_symmetry_cell_setting           triclinic
_symmetry_space_group_name_H-M   'P -1'
_symmetry_Int_Tables_number      2
_space_group_name_Hall           '-P 1'
loop_
_symmetry_equiv_pos_site_id
_symmetry_equiv_pos_as_xyz
1 x,y,z
2 -x,-y,-z
_cell_length_a                   10.15(1)
_cell_length_b                   11.59(1)
_cell_length_c                   14.06(2)
_cell_angle_alpha                113.99(8)
_cell_angle_beta                 98.1(1)
_cell_angle_gamma                93.5(1)
_cell_volume                     1483.18
_exptl_crystal_colour            orange
_exptl_crystal_description       prism
_chemical_melting_point          128deg.C
_cell_formula_units_Z            2
loop_
_atom_site_label
_atom_site_type_symbol
_atom_site_fract_x
_atom_site_fract_y
_atom_site_fract_z
Cl1 Cl 0.5598(2) 0.3060(3) 0.0330(2)
Cl2 Cl -0.2636(2) 0.0048(2) 0.1416(1)
O1 O 0.1499(4) 0.5985(3) 0.5487(3)
O2 O 0.3988(4) 0.4697(4) 0.5845(3)
N1 N 0.2069(4) 0.4202(3) 0.2034(3)
N2 N 0.1845(4) 0.1320(3) 0.2954(3)
C1 C 0.2475(4) 0.4711(4) 0.4017(3)
C2 C 0.2156(5) 0.5980(5) 0.4822(4)
C3 C 0.2601(5) 0.7188(4) 0.4766(4)
C4 C 0.2409(5) 0.8335(5) 0.5552(4)
C5 C 0.2743(6) 0.9470(5) 0.5524(5)
C6 C 0.3312(6) 0.9517(6) 0.4708(6)
C7 C 0.3540(6) 0.8402(6) 0.3945(5)
C8 C 0.3205(6) 0.7260(5) 0.3967(4)
C9 C 0.1614(4) 0.4458(4) 0.2972(3)
C10 C 0.0280(5) 0.4551(5) 0.2779(4)
C11 C -0.0105(5) 0.4339(5) 0.1721(4)
C12 C 0.1017(5) 0.4123(5) 0.1266(4)
C13 C 0.3436(5) 0.4010(5) 0.1856(3)
C14 C 0.3601(5) 0.2629(5) 0.1293(4)
C15 C 0.5030(7) 0.2435(7) 0.1182(5)
C16 C 0.1164(7) 0.3847(6) 0.0161(4)
C17 C 0.2226(4) 0.3643(4) 0.4366(3)
C18 C 0.2959(5) 0.3965(5) 0.5478(3)
C19 C 0.2427(5) 0.3344(4) 0.6118(3)
C20 C 0.3173(5) 0.3507(6) 0.7059(4)
C21 C 0.2718(7) 0.2994(6) 0.7701(4)
C22 C 0.1471(6) 0.2319(5) 0.7389(4)
C23 C 0.0713(5) 0.2143(5) 0.6467(4)
C24 C 0.1178(5) 0.2644(5) 0.5822(4)
C25 C 0.2686(4) 0.2409(4) 0.3661(3)
C26 C 0.3972(5) 0.2148(5) 0.3624(4)
C27 C 0.3915(6) 0.0878(5) 0.2884(5)
C28 C 0.2619(6) 0.0373(5) 0.2478(4)
C29 C 0.0390(5) 0.1174(4) 0.2684(4)
C30 C -0.0120(5) 0.1238(5) 0.1651(4)
C31 C -0.1590(6) 0.1405(6) 0.1511(5)
C32 C 0.2020(6) -0.0934(5) 0.1696(5)
H1 H 0.3393 0.4804 0.3958
H2 H 0.2030 0.8325 0.6129
H3 H 0.2579 1.0235 0.6069
H4 H 0.3544 1.0307 0.4678
H5 H 0.3942 0.8421 0.3381
H6 H 0.3389 0.6502 0.3427
H7 H -0.0299 0.4731 0.3283
H8 H -0.0981 0.4345 0.1380
H9 H 0.3667 0.4439 0.1442
H10 H 0.4025 0.4363 0.2523
H11 H 0.3311 0.2189 0.1683
H12 H 0.3060 0.2290 0.0608
H13 H 0.5092 0.1548 0.0902
H14 H 0.5585 0.2848 0.1862
H15 H 0.1464 0.3039 -0.0151
H16 H 0.0322 0.3842 -0.0234
H17 H 0.1801 0.4484 0.0163
H18 H 0.1291 0.3489 0.4346
H19 H 0.4039 0.3989 0.7281
H20 H 0.3265 0.3110 0.8349
H21 H 0.1135 0.1971 0.7826
H22 H -0.0156 0.1668 0.6257
H23 H 0.0631 0.2504 0.5168
H24 H 0.4763 0.2719 0.4025
H25 H 0.4669 0.0445 0.2700
H26 H 0.0043 0.0371 0.2639
H27 H 0.0072 0.1833 0.3230
H28 H 0.0385 0.1938 0.1623
H29 H 0.0003 0.0471 0.1088
H30 H -0.1829 0.1524 0.0882
H31 H -0.1729 0.2135 0.2101
H32 H 0.1482 -0.1315 0.2018
H33 H 0.1481 -0.0888 0.1106
H34 H 0.2718 -0.1432 0.1465
loop_
_geom_bond_atom_site_label_1
_geom_bond_atom_site_label_2
_geom_bond_site_symmetry_1
_geom_bond_site_symmetry_2
Cl1 C15 1_555 1_555
Cl2 C31 1_555 1_555
O1 C2 1_555 1_555
O2 C18 1_555 1_555
N1 C9 1_555 1_555
N2 C25 1_555 1_555
C1 C2 1_555 1_555
C2 C3 1_555 1_555
C3 C4 1_555 1_555
C4 C5 1_555 1_555
C5 C6 1_555 1_555
C6 C7 1_555 1_555
C7 C8 1_555 1_555
C8 C3 1_555 1_555
C9 C1 1_555 1_555
C10 C9 1_555 1_555
C11 C10 1_555 1_555
C12 N1 1_555 1_555
C13 N1 1_555 1_555
C14 C13 1_555 1_555
C15 C14 1_555 1_555
C16 C12 1_555 1_555
C17 C1 1_555 1_555
C18 C17 1_555 1_555
C19 C18 1_555 1_555
C20 C19 1_555 1_555
C21 C20 1_555 1_555
C22 C21 1_555 1_555
C23 C22 1_555 1_555
C24 C19 1_555 1_555
C25 C17 1_555 1_555
C26 C25 1_555 1_555
C27 C26 1_555 1_555
C28 N2 1_555 1_555
C29 N2 1_555 1_555
C30 C29 1_555 1_555
C31 C30 1_555 1_555
C32 C28 1_555 1_555
H1 C1 1_555 1_555
H2 C4 1_555 1_555
H3 C5 1_555 1_555
H4 C6 1_555 1_555
H5 C7 1_555 1_555
H6 C8 1_555 1_555
H7 C10 1_555 1_555
H8 C11 1_555 1_555
H9 C13 1_555 1_555
H10 C13 1_555 1_555
H11 C14 1_555 1_555
H12 C14 1_555 1_555
H13 C15 1_555 1_555
H14 C15 1_555 1_555
H15 C16 1_555 1_555
H16 C16 1_555 1_555
H17 C16 1_555 1_555
H18 C17 1_555 1_555
H19 C20 1_555 1_555
H20 C21 1_555 1_555
H21 C22 1_555 1_555
H22 C23 1_555 1_555
H23 C24 1_555 1_555
H24 C26 1_555 1_555
H25 C27 1_555 1_555
H26 C29 1_555 1_555
H27 C29 1_555 1_555
H28 C30 1_555 1_555
H29 C30 1_555 1_555
H30 C31 1_555 1_555
H31 C31 1_555 1_555
H32 C32 1_555 1_555
H33 C32 1_555 1_555
H34 C32 1_555 1_555
C11 C12 1_555 1_555
C23 C24 1_555 1_555
C27 C28 1_555 1_555

#END
