
#######################################################################
#
#                 Cambridge Crystallographic Data Centre
#                                CCDC 
#
#######################################################################
#
# If this CIF has been generated from an entry in the Cambridge 
# Structural Database, then it will include bibliographic, chemical, 
# crystal, experimental, refinement or atomic coordinate data resulting 
# from the CCDC's data processing and validation procedures.
#
#######################################################################

data_FOLSAC
_chemical_formula_moiety         'C20 H20 N2 O2,0.5(C1 H2 Cl2)'
_chemical_name_systematic        
'3-(7,11b,12,13-Tetrahydro-6H-isoquinolino[2,1-a]quinolin-13-yl)-1,3-oxazolidin-2-one dichloromethane solvate'
_symmetry_cell_setting           monoclinic
_symmetry_space_group_name_H-M   'P 21/c'
_symmetry_Int_Tables_number      14
_space_group_name_Hall           '-P 2ybc'
loop_
_symmetry_equiv_pos_site_id
_symmetry_equiv_pos_as_xyz
1 x,y,z
2 -x,1/2+y,1/2-z
3 -x,-y,-z
4 x,1/2-y,1/2+z
_cell_length_a                   11.2330(19)
_cell_length_b                   22.492(4)
_cell_length_c                   7.1548(12)
_cell_angle_alpha                90
_cell_angle_beta                 99.452(3)
_cell_angle_gamma                90
_cell_volume                     1783.14
_exptl_crystal_colour            colorless
_exptl_crystal_description       lath
_cell_formula_units_Z            4
loop_
_atom_site_label
_atom_site_type_symbol
_atom_site_fract_x
_atom_site_fract_y
_atom_site_fract_z
O1 O 0.3252(2) 0.00979(8) 0.9575(3)
O2 O 0.4029(2) -0.02772(8) 0.7118(3)
N1 N 0.42785(18) 0.06995(9) 0.8008(3)
C1 C 0.3876(2) 0.01424(11) 0.8110(3)
C2 C 0.3213(3) 0.06608(12) 1.0485(4)
H1 H 0.3495 0.0624 1.1865
H2 H 0.2381 0.0821 1.0275
C3 C 0.4047(2) 0.10645(11) 0.9594(4)
H3 H 0.3647 0.1443 0.9156
H4 H 0.4800 0.1150 1.0483
C4 C 0.5039(2) 0.08773(10) 0.6654(3)
H5 H 0.5176 0.0519 0.5889
C5 C 0.6270(2) 0.10974(11) 0.7638(3)
H6 H 0.6167 0.1456 0.8397
H7 H 0.6666 0.0786 0.8503
C6 C 0.7045(2) 0.12433(11) 0.6163(3)
H8 H 0.7111 0.0878 0.5392
C7 C 0.8315(2) 0.14389(11) 0.7017(4)
C8 C 0.8837(3) 0.13048(18) 0.8841(5)
H9 H 0.8383 0.1095 0.9637
C9 C 1.0018(3) 0.1471(2) 0.9543(6)
H10 H 1.0361 0.1375 1.0810
C10 C 1.0688(3) 0.17717(15) 0.8420(5)
H11 H 1.1498 0.1882 0.8893
C11 C 1.0180(3) 0.19102(14) 0.6618(6)
H12 H 1.0639 0.2124 0.5839
C12 C 0.8995(3) 0.17457(14) 0.5886(5)
C13 C 0.8444(6) 0.1758(3) 0.3764(10)
H13 H 0.8354 0.1350 0.3243
H14 H 0.8960 0.1990 0.3034
C14 C 0.7208(6) 0.2056(3) 0.3674(10)
H15 H 0.7315 0.2470 0.4138
H16 H 0.6786 0.2066 0.2346
N2 N 0.6460(2) 0.17119(10) 0.4882(3)
C15 C 0.5211(3) 0.17382(11) 0.4453(3)
C16 C 0.4648(3) 0.21722(13) 0.3182(4)
H17 H 0.5132 0.2446 0.2629
C17 C 0.3415(3) 0.22073(15) 0.2731(4)
H18 H 0.3061 0.2499 0.1852
C18 C 0.2685(3) 0.18269(15) 0.3529(4)
H19 H 0.1832 0.1852 0.3202
C19 C 0.3220(2) 0.14022(13) 0.4831(4)
H20 H 0.2720 0.1143 0.5410
C20 C 0.4462(2) 0.13527(11) 0.5293(3)
Cl1 Cl -0.1256(6) 0.0061(3) 0.3729(14)
Cl2 Cl 0.1219(7) 0.0213(4) 0.3949(16)
C23 C 0.0136(9) -0.0234(7) 0.471(3)
H25 H 0.0209 -0.0648 0.4270
H26 H 0.0233 -0.0233 0.6106
C21? C 0.8355(8) 0.2030(4) 0.4090(12)
H21? H 0.8294 0.2463 0.4313
H22? H 0.8858 0.1976 0.3088
C22? C 0.7134(8) 0.1801(4) 0.3377(13)
H23? H 0.6701 0.2086 0.2452
H24? H 0.7200 0.1419 0.2714
Cl3? Cl 0.0010(12) -0.0241(5) 0.6811(12)
Cl4? Cl 0.0656(6) 0.0276(4) 0.3397(14)
C24? C -0.0423(11) -0.0122(7) 0.4297(17)
H27? H -0.0541 -0.0511 0.3644
H28? H -0.1199 0.0096 0.4056
loop_
_geom_bond_atom_site_label_1
_geom_bond_atom_site_label_2
_geom_bond_site_symmetry_1
_geom_bond_site_symmetry_2
O1 C1 1_555 1_555
O2 C1 1_555 1_555
N1 C1 1_555 1_555
C2 O1 1_555 1_555
H1 C2 1_555 1_555
H2 C2 1_555 1_555
C3 N1 1_555 1_555
H3 C3 1_555 1_555
H4 C3 1_555 1_555
C4 N1 1_555 1_555
H5 C4 1_555 1_555
C5 C4 1_555 1_555
H6 C5 1_555 1_555
H7 C5 1_555 1_555
C6 C5 1_555 1_555
H8 C6 1_555 1_555
C7 C6 1_555 1_555
C8 C7 1_555 1_555
H9 C8 1_555 1_555
C9 C8 1_555 1_555
H10 C9 1_555 1_555
C10 C9 1_555 1_555
H11 C10 1_555 1_555
C11 C10 1_555 1_555
H12 C11 1_555 1_555
C12 C7 1_555 1_555
C13 C12 1_555 1_555
H13 C13 1_555 1_555
H14 C13 1_555 1_555
C14 C13 1_555 1_555
H15 C14 1_555 1_555
H16 C14 1_555 1_555
N2 C6 1_555 1_555
C15 N2 1_555 1_555
C16 C15 1_555 1_555
H17 C16 1_555 1_555
C17 C16 1_555 1_555
H18 C17 1_555 1_555
C18 C17 1_555 1_555
H19 C18 1_555 1_555
C19 C18 1_555 1_555
H20 C19 1_555 1_555
C20 C4 1_555 1_555
Cl1 C23 1_555 1_555
Cl2 C23 1_555 1_555
C23 H25 1_555 1_555
H26 C23 1_555 1_555
C2 C3 1_555 1_555
C11 C12 1_555 1_555
C14 N2 1_555 1_555
C15 C20 1_555 1_555
C19 C20 1_555 1_555

#END
