
#######################################################################
#
#                 Cambridge Crystallographic Data Centre
#                                CCDC 
#
#######################################################################
#
# If this CIF has been generated from an entry in the Cambridge 
# Structural Database, then it will include bibliographic, chemical, 
# crystal, experimental, refinement or atomic coordinate data resulting 
# from the CCDC's data processing and validation procedures.
#
#######################################################################

data_FOLXUZ
_chemical_formula_moiety         'C30 H39 N3 O6 S3'
_chemical_name_systematic        
"1,5,9-Triazacyclododecane N,N',N''-tritosylamide"
_symmetry_cell_setting           monoclinic
_symmetry_space_group_name_H-M   'C 2/c'
_symmetry_Int_Tables_number      15
_space_group_name_Hall           '-C 2yn'
loop_
_symmetry_equiv_pos_site_id
_symmetry_equiv_pos_as_xyz
1 x,y,z
2 1/2+x,1/2+y,z
3 -x,y,1/2-z
4 1/2-x,1/2+y,1/2-z
5 -x,-y,-z
6 1/2-x,1/2-y,-z
7 x,-y,1/2+z
8 1/2+x,1/2-y,1/2+z
_cell_length_a                   33.335(11)
_cell_length_b                   14.475(3)
_cell_length_c                   13.187(10)
_cell_angle_alpha                90
_cell_angle_beta                 101.07(6)
_cell_angle_gamma                90
_cell_volume                     6244.65
_exptl_crystal_colour            colorless
_cell_formula_units_Z            8
loop_
_atom_site_label
_atom_site_type_symbol
_atom_site_fract_x
_atom_site_fract_y
_atom_site_fract_z
S1 S 0.4980(1) 0.2915(3) -0.0382(2)
O1 O 0.5005(2) 0.2086(7) -0.0943(6)
O2 O 0.4856(3) 0.3760(7) -0.0923(5)
C1 C 0.5463(3) 0.3083(7) 0.0405(7)
C2 C 0.5580(4) 0.3946(8) 0.0775(9)
C3 C 0.5960(5) 0.4079(8) 0.1376(9)
C4 C 0.6233(4) 0.3347(9) 0.1637(7)
C5 C 0.6103(3) 0.2478(8) 0.1278(8)
C6 C 0.5718(4) 0.2347(7) 0.0656(9)
C7 C 0.6649(3) 0.3488(10) 0.2315(9)
S2 S 0.3017(1) 0.3514(2) -0.1013(2)
O3 O 0.2723(3) 0.2797(5) -0.1295(6)
O4 O 0.3164(2) 0.4008(5) -0.1805(5)
C8 C 0.2801(3) 0.4336(7) -0.0310(8)
C9 C 0.2758(4) 0.5222(9) -0.0646(9)
C10 C 0.2573(4) 0.5875(8) -0.0110(12)
C11 C 0.2414(3) 0.5653(11) 0.0743(10)
C12 C 0.2460(3) 0.4773(12) 0.1062(8)
C13 C 0.2650(3) 0.4096(8) 0.0558(9)
C14 C 0.2201(4) 0.6351(12) 0.1310(11)
S3 S 0.3913(1) 0.0202(2) 0.2060(2)
O5 O 0.4262(2) 0.0407(5) 0.2826(5)
O6 O 0.3523(2) 0.0575(5) 0.2158(5)
C15 C 0.3866(4) -0.1018(6) 0.1941(7)
C16 C 0.4207(3) -0.1564(8) 0.2183(7)
C17 C 0.4167(4) -0.2525(8) 0.2030(8)
C18 C 0.3786(5) -0.2899(8) 0.1616(8)
C19 C 0.3456(4) -0.2335(9) 0.1435(9)
C20 C 0.3487(3) -0.1405(8) 0.1572(8)
C21 C 0.3759(3) -0.3950(7) 0.1433(10)
N1 N 0.4662(3) 0.2735(6) 0.0396(6)
C22 C 0.4525(3) 0.3557(7) 0.0889(7)
C23 C 0.4072(4) 0.3499(7) 0.0903(8)
C24 C 0.3796(4) 0.3508(7) -0.0155(9)
N2 N 0.3395(3) 0.3087(6) -0.0207(7)
C25 C 0.3386(3) 0.2128(7) 0.0142(8)
C26 C 0.3563(4) 0.1430(8) -0.0487(7)
C27 C 0.3661(4) 0.0513(7) 0.0074(8)
N3 N 0.4004(3) 0.0595(5) 0.0960(6)
C28 C 0.4406(4) 0.0356(8) 0.0728(10)
C29 C 0.4611(5) 0.1040(12) 0.0203(13)
C30 C 0.4727(3) 0.1931(8) 0.1024(12)
H1 H 0.539 0.447 0.061
H2 H 0.604 0.470 0.163
H3 H 0.628 0.194 0.146
H4 H 0.563 0.173 0.040
H5 H 0.286 0.540 -0.127
H6 H 0.255 0.652 -0.035
H7 H 0.236 0.459 0.168
H8 H 0.268 0.346 0.082
H9 H 0.447 -0.129 0.246
H10 H 0.441 -0.293 0.222
H11 H 0.319 -0.261 0.120
H12 H 0.324 -0.101 0.141
H13 H 0.458 0.411 0.050
H14 H 0.468 0.360 0.160
H15 H 0.400 0.402 0.130
H16 H 0.402 0.293 0.126
H17 H 0.394 0.318 -0.064
H18 H 0.376 0.415 -0.038
H19 H 0.310 0.196 0.014
H20 H 0.354 0.210 0.086
H21 H 0.382 0.168 -0.066
H22 H 0.337 0.132 -0.113
H23 H 0.373 0.006 -0.041
H24 H 0.342 0.030 0.032
H25 H 0.437 -0.020 0.030
H26 H 0.459 0.021 0.138
H27 H 0.443 0.124 -0.043
H28 H 0.486 0.077 0.004
H29 H 0.501 0.190 0.138
H30 H 0.455 0.194 0.153
loop_
_geom_bond_atom_site_label_1
_geom_bond_atom_site_label_2
_geom_bond_site_symmetry_1
_geom_bond_site_symmetry_2
S1 O1 1_555 1_555
O2 S1 1_555 1_555
C1 S1 1_555 1_555
C2 C1 1_555 1_555
C3 C2 1_555 1_555
C4 C3 1_555 1_555
C5 C4 1_555 1_555
C6 C1 1_555 1_555
C7 C4 1_555 1_555
S2 O3 1_555 1_555
O4 S2 1_555 1_555
C8 S2 1_555 1_555
C9 C8 1_555 1_555
C10 C9 1_555 1_555
C11 C10 1_555 1_555
C12 C11 1_555 1_555
C13 C8 1_555 1_555
C14 C11 1_555 1_555
S3 O5 1_555 1_555
O6 S3 1_555 1_555
C15 S3 1_555 1_555
C16 C15 1_555 1_555
C17 C16 1_555 1_555
C18 C17 1_555 1_555
C19 C18 1_555 1_555
C20 C15 1_555 1_555
C21 C18 1_555 1_555
N1 S1 1_555 1_555
C22 N1 1_555 1_555
C23 C22 1_555 1_555
C24 C23 1_555 1_555
N2 S2 1_555 1_555
C25 N2 1_555 1_555
C26 C25 1_555 1_555
C27 C26 1_555 1_555
N3 S3 1_555 1_555
C28 N3 1_555 1_555
C29 C28 1_555 1_555
C30 N1 1_555 1_555
H1 C2 1_555 1_555
H2 C3 1_555 1_555
H3 C5 1_555 1_555
H4 C6 1_555 1_555
H5 C9 1_555 1_555
H6 C10 1_555 1_555
H7 C12 1_555 1_555
H8 C13 1_555 1_555
H9 C16 1_555 1_555
H10 C17 1_555 1_555
H11 C19 1_555 1_555
H12 C20 1_555 1_555
H13 C22 1_555 1_555
H14 C22 1_555 1_555
H15 C23 1_555 1_555
H16 C23 1_555 1_555
H17 C24 1_555 1_555
H18 C24 1_555 1_555
H19 C25 1_555 1_555
H20 C25 1_555 1_555
H21 C26 1_555 1_555
H22 C26 1_555 1_555
H23 C27 1_555 1_555
H24 C27 1_555 1_555
H25 C28 1_555 1_555
H26 C28 1_555 1_555
H27 C29 1_555 1_555
H28 C29 1_555 1_555
H29 C30 1_555 1_555
H30 C30 1_555 1_555
C5 C6 1_555 1_555
C12 C13 1_555 1_555
C19 C20 1_555 1_555
C24 N2 1_555 1_555
C27 N3 1_555 1_555
C29 C30 1_555 1_555

#END
