
#######################################################################
#
#                 Cambridge Crystallographic Data Centre
#                                CCDC 
#
#######################################################################
#
# If this CIF has been generated from an entry in the Cambridge 
# Structural Database, then it will include bibliographic, chemical, 
# crystal, experimental, refinement or atomic coordinate data resulting 
# from the CCDC's data processing and validation procedures.
#
#######################################################################

data_FOMTAE
_chemical_formula_moiety         'C3 H2 N5 O5 1-,H4 N1 O1 1+'
_chemical_name_systematic        
'hydroxyammonium 3-(dinitromethanidyl)-4H-1,2,4-triazol-1-ium-5-olate'
_symmetry_cell_setting           monoclinic
_symmetry_space_group_name_H-M   'P 21/c'
_symmetry_Int_Tables_number      14
_space_group_name_Hall           '-P 2ybc'
loop_
_symmetry_equiv_pos_site_id
_symmetry_equiv_pos_as_xyz
1 x,y,z
2 -x,1/2+y,1/2-z
3 -x,-y,-z
4 x,1/2-y,1/2+z
_cell_length_a                   13.1655(19)
_cell_length_b                   4.9866(7)
_cell_length_c                   12.7865(18)
_cell_angle_alpha                90
_cell_angle_beta                 114.333(2)
_cell_angle_gamma                90
_cell_volume                     764.876
_exptl_crystal_colour            yellow
_exptl_crystal_description       needle
_cell_formula_units_Z            4
loop_
_atom_site_label
_atom_site_type_symbol
_atom_site_fract_x
_atom_site_fract_y
_atom_site_fract_z
O1 O 0.6355(3) 1.0879(7) 0.4387(3)
O2 O 0.2583(3) 1.1244(8) 0.1584(3)
O3 O 0.0973(3) 0.9778(8) 0.1396(3)
O4 O 0.0990(3) 0.5436(8) 0.2483(4)
O5 O 0.2568(3) 0.4198(7) 0.3787(3)
N1 N 0.4432(3) 1.0062(8) 0.3521(4)
H1 H 0.4179 1.1718 0.3424
N2 N 0.4432(3) 0.5652(8) 0.3479(4)
N3 N 0.5499(3) 0.6636(8) 0.3974(4)
H2 H 0.6097 0.5615 0.4240
N4 N 0.2004(3) 0.9620(9) 0.1843(3)
N5 N 0.2016(3) 0.5748(9) 0.2980(4)
C1 C 0.5531(4) 0.9335(10) 0.4008(4)
C2 C 0.3798(4) 0.7813(9) 0.3212(4)
C3 C 0.2584(4) 0.7737(10) 0.2689(4)
O6 O 0.8532(3) 1.0804(8) 0.5243(4)
H3 H 0.7835 1.0634 0.4951
N6 N 0.9031(3) 0.8277(9) 0.5567(4)
H4 H 0.9072 0.7461 0.4949
H5 H 0.8615 0.7254 0.5833
H6 H 0.9729 0.8476 0.6130
loop_
_geom_bond_atom_site_label_1
_geom_bond_atom_site_label_2
_geom_bond_site_symmetry_1
_geom_bond_site_symmetry_2
O1 C1 1_555 1_555
O2 N4 1_555 1_555
O3 N4 1_555 1_555
O4 N5 1_555 1_555
O5 N5 1_555 1_555
N1 H1 1_555 1_555
N2 N3 1_555 1_555
N3 H2 1_555 1_555
N4 C3 1_555 1_555
N5 C3 1_555 1_555
C1 N1 1_555 1_555
C2 N1 1_555 1_555
C3 C2 1_555 1_555
O6 H3 1_555 1_555
N6 O6 1_555 1_555
H4 N6 1_555 1_555
H5 N6 1_555 1_555
H6 N6 1_555 1_555
N2 C2 1_555 1_555
N3 C1 1_555 1_555

#END
