
#######################################################################
#
#                 Cambridge Crystallographic Data Centre
#                                CCDC 
#
#######################################################################
#
# If this CIF has been generated from an entry in the Cambridge 
# Structural Database, then it will include bibliographic, chemical, 
# crystal, experimental, refinement or atomic coordinate data resulting 
# from the CCDC's data processing and validation procedures.
#
#######################################################################

data_FOMYEM
_chemical_formula_moiety         'C24 H23 N1 O3'
_chemical_name_systematic        
(6R,7aS)-1,3,5,6,7,7a-Hexahydro-3-(2-hydroxyphenyl)-1,1-diphenylpyrrolo(1,2-c)(1,3)oxazol-6-ol
_symmetry_cell_setting           orthorhombic
_symmetry_space_group_name_H-M   'P 21 21 21'
_symmetry_Int_Tables_number      19
_space_group_name_Hall           'P 2ac 2ab'
loop_
_symmetry_equiv_pos_site_id
_symmetry_equiv_pos_as_xyz
1 x,y,z
2 1/2+x,1/2-y,-z
3 -x,1/2+y,1/2-z
4 1/2-x,-y,1/2+z
_cell_length_a                   6.0329(5)
_cell_length_b                   9.4215(10)
_cell_length_c                   33.796(4)
_cell_angle_alpha                90
_cell_angle_beta                 90
_cell_angle_gamma                90
_cell_volume                     1920.93
_exptl_crystal_colour            colorless
_exptl_crystal_description       plate
_chemical_melting_point          '409-411 K'
_cell_formula_units_Z            4
_exptl_crystal_recrystallization_method 'diethyl ether'
loop_
_atom_site_label
_atom_site_type_symbol
_atom_site_fract_x
_atom_site_fract_y
_atom_site_fract_z
O1 O 0.5448(3) 0.27869(18) 0.36449(5)
O2 O -0.0799(3) 0.0066(2) 0.30658(6)
H1 H -0.0784 -0.0311 0.2841
O3 O 0.1151(3) 0.40977(19) 0.27578(5)
H2 H 0.1320 0.3277 0.2850
N1 N 0.2816(3) 0.2092(2) 0.31859(5)
C1 C 0.4871(4) 0.2893(3) 0.32327(6)
H3 H 0.6055 0.2416 0.3074
C2 C 0.1716(4) 0.2061(3) 0.35832(6)
H4 H 0.0303 0.2615 0.3574
C3 C 0.3404(4) 0.2804(3) 0.38693(6)
C4 C 0.3145(5) 0.0595(2) 0.30637(8)
H5 H 0.4590 0.0231 0.3158
H6 H 0.3080 0.0501 0.2772
C5 C 0.1255(4) -0.0184(3) 0.32569(7)
H7 H 0.1573 -0.1224 0.3276
C6 C 0.1210(5) 0.0492(3) 0.36578(7)
H8 H 0.2343 0.0064 0.3833
H9 H -0.0265 0.0378 0.3782
C7 C 0.4667(4) 0.4419(2) 0.30922(7)
C8 C 0.6420(5) 0.5334(3) 0.31674(8)
H10 H 0.7657 0.4992 0.3313
C9 C 0.6430(6) 0.6728(3) 0.30379(8)
H11 H 0.7643 0.7337 0.3096
C10 C 0.4659(6) 0.7212(3) 0.28240(8)
H12 H 0.4649 0.8165 0.2732
C11 C 0.2888(5) 0.6338(3) 0.27392(7)
H13 H 0.1662 0.6693 0.2593
C12 C 0.2902(4) 0.4932(3) 0.28682(7)
C13 C 0.3772(4) 0.1952(3) 0.42466(7)
C14 C 0.2103(5) 0.1913(3) 0.45288(7)
H14 H 0.0795 0.2458 0.4491
C15 C 0.2325(7) 0.1086(3) 0.48662(8)
H15 H 0.1162 0.1055 0.5056
C16 C 0.4222(7) 0.0312(3) 0.49269(9)
H16 H 0.4367 -0.0256 0.5158
C17 C 0.5900(6) 0.0358(3) 0.46563(10)
H17 H 0.7221 -0.0167 0.4701
C18 C 0.5678(5) 0.1178(3) 0.43121(9)
H18 H 0.6845 0.1200 0.4123
C19 C 0.2863(4) 0.4343(3) 0.39848(6)
C20 C 0.0808(5) 0.4963(3) 0.39395(8)
H19 H -0.0374 0.4433 0.3827
C21 C 0.0453(6) 0.6362(3) 0.40568(9)
H20 H -0.0953 0.6788 0.4013
C22 C 0.2085(6) 0.7125(3) 0.42336(9)
H21 H 0.1822 0.8075 0.4315
C23 C 0.4117(6) 0.6508(3) 0.42925(9)
H22 H 0.5265 0.7026 0.4420
C24 C 0.4500(5) 0.5128(3) 0.41665(8)
H23 H 0.5920 0.4716 0.4206
loop_
_geom_bond_atom_site_label_1
_geom_bond_atom_site_label_2
_geom_bond_site_symmetry_1
_geom_bond_site_symmetry_2
O1 C1 1_555 1_555
O2 H1 1_555 1_555
O3 H2 1_555 1_555
N1 C1 1_555 1_555
C1 H3 1_555 1_555
C2 N1 1_555 1_555
H4 C2 1_555 1_555
C3 O1 1_555 1_555
C4 N1 1_555 1_555
H5 C4 1_555 1_555
H6 C4 1_555 1_555
C5 O2 1_555 1_555
H7 C5 1_555 1_555
C6 C2 1_555 1_555
H8 C6 1_555 1_555
H9 C6 1_555 1_555
C7 C1 1_555 1_555
C8 C7 1_555 1_555
H10 C8 1_555 1_555
C9 C8 1_555 1_555
H11 C9 1_555 1_555
C10 C9 1_555 1_555
H12 C10 1_555 1_555
C11 C10 1_555 1_555
H13 C11 1_555 1_555
C12 O3 1_555 1_555
C13 C3 1_555 1_555
C14 C13 1_555 1_555
H14 C14 1_555 1_555
C15 C14 1_555 1_555
H15 C15 1_555 1_555
C16 C15 1_555 1_555
H16 C16 1_555 1_555
C17 C16 1_555 1_555
H17 C17 1_555 1_555
C18 C13 1_555 1_555
H18 C18 1_555 1_555
C19 C3 1_555 1_555
C20 C19 1_555 1_555
H19 C20 1_555 1_555
C21 C20 1_555 1_555
H20 C21 1_555 1_555
C22 C21 1_555 1_555
H21 C22 1_555 1_555
C23 C22 1_555 1_555
H22 C23 1_555 1_555
C24 C19 1_555 1_555
H23 C24 1_555 1_555
C2 C3 1_555 1_555
C4 C5 1_555 1_555
C5 C6 1_555 1_555
C7 C12 1_555 1_555
C11 C12 1_555 1_555
C17 C18 1_555 1_555
C23 C24 1_555 1_555

#END
