
#######################################################################
#
#                 Cambridge Crystallographic Data Centre
#                                CCDC 
#
#######################################################################
#
# If this CIF has been generated from an entry in the Cambridge 
# Structural Database, then it will include bibliographic, chemical, 
# crystal, experimental, refinement or atomic coordinate data resulting 
# from the CCDC's data processing and validation procedures.
#
#######################################################################

data_FOPXOY
_chemical_formula_moiety         '2(C25 H18 Cl1 N2 1+),O4 S1 2-'
_chemical_name_systematic        
'bis(9-Chloro-5,6-dihydro-7-phenylindolo[3,2-c]acridinium) sulfate'
_symmetry_cell_setting           triclinic
_symmetry_space_group_name_H-M   'P -1'
_symmetry_Int_Tables_number      2
_space_group_name_Hall           '-P 1'
loop_
_symmetry_equiv_pos_site_id
_symmetry_equiv_pos_as_xyz
1 x,y,z
2 -x,-y,-z
_cell_length_a                   9.8896(17)
_cell_length_b                   14.165(2)
_cell_length_c                   14.583(2)
_cell_angle_alpha                83.184(3)
_cell_angle_beta                 78.985(3)
_cell_angle_gamma                75.903(3)
_cell_volume                     1939.26
_exptl_crystal_colour            orange
_exptl_crystal_description       plate
_chemical_melting_point          '231 deg.C'
_cell_formula_units_Z            2
_exptl_crystal_recrystallization_method ethanol
loop_
_atom_site_label
_atom_site_type_symbol
_atom_site_fract_x
_atom_site_fract_y
_atom_site_fract_z
C1 C 0.3352(2) 0.71153(16) 0.25700(15)
C2 C 0.4171(2) 0.73716(17) 0.31534(17)
H1 H 0.5052 0.6954 0.3246
C3 C 0.3686(3) 0.82290(18) 0.35860(17)
H2 H 0.4227 0.8415 0.3978
C4 C 0.2373(3) 0.88269(17) 0.34384(16)
C5 C 0.1560(2) 0.85931(17) 0.28801(16)
H3 H 0.0671 0.9011 0.2808
C6 C 0.2047(2) 0.77276(16) 0.24118(15)
C7 C 0.1274(2) 0.74322(16) 0.17922(15)
C8 C 0.1780(2) 0.65542(16) 0.14003(15)
C9 C 0.1102(2) 0.62283(17) 0.06784(16)
H4 H 0.1454 0.6520 0.0054
H5 H 0.0068 0.6495 0.0817
C10 C 0.1365(2) 0.51285(17) 0.06250(16)
H6 H 0.0710 0.4859 0.1131
H7 H 0.1174 0.4993 0.0017
C11 C 0.2856(2) 0.46422(16) 0.07209(15)
C12 C 0.3719(2) 0.37362(16) 0.04327(15)
C13 C 0.3568(3) 0.30302(18) -0.01163(17)
H8 H 0.2732 0.3110 -0.0375
C14 C 0.4659(3) 0.22193(18) -0.02716(17)
H9 H 0.4571 0.1738 -0.0644
C15 C 0.5907(3) 0.20902(17) 0.01130(17)
H10 H 0.6636 0.1520 0.0000
C16 C 0.6085(2) 0.27753(17) 0.06485(16)
H11 H 0.6920 0.2684 0.0911
C17 C 0.4998(2) 0.36059(16) 0.07907(15)
C18 C 0.3637(2) 0.50360(16) 0.12044(15)
C19 C 0.3103(2) 0.59545(16) 0.16056(15)
C20 C -0.0056(2) 0.81336(17) 0.15950(16)
C21 C -0.1366(2) 0.78898(18) 0.18549(16)
H12 H -0.1416 0.7247 0.2107
C22 C -0.2599(3) 0.8581(2) 0.17484(17)
H13 H -0.3488 0.8411 0.1940
C23 C -0.2546(3) 0.9515(2) 0.13667(18)
H14 H -0.3394 0.9986 0.1299
C24 C -0.1245(3) 0.97584(19) 0.10835(18)
H15 H -0.1200 1.0396 0.0812
C25 C -0.0009(3) 0.90721(18) 0.11956(17)
H16 H 0.0879 0.9243 0.0998
Cl1 Cl 0.17497(6) 0.99023(4) 0.39989(4)
N1 N 0.38182(19) 0.62517(13) 0.21583(13)
H33 H 0.4631 0.5873 0.2263
N2 N 0.4930(2) 0.44010(14) 0.12616(13)
H34 H 0.5589 0.4492 0.1549
C26 C 0.1528(2) 0.28717(16) 0.24748(15)
C27 C 0.0722(2) 0.25751(17) 0.19039(16)
H17 H -0.0192 0.2954 0.1833
C28 C 0.1279(3) 0.17327(17) 0.14545(17)
H18 H 0.0752 0.1521 0.1070
C29 C 0.2638(3) 0.11845(17) 0.15677(16)
C30 C 0.3433(2) 0.14647(17) 0.21096(16)
H19 H 0.4353 0.1084 0.2161
C31 C 0.2889(2) 0.23168(16) 0.25914(15)
C32 C 0.3664(2) 0.26631(16) 0.31714(15)
C33 C 0.3118(2) 0.35497(16) 0.35506(15)
C34 C 0.3939(3) 0.39938(18) 0.40869(19)
H20 H 0.4626 0.4287 0.3629
H21 H 0.4488 0.3460 0.4462
C35 C 0.3086(3) 0.47669(18) 0.47412(17)
H22 H 0.2784 0.4445 0.5361
H23 H 0.3693 0.5200 0.4827
C36 C 0.1819(2) 0.53633(16) 0.43750(15)
C37 C 0.0966(2) 0.62997(16) 0.45866(15)
C38 C 0.1074(3) 0.70183(17) 0.51382(16)
H24 H 0.1851 0.6923 0.5461
C39 C 0.0029(3) 0.78627(17) 0.52003(16)
H25 H 0.0092 0.8360 0.5563
C40 C -0.1134(3) 0.79983(17) 0.47318(17)
H26 H -0.1850 0.8582 0.4798
C41 C -0.1263(3) 0.73107(17) 0.41803(16)
H27 H -0.2048 0.7412 0.3864
C42 C -0.0197(2) 0.64605(16) 0.41034(15)
C43 C 0.1177(2) 0.50090(16) 0.37730(15)
C44 C 0.1738(2) 0.40816(16) 0.33927(15)
C45 C 0.5041(2) 0.20260(16) 0.33497(15)
C46 C 0.5076(3) 0.10868(18) 0.37758(17)
H28 H 0.4221 0.0870 0.3967
C47 C 0.6346(3) 0.04694(19) 0.39221(19)
H29 H 0.6360 -0.0170 0.4209
C48 C 0.7606(3) 0.0780(2) 0.36505(19)
H30 H 0.8479 0.0355 0.3749
C49 C 0.7573(2) 0.1715(2) 0.32365(17)
H31 H 0.8430 0.1930 0.3053
C50 C 0.6306(2) 0.23418(17) 0.30851(16)
H32 H 0.6296 0.2983 0.2803
Cl2 Cl 0.33474(6) 0.01325(4) 0.09808(4)
N3 N 0.09936(19) 0.37179(13) 0.29099(13)
H35 H 0.0121 0.4036 0.2870
N4 N -0.0052(2) 0.56690(14) 0.36078(14)
H36 H -0.0634 0.5594 0.3249
O1 O 0.75878(18) 0.44597(15) 0.15459(12)
O2 O 0.82544(17) 0.41768(12) 0.30769(12)
O3 O 0.60672(17) 0.52823(13) 0.28361(12)
O4 O 0.8314(2) 0.57068(14) 0.22094(14)
S1 S 0.75563(5) 0.49165(4) 0.24040(4)
loop_
_geom_bond_atom_site_label_1
_geom_bond_atom_site_label_2
_geom_bond_site_symmetry_1
_geom_bond_site_symmetry_2
C1 C2 1_555 1_555
C2 H1 1_555 1_555
C3 C2 1_555 1_555
H2 C3 1_555 1_555
C4 C3 1_555 1_555
C5 C4 1_555 1_555
H3 C5 1_555 1_555
C6 C1 1_555 1_555
C7 C6 1_555 1_555
C8 C7 1_555 1_555
C9 C8 1_555 1_555
H4 C9 1_555 1_555
H5 C9 1_555 1_555
C10 C9 1_555 1_555
H6 C10 1_555 1_555
H7 C10 1_555 1_555
C11 C10 1_555 1_555
C12 C11 1_555 1_555
C13 C12 1_555 1_555
H8 C13 1_555 1_555
C14 C13 1_555 1_555
H9 C14 1_555 1_555
C15 C14 1_555 1_555
H10 C15 1_555 1_555
C16 C15 1_555 1_555
H11 C16 1_555 1_555
C17 C12 1_555 1_555
C18 C11 1_555 1_555
C19 C8 1_555 1_555
C20 C7 1_555 1_555
C21 C20 1_555 1_555
H12 C21 1_555 1_555
C22 C21 1_555 1_555
H13 C22 1_555 1_555
C23 C22 1_555 1_555
H14 C23 1_555 1_555
C24 C23 1_555 1_555
H15 C24 1_555 1_555
C25 C20 1_555 1_555
H16 C25 1_555 1_555
C26 C27 1_555 1_555
C27 H17 1_555 1_555
C28 C27 1_555 1_555
H18 C28 1_555 1_555
C29 C28 1_555 1_555
C30 C29 1_555 1_555
H19 C30 1_555 1_555
C31 C26 1_555 1_555
C32 C31 1_555 1_555
C33 C32 1_555 1_555
C34 C33 1_555 1_555
H20 C34 1_555 1_555
H21 C34 1_555 1_555
C35 C34 1_555 1_555
H22 C35 1_555 1_555
H23 C35 1_555 1_555
C36 C35 1_555 1_555
C37 C36 1_555 1_555
C38 C37 1_555 1_555
H24 C38 1_555 1_555
C39 C38 1_555 1_555
H25 C39 1_555 1_555
C40 C39 1_555 1_555
H26 C40 1_555 1_555
C41 C40 1_555 1_555
H27 C41 1_555 1_555
C42 C37 1_555 1_555
C43 C36 1_555 1_555
C44 C33 1_555 1_555
C45 C32 1_555 1_555
C46 C45 1_555 1_555
H28 C46 1_555 1_555
C47 C46 1_555 1_555
H29 C47 1_555 1_555
C48 C47 1_555 1_555
H30 C48 1_555 1_555
C49 C48 1_555 1_555
H31 C49 1_555 1_555
C50 C45 1_555 1_555
H32 C50 1_555 1_555
Cl1 C4 1_555 1_555
Cl2 C29 1_555 1_555
N1 C1 1_555 1_555
H33 N1 1_555 1_555
N2 C17 1_555 1_555
H34 N2 1_555 1_555
N3 C26 1_555 1_555
H35 N3 1_555 1_555
N4 C42 1_555 1_555
H36 N4 1_555 1_555
O1 S1 1_555 1_555
O2 S1 1_555 1_555
O3 S1 1_555 1_555
O4 S1 1_555 1_555
C5 C6 1_555 1_555
C16 C17 1_555 1_555
C18 C19 1_555 1_555
C18 N2 1_555 1_555
C19 N1 1_555 1_555
C24 C25 1_555 1_555
C30 C31 1_555 1_555
C41 C42 1_555 1_555
C43 C44 1_555 1_555
C43 N4 1_555 1_555
C44 N3 1_555 1_555
C49 C50 1_555 1_555

#END
