
#######################################################################
#
#                 Cambridge Crystallographic Data Centre
#                                CCDC 
#
#######################################################################
#
# If this CIF has been generated from an entry in the Cambridge 
# Structural Database, then it will include bibliographic, chemical, 
# crystal, experimental, refinement or atomic coordinate data resulting 
# from the CCDC's data processing and validation procedures.
#
#######################################################################

data_FOQDEV
_chemical_formula_moiety         'C49 H54 Ca1 N7 O8 S1 1+,C1 N1 S1 1-,C2 H4 Cl2'
_chemical_name_systematic        
"Isothiocyanato-(N,N'-bis(5-nitro-2-oxy-3-(2-(1,3,3-trimethyl-3H-indolium-2-yl)ethenyl)benzyl)-1,7-diaza-12-crown-4)-calcium thiocyanate 1,2-dichloroethane solvate"
_symmetry_cell_setting           monoclinic
_symmetry_space_group_name_H-M   'P 21/c'
_symmetry_Int_Tables_number      14
_space_group_name_Hall           '-P 2ybc'
loop_
_symmetry_equiv_pos_site_id
_symmetry_equiv_pos_as_xyz
1 x,y,z
2 -x,1/2+y,1/2-z
3 -x,-y,-z
4 x,1/2-y,1/2+z
_cell_length_a                   13.5916(9)
_cell_length_b                   14.1559(9)
_cell_length_c                   28.107(2)
_cell_angle_alpha                90
_cell_angle_beta                 96.347(4)
_cell_angle_gamma                90
_cell_volume                     5374.68
_exptl_crystal_colour            red
_exptl_crystal_description       block
_cell_formula_units_Z            4
loop_
_atom_site_label
_atom_site_type_symbol
_atom_site_fract_x
_atom_site_fract_y
_atom_site_fract_z
Ca1 Ca 0.02780(5) 0.39939(5) 0.35607(3)
S1 S 0.2627(1) 0.3503(1) 0.51197(5)
O1 O 0.1023(2) 0.2719(2) 0.3267(1)
O2 O 0.0397(3) -0.1627(2) 0.3330(1)
O3 O -0.1032(3) -0.1194(2) 0.3007(2)
O4 O -0.1188(2) 0.3940(2) 0.3968(1)
O5 O -0.0689(2) 0.5052(2) 0.2999(1)
O6 O 0.1624(2) 0.4834(2) 0.3394(1)
O7 O 0.2927(2) 0.8910(2) 0.3957(1)
O8 O 0.3351(3) 0.8886(2) 0.3239(1)
N1 N 0.4061(2) 0.3179(3) 0.4190(1)
N2 N -0.0191(3) -0.1005(2) 0.3189(1)
N3 N -0.1176(2) 0.3107(2) 0.3079(1)
N4 N -0.0011(2) 0.5570(2) 0.3960(1)
N5 N 0.3005(3) 0.8503(2) 0.3574(1)
N6 N 0.3266(2) 0.3084(2) 0.2279(1)
N7 N 0.1147(3) 0.3575(3) 0.4341(1)
C1 C 0.0746(3) 0.1854(3) 0.3270(1)
C2 C 0.1350(3) 0.1122(3) 0.3506(2)
C3 C 0.1023(3) 0.0181(3) 0.3472(2)
C4 C 0.0109(3) -0.0031(3) 0.3228(2)
C5 C -0.0506(3) 0.0660(3) 0.3011(2)
C6 C -0.0209(3) 0.1595(3) 0.3030(1)
C7 C 0.2301(3) 0.1308(3) 0.3784(2)
C8 C 0.2746(3) 0.2162(3) 0.3861(2)
C9 C 0.3665(3) 0.2323(3) 0.4145(1)
C10 C 0.3675(4) 0.4063(4) 0.3972(2)
C11 C 0.4960(3) 0.3185(3) 0.4496(2)
C12 C 0.5146(3) 0.2269(4) 0.4655(2)
C13 C 0.4331(3) 0.1620(3) 0.4438(2)
C14 C 0.4751(4) 0.0895(4) 0.4108(2)
C15 C 0.3799(4) 0.1126(4) 0.4829(2)
C16 C 0.5569(4) 0.3943(4) 0.4626(2)
C17 C 0.6418(4) 0.3732(5) 0.4938(2)
C18 C 0.6632(4) 0.2841(5) 0.5081(2)
C19 C 0.6005(4) 0.2069(5) 0.4951(2)
C20 C -0.0825(3) 0.2347(3) 0.2767(2)
C21 C -0.1745(3) 0.2677(3) 0.3444(2)
C22 C -0.2036(3) 0.3386(3) 0.3803(2)
C23 C -0.1426(4) 0.4709(3) 0.4261(2)
C24 C -0.0512(3) 0.5305(3) 0.4382(2)
C25 C -0.1779(3) 0.3778(3) 0.2758(2)
C26 C -0.1712(3) 0.4793(3) 0.2914(2)
C27 C -0.0508(4) 0.6036(3) 0.3122(2)
C28 C -0.0609(3) 0.6233(3) 0.3645(2)
C29 C 0.0972(3) 0.5958(3) 0.4144(2)
C30 C 0.1628(3) 0.6311(3) 0.3786(1)
C31 C 0.1957(3) 0.5678(3) 0.3435(1)
C32 C 0.2670(3) 0.6030(3) 0.3130(2)
C33 C 0.2988(3) 0.6968(3) 0.3178(2)
C34 C 0.2651(3) 0.7537(3) 0.3515(2)
C35 C 0.1971(3) 0.7224(3) 0.3818(2)
C36 C 0.3057(3) 0.5455(3) 0.2768(2)
C37 C 0.2908(3) 0.4518(3) 0.2679(2)
C38 C 0.3311(3) 0.4014(3) 0.2310(2)
C39 C 0.2837(4) 0.2452(4) 0.2615(2)
C40 C 0.3699(3) 0.2726(3) 0.1880(2)
C41 C 0.4029(3) 0.3492(3) 0.1632(1)
C42 C 0.3821(3) 0.4400(3) 0.1892(2)
C43 C 0.3112(4) 0.5051(4) 0.1579(2)
C44 C 0.4807(4) 0.4898(4) 0.2073(2)
C45 C 0.3817(4) 0.1807(3) 0.1738(2)
C46 C 0.4275(4) 0.1665(4) 0.1323(2)
C47 C 0.4598(4) 0.2415(4) 0.1069(2)
C48 C 0.4468(4) 0.3346(4) 0.1220(2)
C49 C 0.1765(3) 0.3544(3) 0.4662(2)
H1 H 0.139(3) -0.027(3) 0.365(2)
H2 H -0.111(5) 0.040(5) 0.283(2)
H3 H 0.264(4) 0.079(4) 0.391(2)
H4 H 0.237(3) 0.269(3) 0.372(2)
H5 H 0.399(6) 0.418(6) 0.374(3)
H6 H 0.299(5) 0.399(5) 0.385(2)
H7 H 0.360(4) 0.457(4) 0.422(2)
H8 H 0.504(4) 0.125(3) 0.383(2)
H9 H 0.418(4) 0.043(4) 0.396(2)
H10 H 0.529(4) 0.041(4) 0.429(2)
H11 H 0.317(3) 0.070(3) 0.466(2)
H12 H 0.350(4) 0.150(5) 0.499(2)
H13 H 0.419(4) 0.085(4) 0.507(2)
H14 H 0.552(4) 0.459(4) 0.447(2)
H15 H 0.686(4) 0.422(4) 0.507(2)
H16 H 0.708(5) 0.268(5) 0.533(3)
H17 H 0.605(4) 0.140(4) 0.511(2)
H18 H -0.144(4) 0.203(4) 0.259(2)
H19 H -0.044(3) 0.272(3) 0.251(2)
H20 H -0.134(4) 0.227(3) 0.364(2)
H21 H -0.234(4) 0.236(3) 0.326(2)
H22 H -0.258(4) 0.383(4) 0.365(2)
H23 H -0.236(4) 0.306(4) 0.407(2)
H24 H -0.198(3) 0.506(3) 0.408(1)
H25 H -0.161(4) 0.442(4) 0.454(2)
H26 H -0.008(3) 0.490(3) 0.459(1)
H27 H -0.069(3) 0.584(3) 0.453(2)
H28 H -0.151(3) 0.376(3) 0.244(2)
H29 H -0.250(3) 0.354(3) 0.272(2)
H30 H -0.198(3) 0.489(3) 0.319(2)
H31 H -0.207(4) 0.520(4) 0.261(2)
H32 H -0.103(4) 0.639(4) 0.289(2)
H33 H 0.012(4) 0.615(3) 0.305(2)
H34 H -0.127(4) 0.626(3) 0.373(2)
H35 H -0.045(4) 0.672(4) 0.368(2)
H36 H 0.119(3) 0.551(4) 0.436(2)
H37 H 0.095(3) 0.642(4) 0.434(2)
H38 H 0.345(3) 0.721(3) 0.299(2)
H39 H 0.176(3) 0.762(3) 0.405(2)
H40 H 0.361(3) 0.576(3) 0.256(2)
H41 H 0.244(3) 0.415(3) 0.289(2)
H42 H 0.281(4) 0.185(5) 0.249(2)
H43 H 0.272(9) 0.276(8) 0.294(4)
H44 H 0.334(5) 0.226(4) 0.289(2)
H45 H 0.234(6) 0.463(6) 0.146(3)
H46 H 0.300(4) 0.565(5) 0.176(2)
H47 H 0.342(4) 0.524(4) 0.131(2)
H48 H 0.465(5) 0.530(6) 0.233(3)
H49 H 0.516(5) 0.447(5) 0.230(2)
H50 H 0.517(4) 0.497(4) 0.183(2)
H51 H 0.372(3) 0.130(3) 0.191(2)
H52 H 0.419(4) 0.112(4) 0.119(2)
H53 H 0.490(6) 0.231(6) 0.082(3)
H54 H 0.477(4) 0.392(4) 0.104(2)
Cl1 Cl 1.019(1) 0.1498(10) 0.5557(3)
Cl3 Cl 0.874(1) 0.096(1) 0.4412(8)
C51 C 1.054(1) 0.1461(9) 0.4969(6)
C52 C 0.973(2) 0.182(3) 0.461(1)
S2 S 0.5433(1) 0.2545(1) 0.30446(8)
N8 N 0.5757(5) 0.4399(5) 0.3285(3)
C50 C 0.5585(4) 0.3647(5) 0.3203(2)
Cl2? Cl 1.083(4) 0.150(2) 0.557(1)
Cl4? Cl 0.8598(7) 0.1155(7) 0.4588(5)
Cl5? Cl 0.887(2) 0.142(2) 0.490(1)
C53? C 0.981(3) 0.152(4) 0.454(2)
C54? C 0.939(2) 0.224(2) 0.4776(9)
C55? C 0.977(1) 0.1328(7) 0.5527(3)
C56? C 1.030(2) 0.105(2) 0.5654(7)
loop_
_geom_bond_atom_site_label_1
_geom_bond_atom_site_label_2
_geom_bond_site_symmetry_1
_geom_bond_site_symmetry_2
Ca1 O1 1_555 1_555
Cl1 C51 1_555 1_555
Cl3 C52 1_555 1_555
S1 C49 1_555 1_555
S2 C50 1_555 1_555
O1 C1 1_555 1_555
O2 N2 1_555 1_555
O3 N2 1_555 1_555
O4 Ca1 1_555 1_555
O5 Ca1 1_555 1_555
O6 Ca1 1_555 1_555
O7 N5 1_555 1_555
O8 N5 1_555 1_555
N1 C9 1_555 1_555
N2 C4 1_555 1_555
N3 Ca1 1_555 1_555
N4 Ca1 1_555 1_555
N5 C34 1_555 1_555
N6 C38 1_555 1_555
N7 Ca1 1_555 1_555
N8 C50 1_555 1_555
C1 C2 1_555 1_555
C2 C3 1_555 1_555
C3 C4 1_555 1_555
C4 C5 1_555 1_555
C5 C6 1_555 1_555
C6 C1 1_555 1_555
C7 C2 1_555 1_555
C8 C7 1_555 1_555
C9 C8 1_555 1_555
C10 N1 1_555 1_555
C11 N1 1_555 1_555
C12 C11 1_555 1_555
C13 C9 1_555 1_555
C14 C13 1_555 1_555
C15 C13 1_555 1_555
C16 C11 1_555 1_555
C17 C16 1_555 1_555
C18 C17 1_555 1_555
C19 C12 1_555 1_555
C20 N3 1_555 1_555
C21 N3 1_555 1_555
C22 O4 1_555 1_555
C23 O4 1_555 1_555
C24 N4 1_555 1_555
C25 N3 1_555 1_555
C26 O5 1_555 1_555
C27 O5 1_555 1_555
C28 N4 1_555 1_555
C29 N4 1_555 1_555
C30 C29 1_555 1_555
C31 O6 1_555 1_555
C32 C31 1_555 1_555
C33 C32 1_555 1_555
C34 C33 1_555 1_555
C35 C30 1_555 1_555
C36 C32 1_555 1_555
C37 C36 1_555 1_555
C38 C37 1_555 1_555
C39 N6 1_555 1_555
C40 N6 1_555 1_555
C41 C40 1_555 1_555
C42 C38 1_555 1_555
C43 C42 1_555 1_555
C44 C42 1_555 1_555
C45 C40 1_555 1_555
C46 C45 1_555 1_555
C47 C46 1_555 1_555
C48 C41 1_555 1_555
C49 N7 1_555 1_555
C51 C52 1_555 1_555
H1 C3 1_555 1_555
H2 C5 1_555 1_555
H3 C7 1_555 1_555
H4 C8 1_555 1_555
H5 C10 1_555 1_555
H6 C10 1_555 1_555
H7 C10 1_555 1_555
H8 C14 1_555 1_555
H9 C14 1_555 1_555
H10 C14 1_555 1_555
H11 C15 1_555 1_555
H12 C15 1_555 1_555
H13 C15 1_555 1_555
H14 C16 1_555 1_555
H15 C17 1_555 1_555
H16 C18 1_555 1_555
H17 C19 1_555 1_555
H18 C20 1_555 1_555
H19 C20 1_555 1_555
H20 C21 1_555 1_555
H21 C21 1_555 1_555
H22 C22 1_555 1_555
H23 C22 1_555 1_555
H24 C23 1_555 1_555
H25 C23 1_555 1_555
H26 C24 1_555 1_555
H27 C24 1_555 1_555
H28 C25 1_555 1_555
H29 C25 1_555 1_555
H30 C26 1_555 1_555
H31 C26 1_555 1_555
H32 C27 1_555 1_555
H33 C27 1_555 1_555
H34 C28 1_555 1_555
H35 C28 1_555 1_555
H36 C29 1_555 1_555
H37 C29 1_555 1_555
H38 C33 1_555 1_555
H39 C35 1_555 1_555
H40 C36 1_555 1_555
H41 C37 1_555 1_555
H42 C39 1_555 1_555
H43 C39 1_555 1_555
H44 C39 1_555 1_555
H45 C43 1_555 1_555
H46 C43 1_555 1_555
H47 C43 1_555 1_555
H48 C44 1_555 1_555
H49 C44 1_555 1_555
H50 C44 1_555 1_555
H51 C45 1_555 1_555
H52 C46 1_555 1_555
H53 C47 1_555 1_555
H54 C48 1_555 1_555
C6 C20 1_555 1_555
C12 C13 1_555 1_555
C18 C19 1_555 1_555
C21 C22 1_555 1_555
C23 C24 1_555 1_555
C25 C26 1_555 1_555
C27 C28 1_555 1_555
C30 C31 1_555 1_555
C34 C35 1_555 1_555
C41 C42 1_555 1_555
C47 C48 1_555 1_555

#END
