
#######################################################################
#
#                 Cambridge Crystallographic Data Centre
#                                CCDC 
#
#######################################################################
#
# If this CIF has been generated from an entry in the Cambridge 
# Structural Database, then it will include bibliographic, chemical, 
# crystal, experimental, refinement or atomic coordinate data resulting 
# from the CCDC's data processing and validation procedures.
#
#######################################################################

data_FOQGUO
_chemical_formula_moiety         'C12 H12 N2 O4,2(H2 O1)'
_chemical_name_systematic        
"N,N'-bis(Carboxymethyl)-2-methylbenzimidazole dihydrate"
_symmetry_cell_setting           monoclinic
_symmetry_space_group_name_H-M   'P 21/c'
_symmetry_Int_Tables_number      14
_space_group_name_Hall           '-P 2ybc'
loop_
_symmetry_equiv_pos_site_id
_symmetry_equiv_pos_as_xyz
1 x,y,z
2 -x,1/2+y,1/2-z
3 -x,-y,-z
4 x,1/2-y,1/2+z
_cell_length_a                   19.8207(14)
_cell_length_b                   7.4501(5)
_cell_length_c                   20.0931(14)
_cell_angle_alpha                90
_cell_angle_beta                 116.4790(10)
_cell_angle_gamma                90
_cell_volume                     2655.82
_exptl_crystal_colour            colorless
_exptl_crystal_description       prism
_cell_formula_units_Z            8
loop_
_atom_site_label
_atom_site_type_symbol
_atom_site_fract_x
_atom_site_fract_y
_atom_site_fract_z
O1 O -0.13415(14) 0.6410(3) 0.03476(14)
H1 H -0.1077 0.7127 0.0667
O2 O -0.17702(14) 0.8856(3) -0.03707(14)
O3 O -0.48205(13) 0.6224(3) -0.33169(15)
O4 O -0.55990(13) 0.8395(3) -0.33127(13)
N1 N -0.25838(15) 0.6799(4) -0.16024(15)
N2 N -0.35741(14) 0.8197(3) -0.24129(15)
C1 C -0.17073(18) 0.7236(5) -0.02709(19)
C2 C -0.2068(2) 0.5929(5) -0.09145(19)
H11 H -0.1674 0.5331 -0.0993
H12 H -0.2340 0.5021 -0.0785
C3 C -0.24444(18) 0.7146(4) -0.22091(18)
C4 C -0.1834(2) 0.6802(5) -0.2353(2)
H13 H -0.1403 0.6235 -0.2004
C5 C -0.1891(2) 0.7330(5) -0.3029(2)
H14 H -0.1492 0.7110 -0.3142
C6 C -0.2537(2) 0.8197(5) -0.3554(2)
H15 H -0.2552 0.8548 -0.4004
C7 C -0.3149(2) 0.8542(4) -0.34264(19)
H16 H -0.3580 0.9092 -0.3782
C8 C -0.30913(18) 0.8025(4) -0.27368(18)
C9 C -0.43126(18) 0.9045(5) -0.2744(2)
H17 H -0.4320 0.9973 -0.3086
H18 H -0.4400 0.9616 -0.2356
C10 C -0.49449(18) 0.7715(5) -0.31596(18)
C11 C -0.32587(18) 0.7437(4) -0.17311(19)
C12 C -0.3606(2) 0.7357(5) -0.1227(2)
H19 H -0.3272 0.6759 -0.0777
H20 H -0.4072 0.6707 -0.1459
H21 H -0.3703 0.8553 -0.1113
O5 O 0.33900(13) 0.6640(3) 0.57441(13)
H2 H 0.3681 0.7352 0.6048
O6 O 0.32387(15) 0.8830(3) 0.49305(14)
O7 O -0.04839(13) 0.8337(3) 0.13500(14)
O8 O 0.02703(13) 0.5965(3) 0.18595(14)
N3 N 0.22846(15) 0.6769(3) 0.37641(15)
N4 N 0.14332(15) 0.8088(4) 0.27880(16)
C13 C 0.31339(18) 0.7317(5) 0.50927(19)
C14 C 0.2665(2) 0.5970(5) 0.45000(19)
H22 H 0.2989 0.5008 0.4489
H23 H 0.2291 0.5450 0.4631
C15 C 0.25890(18) 0.6970(4) 0.32682(18)
C16 C 0.32852(19) 0.6472(5) 0.3316(2)
H24 H 0.3650 0.5919 0.3738
C17 C 0.3405(2) 0.6841(5) 0.2708(2)
H25 H 0.3864 0.6526 0.2718
C18 C 0.2858(2) 0.7676(5) 0.2076(2)
H26 H 0.2963 0.7917 0.1677
C19 C 0.2163(2) 0.8155(5) 0.2026(2)
H27 H 0.1796 0.8693 0.1602
C20 C 0.20432(18) 0.7793(4) 0.26397(18)
C21 C 0.07158(19) 0.8929(5) 0.2269(2)
H28 H 0.0812 0.9752 0.1948
H29 H 0.0519 0.9622 0.2553
C22 C 0.01294(19) 0.7588(5) 0.17956(19)
C23 C 0.15853(19) 0.7465(4) 0.3463(2)
C24 C 0.1082(2) 0.7495(5) 0.3819(2)
H30 H 0.0616 0.8064 0.3494
H31 H 0.1316 0.8153 0.4277
H32 H 0.0984 0.6288 0.3919
O9 O 0.45247(15) 0.4366(3) 0.52683(16)
H3 H 0.4575 0.5132 0.5580
H4 H 0.4555 0.3366 0.5450
O10 O 0.46985(16) 0.0683(4) 0.54427(16)
H5 H 0.4328 0.0442 0.5053
H6 H 0.4723 -0.0014 0.5768
O11 O 0.02501(16) 0.3928(4) 0.06391(17)
H7 H -0.0173 0.4213 0.0740
H8 H 0.0214 0.4732 0.0245
O12 O -0.0605(2) 0.1154(5) -0.0263(2)
H9 H -0.0258 0.1552 0.0115
H10 H -0.0857 0.0458 -0.0150
loop_
_geom_bond_atom_site_label_1
_geom_bond_atom_site_label_2
_geom_bond_site_symmetry_1
_geom_bond_site_symmetry_2
O1 H1 1_555 1_555
O2 C1 1_555 1_555
O3 C10 1_555 1_555
O4 C10 1_555 1_555
O5 H2 1_555 1_555
O6 C13 1_555 1_555
O7 C22 1_555 1_555
O8 C22 1_555 1_555
O9 H3 1_555 1_555
H4 O9 1_555 1_555
O10 H5 1_555 1_555
H6 O10 1_555 1_555
O11 H7 1_555 1_555
H8 O11 1_555 1_555
O12 H9 1_555 1_555
H10 O12 1_555 1_555
N1 C2 1_555 1_555
N2 C8 1_555 1_555
N3 C14 1_555 1_555
N4 C20 1_555 1_555
C1 O1 1_555 1_555
C2 C1 1_555 1_555
H11 C2 1_555 1_555
H12 C2 1_555 1_555
C3 N1 1_555 1_555
C4 C3 1_555 1_555
H13 C4 1_555 1_555
C5 C4 1_555 1_555
H14 C5 1_555 1_555
C6 C5 1_555 1_555
H15 C6 1_555 1_555
C7 C6 1_555 1_555
H16 C7 1_555 1_555
C8 C3 1_555 1_555
C9 N2 1_555 1_555
H17 C9 1_555 1_555
H18 C9 1_555 1_555
C10 C9 1_555 1_555
C11 N1 1_555 1_555
C12 C11 1_555 1_555
H19 C12 1_555 1_555
H20 C12 1_555 1_555
H21 C12 1_555 1_555
C13 O5 1_555 1_555
C14 C13 1_555 1_555
H22 C14 1_555 1_555
H23 C14 1_555 1_555
C15 N3 1_555 1_555
C16 C15 1_555 1_555
H24 C16 1_555 1_555
C17 C16 1_555 1_555
H25 C17 1_555 1_555
C18 C17 1_555 1_555
H26 C18 1_555 1_555
C19 C18 1_555 1_555
H27 C19 1_555 1_555
C20 C15 1_555 1_555
C21 N4 1_555 1_555
H28 C21 1_555 1_555
H29 C21 1_555 1_555
C22 C21 1_555 1_555
C23 N3 1_555 1_555
C24 C23 1_555 1_555
H30 C24 1_555 1_555
H31 C24 1_555 1_555
H32 C24 1_555 1_555
N2 C11 1_555 1_555
N4 C23 1_555 1_555
C7 C8 1_555 1_555
C19 C20 1_555 1_555

#END
