
#######################################################################
#
#                 Cambridge Crystallographic Data Centre
#                                CCDC 
#
#######################################################################
#
# If this CIF has been generated from an entry in the Cambridge 
# Structural Database, then it will include bibliographic, chemical, 
# crystal, experimental, refinement or atomic coordinate data resulting 
# from the CCDC's data processing and validation procedures.
#
#######################################################################

data_FOQMOP
_chemical_formula_moiety         'C17 H12 Br1 N1'
_chemical_name_systematic        4-(4-Bromophenyl)-2-phenylpyridine
_symmetry_cell_setting           monoclinic
_symmetry_space_group_name_H-M   'P 21/c'
_symmetry_Int_Tables_number      14
_space_group_name_Hall           '-P 2ybc'
loop_
_symmetry_equiv_pos_site_id
_symmetry_equiv_pos_as_xyz
1 x,y,z
2 -x,1/2+y,1/2-z
3 -x,-y,-z
4 x,1/2-y,1/2+z
_cell_length_a                   10.441(2)
_cell_length_b                   13.358(3)
_cell_length_c                   11.148(2)
_cell_angle_alpha                90
_cell_angle_beta                 116.108(4)
_cell_angle_gamma                90
_cell_volume                     1396.18
_cell_formula_units_Z            4
loop_
_atom_site_label
_atom_site_type_symbol
_atom_site_fract_x
_atom_site_fract_y
_atom_site_fract_z
Br1 Br 0.97089(5) 1.24218(3) 0.24937(4)
N1 N 0.6058(4) 0.7265(2) 0.5152(3)
C1 C 0.8252(4) 1.0603(3) 0.4617(4)
H1 H 0.8180 1.0650 0.5417
C2 C 0.8808(4) 1.1399(3) 0.4214(4)
H2 H 0.9098 1.1977 0.4729
C3 C 0.8927(4) 1.1324(2) 0.3037(3)
C4 C 0.8480(4) 1.0482(3) 0.2253(3)
H3 H 0.8550 1.0445 0.1451
C5 C 0.7924(4) 0.9687(3) 0.2675(3)
H4 H 0.7629 0.9113 0.2152
C6 C 0.7798(4) 0.9735(3) 0.3868(3)
C7 C 0.7201(4) 0.8881(3) 0.4314(3)
C8 C 0.6477(4) 0.9036(3) 0.5098(4)
H5 H 0.6354 0.9677 0.5355
C9 C 0.5953(5) 0.8213(3) 0.5478(4)
H6 H 0.5484 0.8327 0.6007
C10 C 0.6765(4) 0.7114(3) 0.4402(3)
C11 C 0.7321(4) 0.7904(3) 0.3971(3)
H7 H 0.7784 0.7773 0.3441
C12 C 0.6895(4) 0.6063(3) 0.4058(3)
C13 C 0.5856(4) 0.5363(3) 0.3925(4)
H8 H 0.5075 0.5560 0.4060
C14 C 0.5959(5) 0.4380(3) 0.3596(4)
H9 H 0.5256 0.3923 0.3520
C15 C 0.7097(5) 0.4074(3) 0.3381(4)
H10 H 0.7157 0.3415 0.3141
C16 C 0.8146(5) 0.4749(3) 0.3524(4)
H11 H 0.8926 0.4544 0.3392
C17 C 0.8050(5) 0.5730(3) 0.3864(4)
H12 H 0.8773 0.6177 0.3964
loop_
_geom_bond_atom_site_label_1
_geom_bond_atom_site_label_2
_geom_bond_site_symmetry_1
_geom_bond_site_symmetry_2
Br1 C3 1_555 1_555
N1 C9 1_555 1_555
C1 H1 1_555 1_555
C2 C1 1_555 1_555
H2 C2 1_555 1_555
C3 C2 1_555 1_555
C4 C3 1_555 1_555
H3 C4 1_555 1_555
C5 C4 1_555 1_555
H4 C5 1_555 1_555
C6 C1 1_555 1_555
C7 C6 1_555 1_555
C8 C7 1_555 1_555
H5 C8 1_555 1_555
C9 C8 1_555 1_555
H6 C9 1_555 1_555
C10 N1 1_555 1_555
C11 C7 1_555 1_555
H7 C11 1_555 1_555
C12 C10 1_555 1_555
C13 C12 1_555 1_555
H8 C13 1_555 1_555
C14 C13 1_555 1_555
H9 C14 1_555 1_555
C15 C14 1_555 1_555
H10 C15 1_555 1_555
C16 C15 1_555 1_555
H11 C16 1_555 1_555
C17 C12 1_555 1_555
H12 C17 1_555 1_555
C5 C6 1_555 1_555
C10 C11 1_555 1_555
C16 C17 1_555 1_555

#END
