
#######################################################################
#
#                 Cambridge Crystallographic Data Centre
#                                CCDC 
#
#######################################################################
#
# If this CIF has been generated from an entry in the Cambridge 
# Structural Database, then it will include bibliographic, chemical, 
# crystal, experimental, refinement or atomic coordinate data resulting 
# from the CCDC's data processing and validation procedures.
#
#######################################################################

data_FORCUM
_chemical_formula_moiety         'C64 H68 I4 O8,3.7(C4 H8 O2),0.3(H2 O1)'
_chemical_name_systematic        
'25,29,33,37-tetrahexyl-6,12,18,39-tetrakis(iodoethynyl)-2,4,8,10,14,16,20,22-octaoxanonacyclo[21.15.1.1^24,38^.0^5,36^.0^7,34^.0^11,32^.0^13,30^.0^17,28^.0^19,26^]tetraconta-1(39),5(36),6,11(32),12,17(28),18,23,26,30,34,38(40)-dodecaene 1,4-dioxane hydrate'
_symmetry_cell_setting           triclinic
_symmetry_space_group_name_H-M   'P -1'
_symmetry_Int_Tables_number      2
_space_group_name_Hall           '-P 1'
loop_
_symmetry_equiv_pos_site_id
_symmetry_equiv_pos_as_xyz
1 x,y,z
2 -x,-y,-z
_cell_length_a                   14.9822(4)
_cell_length_b                   16.9494(5)
_cell_length_c                   17.6201(4)
_cell_angle_alpha                96.532(2)
_cell_angle_beta                 101.5835(19)
_cell_angle_gamma                113.200(3)
_cell_volume                     3935.35
_exptl_crystal_colour            colorless
_exptl_crystal_description       plate
_cell_formula_units_Z            2
loop_
_atom_site_label
_atom_site_type_symbol
_atom_site_fract_x
_atom_site_fract_y
_atom_site_fract_z
I1 I 0.47930(3) 0.48789(3) 0.30155(2)
I2 I 0.44091(5) 0.08604(3) 0.54658(3)
I3 I 0.09887(3) 0.24603(4) 0.76939(3)
I4 I 0.17083(4) 0.69303(4) 0.55679(3)
O1 O 0.6420(3) 0.7345(3) 0.5546(3)
O2 O 0.7512(3) 0.5062(3) 0.5496(2)
O3 O 0.7426(3) 0.3947(3) 0.6204(2)
O4 O 0.5847(4) 0.2966(3) 0.8228(3)
O5 O 0.4833(4) 0.3410(3) 0.8877(3)
O6 O 0.3701(3) 0.5668(3) 0.8914(3)
O7 O 0.3886(3) 0.6844(3) 0.8254(3)
O8 O 0.5535(4) 0.7871(3) 0.6281(3)
C1 C 0.7499(5) 0.7299(4) 0.6753(4)
C2 C 0.6928(5) 0.6932(4) 0.5971(4)
C3 C 0.6902(5) 0.6166(5) 0.5551(4)
C4 C 0.7489(5) 0.5776(4) 0.5939(4)
C5 C 0.8072(4) 0.6134(5) 0.6721(4)
C6 C 0.8047(4) 0.6890(4) 0.7114(4)
H1 H 0.8424 0.7131 0.7653
C7 C 0.8656(5) 0.5674(5) 0.7143(4)
H2 H 0.8851 0.5373 0.6728
C8 C 0.9637(5) 0.6296(5) 0.7771(4)
H3 H 0.9921 0.5941 0.8056
H4 H 0.9479 0.6653 0.8162
C9 C 1.0439(6) 0.6918(6) 0.7423(5)
H5 H 1.0692 0.6569 0.7112
H6 H 1.0118 0.7189 0.7055
C10 C 1.1331(6) 0.7646(6) 0.8054(6)
H7 H 1.1813 0.8010 0.7785
H8 H 1.1082 0.8028 0.8325
C11 C 1.1895(6) 0.7340(6) 0.8677(5)
H9 H 1.1423 0.7000 0.8965
H10 H 1.2121 0.6937 0.8406
C12 C 1.2800(7) 0.8068(7) 0.9273(7)
H11 H 1.3260 0.8422 0.8983
H12 H 1.2570 0.8458 0.9557
C13 C 1.3384(7) 0.7760(8) 0.9875(6)
H13 H 1.3956 0.8270 1.0237
H14 H 1.3632 0.7386 0.9602
H15 H 1.2942 0.7424 1.0178
C14 C 0.6271(5) 0.5769(5) 0.4761(4)
C15 C 0.5715(5) 0.5437(5) 0.4103(4)
C16 C 0.6907(5) 0.4216(5) 0.5606(4)
H16 H 0.6303 0.4226 0.5746
H17 H 0.6675 0.3782 0.5101
C17 C 0.7935(5) 0.4960(5) 0.7453(4)
C18 C 0.7325(5) 0.4139(5) 0.6968(4)
C19 C 0.6610(5) 0.3469(5) 0.7206(4)
C20 C 0.6520(5) 0.3646(4) 0.7983(4)
C21 C 0.7108(5) 0.4462(4) 0.8493(4)
C22 C 0.7808(5) 0.5110(5) 0.8222(4)
H18 H 0.8213 0.5670 0.8565
C23 C 0.6921(5) 0.4626(4) 0.9302(4)
H19 H 0.6659 0.4044 0.9457
C24 C 0.7869(5) 0.5244(5) 0.9967(4)
H20 H 0.8211 0.5799 0.9800
H21 H 0.7668 0.5386 1.0448
C25 C 0.8594(6) 0.4833(5) 1.0164(5)
H22 H 0.8903 0.4808 0.9720
H23 H 0.8212 0.4222 1.0213
C26 C 0.9431(6) 0.5330(6) 1.0928(5)
H24 H 0.9117 0.5362 1.1368
H25 H 0.9827 0.4988 1.1044
C27 C 1.0143(5) 0.6250(5) 1.0915(4)
H26 H 0.9781 0.6629 1.0904
H27 H 1.0369 0.6239 1.0424
C28 C 1.1065(6) 0.6646(5) 1.1634(5)
H28 H 1.0836 0.6680 1.2121
H29 H 1.1401 0.6246 1.1658
C29 C 1.1828(8) 0.7550(7) 1.1627(7)
H30 H 1.2394 0.7760 1.2104
H31 H 1.1508 0.7956 1.1617
H32 H 1.2075 0.7521 1.1155
C30 C 0.5960(5) 0.2644(5) 0.6678(4)
C31 C 0.5400(6) 0.1976(5) 0.6244(5)
C32 C 0.4883(5) 0.2962(5) 0.8169(4)
H33 H 0.4725 0.3241 0.7729
H34 H 0.4365 0.2346 0.8041
C33 C 0.6076(5) 0.4920(5) 0.9200(3)
C34 C 0.5077(5) 0.4304(4) 0.8960(4)
C35 C 0.4279(5) 0.4544(5) 0.8829(4)
C36 C 0.4494(5) 0.5436(5) 0.8978(4)
C37 C 0.5495(5) 0.6079(4) 0.9226(3)
C38 C 0.6264(5) 0.5807(4) 0.9323(3)
H35 H 0.6943 0.6239 0.9480
C39 C 0.5697(5) 0.7049(5) 0.9334(4)
H36 H 0.5107 0.7094 0.9484
C40 C 0.6636(5) 0.7676(5) 0.9993(4)
H37 H 0.6608 0.7463 1.0492
H38 H 0.7243 0.7677 0.9851
C41 C 0.6720(7) 0.8608(6) 1.0123(5)
H39 H 0.6845 0.8840 0.9644
H40 H 0.6061 0.8581 1.0168
C42 C 0.7528(7) 0.9262(6) 1.0840(5)
H41 H 0.8176 0.9232 1.0850
H42 H 0.7614 0.9864 1.0796
C43 C 0.7264(9) 0.9083(7) 1.1597(6)
H43 H 0.7232 0.8498 1.1651
H44 H 0.6579 0.9048 1.1553
C44 C 0.7986(16) 0.9758(15) 1.2372(9)
H45 H 0.7996 1.0342 1.2348
H46 H 0.8679 0.9811 1.2427
C45 C 0.762(2) 0.9447(19) 1.3110(14)
H47 H 0.8072 0.9878 1.3596
H48 H 0.7623 0.8875 1.3139
H49 H 0.6933 0.9396 1.3054
C46 C 0.3253(5) 0.3883(5) 0.8519(4)
C47 C 0.2419(6) 0.3355(5) 0.8229(4)
C48 C 0.3392(5) 0.5921(5) 0.8202(4)
H50 H 0.2655 0.5736 0.8073
H51 H 0.3534 0.5611 0.7764
C49 C 0.5676(5) 0.7277(4) 0.8528(4)
C50 C 0.4752(5) 0.7131(4) 0.8009(4)
C51 C 0.4712(5) 0.7329(5) 0.7262(4)
C52 C 0.5600(5) 0.7655(4) 0.7016(4)
C53 C 0.6526(5) 0.7792(4) 0.7502(4)
C54 C 0.6533(5) 0.7591(4) 0.8259(4)
H52 H 0.7156 0.7676 0.8600
C55 C 0.7455(5) 0.8102(4) 0.7200(4)
H53 H 0.7354 0.8457 0.6802
C56 C 0.8440(5) 0.8702(4) 0.7838(4)
H54 H 0.8595 0.8353 0.8215
H55 H 0.8995 0.8907 0.7581
C57 C 0.8405(6) 0.9501(5) 0.8302(4)
H56 H 0.8114 0.9784 0.7926
H57 H 0.7960 0.9307 0.8655
C58 C 0.9445(5) 1.0168(5) 0.8797(4)
H58 H 0.9793 0.9855 0.9083
H59 H 0.9842 1.0451 0.8437
C59 C 0.9431(5) 1.0877(5) 0.9395(4)
H60 H 0.9071 1.0600 0.9777
H61 H 0.9051 1.1170 0.9115
C60 C 1.0490(6) 1.1573(5) 0.9855(4)
H62 H 1.0883 1.1278 1.0114
H63 H 1.0838 1.1873 0.9478
C61 C 1.0464(7) 1.2249(5) 1.0479(4)
H64 H 1.1154 1.2678 1.0755
H65 H 1.0133 1.1956 1.0860
H66 H 1.0088 1.2551 1.0224
C62 C 0.3771(6) 0.7210(5) 0.6749(4)
C63 C 0.3007(5) 0.7123(6) 0.6325(5)
C64 C 0.5468(5) 0.7224(4) 0.5654(4)
H67 H 0.5135 0.6636 0.5770
H68 H 0.5040 0.7243 0.5156
O9 O -0.1571(6) 0.4811(5) 0.3281(4)
O10 O -0.0074(4) 0.6360(5) 0.4297(4)
C65 C -0.0716(9) 0.5323(9) 0.3063(6)
H69 H -0.0850 0.5756 0.2783
H70 H -0.0557 0.4944 0.2694
C66 C 0.0117(9) 0.5770(10) 0.3738(7)
H71 H 0.0719 0.6117 0.3567
H72 H 0.0260 0.5335 0.4008
C67 C -0.0962(7) 0.5850(8) 0.4520(6)
H73 H -0.1139 0.6247 0.4854
H74 H -0.0826 0.5445 0.4838
C68 C -0.1801(9) 0.5350(10) 0.3833(6)
H75 H -0.2383 0.4969 0.4007
H76 H -0.1998 0.5759 0.3559
O11 O 0.6115(8) 0.9806(8) 0.7840(7)
O12 O 0.4556(9) 0.9900(8) 0.8458(8)
C69 C 0.6243(12) 1.0159(12) 0.8615(9)
H77 H 0.6457 1.0800 0.8673
H78 H 0.6799 1.0074 0.8950
C70 C 0.5358(12) 0.9798(12) 0.8922(11)
H79 H 0.5167 0.9167 0.8913
H80 H 0.5520 1.0107 0.9477
C71 C 0.4359(14) 0.9458(14) 0.7699(12)
H81 H 0.3772 0.9497 0.7357
H82 H 0.4186 0.8830 0.7693
C72 C 0.5283(13) 0.9852(14) 0.7368(11)
H83 H 0.5128 0.9525 0.6820
H84 H 0.5437 1.0473 0.7351
O13 O 0.2696(13) -0.0475(12) 0.4394(11)
O14 O 0.099(2) -0.1520(12) 0.3173(18)
C73 C 0.2291(16) -0.0073(15) 0.3846(16)
H85 H 0.2678 0.0047 0.3446
H86 H 0.2360 0.0496 0.4130
C74 C 0.1188(16) -0.0648(14) 0.343(2)
H87 H 0.0778 -0.0616 0.3798
H88 H 0.0983 -0.0416 0.2968
C75 C 0.1478(19) -0.1695(18) 0.3861(17)
H89 H 0.1246 -0.2337 0.3809
H90 H 0.1314 -0.1465 0.4330
C76 C 0.257(2) -0.1274(14) 0.397(2)
H91 H 0.2928 -0.1561 0.4277
H92 H 0.2748 -0.1224 0.3457
O15 O 0.867(2) 0.8666(19) 0.5746(15)
O16 O 0.9581(16) 0.8222(15) 0.4646(12)
C77 C 0.835(4) 0.873(2) 0.4949(17)
H93 H 0.8729 0.9327 0.4873
H94 H 0.7619 0.8583 0.4801
C78 C 0.8555(19) 0.809(2) 0.448(2)
H95 H 0.8150 0.7500 0.4571
H96 H 0.8317 0.8082 0.3917
C79 C 0.992(3) 0.832(2) 0.5489(14)
H97 H 1.0653 0.8471 0.5655
H98 H 0.9552 0.7765 0.5653
C80 C 0.971(2) 0.9029(19) 0.584(2)
H99 H 1.0083 0.9256 0.6403
H100 H 0.9911 0.9519 0.5555
O17 O 0.9695(18) 0.9175(12) 0.4611(14)
H101? H 0.7193 0.8494 1.1676
H102? H 0.6644 0.9147 1.1631
C81? C 0.823(4) 0.984(5) 1.219(3)
H103? H 0.8308 1.0430 1.2110
H104? H 0.8856 0.9775 1.2159
C82? C 0.794(6) 0.964(5) 1.298(4)
H105? H 0.8483 1.0059 1.3438
H106? H 0.7835 0.9042 1.3020
H107? H 0.7316 0.9707 1.2982
O18? O 0.3037(12) -0.0531(12) 0.4207(12)
O19? O 0.1086(19) -0.1322(12) 0.318(2)
C83? C 0.2554(17) -0.0245(18) 0.3597(17)
H108? H 0.2606 -0.0509 0.3086
H109? H 0.2932 0.0400 0.3680
C84? C 0.1483(16) -0.0449(15) 0.352(2)
H110? H 0.1348 -0.0347 0.4042
H111? H 0.1242 -0.0115 0.3171
C85? C 0.1436(19) -0.1874(15) 0.3562(17)
H112? H 0.1341 -0.2374 0.3154
H113? H 0.1009 -0.2116 0.3917
C86? C 0.251(2) -0.1450(14) 0.404(2)
H114? H 0.2540 -0.1639 0.4550
H115? H 0.2887 -0.1693 0.3756
O20? O 0.874(2) 0.8896(18) 0.5776(15)
O21? O 0.9166(16) 0.7906(16) 0.4706(12)
C87? C 0.826(3) 0.851(2) 0.4931(16)
H116? H 0.7585 0.8497 0.4849
H117? H 0.8632 0.8967 0.4665
C88? C 0.8083(16) 0.7689(16) 0.4420(14)
H118? H 0.7857 0.7667 0.3847
H119? H 0.7635 0.7154 0.4567
C89? C 0.948(2) 0.7997(19) 0.5592(13)
H120? H 0.8945 0.7528 0.5744
H121? H 1.0099 0.7901 0.5729
C90? C 0.968(2) 0.8839(19) 0.6062(18)
H122? H 0.9819 0.8842 0.6636
H123? H 1.0246 0.9326 0.5961
loop_
_geom_bond_atom_site_label_1
_geom_bond_atom_site_label_2
_geom_bond_site_symmetry_1
_geom_bond_site_symmetry_2
I1 C15 1_555 1_555
I2 C31 1_555 1_555
I3 C47 1_555 1_555
I4 C63 1_555 1_555
O1 C2 1_555 1_555
O2 C4 1_555 1_555
O3 C16 1_555 1_555
O4 C20 1_555 1_555
O5 C32 1_555 1_555
O6 C36 1_555 1_555
O7 C48 1_555 1_555
O8 C52 1_555 1_555
C1 C2 1_555 1_555
C2 C3 1_555 1_555
C3 C4 1_555 1_555
C4 C5 1_555 1_555
C5 C6 1_555 1_555
C6 C1 1_555 1_555
H1 C6 1_555 1_555
C7 C5 1_555 1_555
H2 C7 1_555 1_555
C8 C7 1_555 1_555
H3 C8 1_555 1_555
H4 C8 1_555 1_555
C9 C8 1_555 1_555
H5 C9 1_555 1_555
H6 C9 1_555 1_555
C10 C9 1_555 1_555
H7 C10 1_555 1_555
H8 C10 1_555 1_555
C11 C10 1_555 1_555
H9 C11 1_555 1_555
H10 C11 1_555 1_555
C12 C11 1_555 1_555
H11 C12 1_555 1_555
H12 C12 1_555 1_555
C13 C12 1_555 1_555
H13 C13 1_555 1_555
H14 C13 1_555 1_555
H15 C13 1_555 1_555
C14 C3 1_555 1_555
C15 C14 1_555 1_555
C16 O2 1_555 1_555
H16 C16 1_555 1_555
H17 C16 1_555 1_555
C17 C7 1_555 1_555
C18 O3 1_555 1_555
C19 C18 1_555 1_555
C20 C19 1_555 1_555
C21 C20 1_555 1_555
C22 C17 1_555 1_555
H18 C22 1_555 1_555
C23 C21 1_555 1_555
H19 C23 1_555 1_555
C24 C23 1_555 1_555
H20 C24 1_555 1_555
H21 C24 1_555 1_555
C25 C24 1_555 1_555
H22 C25 1_555 1_555
H23 C25 1_555 1_555
C26 C25 1_555 1_555
H24 C26 1_555 1_555
H25 C26 1_555 1_555
C27 C26 1_555 1_555
H26 C27 1_555 1_555
H27 C27 1_555 1_555
C28 C27 1_555 1_555
H28 C28 1_555 1_555
H29 C28 1_555 1_555
C29 C28 1_555 1_555
H30 C29 1_555 1_555
H31 C29 1_555 1_555
H32 C29 1_555 1_555
C30 C19 1_555 1_555
C31 C30 1_555 1_555
C32 O4 1_555 1_555
H33 C32 1_555 1_555
H34 C32 1_555 1_555
C33 C23 1_555 1_555
C34 O5 1_555 1_555
C35 C34 1_555 1_555
C36 C35 1_555 1_555
C37 C36 1_555 1_555
C38 C33 1_555 1_555
H35 C38 1_555 1_555
C39 C37 1_555 1_555
H36 C39 1_555 1_555
C40 C39 1_555 1_555
H37 C40 1_555 1_555
H38 C40 1_555 1_555
C41 C40 1_555 1_555
H39 C41 1_555 1_555
H40 C41 1_555 1_555
C42 C41 1_555 1_555
H41 C42 1_555 1_555
H42 C42 1_555 1_555
C43 C42 1_555 1_555
H43 C43 1_555 1_555
H44 C43 1_555 1_555
C44 C43 1_555 1_555
H45 C44 1_555 1_555
H46 C44 1_555 1_555
C45 C44 1_555 1_555
H47 C45 1_555 1_555
H48 C45 1_555 1_555
H49 C45 1_555 1_555
C46 C35 1_555 1_555
C47 C46 1_555 1_555
C48 O6 1_555 1_555
H50 C48 1_555 1_555
H51 C48 1_555 1_555
C49 C39 1_555 1_555
C50 O7 1_555 1_555
C51 C50 1_555 1_555
C52 C51 1_555 1_555
C53 C52 1_555 1_555
C54 C49 1_555 1_555
H52 C54 1_555 1_555
C55 C1 1_555 1_555
H53 C55 1_555 1_555
C56 C55 1_555 1_555
H54 C56 1_555 1_555
H55 C56 1_555 1_555
C57 C56 1_555 1_555
H56 C57 1_555 1_555
H57 C57 1_555 1_555
C58 C57 1_555 1_555
H58 C58 1_555 1_555
H59 C58 1_555 1_555
C59 C58 1_555 1_555
H60 C59 1_555 1_555
H61 C59 1_555 1_555
C60 C59 1_555 1_555
H62 C60 1_555 1_555
H63 C60 1_555 1_555
C61 C60 1_555 1_555
H64 C61 1_555 1_555
H65 C61 1_555 1_555
H66 C61 1_555 1_555
C62 C51 1_555 1_555
C63 C62 1_555 1_555
C64 O1 1_555 1_555
H67 C64 1_555 1_555
H68 C64 1_555 1_555
O9 C65 1_555 1_555
O10 C66 1_555 1_555
C65 H69 1_555 1_555
H70 C65 1_555 1_555
C66 C65 1_555 1_555
H71 C66 1_555 1_555
H72 C66 1_555 1_555
C67 O10 1_555 1_555
H73 C67 1_555 1_555
H74 C67 1_555 1_555
C68 O9 1_555 1_555
H75 C68 1_555 1_555
H76 C68 1_555 1_555
O11 C69 1_555 1_555
O12 C70 1_555 1_555
C69 H77 1_555 1_555
H78 C69 1_555 1_555
C70 C69 1_555 1_555
H79 C70 1_555 1_555
H80 C70 1_555 1_555
C71 O12 1_555 1_555
H81 C71 1_555 1_555
H82 C71 1_555 1_555
C72 O11 1_555 1_555
H83 C72 1_555 1_555
H84 C72 1_555 1_555
O13 C73 1_555 1_555
O14 C74 1_555 1_555
C73 H85 1_555 1_555
H86 C73 1_555 1_555
C74 C73 1_555 1_555
H87 C74 1_555 1_555
H88 C74 1_555 1_555
C75 O14 1_555 1_555
H89 C75 1_555 1_555
H90 C75 1_555 1_555
C76 O13 1_555 1_555
H91 C76 1_555 1_555
H92 C76 1_555 1_555
O15 C77 1_555 1_555
O16 C78 1_555 1_555
C77 H93 1_555 1_555
H94 C77 1_555 1_555
C78 C77 1_555 1_555
H95 C78 1_555 1_555
H96 C78 1_555 1_555
C79 O16 1_555 1_555
H97 C79 1_555 1_555
H98 C79 1_555 1_555
C80 O15 1_555 1_555
H99 C80 1_555 1_555
H100 C80 1_555 1_555
O8 C64 1_555 1_555
C17 C18 1_555 1_555
C21 C22 1_555 1_555
C33 C34 1_555 1_555
C37 C38 1_555 1_555
C49 C50 1_555 1_555
C53 C54 1_555 1_555
C53 C55 1_555 1_555
C67 C68 1_555 1_555
C71 C72 1_555 1_555
C75 C76 1_555 1_555
C79 C80 1_555 1_555

#END
