
#######################################################################
#
#                 Cambridge Crystallographic Data Centre
#                                CCDC 
#
#######################################################################
#
# If this CIF has been generated from an entry in the Cambridge 
# Structural Database, then it will include bibliographic, chemical, 
# crystal, experimental, refinement or atomic coordinate data resulting 
# from the CCDC's data processing and validation procedures.
#
#######################################################################

data_FORDEX
_chemical_formula_moiety         
'C68 H76 I4 O8,2(C12 H28 N1 1+),2(C3 H6 O1),H2 O1,2(Br1 1-),C1 H1 Cl3'
_chemical_name_systematic        
'bis(tetra-n-propylammonium) dibromide 29,33,37,41-tetrahexyl-7,14,21,43-tetrakis(iodoethynyl)-2,5,9,12,16,19,23,26-octaoxanonacyclo[25.15.1.1^28,42^.0^6,40^.0^8,38^.0^13,36^.0^15,34^.0^20,32^.0^22,30^]tetratetraconta-1(43),6(40),7,13(36),14,20(32),21,27,30,34,38,42(44)-dodecaene acetone chloroform solvate monohydrate'
_symmetry_cell_setting           monoclinic
_symmetry_space_group_name_H-M   'P 21/c'
_symmetry_Int_Tables_number      14
_space_group_name_Hall           '-P 2ybc'
loop_
_symmetry_equiv_pos_site_id
_symmetry_equiv_pos_as_xyz
1 x,y,z
2 -x,1/2+y,1/2-z
3 -x,-y,-z
4 x,1/2-y,1/2+z
_cell_length_a                   24.4168(7)
_cell_length_b                   24.5753(13)
_cell_length_c                   19.1408(6)
_cell_angle_alpha                90
_cell_angle_beta                 106.621(3)
_cell_angle_gamma                90
_cell_volume                     11005.6
_exptl_crystal_colour            colorless
_exptl_crystal_description       block
_cell_formula_units_Z            4
loop_
_atom_site_label
_atom_site_type_symbol
_atom_site_fract_x
_atom_site_fract_y
_atom_site_fract_z
I1 I 0.35986(2) 0.85812(2) 0.62300(2)
I2 I 1.12749(2) 0.85773(2) 0.87710(2)
I3 I 0.74949(2) 0.98220(2) 1.03082(2)
I4 I 0.74300(2) 0.97959(2) 0.48118(2)
O1 O 0.63649(16) 0.79822(18) 0.5245(2)
O2 O 0.95278(16) 0.76832(18) 0.9589(2)
O3 O 0.53909(16) 0.77399(19) 0.8082(2)
O4 O 0.64537(16) 0.80627(18) 0.9121(2)
O5 O 0.84963(16) 0.80073(18) 0.9904(2)
O6 O 0.53337(16) 0.76412(18) 0.5551(2)
O7 O 0.94705(16) 0.77574(18) 0.7061(2)
C1 C 0.8525(2) 0.7018(2) 0.6642(3)
H1 H 0.8771 0.7161 0.6360
C2 C 0.6351(2) 0.7013(3) 0.8510(3)
H2 H 0.6102 0.7150 0.8792
C3 C 0.7421(2) 0.7006(2) 0.6279(3)
H3 H 0.7432 0.6663 0.6489
C4 C 1.0034(2) 0.8019(3) 0.8501(3)
C5 C 0.7490(3) 0.9059(3) 0.9885(3)
C6 C 0.7983(2) 0.7253(2) 0.9221(3)
C7 C 0.8815(2) 0.7170(2) 0.8717(3)
C8 C 0.6891(2) 0.7237(2) 0.5933(3)
C9 C 0.6352(3) 0.6390(3) 0.8574(3)
H4 H 0.6540 0.6236 0.8236
H5 H 0.6570 0.6286 0.9063
C10 C 0.5116(4) 0.4713(5) 0.8401(8)
H6 H 0.5364 0.4577 0.8858
H7 H 0.5256 0.4574 0.8010
C11 C 1.0484(3) 0.8252(3) 0.8613(3)
C12 C 0.6060(2) 0.7154(2) 0.6434(3)
C13 C 0.5614(2) 0.7539(2) 0.7548(3)
C14 C 0.6084(2) 0.7191(2) 0.7733(3)
C15 C 0.6297(2) 0.7005(2) 0.7173(3)
H8 H 0.6610 0.6772 0.7292
C16 C 0.7385(2) 0.8054(3) 0.5715(3)
C17 C 0.4389(3) 0.8236(3) 0.6486(3)
C18 C 0.7476(2) 0.8062(3) 0.9440(3)
C19 C 0.6200(3) 0.8383(3) 0.8489(3)
H9 H 0.6349 0.8275 0.8092
H10 H 0.6287 0.8765 0.8593
C20 C 0.7372(2) 0.8596(3) 0.5454(3)
C21 C 0.7985(2) 0.7776(2) 0.9501(3)
C22 C 0.6934(2) 0.7274(2) 0.8837(3)
C23 C 0.7453(2) 0.7011(2) 0.8883(3)
H11 H 0.7445 0.6665 0.8683
C24 C 0.6956(2) 0.7798(3) 0.9108(3)
C25 C 0.8792(2) 0.7199(3) 0.7427(3)
C26 C 0.9281(2) 0.7524(2) 0.8877(3)
C27 C 0.5585(2) 0.7493(3) 0.6267(3)
C28 C 0.6323(2) 0.6950(2) 0.5851(3)
H12 H 0.6065 0.7061 0.5379
C29 C 0.8583(2) 0.7011(2) 0.7987(3)
H13 H 0.8277 0.6770 0.7874
C30 C 0.9255(2) 0.7554(3) 0.7600(3)
C31 C 0.8773(3) 0.8361(3) 0.9515(3)
H14 H 0.8715 0.8738 0.9628
H15 H 0.8612 0.8308 0.8994
C32 C 0.7373(3) 0.9048(3) 0.5255(4)
C33 C 0.7483(2) 0.8612(3) 0.9694(3)
C34 C 0.5805(3) 0.5449(3) 0.5480(4)
H16 H 0.6151 0.5277 0.5778
H17 H 0.5482 0.5256 0.5561
C35 C 0.6078(3) 0.8336(3) 0.5624(3)
H18 H 0.6133 0.8712 0.5508
H19 H 0.6231 0.8286 0.6146
C36 C 0.5748(3) 0.6158(3) 0.8410(4)
H20 H 0.5559 0.6322 0.8740
H21 H 0.5535 0.6258 0.7917
C37 C 0.6877(2) 0.7761(2) 0.5649(3)
C38 C 0.6365(2) 0.6326(2) 0.5838(3)
H22 H 0.6530 0.6221 0.5454
H23 H 0.6622 0.6204 0.6297
C39 C 0.7940(2) 0.7273(3) 0.6322(3)
C40 C 0.9404(2) 0.8230(3) 0.9738(3)
H24 H 0.9595 0.8474 0.9484
H25 H 0.9560 0.8297 1.0257
C41 C 0.5449(2) 0.8196(3) 0.5386(3)
H26 H 0.5248 0.8441 0.5625
H27 H 0.5301 0.8254 0.4864
C42 C 0.9520(2) 0.7707(3) 0.8331(3)
C43 C 0.5345(2) 0.7687(3) 0.6818(3)
C44 C 0.5791(3) 0.6040(3) 0.5716(4)
H28 H 0.5681 0.6052 0.6164
H29 H 0.5504 0.6234 0.5346
C45 C 0.4830(2) 0.8000(3) 0.6629(3)
C46 C 0.5140(3) 0.5334(3) 0.8401(6)
H30 H 0.4885 0.5469 0.7948
H31 H 0.5005 0.5471 0.8798
C47 C 0.5734(3) 0.5547(3) 0.8484(5)
H32 H 0.5883 0.5381 0.8117
H33 H 0.5981 0.5442 0.8959
O8 O 0.84014(17) 0.80647(19) 0.6030(2)
C48 C 0.7909(2) 0.7797(2) 0.6039(3)
C49 C 0.8656(2) 0.8391(3) 0.6664(3)
H34 H 0.8510 0.8280 0.7064
H35 H 0.8563 0.8771 0.6559
C50 C 0.8553(2) 0.6974(2) 0.9302(3)
H36 H 0.8810 0.7092 0.9771
C51 C 0.9294(2) 0.8310(3) 0.6868(3)
H37 H 0.9431 0.8421 0.6462
H38 H 0.9472 0.8545 0.7278
C52 C 0.5562(3) 0.8296(3) 0.8280(3)
H39 H 0.5422 0.8402 0.8686
H40 H 0.5383 0.8531 0.7872
C53 C 0.8537(2) 0.6396(3) 0.6574(3)
H41 H 0.8365 0.6232 0.6922
H42 H 0.8313 0.6289 0.6089
C54 C 0.9148(3) 0.6185(3) 0.6714(4)
H43 H 0.9339 0.6399 0.6426
H44 H 0.9351 0.6242 0.7224
C55 C 0.9188(3) 0.5593(3) 0.6534(5)
H45 H 0.8939 0.5522 0.6049
H46 H 0.9056 0.5374 0.6875
C56 C 0.8518(2) 0.6350(3) 0.9334(3)
H47 H 0.8335 0.6249 0.9704
H48 H 0.8280 0.6217 0.8869
C57 C 0.9120(3) 0.5497(3) 0.9778(4)
H49 H 0.9478 0.5329 0.9771
H50 H 0.8812 0.5293 0.9450
C58 C 0.9106(3) 0.6074(3) 0.9508(4)
H51 H 0.9232 0.6076 0.9071
H52 H 0.9376 0.6289 0.9874
C59 C 0.9060(3) 0.5464(3) 1.0548(4)
H53 H 0.9373 0.5663 1.0875
H54 H 0.8707 0.5642 1.0555
C60 C 0.9057(4) 0.4888(3) 1.0830(4)
H55 H 0.9424 0.4718 1.0868
H56 H 0.8765 0.4678 1.0486
C61 C 0.5785(3) 0.5400(3) 0.4681(4)
H57 H 0.5433 0.5564 0.4386
H58 H 0.6101 0.5605 0.4600
C62 C 0.5817(4) 0.4821(4) 0.4426(5)
H59 H 0.5511 0.4610 0.4523
H60 H 0.6177 0.4661 0.4701
C63 C 0.9866(4) 0.4833(4) 0.6389(7)
H61 H 0.9788 0.4609 0.6768
H62 H 0.9581 0.4745 0.5935
C64 C 0.9795(3) 0.5423(4) 0.6567(6)
H63 H 0.9926 0.5648 0.6230
H64 H 1.0042 0.5497 0.7054
C65 C 0.4502(5) 0.4498(5) 0.8301(9)
H65 H 0.4240 0.4695 0.7914
H66 H 0.4401 0.4548 0.8745
H67 H 0.4486 0.4118 0.8180
C66 C 0.8944(5) 0.4876(4) 1.1580(5)
H68 H 0.8578 0.5037 1.1542
H69 H 0.9237 0.5078 1.1924
H70 H 0.8946 0.4506 1.1742
C67 C 1.0442(6) 0.4685(6) 0.6321(9)
H71 H 1.0562 0.4954 0.6031
H72 H 1.0422 0.4336 0.6090
H73 H 1.0712 0.4670 0.6796
C68 C 0.5768(7) 0.4792(6) 0.3621(6)
H74 H 0.5437 0.4990 0.3350
H75 H 0.5734 0.4419 0.3467
H76 H 0.6104 0.4948 0.3535
Cl1 Cl 0.74624(10) 0.82486(11) 0.75880(12)
Cl2 Cl 0.80891(14) 0.92543(14) 0.78759(18)
Cl3 Cl 0.68526(15) 0.92480(17) 0.7330(2)
C69 C 0.7458(5) 0.8919(4) 0.7888(10)
H77 H 0.7432 0.8915 0.8389
Br1 Br 0.74476(3) 1.10039(3) 1.09398(6)
O9 O 0.7566(3) 0.3409(3) 0.7568(3)
H79 H 0.760(4) 0.365(2) 0.789(3)
H80 H 0.748(5) 0.363(4) 0.722(4)
Br2 Br 0.23513(3) 0.90763(3) 0.58482(5)
O10 O 0.7453(2) 0.5943(2) 0.7582(3)
C71 C 0.7475(3) 0.5452(3) 0.7574(3)
C72 C 0.6946(3) 0.5110(3) 0.7405(4)
H81 H 0.6946 0.4895 0.7824
H82 H 0.6936 0.4874 0.7002
H83 H 0.6615 0.5341 0.7280
C73 C 0.8031(3) 0.5147(3) 0.7734(4)
H84 H 0.8057 0.4968 0.7299
H85 H 0.8047 0.4881 0.8107
H86 H 0.8343 0.5398 0.7897
N1 N 1.1042(2) 0.7065(3) 1.0939(3)
C74 C 1.1109(3) 0.6548(3) 1.1371(4)
H87 H 1.1375 0.6614 1.1847
H88 H 1.1279 0.6276 1.1130
C75 C 1.0757(3) 0.7513(3) 1.1260(4)
H89 H 1.0702 0.7827 1.0939
H90 H 1.0382 0.7387 1.1264
C76 C 1.1648(3) 0.7222(3) 1.0943(4)
H91 H 1.1874 0.7275 1.1445
H92 H 1.1815 0.6918 1.0751
C77 C 1.0662(3) 0.6979(3) 1.0162(4)
H93 H 1.0275 0.6912 1.0182
H94 H 1.0656 0.7314 0.9893
C78 C 1.0672(3) 0.5729(3) 1.1765(4)
H95 H 1.0749 0.5502 1.1396
H96 H 1.0342 0.5594 1.1888
H97 H 1.0995 0.5725 1.2192
C79 C 1.1079(4) 0.7696(4) 1.2025(5)
H98 H 1.1123 0.7392 1.2360
H99 H 1.1457 0.7823 1.2034
C80 C 1.1702(4) 0.7723(4) 1.0517(5)
H100 H 1.1549 0.8035 1.0709
H101 H 1.1486 0.7677 1.0010
C81 C 1.0559(3) 0.6312(4) 1.1478(5)
H102 H 1.0433 0.6533 1.1823
H103 H 1.0260 0.6313 1.1019
C82 C 1.0826(4) 0.6528(4) 0.9742(4)
H104 H 1.0765 0.6181 0.9949
H105 H 1.1229 0.6557 0.9773
C83 C 1.0473(4) 0.6554(4) 0.8952(5)
H106 H 1.0581 0.6262 0.8686
H107 H 1.0538 0.6896 0.8746
H108 H 1.0075 0.6521 0.8923
C84 C 1.2330(4) 0.7817(4) 1.0577(6)
H109 H 1.2366 0.8124 1.0284
H110 H 1.2484 0.7500 1.0410
H111 H 1.2537 0.7887 1.1077
C85 C 1.0753(4) 0.8146(5) 1.2257(6)
H112 H 1.0708 0.8444 1.1922
H113 H 1.0960 0.8267 1.2737
H114 H 1.0384 0.8015 1.2261
N2 N 0.3652(3) 0.7408(3) 0.3889(4)
C86 C 0.3673(3) 0.6839(3) 0.3593(4)
H115 H 0.3515 0.6591 0.3879
H116 H 0.3422 0.6830 0.3098
C87 C 0.4205(3) 0.6019(4) 0.3402(5)
H117 H 0.3926 0.5962 0.2940
H118 H 0.4091 0.5825 0.3774
H119 H 0.4570 0.5888 0.3382
C88 C 0.4246(3) 0.6621(4) 0.3580(5)
H120 H 0.4522 0.6678 0.4051
H121 H 0.4377 0.6815 0.3217
C89 C 0.3021(3) 0.7532(4) 0.3755(4)
H122 H 0.2840 0.7531 0.3233
H123 H 0.2851 0.7239 0.3963
C90 C 0.3952(4) 0.7800(4) 0.3517(6)
H124 H 0.3950 0.8156 0.3735
H125 H 0.4348 0.7688 0.3621
C91 C 0.3966(4) 0.7450(5) 0.4684(4)
H126 H 0.3934 0.7821 0.4842
H127 H 0.4368 0.7377 0.4747
C92 C 0.3751(5) 0.7060(5) 0.5181(6)
H128 H 0.3696 0.7263 0.5590
H129 H 0.3384 0.6911 0.4909
C93 C 0.4158(6) 0.6606(5) 0.5459(9)
H130 H 0.4070 0.6308 0.5122
H131 H 0.4126 0.6490 0.5924
H132 H 0.4541 0.6729 0.5511
C94 C 0.3711(5) 0.7858(5) 0.2705(6)
H133 H 0.3332 0.8016 0.2593
H134 H 0.3678 0.7501 0.2480
C95 C 0.2882(4) 0.8064(4) 0.4061(5)
H135 H 0.3071 0.8361 0.3890
H136 H 0.3019 0.8056 0.4590
C96 C 0.4096(6) 0.8219(6) 0.2393(8)
H137 H 0.3926 0.8263 0.1878
H138 H 0.4464 0.8052 0.2480
H139 H 0.4137 0.8569 0.2625
C97 C 0.2229(4) 0.8155(5) 0.3816(6)
H140 H 0.2108 0.8245 0.3307
H141 H 0.2134 0.8449 0.4091
H142 H 0.2039 0.7829 0.3897
O11 O 0.7783(6) 0.3639(5) 0.3004(6)
C98 C 0.7765(8) 0.4008(5) 0.3415(8)
C99 C 0.8255(8) 0.4268(7) 0.3910(11)
H143 H 0.8587 0.4206 0.3747
H144 H 0.8318 0.4119 0.4390
H145 H 0.8186 0.4652 0.3922
C100 C 0.7221(6) 0.4225(7) 0.3472(9)
H146 H 0.7147 0.4086 0.3905
H147 H 0.6919 0.4118 0.3052
H148 H 0.7242 0.4615 0.3498
C70? C 0.7487(5) 0.8922(5) 0.7323(13)
H78? H 0.7514 0.8925 0.6822
O12? O 0.6235(13) 0.4130(10) 1.1383(17)
C101? C 0.6464(12) 0.4468(10) 1.1087(14)
C102? C 0.6103(14) 0.4732(13) 1.0422(15)
H149? H 0.5814 0.4482 1.0163
H150? H 0.6336 0.4837 1.0116
H151? H 0.5925 0.5049 1.0554
C103? C 0.7072(15) 0.4507(19) 1.1445(19)
H152? H 0.7156 0.4855 1.1680
H153? H 0.7278 0.4470 1.1089
H154? H 0.7184 0.4224 1.1802
loop_
_geom_bond_atom_site_label_1
_geom_bond_atom_site_label_2
_geom_bond_site_symmetry_1
_geom_bond_site_symmetry_2
I1 C17 1_555 1_555
I2 C11 1_555 1_555
I3 C5 1_555 1_555
I4 C32 1_555 1_555
O1 C35 1_555 1_555
O2 C26 1_555 1_555
O3 C13 1_555 1_555
O4 C19 1_555 1_555
O5 C21 1_555 1_555
O6 C27 1_555 1_555
O7 C30 1_555 1_555
C1 H1 1_555 1_555
C2 H2 1_555 1_555
C3 H3 1_555 1_555
C4 C11 1_555 1_555
C5 C33 1_555 1_555
C6 C21 1_555 1_555
C7 C26 1_555 1_555
C8 C3 1_555 1_555
C9 C2 1_555 1_555
H4 C9 1_555 1_555
H5 C9 1_555 1_555
C10 H6 1_555 1_555
H7 C10 1_555 1_555
C12 C15 1_555 1_555
C13 C14 1_555 1_555
C14 C2 1_555 1_555
C15 C14 1_555 1_555
H8 C15 1_555 1_555
C16 C20 1_555 1_555
C17 C45 1_555 1_555
C18 C21 1_555 1_555
C19 H9 1_555 1_555
H10 C19 1_555 1_555
C20 C32 1_555 1_555
C22 C2 1_555 1_555
C23 C6 1_555 1_555
H11 C23 1_555 1_555
C24 O4 1_555 1_555
C25 C1 1_555 1_555
C26 C42 1_555 1_555
C27 C12 1_555 1_555
C28 C8 1_555 1_555
H12 C28 1_555 1_555
C29 C7 1_555 1_555
H13 C29 1_555 1_555
C30 C25 1_555 1_555
C31 O5 1_555 1_555
H14 C31 1_555 1_555
H15 C31 1_555 1_555
C33 C18 1_555 1_555
C34 H16 1_555 1_555
H17 C34 1_555 1_555
C35 H18 1_555 1_555
H19 C35 1_555 1_555
C36 C9 1_555 1_555
H20 C36 1_555 1_555
H21 C36 1_555 1_555
C37 O1 1_555 1_555
C38 C28 1_555 1_555
H22 C38 1_555 1_555
H23 C38 1_555 1_555
C39 C1 1_555 1_555
C40 O2 1_555 1_555
H24 C40 1_555 1_555
H25 C40 1_555 1_555
C41 O6 1_555 1_555
H26 C41 1_555 1_555
H27 C41 1_555 1_555
C42 C4 1_555 1_555
C43 C13 1_555 1_555
C44 C34 1_555 1_555
H28 C44 1_555 1_555
H29 C44 1_555 1_555
C45 C43 1_555 1_555
C46 C10 1_555 1_555
H30 C46 1_555 1_555
H31 C46 1_555 1_555
C47 C36 1_555 1_555
H32 C47 1_555 1_555
H33 C47 1_555 1_555
O8 C48 1_555 1_555
C48 C16 1_555 1_555
C49 O8 1_555 1_555
H34 C49 1_555 1_555
H35 C49 1_555 1_555
C50 C6 1_555 1_555
H36 C50 1_555 1_555
C51 O7 1_555 1_555
H37 C51 1_555 1_555
H38 C51 1_555 1_555
C52 O3 1_555 1_555
H39 C52 1_555 1_555
H40 C52 1_555 1_555
C53 C1 1_555 1_555
H41 C53 1_555 1_555
H42 C53 1_555 1_555
C54 C53 1_555 1_555
H43 C54 1_555 1_555
H44 C54 1_555 1_555
C55 C54 1_555 1_555
H45 C55 1_555 1_555
H46 C55 1_555 1_555
C56 C50 1_555 1_555
H47 C56 1_555 1_555
H48 C56 1_555 1_555
C57 H49 1_555 1_555
H50 C57 1_555 1_555
C58 C56 1_555 1_555
H51 C58 1_555 1_555
H52 C58 1_555 1_555
C59 C57 1_555 1_555
H53 C59 1_555 1_555
H54 C59 1_555 1_555
C60 C59 1_555 1_555
H55 C60 1_555 1_555
H56 C60 1_555 1_555
C61 C34 1_555 1_555
H57 C61 1_555 1_555
H58 C61 1_555 1_555
C62 C61 1_555 1_555
H59 C62 1_555 1_555
H60 C62 1_555 1_555
C63 H61 1_555 1_555
H62 C63 1_555 1_555
C64 C55 1_555 1_555
H63 C64 1_555 1_555
H64 C64 1_555 1_555
C65 C10 1_555 1_555
H65 C65 1_555 1_555
H66 C65 1_555 1_555
H67 C65 1_555 1_555
C66 C60 1_555 1_555
H68 C66 1_555 1_555
H69 C66 1_555 1_555
H70 C66 1_555 1_555
C67 C63 1_555 1_555
H71 C67 1_555 1_555
H72 C67 1_555 1_555
H73 C67 1_555 1_555
C68 C62 1_555 1_555
H74 C68 1_555 1_555
H75 C68 1_555 1_555
H76 C68 1_555 1_555
Cl1 C69 1_555 1_555
Cl2 C69 1_555 1_555
Cl3 C69 1_555 1_555
C69 H77 1_555 1_555
O9 H79 1_555 1_555
H80 O9 1_555 1_555
O10 C71 1_555 1_555
C71 C72 1_555 1_555
C72 H81 1_555 1_555
H82 C72 1_555 1_555
H83 C72 1_555 1_555
C73 C71 1_555 1_555
H84 C73 1_555 1_555
H85 C73 1_555 1_555
H86 C73 1_555 1_555
N1 C74 1_555 1_555
C74 H87 1_555 1_555
H88 C74 1_555 1_555
C75 N1 1_555 1_555
H89 C75 1_555 1_555
H90 C75 1_555 1_555
C76 N1 1_555 1_555
H91 C76 1_555 1_555
H92 C76 1_555 1_555
C77 N1 1_555 1_555
H93 C77 1_555 1_555
H94 C77 1_555 1_555
C78 H95 1_555 1_555
H96 C78 1_555 1_555
H97 C78 1_555 1_555
C79 C75 1_555 1_555
H98 C79 1_555 1_555
H99 C79 1_555 1_555
C80 C76 1_555 1_555
H100 C80 1_555 1_555
H101 C80 1_555 1_555
C81 C74 1_555 1_555
H102 C81 1_555 1_555
H103 C81 1_555 1_555
C82 C77 1_555 1_555
H104 C82 1_555 1_555
H105 C82 1_555 1_555
C83 C82 1_555 1_555
H106 C83 1_555 1_555
H107 C83 1_555 1_555
H108 C83 1_555 1_555
C84 C80 1_555 1_555
H109 C84 1_555 1_555
H110 C84 1_555 1_555
H111 C84 1_555 1_555
C85 C79 1_555 1_555
H112 C85 1_555 1_555
H113 C85 1_555 1_555
H114 C85 1_555 1_555
N2 C86 1_555 1_555
C86 H115 1_555 1_555
H116 C86 1_555 1_555
C87 H117 1_555 1_555
H118 C87 1_555 1_555
H119 C87 1_555 1_555
C88 C86 1_555 1_555
H120 C88 1_555 1_555
H121 C88 1_555 1_555
C89 N2 1_555 1_555
H122 C89 1_555 1_555
H123 C89 1_555 1_555
C90 N2 1_555 1_555
H124 C90 1_555 1_555
H125 C90 1_555 1_555
C91 N2 1_555 1_555
H126 C91 1_555 1_555
H127 C91 1_555 1_555
C92 C91 1_555 1_555
H128 C92 1_555 1_555
H129 C92 1_555 1_555
C93 C92 1_555 1_555
H130 C93 1_555 1_555
H131 C93 1_555 1_555
H132 C93 1_555 1_555
C94 C90 1_555 1_555
H133 C94 1_555 1_555
H134 C94 1_555 1_555
C95 C89 1_555 1_555
H135 C95 1_555 1_555
H136 C95 1_555 1_555
C96 C94 1_555 1_555
H137 C96 1_555 1_555
H138 C96 1_555 1_555
H139 C96 1_555 1_555
C97 C95 1_555 1_555
H140 C97 1_555 1_555
H141 C97 1_555 1_555
H142 C97 1_555 1_555
O11 C98 1_555 1_555
C98 C99 1_555 1_555
C99 H143 1_555 1_555
H144 C99 1_555 1_555
H145 C99 1_555 1_555
C100 C98 1_555 1_555
H146 C100 1_555 1_555
H147 C100 1_555 1_555
H148 C100 1_555 1_555
C3 C39 1_555 1_555
C7 C50 1_555 1_555
C8 C37 1_555 1_555
C12 C28 1_555 1_555
C16 C37 1_555 1_555
C18 C24 1_555 1_555
C19 C52 1_555 1_555
C22 C23 1_555 1_555
C22 C24 1_555 1_555
C25 C29 1_555 1_555
C27 C43 1_555 1_555
C30 C42 1_555 1_555
C31 C40 1_555 1_555
C35 C41 1_555 1_555
C38 C44 1_555 1_555
C39 C48 1_555 1_555
C46 C47 1_555 1_555
C49 C51 1_555 1_555
C57 C58 1_555 1_555
C63 C64 1_555 1_555
C78 C81 1_555 1_555
C87 C88 1_555 1_555

#END
