
#######################################################################
#
#                 Cambridge Crystallographic Data Centre
#                                CCDC 
#
#######################################################################
#
# If this CIF has been generated from an entry in the Cambridge 
# Structural Database, then it will include bibliographic, chemical, 
# crystal, experimental, refinement or atomic coordinate data resulting 
# from the CCDC's data processing and validation procedures.
#
#######################################################################

data_FOSMAD
_chemical_formula_moiety         'C12 H14 O3'
_chemical_name_systematic        
5a-methyl-3a,4,5,5a,8a,8b-hexahydro-2H-indeno[5,4-b]furan-2,8(1H)-dione
_symmetry_cell_setting           monoclinic
_symmetry_space_group_name_H-M   'P 21/c'
_symmetry_Int_Tables_number      14
_space_group_name_Hall           '-P 2ybc'
loop_
_symmetry_equiv_pos_site_id
_symmetry_equiv_pos_as_xyz
1 x,y,z
2 -x,1/2+y,1/2-z
3 -x,-y,-z
4 x,1/2-y,1/2+z
_cell_length_a                   10.1115(2)
_cell_length_b                   9.6680(2)
_cell_length_c                   10.4467(7)
_cell_angle_alpha                90
_cell_angle_beta                 100.429(7)
_cell_angle_gamma                90
_cell_volume                     1004.38
_exptl_crystal_colour            colorless
_exptl_crystal_description       block
_cell_formula_units_Z            4
loop_
_atom_site_label
_atom_site_type_symbol
_atom_site_fract_x
_atom_site_fract_y
_atom_site_fract_z
O1 O 0.64435(10) 0.95476(14) 0.67517(11)
O2 O 0.01702(11) 1.16029(12) 0.55481(11)
O3 O 0.43925(10) 0.87264(11) 0.60277(10)
C1 C 0.05568(16) 0.97589(17) 0.84318(16)
H1 H 0.0236 0.9254 0.9069
C2 C 0.20282(15) 1.00503(16) 0.84883(14)
C3 C 0.20272(14) 1.10168(15) 0.72995(14)
H2 H 0.2253 1.1950 0.7634
C4 C 0.30022(14) 1.06464(16) 0.63873(14)
H3 H 0.2751 1.1186 0.5586
C5 C 0.44775(16) 1.09446(17) 0.69453(16)
H4 H 0.4771 1.1782 0.6568
H5 H 0.4609 1.1056 0.7883
C6 C 0.52465(15) 0.97147(17) 0.65940(13)
C7 C 0.05619(16) 1.10389(16) 0.65901(16)
C8 C -0.02488(16) 1.02838(17) 0.73940(17)
H6 H -0.1179 1.0187 0.7208
C9 C 0.27581(16) 0.86726(17) 0.83291(15)
H7 H 0.3722 0.8808 0.8571
H8 H 0.2492 0.7984 0.8908
C10 C 0.24251(15) 0.81518(16) 0.69344(15)
H9 H 0.2797 0.7232 0.6887
H10 H 0.1457 0.8089 0.6669
C11 C 0.29861(15) 0.91045(16) 0.60139(14)
H11 H 0.2471 0.8987 0.5132
C12 C 0.26283(17) 1.07259(19) 0.97913(15)
H12 H 0.2114 1.1532 0.9920
H13 H 0.3543 1.0988 0.9785
H14 H 0.2604 1.0081 1.0485
loop_
_geom_bond_atom_site_label_1
_geom_bond_atom_site_label_2
_geom_bond_site_symmetry_1
_geom_bond_site_symmetry_2
O1 C6 1_555 1_555
O2 C7 1_555 1_555
O3 C6 1_555 1_555
C1 H1 1_555 1_555
C2 C1 1_555 1_555
C3 C2 1_555 1_555
H2 C3 1_555 1_555
C4 C3 1_555 1_555
H3 C4 1_555 1_555
C5 C4 1_555 1_555
H4 C5 1_555 1_555
H5 C5 1_555 1_555
C6 C5 1_555 1_555
C7 C3 1_555 1_555
C8 C1 1_555 1_555
H6 C8 1_555 1_555
C9 C2 1_555 1_555
H7 C9 1_555 1_555
H8 C9 1_555 1_555
C10 C9 1_555 1_555
H9 C10 1_555 1_555
H10 C10 1_555 1_555
C11 O3 1_555 1_555
H11 C11 1_555 1_555
C12 C2 1_555 1_555
H12 C12 1_555 1_555
H13 C12 1_555 1_555
H14 C12 1_555 1_555
C4 C11 1_555 1_555
C7 C8 1_555 1_555
C10 C11 1_555 1_555

#END
