
#######################################################################
#
#                 Cambridge Crystallographic Data Centre
#                                CCDC 
#
#######################################################################
#
# If this CIF has been generated from an entry in the Cambridge 
# Structural Database, then it will include bibliographic, chemical, 
# crystal, experimental, refinement or atomic coordinate data resulting 
# from the CCDC's data processing and validation procedures.
#
#######################################################################

data_FOTCEX
_chemical_formula_moiety         
'C118 H150 Li4 O12,2(C8 H18 Li1 O3),2(C1 H2 Cl2)'
_chemical_name_systematic        
'(\m~4~-5,11,17,23,29-Penta-t-butyl-31,32-dihydroxy-33,34,35-trioxycalix(5)arene)-bis(tetrahydrofuran)-tetra-lithium aqua-bis(tetrahydrofuran)-lithium dichloromethane solvate'
_symmetry_cell_setting           monoclinic
_symmetry_space_group_name_H-M   'P 21/c'
_symmetry_Int_Tables_number      14
_space_group_name_Hall           '-P 2ybc'
loop_
_symmetry_equiv_pos_site_id
_symmetry_equiv_pos_as_xyz
1 x,y,z
2 -x,1/2+y,1/2-z
3 -x,-y,-z
4 x,1/2-y,1/2+z
_cell_length_a                   17.7408(16)
_cell_length_b                   24.315(2)
_cell_length_c                   17.1428(17)
_cell_angle_alpha                90
_cell_angle_beta                 117.360(2)
_cell_angle_gamma                90
_cell_volume                     6567.63
_exptl_crystal_colour            colorless
_exptl_crystal_description       block
_cell_formula_units_Z            2
loop_
_atom_site_label
_atom_site_type_symbol
_atom_site_fract_x
_atom_site_fract_y
_atom_site_fract_z
Cl1 Cl 0.47719(14) 0.70574(9) 0.13600(14)
Cl2 Cl 0.33922(14) 0.70571(9) -0.04168(14)
C68 C 0.4211(4) 0.7440(3) 0.0403(4)
H92 H 0.4603 0.7565 0.0183
H93 H 0.3970 0.7766 0.0540
O1 O 0.6687(2) 0.57405(15) 0.7112(2)
H1 H 0.6371 0.5825 0.6594
C1 C 0.7468(4) 0.5990(3) 0.7386(4)
Li1 Li 0.5106(7) 0.4485(4) 0.4921(7)
O2 O 0.7136(3) 0.45199(16) 0.6781(3)
H2 H 0.6922 0.4373 0.6288
C2 C 0.8209(4) 0.5700(2) 0.7894(4)
Li2 Li 0.6352(6) 0.4948(4) 0.6977(6)
O3 O 0.6258(2) 0.41871(16) 0.5294(2)
C3 C 0.8977(4) 0.5952(3) 0.8109(4)
H3 H 0.9478 0.5752 0.8440
O4 O 0.5204(2) 0.49174(14) 0.5951(2)
C4 C 0.9045(4) 0.6481(3) 0.7862(4)
O5 O 0.4196(2) 0.39519(15) 0.4480(2)
C5 C 0.8293(4) 0.6779(3) 0.7410(4)
H4 H 0.8322 0.7146 0.7255
C6 C 0.7498(4) 0.6544(3) 0.7181(4)
C7 C 0.9902(5) 0.6752(4) 0.8091(5)
C8 C 1.0628(5) 0.6425(4) 0.8701(9)
H5 H 1.0576 0.6354 0.9231
H6 H 1.1149 0.6626 0.8849
H7 H 1.0640 0.6079 0.8426
O9 O 0.6366(3) 0.46442(17) 0.8068(3)
C9 C 0.9960(5) 0.7319(4) 0.8533(6)
H8 H 0.9942 0.7266 0.9085
H9 H 0.9487 0.7547 0.8147
H10 H 1.0489 0.7497 0.8642
C10 C 0.9955(6) 0.6912(4) 0.7257(7)
H11 H 0.9927 0.6583 0.6925
H12 H 1.0486 0.7101 0.7413
H13 H 0.9485 0.7152 0.6904
C11 C 0.8202(4) 0.5146(2) 0.8285(4)
H14 H 0.8547 0.5173 0.8923
H15 H 0.7618 0.5069 0.8173
C12 C 0.8509(4) 0.4663(2) 0.7977(4)
C13 C 0.9343(4) 0.4492(3) 0.8426(4)
H16 H 0.9714 0.4702 0.8911
C14 C 0.9673(4) 0.4032(3) 0.8212(4)
C15 C 0.9083(4) 0.3712(3) 0.7538(4)
H17 H 0.9269 0.3382 0.7397
C16 C 0.8223(4) 0.3854(2) 0.7055(4)
C17 C 0.7944(4) 0.4348(3) 0.7244(4)
C18 C 1.0604(4) 0.3866(3) 0.8751(4)
C19 C 1.0899(5) 0.3503(4) 0.8240(5)
H18 H 1.0558 0.3171 0.8067
H19 H 1.1490 0.3406 0.8602
H20 H 1.0840 0.3696 0.7720
C20 C 1.0706(5) 0.3590(4) 0.9584(6)
H21 H 1.0353 0.3264 0.9436
H22 H 1.0535 0.3842 0.9912
H23 H 1.1295 0.3487 0.9939
C21 C 1.1165(5) 0.4374(3) 0.9009(6)
H24 H 1.1118 0.4555 0.8485
H25 H 1.1750 0.4267 0.9376
H26 H 1.0985 0.4624 0.9332
C22 C 0.7604(4) 0.3446(2) 0.6409(3)
H27 H 0.7095 0.3442 0.6495
H28 H 0.7861 0.3080 0.6568
C23 C 0.7318(4) 0.3529(2) 0.5431(4)
C24 C 0.7691(4) 0.3214(2) 0.5014(4)
H29 H 0.8160 0.2991 0.5360
C25 C 0.7398(4) 0.3219(3) 0.4117(4)
C26 C 0.6688(4) 0.3543(2) 0.3617(4)
H30 H 0.6461 0.3541 0.3002
C27 C 0.6304(4) 0.3869(2) 0.4005(4)
C28 C 0.6640(4) 0.3863(2) 0.4921(4)
C29 C 0.7798(4) 0.2855(3) 0.3662(4)
C30 C 0.8768(6) 0.3011(5) 0.4112(7)
H31 H 0.8858 0.3340 0.4465
H32 H 0.8945 0.3080 0.3663
H33 H 0.9098 0.2711 0.4484
C31 C 0.7785(8) 0.2256(4) 0.3907(8)
H34 H 0.8269 0.2183 0.4471
H35 H 0.7815 0.2022 0.3463
H36 H 0.7265 0.2181 0.3942
C32 C 0.7460(8) 0.2933(6) 0.2712(6)
H37 H 0.7763 0.3230 0.2602
H38 H 0.6861 0.3024 0.2458
H39 H 0.7532 0.2597 0.2449
C33 C 0.5543(4) 0.4209(2) 0.3461(3)
H40 H 0.5130 0.4163 0.3687
H41 H 0.5283 0.4067 0.2859
C34 C 0.5718(4) 0.4822(2) 0.3438(4)
C35 C 0.6239(4) 0.4981(3) 0.3075(4)
H42 H 0.6526 0.4705 0.2931
C36 C 0.6363(4) 0.5527(3) 0.2910(4)
C37 C 0.5939(4) 0.5911(3) 0.3145(4)
H43 H 0.6008 0.6284 0.3046
C38 C 0.5410(4) 0.5783(2) 0.3523(3)
C39 C 0.4697(4) 0.4776(2) 0.6307(3)
C40 C 0.6848(5) 0.5650(3) 0.2389(5)
C41 C 0.6299(6) 0.5458(3) 0.1436(5)
H44 H 0.5760 0.5651 0.1190
H45 H 0.6200 0.5065 0.1429
H46 H 0.6590 0.5538 0.1090
C42 C 0.7013(5) 0.6265(3) 0.2369(5)
H47 H 0.6476 0.6460 0.2097
H48 H 0.7320 0.6328 0.2033
H49 H 0.7348 0.6398 0.2964
C43 C 0.7714(5) 0.5356(3) 0.2791(6)
H50 H 0.7629 0.4962 0.2806
H51 H 0.8059 0.5489 0.3385
H52 H 0.8000 0.5431 0.2438
C44 C 0.4897(4) 0.6236(2) 0.3660(4)
H53 H 0.4552 0.6415 0.3094
H54 H 0.4505 0.6067 0.3849
C45 C 0.5402(3) 0.6672(2) 0.4319(4)
C46 C 0.5437(4) 0.7201(2) 0.4020(4)
H55 H 0.5137 0.7272 0.3414
C47 C 0.5900(4) 0.7630(2) 0.4579(4)
C48 C 0.6303(4) 0.7507(2) 0.5470(4)
H56 H 0.6610 0.7787 0.5869
C49 C 0.6272(4) 0.6985(2) 0.5799(4)
C50 C 0.4172(4) 0.3439(2) 0.4780(4)
C51 C 0.5899(4) 0.8204(2) 0.4219(4)
C52 C 0.5893(5) 0.8179(3) 0.3331(4)
H57 H 0.5392 0.7982 0.2918
H58 H 0.6397 0.7988 0.3391
H59 H 0.5886 0.8549 0.3117
C53 C 0.5127(5) 0.8524(3) 0.4126(5)
H60 H 0.4615 0.8327 0.3738
H61 H 0.5124 0.8884 0.3883
H62 H 0.5147 0.8565 0.4699
C54 C 0.6696(5) 0.8514(3) 0.4843(5)
H63 H 0.6725 0.8531 0.5421
H64 H 0.6679 0.8885 0.4625
H65 H 0.7193 0.8325 0.4880
C55 C 0.6694(4) 0.6893(2) 0.6780(4)
H66 H 0.6277 0.6722 0.6929
H67 H 0.6831 0.7255 0.7065
C63 C 0.6800(5) 0.4145(3) 0.8521(4)
H82 H 0.6402 0.3837 0.8374
H83 H 0.7252 0.4047 0.8370
C65 C 0.7158(6) 0.4294(3) 0.9477(5)
H86 H 0.7713 0.4472 0.9687
H87 H 0.7220 0.3967 0.9836
C66 C 0.6520(6) 0.4685(4) 0.9514(5)
H88 H 0.6802 0.4977 0.9945
H89 H 0.6124 0.4490 0.9671
C67 C 0.6066(5) 0.4916(3) 0.8605(4)
H90 H 0.6174 0.5312 0.8616
H91 H 0.5453 0.4860 0.8368
O1B O 0.3313(2) 0.42595(15) 0.2888(2)
H1B H 0.3629 0.4175 0.3406
C1B C 0.2532(4) 0.4010(3) 0.2614(4)
Li1B Li 0.4894(7) 0.5515(4) 0.5079(7)
O2B O 0.2864(3) 0.54801(16) 0.3219(3)
H2B H 0.3078 0.5627 0.3712
C2B C 0.1791(4) 0.4300(2) 0.2106(4)
Li2B Li 0.3648(6) 0.5052(4) 0.3023(6)
O3B O 0.3742(2) 0.58129(16) 0.4706(2)
C3B C 0.1023(4) 0.4048(3) 0.1891(4)
H3B H 0.0522 0.4248 0.1560
O4B O 0.4796(2) 0.50826(14) 0.4049(2)
C4B C 0.0955(4) 0.3519(3) 0.2138(4)
O5B O 0.5804(2) 0.60481(15) 0.5520(2)
C5B C 0.1707(4) 0.3221(3) 0.2590(4)
H4B H 0.1678 0.2854 0.2745
C6B C 0.2502(4) 0.3456(3) 0.2819(4)
C7B C 0.0098(5) 0.3248(4) 0.1909(5)
C8B C -0.0628(5) 0.3575(4) 0.1299(9)
H5B H -0.0576 0.3646 0.0769
H6B H -0.1149 0.3374 0.1151
H7B H -0.0640 0.3921 0.1574
O9B O 0.3634(3) 0.53558(17) 0.1932(3)
C9B C 0.0040(5) 0.2681(4) 0.1467(6)
H8B H 0.0058 0.2734 0.0915
H9B H 0.0513 0.2453 0.1853
H10B H -0.0489 0.2503 0.1358
C10B C 0.0045(6) 0.3088(4) 0.2743(7)
H11B H 0.0073 0.3417 0.3075
H12B H -0.0486 0.2899 0.2587
H13B H 0.0515 0.2848 0.3096
C11B C 0.1798(4) 0.4854(2) 0.1715(4)
H14B H 0.1453 0.4827 0.1077
H15B H 0.2382 0.4931 0.1827
C12B C 0.1491(4) 0.5337(2) 0.2023(4)
C13B C 0.0657(4) 0.5508(3) 0.1574(4)
H16B H 0.0286 0.5298 0.1089
C14B C 0.0327(4) 0.5968(3) 0.1788(4)
C15B C 0.0917(4) 0.6288(3) 0.2462(4)
H17B H 0.0731 0.6618 0.2603
C16B C 0.1777(4) 0.6146(2) 0.2945(4)
C17B C 0.2056(4) 0.5652(3) 0.2756(4)
C18B C -0.0604(4) 0.6134(3) 0.1249(4)
C19B C -0.0899(5) 0.6497(4) 0.1760(5)
H18B H -0.0558 0.6829 0.1933
H19B H -0.1490 0.6594 0.1398
H20B H -0.0840 0.6304 0.2280
C20B C -0.0706(5) 0.6410(4) 0.0416(6)
H21B H -0.0353 0.6736 0.0564
H22B H -0.0535 0.6158 0.0088
H23B H -0.1295 0.6513 0.0061
C21B C -0.1165(5) 0.5626(3) 0.0991(6)
H24B H -0.1118 0.5445 0.1515
H25B H -0.1750 0.5733 0.0624
H26B H -0.0985 0.5376 0.0668
C22B C 0.2396(4) 0.6554(2) 0.3591(3)
H27B H 0.2905 0.6558 0.3505
H28B H 0.2139 0.6920 0.3432
C23B C 0.2682(4) 0.6471(2) 0.4569(4)
C24B C 0.2309(4) 0.6786(2) 0.4986(4)
H29B H 0.1840 0.7009 0.4640
C25B C 0.2602(4) 0.6781(3) 0.5883(4)
C26B C 0.3312(4) 0.6457(2) 0.6383(4)
H30B H 0.3539 0.6459 0.6998
C27B C 0.3696(4) 0.6131(2) 0.5995(4)
C28B C 0.3360(4) 0.6137(2) 0.5079(4)
C29B C 0.2202(4) 0.7145(3) 0.6338(4)
C30B C 0.1232(6) 0.6989(5) 0.5888(7)
H31B H 0.1142 0.6660 0.5535
H32B H 0.1055 0.6920 0.6337
H33B H 0.0902 0.7289 0.5516
C31B C 0.2215(8) 0.7744(4) 0.6093(8)
H34B H 0.1731 0.7817 0.5529
H35B H 0.2185 0.7978 0.6537
H36B H 0.2735 0.7819 0.6058
C32B C 0.2540(8) 0.7067(6) 0.7288(6)
H37B H 0.2237 0.6770 0.7398
H38B H 0.3139 0.6976 0.7542
H39B H 0.2468 0.7403 0.7551
C33B C 0.4457(4) 0.5791(2) 0.6539(3)
H40B H 0.4870 0.5837 0.6313
H41B H 0.4717 0.5933 0.7141
C34B C 0.4282(4) 0.5178(2) 0.6562(4)
C35B C 0.3761(4) 0.5019(3) 0.6925(4)
H42B H 0.3474 0.5295 0.7069
C36B C 0.3637(4) 0.4473(3) 0.7090(4)
C37B C 0.4061(4) 0.4089(3) 0.6855(4)
H43B H 0.3992 0.3716 0.6954
C38B C 0.4590(4) 0.4217(2) 0.6477(3)
C39B C 0.5303(4) 0.5224(2) 0.3693(3)
C40B C 0.3152(5) 0.4350(3) 0.7611(5)
C41B C 0.3701(6) 0.4542(3) 0.8564(5)
H44B H 0.4240 0.4349 0.8810
H45B H 0.3800 0.4935 0.8571
H46B H 0.3410 0.4462 0.8910
C42B C 0.2987(5) 0.3735(3) 0.7631(5)
H47B H 0.3524 0.3540 0.7903
H48B H 0.2680 0.3672 0.7967
H49B H 0.2652 0.3602 0.7036
C43B C 0.2286(5) 0.4644(3) 0.7209(6)
H50B H 0.2371 0.5038 0.7194
H51B H 0.1941 0.4511 0.6615
H52B H 0.2000 0.4569 0.7562
C44B C 0.5103(4) 0.3764(2) 0.6340(4)
H53B H 0.5448 0.3585 0.6906
H54B H 0.5495 0.3933 0.6151
C45B C 0.4598(3) 0.3328(2) 0.5681(4)
C46B C 0.4563(4) 0.2799(2) 0.5980(4)
H55B H 0.4863 0.2728 0.6586
C47B C 0.4100(4) 0.2370(2) 0.5421(4)
C48B C 0.3697(4) 0.2493(2) 0.4530(4)
H56B H 0.3390 0.2213 0.4131
C49B C 0.3728(4) 0.3015(2) 0.4201(4)
C50B C 0.5828(4) 0.6561(2) 0.5220(4)
C51B C 0.4101(4) 0.1796(2) 0.5781(4)
C52B C 0.4107(5) 0.1821(3) 0.6669(4)
H57B H 0.4608 0.2018 0.7082
H58B H 0.3603 0.2012 0.6609
H59B H 0.4114 0.1451 0.6883
C53B C 0.4873(5) 0.1476(3) 0.5874(5)
H60B H 0.5385 0.1673 0.6262
H61B H 0.4876 0.1116 0.6117
H62B H 0.4853 0.1435 0.5301
C54B C 0.3304(5) 0.1486(3) 0.5157(5)
H63B H 0.3275 0.1469 0.4579
H64B H 0.3321 0.1115 0.5375
H65B H 0.2807 0.1675 0.5120
C55B C 0.3306(4) 0.3107(2) 0.3220(4)
H66B H 0.3723 0.3278 0.3071
H67B H 0.3169 0.2745 0.2935
C63B C 0.3200(5) 0.5855(3) 0.1479(4)
H82B H 0.3598 0.6163 0.1626
H83B H 0.2748 0.5953 0.1630
C65B C 0.2842(6) 0.5706(3) 0.0523(5)
H86B H 0.2287 0.5528 0.0313
H87B H 0.2780 0.6033 0.0164
C66B C 0.3480(6) 0.5315(4) 0.0486(5)
H88B H 0.3198 0.5023 0.0055
H89B H 0.3876 0.5510 0.0329
C67B C 0.3934(5) 0.5084(3) 0.1395(4)
H90B H 0.3826 0.4688 0.1384
H91B H 0.4547 0.5140 0.1632
Li3 Li 0.7445(11) 0.5503(7) 0.4645(10)
O6 O 0.8003(4) 0.6217(3) 0.4713(4)
O7 O 0.8449(4) 0.5019(3) 0.5103(4)
O8 O 0.7066(3) 0.5404(2) 0.5467(3)
C56 C 0.7668(5) 0.6662(6) 0.4961(6)
H68 H 0.7839 0.6655 0.5592
H69 H 0.7047 0.6670 0.4634
C57 C 0.8065(9) 0.7155(5) 0.4718(11)
H70 H 0.7648 0.7318 0.4164
H71 H 0.8240 0.7436 0.5177
C58 C 0.8748(10) 0.6976(6) 0.4634(11)
H72 H 0.9262 0.7166 0.5057
H73 H 0.8671 0.7054 0.4041
C59 C 0.8833(5) 0.6378(5) 0.4799(7)
H74 H 0.8955 0.6187 0.4366
H75 H 0.9285 0.6297 0.5389
C60 C 0.8778(9) 0.4508(4) 0.4977(9)
H76 H 0.8371 0.4212 0.4887
H77 H 0.8869 0.4530 0.4455
C61 C 0.9516(7) 0.4401(6) 0.5689(9)
H78 H 0.9937 0.4294 0.5497
H79 H 0.9435 0.4087 0.6001
C62 C 0.9896(12) 0.4921(7) 0.6379(12)
H80 H 1.0209 0.4815 0.6998
H81 H 1.0206 0.5195 0.6219
C64 C 0.9038(8) 0.5044(6) 0.6095(7)
H84 H 0.9003 0.5414 0.6300
H85 H 0.8818 0.4788 0.6384
C69? C 0.8542(10) 0.2542(8) 0.4203(11)
C70? C 0.7065(9) 0.2447(6) 0.3048(11)
C71? C 0.7912(11) 0.3211(6) 0.2983(10)
H94? H 0.8988 0.2788 0.4589
H95? H 0.8731 0.2343 0.3834
H96? H 0.8410 0.2282 0.4553
H97? H 0.6526 0.2574 0.2996
H98? H 0.7183 0.2081 0.3303
H99? H 0.7040 0.2436 0.2471
H100? H 0.8321 0.3500 0.3282
H101? H 0.7372 0.3375 0.2584
H102? H 0.8114 0.2984 0.2652
loop_
_geom_bond_atom_site_label_1
_geom_bond_atom_site_label_2
_geom_bond_site_symmetry_1
_geom_bond_site_symmetry_2
Cl1 C68 1_555 1_555
O1 H1 1_555 1_555
C1 O1 1_555 1_555
Li1 O3 1_555 1_555
Cl2 C68 1_555 1_555
O2 H2 1_555 1_555
C2 C1 1_555 1_555
Li2 O1 1_555 1_555
O3 C28 1_555 1_555
C3 C2 1_555 1_555
H3 C3 1_555 1_555
Li3 O6 1_555 1_555
O4 Li1 1_555 1_555
C4 C3 1_555 1_555
O5 Li1 1_555 1_555
C5 C4 1_555 1_555
H4 C5 1_555 1_555
C6 C1 1_555 1_555
O6 C56 1_555 1_555
C7 C4 1_555 1_555
O7 Li3 1_555 1_555
O8 Li3 1_555 1_555
C8 C7 1_555 1_555
H5 C8 1_555 1_555
H6 C8 1_555 1_555
H7 C8 1_555 1_555
O9 Li2 1_555 1_555
C9 C7 1_555 1_555
H8 C9 1_555 1_555
H9 C9 1_555 1_555
H10 C9 1_555 1_555
C10 C7 1_555 1_555
H11 C10 1_555 1_555
H12 C10 1_555 1_555
H13 C10 1_555 1_555
C11 C2 1_555 1_555
H14 C11 1_555 1_555
H15 C11 1_555 1_555
C12 C11 1_555 1_555
C13 C12 1_555 1_555
H16 C13 1_555 1_555
C14 C13 1_555 1_555
C15 C14 1_555 1_555
H17 C15 1_555 1_555
C16 C15 1_555 1_555
C17 O2 1_555 1_555
C18 C14 1_555 1_555
C19 C18 1_555 1_555
H18 C19 1_555 1_555
H19 C19 1_555 1_555
H20 C19 1_555 1_555
C20 C18 1_555 1_555
H21 C20 1_555 1_555
H22 C20 1_555 1_555
H23 C20 1_555 1_555
C21 C18 1_555 1_555
H24 C21 1_555 1_555
H25 C21 1_555 1_555
H26 C21 1_555 1_555
C22 C16 1_555 1_555
H27 C22 1_555 1_555
H28 C22 1_555 1_555
C23 C22 1_555 1_555
C24 C23 1_555 1_555
H29 C24 1_555 1_555
C25 C24 1_555 1_555
C26 C25 1_555 1_555
H30 C26 1_555 1_555
C27 C26 1_555 1_555
C28 C23 1_555 1_555
C29 C25 1_555 1_555
C30 C29 1_555 1_555
H31 C30 1_555 1_555
H32 C30 1_555 1_555
H33 C30 1_555 1_555
C31 C29 1_555 1_555
H34 C31 1_555 1_555
H35 C31 1_555 1_555
H36 C31 1_555 1_555
C32 C29 1_555 1_555
H37 C32 1_555 1_555
H38 C32 1_555 1_555
H39 C32 1_555 1_555
C33 C27 1_555 1_555
H40 C33 1_555 1_555
H41 C33 1_555 1_555
C34 C33 1_555 1_555
C35 C34 1_555 1_555
H42 C35 1_555 1_555
C36 C35 1_555 1_555
C37 C36 1_555 1_555
H43 C37 1_555 1_555
C38 C37 1_555 1_555
C39 O4 1_555 1_555
C40 C36 1_555 1_555
C41 C40 1_555 1_555
H44 C41 1_555 1_555
H45 C41 1_555 1_555
H46 C41 1_555 1_555
C42 C40 1_555 1_555
H47 C42 1_555 1_555
H48 C42 1_555 1_555
H49 C42 1_555 1_555
C43 C40 1_555 1_555
H50 C43 1_555 1_555
H51 C43 1_555 1_555
H52 C43 1_555 1_555
C44 C38 1_555 1_555
H53 C44 1_555 1_555
H54 C44 1_555 1_555
C45 C44 1_555 1_555
C46 C45 1_555 1_555
H55 C46 1_555 1_555
C47 C46 1_555 1_555
C48 C47 1_555 1_555
H56 C48 1_555 1_555
C49 C48 1_555 1_555
C50 O5 1_555 1_555
C51 C47 1_555 1_555
C52 C51 1_555 1_555
H57 C52 1_555 1_555
H58 C52 1_555 1_555
H59 C52 1_555 1_555
C53 C51 1_555 1_555
H60 C53 1_555 1_555
H61 C53 1_555 1_555
H62 C53 1_555 1_555
C54 C51 1_555 1_555
H63 C54 1_555 1_555
H64 C54 1_555 1_555
H65 C54 1_555 1_555
C55 C6 1_555 1_555
H66 C55 1_555 1_555
H67 C55 1_555 1_555
C56 H68 1_555 1_555
H69 C56 1_555 1_555
C57 C56 1_555 1_555
H70 C57 1_555 1_555
H71 C57 1_555 1_555
C58 C57 1_555 1_555
H72 C58 1_555 1_555
H73 C58 1_555 1_555
C59 O6 1_555 1_555
H74 C59 1_555 1_555
H75 C59 1_555 1_555
C60 O7 1_555 1_555
H76 C60 1_555 1_555
H77 C60 1_555 1_555
C61 C60 1_555 1_555
H78 C61 1_555 1_555
H79 C61 1_555 1_555
C62 C61 1_555 1_555
H80 C62 1_555 1_555
H81 C62 1_555 1_555
C63 O9 1_555 1_555
H82 C63 1_555 1_555
H83 C63 1_555 1_555
C64 O7 1_555 1_555
H84 C64 1_555 1_555
H85 C64 1_555 1_555
C65 C63 1_555 1_555
H86 C65 1_555 1_555
H87 C65 1_555 1_555
C66 C65 1_555 1_555
H88 C66 1_555 1_555
H89 C66 1_555 1_555
C67 O9 1_555 1_555
H90 C67 1_555 1_555
H91 C67 1_555 1_555
C68 H92 1_555 1_555
H93 C68 1_555 1_555
O1B H1B 1_555 1_555
C1B O1B 1_555 1_555
Li1B O4 1_555 1_555
O2B H2B 1_555 1_555
C2B C1B 1_555 1_555
Li2B O1B 1_555 1_555
O3B Li1B 1_555 1_555
C3B C2B 1_555 1_555
H3B C3B 1_555 1_555
O4B Li1 1_555 1_555
C4B C3B 1_555 1_555
O5B Li1B 1_555 1_555
C5B C4B 1_555 1_555
H4B C5B 1_555 1_555
C6B C1B 1_555 1_555
C7B C4B 1_555 1_555
C8B C7B 1_555 1_555
H5B C8B 1_555 1_555
H6B C8B 1_555 1_555
H7B C8B 1_555 1_555
O9B Li2B 1_555 1_555
C9B C7B 1_555 1_555
H8B C9B 1_555 1_555
H9B C9B 1_555 1_555
H10B C9B 1_555 1_555
C10B C7B 1_555 1_555
H11B C10B 1_555 1_555
H12B C10B 1_555 1_555
H13B C10B 1_555 1_555
C11B C2B 1_555 1_555
H14B C11B 1_555 1_555
H15B C11B 1_555 1_555
C12B C11B 1_555 1_555
C13B C12B 1_555 1_555
H16B C13B 1_555 1_555
C14B C13B 1_555 1_555
C15B C14B 1_555 1_555
H17B C15B 1_555 1_555
C16B C15B 1_555 1_555
C17B O2B 1_555 1_555
C18B C14B 1_555 1_555
C19B C18B 1_555 1_555
H18B C19B 1_555 1_555
H19B C19B 1_555 1_555
H20B C19B 1_555 1_555
C20B C18B 1_555 1_555
H21B C20B 1_555 1_555
H22B C20B 1_555 1_555
H23B C20B 1_555 1_555
C21B C18B 1_555 1_555
H24B C21B 1_555 1_555
H25B C21B 1_555 1_555
H26B C21B 1_555 1_555
C22B C16B 1_555 1_555
H27B C22B 1_555 1_555
H28B C22B 1_555 1_555
C23B C22B 1_555 1_555
C24B C23B 1_555 1_555
H29B C24B 1_555 1_555
C25B C24B 1_555 1_555
C26B C25B 1_555 1_555
H30B C26B 1_555 1_555
C27B C26B 1_555 1_555
C28B O3B 1_555 1_555
C29B C25B 1_555 1_555
C30B C29B 1_555 1_555
H31B C30B 1_555 1_555
H32B C30B 1_555 1_555
H33B C30B 1_555 1_555
C31B C29B 1_555 1_555
H34B C31B 1_555 1_555
H35B C31B 1_555 1_555
H36B C31B 1_555 1_555
C32B C29B 1_555 1_555
H37B C32B 1_555 1_555
H38B C32B 1_555 1_555
H39B C32B 1_555 1_555
C33B C27B 1_555 1_555
H40B C33B 1_555 1_555
H41B C33B 1_555 1_555
C34B C39 1_555 1_555
C35B C34B 1_555 1_555
H42B C35B 1_555 1_555
C36B C35B 1_555 1_555
C37B C36B 1_555 1_555
H43B C37B 1_555 1_555
C38B C39 1_555 1_555
C39B C34 1_555 1_555
C40B C36B 1_555 1_555
C41B C40B 1_555 1_555
H44B C41B 1_555 1_555
H45B C41B 1_555 1_555
H46B C41B 1_555 1_555
C42B C40B 1_555 1_555
H47B C42B 1_555 1_555
H48B C42B 1_555 1_555
H49B C42B 1_555 1_555
C43B C40B 1_555 1_555
H50B C43B 1_555 1_555
H51B C43B 1_555 1_555
H52B C43B 1_555 1_555
C44B C38B 1_555 1_555
H53B C44B 1_555 1_555
H54B C44B 1_555 1_555
C45B C50 1_555 1_555
C46B C45B 1_555 1_555
H55B C46B 1_555 1_555
C47B C46B 1_555 1_555
C48B C47B 1_555 1_555
H56B C48B 1_555 1_555
C49B C50 1_555 1_555
C50B C45 1_555 1_555
C51B C47B 1_555 1_555
C52B C51B 1_555 1_555
H57B C52B 1_555 1_555
H58B C52B 1_555 1_555
H59B C52B 1_555 1_555
C53B C51B 1_555 1_555
H60B C53B 1_555 1_555
H61B C53B 1_555 1_555
H62B C53B 1_555 1_555
C54B C51B 1_555 1_555
H63B C54B 1_555 1_555
H64B C54B 1_555 1_555
H65B C54B 1_555 1_555
C55B C6B 1_555 1_555
H66B C55B 1_555 1_555
H67B C55B 1_555 1_555
C63B O9B 1_555 1_555
H82B C63B 1_555 1_555
H83B C63B 1_555 1_555
C65B C63B 1_555 1_555
H86B C65B 1_555 1_555
H87B C65B 1_555 1_555
C66B C65B 1_555 1_555
H88B C66B 1_555 1_555
H89B C66B 1_555 1_555
C67B O9B 1_555 1_555
H90B C67B 1_555 1_555
H91B C67B 1_555 1_555
O2 Li2 1_555 1_555
Li2 O4 1_555 1_555
C5 C6 1_555 1_555
C12 C17 1_555 1_555
C16 C17 1_555 1_555
C27 C28 1_555 1_555
C38 C39B 1_555 1_555
C49 C55 1_555 1_555
C49 C50B 1_555 1_555
C58 C59 1_555 1_555
C62 C64 1_555 1_555
C66 C67 1_555 1_555
Li1B O4B 1_555 1_555
O2B Li2B 1_555 1_555
Li2B O4B 1_555 1_555
O4B C39B 1_555 1_555
O5B C50B 1_555 1_555
C5B C6B 1_555 1_555
C12B C17B 1_555 1_555
C16B C17B 1_555 1_555
C23B C28B 1_555 1_555
C27B C28B 1_555 1_555
C33B C34B 1_555 1_555
C37B C38B 1_555 1_555
C44B C45B 1_555 1_555
C48B C49B 1_555 1_555
C49B C55B 1_555 1_555
C66B C67B 1_555 1_555

#END
