
#######################################################################
#
#                 Cambridge Crystallographic Data Centre
#                                CCDC 
#
#######################################################################
#
# If this CIF has been generated from an entry in the Cambridge 
# Structural Database, then it will include bibliographic, chemical, 
# crystal, experimental, refinement or atomic coordinate data resulting 
# from the CCDC's data processing and validation procedures.
#
#######################################################################

data_FOTDAU
_chemical_formula_moiety         'C118 H152 Na2 O12,C5 H12'
_chemical_name_systematic        
'bis(\m~2~-5,11,17,23,29-Penta-t-butyl-31,32,33-trihydroxy-34,35-dioxycalix(5)arene)-bis(tetrahydrofuran)-di-sodium pentane solvate'
_symmetry_cell_setting           triclinic
_symmetry_space_group_name_H-M   'P -1'
_symmetry_Int_Tables_number      2
_space_group_name_Hall           '-P 1'
loop_
_symmetry_equiv_pos_site_id
_symmetry_equiv_pos_as_xyz
1 x,y,z
2 -x,-y,-z
_cell_length_a                   12.6599(13)
_cell_length_b                   16.0093(16)
_cell_length_c                   16.8202(17)
_cell_angle_alpha                103.727(2)
_cell_angle_beta                 103.495(2)
_cell_angle_gamma                106.933(2)
_cell_volume                     2995.6
_exptl_crystal_colour            colorless
_exptl_crystal_description       block
_cell_formula_units_Z            1
loop_
_atom_site_label
_atom_site_type_symbol
_atom_site_fract_x
_atom_site_fract_y
_atom_site_fract_z
Na1 Na 0.45122(11) 0.92520(8) 0.37236(9)
O1 O 0.37387(18) 0.76399(13) 0.32982(14)
C1 C 0.3427(2) 0.69930(19) 0.2488(2)
O2 O 0.26712(17) 0.93495(13) 0.31145(14)
C2 C 0.2420(2) 0.68833(19) 0.1861(2)
O3 O 0.41907(17) 1.10538(13) 0.39936(13)
H2 H 0.4220 1.1370 0.4473
C3 C 0.2094(2) 0.6220(2) 0.1057(2)
H3 H 0.1403 0.6132 0.0632
O4 O 0.59604(16) 1.07149(13) 0.47990(13)
H4 H 0.5470 1.0882 0.4526
C4 C 0.2735(2) 0.56814(19) 0.0849(2)
O5 O 0.57517(18) 0.80588(14) 0.44894(14)
H5 H 0.6013 0.8490 0.4955
C5 C 0.3754(2) 0.58259(19) 0.1500(2)
H6 H 0.4214 0.5478 0.1377
C6 C 0.4110(2) 0.64677(19) 0.2324(2)
O6 O 0.5151(2) 0.94280(18) 0.25590(17)
C7 C 0.2309(3) 0.4904(2) -0.0029(2)
C8 C 0.1480(3) 0.5075(3) -0.0733(2)
H7 H 0.1885 0.5645 -0.0820
H8 H 0.0816 0.5126 -0.0560
H9 H 0.1210 0.4565 -0.1269
C9 C 0.1659(3) 0.3997(2) 0.0092(3)
H10 H 0.2182 0.3877 0.0535
H11 H 0.1388 0.3493 -0.0449
H12 H 0.0995 0.4046 0.0267
C10 C 0.3345(3) 0.4820(3) -0.0320(2)
H13 H 0.3756 0.5392 -0.0398
H14 H 0.3062 0.4316 -0.0862
H15 H 0.3872 0.4697 0.0118
C11 C 0.1671(2) 0.7442(2) 0.2059(2)
H16 H 0.1874 0.7691 0.2689
H17 H 0.0852 0.7021 0.1829
C12 C 0.1778(2) 0.82416(19) 0.1699(2)
C13 C 0.2195(2) 0.9156(2) 0.2243(2)
C14 C 0.2093(2) 0.9858(2) 0.1906(2)
C15 C 0.1688(2) 0.9645(2) 0.1015(2)
H18 H 0.1648 1.0123 0.0789
C16 C 0.1338(3) 0.8757(2) 0.0439(2)
C17 C 0.1364(2) 0.8069(2) 0.0812(2)
H19 H 0.1086 0.7454 0.0443
C18 C 0.0895(3) 0.8527(2) -0.0542(2)
C19 C 0.1191(6) 0.9394(3) -0.0805(3)
H20 H 0.2032 0.9697 -0.0628
H21 H 0.0865 0.9812 -0.0526
H22 H 0.0863 0.9224 -0.1428
C20 C 0.1366(5) 0.7852(4) -0.0983(3)
H23 H 0.1218 0.7326 -0.0776
H24 H 0.2200 0.8153 -0.0852
H25 H 0.0982 0.7642 -0.1604
C21 C -0.0431(4) 0.8077(4) -0.0857(3)
H26 H -0.0659 0.7501 -0.0733
H27 H -0.0729 0.7953 -0.1476
H28 H -0.0751 0.8489 -0.0562
C22 C 0.2362(2) 1.08231(19) 0.2486(2)
H29 H 0.2177 1.0781 0.3013
H30 H 0.1842 1.1084 0.2190
C23 C 0.3610(2) 1.14894(19) 0.2748(2)
C24 C 0.4456(2) 1.16076(19) 0.3515(2)
C25 C 0.5561(2) 1.22973(19) 0.3763(2)
C26 C 0.5829(3) 1.2785(2) 0.3203(2)
H31 H 0.6583 1.3232 0.3370
C27 C 0.5039(3) 1.2643(2) 0.2417(2)
C28 C 0.3920(3) 1.2000(2) 0.2210(2)
H32 H 0.3351 1.1904 0.1691
C29 C 0.5371(3) 1.3165(2) 0.1806(2)
C30 C 0.4344(6) 1.2889(5) 0.0966(5)
H33 H 0.3832 1.2255 0.0829
H34 H 0.4646 1.2946 0.0494
H35 H 0.3910 1.3294 0.1048
C31 C 0.5781(6) 1.4177(4) 0.2240(5)
H36 H 0.6420 1.4360 0.2772
H37 H 0.5144 1.4336 0.2372
H38 H 0.6047 1.4497 0.1860
C32 C 0.6327(6) 1.2913(5) 0.1524(5)
H39 H 0.6944 1.2981 0.2029
H40 H 0.6644 1.3319 0.1223
H41 H 0.6004 1.2277 0.1141
C33 C 0.6443(2) 1.2558(2) 0.4644(2)
H42 H 0.6016 1.2431 0.5045
H43 H 0.6878 1.3226 0.4845
C34 C 0.7064(2) 1.12129(19) 0.48020(19)
C35 C 0.7319(2) 1.20791(19) 0.4704(2)
C36 C 0.8425(3) 1.2530(2) 0.4680(2)
H44 H 0.8584 1.3105 0.4590
C37 C 0.9305(3) 1.2174(2) 0.4784(2)
C38 C 0.9027(3) 1.1323(2) 0.4924(2)
H45 H 0.9615 1.1077 0.5029
C39 C 0.7922(2) 1.08223(19) 0.49164(19)
C40 C 1.0519(3) 1.2683(2) 0.4764(3)
C41 C 1.0638(5) 1.3559(4) 0.4543(4)
H46 H 1.0194 1.3404 0.3940
H47 H 1.1454 1.3899 0.4642
H48 H 1.0342 1.3937 0.4906
C42 C 1.1403(5) 1.2991(4) 0.5704(4)
H49 H 1.1850 1.2592 0.5720
H50 H 1.0976 1.2947 0.6111
H51 H 1.1929 1.3625 0.5859
C43 C 1.0925(7) 1.2055(5) 0.4172(5)
H52 H 1.0379 1.1818 0.3588
H53 H 1.0959 1.1543 0.4378
H54 H 1.1694 1.2404 0.4175
C44 C 0.7654(3) 0.98770(19) 0.5019(2)
H55 H 0.7000 0.9753 0.5247
H56 H 0.8334 0.9888 0.5450
C45 C 0.7348(2) 0.90841(19) 0.41908(19)
C46 C 0.7996(2) 0.9176(2) 0.3630(2)
H57 H 0.8608 0.9741 0.3764
C47 C 0.7773(2) 0.8459(2) 0.2873(2)
C48 C 0.6864(2) 0.7637(2) 0.2701(2)
H58 H 0.6693 0.7145 0.2197
C49 C 0.6195(2) 0.75063(19) 0.3237(2)
C50 C 0.6466(2) 0.8238(2) 0.3996(2)
C51 C 0.8516(3) 0.8546(2) 0.2283(2)
C52 C 0.9418(3) 0.9526(3) 0.2547(3)
H59 H 0.9868 0.9726 0.3156
H60 H 0.9019 0.9944 0.2450
H61 H 0.9936 0.9527 0.2204
C53 C 0.9162(3) 0.7874(3) 0.2310(3)
H62 H 0.9660 0.8026 0.2898
H63 H 0.9635 0.7924 0.1933
H64 H 0.8598 0.7248 0.2117
C54 C 0.7728(3) 0.8302(3) 0.1345(2)
H65 H 0.7318 0.8726 0.1323
H66 H 0.7166 0.7675 0.1152
H67 H 0.8205 0.8350 0.0970
C55 C 0.5216(2) 0.65873(19) 0.3008(2)
H68 H 0.5033 0.6531 0.3532
H69 H 0.5484 0.6088 0.2798
C56 C 0.5625(6) 1.0249(3) 0.1643(3)
H70 H 0.6303 1.0427 0.1447
H71 H 0.5221 1.0681 0.1597
C57 C 0.5983(4) 1.0242(3) 0.2534(3)
H72 H 0.6770 1.0224 0.2697
H73 H 0.5984 1.0797 0.2937
C58 C 0.4793(3) 0.8753(3) 0.1733(3)
H74 H 0.4005 0.8306 0.1599
H75 H 0.5330 0.8420 0.1714
C59 C 0.4814(4) 0.9272(3) 0.1116(3)
H76 H 0.4029 0.9253 0.0845
H77 H 0.5103 0.9010 0.0663
Na1A Na 0.54878(11) 1.07480(8) 0.62764(9)
O1A O 0.62613(18) 1.23601(13) 0.67018(14)
C1A C 0.6573(2) 1.30070(19) 0.7512(2)
O2A O 0.73288(17) 1.06505(13) 0.68855(14)
C2A C 0.7580(2) 1.31167(19) 0.8139(2)
O3A O 0.58093(17) 0.89462(13) 0.60064(13)
H2A H 0.5780 0.8630 0.5527
C3A C 0.7906(2) 1.3780(2) 0.8943(2)
H3A H 0.8597 1.3868 0.9368
O4A O 0.40396(16) 0.92851(13) 0.52010(13)
H4A H 0.4530 0.9118 0.5474
C4A C 0.7265(2) 1.43186(19) 0.9151(2)
O5A O 0.42483(18) 1.19412(14) 0.55106(14)
H5A H 0.3987 1.1510 0.5045
C5A C 0.6246(2) 1.41741(19) 0.8500(2)
H6A H 0.5786 1.4522 0.8623
C6A C 0.5890(2) 1.35323(19) 0.7676(2)
O6A O 0.4849(2) 1.05720(18) 0.74410(17)
C7A C 0.7691(3) 1.5096(2) 1.0029(2)
C8A C 0.8520(3) 1.4925(3) 1.0733(2)
H7A H 0.8115 1.4355 1.0820
H8A H 0.9184 1.4874 1.0560
H9A H 0.8790 1.5435 1.1269
C9A C 0.8341(3) 1.6003(2) 0.9908(3)
H10A H 0.7818 1.6123 0.9465
H11A H 0.8612 1.6507 1.0449
H12A H 0.9005 1.5954 0.9733
C10A C 0.6655(3) 1.5180(3) 1.0320(2)
H13A H 0.6244 1.4608 1.0398
H14A H 0.6938 1.5684 1.0862
H15A H 0.6128 1.5303 0.9882
C11A C 0.8329(2) 1.2558(2) 0.7941(2)
H16A H 0.8126 1.2309 0.7311
H17A H 0.9148 1.2979 0.8171
C12A C 0.8222(2) 1.17584(19) 0.8301(2)
C13A C 0.7805(2) 1.0844(2) 0.7757(2)
C14A C 0.7907(2) 1.0142(2) 0.8094(2)
C15A C 0.8312(2) 1.0355(2) 0.8985(2)
H18A H 0.8352 0.9877 0.9211
C16A C 0.8662(3) 1.1243(2) 0.9561(2)
C17A C 0.8636(2) 1.1931(2) 0.9188(2)
H19A H 0.8914 1.2546 0.9557
C18A C 0.9105(3) 1.1473(2) 1.0542(2)
C19A C 0.8809(6) 1.0606(3) 1.0805(3)
H20A H 0.7968 1.0303 1.0628
H21A H 0.9135 1.0188 1.0526
H22A H 0.9137 1.0776 1.1428
C20A C 0.8634(5) 1.2148(4) 1.0983(3)
H23A H 0.8782 1.2674 1.0776
H24A H 0.7800 1.1847 1.0852
H25A H 0.9018 1.2358 1.1604
C21A C 1.0431(4) 1.1923(4) 1.0857(3)
H26A H 1.0659 1.2499 1.0733
H27A H 1.0729 1.2047 1.1476
H28A H 1.0751 1.1511 1.0562
C22A C 0.7638(2) 0.91769(19) 0.7514(2)
H29A H 0.7823 0.9219 0.6987
H30A H 0.8158 0.8916 0.7810
C23A C 0.6390(2) 0.85106(19) 0.7252(2)
C24A C 0.5544(2) 0.83924(19) 0.6485(2)
C25A C 0.4439(2) 0.77027(19) 0.6237(2)
C26A C 0.4171(3) 0.7215(2) 0.6797(2)
H31A H 0.3417 0.6768 0.6630
C27A C 0.4961(3) 0.7357(2) 0.7583(2)
C28A C 0.6080(3) 0.8000(2) 0.7790(2)
H32A H 0.6649 0.8096 0.8309
C29A C 0.4629(3) 0.6835(2) 0.8194(2)
C30A C 0.5656(6) 0.7111(5) 0.9034(5)
H33A H 0.6168 0.7745 0.9171
H34A H 0.5354 0.7054 0.9506
H35A H 0.6090 0.6706 0.8952
C31A C 0.4219(6) 0.5823(4) 0.7760(5)
H36A H 0.3580 0.5640 0.7228
H37A H 0.4856 0.5664 0.7628
H38A H 0.3953 0.5503 0.8140
C32A C 0.3673(6) 0.7087(5) 0.8476(5)
H39A H 0.3056 0.7019 0.7971
H40A H 0.3356 0.6681 0.8777
H41A H 0.3996 0.7723 0.8859
C33A C 0.3557(2) 0.7442(2) 0.5356(2)
H42A H 0.3984 0.7569 0.4955
H43A H 0.3122 0.6774 0.5155
C34A C 0.2936(2) 0.87871(19) 0.51980(19)
C35A C 0.2681(2) 0.79209(19) 0.5296(2)
C36A C 0.1575(3) 0.7470(2) 0.5320(2)
H44A H 0.1416 0.6895 0.5410
C37A C 0.0695(3) 0.7826(2) 0.5216(2)
C38A C 0.0973(3) 0.8677(2) 0.5076(2)
H45A H 0.0385 0.8923 0.4971
C39A C 0.2078(2) 0.91777(19) 0.50836(19)
C40A C -0.0519(3) 0.7317(2) 0.5236(3)
C41A C -0.0638(5) 0.6441(4) 0.5457(4)
H46A H -0.0194 0.6596 0.6060
H47A H -0.1454 0.6101 0.5358
H48A H -0.0342 0.6063 0.5094
C42A C -0.1403(5) 0.7009(4) 0.4296(4)
H49A H -0.1850 0.7408 0.4280
H50A H -0.0976 0.7053 0.3889
H51A H -0.1929 0.6375 0.4141
C43A C -0.0925(7) 0.7945(5) 0.5828(5)
H52A H -0.0379 0.8182 0.6412
H53A H -0.0959 0.8457 0.5622
H54A H -0.1694 0.7596 0.5825
C44A C 0.2346(3) 1.01230(19) 0.4981(2)
H55A H 0.3000 1.0247 0.4753
H56A H 0.1666 1.0112 0.4550
C45A C 0.2652(2) 1.09159(19) 0.58092(19)
C46A C 0.2004(2) 1.0824(2) 0.6370(2)
H57A H 0.1392 1.0259 0.6236
C47A C 0.2227(2) 1.1541(2) 0.7127(2)
C48A C 0.3136(2) 1.2363(2) 0.7299(2)
H58A H 0.3307 1.2855 0.7803
C49A C 0.3805(2) 1.24937(19) 0.6763(2)
C50A C 0.3534(2) 1.1762(2) 0.6004(2)
C51A C 0.1484(3) 1.1454(2) 0.7717(2)
C52A C 0.0582(3) 1.0474(3) 0.7453(3)
H59A H 0.0132 1.0274 0.6844
H60A H 0.0981 1.0056 0.7550
H61A H 0.0064 1.0473 0.7796
C53A C 0.0838(3) 1.2126(3) 0.7690(3)
H62A H 0.0340 1.1974 0.7102
H63A H 0.0365 1.2076 0.8067
H64A H 0.1402 1.2752 0.7883
C54A C 0.2272(3) 1.1698(3) 0.8655(2)
H65A H 0.2682 1.1274 0.8677
H66A H 0.2834 1.2325 0.8848
H67A H 0.1795 1.1650 0.9030
C55A C 0.4784(2) 1.34127(19) 0.6992(2)
H68A H 0.4967 1.3469 0.6468
H69A H 0.4516 1.3912 0.7202
C56A C 0.4375(6) 0.9751(3) 0.8357(3)
H70A H 0.3697 0.9573 0.8553
H71A H 0.4779 0.9319 0.8403
C57A C 0.4017(4) 0.9758(3) 0.7466(3)
H72A H 0.3230 0.9776 0.7303
H73A H 0.4016 0.9203 0.7063
C58A C 0.5207(3) 1.1247(3) 0.8267(3)
H74A H 0.5995 1.1694 0.8401
H75A H 0.4670 1.1580 0.8286
C59A C 0.5186(4) 1.0728(3) 0.8884(3)
H76A H 0.5971 1.0747 0.9155
H77A H 0.4897 1.0990 0.9337
H1? H 0.3153 0.9888 0.3333
C60? C 0.4560(9) 1.3672(8) 0.1610(8)
C61? C 0.6615(9) 1.3925(8) 0.2246(8)
C62? C 0.5326(10) 1.2508(7) 0.1004(7)
C63? C 1.0993(14) 1.3646(8) 0.5345(10)
C64? C 1.0281(15) 1.2750(11) 0.3818(8)
C65? C 1.1327(10) 1.2162(8) 0.4823(9)
H78? H 0.4758 1.4209 0.2109
H79? H 0.3760 1.3264 0.1478
H80? H 0.4639 1.3868 0.1117
H81? H 0.7025 1.3804 0.2744
H82? H 0.6552 1.4525 0.2432
H83? H 0.7042 1.3919 0.1837
H84? H 0.6048 1.2392 0.1097
H85? H 0.5225 1.2769 0.0539
H86? H 0.4674 1.1932 0.0849
H87? H 1.0809 1.4040 0.5019
H88? H 1.1833 1.3845 0.5594
H89? H 1.0648 1.3690 0.5804
H90? H 0.9767 1.3090 0.3731
H91? H 0.9916 1.2133 0.3396
H92? H 1.1014 1.3068 0.3747
H93? H 1.1151 1.1721 0.4259
H94? H 1.1226 1.1837 0.5235
H95? H 1.2127 1.2592 0.5015
loop_
_geom_bond_atom_site_label_1
_geom_bond_atom_site_label_2
_geom_bond_site_symmetry_1
_geom_bond_site_symmetry_2
Na1 O1 1_555 1_555
O1 C1 1_555 1_555
C1 C2 1_555 1_555
O2 Na1 1_555 1_555
C2 C3 1_555 1_555
O3 H2 1_555 1_555
C3 H3 1_555 1_555
O4 Na1 1_555 1_555
H4 O4 1_555 1_555
C4 C3 1_555 1_555
O5 H5 1_555 1_555
C5 C4 1_555 1_555
H6 C5 1_555 1_555
C6 C1 1_555 1_555
O6 Na1 1_555 1_555
C7 C4 1_555 1_555
C8 C7 1_555 1_555
H7 C8 1_555 1_555
H8 C8 1_555 1_555
H9 C8 1_555 1_555
C9 C7 1_555 1_555
H10 C9 1_555 1_555
H11 C9 1_555 1_555
H12 C9 1_555 1_555
C10 C7 1_555 1_555
H13 C10 1_555 1_555
H14 C10 1_555 1_555
H15 C10 1_555 1_555
C11 C2 1_555 1_555
H16 C11 1_555 1_555
H17 C11 1_555 1_555
C12 C11 1_555 1_555
C13 O2 1_555 1_555
C14 C13 1_555 1_555
C15 C14 1_555 1_555
H18 C15 1_555 1_555
C16 C15 1_555 1_555
C17 C12 1_555 1_555
H19 C17 1_555 1_555
C18 C16 1_555 1_555
C19 C18 1_555 1_555
H20 C19 1_555 1_555
H21 C19 1_555 1_555
H22 C19 1_555 1_555
C20 C18 1_555 1_555
H23 C20 1_555 1_555
H24 C20 1_555 1_555
H25 C20 1_555 1_555
C21 C18 1_555 1_555
H26 C21 1_555 1_555
H27 C21 1_555 1_555
H28 C21 1_555 1_555
C22 C14 1_555 1_555
H29 C22 1_555 1_555
H30 C22 1_555 1_555
C23 C22 1_555 1_555
C24 O3 1_555 1_555
C25 C24 1_555 1_555
C26 C25 1_555 1_555
H31 C26 1_555 1_555
C27 C26 1_555 1_555
C28 C23 1_555 1_555
H32 C28 1_555 1_555
C29 C27 1_555 1_555
C30 C29 1_555 1_555
H33 C30 1_555 1_555
H34 C30 1_555 1_555
H35 C30 1_555 1_555
C31 C29 1_555 1_555
H36 C31 1_555 1_555
H37 C31 1_555 1_555
H38 C31 1_555 1_555
C32 C29 1_555 1_555
H39 C32 1_555 1_555
H40 C32 1_555 1_555
H41 C32 1_555 1_555
C33 C25 1_555 1_555
H42 C33 1_555 1_555
H43 C33 1_555 1_555
C34 O4 1_555 1_555
C35 C33 1_555 1_555
C36 C35 1_555 1_555
H44 C36 1_555 1_555
C37 C36 1_555 1_555
C38 C37 1_555 1_555
H45 C38 1_555 1_555
C39 C34 1_555 1_555
C40 C37 1_555 1_555
C41 C40 1_555 1_555
H46 C41 1_555 1_555
H47 C41 1_555 1_555
H48 C41 1_555 1_555
C42 C40 1_555 1_555
H49 C42 1_555 1_555
H50 C42 1_555 1_555
H51 C42 1_555 1_555
C43 C40 1_555 1_555
H52 C43 1_555 1_555
H53 C43 1_555 1_555
H54 C43 1_555 1_555
C44 C39 1_555 1_555
H55 C44 1_555 1_555
H56 C44 1_555 1_555
C45 C44 1_555 1_555
C46 C45 1_555 1_555
H57 C46 1_555 1_555
C47 C46 1_555 1_555
C48 C47 1_555 1_555
H58 C48 1_555 1_555
C49 C48 1_555 1_555
C50 O5 1_555 1_555
C51 C47 1_555 1_555
C52 C51 1_555 1_555
H59 C52 1_555 1_555
H60 C52 1_555 1_555
H61 C52 1_555 1_555
C53 C51 1_555 1_555
H62 C53 1_555 1_555
H63 C53 1_555 1_555
H64 C53 1_555 1_555
C54 C51 1_555 1_555
H65 C54 1_555 1_555
H66 C54 1_555 1_555
H67 C54 1_555 1_555
C55 C6 1_555 1_555
H68 C55 1_555 1_555
H69 C55 1_555 1_555
C56 H70 1_555 1_555
H71 C56 1_555 1_555
C57 O6 1_555 1_555
H72 C57 1_555 1_555
H73 C57 1_555 1_555
C58 O6 1_555 1_555
H74 C58 1_555 1_555
H75 C58 1_555 1_555
C59 C56 1_555 1_555
H76 C59 1_555 1_555
H77 C59 1_555 1_555
Na1A O4 1_555 1_555
O1A Na1A 1_555 1_555
C1A O1A 1_555 1_555
O2A Na1A 1_555 1_555
C2A C1A 1_555 1_555
O3A H2A 1_555 1_555
C3A C2A 1_555 1_555
H3A C3A 1_555 1_555
O4A Na1 1_555 1_555
H4A O4A 1_555 1_555
C4A C3A 1_555 1_555
O5A H5A 1_555 1_555
C5A C4A 1_555 1_555
H6A C5A 1_555 1_555
C6A C1A 1_555 1_555
O6A Na1A 1_555 1_555
C7A C4A 1_555 1_555
C8A C7A 1_555 1_555
H7A C8A 1_555 1_555
H8A C8A 1_555 1_555
H9A C8A 1_555 1_555
C9A C7A 1_555 1_555
H10A C9A 1_555 1_555
H11A C9A 1_555 1_555
H12A C9A 1_555 1_555
C10A C7A 1_555 1_555
H13A C10A 1_555 1_555
H14A C10A 1_555 1_555
H15A C10A 1_555 1_555
C11A C2A 1_555 1_555
H16A C11A 1_555 1_555
H17A C11A 1_555 1_555
C12A C11A 1_555 1_555
C13A O2A 1_555 1_555
C14A C13A 1_555 1_555
C15A C14A 1_555 1_555
H18A C15A 1_555 1_555
C16A C15A 1_555 1_555
C17A C12A 1_555 1_555
H19A C17A 1_555 1_555
C18A C16A 1_555 1_555
C19A C18A 1_555 1_555
H20A C19A 1_555 1_555
H21A C19A 1_555 1_555
H22A C19A 1_555 1_555
C20A C18A 1_555 1_555
H23A C20A 1_555 1_555
H24A C20A 1_555 1_555
H25A C20A 1_555 1_555
C21A C18A 1_555 1_555
H26A C21A 1_555 1_555
H27A C21A 1_555 1_555
H28A C21A 1_555 1_555
C22A C14A 1_555 1_555
H29A C22A 1_555 1_555
H30A C22A 1_555 1_555
C23A C22A 1_555 1_555
C24A O3A 1_555 1_555
C25A C24A 1_555 1_555
C26A C25A 1_555 1_555
H31A C26A 1_555 1_555
C27A C26A 1_555 1_555
C28A C23A 1_555 1_555
H32A C28A 1_555 1_555
C29A C27A 1_555 1_555
C30A C29A 1_555 1_555
H33A C30A 1_555 1_555
H34A C30A 1_555 1_555
H35A C30A 1_555 1_555
C31A C29A 1_555 1_555
H36A C31A 1_555 1_555
H37A C31A 1_555 1_555
H38A C31A 1_555 1_555
C32A C29A 1_555 1_555
H39A C32A 1_555 1_555
H40A C32A 1_555 1_555
H41A C32A 1_555 1_555
C33A C25A 1_555 1_555
H42A C33A 1_555 1_555
H43A C33A 1_555 1_555
C34A O4A 1_555 1_555
C35A C33A 1_555 1_555
C36A C35A 1_555 1_555
H44A C36A 1_555 1_555
C37A C36A 1_555 1_555
C38A C37A 1_555 1_555
H45A C38A 1_555 1_555
C39A C34A 1_555 1_555
C40A C37A 1_555 1_555
C41A C40A 1_555 1_555
H46A C41A 1_555 1_555
H47A C41A 1_555 1_555
H48A C41A 1_555 1_555
C42A C40A 1_555 1_555
H49A C42A 1_555 1_555
H50A C42A 1_555 1_555
H51A C42A 1_555 1_555
C43A C40A 1_555 1_555
H52A C43A 1_555 1_555
H53A C43A 1_555 1_555
H54A C43A 1_555 1_555
C44A C39A 1_555 1_555
H55A C44A 1_555 1_555
H56A C44A 1_555 1_555
C45A C44A 1_555 1_555
C46A C45A 1_555 1_555
H57A C46A 1_555 1_555
C47A C46A 1_555 1_555
C48A C47A 1_555 1_555
H58A C48A 1_555 1_555
C49A C48A 1_555 1_555
C50A O5A 1_555 1_555
C51A C47A 1_555 1_555
C52A C51A 1_555 1_555
H59A C52A 1_555 1_555
H60A C52A 1_555 1_555
H61A C52A 1_555 1_555
C53A C51A 1_555 1_555
H62A C53A 1_555 1_555
H63A C53A 1_555 1_555
H64A C53A 1_555 1_555
C54A C51A 1_555 1_555
H65A C54A 1_555 1_555
H66A C54A 1_555 1_555
H67A C54A 1_555 1_555
C55A C6A 1_555 1_555
H68A C55A 1_555 1_555
H69A C55A 1_555 1_555
C56A H70A 1_555 1_555
H71A C56A 1_555 1_555
C57A O6A 1_555 1_555
H72A C57A 1_555 1_555
H73A C57A 1_555 1_555
C58A O6A 1_555 1_555
H74A C58A 1_555 1_555
H75A C58A 1_555 1_555
C59A C56A 1_555 1_555
H76A C59A 1_555 1_555
H77A C59A 1_555 1_555
C5 C6 1_555 1_555
C12 C13 1_555 1_555
C16 C17 1_555 1_555
C23 C24 1_555 1_555
C27 C28 1_555 1_555
C34 C35 1_555 1_555
C38 C39 1_555 1_555
C45 C50 1_555 1_555
C49 C50 1_555 1_555
C49 C55 1_555 1_555
C56 C57 1_555 1_555
C58 C59 1_555 1_555
Na1A O4A 1_555 1_555
C5A C6A 1_555 1_555
C12A C13A 1_555 1_555
C16A C17A 1_555 1_555
C23A C24A 1_555 1_555
C27A C28A 1_555 1_555
C34A C35A 1_555 1_555
C38A C39A 1_555 1_555
C45A C50A 1_555 1_555
C49A C50A 1_555 1_555
C49A C55A 1_555 1_555
C56A C57A 1_555 1_555
C58A C59A 1_555 1_555

#END
