
#######################################################################
#
#                 Cambridge Crystallographic Data Centre
#                                CCDC 
#
#######################################################################
#
# If this CIF has been generated from an entry in the Cambridge 
# Structural Database, then it will include bibliographic, chemical, 
# crystal, experimental, refinement or atomic coordinate data resulting 
# from the CCDC's data processing and validation procedures.
#
#######################################################################

data_FOVZAS
_chemical_name_common            
"(-)-Dimethyl 3,3'-diphenyl-2,2'-[pyridine-2,6-diylbis(carbonylimino)]dipropanoate"
_chemical_formula_moiety         'C27 H27 N3 O6'
_chemical_name_systematic        
"(-)-Dimethyl 2,2'-(2,6-pyridinediylbis(carbonylimino))bis(3-phenylpropanoate)"
_symmetry_cell_setting           orthorhombic
_symmetry_space_group_name_H-M   'P 21 21 21'
_symmetry_Int_Tables_number      19
_space_group_name_Hall           'P 2ac 2ab'
loop_
_symmetry_equiv_pos_site_id
_symmetry_equiv_pos_as_xyz
1 x,y,z
2 1/2-x,-y,1/2+z
3 -x,1/2+y,1/2-z
4 1/2+x,1/2-y,-z
_cell_length_a                   9.1549(11)
_cell_length_b                   9.9319(12)
_cell_length_c                   27.83(2)
_cell_angle_alpha                90
_cell_angle_beta                 90
_cell_angle_gamma                90
_cell_volume                     2530.46
_exptl_crystal_colour            colorless
_exptl_crystal_description       prism
_chemical_melting_point          '403-404 K'
_cell_formula_units_Z            4
_exptl_crystal_recrystallization_method 'ethanol/diisopropyl ether'
loop_
_atom_site_label
_atom_site_type_symbol
_atom_site_fract_x
_atom_site_fract_y
_atom_site_fract_z
O1 O 0.2953(3) 0.1251(2) -0.02271(8)
O2 O 0.6669(3) 0.1803(3) 0.19298(10)
O3 O 0.5457(4) 0.3451(4) -0.13664(12)
O4 O 0.687(6) 0.228(3) -0.0887(8)
O5 O 0.5417(3) 0.5103(4) 0.17725(10)
O6 O 0.6902(3) 0.4951(4) 0.23889(10)
N1 N 0.5319(3) 0.1704(3) 0.07475(9)
N2 N 0.4923(3) 0.2592(3) -0.01478(9)
H1 H 0.5678 0.2767 0.0025
N3 N 0.7013(3) 0.3214(3) 0.13144(10)
H2 H 0.6951 0.3330 0.1009
C1 C 0.4044(3) 0.1610(3) -0.00050(11)
C2 C 0.4433(3) 0.0987(3) 0.04660(11)
C3 C 0.3850(4) -0.0227(3) 0.06022(14)
H3 H 0.3274 -0.0720 0.0391
C4 C 0.4132(4) -0.0703(4) 0.10552(16)
H4 H 0.3743 -0.1520 0.1156
C5 C 0.4999(4) 0.0044(4) 0.13576(14)
H5 H 0.5191 -0.0246 0.1669
C6 C 0.5579(4) 0.1239(3) 0.11873(12)
C7 C 0.6480(4) 0.2102(4) 0.15113(13)
C8 C 0.5704(5) 0.2909(4) -0.09640(15)
C9 C 0.4695(4) 0.3387(3) -0.05746(12)
H6 H 0.3687 0.3254 -0.0683
C10 C 0.4920(4) 0.4888(4) -0.04709(13)
H7 H 0.5885 0.5015 -0.0334
H8 H 0.4885 0.5379 -0.0772
C11 C 0.3809(4) 0.5473(3) -0.01345(13)
C12 C 0.2661(5) 0.6211(5) -0.03059(18)
H9 H 0.2566 0.6349 -0.0635
C13 C 0.1648(5) 0.6748(5) 0.0002(3)
H10 H 0.0881 0.7256 -0.0121
C14 C 0.1745(7) 0.6555(6) 0.0479(3)
H11 H 0.1050 0.6917 0.0685
C15 C 0.2870(9) 0.5825(5) 0.0652(2)
H12 H 0.2950 0.5683 0.0981
C16 C 0.3896(6) 0.5291(5) 0.03496(16)
H13 H 0.4666 0.4796 0.0477
C17 C 0.6428(7) 0.3105(6) -0.17656(16)
H14 H 0.6814 0.2216 -0.1717
H15 H 0.7218 0.3740 -0.1780
H16 H 0.5891 0.3131 -0.2062
C18 C 0.6648(4) 0.4771(5) 0.19758(15)
C19 C 0.7696(4) 0.4234(4) 0.16093(12)
H17 H 0.8507 0.3809 0.1782
C20 C 0.8326(5) 0.5343(4) 0.12987(13)
H18 H 0.9090 0.4966 0.1098
H19 H 0.7565 0.5681 0.1088
C21 C 0.8940(4) 0.6484(4) 0.15781(13)
C22 C 0.8182(6) 0.7669(4) 0.16388(15)
H20 H 0.7274 0.7766 0.1493
C23 C 0.8722(6) 0.8708(5) 0.19077(17)
H21 H 0.8181 0.9494 0.1945
C24 C 1.0036(6) 0.8593(5) 0.21183(15)
H22 H 1.0415 0.9304 0.2297
C25 C 1.0805(5) 0.7442(5) 0.20703(16)
H23 H 1.1707 0.7355 0.2221
C26 C 1.0258(5) 0.6390(5) 0.17983(16)
H24 H 1.0804 0.5605 0.1766
C27 C 0.440(2) 0.592(5) 0.2070(10)
H25 H 0.3787 0.5336 0.2256
H26 H 0.3802 0.6469 0.1864
H27 H 0.4951 0.6491 0.2281
C28? C 0.425(4) 0.506(11) 0.220(2)
H28? H 0.4288 0.4196 0.2350
H29? H 0.3294 0.5207 0.2067
H30? H 0.4475 0.5751 0.2425
O7? O 0.614(14) 0.190(8) -0.0963(17)
loop_
_geom_bond_atom_site_label_1
_geom_bond_atom_site_label_2
_geom_bond_site_symmetry_1
_geom_bond_site_symmetry_2
O1 C1 1_555 1_555
O2 C7 1_555 1_555
O3 C8 1_555 1_555
O4 C8 1_555 1_555
O5 C18 1_555 1_555
O6 C18 1_555 1_555
N1 C2 1_555 1_555
N2 H1 1_555 1_555
N3 H2 1_555 1_555
C1 N2 1_555 1_555
C2 C1 1_555 1_555
C3 C2 1_555 1_555
H3 C3 1_555 1_555
C4 C3 1_555 1_555
H4 C4 1_555 1_555
C5 C4 1_555 1_555
H5 C5 1_555 1_555
C6 N1 1_555 1_555
C7 N3 1_555 1_555
C8 C9 1_555 1_555
C9 N2 1_555 1_555
H6 C9 1_555 1_555
C10 C9 1_555 1_555
H7 C10 1_555 1_555
H8 C10 1_555 1_555
C11 C10 1_555 1_555
C12 C11 1_555 1_555
H9 C12 1_555 1_555
C13 C12 1_555 1_555
H10 C13 1_555 1_555
C14 C13 1_555 1_555
H11 C14 1_555 1_555
C15 C14 1_555 1_555
H12 C15 1_555 1_555
C16 C11 1_555 1_555
H13 C16 1_555 1_555
C17 O3 1_555 1_555
H14 C17 1_555 1_555
H15 C17 1_555 1_555
H16 C17 1_555 1_555
C18 C19 1_555 1_555
C19 N3 1_555 1_555
H17 C19 1_555 1_555
C20 C19 1_555 1_555
H18 C20 1_555 1_555
H19 C20 1_555 1_555
C21 C20 1_555 1_555
C22 C21 1_555 1_555
H20 C22 1_555 1_555
C23 C22 1_555 1_555
H21 C23 1_555 1_555
C24 C23 1_555 1_555
H22 C24 1_555 1_555
C25 C24 1_555 1_555
H23 C25 1_555 1_555
C26 C21 1_555 1_555
H24 C26 1_555 1_555
C27 O5 1_555 1_555
H25 C27 1_555 1_555
H26 C27 1_555 1_555
H27 C27 1_555 1_555
C5 C6 1_555 1_555
C6 C7 1_555 1_555
C15 C16 1_555 1_555
C25 C26 1_555 1_555

#END
