
#######################################################################
#
#                 Cambridge Crystallographic Data Centre
#                                CCDC 
#
#######################################################################
#
# If this CIF has been generated from an entry in the Cambridge 
# Structural Database, then it will include bibliographic, chemical, 
# crystal, experimental, refinement or atomic coordinate data resulting 
# from the CCDC's data processing and validation procedures.
#
#######################################################################

data_FOWHAC
_chemical_formula_moiety         'C14 H17 N1 O3 S1'
_chemical_name_systematic        
'9-ethyl-8-methyl-8,9-dihydro-7H-pyrido[1,2-b][1,2]benzothiazol-7-ol 5,5-dioxide'
_symmetry_cell_setting           orthorhombic
_symmetry_space_group_name_H-M   'P 21 21 21'
_symmetry_Int_Tables_number      19
_space_group_name_Hall           'P 2ac 2ab'
loop_
_symmetry_equiv_pos_site_id
_symmetry_equiv_pos_as_xyz
1 x,y,z
2 1/2-x,-y,1/2+z
3 1/2+x,1/2-y,-z
4 -x,1/2+y,1/2-z
_cell_length_a                   8.0008(13)
_cell_length_b                   8.3075(13)
_cell_length_c                   20.717(3)
_cell_angle_alpha                90
_cell_angle_beta                 90
_cell_angle_gamma                90
_cell_volume                     1376.99
_cell_formula_units_Z            4
loop_
_atom_site_label
_atom_site_type_symbol
_atom_site_fract_x
_atom_site_fract_y
_atom_site_fract_z
C1 C 1.0083(7) 0.4034(7) 0.2085(3)
H1 H 0.8931 0.4257 0.2085
C2 C 0.8445(6) 0.3728(8) 0.3489(3)
H2 H 0.7581 0.3719 0.3181
C3 C 1.1011(7) 0.3725(8) 0.4423(3)
H3 H 1.1870 0.3747 0.4733
S1 S 1.33352(15) 0.3687(2) 0.34154(6)
O1 O 1.5244(5) 0.3336(6) 0.2192(3)
H4 H 1.5265 0.2364 0.2100
O2 O 1.4154(5) 0.5209(6) 0.3477(2)
O3 O 1.4287(5) 0.2336(6) 0.3626(2)
C4 C 0.8091(7) 0.3741(8) 0.4136(3)
H5 H 0.6969 0.3773 0.4269
C5 C 0.9341(7) 0.3708(9) 0.4600(3)
H6 H 0.9051 0.3674 0.5039
C6 C 1.3615(6) 0.3922(8) 0.2123(3)
H7 H 1.3657 0.5112 0.2107
C7 C 1.2741(7) 0.3308(8) 0.1509(3)
H8 H 1.2639 0.2123 0.1542
C8 C 1.0824(6) 0.3756(7) 0.2645(3)
C9 C 1.0982(7) 0.4014(8) 0.1450(3)
H9 H 1.1102 0.5145 0.1307
C10 C 1.1350(5) 0.3707(7) 0.3767(2)
C11 C 1.0131(6) 0.3729(7) 0.3294(2)
N1 N 1.2574(5) 0.3434(6) 0.2678(2)
C12 C 1.3825(8) 0.3693(11) 0.0928(3)
H10 H 1.3881 0.4850 0.0870
H11 H 1.3345 0.3202 0.0546
H12 H 1.4941 0.3271 0.0997
C13 C 0.8477(10) 0.4010(12) 0.0704(4)
H13 H 0.7755 0.3296 0.0460
H14 H 0.8841 0.4888 0.0429
H15 H 0.7867 0.4441 0.1070
C14 C 0.9924(9) 0.3122(9) 0.0932(3)
H16 H 1.0643 0.2877 0.0562
H17 H 0.9543 0.2096 0.1114
loop_
_geom_bond_atom_site_label_1
_geom_bond_atom_site_label_2
_geom_bond_site_symmetry_1
_geom_bond_site_symmetry_2
C1 H1 1_555 1_555
C2 H2 1_555 1_555
C3 H3 1_555 1_555
S1 O2 1_555 1_555
O1 H4 1_555 1_555
O3 S1 1_555 1_555
C4 C2 1_555 1_555
H5 C4 1_555 1_555
C5 C3 1_555 1_555
H6 C5 1_555 1_555
C6 O1 1_555 1_555
H7 C6 1_555 1_555
C7 C6 1_555 1_555
H8 C7 1_555 1_555
C8 C1 1_555 1_555
C9 C1 1_555 1_555
H9 C9 1_555 1_555
C10 C3 1_555 1_555
C11 C2 1_555 1_555
N1 S1 1_555 1_555
C12 C7 1_555 1_555
H10 C12 1_555 1_555
H11 C12 1_555 1_555
H12 C12 1_555 1_555
C13 H13 1_555 1_555
H14 C13 1_555 1_555
H15 C13 1_555 1_555
C14 C9 1_555 1_555
H16 C14 1_555 1_555
H17 C14 1_555 1_555
S1 C10 1_555 1_555
C4 C5 1_555 1_555
C6 N1 1_555 1_555
C7 C9 1_555 1_555
C8 C11 1_555 1_555
C8 N1 1_555 1_555
C10 C11 1_555 1_555
C13 C14 1_555 1_555

#END
