
#######################################################################
#
#                 Cambridge Crystallographic Data Centre
#                                CCDC 
#
#######################################################################
#
# If this CIF has been generated from an entry in the Cambridge 
# Structural Database, then it will include bibliographic, chemical, 
# crystal, experimental, refinement or atomic coordinate data resulting 
# from the CCDC's data processing and validation procedures.
#
#######################################################################

data_FOWQIS
_chemical_name_common            
2-(2-((1,3-Benzodioxol-5-ylmethylene)amino)ethyl)-3',6'-bis(ethylamino)-2',7'-dimethylspiro[isoindole-1,9'-xanthen]-3(2H)-one
_chemical_formula_moiety         'C36 H36 N4 O4'
_chemical_name_systematic        
3',6'-bis(Ethylamino)-2',7'-dimethyl-2-(2-((E)-3,4-methylenedioxybenzylideneamino)ethyl)spiro[isoindoline-1,9'-xanthen]-3-one
_symmetry_cell_setting           triclinic
_symmetry_space_group_name_H-M   'P -1'
_symmetry_Int_Tables_number      2
_space_group_name_Hall           '-P 1'
loop_
_symmetry_equiv_pos_site_id
_symmetry_equiv_pos_as_xyz
1 x,y,z
2 -x,-y,-z
_cell_length_a                   9.561(4)
_cell_length_b                   12.262(5)
_cell_length_c                   13.005(6)
_cell_angle_alpha                93.623(8)
_cell_angle_beta                 92.078(8)
_cell_angle_gamma                92.827(7)
_cell_volume                     1518.58
_exptl_crystal_colour            colorless
_exptl_crystal_description       block
_cell_formula_units_Z            2
_exptl_crystal_recrystallization_method acetonitrile
loop_
_atom_site_label
_atom_site_type_symbol
_atom_site_fract_x
_atom_site_fract_y
_atom_site_fract_z
C1 C 1.0868(2) 1.00378(15) -0.21394(16)
H1 H 1.0771 1.0680 -0.1692
H2 H 1.0286 1.0075 -0.2752
H3 H 1.1828 0.9996 -0.2323
C2 C 1.0422(2) 0.90267(15) -0.15876(15)
H4 H 0.9451 0.9067 -0.1404
H5 H 1.0499 0.8378 -0.2044
C3 C 1.1025(2) 0.81736(15) 0.00388(15)
C4 C 1.1834(2) 0.82230(15) 0.09733(15)
C5 C 1.15344(19) 0.74560(14) 0.16730(14)
H6 H 1.2072 0.7484 0.2285
C6 C 1.04600(19) 0.66337(14) 0.15110(14)
C7 C 0.97058(19) 0.66070(14) 0.05864(14)
C8 C 0.99800(19) 0.73535(14) -0.01517(14)
H7 H 0.9462 0.7303 -0.0774
C9 C 1.2989(2) 0.91013(15) 0.11943(16)
H8 H 1.2585 0.9796 0.1321
H9 H 1.3576 0.9130 0.0612
H10 H 1.3540 0.8936 0.1791
C10 C 1.01167(19) 0.58503(14) 0.23360(14)
C11 C 0.89724(18) 0.50054(14) 0.19301(14)
C12 C 0.82788(19) 0.50651(14) 0.09922(15)
C13 C 0.71638(19) 0.43470(14) 0.06531(15)
H11 H 0.6713 0.4423 0.0018
C14 C 0.6722(2) 0.35141(15) 0.12629(15)
C15 C 0.7419(2) 0.34181(15) 0.22286(15)
C16 C 0.85157(19) 0.41539(14) 0.25314(14)
H12 H 0.8976 0.4083 0.3164
C17 C 0.6979(2) 0.25228(15) 0.29171(16)
H13 H 0.7611 0.2543 0.3509
H14 H 0.6999 0.1824 0.2542
H15 H 0.6046 0.2633 0.3137
C18 C 0.4790(2) 0.28637(16) -0.00008(17)
H16 H 0.5399 0.2817 -0.0581
H17 H 0.4365 0.3566 0.0010
C19 C 0.3653(2) 0.19525(17) -0.01317(19)
H18 H 0.4075 0.1257 -0.0159
H19 H 0.3116 0.2023 -0.0760
H20 H 0.3049 0.2001 0.0441
C20 C 1.14037(19) 0.53312(14) 0.27722(14)
C21 C 1.2363(2) 0.47156(14) 0.22513(15)
H21 H 1.2253 0.4545 0.1545
C22 C 1.3490(2) 0.43615(15) 0.28146(17)
H22 H 1.4161 0.3964 0.2478
C23 C 1.3639(2) 0.45904(16) 0.38774(17)
H23 H 1.4399 0.4338 0.4243
C24 C 1.2665(2) 0.51889(15) 0.43903(15)
H24 H 1.2754 0.5340 0.5100
C25 C 1.15530(19) 0.55590(14) 0.38242(14)
C26 C 1.0429(2) 0.62796(15) 0.41636(16)
C27 C 0.86305(19) 0.72948(14) 0.32757(15)
H25 H 0.8826 0.7745 0.2706
H26 H 0.8758 0.7761 0.3906
C28 C 0.7120(2) 0.68842(16) 0.31699(18)
H27 H 0.6937 0.6478 0.2510
H28 H 0.6904 0.6404 0.3714
C29 C 0.5234(2) 0.77978(17) 0.38177(17)
H29 H 0.5086 0.7161 0.4160
C30 C 0.4246(2) 0.86726(16) 0.39934(16)
C31 C 0.3017(2) 0.84294(16) 0.44650(16)
H30 H 0.2865 0.7731 0.4692
C32 C 0.1989(2) 0.91831(17) 0.46180(17)
H31 H 0.1159 0.9008 0.4936
C33 C 0.2274(2) 1.01850(17) 0.42755(17)
C34 C 0.3508(2) 1.04583(17) 0.38140(17)
C35 C 0.4526(2) 0.97297(16) 0.36598(16)
H32 H 0.5359 0.9920 0.3352
C36 C 0.2187(2) 1.19285(17) 0.38506(19)
H33 H 0.2343 1.2557 0.4340
H34 H 0.1657 1.2152 0.3256
N1 N 0.96564(15) 0.64561(11) 0.32967(11)
N2 N 0.62548(19) 0.78474(14) 0.32444(15)
N3 N 1.1293(2) 0.89507(15) -0.06710(14)
O1 O 0.86117(13) 0.58540(10) 0.03119(9)
N4 N 0.56092(19) 0.27858(15) 0.09466(16)
O2 O 1.02493(14) 0.66716(10) 0.50372(10)
O3 O 0.34971(16) 1.15342(11) 0.35415(14)
O4 O 0.14296(15) 1.10722(12) 0.43125(13)
H35 H 0.542(2) 0.2270(15) 0.1319(15)
H36 H 1.183(2) 0.9440(15) -0.0491(15)
loop_
_geom_bond_atom_site_label_1
_geom_bond_atom_site_label_2
_geom_bond_site_symmetry_1
_geom_bond_site_symmetry_2
C1 H1 1_555 1_555
H2 C1 1_555 1_555
H3 C1 1_555 1_555
C2 C1 1_555 1_555
H4 C2 1_555 1_555
H5 C2 1_555 1_555
C3 C4 1_555 1_555
C4 C5 1_555 1_555
C5 H6 1_555 1_555
C6 C5 1_555 1_555
C7 C6 1_555 1_555
C8 C3 1_555 1_555
H7 C8 1_555 1_555
C9 C4 1_555 1_555
H8 C9 1_555 1_555
H9 C9 1_555 1_555
H10 C9 1_555 1_555
C10 C6 1_555 1_555
C11 C10 1_555 1_555
C12 C11 1_555 1_555
C13 C12 1_555 1_555
H11 C13 1_555 1_555
C14 C13 1_555 1_555
C15 C14 1_555 1_555
C16 C11 1_555 1_555
H12 C16 1_555 1_555
C17 C15 1_555 1_555
H13 C17 1_555 1_555
H14 C17 1_555 1_555
H15 C17 1_555 1_555
C18 H16 1_555 1_555
H17 C18 1_555 1_555
C19 C18 1_555 1_555
H18 C19 1_555 1_555
H19 C19 1_555 1_555
H20 C19 1_555 1_555
C20 C10 1_555 1_555
C21 C20 1_555 1_555
H21 C21 1_555 1_555
C22 C21 1_555 1_555
H22 C22 1_555 1_555
C23 C22 1_555 1_555
H23 C23 1_555 1_555
C24 C23 1_555 1_555
H24 C24 1_555 1_555
C25 C20 1_555 1_555
C26 C25 1_555 1_555
C27 H25 1_555 1_555
H26 C27 1_555 1_555
C28 C27 1_555 1_555
H27 C28 1_555 1_555
H28 C28 1_555 1_555
C29 H29 1_555 1_555
C30 C29 1_555 1_555
C31 C30 1_555 1_555
H30 C31 1_555 1_555
C32 C31 1_555 1_555
H31 C32 1_555 1_555
C33 C32 1_555 1_555
C34 C33 1_555 1_555
C35 C30 1_555 1_555
H32 C35 1_555 1_555
C36 H33 1_555 1_555
H34 C36 1_555 1_555
N1 C10 1_555 1_555
N2 C28 1_555 1_555
N3 C2 1_555 1_555
O1 C7 1_555 1_555
N4 C14 1_555 1_555
O2 C26 1_555 1_555
O3 C34 1_555 1_555
O4 C33 1_555 1_555
H35 N4 1_555 1_555
H36 N3 1_555 1_555
C3 N3 1_555 1_555
C7 C8 1_555 1_555
C12 O1 1_555 1_555
C15 C16 1_555 1_555
C18 N4 1_555 1_555
C24 C25 1_555 1_555
C26 N1 1_555 1_555
C27 N1 1_555 1_555
C29 N2 1_555 1_555
C34 C35 1_555 1_555
C36 O3 1_555 1_555
C36 O4 1_555 1_555

#END
