
#######################################################################
#
#                 Cambridge Crystallographic Data Centre
#                                CCDC 
#
#######################################################################
#
# If this CIF has been generated from an entry in the Cambridge 
# Structural Database, then it will include bibliographic, chemical, 
# crystal, experimental, refinement or atomic coordinate data resulting 
# from the CCDC's data processing and validation procedures.
#
#######################################################################

data_FOXVUL
_chemical_formula_moiety         'C24 H17 Cl1 N4,C1 H4 O1'
_chemical_name_systematic        
'6-(2-chloro-6-methylquinolin-3-yl)-5,6-dihydrobenzimidazo[1,2-c]quinazoline methanol solvate'
_symmetry_cell_setting           monoclinic
_symmetry_space_group_name_H-M   'P 21/c'
_symmetry_Int_Tables_number      14
_space_group_name_Hall           '-P 2ybc'
loop_
_symmetry_equiv_pos_site_id
_symmetry_equiv_pos_as_xyz
1 x,y,z
2 -x,1/2+y,1/2-z
3 -x,-y,-z
4 x,1/2-y,1/2+z
_cell_length_a                   12.708(3)
_cell_length_b                   18.351(3)
_cell_length_c                   9.0615(17)
_cell_angle_alpha                90
_cell_angle_beta                 92.622(6)
_cell_angle_gamma                90
_cell_volume                     2110.97
_exptl_crystal_colour            colorless
_exptl_crystal_description       Needles
_cell_formula_units_Z            4
loop_
_atom_site_label
_atom_site_type_symbol
_atom_site_fract_x
_atom_site_fract_y
_atom_site_fract_z
C1 C 0.5189(3) 0.9465(2) 0.3458(4)
C2 C 0.6090(3) 0.9249(3) 0.4312(5)
H1 H 0.6715 0.9510 0.4259
C3 C 0.6044(4) 0.8663(3) 0.5207(5)
H2 H 0.6647 0.8531 0.5763
C4 C 0.5132(3) 0.8243(2) 0.5341(4)
C5 C 0.4237(3) 0.8457(2) 0.4527(4)
H3 H 0.3615 0.8197 0.4616
C6 C 0.4248(3) 0.9055(2) 0.3575(4)
C7 C 0.3375(3) 0.9275(2) 0.2659(4)
H4 H 0.2744 0.9021 0.2705
C8 C 0.3427(3) 0.9847(2) 0.1714(4)
C9 C 0.4406(3) 1.0223(2) 0.1742(4)
C10 C 0.2544(3) 1.0052(2) 0.0585(5)
H5 H 0.2568 1.0577 0.0393
C11 C 0.0936(4) 1.0267(3) 0.2100(5)
C12 C 0.1095(5) 1.0938(3) 0.2728(6)
H6 H 0.1687 1.1215 0.2538
C13 C 0.0351(7) 1.1186(3) 0.3643(7)
H7 H 0.0433 1.1639 0.4096
C14 C -0.0547(6) 1.0753(4) 0.3905(6)
H8 H -0.1050 1.0926 0.4531
C15 C -0.0686(4) 1.0089(3) 0.3254(6)
H9 H -0.1275 0.9807 0.3426
C16 C 0.0070(4) 0.9850(3) 0.2337(5)
C17 C 0.0982(3) 0.9241(2) 0.0832(5)
C18 C 0.1436(3) 0.8717(2) -0.0197(4)
C19 C 0.0976(4) 0.8023(2) -0.0486(5)
H10 H 0.0394 0.7869 0.0016
C20 C 0.1415(4) 0.7579(2) -0.1537(5)
H11 H 0.1127 0.7123 -0.1742
C21 C 0.2264(4) 0.7811(3) -0.2266(5)
H12 H 0.2549 0.7509 -0.2968
C22 C 0.2709(4) 0.8478(3) -0.1988(5)
H13 H 0.3294 0.8623 -0.2494
C23 C 0.2297(3) 0.8931(2) -0.0973(5)
C24 C 0.5123(4) 0.7595(2) 0.6351(5)
H14 H 0.4490 0.7319 0.6153
H15 H 0.5150 0.7757 0.7359
H16 H 0.5724 0.7293 0.6185
N1 N 0.5244(2) 1.00552(17) 0.2534(4)
N2 N 0.1521(3) 0.98603(19) 0.1089(4)
N3 N 0.0107(3) 0.9179(2) 0.1508(4)
N4 N 0.2673(3) 0.9654(2) -0.0801(4)
Cl1 Cl 0.45193(9) 1.09880(6) 0.06175(13)
H17 H 0.323(4) 0.979(4) -0.122(9)
C25 C 0.1879(7) 0.1980(5) 0.7543(13)
H18 H 0.1220 0.2059 0.7007
H19 H 0.2292 0.1637 0.7018
H20 H 0.2254 0.2433 0.7641
O1 O 0.1695(5) 0.1711(4) 0.8913(8)
H21 H 0.1076 0.1590 0.8944
loop_
_geom_bond_atom_site_label_1
_geom_bond_atom_site_label_2
_geom_bond_site_symmetry_1
_geom_bond_site_symmetry_2
C1 C2 1_555 1_555
C2 H1 1_555 1_555
C3 C2 1_555 1_555
H2 C3 1_555 1_555
C4 C3 1_555 1_555
C5 C4 1_555 1_555
H3 C5 1_555 1_555
C6 C1 1_555 1_555
C7 C6 1_555 1_555
H4 C7 1_555 1_555
C8 C7 1_555 1_555
C9 C8 1_555 1_555
C10 C8 1_555 1_555
H5 C10 1_555 1_555
C11 C12 1_555 1_555
C12 H6 1_555 1_555
C13 C12 1_555 1_555
H7 C13 1_555 1_555
C14 C13 1_555 1_555
H8 C14 1_555 1_555
C15 C14 1_555 1_555
H9 C15 1_555 1_555
C16 C11 1_555 1_555
C17 C18 1_555 1_555
C18 C19 1_555 1_555
C19 H10 1_555 1_555
C20 C19 1_555 1_555
H11 C20 1_555 1_555
C21 C20 1_555 1_555
H12 C21 1_555 1_555
C22 C21 1_555 1_555
H13 C22 1_555 1_555
C23 C18 1_555 1_555
C24 C4 1_555 1_555
H14 C24 1_555 1_555
H15 C24 1_555 1_555
H16 C24 1_555 1_555
N1 C1 1_555 1_555
N2 C10 1_555 1_555
N3 C16 1_555 1_555
N4 C10 1_555 1_555
Cl1 C9 1_555 1_555
H17 N4 1_555 1_555
C25 H18 1_555 1_555
H19 C25 1_555 1_555
H20 C25 1_555 1_555
O1 C25 1_555 1_555
H21 O1 1_555 1_555
C5 C6 1_555 1_555
C9 N1 1_555 1_555
C11 N2 1_555 1_555
C15 C16 1_555 1_555
C17 N2 1_555 1_555
C17 N3 1_555 1_555
C22 C23 1_555 1_555
C23 N4 1_555 1_555

#END
