
#######################################################################
#
#                 Cambridge Crystallographic Data Centre
#                                CCDC 
#
#######################################################################
#
# If this CIF has been generated from an entry in the Cambridge 
# Structural Database, then it will include bibliographic, chemical, 
# crystal, experimental, refinement or atomic coordinate data resulting 
# from the CCDC's data processing and validation procedures.
#
#######################################################################

data_FOXYEY
_chemical_formula_moiety         'C18 H26 N4 O1'
_chemical_name_systematic        
1-(1,3-di-t-butyl-1,3-dihydro-2H-imidazol-2-ylidene)-3-phenylurea
_symmetry_cell_setting           monoclinic
_symmetry_space_group_name_H-M   'P 21/c'
_symmetry_Int_Tables_number      14
_space_group_name_Hall           '-P 2ybc'
loop_
_symmetry_equiv_pos_site_id
_symmetry_equiv_pos_as_xyz
1 x,y,z
2 -x,1/2+y,1/2-z
3 -x,-y,-z
4 x,1/2-y,1/2+z
_cell_length_a                   9.0491(4)
_cell_length_b                   12.7601(5)
_cell_length_c                   16.7496(9)
_cell_angle_alpha                90
_cell_angle_beta                 109.944(4)
_cell_angle_gamma                90
_cell_volume                     1818.04
_exptl_crystal_colour            colorless
_exptl_crystal_description       block
_cell_formula_units_Z            4
loop_
_atom_site_label
_atom_site_type_symbol
_atom_site_fract_x
_atom_site_fract_y
_atom_site_fract_z
O1 O -0.1585(2) 0.05999(15) -0.31444(12)
N1 N -0.3237(2) -0.17313(16) -0.29433(12)
N2 N -0.1647(2) -0.21100(16) -0.36353(12)
N3 N -0.3232(2) -0.05663(15) -0.40850(12)
N4 N -0.3415(3) 0.11546(16) -0.43954(13)
H1 H -0.4197 0.0944 -0.4823
C1 C -0.3280(5) -0.0527(4) -0.1828(3)
H2 H -0.2519 -0.0969 -0.1430
H3 H -0.3924 -0.0194 -0.1550
H4 H -0.2747 -0.0002 -0.2038
C2 C -0.2695(3) -0.13853(19) -0.35587(14)
C3 C -0.2497(3) -0.2671(2) -0.26343(17)
H5 H -0.2647 -0.3071 -0.2204
C4 C -0.4305(4) -0.1185(3) -0.25623(18)
C5 C -0.5187(5) -0.2017(3) -0.2256(3)
H6 H -0.5816 -0.2428 -0.2730
H7 H -0.5855 -0.1685 -0.1992
H8 H -0.4448 -0.2463 -0.1851
C6 C 0.0362(4) -0.3007(3) -0.4073(3)
H9 H 0.1032 -0.3017 -0.3488
H10 H 0.0993 -0.2963 -0.4430
H11 H -0.0254 -0.3637 -0.4201
C7 C -0.1539(3) -0.2904(2) -0.30548(17)
H12 H -0.0905 -0.3496 -0.2974
C8 C -0.5511(4) -0.0493(3) -0.3204(2)
H13 H -0.4984 0.0082 -0.3362
H14 H -0.6246 -0.0228 -0.2955
H15 H -0.6062 -0.0898 -0.3700
C9 C -0.0731(3) -0.2057(2) -0.42310(19)
C10 C -0.2658(3) 0.0386(2) -0.38121(16)
C11 C 0.0265(5) -0.1075(3) -0.4037(3)
H16 H -0.0404 -0.0470 -0.4186
H17 H 0.0961 -0.1078 -0.4360
H18 H 0.0870 -0.1053 -0.3442
C12 C -0.1875(5) -0.2079(4) -0.5131(2)
H19 H -0.2566 -0.2669 -0.5201
H20 H -0.1305 -0.2138 -0.5518
H21 H -0.2480 -0.1444 -0.5245
C13 C -0.3078(3) 0.22241(19) -0.43818(15)
C14 C -0.4088(3) 0.2842(2) -0.50091(17)
H22 H -0.4948 0.2536 -0.5419
C15 C -0.1792(3) 0.2698(2) -0.37859(18)
H23 H -0.1084 0.2297 -0.3362
C16 C -0.3843(4) 0.3903(2) -0.5039(2)
H24 H -0.4538 0.4306 -0.5466
C17 C -0.1565(4) 0.3766(2) -0.3822(2)
H25 H -0.0705 0.4079 -0.3417
C18 C -0.2583(4) 0.4369(2) -0.4443(2)
H26 H -0.2421 0.5087 -0.4461
loop_
_geom_bond_atom_site_label_1
_geom_bond_atom_site_label_2
_geom_bond_site_symmetry_1
_geom_bond_site_symmetry_2
O1 C10 1_555 1_555
N1 C2 1_555 1_555
N2 C2 1_555 1_555
N3 C2 1_555 1_555
N4 H1 1_555 1_555
C1 H2 1_555 1_555
H3 C1 1_555 1_555
H4 C1 1_555 1_555
C3 N1 1_555 1_555
H5 C3 1_555 1_555
C4 N1 1_555 1_555
C5 C4 1_555 1_555
H6 C5 1_555 1_555
H7 C5 1_555 1_555
H8 C5 1_555 1_555
C6 H9 1_555 1_555
H10 C6 1_555 1_555
H11 C6 1_555 1_555
C7 N2 1_555 1_555
H12 C7 1_555 1_555
C8 C4 1_555 1_555
H13 C8 1_555 1_555
H14 C8 1_555 1_555
H15 C8 1_555 1_555
C9 N2 1_555 1_555
C10 N3 1_555 1_555
C11 C9 1_555 1_555
H16 C11 1_555 1_555
H17 C11 1_555 1_555
H18 C11 1_555 1_555
C12 C9 1_555 1_555
H19 C12 1_555 1_555
H20 C12 1_555 1_555
H21 C12 1_555 1_555
C13 N4 1_555 1_555
C14 C13 1_555 1_555
H22 C14 1_555 1_555
C15 C13 1_555 1_555
H23 C15 1_555 1_555
C16 C14 1_555 1_555
H24 C16 1_555 1_555
C17 C15 1_555 1_555
H25 C17 1_555 1_555
C18 C16 1_555 1_555
H26 C18 1_555 1_555
N4 C10 1_555 1_555
C1 C4 1_555 1_555
C3 C7 1_555 1_555
C6 C9 1_555 1_555
C17 C18 1_555 1_555

#END
