
#######################################################################
#
#                 Cambridge Crystallographic Data Centre
#                                CCDC 
#
#######################################################################
#
# If this CIF has been generated from an entry in the Cambridge 
# Structural Database, then it will include bibliographic, chemical, 
# crystal, experimental, refinement or atomic coordinate data resulting 
# from the CCDC's data processing and validation procedures.
#
#######################################################################

data_FOYHEI
_chemical_formula_moiety         'C34 H39 B1 Li1 N2 O1 Si1 1-,C16 H32 Li1 O4 1+'
_chemical_name_systematic        
'tetrakis(Tetrahydrofuran)-lithium (9-(((6-(2-(diethylboryl)phenyl)pyridin-2-yl)azanidyl)(dimethyl)silyl)-9H-fluoren-9-yl)-tetrahydrofuran-lithium'
_symmetry_cell_setting           monoclinic
_symmetry_space_group_name_H-M   'P 21/n'
_symmetry_Int_Tables_number      14
_space_group_name_Hall           '-P 2yn'
loop_
_symmetry_equiv_pos_site_id
_symmetry_equiv_pos_as_xyz
1 x,y,z
2 1/2-x,1/2+y,1/2-z
3 -x,-y,-z
4 1/2+x,1/2-y,1/2+z
_cell_length_a                   14.2413(7)
_cell_length_b                   19.4418(9)
_cell_length_c                   17.8883(8)
_cell_angle_alpha                90
_cell_angle_beta                 107.095(2)
_cell_angle_gamma                90
_cell_volume                     4734.03
_exptl_crystal_colour            orange
_exptl_crystal_description       block
_cell_formula_units_Z            4
loop_
_atom_site_label
_atom_site_type_symbol
_atom_site_fract_x
_atom_site_fract_y
_atom_site_fract_z
Si1 Si 0.89491(3) 0.19870(2) 0.15408(2)
N1 N 1.13532(9) 0.31476(7) 0.19002(7)
C1 C 1.05052(11) 0.27912(8) 0.15181(9)
B1 B 1.19163(12) 0.31411(10) 0.28350(10)
Li1 Li 1.0229(2) 0.21340(16) 0.30055(16)
N2 N 1.00500(9) 0.24226(7) 0.19236(7)
C2 C 1.01931(11) 0.28585(9) 0.06770(9)
H1 H 0.9599 0.2642 0.0388
C3 C 1.07136(12) 0.32184(9) 0.02836(9)
H2 H 1.0492 0.3238 -0.0271
C4 C 1.15762(12) 0.35605(9) 0.06943(9)
H3 H 1.1951 0.3813 0.0428
C5 C 1.18601(11) 0.35182(8) 0.14956(9)
C6 C 1.27129(11) 0.38545(8) 0.20427(9)
C7 C 1.33849(12) 0.42851(9) 0.18510(10)
H4 H 1.3334 0.4381 0.1320
C8 C 1.41310(12) 0.45724(10) 0.24500(11)
H5 H 1.4600 0.4867 0.2333
C9 C 1.41897(12) 0.44268(9) 0.32236(11)
H6 H 1.4700 0.4627 0.3633
C10 C 1.35146(11) 0.39943(9) 0.34061(10)
H7 H 1.3565 0.3904 0.3938
C11 C 1.27596(11) 0.36899(8) 0.28137(9)
C12 C 0.86533(11) 0.16343(9) 0.23964(9)
C13 C 0.84558(11) 0.20714(9) 0.29822(9)
C14 C 0.85709(11) 0.27872(9) 0.31120(9)
H8 H 0.8785 0.3067 0.2758
C15 C 0.83726(12) 0.30811(10) 0.37520(10)
H9 H 0.8461 0.3562 0.3837
C16 C 0.80448(13) 0.26843(12) 0.42777(10)
H10 H 0.7917 0.2896 0.4717
C17 C 0.79063(12) 0.19860(12) 0.41592(10)
H11 H 0.7673 0.1719 0.4512
C18 C 0.81070(11) 0.16714(10) 0.35240(9)
C19 C 0.80662(11) 0.09709(10) 0.32705(10)
C20 C 0.77698(13) 0.03690(11) 0.35665(12)
H12 H 0.7555 0.0389 0.4021
C21 C 0.77894(14) -0.02473(11) 0.32022(14)
H13 H 0.7582 -0.0655 0.3401
C22 C 0.81152(13) -0.02781(10) 0.25354(13)
H14 H 0.8123 -0.0709 0.2286
C23 C 0.84254(12) 0.03042(9) 0.22329(11)
H15 H 0.8652 0.0269 0.1785
C24 C 0.84070(11) 0.09508(9) 0.25876(10)
C25 C 0.79465(12) 0.25946(10) 0.10143(9)
H16 H 0.7743 0.2872 0.1397
H17 H 0.7383 0.2331 0.0697
H18 H 0.8190 0.2897 0.0674
C26 C 0.90504(13) 0.12912(9) 0.08407(10)
H19 H 0.9170 0.1499 0.0378
H20 H 0.8438 0.1027 0.0683
H21 H 0.9597 0.0985 0.1096
C27 C 1.12432(11) 0.34227(8) 0.33675(9)
H22 H 1.0832 0.3039 0.3457
H23 H 1.1683 0.3565 0.3883
C28 C 1.05742(12) 0.40252(9) 0.30145(10)
H24 H 1.0969 0.4402 0.2902
H25 H 1.0233 0.4183 0.3386
H26 H 1.0090 0.3878 0.2529
C29 C 1.23959(11) 0.23819(8) 0.30554(9)
H27 H 1.1861 0.2038 0.2959
H28 H 1.2801 0.2272 0.2707
C30 C 1.30341(13) 0.23239(9) 0.39058(9)
H29 H 1.3588 0.2644 0.3997
H30 H 1.3282 0.1853 0.4010
H31 H 1.2640 0.2438 0.4255
O1 O 1.07973(8) 0.16519(6) 0.39689(6)
C31 C 1.12556(15) 0.09908(9) 0.40313(12)
H32 H 1.1941 0.1012 0.4375
H33 H 1.1258 0.0820 0.3510
C32 C 1.06410(15) 0.05352(10) 0.43790(11)
H34 H 1.1036 0.0152 0.4678
H35 H 1.0077 0.0343 0.3967
C33 C 1.02933(13) 0.10189(9) 0.49190(10)
H36 H 1.0654 0.0930 0.5474
H37 H 0.9581 0.0962 0.4845
C34 C 1.05193(12) 0.17403(9) 0.46738(9)
H38 H 0.9933 0.2039 0.4576
H39 H 1.1062 0.1952 0.5088
Li2 Li 0.4111(2) 0.12205(17) 0.18177(17)
O2 O 0.49293(8) 0.08345(7) 0.12371(7)
C35 C 0.46646(14) 0.08897(14) 0.04231(11)
H40 H 0.4037 0.1145 0.0216
H41 H 0.4611 0.0437 0.0168
C36 C 0.5589(5) 0.1328(3) 0.0327(4)
H42 H 0.5617 0.1338 -0.0219
H43 H 0.5609 0.1802 0.0534
C37 C 0.63846(13) 0.08554(11) 0.08618(11)
H44 H 0.6415 0.0402 0.0622
H45 H 0.7045 0.1074 0.1006
C38 C 0.59906(14) 0.08091(16) 0.15416(13)
H46 H 0.6201 0.0373 0.1828
H47 H 0.6235 0.1197 0.1905
O3 O 0.28038(8) 0.11106(6) 0.11302(7)
C39 C 0.19659(12) 0.15604(10) 0.09132(10)
H48 H 0.2173 0.2041 0.0870
H49 H 0.1600 0.1541 0.1305
C40 C 0.13322(13) 0.12984(10) 0.01231(10)
H50 H 0.0631 0.1286 0.0104
H51 H 0.1406 0.1594 -0.0306
C41 C 0.1707(2) 0.05939(13) 0.00623(17)
H52 H 0.2002 0.0569 -0.0374
H53 H 0.1165 0.0255 -0.0034
C42 C 0.24607(15) 0.04482(10) 0.08208(13)
H54 H 0.2168 0.0197 0.1179
H55 H 0.3005 0.0170 0.0739
O4 O 0.42829(8) 0.07574(7) 0.27924(7)
C43 C 0.34764(12) 0.05692(9) 0.30840(10)
H56 H 0.3105 0.0178 0.2784
H57 H 0.3022 0.0962 0.3047
C44 C 0.39477(13) 0.03691(10) 0.39308(10)
H58 H 0.3533 0.0040 0.4114
H59 H 0.4076 0.0777 0.4277
C45 C 0.48994(13) 0.00357(10) 0.38947(10)
H60 H 0.5408 0.0055 0.4409
H61 H 0.4793 -0.0450 0.3723
C46 C 0.51860(13) 0.04695(10) 0.32958(11)
H62 H 0.5641 0.0841 0.3556
H63 H 0.5514 0.0183 0.2989
O5 O 0.45086(10) 0.21561(7) 0.20236(7)
C47 C 0.5255(4) 0.2266(3) 0.2796(3)
H64 H 0.4940 0.2290 0.3221
H65 H 0.5747 0.1891 0.2913
C48 C 0.57080(17) 0.29216(13) 0.27060(12)
H66 H 0.6430 0.2895 0.2957
H67 H 0.5442 0.3292 0.2957
C49 C 0.54996(17) 0.30620(12) 0.18418(12)
H68 H 0.5401 0.3560 0.1729
H69 H 0.6045 0.2897 0.1650
C50 C 0.45691(15) 0.26640(10) 0.14716(11)
H70 H 0.3991 0.2972 0.1356
H71 H 0.4597 0.2447 0.0978
H72? H 0.4213 0.1269 0.0258
H73? H 0.4337 0.0479 0.0190
C51? C 0.5499(5) 0.1003(4) 0.0172(4)
H74? H 0.5514 0.1485 -0.0003
H75? H 0.5491 0.0694 -0.0270
H76? H 0.6859 0.1222 0.0936
H77? H 0.6694 0.0433 0.0790
C52? C 0.4867(3) 0.2543(2) 0.2748(2)
H78? H 0.4352 0.2861 0.2811
H79? H 0.5046 0.2227 0.3202
H80? H 0.6299 0.2650 0.2899
H81? H 0.5782 0.3339 0.2999
loop_
_geom_bond_atom_site_label_1
_geom_bond_atom_site_label_2
_geom_bond_site_symmetry_1
_geom_bond_site_symmetry_2
Si1 N2 1_555 1_555
N1 C1 1_555 1_555
C1 N2 1_555 1_555
B1 C11 1_555 1_555
Li1 N2 1_555 1_555
C2 C1 1_555 1_555
H1 C2 1_555 1_555
C3 C2 1_555 1_555
H2 C3 1_555 1_555
C4 C3 1_555 1_555
H3 C4 1_555 1_555
C5 N1 1_555 1_555
C6 C5 1_555 1_555
C7 C6 1_555 1_555
H4 C7 1_555 1_555
C8 C7 1_555 1_555
H5 C8 1_555 1_555
C9 C8 1_555 1_555
H6 C9 1_555 1_555
C10 C9 1_555 1_555
H7 C10 1_555 1_555
C11 C6 1_555 1_555
C12 Si1 1_555 1_555
C13 C12 1_555 1_555
C14 C13 1_555 1_555
H8 C14 1_555 1_555
C15 C14 1_555 1_555
H9 C15 1_555 1_555
C16 C15 1_555 1_555
H10 C16 1_555 1_555
C17 C16 1_555 1_555
H11 C17 1_555 1_555
C18 C13 1_555 1_555
C19 C18 1_555 1_555
C20 C19 1_555 1_555
H12 C20 1_555 1_555
C21 C20 1_555 1_555
H13 C21 1_555 1_555
C22 C21 1_555 1_555
H14 C22 1_555 1_555
C23 C22 1_555 1_555
H15 C23 1_555 1_555
C24 C12 1_555 1_555
C25 Si1 1_555 1_555
H16 C25 1_555 1_555
H17 C25 1_555 1_555
H18 C25 1_555 1_555
C26 Si1 1_555 1_555
H19 C26 1_555 1_555
H20 C26 1_555 1_555
H21 C26 1_555 1_555
C27 B1 1_555 1_555
H22 C27 1_555 1_555
H23 C27 1_555 1_555
C28 C27 1_555 1_555
H24 C28 1_555 1_555
H25 C28 1_555 1_555
H26 C28 1_555 1_555
C29 B1 1_555 1_555
H27 C29 1_555 1_555
H28 C29 1_555 1_555
C30 C29 1_555 1_555
H29 C30 1_555 1_555
H30 C30 1_555 1_555
H31 C30 1_555 1_555
O1 Li1 1_555 1_555
C31 O1 1_555 1_555
H32 C31 1_555 1_555
H33 C31 1_555 1_555
C32 C31 1_555 1_555
H34 C32 1_555 1_555
H35 C32 1_555 1_555
C33 C32 1_555 1_555
H36 C33 1_555 1_555
H37 C33 1_555 1_555
C34 O1 1_555 1_555
H38 C34 1_555 1_555
H39 C34 1_555 1_555
Li2 O2 1_555 1_555
O2 C35 1_555 1_555
C35 H40 1_555 1_555
H41 C35 1_555 1_555
C36 C35 1_555 1_555
H42 C36 1_555 1_555
H43 C36 1_555 1_555
C37 C36 1_555 1_555
H44 C37 1_555 1_555
H45 C37 1_555 1_555
C38 O2 1_555 1_555
H46 C38 1_555 1_555
H47 C38 1_555 1_555
O3 Li2 1_555 1_555
C39 O3 1_555 1_555
H48 C39 1_555 1_555
H49 C39 1_555 1_555
C40 C39 1_555 1_555
H50 C40 1_555 1_555
H51 C40 1_555 1_555
C41 C40 1_555 1_555
H52 C41 1_555 1_555
H53 C41 1_555 1_555
C42 O3 1_555 1_555
H54 C42 1_555 1_555
H55 C42 1_555 1_555
O4 Li2 1_555 1_555
C43 O4 1_555 1_555
H56 C43 1_555 1_555
H57 C43 1_555 1_555
C44 C43 1_555 1_555
H58 C44 1_555 1_555
H59 C44 1_555 1_555
C45 C44 1_555 1_555
H60 C45 1_555 1_555
H61 C45 1_555 1_555
C46 O4 1_555 1_555
H62 C46 1_555 1_555
H63 C46 1_555 1_555
O5 Li2 1_555 1_555
C47 O5 1_555 1_555
H64 C47 1_555 1_555
H65 C47 1_555 1_555
C48 C47 1_555 1_555
H66 C48 1_555 1_555
H67 C48 1_555 1_555
C49 C48 1_555 1_555
H68 C49 1_555 1_555
H69 C49 1_555 1_555
C50 O5 1_555 1_555
H70 C50 1_555 1_555
H71 C50 1_555 1_555
Li1 C12 1_555 1_555
C4 C5 1_555 1_555
C10 C11 1_555 1_555
C17 C18 1_555 1_555
C19 C24 1_555 1_555
C23 C24 1_555 1_555
C33 C34 1_555 1_555
C37 C38 1_555 1_555
C41 C42 1_555 1_555
C45 C46 1_555 1_555
C49 C50 1_555 1_555

#END
