
#######################################################################
#
#                 Cambridge Crystallographic Data Centre
#                                CCDC 
#
#######################################################################
#
# If this CIF has been generated from an entry in the Cambridge 
# Structural Database, then it will include bibliographic, chemical, 
# crystal, experimental, refinement or atomic coordinate data resulting 
# from the CCDC's data processing and validation procedures.
#
#######################################################################

data_FOYXIC
_chemical_formula_moiety         'C23 H17 I1 O3'
_chemical_name_systematic        
'methyl 2-(2-iodo-3,3-diphenylacryloyl)benzoate'
_symmetry_cell_setting           monoclinic
_symmetry_space_group_name_H-M   'C 2/c'
_symmetry_Int_Tables_number      15
_space_group_name_Hall           '-C 2yn'
loop_
_symmetry_equiv_pos_site_id
_symmetry_equiv_pos_as_xyz
1 x,y,z
2 -x,y,1/2-z
3 1/2+x,1/2+y,z
4 1/2-x,1/2+y,1/2-z
5 -x,-y,-z
6 x,-y,1/2+z
7 1/2-x,1/2-y,-z
8 1/2+x,1/2-y,1/2+z
_cell_length_a                   26.291(14)
_cell_length_b                   8.781(5)
_cell_length_c                   18.363(10)
_cell_angle_alpha                90
_cell_angle_beta                 111.863(4)
_cell_angle_gamma                90
_cell_volume                     3934.4
_exptl_crystal_colour            yellow
_exptl_crystal_description       block
_cell_formula_units_Z            8
loop_
_atom_site_label
_atom_site_type_symbol
_atom_site_fract_x
_atom_site_fract_y
_atom_site_fract_z
C1 C 0.08427(11) -0.1591(3) 0.95481(16)
H1 H 0.0863 -0.1522 1.0063
C2 C 0.09717(12) -0.2935(3) 0.92771(19)
H2 H 0.1077 -0.3774 0.9609
C3 C 0.09460(13) -0.3048(4) 0.8525(2)
H3 H 0.1041 -0.3955 0.8347
C4 C 0.07808(14) -0.1829(4) 0.80326(18)
H4 H 0.0760 -0.1912 0.7517
C5 C 0.06440(11) -0.0477(3) 0.82922(15)
H5 H 0.0525 0.0345 0.7951
C6 C 0.06840(10) -0.0343(3) 0.90617(14)
C7 C 0.05548(10) 0.1126(3) 0.93493(14)
C8 C 0.09032(11) 0.1743(3) 1.00151(14)
C9 C 0.14702(11) 0.1202(3) 1.04754(15)
C10 C 0.18369(10) 0.0814(3) 1.00519(14)
C11 C 0.17991(11) 0.1579(3) 0.93755(16)
H6 H 0.1517 0.2273 0.9153
C12 C 0.21722(13) 0.1329(4) 0.90262(18)
H7 H 0.2144 0.1858 0.8574
C13 C 0.25869(13) 0.0293(4) 0.93489(18)
H8 H 0.2837 0.0108 0.9111
C14 C 0.26316(12) -0.0463(3) 1.00186(17)
H9 H 0.2914 -0.1159 1.0235
C15 C 0.22645(11) -0.0211(3) 1.03793(15)
C16 C 0.23178(13) -0.1130(3) 1.10928(18)
C17 C 0.28986(18) -0.1854(6) 1.2348(2)
H10 H 0.2571 -0.1898 1.2464
H11 H 0.3191 -0.1422 1.2787
H12 H 0.2998 -0.2863 1.2250
C18 C 0.00268(11) 0.1826(3) 0.88646(14)
C19 C 0.00095(13) 0.3268(3) 0.85585(16)
H13 H 0.0332 0.3819 0.8674
C20 C -0.04818(16) 0.3901(4) 0.80828(18)
H14 H -0.0488 0.4866 0.7871
C21 C -0.09539(16) 0.3124(5) 0.79234(19)
H15 H -0.1285 0.3566 0.7612
C22 C -0.09488(13) 0.1689(4) 0.82160(19)
H16 H -0.1275 0.1160 0.8105
C23 C -0.04577(12) 0.1030(3) 0.86762(16)
H17 H -0.0453 0.0041 0.8861
I1 I 0.067918(8) 0.35633(2) 1.057444(11)
O1 O 0.16416(9) 0.1167(2) 1.11829(11)
O2 O 0.19845(10) -0.1991(3) 1.11367(13)
O3 O 0.27996(9) -0.0899(3) 1.16478(13)
loop_
_geom_bond_atom_site_label_1
_geom_bond_atom_site_label_2
_geom_bond_site_symmetry_1
_geom_bond_site_symmetry_2
C1 H1 1_555 1_555
C2 C1 1_555 1_555
H2 C2 1_555 1_555
C3 C2 1_555 1_555
H3 C3 1_555 1_555
C4 C3 1_555 1_555
H4 C4 1_555 1_555
C5 C4 1_555 1_555
H5 C5 1_555 1_555
C6 C1 1_555 1_555
C7 C6 1_555 1_555
C8 C7 1_555 1_555
C9 C8 1_555 1_555
C10 C9 1_555 1_555
C11 C10 1_555 1_555
H6 C11 1_555 1_555
C12 C11 1_555 1_555
H7 C12 1_555 1_555
C13 C12 1_555 1_555
H8 C13 1_555 1_555
C14 C13 1_555 1_555
H9 C14 1_555 1_555
C15 C10 1_555 1_555
C16 C15 1_555 1_555
C17 H10 1_555 1_555
H11 C17 1_555 1_555
H12 C17 1_555 1_555
C18 C7 1_555 1_555
C19 C18 1_555 1_555
H13 C19 1_555 1_555
C20 C19 1_555 1_555
H14 C20 1_555 1_555
C21 C20 1_555 1_555
H15 C21 1_555 1_555
C22 C21 1_555 1_555
H16 C22 1_555 1_555
C23 C18 1_555 1_555
H17 C23 1_555 1_555
I1 C8 1_555 1_555
O1 C9 1_555 1_555
O2 C16 1_555 1_555
O3 C16 1_555 1_555
C5 C6 1_555 1_555
C14 C15 1_555 1_555
C17 O3 1_555 1_555
C22 C23 1_555 1_555

#END
