
#######################################################################
#
#                 Cambridge Crystallographic Data Centre
#                                CCDC 
#
#######################################################################
#
# If this CIF has been generated from an entry in the Cambridge 
# Structural Database, then it will include bibliographic, chemical, 
# crystal, experimental, refinement or atomic coordinate data resulting 
# from the CCDC's data processing and validation procedures.
#
#######################################################################

data_FOZHIN
_chemical_formula_moiety         'C22 H22 N4 O2'
_chemical_name_systematic        
2,9,9-Trimethyl-12-(4-methylphenyl)-8,9,10,12-tetrahydro-11H-chromeno[3,2-e][1,2,4]triazolo[1,5-c]pyrimidin-11-one
_symmetry_cell_setting           monoclinic
_symmetry_space_group_name_H-M   'P 21'
_symmetry_Int_Tables_number      4
_space_group_name_Hall           'P 2yb'
loop_
_symmetry_equiv_pos_site_id
_symmetry_equiv_pos_as_xyz
1 x,y,z
2 -x,1/2+y,-z
_cell_length_a                   5.662(3)
_cell_length_b                   16.271(10)
_cell_length_c                   10.324(6)
_cell_angle_alpha                90
_cell_angle_beta                 97.696(7)
_cell_angle_gamma                90
_cell_volume                     942.546
_exptl_crystal_colour            colorless
_exptl_crystal_description       tabular
_cell_formula_units_Z            2
loop_
_atom_site_label
_atom_site_type_symbol
_atom_site_fract_x
_atom_site_fract_y
_atom_site_fract_z
O1 O 0.1903(2) 0.03643(9) 0.31663(14)
O2 O 0.8428(3) 0.21364(10) 0.28212(15)
N1 N 0.4709(3) -0.08088(10) 0.64025(17)
C1 C 0.6025(4) -0.01411(13) 0.6081(2)
N2 N 0.5917(4) -0.12080(12) 0.74612(18)
C2 C 0.5062(4) 0.03249(13) 0.4971(2)
C3 C 0.5282(4) 0.12406(13) 0.31074(19)
C4 C 0.2969(4) 0.00272(13) 0.4333(2)
C5 C 0.6227(4) 0.10945(12) 0.45261(19)
H1 H 0.7948 0.0999 0.4596
C6 C 0.5444(4) 0.20107(13) 0.0963(2)
H2 H 0.6699 0.2160 0.0453
H3 H 0.4418 0.2486 0.0992
N3 N 0.1696(3) -0.06232(11) 0.46780(18)
C7 C 0.6557(4) 0.18105(12) 0.2337(2)
C8 C 0.3266(4) 0.08947(13) 0.2535(2)
N4 N 0.8028(3) -0.00924(11) 0.69072(17)
C9 C 0.2173(4) 0.10271(16) 0.1155(2)
H4 H 0.0927 0.1438 0.1137
H5 H 0.1439 0.0519 0.0815
C10 C 0.2598(4) -0.10298(14) 0.5713(2)
H6 H 0.1779 -0.1480 0.5985
C11 C 0.7872(4) -0.07556(14) 0.7713(2)
C12 C 0.5793(4) 0.18296(12) 0.53939(19)
C13 C 0.3665(4) 0.22688(14) 0.5189(2)
H7 H 0.2504 0.2126 0.4502
C14 C 0.7495(4) 0.20652(13) 0.6411(2)
H8 H 0.8940 0.1786 0.6556
C15 C 0.4936(4) 0.31479(13) 0.7034(2)
C16 C 0.7064(5) 0.27170(15) 0.7218(2)
H9 H 0.8232 0.2867 0.7897
C17 C 0.3265(4) 0.29171(14) 0.6003(2)
H10 H 0.1833 0.3203 0.5850
C18 C 0.3977(4) 0.13085(14) 0.0261(2)
C19 C 0.2580(5) 0.16038(18) -0.1030(2)
H11 H 0.1571 0.1169 -0.1410
H12 H 0.3674 0.1759 -0.1622
H13 H 0.1619 0.2069 -0.0867
C20 C 0.9774(5) -0.09725(17) 0.8796(2)
H14 H 0.9527 -0.0674 0.9569
H15 H 1.1301 -0.0832 0.8552
H16 H 0.9721 -0.1552 0.8966
C21 C 0.5620(4) 0.06082(14) -0.0029(2)
H17 H 0.4684 0.0164 -0.0439
H18 H 0.6508 0.0419 0.0773
H19 H 0.6701 0.0801 -0.0603
C22 C 0.4437(5) 0.38316(16) 0.7947(3)
H20 H 0.3720 0.3607 0.8661
H21 H 0.3370 0.4222 0.7482
H22 H 0.5903 0.4100 0.8279
loop_
_geom_bond_atom_site_label_1
_geom_bond_atom_site_label_2
_geom_bond_site_symmetry_1
_geom_bond_site_symmetry_2
O1 C4 1_555 1_555
O2 C7 1_555 1_555
N1 C1 1_555 1_555
C1 C2 1_555 1_555
N2 N1 1_555 1_555
C2 C4 1_555 1_555
C3 C5 1_555 1_555
C4 N3 1_555 1_555
C5 C2 1_555 1_555
H1 C5 1_555 1_555
C6 H2 1_555 1_555
H3 C6 1_555 1_555
N3 C10 1_555 1_555
C7 C3 1_555 1_555
C8 O1 1_555 1_555
N4 C1 1_555 1_555
C9 C8 1_555 1_555
H4 C9 1_555 1_555
H5 C9 1_555 1_555
C10 N1 1_555 1_555
H6 C10 1_555 1_555
C11 N2 1_555 1_555
C12 C5 1_555 1_555
C13 C12 1_555 1_555
H7 C13 1_555 1_555
C14 C12 1_555 1_555
H8 C14 1_555 1_555
C15 C16 1_555 1_555
C16 C14 1_555 1_555
H9 C16 1_555 1_555
C17 C13 1_555 1_555
H10 C17 1_555 1_555
C18 C6 1_555 1_555
C19 C18 1_555 1_555
H11 C19 1_555 1_555
H12 C19 1_555 1_555
H13 C19 1_555 1_555
C20 C11 1_555 1_555
H14 C20 1_555 1_555
H15 C20 1_555 1_555
H16 C20 1_555 1_555
C21 C18 1_555 1_555
H17 C21 1_555 1_555
H18 C21 1_555 1_555
H19 C21 1_555 1_555
C22 C15 1_555 1_555
H20 C22 1_555 1_555
H21 C22 1_555 1_555
H22 C22 1_555 1_555
C3 C8 1_555 1_555
C6 C7 1_555 1_555
N4 C11 1_555 1_555
C9 C18 1_555 1_555
C15 C17 1_555 1_555

#END
