
#######################################################################
#
#                 Cambridge Crystallographic Data Centre
#                                CCDC 
#
#######################################################################
#
# If this CIF has been generated from an entry in the Cambridge 
# Structural Database, then it will include bibliographic, chemical, 
# crystal, experimental, refinement or atomic coordinate data resulting 
# from the CCDC's data processing and validation procedures.
#
#######################################################################

data_FTHSEC11
_chemical_formula_moiety         'C6 H7 N3 S2'
_chemical_name_systematic        'Thiophene-2-carboxaldehyde thiosemicarbazone'
_symmetry_cell_setting           monoclinic
_symmetry_space_group_name_H-M   'P 21/n'
_symmetry_Int_Tables_number      14
_space_group_name_Hall           '-P 2yn'
loop_
_symmetry_equiv_pos_site_id
_symmetry_equiv_pos_as_xyz
1 x,y,z
2 1/2-x,1/2+y,1/2-z
3 -x,-y,-z
4 1/2+x,1/2-y,1/2+z
_cell_length_a                   13.593(4)
_cell_length_b                   5.8311(9)
_cell_length_c                   21.402(7)
_cell_angle_alpha                90
_cell_angle_beta                 96.51(3)
_cell_angle_gamma                90
_cell_volume                     1685.43
_exptl_crystal_colour            'pale yellow'
_exptl_crystal_description       prism
_chemical_melting_point          176.6-177.0deg.C
_cell_formula_units_Z            8
loop_
_atom_site_label
_atom_site_type_symbol
_atom_site_fract_x
_atom_site_fract_y
_atom_site_fract_z
S1 S 0.44994(5) 0.2780(1) 0.75056(3)
S2 S 0.35943(4) -0.3261(1) 1.00935(3)
N1 N 0.3995(1) 0.1112(3) 0.87664(8)
N2 N 0.3658(1) 0.0087(3) 0.92819(9)
N3 N 0.4968(1) -0.2347(4) 0.9345(1)
C1 C 0.3778(2) 0.4081(4) 0.8013(1)
C2 C 0.3409(2) 0.6159(4) 0.7779(1)
C3 C 0.3731(2) 0.6638(5) 0.7186(1)
C4 C 0.4308(2) 0.4990(6) 0.6985(1)
C5 C 0.3567(2) 0.2979(4) 0.8583(1)
C6 C 0.4125(2) -0.1775(4) 0.9540(1)
H1 H 0.2994 0.7137 0.7989
H2 H 0.3555 0.7993 0.6953
H3 H 0.4580 0.5049 0.6595
H4 H 0.3102 0.3652 0.8828
H5 H 0.3088 0.0603 0.9480
H6 H 0.5339 -0.3541 0.9521
H7 H 0.5264 -0.1429 0.9054
S3 S 0.68248(5) 0.3557(1) 0.66578(3)
S4 S 0.35000(4) -0.4029(1) 0.51397(3)
N4 N 0.5669(1) -0.0303(3) 0.59541(8)
N5 N 0.5136(1) -0.2050(3) 0.56404(8)
N6 N 0.3739(1) 0.0149(3) 0.56254(9)
C7 C 0.7253(2) 0.0996(4) 0.63969(9)
C8 C 0.8244(2) 0.0748(4) 0.6575(1)
C9 C 0.8654(2) 0.2654(5) 0.6917(1)
C10 C 0.7979(2) 0.4287(4) 0.6997(1)
C11 C 0.6608(2) -0.0643(4) 0.6057(1)
C12 C 0.4155(2) -0.1819(4) 0.54833(9)
H8 H 0.8615 -0.0562 0.6481
H9 H 0.9334 0.2775 0.7074
H10 H 0.8128 0.5683 0.7216
H11 H 0.6881 -0.2004 0.5904
H12 H 0.5478 -0.3372 0.5497
H13 H 0.4180 0.1414 0.5789
H14 H 0.3082 0.0474 0.5470
loop_
_geom_bond_atom_site_label_1
_geom_bond_atom_site_label_2
_geom_bond_site_symmetry_1
_geom_bond_site_symmetry_2
S1 C1 1_555 1_555
S2 C6 1_555 1_555
N1 N2 1_555 1_555
N2 C6 1_555 1_555
N3 C6 1_555 1_555
C1 C2 1_555 1_555
C2 C3 1_555 1_555
C3 C4 1_555 1_555
C4 S1 1_555 1_555
C5 N1 1_555 1_555
H1 C2 1_555 1_555
H2 C3 1_555 1_555
H3 C4 1_555 1_555
H4 C5 1_555 1_555
H5 N2 1_555 1_555
H6 N3 1_555 1_555
H7 N3 1_555 1_555
S3 C7 1_555 1_555
S4 C12 1_555 1_555
N4 N5 1_555 1_555
N5 C12 1_555 1_555
N6 C12 1_555 1_555
C7 C8 1_555 1_555
C8 C9 1_555 1_555
C9 C10 1_555 1_555
C10 S3 1_555 1_555
C11 N4 1_555 1_555
H8 C8 1_555 1_555
H9 C9 1_555 1_555
H10 C10 1_555 1_555
H11 C11 1_555 1_555
H12 N5 1_555 1_555
H13 N6 1_555 1_555
H14 N6 1_555 1_555
C1 C5 1_555 1_555
C7 C11 1_555 1_555

#END
