
#######################################################################
#
#                 Cambridge Crystallographic Data Centre
#                                CCDC 
#
#######################################################################
#
# If this CIF has been generated from an entry in the Cambridge 
# Structural Database, then it will include bibliographic, chemical, 
# crystal, experimental, refinement or atomic coordinate data resulting 
# from the CCDC's data processing and validation procedures.
#
#######################################################################

data_FUBKEU
_chemical_formula_moiety         'C35 H32 N2 O7 S3'
_chemical_name_systematic        
N-benzyl-N-(1-(bis(phenylsulfonyl)amino)-2-(2-methoxyphenyl)vinyl)-4-methylbenzenesulfonamide
_symmetry_cell_setting           triclinic
_symmetry_space_group_name_H-M   'P -1'
_symmetry_Int_Tables_number      2
_space_group_name_Hall           '-P 1'
loop_
_symmetry_equiv_pos_site_id
_symmetry_equiv_pos_as_xyz
1 x,y,z
2 -x,-y,-z
_cell_length_a                   9.8591(7)
_cell_length_b                   11.2489(8)
_cell_length_c                   15.9895(12)
_cell_angle_alpha                100.5200(10)
_cell_angle_beta                 94.3570(10)
_cell_angle_gamma                103.1530(10)
_cell_volume                     1684.92
_exptl_crystal_colour            colorless
_exptl_crystal_description       block
_cell_formula_units_Z            2
loop_
_atom_site_label
_atom_site_type_symbol
_atom_site_fract_x
_atom_site_fract_y
_atom_site_fract_z
S1 S 0.12811(5) -0.02159(5) 0.31294(3)
S2 S 0.34722(6) 0.35122(5) 0.31172(3)
S3 S 0.40806(6) -0.03440(5) 0.26465(4)
C1 C 0.0852(3) 0.2570(2) 0.10722(17)
H1 H 0.0771 0.2807 0.1651
C2 C 0.7034(3) 0.3247(3) 0.23275(17)
H2 H 0.6843 0.2437 0.2423
C3 C 0.2328(3) -0.0267(3) 0.47370(17)
H3 H 0.2623 -0.0960 0.4481
C4 C 0.8403(3) 0.4074(3) 0.5776(2)
H4 H 0.9079 0.4846 0.5798
H5 H 0.8825 0.3390 0.5611
H6 H 0.8096 0.4057 0.6330
O1 O 0.02137(16) 0.02905(18) 0.27996(11)
O2 O 0.11282(19) -0.15317(15) 0.29534(11)
C5 C 0.1150(3) 0.1348(2) 0.46202(16)
H7 H 0.0658 0.1744 0.4286
C6 C 0.1839(2) 0.0831(2) 0.13913(13)
H8 H 0.1433 -0.0022 0.1246
C7 C 0.1112(3) 0.1899(3) -0.06494(17)
H9 H 0.1197 0.1679 -0.1229
O3 O 0.2211(2) 0.03015(18) -0.02792(10)
O4 O 0.21989(16) 0.29648(15) 0.34237(10)
O5 O 0.36007(19) 0.46443(15) 0.28149(11)
O6 O 0.52238(18) 0.05185(17) 0.24184(13)
O7 O 0.42288(18) -0.07653(17) 0.34243(11)
C8 C 0.1632(2) 0.0349(2) 0.42485(14)
N1 N 0.27806(18) 0.04082(17) 0.27058(11)
C9 C 0.2713(2) 0.12415(19) 0.21165(13)
N2 N 0.36891(19) 0.24278(16) 0.23248(11)
C10 C 0.4890(2) 0.37209(19) 0.39123(13)
C11 C 0.7159(3) 0.3959(2) 0.51266(16)
C12 C 0.1409(4) 0.1757(3) 0.5502(2)
H10 H 0.1086 0.2431 0.5764
C13 C 0.1452(2) 0.1584(2) 0.07990(14)
C14 C 0.8378(3) 0.4018(3) 0.2566(2)
H11 H 0.9080 0.3721 0.2818
C15 C 0.7654(4) 0.5642(3) 0.2064(2)
H12 H 0.7857 0.6456 0.1976
C16 C 0.2141(3) 0.1173(4) 0.59908(19)
H13 H 0.2337 0.1469 0.6580
C17 C 0.2583(3) 0.0163(4) 0.5618(2)
H14 H 0.3058 -0.0241 0.5955
C18 C 0.4890(3) 0.2812(2) 0.43916(16)
H15 H 0.4138 0.2115 0.4303
C19 C 0.6007(3) 0.2946(2) 0.49980(18)
H16 H 0.5990 0.2345 0.5329
C20 C 0.2969(4) -0.3699(3) 0.0478(2)
H17 H 0.2779 -0.4396 0.0033
C21 C 0.2904(4) -0.3850(3) 0.1300(2)
H18 H 0.2654 -0.4649 0.1412
C22 C 0.3206(3) -0.2826(3) 0.19690(19)
H19 H 0.3163 -0.2929 0.2531
C23 C 0.3572(3) -0.1645(2) 0.17912(15)
C24 C 0.0374(3) 0.3200(3) 0.0495(2)
H20 H -0.0038 0.3851 0.0683
C25 C 0.0509(3) 0.2861(3) -0.0360(2)
H21 H 0.0187 0.3288 -0.0747
C26 C 0.1593(2) 0.1258(2) -0.00716(14)
C27 C 0.2389(4) -0.0093(4) -0.11490(17)
H22 H 0.1486 -0.0425 -0.1484
H23 H 0.2904 -0.0725 -0.1194
H24 H 0.2897 0.0605 -0.1358
C28 C 0.7123(3) 0.4864(2) 0.46571(16)
H25 H 0.7874 0.5563 0.4749
C29 C 0.4526(3) 0.2828(2) 0.16407(14)
H26 H 0.4002 0.3258 0.1313
H27 H 0.4621 0.2087 0.1254
C30 C 0.5980(3) 0.3672(2) 0.19510(15)
C31 C 0.8673(4) 0.5210(4) 0.2430(2)
H28 H 0.9573 0.5724 0.2590
C32 C 0.6292(3) 0.4877(3) 0.18153(18)
H29 H 0.5600 0.5181 0.1559
C33 C 0.3642(3) -0.1473(3) 0.09575(17)
H30 H 0.3902 -0.0678 0.0841
C34 C 0.3310(4) -0.2531(3) 0.02987(19)
H31 H 0.3321 -0.2442 -0.0268
C35 C 0.5995(3) 0.4761(2) 0.40507(14)
H32 H 0.5987 0.5385 0.3742
loop_
_geom_bond_atom_site_label_1
_geom_bond_atom_site_label_2
_geom_bond_site_symmetry_1
_geom_bond_site_symmetry_2
S1 O1 1_555 1_555
S2 O4 1_555 1_555
S3 O6 1_555 1_555
C1 H1 1_555 1_555
C2 H2 1_555 1_555
C3 H3 1_555 1_555
C4 H4 1_555 1_555
H5 C4 1_555 1_555
H6 C4 1_555 1_555
O2 S1 1_555 1_555
C5 H7 1_555 1_555
C6 H8 1_555 1_555
C7 H9 1_555 1_555
O3 C26 1_555 1_555
O5 S2 1_555 1_555
O7 S3 1_555 1_555
C8 S1 1_555 1_555
N1 S1 1_555 1_555
C9 C6 1_555 1_555
N2 S2 1_555 1_555
C10 S2 1_555 1_555
C11 C4 1_555 1_555
C12 C5 1_555 1_555
H10 C12 1_555 1_555
C13 C1 1_555 1_555
C14 C2 1_555 1_555
H11 C14 1_555 1_555
C15 H12 1_555 1_555
C16 C12 1_555 1_555
H13 C16 1_555 1_555
C17 C3 1_555 1_555
H14 C17 1_555 1_555
C18 C10 1_555 1_555
H15 C18 1_555 1_555
C19 C11 1_555 1_555
H16 C19 1_555 1_555
C20 H17 1_555 1_555
C21 C20 1_555 1_555
H18 C21 1_555 1_555
C22 C21 1_555 1_555
H19 C22 1_555 1_555
C23 S3 1_555 1_555
C24 C1 1_555 1_555
H20 C24 1_555 1_555
C25 C7 1_555 1_555
H21 C25 1_555 1_555
C26 C7 1_555 1_555
C27 O3 1_555 1_555
H22 C27 1_555 1_555
H23 C27 1_555 1_555
H24 C27 1_555 1_555
C28 C11 1_555 1_555
H25 C28 1_555 1_555
C29 N2 1_555 1_555
H26 C29 1_555 1_555
H27 C29 1_555 1_555
C30 C2 1_555 1_555
C31 C14 1_555 1_555
H28 C31 1_555 1_555
C32 C15 1_555 1_555
H29 C32 1_555 1_555
C33 C23 1_555 1_555
H30 C33 1_555 1_555
C34 C20 1_555 1_555
H31 C34 1_555 1_555
C35 C10 1_555 1_555
H32 C35 1_555 1_555
S3 N1 1_555 1_555
C3 C8 1_555 1_555
C5 C8 1_555 1_555
C6 C13 1_555 1_555
N1 C9 1_555 1_555
C9 N2 1_555 1_555
C13 C26 1_555 1_555
C15 C31 1_555 1_555
C16 C17 1_555 1_555
C18 C19 1_555 1_555
C22 C23 1_555 1_555
C24 C25 1_555 1_555
C28 C35 1_555 1_555
C29 C30 1_555 1_555
C30 C32 1_555 1_555
C33 C34 1_555 1_555

#END
