
#######################################################################
#
#                 Cambridge Crystallographic Data Centre
#                                CCDC 
#
#######################################################################
#
# If this CIF has been generated from an entry in the Cambridge 
# Structural Database, then it will include bibliographic, chemical, 
# crystal, experimental, refinement or atomic coordinate data resulting 
# from the CCDC's data processing and validation procedures.
#
#######################################################################

data_FUBWEF
_chemical_formula_moiety         'C18 H15 Cl1 I1 N1 O3'
_chemical_name_systematic        
'cis-N-Methyl-3-iodo-4-phenyl-6-chloro-1-azaspiro(4.5)deca-3,6,9-trienyl 8-acetate'
_symmetry_cell_setting           monoclinic
_symmetry_space_group_name_H-M   'P 21/c'
_symmetry_Int_Tables_number      14
_space_group_name_Hall           '-P 2ybc'
loop_
_symmetry_equiv_pos_site_id
_symmetry_equiv_pos_as_xyz
1 x,y,z
2 -x,1/2+y,1/2-z
3 -x,-y,-z
4 x,1/2-y,1/2+z
_cell_length_a                   14.860(2)
_cell_length_b                   8.6264(13)
_cell_length_c                   14.429(2)
_cell_angle_alpha                90
_cell_angle_beta                 99.058(3)
_cell_angle_gamma                90
_cell_volume                     1826.56
_chemical_melting_point          '177.6-179.5 deg.C'
_cell_formula_units_Z            4
loop_
_atom_site_label
_atom_site_type_symbol
_atom_site_fract_x
_atom_site_fract_y
_atom_site_fract_z
I1 I 0.6432(1) 1.0490(1) 0.5166(1)
Cl1 Cl 0.7845(1) 0.5174(2) 0.5756(1)
O1 O 0.8687(3) 0.9991(6) 0.5384(3)
O2 O 0.8827(3) 0.2750(5) 0.2996(3)
O3 O 0.8010(4) 0.0547(5) 0.2940(4)
N1 N 0.8598(3) 0.7671(5) 0.4588(3)
C1 C 0.5820(8) 0.7000(20) 0.2891(10)
C2 C 0.4926(10) 0.6510(30) 0.2542(12)
C3 C 0.4364(6) 0.5994(16) 0.3032(9)
C4 C 0.4588(7) 0.6276(14) 0.3957(13)
C5 C 0.5471(6) 0.6793(11) 0.4338(8)
C6 C 0.6102(4) 0.6976(8) 0.3809(4)
C7 C 0.7021(3) 0.7552(7) 0.4207(4)
C8 C 0.7252(3) 0.8824(7) 0.4703(4)
C9 C 0.8251(3) 0.8955(7) 0.4950(4)
C10 C 0.7893(3) 0.6655(6) 0.4102(4)
C11 C 0.9558(4) 0.7290(8) 0.4727(4)
C12 C 0.7921(4) 0.5097(7) 0.4584(4)
C13 C 0.7988(4) 0.3758(7) 0.4157(5)
C14 C 0.8021(4) 0.3655(7) 0.3133(4)
C15 C 0.8096(4) 0.5167(8) 0.2667(4)
C16 C 0.8018(4) 0.6486(7) 0.3086(4)
C17 C 0.8724(4) 0.1190(8) 0.2908(4)
C18 C 0.9590(5) 0.0459(9) 0.2771(6)
H1 H 0.6206 0.7343 0.2483
H2 H 0.4736 0.6580 0.1898
H3 H 0.3840 0.5461 0.2777
H4 H 0.4156 0.6129 0.4350
H5 H 0.5606 0.7008 0.4976
H6 H 0.9910 0.8205 0.4909
H7 H 0.9717 0.6889 0.4154
H8 H 0.9684 0.6522 0.5212
H9 H 0.8015 0.2849 0.4508
H10 H 0.7474 0.3120 0.2824
H11 H 0.8203 0.5176 0.2049
H12 H 0.8041 0.7388 0.2737
H13 H 0.9983 0.0375 0.3364
H14 H 0.9880 0.1081 0.2352
H15 H 0.9471 -0.0556 0.2507
loop_
_geom_bond_atom_site_label_1
_geom_bond_atom_site_label_2
_geom_bond_site_symmetry_1
_geom_bond_site_symmetry_2
I1 C8 1_555 1_555
Cl1 C12 1_555 1_555
O1 C9 1_555 1_555
O2 C14 1_555 1_555
O3 C17 1_555 1_555
N1 C9 1_555 1_555
C1 C2 1_555 1_555
C2 C3 1_555 1_555
C3 C4 1_555 1_555
C4 C5 1_555 1_555
C5 C6 1_555 1_555
C6 C1 1_555 1_555
C7 C6 1_555 1_555
C8 C7 1_555 1_555
C9 C8 1_555 1_555
C10 N1 1_555 1_555
C11 N1 1_555 1_555
C12 C10 1_555 1_555
C13 C12 1_555 1_555
C14 C13 1_555 1_555
C15 C14 1_555 1_555
C16 C10 1_555 1_555
C17 O2 1_555 1_555
C18 C17 1_555 1_555
H1 C1 1_555 1_555
H2 C2 1_555 1_555
H3 C3 1_555 1_555
H4 C4 1_555 1_555
H5 C5 1_555 1_555
H6 C11 1_555 1_555
H7 C11 1_555 1_555
H8 C11 1_555 1_555
H9 C13 1_555 1_555
H10 C14 1_555 1_555
H11 C15 1_555 1_555
H12 C16 1_555 1_555
H13 C18 1_555 1_555
H14 C18 1_555 1_555
H15 C18 1_555 1_555
C7 C10 1_555 1_555
C15 C16 1_555 1_555

#END
