
#######################################################################
#
#                 Cambridge Crystallographic Data Centre
#                                CCDC 
#
#######################################################################
#
# If this CIF has been generated from an entry in the Cambridge 
# Structural Database, then it will include bibliographic, chemical, 
# crystal, experimental, refinement or atomic coordinate data resulting 
# from the CCDC's data processing and validation procedures.
#
#######################################################################

data_FUFBOX01
_chemical_formula_moiety         'C8 H8 O3'
_chemical_name_systematic        'o-Methoxybenzoic acid'
_chemical_properties_biological  'antiseptic, antipyretic agent'
_symmetry_cell_setting           monoclinic
_symmetry_space_group_name_H-M   'P 21/a'
_symmetry_Int_Tables_number      14
_space_group_name_Hall           '-P 2yab'
loop_
_symmetry_equiv_pos_site_id
_symmetry_equiv_pos_as_xyz
1 x,y,z
2 1/2-x,1/2+y,-z
3 -x,-y,-z
4 1/2+x,1/2-y,z
_cell_length_a                   7.002(2)
_cell_length_b                   14.945(9)
_cell_length_c                   7.719(4)
_cell_angle_alpha                90
_cell_angle_beta                 115.44(3)
_cell_angle_gamma                90
_cell_volume                     729.431
_chemical_melting_point          98-100deg.C
_cell_formula_units_Z            4
loop_
_atom_site_label
_atom_site_type_symbol
_atom_site_fract_x
_atom_site_fract_y
_atom_site_fract_z
O1 O 0.2477(2) -0.00504(7) 0.2030(1)
O2 O 0.1270(1) -0.07120(8) -0.0808(1)
O3 O 0.4045(1) -0.15451(7) -0.1671(1)
C1 C 0.4900(2) -0.09210(8) 0.1391(1)
C2 C 0.5496(2) -0.14184(8) 0.0159(1)
C3 C 0.7544(2) -0.1761(1) 0.0849(2)
C4 C 0.8977(2) -0.1599(1) 0.2713(2)
C5 C 0.8441(2) -0.1095(1) 0.3930(2)
C6 C 0.6413(2) -0.07639(9) 0.3266(2)
C7 C 0.2737(2) -0.05512(8) 0.0778(2)
C8 C 0.4714(2) -0.1986(1) -0.2956(2)
H1 H 0.090(3) 0.026(2) 0.142(3)
H2 H 0.792(2) -0.210(1) 0.002(2)
H3 H 1.043(2) -0.185(1) 0.320(2)
H4 H 0.947(3) -0.099(1) 0.521(3)
H5 H 0.605(2) -0.043(1) 0.406(2)
H6 H 0.346(3) -0.203(2) -0.417(3)
H7 H 0.512(3) -0.263(2) -0.254(3)
H8 H 0.591(3) -0.163(1) -0.305(3)
loop_
_geom_bond_atom_site_label_1
_geom_bond_atom_site_label_2
_geom_bond_site_symmetry_1
_geom_bond_site_symmetry_2
O1 C7 1_555 1_555
O2 C7 1_555 1_555
O3 C2 1_555 1_555
C1 C2 1_555 1_555
C2 C3 1_555 1_555
C3 C4 1_555 1_555
C4 C5 1_555 1_555
C5 C6 1_555 1_555
C6 C1 1_555 1_555
C7 C1 1_555 1_555
C8 O3 1_555 1_555
H1 O1 1_555 1_555
H2 C3 1_555 1_555
H3 C4 1_555 1_555
H4 C5 1_555 1_555
H5 C6 1_555 1_555
H6 C8 1_555 1_555
H7 C8 1_555 1_555
H8 C8 1_555 1_555

#END
