
#######################################################################
#
#                 Cambridge Crystallographic Data Centre
#                                CCDC 
#
#######################################################################
#
# If this CIF has been generated from an entry in the Cambridge 
# Structural Database, then it will include bibliographic, chemical, 
# crystal, experimental, refinement or atomic coordinate data resulting 
# from the CCDC's data processing and validation procedures.
#
#######################################################################

data_FUFMOK
_chemical_formula_moiety         'C14 H19 N5 2+,2(I1 1-)'
_chemical_name_systematic        
"1,1'-((1H-Pyrrole-2,5-diyl)bis(methylene))bis(3-methyl-1Himidazol-3-ium) bis(iodide)"
_symmetry_cell_setting           monoclinic
_symmetry_space_group_name_H-M   'P 21/m'
_symmetry_Int_Tables_number      11
_space_group_name_Hall           '-P 2yb'
loop_
_symmetry_equiv_pos_site_id
_symmetry_equiv_pos_as_xyz
1 x,y,z
2 -x,1/2+y,-z
3 -x,-y,-z
4 x,1/2-y,z
_cell_length_a                   5.47080(10)
_cell_length_b                   19.9081(3)
_cell_length_c                   8.39410(10)
_cell_angle_alpha                90
_cell_angle_beta                 95.0460(10)
_cell_angle_gamma                90
_cell_volume                     910.685
_cell_formula_units_Z            2
loop_
_atom_site_label
_atom_site_type_symbol
_atom_site_fract_x
_atom_site_fract_y
_atom_site_fract_z
N1 N 0.4661(3) 0.10534(8) 0.39948(18)
N2 N 0.4370(3) 0.10768(7) 0.65436(17)
N3 N 0.4447(4) 0.2500 0.8083(2)
H1 H 0.2998 0.2500 0.7593
C1 C 0.5332(4) 0.12484(10) 0.2404(2)
H2 H 0.4061 0.1525 0.1888
H3 H 0.5528 0.0853 0.1774
H4 H 0.6845 0.1495 0.2511
C2 C 0.2808(5) 0.06252(12) 0.4301(3)
H5 H 0.1856 0.0372 0.3551
C3 C 0.2613(5) 0.06384(12) 0.5899(2)
H6 H 0.1504 0.0397 0.6453
C4 C 0.5567(3) 0.13264(8) 0.53611(19)
H7 H 0.6830 0.1640 0.5476
C5 C 0.4799(3) 0.12455(9) 0.8262(2)
H8 H 0.5948 0.0926 0.8778
H9 H 0.3266 0.1205 0.8753
C6 C 0.5784(3) 0.19373(8) 0.85350(18)
C7 C 0.7978(3) 0.21446(9) 0.93153(19)
H10 H 0.9228 0.1868 0.9760
N1C N 0.4661(3) 0.39466(8) 0.39948(18)
N2C N 0.4370(3) 0.39232(7) 0.65436(17)
C1C C 0.5332(4) 0.37516(10) 0.2404(2)
H2C H 0.4061 0.3475 0.1888
H3C H 0.5528 0.4147 0.1774
H4C H 0.6845 0.3505 0.2511
C2C C 0.2808(5) 0.43748(12) 0.4301(3)
H5C H 0.1856 0.4628 0.3551
C3C C 0.2613(5) 0.43616(12) 0.5899(2)
H6C H 0.1504 0.4603 0.6453
C4C C 0.5567(3) 0.36736(8) 0.53611(19)
H7C H 0.6830 0.3360 0.5476
C5C C 0.4799(3) 0.37545(9) 0.8262(2)
H8C H 0.5948 0.4074 0.8778
H9C H 0.3266 0.3795 0.8753
C6C C 0.5784(3) 0.30627(8) 0.85350(18)
C7C C 0.7978(3) 0.28554(9) 0.93153(19)
H10C H 0.9228 0.3132 0.9760
I1 I 0.0000 0.0000 0.0000
I2 I 0.06467(3) 0.2500 0.43447(2)
loop_
_geom_bond_atom_site_label_1
_geom_bond_atom_site_label_2
_geom_bond_site_symmetry_1
_geom_bond_site_symmetry_2
N1 C1 1_555 1_555
N2 C3 1_555 1_555
N3 H1 1_555 1_555
C1 H2 1_555 1_555
H3 C1 1_555 1_555
H4 C1 1_555 1_555
C2 N1 1_555 1_555
H5 C2 1_555 1_555
C3 C2 1_555 1_555
H6 C3 1_555 1_555
C4 N1 1_555 1_555
H7 C4 1_555 1_555
C5 N2 1_555 1_555
H8 C5 1_555 1_555
H9 C5 1_555 1_555
C6 N3 1_555 1_555
C7 C6 1_555 1_555
H10 C7 1_555 1_555
N1C C1C 1_555 1_555
N2C C3C 1_555 1_555
C1C H2C 1_555 1_555
H3C C1C 1_555 1_555
H4C C1C 1_555 1_555
C2C N1C 1_555 1_555
H5C C2C 1_555 1_555
C3C C2C 1_555 1_555
H6C C3C 1_555 1_555
C4C N1C 1_555 1_555
H7C C4C 1_555 1_555
C5C N2C 1_555 1_555
H8C C5C 1_555 1_555
H9C C5C 1_555 1_555
C6C N3 1_555 1_555
C7C C7 1_555 1_555
H10C C7C 1_555 1_555
N2 C4 1_555 1_555
C5 C6 1_555 1_555
N2C C4C 1_555 1_555
C5C C6C 1_555 1_555
C6C C7C 1_555 1_555

#END
