
#######################################################################
#
#                 Cambridge Crystallographic Data Centre
#                                CCDC 
#
#######################################################################
#
# If this CIF has been generated from an entry in the Cambridge 
# Structural Database, then it will include bibliographic, chemical, 
# crystal, experimental, refinement or atomic coordinate data resulting 
# from the CCDC's data processing and validation procedures.
#
#######################################################################

data_FUFYIP
_chemical_formula_moiety         'C22 H15 N3'
_chemical_name_systematic        2-(4-(Diphenylamino)benzylidene)malononitrile
_symmetry_cell_setting           monoclinic
_symmetry_space_group_name_H-M   'P 21/c'
_symmetry_Int_Tables_number      14
_space_group_name_Hall           '-P 2ybc'
loop_
_symmetry_equiv_pos_site_id
_symmetry_equiv_pos_as_xyz
1 x,y,z
2 -x,1/2+y,1/2-z
3 -x,-y,-z
4 x,1/2-y,1/2+z
_cell_length_a                   6.9070(14)
_cell_length_b                   15.666(3)
_cell_length_c                   16.101(3)
_cell_angle_alpha                90
_cell_angle_beta                 95.13(3)
_cell_angle_gamma                90
_cell_volume                     1735.23
_exptl_crystal_colour            orange
_exptl_crystal_description       irregular
_cell_formula_units_Z            4
_exptl_crystal_recrystallization_method hexane
_exptl_crystal_preparation       fluorescent
loop_
_atom_site_label
_atom_site_type_symbol
_atom_site_fract_x
_atom_site_fract_y
_atom_site_fract_z
N1 N 0.28918(14) 0.20520(6) 0.26731(5)
N2 N 0.20828(15) -0.16661(6) 0.69771(6)
N3 N 0.20126(17) -0.20666(7) 0.43111(7)
C1 C 0.29990(16) 0.29633(7) 0.27726(6)
C2 C 0.46777(18) 0.33406(7) 0.31505(7)
C3 C 0.47505(18) 0.42227(7) 0.32601(7)
C4 C 0.31671(19) 0.47237(7) 0.29831(7)
C5 C 0.1514(2) 0.43455(8) 0.25980(8)
C6 C 0.14107(18) 0.34620(7) 0.24906(7)
C7 C 0.27344(17) 0.17184(6) 0.18364(6)
C8 C 0.43115(18) 0.17837(7) 0.13616(7)
C9 C 0.4168(2) 0.14424(8) 0.05588(7)
C10 C 0.2468(2) 0.10429(8) 0.02365(7)
C11 C 0.0893(2) 0.09948(8) 0.07103(7)
C12 C 0.10128(18) 0.13347(8) 0.15125(7)
C13 C 0.28528(15) 0.15210(6) 0.33494(6)
C14 C 0.29620(16) 0.06240(7) 0.32502(6)
C15 C 0.28623(16) 0.00830(7) 0.39181(6)
C16 C 0.26757(15) 0.03975(7) 0.47289(6)
C17 C 0.26486(16) 0.12928(7) 0.48277(6)
C18 C 0.27159(16) 0.18422(7) 0.41611(6)
C19 C 0.25162(15) -0.01203(7) 0.54554(6)
C20 C 0.23070(16) -0.09838(7) 0.55268(6)
C21 C 0.21541(17) -0.15795(7) 0.48490(7)
C22 C 0.21777(16) -0.13565(7) 0.63335(7)
H1 H 0.580(2) 0.2990(11) 0.3333(10)
H2 H 0.596(2) 0.4493(11) 0.3533(10)
H3 H 0.322(2) 0.5343(11) 0.3063(10)
H4 H 0.038(3) 0.4701(12) 0.2403(11)
H5 H 0.024(2) 0.3175(10) 0.2233(10)
H6 H 0.551(2) 0.2059(10) 0.1614(9)
H7 H 0.530(2) 0.1477(11) 0.0222(10)
H8 H 0.238(2) 0.0822(11) -0.0325(11)
H9 H -0.032(2) 0.0707(11) 0.0466(11)
H10 H -0.009(2) 0.1312(10) 0.1859(10)
H11 H 0.312(2) 0.0369(10) 0.2687(9)
H12 H 0.296(2) -0.0519(10) 0.3798(9)
H13 H 0.254(2) 0.1527(9) 0.5388(9)
H14 H 0.266(2) 0.2453(10) 0.4264(9)
H15 H 0.256(2) 0.0201(10) 0.5990(9)
loop_
_geom_bond_atom_site_label_1
_geom_bond_atom_site_label_2
_geom_bond_site_symmetry_1
_geom_bond_site_symmetry_2
N1 C1 1_555 1_555
N2 C22 1_555 1_555
N3 C21 1_555 1_555
C1 C2 1_555 1_555
C2 C3 1_555 1_555
C3 C4 1_555 1_555
C4 C5 1_555 1_555
C5 C6 1_555 1_555
C6 C1 1_555 1_555
C7 N1 1_555 1_555
C8 C7 1_555 1_555
C9 C8 1_555 1_555
C10 C9 1_555 1_555
C11 C10 1_555 1_555
C12 C7 1_555 1_555
C13 N1 1_555 1_555
C14 C13 1_555 1_555
C15 C14 1_555 1_555
C16 C15 1_555 1_555
C17 C16 1_555 1_555
C18 C13 1_555 1_555
C19 C16 1_555 1_555
C20 C19 1_555 1_555
C21 C20 1_555 1_555
C22 C20 1_555 1_555
H1 C2 1_555 1_555
H2 C3 1_555 1_555
H3 C4 1_555 1_555
H4 C5 1_555 1_555
H5 C6 1_555 1_555
H6 C8 1_555 1_555
H7 C9 1_555 1_555
H8 C10 1_555 1_555
H9 C11 1_555 1_555
H10 C12 1_555 1_555
H11 C14 1_555 1_555
H12 C15 1_555 1_555
H13 C17 1_555 1_555
H14 C18 1_555 1_555
H15 C19 1_555 1_555
C11 C12 1_555 1_555
C17 C18 1_555 1_555

#END
