
#######################################################################
#
#                 Cambridge Crystallographic Data Centre
#                                CCDC 
#
#######################################################################
#
# If this CIF has been generated from an entry in the Cambridge 
# Structural Database, then it will include bibliographic, chemical, 
# crystal, experimental, refinement or atomic coordinate data resulting 
# from the CCDC's data processing and validation procedures.
#
#######################################################################

data_FUGRUW
_chemical_formula_moiety         'C17 H20 O3'
_chemical_name_systematic        
8,8-dimethyl-3-phenyl-6-oxaspiro[4.5]decane-1,9-dione
_symmetry_cell_setting           triclinic
_symmetry_space_group_name_H-M   'P -1'
_symmetry_Int_Tables_number      2
_space_group_name_Hall           '-P 1'
loop_
_symmetry_equiv_pos_site_id
_symmetry_equiv_pos_as_xyz
1 x,y,z
2 -x,-y,-z
_cell_length_a                   9.8785(9)
_cell_length_b                   13.251(2)
_cell_length_c                   13.849(3)
_cell_angle_alpha                118.56(2)
_cell_angle_beta                 102.267(12)
_cell_angle_gamma                95.337(10)
_cell_volume                     1515.37
_exptl_crystal_colour            colorless
_exptl_crystal_description       plate
_cell_formula_units_Z            4
loop_
_atom_site_label
_atom_site_type_symbol
_atom_site_fract_x
_atom_site_fract_y
_atom_site_fract_z
O1 O 0.3042(3) 0.6066(3) 0.0386(3)
O2 O 0.5328(3) 0.8449(3) 0.1564(3)
O3 O 0.5084(5) 0.5637(4) -0.1525(3)
C1 C 0.5770(5) 0.8801(5) 0.5493(4)
H1 H 0.5672 0.9515 0.5544
C2 C 0.6121(6) 0.8754(6) 0.6481(5)
H2 H 0.6235 0.9425 0.7188
C3 C 0.6307(6) 0.7704(8) 0.6422(6)
H3 H 0.6543 0.7661 0.7087
C4 C 0.6138(6) 0.6738(6) 0.5377(6)
H4 H 0.6280 0.6035 0.5332
C5 C 0.5760(5) 0.6780(5) 0.4385(5)
H5 H 0.5639 0.6104 0.3680
C6 C 0.5558(5) 0.7817(4) 0.4423(4)
C7 C 0.5156(5) 0.7878(4) 0.3343(4)
H6 H 0.5053 0.8682 0.3562
C8 C 0.3762(5) 0.7023(5) 0.2460(4)
H7 H 0.3605 0.6319 0.2511
H8 H 0.2964 0.7392 0.2589
C9 C 0.3925(5) 0.6722(4) 0.1312(4)
C10 C 0.5415(4) 0.7317(4) 0.1459(4)
C11 C 0.6229(5) 0.7583(4) 0.2645(4)
H9 H 0.7035 0.8246 0.2994
H10 H 0.6572 0.6904 0.2601
C12 C 0.6054(5) 0.6620(4) 0.0513(4)
H11 H 0.7059 0.6980 0.0764
H12 H 0.5970 0.5827 0.0384
C13 C 0.5376(5) 0.6545(5) -0.0600(5)
C14 C 0.5137(5) 0.7719(5) -0.0488(4)
C15 C 0.4521(5) 0.8336(4) 0.0521(4)
H13 H 0.4463 0.9117 0.0653
H14 H 0.3562 0.7896 0.0310
C16 C 0.6600(5) 0.8481(5) -0.0227(5)
H15 H 0.6478 0.9216 -0.0168
H16 H 0.7011 0.8068 -0.0836
H17 H 0.7219 0.8630 0.0486
C17 C 0.4108(5) 0.7546(6) -0.1580(4)
H18 H 0.3189 0.7111 -0.1713
H19 H 0.4459 0.7117 -0.2224
H20 H 0.4031 0.8302 -0.1489
O4 O 1.2380(3) 0.5675(3) 0.4781(3)
O5 O 1.0806(3) 0.6876(3) 0.3581(3)
O6 O 1.0195(4) 0.6961(3) 0.6419(3)
C18 C 1.0277(5) 0.3273(6) -0.0379(5)
H21 H 1.0621 0.3973 -0.0342
C19 C 0.9804(7) 0.2232(9) -0.1440(6)
H22 H 0.9813 0.2226 -0.2113
C20 C 0.9318(7) 0.1199(8) -0.1465(7)
H23 H 0.9023 0.0493 -0.2167
C21 C 0.9258(6) 0.1183(6) -0.0504(7)
H24 H 0.8914 0.0479 -0.0550
C22 C 0.9723(5) 0.2241(5) 0.0560(5)
H25 H 0.9682 0.2245 0.1226
C23 C 1.0247(5) 0.3288(4) 0.0616(4)
C24 C 1.0743(5) 0.4441(4) 0.1743(4)
H26 H 1.1169 0.5042 0.1608
C25 C 0.9574(5) 0.4880(4) 0.2304(4)
H27 H 0.9009 0.5219 0.1924
H28 H 0.8952 0.4233 0.2251
C26 C 1.0312(5) 0.5801(4) 0.3547(4)
C27 C 1.1655(5) 0.5334(4) 0.3814(4)
C28 C 1.1850(5) 0.4428(4) 0.2704(4)
H29 H 1.1691 0.3654 0.2624
H30 H 1.2805 0.4624 0.2675
C29 C 0.9456(5) 0.6002(4) 0.4374(4)
H31 H 0.8559 0.6153 0.4089
H32 H 0.9245 0.5289 0.4404
C30 C 1.0202(5) 0.7014(4) 0.5570(4)
C31 C 1.0884(5) 0.8128(4) 0.5627(4)
C32 C 1.1643(5) 0.7817(4) 0.4710(4)
H33 H 1.1918 0.8514 0.4669
H34 H 1.2507 0.7592 0.4940
C33 C 0.9676(6) 0.8720(5) 0.5414(5)
H35 H 0.9112 0.8257 0.4623
H36 H 1.0075 0.9496 0.5586
H37 H 0.9089 0.8774 0.5899
C34 C 1.1941(6) 0.8961(5) 0.6807(4)
H38 H 1.1460 0.9161 0.7387
H39 H 1.2349 0.9666 0.6837
H40 H 1.2681 0.8582 0.6942
loop_
_geom_bond_atom_site_label_1
_geom_bond_atom_site_label_2
_geom_bond_site_symmetry_1
_geom_bond_site_symmetry_2
O1 C9 1_555 1_555
O2 C10 1_555 1_555
O3 C13 1_555 1_555
C1 H1 1_555 1_555
C2 C1 1_555 1_555
H2 C2 1_555 1_555
C3 C2 1_555 1_555
H3 C3 1_555 1_555
C4 C3 1_555 1_555
H4 C4 1_555 1_555
C5 C4 1_555 1_555
H5 C5 1_555 1_555
C6 C1 1_555 1_555
C7 C6 1_555 1_555
H6 C7 1_555 1_555
C8 C7 1_555 1_555
H7 C8 1_555 1_555
H8 C8 1_555 1_555
C9 C8 1_555 1_555
C10 C9 1_555 1_555
C11 C7 1_555 1_555
H9 C11 1_555 1_555
H10 C11 1_555 1_555
C12 C10 1_555 1_555
H11 C12 1_555 1_555
H12 C12 1_555 1_555
C13 C12 1_555 1_555
C14 C13 1_555 1_555
C15 O2 1_555 1_555
H13 C15 1_555 1_555
H14 C15 1_555 1_555
C16 C14 1_555 1_555
H15 C16 1_555 1_555
H16 C16 1_555 1_555
H17 C16 1_555 1_555
C17 C14 1_555 1_555
H18 C17 1_555 1_555
H19 C17 1_555 1_555
H20 C17 1_555 1_555
O4 C27 1_555 1_555
O5 C26 1_555 1_555
O6 C30 1_555 1_555
C18 H21 1_555 1_555
C19 C18 1_555 1_555
H22 C19 1_555 1_555
C20 C19 1_555 1_555
H23 C20 1_555 1_555
C21 C20 1_555 1_555
H24 C21 1_555 1_555
C22 C21 1_555 1_555
H25 C22 1_555 1_555
C23 C18 1_555 1_555
C24 C23 1_555 1_555
H26 C24 1_555 1_555
C25 C24 1_555 1_555
H27 C25 1_555 1_555
H28 C25 1_555 1_555
C26 C25 1_555 1_555
C27 C26 1_555 1_555
C28 C24 1_555 1_555
H29 C28 1_555 1_555
H30 C28 1_555 1_555
C29 C26 1_555 1_555
H31 C29 1_555 1_555
H32 C29 1_555 1_555
C30 C29 1_555 1_555
C31 C30 1_555 1_555
C32 O5 1_555 1_555
H33 C32 1_555 1_555
H34 C32 1_555 1_555
C33 C31 1_555 1_555
H35 C33 1_555 1_555
H36 C33 1_555 1_555
H37 C33 1_555 1_555
C34 C31 1_555 1_555
H38 C34 1_555 1_555
H39 C34 1_555 1_555
H40 C34 1_555 1_555
C5 C6 1_555 1_555
C10 C11 1_555 1_555
C14 C15 1_555 1_555
C22 C23 1_555 1_555
C27 C28 1_555 1_555
C31 C32 1_555 1_555

#END
