
#######################################################################
#
#                 Cambridge Crystallographic Data Centre
#                                CCDC 
#
#######################################################################
#
# If this CIF has been generated from an entry in the Cambridge 
# Structural Database, then it will include bibliographic, chemical, 
# crystal, experimental, refinement or atomic coordinate data resulting 
# from the CCDC's data processing and validation procedures.
#
#######################################################################

data_FUGSOQ
_chemical_formula_moiety         'C15 H14 O5'
_chemical_name_systematic        
'4-(8-Hydroxy-3-methyl-1,4-dioxo-1,4-dihydronaphthalen-2-yl)butanoic acid'
_symmetry_cell_setting           monoclinic
_symmetry_space_group_name_H-M   'P 21/n'
_symmetry_Int_Tables_number      14
_space_group_name_Hall           '-P 2yn'
loop_
_symmetry_equiv_pos_site_id
_symmetry_equiv_pos_as_xyz
1 x,y,z
2 1/2-x,1/2+y,1/2-z
3 -x,-y,-z
4 1/2+x,1/2-y,1/2+z
_cell_length_a                   10.881(3)
_cell_length_b                   9.973(2)
_cell_length_c                   12.705(3)
_cell_angle_alpha                90
_cell_angle_beta                 106.936(5)
_cell_angle_gamma                90
_cell_volume                     1318.91
_exptl_crystal_colour            'dark red'
_exptl_crystal_description       block
_cell_formula_units_Z            4
_exptl_crystal_recrystallization_method dichloromethane
loop_
_atom_site_label
_atom_site_type_symbol
_atom_site_fract_x
_atom_site_fract_y
_atom_site_fract_z
O1 O 0.9902(2) 0.8451(2) 0.6287(2)
H1 H 1.0115 0.8001 0.6851
O2 O 0.7285(3) 0.3526(3) 0.4035(2)
O3 O 1.0036(2) 0.6313(2) 0.74605(17)
O4 O 0.9090(2) 0.1025(2) 0.90860(19)
O5 O 1.0253(3) 0.1478(2) 1.08016(19)
H2 H 1.0411 0.0674 1.0806
C1 C 0.9241(3) 0.7683(3) 0.5446(3)
C2 C 0.8795(3) 0.8269(4) 0.4409(3)
H3 H 0.8964 0.9169 0.4317
C3 C 0.8115(3) 0.7538(4) 0.3534(3)
H4 H 0.7836 0.7940 0.2846
C4 C 0.7827(3) 0.6200(4) 0.3646(2)
H5 H 0.7346 0.5716 0.3040
C5 C 0.8260(2) 0.5593(3) 0.4661(2)
C6 C 0.7964(3) 0.4165(3) 0.4808(2)
C7 C 0.8472(3) 0.3520(3) 0.5893(2)
C8 C 0.9164(2) 0.4235(3) 0.6766(2)
C9 C 0.9428(3) 0.5675(3) 0.6644(2)
C10 C 0.8974(2) 0.6322(3) 0.5572(2)
C11 C 0.8153(3) 0.2063(3) 0.5962(3)
H6 H 0.8895 0.1597 0.6407
H7 H 0.7897 0.1682 0.5237
H8 H 0.7462 0.1978 0.6287
C12 C 0.9674(3) 0.3671(3) 0.7905(2)
H9 H 1.0433 0.4168 0.8303
H10 H 0.9923 0.2744 0.7859
C13 C 0.8682(3) 0.3741(3) 0.8535(2)
H11 H 0.8385 0.4658 0.8531
H12 H 0.7949 0.3189 0.8165
C14 C 0.9219(3) 0.3269(3) 0.9717(3)
H13 H 0.9995 0.3771 1.0063
H14 H 0.8600 0.3470 1.0111
C15 C 0.9521(3) 0.1824(3) 0.9828(3)
loop_
_geom_bond_atom_site_label_1
_geom_bond_atom_site_label_2
_geom_bond_site_symmetry_1
_geom_bond_site_symmetry_2
O1 H1 1_555 1_555
O2 C6 1_555 1_555
O3 C9 1_555 1_555
O4 C15 1_555 1_555
O5 H2 1_555 1_555
C1 O1 1_555 1_555
C2 C1 1_555 1_555
H3 C2 1_555 1_555
C3 C2 1_555 1_555
H4 C3 1_555 1_555
C4 C3 1_555 1_555
H5 C4 1_555 1_555
C5 C4 1_555 1_555
C6 C5 1_555 1_555
C7 C6 1_555 1_555
C8 C7 1_555 1_555
C9 C8 1_555 1_555
C10 C1 1_555 1_555
C11 C7 1_555 1_555
H6 C11 1_555 1_555
H7 C11 1_555 1_555
H8 C11 1_555 1_555
C12 C8 1_555 1_555
H9 C12 1_555 1_555
H10 C12 1_555 1_555
C13 C12 1_555 1_555
H11 C13 1_555 1_555
H12 C13 1_555 1_555
C14 C13 1_555 1_555
H13 C14 1_555 1_555
H14 C14 1_555 1_555
C15 O5 1_555 1_555
C5 C10 1_555 1_555
C9 C10 1_555 1_555
C14 C15 1_555 1_555

#END
