
#######################################################################
#
#                 Cambridge Crystallographic Data Centre
#                                CCDC 
#
#######################################################################
#
# If this CIF has been generated from an entry in the Cambridge 
# Structural Database, then it will include bibliographic, chemical, 
# crystal, experimental, refinement or atomic coordinate data resulting 
# from the CCDC's data processing and validation procedures.
#
#######################################################################

data_FUGYUC
_chemical_formula_moiety         'C10 H18 N1 1+,C7 H5 O2 1-'
_chemical_name_systematic        'Adamantane-1-ammonium benzoate'
_symmetry_cell_setting           monoclinic
_symmetry_space_group_name_H-M   'P 21/n'
_symmetry_Int_Tables_number      14
_space_group_name_Hall           '-P 2yn'
loop_
_symmetry_equiv_pos_site_id
_symmetry_equiv_pos_as_xyz
1 x,y,z
2 1/2-x,1/2+y,1/2-z
3 -x,-y,-z
4 1/2+x,1/2-y,1/2+z
_cell_length_a                   10.918(2)
_cell_length_b                   6.5664(13)
_cell_length_c                   21.197(4)
_cell_angle_alpha                90
_cell_angle_beta                 100.07(3)
_cell_angle_gamma                90
_cell_volume                     1496.24
_exptl_crystal_colour            colorless
_exptl_crystal_description       prism
_cell_formula_units_Z            4
loop_
_atom_site_label
_atom_site_type_symbol
_atom_site_fract_x
_atom_site_fract_y
_atom_site_fract_z
C1 C 0.56217(14) 0.6892(3) 0.15342(7)
C2 C 0.47020(13) 0.7614(2) 0.09647(7)
C3 C 0.41146(17) 0.6184(3) 0.05392(8)
H1 H 0.4282 0.4807 0.0612
C4 C 0.3278(2) 0.6789(3) 0.00041(9)
H2 H 0.2899 0.5820 -0.0286
C5 C 0.30094(19) 0.8799(4) -0.00983(9)
H3 H 0.2439 0.9201 -0.0455
C6 C 0.35764(18) 1.0225(3) 0.03223(9)
H4 H 0.3385 1.1596 0.0253
C7 C 0.44324(15) 0.9646(3) 0.08504(8)
H5 H 0.4828 1.0629 0.1130
O1 O 0.57302(14) 0.5030(2) 0.16200(6)
O2 O 0.62592(11) 0.81896(19) 0.18784(6)
C8 C 0.93359(16) 0.8861(2) 0.16653(8)
H6 H 0.9568 1.0003 0.1952
H7 H 0.8483 0.9057 0.1452
C9 C 0.94432(13) 0.6891(2) 0.20453(7)
C10 C 0.90627(16) 0.5096(2) 0.15964(8)
H8 H 0.9123 0.3838 0.1840
H9 H 0.8207 0.5260 0.1383
C11 C 0.99218(19) 0.5007(3) 0.11014(9)
H10 H 0.9681 0.3859 0.0811
C12 C 0.98200(19) 0.6977(3) 0.07187(9)
H11 H 0.8972 0.7158 0.0496
H12 H 1.0360 0.6915 0.0401
C13 C 1.01933(18) 0.8766(3) 0.11689(9)
H13 H 1.0126 1.0035 0.0922
C14 C 1.07795(14) 0.6598(3) 0.23908(8)
H14 H 1.0846 0.5347 0.2638
H15 H 1.1021 0.7723 0.2683
C15 C 1.16369(16) 0.6503(3) 0.18941(9)
H16 H 1.2497 0.6317 0.2113
C16 C 1.15367(17) 0.8477(3) 0.15120(10)
H17 H 1.2089 0.8428 0.1200
H18 H 1.1783 0.9616 0.1797
C17 C 1.1262(2) 0.4714(3) 0.14452(11)
H19 H 1.1330 0.3455 0.1688
H20 H 1.1813 0.4629 0.1134
N1 N 0.85951(11) 0.69816(19) 0.25257(6)
H21 H 0.8810 0.8025 0.2790
H22 H 0.8654 0.5828 0.2749
H23 H 0.7815 0.7146 0.2324
loop_
_geom_bond_atom_site_label_1
_geom_bond_atom_site_label_2
_geom_bond_site_symmetry_1
_geom_bond_site_symmetry_2
C1 C2 1_555 1_555
C2 C3 1_555 1_555
C3 H1 1_555 1_555
C4 C3 1_555 1_555
H2 C4 1_555 1_555
C5 C4 1_555 1_555
H3 C5 1_555 1_555
C6 C5 1_555 1_555
H4 C6 1_555 1_555
C7 C2 1_555 1_555
H5 C7 1_555 1_555
O1 C1 1_555 1_555
O2 C1 1_555 1_555
C8 H6 1_555 1_555
H7 C8 1_555 1_555
C9 C8 1_555 1_555
C10 C9 1_555 1_555
H8 C10 1_555 1_555
H9 C10 1_555 1_555
C11 C10 1_555 1_555
H10 C11 1_555 1_555
C12 C11 1_555 1_555
H11 C12 1_555 1_555
H12 C12 1_555 1_555
C13 C8 1_555 1_555
H13 C13 1_555 1_555
C14 C9 1_555 1_555
H14 C14 1_555 1_555
H15 C14 1_555 1_555
C15 C14 1_555 1_555
H16 C15 1_555 1_555
C16 C13 1_555 1_555
H17 C16 1_555 1_555
H18 C16 1_555 1_555
C17 C11 1_555 1_555
H19 C17 1_555 1_555
H20 C17 1_555 1_555
N1 C9 1_555 1_555
H21 N1 1_555 1_555
H22 N1 1_555 1_555
H23 N1 1_555 1_555
C6 C7 1_555 1_555
C12 C13 1_555 1_555
C15 C16 1_555 1_555
C15 C17 1_555 1_555

#END
