
#######################################################################
#
#                 Cambridge Crystallographic Data Centre
#                                CCDC 
#
#######################################################################
#
# If this CIF has been generated from an entry in the Cambridge 
# Structural Database, then it will include bibliographic, chemical, 
# crystal, experimental, refinement or atomic coordinate data resulting 
# from the CCDC's data processing and validation procedures.
#
#######################################################################

data_FUHJUO
_chemical_formula_moiety         'C28 H22 N4 O4'
_chemical_name_systematic        
N,N'-bis(8-Quinolyl)-2,2'-(o-phenylenedioxy)diacetamide
_symmetry_cell_setting           orthorhombic
_symmetry_space_group_name_H-M   'F d d 2'
_symmetry_Int_Tables_number      43
_space_group_name_Hall           'F 2 -2d'
loop_
_symmetry_equiv_pos_site_id
_symmetry_equiv_pos_as_xyz
1 x,y,z
2 -x,-y,z
3 1/4+x,1/4-y,1/4+z
4 1/4-x,1/4+y,1/4+z
5 x,1/2+y,1/2+z
6 -x,1/2-y,1/2+z
7 1/4+x,3/4-y,3/4+z
8 1/4-x,3/4+y,3/4+z
9 1/2+x,y,1/2+z
10 1/2-x,-y,1/2+z
11 3/4+x,1/4-y,3/4+z
12 3/4-x,1/4+y,3/4+z
13 1/2+x,1/2+y,z
14 1/2-x,1/2-y,z
15 3/4+x,3/4-y,1/4+z
16 3/4-x,3/4+y,1/4+z
_cell_length_a                   32.648(14)
_cell_length_b                   11.459(4)
_cell_length_c                   12.516(5)
_cell_angle_alpha                90
_cell_angle_beta                 90
_cell_angle_gamma                90
_cell_volume                     4682.4
_exptl_crystal_colour            yellow
_exptl_crystal_description       prism
_cell_formula_units_Z            8
_exptl_crystal_recrystallization_method 'petroleum ether/ethyl acetate'
loop_
_atom_site_label
_atom_site_type_symbol
_atom_site_fract_x
_atom_site_fract_y
_atom_site_fract_z
O1 O 0.13016(8) 1.0567(3) 0.5394(3)
O2 O 0.03851(7) 1.0165(2) 0.39873(19)
N1 N 0.00878(10) 0.8564(3) 0.6781(2)
N2 N 0.07030(10) 0.9673(3) 0.5830(3)
C1 C -0.02253(12) 0.8058(3) 0.7257(3)
H1 H -0.0457 0.7900 0.6851
C2 C -0.02300(13) 0.7745(4) 0.8338(4)
H2 H -0.0460 0.7392 0.8634
C3 C 0.01028(14) 0.7961(4) 0.8944(4)
H3 H 0.0104 0.7760 0.9664
C4 C 0.04461(13) 0.8488(3) 0.8485(3)
C5 C 0.08058(15) 0.8758(4) 0.9066(4)
H4 H 0.0827 0.8552 0.9783
C6 C 0.11176(16) 0.9313(4) 0.8577(4)
H5 H 0.1352 0.9484 0.8968
C7 C 0.11003(13) 0.9644(4) 0.7497(4)
H6 H 0.1319 1.0034 0.7182
C8 C 0.07540(11) 0.9384(3) 0.6908(3)
C9 C 0.04230(11) 0.8797(3) 0.7402(3)
C10 C 0.09592(12) 1.0223(3) 0.5173(3)
C11 C 0.08113(11) 1.0392(3) 0.4046(4)
H7 H 0.0866 1.1186 0.3818
H8 H 0.0957 0.9867 0.3571
C12 C 0.02089(10) 1.0103(3) 0.2991(3)
C13 C 0.04141(13) 1.0219(3) 0.2046(3)
H9 H 0.0694 1.0369 0.2043
C14 C 0.02013(13) 1.0111(4) 0.1088(4)
H10 H 0.0340 1.0194 0.0443
H11 H 0.0455(12) 0.947(3) 0.560(3)
O1A O -0.13016(8) 0.9433(3) 0.5394(3)
O2A O -0.03851(7) 0.9835(2) 0.39873(19)
N1A N -0.00878(10) 1.1436(3) 0.6781(2)
N2A N -0.07030(10) 1.0327(3) 0.5830(3)
C1A C 0.02253(12) 1.1942(3) 0.7257(3)
H1A H 0.0457 1.2100 0.6851
C2A C 0.02300(13) 1.2255(4) 0.8338(4)
H2A H 0.0460 1.2608 0.8634
C3A C -0.01028(14) 1.2039(4) 0.8944(4)
H3A H -0.0104 1.2240 0.9664
C4A C -0.04461(13) 1.1512(3) 0.8485(3)
C5A C -0.08058(15) 1.1242(4) 0.9066(4)
H4A H -0.0827 1.1448 0.9783
C6A C -0.11176(16) 1.0687(4) 0.8577(4)
H5A H -0.1352 1.0516 0.8968
C7A C -0.11003(13) 1.0356(4) 0.7497(4)
H6A H -0.1319 0.9966 0.7182
C8A C -0.07540(11) 1.0616(3) 0.6908(3)
C9A C -0.04230(11) 1.1203(3) 0.7402(3)
C10A C -0.09592(12) 0.9777(3) 0.5173(3)
C11A C -0.08113(11) 0.9608(3) 0.4046(4)
H7A H -0.0866 0.8814 0.3818
H8A H -0.0957 1.0133 0.3571
C12A C -0.02089(10) 0.9897(3) 0.2991(3)
C13A C -0.04141(13) 0.9781(3) 0.2046(3)
H9A H -0.0694 0.9631 0.2043
C14A C -0.02013(13) 0.9889(4) 0.1088(4)
H10A H -0.0340 0.9806 0.0443
H11A H -0.0455(12) 1.053(3) 0.560(3)
loop_
_geom_bond_atom_site_label_1
_geom_bond_atom_site_label_2
_geom_bond_site_symmetry_1
_geom_bond_site_symmetry_2
O1 C10 1_555 1_555
O2 C11 1_555 1_555
N1 C1 1_555 1_555
N2 C8 1_555 1_555
C1 H1 1_555 1_555
C2 C1 1_555 1_555
H2 C2 1_555 1_555
C3 C2 1_555 1_555
H3 C3 1_555 1_555
C4 C3 1_555 1_555
C5 C4 1_555 1_555
H4 C5 1_555 1_555
C6 C5 1_555 1_555
H5 C6 1_555 1_555
C7 C6 1_555 1_555
H6 C7 1_555 1_555
C8 C7 1_555 1_555
C9 N1 1_555 1_555
C10 N2 1_555 1_555
C11 C10 1_555 1_555
H7 C11 1_555 1_555
H8 C11 1_555 1_555
C12 O2 1_555 1_555
C13 C12 1_555 1_555
H9 C13 1_555 1_555
C14 C13 1_555 1_555
H10 C14 1_555 1_555
H11 N2 1_555 1_555
O1A C10A 1_555 1_555
O2A C11A 1_555 1_555
N1A C1A 1_555 1_555
N2A C8A 1_555 1_555
C1A H1A 1_555 1_555
C2A C1A 1_555 1_555
H2A C2A 1_555 1_555
C3A C2A 1_555 1_555
H3A C3A 1_555 1_555
C4A C3A 1_555 1_555
C5A C4A 1_555 1_555
H4A C5A 1_555 1_555
C6A C5A 1_555 1_555
H5A C6A 1_555 1_555
C7A C6A 1_555 1_555
H6A C7A 1_555 1_555
C8A C7A 1_555 1_555
C9A N1A 1_555 1_555
C10A N2A 1_555 1_555
C11A C10A 1_555 1_555
H7A C11A 1_555 1_555
H8A C11A 1_555 1_555
C12A C12 1_555 1_555
C13A C12A 1_555 1_555
H9A C13A 1_555 1_555
C14A C14 1_555 1_555
H10A C14A 1_555 1_555
H11A N2A 1_555 1_555
C4 C9 1_555 1_555
C8 C9 1_555 1_555
O2A C12A 1_555 1_555
C4A C9A 1_555 1_555
C8A C9A 1_555 1_555
C13A C14A 1_555 1_555

#END
