
#######################################################################
#
#                 Cambridge Crystallographic Data Centre
#                                CCDC 
#
#######################################################################
#
# If this CIF has been generated from an entry in the Cambridge 
# Structural Database, then it will include bibliographic, chemical, 
# crystal, experimental, refinement or atomic coordinate data resulting 
# from the CCDC's data processing and validation procedures.
#
#######################################################################

data_FUHNEC
_chemical_formula_moiety         'C28 H27 N1 O2'
_chemical_name_systematic        
(1S*,4aR*,5S*,6S*,8aR*)-3-benzyl-1-methyl-5,6-diphenyl-3,4,4a,5,6,8a-hexahydro-1H-2,3-benzoxazin-4-one
_symmetry_cell_setting           triclinic
_symmetry_space_group_name_H-M   'P -1'
_symmetry_Int_Tables_number      2
_space_group_name_Hall           '-P 1'
loop_
_symmetry_equiv_pos_site_id
_symmetry_equiv_pos_as_xyz
1 x,y,z
2 -x,-y,-z
_cell_length_a                   7.9721(5)
_cell_length_b                   11.0649(7)
_cell_length_c                   13.5780(10)
_cell_angle_alpha                78.168(2)
_cell_angle_beta                 73.178(2)
_cell_angle_gamma                82.8190(10)
_cell_volume                     1119.35
_exptl_crystal_colour            colorless
_exptl_crystal_description       block
_chemical_melting_point          '464-466 K'
_cell_formula_units_Z            2
_exptl_crystal_recrystallization_method 'ethyl acetate/hexane'
loop_
_atom_site_label
_atom_site_type_symbol
_atom_site_fract_x
_atom_site_fract_y
_atom_site_fract_z
O1 O 0.31521(17) 0.51064(13) 0.10452(11)
O2 O 0.52969(18) 0.30895(13) 0.27091(11)
N1 N 0.4262(2) 0.34429(15) 0.19925(14)
C1 C 0.4170(2) 0.46717(18) 0.15722(14)
C2 C 0.5572(2) 0.53344(17) 0.17483(14)
H1 H 0.5323 0.5327 0.2500
C3 C 0.5745(2) 0.66685(17) 0.11789(14)
H2 H 0.6124 0.6640 0.0429
C4 C 0.7261(2) 0.72170(18) 0.14317(15)
H3 H 0.7563 0.7967 0.0909
C5 C 0.8884(2) 0.6345(2) 0.12960(15)
H4 H 0.9952 0.6667 0.1207
C6 C 0.8889(2) 0.5157(2) 0.12950(15)
H5 H 0.9953 0.4685 0.1222
C7 C 0.7277(2) 0.45197(17) 0.14044(15)
H6 H 0.7338 0.4351 0.0714
C8 C 0.7139(3) 0.32775(19) 0.21604(17)
H7 H 0.7741 0.3327 0.2685
C9 C 0.2941(3) 0.2601(2) 0.21231(18)
H8 H 0.3504 0.1772 0.2120
H9 H 0.2461 0.2817 0.1525
C10 C 0.1442(3) 0.2581(2) 0.31043(16)
C11 C 0.0603(3) 0.1503(2) 0.3554(2)
H10 H 0.1029 0.0782 0.3286
C12 C -0.0877(4) 0.1488(3) 0.4408(2)
H11 H -0.1452 0.0763 0.4694
C13 C -0.1489(4) 0.2533(4) 0.4827(2)
H12 H -0.2469 0.2519 0.5402
C14 C -0.0652(3) 0.3601(3) 0.4396(2)
H13 H -0.1060 0.4312 0.4683
C15 C 0.0799(3) 0.3628(2) 0.35354(18)
H14 H 0.1347 0.4362 0.3243
C16 C 0.4076(2) 0.75084(17) 0.13603(15)
C17 C 0.2782(3) 0.7394(2) 0.23037(17)
H15 H 0.2919 0.6763 0.2850
C18 C 0.1290(3) 0.8199(2) 0.2451(2)
H16 H 0.0439 0.8107 0.3091
C19 C 0.1071(3) 0.9132(2) 0.1653(2)
H17 H 0.0068 0.9672 0.1748
C20 C 0.2332(4) 0.9266(2) 0.0717(2)
H18 H 0.2187 0.9901 0.0175
C21 C 0.3824(3) 0.8461(2) 0.05714(19)
H19 H 0.4672 0.8564 -0.0069
C22 C 0.6757(3) 0.7609(2) 0.24998(17)
C23 C 0.6937(3) 0.6795(2) 0.33864(18)
H20 H 0.7340 0.5977 0.3341
C24 C 0.6525(4) 0.7179(3) 0.4344(2)
H21 H 0.6639 0.6617 0.4936
C25 C 0.5950(4) 0.8386(4) 0.4419(3)
H22 H 0.5697 0.8649 0.5058
C26 C 0.5751(4) 0.9202(3) 0.3550(3)
H23 H 0.5346 1.0019 0.3600
C27 C 0.6148(3) 0.8819(2) 0.2602(2)
H24 H 0.6006 0.9383 0.2017
C28 C 0.8005(3) 0.2201(2) 0.1641(2)
H25 H 0.7915 0.1457 0.2156
H26 H 0.9221 0.2336 0.1308
H27 H 0.7434 0.2121 0.1127
loop_
_geom_bond_atom_site_label_1
_geom_bond_atom_site_label_2
_geom_bond_site_symmetry_1
_geom_bond_site_symmetry_2
O1 C1 1_555 1_555
O2 N1 1_555 1_555
N1 C1 1_555 1_555
C1 C2 1_555 1_555
C2 H1 1_555 1_555
C3 C2 1_555 1_555
H2 C3 1_555 1_555
C4 C3 1_555 1_555
H3 C4 1_555 1_555
C5 C4 1_555 1_555
H4 C5 1_555 1_555
C6 C5 1_555 1_555
H5 C6 1_555 1_555
C7 C2 1_555 1_555
H6 C7 1_555 1_555
C8 O2 1_555 1_555
H7 C8 1_555 1_555
C9 N1 1_555 1_555
H8 C9 1_555 1_555
H9 C9 1_555 1_555
C10 C9 1_555 1_555
C11 C10 1_555 1_555
H10 C11 1_555 1_555
C12 C11 1_555 1_555
H11 C12 1_555 1_555
C13 C12 1_555 1_555
H12 C13 1_555 1_555
C14 C13 1_555 1_555
H13 C14 1_555 1_555
C15 C10 1_555 1_555
H14 C15 1_555 1_555
C16 C3 1_555 1_555
C17 C16 1_555 1_555
H15 C17 1_555 1_555
C18 C17 1_555 1_555
H16 C18 1_555 1_555
C19 C18 1_555 1_555
H17 C19 1_555 1_555
C20 C19 1_555 1_555
H18 C20 1_555 1_555
C21 C16 1_555 1_555
H19 C21 1_555 1_555
C22 C4 1_555 1_555
C23 C22 1_555 1_555
H20 C23 1_555 1_555
C24 C23 1_555 1_555
H21 C24 1_555 1_555
C25 C24 1_555 1_555
H22 C25 1_555 1_555
C26 C25 1_555 1_555
H23 C26 1_555 1_555
C27 C22 1_555 1_555
H24 C27 1_555 1_555
C28 C8 1_555 1_555
H25 C28 1_555 1_555
H26 C28 1_555 1_555
H27 C28 1_555 1_555
C6 C7 1_555 1_555
C7 C8 1_555 1_555
C14 C15 1_555 1_555
C20 C21 1_555 1_555
C26 C27 1_555 1_555

#END
