
#######################################################################
#
#                 Cambridge Crystallographic Data Centre
#                                CCDC 
#
#######################################################################
#
# If this CIF has been generated from an entry in the Cambridge 
# Structural Database, then it will include bibliographic, chemical, 
# crystal, experimental, refinement or atomic coordinate data resulting 
# from the CCDC's data processing and validation procedures.
#
#######################################################################

data_FULLUU
_chemical_name_common            
Naphtho[2,1-b]naphtho[1',2':4,5]thieno[2,3-d]thiophene
_chemical_formula_moiety         'C22 H12 S2'
_chemical_name_systematic        
Dinaphtho[2,1-b:2',1'-f]thieno[3,2-b]thiophene
_symmetry_cell_setting           monoclinic
_symmetry_space_group_name_H-M   'P 21/c'
_symmetry_Int_Tables_number      14
_space_group_name_Hall           '-P 2ybc'
loop_
_symmetry_equiv_pos_site_id
_symmetry_equiv_pos_as_xyz
1 x,y,z
2 -x,1/2+y,1/2-z
3 -x,-y,-z
4 x,1/2-y,1/2+z
_cell_length_a                   14.3186(16)
_cell_length_b                   3.9269(4)
_cell_length_c                   13.882(2)
_cell_angle_alpha                90
_cell_angle_beta                 105.092(6)
_cell_angle_gamma                90
_cell_volume                     753.631
_exptl_crystal_colour            colorless
_exptl_crystal_description       needle
_chemical_melting_point          'above 300 deg.C'
_cell_formula_units_Z            2
_exptl_crystal_recrystallization_method m-dichlorobenzene
_exptl_crystal_preparation       semiconductor
loop_
_atom_site_label
_atom_site_type_symbol
_atom_site_fract_x
_atom_site_fract_y
_atom_site_fract_z
S1 S 0.01631(4) -0.23257(13) -0.12995(4)
C1 C 0.04146(14) -0.0527(5) -0.01211(14)
C2 C 0.12859(14) 0.0091(5) 0.06369(15)
C3 C 0.10643(16) 0.1653(5) 0.14604(16)
C4 C 0.17926(18) 0.2604(6) 0.23131(17)
H1 H 0.1633 0.3601 0.2857
C5 C 0.27248(18) 0.2040(6) 0.23263(18)
H2 H 0.3207 0.2706 0.2883
C6 C 0.29948(15) 0.0460(5) 0.15160(16)
C7 C 0.22713(14) -0.0556(5) 0.06574(15)
C8 C 0.39710(16) -0.0124(6) 0.1541(2)
H3 H 0.4451 0.0528 0.2101
C9 C 0.42281(17) -0.1632(7) 0.0759(2)
H4 H 0.4877 -0.1996 0.0791
C10 C 0.35201(18) -0.2618(6) -0.0083(2)
H5 H 0.3697 -0.3612 -0.0617
C11 C 0.25624(17) -0.2134(6) -0.01318(18)
H6 H 0.2095 -0.2856 -0.0694
S1B S -0.01631(4) 0.23257(13) 0.12995(4)
C1B C -0.04146(14) 0.0527(5) 0.01211(14)
C2B C -0.12859(14) -0.0091(5) -0.06369(15)
C3B C -0.10643(16) -0.1653(5) -0.14604(16)
C4B C -0.17926(18) -0.2604(6) -0.23131(17)
H1B H -0.1633 -0.3601 -0.2857
C5B C -0.27248(18) -0.2040(6) -0.23263(18)
H2B H -0.3207 -0.2706 -0.2883
C6B C -0.29948(15) -0.0460(5) -0.15160(16)
C7B C -0.22713(14) 0.0556(5) -0.06574(15)
C8B C -0.39710(16) 0.0124(6) -0.1541(2)
H3B H -0.4451 -0.0528 -0.2101
C9B C -0.42281(17) 0.1632(7) -0.0759(2)
H4B H -0.4877 0.1996 -0.0791
C10B C -0.35201(18) 0.2618(6) 0.0083(2)
H5B H -0.3697 0.3612 0.0617
C11B C -0.25624(17) 0.2134(6) 0.01318(18)
H6B H -0.2095 0.2856 0.0694
loop_
_geom_bond_atom_site_label_1
_geom_bond_atom_site_label_2
_geom_bond_site_symmetry_1
_geom_bond_site_symmetry_2
S1 C1 1_555 1_555
C1 C2 1_555 1_555
C2 C3 1_555 1_555
C3 C4 1_555 1_555
C4 H1 1_555 1_555
C5 C4 1_555 1_555
H2 C5 1_555 1_555
C6 C5 1_555 1_555
C7 C2 1_555 1_555
C8 C6 1_555 1_555
H3 C8 1_555 1_555
C9 C8 1_555 1_555
H4 C9 1_555 1_555
C10 C9 1_555 1_555
H5 C10 1_555 1_555
C11 C7 1_555 1_555
H6 C11 1_555 1_555
S1B C3 1_555 1_555
C1B C1 1_555 1_555
C2B C1B 1_555 1_555
C3B S1 1_555 1_555
C4B C3B 1_555 1_555
H1B C4B 1_555 1_555
C5B C4B 1_555 1_555
H2B C5B 1_555 1_555
C6B C5B 1_555 1_555
C7B C2B 1_555 1_555
C8B C6B 1_555 1_555
H3B C8B 1_555 1_555
C9B C8B 1_555 1_555
H4B C9B 1_555 1_555
C10B C9B 1_555 1_555
H5B C10B 1_555 1_555
C11B C7B 1_555 1_555
H6B C11B 1_555 1_555
C6 C7 1_555 1_555
C10 C11 1_555 1_555
S1B C1B 1_555 1_555
C2B C3B 1_555 1_555
C6B C7B 1_555 1_555
C10B C11B 1_555 1_555

#END
