
#######################################################################
#
#                 Cambridge Crystallographic Data Centre
#                                CCDC 
#
#######################################################################
#
# If this CIF has been generated from an entry in the Cambridge 
# Structural Database, then it will include bibliographic, chemical, 
# crystal, experimental, refinement or atomic coordinate data resulting 
# from the CCDC's data processing and validation procedures.
#
#######################################################################

data_FUMSIR
_chemical_formula_moiety         'C13 H12 N2 O4 S1'
_chemical_name_systematic        
5-(3-hydroxy-1-methyl-2-oxo-2,3-dihydro-1H-indol-3-yl)-3-methyl-1,3-thiazolidine-2,4-dione
_symmetry_cell_setting           monoclinic
_symmetry_space_group_name_H-M   'P 21/n'
_symmetry_Int_Tables_number      14
_space_group_name_Hall           '-P 2yn'
loop_
_symmetry_equiv_pos_site_id
_symmetry_equiv_pos_as_xyz
1 x,y,z
2 1/2-x,1/2+y,1/2-z
3 -x,-y,-z
4 1/2+x,1/2-y,1/2+z
_cell_length_a                   13.6210(13)
_cell_length_b                   7.4887(7)
_cell_length_c                   13.6778(14)
_cell_angle_alpha                90
_cell_angle_beta                 104.871(2)
_cell_angle_gamma                90
_cell_volume                     1348.45
_exptl_crystal_colour            colorless
_exptl_crystal_description       block
_cell_formula_units_Z            4
loop_
_atom_site_label
_atom_site_type_symbol
_atom_site_fract_x
_atom_site_fract_y
_atom_site_fract_z
S1 S 0.43595(3) 0.57625(5) 0.10928(4)
O1 O 0.59501(11) 0.36270(18) 0.16134(14)
O2 O 0.62670(9) 0.96016(15) 0.12073(9)
O3 O 0.52745(11) 0.9251(2) 0.31311(11)
O4 O 0.43018(9) 1.11650(15) 0.11959(10)
H1 H 0.4904 1.1397 0.1433
N1 N 0.62736(10) 0.65820(18) 0.14106(12)
N2 N 0.35608(12) 0.8769(2) 0.28979(12)
C1 C 0.56501(13) 0.5133(2) 0.14177(14)
C2 C 0.46610(12) 0.8061(2) 0.08841(12)
H2 H 0.4430 0.8301 0.0157
C3 C 0.41115(12) 0.9378(2) 0.14337(13)
C4 C 0.29840(13) 0.9030(2) 0.11691(14)
C5 C 0.22746(14) 0.8969(3) 0.02494(15)
H3 H 0.2462 0.9167 -0.0349
C6 C 0.12681(15) 0.8600(3) 0.02386(19)
H4 H 0.0775 0.8558 -0.0374
C7 C 0.09998(16) 0.8298(3) 0.1131(2)
H5 H 0.0323 0.8068 0.1108
C8 C 0.58094(12) 0.8219(2) 0.11920(12)
C9 C 0.73754(14) 0.6369(3) 0.1608(2)
H6 H 0.7674 0.6380 0.2324
H7 H 0.7649 0.7333 0.1298
H8 H 0.7525 0.5255 0.1330
C10 C 0.44211(14) 0.9113(2) 0.25940(14)
C11 C 0.27033(14) 0.8697(2) 0.20647(14)
C12 C 0.17092(16) 0.8327(2) 0.20595(18)
H9 H 0.1523 0.8105 0.2657
C13 C 0.35353(19) 0.8573(3) 0.39469(16)
H10 H 0.4195 0.8829 0.4380
H11 H 0.3347 0.7371 0.4063
H12 H 0.3047 0.9388 0.4092
loop_
_geom_bond_atom_site_label_1
_geom_bond_atom_site_label_2
_geom_bond_site_symmetry_1
_geom_bond_site_symmetry_2
S1 C1 1_555 1_555
O1 C1 1_555 1_555
O2 C8 1_555 1_555
O3 C10 1_555 1_555
O4 H1 1_555 1_555
N1 C1 1_555 1_555
N2 C10 1_555 1_555
C2 S1 1_555 1_555
H2 C2 1_555 1_555
C3 O4 1_555 1_555
C4 C3 1_555 1_555
C5 C4 1_555 1_555
H3 C5 1_555 1_555
C6 C5 1_555 1_555
H4 C6 1_555 1_555
C7 C6 1_555 1_555
H5 C7 1_555 1_555
C8 N1 1_555 1_555
C9 N1 1_555 1_555
H6 C9 1_555 1_555
H7 C9 1_555 1_555
H8 C9 1_555 1_555
C10 C3 1_555 1_555
C11 N2 1_555 1_555
C12 C7 1_555 1_555
H9 C12 1_555 1_555
C13 N2 1_555 1_555
H10 C13 1_555 1_555
H11 C13 1_555 1_555
H12 C13 1_555 1_555
C2 C3 1_555 1_555
C2 C8 1_555 1_555
C4 C11 1_555 1_555
C11 C12 1_555 1_555

#END
