
#######################################################################
#
#                 Cambridge Crystallographic Data Centre
#                                CCDC 
#
#######################################################################
#
# If this CIF has been generated from an entry in the Cambridge 
# Structural Database, then it will include bibliographic, chemical, 
# crystal, experimental, refinement or atomic coordinate data resulting 
# from the CCDC's data processing and validation procedures.
#
#######################################################################

data_FUNRUD
_chemical_formula_moiety         'C15 H12 F3 N1 O1'
_chemical_name_systematic        
N-methyl-N-phenyl-3-(trifluoromethyl)benzamide
_symmetry_cell_setting           monoclinic
_symmetry_space_group_name_H-M   'C 2/c'
_symmetry_Int_Tables_number      15
_space_group_name_Hall           '-C 2yn'
loop_
_symmetry_equiv_pos_site_id
_symmetry_equiv_pos_as_xyz
1 x,y,z
2 -x,y,1/2-z
3 1/2+x,1/2+y,z
4 1/2-x,1/2+y,1/2-z
5 -x,-y,-z
6 x,-y,1/2+z
7 1/2-x,1/2-y,-z
8 1/2+x,1/2-y,1/2+z
_cell_length_a                   35.8393(17)
_cell_length_b                   10.6270(4)
_cell_length_c                   15.1660(7)
_cell_angle_alpha                90
_cell_angle_beta                 114.399(5)
_cell_angle_gamma                90
_cell_volume                     5260.32
_exptl_crystal_colour            colorless
_exptl_crystal_description       'Thick plate'
_cell_formula_units_Z            16
loop_
_atom_site_label
_atom_site_type_symbol
_atom_site_fract_x
_atom_site_fract_y
_atom_site_fract_z
F1 F 0.43507(4) 0.32136(12) 0.49648(8)
F2 F 0.45984(4) 0.39744(13) 0.40228(9)
F3 F 0.44187(4) 0.20338(12) 0.38993(9)
N1 N 0.25644(5) 0.19091(16) 0.13172(11)
O1 O 0.31099(4) 0.13020(14) 0.10263(10)
C1 C 0.32258(6) 0.29721(19) 0.21404(13)
C2 C 0.36225(6) 0.26439(19) 0.27625(13)
H1 H 0.3712 0.1798 0.2786
C3 C 0.38878(6) 0.35443(19) 0.33478(13)
C4 C 0.37649(6) 0.4793(2) 0.33053(13)
H2 H 0.3950 0.5413 0.3698
C5 C 0.33689(6) 0.5120(2) 0.26839(14)
H3 H 0.3281 0.5970 0.2652
C6 C 0.31000(6) 0.42186(19) 0.21090(13)
H4 H 0.2828 0.4450 0.1690
C7 C 0.24093(6) 0.24495(19) 0.19663(13)
C8 C 0.25698(6) 0.20781(19) 0.29275(13)
H5 H 0.2785 0.1477 0.3163
C9 C 0.24123(6) 0.2596(2) 0.35418(14)
H6 H 0.2522 0.2352 0.4204
C10 C 0.20972(6) 0.3463(2) 0.31975(15)
H7 H 0.1990 0.3811 0.3621
C11 C 0.19388(6) 0.3824(2) 0.22393(16)
H8 H 0.1723 0.4421 0.2004
C12 C 0.20940(6) 0.3318(2) 0.16187(15)
H9 H 0.1985 0.3565 0.0958
C13 C 0.29634(6) 0.19791(19) 0.14579(13)
C14 C 0.22878(6) 0.1049(2) 0.05811(14)
H10 H 0.2419 0.0759 0.0164
H11 H 0.2033 0.1489 0.0188
H12 H 0.2227 0.0324 0.0899
C15 C 0.43096(6) 0.3194(2) 0.40447(14)
F4 F 0.3807(2) 0.3676(8) 0.0837(12)
F5 F 0.4385(3) 0.3872(11) 0.2012(6)
F6 F 0.4367(2) 0.4191(7) 0.0600(6)
N2 N 0.37885(5) -0.20801(15) 0.08807(11)
O2 O 0.34742(5) -0.08919(14) -0.04650(10)
C16 C 0.40903(6) -0.00779(19) 0.07259(12)
C17 C 0.39849(6) 0.11835(19) 0.07213(13)
H13 H 0.3706 0.1421 0.0523
C18 C 0.42892(6) 0.20880(19) 0.10081(13)
C19 C 0.46964(6) 0.17603(19) 0.12802(13)
H14 H 0.4903 0.2390 0.1470
C20 C 0.47990(6) 0.0508(2) 0.12723(14)
H15 H 0.5077 0.0275 0.1452
C21 C 0.44988(6) -0.04058(19) 0.10038(13)
H16 H 0.4572 -0.1266 0.1009
C22 C 0.40605(6) -0.21504(19) 0.18891(13)
C23 C 0.43566(6) -0.30847(19) 0.22103(14)
H17 H 0.4382 -0.3665 0.1762
C24 C 0.46146(6) -0.3171(2) 0.31826(14)
H18 H 0.4817 -0.3811 0.3403
C25 C 0.45772(7) -0.2327(2) 0.38313(15)
H19 H 0.4756 -0.2383 0.4498
C26 C 0.42804(7) -0.1401(2) 0.35147(14)
H20 H 0.4254 -0.0825 0.3965
C27 C 0.40206(6) -0.1311(2) 0.25403(14)
H21 H 0.3816 -0.0675 0.2322
C28 C 0.37557(6) -0.10388(19) 0.03381(14)
C29 C 0.35029(6) -0.3127(2) 0.04611(14)
H22 H 0.3271 -0.3049 0.0643
H23 H 0.3645 -0.3926 0.0706
H24 H 0.3402 -0.3106 -0.0246
C30 C 0.41900(7) 0.3437(2) 0.10443(18)
F7? F 0.3785(3) 0.3690(8) 0.037(3)
F8? F 0.4238(12) 0.3869(11) 0.1835(16)
F9? F 0.4362(3) 0.4181(11) 0.0652(9)
loop_
_geom_bond_atom_site_label_1
_geom_bond_atom_site_label_2
_geom_bond_site_symmetry_1
_geom_bond_site_symmetry_2
F1 C15 1_555 1_555
F2 C15 1_555 1_555
F3 C15 1_555 1_555
N1 C7 1_555 1_555
O1 C13 1_555 1_555
C1 C2 1_555 1_555
C2 H1 1_555 1_555
C3 C2 1_555 1_555
C4 C3 1_555 1_555
H2 C4 1_555 1_555
C5 C4 1_555 1_555
H3 C5 1_555 1_555
C6 C1 1_555 1_555
H4 C6 1_555 1_555
C7 C8 1_555 1_555
C8 H5 1_555 1_555
C9 C8 1_555 1_555
H6 C9 1_555 1_555
C10 C9 1_555 1_555
H7 C10 1_555 1_555
C11 C10 1_555 1_555
H8 C11 1_555 1_555
C12 C7 1_555 1_555
H9 C12 1_555 1_555
C13 N1 1_555 1_555
C14 N1 1_555 1_555
H10 C14 1_555 1_555
H11 C14 1_555 1_555
H12 C14 1_555 1_555
C15 C3 1_555 1_555
F4 C30 1_555 1_555
F5 C30 1_555 1_555
F6 C30 1_555 1_555
N2 C22 1_555 1_555
O2 C28 1_555 1_555
C16 C17 1_555 1_555
C17 H13 1_555 1_555
C18 C17 1_555 1_555
C19 C18 1_555 1_555
H14 C19 1_555 1_555
C20 C19 1_555 1_555
H15 C20 1_555 1_555
C21 C16 1_555 1_555
H16 C21 1_555 1_555
C22 C23 1_555 1_555
C23 H17 1_555 1_555
C24 C23 1_555 1_555
H18 C24 1_555 1_555
C25 C24 1_555 1_555
H19 C25 1_555 1_555
C26 C25 1_555 1_555
H20 C26 1_555 1_555
C27 C22 1_555 1_555
H21 C27 1_555 1_555
C28 N2 1_555 1_555
C29 N2 1_555 1_555
H22 C29 1_555 1_555
H23 C29 1_555 1_555
H24 C29 1_555 1_555
C30 C18 1_555 1_555
C1 C13 1_555 1_555
C5 C6 1_555 1_555
C11 C12 1_555 1_555
C16 C28 1_555 1_555
C20 C21 1_555 1_555
C26 C27 1_555 1_555

#END
