
#######################################################################
#
#                 Cambridge Crystallographic Data Centre
#                                CCDC 
#
#######################################################################
#
# If this CIF has been generated from an entry in the Cambridge 
# Structural Database, then it will include bibliographic, chemical, 
# crystal, experimental, refinement or atomic coordinate data resulting 
# from the CCDC's data processing and validation procedures.
#
#######################################################################

data_FUNTEP
_chemical_formula_moiety         'C16 H11 F6 N1 O1'
_chemical_name_systematic        
N-methyl-2-(trifluoromethyl)-N-(4-(trifluoromethyl)phenyl)benzamide
_symmetry_cell_setting           monoclinic
_symmetry_space_group_name_H-M   'P 21/c'
_symmetry_Int_Tables_number      14
_space_group_name_Hall           '-P 2ybc'
loop_
_symmetry_equiv_pos_site_id
_symmetry_equiv_pos_as_xyz
1 x,y,z
2 -x,1/2+y,1/2-z
3 -x,-y,-z
4 x,1/2-y,1/2+z
_cell_length_a                   12.3185(10)
_cell_length_b                   7.9401(5)
_cell_length_c                   15.4912(12)
_cell_angle_alpha                90
_cell_angle_beta                 90.168(4)
_cell_angle_gamma                90
_cell_volume                     1515.19
_exptl_crystal_colour            colorless
_exptl_crystal_description       block
_cell_formula_units_Z            4
loop_
_atom_site_label
_atom_site_type_symbol
_atom_site_fract_x
_atom_site_fract_y
_atom_site_fract_z
F1 F 0.1076(6) -0.4180(7) 0.4864(5)
F2 F 0.2036(4) -0.2962(6) 0.5764(3)
F3 F 0.2780(7) -0.4061(8) 0.4700(4)
F4 F 0.25806(9) 0.19746(13) 0.10536(7)
F5 F 0.36543(9) 0.39952(13) 0.06922(7)
F6 F 0.41923(10) 0.14348(14) 0.06012(7)
N1 N 0.14342(12) 0.28244(17) 0.29769(11)
O1 O 0.20725(10) 0.49305(14) 0.21421(9)
C1 C 0.33869(14) 0.30191(19) 0.26952(12)
C2 C 0.40456(14) 0.25647(19) 0.19984(12)
C3 C 0.51208(15) 0.2121(2) 0.21405(12)
H1 H 0.5563 0.1802 0.1666
C4 C 0.55567(15) 0.2136(2) 0.29656(13)
H2 H 0.6296 0.1844 0.3057
C5 C 0.49092(15) 0.2579(2) 0.36523(12)
H3 H 0.5203 0.2587 0.4220
C6 C 0.38318(14) 0.3013(2) 0.35214(12)
H4 H 0.3392 0.3309 0.4001
C7 C 0.15807(14) 0.1310(2) 0.34617(12)
C8 C 0.19599(14) -0.0141(2) 0.30672(13)
H5 H 0.2139 -0.0133 0.2471
C9 C 0.20756(14) -0.1602(2) 0.35450(13)
H6 H 0.2329 -0.2603 0.3277
C10 C 0.18210(14) -0.1603(2) 0.44170(12)
C11 C 0.14360(15) -0.0156(2) 0.48144(13)
H7 H 0.1260 -0.0162 0.5411
C12 C 0.13113(14) 0.1294(2) 0.43299(13)
H8 H 0.1039 0.2287 0.4594
C13 C 0.22466(14) 0.3656(2) 0.25699(12)
C14 C 0.03311(15) 0.3512(3) 0.29077(16)
H9 H 0.0242 0.4428 0.3325
H10 H -0.0198 0.2621 0.3029
H11 H 0.0213 0.3945 0.2323
C15 C 0.19613(17) -0.3184(2) 0.49249(14)
C16 C 0.36168(16) 0.2501(2) 0.10946(13)
F7? F 0.3017(6) -0.3579(12) 0.4954(8)
F8? F 0.1624(10) -0.4514(6) 0.4514(6)
F9? F 0.161(2) -0.3138(17) 0.5664(9)
loop_
_geom_bond_atom_site_label_1
_geom_bond_atom_site_label_2
_geom_bond_site_symmetry_1
_geom_bond_site_symmetry_2
F1 C15 1_555 1_555
F2 C15 1_555 1_555
F3 C15 1_555 1_555
F4 C16 1_555 1_555
F5 C16 1_555 1_555
F6 C16 1_555 1_555
N1 C7 1_555 1_555
O1 C13 1_555 1_555
C1 C2 1_555 1_555
C2 C3 1_555 1_555
C3 H1 1_555 1_555
C4 C3 1_555 1_555
H2 C4 1_555 1_555
C5 C4 1_555 1_555
H3 C5 1_555 1_555
C6 C1 1_555 1_555
H4 C6 1_555 1_555
C7 C8 1_555 1_555
C8 H5 1_555 1_555
C9 C8 1_555 1_555
H6 C9 1_555 1_555
C10 C9 1_555 1_555
C11 C10 1_555 1_555
H7 C11 1_555 1_555
C12 C7 1_555 1_555
H8 C12 1_555 1_555
C13 N1 1_555 1_555
C14 N1 1_555 1_555
H9 C14 1_555 1_555
H10 C14 1_555 1_555
H11 C14 1_555 1_555
C15 C10 1_555 1_555
C16 C2 1_555 1_555
C1 C13 1_555 1_555
C5 C6 1_555 1_555
C11 C12 1_555 1_555

#END
