
#######################################################################
#
#                 Cambridge Crystallographic Data Centre
#                                CCDC 
#
#######################################################################
#
# If this CIF has been generated from an entry in the Cambridge 
# Structural Database, then it will include bibliographic, chemical, 
# crystal, experimental, refinement or atomic coordinate data resulting 
# from the CCDC's data processing and validation procedures.
#
#######################################################################

data_FUNYEU
_chemical_formula_moiety         'C17 H22 Br1 O4 P1'
_chemical_name_systematic        
'Di-isopropyl ((6-bromo-2-naphthyl)(hydroxy)methyl)phosphonate'
_symmetry_cell_setting           orthorhombic
_symmetry_space_group_name_H-M   'P 21 21 21'
_symmetry_Int_Tables_number      19
_space_group_name_Hall           'P 2ac 2ab'
loop_
_symmetry_equiv_pos_site_id
_symmetry_equiv_pos_as_xyz
1 x,y,z
2 1/2-x,-y,1/2+z
3 1/2+x,1/2-y,-z
4 -x,1/2+y,1/2-z
_cell_length_a                   8.9969(6)
_cell_length_b                   9.8030(6)
_cell_length_c                   20.5949(13)
_cell_angle_alpha                90
_cell_angle_beta                 90
_cell_angle_gamma                90
_cell_volume                     1816.4
_exptl_crystal_colour            colorless
_exptl_crystal_description       plate
_cell_formula_units_Z            4
loop_
_atom_site_label
_atom_site_type_symbol
_atom_site_fract_x
_atom_site_fract_y
_atom_site_fract_z
Br1 Br 0.64217(3) -0.13353(2) 0.685370(10)
P1 P 0.71360(4) 0.61261(4) 0.42827(2)
O1 O 0.83105(14) 0.70449(13) 0.53315(6)
H1 H 0.9071 0.7502 0.5360
O2 O 0.56205(13) 0.62367(13) 0.45499(6)
O3 O 0.74264(14) 0.48633(13) 0.38325(6)
O4 O 0.76143(14) 0.73756(13) 0.38506(6)
C1 C 0.6772(2) 0.04400(19) 0.65119(9)
C2 C 0.60407(19) 0.15562(19) 0.67957(9)
H2 H 0.5407 0.1427 0.7147
C3 C 0.6269(2) 0.28308(18) 0.65505(8)
H3 H 0.5776 0.3568 0.6736
C4 C 0.72444(19) 0.30577(18) 0.60179(8)
C5 C 0.74758(18) 0.43703(18) 0.57507(8)
H4 H 0.6989 0.5118 0.5929
C6 C 0.84102(19) 0.45537(17) 0.52310(8)
C7 C 0.9178(2) 0.34153(19) 0.49703(8)
H5 H 0.9820 0.3539 0.4621
C8 C 0.8988(2) 0.21418(19) 0.52231(9)
H6 H 0.9520 0.1412 0.5051
C9 C 0.79888(19) 0.19176(19) 0.57456(8)
C10 C 0.7731(2) 0.05949(19) 0.59996(9)
H7 H 0.8207 -0.0159 0.5821
C11 C 0.8558(2) 0.59295(17) 0.49039(8)
H8 H 0.9545 0.6011 0.4706
C12 C 0.6437(2) 0.45325(17) 0.32892(8)
H9 H 0.5452 0.4926 0.3369
C13 C 0.7084(2) 0.5134(2) 0.26752(9)
H10 H 0.7135 0.6108 0.2716
H11 H 0.6464 0.4900 0.2313
H12 H 0.8065 0.4776 0.2607
C14 C 0.6322(3) 0.29961(19) 0.32722(9)
H13 H 0.7287 0.2612 0.3192
H14 H 0.5654 0.2727 0.2932
H15 H 0.5954 0.2672 0.3682
C15 C 0.7100(2) 0.87694(19) 0.39665(9)
H16 H 0.6670 0.8837 0.4403
C16 C 0.5934(2) 0.9095(2) 0.34667(10)
H17 H 0.6354 0.9009 0.3040
H18 H 0.5588 1.0012 0.3529
H19 H 0.5117 0.8473 0.3512
C17 C 0.8459(3) 0.9663(2) 0.39207(12)
H20 H 0.9174 0.9381 0.4240
H21 H 0.8184 1.0595 0.3998
H22 H 0.8886 0.9582 0.3495
loop_
_geom_bond_atom_site_label_1
_geom_bond_atom_site_label_2
_geom_bond_site_symmetry_1
_geom_bond_site_symmetry_2
Br1 C1 1_555 1_555
P1 O2 1_555 1_555
O1 H1 1_555 1_555
O3 P1 1_555 1_555
O4 P1 1_555 1_555
C1 C2 1_555 1_555
C2 H2 1_555 1_555
C3 C2 1_555 1_555
H3 C3 1_555 1_555
C4 C3 1_555 1_555
C5 C4 1_555 1_555
H4 C5 1_555 1_555
C6 C5 1_555 1_555
C7 C6 1_555 1_555
H5 C7 1_555 1_555
C8 C7 1_555 1_555
H6 C8 1_555 1_555
C9 C4 1_555 1_555
C10 C1 1_555 1_555
H7 C10 1_555 1_555
C11 P1 1_555 1_555
H8 C11 1_555 1_555
C12 O3 1_555 1_555
H9 C12 1_555 1_555
C13 C12 1_555 1_555
H10 C13 1_555 1_555
H11 C13 1_555 1_555
H12 C13 1_555 1_555
C14 C12 1_555 1_555
H13 C14 1_555 1_555
H14 C14 1_555 1_555
H15 C14 1_555 1_555
C15 O4 1_555 1_555
H16 C15 1_555 1_555
C16 C15 1_555 1_555
H17 C16 1_555 1_555
H18 C16 1_555 1_555
H19 C16 1_555 1_555
C17 C15 1_555 1_555
H20 C17 1_555 1_555
H21 C17 1_555 1_555
H22 C17 1_555 1_555
O1 C11 1_555 1_555
C6 C11 1_555 1_555
C8 C9 1_555 1_555
C9 C10 1_555 1_555

#END
