
#######################################################################
#
#                 Cambridge Crystallographic Data Centre
#                                CCDC 
#
#######################################################################
#
# If this CIF has been generated from an entry in the Cambridge 
# Structural Database, then it will include bibliographic, chemical, 
# crystal, experimental, refinement or atomic coordinate data resulting 
# from the CCDC's data processing and validation procedures.
#
#######################################################################

data_FUNZIZ
_chemical_formula_moiety         'C31 H25 Cl1 N2 O4'
_chemical_name_systematic        
3-(4-Chlorophenyl)-8,8-dimethyl-2-phenoxy-5-phenyl-5,7,8,9-tetrahydro-4H-chromeno[2,3-d]pyrimidine-4,6(3H)-dione
_symmetry_cell_setting           triclinic
_symmetry_space_group_name_H-M   'P -1'
_symmetry_Int_Tables_number      2
_space_group_name_Hall           '-P 1'
loop_
_symmetry_equiv_pos_site_id
_symmetry_equiv_pos_as_xyz
1 x,y,z
2 -x,-y,-z
_cell_length_a                   10.609(4)
_cell_length_b                   11.434(5)
_cell_length_c                   11.685(5)
_cell_angle_alpha                78.742(5)
_cell_angle_beta                 74.180(5)
_cell_angle_gamma                77.002(5)
_cell_volume                     1315.17
_exptl_crystal_colour            colorless
_cell_formula_units_Z            2
loop_
_atom_site_label
_atom_site_type_symbol
_atom_site_fract_x
_atom_site_fract_y
_atom_site_fract_z
C1 C -0.04367(16) 0.79170(16) 0.41897(16)
C2 C -0.06485(19) 0.78543(18) 0.55244(17)
H1 H -0.1332 0.7375 0.5928
H2 H -0.0976 0.8667 0.5733
C3 C 0.06000(19) 0.73078(17) 0.59970(16)
C4 C 0.1176(2) 0.60721(16) 0.55638(16)
H3 H 0.2052 0.5779 0.5724
H4 H 0.0609 0.5496 0.6012
C5 C 0.12839(16) 0.61383(15) 0.42589(15)
C6 C 0.05959(15) 0.69906(14) 0.35926(14)
C7 C 0.23298(16) 0.50571(14) 0.26296(14)
C8 C 0.33288(16) 0.37963(14) 0.12780(14)
C9 C 0.18481(15) 0.56327(14) 0.06963(15)
C10 C 0.16922(15) 0.58926(14) 0.18820(14)
C11 C 0.08942(15) 0.70908(14) 0.22398(14)
H5 H 0.0053 0.7253 0.1992
C12 C 0.1629(2) 0.8145(2) 0.5519(2)
H6 H 0.1262 0.8916 0.5795
H7 H 0.1855 0.8256 0.4656
H8 H 0.2416 0.7787 0.5806
C13 C 0.0238(3) 0.7138(2) 0.73694(19)
H9 H -0.0119 0.7912 0.7641
H10 H 0.1022 0.6772 0.7659
H11 H -0.0415 0.6622 0.7671
C14 C 0.16394(16) 0.81346(14) 0.16636(14)
C15 C 0.29403(18) 0.80517(17) 0.17314(18)
H12 H 0.3371 0.7343 0.2110
C16 C 0.3605(2) 0.9012(2) 0.1243(2)
H13 H 0.4478 0.8945 0.1295
C17 C 0.2985(3) 1.0060(2) 0.0683(2)
H14 H 0.3437 1.0700 0.0345
C18 C 0.1691(3) 1.01598(19) 0.0622(2)
H15 H 0.1263 1.0875 0.0251
C19 C 0.1018(2) 0.92070(17) 0.11080(18)
H16 H 0.0140 0.9286 0.1062
C20 C 0.48060(16) 0.19839(15) 0.17113(15)
C21 C 0.40963(18) 0.12507(17) 0.25841(17)
H17 H 0.3185 0.1322 0.2673
C22 C 0.4756(2) 0.03924(19) 0.33402(19)
H18 H 0.4278 -0.0107 0.3950
C23 C 0.6084(2) 0.0273(2) 0.3203(2)
H19 H 0.6514 -0.0310 0.3714
C24 C 0.6793(2) 0.1004(2) 0.2317(2)
H20 H 0.7707 0.0915 0.2226
C25 C 0.61589(19) 0.18883(19) 0.15419(19)
H21 H 0.6635 0.2392 0.0936
C26 C 0.30277(15) 0.42104(14) -0.07721(14)
C27 C 0.24182(19) 0.33699(17) -0.10031(16)
H22 H 0.1772 0.3032 -0.0401
C28 C 0.2773(2) 0.30297(18) -0.21374(17)
H23 H 0.2384 0.2445 -0.2295
C29 C 0.36999(18) 0.35584(16) -0.30277(15)
C30 C 0.42756(19) 0.44289(18) -0.28097(17)
H24 H 0.4886 0.4799 -0.3424
C31 C 0.39412(18) 0.47504(17) -0.16713(16)
H25 H 0.4334 0.5332 -0.1513
Cl1 Cl 0.41395(7) 0.31294(6) -0.44499(5)
N1 N 0.31563(14) 0.40063(12) 0.23601(12)
N2 N 0.27287(13) 0.45199(12) 0.04289(11)
O1 O -0.11091(14) 0.86904(14) 0.36168(13)
O2 O 0.22245(12) 0.51937(10) 0.37917(10)
O3 O 0.13220(13) 0.62756(11) -0.00706(11)
O4 O 0.41653(13) 0.28153(11) 0.08761(11)
loop_
_geom_bond_atom_site_label_1
_geom_bond_atom_site_label_2
_geom_bond_site_symmetry_1
_geom_bond_site_symmetry_2
C1 C2 1_555 1_555
C2 H1 1_555 1_555
H2 C2 1_555 1_555
C3 C2 1_555 1_555
C4 C3 1_555 1_555
H3 C4 1_555 1_555
H4 C4 1_555 1_555
C5 C4 1_555 1_555
C6 C1 1_555 1_555
C7 C10 1_555 1_555
C8 N1 1_555 1_555
C9 C10 1_555 1_555
C10 C11 1_555 1_555
C11 C6 1_555 1_555
H5 C11 1_555 1_555
C12 C3 1_555 1_555
H6 C12 1_555 1_555
H7 C12 1_555 1_555
H8 C12 1_555 1_555
C13 C3 1_555 1_555
H9 C13 1_555 1_555
H10 C13 1_555 1_555
H11 C13 1_555 1_555
C14 C11 1_555 1_555
C15 C14 1_555 1_555
H12 C15 1_555 1_555
C16 C15 1_555 1_555
H13 C16 1_555 1_555
C17 C16 1_555 1_555
H14 C17 1_555 1_555
C18 C17 1_555 1_555
H15 C18 1_555 1_555
C19 C14 1_555 1_555
H16 C19 1_555 1_555
C20 C21 1_555 1_555
C21 H17 1_555 1_555
C22 C21 1_555 1_555
H18 C22 1_555 1_555
C23 C22 1_555 1_555
H19 C23 1_555 1_555
C24 C23 1_555 1_555
H20 C24 1_555 1_555
C25 C20 1_555 1_555
H21 C25 1_555 1_555
C26 C27 1_555 1_555
C27 H22 1_555 1_555
C28 C27 1_555 1_555
H23 C28 1_555 1_555
C29 C28 1_555 1_555
C30 C29 1_555 1_555
H24 C30 1_555 1_555
C31 C26 1_555 1_555
H25 C31 1_555 1_555
Cl1 C29 1_555 1_555
N1 C7 1_555 1_555
N2 C8 1_555 1_555
O1 C1 1_555 1_555
O2 C5 1_555 1_555
O3 C9 1_555 1_555
O4 C8 1_555 1_555
C5 C6 1_555 1_555
C7 O2 1_555 1_555
C9 N2 1_555 1_555
C18 C19 1_555 1_555
C20 O4 1_555 1_555
C24 C25 1_555 1_555
C26 N2 1_555 1_555
C30 C31 1_555 1_555

#END
