
#######################################################################
#
#                 Cambridge Crystallographic Data Centre
#                                CCDC 
#
#######################################################################
#
# If this CIF has been generated from an entry in the Cambridge 
# Structural Database, then it will include bibliographic, chemical, 
# crystal, experimental, refinement or atomic coordinate data resulting 
# from the CCDC's data processing and validation procedures.
#
#######################################################################

data_FUPZUL
_chemical_formula_moiety         'C23 H25 N2 P1'
_chemical_name_systematic        
3,7-bis(Dimethylamino)-5-phenyl-5,10-dihydrodibenzo(b,e)phosphorinane
_symmetry_cell_setting           triclinic
_symmetry_space_group_name_H-M   'P -1'
_symmetry_Int_Tables_number      2
_space_group_name_Hall           '-P 1'
loop_
_symmetry_equiv_pos_site_id
_symmetry_equiv_pos_as_xyz
1 x,y,z
2 -x,-y,-z
_cell_length_a                   8.526(2)
_cell_length_b                   9.403(3)
_cell_length_c                   13.088(6)
_cell_angle_alpha                90.76(4)
_cell_angle_beta                 92.26(3)
_cell_angle_gamma                113.67(2)
_cell_volume                     959.76
_cell_formula_units_Z            2
loop_
_atom_site_label
_atom_site_type_symbol
_atom_site_fract_x
_atom_site_fract_y
_atom_site_fract_z
P1 P 0.22733(6) 0.59379(5) 0.67251(4)
N1 N 0.2229(3) 0.0859(2) 0.5098(1)
N2 N 0.6762(2) 1.0424(2) 0.8981(1)
C1 C 0.0059(2) 0.5628(2) 0.7004(1)
C2 C -0.1270(2) 0.4602(2) 0.6364(1)
C3 C -0.2959(2) 0.4339(2) 0.6521(2)
C4 C -0.3346(2) 0.5099(2) 0.7314(2)
C5 C -0.2045(3) 0.6154(2) 0.7935(2)
C6 C -0.0346(2) 0.6416(2) 0.7787(1)
C7 C 0.2095(2) 0.3936(2) 0.6831(1)
C8 C 0.2223(2) 0.3155(2) 0.5954(1)
C9 C 0.2103(2) 0.1624(2) 0.5973(2)
C10 C 0.1839(2) 0.0915(2) 0.6923(2)
C11 C 0.1728(2) 0.1710(2) 0.7796(1)
C12 C 0.1871(2) 0.3232(2) 0.7781(1)
C13 C 0.1823(2) 0.4112(2) 0.8743(1)
C14 C 0.3155(2) 0.5768(2) 0.8803(1)
C15 C 0.4168(2) 0.6398(2) 0.9682(1)
C16 C 0.5379(2) 0.7914(2) 0.9739(1)
C17 C 0.5618(2) 0.8891(2) 0.8909(1)
C18 C 0.4620(2) 0.8243(2) 0.8008(1)
C19 C 0.3413(2) 0.6712(2) 0.7954(1)
C20 C 0.2326(3) -0.0630(2) 0.5157(2)
C21 C 0.2575(3) 0.1650(2) 0.4147(2)
C22 C 0.7965(2) 1.0981(2) 0.9846(2)
C23 C 0.6942(3) 1.1439(2) 0.8135(2)
H1 H -0.101(2) 0.410(2) 0.581(1)
H2 H -0.385(3) 0.357(2) 0.607(2)
H3 H -0.454(2) 0.489(2) 0.743(2)
H4 H -0.227(2) 0.674(2) 0.849(2)
H5 H 0.056(2) 0.717(2) 0.824(1)
H6 H 0.242(2) 0.370(2) 0.531(1)
H7 H 0.173(2) -0.010(2) 0.698(1)
H8 H 0.157(2) 0.120(2) 0.842(1)
H9 H 0.068(2) 0.415(2) 0.879(1)
H10 H 0.193(2) 0.354(2) 0.935(1)
H11 H 0.405(2) 0.575(2) 1.025(1)
H12 H 0.479(2) 0.884(2) 0.741(1)
H13 H 0.131(3) -0.143(2) 0.544(2)
H14 H 0.253(3) -0.097(3) 0.447(2)
H15 H 0.330(3) -0.054(3) 0.559(2)
H16 H 0.244(3) 0.090(2) 0.361(2)
H17 H 0.173(3) 0.216(3) 0.399(2)
H18 H 0.376(3) 0.251(2) 0.418(2)
H19 H 0.877(3) 1.044(2) 0.991(2)
H20 H 0.740(2) 1.082(2) 1.049(1)
H21 H 0.865(3) 1.214(2) 0.979(2)
H22 H 0.758(3) 1.255(2) 0.839(2)
H23 H 0.579(3) 1.135(2) 0.788(2)
H24 H 0.762(3) 1.121(2) 0.759(2)
loop_
_geom_bond_atom_site_label_1
_geom_bond_atom_site_label_2
_geom_bond_site_symmetry_1
_geom_bond_site_symmetry_2
P1 C1 1_555 1_555
N1 C9 1_555 1_555
N2 C17 1_555 1_555
C1 C2 1_555 1_555
C2 C3 1_555 1_555
C3 C4 1_555 1_555
C4 C5 1_555 1_555
C5 C6 1_555 1_555
C6 C1 1_555 1_555
C7 P1 1_555 1_555
C8 C7 1_555 1_555
C9 C8 1_555 1_555
C10 C9 1_555 1_555
C11 C10 1_555 1_555
C12 C7 1_555 1_555
C13 C12 1_555 1_555
C14 C13 1_555 1_555
C15 C14 1_555 1_555
C16 C15 1_555 1_555
C17 C16 1_555 1_555
C18 C17 1_555 1_555
C19 P1 1_555 1_555
C20 N1 1_555 1_555
C21 N1 1_555 1_555
C22 N2 1_555 1_555
C23 N2 1_555 1_555
H1 C2 1_555 1_555
H2 C3 1_555 1_555
H3 C4 1_555 1_555
H4 C5 1_555 1_555
H5 C6 1_555 1_555
H6 C8 1_555 1_555
H7 C10 1_555 1_555
H8 C11 1_555 1_555
H9 C13 1_555 1_555
H10 C13 1_555 1_555
H11 C15 1_555 1_555
H12 C18 1_555 1_555
H13 C20 1_555 1_555
H14 C20 1_555 1_555
H15 C20 1_555 1_555
H16 C21 1_555 1_555
H17 C21 1_555 1_555
H18 C21 1_555 1_555
H19 C22 1_555 1_555
H20 C22 1_555 1_555
H21 C22 1_555 1_555
H22 C23 1_555 1_555
H23 C23 1_555 1_555
H24 C23 1_555 1_555
C11 C12 1_555 1_555
C14 C19 1_555 1_555
C18 C19 1_555 1_555

#END
