
#######################################################################
#
#                 Cambridge Crystallographic Data Centre
#                                CCDC 
#
#######################################################################
#
# If this CIF has been generated from an entry in the Cambridge 
# Structural Database, then it will include bibliographic, chemical, 
# crystal, experimental, refinement or atomic coordinate data resulting 
# from the CCDC's data processing and validation procedures.
#
#######################################################################

data_FUQNOW
_chemical_formula_moiety         'C22 H22 N2 Si1'
_chemical_name_systematic        
1-phenyl-2-(4-(trimethylsilyl)phenyl)-1H-benzimidazole
_symmetry_cell_setting           monoclinic
_symmetry_space_group_name_H-M   'P 21/c'
_symmetry_Int_Tables_number      14
_space_group_name_Hall           '-P 2ybc'
loop_
_symmetry_equiv_pos_site_id
_symmetry_equiv_pos_as_xyz
1 x,y,z
2 -x,1/2+y,1/2-z
3 -x,-y,-z
4 x,1/2-y,1/2+z
_cell_length_a                   8.9656(9)
_cell_length_b                   22.053(2)
_cell_length_c                   10.2723(10)
_cell_angle_alpha                90
_cell_angle_beta                 107.630(2)
_cell_angle_gamma                90
_cell_volume                     1935.63
_exptl_crystal_colour            colorless
_exptl_crystal_description       block
_cell_formula_units_Z            4
loop_
_atom_site_label
_atom_site_type_symbol
_atom_site_fract_x
_atom_site_fract_y
_atom_site_fract_z
Si1 Si 0.12928(7) 0.32475(3) 0.33563(7)
N1 N 0.6107(2) 0.09194(8) 0.69589(18)
N2 N 0.64503(19) 0.07609(7) 0.49012(17)
C1 C 0.2378(4) 0.39621(13) 0.3856(4)
H1 H 0.2807 0.3978 0.4832
H2 H 0.3211 0.3982 0.3450
H3 H 0.1682 0.4299 0.3545
C2 C -0.0356(4) 0.32142(15) 0.4100(4)
H4 H -0.0918 0.2841 0.3837
H5 H 0.0048 0.3234 0.5077
H6 H -0.1048 0.3550 0.3769
C3 C 0.0471(5) 0.32210(17) 0.1474(3)
H7 H -0.0096 0.2849 0.1208
H8 H -0.0223 0.3558 0.1166
H9 H 0.1306 0.3242 0.1071
C4 C 0.2636(2) 0.25862(9) 0.4037(2)
C5 C 0.2557(3) 0.20476(10) 0.3318(2)
H10 H 0.1812 0.2010 0.2465
C6 C 0.3546(2) 0.15654(9) 0.3825(2)
H11 H 0.3475 0.1216 0.3303
C7 C 0.4647(2) 0.15999(9) 0.5110(2)
C8 C 0.4711(3) 0.21251(10) 0.5871(2)
H12 H 0.5410 0.2152 0.6747
C9 C 0.3738(3) 0.26097(10) 0.5330(2)
H13 H 0.3822 0.2962 0.5844
C10 C 0.5728(2) 0.10980(9) 0.5681(2)
C11 C 0.7158(2) 0.04451(9) 0.7052(2)
C12 C 0.7382(2) 0.03380(9) 0.5789(2)
C13 C 0.8407(3) -0.01023(10) 0.5594(3)
H14 H 0.8535 -0.0174 0.4742
C14 C 0.9222(3) -0.04270(11) 0.6737(3)
H15 H 0.9930 -0.0722 0.6654
C15 C 0.9018(3) -0.03270(11) 0.8006(3)
H16 H 0.9594 -0.0554 0.8751
C16 C 0.7986(3) 0.00994(10) 0.8185(2)
H17 H 0.7838 0.0158 0.9035
C17 C 0.6554(2) 0.08921(9) 0.3568(2)
C18 C 0.7090(3) 0.14536(10) 0.3303(2)
H18 H 0.7356 0.1751 0.3977
C19 C 0.7224(3) 0.15654(12) 0.2011(3)
H19 H 0.7573 0.1942 0.1819
C20 C 0.6851(3) 0.11295(13) 0.1017(3)
H20 H 0.6936 0.1211 0.0154
C21 C 0.6353(3) 0.05730(13) 0.1301(3)
H21 H 0.6118 0.0274 0.0631
C22 C 0.6193(2) 0.04482(10) 0.2574(2)
H22 H 0.5846 0.0069 0.2756
loop_
_geom_bond_atom_site_label_1
_geom_bond_atom_site_label_2
_geom_bond_site_symmetry_1
_geom_bond_site_symmetry_2
Si1 C1 1_555 1_555
N1 C10 1_555 1_555
N2 C10 1_555 1_555
C1 H1 1_555 1_555
H2 C1 1_555 1_555
H3 C1 1_555 1_555
C2 Si1 1_555 1_555
H4 C2 1_555 1_555
H5 C2 1_555 1_555
H6 C2 1_555 1_555
C3 Si1 1_555 1_555
H7 C3 1_555 1_555
H8 C3 1_555 1_555
H9 C3 1_555 1_555
C4 Si1 1_555 1_555
C5 C4 1_555 1_555
H10 C5 1_555 1_555
C6 C5 1_555 1_555
H11 C6 1_555 1_555
C7 C6 1_555 1_555
C8 C7 1_555 1_555
H12 C8 1_555 1_555
C9 C4 1_555 1_555
H13 C9 1_555 1_555
C10 C7 1_555 1_555
C11 N1 1_555 1_555
C12 N2 1_555 1_555
C13 C12 1_555 1_555
H14 C13 1_555 1_555
C14 C13 1_555 1_555
H15 C14 1_555 1_555
C15 C14 1_555 1_555
H16 C15 1_555 1_555
C16 C11 1_555 1_555
H17 C16 1_555 1_555
C17 N2 1_555 1_555
C18 C17 1_555 1_555
H18 C18 1_555 1_555
C19 C18 1_555 1_555
H19 C19 1_555 1_555
C20 C19 1_555 1_555
H20 C20 1_555 1_555
C21 C20 1_555 1_555
H21 C21 1_555 1_555
C22 C17 1_555 1_555
H22 C22 1_555 1_555
C8 C9 1_555 1_555
C11 C12 1_555 1_555
C15 C16 1_555 1_555
C21 C22 1_555 1_555

#END
