
#######################################################################
#
#                 Cambridge Crystallographic Data Centre
#                                CCDC 
#
#######################################################################
#
# If this CIF has been generated from an entry in the Cambridge 
# Structural Database, then it will include bibliographic, chemical, 
# crystal, experimental, refinement or atomic coordinate data resulting 
# from the CCDC's data processing and validation procedures.
#
#######################################################################

data_FUSDUU
_chemical_formula_moiety         'C64 H40 N4 O12,2(C4 H10 O1),0.5(C1 H2 Cl2)'
_chemical_name_systematic        
'2,18-bis(diphenylmethylene)-9,11,25,27-tetranitro-7,13,23,29-tetraoxaheptacyclo[28.2.2.2^3,6^.2^14,17^.2^19,22^.1^8,12^.1^24,28^]dotetraconta-1(32),3,5,8(40),9,11,14,16,19,21,24(35),25,27,30,33,36,38,41-octadecaene diethyl ether dichloromethane solvate'
_symmetry_cell_setting           triclinic
_symmetry_space_group_name_H-M   'P -1'
_symmetry_Int_Tables_number      2
_space_group_name_Hall           '-P 1'
loop_
_symmetry_equiv_pos_site_id
_symmetry_equiv_pos_as_xyz
1 x,y,z
2 -x,-y,-z
_cell_length_a                   14.4472(19)
_cell_length_b                   14.816(2)
_cell_length_c                   17.342(2)
_cell_angle_alpha                86.480(2)
_cell_angle_beta                 68.308(2)
_cell_angle_gamma                66.251(2)
_cell_volume                     3140.36
_cell_formula_units_Z            2
loop_
_atom_site_label
_atom_site_type_symbol
_atom_site_fract_x
_atom_site_fract_y
_atom_site_fract_z
C65 C 1.0089(3) 0.8571(3) 0.4562(3)
H41 H 1.0677 0.8470 0.4016
H42 H 1.0222 0.8867 0.4979
H43 H 0.9389 0.9015 0.4530
C66 C 1.0057(3) 0.7590(3) 0.4809(2)
H44 H 1.0730 0.7165 0.4903
H45 H 0.9424 0.7695 0.5336
C67 C 0.9885(3) 0.6205(3) 0.4366(2)
H46 H 0.9221 0.6315 0.4869
H47 H 1.0527 0.5745 0.4483
C68 C 0.9826(3) 0.5762(3) 0.3638(3)
H48 H 0.9146 0.6185 0.3564
H49 H 0.9842 0.5099 0.3743
H50 H 1.0451 0.5713 0.3132
O13 O 0.99707(17) 0.71182(18) 0.41724(14)
C69 C 0.2295(4) 0.3492(3) 0.2314(3)
H51 H 0.2022 0.3057 0.2690
H52 H 0.1829 0.3793 0.1996
H53 H 0.2284 0.4015 0.2642
C70 C 0.3454(4) 0.2893(4) 0.1720(3)
H54 H 0.3473 0.2365 0.1382
H55 H 0.3737 0.3326 0.1336
C71 C 0.5190(6) 0.1968(4) 0.1690(3)
H56 H 0.5453 0.2435 0.1342
H57 H 0.5265 0.1447 0.1311
C72 C 0.5921(5) 0.1475(4) 0.2215(3)
H58 H 0.5813 0.1981 0.2616
H59 H 0.6691 0.1176 0.1840
H60 H 0.5714 0.0961 0.2516
O14 O 0.4097(4) 0.2472(3) 0.2192(3)
C73 C 0.0049(9) 0.9982(12) 0.0402(8)
H61 H -0.0390 0.9651 0.0783
H62 H -0.0063 1.0578 0.0715
Cl1 Cl -0.0355(5) 1.0321(5) -0.0454(4)
Cl2 Cl 0.1458(3) 0.91575(15) 0.00003(13)
C73A C -0.0049(9) 1.0018(12) -0.0402(8)
H61A H 0.0390 1.0349 -0.0783
H62A H 0.0063 0.9422 -0.0715
Cl1A Cl 0.0355(5) 0.9679(5) 0.0454(4)
Cl2A Cl -0.1458(3) 1.08425(15) -0.00003(13)
C1 C 0.1905(2) 1.1281(2) 0.23249(17)
C2 C 0.1134(2) 1.1977(2) 0.20365(18)
C3 C 0.1235(2) 1.1851(2) 0.12235(18)
H1 H 0.0704 1.2317 0.1035
C4 C 0.2096(2) 1.1058(2) 0.06781(17)
C5 C 0.2895(2) 1.0366(2) 0.09472(18)
C6 C 0.2771(2) 1.0491(2) 0.17644(17)
H2 H 0.3297 1.0020 0.1954
C7 C 0.2565(2) 1.0717(2) 0.34072(17)
C8 C 0.2599(2) 0.9776(2) 0.35030(17)
H3 H 0.2089 0.9601 0.3398
C9 C 0.3388(2) 0.9093(2) 0.37548(17)
H4 H 0.3438 0.8434 0.3799
C10 C 0.4119(2) 0.9349(2) 0.39468(16)
C11 C 0.4025(2) 1.0318(2) 0.38711(17)
H5 H 0.4501 1.0512 0.4009
C12 C 0.3255(2) 1.1006(2) 0.36006(17)
H6 H 0.3203 1.1665 0.3549
C13 C 0.5016(2) 0.8573(2) 0.41616(16)
C14 C 0.4823(2) 0.7903(2) 0.46968(16)
C15 C 0.3685(2) 0.8042(2) 0.52224(16)
C16 C 0.3327(2) 0.7302(2) 0.52105(18)
H7 H 0.3827 0.6679 0.4897
C17 C 0.2242(2) 0.7467(2) 0.56538(19)
H8 H 0.1999 0.6967 0.5625
C18 C 0.1514(2) 0.8357(2) 0.61370(19)
H9 H 0.0771 0.8472 0.6433
C19 C 0.1874(2) 0.9080(2) 0.61867(18)
H10 H 0.1384 0.9685 0.6530
C20 C 0.2953(2) 0.8916(2) 0.57331(17)
H11 H 0.3197 0.9412 0.5773
C21 C 0.5694(2) 0.6981(2) 0.47945(17)
C22 C 0.6478(2) 0.6307(2) 0.41130(19)
H12 H 0.6487 0.6452 0.3570
C23 C 0.7247(3) 0.5427(2) 0.4214(2)
H13 H 0.7774 0.4968 0.3741
C24 C 0.7251(3) 0.5213(2) 0.4996(2)
H14 H 0.7786 0.4613 0.5063
C25 C 0.6475(3) 0.5874(3) 0.5685(2)
H15 H 0.6477 0.5729 0.6226
C26 C 0.5694(3) 0.6746(2) 0.55856(19)
H16 H 0.5151 0.7190 0.6062
C27 C 0.6114(2) 0.8589(2) 0.37248(17)
C28 C 0.6419(2) 0.8875(2) 0.29204(17)
H17 H 0.5934 0.9023 0.2635
C29 C 0.7409(2) 0.8950(2) 0.25245(18)
H18 H 0.7601 0.9152 0.1978
C30 C 0.8109(2) 0.8724(2) 0.29460(18)
C31 C 0.7846(2) 0.8437(2) 0.37334(19)
H19 H 0.8341 0.8280 0.4010
C32 C 0.6849(2) 0.8375(2) 0.41254(17)
H20 H 0.6661 0.8185 0.4676
C33 C 0.9978(2) 0.8092(2) 0.20532(17)
C34 C 0.9898(2) 0.7319(2) 0.17092(17)
H21 H 0.9196 0.7331 0.1828
C35 C 1.0811(2) 0.6530(2) 0.11984(16)
C36 C 1.1849(2) 0.6506(2) 0.10482(16)
C37 C 1.1941(2) 0.7275(2) 0.13765(17)
H22 H 1.2643 0.7258 0.1268
C38 C 1.1020(2) 0.8068(2) 0.18615(17)
C39 C 0.9689(2) 0.58829(19) 0.09463(17)
C40 C 0.9301(2) 0.61862(19) 0.03158(17)
H23 H 0.9734 0.6344 -0.0190
C41 C 0.8274(2) 0.62579(19) 0.04259(17)
H24 H 0.8000 0.6475 -0.0004
C42 C 0.7632(2) 0.60137(19) 0.11649(17)
C43 C 0.8068(2) 0.5692(2) 0.17832(17)
H25 H 0.7649 0.5520 0.2288
C44 C 0.9095(2) 0.5621(2) 0.16752(17)
H26 H 0.9383 0.5395 0.2097
C45 C 0.6500(2) 0.6135(2) 0.13300(16)
C46 C 0.6120(2) 0.5451(2) 0.17170(16)
C47 C 0.6833(2) 0.4424(2) 0.17862(17)
C48 C 0.7788(2) 0.3868(2) 0.11147(17)
H27 H 0.8008 0.4167 0.0618
C49 C 0.8413(2) 0.2896(2) 0.11607(19)
H28 H 0.9058 0.2531 0.0696
C50 C 0.8112(3) 0.2445(2) 0.1878(2)
H29 H 0.8543 0.1772 0.1907
C51 C 0.7172(3) 0.2991(2) 0.2554(2)
H30 H 0.6968 0.2694 0.3054
C52 C 0.6536(2) 0.3954(2) 0.25034(18)
H31 H 0.5881 0.4310 0.2964
C53 C 0.4923(2) 0.5706(2) 0.21187(17)
C54 C 0.4454(2) 0.5149(2) 0.19092(18)
H32 H 0.4894 0.4604 0.1489
C55 C 0.3349(2) 0.5387(2) 0.23108(19)
H33 H 0.3034 0.5011 0.2156
C56 C 0.2697(2) 0.6166(2) 0.29338(19)
H34 H 0.1938 0.6326 0.3204
C57 C 0.3159(2) 0.6710(2) 0.3160(2)
H35 H 0.2719 0.7240 0.3594
C58 C 0.4263(2) 0.6482(2) 0.27541(19)
H36 H 0.4575 0.6860 0.2911
C59 C 0.5785(2) 0.7055(2) 0.10889(16)
C60 C 0.5059(2) 0.7027(2) 0.07430(17)
H37 H 0.5040 0.6411 0.0649
C61 C 0.4370(2) 0.7882(2) 0.05359(17)
H38 H 0.3876 0.7853 0.0308
C62 C 0.4405(2) 0.8777(2) 0.06634(17)
C63 C 0.5153(2) 0.8829(2) 0.09598(18)
H39 H 0.5200 0.9441 0.1017
C64 C 0.5836(2) 0.7964(2) 0.11734(17)
H40 H 0.6347 0.7994 0.1381
N1 N 0.0223(2) 1.28631(18) 0.25512(16)
N2 N 0.2112(2) 1.09865(18) -0.01633(15)
N3 N 1.28570(19) 0.56821(18) 0.05530(15)
N4 N 1.1185(2) 0.8870(2) 0.21592(16)
O1 O 0.17910(16) 1.14207(14) 0.31255(12)
O2 O 0.37293(17) 0.96035(15) 0.03920(12)
O3 O 1.07443(15) 0.57954(14) 0.08235(12)
O4 O 0.90953(15) 0.88490(15) 0.25793(13)
O5 O -0.00226(17) 1.29279(16) 0.33023(13)
O6 O -0.0265(2) 1.35094(18) 0.21935(16)
O7 O 0.12615(17) 1.14649(16) -0.02771(13)
O8 O 0.29663(19) 1.04659(18) -0.07233(14)
O9 O 1.28605(17) 0.48551(15) 0.05530(13)
O10 O 1.36631(16) 0.58626(17) 0.01796(13)
O11 O 1.20551(19) 0.86675(18) 0.22314(15)
O12 O 1.04685(19) 0.97137(18) 0.22871(18)
loop_
_geom_bond_atom_site_label_1
_geom_bond_atom_site_label_2
_geom_bond_site_symmetry_1
_geom_bond_site_symmetry_2
C1 C2 1_555 1_555
C2 C3 1_555 1_555
C3 H1 1_555 1_555
C4 C3 1_555 1_555
C5 C4 1_555 1_555
C6 C1 1_555 1_555
H2 C6 1_555 1_555
C7 C8 1_555 1_555
C8 H3 1_555 1_555
C9 C8 1_555 1_555
H4 C9 1_555 1_555
C10 C9 1_555 1_555
C11 C10 1_555 1_555
H5 C11 1_555 1_555
C12 C7 1_555 1_555
H6 C12 1_555 1_555
C13 C10 1_555 1_555
C14 C13 1_555 1_555
C15 C14 1_555 1_555
C16 C15 1_555 1_555
H7 C16 1_555 1_555
C17 C16 1_555 1_555
H8 C17 1_555 1_555
C18 C17 1_555 1_555
H9 C18 1_555 1_555
C19 C18 1_555 1_555
H10 C19 1_555 1_555
C20 C15 1_555 1_555
H11 C20 1_555 1_555
C21 C14 1_555 1_555
C22 C21 1_555 1_555
H12 C22 1_555 1_555
C23 C22 1_555 1_555
H13 C23 1_555 1_555
C24 C23 1_555 1_555
H14 C24 1_555 1_555
C25 C24 1_555 1_555
H15 C25 1_555 1_555
C26 C21 1_555 1_555
H16 C26 1_555 1_555
C27 C13 1_555 1_555
C28 C27 1_555 1_555
H17 C28 1_555 1_555
C29 C28 1_555 1_555
H18 C29 1_555 1_555
C30 C29 1_555 1_555
C31 C30 1_555 1_555
H19 C31 1_555 1_555
C32 C27 1_555 1_555
H20 C32 1_555 1_555
C33 C34 1_555 1_555
C34 H21 1_555 1_555
C35 C34 1_555 1_555
C36 C35 1_555 1_555
C37 C36 1_555 1_555
H22 C37 1_555 1_555
C38 C33 1_555 1_555
C39 C40 1_555 1_555
C40 H23 1_555 1_555
C41 C40 1_555 1_555
H24 C41 1_555 1_555
C42 C41 1_555 1_555
C43 C42 1_555 1_555
H25 C43 1_555 1_555
C44 C39 1_555 1_555
H26 C44 1_555 1_555
C45 C42 1_555 1_555
C46 C45 1_555 1_555
C47 C46 1_555 1_555
C48 C47 1_555 1_555
H27 C48 1_555 1_555
C49 C48 1_555 1_555
H28 C49 1_555 1_555
C50 C49 1_555 1_555
H29 C50 1_555 1_555
C51 C50 1_555 1_555
H30 C51 1_555 1_555
C52 C47 1_555 1_555
H31 C52 1_555 1_555
C53 C46 1_555 1_555
C54 C53 1_555 1_555
H32 C54 1_555 1_555
C55 C54 1_555 1_555
H33 C55 1_555 1_555
C56 C55 1_555 1_555
H34 C56 1_555 1_555
C57 C56 1_555 1_555
H35 C57 1_555 1_555
C58 C53 1_555 1_555
H36 C58 1_555 1_555
C59 C45 1_555 1_555
C60 C59 1_555 1_555
H37 C60 1_555 1_555
C61 C60 1_555 1_555
H38 C61 1_555 1_555
C62 C61 1_555 1_555
C63 C62 1_555 1_555
H39 C63 1_555 1_555
C64 C59 1_555 1_555
H40 C64 1_555 1_555
N1 C2 1_555 1_555
N2 C4 1_555 1_555
N3 C36 1_555 1_555
N4 C38 1_555 1_555
O1 C1 1_555 1_555
O2 C5 1_555 1_555
O3 C35 1_555 1_555
O4 C30 1_555 1_555
O5 N1 1_555 1_555
O6 N1 1_555 1_555
O7 N2 1_555 1_555
O8 N2 1_555 1_555
O9 N3 1_555 1_555
O10 N3 1_555 1_555
O11 N4 1_555 1_555
O12 N4 1_555 1_555
C65 H41 1_555 1_555
H42 C65 1_555 1_555
H43 C65 1_555 1_555
C66 C65 1_555 1_555
H44 C66 1_555 1_555
H45 C66 1_555 1_555
C67 H46 1_555 1_555
H47 C67 1_555 1_555
C68 C67 1_555 1_555
H48 C68 1_555 1_555
H49 C68 1_555 1_555
H50 C68 1_555 1_555
O13 C66 1_555 1_555
C69 H51 1_555 1_555
H52 C69 1_555 1_555
H53 C69 1_555 1_555
C70 C69 1_555 1_555
H54 C70 1_555 1_555
H55 C70 1_555 1_555
C71 H56 1_555 1_555
H57 C71 1_555 1_555
C72 C71 1_555 1_555
H58 C72 1_555 1_555
H59 C72 1_555 1_555
H60 C72 1_555 1_555
O14 C70 1_555 1_555
C73 H61 1_555 1_555
H61 Cl1A 1_555 1_555
H62 C73 1_555 1_555
Cl1 C73 1_555 1_555
Cl2 C73 1_555 1_555
C73A C73 1_555 1_555
H61A Cl1 1_555 1_555
H62A Cl1 1_555 1_555
Cl1A H62 1_555 1_555
Cl2A Cl1 1_555 1_555
C5 C6 1_555 1_555
C7 O1 1_555 1_555
C11 C12 1_555 1_555
C19 C20 1_555 1_555
C25 C26 1_555 1_555
C31 C32 1_555 1_555
C33 O4 1_555 1_555
C37 C38 1_555 1_555
C39 O3 1_555 1_555
C43 C44 1_555 1_555
C51 C52 1_555 1_555
C57 C58 1_555 1_555
C62 O2 1_555 1_555
C63 C64 1_555 1_555
C67 O13 1_555 1_555
C71 O14 1_555 1_555
Cl1 Cl1A 1_555 1_555
Cl2 Cl1A 1_555 1_555
C73A H61A 1_555 1_555
C73A H62A 1_555 1_555
C73A Cl1A 1_555 1_555
C73A Cl2A 1_555 1_555

#END
