
#######################################################################
#
#                 Cambridge Crystallographic Data Centre
#                                CCDC 
#
#######################################################################
#
# If this CIF has been generated from an entry in the Cambridge 
# Structural Database, then it will include bibliographic, chemical, 
# crystal, experimental, refinement or atomic coordinate data resulting 
# from the CCDC's data processing and validation procedures.
#
#######################################################################

data_FUSPIU
_chemical_formula_moiety         'C9 H6 F3 N3'
_chemical_name_systematic        
1-Phenyl-4-(trifluoromethyl)-1H-1,2,3-triazole
_symmetry_cell_setting           monoclinic
_symmetry_space_group_name_H-M   'P 21/c'
_symmetry_Int_Tables_number      14
_space_group_name_Hall           '-P 2ybc'
loop_
_symmetry_equiv_pos_site_id
_symmetry_equiv_pos_as_xyz
1 x,y,z
2 -x,1/2+y,1/2-z
3 -x,-y,-z
4 x,1/2-y,1/2+z
_cell_length_a                   11.6048(14)
_cell_length_b                   11.0429(14)
_cell_length_c                   22.106(3)
_cell_angle_alpha                90
_cell_angle_beta                 94.237(2)
_cell_angle_gamma                90
_cell_volume                     2825.16
_exptl_crystal_colour            colorless
_exptl_crystal_description       block
_cell_formula_units_Z            12
loop_
_atom_site_label
_atom_site_type_symbol
_atom_site_fract_x
_atom_site_fract_y
_atom_site_fract_z
F1 F 0.0926(2) -0.0358(3) 0.0866(2)
F2 F 0.0528(3) 0.1319(4) 0.04725(19)
F3 F 0.0743(3) 0.1189(4) 0.14054(19)
N1 N 0.4235(3) 0.0945(3) 0.08201(16)
N2 N 0.3935(4) 0.2130(3) 0.0840(2)
N3 N 0.2823(3) 0.2177(3) 0.0880(2)
C1 C 0.1172(4) 0.0790(4) 0.0910(3)
C2 C 0.2412(4) 0.1031(4) 0.08855(19)
C3 C 0.3297(3) 0.0248(4) 0.08459(19)
H1 H 0.3262 -0.0593 0.0838
C4 C 0.5421(3) 0.0609(4) 0.07769(18)
C5 C 0.6227(4) 0.1473(4) 0.0655(2)
H2 H 0.6006 0.2276 0.0596
C6 C 0.7361(5) 0.1137(6) 0.0622(3)
H3 H 0.7910 0.1721 0.0547
C7 C 0.7689(4) -0.0048(6) 0.0698(2)
H4 H 0.8458 -0.0269 0.0672
C8 C 0.6882(4) -0.0908(5) 0.0812(2)
H5 H 0.7106 -0.1712 0.0866
C9 C 0.5742(4) -0.0589(4) 0.0847(2)
H6 H 0.5193 -0.1176 0.0917
F4 F 0.7654(3) 0.2125(4) 0.2723(2)
F5 F 0.7373(4) 0.3038(8) 0.1934(2)
F6 F 0.7283(3) 0.3914(4) 0.2738(3)
N4 N 0.3936(3) 0.2674(3) 0.24888(15)
N5 N 0.4230(3) 0.1541(3) 0.23276(18)
N6 N 0.5357(3) 0.1538(3) 0.22955(18)
C10 C 0.6987(4) 0.2939(5) 0.2445(3)
C11 C 0.5759(4) 0.2665(4) 0.2436(2)
C12 C 0.4867(3) 0.3390(4) 0.2560(2)
H7 H 0.4894 0.4203 0.2669
C13 C 0.2765(3) 0.2950(4) 0.25936(19)
C14 C 0.2024(4) 0.2024(5) 0.2726(2)
H8 H 0.2273 0.1224 0.2733
C15 C 0.0904(5) 0.2311(6) 0.2848(3)
H9 H 0.0398 0.1695 0.2938
C16 C 0.0531(4) 0.3487(6) 0.2839(3)
H10 H -0.0230 0.3665 0.2912
C17 C 0.1277(4) 0.4396(5) 0.2721(3)
H11 H 0.1029 0.5196 0.2728
C18 C 0.2400(4) 0.4138(5) 0.2591(2)
H12 H 0.2902 0.4759 0.2502
F7 F 0.5356(3) 0.4622(3) 0.0991(3)
F8 F 0.5588(3) 0.6044(4) 0.04056(18)
F9 F 0.5697(3) 0.6393(3) 0.13034(17)
N7 N 0.2014(3) 0.5905(3) 0.08394(16)
N8 N 0.2329(4) 0.7078(3) 0.0797(2)
N9 N 0.3455(4) 0.7121(3) 0.0816(2)
C19 C 0.5106(4) 0.5729(5) 0.0909(3)
C20 C 0.3857(4) 0.5971(4) 0.0874(2)
C21 C 0.2962(3) 0.5199(4) 0.0890(2)
H13 H 0.2992 0.4361 0.0929
C22 C 0.0820(4) 0.5584(4) 0.08334(19)
C23 C 0.0520(4) 0.4524(4) 0.1103(2)
H14 H 0.1085 0.4031 0.1295
C24 C -0.0633(4) 0.4197(5) 0.1087(3)
H15 H -0.0844 0.3475 0.1265
C25 C -0.1457(5) 0.4924(6) 0.0813(3)
H16 H -0.2230 0.4702 0.0808
C26 C -0.1158(5) 0.5980(6) 0.0544(3)
H17 H -0.1729 0.6472 0.0357
C27 C -0.0005(4) 0.6324(4) 0.0548(2)
H18 H 0.0204 0.7039 0.0363
loop_
_geom_bond_atom_site_label_1
_geom_bond_atom_site_label_2
_geom_bond_site_symmetry_1
_geom_bond_site_symmetry_2
F1 C1 1_555 1_555
F2 C1 1_555 1_555
F3 C1 1_555 1_555
N1 N2 1_555 1_555
N2 N3 1_555 1_555
N3 C2 1_555 1_555
C1 C2 1_555 1_555
C2 C3 1_555 1_555
C3 N1 1_555 1_555
H1 C3 1_555 1_555
C4 N1 1_555 1_555
C5 C4 1_555 1_555
H2 C5 1_555 1_555
C6 C5 1_555 1_555
H3 C6 1_555 1_555
C7 C6 1_555 1_555
H4 C7 1_555 1_555
C8 C7 1_555 1_555
H5 C8 1_555 1_555
C9 C4 1_555 1_555
H6 C9 1_555 1_555
F4 C10 1_555 1_555
F5 C10 1_555 1_555
F6 C10 1_555 1_555
N4 N5 1_555 1_555
N5 N6 1_555 1_555
N6 C11 1_555 1_555
C10 C11 1_555 1_555
C11 C12 1_555 1_555
C12 N4 1_555 1_555
H7 C12 1_555 1_555
C13 N4 1_555 1_555
C14 C13 1_555 1_555
H8 C14 1_555 1_555
C15 C14 1_555 1_555
H9 C15 1_555 1_555
C16 C15 1_555 1_555
H10 C16 1_555 1_555
C17 C16 1_555 1_555
H11 C17 1_555 1_555
C18 C13 1_555 1_555
H12 C18 1_555 1_555
F7 C19 1_555 1_555
F8 C19 1_555 1_555
F9 C19 1_555 1_555
N7 N8 1_555 1_555
N8 N9 1_555 1_555
N9 C20 1_555 1_555
C19 C20 1_555 1_555
C20 C21 1_555 1_555
C21 N7 1_555 1_555
H13 C21 1_555 1_555
C22 N7 1_555 1_555
C23 C22 1_555 1_555
H14 C23 1_555 1_555
C24 C23 1_555 1_555
H15 C24 1_555 1_555
C25 C24 1_555 1_555
H16 C25 1_555 1_555
C26 C25 1_555 1_555
H17 C26 1_555 1_555
C27 C22 1_555 1_555
H18 C27 1_555 1_555
C8 C9 1_555 1_555
C17 C18 1_555 1_555
C26 C27 1_555 1_555

#END
