
#######################################################################
#
#                 Cambridge Crystallographic Data Centre
#                                CCDC 
#
#######################################################################
#
# If this CIF has been generated from an entry in the Cambridge 
# Structural Database, then it will include bibliographic, chemical, 
# crystal, experimental, refinement or atomic coordinate data resulting 
# from the CCDC's data processing and validation procedures.
#
#######################################################################

data_FUSPEQ
_chemical_name_common            
2-(4-t-butylphenyl)-2-(iodomethyl)-3,3-dimethyloxirane
_chemical_formula_moiety         'C15 H21 I1 O1'
_chemical_name_systematic        
(R)-2-(4-(tert-butyl)phenyl)-2-(iodomethyl)-3,3-dimethyloxirane
_symmetry_cell_setting           monoclinic
_symmetry_space_group_name_H-M   'C 2'
_symmetry_Int_Tables_number      5
_space_group_name_Hall           'C 2y'
loop_
_symmetry_equiv_pos_site_id
_symmetry_equiv_pos_as_xyz
1 x,y,z
2 -x,y,-z
3 1/2+x,1/2+y,z
4 1/2-x,1/2+y,-z
_cell_length_a                   22.448(6)
_cell_length_b                   6.0248(16)
_cell_length_c                   11.443(3)
_cell_angle_alpha                90
_cell_angle_beta                 97.517(5)
_cell_angle_gamma                90
_cell_volume                     1534.31
_exptl_crystal_colour            colorless
_exptl_crystal_description       prismatic
_cell_formula_units_Z            4
_chemical_properties_physical    Light-sensitive
loop_
_atom_site_label
_atom_site_type_symbol
_atom_site_fract_x
_atom_site_fract_y
_atom_site_fract_z
I1 I 0.72482(2) 0.54089(14) 0.37813(4)
O1 O 0.6629(2) 0.6847(9) 0.0990(4)
C1 C 0.6917(3) 0.8466(12) 0.2979(7)
H1 H 0.6750 0.9373 0.3556
H2 H 0.7246 0.9281 0.2708
C2 C 0.6439(3) 0.8007(11) 0.1950(6)
C3 C 0.6449(3) 0.9112(14) 0.0785(7)
C4 C 0.5873(3) 0.9492(17) 0.0001(6)
H3 H 0.5934 0.9261 -0.0805
H4 H 0.5740 1.0986 0.0098
H5 H 0.5574 0.8473 0.0205
C5 C 0.6960(3) 1.070(3) 0.0576(8)
H6 H 0.7318 1.0309 0.1088
H7 H 0.6847 1.2195 0.0738
H8 H 0.7034 1.0591 -0.0230
C6 C 0.5846(2) 0.7311(11) 0.2293(5)
C7 C 0.5598(2) 0.5280(19) 0.1957(6)
H9 H 0.5809 0.4305 0.1534
C8 C 0.5036(3) 0.4661(12) 0.2239(7)
H10 H 0.4876 0.3297 0.1979
C9 C 0.4713(2) 0.6008(10) 0.2890(5)
C10 C 0.4974(3) 0.8027(12) 0.3256(6)
H11 H 0.4772 0.8974 0.3711
C11 C 0.5529(3) 0.8666(11) 0.2959(6)
H12 H 0.5689 1.0033 0.3214
C12 C 0.4099(2) 0.5313(19) 0.3211(5)
C13 C 0.3745(4) 0.396(2) 0.2209(9)
H13 H 0.3737 0.4751 0.1479
H14 H 0.3341 0.3741 0.2377
H15 H 0.3935 0.2546 0.2147
C14 C 0.4191(4) 0.3832(16) 0.4309(8)
H16 H 0.4457 0.2634 0.4182
H17 H 0.3810 0.3243 0.4457
H18 H 0.4362 0.4693 0.4975
C15 C 0.3722(4) 0.7282(17) 0.3501(11)
H19 H 0.3940 0.8126 0.4128
H20 H 0.3353 0.6759 0.3742
H21 H 0.3635 0.8204 0.2816
loop_
_geom_bond_atom_site_label_1
_geom_bond_atom_site_label_2
_geom_bond_site_symmetry_1
_geom_bond_site_symmetry_2
I1 C1 1_555 1_555
O1 C2 1_555 1_555
C1 H1 1_555 1_555
H2 C1 1_555 1_555
C2 C1 1_555 1_555
C3 O1 1_555 1_555
C4 C3 1_555 1_555
H3 C4 1_555 1_555
H4 C4 1_555 1_555
H5 C4 1_555 1_555
C5 C3 1_555 1_555
H6 C5 1_555 1_555
H7 C5 1_555 1_555
H8 C5 1_555 1_555
C6 C2 1_555 1_555
C7 C6 1_555 1_555
H9 C7 1_555 1_555
C8 C7 1_555 1_555
H10 C8 1_555 1_555
C9 C8 1_555 1_555
C10 C9 1_555 1_555
H11 C10 1_555 1_555
C11 C6 1_555 1_555
H12 C11 1_555 1_555
C12 C9 1_555 1_555
C13 C12 1_555 1_555
H13 C13 1_555 1_555
H14 C13 1_555 1_555
H15 C13 1_555 1_555
C14 C12 1_555 1_555
H16 C14 1_555 1_555
H17 C14 1_555 1_555
H18 C14 1_555 1_555
C15 C12 1_555 1_555
H19 C15 1_555 1_555
H20 C15 1_555 1_555
H21 C15 1_555 1_555
C2 C3 1_555 1_555
C10 C11 1_555 1_555

#END
