
#######################################################################
#
#                 Cambridge Crystallographic Data Centre
#                                CCDC 
#
#######################################################################
#
# If this CIF has been generated from an entry in the Cambridge 
# Structural Database, then it will include bibliographic, chemical, 
# crystal, experimental, refinement or atomic coordinate data resulting 
# from the CCDC's data processing and validation procedures.
#
#######################################################################

data_FUSQAN
_chemical_formula_moiety         'C22 H19 N1 O5'
_chemical_name_systematic        
1-(6,7-Dihydro-4H-[1,3]dioxolo[4,5-g][1,3]dioxolo[7,8]isoquinolino[3,2-a]isoquinolin-4-yl)acetone
_chemical_properties_biological  'anti-ulcerative colitis activity'
_symmetry_cell_setting           orthorhombic
_symmetry_space_group_name_H-M   'P b c a'
_symmetry_Int_Tables_number      61
_space_group_name_Hall           '-P 2ac 2ab'
loop_
_symmetry_equiv_pos_site_id
_symmetry_equiv_pos_as_xyz
1 x,y,z
2 1/2-x,-y,1/2+z
3 -x,1/2+y,1/2-z
4 1/2+x,1/2-y,-z
5 -x,-y,-z
6 1/2+x,y,1/2-z
7 x,1/2-y,1/2+z
8 1/2-x,1/2+y,z
_cell_length_a                   7.431(2)
_cell_length_b                   11.658(2)
_cell_length_c                   40.314(8)
_cell_angle_alpha                90
_cell_angle_beta                 90
_cell_angle_gamma                90
_cell_volume                     3492.43
_exptl_crystal_colour            colorless
_exptl_crystal_description       Prism
_cell_formula_units_Z            8
_exptl_crystal_recrystallization_method acetone
loop_
_atom_site_label
_atom_site_type_symbol
_atom_site_fract_x
_atom_site_fract_y
_atom_site_fract_z
N1 N 0.0861(2) -0.02057(11) 0.36334(3)
O1 O 0.11586(19) 0.11055(11) 0.21579(3)
O2 O 0.12753(19) -0.08423(12) 0.20563(3)
O3 O -0.0142(2) 0.09094(13) 0.46416(3)
O4 O -0.1877(2) 0.25124(15) 0.47607(4)
O5 O 0.3578(2) 0.22730(13) 0.43482(4)
C1 C 0.0893(2) 0.09489(15) 0.27658(4)
H1 H 0.0841 0.1736 0.2803
C2 C 0.3265(2) 0.07138(16) 0.39745(4)
H2 H 0.4079 0.0078 0.3934
H3 H 0.3450 0.1275 0.3800
C3 C 0.1031(2) 0.05083(16) 0.24531(4)
C4 C 0.3718(2) 0.12533(17) 0.43048(4)
C5 C 0.1133(2) -0.06576(16) 0.23909(4)
C6 C 0.4339(4) 0.0461(2) 0.45753(5)
H4 H 0.4587 0.0897 0.4772
H5 H 0.5413 0.0072 0.4505
H6 H 0.3415 -0.0092 0.4621
C7 C 0.1127(2) -0.14436(15) 0.26441(4)
H7 H 0.1225 -0.2225 0.2602
C8 C 0.0967(2) -0.10251(14) 0.29687(4)
C9 C 0.0899(3) -0.18397(15) 0.32566(4)
H8 H 0.1533 -0.2541 0.3201
H9 H -0.0342 -0.2034 0.3305
C10 C 0.1758(3) -0.12915(14) 0.35576(4)
H10 H 0.1663 -0.1805 0.3746
H11 H 0.3025 -0.1154 0.3515
C11 C 0.1282(2) 0.02680(14) 0.39581(4)
H12 H 0.1138 -0.0341 0.4124
C12 C -0.0027(2) 0.12121(14) 0.40376(4)
C13 C -0.0568(2) 0.14838(16) 0.43539(4)
C14 C -0.1613(3) 0.24354(19) 0.44248(5)
C15 C -0.2202(3) 0.31601(18) 0.41788(5)
H13 H -0.2898 0.3802 0.4227
C16 C -0.1712(2) 0.28909(17) 0.38548(5)
H14 H -0.2112 0.3359 0.3683
C17 C -0.0635(2) 0.19367(15) 0.37786(4)
C18 C -0.0162(2) 0.16179(14) 0.34444(4)
H15 H -0.0338 0.2141 0.3273
C19 C 0.0535(2) 0.05722(14) 0.33746(4)
C20 C 0.0832(2) 0.01549(14) 0.30323(4)
C21 C 0.0966(3) 0.02515(17) 0.19072(4)
H16 H 0.1828 0.0383 0.1731
H17 H -0.0235 0.0281 0.1813
C22 C -0.0840(3) 0.1609(2) 0.49023(5)
H18 H -0.1587 0.1151 0.5048
H19 H 0.0142 0.1927 0.5032
loop_
_geom_bond_atom_site_label_1
_geom_bond_atom_site_label_2
_geom_bond_site_symmetry_1
_geom_bond_site_symmetry_2
N1 C10 1_555 1_555
O1 C3 1_555 1_555
O2 C5 1_555 1_555
O3 C13 1_555 1_555
O4 C14 1_555 1_555
O5 C4 1_555 1_555
C1 H1 1_555 1_555
C2 H2 1_555 1_555
H3 C2 1_555 1_555
C3 C1 1_555 1_555
C4 C2 1_555 1_555
C5 C3 1_555 1_555
C6 C4 1_555 1_555
H4 C6 1_555 1_555
H5 C6 1_555 1_555
H6 C6 1_555 1_555
C7 C5 1_555 1_555
H7 C7 1_555 1_555
C8 C7 1_555 1_555
C9 C8 1_555 1_555
H8 C9 1_555 1_555
H9 C9 1_555 1_555
C10 C9 1_555 1_555
H10 C10 1_555 1_555
H11 C10 1_555 1_555
C11 N1 1_555 1_555
H12 C11 1_555 1_555
C12 C11 1_555 1_555
C13 C12 1_555 1_555
C14 C13 1_555 1_555
C15 C14 1_555 1_555
H13 C15 1_555 1_555
C16 C15 1_555 1_555
H14 C16 1_555 1_555
C17 C12 1_555 1_555
C18 C17 1_555 1_555
H15 C18 1_555 1_555
C19 N1 1_555 1_555
C20 C1 1_555 1_555
C21 O1 1_555 1_555
H16 C21 1_555 1_555
H17 C21 1_555 1_555
C22 O3 1_555 1_555
H18 C22 1_555 1_555
H19 C22 1_555 1_555
O2 C21 1_555 1_555
O4 C22 1_555 1_555
C2 C11 1_555 1_555
C8 C20 1_555 1_555
C16 C17 1_555 1_555
C18 C19 1_555 1_555
C19 C20 1_555 1_555

#END
