
#######################################################################
#
#                 Cambridge Crystallographic Data Centre
#                                CCDC 
#
#######################################################################
#
# If this CIF has been generated from an entry in the Cambridge 
# Structural Database, then it will include bibliographic, chemical, 
# crystal, experimental, refinement or atomic coordinate data resulting 
# from the CCDC's data processing and validation procedures.
#
#######################################################################

data_FUVZEC
_chemical_formula_moiety         'C22 H15 Cl2 N5 O2,0.67(C1 H4 O1)'
_chemical_name_systematic        
"N,N'-(3,6-Dichloro-9H-carbazole-1,8-diyl)bis(1H-pyrrole-2-carboxamide) methanol solvate"
_symmetry_cell_setting           triclinic
_symmetry_space_group_name_H-M   'P -1'
_symmetry_Int_Tables_number      2
_space_group_name_Hall           '-P 1'
loop_
_symmetry_equiv_pos_site_id
_symmetry_equiv_pos_as_xyz
1 x,y,z
2 -x,-y,-z
_cell_length_a                   12.613(3)
_cell_length_b                   14.173(3)
_cell_length_c                   18.345(4)
_cell_angle_alpha                93.50(3)
_cell_angle_beta                 95.71(3)
_cell_angle_gamma                95.59(3)
_cell_volume                     3239.34
_cell_formula_units_Z            6
loop_
_atom_site_label
_atom_site_type_symbol
_atom_site_fract_x
_atom_site_fract_y
_atom_site_fract_z
Cl1 Cl 0.88215(7) 0.94570(7) 0.96288(5)
Cl2 Cl 0.91704(8) 0.51222(7) 0.63550(5)
O1 O 0.44642(18) 0.88193(18) 0.76724(12)
O2 O 0.5349(2) 0.41023(17) 0.56675(14)
N1 N 0.2708(2) 0.8471(2) 0.91032(15)
N2 N 0.4889(2) 0.82418(19) 0.87774(14)
N3 N 0.5718(2) 0.68735(19) 0.76710(14)
N4 N 0.5115(2) 0.5414(2) 0.64046(15)
N5 N 0.3174(2) 0.3675(2) 0.53167(16)
C1 C 0.1649(3) 0.8538(3) 0.9052(2)
H1 H 0.1218 0.8475 0.9433
C2 C 0.1311(3) 0.8716(3) 0.8341(2)
H2 H 0.0614 0.8789 0.8152
C3 C 0.2214(3) 0.8764(3) 0.79569(19)
H3 H 0.2226 0.8882 0.7464
C4 C 0.3086(3) 0.8609(2) 0.84334(17)
C5 C 0.4185(2) 0.8568(2) 0.82650(16)
C6 C 0.5991(2) 0.8186(2) 0.86833(17)
C7 C 0.6782(3) 0.8774(2) 0.91202(18)
H4 H 0.6586 0.9228 0.9455
C8 C 0.7861(3) 0.8695(2) 0.90660(18)
C9 C 0.8201(3) 0.8022(2) 0.85879(18)
H5 H 0.8926 0.7960 0.8568
C10 C 0.7414(3) 0.7440(2) 0.81368(17)
C11 C 0.7484(3) 0.6715(2) 0.75629(17)
C12 C 0.8347(3) 0.6336(2) 0.72776(19)
H6 H 0.9050 0.6535 0.7467
C13 C 0.8114(3) 0.5656(2) 0.67044(19)
C14 C 0.7076(3) 0.5344(2) 0.63966(19)
H7 H 0.6968 0.4895 0.5998
C15 C 0.6196(3) 0.5698(2) 0.66812(17)
C16 C 0.6411(3) 0.6387(2) 0.72790(17)
C17 C 0.6317(2) 0.7519(2) 0.81770(16)
C18 C 0.4745(3) 0.4646(2) 0.59206(18)
C19 C 0.3587(3) 0.4493(2) 0.57290(17)
C20 C 0.2735(3) 0.4988(3) 0.58754(19)
H8 H 0.2777 0.5570 0.6146
C21 C 0.1798(3) 0.4460(3) 0.5545(2)
H9 H 0.1104 0.4626 0.5558
C22 C 0.2089(3) 0.3649(3) 0.5199(2)
H10 H 0.1627 0.3170 0.4932
H39 H 0.309(3) 0.832(3) 0.9509(14)
H40 H 0.466(3) 0.807(3) 0.9201(12)
H41 H 0.5004(9) 0.679(3) 0.757(2)
H42 H 0.462(3) 0.577(3) 0.656(3)
H43 H 0.359(3) 0.328(2) 0.5100(19)
Cl3 Cl 0.91090(7) 0.57775(6) 0.92648(5)
Cl4 Cl 0.89332(7) 0.14070(7) 0.59545(5)
O3 O 0.52915(19) 0.59957(17) 0.93881(13)
O4 O 0.45248(18) 0.11212(18) 0.72579(12)
N6 N 0.3124(2) 0.5971(2) 0.94412(15)
N7 N 0.5089(2) 0.46248(19) 0.86329(15)
N8 N 0.5733(2) 0.32840(18) 0.74574(14)
N9 N 0.4964(2) 0.17610(19) 0.62123(14)
N10 N 0.2801(2) 0.1057(2) 0.55446(15)
C23 C 0.2044(3) 0.5775(3) 0.94031(19)
H11 H 0.1575 0.6161 0.9602
C24 C 0.1764(3) 0.4908(2) 0.90198(19)
H12 H 0.1075 0.4602 0.8912
C25 C 0.2719(3) 0.4568(2) 0.88200(18)
H13 H 0.2774 0.3997 0.8555
C26 C 0.3546(3) 0.5230(2) 0.90867(17)
C27 C 0.4710(3) 0.5321(2) 0.90557(17)
C28 C 0.6170(2) 0.4559(2) 0.85137(16)
C29 C 0.7031(3) 0.5105(2) 0.89231(18)
H14 H 0.6904 0.5537 0.9299
C30 C 0.8078(3) 0.5009(2) 0.87748(18)
C31 C 0.8338(3) 0.4373(2) 0.82398(17)
H15 H 0.9045 0.4322 0.8153
C32 C 0.7484(2) 0.3807(2) 0.78339(16)
C33 C 0.7444(2) 0.3079(2) 0.72505(17)
C34 C 0.8256(3) 0.2662(2) 0.69106(17)
H16 H 0.8977 0.2865 0.7045
C35 C 0.7941(3) 0.1943(2) 0.63718(18)
C36 C 0.6865(3) 0.1635(2) 0.61551(18)
H17 H 0.6687 0.1145 0.5790
C37 C 0.6062(3) 0.2047(2) 0.64749(16)
C38 C 0.6354(2) 0.2766(2) 0.70373(16)
C39 C 0.6405(2) 0.3910(2) 0.79535(16)
C40 C 0.4263(2) 0.1296(2) 0.66110(16)
C41 C 0.3180(3) 0.0995(2) 0.62717(17)
C42 C 0.2325(3) 0.0600(2) 0.66101(18)
H18 H 0.2339 0.0473 0.7102
C43 C 0.1435(3) 0.0425(3) 0.6080(2)
H19 H 0.0756 0.0158 0.6158
C44 C 0.1743(3) 0.0714(3) 0.54320(19)
H20 H 0.1308 0.0683 0.4989
H44 H 0.353(2) 0.6478(16) 0.9678(17)
H45 H 0.458(3) 0.419(2) 0.840(2)
H46 H 0.5014(8) 0.319(2) 0.7422(19)
H47 H 0.475(3) 0.187(3) 0.5747(9)
H48 H 0.324(2) 0.127(3) 0.5214(16)
Cl5 Cl 0.02906(6) 1.19302(6) 0.37338(5)
Cl6 Cl 0.02152(6) 0.72471(6) 0.06348(5)
O5 O 0.41591(17) 1.21136(15) 0.46678(11)
O6 O 0.40924(16) 0.77545(15) 0.02108(11)
N11 N 0.6328(2) 1.28405(19) 0.47459(15)
N12 N 0.4259(2) 1.14715(18) 0.35039(14)
N13 N 0.3494(2) 0.98682(17) 0.24033(13)
N14 N 0.4204(2) 0.84186(18) 0.13880(13)
N15 N 0.6278(2) 0.74529(19) 0.04477(14)
C45 C 0.7411(3) 1.2874(2) 0.47738(18)
H21 H 0.7906 1.3303 0.5065
C46 C 0.7646(3) 1.2155(3) 0.42920(19)
H22 H 0.8328 1.2012 0.4203
C47 C 0.6675(3) 1.1677(2) 0.39607(18)
H23 H 0.6594 1.1160 0.3615
C48 C 0.5862(2) 1.2120(2) 0.42451(16)
C49 C 0.4706(2) 1.1907(2) 0.41578(16)
C50 C 0.3153(2) 1.1179(2) 0.33144(16)
C51 C 0.2345(2) 1.1638(2) 0.35916(16)
H24 H 0.2516 1.2163 0.3927
C52 C 0.1273(2) 1.1314(2) 0.33692(17)
C53 C 0.0961(2) 1.0546(2) 0.28769(17)
H25 H 0.0241 1.0336 0.2749
C54 C 0.1765(2) 1.0093(2) 0.25749(16)
C55 C 0.1760(2) 0.9304(2) 0.20366(16)
C56 C 0.0925(2) 0.8709(2) 0.16338(17)
H26 H 0.0211 0.8772 0.1692
C57 C 0.1216(2) 0.8024(2) 0.11478(17)
C58 C 0.2278(2) 0.7903(2) 0.10437(17)
H27 H 0.2431 0.7425 0.0712
C59 C 0.3107(2) 0.8501(2) 0.14384(16)
C60 C 0.2838(2) 0.9201(2) 0.19423(16)
C61 C 0.2861(2) 1.0411(2) 0.27872(16)
C62 C 0.4637(2) 0.8072(2) 0.08016(16)
C63 C 0.5802(2) 0.8086(2) 0.08738(16)
C64 C 0.6607(2) 0.8693(2) 0.12770(17)
H28 H 0.6515 0.9195 0.1608
C65 C 0.7587(3) 0.8408(3) 0.10914(18)
H29 H 0.8265 0.8686 0.1278
C66 C 0.7360(3) 0.7638(2) 0.05808(18)
H30 H 0.7861 0.7305 0.0365
H49 H 0.595(3) 1.324(2) 0.4985(19)
H50 H 0.468(3) 1.137(3) 0.3146(16)
H51 H 0.4214(9) 0.995(3) 0.243(2)
H52 H 0.465(2) 0.856(3) 0.1798(13)
H53 H 0.593(3) 0.6967(18) 0.0157(17)
O7 O 0.34681(18) 0.66652(17) 0.71893(13)
H31 H 0.3369 0.7141 0.6970
C67 C 0.2504(3) 0.6334(3) 0.7496(2)
H32 H 0.2539 0.5688 0.7620
H33 H 0.1896 0.6366 0.7143
H34 H 0.2435 0.6726 0.7931
O8 O 0.34878(18) 0.30288(17) 0.76253(13)
H35 H 0.3431 0.2511 0.7802
C68 C 0.2523(3) 0.3135(3) 0.7158(2)
H36 H 0.1910 0.2943 0.7406
H37 H 0.2504 0.2744 0.6710
H38 H 0.2513 0.3788 0.7049
loop_
_geom_bond_atom_site_label_1
_geom_bond_atom_site_label_2
_geom_bond_site_symmetry_1
_geom_bond_site_symmetry_2
Cl1 C8 1_555 1_555
Cl2 C13 1_555 1_555
Cl3 C30 1_555 1_555
Cl4 C35 1_555 1_555
Cl5 C52 1_555 1_555
Cl6 C57 1_555 1_555
O1 C5 1_555 1_555
O2 C18 1_555 1_555
O3 C27 1_555 1_555
O4 C40 1_555 1_555
O5 C49 1_555 1_555
O6 C62 1_555 1_555
N1 C1 1_555 1_555
N2 C5 1_555 1_555
N3 C16 1_555 1_555
N4 C15 1_555 1_555
N5 C19 1_555 1_555
N6 C23 1_555 1_555
N7 C27 1_555 1_555
N8 C38 1_555 1_555
N9 C37 1_555 1_555
N10 C41 1_555 1_555
N11 C45 1_555 1_555
N12 C49 1_555 1_555
N13 C60 1_555 1_555
N14 C59 1_555 1_555
N15 C63 1_555 1_555
C1 H1 1_555 1_555
C2 C1 1_555 1_555
H2 C2 1_555 1_555
C3 C2 1_555 1_555
H3 C3 1_555 1_555
C4 N1 1_555 1_555
C5 C4 1_555 1_555
C6 N2 1_555 1_555
C7 C6 1_555 1_555
H4 C7 1_555 1_555
C8 C7 1_555 1_555
C9 C8 1_555 1_555
H5 C9 1_555 1_555
C10 C9 1_555 1_555
C11 C10 1_555 1_555
C12 C11 1_555 1_555
H6 C12 1_555 1_555
C13 C12 1_555 1_555
C14 C13 1_555 1_555
H7 C14 1_555 1_555
C15 C14 1_555 1_555
C16 C11 1_555 1_555
C17 N3 1_555 1_555
C18 N4 1_555 1_555
C19 C18 1_555 1_555
C20 C19 1_555 1_555
H8 C20 1_555 1_555
C21 C20 1_555 1_555
H9 C21 1_555 1_555
C22 N5 1_555 1_555
H10 C22 1_555 1_555
C23 H11 1_555 1_555
C24 C23 1_555 1_555
H12 C24 1_555 1_555
C25 C24 1_555 1_555
H13 C25 1_555 1_555
C26 N6 1_555 1_555
C27 C26 1_555 1_555
C28 N7 1_555 1_555
C29 C28 1_555 1_555
H14 C29 1_555 1_555
C30 C29 1_555 1_555
C31 C30 1_555 1_555
H15 C31 1_555 1_555
C32 C31 1_555 1_555
C33 C32 1_555 1_555
C34 C33 1_555 1_555
H16 C34 1_555 1_555
C35 C34 1_555 1_555
C36 C35 1_555 1_555
H17 C36 1_555 1_555
C37 C36 1_555 1_555
C38 C33 1_555 1_555
C39 N8 1_555 1_555
C40 N9 1_555 1_555
C41 C40 1_555 1_555
C42 C41 1_555 1_555
H18 C42 1_555 1_555
C43 C42 1_555 1_555
H19 C43 1_555 1_555
C44 N10 1_555 1_555
H20 C44 1_555 1_555
C45 H21 1_555 1_555
C46 C45 1_555 1_555
H22 C46 1_555 1_555
C47 C46 1_555 1_555
H23 C47 1_555 1_555
C48 N11 1_555 1_555
C49 C48 1_555 1_555
C50 N12 1_555 1_555
C51 C50 1_555 1_555
H24 C51 1_555 1_555
C52 C51 1_555 1_555
C53 C52 1_555 1_555
H25 C53 1_555 1_555
C54 C53 1_555 1_555
C55 C54 1_555 1_555
C56 C55 1_555 1_555
H26 C56 1_555 1_555
C57 C56 1_555 1_555
C58 C57 1_555 1_555
H27 C58 1_555 1_555
C59 C58 1_555 1_555
C60 C55 1_555 1_555
C61 N13 1_555 1_555
C62 N14 1_555 1_555
C63 C62 1_555 1_555
C64 C63 1_555 1_555
H28 C64 1_555 1_555
C65 C64 1_555 1_555
H29 C65 1_555 1_555
C66 N15 1_555 1_555
H30 C66 1_555 1_555
O7 H31 1_555 1_555
C67 O7 1_555 1_555
H32 C67 1_555 1_555
H33 C67 1_555 1_555
H34 C67 1_555 1_555
O8 H35 1_555 1_555
C68 O8 1_555 1_555
H36 C68 1_555 1_555
H37 C68 1_555 1_555
H38 C68 1_555 1_555
H39 N1 1_555 1_555
H40 N2 1_555 1_555
H41 N3 1_555 1_555
H42 N4 1_555 1_555
H43 N5 1_555 1_555
H44 N6 1_555 1_555
H45 N7 1_555 1_555
H46 N8 1_555 1_555
H47 N9 1_555 1_555
H48 N10 1_555 1_555
H49 N11 1_555 1_555
H50 N12 1_555 1_555
H51 N13 1_555 1_555
H52 N14 1_555 1_555
H53 N15 1_555 1_555
C3 C4 1_555 1_555
C6 C17 1_555 1_555
C10 C17 1_555 1_555
C15 C16 1_555 1_555
C21 C22 1_555 1_555
C25 C26 1_555 1_555
C28 C39 1_555 1_555
C32 C39 1_555 1_555
C37 C38 1_555 1_555
C43 C44 1_555 1_555
C47 C48 1_555 1_555
C50 C61 1_555 1_555
C54 C61 1_555 1_555
C59 C60 1_555 1_555
C65 C66 1_555 1_555

#END
