
#######################################################################
#
#                 Cambridge Crystallographic Data Centre
#                                CCDC 
#
#######################################################################
#
# If this CIF has been generated from an entry in the Cambridge 
# Structural Database, then it will include bibliographic, chemical, 
# crystal, experimental, refinement or atomic coordinate data resulting 
# from the CCDC's data processing and validation procedures.
#
#######################################################################

data_FUVZON
_chemical_name_common            
'octamethoxy-n-butoxy-(methoxycarbonylmethoxy)copillar[5]arene dichloromethane solvate'
_chemical_formula_moiety         'C50 H58 O12,2(C1 H2 Cl2)'
_chemical_name_systematic        
'methyl ((34-butoxy-9,14,19,24,26,28,30,32-octamethoxyhexacyclo[21.2.2.2^3,6^.2^8,11^.2^13,16^.2^18,21^]pentatriaconta-1(25),3,5,8,10,13,15,18,20,23,26,28,30,32,34-pentadecaen-4-yl)oxy)acetate dichloromethane solvate'
_symmetry_cell_setting           monoclinic
_symmetry_space_group_name_H-M   'C 2/c'
_symmetry_Int_Tables_number      15
_space_group_name_Hall           '-C 2yn'
loop_
_symmetry_equiv_pos_site_id
_symmetry_equiv_pos_as_xyz
1 x,y,z
2 -x,y,1/2-z
3 1/2+x,1/2+y,z
4 1/2-x,1/2+y,1/2-z
5 -x,-y,-z
6 x,-y,1/2+z
7 1/2-x,1/2-y,-z
8 1/2+x,1/2-y,1/2+z
_cell_length_a                   11.437(3)
_cell_length_b                   21.742(5)
_cell_length_c                   21.590(4)
_cell_angle_alpha                90
_cell_angle_beta                 104.271(7)
_cell_angle_gamma                90
_cell_volume                     5202.97
_exptl_crystal_colour            colorless
_exptl_crystal_description       block
_cell_formula_units_Z            4
loop_
_atom_site_label
_atom_site_type_symbol
_atom_site_fract_x
_atom_site_fract_y
_atom_site_fract_z
C26 C 0.1798(6) 0.1281(7) 0.2371(5)
H28 H 0.1609 0.0878 0.2512
H29 H 0.1908 0.1559 0.2732
Cl1 Cl 0.0603(4) 0.1533(2) 0.17733(16)
Cl2 Cl 0.3134(4) 0.1237(4) 0.2131(3)
O1 O 0.3802(4) 0.0240(2) 0.3579(2)
O2 O -0.0913(4) -0.0404(2) 0.3483(2)
O3 O 0.3657(4) 0.25956(19) 0.3430(2)
O4 O 0.1061(4) 0.1360(2) 0.48923(19)
O5 O -0.0686(4) 0.3255(2) 0.3637(2)
C1 C 0.0000 -0.0841(4) 0.2500
H1 H 0.0530 -0.1105 0.2329
C2 C 0.0760(5) -0.0458(2) 0.3041(3)
C3 C 0.1937(5) -0.0306(2) 0.3063(3)
H2 H 0.2284 -0.0452 0.2745
C4 C 0.2623(5) 0.0060(2) 0.3545(3)
C5 C 0.2151(5) 0.0281(2) 0.4027(3)
C6 C 0.0958(5) 0.0123(3) 0.4012(3)
H3 H 0.0619 0.0264 0.4336
C7 C 0.0270(5) -0.0237(3) 0.3530(3)
C8 C 0.4467(7) -0.0094(4) 0.3232(5)
H4 H 0.5272 0.0069 0.3315
H5 H 0.4089 -0.0061 0.2784
H6 H 0.4499 -0.0518 0.3359
C9 C -0.1490(6) -0.0160(4) 0.3935(3)
H7 H -0.2331 -0.0264 0.3816
H8 H -0.1403 0.0279 0.3949
H9 H -0.1128 -0.0328 0.4349
C10 C 0.2863(5) 0.0701(3) 0.4545(3)
H10 H 0.2645 0.0618 0.4943
H11 H 0.3718 0.0619 0.4609
C11 C 0.2619(5) 0.1369(2) 0.4369(2)
C12 C 0.3289(5) 0.1675(3) 0.4004(2)
H12 H 0.3925 0.1470 0.3896
C13 C 0.3036(5) 0.2274(3) 0.3801(2)
C14 C 0.2093(5) 0.2592(2) 0.3965(2)
C15 C 0.1438(5) 0.2293(3) 0.4333(2)
H13 H 0.0818 0.2500 0.4452
C16 C 0.1689(5) 0.1686(3) 0.4528(2)
C17 C 0.4777(6) 0.2362(3) 0.3391(4)
H14 H 0.5160 0.2649 0.3166
H15 H 0.4662 0.1978 0.3165
H16 H 0.5277 0.2299 0.3813
C18 C 0.0058(6) 0.1646(4) 0.5045(3)
H17 H -0.0290 0.1371 0.5298
H18 H -0.0532 0.1745 0.4658
H19 H 0.0315 0.2015 0.5282
C19 C 0.1784(5) 0.3252(2) 0.3736(3)
H20 H 0.1465 0.3472 0.4049
H21 H 0.2511 0.3461 0.3695
C20 C 0.0857(5) 0.3257(2) 0.3093(3)
C21 C 0.1211(5) 0.3256(2) 0.2528(3)
H22 H 0.2030 0.3262 0.2542
C22 C -0.0386(5) 0.3247(3) 0.3057(3)
C23 C -0.1892(6) 0.3162(3) 0.3651(3)
H23 H -0.2120 0.2745 0.3514
H24 H -0.2396 0.3438 0.3344
C24 C -0.2157(19) 0.3267(16) 0.4309(7)
C25 C -0.156(5) 0.391(2) 0.5250(18)
H25 H -0.0938 0.4152 0.5515
H26 H -0.1615 0.3520 0.5457
H27 H -0.2319 0.4119 0.5181
O6 O -0.2784(13) 0.3047(7) 0.4479(7)
O7 O -0.151(2) 0.3756(11) 0.4651(13)
O1A O -0.3802(4) 0.0240(2) 0.1421(2)
O2A O 0.0913(4) -0.0404(2) 0.1517(2)
O3A O -0.3657(4) 0.25956(19) 0.1570(2)
O4A O -0.1061(4) 0.1360(2) 0.01077(19)
O5A O 0.0686(4) 0.3255(2) 0.1363(2)
H1A H -0.0530 -0.1105 0.2671
C2A C -0.0760(5) -0.0458(2) 0.1959(3)
C3A C -0.1937(5) -0.0306(2) 0.1937(3)
H2A H -0.2284 -0.0452 0.2255
C4A C -0.2623(5) 0.0060(2) 0.1455(3)
C5A C -0.2151(5) 0.0281(2) 0.0973(3)
C6A C -0.0958(5) 0.0123(3) 0.0988(3)
H3A H -0.0619 0.0264 0.0664
C7A C -0.0270(5) -0.0237(3) 0.1470(3)
C8A C -0.4467(7) -0.0094(4) 0.1768(5)
H4A H -0.5272 0.0069 0.1685
H5A H -0.4089 -0.0061 0.2216
H6A H -0.4499 -0.0518 0.1641
C9A C 0.1490(6) -0.0160(4) 0.1065(3)
H7A H 0.2331 -0.0264 0.1184
H8A H 0.1403 0.0279 0.1051
H9A H 0.1128 -0.0328 0.0651
C10A C -0.2863(5) 0.0701(3) 0.0455(3)
H10A H -0.2645 0.0618 0.0057
H11A H -0.3718 0.0619 0.0391
C11A C -0.2619(5) 0.1369(2) 0.0631(2)
C12A C -0.3289(5) 0.1675(3) 0.0996(2)
H12A H -0.3925 0.1470 0.1104
C13A C -0.3036(5) 0.2274(3) 0.1199(2)
C14A C -0.2093(5) 0.2592(2) 0.1035(2)
C15A C -0.1438(5) 0.2293(3) 0.0667(2)
H13A H -0.0818 0.2500 0.0548
C16A C -0.1689(5) 0.1686(3) 0.0472(2)
C17A C -0.4777(6) 0.2362(3) 0.1609(4)
H14A H -0.5160 0.2649 0.1834
H15A H -0.4662 0.1978 0.1835
H16A H -0.5277 0.2299 0.1187
C18A C -0.0058(6) 0.1646(4) -0.0045(3)
H17A H 0.0290 0.1371 -0.0298
H18A H 0.0532 0.1745 0.0342
H19A H -0.0315 0.2015 -0.0282
C19A C -0.1784(5) 0.3252(2) 0.1264(3)
H20A H -0.1465 0.3472 0.0951
H21A H -0.2511 0.3461 0.1305
C20A C -0.0857(5) 0.3257(2) 0.1907(3)
C21A C -0.1211(5) 0.3256(2) 0.2472(3)
H22A H -0.2030 0.3262 0.2458
C22A C 0.0386(5) 0.3247(3) 0.1943(3)
C23A C 0.1892(6) 0.3162(3) 0.1349(3)
H23A H 0.2120 0.2745 0.1486
H24A H 0.2396 0.3438 0.1656
C24A C 0.2157(19) 0.3267(16) 0.0691(7)
C25A C 0.156(5) 0.391(2) -0.0250(18)
H25A H 0.0938 0.4152 -0.0515
H26A H 0.1615 0.3520 -0.0457
H27A H 0.2319 0.4119 -0.0181
O6A O 0.2784(13) 0.3047(7) 0.0521(7)
O7A O 0.151(2) 0.3756(11) 0.0349(13)
H30? H 0.0530 -0.1105 0.2329
C27? C 0.159(4) 0.164(2) 0.220(3)
H31? H 0.1859 0.1664 0.2662
H32? H 0.1262 0.2038 0.2044
Cl3? Cl 0.045(2) 0.1095(15) 0.2000(13)
Cl4? Cl 0.280(3) 0.1471(19) 0.1887(17)
H33? H -0.2001 0.2898 0.4569
H34? H -0.2986 0.3394 0.4265
C28? C -0.184(2) 0.3253(13) 0.4367(7)
C29? C -0.126(2) 0.3789(13) 0.4598(12)
H35? H -0.0430 0.3657 0.4655
H36? H -0.1400 0.4154 0.4331
C30? C -0.166(5) 0.396(2) 0.526(2)
H37? H -0.1206 0.4334 0.5379
H38? H -0.1388 0.3652 0.5573
H39? H -0.2503 0.4046 0.5221
loop_
_geom_bond_atom_site_label_1
_geom_bond_atom_site_label_2
_geom_bond_site_symmetry_1
_geom_bond_site_symmetry_2
O1 C4 1_555 1_555
O2 C7 1_555 1_555
O3 C13 1_555 1_555
O4 C16 1_555 1_555
O5 C22 1_555 1_555
C1 H1 1_555 1_555
C2 C1 1_555 1_555
C3 C2 1_555 1_555
H2 C3 1_555 1_555
C4 C3 1_555 1_555
C5 C4 1_555 1_555
C6 C5 1_555 1_555
H3 C6 1_555 1_555
C7 C2 1_555 1_555
C8 O1 1_555 1_555
H4 C8 1_555 1_555
H5 C8 1_555 1_555
H6 C8 1_555 1_555
C9 O2 1_555 1_555
H7 C9 1_555 1_555
H8 C9 1_555 1_555
H9 C9 1_555 1_555
C10 C5 1_555 1_555
H10 C10 1_555 1_555
H11 C10 1_555 1_555
C11 C10 1_555 1_555
C12 C11 1_555 1_555
H12 C12 1_555 1_555
C13 C12 1_555 1_555
C14 C13 1_555 1_555
C15 C14 1_555 1_555
H13 C15 1_555 1_555
C16 C11 1_555 1_555
C17 O3 1_555 1_555
H14 C17 1_555 1_555
H15 C17 1_555 1_555
H16 C17 1_555 1_555
C18 O4 1_555 1_555
H17 C18 1_555 1_555
H18 C18 1_555 1_555
H19 C18 1_555 1_555
C19 C14 1_555 1_555
H20 C19 1_555 1_555
H21 C19 1_555 1_555
C20 C19 1_555 1_555
C21 C20 1_555 1_555
H22 C21 1_555 1_555
C22 C20 1_555 1_555
C23 O5 1_555 1_555
H23 C23 1_555 1_555
H24 C23 1_555 1_555
C24 C23 1_555 1_555
C25 H25 1_555 1_555
H26 C25 1_555 1_555
H27 C25 1_555 1_555
O6 C24 1_555 1_555
O7 C24 1_555 1_555
C26 H28 1_555 1_555
H29 C26 1_555 1_555
Cl1 C26 1_555 1_555
Cl2 C26 1_555 1_555
O1A C4A 1_555 1_555
O2A C7A 1_555 1_555
O3A C13A 1_555 1_555
O4A C16A 1_555 1_555
O5A C22A 1_555 1_555
H1A C1 1_555 1_555
C2A C1 1_555 1_555
C3A C2A 1_555 1_555
H2A C3A 1_555 1_555
C4A C3A 1_555 1_555
C5A C4A 1_555 1_555
C6A C5A 1_555 1_555
H3A C6A 1_555 1_555
C7A C2A 1_555 1_555
C8A O1A 1_555 1_555
H4A C8A 1_555 1_555
H5A C8A 1_555 1_555
H6A C8A 1_555 1_555
C9A O2A 1_555 1_555
H7A C9A 1_555 1_555
H8A C9A 1_555 1_555
H9A C9A 1_555 1_555
C10A C5A 1_555 1_555
H10A C10A 1_555 1_555
H11A C10A 1_555 1_555
C11A C10A 1_555 1_555
C12A C11A 1_555 1_555
H12A C12A 1_555 1_555
C13A C12A 1_555 1_555
C14A C13A 1_555 1_555
C15A C14A 1_555 1_555
H13A C15A 1_555 1_555
C16A C11A 1_555 1_555
C17A O3A 1_555 1_555
H14A C17A 1_555 1_555
H15A C17A 1_555 1_555
H16A C17A 1_555 1_555
C18A O4A 1_555 1_555
H17A C18A 1_555 1_555
H18A C18A 1_555 1_555
H19A C18A 1_555 1_555
C19A C14A 1_555 1_555
H20A C19A 1_555 1_555
H21A C19A 1_555 1_555
C20A C19A 1_555 1_555
C21A C22 1_555 1_555
H22A C21A 1_555 1_555
C22A C21 1_555 1_555
C23A O5A 1_555 1_555
H23A C23A 1_555 1_555
H24A C23A 1_555 1_555
C24A C23A 1_555 1_555
C25A H25A 1_555 1_555
H26A C25A 1_555 1_555
H27A C25A 1_555 1_555
O6A C24A 1_555 1_555
O7A C24A 1_555 1_555
C6 C7 1_555 1_555
C15 C16 1_555 1_555
C25 O7 1_555 1_555
C6A C7A 1_555 1_555
C15A C16A 1_555 1_555
C20A C21A 1_555 1_555
C20A C22A 1_555 1_555
C25A O7A 1_555 1_555

#END
