
#######################################################################
#
#                 Cambridge Crystallographic Data Centre
#                                CCDC 
#
#######################################################################
#
# If this CIF has been generated from an entry in the Cambridge 
# Structural Database, then it will include bibliographic, chemical, 
# crystal, experimental, refinement or atomic coordinate data resulting 
# from the CCDC's data processing and validation procedures.
#
#######################################################################

data_FUWBUV
_chemical_formula_moiety         'C24 H21 F6 N5 O3 S1'
_chemical_name_systematic        
'(4-((3-(1H-1,2,4-Triazol-3-yl)-5-(trifluoromethyl)phenyl)sulfonyl)piperazin-1-yl)(2-(4-(trifluoromethyl)phenyl)cyclopropyl)methanone unknown solvate'
_symmetry_cell_setting           monoclinic
_symmetry_space_group_name_H-M   'P 21'
_symmetry_Int_Tables_number      4
_space_group_name_Hall           'P 2yb'
loop_
_symmetry_equiv_pos_site_id
_symmetry_equiv_pos_as_xyz
1 x,y,z
2 -x,1/2+y,-z
_cell_length_a                   4.8910(7)
_cell_length_b                   21.155(3)
_cell_length_c                   14.292(2)
_cell_angle_alpha                90
_cell_angle_beta                 99.123(2)
_cell_angle_gamma                90
_cell_volume                     1460.07
_cell_formula_units_Z            2
loop_
_atom_site_label
_atom_site_type_symbol
_atom_site_fract_x
_atom_site_fract_y
_atom_site_fract_z
S1 S -0.0495(2) 0.21734(6) 0.27412(10)
F1 F 0.2692(11) 0.8296(2) 0.2996(5)
F2 F -0.0767(13) 0.8062(3) 0.3624(4)
F3 F -0.0762(12) 0.7808(2) 0.2191(3)
F4 F 0.143(3) 0.1967(6) -0.0751(7)
F5 F 0.171(3) 0.0984(6) -0.0864(6)
F6 F 0.539(2) 0.1509(8) -0.0651(7)
N1 N 0.4014(9) 0.3893(2) 0.3876(3)
N2 N 0.1309(9) 0.2796(2) 0.3140(3)
N3 N 0.8289(12) 0.0000(3) 0.2045(4)
N4 N 0.7180(10) 0.0268(2) 0.3461(4)
N5 N 0.9122(11) -0.0196(2) 0.3558(4)
H1 H 0.9843 -0.0378 0.4095
O1 O 0.7621(8) 0.42380(17) 0.4925(3)
O2 O -0.0986(7) 0.18260(17) 0.3557(3)
O3 O -0.2761(8) 0.24040(18) 0.2064(3)
C1 C 0.2200(11) 0.7220(3) 0.3337(4)
C2 C 0.2078(11) 0.6971(3) 0.4219(4)
H2 H 0.1026 0.7180 0.4631
C3 C 0.3485(10) 0.6414(3) 0.4514(4)
H3 H 0.3393 0.6247 0.5125
C4 C 0.5019(11) 0.6105(2) 0.3914(4)
C5 C 0.5059(13) 0.6364(3) 0.3014(4)
H4 H 0.6078 0.6155 0.2592
C6 C 0.3666(13) 0.6911(3) 0.2726(4)
H5 H 0.3712 0.7076 0.2110
C7 C 0.6552(10) 0.5518(2) 0.4251(4)
H6 H 0.6719 0.5438 0.4948
C8 C 0.8909(11) 0.5280(3) 0.3808(5)
H7 H 1.0476 0.5080 0.4227
H8 H 0.9439 0.5526 0.3275
C9 C 0.6175(10) 0.4924(3) 0.3633(4)
H9 H 0.5017 0.4956 0.2992
C10 C 0.6019(10) 0.4327(2) 0.4192(4)
C11 C 0.3509(11) 0.3372(3) 0.4511(4)
H10 H 0.1720 0.3439 0.4737
H11 H 0.4993 0.3364 0.5069
C12 C 0.2014(11) 0.3925(3) 0.2996(4)
H12 H 0.2568 0.4262 0.2584
H13 H 0.0159 0.4031 0.3145
C13 C 0.1891(11) 0.3294(2) 0.2479(4)
H14 H 0.0414 0.3303 0.1918
H15 H 0.3678 0.3209 0.2261
C14 C 0.3447(10) 0.2737(2) 0.3981(4)
H16 H 0.5272 0.2649 0.3793
H17 H 0.2989 0.2388 0.4391
C15 C 0.1509(10) 0.1687(3) 0.2106(4)
C16 C 0.3174(10) 0.1219(2) 0.2577(4)
H18 H 0.3200 0.1151 0.3235
C17 C 0.4819(11) 0.0846(3) 0.2078(4)
C18 C 0.4736(12) 0.0950(3) 0.1107(4)
H19 H 0.5851 0.0703 0.0760
C19 C 0.2983(12) 0.1424(3) 0.0647(4)
C20 C 0.1370(12) 0.1788(3) 0.1148(4)
H20 H 0.0181 0.2104 0.0836
C21 C 0.6726(12) 0.0359(2) 0.2543(4)
C22 C 0.9762(15) -0.0333(3) 0.2707(6)
H21 H 1.1117 -0.0634 0.2598
C23 C 0.0811(14) 0.7839(3) 0.3036(5)
C24 C 0.2987(15) 0.1534(4) -0.0364(6)
F7? F 0.471(3) 0.1191(7) -0.0777(7)
F8? F 0.444(3) 0.2140(6) -0.0463(6)
F9? F 0.076(2) 0.1647(8) -0.0905(7)
loop_
_geom_bond_atom_site_label_1
_geom_bond_atom_site_label_2
_geom_bond_site_symmetry_1
_geom_bond_site_symmetry_2
S1 N2 1_555 1_555
F1 C23 1_555 1_555
F2 C23 1_555 1_555
F3 C23 1_555 1_555
F4 C24 1_555 1_555
F5 C24 1_555 1_555
F6 C24 1_555 1_555
N1 C10 1_555 1_555
N2 C13 1_555 1_555
N3 C21 1_555 1_555
N4 N5 1_555 1_555
N5 H1 1_555 1_555
O1 C10 1_555 1_555
O2 S1 1_555 1_555
O3 S1 1_555 1_555
C1 C2 1_555 1_555
C2 H2 1_555 1_555
C3 C2 1_555 1_555
H3 C3 1_555 1_555
C4 C3 1_555 1_555
C5 C4 1_555 1_555
H4 C5 1_555 1_555
C6 C1 1_555 1_555
H5 C6 1_555 1_555
C7 C4 1_555 1_555
H6 C7 1_555 1_555
C8 C7 1_555 1_555
H7 C8 1_555 1_555
H8 C8 1_555 1_555
C9 C7 1_555 1_555
H9 C9 1_555 1_555
C10 C9 1_555 1_555
C11 N1 1_555 1_555
H10 C11 1_555 1_555
H11 C11 1_555 1_555
C12 N1 1_555 1_555
H12 C12 1_555 1_555
H13 C12 1_555 1_555
C13 C12 1_555 1_555
H14 C13 1_555 1_555
H15 C13 1_555 1_555
C14 N2 1_555 1_555
H16 C14 1_555 1_555
H17 C14 1_555 1_555
C15 S1 1_555 1_555
C16 C15 1_555 1_555
H18 C16 1_555 1_555
C17 C16 1_555 1_555
C18 C17 1_555 1_555
H19 C18 1_555 1_555
C19 C18 1_555 1_555
C20 C15 1_555 1_555
H20 C20 1_555 1_555
C21 N4 1_555 1_555
C22 N3 1_555 1_555
H21 C22 1_555 1_555
C23 C1 1_555 1_555
C24 C19 1_555 1_555
N5 C22 1_555 1_555
C5 C6 1_555 1_555
C8 C9 1_555 1_555
C11 C14 1_555 1_555
C17 C21 1_555 1_555
C19 C20 1_555 1_555

#END
