
#######################################################################
#
#                 Cambridge Crystallographic Data Centre
#                                CCDC 
#
#######################################################################
#
# If this CIF has been generated from an entry in the Cambridge 
# Structural Database, then it will include bibliographic, chemical, 
# crystal, experimental, refinement or atomic coordinate data resulting 
# from the CCDC's data processing and validation procedures.
#
#######################################################################

data_FUWROG
_chemical_formula_moiety         'C27 H21 N1 O1'
_chemical_name_systematic        
3-(4-(diphenylamino)phenyl)-1-phenylprop-2-en-1-one
_symmetry_cell_setting           monoclinic
_symmetry_space_group_name_H-M   'P 21/c'
_symmetry_Int_Tables_number      14
_space_group_name_Hall           '-P 2ybc'
loop_
_symmetry_equiv_pos_site_id
_symmetry_equiv_pos_as_xyz
1 x,y,z
2 -x,1/2+y,1/2-z
3 -x,-y,-z
4 x,1/2-y,1/2+z
_cell_length_a                   12.1179(7)
_cell_length_b                   17.3412(10)
_cell_length_c                   9.5281(6)
_cell_angle_alpha                90
_cell_angle_beta                 91.210(4)
_cell_angle_gamma                90
_cell_volume                     2001.78
_exptl_crystal_colour            yellow
_exptl_crystal_description       block
_cell_formula_units_Z            4
loop_
_atom_site_label
_atom_site_type_symbol
_atom_site_fract_x
_atom_site_fract_y
_atom_site_fract_z
N1 N 0.71996(10) 0.62422(8) 0.39096(14)
C1 C 0.71612(12) 0.61118(9) 0.53703(17)
O1 O 1.29528(9) 0.56313(8) -0.09747(13)
C2 C 0.81778(12) 0.61608(10) 0.31432(17)
C3 C 1.21520(12) 0.62103(9) -0.29872(18)
C4 C 1.00708(12) 0.59862(10) 0.15071(17)
C5 C 1.10328(12) 0.58617(10) 0.06331(19)
H1 H 1.1603 0.5566 0.1021
C6 C 1.11739(13) 0.61242(11) -0.06433(19)
H2 H 1.0619 0.6430 -0.1040
C7 C 0.89701(12) 0.56123(10) 0.34875(17)
H3 H 0.8874 0.5295 0.4263
C8 C 1.21524(13) 0.59668(11) -0.14874(19)
C9 C 0.62270(12) 0.65054(10) 0.31771(17)
C10 C 0.98989(12) 0.55329(10) 0.26912(18)
H4 H 1.0426 0.5167 0.2951
C11 C 0.57992(13) 0.60816(11) 0.20684(18)
H5 H 0.6134 0.5622 0.1810
C12 C 0.92808(12) 0.65432(11) 0.11908(18)
H6 H 0.9379 0.6865 0.0422
C13 C 1.30104(13) 0.59752(11) -0.3820(2)
H7 H 1.3583 0.5686 -0.3426
C14 C 0.83520(12) 0.66305(10) 0.19918(18)
H8 H 0.7837 0.7009 0.1756
C15 C 1.13260(13) 0.66396(11) -0.3614(2)
H9 H 1.0742 0.6811 -0.3079
C16 C 1.30311(15) 0.61620(12) -0.5221(2)
H10 H 1.3616 0.5998 -0.5762
C17 C 0.57187(13) 0.71806(11) 0.35632(19)
H11 H 0.6000 0.7465 0.4317
C18 C 0.62166(14) 0.58216(11) 0.5963(2)
H12 H 0.5603 0.5710 0.5396
C19 C 0.48738(14) 0.63404(13) 0.13431(18)
H13 H 0.4585 0.6056 0.0594
C20 C 1.22007(15) 0.65851(12) -0.5822(2)
H14 H 1.2217 0.6712 -0.6769
C21 C 0.47939(15) 0.74360(12) 0.2837(2)
H15 H 0.4452 0.7892 0.3102
C22 C 0.80481(14) 0.62788(12) 0.62417(19)
H16 H 0.8688 0.6484 0.5871
C23 C 0.61809(18) 0.56967(12) 0.7393(2)
H17 H 0.5540 0.5502 0.7779
C24 C 0.79902(17) 0.61426(14) 0.7662(2)
H18 H 0.8600 0.6251 0.8237
C25 C 0.43783(14) 0.70202(14) 0.1728(2)
H19 H 0.3759 0.7197 0.1233
C26 C 0.70661(19) 0.58542(14) 0.8243(2)
H20 H 0.7038 0.5766 0.9204
C27 C 1.13459(15) 0.68199(13) -0.5018(2)
H21 H 1.0772 0.7104 -0.5423
loop_
_geom_bond_atom_site_label_1
_geom_bond_atom_site_label_2
_geom_bond_site_symmetry_1
_geom_bond_site_symmetry_2
N1 C1 1_555 1_555
C1 C18 1_555 1_555
O1 C8 1_555 1_555
C2 N1 1_555 1_555
C3 C8 1_555 1_555
C4 C5 1_555 1_555
C5 H1 1_555 1_555
C6 C5 1_555 1_555
H2 C6 1_555 1_555
C7 C2 1_555 1_555
H3 C7 1_555 1_555
C8 C6 1_555 1_555
C9 N1 1_555 1_555
C10 C4 1_555 1_555
H4 C10 1_555 1_555
C11 C9 1_555 1_555
H5 C11 1_555 1_555
C12 C4 1_555 1_555
H6 C12 1_555 1_555
C13 C3 1_555 1_555
H7 C13 1_555 1_555
C14 C2 1_555 1_555
H8 C14 1_555 1_555
C15 C3 1_555 1_555
H9 C15 1_555 1_555
C16 C13 1_555 1_555
H10 C16 1_555 1_555
C17 C9 1_555 1_555
H11 C17 1_555 1_555
C18 H12 1_555 1_555
C19 C11 1_555 1_555
H13 C19 1_555 1_555
C20 C16 1_555 1_555
H14 C20 1_555 1_555
C21 C17 1_555 1_555
H15 C21 1_555 1_555
C22 C1 1_555 1_555
H16 C22 1_555 1_555
C23 C18 1_555 1_555
H17 C23 1_555 1_555
C24 C22 1_555 1_555
H18 C24 1_555 1_555
C25 C19 1_555 1_555
H19 C25 1_555 1_555
C26 C23 1_555 1_555
H20 C26 1_555 1_555
C27 C15 1_555 1_555
H21 C27 1_555 1_555
C7 C10 1_555 1_555
C12 C14 1_555 1_555
C20 C27 1_555 1_555
C21 C25 1_555 1_555
C24 C26 1_555 1_555

#END
