
#######################################################################
#
#                 Cambridge Crystallographic Data Centre
#                                CCDC 
#
#######################################################################
#
# If this CIF has been generated from an entry in the Cambridge 
# Structural Database, then it will include bibliographic, chemical, 
# crystal, experimental, refinement or atomic coordinate data resulting 
# from the CCDC's data processing and validation procedures.
#
#######################################################################

data_FUWRAS
_chemical_formula_moiety         'C21 H33 N1 O4 Si1'
_chemical_name_systematic        
't-butyl 3-((t-butyl(dimethyl)silyl)oxy)-5-oxo-2-phenylpyrrolidine-1-carboxylate'
_symmetry_cell_setting           orthorhombic
_symmetry_space_group_name_H-M   'P 21 21 21'
_symmetry_Int_Tables_number      19
_space_group_name_Hall           'P 2ac 2ab'
loop_
_symmetry_equiv_pos_site_id
_symmetry_equiv_pos_as_xyz
1 x,y,z
2 1/2+x,1/2-y,-z
3 -x,1/2+y,1/2-z
4 1/2-x,-y,1/2+z
_cell_length_a                   6.3258(2)
_cell_length_b                   17.6205(6)
_cell_length_c                   20.9213(7)
_cell_angle_alpha                90
_cell_angle_beta                 90
_cell_angle_gamma                90
_cell_volume                     2331.97
_exptl_crystal_colour            colorless
_exptl_crystal_description       block
_cell_formula_units_Z            4
loop_
_atom_site_label
_atom_site_type_symbol
_atom_site_fract_x
_atom_site_fract_y
_atom_site_fract_z
Si1 Si 0.10327(12) 0.44200(4) 0.04259(4)
O1 O 0.2524(3) 0.51858(8) 0.03951(8)
N1 N 0.2628(3) 0.71753(10) 0.07438(9)
C1 C 0.2868(4) 0.78103(14) 0.11252(12)
O2 O 0.3403(3) 0.75999(8) 0.17197(8)
C2 C 0.2697(4) 0.63766(12) 0.09766(10)
H1 H 0.4170 0.6230 0.1054
C3 C 0.2645(4) 0.72115(14) 0.00743(12)
O3 O 0.2619(3) 0.77895(11) -0.02379(9)
C4 C 0.2734(5) 0.64121(15) -0.01694(12)
H2 H 0.4175 0.6264 -0.0267
H3 H 0.1872 0.6353 -0.0550
C5 C 0.1861(4) 0.59507(12) 0.03784(11)
H4 H 0.0313 0.5972 0.0372
C6 C 0.1412(4) 0.62067(12) 0.15575(11)
O4 O 0.2622(4) 0.84441(10) 0.09467(10)
C7 C 0.3250(5) 0.81519(14) 0.22541(14)
C8 C -0.0620(4) 0.64828(14) 0.16274(12)
H5 H -0.1178 0.6811 0.1323
C9 C 0.2205(5) 0.57051(13) 0.20122(12)
H6 H 0.3564 0.5511 0.1966
C10 C 0.1000(7) 0.54938(17) 0.25279(14)
H7 H 0.1548 0.5160 0.2830
C11 C 0.4853(7) 0.8768(2) 0.21767(18)
H8 H 0.6232 0.8547 0.2132
H9 H 0.4828 0.9091 0.2546
H10 H 0.4528 0.9060 0.1802
C12 C -0.1005(7) 0.57727(19) 0.25995(15)
H11 H -0.1815 0.5627 0.2950
C13 C 0.3684(8) 0.76591(19) 0.28242(16)
H12 H 0.2703 0.7243 0.2830
H13 H 0.3525 0.7953 0.3208
H14 H 0.5100 0.7466 0.2800
C14 C 0.2407(7) 0.3751(2) 0.09681(16)
H15 H 0.3867 0.3713 0.0847
H16 H 0.1756 0.3260 0.0939
H17 H 0.2310 0.3933 0.1400
C15 C -0.1833(5) 0.62712(18) 0.21525(15)
H18 H -0.3192 0.6463 0.2203
C16 C -0.1638(6) 0.4631(2) 0.0740(2)
H19 H -0.1515 0.4907 0.1134
H20 H -0.2382 0.4165 0.0815
H21 H -0.2401 0.4932 0.0435
C17 C 0.1010(7) 0.8444(2) 0.2284(2)
H22 H 0.0691 0.8718 0.1900
H23 H 0.0859 0.8775 0.2646
H24 H 0.0053 0.8024 0.2327
C18 C 0.0954(6) 0.40060(18) -0.04077(16)
C19 C -0.0325(9) 0.3263(3) -0.0396(3)
H25 H -0.1699 0.3358 -0.0219
H26 H 0.0399 0.2894 -0.0138
H27 H -0.0472 0.3072 -0.0823
C20 C 0.3219(7) 0.3835(3) -0.0624(2)
H28 H 0.3186 0.3567 -0.1024
H29 H 0.3911 0.3528 -0.0308
H30 H 0.3980 0.4302 -0.0676
C21 C -0.0120(10) 0.4574(3) -0.0849(2)
H31 H -0.0345 0.4345 -0.1260
H32 H 0.0763 0.5014 -0.0896
H33 H -0.1455 0.4722 -0.0670
loop_
_geom_bond_atom_site_label_1
_geom_bond_atom_site_label_2
_geom_bond_site_symmetry_1
_geom_bond_site_symmetry_2
Si1 O1 1_555 1_555
O1 C5 1_555 1_555
N1 C1 1_555 1_555
C1 O2 1_555 1_555
O2 C7 1_555 1_555
C2 N1 1_555 1_555
H1 C2 1_555 1_555
C3 N1 1_555 1_555
O3 C3 1_555 1_555
C4 C3 1_555 1_555
H2 C4 1_555 1_555
H3 C4 1_555 1_555
C5 C2 1_555 1_555
H4 C5 1_555 1_555
C6 C2 1_555 1_555
O4 C1 1_555 1_555
C7 C11 1_555 1_555
C8 C6 1_555 1_555
H5 C8 1_555 1_555
C9 C6 1_555 1_555
H6 C9 1_555 1_555
C10 C9 1_555 1_555
H7 C10 1_555 1_555
C11 H8 1_555 1_555
H9 C11 1_555 1_555
H10 C11 1_555 1_555
C12 C10 1_555 1_555
H11 C12 1_555 1_555
C13 C7 1_555 1_555
H12 C13 1_555 1_555
H13 C13 1_555 1_555
H14 C13 1_555 1_555
C14 Si1 1_555 1_555
H15 C14 1_555 1_555
H16 C14 1_555 1_555
H17 C14 1_555 1_555
C15 C8 1_555 1_555
H18 C15 1_555 1_555
C16 Si1 1_555 1_555
H19 C16 1_555 1_555
H20 C16 1_555 1_555
H21 C16 1_555 1_555
C17 C7 1_555 1_555
H22 C17 1_555 1_555
H23 C17 1_555 1_555
H24 C17 1_555 1_555
C18 Si1 1_555 1_555
C19 C18 1_555 1_555
H25 C19 1_555 1_555
H26 C19 1_555 1_555
H27 C19 1_555 1_555
C20 C18 1_555 1_555
H28 C20 1_555 1_555
H29 C20 1_555 1_555
H30 C20 1_555 1_555
C21 C18 1_555 1_555
H31 C21 1_555 1_555
H32 C21 1_555 1_555
H33 C21 1_555 1_555
C4 C5 1_555 1_555
C12 C15 1_555 1_555

#END
