
#######################################################################
#
#                 Cambridge Crystallographic Data Centre
#                                CCDC 
#
#######################################################################
#
# If this CIF has been generated from an entry in the Cambridge 
# Structural Database, then it will include bibliographic, chemical, 
# crystal, experimental, refinement or atomic coordinate data resulting 
# from the CCDC's data processing and validation procedures.
#
#######################################################################

data_FUWSEW
_chemical_formula_moiety         'C23 H23 N1 O1'
_chemical_name_systematic        
11-Methyl-13-phenyl-1,3,4,13b-tetrahydro-2H,10H-furo[3,4-c]pyrido[1,2-a][1]benzazepine
_symmetry_cell_setting           monoclinic
_symmetry_space_group_name_H-M   'P 21/c'
_symmetry_Int_Tables_number      14
_space_group_name_Hall           '-P 2ybc'
loop_
_symmetry_equiv_pos_site_id
_symmetry_equiv_pos_as_xyz
1 x,y,z
2 -x,1/2+y,1/2-z
3 -x,-y,-z
4 x,1/2-y,1/2+z
_cell_length_a                   11.7910(3)
_cell_length_b                   16.6191(5)
_cell_length_c                   8.9716(3)
_cell_angle_alpha                90
_cell_angle_beta                 91.6170(10)
_cell_angle_gamma                90
_cell_volume                     1757.34
_exptl_crystal_colour            colorless
_exptl_crystal_description       block
_chemical_melting_point          '149-150 deg.C'
_cell_formula_units_Z            4
loop_
_atom_site_label
_atom_site_type_symbol
_atom_site_fract_x
_atom_site_fract_y
_atom_site_fract_z
O1 O 0.15358(9) 0.20093(6) 0.74762(12)
N1 N 0.35663(10) 0.43768(8) 0.85608(14)
C1 C 0.57206(13) 0.28029(11) 0.79479(18)
H1 H 0.5907 0.2295 0.8312
C2 C 0.63940(14) 0.31528(12) 0.6884(2)
H2 H 0.7032 0.2886 0.6549
C3 C 0.61066(14) 0.38998(12) 0.63315(19)
H3 H 0.6551 0.4138 0.5614
C4 C 0.51605(13) 0.42986(10) 0.68367(18)
H4 H 0.4973 0.4802 0.6449
C5 C 0.44875(12) 0.39572(9) 0.79164(16)
C6 C 0.47770(12) 0.31934(9) 0.84791(16)
C7 C 0.40105(13) 0.28056(10) 0.95836(17)
H5 H 0.4347 0.2312 0.9966
H6 H 0.3888 0.3166 1.0415
C8 C 0.29108(12) 0.26303(9) 0.87738(16)
C9 C 0.22348(12) 0.32281(9) 0.80129(15)
C10 C 0.23915(12) 0.41229(9) 0.81627(16)
H7 H 0.2175 0.4371 0.7206
C11 C 0.16087(14) 0.44553(10) 0.93496(19)
H8 H 0.0833 0.4300 0.9104
H9 H 0.1817 0.4220 1.0308
C12 C 0.16774(15) 0.53643(10) 0.9465(2)
H10 H 0.1351 0.5605 0.8567
H11 H 0.1243 0.5546 1.0304
C13 C 0.29004(16) 0.56316(11) 0.9673(2)
H12 H 0.2940 0.6213 0.9592
H13 H 0.3176 0.5482 1.0663
C14 C 0.36507(14) 0.52550(9) 0.8524(2)
H14 H 0.3425 0.5448 0.7539
H15 H 0.4432 0.5415 0.8721
C15 C 0.24665(13) 0.19101(9) 0.84058(17)
C16 C 0.14003(12) 0.28221(9) 0.72417(16)
C17 C 0.04475(12) 0.30238(9) 0.62344(16)
C18 C -0.01154(13) 0.24098(10) 0.54511(18)
H16 H 0.0110 0.1879 0.5602
C19 C -0.09983(14) 0.25747(11) 0.44580(19)
H17 H -0.1358 0.2156 0.3946
C20 C -0.13499(14) 0.33526(11) 0.4218(2)
H18 H -0.1938 0.3463 0.3536
C21 C -0.08231(15) 0.39653(11) 0.4998(2)
H19 H -0.1063 0.4493 0.4850
C22 C 0.00612(14) 0.38058(10) 0.6001(2)
H20 H 0.0402 0.4228 0.6528
C23 C 0.27839(17) 0.10673(10) 0.8757(2)
H21 H 0.2249 0.0709 0.8280
H22 H 0.2780 0.0987 0.9816
H23 H 0.3529 0.0960 0.8402
loop_
_geom_bond_atom_site_label_1
_geom_bond_atom_site_label_2
_geom_bond_site_symmetry_1
_geom_bond_site_symmetry_2
O1 C15 1_555 1_555
N1 C5 1_555 1_555
C1 H1 1_555 1_555
C2 C1 1_555 1_555
H2 C2 1_555 1_555
C3 C2 1_555 1_555
H3 C3 1_555 1_555
C4 C3 1_555 1_555
H4 C4 1_555 1_555
C5 C4 1_555 1_555
C6 C1 1_555 1_555
C7 C6 1_555 1_555
H5 C7 1_555 1_555
H6 C7 1_555 1_555
C8 C7 1_555 1_555
C9 C8 1_555 1_555
C10 N1 1_555 1_555
H7 C10 1_555 1_555
C11 C10 1_555 1_555
H8 C11 1_555 1_555
H9 C11 1_555 1_555
C12 C11 1_555 1_555
H10 C12 1_555 1_555
H11 C12 1_555 1_555
C13 C12 1_555 1_555
H12 C13 1_555 1_555
H13 C13 1_555 1_555
C14 N1 1_555 1_555
H14 C14 1_555 1_555
H15 C14 1_555 1_555
C15 C8 1_555 1_555
C16 O1 1_555 1_555
C17 C16 1_555 1_555
C18 C17 1_555 1_555
H16 C18 1_555 1_555
C19 C18 1_555 1_555
H17 C19 1_555 1_555
C20 C19 1_555 1_555
H18 C20 1_555 1_555
C21 C20 1_555 1_555
H19 C21 1_555 1_555
C22 C17 1_555 1_555
H20 C22 1_555 1_555
C23 C15 1_555 1_555
H21 C23 1_555 1_555
H22 C23 1_555 1_555
H23 C23 1_555 1_555
C5 C6 1_555 1_555
C9 C10 1_555 1_555
C9 C16 1_555 1_555
C13 C14 1_555 1_555
C21 C22 1_555 1_555

#END
