
#######################################################################
#
#                 Cambridge Crystallographic Data Centre
#                                CCDC 
#
#######################################################################
#
# If this CIF has been generated from an entry in the Cambridge 
# Structural Database, then it will include bibliographic, chemical, 
# crystal, experimental, refinement or atomic coordinate data resulting 
# from the CCDC's data processing and validation procedures.
#
#######################################################################

data_FUWWOL01
_chemical_formula_moiety         'C12 H24 O6,C12 H20 N1 1+,B1 F4 1-'
_chemical_name_systematic        
'18-Crown-6 2,6-di-isopropylanilinium tetrafluoroborate'
_symmetry_cell_setting           orthorhombic
_symmetry_space_group_name_H-M   'P b c n'
_symmetry_Int_Tables_number      60
_space_group_name_Hall           '-P 2n 2ab'
loop_
_symmetry_equiv_pos_site_id
_symmetry_equiv_pos_as_xyz
1 x,y,z
2 1/2-x,1/2-y,1/2+z
3 -x,y,1/2-z
4 1/2+x,1/2-y,-z
5 -x,-y,-z
6 1/2+x,1/2+y,1/2-z
7 x,-y,1/2+z
8 1/2-x,1/2+y,z
_cell_length_a                   16.868(5)
_cell_length_b                   17.468(5)
_cell_length_c                   18.823(5)
_cell_angle_alpha                90
_cell_angle_beta                 90
_cell_angle_gamma                90
_cell_volume                     5546.2
_exptl_crystal_colour            colorless
_exptl_crystal_description       block
_cell_formula_units_Z            8
loop_
_atom_site_label
_atom_site_type_symbol
_atom_site_fract_x
_atom_site_fract_y
_atom_site_fract_z
O1 O 0.14376(9) -0.11155(10) 0.45872(10)
O2 O 0.17835(10) 0.03183(10) 0.40260(9)
O3 O 0.33256(9) 0.09123(9) 0.41941(9)
O4 O 0.40920(9) 0.05910(9) 0.55186(8)
O5 O 0.26241(10) 0.06234(9) 0.63054(9)
O6 O 0.15254(9) -0.04958(10) 0.59140(9)
C1 C 0.44802(14) 0.09225(14) 0.49176(13)
H1 H 0.4712 0.0507 0.4626
H2 H 0.4921 0.1249 0.5087
C2 C 0.39412(15) 0.13950(13) 0.44592(14)
H3 H 0.3710 0.1819 0.4741
H4 H 0.4244 0.1619 0.4059
C3 C 0.27019(16) 0.13444(14) 0.38778(14)
H5 H 0.2924 0.1712 0.3530
H6 H 0.2416 0.1638 0.4248
C4 C 0.21411(16) 0.08081(15) 0.35116(14)
H7 H 0.1727 0.1104 0.3260
H8 H 0.2432 0.0498 0.3157
C5 C 0.12035(15) -0.01750(18) 0.37102(15)
H9 H 0.1458 -0.0513 0.3355
H10 H 0.0793 0.0134 0.3466
C6 C 0.08331(15) -0.06449(17) 0.42847(16)
H11 H 0.0602 -0.0308 0.4653
H12 H 0.0405 -0.0968 0.4086
C7 C 0.11917(15) -0.15507(14) 0.51876(16)
H13 H 0.1634 -0.1888 0.5335
H14 H 0.0744 -0.1883 0.5045
C8 C 0.09402(15) -0.10752(15) 0.58153(15)
H15 H 0.0416 -0.0840 0.5725
H16 H 0.0900 -0.1399 0.6245
C9 C 0.13867(15) 0.00026(16) 0.65031(14)
H17 H 0.1602 -0.0227 0.6944
H18 H 0.0810 0.0084 0.6567
C10 C 0.17885(15) 0.07492(15) 0.63553(14)
H19 H 0.1588 0.0968 0.5904
H20 H 0.1674 0.1117 0.6742
C11 C 0.39116(16) 0.11184(14) 0.60820(14)
H21 H 0.4212 0.1598 0.6006
H22 H 0.4086 0.0896 0.6540
C12 C 0.30467(17) 0.13012(14) 0.61248(15)
H23 H 0.2955 0.1700 0.6490
H24 H 0.2858 0.1499 0.5662
N1 N 0.29041(10) -0.04531(9) 0.50607(9)
H25 H 0.2682 -0.0256 0.4685
H26 H 0.3235 -0.0088 0.5230
H27 H 0.2514 -0.0472 0.5392
C13 C 0.35262(12) -0.15640(11) 0.56409(12)
C14 C 0.38968(13) -0.22790(12) 0.55822(13)
H28 H 0.4050 -0.2546 0.6000
C15 C 0.40424(13) -0.26006(12) 0.49256(13)
H29 H 0.4285 -0.3090 0.4896
C16 C 0.38372(13) -0.22154(12) 0.43079(12)
H30 H 0.3954 -0.2440 0.3860
C17 C 0.34617(12) -0.15031(12) 0.43334(11)
C18 C 0.33105(11) -0.11977(11) 0.50063(11)
C19 C 0.32589(8) -0.10985(7) 0.36413(6)
H31 H 0.2919 -0.0647 0.3760
C20 C 0.40099(8) -0.08011(7) 0.32792(6)
H32 H 0.4303 -0.0473 0.3610
H33 H 0.3864 -0.0505 0.2856
H34 H 0.4344 -0.1235 0.3139
C21 C 0.27885(8) -0.16137(7) 0.31375(6)
H35 H 0.2310 -0.1798 0.3379
H36 H 0.3117 -0.2051 0.2997
H37 H 0.2637 -0.1322 0.2714
C22 C 0.33817(8) -0.12292(7) 0.63750(6)
H38 H 0.3098 -0.0731 0.6315
C23 C 0.41588(17) -0.10709(16) 0.67659(14)
H39 H 0.4490 -0.0729 0.6479
H40 H 0.4440 -0.1554 0.6846
H41 H 0.4045 -0.0828 0.7224
C24 C 0.28495(16) -0.17618(15) 0.68180(14)
H42 H 0.2354 -0.1857 0.6561
H43 H 0.2732 -0.1520 0.7276
H44 H 0.3124 -0.2249 0.6899
B1 B 0.5000 0.7040(2) 0.2500
F1 F 0.45439(13) 0.66027(14) 0.29176(12)
F2 F 0.54589(15) 0.74926(12) 0.29261(12)
F1B F 0.54561(13) 0.66027(14) 0.20824(12)
F2B F 0.45411(15) 0.74926(12) 0.20739(12)
B2? B 0.5000 0.6705(3) 0.7500
F3? F 0.5000 0.59094(16) 0.7500
F4? F 0.5359(6) 0.6846(3) 0.8071(5)
F5? F 0.4227(3) 0.6937(3) 0.7533(6)
F6? F 0.5326(8) 0.7086(4) 0.6924(5)
loop_
_geom_bond_atom_site_label_1
_geom_bond_atom_site_label_2
_geom_bond_site_symmetry_1
_geom_bond_site_symmetry_2
O1 C6 1_555 1_555
O2 C4 1_555 1_555
O3 C2 1_555 1_555
O4 C1 1_555 1_555
O5 C10 1_555 1_555
O6 C8 1_555 1_555
C1 H1 1_555 1_555
H2 C1 1_555 1_555
C2 C1 1_555 1_555
H3 C2 1_555 1_555
H4 C2 1_555 1_555
C3 O3 1_555 1_555
H5 C3 1_555 1_555
H6 C3 1_555 1_555
C4 C3 1_555 1_555
H7 C4 1_555 1_555
H8 C4 1_555 1_555
C5 O2 1_555 1_555
H9 C5 1_555 1_555
H10 C5 1_555 1_555
C6 C5 1_555 1_555
H11 C6 1_555 1_555
H12 C6 1_555 1_555
C7 O1 1_555 1_555
H13 C7 1_555 1_555
H14 C7 1_555 1_555
C8 C7 1_555 1_555
H15 C8 1_555 1_555
H16 C8 1_555 1_555
C9 O6 1_555 1_555
H17 C9 1_555 1_555
H18 C9 1_555 1_555
C10 C9 1_555 1_555
H19 C10 1_555 1_555
H20 C10 1_555 1_555
C11 O4 1_555 1_555
H21 C11 1_555 1_555
H22 C11 1_555 1_555
C12 O5 1_555 1_555
H23 C12 1_555 1_555
H24 C12 1_555 1_555
N1 H25 1_555 1_555
H26 N1 1_555 1_555
H27 N1 1_555 1_555
C13 C14 1_555 1_555
C14 H28 1_555 1_555
C15 C14 1_555 1_555
H29 C15 1_555 1_555
C16 C15 1_555 1_555
H30 C16 1_555 1_555
C17 C16 1_555 1_555
C18 N1 1_555 1_555
C19 C17 1_555 1_555
H31 C19 1_555 1_555
C20 C19 1_555 1_555
H32 C20 1_555 1_555
H33 C20 1_555 1_555
H34 C20 1_555 1_555
C21 C19 1_555 1_555
H35 C21 1_555 1_555
H36 C21 1_555 1_555
H37 C21 1_555 1_555
C22 C13 1_555 1_555
H38 C22 1_555 1_555
C23 C22 1_555 1_555
H39 C23 1_555 1_555
H40 C23 1_555 1_555
H41 C23 1_555 1_555
C24 C22 1_555 1_555
H42 C24 1_555 1_555
H43 C24 1_555 1_555
H44 C24 1_555 1_555
B1 F1 1_555 1_555
F2 B1 1_555 1_555
F1B B1 1_555 1_555
F2B B1 1_555 1_555
C11 C12 1_555 1_555
C13 C18 1_555 1_555
C17 C18 1_555 1_555

#END
