
#######################################################################
#
#                 Cambridge Crystallographic Data Centre
#                                CCDC 
#
#######################################################################
#
# If this CIF has been generated from an entry in the Cambridge 
# Structural Database, then it will include bibliographic, chemical, 
# crystal, experimental, refinement or atomic coordinate data resulting 
# from the CCDC's data processing and validation procedures.
#
#######################################################################

data_FUXYII
_chemical_formula_moiety         'C23 H28 N2 O3 Si1'
_chemical_name_systematic        
(5-benzyl-3-(diethylsilyl)-3,4-dihydropyridin-1(2H)-yl)(4-nitrophenyl)methanone
_symmetry_cell_setting           monoclinic
_symmetry_space_group_name_H-M   'P 21/n'
_symmetry_Int_Tables_number      14
_space_group_name_Hall           '-P 2yn'
loop_
_symmetry_equiv_pos_site_id
_symmetry_equiv_pos_as_xyz
1 x,y,z
2 1/2-x,1/2+y,1/2-z
3 -x,-y,-z
4 1/2+x,1/2-y,1/2+z
_cell_length_a                   15.5047(7)
_cell_length_b                   9.1321(3)
_cell_length_c                   16.5055(6)
_cell_angle_alpha                90
_cell_angle_beta                 110.4850(17)
_cell_angle_gamma                90
_cell_volume                     2189.24
_exptl_crystal_colour            yellow
_exptl_crystal_description       Block
_cell_formula_units_Z            4
loop_
_atom_site_label
_atom_site_type_symbol
_atom_site_fract_x
_atom_site_fract_y
_atom_site_fract_z
N1 N 0.36174(9) 1.05850(14) 0.91493(8)
C1 C 0.39635(11) 0.92199(17) 0.89970(10)
H1 H 0.4166 0.9139 0.8524
C2 C 0.40179(11) 0.80451(17) 0.94886(10)
C3 C 0.36923(13) 0.80775(19) 1.02449(11)
H2 H 0.4229 0.8091 1.0781
H3 H 0.3345 0.7180 1.0243
C4 C 0.30814(12) 0.94056(18) 1.02355(11)
H4 H 0.2473 0.9233 0.9783
C5 C 0.34884(12) 1.07717(18) 0.99856(10)
H5 H 0.3078 1.1604 0.9950
H6 H 0.4083 1.0988 1.0434
C6 C 0.44302(13) 0.66065(18) 0.93571(11)
H7 H 0.4961 0.6405 0.9881
H8 H 0.3974 0.5838 0.9312
C7 C 0.47423(12) 0.64545(17) 0.85922(11)
C8 C 0.41478(15) 0.6714(2) 0.77522(12)
H9 H 0.3540 0.7015 0.7657
C9 C 0.44359(19) 0.6536(3) 0.70596(14)
H10 H 0.4030 0.6741 0.6497
C10 C 0.5317(2) 0.6056(3) 0.71839(18)
H11 H 0.5511 0.5932 0.6709
C11 C 0.59088(18) 0.5763(3) 0.80072(19)
H12 H 0.6506 0.5418 0.8095
C12 C 0.56291(14) 0.5973(2) 0.87096(14)
H13 H 0.6043 0.5787 0.9271
Si1 Si 0.28942(4) 0.96549(6) 1.13001(3)
H14 H 0.2626 0.8744 1.1436
C13 C 0.40117(15) 1.0019(3) 1.21818(12)
H15 H 0.4443 0.9231 1.2189
H16 H 0.4268 1.0935 1.2055
C14 C 0.39390(19) 1.0136(3) 1.30792(14)
H17 H 0.3505 1.0903 1.3077
H18 H 0.4539 1.0369 1.3501
H19 H 0.3727 0.9211 1.3229
C15 C 0.20803(15) 1.1206(3) 1.12269(14)
H20 H 0.1941 1.1231 1.1762
H21 H 0.2393 1.2124 1.1194
C16 C 0.11914(18) 1.1150(4) 1.04792(17)
H22 H 0.1312 1.1248 0.9943
H23 H 0.0796 1.1944 1.0527
H24 H 0.0889 1.0221 1.0482
C17 C 0.35159(11) 1.17725(17) 0.86306(10)
O1 O 0.33888(10) 1.30045(13) 0.88668(8)
C18 C 0.35477(11) 1.15767(17) 0.77380(10)
C19 C 0.30736(11) 1.04595(18) 0.71882(11)
H25 H 0.2740 0.9770 0.7383
C20 C 0.30890(12) 1.03567(19) 0.63605(11)
H26 H 0.2766 0.9608 0.5986
C21 C 0.35888(12) 1.1376(2) 0.60943(11)
C22 C 0.40507(12) 1.2520(2) 0.66149(11)
H27 H 0.4378 1.3210 0.6413
C23 C 0.40190(12) 1.26232(18) 0.74394(11)
H28 H 0.4317 1.3403 0.7801
N2 N 0.36194(12) 1.1239(2) 0.52167(11)
O2 O 0.31559(15) 1.0293(2) 0.47477(11)
O3 O 0.40874(13) 1.2111(2) 0.49938(10)
loop_
_geom_bond_atom_site_label_1
_geom_bond_atom_site_label_2
_geom_bond_site_symmetry_1
_geom_bond_site_symmetry_2
N1 C1 1_555 1_555
C1 H1 1_555 1_555
C2 C1 1_555 1_555
C3 C2 1_555 1_555
H2 C3 1_555 1_555
H3 C3 1_555 1_555
C4 C3 1_555 1_555
H4 C4 1_555 1_555
C5 N1 1_555 1_555
H5 C5 1_555 1_555
H6 C5 1_555 1_555
C6 C2 1_555 1_555
H7 C6 1_555 1_555
H8 C6 1_555 1_555
C7 C6 1_555 1_555
C8 C7 1_555 1_555
H9 C8 1_555 1_555
C9 C8 1_555 1_555
H10 C9 1_555 1_555
C10 C9 1_555 1_555
H11 C10 1_555 1_555
C11 C10 1_555 1_555
H12 C11 1_555 1_555
C12 C7 1_555 1_555
H13 C12 1_555 1_555
Si1 C4 1_555 1_555
H14 Si1 1_555 1_555
C13 Si1 1_555 1_555
H15 C13 1_555 1_555
H16 C13 1_555 1_555
C14 C13 1_555 1_555
H17 C14 1_555 1_555
H18 C14 1_555 1_555
H19 C14 1_555 1_555
C15 Si1 1_555 1_555
H20 C15 1_555 1_555
H21 C15 1_555 1_555
C16 C15 1_555 1_555
H22 C16 1_555 1_555
H23 C16 1_555 1_555
H24 C16 1_555 1_555
C17 N1 1_555 1_555
O1 C17 1_555 1_555
C18 C17 1_555 1_555
C19 C18 1_555 1_555
H25 C19 1_555 1_555
C20 C19 1_555 1_555
H26 C20 1_555 1_555
C21 C20 1_555 1_555
C22 C21 1_555 1_555
H27 C22 1_555 1_555
C23 C18 1_555 1_555
H28 C23 1_555 1_555
N2 C21 1_555 1_555
O2 N2 1_555 1_555
O3 N2 1_555 1_555
C4 C5 1_555 1_555
C11 C12 1_555 1_555
C22 C23 1_555 1_555

#END
