
#######################################################################
#
#                 Cambridge Crystallographic Data Centre
#                                CCDC 
#
#######################################################################
#
# If this CIF has been generated from an entry in the Cambridge 
# Structural Database, then it will include bibliographic, chemical, 
# crystal, experimental, refinement or atomic coordinate data resulting 
# from the CCDC's data processing and validation procedures.
#
#######################################################################

data_FUYLER
_chemical_formula_moiety         'C32 H25 N1 O3,C1 H1 Cl3'
_chemical_name_systematic        
'(1-(4-Methoxyphenyl)-4-phenyl-1,4-dihydropyridine-3,5-diyl)bis(phenylmethanone) chloroform solvate'
_symmetry_cell_setting           monoclinic
_symmetry_space_group_name_H-M   'P 21/c'
_symmetry_Int_Tables_number      14
_space_group_name_Hall           '-P 2ybc'
loop_
_symmetry_equiv_pos_site_id
_symmetry_equiv_pos_as_xyz
1 x,y,z
2 -x,1/2+y,1/2-z
3 -x,-y,-z
4 x,1/2-y,1/2+z
_cell_length_a                   9.9516(14)
_cell_length_b                   27.124(4)
_cell_length_c                   11.4554(16)
_cell_angle_alpha                90
_cell_angle_beta                 107.955(3)
_cell_angle_gamma                90
_cell_volume                     2941.53
_exptl_crystal_colour            green
_exptl_crystal_description       prismatic
_cell_formula_units_Z            4
loop_
_atom_site_label
_atom_site_type_symbol
_atom_site_fract_x
_atom_site_fract_y
_atom_site_fract_z
Cl1 Cl 0.8151(2) 1.00197(5) 0.87588(14)
Cl2 Cl 0.9180(2) 0.90419(6) 0.87277(15)
Cl3 Cl 0.65045(16) 0.91892(9) 0.90574(18)
C33 C 0.8182(4) 0.94258(16) 0.9334(4)
H26 H 0.8630 0.9440 1.0224
N1 N 0.0654(2) 0.21410(8) 0.5243(2)
O1 O 0.0536(2) 0.08412(9) 0.7892(2)
O2 O -0.1857(2) 0.24642(8) 0.80052(19)
O3 O 0.3893(2) 0.29543(8) 0.2524(2)
C1 C 0.0908(3) 0.16659(10) 0.5677(2)
H1 H 0.1581 0.1483 0.5454
C2 C 0.0250(3) 0.14487(10) 0.6401(2)
C3 C -0.0863(3) 0.17142(10) 0.6797(3)
H2 H -0.0606 0.1693 0.7693
C4 C -0.0910(3) 0.22508(10) 0.6453(2)
C5 C -0.0237(3) 0.24268(10) 0.5689(2)
H3 H -0.0374 0.2755 0.5447
C6 C 0.0729(3) 0.09671(11) 0.6938(3)
C7 C 0.1447(3) 0.06246(11) 0.6304(3)
C8 C 0.2555(4) 0.03383(14) 0.6992(4)
H4 H 0.2870 0.0373 0.7841
C9 C 0.3206(5) -0.00017(17) 0.6432(7)
H5 H 0.3976 -0.0186 0.6891
C10 C 0.2673(6) -0.00575(18) 0.5168(7)
H6 H 0.3091 -0.0288 0.4788
C11 C 0.1558(6) 0.02126(17) 0.4458(5)
H7 H 0.1211 0.0164 0.3615
C12 C 0.0966(4) 0.05585(12) 0.5033(4)
H8 H 0.0227 0.0753 0.4563
C13 C -0.1638(3) 0.25840(11) 0.7059(3)
C14 C -0.2131(3) 0.30806(11) 0.6523(3)
C15 C -0.2941(3) 0.31339(14) 0.5305(3)
H9 H -0.3098 0.2864 0.4779
C16 C -0.3513(4) 0.35850(17) 0.4874(4)
H10 H -0.4093 0.3619 0.4069
C17 C -0.3213(5) 0.39890(16) 0.5655(5)
H11 H -0.3581 0.4297 0.5367
C18 C -0.2382(5) 0.39376(16) 0.6845(5)
H12 H -0.2165 0.4211 0.7358
C19 C -0.1870(4) 0.34836(13) 0.7282(3)
H13 H -0.1339 0.3448 0.8102
C20 C -0.2317(3) 0.14792(11) 0.6256(3)
C21 C -0.2905(4) 0.11983(12) 0.6973(3)
H14 H -0.2400 0.1149 0.7795
C22 C -0.4212(4) 0.09909(15) 0.6508(5)
H15 H -0.4583 0.0799 0.7007
C23 C -0.4968(4) 0.10660(15) 0.5316(5)
H16 H -0.5869 0.0932 0.5007
C24 C -0.4411(4) 0.13392(15) 0.4558(4)
H17 H -0.4919 0.1380 0.3734
C25 C -0.3074(3) 0.15543(13) 0.5041(3)
H18 H -0.2700 0.1747 0.4544
C26 C 0.1440(3) 0.23481(10) 0.4502(2)
C27 C 0.1767(3) 0.28443(11) 0.4558(3)
H19 H 0.1439 0.3053 0.5054
C28 C 0.2584(3) 0.30331(11) 0.3874(3)
H20 H 0.2788 0.3368 0.3910
C29 C 0.3097(3) 0.27314(11) 0.3144(3)
C30 C 0.2753(3) 0.22369(12) 0.3075(3)
H21 H 0.3084 0.2029 0.2579
C31 C 0.1919(3) 0.20493(11) 0.3736(3)
H22 H 0.1677 0.1717 0.3666
C32 C 0.4727(3) 0.26536(14) 0.2005(3)
H23 H 0.5278 0.2430 0.2617
H24 H 0.5347 0.2858 0.1717
H25 H 0.4123 0.2469 0.1331
loop_
_geom_bond_atom_site_label_1
_geom_bond_atom_site_label_2
_geom_bond_site_symmetry_1
_geom_bond_site_symmetry_2
Cl1 C33 1_555 1_555
Cl2 C33 1_555 1_555
Cl3 C33 1_555 1_555
N1 C1 1_555 1_555
O1 C6 1_555 1_555
O2 C13 1_555 1_555
O3 C29 1_555 1_555
C1 H1 1_555 1_555
C2 C1 1_555 1_555
C3 C2 1_555 1_555
H2 C3 1_555 1_555
C4 C3 1_555 1_555
C5 N1 1_555 1_555
H3 C5 1_555 1_555
C6 C2 1_555 1_555
C7 C6 1_555 1_555
C8 C7 1_555 1_555
H4 C8 1_555 1_555
C9 C8 1_555 1_555
H5 C9 1_555 1_555
C10 C9 1_555 1_555
H6 C10 1_555 1_555
C11 C10 1_555 1_555
H7 C11 1_555 1_555
C12 C7 1_555 1_555
H8 C12 1_555 1_555
C13 C4 1_555 1_555
C14 C13 1_555 1_555
C15 C14 1_555 1_555
H9 C15 1_555 1_555
C16 C15 1_555 1_555
H10 C16 1_555 1_555
C17 C16 1_555 1_555
H11 C17 1_555 1_555
C18 C17 1_555 1_555
H12 C18 1_555 1_555
C19 C14 1_555 1_555
H13 C19 1_555 1_555
C20 C3 1_555 1_555
C21 C20 1_555 1_555
H14 C21 1_555 1_555
C22 C21 1_555 1_555
H15 C22 1_555 1_555
C23 C22 1_555 1_555
H16 C23 1_555 1_555
C24 C23 1_555 1_555
H17 C24 1_555 1_555
C25 C20 1_555 1_555
H18 C25 1_555 1_555
C26 N1 1_555 1_555
C27 C26 1_555 1_555
H19 C27 1_555 1_555
C28 C27 1_555 1_555
H20 C28 1_555 1_555
C29 C28 1_555 1_555
C30 C29 1_555 1_555
H21 C30 1_555 1_555
C31 C26 1_555 1_555
H22 C31 1_555 1_555
C32 O3 1_555 1_555
H23 C32 1_555 1_555
H24 C32 1_555 1_555
H25 C32 1_555 1_555
C33 H26 1_555 1_555
C4 C5 1_555 1_555
C11 C12 1_555 1_555
C18 C19 1_555 1_555
C24 C25 1_555 1_555
C30 C31 1_555 1_555

#END
