
#######################################################################
#
#                 Cambridge Crystallographic Data Centre
#                                CCDC 
#
#######################################################################
#
# If this CIF has been generated from an entry in the Cambridge 
# Structural Database, then it will include bibliographic, chemical, 
# crystal, experimental, refinement or atomic coordinate data resulting 
# from the CCDC's data processing and validation procedures.
#
#######################################################################

data_FUYMAO
_chemical_formula_moiety         'C23 H15 F1 O1'
_chemical_name_systematic        
(2-(4-Fluorophenyl)-1-naphthyl)(phenyl)methanone
_symmetry_cell_setting           monoclinic
_symmetry_space_group_name_H-M   'P 21/n'
_symmetry_Int_Tables_number      14
_space_group_name_Hall           '-P 2yn'
loop_
_symmetry_equiv_pos_site_id
_symmetry_equiv_pos_as_xyz
1 x,y,z
2 1/2-x,1/2+y,1/2-z
3 -x,-y,-z
4 1/2+x,1/2-y,1/2+z
_cell_length_a                   10.277(5)
_cell_length_b                   12.573(6)
_cell_length_c                   12.986(6)
_cell_angle_alpha                90
_cell_angle_beta                 90.00
_cell_angle_gamma                90
_cell_volume                     1677.96
_exptl_crystal_colour            colorless
_exptl_crystal_description       block
_cell_formula_units_Z            4
loop_
_atom_site_label
_atom_site_type_symbol
_atom_site_fract_x
_atom_site_fract_y
_atom_site_fract_z
F1 F 0.3393(2) 0.11054(19) 0.33530(15)
O1 O 0.2076(2) 0.36371(19) 0.76214(17)
C1 C 0.3468(4) 0.5194(3) 0.6525(3)
H1 H 0.2566 0.5254 0.6540
C2 C 0.4187(5) 0.5948(3) 0.6034(3)
H2 H 0.3776 0.6516 0.5709
C3 C 0.5526(5) 0.5869(3) 0.6020(3)
H3 H 0.6018 0.6383 0.5682
C4 C 0.6135(4) 0.5032(3) 0.6504(3)
H4 H 0.7038 0.4985 0.6501
C5 C 0.5405(3) 0.4266(3) 0.6994(3)
H5 H 0.5818 0.3700 0.7319
C6 C 0.4062(3) 0.4334(2) 0.7006(2)
C7 C 0.3250(3) 0.3545(2) 0.7555(2)
C8 C 0.3934(3) 0.2638(2) 0.8089(2)
C9 C 0.4119(3) 0.2712(2) 0.9178(2)
C10 C 0.3659(3) 0.3585(3) 0.9764(2)
H6 H 0.3229 0.4142 0.9437
C11 C 0.3843(4) 0.3613(3) 1.0805(3)
H7 H 0.3544 0.4195 1.1179
C12 C 0.4473(4) 0.2784(4) 1.1318(3)
H8 H 0.4563 0.2802 1.2030
C13 C 0.4951(4) 0.1954(3) 1.0775(3)
H9 H 0.5384 0.1410 1.1120
C14 C 0.4807(3) 0.1894(3) 0.9695(2)
C15 C 0.5330(3) 0.1059(3) 0.9106(3)
H10 H 0.5816 0.0534 0.9432
C16 C 0.5142(3) 0.1001(3) 0.8071(3)
H11 H 0.5500 0.0437 0.7704
C17 C 0.4412(3) 0.1784(2) 0.7544(2)
C18 C 0.4149(3) 0.1644(2) 0.6421(2)
C19 C 0.5152(3) 0.1512(3) 0.5712(3)
H12 H 0.6010 0.1545 0.5938
C20 C 0.4902(4) 0.1331(3) 0.4679(3)
H13 H 0.5579 0.1244 0.4211
C21 C 0.3647(4) 0.1285(2) 0.4371(2)
C22 C 0.2626(3) 0.1407(3) 0.5029(3)
H14 H 0.1773 0.1368 0.4794
C23 C 0.2895(3) 0.1592(3) 0.6059(2)
H15 H 0.2208 0.1682 0.6517
loop_
_geom_bond_atom_site_label_1
_geom_bond_atom_site_label_2
_geom_bond_site_symmetry_1
_geom_bond_site_symmetry_2
F1 C21 1_555 1_555
O1 C7 1_555 1_555
C1 H1 1_555 1_555
C2 C1 1_555 1_555
H2 C2 1_555 1_555
C3 C2 1_555 1_555
H3 C3 1_555 1_555
C4 C3 1_555 1_555
H4 C4 1_555 1_555
C5 C4 1_555 1_555
H5 C5 1_555 1_555
C6 C1 1_555 1_555
C7 C6 1_555 1_555
C8 C7 1_555 1_555
C9 C8 1_555 1_555
C10 C9 1_555 1_555
H6 C10 1_555 1_555
C11 C10 1_555 1_555
H7 C11 1_555 1_555
C12 C11 1_555 1_555
H8 C12 1_555 1_555
C13 C12 1_555 1_555
H9 C13 1_555 1_555
C14 C9 1_555 1_555
C15 C14 1_555 1_555
H10 C15 1_555 1_555
C16 C15 1_555 1_555
H11 C16 1_555 1_555
C17 C8 1_555 1_555
C18 C17 1_555 1_555
C19 C18 1_555 1_555
H12 C19 1_555 1_555
C20 C19 1_555 1_555
H13 C20 1_555 1_555
C21 C20 1_555 1_555
C22 C21 1_555 1_555
H14 C22 1_555 1_555
C23 C18 1_555 1_555
H15 C23 1_555 1_555
C5 C6 1_555 1_555
C13 C14 1_555 1_555
C16 C17 1_555 1_555
C22 C23 1_555 1_555

#END
