
#######################################################################
#
#                 Cambridge Crystallographic Data Centre
#                                CCDC 
#
#######################################################################
#
# If this CIF has been generated from an entry in the Cambridge 
# Structural Database, then it will include bibliographic, chemical, 
# crystal, experimental, refinement or atomic coordinate data resulting 
# from the CCDC's data processing and validation procedures.
#
#######################################################################

data_FUYSID
_chemical_formula_moiety         'C152 H110 N12'
_chemical_name_systematic        
"tris(13,14-(9,10-Dihydroanthracene-9,10-diyl)-2,9-di-t-butyl-4,7,11,16-tetraazadibenzo[hi,qr]pentacene)[5,6-d:5',6'-k:5'',6''-r]triptycene unknown solvate"
_symmetry_cell_setting           monoclinic
_symmetry_space_group_name_H-M   'C 2/c'
_symmetry_Int_Tables_number      15
_space_group_name_Hall           '-C 2yn'
loop_
_symmetry_equiv_pos_site_id
_symmetry_equiv_pos_as_xyz
1 x,y,z
2 -x,y,1/2-z
3 1/2+x,1/2+y,z
4 1/2-x,1/2+y,1/2-z
5 -x,-y,-z
6 x,-y,1/2+z
7 1/2-x,1/2-y,-z
8 1/2+x,1/2-y,1/2+z
_cell_length_a                   12.0759(3)
_cell_length_b                   57.1682(15)
_cell_length_c                   35.9565(9)
_cell_angle_alpha                90
_cell_angle_beta                 91.076(2)
_cell_angle_gamma                90
_cell_volume                     24818.5
_exptl_crystal_colour            yellow
_exptl_crystal_description       polyhedron
_cell_formula_units_Z            4
loop_
_atom_site_label
_atom_site_type_symbol
_atom_site_fract_x
_atom_site_fract_y
_atom_site_fract_z
C1 C 0.5970(6) 0.27825(10) 0.38958(13)
H1 H 0.5289 0.2781 0.3733
C2 C 0.7759(5) 0.27912(10) 0.43152(15)
H2 H 0.8441 0.2791 0.4478
C3 C 0.0072(3) 0.41527(6) 0.71105(9)
C4 C 0.0035(3) 0.40484(7) 0.67678(10)
H3 H -0.0624 0.4050 0.6619
C5 C 0.1015(3) 0.39375(7) 0.66407(10)
N1 N 0.0989(3) 0.38376(6) 0.62944(8)
C6 C 0.1923(4) 0.37373(7) 0.61847(10)
C7 C 0.1929(4) 0.36240(7) 0.58237(11)
C8 C 0.0974(4) 0.36123(8) 0.56029(11)
H4 H 0.0318 0.3681 0.5695
C9 C 0.0923(4) 0.35067(8) 0.52593(12)
C10 C 0.1925(4) 0.34098(8) 0.51315(12)
H5 H 0.1930 0.3336 0.4895
C11 C 0.2887(4) 0.34187(7) 0.53380(10)
C12 C 0.2917(4) 0.35233(7) 0.56931(11)
C13 C 0.3902(4) 0.33087(8) 0.51997(11)
N2 N 0.3876(3) 0.32089(7) 0.48678(8)
C14 C 0.4831(5) 0.31180(8) 0.47515(11)
C15 C 0.4842(5) 0.30076(9) 0.43812(12)
H6 H 0.4200 0.3004 0.4225
C16 C 0.5826(6) 0.29105(9) 0.42729(13)
C17 C 0.6770(5) 0.29112(9) 0.44899(14)
C18 C 0.6785(4) 0.30142(8) 0.48361(13)
H7 H 0.7445 0.3016 0.4984
C19 C 0.5811(4) 0.31168(8) 0.49666(12)
N3 N 0.5833(3) 0.32185(6) 0.53051(9)
C20 C 0.4878(4) 0.33155(8) 0.54229(11)
C21 C 0.3915(3) 0.35272(7) 0.59191(11)
C22 C 0.4901(4) 0.34240(7) 0.57944(11)
C23 C 0.5846(4) 0.34240(7) 0.60117(12)
H8 H 0.6499 0.3353 0.5920
C24 C 0.5871(4) 0.35283(7) 0.63739(12)
C25 C 0.4899(4) 0.36282(7) 0.64936(12)
H9 H 0.4889 0.3697 0.6734
C26 C 0.3923(3) 0.36318(7) 0.62740(11)
C27 C 0.2926(3) 0.37390(7) 0.64136(10)
N4 N 0.2940(3) 0.38378(5) 0.67425(8)
C28 C 0.1990(3) 0.39382(6) 0.68666(10)
C29 C 0.2007(3) 0.40461(6) 0.72210(10)
H10 H 0.2659 0.4046 0.7373
C30 C 0.1047(3) 0.41510(6) 0.73383(9)
C31 C -0.0161(4) 0.35037(11) 0.50210(12)
C32 C -0.1137(5) 0.34647(12) 0.52565(15)
H11 H -0.1082 0.3565 0.5477
H12 H -0.1813 0.3503 0.5115
H13 H -0.1161 0.3300 0.5333
C33 C -0.0138(7) 0.33680(19) 0.4688(2)
H14 H 0.0534 0.3405 0.4551
H15 H -0.0139 0.3201 0.4752
H16 H -0.0792 0.3404 0.4533
C34 C -0.0300(6) 0.37669(14) 0.4877(2)
H17 H -0.0323 0.3873 0.5091
H18 H 0.0328 0.3808 0.4721
H19 H -0.0990 0.3781 0.4731
C35 C 0.6934(4) 0.35213(8) 0.65963(14)
C36 C 0.6873(5) 0.36727(11) 0.69530(16)
H20 H 0.7580 0.3664 0.7090
H21 H 0.6721 0.3836 0.6884
H22 H 0.6278 0.3614 0.7110
C37 C 0.7904(5) 0.36051(10) 0.63698(17)
H23 H 0.8584 0.3598 0.6523
H24 H 0.7984 0.3505 0.6151
H25 H 0.7772 0.3767 0.6289
C38 C 0.7182(4) 0.32669(9) 0.67142(15)
H26 H 0.7876 0.3262 0.6860
H27 H 0.6576 0.3208 0.6866
H28 H 0.7251 0.3169 0.6492
C39 C 0.6967(7) 0.29005(10) 0.37210(17)
C40 C 0.6970(7) 0.30081(11) 0.33649(16)
H29 H 0.6326 0.3015 0.3209
C41 C 0.7979(9) 0.31022(12) 0.3259(2)
H30 H 0.8023 0.3162 0.3013
C42 C 0.8956(10) 0.31163(16) 0.3490(3)
H31 H 0.9610 0.3195 0.3418
C43 C 0.8854(7) 0.30091(12) 0.3809(2)
H32 H 0.9501 0.2998 0.3962
C44 C 0.7912(7) 0.29124(11) 0.39422(19)
C45 C 0.6384(6) 0.25401(11) 0.40063(15)
C46 C 0.5837(6) 0.23247(12) 0.39025(15)
H33 H 0.5174 0.2327 0.3756
C47 C 0.6280(7) 0.21196(12) 0.40164(17)
H34 H 0.5944 0.1975 0.3947
C48 C 0.7220(7) 0.21231(12) 0.42336(18)
H35 H 0.7528 0.1978 0.4314
C49 C 0.7748(6) 0.23301(12) 0.43419(15)
H36 H 0.8403 0.2326 0.4493
C50 C 0.7300(6) 0.25405(11) 0.42253(16)
C51 C -0.0885(3) 0.42742(6) 0.72936(9)
H37 H -0.1572 0.4274 0.7134
C52 C -0.0884(6) 0.72762(8) 0.72841(15)
H38 H -0.1566 0.7277 0.7122
C53 C -0.0490(3) 0.45180(7) 0.73842(9)
C54 C -0.0983(3) 0.47238(7) 0.72727(9)
H39 H -0.1637 0.4723 0.7122
C55 C -0.0490(3) 0.49391(7) 0.73891(9)
N5 N -0.0978(3) 0.51421(6) 0.72765(8)
C56 C -0.0484(3) 0.53399(7) 0.73895(10)
C57 C -0.1012(4) 0.55647(8) 0.72730(12)
C58 C -0.1964(4) 0.55630(8) 0.70598(12)
H40 H -0.2280 0.5418 0.6984
C59 C -0.2485(4) 0.57755(8) 0.69501(13)
C60 C -0.1949(4) 0.59825(8) 0.70577(13)
H41 H -0.2261 0.6127 0.6979
C61 C -0.0988(4) 0.59863(7) 0.72721(12)
C62 C -0.0490(4) 0.57771(7) 0.73863(10)
C63 C -0.0492(4) 0.62100(8) 0.73848(11)
N6 N -0.0956(3) 0.64084(7) 0.72763(10)
C64 C -0.0480(4) 0.66096(8) 0.73857(12)
C65 C -0.0955(5) 0.68252(8) 0.72721(13)
H42 H -0.1604 0.6828 0.7119
C66 C -0.0463(4) 0.70273(8) 0.73870(12)
C67 C -0.3519(5) 0.57690(9) 0.67089(18)
C68 C -0.3292(7) 0.56605(14) 0.6341(2)
H43 H -0.3975 0.5658 0.6189
H44 H -0.2727 0.5752 0.6213
H45 H -0.3026 0.5500 0.6378
C69 C -0.4406(6) 0.56126(14) 0.6894(2)
H46 H -0.4584 0.5677 0.7139
H47 H -0.5077 0.5609 0.6737
H48 H -0.4116 0.5454 0.6925
C70 C -0.4018(7) 0.60135(12) 0.6655(2)
H49 H -0.4163 0.6083 0.6898
H50 H -0.3496 0.6112 0.6521
H51 H -0.4713 0.6001 0.6511
C71 C 0.0099(7) 0.73955(9) 0.71123(17)
C72 C 0.0135(7) 0.74969(9) 0.67658(16)
H52 H -0.0499 0.7501 0.6605
C73 C 0.1160(9) 0.75948(11) 0.6658(2)
H53 H 0.1210 0.7658 0.6415
C74 C 0.2079(9) 0.76024(13) 0.6887(3)
H54 H 0.2728 0.7682 0.6810
C75 C 0.2052(7) 0.74976(10) 0.7216(2)
H55 H 0.2701 0.7489 0.7369
C76 C 0.1034(7) 0.73982(9) 0.73378(17)
C1A C -0.5970(6) 0.27825(10) 1.11042(13)
H1A H -0.5289 0.2781 1.1267
C2A C -0.7759(5) 0.27912(10) 1.06848(15)
H2A H -0.8441 0.2791 1.0522
C3A C -0.0072(3) 0.41527(6) 0.78895(9)
C4A C -0.0035(3) 0.40484(7) 0.82322(10)
H3A H 0.0624 0.4050 0.8381
C5A C -0.1015(3) 0.39375(7) 0.83593(10)
N1A N -0.0989(3) 0.38376(6) 0.87056(8)
C6A C -0.1923(4) 0.37373(7) 0.88153(10)
C7A C -0.1929(4) 0.36240(7) 0.91763(11)
C8A C -0.0974(4) 0.36123(8) 0.93971(11)
H4A H -0.0318 0.3681 0.9305
C9A C -0.0923(4) 0.35067(8) 0.97407(12)
C10A C -0.1925(4) 0.34098(8) 0.98685(12)
H5A H -0.1930 0.3336 1.0105
C11A C -0.2887(4) 0.34187(7) 0.96620(10)
C12A C -0.2917(4) 0.35233(7) 0.93069(11)
C13A C -0.3902(4) 0.33087(8) 0.98003(11)
N2A N -0.3876(3) 0.32089(7) 1.01322(8)
C14A C -0.4831(5) 0.31180(8) 1.02485(11)
C15A C -0.4842(5) 0.30076(9) 1.06188(12)
H6A H -0.4200 0.3004 1.0775
C16A C -0.5826(6) 0.29105(9) 1.07271(13)
C17A C -0.6770(5) 0.29112(9) 1.05101(14)
C18A C -0.6785(4) 0.30142(8) 1.01639(13)
H7A H -0.7445 0.3016 1.0016
C19A C -0.5811(4) 0.31168(8) 1.00334(12)
N3A N -0.5833(3) 0.32185(6) 0.96949(9)
C20A C -0.4878(4) 0.33155(8) 0.95771(11)
C21A C -0.3915(3) 0.35272(7) 0.90809(11)
C22A C -0.4901(4) 0.34240(7) 0.92056(11)
C23A C -0.5846(4) 0.34240(7) 0.89883(12)
H8A H -0.6499 0.3353 0.9080
C24A C -0.5871(4) 0.35283(7) 0.86261(12)
C25A C -0.4899(4) 0.36282(7) 0.85064(12)
H9A H -0.4889 0.3697 0.8266
C26A C -0.3923(3) 0.36318(7) 0.87260(11)
C27A C -0.2926(3) 0.37390(7) 0.85864(10)
N4A N -0.2940(3) 0.38378(5) 0.82575(8)
C28A C -0.1990(3) 0.39382(6) 0.81334(10)
C29A C -0.2007(3) 0.40461(6) 0.77790(10)
H10A H -0.2659 0.4046 0.7627
C30A C -0.1047(3) 0.41510(6) 0.76617(9)
C31A C 0.0161(4) 0.35037(11) 0.99790(12)
C32A C 0.1137(5) 0.34647(12) 0.97435(15)
H11A H 0.1082 0.3565 0.9523
H12A H 0.1813 0.3503 0.9885
H13A H 0.1161 0.3300 0.9667
C33A C 0.0138(7) 0.33680(19) 1.0312(2)
H14A H -0.0534 0.3405 1.0449
H15A H 0.0139 0.3201 1.0248
H16A H 0.0792 0.3404 1.0467
C34A C 0.0300(6) 0.37669(14) 1.0123(2)
H17A H 0.0323 0.3873 0.9909
H18A H -0.0328 0.3808 1.0279
H19A H 0.0990 0.3781 1.0269
C35A C -0.6934(4) 0.35213(8) 0.84037(14)
C36A C -0.6873(5) 0.36727(11) 0.80470(16)
H20A H -0.7580 0.3664 0.7910
H21A H -0.6721 0.3836 0.8116
H22A H -0.6278 0.3614 0.7890
C37A C -0.7904(5) 0.36051(10) 0.86302(17)
H23A H -0.8584 0.3598 0.8477
H24A H -0.7984 0.3505 0.8849
H25A H -0.7772 0.3767 0.8711
C38A C -0.7182(4) 0.32669(9) 0.82858(15)
H26A H -0.7876 0.3262 0.8140
H27A H -0.6576 0.3208 0.8134
H28A H -0.7251 0.3169 0.8508
C39A C -0.6967(7) 0.29005(10) 1.12790(17)
C40A C -0.6970(7) 0.30081(11) 1.16351(16)
H29A H -0.6326 0.3015 1.1791
C41A C -0.7979(9) 0.31022(12) 1.1741(2)
H30A H -0.8023 0.3162 1.1987
C42A C -0.8956(10) 0.31163(16) 1.1510(3)
H31A H -0.9610 0.3195 1.1582
C43A C -0.8854(7) 0.30091(12) 1.1191(2)
H32A H -0.9501 0.2998 1.1038
C44A C -0.7912(7) 0.29124(11) 1.10578(19)
C45A C -0.6384(6) 0.25401(11) 1.09937(15)
C46A C -0.5837(6) 0.23247(12) 1.10975(15)
H33A H -0.5174 0.2327 1.1244
C47A C -0.6280(7) 0.21196(12) 1.09836(17)
H34A H -0.5944 0.1975 1.1053
C48A C -0.7220(7) 0.21231(12) 1.07664(18)
H35A H -0.7528 0.1978 1.0686
C49A C -0.7748(6) 0.23301(12) 1.06581(15)
H36A H -0.8403 0.2326 1.0507
C50A C -0.7300(6) 0.25405(11) 1.07747(16)
C51A C 0.0885(3) 0.42742(6) 0.77064(9)
H37A H 0.1572 0.4274 0.7866
C52A C 0.0884(6) 0.72762(8) 0.77159(15)
H38A H 0.1566 0.7277 0.7878
C53A C 0.0490(3) 0.45180(7) 0.76158(9)
C54A C 0.0983(3) 0.47238(7) 0.77273(9)
H39A H 0.1637 0.4723 0.7878
C55A C 0.0490(3) 0.49391(7) 0.76109(9)
N5A N 0.0978(3) 0.51421(6) 0.77235(8)
C56A C 0.0484(3) 0.53399(7) 0.76105(10)
C57A C 0.1012(4) 0.55647(8) 0.77270(12)
C58A C 0.1964(4) 0.55630(8) 0.79402(12)
H40A H 0.2280 0.5418 0.8016
C59A C 0.2485(4) 0.57755(8) 0.80499(13)
C60A C 0.1949(4) 0.59825(8) 0.79423(13)
H41A H 0.2261 0.6127 0.8021
C61A C 0.0988(4) 0.59863(7) 0.77279(12)
C62A C 0.0490(4) 0.57771(7) 0.76137(10)
C63A C 0.0492(4) 0.62100(8) 0.76152(11)
N6A N 0.0956(3) 0.64084(7) 0.77237(10)
C64A C 0.0480(4) 0.66096(8) 0.76143(12)
C65A C 0.0955(5) 0.68252(8) 0.77279(13)
H42A H 0.1604 0.6828 0.7881
C66A C 0.0463(4) 0.70273(8) 0.76130(12)
C67A C 0.3519(5) 0.57690(9) 0.82911(18)
C68A C 0.3292(7) 0.56605(14) 0.8659(2)
H43A H 0.3975 0.5658 0.8811
H44A H 0.2727 0.5752 0.8787
H45A H 0.3026 0.5500 0.8622
C69A C 0.4406(6) 0.56126(14) 0.8106(2)
H46A H 0.4584 0.5677 0.7861
H47A H 0.5077 0.5609 0.8263
H48A H 0.4116 0.5454 0.8075
C70A C 0.4018(7) 0.60135(12) 0.8345(2)
H49A H 0.4163 0.6083 0.8102
H50A H 0.3496 0.6112 0.8479
H51A H 0.4713 0.6001 0.8489
C71A C -0.0099(7) 0.73955(9) 0.78877(17)
C72A C -0.0135(7) 0.74969(9) 0.82342(16)
H52A H 0.0499 0.7501 0.8395
C73A C -0.1160(9) 0.75948(11) 0.8342(2)
H53A H -0.1210 0.7658 0.8585
C74A C -0.2079(9) 0.76024(13) 0.8113(3)
H54A H -0.2728 0.7682 0.8190
C75A C -0.2052(7) 0.74976(10) 0.7784(2)
H55A H -0.2701 0.7489 0.7631
C76A C -0.1034(7) 0.73982(9) 0.76622(17)
loop_
_geom_bond_atom_site_label_1
_geom_bond_atom_site_label_2
_geom_bond_site_symmetry_1
_geom_bond_site_symmetry_2
C1 H1 1_555 1_555
C2 H2 1_555 1_555
C3 C4 1_555 1_555
C4 H3 1_555 1_555
C5 C4 1_555 1_555
N1 C5 1_555 1_555
C6 N1 1_555 1_555
C7 C6 1_555 1_555
C8 C7 1_555 1_555
H4 C8 1_555 1_555
C9 C8 1_555 1_555
C10 C9 1_555 1_555
H5 C10 1_555 1_555
C11 C10 1_555 1_555
C12 C7 1_555 1_555
C13 C11 1_555 1_555
N2 C13 1_555 1_555
C14 N2 1_555 1_555
C15 C14 1_555 1_555
H6 C15 1_555 1_555
C16 C1 1_555 1_555
C17 C2 1_555 1_555
C18 C17 1_555 1_555
H7 C18 1_555 1_555
C19 C14 1_555 1_555
N3 C19 1_555 1_555
C20 C13 1_555 1_555
C21 C12 1_555 1_555
C22 C20 1_555 1_555
C23 C22 1_555 1_555
H8 C23 1_555 1_555
C24 C23 1_555 1_555
C25 C24 1_555 1_555
H9 C25 1_555 1_555
C26 C21 1_555 1_555
C27 C6 1_555 1_555
N4 C27 1_555 1_555
C28 C5 1_555 1_555
C29 C28 1_555 1_555
H10 C29 1_555 1_555
C30 C3 1_555 1_555
C31 C9 1_555 1_555
C32 C31 1_555 1_555
H11 C32 1_555 1_555
H12 C32 1_555 1_555
H13 C32 1_555 1_555
C33 C31 1_555 1_555
H14 C33 1_555 1_555
H15 C33 1_555 1_555
H16 C33 1_555 1_555
C34 C31 1_555 1_555
H17 C34 1_555 1_555
H18 C34 1_555 1_555
H19 C34 1_555 1_555
C35 C24 1_555 1_555
C36 C35 1_555 1_555
H20 C36 1_555 1_555
H21 C36 1_555 1_555
H22 C36 1_555 1_555
C37 C35 1_555 1_555
H23 C37 1_555 1_555
H24 C37 1_555 1_555
H25 C37 1_555 1_555
C38 C35 1_555 1_555
H26 C38 1_555 1_555
H27 C38 1_555 1_555
H28 C38 1_555 1_555
C39 C1 1_555 1_555
C40 C39 1_555 1_555
H29 C40 1_555 1_555
C41 C40 1_555 1_555
H30 C41 1_555 1_555
C42 C41 1_555 1_555
H31 C42 1_555 1_555
C43 C42 1_555 1_555
H32 C43 1_555 1_555
C44 C2 1_555 1_555
C45 C1 1_555 1_555
C46 C45 1_555 1_555
H33 C46 1_555 1_555
C47 C46 1_555 1_555
H34 C47 1_555 1_555
C48 C47 1_555 1_555
H35 C48 1_555 1_555
C49 C48 1_555 1_555
H36 C49 1_555 1_555
C50 C2 1_555 1_555
C51 C3 1_555 1_555
H37 C51 1_555 1_555
C52 H38 1_555 1_555
C53 C51 1_555 1_555
C54 C53 1_555 1_555
H39 C54 1_555 1_555
C55 C54 1_555 1_555
N5 C55 1_555 1_555
C56 N5 1_555 1_555
C57 C56 1_555 1_555
C58 C57 1_555 1_555
H40 C58 1_555 1_555
C59 C58 1_555 1_555
C60 C59 1_555 1_555
H41 C60 1_555 1_555
C61 C60 1_555 1_555
C62 C57 1_555 1_555
C63 C61 1_555 1_555
N6 C63 1_555 1_555
C64 N6 1_555 1_555
C65 C64 1_555 1_555
H42 C65 1_555 1_555
C66 C52 1_555 1_555
C67 C59 1_555 1_555
C68 C67 1_555 1_555
H43 C68 1_555 1_555
H44 C68 1_555 1_555
H45 C68 1_555 1_555
C69 C67 1_555 1_555
H46 C69 1_555 1_555
H47 C69 1_555 1_555
H48 C69 1_555 1_555
C70 C67 1_555 1_555
H49 C70 1_555 1_555
H50 C70 1_555 1_555
H51 C70 1_555 1_555
C71 C52 1_555 1_555
C72 C71 1_555 1_555
H52 C72 1_555 1_555
C73 C72 1_555 1_555
H53 C73 1_555 1_555
C74 C73 1_555 1_555
H54 C74 1_555 1_555
C75 C74 1_555 1_555
H55 C75 1_555 1_555
C76 C71 1_555 1_555
C1A H1A 1_555 1_555
C2A H2A 1_555 1_555
C3A C4A 1_555 1_555
C4A H3A 1_555 1_555
C5A C4A 1_555 1_555
N1A C5A 1_555 1_555
C6A N1A 1_555 1_555
C7A C6A 1_555 1_555
C8A C7A 1_555 1_555
H4A C8A 1_555 1_555
C9A C8A 1_555 1_555
C10A C9A 1_555 1_555
H5A C10A 1_555 1_555
C11A C10A 1_555 1_555
C12A C7A 1_555 1_555
C13A C11A 1_555 1_555
N2A C13A 1_555 1_555
C14A N2A 1_555 1_555
C15A C14A 1_555 1_555
H6A C15A 1_555 1_555
C16A C1A 1_555 1_555
C17A C2A 1_555 1_555
C18A C17A 1_555 1_555
H7A C18A 1_555 1_555
C19A C14A 1_555 1_555
N3A C19A 1_555 1_555
C20A C13A 1_555 1_555
C21A C12A 1_555 1_555
C22A C20A 1_555 1_555
C23A C22A 1_555 1_555
H8A C23A 1_555 1_555
C24A C23A 1_555 1_555
C25A C24A 1_555 1_555
H9A C25A 1_555 1_555
C26A C21A 1_555 1_555
C27A C6A 1_555 1_555
N4A C27A 1_555 1_555
C28A C5A 1_555 1_555
C29A C28A 1_555 1_555
H10A C29A 1_555 1_555
C30A C51 1_555 1_555
C31A C9A 1_555 1_555
C32A C31A 1_555 1_555
H11A C32A 1_555 1_555
H12A C32A 1_555 1_555
H13A C32A 1_555 1_555
C33A C31A 1_555 1_555
H14A C33A 1_555 1_555
H15A C33A 1_555 1_555
H16A C33A 1_555 1_555
C34A C31A 1_555 1_555
H17A C34A 1_555 1_555
H18A C34A 1_555 1_555
H19A C34A 1_555 1_555
C35A C24A 1_555 1_555
C36A C35A 1_555 1_555
H20A C36A 1_555 1_555
H21A C36A 1_555 1_555
H22A C36A 1_555 1_555
C37A C35A 1_555 1_555
H23A C37A 1_555 1_555
H24A C37A 1_555 1_555
H25A C37A 1_555 1_555
C38A C35A 1_555 1_555
H26A C38A 1_555 1_555
H27A C38A 1_555 1_555
H28A C38A 1_555 1_555
C39A C1A 1_555 1_555
C40A C39A 1_555 1_555
H29A C40A 1_555 1_555
C41A C40A 1_555 1_555
H30A C41A 1_555 1_555
C42A C41A 1_555 1_555
H31A C42A 1_555 1_555
C43A C42A 1_555 1_555
H32A C43A 1_555 1_555
C44A C2A 1_555 1_555
C45A C1A 1_555 1_555
C46A C45A 1_555 1_555
H33A C46A 1_555 1_555
C47A C46A 1_555 1_555
H34A C47A 1_555 1_555
C48A C47A 1_555 1_555
H35A C48A 1_555 1_555
C49A C48A 1_555 1_555
H36A C49A 1_555 1_555
C50A C2A 1_555 1_555
C51A C30 1_555 1_555
H37A C51A 1_555 1_555
C52A C76 1_555 1_555
H38A C52A 1_555 1_555
C53A C53 1_555 1_555
C54A C53A 1_555 1_555
H39A C54A 1_555 1_555
C55A C55 1_555 1_555
N5A C55A 1_555 1_555
C56A C56 1_555 1_555
C57A C56A 1_555 1_555
C58A C57A 1_555 1_555
H40A C58A 1_555 1_555
C59A C58A 1_555 1_555
C60A C59A 1_555 1_555
H41A C60A 1_555 1_555
C61A C60A 1_555 1_555
C62A C62 1_555 1_555
C63A C63 1_555 1_555
N6A C63A 1_555 1_555
C64A C64 1_555 1_555
C65A C64A 1_555 1_555
H42A C65A 1_555 1_555
C66A C66 1_555 1_555
C67A C59A 1_555 1_555
C68A C67A 1_555 1_555
H43A C68A 1_555 1_555
H44A C68A 1_555 1_555
H45A C68A 1_555 1_555
C69A C67A 1_555 1_555
H46A C69A 1_555 1_555
H47A C69A 1_555 1_555
H48A C69A 1_555 1_555
C70A C67A 1_555 1_555
H49A C70A 1_555 1_555
H50A C70A 1_555 1_555
H51A C70A 1_555 1_555
C71A C52A 1_555 1_555
C72A C71A 1_555 1_555
H52A C72A 1_555 1_555
C73A C72A 1_555 1_555
H53A C73A 1_555 1_555
C74A C73A 1_555 1_555
H54A C74A 1_555 1_555
C75A C74A 1_555 1_555
H55A C75A 1_555 1_555
C76A C52 1_555 1_555
C11 C12 1_555 1_555
C15 C16 1_555 1_555
C16 C17 1_555 1_555
C18 C19 1_555 1_555
N3 C20 1_555 1_555
C21 C22 1_555 1_555
C25 C26 1_555 1_555
C26 C27 1_555 1_555
N4 C28 1_555 1_555
C29 C30 1_555 1_555
C39 C44 1_555 1_555
C43 C44 1_555 1_555
C45 C50 1_555 1_555
C49 C50 1_555 1_555
C61 C62 1_555 1_555
C65 C66 1_555 1_555
C75 C76 1_555 1_555
C3A C30A 1_555 1_555
C3A C51A 1_555 1_555
C11A C12A 1_555 1_555
C15A C16A 1_555 1_555
C16A C17A 1_555 1_555
C18A C19A 1_555 1_555
N3A C20A 1_555 1_555
C21A C22A 1_555 1_555
C25A C26A 1_555 1_555
C26A C27A 1_555 1_555
N4A C28A 1_555 1_555
C29A C30A 1_555 1_555
C39A C44A 1_555 1_555
C43A C44A 1_555 1_555
C45A C50A 1_555 1_555
C49A C50A 1_555 1_555
C51A C53A 1_555 1_555
C52A C66A 1_555 1_555
C54A C55A 1_555 1_555
N5A C56A 1_555 1_555
C57A C62A 1_555 1_555
C61A C62A 1_555 1_555
C61A C63A 1_555 1_555
N6A C64A 1_555 1_555
C65A C66A 1_555 1_555
C71A C76A 1_555 1_555
C75A C76A 1_555 1_555

#END
