
#######################################################################
#
#                 Cambridge Crystallographic Data Centre
#                                CCDC 
#
#######################################################################
#
# If this CIF has been generated from an entry in the Cambridge 
# Structural Database, then it will include bibliographic, chemical, 
# crystal, experimental, refinement or atomic coordinate data resulting 
# from the CCDC's data processing and validation procedures.
#
#######################################################################

data_FUYSOH
_chemical_formula_moiety         'C12 H28 N2 O4 2+,2(C7 H5 O2 1-)'
_chemical_name_systematic        
'1,7,10,16-Tetraoxa-4,13-diazacyclo-octadecane ditropolonate'
_symmetry_cell_setting           triclinic
_symmetry_space_group_name_H-M   'P -1'
_symmetry_Int_Tables_number      2
_space_group_name_Hall           '-P 1'
loop_
_symmetry_equiv_pos_site_id
_symmetry_equiv_pos_as_xyz
1 x,y,z
2 -x,-y,-z
_cell_length_a                   7.513(3)
_cell_length_b                   9.165(5)
_cell_length_c                   10.458(5)
_cell_angle_alpha                81.42(4)
_cell_angle_beta                 72.75(3)
_cell_angle_gamma                78.47(4)
_cell_volume                     670.716
_exptl_crystal_colour            yellow
_chemical_melting_point          411-414K
_cell_formula_units_Z            1
loop_
_atom_site_label
_atom_site_type_symbol
_atom_site_fract_x
_atom_site_fract_y
_atom_site_fract_z
N1 N -0.1986(4) 0.1972(2) 0.9906(2)
C1 C -0.1144(6) 0.3300(3) 0.9174(3)
C2 C 0.0914(5) 0.2820(3) 0.8544(3)
O1 O 0.1662(4) 0.4056(2) 0.7798(2)
C3 C 0.3643(6) 0.3748(3) 0.7260(3)
C4 C 0.4434(6) 0.5165(4) 0.6962(3)
O2 O 0.4096(4) 0.5757(2) 0.8206(2)
C5 C 0.4505(7) 0.7202(4) 0.8056(3)
C6 C -0.4054(5) 0.2247(4) 1.0579(3)
H1 H -0.1035(57) 0.1513(37) 1.0495(33)
H2 H -0.1836(55) 0.1273(35) 0.9289(31)
H3 H -0.1750 0.3738 0.8488
H4 H -0.1310 0.4025 0.9793
H5 H 0.1086 0.2053 0.7964
H6 H 0.1536 0.2439 0.9231
H7 H 0.4183 0.3091 0.7900
H8 H 0.3940 0.3275 0.6446
H9 H 0.3824 0.5864 0.6383
H10 H 0.5764 0.4966 0.6534
H11 H 0.5819 0.7194 0.7605
H12 H 0.3761 0.7856 0.7535
H13 H -0.4533 0.1327 1.0682
H14 H -0.4659 0.2986 1.0023
C6A C 0.4054(5) 0.7753(4) 0.9421(3)
C5A C -0.4505(7) 0.2798(4) 1.1944(3)
N1A N 0.1986(4) 0.8028(2) 1.0094(2)
H13A H 0.4533 0.8673 0.9318
H14A H 0.4659 0.7014 0.9977
O2A O -0.4096(4) 0.4243(2) 1.1794(2)
H11A H -0.5819 0.2806 1.2395
H12A H -0.3761 0.2144 1.2465
C1A C 0.1144(6) 0.6700(3) 1.0826(3)
H1A H 0.1035(57) 0.8487(37) 0.9505(33)
H2A H 0.1836(55) 0.8727(35) 1.0711(31)
C4A C -0.4434(6) 0.4835(4) 1.3038(3)
C2A C -0.0914(5) 0.7180(3) 1.1456(3)
H3A H 0.1750 0.6262 1.1512
H4A H 0.1310 0.5975 1.0207
C3A C -0.3643(6) 0.6252(3) 1.2740(3)
H9A H -0.3824 0.4136 1.3617
H10A H -0.5764 0.5034 1.3466
O1A O -0.1662(4) 0.5944(2) 1.2202(2)
H5A H -0.1086 0.7947 1.2036
H6A H -0.1536 0.7561 1.0769
H7A H -0.4183 0.6909 1.2100
H8A H -0.3940 0.6725 1.3554
C7 C -0.2151(6) 0.0194(3) 0.7043(3)
O3 O -0.2783(4) 0.1348(2) 0.7646(2)
C8 C -0.0871(5) -0.0974(3) 0.7611(3)
O4 O -0.0431(4) -0.0624(2) 0.8596(2)
C9 C -0.0208(6) -0.2397(3) 0.7166(3)
C10 C -0.0352(6) -0.3019(3) 0.6082(3)
C11 C -0.1226(6) -0.2414(3) 0.5106(3)
C12 C -0.2257(5) -0.0997(3) 0.5021(3)
C13 C -0.2668(6) 0.0110(3) 0.5854(3)
H15 H 0.0477 -0.3072 0.7714
H16 H 0.0261 -0.4040 0.6001
H17 H -0.1109 -0.3036 0.4414
H18 H -0.2764 -0.0751 0.4262
H19 H -0.3450 0.0998 0.5593
loop_
_geom_bond_atom_site_label_1
_geom_bond_atom_site_label_2
_geom_bond_site_symmetry_1
_geom_bond_site_symmetry_2
N1 C1 1_555 1_555
C1 C2 1_555 1_555
C2 O1 1_555 1_555
O1 C3 1_555 1_555
C3 C4 1_555 1_555
C4 O2 1_555 1_555
O2 C5 1_555 1_555
C5 H11 1_555 1_555
C6 N1 1_555 1_555
C7 O3 1_555 1_555
C8 C7 1_555 1_555
O4 C8 1_555 1_555
C9 C8 1_555 1_555
C10 C9 1_555 1_555
C11 C10 1_555 1_555
C12 C11 1_555 1_555
C13 C7 1_555 1_555
H1 N1 1_555 1_555
H2 N1 1_555 1_555
H3 C1 1_555 1_555
H4 C1 1_555 1_555
H5 C2 1_555 1_555
H6 C2 1_555 1_555
H7 C3 1_555 1_555
H8 C3 1_555 1_555
H9 C4 1_555 1_555
H10 C4 1_555 1_555
H12 C5 1_555 1_555
H13 C6 1_555 1_555
H14 C6 1_555 1_555
H15 C9 1_555 1_555
H16 C10 1_555 1_555
H17 C11 1_555 1_555
H18 C12 1_555 1_555
H19 C13 1_555 1_555
C6A C5 1_555 1_555
C5A C6 1_555 1_555
N1A C6A 1_555 1_555
H13A C6A 1_555 1_555
H14A C6A 1_555 1_555
O2A C5A 1_555 1_555
H11A C5A 1_555 1_555
H12A C5A 1_555 1_555
C1A N1A 1_555 1_555
H1A N1A 1_555 1_555
H2A N1A 1_555 1_555
C4A O2A 1_555 1_555
C2A C1A 1_555 1_555
H3A C1A 1_555 1_555
H4A C1A 1_555 1_555
C3A C4A 1_555 1_555
H9A C4A 1_555 1_555
H10A C4A 1_555 1_555
O1A C2A 1_555 1_555
H5A C2A 1_555 1_555
H6A C2A 1_555 1_555
H7A C3A 1_555 1_555
H8A C3A 1_555 1_555
C12 C13 1_555 1_555
C3A O1A 1_555 1_555

#END
