
#######################################################################
#
#                 Cambridge Crystallographic Data Centre
#                                CCDC 
#
#######################################################################
#
# If this CIF has been generated from an entry in the Cambridge 
# Structural Database, then it will include bibliographic, chemical, 
# crystal, experimental, refinement or atomic coordinate data resulting 
# from the CCDC's data processing and validation procedures.
#
#######################################################################

data_FUYZEE02
_chemical_formula_moiety         'H10 B3 N1'
_chemical_name_systematic        Ammonia-(cyclotriborane)
_symmetry_cell_setting           monoclinic
_symmetry_space_group_name_H-M   'P 21/n'
_symmetry_Int_Tables_number      14
_space_group_name_Hall           '-P 2yn'
loop_
_symmetry_equiv_pos_site_id
_symmetry_equiv_pos_as_xyz
1 x,y,z
2 1/2-x,1/2+y,1/2-z
3 -x,-y,-z
4 1/2+x,1/2-y,1/2+z
_cell_length_a                   10.358(3)
_cell_length_b                   4.8041(12)
_cell_length_c                   9.967(3)
_cell_angle_alpha                90
_cell_angle_beta                 115.141(6)
_cell_angle_gamma                90
_cell_volume                     448.981
_chemical_melting_point          73deg.C
_cell_formula_units_Z            4
_exptl_crystal_recrystallization_method toluene
loop_
_atom_site_label
_atom_site_type_symbol
_atom_site_fract_x
_atom_site_fract_y
_atom_site_fract_z
B1 B 0.59812(13) 0.6803(3) 0.38641(13)
B2 B 0.43554(14) 0.5386(3) 0.24217(14)
B3 B 0.56389(14) 0.6849(3) 0.19384(14)
N1 N 0.70030(11) 0.4390(2) 0.48165(11)
H1 H 0.5515(14) 0.792(3) 0.4511(14)
H2 H 0.6642(14) 0.831(3) 0.3593(14)
H3 H 0.4360(13) 0.321(3) 0.2718(14)
H4 H 0.3411(15) 0.666(3) 0.2258(14)
H5 H 0.6433(14) 0.557(3) 0.1801(15)
H6 H 0.5381(15) 0.883(3) 0.1365(15)
H7 H 0.4458(15) 0.527(3) 0.1289(15)
H8 H 0.655(2) 0.308(4) 0.505(2)
H9 H 0.767(2) 0.499(4) 0.571(2)
H10 H 0.7423(18) 0.356(4) 0.4341(19)
loop_
_geom_bond_atom_site_label_1
_geom_bond_atom_site_label_2
_geom_bond_site_symmetry_1
_geom_bond_site_symmetry_2
B1 B2 1_555 1_555
B2 B3 1_555 1_555
B3 B1 1_555 1_555
N1 B1 1_555 1_555
H1 B1 1_555 1_555
H2 B1 1_555 1_555
H3 B2 1_555 1_555
H4 B2 1_555 1_555
H5 B3 1_555 1_555
H6 B3 1_555 1_555
H7 B2 1_555 1_555
H8 N1 1_555 1_555
H9 N1 1_555 1_555
H10 N1 1_555 1_555
B3 H7 1_555 1_555

#END
