
#######################################################################
#
#                 Cambridge Crystallographic Data Centre
#                                CCDC 
#
#######################################################################
#
# If this CIF has been generated from an entry in the Cambridge 
# Structural Database, then it will include bibliographic, chemical, 
# crystal, experimental, refinement or atomic coordinate data resulting 
# from the CCDC's data processing and validation procedures.
#
#######################################################################

data_FUZWON
_chemical_formula_moiety         'C24 H26 O1 S2'
_chemical_name_systematic        
(4-(3,4-bis(2,5-dimethyl-3-thienyl)cyclopent-3-en-1-yl)phenyl)methanol
_symmetry_cell_setting           orthorhombic
_symmetry_space_group_name_H-M   'P c c n'
_symmetry_Int_Tables_number      56
_space_group_name_Hall           '-P 2ab 2ac'
loop_
_symmetry_equiv_pos_site_id
_symmetry_equiv_pos_as_xyz
1 x,y,z
2 1/2-x,1/2-y,z
3 -x,1/2+y,1/2-z
4 1/2+x,-y,1/2-z
5 -x,-y,-z
6 1/2+x,1/2+y,-z
7 x,1/2-y,1/2+z
8 1/2-x,y,1/2+z
_cell_length_a                   12.4931(10)
_cell_length_b                   40.201(3)
_cell_length_c                   8.487(7)
_cell_angle_alpha                90
_cell_angle_beta                 90
_cell_angle_gamma                90
_cell_volume                     4262.47
_exptl_crystal_colour            colorless
_exptl_crystal_description       block
_cell_formula_units_Z            8
loop_
_atom_site_label
_atom_site_type_symbol
_atom_site_fract_x
_atom_site_fract_y
_atom_site_fract_z
O1 O -0.1635(6) 0.2516(2) 1.1172(12)
H1 H -0.2182 0.2530 1.0641
C1 C -0.0708(7) 0.2614(2) 1.0210(10)
H2 H -0.0273 0.2770 1.0802
H3 H -0.0959 0.2726 0.9269
S1 S 0.43014(10) 0.02472(3) 1.16886(15)
S2 S 0.66645(9) 0.10019(3) 0.69007(16)
C2 C 0.2664(6) -0.01808(12) 1.0631(8)
H4 H 0.2067 -0.0184 0.9918
H5 H 0.2423 -0.0239 1.1670
H6 H 0.3191 -0.0339 1.0287
C3 C 0.3147(4) 0.01607(11) 1.0660(6)
C4 C 0.2786(3) 0.04384(10) 0.9927(5)
H7 H 0.2164 0.0443 0.9325
C5 C 0.3444(3) 0.07230(9) 1.0161(5)
C6 C 0.4305(3) 0.06592(10) 1.1116(5)
C7 C 0.5164(3) 0.08866(13) 1.1703(6)
H8 H 0.5738 0.0894 1.0951
H9 H 0.5430 0.0806 1.2693
H10 H 0.4876 0.1106 1.1840
C8 C 0.3189(3) 0.10513(9) 0.9479(4)
C9 C 0.2068(3) 0.11911(9) 0.9570(5)
H11 H 0.1880 0.1246 1.0648
H12 H 0.1550 0.1034 0.9161
C10 C 0.2110(3) 0.15044(10) 0.8545(5)
H13 H 0.1929 0.1436 0.7470
C11 C 0.3315(3) 0.15998(10) 0.8537(5)
H14 H 0.3521 0.1698 0.7538
H15 H 0.3481 0.1754 0.9381
C12 C 0.3864(3) 0.12678(9) 0.8790(5)
C13 C 0.1366(3) 0.17901(10) 0.8963(5)
C14 C 0.0416(3) 0.17447(10) 0.9726(5)
H16 H 0.0217 0.1530 1.0013
C15 C -0.0261(3) 0.20051(11) 1.0088(6)
H17 H -0.0905 0.1961 1.0595
C16 C -0.0016(4) 0.23178(12) 0.9730(9)
C17 C 0.0909(5) 0.23639(14) 0.8821(11)
H18 H 0.1065 0.2575 0.8437
C18 C 0.1599(4) 0.21036(13) 0.8480(9)
H19 H 0.2224 0.2144 0.7917
C19 C 0.4768(4) 0.06387(11) 0.6947(6)
H20 H 0.4874 0.0467 0.7720
H21 H 0.5042 0.0565 0.5950
H22 H 0.4018 0.0686 0.6851
C20 C 0.5344(3) 0.09459(10) 0.7447(5)
C21 C 0.4981(3) 0.12169(9) 0.8260(5)
C22 C 0.5789(3) 0.14632(11) 0.8433(5)
H23 H 0.5672 0.1663 0.8961
C23 C 0.6740(3) 0.13856(11) 0.7770(6)
C24 C 0.7756(4) 0.15852(14) 0.7763(8)
H24 H 0.7640 0.1792 0.8302
H25 H 0.7967 0.1629 0.6695
H26 H 0.8310 0.1462 0.8287
C25? C -0.0706(7) 0.2615(2) 1.0209(12)
H27? H -0.1614 0.2502 0.8483
H28? H -0.0869 0.2602 1.1325
H29? H -0.0321 0.2820 1.0014
O2? O -0.1703(6) 0.2610(2) 0.9291(13)
loop_
_geom_bond_atom_site_label_1
_geom_bond_atom_site_label_2
_geom_bond_site_symmetry_1
_geom_bond_site_symmetry_2
O1 H1 1_555 1_555
C1 O1 1_555 1_555
H2 C1 1_555 1_555
H3 C1 1_555 1_555
S1 C3 1_555 1_555
S2 C20 1_555 1_555
C2 H4 1_555 1_555
H5 C2 1_555 1_555
H6 C2 1_555 1_555
C3 C2 1_555 1_555
C4 C3 1_555 1_555
H7 C4 1_555 1_555
C5 C4 1_555 1_555
C6 S1 1_555 1_555
C7 C6 1_555 1_555
H8 C7 1_555 1_555
H9 C7 1_555 1_555
H10 C7 1_555 1_555
C8 C5 1_555 1_555
C9 C8 1_555 1_555
H11 C9 1_555 1_555
H12 C9 1_555 1_555
C10 C9 1_555 1_555
H13 C10 1_555 1_555
C11 C10 1_555 1_555
H14 C11 1_555 1_555
H15 C11 1_555 1_555
C12 C8 1_555 1_555
C13 C10 1_555 1_555
C14 C13 1_555 1_555
H16 C14 1_555 1_555
C15 C14 1_555 1_555
H17 C15 1_555 1_555
C16 C1 1_555 1_555
C17 C16 1_555 1_555
H18 C17 1_555 1_555
C18 C13 1_555 1_555
H19 C18 1_555 1_555
C19 H20 1_555 1_555
H21 C19 1_555 1_555
H22 C19 1_555 1_555
C20 C19 1_555 1_555
C21 C12 1_555 1_555
C22 C21 1_555 1_555
H23 C22 1_555 1_555
C23 S2 1_555 1_555
C24 C23 1_555 1_555
H24 C24 1_555 1_555
H25 C24 1_555 1_555
H26 C24 1_555 1_555
C5 C6 1_555 1_555
C11 C12 1_555 1_555
C15 C16 1_555 1_555
C17 C18 1_555 1_555
C20 C21 1_555 1_555
C22 C23 1_555 1_555

#END
