
#######################################################################
#
#                 Cambridge Crystallographic Data Centre
#                                CCDC 
#
#######################################################################
#
# If this CIF has been generated from an entry in the Cambridge 
# Structural Database, then it will include bibliographic, chemical, 
# crystal, experimental, refinement or atomic coordinate data resulting 
# from the CCDC's data processing and validation procedures.
#
#######################################################################

data_FUZYIK
_chemical_name_common            tetrakis(4,5,9,10-tetrahydropyren-2-yl)ethene
_chemical_formula_moiety         'C66 H52'
_chemical_name_systematic        
2,2',2'',2'''-ethene-1,1,2,2-tetrayltetra-4,5,9,10-tetrahydropyrene
_symmetry_cell_setting           triclinic
_symmetry_space_group_name_H-M   'P -1'
_symmetry_Int_Tables_number      2
_space_group_name_Hall           '-P 1'
loop_
_symmetry_equiv_pos_site_id
_symmetry_equiv_pos_as_xyz
1 x,y,z
2 -x,-y,-z
_cell_length_a                   11.030(2)
_cell_length_b                   14.136(3)
_cell_length_c                   15.727(3)
_cell_angle_alpha                92.47(3)
_cell_angle_beta                 94.46(3)
_cell_angle_gamma                92.32(3)
_cell_volume                     2440.09
_exptl_crystal_colour            yellow
_exptl_crystal_description       strip
_cell_formula_units_Z            2
_exptl_crystal_preparation       Luminescent
loop_
_atom_site_label
_atom_site_type_symbol
_atom_site_fract_x
_atom_site_fract_y
_atom_site_fract_z
C1 C 0.2143(2) 0.57644(17) 0.49130(15)
C2 C 0.2222(2) 0.67305(17) 0.50567(15)
C3 C 0.1646(2) 0.73820(17) 0.44370(15)
C4 C 0.2328(2) 0.81051(17) 0.41087(15)
H1 H 0.3122 0.8240 0.4340
C5 C 0.1862(2) 0.86343(17) 0.34451(16)
C6 C 0.2625(2) 0.93567(19) 0.30185(18)
H2 H 0.2991 0.9049 0.2544
H3 H 0.3278 0.9612 0.3423
C7 C 0.1872(2) 1.01627(19) 0.26926(18)
H4 H 0.1618 1.0538 0.3173
H5 H 0.2365 1.0571 0.2364
C8 C 0.0762(2) 0.97815(18) 0.21404(16)
C9 C 0.0148(2) 0.89628(17) 0.23864(16)
C10 C 0.0648(2) 0.84551(17) 0.31257(16)
C11 C 0.0320(3) 1.02261(19) 0.14181(17)
H6 H 0.0722 1.0769 0.1250
C12 C -0.0727(3) 0.98599(19) 0.09444(17)
H7 H -0.1017 1.0158 0.0458
C13 C -0.1333(2) 0.90627(19) 0.11894(16)
H8 H -0.2035 0.8831 0.0870
C14 C -0.0914(2) 0.85964(17) 0.19080(16)
C15 C -0.1520(3) 0.77027(19) 0.21863(17)
H9 H -0.1151 0.7159 0.1932
H10 H -0.2375 0.7679 0.1985
C16 C -0.1402(2) 0.7651(2) 0.31525(17)
H11 H -0.1867 0.8143 0.3405
H12 H -0.1732 0.7042 0.3310
C17 C -0.0086(2) 0.77758(17) 0.34944(16)
C18 C 0.0424(2) 0.72440(17) 0.41427(16)
H13 H -0.0057 0.6789 0.4384
C19 C 0.1741(2) 0.52705(17) 0.40769(15)
C20 C 0.1873(2) 0.56990(18) 0.33007(16)
H14 H 0.2200 0.6316 0.3309
C21 C 0.1534(2) 0.52331(18) 0.25223(15)
C22 C 0.1606(3) 0.57315(19) 0.16978(16)
H15 H 0.2224 0.6243 0.1777
H16 H 0.0832 0.6007 0.1546
C23 C 0.1913(3) 0.5056(2) 0.09757(17)
H17 H 0.1829 0.5373 0.0441
H18 H 0.2754 0.4884 0.1071
C24 C 0.1097(2) 0.41709(18) 0.09113(16)
C25 C 0.0715(2) 0.37912(18) 0.16641(16)
C26 C 0.1082(2) 0.42928(18) 0.24970(15)
C27 C 0.0731(3) 0.3705(2) 0.01304(17)
H19 H 0.0991 0.3943 -0.0370
C28 C -0.0016(3) 0.2890(2) 0.00903(18)
H20 H -0.0265 0.2591 -0.0436
C29 C -0.0396(3) 0.2519(2) 0.08327(17)
H21 H -0.0900 0.1973 0.0802
C30 C -0.0022(2) 0.29641(18) 0.16267(16)
C31 C -0.0427(2) 0.25859(19) 0.24461(16)
H22 H -0.0570 0.1905 0.2373
H23 H -0.1191 0.2860 0.2568
C32 C 0.0511(2) 0.28090(18) 0.32050(16)
H24 H 0.0147 0.2662 0.3729
H25 H 0.1197 0.2408 0.3152
C33 C 0.0960(2) 0.38339(17) 0.32602(15)
C34 C 0.1287(2) 0.43297(18) 0.40351(15)
H26 H 0.1200 0.4025 0.4541
C35 C 0.2548(2) 0.51537(17) 0.56332(15)
C36 C 0.3449(2) 0.44985(17) 0.55481(16)
H27 H 0.3699 0.4344 0.5010
C37 C 0.3975(2) 0.40747(17) 0.62583(15)
C38 C 0.5012(2) 0.3414(2) 0.61999(17)
H28 H 0.5780 0.3777 0.6292
H29 H 0.4970 0.3113 0.5632
C39 C 0.4968(3) 0.26554(19) 0.68550(17)
H30 H 0.4280 0.2217 0.6695
H31 H 0.5703 0.2302 0.6853
C40 C 0.4854(2) 0.30686(19) 0.77402(17)
C41 C 0.4160(2) 0.38733(17) 0.78315(16)
C42 C 0.3578(2) 0.42903(17) 0.70681(15)
C43 C 0.5380(3) 0.2677(2) 0.8469(2)
H32 H 0.5864 0.2157 0.8416
C44 C 0.5192(3) 0.3051(2) 0.9268(2)
H33 H 0.5530 0.2771 0.9751
C45 C 0.4500(3) 0.3844(2) 0.93592(18)
H34 H 0.4385 0.4098 0.9901
C46 C 0.3983(2) 0.42575(19) 0.86440(16)
C47 C 0.3248(3) 0.51340(19) 0.87015(17)
H35 H 0.3765 0.5690 0.8622
H36 H 0.2949 0.5197 0.9264
C48 C 0.2182(2) 0.50797(19) 0.80303(15)
H37 H 0.1766 0.5671 0.8046
H38 H 0.1610 0.4574 0.8153
C49 C 0.2107(2) 0.53112(17) 0.64267(15)
H39 H 0.1457 0.5704 0.6477
C50 C 0.2960(2) 0.72147(17) 0.57992(15)
C51 C 0.4071(2) 0.68719(18) 0.61190(16)
H40 H 0.4353 0.6326 0.5864
C52 C 0.4761(2) 0.73205(18) 0.68022(16)
C53 C 0.5957(2) 0.6953(2) 0.71527(18)
H41 H 0.6620 0.7282 0.6901
H42 H 0.5982 0.6284 0.6997
C54 C 0.6124(3) 0.70977(19) 0.81193(18)
H43 H 0.5548 0.6681 0.8375
H44 H 0.6938 0.6931 0.8318
C55 C 0.5931(2) 0.81108(19) 0.83995(17)
C56 C 0.5064(2) 0.86199(18) 0.79280(16)
C57 C 0.4353(2) 0.81537(17) 0.71850(15)
C58 C 0.6574(3) 0.8555(2) 0.91124(17)
H45 H 0.7160 0.8231 0.9425
C59 C 0.6344(3) 0.9480(2) 0.93594(18)
H46 H 0.6767 0.9766 0.9844
C60 C 0.5497(3) 0.9979(2) 0.88940(18)
H47 H 0.5359 1.0601 0.9064
C61 C 0.4845(2) 0.95598(19) 0.81730(17)
C62 C 0.3940(2) 1.00781(19) 0.76200(18)
H48 H 0.4335 1.0324 0.7140
H49 H 0.3658 1.0611 0.7948
C63 C 0.2851(2) 0.94271(18) 0.72880(18)
H50 H 0.2378 0.9263 0.7760
H51 H 0.2332 0.9757 0.6883
C64 C 0.3268(2) 0.85308(17) 0.68571(16)
C65 C 0.2594(2) 0.80630(18) 0.61679(15)
H52 H 0.1881 0.8322 0.5947
C66 C 0.2615(2) 0.48957(17) 0.71485(15)
loop_
_geom_bond_atom_site_label_1
_geom_bond_atom_site_label_2
_geom_bond_site_symmetry_1
_geom_bond_site_symmetry_2
C1 C2 1_555 1_555
C2 C3 1_555 1_555
C3 C4 1_555 1_555
C4 H1 1_555 1_555
C5 C4 1_555 1_555
C6 C5 1_555 1_555
H2 C6 1_555 1_555
H3 C6 1_555 1_555
C7 C6 1_555 1_555
H4 C7 1_555 1_555
H5 C7 1_555 1_555
C8 C7 1_555 1_555
C9 C8 1_555 1_555
C10 C5 1_555 1_555
C11 C8 1_555 1_555
H6 C11 1_555 1_555
C12 C11 1_555 1_555
H7 C12 1_555 1_555
C13 C12 1_555 1_555
H8 C13 1_555 1_555
C14 C9 1_555 1_555
C15 C14 1_555 1_555
H9 C15 1_555 1_555
H10 C15 1_555 1_555
C16 C15 1_555 1_555
H11 C16 1_555 1_555
H12 C16 1_555 1_555
C17 C10 1_555 1_555
C18 C3 1_555 1_555
H13 C18 1_555 1_555
C19 C1 1_555 1_555
C20 C19 1_555 1_555
H14 C20 1_555 1_555
C21 C20 1_555 1_555
C22 C21 1_555 1_555
H15 C22 1_555 1_555
H16 C22 1_555 1_555
C23 C22 1_555 1_555
H17 C23 1_555 1_555
H18 C23 1_555 1_555
C24 C23 1_555 1_555
C25 C24 1_555 1_555
C26 C21 1_555 1_555
C27 C24 1_555 1_555
H19 C27 1_555 1_555
C28 C27 1_555 1_555
H20 C28 1_555 1_555
C29 C28 1_555 1_555
H21 C29 1_555 1_555
C30 C25 1_555 1_555
C31 C30 1_555 1_555
H22 C31 1_555 1_555
H23 C31 1_555 1_555
C32 C31 1_555 1_555
H24 C32 1_555 1_555
H25 C32 1_555 1_555
C33 C26 1_555 1_555
C34 C19 1_555 1_555
H26 C34 1_555 1_555
C35 C1 1_555 1_555
C36 C35 1_555 1_555
H27 C36 1_555 1_555
C37 C36 1_555 1_555
C38 C37 1_555 1_555
H28 C38 1_555 1_555
H29 C38 1_555 1_555
C39 C38 1_555 1_555
H30 C39 1_555 1_555
H31 C39 1_555 1_555
C40 C39 1_555 1_555
C41 C40 1_555 1_555
C42 C37 1_555 1_555
C43 C40 1_555 1_555
H32 C43 1_555 1_555
C44 C43 1_555 1_555
H33 C44 1_555 1_555
C45 C44 1_555 1_555
H34 C45 1_555 1_555
C46 C41 1_555 1_555
C47 C46 1_555 1_555
H35 C47 1_555 1_555
H36 C47 1_555 1_555
C48 C47 1_555 1_555
H37 C48 1_555 1_555
H38 C48 1_555 1_555
C49 C35 1_555 1_555
H39 C49 1_555 1_555
C50 C2 1_555 1_555
C51 C50 1_555 1_555
H40 C51 1_555 1_555
C52 C51 1_555 1_555
C53 C52 1_555 1_555
H41 C53 1_555 1_555
H42 C53 1_555 1_555
C54 C53 1_555 1_555
H43 C54 1_555 1_555
H44 C54 1_555 1_555
C55 C54 1_555 1_555
C56 C55 1_555 1_555
C57 C52 1_555 1_555
C58 C55 1_555 1_555
H45 C58 1_555 1_555
C59 C58 1_555 1_555
H46 C59 1_555 1_555
C60 C59 1_555 1_555
H47 C60 1_555 1_555
C61 C56 1_555 1_555
C62 C61 1_555 1_555
H48 C62 1_555 1_555
H49 C62 1_555 1_555
C63 C62 1_555 1_555
H50 C63 1_555 1_555
H51 C63 1_555 1_555
C64 C57 1_555 1_555
C65 C50 1_555 1_555
H52 C65 1_555 1_555
C66 C42 1_555 1_555
C9 C10 1_555 1_555
C13 C14 1_555 1_555
C16 C17 1_555 1_555
C17 C18 1_555 1_555
C25 C26 1_555 1_555
C29 C30 1_555 1_555
C32 C33 1_555 1_555
C33 C34 1_555 1_555
C41 C42 1_555 1_555
C45 C46 1_555 1_555
C48 C66 1_555 1_555
C49 C66 1_555 1_555
C56 C57 1_555 1_555
C60 C61 1_555 1_555
C63 C64 1_555 1_555
C64 C65 1_555 1_555

#END
