
#######################################################################
#
#                 Cambridge Crystallographic Data Centre
#                                CCDC 
#
#######################################################################
#
# If this CIF has been generated from an entry in the Cambridge 
# Structural Database, then it will include bibliographic, chemical, 
# crystal, experimental, refinement or atomic coordinate data resulting 
# from the CCDC's data processing and validation procedures.
#
#######################################################################

data_GABPEH
_chemical_formula_moiety         'C17 H22 I1 N1 O5'
_chemical_name_systematic        
'1-t-Butyl 2-methyl 4-(4-iodophenoxy)pyrrolidine-1,2-dicarboxylate'
_symmetry_cell_setting           monoclinic
_symmetry_space_group_name_H-M   'P 21'
_symmetry_Int_Tables_number      4
_space_group_name_Hall           'P 2yb'
loop_
_symmetry_equiv_pos_site_id
_symmetry_equiv_pos_as_xyz
1 x,y,z
2 -x,1/2+y,-z
_cell_length_a                   6.5131(13)
_cell_length_b                   16.581(3)
_cell_length_c                   8.9446(18)
_cell_angle_alpha                90
_cell_angle_beta                 95.961(3)
_cell_angle_gamma                90
_cell_volume                     960.737
_exptl_crystal_colour            colorless
_exptl_crystal_description       block
_cell_formula_units_Z            2
loop_
_atom_site_label
_atom_site_type_symbol
_atom_site_fract_x
_atom_site_fract_y
_atom_site_fract_z
C1 C 1.1765(7) 0.6926(4) 0.3126(5)
C2 C 1.0454(7) 0.6172(3) 0.2903(6)
H1 H 1.1164 0.5772 0.2296
C3 C 0.8280(8) 0.6352(3) 0.2110(6)
H2 H 0.7804 0.6895 0.2380
H3 H 0.8269 0.6318 0.1004
C4 C 0.6938(8) 0.5697(3) 0.2698(6)
H4 H 0.5449 0.5856 0.2593
C5 C 0.7788(7) 0.5612(3) 0.4345(5)
H5 H 0.7129 0.6001 0.4986
H6 H 0.7584 0.5058 0.4718
C6 C 1.1507(7) 0.5619(3) 0.5390(5)
C7 C 1.2175(8) 0.4929(4) 0.7814(6)
C8 C 1.0670(10) 0.4578(5) 0.8849(7)
H7 H 0.9780 0.5009 0.9166
H8 H 1.1448 0.4338 0.9736
H9 H 0.9818 0.4163 0.8308
C9 C 1.3492(12) 0.5579(5) 0.8615(8)
H10 H 1.4376 0.5823 0.7916
H11 H 1.4355 0.5342 0.9466
H12 H 1.2599 0.5995 0.8984
C10 C 1.3440(12) 0.4261(5) 0.7201(8)
H13 H 1.2517 0.3880 0.6627
H14 H 1.4224 0.3978 0.8037
H15 H 1.4398 0.4493 0.6543
C11 C 1.2525(11) 0.8074(4) 0.4641(9)
H16 H 1.3963 0.7901 0.4863
H17 H 1.2064 0.8338 0.5528
H18 H 1.2419 0.8454 0.3798
C12 C 0.4279(8) 0.4371(3) 0.2833(6)
H19 H 0.4044 0.4835 0.3415
C13 C 0.2960(8) 0.3714(3) 0.2840(6)
H20 H 0.1809 0.3734 0.3410
C14 C 0.3310(8) 0.3034(3) 0.2025(6)
C15 C 0.4964(8) 0.3005(3) 0.1161(6)
H21 H 0.5198 0.2535 0.0593
C16 C 0.6271(10) 0.3664(4) 0.1132(7)
H22 H 0.7393 0.3648 0.0534
C17 C 0.5941(7) 0.4352(3) 0.1980(5)
I1 I 0.13246(5) 0.20461(3) 0.21343(4)
N1 N 0.9979(6) 0.5792(3) 0.4308(4)
O1 O 1.3068(5) 0.7091(4) 0.2317(4)
O2 O 1.1230(6) 0.7374(2) 0.4248(4)
O3 O 1.3318(5) 0.5758(2) 0.5268(4)
O4 O 1.0757(5) 0.5275(2) 0.6582(4)
O5 O 0.7265(6) 0.4977(2) 0.1864(4)
loop_
_geom_bond_atom_site_label_1
_geom_bond_atom_site_label_2
_geom_bond_site_symmetry_1
_geom_bond_site_symmetry_2
C1 C2 1_555 1_555
C2 H1 1_555 1_555
C3 C2 1_555 1_555
H2 C3 1_555 1_555
H3 C3 1_555 1_555
C4 C3 1_555 1_555
H4 C4 1_555 1_555
C5 C4 1_555 1_555
H5 C5 1_555 1_555
H6 C5 1_555 1_555
C6 N1 1_555 1_555
C7 C8 1_555 1_555
C8 H7 1_555 1_555
H8 C8 1_555 1_555
H9 C8 1_555 1_555
C9 C7 1_555 1_555
H10 C9 1_555 1_555
H11 C9 1_555 1_555
H12 C9 1_555 1_555
C10 C7 1_555 1_555
H13 C10 1_555 1_555
H14 C10 1_555 1_555
H15 C10 1_555 1_555
C11 H16 1_555 1_555
H17 C11 1_555 1_555
H18 C11 1_555 1_555
C12 H19 1_555 1_555
C13 C12 1_555 1_555
H20 C13 1_555 1_555
C14 C13 1_555 1_555
C15 C14 1_555 1_555
H21 C15 1_555 1_555
C16 C15 1_555 1_555
H22 C16 1_555 1_555
C17 C12 1_555 1_555
I1 C14 1_555 1_555
N1 C2 1_555 1_555
O1 C1 1_555 1_555
O2 C1 1_555 1_555
O3 C6 1_555 1_555
O4 C6 1_555 1_555
O5 C4 1_555 1_555
C5 N1 1_555 1_555
C7 O4 1_555 1_555
C11 O2 1_555 1_555
C16 C17 1_555 1_555
C17 O5 1_555 1_555

#END
