
#######################################################################
#
#                 Cambridge Crystallographic Data Centre
#                                CCDC 
#
#######################################################################
#
# If this CIF has been generated from an entry in the Cambridge 
# Structural Database, then it will include bibliographic, chemical, 
# crystal, experimental, refinement or atomic coordinate data resulting 
# from the CCDC's data processing and validation procedures.
#
#######################################################################

data_GACKED
_chemical_compound_source        
'cultures of the fungus Penicillium sp. sh18 endophytic to the stems of Isodon eriocalyx var. laxiflora'
_chemical_name_common            
'Methyl 5-(hexa-1,3-dien-1-yl)-5-methyl-4-oxo-2-(1,7,8-trihydroxy-6-methoxy-1,3-dimethyl-4-oxo-1,2,3,4-tetrahydronaphthalen-2-yl)-4,5-dihydrofuran-3-carboxylate'
_chemical_formula_moiety         'C26 H30 O9'
_chemical_name_systematic        'Penicilfuranone A'
_chemical_properties_biological  'antifibrotic activity'
_symmetry_cell_setting           orthorhombic
_symmetry_space_group_name_H-M   'P 21 21 21'
_symmetry_Int_Tables_number      19
_space_group_name_Hall           'P 2ac 2ab'
loop_
_symmetry_equiv_pos_site_id
_symmetry_equiv_pos_as_xyz
1 x,y,z
2 1/2+x,1/2-y,-z
3 -x,1/2+y,1/2-z
4 1/2-x,-y,1/2+z
_cell_length_a                   8.4640(3)
_cell_length_b                   15.4214(5)
_cell_length_c                   19.4594(7)
_cell_angle_alpha                90
_cell_angle_beta                 90
_cell_angle_gamma                90
_cell_volume                     2539.97
_exptl_crystal_colour            gold
_exptl_crystal_description       block
_cell_formula_units_Z            4
_exptl_crystal_preparation       'Magnetic properties'
loop_
_atom_site_label
_atom_site_type_symbol
_atom_site_fract_x
_atom_site_fract_y
_atom_site_fract_z
O1 O 0.0176(2) 0.52816(12) 0.85143(9)
O2 O 0.2872(2) 0.54341(13) 1.13673(9)
O3 O 0.3498(2) 0.61263(13) 0.81775(9)
H1 H 0.4347 0.5984 0.8370
O4 O -0.1549(2) 0.63883(14) 0.97479(10)
O5 O 0.5400(2) 0.62329(13) 0.93012(9)
H2 H 0.6174 0.6221 0.9571
O6 O 0.5543(2) 0.57335(13) 1.06090(9)
H3 H 0.6226 0.5846 1.0308
O7 O 0.0973(4) 0.68106(14) 0.67114(10)
O8 O -0.0790(3) 0.58947(15) 0.62698(10)
O9 O -0.1154(3) 0.42926(14) 0.69873(10)
C1 C 0.5730(9) 0.1708(4) 0.9475(4)
H4 H 0.6507 0.2100 0.9681
H5 H 0.6189 0.1126 0.9433
H6 H 0.4789 0.1682 0.9767
C2 C 0.5277(8) 0.2037(3) 0.8771(3)
H7 H 0.6246 0.2119 0.8493
H8 H 0.4615 0.1597 0.8538
C3 C 0.4385(6) 0.2882(3) 0.8803(3)
H9 H 0.4854 0.3361 0.9032
C4 C 0.2983(5) 0.2978(2) 0.8525(2)
H10 H 0.2551 0.2485 0.8301
C5 C 0.2032(4) 0.3749(2) 0.85220(16)
H11 H 0.2443 0.4262 0.8723
C6 C 0.0591(4) 0.3767(2) 0.82465(14)
H12 H 0.0211 0.3232 0.8068
C7 C -0.0492(4) 0.45163(18) 0.81835(13)
C8 C 0.0416(3) 0.58925(16) 0.80349(12)
C9 C 0.0972(3) 0.67462(17) 0.82975(12)
H13 H 0.1016 0.7152 0.7897
C10 C 0.2639(3) 0.67103(16) 0.86132(12)
C11 C 0.2609(3) 0.63763(15) 0.93582(12)
C12 C 0.4036(3) 0.61615(16) 0.96662(13)
C13 C 0.4094(3) 0.58725(17) 1.03500(13)
C14 C 0.2684(4) 0.57507(16) 1.07118(13)
C15 C 0.1478(4) 0.5358(2) 1.17760(14)
H14 H 0.1037 0.5936 1.1860
H15 H 0.1742 0.5084 1.2216
H16 H 0.0698 0.5003 1.1533
C16 C 0.3378(3) 0.76141(19) 0.85854(14)
H17 H 0.4436 0.7596 0.8789
H18 H 0.2717 0.8022 0.8843
H19 H 0.3455 0.7804 0.8106
C17 C 0.1231(3) 0.62931(16) 0.97382(12)
C18 C -0.0313(3) 0.65671(17) 0.94600(12)
C19 C -0.0264(3) 0.71141(16) 0.88118(13)
H20 H 0.0132 0.7698 0.8953
C20 C -0.1874(3) 0.72614(19) 0.84840(15)
H21 H -0.2281 0.6710 0.8306
H22 H -0.1773 0.7678 0.8106
H23 H -0.2607 0.7491 0.8829
C21 C 0.1257(3) 0.59597(17) 1.04167(12)
H24 H 0.0301 0.5882 1.0665
C22 C -0.0025(3) 0.56484(17) 0.73902(13)
C23 C 0.0145(4) 0.61902(18) 0.67702(13)
C24 C -0.0615(7) 0.6319(3) 0.56088(17)
H25 H -0.0906 0.6932 0.5652
H26 H -0.1305 0.6039 0.5271
H27 H 0.0486 0.6275 0.5457
C25 C -0.0638(3) 0.47788(19) 0.74279(13)
C26 C -0.2125(5) 0.4354(3) 0.85037(17)
H28 H -0.2010 0.4262 0.9000
H29 H -0.2601 0.3838 0.8294
H30 H -0.2806 0.4857 0.8421
loop_
_geom_bond_atom_site_label_1
_geom_bond_atom_site_label_2
_geom_bond_site_symmetry_1
_geom_bond_site_symmetry_2
O1 C7 1_555 1_555
O2 C14 1_555 1_555
O3 H1 1_555 1_555
O4 C18 1_555 1_555
O5 H2 1_555 1_555
O6 H3 1_555 1_555
O7 C23 1_555 1_555
O8 C23 1_555 1_555
O9 C25 1_555 1_555
C1 H4 1_555 1_555
H5 C1 1_555 1_555
H6 C1 1_555 1_555
C2 C1 1_555 1_555
H7 C2 1_555 1_555
H8 C2 1_555 1_555
C3 C2 1_555 1_555
H9 C3 1_555 1_555
C4 C3 1_555 1_555
H10 C4 1_555 1_555
C5 C4 1_555 1_555
H11 C5 1_555 1_555
C6 C5 1_555 1_555
H12 C6 1_555 1_555
C7 C6 1_555 1_555
C8 O1 1_555 1_555
C9 C8 1_555 1_555
H13 C9 1_555 1_555
C10 O3 1_555 1_555
C11 C10 1_555 1_555
C12 O5 1_555 1_555
C13 O6 1_555 1_555
C14 C13 1_555 1_555
C15 O2 1_555 1_555
H14 C15 1_555 1_555
H15 C15 1_555 1_555
H16 C15 1_555 1_555
C16 C10 1_555 1_555
H17 C16 1_555 1_555
H18 C16 1_555 1_555
H19 C16 1_555 1_555
C17 C11 1_555 1_555
C18 C17 1_555 1_555
C19 C9 1_555 1_555
H20 C19 1_555 1_555
C20 C19 1_555 1_555
H21 C20 1_555 1_555
H22 C20 1_555 1_555
H23 C20 1_555 1_555
C21 C14 1_555 1_555
H24 C21 1_555 1_555
C22 C8 1_555 1_555
C23 C22 1_555 1_555
C24 O8 1_555 1_555
H25 C24 1_555 1_555
H26 C24 1_555 1_555
H27 C24 1_555 1_555
C25 C7 1_555 1_555
C26 C7 1_555 1_555
H28 C26 1_555 1_555
H29 C26 1_555 1_555
H30 C26 1_555 1_555
C9 C10 1_555 1_555
C11 C12 1_555 1_555
C12 C13 1_555 1_555
C17 C21 1_555 1_555
C18 C19 1_555 1_555
C22 C25 1_555 1_555

#END
