
#######################################################################
#
#                 Cambridge Crystallographic Data Centre
#                                CCDC 
#
#######################################################################
#
# If this CIF has been generated from an entry in the Cambridge 
# Structural Database, then it will include bibliographic, chemical, 
# crystal, experimental, refinement or atomic coordinate data resulting 
# from the CCDC's data processing and validation procedures.
#
#######################################################################

data_GACPUV
_chemical_formula_moiety         'C12 H11 F1 O1'
_chemical_name_systematic        2-Fluoro-1-(p-methoxyphenyl)-pent-1-en-3-yne
_symmetry_cell_setting           monoclinic
_symmetry_space_group_name_H-M   'P 21/n'
_symmetry_Int_Tables_number      14
_space_group_name_Hall           '-P 2yn'
loop_
_symmetry_equiv_pos_site_id
_symmetry_equiv_pos_as_xyz
1 x,y,z
2 1/2-x,1/2+y,1/2-z
3 -x,-y,-z
4 1/2+x,1/2-y,1/2+z
_cell_length_a                   10.486(2)
_cell_length_b                   7.4850(10)
_cell_length_c                   13.406(2)
_cell_angle_alpha                90
_cell_angle_beta                 105.98
_cell_angle_gamma                90
_cell_volume                     1011.55
_exptl_crystal_colour            white
_exptl_crystal_description       prism
_cell_formula_units_Z            4
loop_
_atom_site_label
_atom_site_type_symbol
_atom_site_fract_x
_atom_site_fract_y
_atom_site_fract_z
F1 F -0.21308(14) 0.1125(3) 0.34296(11)
O1 O 0.4196(2) 0.2132(3) 0.45225(14)
C1 C -0.6046(2) 0.1337(4) 0.0669(2)
H1 H -0.6499(2) 0.2418(4) 0.0752(2)
H2 H -0.6471(2) 0.0292(4) 0.0842(2)
H3 H -0.6002(2) 0.1323(4) -0.0037(2)
C2 C -0.4671(3) 0.1455(4) 0.1294(2)
C3 C -0.3547(3) 0.1526(4) 0.1793(2)
C4 C -0.2216(2) 0.1558(4) 0.2422(2)
C5 C -0.1133(2) 0.1941(4) 0.2155(2)
H4 H -0.1266(2) 0.2244(4) 0.1438(2)
C6 C 0.0245(2) 0.1970(3) 0.2773(2)
C7 C 0.0695(2) 0.1191(3) 0.3759(2)
H5 H 0.0073(2) 0.0583(3) 0.4047(2)
C8 C 0.2012(2) 0.1273(3) 0.4306(2)
H6 H 0.2302(2) 0.0725(3) 0.4978(2)
C9 C 0.2930(2) 0.2125(3) 0.3898(2)
C10 C 0.2510(2) 0.2899(4) 0.2926(2)
H7 H 0.3135(2) 0.3492(4) 0.2633(2)
C11 C 0.1194(2) 0.2805(4) 0.2383(2)
H8 H 0.0910(2) 0.3338(4) 0.1706(2)
C12 C 0.5194(3) 0.2858(6) 0.4134(3)
H9 H 0.6036(3) 0.2773(6) 0.4647(3)
H10 H 0.5235(3) 0.2236(6) 0.3518(3)
H11 H 0.4985(3) 0.4092(6) 0.3972(3)
loop_
_geom_bond_atom_site_label_1
_geom_bond_atom_site_label_2
_geom_bond_site_symmetry_1
_geom_bond_site_symmetry_2
F1 C4 1_555 1_555
O1 C9 1_555 1_555
C1 H1 1_555 1_555
H2 C1 1_555 1_555
H3 C1 1_555 1_555
C2 C1 1_555 1_555
C3 C2 1_555 1_555
C4 C3 1_555 1_555
C5 C4 1_555 1_555
H4 C5 1_555 1_555
C6 C5 1_555 1_555
C7 C6 1_555 1_555
H5 C7 1_555 1_555
C8 C7 1_555 1_555
H6 C8 1_555 1_555
C9 C8 1_555 1_555
C10 C9 1_555 1_555
H7 C10 1_555 1_555
C11 C6 1_555 1_555
H8 C11 1_555 1_555
C12 O1 1_555 1_555
H9 C12 1_555 1_555
H10 C12 1_555 1_555
H11 C12 1_555 1_555
C10 C11 1_555 1_555

#END
