
#######################################################################
#
#                 Cambridge Crystallographic Data Centre
#                                CCDC 
#
#######################################################################
#
# If this CIF has been generated from an entry in the Cambridge 
# Structural Database, then it will include bibliographic, chemical, 
# crystal, experimental, refinement or atomic coordinate data resulting 
# from the CCDC's data processing and validation procedures.
#
#######################################################################

data_GACVIP
_chemical_formula_moiety         'C8 H10 N1 O2 1+,C50 H60 O6,Cl1 O4 1-,C4 H8 O2'
_chemical_name_systematic        
"Phenylglycine 3,4,5,6,7,8,9,10,22,23,24,25,26,27,28,29-hexadecahydro-1,12-dimethyl-1,4,7,12,15,18-hexaoxa-(2,1-h:1',2'-j:2'',1''-s:1''',2'''-u)tetranaphthocyclodocosane perchlorate ethyl acetate solvate"
_symmetry_cell_setting           monoclinic
_symmetry_space_group_name_H-M   'P 21'
_symmetry_Int_Tables_number      4
_space_group_name_Hall           'P 2yb'
loop_
_symmetry_equiv_pos_site_id
_symmetry_equiv_pos_as_xyz
1 x,y,z
2 -x,1/2+y,-z
_cell_length_a                   10.054(3)
_cell_length_b                   24.075(7)
_cell_length_c                   22.414(6)
_cell_angle_alpha                90
_cell_angle_beta                 98.52(2)
_cell_angle_gamma                90
_cell_volume                     5365.44
_exptl_crystal_colour            colorless
_cell_formula_units_Z            4
loop_
_atom_site_label
_atom_site_type_symbol
_atom_site_fract_x
_atom_site_fract_y
_atom_site_fract_z
Cl1 Cl 0.04840(25) -0.45259 -0.04797(14)
O1 O -0.01353(76) -0.39912(32) -0.04961(37)
O2 O 0.18386(69) -0.44740(37) -0.06047(34)
O3 O 0.05144(65) -0.47507(30) 0.01324(34)
O4 O -0.02533(71) -0.48953(35) -0.09023(35)
Cl2 Cl 0.58431(29) -0.27595(15) 0.57161(19)
O5 O 0.72788(74) -0.27890(44) 0.57851(45)
O6 O 0.53957(93) -0.23851(41) 0.61377(47)
O7 O 0.52816(80) -0.32998(36) 0.57854(45)
O8 O 0.53894(72) -0.25616(38) 0.50948(45)
C1 C 0.1613(10) -0.1140(4) 0.8318(4)
C2 C 0.0638(11) -0.0707(4) 0.8219(5)
C3 C -0.0768(10) -0.0815(5) 0.8399(5)
H1 H -0.0702(10) -0.0774(5) 0.8882(5)
H2 H -0.1080(10) -0.1231(5) 0.8265(5)
C4 C -0.1806(12) -0.0409(5) 0.8098(5)
H3 H -0.1998(12) -0.0492(5) 0.7619(5)
H4 H -0.2727(12) -0.0457(5) 0.8287(5)
C5 C -0.1298(12) 0.0186(5) 0.8198(5)
H5 H -0.2092(12) 0.0476(5) 0.8040(5)
H6 H -0.0968(12) 0.0253(5) 0.8674(5)
C6 C -0.0107(12) 0.0269(5) 0.7850(5)
H7 H -0.0487(12) 0.0288(5) 0.7373(5)
H8 H 0.0388(12) 0.0656(5) 0.7990(5)
C7 C 0.0914(10) -0.0206(5) 0.7963(5)
C8 C 0.2185(10) -0.0129(5) 0.7783(5)
H9 H 0.2408(10) 0.0262(5) 0.7582(5)
C9 C 0.3160(11) -0.0541(4) 0.7857(5)
H10 H 0.4116(11) -0.0481(4) 0.7701(5)
C10 C 0.2876(10) -0.1033(4) 0.8137(4)
O9 O 0.3819(7) -0.1459(3) 0.8277(3)
C11 C 0.4929(11) -0.1467(5) 0.7943(5)
H11 H 0.4588(11) -0.1573(5) 0.7477(5)
H12 H 0.5417(11) -0.1067(5) 0.7966(5)
C12 C 0.5890(11) -0.1907(5) 0.8240(5)
H13 H 0.6628(11) -0.2013(5) 0.7953(5)
H14 H 0.5346(11) -0.2276(5) 0.8332(5)
O10 O 0.6532(7) -0.1654(3) 0.8797(3)
C13 C 0.7642(11) -0.1980(4) 0.9102(5)
H15 H 0.8312(11) -0.2084(4) 0.8783(5)
H16 H 0.8177(11) -0.1734(4) 0.9463(5)
C14 C 0.7155(11) -0.2518(4) 0.9369(5)
H17 H 0.7970(11) -0.2716(4) 0.9660(5)
H18 H 0.6751(11) -0.2801(4) 0.9015(5)
O11 O 0.6106(6) -0.2337(3) 0.9715(3)
C15 C 0.5705(10) -0.2755(4) 1.0093(4)
C16 C 0.4694(11) -0.3128(5) 0.9863(5)
C17 C 0.4067(12) -0.3107(5) 0.9201(5)
H19 H 0.4656(12) -0.2702(5) 0.9058(5)
H20 H 0.2988(12) -0.3151(5) 0.9101(5)
H21 H 0.4543(12) -0.3423(5) 0.8964(5)
C18 C 0.4321(11) -0.3508(4) 1.0256(5)
H22 H 0.3528(11) -0.3795(4) 1.0087(5)
C19 C 0.4866(11) -0.3548(5) 1.0858(5)
C20 C 0.4435(11) -0.4005(5) 1.1252(5)
H23 H 0.3353(11) -0.4039(5) 1.1158(5)
H24 H 0.4884(11) -0.4389(5) 1.1133(5)
C21 C 0.4826(11) -0.3914(5) 1.1922(5)
H25 H 0.4164(11) -0.3610(5) 1.2076(5)
H26 H 0.4742(11) -0.4301(5) 1.2158(5)
C22 C 0.6293(11) -0.3702(5) 1.2053(5)
H27 H 0.6946(11) -0.4000(5) 1.1881(5)
H28 H 0.6583(11) -0.3658(5) 1.2534(5)
C23 C 0.6423(11) -0.3153(4) 1.1754(4)
H29 H 0.5885(11) -0.2847(4) 1.1977(4)
H30 H 0.7476(11) -0.3044(4) 1.1807(4)
C24 C 0.5876(10) -0.3144(4) 1.1087(4)
C25 C 0.6300(10) -0.2773(4) 1.0689(4)
C26 C 0.7474(10) -0.2383(4) 1.0911(4)
C27 C 0.8833(10) -0.2614(4) 1.0995(5)
C28 C 0.9050(11) -0.3214(4) 1.0866(5)
H31 H 0.8720(11) -0.3461(4) 1.1219(5)
H32 H 0.8459(11) -0.3318(4) 1.0438(5)
C29 C 1.0524(12) -0.3347(5) 1.0834(5)
H33 H 1.0780(12) -0.3195(5) 1.0412(5)
H34 H 1.0661(12) -0.3792(5) 1.0858(5)
C30 C 1.1431(12) -0.3083(5) 1.1342(5)
H35 H 1.1157(12) -0.3226(5) 1.1764(5)
H36 H 1.2456(12) -0.3203(5) 1.1316(5)
C31 C 1.1328(10) -0.2461(4) 1.1319(5)
H37 H 1.1821(10) -0.2293(4) 1.1741(5)
H38 H 1.1830(10) -0.2314(4) 1.0955(5)
C32 C 0.9876(11) -0.2253(5) 1.1211(5)
C33 C 0.9633(10) -0.1698(4) 1.1336(4)
H39 H 1.0467(10) -0.1436(4) 1.1519(4)
C34 C 0.8339(10) -0.1471(4) 1.1227(4)
C35 C 0.8137(11) -0.0871(4) 1.1355(5)
H40 H 0.7074(11) -0.0844(4) 1.1379(5)
H41 H 0.8356(11) -0.0648(4) 1.0963(5)
H42 H 0.8699(11) -0.0692(4) 1.1757(5)
C36 C 0.7295(10) -0.1834(4) 1.1017(5)
O12 O 0.5994(7) -0.1602(3) 1.0897(3)
C37 C 0.5170(10) -0.1693(4) 1.1355(4)
H43 H 0.4754(10) -0.2107(4) 1.1310(4)
H44 H 0.5773(10) -0.1649(4) 1.1793(4)
C38 C 0.4038(10) -0.1274(4) 1.1292(5)
H45 H 0.4440(10) -0.0858(4) 1.1291(5)
H46 H 0.3469(10) -0.1318(4) 1.1662(5)
O13 O 0.3193(6) -0.1383(3) 1.0732(3)
C39 C 0.2226(10) -0.0935(4) 1.0588(4)
H47 H 0.1689(10) -0.0859(4) 1.0963(4)
H48 H 0.2732(10) -0.0559(4) 1.0484(4)
C40 C 0.1270(10) -0.1128(5) 1.0044(4)
H49 H 0.0574(10) -0.0797(5) 0.9896(4)
H50 H 0.0720(10) -0.1485(5) 1.0166(4)
O14 O 0.1993(7) -0.1277(3) 0.9559(3)
C41 C 0.1497(10) -0.1734(4) 0.9216(4)
C42 C 0.1284(10) -0.1670(4) 0.8597(5)
C43 C 0.0750(10) -0.2117(4) 0.8234(4)
C44 C 0.0506(11) -0.2057(5) 0.7546(5)
H51 H 0.1453(11) -0.2112(5) 0.7381(5)
H52 H 0.0131(11) -0.1643(5) 0.7438(5)
C45 C -0.0491(12) -0.2466(5) 0.7232(5)
H53 H -0.0428(12) -0.2455(5) 0.6755(5)
H54 H -0.1489(12) -0.2344(5) 0.7304(5)
C46 C -0.0242(14) -0.3042(5) 0.7453(6)
H55 H -0.1041(14) -0.3304(5) 0.7232(6)
H56 H 0.0708(14) -0.3181(5) 0.7336(6)
C47 C -0.0196(12) -0.3095(5) 0.8136(5)
H57 H 0.0344(12) -0.3471(5) 0.8282(5)
H58 H -0.1217(12) -0.3126(5) 0.8230(5)
C48 C 0.0474(11) -0.2618(4) 0.8500(5)
C49 C 0.0746(11) -0.2660(5) 0.9125(5)
H59 H 0.0545(11) -0.3050(5) 0.9332(5)
C50 C 0.1253(10) -0.2235(5) 0.9487(5)
H60 H 0.1456(10) -0.2285(5) 0.9971(5)
C51 C -0.1909(10) -0.6316(4) 0.6678(5)
C52 C -0.2846(10) -0.6736(4) 0.6758(4)
C53 C -0.4342(11) -0.6601(5) 0.6582(5)
H61 H -0.4576(11) -0.6596(5) 0.6096(5)
H62 H -0.4534(11) -0.6195(5) 0.6757(5)
C54 C -0.5253(11) -0.7018(4) 0.6827(5)
H63 H -0.5203(11) -0.6959(4) 0.7308(5)
H64 H -0.6275(11) -0.6957(4) 0.6609(5)
C55 C -0.4806(11) -0.7615(5) 0.6702(5)
H65 H -0.4777(11) -0.7664(5) 0.6225(5)
H66 H -0.5511(11) -0.7908(5) 0.6843(5)
C56 C -0.3407(11) -0.7721(5) 0.7054(5)
H67 H -0.3014(11) -0.8101(5) 0.6892(5)
H68 H -0.3485(11) -0.7764(5) 0.7528(5)
C57 C -0.2459(10) -0.7256(4) 0.6975(5)
C58 C -0.1079(11) -0.7357(5) 0.7160(5)
H69 H -0.0763(11) -0.7757(5) 0.7348(5)
C59 C -0.0103(11) -0.6949(4) 0.7111(5)
H70 H 0.0951(11) -0.7028(4) 0.7262(5)
C60 C -0.0540(11) -0.6442(5) 0.6859(5)
O15 O 0.0344(7) -0.6021(3) 0.6747(3)
C61 C 0.1763(11) -0.6097(5) 0.7023(5)
H71 H 0.1839(11) -0.6060(5) 0.7507(5)
H72 H 0.2103(11) -0.6503(5) 0.6910(5)
C62 C 0.2618(11) -0.5665(5) 0.6793(5)
H73 H 0.3573(11) -0.5635(5) 0.7083(5)
H74 H 0.2117(11) -0.5267(5) 0.6771(5)
O16 O 0.2812(7) -0.5835(3) 0.6213(3)
C63 C 0.3677(11) -0.5485(5) 0.5937(5)
H75 H 0.4578(11) -0.5413(5) 0.6255(5)
H76 H 0.3936(11) -0.5694(5) 0.5544(5)
C64 C 0.3063(10) -0.4932(5) 0.5742(5)
H77 H 0.3661(10) -0.4721(5) 0.5450(5)
H78 H 0.2982(10) -0.4676(5) 0.6131(5)
O17 O 0.1738(7) -0.5061(3) 0.5422(3)
C65 C 0.1036(10) -0.4601(5) 0.5139(5)
C66 C 0.0202(11) -0.4320(4) 0.5472(5)
C67 C 0.0125(12) -0.4433(5) 0.6117(5)
H79 H 0.0666(12) -0.4811(5) 0.6252(5)
H80 H -0.0913(12) -0.4479(5) 0.6182(5)
H81 H 0.0573(12) -0.4091(5) 0.6387(5)
C68 C -0.0559(10) -0.3903(4) 0.5158(5)
H82 H -0.1229(10) -0.3664(4) 0.5393(5)
C69 C -0.0503(10) -0.3782(4) 0.4559(4)
C70 C -0.1401(12) -0.3324(5) 0.4258(5)
H83 H -0.1201(12) -0.2952(5) 0.4527(5)
H84 H -0.2433(12) -0.3449(5) 0.4256(5)
C71 C -0.1228(12) -0.3185(5) 0.3625(5)
H85 H -0.2175(12) -0.3033(5) 0.3391(5)
H86 H -0.0477(12) -0.2862(5) 0.3637(5)
C72 C -0.0790(13) -0.3674(6) 0.3277(6)
H87 H -0.0587(13) -0.3531(6) 0.2842(6)
H88 H -0.1590(13) -0.3978(6) 0.3213(6)
C73 C 0.0449(11) -0.3943(5) 0.3604(5)
H89 H 0.1288(11) -0.3664(5) 0.3594(5)
H90 H 0.0628(11) -0.4325(5) 0.3377(5)
C74 C 0.0335(11) -0.4069(5) 0.4240(5)
C75 C 0.1140(10) -0.4514(4) 0.4541(5)
C76 C 0.2056(10) -0.4839(4) 0.4228(4)
C77 C 0.3286(11) -0.4633(5) 0.4119(5)
C78 C 0.3739(11) -0.4054(5) 0.4355(5)
H91 H 0.3133(11) -0.3748(5) 0.4088(5)
H92 H 0.3574(11) -0.4024(5) 0.4819(5)
C79 C 0.5223(11) -0.3928(5) 0.4325(5)
H93 H 0.5846(11) -0.4155(5) 0.4677(5)
H94 H 0.5404(11) -0.3488(5) 0.4387(5)
C80 C 0.5561(12) -0.4103(5) 0.3722(5)
H95 H 0.4855(12) -0.3915(5) 0.3370(5)
H96 H 0.6567(12) -0.3968(5) 0.3681(5)
C81 C 0.5483(11) -0.4732(4) 0.3659(5)
H97 H 0.5599(11) -0.4846(4) 0.3203(5)
H98 H 0.6281(11) -0.4918(4) 0.3970(5)
C82 C 0.4126(11) -0.4950(5) 0.3797(5)
C83 C 0.3719(11) -0.5469(5) 0.3596(5)
H99 H 0.4361(11) -0.5705(5) 0.3344(5)
C84 C 0.2505(11) -0.5705(4) 0.3704(5)
C85 C 0.2107(11) -0.6284(4) 0.3482(5)
H100 H 0.1092(11) -0.6396(4) 0.3537(5)
H101 H 0.2803(11) -0.6574(4) 0.3729(5)
H102 H 0.2211(11) -0.6298(4) 0.3010(5)
C86 C 0.1693(10) -0.5375(4) 0.4003(5)
O18 O 0.0479(7) -0.5611(3) 0.4135(3)
C87 C -0.0655 -0.5493(5) 0.3678(5)
H103 H -0.1062(11) -0.5088(5) 0.3755(5)
H104 H -0.0347(11) -0.5503(5) 0.3237(5)
C88 C -0.1705(10) -0.5940(4) 0.3725(5)
H105 H -0.1248(10) -0.6346(4) 0.3718(5)
H106 H -0.2512(10) -0.5904(4) 0.3352(5)
O19 O -0.2210(7) -0.5866(3) 0.4276(3)
C89 C -0.3048(10) -0.6308(4) 0.4402(5)
H107 H -0.3851(10) -0.6358(4) 0.4029(5)
H108 H -0.2462(10) -0.6685(4) 0.4462(5)
C90 C -0.3637(11) -0.6192(5) 0.4959(5)
H109 H -0.4219(11) -0.6545(5) 0.5067(5)
H110 H -0.4278(11) -0.5830(5) 0.4894(5)
O20 O -0.2535(7) -0.6093(3) 0.5447(3)
C91 C -0.2686(11) -0.5651(4) 0.5836(5)
C92 C -0.2349(10) -0.5767(4) 0.6454(5)
C93 C -0.2485(11) -0.5332(4) 0.6862(5)
C94 C -0.2160(11) -0.5417(5) 0.7539(5)
H111 H -0.1082(11) -0.5390(5) 0.7663(5)
H112 H -0.2496(11) -0.5827(5) 0.7643(5)
C95 C -0.2798(12) -0.5005(5) 0.7914(5)
H113 H -0.3874(12) -0.5064(5) 0.7850(5)
H114 H -0.2400(12) -0.5060(5) 0.8385(5)
C96 C -0.2469(13) -0.4415(5) 0.7709(5)
H115 H -0.1393(13) -0.4376(5) 0.7729(5)
H116 H -0.2821(13) -0.4114(5) 0.8007(5)
C97 C -0.3147(12) -0.4305(5) 0.7061(5)
H117 H -0.4214(12) -0.4252(5) 0.7060(5)
H118 H -0.2734(12) -0.3932(5) 0.6894(5)
C98 C -0.2918(11) -0.4795(5) 0.6650(5)
C99 C -0.3163(11) -0.4725(5) 0.6018(5)
H119 H -0.3467(11) -0.4319(5) 0.5842(5)
C100 C -0.3042(10) -0.5129(5) 0.5629(5)
H120 H -0.3222(10) -0.5046(5) 0.5150(5)
O21 O 0.2595(7) -0.6404(3) 0.4904(3)
C101 C 0.2172(10) -0.6702(5) 0.5247(5)
O22 O 0.2795(8) -0.7173(3) 0.5483(3)
H121 H 0.270(10) -0.7039(43) 0.5799(47)
C102 C 0.0756(10) -0.6653(4) 0.5432(5)
H122 H 0.0782(10) -0.6725(4) 0.5909(5)
N1 N 0.0288(8) -0.6079(3) 0.5270(4)
H123 H -0.0738(8) -0.6088(3) 0.5360(4)
H124 H 0.0306(8) -0.5936(3) 0.4815(4)
H125 H 0.0872(8) -0.5800(3) 0.5584(4)
C103 C -0.0187(10) -0.7090(4) 0.5115(4)
C104 C -0.1227(10) -0.7282(4) 0.5431(5)
H126 H -0.1314(10) -0.7126(4) 0.5875(5)
C105 C -0.2125(11) -0.7678(5) 0.5156(5)
H127 H -0.2926(11) -0.7826(5) 0.5386(5)
C106 C -0.2004(11) -0.7876(5) 0.4598(5)
H128 H -0.2703(11) -0.8186(5) 0.4393(5)
C107 C -0.0972(10) -0.7679(4) 0.4282(5)
H129 H -0.0887(10) -0.7837(4) 0.3838(5)
C108 C -0.0061(10) -0.7277(4) 0.4555(4)
H130 H 0.0728(10) -0.7121(4) 0.4322(4)
O23 O 0.7485(7) -0.0912(3) 0.9910(3)
C109 C 0.6751(10) -0.0586(4) 0.9618(5)
O24 O 0.7111(7) -0.0128(3) 0.9370(3)
H131 H 0.735(10) 0.0071(46) 0.9595(47)
C110 C 0.5225(10) -0.0661(4) 0.9489(5)
H132 H 0.4876(10) -0.0622(4) 0.9011(5)
N2 N 0.4899(8) -0.1236(3) 0.9700(3)
H133 H 0.3816(8) -0.1243(3) 0.9593(3)
H134 H 0.5187(8) -0.1267(3) 1.0182(3)
H135 H 0.5314(8) -0.1583(3) 0.9483(3)
C111 C 0.4540(10) -0.0222(4) 0.9805(4)
C112 C 0.3338(10) 0.0010(5) 0.9506(5)
H136 H 0.2903(10) -0.0128(5) 0.9061(5)
C113 C 0.2713(12) 0.0425(5) 0.9806(5)
H137 H 0.1798(12) 0.0613(5) 0.9582(5)
C114 C 0.3215(12) 0.0598(5) 1.0351(5)
H138 H 0.2687(12) 0.0911(5) 1.0570(5)
C115 C 0.4424(11) 0.0375(5) 1.0651(5)
H139 H 0.4837(11) 0.0518(5) 1.1097(5)
C116 C 0.5074(10) -0.0029(4) 1.0366(4)
H140 H 0.6013(10) -0.0198(4) 1.0589(4)
O25 O 0.2886(14) -0.3792(6) 0.7468(7)
O26 O 0.3768(18) -0.4512(8) 0.7564(8)
C117 C 0.1544(16) -0.4496(7) 0.7813(7)
H141 H 0.1978(16) -0.4696(7) 0.8228(7)
H142 H 0.0968(16) -0.4796(7) 0.7523(7)
H143 H 0.0894(16) -0.4163(7) 0.7912(7)
C118 C 0.2923(39) -0.4288(17) 0.7922(17)
C119 C 0.3737(25) -0.3498(10) 0.7166(11)
H144 H 0.4728(25) -0.3663(10) 0.7319(11)
H145 H 0.3461(25) -0.3584(10) 0.6691(11)
C120 C 0.3890(29) -0.2890(13) 0.7243(13)
H146 H 0.4813(29) -0.3037(13) 0.7106(13)
H147 H 0.3927(29) -0.2953(13) 0.7722(13)
H148 H 0.3772(29) -0.2452(13) 0.7141(13)
loop_
_geom_bond_atom_site_label_1
_geom_bond_atom_site_label_2
_geom_bond_site_symmetry_1
_geom_bond_site_symmetry_2
Cl1 O1 1_555 1_555
O2 Cl1 1_555 1_555
O3 Cl1 1_555 1_555
O4 Cl1 1_555 1_555
Cl2 O5 1_555 1_555
O6 Cl2 1_555 1_555
O7 Cl2 1_555 1_555
O8 Cl2 1_555 1_555
C1 C2 1_555 1_555
C2 C3 1_555 1_555
C3 H1 1_555 1_555
H2 C3 1_555 1_555
C4 C3 1_555 1_555
H3 C4 1_555 1_555
H4 C4 1_555 1_555
C5 C4 1_555 1_555
H5 C5 1_555 1_555
H6 C5 1_555 1_555
C6 C5 1_555 1_555
H7 C6 1_555 1_555
H8 C6 1_555 1_555
C7 C2 1_555 1_555
C8 C7 1_555 1_555
H9 C8 1_555 1_555
C9 C8 1_555 1_555
H10 C9 1_555 1_555
C10 C1 1_555 1_555
O9 C10 1_555 1_555
C11 O9 1_555 1_555
H11 C11 1_555 1_555
H12 C11 1_555 1_555
C12 C11 1_555 1_555
H13 C12 1_555 1_555
H14 C12 1_555 1_555
O10 C12 1_555 1_555
C13 O10 1_555 1_555
H15 C13 1_555 1_555
H16 C13 1_555 1_555
C14 C13 1_555 1_555
H17 C14 1_555 1_555
H18 C14 1_555 1_555
O11 C14 1_555 1_555
C15 O11 1_555 1_555
C16 C15 1_555 1_555
C17 C16 1_555 1_555
H19 C17 1_555 1_555
H20 C17 1_555 1_555
H21 C17 1_555 1_555
C18 C16 1_555 1_555
H22 C18 1_555 1_555
C19 C18 1_555 1_555
C20 C19 1_555 1_555
H23 C20 1_555 1_555
H24 C20 1_555 1_555
C21 C20 1_555 1_555
H25 C21 1_555 1_555
H26 C21 1_555 1_555
C22 C21 1_555 1_555
H27 C22 1_555 1_555
H28 C22 1_555 1_555
C23 C22 1_555 1_555
H29 C23 1_555 1_555
H30 C23 1_555 1_555
C24 C19 1_555 1_555
C25 C15 1_555 1_555
C26 C25 1_555 1_555
C27 C26 1_555 1_555
C28 C27 1_555 1_555
H31 C28 1_555 1_555
H32 C28 1_555 1_555
C29 C28 1_555 1_555
H33 C29 1_555 1_555
H34 C29 1_555 1_555
C30 C29 1_555 1_555
H35 C30 1_555 1_555
H36 C30 1_555 1_555
C31 C30 1_555 1_555
H37 C31 1_555 1_555
H38 C31 1_555 1_555
C32 C27 1_555 1_555
C33 C32 1_555 1_555
H39 C33 1_555 1_555
C34 C33 1_555 1_555
C35 C34 1_555 1_555
H40 C35 1_555 1_555
H41 C35 1_555 1_555
H42 C35 1_555 1_555
C36 C26 1_555 1_555
O12 C36 1_555 1_555
C37 O12 1_555 1_555
H43 C37 1_555 1_555
H44 C37 1_555 1_555
C38 C37 1_555 1_555
H45 C38 1_555 1_555
H46 C38 1_555 1_555
O13 C38 1_555 1_555
C39 O13 1_555 1_555
H47 C39 1_555 1_555
H48 C39 1_555 1_555
C40 C39 1_555 1_555
H49 C40 1_555 1_555
H50 C40 1_555 1_555
O14 C40 1_555 1_555
C41 O14 1_555 1_555
C42 C1 1_555 1_555
C43 C42 1_555 1_555
C44 C43 1_555 1_555
H51 C44 1_555 1_555
H52 C44 1_555 1_555
C45 C44 1_555 1_555
H53 C45 1_555 1_555
H54 C45 1_555 1_555
C46 C45 1_555 1_555
H55 C46 1_555 1_555
H56 C46 1_555 1_555
C47 C46 1_555 1_555
H57 C47 1_555 1_555
H58 C47 1_555 1_555
C48 C43 1_555 1_555
C49 C48 1_555 1_555
H59 C49 1_555 1_555
C50 C41 1_555 1_555
H60 C50 1_555 1_555
C51 C52 1_555 1_555
C52 C53 1_555 1_555
C53 H61 1_555 1_555
H62 C53 1_555 1_555
C54 C53 1_555 1_555
H63 C54 1_555 1_555
H64 C54 1_555 1_555
C55 C54 1_555 1_555
H65 C55 1_555 1_555
H66 C55 1_555 1_555
C56 C55 1_555 1_555
H67 C56 1_555 1_555
H68 C56 1_555 1_555
C57 C52 1_555 1_555
C58 C57 1_555 1_555
H69 C58 1_555 1_555
C59 C58 1_555 1_555
H70 C59 1_555 1_555
C60 C51 1_555 1_555
O15 C60 1_555 1_555
C61 O15 1_555 1_555
H71 C61 1_555 1_555
H72 C61 1_555 1_555
C62 C61 1_555 1_555
H73 C62 1_555 1_555
H74 C62 1_555 1_555
O16 C62 1_555 1_555
C63 O16 1_555 1_555
H75 C63 1_555 1_555
H76 C63 1_555 1_555
C64 C63 1_555 1_555
H77 C64 1_555 1_555
H78 C64 1_555 1_555
O17 C64 1_555 1_555
C65 O17 1_555 1_555
C66 C65 1_555 1_555
C67 C66 1_555 1_555
H79 C67 1_555 1_555
H80 C67 1_555 1_555
H81 C67 1_555 1_555
C68 C66 1_555 1_555
H82 C68 1_555 1_555
C69 C68 1_555 1_555
C70 C69 1_555 1_555
H83 C70 1_555 1_555
H84 C70 1_555 1_555
C71 C70 1_555 1_555
H85 C71 1_555 1_555
H86 C71 1_555 1_555
C72 C71 1_555 1_555
H87 C72 1_555 1_555
H88 C72 1_555 1_555
C73 C72 1_555 1_555
H89 C73 1_555 1_555
H90 C73 1_555 1_555
C74 C69 1_555 1_555
C75 C65 1_555 1_555
C76 C75 1_555 1_555
C77 C76 1_555 1_555
C78 C77 1_555 1_555
H91 C78 1_555 1_555
H92 C78 1_555 1_555
C79 C78 1_555 1_555
H93 C79 1_555 1_555
H94 C79 1_555 1_555
C80 C79 1_555 1_555
H95 C80 1_555 1_555
H96 C80 1_555 1_555
C81 C80 1_555 1_555
H97 C81 1_555 1_555
H98 C81 1_555 1_555
C82 C77 1_555 1_555
C83 C82 1_555 1_555
H99 C83 1_555 1_555
C84 C83 1_555 1_555
C85 C84 1_555 1_555
H100 C85 1_555 1_555
H101 C85 1_555 1_555
H102 C85 1_555 1_555
C86 C76 1_555 1_555
O18 C86 1_555 1_555
C87 O18 1_555 1_555
H103 C87 1_555 1_555
H104 C87 1_555 1_555
C88 C87 1_555 1_555
H105 C88 1_555 1_555
H106 C88 1_555 1_555
O19 C88 1_555 1_555
C89 O19 1_555 1_555
H107 C89 1_555 1_555
H108 C89 1_555 1_555
C90 C89 1_555 1_555
H109 C90 1_555 1_555
H110 C90 1_555 1_555
O20 C90 1_555 1_555
C91 O20 1_555 1_555
C92 C51 1_555 1_555
C93 C92 1_555 1_555
C94 C93 1_555 1_555
H111 C94 1_555 1_555
H112 C94 1_555 1_555
C95 C94 1_555 1_555
H113 C95 1_555 1_555
H114 C95 1_555 1_555
C96 C95 1_555 1_555
H115 C96 1_555 1_555
H116 C96 1_555 1_555
C97 C96 1_555 1_555
H117 C97 1_555 1_555
H118 C97 1_555 1_555
C98 C93 1_555 1_555
C99 C98 1_555 1_555
H119 C99 1_555 1_555
C100 C91 1_555 1_555
H120 C100 1_555 1_555
O21 C101 1_555 1_555
C101 O22 1_555 1_555
O22 H121 1_555 1_555
C102 C101 1_555 1_555
H122 C102 1_555 1_555
N1 C102 1_555 1_555
H123 N1 1_555 1_555
H124 N1 1_555 1_555
H125 N1 1_555 1_555
C103 C102 1_555 1_555
C104 C103 1_555 1_555
H126 C104 1_555 1_555
C105 C104 1_555 1_555
H127 C105 1_555 1_555
C106 C105 1_555 1_555
H128 C106 1_555 1_555
C107 C106 1_555 1_555
H129 C107 1_555 1_555
C108 C103 1_555 1_555
H130 C108 1_555 1_555
O23 C109 1_555 1_555
C109 O24 1_555 1_555
O24 H131 1_555 1_555
C110 C109 1_555 1_555
H132 C110 1_555 1_555
N2 C110 1_555 1_555
H133 N2 1_555 1_555
H134 N2 1_555 1_555
H135 N2 1_555 1_555
C111 C110 1_555 1_555
C112 C111 1_555 1_555
H136 C112 1_555 1_555
C113 C112 1_555 1_555
H137 C113 1_555 1_555
C114 C113 1_555 1_555
H138 C114 1_555 1_555
C115 C114 1_555 1_555
H139 C115 1_555 1_555
C116 C111 1_555 1_555
H140 C116 1_555 1_555
O25 C118 1_555 1_555
O26 C118 1_555 1_555
C117 H141 1_555 1_555
H142 C117 1_555 1_555
H143 C117 1_555 1_555
C118 C117 1_555 1_555
C119 O25 1_555 1_555
H144 C119 1_555 1_555
H145 C119 1_555 1_555
C120 C119 1_555 1_555
H146 C120 1_555 1_555
H147 C120 1_555 1_555
H148 C120 1_555 1_555
C6 C7 1_555 1_555
C9 C10 1_555 1_555
C23 C24 1_555 1_555
C24 C25 1_555 1_555
C31 C32 1_555 1_555
C34 C36 1_555 1_555
C41 C42 1_555 1_555
C47 C48 1_555 1_555
C49 C50 1_555 1_555
C56 C57 1_555 1_555
C59 C60 1_555 1_555
C73 C74 1_555 1_555
C74 C75 1_555 1_555
C81 C82 1_555 1_555
C84 C86 1_555 1_555
C91 C92 1_555 1_555
C97 C98 1_555 1_555
C99 C100 1_555 1_555
C107 C108 1_555 1_555
C115 C116 1_555 1_555

#END
