
#######################################################################
#
#                 Cambridge Crystallographic Data Centre
#                                CCDC 
#
#######################################################################
#
# If this CIF has been generated from an entry in the Cambridge 
# Structural Database, then it will include bibliographic, chemical, 
# crystal, experimental, refinement or atomic coordinate data resulting 
# from the CCDC's data processing and validation procedures.
#
#######################################################################

data_GACWEP
_chemical_name_common            'bis(Morpholine-4-carboxamidinium) sulfate'
_chemical_formula_moiety         '2(C5 H12 N3 O1 1+),O4 S1 2-'
_chemical_name_systematic        
'bis(amino(morpholin-4-yl)methaniminium) sulfate'
_symmetry_cell_setting           monoclinic
_symmetry_space_group_name_H-M   'P 21/c'
_symmetry_Int_Tables_number      14
_space_group_name_Hall           '-P 2ybc'
loop_
_symmetry_equiv_pos_site_id
_symmetry_equiv_pos_as_xyz
1 x,y,z
2 -x,1/2+y,1/2-z
3 -x,-y,-z
4 x,1/2-y,1/2+z
_cell_length_a                   9.7194(3)
_cell_length_b                   9.4737(3)
_cell_length_c                   17.9416(8)
_cell_angle_alpha                90
_cell_angle_beta                 105.386(1)
_cell_angle_gamma                90
_cell_volume                     1592.83
_exptl_crystal_colour            colorless
_exptl_crystal_description       block
_cell_formula_units_Z            4
loop_
_atom_site_label
_atom_site_type_symbol
_atom_site_fract_x
_atom_site_fract_y
_atom_site_fract_z
S1 S 0.34109(3) 0.04700(3) 0.13172(2)
O1 O 0.31289(9) 0.15120(10) 0.18623(5)
O2 O 0.20703(8) -0.01540(10) 0.08510(5)
O3 O 0.43384(9) -0.06576(9) 0.17503(5)
O4 O 0.41605(9) 0.11615(11) 0.07973(5)
N1 N 0.09034(11) 0.43956(12) 0.42911(6)
H1 H -0.0017(19) 0.4426(18) 0.4099(10)
H2 H 0.1265(17) 0.4464(17) 0.4800(10)
N2 N 0.31799(11) 0.46406(13) 0.41952(7)
H3 H 0.3434(18) 0.4373(18) 0.4698(11)
H4 H 0.381(2) 0.500(2) 0.3976(11)
C1 C 0.17786(12) 0.47050(14) 0.38565(8)
N3 N 0.1259(2) 0.4973(3) 0.30900(13)
C2 C -0.02492(16) 0.5293(2) 0.27179(10)
H5 H -0.0837 0.5078 0.3078
H6 H -0.0592 0.4702 0.2250
C3 C -0.03936(16) 0.6826(2) 0.24999(10)
H7 H -0.1402 0.7036 0.2233
H8 H -0.0119 0.7411 0.2974
O5 O 0.0492(3) 0.7181(5) 0.2004(2)
C4 C 0.19575(17) 0.6888(2) 0.23798(12)
H9 H 0.2263 0.7462 0.2856
H10 H 0.2557 0.7154 0.2034
C5 C 0.21679(19) 0.5350(3) 0.25823(12)
H11 H 0.1907 0.4771 0.2106
H12 H 0.3182 0.5167 0.2850
N5 N 0.50660(12) 0.65021(12) 0.16492(6)
H21 H 0.5630(18) 0.6385(18) 0.2122(10)
H22 H 0.4752(17) 0.729(2) 0.1504(10)
N6 N 0.48910(13) 0.41075(12) 0.15820(7)
H23 H 0.5246(19) 0.4134(19) 0.2073(11)
H24 H 0.448(2) 0.335(2) 0.1367(12)
C10 C 0.45058(14) 0.53623(14) 0.12572(8)
N7 N 0.3734(5) 0.5485(5) 0.0507(3)
C11 C 0.3111(3) 0.4280(2) 0.00101(13)
H25 H 0.3378 0.3388 0.0299
H26 H 0.3494 0.4256 -0.0449
C12 C 0.1510(3) 0.4412(2) -0.02445(18)
H27 H 0.1110 0.3621 -0.0595
H28 H 0.1126 0.4346 0.0213
O7 O 0.1069(6) 0.5720(5) -0.0634(3)
C13 C 0.1645(3) 0.6870(2) -0.01292(18)
H29 H 0.1277 0.6824 0.0335
H30 H 0.1323 0.7773 -0.0397
C14 C 0.3258(4) 0.6835(3) 0.01176(19)
H31 H 0.3636 0.6937 -0.0340
H32 H 0.3624 0.7628 0.0474
N4? N 0.1385(11) 0.5417(12) 0.3248(7)
C6? C -0.0061(8) 0.6053(10) 0.2992(5)
H13? H -0.0036 0.7025 0.3198
H14? H -0.0737 0.5494 0.3200
C7? C -0.0569(8) 0.6089(9) 0.2122(5)
H15? H -0.0608 0.5123 0.1908
H16? H -0.1534 0.6512 0.1953
O6? O 0.0459(16) 0.695(2) 0.1858(13)
C8? C 0.1742(8) 0.6091(11) 0.1992(5)
H17? H 0.2419 0.6510 0.1728
H18? H 0.1500 0.5125 0.1789
C9? C 0.2399(8) 0.6047(11) 0.2852(5)
H19? H 0.3286 0.5480 0.2965
H20? H 0.2650 0.7016 0.3048
N8? N 0.3402(9) 0.5432(9) 0.0630(5)
C15? C 0.2509(5) 0.4213(4) 0.0306(3)
H33? H 0.1683 0.4162 0.0529
H34? H 0.3070 0.3334 0.0441
C16? C 0.1994(6) 0.4346(5) -0.0553(3)
H35? H 0.2816 0.4246 -0.0777
H36? H 0.1320 0.3567 -0.0756
O8? O 0.1311(12) 0.5645(10) -0.0790(5)
C17? C 0.2220(8) 0.6785(5) -0.0515(3)
H37? H 0.1693 0.7674 -0.0681
H38? H 0.3029 0.6751 -0.0753
C18? C 0.2793(10) 0.6805(7) 0.0341(4)
H39? H 0.3538 0.7542 0.0489
H40? H 0.2016 0.7045 0.0581
loop_
_geom_bond_atom_site_label_1
_geom_bond_atom_site_label_2
_geom_bond_site_symmetry_1
_geom_bond_site_symmetry_2
S1 O1 1_555 1_555
O2 S1 1_555 1_555
O3 S1 1_555 1_555
O4 S1 1_555 1_555
N1 H1 1_555 1_555
H2 N1 1_555 1_555
N2 H3 1_555 1_555
H4 N2 1_555 1_555
C1 N1 1_555 1_555
N3 C1 1_555 1_555
C2 N3 1_555 1_555
H5 C2 1_555 1_555
H6 C2 1_555 1_555
C3 C2 1_555 1_555
H7 C3 1_555 1_555
H8 C3 1_555 1_555
O5 C3 1_555 1_555
C4 O5 1_555 1_555
H9 C4 1_555 1_555
H10 C4 1_555 1_555
C5 N3 1_555 1_555
H11 C5 1_555 1_555
H12 C5 1_555 1_555
N5 H21 1_555 1_555
H22 N5 1_555 1_555
N6 H23 1_555 1_555
H24 N6 1_555 1_555
C10 N5 1_555 1_555
N7 C10 1_555 1_555
C11 N7 1_555 1_555
H25 C11 1_555 1_555
H26 C11 1_555 1_555
C12 C11 1_555 1_555
H27 C12 1_555 1_555
H28 C12 1_555 1_555
O7 C12 1_555 1_555
C13 O7 1_555 1_555
H29 C13 1_555 1_555
H30 C13 1_555 1_555
C14 N7 1_555 1_555
H31 C14 1_555 1_555
H32 C14 1_555 1_555
N2 C1 1_555 1_555
C4 C5 1_555 1_555
N6 C10 1_555 1_555
C13 C14 1_555 1_555

#END
