
#######################################################################
#
#                 Cambridge Crystallographic Data Centre
#                                CCDC 
#
#######################################################################
#
# If this CIF has been generated from an entry in the Cambridge 
# Structural Database, then it will include bibliographic, chemical, 
# crystal, experimental, refinement or atomic coordinate data resulting 
# from the CCDC's data processing and validation procedures.
#
#######################################################################

data_GADFEZ
_chemical_formula_moiety         'C12 H11 N1 S1'
_chemical_name_systematic        2-(Phenylsulfanyl)aniline
_symmetry_cell_setting           orthorhombic
_symmetry_space_group_name_H-M   'F d d 2'
_symmetry_Int_Tables_number      43
_space_group_name_Hall           'F 2 -2d'
loop_
_symmetry_equiv_pos_site_id
_symmetry_equiv_pos_as_xyz
1 x,y,z
2 -x,-y,z
3 1/4+x,1/4-y,1/4+z
4 1/4-x,1/4+y,1/4+z
5 x,1/2+y,1/2+z
6 -x,1/2-y,1/2+z
7 1/4+x,3/4-y,3/4+z
8 1/4-x,3/4+y,3/4+z
9 1/2+x,y,1/2+z
10 1/2-x,-y,1/2+z
11 3/4+x,1/4-y,3/4+z
12 3/4-x,1/4+y,3/4+z
13 1/2+x,1/2+y,z
14 1/2-x,1/2-y,z
15 3/4+x,3/4-y,1/4+z
16 3/4-x,3/4+y,1/4+z
_cell_length_a                   17.7430(7)
_cell_length_b                   37.3075(19)
_cell_length_c                   6.1420(2)
_cell_angle_alpha                90
_cell_angle_beta                 90
_cell_angle_gamma                90
_cell_volume                     4065.68
_exptl_crystal_colour            colorless
_exptl_crystal_description       block
_cell_formula_units_Z            16
loop_
_atom_site_label
_atom_site_type_symbol
_atom_site_fract_x
_atom_site_fract_y
_atom_site_fract_z
S1 S 0.24353(3) 0.61620(2) 0.24971(10)
N1 N 0.15876(11) 0.61631(5) 0.6825(3)
C1 C 0.20904(11) 0.64429(6) 0.6541(4)
C2 C 0.25623(10) 0.64606(5) 0.4712(3)
C3 C 0.30828(12) 0.67388(5) 0.4495(4)
H1 H 0.3399 0.6748 0.3249
C4 C 0.31437(13) 0.70019(6) 0.6072(4)
H2 H 0.3500 0.7191 0.5920
C5 C 0.26753(13) 0.69856(6) 0.7883(4)
H3 H 0.2711 0.7165 0.8973
C6 C 0.21570(12) 0.67112(6) 0.8121(4)
H4 H 0.1843 0.6705 0.9373
C7 C 0.28473(12) 0.57490(6) 0.3348(4)
C8 C 0.32540(11) 0.57064(5) 0.5250(4)
H5 H 0.3286 0.5897 0.6272
C9 C 0.36152(12) 0.53829(6) 0.5658(4)
H6 H 0.3902 0.5354 0.6953
C10 C 0.35599(13) 0.51019(6) 0.4184(4)
H7 H 0.3815 0.4883 0.4457
C11 C 0.31329(12) 0.51427(6) 0.2318(4)
H8 H 0.3082 0.4948 0.1331
C12 C 0.27773(13) 0.54671(6) 0.1877(4)
H9 H 0.2489 0.5496 0.0585
H10 H 0.1217(10) 0.6211(6) 0.767(4)
H11 H 0.1497(15) 0.6036(6) 0.568(3)
loop_
_geom_bond_atom_site_label_1
_geom_bond_atom_site_label_2
_geom_bond_site_symmetry_1
_geom_bond_site_symmetry_2
S1 C2 1_555 1_555
N1 C1 1_555 1_555
C1 C2 1_555 1_555
C2 C3 1_555 1_555
C3 H1 1_555 1_555
C4 C3 1_555 1_555
H2 C4 1_555 1_555
C5 C4 1_555 1_555
H3 C5 1_555 1_555
C6 C1 1_555 1_555
H4 C6 1_555 1_555
C7 S1 1_555 1_555
C8 C7 1_555 1_555
H5 C8 1_555 1_555
C9 C8 1_555 1_555
H6 C9 1_555 1_555
C10 C9 1_555 1_555
H7 C10 1_555 1_555
C11 C10 1_555 1_555
H8 C11 1_555 1_555
C12 C7 1_555 1_555
H9 C12 1_555 1_555
H10 N1 1_555 1_555
H11 N1 1_555 1_555
C5 C6 1_555 1_555
C11 C12 1_555 1_555

#END
