
#######################################################################
#
#                 Cambridge Crystallographic Data Centre
#                                CCDC 
#
#######################################################################
#
# If this CIF has been generated from an entry in the Cambridge 
# Structural Database, then it will include bibliographic, chemical, 
# crystal, experimental, refinement or atomic coordinate data resulting 
# from the CCDC's data processing and validation procedures.
#
#######################################################################

data_GADPAE
_chemical_formula_moiety         'C7 H9 N3 S2'
_chemical_name_systematic        
N-Methyl-2-(2-thienylmethylene)hydrazinecarbothioamide
_symmetry_cell_setting           monoclinic
_symmetry_space_group_name_H-M   'P 21/c'
_symmetry_Int_Tables_number      14
_space_group_name_Hall           '-P 2ybc'
loop_
_symmetry_equiv_pos_site_id
_symmetry_equiv_pos_as_xyz
1 x,y,z
2 -x,1/2+y,1/2-z
3 -x,-y,-z
4 x,1/2-y,1/2+z
_cell_length_a                   8.0897(7)
_cell_length_b                   13.2863(13)
_cell_length_c                   9.4541(9)
_cell_angle_alpha                90
_cell_angle_beta                 98.770(2)
_cell_angle_gamma                90
_cell_volume                     1004.27
_exptl_crystal_colour            brown
_exptl_crystal_description       block
_cell_formula_units_Z            4
loop_
_atom_site_label
_atom_site_type_symbol
_atom_site_fract_x
_atom_site_fract_y
_atom_site_fract_z
S1 S 0.20295(10) 0.60589(6) 0.07237(8)
S2 S -0.12224(14) 0.66678(8) -0.63107(10)
N1 N 0.2340(3) 0.69843(19) -0.1714(2)
H1 H 0.1994 0.7085 -0.2609
N2 N 0.0123(3) 0.59173(17) -0.1771(2)
H2 H -0.0471 0.5508 -0.1354
N3 N -0.0323(3) 0.61322(17) -0.3199(2)
C1 C 0.3807(5) 0.7519(3) -0.1058(4)
H3 H 0.4214 0.7936 -0.1760
H4 H 0.4658 0.7045 -0.0681
H5 H 0.3529 0.7932 -0.0295
C2 C 0.1496(3) 0.6349(2) -0.1023(3)
C3 C -0.1549(4) 0.5627(2) -0.3868(3)
H6 H -0.2086 0.5151 -0.3379
C4 C -0.2103(3) 0.5791(2) -0.5374(3)
C5 C -0.3386(3) 0.5225(2) -0.6274(3)
H7 H -0.4032 0.4708 -0.5983
C6 C -0.3473(4) 0.5613(3) -0.7699(4)
H8 H -0.4215 0.5363 -0.8467
C7 C -0.2430(5) 0.6344(4) -0.7836(4)
H9 H -0.2365 0.6657 -0.8706
loop_
_geom_bond_atom_site_label_1
_geom_bond_atom_site_label_2
_geom_bond_site_symmetry_1
_geom_bond_site_symmetry_2
S1 C2 1_555 1_555
S2 C4 1_555 1_555
N1 H1 1_555 1_555
N2 H2 1_555 1_555
N3 N2 1_555 1_555
C1 N1 1_555 1_555
H3 C1 1_555 1_555
H4 C1 1_555 1_555
H5 C1 1_555 1_555
C2 N1 1_555 1_555
C3 N3 1_555 1_555
H6 C3 1_555 1_555
C4 C3 1_555 1_555
C5 C4 1_555 1_555
H7 C5 1_555 1_555
C6 C5 1_555 1_555
H8 C6 1_555 1_555
C7 S2 1_555 1_555
H9 C7 1_555 1_555
N2 C2 1_555 1_555
C6 C7 1_555 1_555

#END
