
#######################################################################
#
#                 Cambridge Crystallographic Data Centre
#                                CCDC 
#
#######################################################################
#
# If this CIF has been generated from an entry in the Cambridge 
# Structural Database, then it will include bibliographic, chemical, 
# crystal, experimental, refinement or atomic coordinate data resulting 
# from the CCDC's data processing and validation procedures.
#
#######################################################################

data_GADZAP
_chemical_formula_moiety         'H12 Mg1 O6 2+,2(C4 H3 N8 O2 1-),4(H2 O1)'
_chemical_name_systematic        
'hexa-aqua-magnesium bis(5-oxo-4-((5-oxo-1,5-dihydro-4H-1,2,4-triazol-4-yl)diazenyl)-4,5-dihydro-1,2,4-triazol-1-ide) tetrahydrate'
_symmetry_cell_setting           monoclinic
_symmetry_space_group_name_H-M   'C 2/c'
_symmetry_Int_Tables_number      15
_space_group_name_Hall           '-C 2yn'
loop_
_symmetry_equiv_pos_site_id
_symmetry_equiv_pos_as_xyz
1 x,y,z
2 -x,y,1/2-z
3 1/2+x,1/2+y,z
4 1/2-x,1/2+y,1/2-z
5 -x,-y,-z
6 x,-y,1/2+z
7 1/2-x,1/2-y,-z
8 1/2+x,1/2-y,1/2+z
_cell_length_a                   19.528(5)
_cell_length_b                   10.445(3)
_cell_length_c                   12.557(3)
_cell_angle_alpha                90
_cell_angle_beta                 110.294(2)
_cell_angle_gamma                90
_cell_volume                     2402.26
_exptl_crystal_colour            yellow
_exptl_crystal_description       block
_cell_formula_units_Z            4
loop_
_atom_site_label
_atom_site_type_symbol
_atom_site_fract_x
_atom_site_fract_y
_atom_site_fract_z
Mg1 Mg 0.2500 0.7500 0.0000
O1 O 0.24129(5) 0.80828(9) 0.15505(8)
O2 O 0.26404(5) 0.56509(8) 0.06066(8)
O3 O 0.36169(5) 0.76919(9) 0.06746(8)
H1 H 0.2034(11) 0.8457(18) 0.1632(17)
H2 H 0.2790(11) 0.8314(19) 0.2109(18)
H3 H 0.2711(12) 0.505(2) 0.0238(19)
H4 H 0.2873(11) 0.546(2) 0.1315(18)
H5 H 0.3897(10) 0.8404(18) 0.0797(16)
H6 H 0.3915(12) 0.7041(19) 0.0824(18)
O1F O 0.25871(5) 0.69172(9) -0.15505(8)
O2F O 0.23596(5) 0.93491(8) -0.06066(8)
O3F O 0.13831(5) 0.73081(9) -0.06746(8)
H1F H 0.2966(11) 0.6543(18) -0.1632(17)
H2F H 0.2210(11) 0.6686(19) -0.2109(18)
H3F H 0.2289(12) 0.995(2) -0.0238(19)
H4F H 0.2127(11) 0.954(2) -0.1315(18)
H5F H 0.1103(10) 0.6596(18) -0.0797(16)
H6F H 0.1085(12) 0.7959(19) -0.0824(18)
O4 O -0.05056(5) 0.48056(8) 0.10426(8)
O5 O 0.15832(5) 1.02067(8) 0.20982(7)
N1 N 0.06501(5) 0.38437(10) 0.15255(9)
N2 N 0.13615(5) 0.42809(10) 0.18133(9)
N3 N 0.06057(5) 0.59011(8) 0.14727(8)
N4 N 0.02899(5) 0.70971(8) 0.13639(8)
N5 N 0.07681(5) 0.79534(9) 0.15900(8)
N6 N 0.04584(5) 0.91416(8) 0.14946(8)
N7 N 0.04393(5) 1.12409(9) 0.14716(8)
N8 N -0.02813(5) 1.07742(9) 0.10953(8)
C1 C 0.01679(6) 0.48137(10) 0.13158(10)
C2 C 0.13253(6) 0.55186(12) 0.17740(10)
H7 H 0.1732 0.6079 0.1929
C3 C 0.08936(6) 1.02488(10) 0.17232(9)
C4 C -0.02608(6) 0.95334(11) 0.11143(9)
H8 H -0.0674 0.8984 0.0901
H9 H 0.0586(11) 0.2909(18) 0.1531(16)
O6 O 0.22159(5) 1.13160(9) 0.07461(9)
H10 H 0.2000(9) 1.1074(18) 0.1244(15)
H11 H 0.1981(10) 1.1936(18) 0.0406(16)
O7 O 0.36020(5) 0.20461(10) 0.08699(9)
H12 H 0.3206(10) 0.1706(17) 0.0928(15)
H13 H 0.3888(11) 0.135(2) 0.0850(18)
loop_
_geom_bond_atom_site_label_1
_geom_bond_atom_site_label_2
_geom_bond_site_symmetry_1
_geom_bond_site_symmetry_2
Mg1 O1 1_555 1_555
O1 H1 1_555 1_555
O2 Mg1 1_555 1_555
O3 Mg1 1_555 1_555
H2 O1 1_555 1_555
H3 O2 1_555 1_555
H4 O2 1_555 1_555
H5 O3 1_555 1_555
H6 O3 1_555 1_555
O4 C1 1_555 1_555
O5 C3 1_555 1_555
N1 N2 1_555 1_555
N2 C2 1_555 1_555
N3 N4 1_555 1_555
N4 N5 1_555 1_555
N5 N6 1_555 1_555
N6 C3 1_555 1_555
N7 N8 1_555 1_555
N8 C4 1_555 1_555
C1 N1 1_555 1_555
C2 N3 1_555 1_555
H7 C2 1_555 1_555
C3 N7 1_555 1_555
C4 N6 1_555 1_555
H8 C4 1_555 1_555
H9 N1 1_555 1_555
O6 H10 1_555 1_555
H11 O6 1_555 1_555
O7 H12 1_555 1_555
H13 O7 1_555 1_555
O1F Mg1 1_555 1_555
O2F Mg1 1_555 1_555
O3F Mg1 1_555 1_555
H1F O1F 1_555 1_555
H2F O1F 1_555 1_555
H3F O2F 1_555 1_555
H4F O2F 1_555 1_555
H5F O3F 1_555 1_555
H6F O3F 1_555 1_555
N3 C1 1_555 1_555

#END
