
#######################################################################
#
#                 Cambridge Crystallographic Data Centre
#                                CCDC 
#
#######################################################################
#
# If this CIF has been generated from an entry in the Cambridge 
# Structural Database, then it will include bibliographic, chemical, 
# crystal, experimental, refinement or atomic coordinate data resulting 
# from the CCDC's data processing and validation procedures.
#
#######################################################################

data_GAFGEA
_chemical_formula_moiety         'C8 H22 N4 2+,2(I3 1-),2(I2),2(C2 H3 N1)'
_chemical_name_systematic        
'1,7-Diazonia-4,10-diazacyclododecane bis(triiodide) bis(diiodine) acetonitrile solvate'
_symmetry_cell_setting           monoclinic
_symmetry_space_group_name_H-M   'C 2/c'
_symmetry_Int_Tables_number      15
_space_group_name_Hall           '-C 2yn'
loop_
_symmetry_equiv_pos_site_id
_symmetry_equiv_pos_as_xyz
1 x,y,z
2 1/2+x,1/2+y,z
3 x,-y,1/2+z
4 1/2+x,1/2-y,1/2+z
5 -x,-y,-z
6 1/2-x,1/2-y,-z
7 -x,y,1/2-z
8 1/2-x,1/2+y,1/2-z
_cell_length_a                   25.4408(4)
_cell_length_b                   8.0708(3)
_cell_length_c                   16.7769(2)
_cell_angle_alpha                90
_cell_angle_beta                 103.9150(10)
_cell_angle_gamma                90
_cell_volume                     3343.67
_cell_formula_units_Z            4
loop_
_atom_site_label
_atom_site_type_symbol
_atom_site_fract_x
_atom_site_fract_y
_atom_site_fract_z
I1 I 0.545736(18) -0.15493(5) 0.60396(3)
I2 I 0.588125(18) -0.15702(5) 0.78767(3)
I3 I 0.62736(2) -0.16243(6) 0.96052(3)
N1 N 0.5635(3) 0.2661(8) 0.6886(3)
C1 C 0.5335(3) 0.3304(9) 0.6058(4)
N2 N 0.4491(2) 0.2652(7) 0.6434(3)
C2 C 0.4785(3) 0.3933(9) 0.6090(4)
C3 C 0.3995(3) 0.3278(9) 0.6637(4)
C4 C 0.5845(3) 0.4004(9) 0.7497(4)
H4 H 0.552(2) 0.487(7) 0.741(3)
H5 H 0.376(3) 0.216(8) 0.670(3)
H6 H 0.607(3) 0.439(9) 0.732(4)
H7 H 0.542(3) 0.212(10) 0.717(5)
H8 H 0.381(2) 0.424(8) 0.619(3)
H9 H 0.457(3) 0.430(8) 0.556(4)
H10 H 0.477(3) 0.503(10) 0.642(4)
H11 H 0.535(3) 0.223(8) 0.568(4)
H12 H 0.439(3) 0.173(9) 0.608(5)
H13 H 0.588(5) 0.207(14) 0.689(7)
H14 H 0.555(3) 0.415(9) 0.591(4)
C4F C 0.4155(3) 0.4004(9) 0.7503(4)
N1F N 0.4365(3) 0.2661(8) 0.8114(3)
C1F C 0.4665(3) 0.3304(9) 0.8942(4)
C2F C 0.5215(3) 0.3933(9) 0.8910(4)
N2F N 0.5509(2) 0.2652(7) 0.8566(3)
C3F C 0.6005(3) 0.3278(9) 0.8363(4)
H5F H 0.624(3) 0.216(8) 0.830(3)
H8F H 0.619(2) 0.424(8) 0.881(3)
H12F H 0.561(3) 0.173(9) 0.892(5)
H9F H 0.543(3) 0.430(8) 0.944(4)
H10F H 0.523(3) 0.503(10) 0.858(4)
H11F H 0.465(3) 0.223(8) 0.932(4)
H14F H 0.445(3) 0.415(9) 0.909(4)
H7F H 0.458(3) 0.212(10) 0.783(5)
H13F H 0.412(5) 0.207(14) 0.811(7)
H4F H 0.448(2) 0.487(7) 0.759(3)
H6F H 0.393(3) 0.439(9) 0.768(4)
N3 N 0.6716(3) 0.1695(8) 0.6856(4)
C5 C 0.7122(3) 0.1171(9) 0.6818(4)
C6 C 0.7652(3) 0.0523(10) 0.6765(5)
H1 H 0.7679 0.0548 0.6192
H2 H 0.7691 -0.0621 0.6967
H3 H 0.7939 0.1209 0.7101
I4 I 0.660574(19) -0.32584(6) 0.58610(3)
I5 I 0.754688(19) -0.47656(6) 0.57089(3)
loop_
_geom_bond_atom_site_label_1
_geom_bond_atom_site_label_2
_geom_bond_site_symmetry_1
_geom_bond_site_symmetry_2
I1 I2 1_555 1_555
N1 C1 1_555 1_555
C1 C2 1_555 1_555
I2 I3 1_555 1_555
N2 C2 1_555 1_555
C2 H9 1_555 1_555
N3 C5 1_555 1_555
C3 N2 1_555 1_555
I4 I5 1_555 1_555
C4 N1 1_555 1_555
C5 C6 1_555 1_555
C6 H1 1_555 1_555
H2 C6 1_555 1_555
H3 C6 1_555 1_555
H4 C4 1_555 1_555
H5 C3 1_555 1_555
H6 C4 1_555 1_555
H7 N1 1_555 1_555
H8 C3 1_555 1_555
H10 C2 1_555 1_555
H11 C1 1_555 1_555
H12 N2 1_555 1_555
H13 N1 1_555 1_555
H14 C1 1_555 1_555
C4F C3 1_555 1_555
N1F C4F 1_555 1_555
C1F N1F 1_555 1_555
C2F C1F 1_555 1_555
N2F C2F 1_555 1_555
C3F C4 1_555 1_555
H5F C3F 1_555 1_555
H8F C3F 1_555 1_555
H12F N2F 1_555 1_555
H9F C2F 1_555 1_555
H10F C2F 1_555 1_555
H11F C1F 1_555 1_555
H14F C1F 1_555 1_555
H7F N1F 1_555 1_555
H13F N1F 1_555 1_555
H4F C4F 1_555 1_555
H6F C4F 1_555 1_555
N2F C3F 1_555 1_555

#END
