
#######################################################################
#
#                 Cambridge Crystallographic Data Centre
#                                CCDC 
#
#######################################################################
#
# If this CIF has been generated from an entry in the Cambridge 
# Structural Database, then it will include bibliographic, chemical, 
# crystal, experimental, refinement or atomic coordinate data resulting 
# from the CCDC's data processing and validation procedures.
#
#######################################################################

data_GAFKIH
_chemical_formula_moiety         'C40 H54 K1 O12 P2 1+,C1 N1 S1 1-,C1 H1 Cl3'
_chemical_name_systematic        
'(S)-2,3:4,5-bis(1,2-(3-Diethylphosphonylmethylnaphtho))-1,6,9,12,15,18-hexaoxacycloicosa-2,4-diene-potassium isothiocyanate chloroform solvate'
_symmetry_cell_setting           orthorhombic
_symmetry_space_group_name_H-M   'C 2 2 21'
_symmetry_Int_Tables_number      20
_space_group_name_Hall           'C 2n 2'
loop_
_symmetry_equiv_pos_site_id
_symmetry_equiv_pos_as_xyz
1 x,y,z
2 1/2+x,1/2+y,z
3 x,-y,-z
4 1/2+x,1/2-y,-z
5 -x,y,1/2-z
6 1/2-x,1/2+y,1/2-z
7 -x,-y,1/2+z
8 1/2-x,1/2-y,1/2+z
_cell_length_a                   16.292(4)
_cell_length_b                   19.948(5)
_cell_length_c                   14.782(5)
_cell_angle_alpha                90
_cell_angle_beta                 90
_cell_angle_gamma                90
_cell_volume                     4804.04
_cell_formula_units_Z            4
loop_
_atom_site_label
_atom_site_type_symbol
_atom_site_fract_x
_atom_site_fract_y
_atom_site_fract_z
K1 K 0.0000 -0.2015(2) 0.2500
O1 O -0.0026(6) -0.0855(3) 0.3471(5)
C1 C 0.0534(8) -0.0752(6) 0.4190(9)
C2 C 0.1136(9) -0.1328(7) 0.4152(10)
O2 O 0.0724(5) -0.1952(4) 0.4229(6)
C3 C 0.1272(9) -0.2508(6) 0.4257(10)
C4 C 0.0813(9) -0.3141(6) 0.4112(9)
O3 O 0.0566(5) -0.3194(4) 0.3199(6)
C5 C 0.0086(10) -0.3761(6) 0.2991(8)
C6 C -0.1570(10) -0.0951(7) 0.4375(10)
P1 P -0.2004(2) -0.1665(2) 0.3818(3)
O4 O -0.1587(5) -0.1837(4) 0.2974(6)
O5 O -0.2971(7) -0.1504(5) 0.3719(8)
C7 C -0.3357(11) -0.1421(10) 0.2878(11)
C8 C -0.3503(21) -0.0751(13) 0.2578(17)
O6 O -0.2033(6) -0.2238(4) 0.4554(6)
C9 C -0.1276(10) -0.2576(10) 0.4781(12)
C10 C -0.1206(10) -0.2603(13) 0.5787(15)
C11 C -0.0429(3) 0.0135(3) 0.2696(4)
C12 C -0.0581(3) -0.0332(3) 0.3345(4)
C13 C -0.1347(3) -0.0366(3) 0.3776(4)
C14 C -0.1967(3) 0.0066(3) 0.3544(4)
C15 C -0.2363(3) 0.1119(3) 0.2829(4)
C16 C -0.2211(3) 0.1622(3) 0.2243(4)
C17 C -0.1471(3) 0.1644(3) 0.1780(4)
C18 C -0.0885(3) 0.1169(3) 0.1925(4)
C19 C -0.1762(3) 0.0623(3) 0.3005(4)
C20 C -0.0989(3) 0.0676(3) 0.2595(4)
H1 H -0.2581 -0.0017 0.3764
H2 H -0.2942 0.1095 0.3163
H3 H -0.2659 0.2005 0.2133
H4 H -0.1361 0.2039 0.1306
H5 H -0.0340 0.1171 0.1527
H6 H 0.0851 -0.0281 0.4103
H7 H 0.0214 -0.0751 0.4829
H8 H 0.1568 -0.1279 0.4703
H9 H 0.1461 -0.1312 0.3517
H10 H 0.1728 -0.2453 0.3733
H11 H 0.1570 -0.2524 0.4909
H12 H 0.0277 -0.3146 0.4541
H13 H 0.1203 -0.3561 0.4281
H14 H 0.0417 -0.4211 0.3171
H15 H -0.0483 -0.3741 0.3363
H16 H -0.1018 -0.1112 0.4717
H17 H -0.2009 -0.0776 0.4868
H18 H -0.1284 -0.3079 0.4510
H19 H -0.0763 -0.2304 0.4501
H20 H -0.0617 -0.2824 0.5619
H21 H -0.1605 -0.2982 0.6058
H22 H -0.1118 -0.2210 0.6277
O1D O 0.0026(6) -0.0855(3) 0.1529(5)
O2D O -0.0724(5) -0.1952(4) 0.0771(6)
O3D O -0.0566(5) -0.3194(4) 0.1801(6)
O4D O 0.1587(5) -0.1837(4) 0.2026(6)
C5D C -0.0086(10) -0.3761(6) 0.2009(8)
C11D C 0.0429(3) 0.0135(3) 0.2304(4)
C1D C -0.0534(8) -0.0752(6) 0.0810(9)
C12D C 0.0581(3) -0.0332(3) 0.1655(4)
C2D C -0.1136(9) -0.1328(7) 0.0848(10)
C3D C -0.1272(9) -0.2508(6) 0.0743(10)
C4D C -0.0813(9) -0.3141(6) 0.0888(9)
P1D P 0.2004(2) -0.1665(2) 0.1182(3)
H14D H -0.0417 -0.4211 0.1829
H15D H 0.0483 -0.3741 0.1637
C20D C 0.0989(3) 0.0676(3) 0.2405(4)
H6D H -0.0851 -0.0281 0.0897
H7D H -0.0214 -0.0751 0.0171
C13D C 0.1347(3) -0.0366(3) 0.1224(4)
H8D H -0.1568 -0.1279 0.0297
H9D H -0.1461 -0.1312 0.1483
H10D H -0.1728 -0.2453 0.1267
H11D H -0.1570 -0.2524 0.0091
H12D H -0.0277 -0.3146 0.0459
H13D H -0.1203 -0.3561 0.0719
C6D C 0.1570(10) -0.0951(7) 0.0625(10)
O5D O 0.2971(7) -0.1504(5) 0.1281(8)
O6D O 0.2033(6) -0.2238(4) 0.0446(6)
C18D C 0.0885(3) 0.1169(3) 0.3075(4)
C19D C 0.1762(3) 0.0623(3) 0.1995(4)
C14D C 0.1967(3) 0.0066(3) 0.1456(4)
H16D H 0.1018 -0.1112 0.0283
H17D H 0.2009 -0.0776 0.0132
C7D C 0.3357(11) -0.1421(10) 0.2122(11)
C9D C 0.1276(10) -0.2576(10) 0.0219(12)
C17D C 0.1471(3) 0.1644(3) 0.3220(4)
H5D H 0.0340 0.1171 0.3473
C15D C 0.2363(3) 0.1119(3) 0.2171(4)
H1D H 0.2581 -0.0017 0.1236
C8D C 0.3503(21) -0.0751(13) 0.2422(17)
C10D C 0.1206(10) -0.2603(13) -0.0787(15)
H18D H 0.1284 -0.3079 0.0490
H19D H 0.0763 -0.2304 0.0499
C16D C 0.2211(3) 0.1622(3) 0.2757(4)
H4D H 0.1361 0.2039 0.3694
H2D H 0.2942 0.1095 0.1837
H20D H 0.0617 -0.2824 -0.0619
H21D H 0.1605 -0.2982 -0.1058
H22D H 0.1118 -0.2210 -0.1277
H3D H 0.2659 0.2005 0.2867
loop_
_geom_bond_atom_site_label_1
_geom_bond_atom_site_label_2
_geom_bond_site_symmetry_1
_geom_bond_site_symmetry_2
K1 O1 1_555 1_555
O1 C1 1_555 1_555
C1 C2 1_555 1_555
C2 O2 1_555 1_555
O2 K1 1_555 1_555
C3 O2 1_555 1_555
C4 C3 1_555 1_555
O3 K1 1_555 1_555
C5 O3 1_555 1_555
C6 P1 1_555 1_555
P1 O4 1_555 1_555
O4 K1 1_555 1_555
O5 P1 1_555 1_555
C7 O5 1_555 1_555
C8 C7 1_555 1_555
O6 P1 1_555 1_555
C9 O6 1_555 1_555
C10 C9 1_555 1_555
C11 C12 1_555 1_555
C12 O1 1_555 1_555
C13 C6 1_555 1_555
C14 C13 1_555 1_555
C15 C16 1_555 1_555
C16 C17 1_555 1_555
C17 C18 1_555 1_555
C18 C20 1_555 1_555
C19 C14 1_555 1_555
C20 C11 1_555 1_555
H1 C14 1_555 1_555
H2 C15 1_555 1_555
H3 C16 1_555 1_555
H4 C17 1_555 1_555
H5 C18 1_555 1_555
H6 C1 1_555 1_555
H7 C1 1_555 1_555
H8 C2 1_555 1_555
H9 C2 1_555 1_555
H10 C3 1_555 1_555
H11 C3 1_555 1_555
H12 C4 1_555 1_555
H13 C4 1_555 1_555
H14 C5 1_555 1_555
H15 C5 1_555 1_555
H16 C6 1_555 1_555
H17 C6 1_555 1_555
H18 C9 1_555 1_555
H19 C9 1_555 1_555
H20 C10 1_555 1_555
H21 C10 1_555 1_555
H22 C10 1_555 1_555
O1D K1 1_555 1_555
O2D K1 1_555 1_555
O3D K1 1_555 1_555
O4D K1 1_555 1_555
C5D C5 1_555 1_555
C11D C11 1_555 1_555
C1D O1D 1_555 1_555
C12D O1D 1_555 1_555
C2D O2D 1_555 1_555
C3D O2D 1_555 1_555
C4D O3D 1_555 1_555
P1D O4D 1_555 1_555
H14D C5D 1_555 1_555
H15D C5D 1_555 1_555
C20D C11D 1_555 1_555
H6D C1D 1_555 1_555
H7D C1D 1_555 1_555
C13D C12D 1_555 1_555
H8D C2D 1_555 1_555
H9D C2D 1_555 1_555
H10D C3D 1_555 1_555
H11D C3D 1_555 1_555
H12D C4D 1_555 1_555
H13D C4D 1_555 1_555
C6D P1D 1_555 1_555
O5D P1D 1_555 1_555
O6D P1D 1_555 1_555
C18D C20D 1_555 1_555
C19D C20D 1_555 1_555
C14D C13D 1_555 1_555
H16D C6D 1_555 1_555
H17D C6D 1_555 1_555
C7D O5D 1_555 1_555
C9D O6D 1_555 1_555
C17D C18D 1_555 1_555
H5D C18D 1_555 1_555
C15D C19D 1_555 1_555
H1D C14D 1_555 1_555
C8D C7D 1_555 1_555
C10D C9D 1_555 1_555
H18D C9D 1_555 1_555
H19D C9D 1_555 1_555
C16D C17D 1_555 1_555
H4D C17D 1_555 1_555
H2D C15D 1_555 1_555
H20D C10D 1_555 1_555
H21D C10D 1_555 1_555
H22D C10D 1_555 1_555
H3D C16D 1_555 1_555
C4 O3 1_555 1_555
C12 C13 1_555 1_555
C15 C19 1_555 1_555
C19 C20 1_555 1_555
O3D C5D 1_555 1_555
C11D C12D 1_555 1_555
C1D C2D 1_555 1_555
C3D C4D 1_555 1_555
C13D C6D 1_555 1_555
C19D C14D 1_555 1_555
C15D C16D 1_555 1_555

#END
