
#######################################################################
#
#                 Cambridge Crystallographic Data Centre
#                                CCDC 
#
#######################################################################
#
# If this CIF has been generated from an entry in the Cambridge 
# Structural Database, then it will include bibliographic, chemical, 
# crystal, experimental, refinement or atomic coordinate data resulting 
# from the CCDC's data processing and validation procedures.
#
#######################################################################

data_GAFPOS10
_chemical_formula_moiety         'C16 H24 O4'
_chemical_name_systematic        
(4aS,7aS,11aR,14aR)-2,3,4,4a,6,7,7a,9,10,11,11a,13,14,14a-Tetradecahydropyrano(3,2-b)pyrano(2',3':6,7)oxepino(2,3-f)oxepin
_symmetry_cell_setting           triclinic
_symmetry_space_group_name_H-M   'P -1'
_symmetry_Int_Tables_number      2
_space_group_name_Hall           '-P 1'
loop_
_symmetry_equiv_pos_site_id
_symmetry_equiv_pos_as_xyz
1 x,y,z
2 -x,-y,-z
_cell_length_a                   9.097(2)
_cell_length_b                   9.154(1)
_cell_length_c                   9.039(1)
_cell_angle_alpha                93.97(1)
_cell_angle_beta                 104.38(1)
_cell_angle_gamma                89.99(1)
_cell_volume                     727.268
_exptl_crystal_colour            colorless
_chemical_melting_point          163-165deg.C
_cell_formula_units_Z            2
loop_
_atom_site_label
_atom_site_type_symbol
_atom_site_fract_x
_atom_site_fract_y
_atom_site_fract_z
C1 C 0.3401(3) -0.0069(3) 0.0993(3)
C2 C 0.4461(3) 0.0506(3) 0.2468(3)
C3 C 0.3562(3) 0.1262(3) 0.3508(3)
C4 C 0.2281(2) 0.0284(2) 0.3676(2)
C5 C 0.1319(2) -0.0299(3) 0.2119(2)
C6 C 0.0122(3) -0.1420(3) 0.2195(3)
C7 C -0.1100(2) -0.0822(3) 0.2953(3)
C8 C -0.0582(2) -0.0448(2) 0.4653(2)
O1 O 0.2264(2) -0.1020(2) 0.1247(2)
O2 O 0.1391(2) 0.1173(2) 0.4494(2)
H1 H 0.2678 -0.0555 0.4209
H2 H 0.0821 0.0533 0.1653
H3 H 0.3955 -0.0604 0.0370
H4 H 0.2914 0.0725 0.0450
H5 H 0.5166 0.1196 0.2260
H6 H 0.5024 -0.0278 0.2966
H7 H 0.3155 0.2139 0.3100
H8 H 0.4227 0.1490 0.4505
H9 H 0.0638 -0.2193 0.2785
H10 H -0.0333 -0.1817 0.1193
H11 H -0.1898 -0.1537 0.2777
H12 H -0.1485 0.0041 0.2477
C8A C 0.0582(2) 0.0448(2) 0.5347(2)
O2A O -0.1391(2) -0.1173(2) 0.5506(2)
C7A C 0.1100(2) 0.0822(3) 0.7047(3)
C4A C -0.2281(2) -0.0284(2) 0.6324(2)
C6A C -0.0122(3) 0.1420(3) 0.7805(3)
H11A H 0.1898 0.1537 0.7223
H12A H 0.1485 -0.0041 0.7523
C3A C -0.3562(3) -0.1262(3) 0.6492(3)
C5A C -0.1319(2) 0.0299(3) 0.7881(2)
H1A H -0.2678 0.0555 0.5791
H9A H -0.0638 0.2193 0.7215
H10A H 0.0333 0.1817 0.8807
C2A C -0.4461(3) -0.0506(3) 0.7532(3)
H7A H -0.3155 -0.2139 0.6900
H8A H -0.4227 -0.1490 0.5495
O1A O -0.2264(2) 0.1020(2) 0.8753(2)
H2A H -0.0821 -0.0533 0.8347
C1A C -0.3401(3) 0.0069(3) 0.9007(3)
H5A H -0.5166 -0.1196 0.7740
H6A H -0.5024 0.0278 0.7034
H3A H -0.3955 0.0604 0.9630
H4A H -0.2914 -0.0725 0.9550
C9 C 0.8398(3) 0.4679(3) 0.0982(3)
C10 C 0.9461(3) 0.4232(3) 0.2437(3)
C11 C 0.8541(3) 0.3579(3) 0.3442(3)
C12 C 0.7287(2) 0.4588(3) 0.3665(2)
C13 C 0.6335(2) 0.5031(3) 0.2142(2)
C14 C 0.5161(2) 0.6161(3) 0.2277(2)
C15 C 0.3922(2) 0.5637(3) 0.2996(3)
C16 C 0.4421(2) 0.5411(3) 0.4666(2)
O3 O 0.7278(2) 0.5661(2) 0.1296(2)
O4 O 0.6377(2) 0.3779(2) 0.4440(2)
H13 H 0.7712 0.5458 0.4247
H14 H 0.5826 0.4151 0.1640
H15 H 0.7896 0.3816 0.0398
H16 H 0.8958 0.5133 0.0365
H17 H 1.0032 0.5063 0.2963
H18 H 1.0160 0.3518 0.2189
H19 H 0.9202 0.3410 0.4425
H20 H 0.8108 0.2651 0.2980
H21 H 0.4709 0.6485 0.1301
H22 H 0.5683 0.6990 0.2922
H23 H 0.3532 0.4719 0.2474
H24 H 0.3130 0.6325 0.2857
C16A C 0.5579(2) 0.4589(3) 0.5334(2)
O4A O 0.3623(2) 0.6221(2) 0.5560(2)
C15A C 0.6078(2) 0.4363(3) 0.7004(3)
C12A C 0.2713(2) 0.5412(3) 0.6335(2)
C14A C 0.4839(2) 0.3839(3) 0.7723(2)
H23A H 0.6468 0.5281 0.7526
H24A H 0.6870 0.3675 0.7143
C11A C 0.1459(3) 0.6421(3) 0.6558(3)
C13A C 0.3665(2) 0.4969(3) 0.7858(2)
H13A H 0.2288 0.4542 0.5753
H21A H 0.5291 0.3515 0.8699
H22A H 0.4317 0.3010 0.7078
C10A C 0.0539(3) 0.5768(3) 0.7563(3)
H19A H 0.0798 0.6590 0.5575
H20A H 0.1892 0.7349 0.7020
O3A O 0.2722(2) 0.4339(2) 0.8704(2)
H14A H 0.4174 0.5849 0.8360
C9A C 0.1602(3) 0.5321(3) 0.9018(3)
H17A H -0.0032 0.4937 0.7037
H18A H -0.0160 0.6482 0.7811
H15A H 0.2104 0.6184 0.9602
H16A H 0.1042 0.4867 0.9635
loop_
_geom_bond_atom_site_label_1
_geom_bond_atom_site_label_2
_geom_bond_site_symmetry_1
_geom_bond_site_symmetry_2
C1 C2 1_555 1_555
C2 C3 1_555 1_555
C3 C4 1_555 1_555
C4 C5 1_555 1_555
C5 C6 1_555 1_555
C6 C7 1_555 1_555
C7 C8 1_555 1_555
C8 C8A 1_555 1_555
O1 C1 1_555 1_555
O2 C4 1_555 1_555
C9 C10 1_555 1_555
C10 C11 1_555 1_555
C11 C12 1_555 1_555
C12 C13 1_555 1_555
C13 C14 1_555 1_555
C14 C15 1_555 1_555
C15 C16 1_555 1_555
C16 C16A 1_555 1_555
O3 C9 1_555 1_555
O4 C12 1_555 1_555
H1 C4 1_555 1_555
H2 C5 1_555 1_555
H3 C1 1_555 1_555
H4 C1 1_555 1_555
H5 C2 1_555 1_555
H6 C2 1_555 1_555
H7 C3 1_555 1_555
H8 C3 1_555 1_555
H9 C6 1_555 1_555
H10 C6 1_555 1_555
H11 C7 1_555 1_555
H12 C7 1_555 1_555
H13 C12 1_555 1_555
H14 C13 1_555 1_555
H15 C9 1_555 1_555
H16 C9 1_555 1_555
H17 C10 1_555 1_555
H18 C10 1_555 1_555
H19 C11 1_555 1_555
H20 C11 1_555 1_555
H21 C14 1_555 1_555
H22 C14 1_555 1_555
H23 C15 1_555 1_555
H24 C15 1_555 1_555
C8A O2 1_555 1_555
O2A C8 1_555 1_555
C7A C8A 1_555 1_555
C4A O2A 1_555 1_555
C6A C7A 1_555 1_555
H11A C7A 1_555 1_555
H12A C7A 1_555 1_555
C3A C4A 1_555 1_555
C5A C4A 1_555 1_555
H1A C4A 1_555 1_555
H9A C6A 1_555 1_555
H10A C6A 1_555 1_555
C2A C3A 1_555 1_555
H7A C3A 1_555 1_555
H8A C3A 1_555 1_555
O1A C5A 1_555 1_555
H2A C5A 1_555 1_555
C1A C2A 1_555 1_555
H5A C2A 1_555 1_555
H6A C2A 1_555 1_555
H3A C1A 1_555 1_555
H4A C1A 1_555 1_555
C16A O4 1_555 1_555
O4A C16 1_555 1_555
C15A C16A 1_555 1_555
C12A O4A 1_555 1_555
C14A C15A 1_555 1_555
H23A C15A 1_555 1_555
H24A C15A 1_555 1_555
C11A C12A 1_555 1_555
C13A C12A 1_555 1_555
H13A C12A 1_555 1_555
H21A C14A 1_555 1_555
H22A C14A 1_555 1_555
C10A C11A 1_555 1_555
H19A C11A 1_555 1_555
H20A C11A 1_555 1_555
O3A C13A 1_555 1_555
H14A C13A 1_555 1_555
C9A C10A 1_555 1_555
H17A C10A 1_555 1_555
H18A C10A 1_555 1_555
H15A C9A 1_555 1_555
H16A C9A 1_555 1_555
C5 O1 1_555 1_555
C13 O3 1_555 1_555
C6A C5A 1_555 1_555
O1A C1A 1_555 1_555
C14A C13A 1_555 1_555
O3A C9A 1_555 1_555

#END
