
#######################################################################
#
#                 Cambridge Crystallographic Data Centre
#                                CCDC 
#
#######################################################################
#
# If this CIF has been generated from an entry in the Cambridge 
# Structural Database, then it will include bibliographic, chemical, 
# crystal, experimental, refinement or atomic coordinate data resulting 
# from the CCDC's data processing and validation procedures.
#
#######################################################################

data_GAGHUU
_chemical_formula_moiety         'C16 H16 N4 O4 2+,2(N1 O3 1-)'
_chemical_name_systematic        
"5,5'-(1,4-phenylene)bis(3-(carboxymethyl)-1H-imidazol-3-ium) dinitrate"
_symmetry_cell_setting           monoclinic
_symmetry_space_group_name_H-M   'P 21/n'
_symmetry_Int_Tables_number      14
_space_group_name_Hall           '-P 2yn'
loop_
_symmetry_equiv_pos_site_id
_symmetry_equiv_pos_as_xyz
1 x,y,z
2 1/2-x,1/2+y,1/2-z
3 -x,-y,-z
4 1/2+x,1/2-y,1/2+z
_cell_length_a                   5.3525(11)
_cell_length_b                   9.1471(19)
_cell_length_c                   19.314(4)
_cell_angle_alpha                90
_cell_angle_beta                 92.342(3)
_cell_angle_gamma                90
_cell_volume                     944.821
_exptl_crystal_colour            colorless
_exptl_crystal_description       needle
_cell_formula_units_Z            2
loop_
_atom_site_label
_atom_site_type_symbol
_atom_site_fract_x
_atom_site_fract_y
_atom_site_fract_z
C1 C 0.4902(5) 0.0301(3) 0.06967(14)
H1 H 0.4823 0.0494 0.1168
C2 C 0.6666(4) 0.1003(3) 0.03150(13)
C3 C 0.6748(5) 0.0685(3) -0.03867(14)
H2 H 0.7930 0.1143 -0.0652
C4 C 0.8403(4) 0.2046(3) 0.06494(13)
C5 C 0.8704(5) 0.2439(3) 0.13234(15)
H3 H 0.7842 0.2062 0.1692
C6 C 1.1362(5) 0.3729(3) 0.07392(14)
H4 H 1.2625 0.4375 0.0628
C7 C 1.1399(6) 0.4265(3) 0.19893(16)
H5 H 0.9988 0.4484 0.2271
H6 H 1.2181 0.5180 0.1867
C8 C 1.3247(6) 0.3330(3) 0.23946(14)
N1 N 1.0529(4) 0.3504(3) 0.13620(12)
N2 N 1.0086(4) 0.2872(2) 0.02973(12)
O1 O 1.4048(5) 0.3977(3) 0.29529(13)
H7 H 1.4943 0.3416 0.3183
O2 O 1.3878(5) 0.2138(3) 0.22089(12)
H8 H 1.032(6) 0.287(3) -0.0139(18)
C1B C 0.5098(5) -0.0301(3) -0.06967(14)
H1B H 0.5177 -0.0494 -0.1168
C2B C 0.3334(4) -0.1003(3) -0.03150(13)
C3B C 0.3252(5) -0.0685(3) 0.03867(14)
H2B H 0.2070 -0.1143 0.0652
C4B C 0.1597(4) -0.2046(3) -0.06494(13)
C5B C 0.1296(5) -0.2439(3) -0.13234(15)
H3B H 0.2158 -0.2062 -0.1692
C6B C -0.1362(5) -0.3729(3) -0.07392(14)
H4B H -0.2625 -0.4375 -0.0628
C7B C -0.1399(6) -0.4265(3) -0.19893(16)
H5B H 0.0012 -0.4484 -0.2271
H6B H -0.2181 -0.5180 -0.1867
C8B C -0.3247(6) -0.3330(3) -0.23946(14)
N1B N -0.0529(4) -0.3504(3) -0.13620(12)
N2B N -0.0086(4) -0.2872(2) -0.02973(12)
O1B O -0.4048(5) -0.3977(3) -0.29529(13)
H7B H -0.4943 -0.3416 -0.3183
O2B O -0.3878(5) -0.2138(3) -0.22089(12)
H8B H -0.032(6) -0.287(3) 0.0139(18)
N3 N 0.8169(5) 0.1601(3) 0.38174(14)
O3 O 0.6122(4) 0.2251(3) 0.39003(11)
O4 O 0.9184(6) 0.1734(4) 0.32730(16)
O5 O 0.9032(5) 0.0860(3) 0.43046(15)
loop_
_geom_bond_atom_site_label_1
_geom_bond_atom_site_label_2
_geom_bond_site_symmetry_1
_geom_bond_site_symmetry_2
C1 H1 1_555 1_555
C2 C1 1_555 1_555
C3 C2 1_555 1_555
H2 C3 1_555 1_555
C4 C2 1_555 1_555
C5 C4 1_555 1_555
H3 C5 1_555 1_555
C6 H4 1_555 1_555
C7 H5 1_555 1_555
H6 C7 1_555 1_555
C8 C7 1_555 1_555
N1 C5 1_555 1_555
N2 C4 1_555 1_555
O1 C8 1_555 1_555
H7 O1 1_555 1_555
O2 C8 1_555 1_555
H8 N2 1_555 1_555
N3 O3 1_555 1_555
O4 N3 1_555 1_555
O5 N3 1_555 1_555
C1B C3 1_555 1_555
H1B C1B 1_555 1_555
C2B C1B 1_555 1_555
C3B C1 1_555 1_555
H2B C3B 1_555 1_555
C4B C2B 1_555 1_555
C5B C4B 1_555 1_555
H3B C5B 1_555 1_555
C6B H4B 1_555 1_555
C7B H5B 1_555 1_555
H6B C7B 1_555 1_555
C8B C7B 1_555 1_555
N1B C5B 1_555 1_555
N2B C4B 1_555 1_555
O1B C8B 1_555 1_555
H7B O1B 1_555 1_555
O2B C8B 1_555 1_555
H8B N2B 1_555 1_555
C6 N1 1_555 1_555
C6 N2 1_555 1_555
C7 N1 1_555 1_555
C2B C3B 1_555 1_555
C6B N1B 1_555 1_555
C6B N2B 1_555 1_555
C7B N1B 1_555 1_555

#END
