
#######################################################################
#
#                 Cambridge Crystallographic Data Centre
#                                CCDC 
#
#######################################################################
#
# If this CIF has been generated from an entry in the Cambridge 
# Structural Database, then it will include bibliographic, chemical, 
# crystal, experimental, refinement or atomic coordinate data resulting 
# from the CCDC's data processing and validation procedures.
#
#######################################################################

data_GAJDAZ
_chemical_formula_moiety         'C15 H10 F1 N5 S1'
_chemical_name_systematic        
6-(4-fluorobenzyl)-3-(pyridin-4-yl)[1,2,4]triazolo[3,4-b][1,3,4]thiadiazole
_symmetry_cell_setting           triclinic
_symmetry_space_group_name_H-M   'P -1'
_symmetry_Int_Tables_number      2
_space_group_name_Hall           '-P 1'
loop_
_symmetry_equiv_pos_site_id
_symmetry_equiv_pos_as_xyz
1 x,y,z
2 -x,-y,-z
_cell_length_a                   4.8756(4)
_cell_length_b                   10.3551(9)
_cell_length_c                   13.4098(12)
_cell_angle_alpha                90.293(4)
_cell_angle_beta                 98.760(4)
_cell_angle_gamma                90.571(4)
_cell_volume                     669.079
_exptl_crystal_colour            colorless
_exptl_crystal_description       'irregular block'
_cell_formula_units_Z            2
_exptl_crystal_recrystallization_method 
'Re-crystallisation from solvent: ethanol'
loop_
_atom_site_label
_atom_site_type_symbol
_atom_site_fract_x
_atom_site_fract_y
_atom_site_fract_z
S1 S 0.55919(5) 0.35656(3) 0.36085(2)
F1 F 1.39884(19) 0.37586(8) -0.03464(6)
N1 N 0.9525(2) 0.39961(9) 0.63316(7)
N2 N 0.7392(2) 0.44562(10) 0.56195(7)
N3 N 0.94486(19) 0.28376(9) 0.49605(7)
N4 N 0.97226(19) 0.19998(9) 0.41777(7)
C1 C 1.0751(2) 0.30291(11) 0.59335(8)
C2 C 0.7837(2) 0.22978(11) 0.34221(8)
C3 C 0.7405(2) 0.37380(11) 0.48105(8)
C4 C 1.3090(2) 0.23074(11) 0.64596(8)
C5 C 1.4081(3) 0.26131(13) 0.74641(9)
H1 H 1.3240 0.3274 0.7803
C6 C 1.6318(3) 0.19345(13) 0.79587(9)
H2 H 1.6973 0.2151 0.8643
N5 N 1.7617(2) 0.09913(10) 0.75316(8)
C7 C 1.6629(3) 0.07084(12) 0.65699(10)
H3 H 1.7507 0.0041 0.6251
C8 C 1.4399(2) 0.13268(12) 0.60046(9)
H4 H 1.3782 0.1085 0.5322
C9 C 0.7610(2) 0.16209(11) 0.24221(8)
H5 H 0.5640 0.1605 0.2104
H6 H 0.8204 0.0715 0.2536
C10 C 0.9336(2) 0.22422(11) 0.16956(8)
C11 C 1.0192(2) 0.14650(12) 0.09492(9)
H7 H 0.9703 0.0574 0.0916
C12 C 1.1748(3) 0.19732(12) 0.02540(9)
H8 H 1.2315 0.1444 -0.0256
C13 C 1.2443(3) 0.32660(13) 0.03270(9)
C14 C 1.1660(3) 0.40687(12) 0.10530(9)
H9 H 1.2183 0.4956 0.1086
C15 C 1.0083(2) 0.35474(11) 0.17383(9)
H10 H 0.9509 0.4087 0.2241
loop_
_geom_bond_atom_site_label_1
_geom_bond_atom_site_label_2
_geom_bond_site_symmetry_1
_geom_bond_site_symmetry_2
S1 C2 1_555 1_555
F1 C13 1_555 1_555
N1 N2 1_555 1_555
N2 C3 1_555 1_555
N3 N4 1_555 1_555
N4 C2 1_555 1_555
C1 N1 1_555 1_555
C2 C9 1_555 1_555
C3 S1 1_555 1_555
C4 C1 1_555 1_555
C5 C4 1_555 1_555
H1 C5 1_555 1_555
C6 C5 1_555 1_555
H2 C6 1_555 1_555
N5 C6 1_555 1_555
C7 N5 1_555 1_555
H3 C7 1_555 1_555
C8 C4 1_555 1_555
H4 C8 1_555 1_555
C9 H5 1_555 1_555
H6 C9 1_555 1_555
C10 C9 1_555 1_555
C11 C10 1_555 1_555
H7 C11 1_555 1_555
C12 C11 1_555 1_555
H8 C12 1_555 1_555
C13 C12 1_555 1_555
C14 C13 1_555 1_555
H9 C14 1_555 1_555
C15 C10 1_555 1_555
H10 C15 1_555 1_555
N3 C1 1_555 1_555
N3 C3 1_555 1_555
C7 C8 1_555 1_555
C14 C15 1_555 1_555

#END
