
#######################################################################
#
#                 Cambridge Crystallographic Data Centre
#                                CCDC 
#
#######################################################################
#
# If this CIF has been generated from an entry in the Cambridge 
# Structural Database, then it will include bibliographic, chemical, 
# crystal, experimental, refinement or atomic coordinate data resulting 
# from the CCDC's data processing and validation procedures.
#
#######################################################################

data_GAJVOF
_chemical_formula_moiety         'C36 H29 Cl2 N1 O4 S1'
_chemical_name_systematic        
'2,2-bis(4-chlorophenyl)-6,7-dimethoxy-1-((4-methylphenyl)sulfonyl)-4-phenyl-1,2-dihydroquinoline unknown solvate'
_symmetry_cell_setting           monoclinic
_symmetry_space_group_name_H-M   'P 21/c'
_symmetry_Int_Tables_number      14
_space_group_name_Hall           '-P 2ybc'
loop_
_symmetry_equiv_pos_site_id
_symmetry_equiv_pos_as_xyz
1 x,y,z
2 -x,1/2+y,1/2-z
3 -x,-y,-z
4 x,1/2-y,1/2+z
_cell_length_a                   15.109(3)
_cell_length_b                   14.423(3)
_cell_length_c                   17.631(4)
_cell_angle_alpha                90
_cell_angle_beta                 106.507(3)
_cell_angle_gamma                90
_cell_volume                     3683.74
_exptl_crystal_colour            colorless
_exptl_crystal_description       block
_cell_formula_units_Z            4
loop_
_atom_site_label
_atom_site_type_symbol
_atom_site_fract_x
_atom_site_fract_y
_atom_site_fract_z
C1 C 0.37511(16) 0.55342(15) 0.24014(12)
C2 C 0.31666(17) 0.63317(15) 0.25330(14)
H1 H 0.2898 0.6298 0.2946
C3 C 0.30234(16) 0.70861(15) 0.20722(13)
C4 C 0.34203(16) 0.71018(15) 0.13996(12)
C5 C 0.35369(16) 0.79265(15) 0.10078(13)
H2 H 0.3343 0.8487 0.1167
C6 C 0.39319(17) 0.79171(15) 0.03945(13)
C7 C 0.42433(16) 0.70727(15) 0.01662(12)
C8 C 0.41393(16) 0.62681(15) 0.05433(12)
H3 H 0.4352 0.5712 0.0394
C9 C 0.37181(15) 0.62778(15) 0.11465(12)
C10 C 0.25080(17) 0.78960(16) 0.22546(14)
C11 C 0.1804(2) 0.8312(2) 0.16896(18)
H4 H 0.1649 0.8098 0.1171
C12 C 0.1324(2) 0.9046(2) 0.1885(2)
H5 H 0.0841 0.9312 0.1497
C13 C 0.1548(3) 0.9385(2) 0.2637(2)
H6 H 0.1224 0.9884 0.2760
C14 C 0.2253(3) 0.8987(2) 0.3208(2)
H7 H 0.2412 0.9215 0.3722
C15 C 0.2729(2) 0.82467(18) 0.30205(15)
H8 H 0.3206 0.7977 0.3413
C16 C 0.47824(16) 0.57865(14) 0.27381(12)
C17 C 0.50649(19) 0.63180(16) 0.34229(14)
H9 H 0.4624 0.6544 0.3652
C18 C 0.5985(2) 0.65181(17) 0.37699(16)
H10 H 0.6162 0.6875 0.4227
C19 C 0.66327(19) 0.61832(18) 0.34313(17)
C20 C 0.63783(19) 0.56513(18) 0.27535(16)
H11 H 0.6822 0.5418 0.2531
C21 C 0.54577(17) 0.54725(16) 0.24125(14)
H12 H 0.5283 0.5129 0.1947
C22 C 0.35810(16) 0.46262(16) 0.28000(13)
C23 C 0.28707(19) 0.45395(19) 0.31459(16)
H13 H 0.2484 0.5042 0.3143
C24 C 0.2728(2) 0.3718(2) 0.34954(18)
H14 H 0.2248 0.3671 0.3727
C25 C 0.3290(2) 0.29753(18) 0.35017(16)
C26 C 0.40002(18) 0.30360(17) 0.31614(15)
H15 H 0.4378 0.2528 0.3159
C27 C 0.41422(17) 0.38607(16) 0.28246(15)
H16 H 0.4632 0.3907 0.2605
C28 C 0.16865(17) 0.53909(18) 0.08118(14)
C29 C 0.1439(2) 0.6080(2) 0.02493(16)
H17 H 0.1826 0.6227 -0.0060
C30 C 0.0624(2) 0.6548(2) 0.0145(2)
H18 H 0.0467 0.7013 -0.0236
C31 C 0.0034(2) 0.6348(3) 0.0588(2)
C32 C 0.0283(2) 0.5671(3) 0.1143(2)
H19 H -0.0109 0.5527 0.1448
C33 C 0.1113(2) 0.5184(2) 0.12679(18)
H20 H 0.1273 0.4727 0.1655
C34 C 0.3911(2) 0.95544(18) 0.02639(18)
H21 H 0.3272 0.9626 0.0239
H22 H 0.4083 1.0025 -0.0053
H23 H 0.4283 0.9614 0.0803
C35 C 0.5012(2) 0.63043(18) -0.06626(17)
H24 H 0.5484 0.6059 -0.0222
H25 H 0.5271 0.6435 -0.1089
H26 H 0.4525 0.5858 -0.0833
Cl1 Cl 0.77924(6) 0.64123(7) 0.38733(7)
Cl2 Cl 0.31012(7) 0.19423(6) 0.39428(6)
C36 C -0.0857(3) 0.6873(4) 0.0467(3)
H27 H -0.1263 0.6530 0.0696
H28 H -0.1145 0.6954 -0.0089
H29 H -0.0732 0.7468 0.0718
N1 N 0.35882(13) 0.54137(12) 0.15183(10)
O1 O 0.40522(14) 0.86678(11) -0.00277(10)
O2 O 0.46537(13) 0.71356(11) -0.04308(9)
O3 O 0.28929(12) 0.47584(12) 0.01852(10)
O4 O 0.26721(14) 0.39329(12) 0.13352(11)
S1 S 0.27200(4) 0.47791(4) 0.09382(4)
loop_
_geom_bond_atom_site_label_1
_geom_bond_atom_site_label_2
_geom_bond_site_symmetry_1
_geom_bond_site_symmetry_2
C1 C2 1_555 1_555
C2 H1 1_555 1_555
C3 C2 1_555 1_555
C4 C3 1_555 1_555
C5 C4 1_555 1_555
H2 C5 1_555 1_555
C6 C5 1_555 1_555
C7 C6 1_555 1_555
C8 C7 1_555 1_555
H3 C8 1_555 1_555
C9 C4 1_555 1_555
C10 C3 1_555 1_555
C11 C10 1_555 1_555
H4 C11 1_555 1_555
C12 C11 1_555 1_555
H5 C12 1_555 1_555
C13 C12 1_555 1_555
H6 C13 1_555 1_555
C14 C13 1_555 1_555
H7 C14 1_555 1_555
C15 C10 1_555 1_555
H8 C15 1_555 1_555
C16 C1 1_555 1_555
C17 C16 1_555 1_555
H9 C17 1_555 1_555
C18 C17 1_555 1_555
H10 C18 1_555 1_555
C19 C18 1_555 1_555
C20 C19 1_555 1_555
H11 C20 1_555 1_555
C21 C16 1_555 1_555
H12 C21 1_555 1_555
C22 C1 1_555 1_555
C23 C22 1_555 1_555
H13 C23 1_555 1_555
C24 C23 1_555 1_555
H14 C24 1_555 1_555
C25 C24 1_555 1_555
C26 C25 1_555 1_555
H15 C26 1_555 1_555
C27 C22 1_555 1_555
H16 C27 1_555 1_555
C28 C29 1_555 1_555
C29 H17 1_555 1_555
C30 C29 1_555 1_555
H18 C30 1_555 1_555
C31 C30 1_555 1_555
C32 C31 1_555 1_555
H19 C32 1_555 1_555
C33 C28 1_555 1_555
H20 C33 1_555 1_555
C34 H21 1_555 1_555
H22 C34 1_555 1_555
H23 C34 1_555 1_555
C35 H24 1_555 1_555
H25 C35 1_555 1_555
H26 C35 1_555 1_555
Cl1 C19 1_555 1_555
Cl2 C25 1_555 1_555
C36 C31 1_555 1_555
H27 C36 1_555 1_555
H28 C36 1_555 1_555
H29 C36 1_555 1_555
N1 C1 1_555 1_555
O1 C6 1_555 1_555
O2 C7 1_555 1_555
O3 S1 1_555 1_555
O4 S1 1_555 1_555
S1 C28 1_555 1_555
C8 C9 1_555 1_555
C9 N1 1_555 1_555
C14 C15 1_555 1_555
C20 C21 1_555 1_555
C26 C27 1_555 1_555
C32 C33 1_555 1_555
C34 O1 1_555 1_555
C35 O2 1_555 1_555
N1 S1 1_555 1_555

#END
