
#######################################################################
#
#                 Cambridge Crystallographic Data Centre
#                                CCDC 
#
#######################################################################
#
# If this CIF has been generated from an entry in the Cambridge 
# Structural Database, then it will include bibliographic, chemical, 
# crystal, experimental, refinement or atomic coordinate data resulting 
# from the CCDC's data processing and validation procedures.
#
#######################################################################

data_GAMMUD
_chemical_formula_moiety         'C20 H13 N3'
_chemical_name_systematic        
3,10,13,14a-tetrahydrodinaptho(1,2-b:1',8'-ef)(1,4)diazepin-13-amine
_symmetry_cell_setting           orthorhombic
_symmetry_space_group_name_H-M   'P 21 21 21'
_symmetry_Int_Tables_number      19
_space_group_name_Hall           'P 2ac 2ab'
loop_
_symmetry_equiv_pos_site_id
_symmetry_equiv_pos_as_xyz
1 x,y,z
2 1/2-x,-y,1/2+z
3 -x,1/2+y,1/2-z
4 1/2+x,1/2-y,-z
_cell_length_a                   4.9575(6)
_cell_length_b                   15.1933(18)
_cell_length_c                   18.374(2)
_cell_angle_alpha                90
_cell_angle_beta                 90
_cell_angle_gamma                90
_cell_volume                     1383.94
_exptl_crystal_colour            violet
_exptl_crystal_description       plate
_cell_formula_units_Z            4
loop_
_atom_site_label
_atom_site_type_symbol
_atom_site_fract_x
_atom_site_fract_y
_atom_site_fract_z
C1 C -0.4371(4) 0.53820(14) 0.61949(10)
H1 H -0.5177 0.4830 0.6181
C2 C -0.5193(5) 0.60151(15) 0.57174(11)
H2 H -0.6553 0.5889 0.5385
C3 C -0.4029(4) 0.68414(14) 0.57227(10)
H3 H -0.4600 0.7268 0.5394
C4 C -0.2012(4) 0.70309(13) 0.62177(9)
C5 C -0.1071(4) 0.64052(12) 0.67281(9)
C6 C -0.2306(4) 0.55503(13) 0.67127(10)
C7 C -0.0848(5) 0.79047(12) 0.62118(11)
H4 H -0.1490 0.8315 0.5878
C8 C 0.1102(4) 0.81395(13) 0.66654(10)
H5 H 0.1790 0.8707 0.6632
C9 C 0.2220(4) 0.75504(12) 0.72140(10)
C10 C 0.1080(4) 0.66358(11) 0.72555(9)
C11 C 0.5680(4) 0.75670(13) 0.81638(10)
C12 C 0.5535(3) 0.67130(12) 0.84910(9)
C13 C 0.3710(4) 0.60268(12) 0.82746(9)
C14 C 0.3767(4) 0.52291(13) 0.86411(11)
H6 H 0.2578 0.4787 0.8501
C15 C 0.5547(5) 0.50690(13) 0.92130(11)
H7 H 0.5526 0.4527 0.9448
C16 C 0.7320(4) 0.57034(15) 0.94293(10)
H8 H 0.8508 0.5592 0.9810
C17 C 0.7356(4) 0.65271(13) 0.90774(10)
C18 C 0.9245(4) 0.71745(15) 0.93081(11)
H9 H 1.0419 0.7050 0.9689
C19 C 0.9345(4) 0.79750(15) 0.89750(12)
H10 H 1.0594 0.8395 0.9125
C20 C 0.7564(4) 0.81608(14) 0.84080(11)
H11 H 0.7655 0.8710 0.8186
N1 N 0.1797(3) 0.60333(10) 0.77177(8)
N2 N 0.4089(3) 0.79124(11) 0.76043(8)
N3 N -0.1614(4) 0.48927(11) 0.71650(9)
H12 H -0.2413 0.4392 0.7135
H13 H -0.0371 0.4973 0.7485
loop_
_geom_bond_atom_site_label_1
_geom_bond_atom_site_label_2
_geom_bond_site_symmetry_1
_geom_bond_site_symmetry_2
C1 H1 1_555 1_555
C2 C1 1_555 1_555
H2 C2 1_555 1_555
C3 C2 1_555 1_555
H3 C3 1_555 1_555
C4 C3 1_555 1_555
C5 C4 1_555 1_555
C6 C1 1_555 1_555
C7 C4 1_555 1_555
H4 C7 1_555 1_555
C8 C7 1_555 1_555
H5 C8 1_555 1_555
C9 C8 1_555 1_555
C10 C5 1_555 1_555
C11 C12 1_555 1_555
C12 C13 1_555 1_555
C13 C14 1_555 1_555
C14 H6 1_555 1_555
C15 C14 1_555 1_555
H7 C15 1_555 1_555
C16 C15 1_555 1_555
H8 C16 1_555 1_555
C17 C12 1_555 1_555
C18 C17 1_555 1_555
H9 C18 1_555 1_555
C19 C18 1_555 1_555
H10 C19 1_555 1_555
C20 C11 1_555 1_555
H11 C20 1_555 1_555
N1 C10 1_555 1_555
N2 C9 1_555 1_555
N3 C6 1_555 1_555
H12 N3 1_555 1_555
H13 N3 1_555 1_555
C5 C6 1_555 1_555
C9 C10 1_555 1_555
C11 N2 1_555 1_555
C13 N1 1_555 1_555
C16 C17 1_555 1_555
C19 C20 1_555 1_555

#END
