
#######################################################################
#
#                 Cambridge Crystallographic Data Centre
#                                CCDC 
#
#######################################################################
#
# If this CIF has been generated from an entry in the Cambridge 
# Structural Database, then it will include bibliographic, chemical, 
# crystal, experimental, refinement or atomic coordinate data resulting 
# from the CCDC's data processing and validation procedures.
#
#######################################################################

data_GANSEU
_chemical_formula_moiety         'C17 H22 O1 S1'
_chemical_name_systematic        
(S)-1,1,3,3-Tetramethyl-4'-vinylspiro(indane-2,2'-(1,3)oxathiolane)
_symmetry_cell_setting           monoclinic
_symmetry_space_group_name_H-M   'C 2'
_symmetry_Int_Tables_number      5
_space_group_name_Hall           'C 2y'
loop_
_symmetry_equiv_pos_site_id
_symmetry_equiv_pos_as_xyz
1 x,y,z
2 -x,y,-z
3 1/2+x,1/2+y,z
4 1/2-x,1/2+y,-z
_cell_length_a                   19.7743(4)
_cell_length_b                   8.2890(2)
_cell_length_c                   19.7925(4)
_cell_angle_alpha                90
_cell_angle_beta                 109.8134(12)
_cell_angle_gamma                90
_cell_volume                     3052.12
_exptl_crystal_colour            colorless
_exptl_crystal_description       prism
_chemical_melting_point          '332.3-332.6 K'
_cell_formula_units_Z            8
_exptl_crystal_recrystallization_method 'diethyl ether/methanol'
loop_
_atom_site_label
_atom_site_type_symbol
_atom_site_fract_x
_atom_site_fract_y
_atom_site_fract_z
S1 S 0.43263(3) 0.68716(9) 0.55007(3)
O1 O 0.31513(8) 0.8597(2) 0.52289(8)
C1 C 0.36691(13) 0.7863(3) 0.65007(14)
C2 C 0.38177(12) 0.8386(3) 0.58036(12)
C3 C 0.41757(12) 1.0115(3) 0.59639(13)
C4 C 0.38464(12) 1.0740(3) 0.65014(13)
C5 C 0.38232(14) 1.2328(3) 0.67223(15)
H1 H 0.4011 1.3180 0.6518
C6 C 0.35219(14) 1.2644(4) 0.72450(15)
H2 H 0.3506 1.3721 0.7402
C7 C 0.32453(14) 1.1414(4) 0.75401(15)
H3 H 0.3040 1.1655 0.7898
C8 C 0.32625(13) 0.9836(4) 0.73235(14)
H4 H 0.3067 0.8994 0.7526
C9 C 0.35715(12) 0.9500(3) 0.68029(14)
C10 C 0.36751(13) 0.6800(3) 0.45938(13)
H5 H 0.3811 0.7567 0.4271
C11 C 0.29881(13) 0.7339(4) 0.47076(13)
H6 H 0.2640 0.7732 0.4249
H7 H 0.2768 0.6418 0.4875
C12 C 0.30089(13) 0.6788(4) 0.63505(14)
H8 H 0.2932 0.6538 0.6803
H9 H 0.3084 0.5785 0.6124
H10 H 0.2587 0.7351 0.6028
C13 C 0.43126(13) 0.6989(3) 0.70476(12)
H11 H 0.4735 0.7694 0.7180
H12 H 0.4416 0.5995 0.6832
H13 H 0.4195 0.6722 0.7477
C14 C 0.39985(15) 1.1137(4) 0.52810(15)
H14 H 0.3477 1.1277 0.5071
H15 H 0.4176 1.0592 0.4935
H16 H 0.4229 1.2195 0.5400
C15 C 0.49984(12) 1.0072(4) 0.63077(14)
H17 H 0.5182 1.1174 0.6417
H18 H 0.5206 0.9574 0.5973
H19 H 0.5132 0.9439 0.6752
C16 C 0.36304(14) 0.5120(3) 0.43170(15)
H20 H 0.3379 0.4362 0.4504
C17 C 0.38988(17) 0.4588(5) 0.38483(16)
H21 H 0.4155 0.5298 0.3645
H22 H 0.3840 0.3488 0.3707
S2 S 0.57087(4) 0.37326(10) 0.94850(4)
O2 O 0.69297(9) 0.2200(3) 0.97084(9)
C18 C 0.63631(13) 0.2822(3) 0.84529(14)
C19 C 0.62318(12) 0.2286(4) 0.91611(13)
C20 C 0.58937(13) 0.0549(4) 0.90128(14)
C21 C 0.62048(13) -0.0049(4) 0.84543(15)
C22 C 0.62325(15) -0.1618(4) 0.82227(17)
H23 H 0.6046 -0.2478 0.8423
C23 C 0.65336(15) -0.1927(4) 0.76972(17)
H24 H 0.6554 -0.3002 0.7539
C24 C 0.68046(14) -0.0682(4) 0.74019(15)
H25 H 0.7011 -0.0906 0.7043
C25 C 0.67767(14) 0.0902(4) 0.76274(15)
H26 H 0.6960 0.1764 0.7424
C26 C 0.64752(13) 0.1197(4) 0.81561(14)
C27 C 0.64756(13) 0.4299(4) 1.02584(13)
H27 H 0.6732 0.5232 1.0135
C28 C 0.69375(14) 0.2812(4) 1.03816(14)
H28 H 0.7436 0.3080 1.0684
H29 H 0.6752 0.1986 1.0635
C29 C 0.70055(14) 0.3964(4) 0.86027(15)
H30 H 0.7445 0.3401 0.8889
H31 H 0.6932 0.4908 0.8868
H32 H 0.7051 0.4314 0.8147
C30 C 0.57027(13) 0.3654(4) 0.79132(13)
H33 H 0.5780 0.3790 0.7453
H34 H 0.5633 0.4712 0.8100
H35 H 0.5275 0.2987 0.7843
C31 C 0.61100(16) -0.0515(5) 0.96838(15)
H36 H 0.5911 -0.1600 0.9555
H37 H 0.5922 -0.0048 1.0039
H38 H 0.6635 -0.0578 0.9887
C32 C 0.50647(13) 0.0545(4) 0.86956(16)
H39 H 0.4908 0.1187 0.8254
H40 H 0.4868 0.1011 0.9045
H41 H 0.4892 -0.0566 0.8587
C33 C 0.62258(15) 0.4739(4) 1.08671(14)
H42 H 0.6038 0.3904 1.1080
C34 C 0.6248(2) 0.6188(5) 1.11241(17)
H43 H 0.6433 0.7052 1.0923
H44 H 0.6080 0.6384 1.1513
loop_
_geom_bond_atom_site_label_1
_geom_bond_atom_site_label_2
_geom_bond_site_symmetry_1
_geom_bond_site_symmetry_2
S1 C2 1_555 1_555
O1 C2 1_555 1_555
C1 C2 1_555 1_555
C2 C3 1_555 1_555
C3 C4 1_555 1_555
C4 C5 1_555 1_555
C5 H1 1_555 1_555
C6 C5 1_555 1_555
H2 C6 1_555 1_555
C7 C6 1_555 1_555
H3 C7 1_555 1_555
C8 C7 1_555 1_555
H4 C8 1_555 1_555
C9 C1 1_555 1_555
C10 S1 1_555 1_555
H5 C10 1_555 1_555
C11 O1 1_555 1_555
H6 C11 1_555 1_555
H7 C11 1_555 1_555
C12 C1 1_555 1_555
H8 C12 1_555 1_555
H9 C12 1_555 1_555
H10 C12 1_555 1_555
C13 C1 1_555 1_555
H11 C13 1_555 1_555
H12 C13 1_555 1_555
H13 C13 1_555 1_555
C14 C3 1_555 1_555
H14 C14 1_555 1_555
H15 C14 1_555 1_555
H16 C14 1_555 1_555
C15 C3 1_555 1_555
H17 C15 1_555 1_555
H18 C15 1_555 1_555
H19 C15 1_555 1_555
C16 C10 1_555 1_555
H20 C16 1_555 1_555
C17 C16 1_555 1_555
H21 C17 1_555 1_555
H22 C17 1_555 1_555
S2 C19 1_555 1_555
O2 C19 1_555 1_555
C18 C19 1_555 1_555
C19 C20 1_555 1_555
C20 C21 1_555 1_555
C21 C22 1_555 1_555
C22 H23 1_555 1_555
C23 C22 1_555 1_555
H24 C23 1_555 1_555
C24 C23 1_555 1_555
H25 C24 1_555 1_555
C25 C24 1_555 1_555
H26 C25 1_555 1_555
C26 C18 1_555 1_555
C27 S2 1_555 1_555
H27 C27 1_555 1_555
C28 O2 1_555 1_555
H28 C28 1_555 1_555
H29 C28 1_555 1_555
C29 C18 1_555 1_555
H30 C29 1_555 1_555
H31 C29 1_555 1_555
H32 C29 1_555 1_555
C30 C18 1_555 1_555
H33 C30 1_555 1_555
H34 C30 1_555 1_555
H35 C30 1_555 1_555
C31 C20 1_555 1_555
H36 C31 1_555 1_555
H37 C31 1_555 1_555
H38 C31 1_555 1_555
C32 C20 1_555 1_555
H39 C32 1_555 1_555
H40 C32 1_555 1_555
H41 C32 1_555 1_555
C33 C27 1_555 1_555
H42 C33 1_555 1_555
C34 C33 1_555 1_555
H43 C34 1_555 1_555
H44 C34 1_555 1_555
C4 C9 1_555 1_555
C8 C9 1_555 1_555
C10 C11 1_555 1_555
C21 C26 1_555 1_555
C25 C26 1_555 1_555
C27 C28 1_555 1_555

#END
