
#######################################################################
#
#                 Cambridge Crystallographic Data Centre
#                                CCDC 
#
#######################################################################
#
# If this CIF has been generated from an entry in the Cambridge 
# Structural Database, then it will include bibliographic, chemical, 
# crystal, experimental, refinement or atomic coordinate data resulting 
# from the CCDC's data processing and validation procedures.
#
#######################################################################

data_GANYOK
_chemical_formula_moiety         'C14 H20 N4 2+,C12 N6 2-'
_chemical_name_systematic        
"(2,2'-(1,4-Phenylene)-bis(3,4,5,6-tetrahydro-1H-pyrimidinium)) tris(dicyanomethylene)propanediide"
_symmetry_cell_setting           triclinic
_symmetry_space_group_name_H-M   'P -1'
_symmetry_Int_Tables_number      2
_space_group_name_Hall           '-P 1'
loop_
_symmetry_equiv_pos_site_id
_symmetry_equiv_pos_as_xyz
1 x,y,z
2 -x,-y,-z
_cell_length_a                   6.6656(6)
_cell_length_b                   8.2082(7)
_cell_length_c                   22.476(2)
_cell_angle_alpha                83.3270(10)
_cell_angle_beta                 82.168(2)
_cell_angle_gamma                84.308(2)
_cell_volume                     1205.65
_exptl_crystal_colour            green
_cell_formula_units_Z            2
loop_
_atom_site_label
_atom_site_type_symbol
_atom_site_fract_x
_atom_site_fract_y
_atom_site_fract_z
N1 N -0.0120(2) 0.28589(17) 0.44505(6)
H1 H -0.0384 0.2451 0.4830
N2 N -0.1113(2) 0.46233(18) 0.36527(6)
H3 H -0.2089 0.5281 0.3504
C8 C -0.3948(2) 0.6176(2) 0.46128(7)
H12 H -0.3228 0.6971 0.4348
C9 C -0.4357(2) 0.3329(2) 0.50002(7)
H13 H -0.3914 0.2193 0.4998
C10 C -0.3302(2) 0.4503(2) 0.46134(7)
C11 C -0.1431(2) 0.3971(2) 0.42196(7)
C12 C 0.0802(3) 0.4298(2) 0.32593(7)
H14 H 0.1162 0.5320 0.3005
H15 H 0.0635 0.3462 0.2990
C13 C 0.2489(3) 0.3681(2) 0.36399(8)
H16 H 0.2839 0.4585 0.3852
H17 H 0.3718 0.3291 0.3378
C14 C 0.1767(3) 0.2277(2) 0.40969(8)
H19 H 0.1531 0.1334 0.3885
H20 H 0.2816 0.1905 0.4367
N1A N -0.9880(2) 0.71411(17) 0.55495(6)
H1A H -0.9616 0.7549 0.5170
N2A N -0.8887(2) 0.53767(18) 0.63473(6)
H3A H -0.7911 0.4719 0.6496
C8A C -0.6052(2) 0.3824(2) 0.53872(7)
H12A H -0.6772 0.3029 0.5652
C9A C -0.5643(2) 0.6671(2) 0.49998(7)
H13A H -0.6086 0.7807 0.5002
C10A C -0.6698(2) 0.5497(2) 0.53866(7)
C11A C -0.8569(2) 0.6029(2) 0.57804(7)
C12A C -1.0802(3) 0.5702(2) 0.67407(7)
H14A H -1.1162 0.4680 0.6995
H15A H -1.0635 0.6538 0.7010
C13A C -1.2489(3) 0.6319(2) 0.63601(8)
H16A H -1.2839 0.5415 0.6148
H17A H -1.3718 0.6709 0.6622
C14A C -1.1767(3) 0.7723(2) 0.59031(8)
H19A H -1.1531 0.8666 0.6115
H20A H -1.2816 0.8095 0.5633
C1 C 0.4241(2) 0.6221(2) -0.04178(7)
H2 H 0.3729 0.7048 -0.0704
C2 C 0.5572(2) 0.6601(2) -0.00390(7)
H4 H 0.5960 0.7691 -0.0062
N3 N 0.0754(2) 0.32627(19) -0.05233(6)
H5 H 0.0599 0.2992 -0.0130
C3 C 0.3662(2) 0.4625(2) -0.03767(7)
C4 C 0.2202(2) 0.4200(2) -0.07654(7)
C5 C -0.0606(3) 0.2658(3) -0.08901(9)
H6 H 0.0039 0.1644 -0.1059
H7 H -0.1888 0.2389 -0.0636
C6 C -0.1042(4) 0.3931(3) -0.13840(11)
H8 H -0.1850 0.3483 -0.1656
H9 H -0.1861 0.4881 -0.1214
C7 C 0.0920(3) 0.4513(3) -0.17473(8)
H10 H 0.0607 0.5557 -0.1998
H11 H 0.1524 0.3681 -0.2020
N6 N 0.2381(2) 0.4765(2) -0.13395(6)
H18 H 0.3431 0.5322 -0.1488
C1A C 0.5759(2) 0.3779(2) 0.04178(7)
H2A H 0.6271 0.2952 0.0704
C2A C 0.4428(2) 0.3399(2) 0.00390(7)
H4A H 0.4040 0.2309 0.0062
N3A N 0.9246(2) 0.67373(19) 0.05233(6)
H5A H 0.9401 0.7008 0.0130
C3A C 0.6338(2) 0.5375(2) 0.03767(7)
C4A C 0.7798(2) 0.5800(2) 0.07654(7)
C5A C 1.0606(3) 0.7342(3) 0.08901(9)
H6A H 0.9961 0.8356 0.1059
H7A H 1.1888 0.7611 0.0636
C6A C 1.1042(4) 0.6069(3) 0.13840(11)
H8A H 1.1850 0.6517 0.1656
H9A H 1.1861 0.5119 0.1214
C7A C 0.9080(3) 0.5487(3) 0.17473(8)
H10A H 0.9393 0.4443 0.1998
H11A H 0.8476 0.6319 0.2020
N6A N 0.7619(2) 0.5235(2) 0.13395(6)
H18A H 0.6569 0.4678 0.1488
N4 N 0.6366(2) 0.0388(2) 0.39621(7)
N5 N 1.0675(2) -0.2111(2) 0.42607(7)
C15 C 0.9698(2) 0.0333(2) 0.26265(7)
C16 C 1.1313(2) 0.01411(19) 0.21720(7)
C17 C 1.1460(2) -0.0606(2) 0.27512(7)
N7 N 1.6051(2) -0.3093(2) 0.29905(7)
C18 C 0.7744(2) 0.0984(2) 0.28388(7)
C19 C 1.2165(2) 0.0435(2) 0.15708(7)
C20 C 1.2488(3) -0.1601(2) 0.31835(7)
C21 C 1.1077(3) 0.1395(2) 0.11404(7)
N8 N 0.5470(3) 0.2743(2) 0.21320(7)
C22 C 1.4141(3) -0.0244(2) 0.13645(8)
C23 C 1.4464(3) -0.2395(2) 0.30593(7)
C24 C 1.1500(3) -0.1885(2) 0.37780(8)
C25 C 0.6970(3) 0.0656(2) 0.34578(8)
C26 C 0.6490(3) 0.1945(2) 0.24480(8)
N9 N 1.0236(2) 0.2157(2) 0.07704(7)
N10 N 1.5722(3) -0.0803(3) 0.11808(9)
loop_
_geom_bond_atom_site_label_1
_geom_bond_atom_site_label_2
_geom_bond_site_symmetry_1
_geom_bond_site_symmetry_2
N1 H1 1_555 1_555
C1 H2 1_555 1_555
N2 H3 1_555 1_555
C2 C1 1_555 1_555
H4 C2 1_555 1_555
N3 H5 1_555 1_555
C3 C1 1_555 1_555
C4 N3 1_555 1_555
C5 N3 1_555 1_555
H6 C5 1_555 1_555
H7 C5 1_555 1_555
C6 C5 1_555 1_555
H8 C6 1_555 1_555
H9 C6 1_555 1_555
C7 C6 1_555 1_555
H10 C7 1_555 1_555
H11 C7 1_555 1_555
N4 C25 1_555 1_555
C8 H12 1_555 1_555
C9 H13 1_555 1_555
C10 C8 1_555 1_555
N5 C24 1_555 1_555
C11 N1 1_555 1_555
C12 N2 1_555 1_555
H14 C12 1_555 1_555
H15 C12 1_555 1_555
C13 C12 1_555 1_555
H16 C13 1_555 1_555
H17 C13 1_555 1_555
N6 C4 1_555 1_555
H18 N6 1_555 1_555
C14 N1 1_555 1_555
H19 C14 1_555 1_555
H20 C14 1_555 1_555
C15 C16 1_555 1_555
C16 C17 1_555 1_555
C17 C15 1_555 1_555
N7 C23 1_555 1_555
C18 C15 1_555 1_555
C19 C16 1_555 1_555
C20 C17 1_555 1_555
C21 C19 1_555 1_555
N8 C26 1_555 1_555
C22 C19 1_555 1_555
C23 C20 1_555 1_555
C24 C20 1_555 1_555
C25 C18 1_555 1_555
C26 C18 1_555 1_555
N9 C21 1_555 1_555
N10 C22 1_555 1_555
N1A H1A 1_555 1_555
C1A H2A 1_555 1_555
N2A H3A 1_555 1_555
C2A C3 1_555 1_555
H4A C2A 1_555 1_555
N3A H5A 1_555 1_555
C3A C2 1_555 1_555
C4A N3A 1_555 1_555
C5A N3A 1_555 1_555
H6A C5A 1_555 1_555
H7A C5A 1_555 1_555
C6A C5A 1_555 1_555
H8A C6A 1_555 1_555
H9A C6A 1_555 1_555
C7A C6A 1_555 1_555
H10A C7A 1_555 1_555
H11A C7A 1_555 1_555
C8A C9 1_555 1_555
H12A C8A 1_555 1_555
C9A C8 1_555 1_555
H13A C9A 1_555 1_555
C10A C8A 1_555 1_555
C11A N1A 1_555 1_555
C12A N2A 1_555 1_555
H14A C12A 1_555 1_555
H15A C12A 1_555 1_555
C13A C12A 1_555 1_555
H16A C13A 1_555 1_555
H17A C13A 1_555 1_555
N6A C4A 1_555 1_555
H18A N6A 1_555 1_555
C14A N1A 1_555 1_555
H19A C14A 1_555 1_555
H20A C14A 1_555 1_555
N2 C11 1_555 1_555
C3 C4 1_555 1_555
C7 N6 1_555 1_555
C9 C10 1_555 1_555
C10 C11 1_555 1_555
C13 C14 1_555 1_555
C1A C2A 1_555 1_555
C1A C3A 1_555 1_555
N2A C11A 1_555 1_555
C3A C4A 1_555 1_555
C7A N6A 1_555 1_555
C9A C10A 1_555 1_555
C10A C11A 1_555 1_555
C13A C14A 1_555 1_555

#END
