
#######################################################################
#
#                 Cambridge Crystallographic Data Centre
#                                CCDC 
#
#######################################################################
#
# If this CIF has been generated from an entry in the Cambridge 
# Structural Database, then it will include bibliographic, chemical, 
# crystal, experimental, refinement or atomic coordinate data resulting 
# from the CCDC's data processing and validation procedures.
#
#######################################################################

data_GANYOK01
_chemical_formula_moiety         'C14 H20 N4 2+,C12 N6 2-'
_chemical_name_systematic        
"(2,2'-(1,4-Phenylene)-bis(3,4,5,6-tetrahydro-1H-pyrimidinium)) tris(dicyanomethylene)propanediide"
_symmetry_cell_setting           orthorhombic
_symmetry_space_group_name_H-M   'F d d 2'
_symmetry_Int_Tables_number      43
_space_group_name_Hall           'F 2 -2d'
loop_
_symmetry_equiv_pos_site_id
_symmetry_equiv_pos_as_xyz
1 x,y,z
2 -x,-y,z
3 1/4-x,1/4+y,1/4+z
4 3/4+x,3/4-y,1/4+z
5 x,1/2+y,1/2+z
6 -x,1/2-y,1/2+z
7 1/4-x,3/4+y,3/4+z
8 3/4+x,1/4-y,3/4+z
9 1/2+x,y,1/2+z
10 1/2-x,-y,1/2+z
11 3/4-x,1/4+y,3/4+z
12 1/4+x,3/4-y,3/4+z
13 1/2+x,1/2+y,z
14 1/2-x,1/2-y,z
15 3/4-x,3/4+y,1/4+z
16 1/4+x,1/4-y,1/4+z
_cell_length_a                   12.1332(15)
_cell_length_b                   16.798(2)
_cell_length_c                   46.658(6)
_cell_angle_alpha                90
_cell_angle_beta                 90
_cell_angle_gamma                90
_cell_volume                     9509.53
_exptl_crystal_colour            red
_exptl_crystal_description       'hexagonal plate'
_cell_formula_units_Z            16
loop_
_atom_site_label
_atom_site_type_symbol
_atom_site_fract_x
_atom_site_fract_y
_atom_site_fract_z
C13 C 0.0225(9) 0.0259(6) 0.30391(14)
H1 H 0.0740 0.0714 0.3052
H2 H 0.0087 0.0154 0.2833
C14 C -0.0769(4) 0.0467(3) 0.31703(8)
H3 H -0.1360 0.0120 0.3095
H4 H -0.0952 0.1023 0.3118
N7 N -0.0751(3) 0.04038(18) 0.34732(6)
H5 H -0.1269 0.0647 0.3572
C15 C 0.0000 0.0000 0.36132(10)
C16 C 0.0000 0.0000 0.39315(9)
C17 C 0.0542(3) -0.05888(19) 0.40846(6)
H6 H 0.0918 -0.0998 0.3984
C18 C 0.0550(3) -0.05947(19) 0.43812(7)
H7 H 0.0929 -0.1002 0.4482
C19 C 0.0000 0.0000 0.45286(10)
C20 C 0.0000 0.0000 0.48452(10)
N8 N 0.0805(3) -0.0344(2) 0.49803(7)
H8 H 0.1343 -0.0556 0.4880
C21 C 0.0855(4) -0.0393(4) 0.52978(8)
H9 H 0.1068 -0.0939 0.5354
H10 H 0.1431 -0.0024 0.5369
C22 C -0.0127(8) -0.0205(4) 0.54232(18)
H11 H 0.0037 -0.0032 0.5621
H12 H -0.0556 -0.0705 0.5438
C13A C -0.0225(9) -0.0259(6) 0.30391(14)
H1A H -0.0740 -0.0714 0.3052
H2A H -0.0087 -0.0154 0.2833
C14A C 0.0769(4) -0.0467(3) 0.31703(8)
H3A H 0.1360 -0.0120 0.3095
H4A H 0.0952 -0.1023 0.3118
N7A N 0.0751(3) -0.04038(18) 0.34732(6)
H5A H 0.1269 -0.0647 0.3572
C17A C -0.0542(3) 0.05888(19) 0.40846(6)
H6A H -0.0918 0.0998 0.3984
C18A C -0.0550(3) 0.05947(19) 0.43812(7)
H7A H -0.0929 0.1002 0.4482
N8A N -0.0805(3) 0.0344(2) 0.49803(7)
H8A H -0.1343 0.0556 0.4880
C21A C -0.0855(4) 0.0393(4) 0.52978(8)
H9A H -0.1068 0.0939 0.5354
H10A H -0.1431 0.0024 0.5369
C22A C 0.0127(8) 0.0205(4) 0.54232(18)
H11A H -0.0037 0.0032 0.5621
H12A H 0.0556 0.0705 0.5438
C23 C 0.2624(9) -0.2722(5) 0.78840(16)
H13 H 0.3081 -0.3210 0.7890
H14 H 0.2465 -0.2577 0.8086
C24 C 0.1664(4) -0.2925(3) 0.77649(8)
H15 H 0.1083 -0.2549 0.7828
H16 H 0.1452 -0.3465 0.7829
N9 N 0.1751(3) -0.2911(2) 0.74435(6)
H17 H 0.1279 -0.3190 0.7341
C25 C 0.2500 -0.2500 0.73123(10)
C26 C 0.2500 -0.2500 0.69954(11)
C27 C 0.3486(3) -0.24828(18) 0.68470(7)
H18 H 0.4164 -0.2469 0.6949
C28 C 0.3491(3) -0.24854(18) 0.65529(7)
H19 H 0.4170 -0.2477 0.6452
C29 C 0.2500 -0.2500 0.64027(9)
C30 C 0.2500 -0.2500 0.60858(10)
N10 N 0.3263(3) -0.20961(19) 0.59468(6)
H20 H 0.3763 -0.1835 0.6046
C31 C 0.3307(4) -0.2068(3) 0.56396(8)
H21 H 0.4086 -0.2080 0.5576
H22 H 0.2974 -0.1564 0.5571
C32 C 0.2713(12) -0.2744(6) 0.55145(14)
H23 H 0.2590 -0.2633 0.5309
H24 H 0.3193 -0.3220 0.5527
C23M C 0.2376(9) -0.2278(5) 0.78840(16)
H13M H 0.1919 -0.1790 0.7890
H14M H 0.2535 -0.2423 0.8086
C24M C 0.3336(4) -0.2075(3) 0.77649(8)
H15M H 0.3917 -0.2451 0.7828
H16M H 0.3548 -0.1535 0.7829
N9M N 0.3249(3) -0.2089(2) 0.74435(6)
H17M H 0.3721 -0.1810 0.7341
C27M C 0.1514(3) -0.25172(18) 0.68470(7)
H18M H 0.0836 -0.2531 0.6949
C28M C 0.1509(3) -0.25146(18) 0.65529(7)
H19M H 0.0830 -0.2523 0.6452
N10M N 0.1737(3) -0.29039(19) 0.59468(6)
H20M H 0.1237 -0.3165 0.6046
C31M C 0.1693(4) -0.2932(3) 0.56396(8)
H21M H 0.0914 -0.2920 0.5576
H22M H 0.2026 -0.3436 0.5571
C32M C 0.2287(12) -0.2256(6) 0.55145(14)
H23M H 0.2410 -0.2367 0.5309
H24M H 0.1807 -0.1780 0.5527
N1 N 0.5242(4) -0.2597(3) 0.33325(8)
N2 N 0.2589(3) -0.1356(2) 0.37028(7)
N3 N 0.2669(3) -0.1308(2) 0.47422(7)
N4 N 0.5232(3) -0.2731(3) 0.50906(8)
N5 N 0.7492(3) -0.3678(2) 0.46700(8)
N6 N 0.7474(3) -0.3677(2) 0.37389(7)
C1 C 0.4822(3) -0.2301(2) 0.40651(7)
C2 C 0.4820(3) -0.2303(2) 0.43618(7)
C3 C 0.5645(2) -0.26919(18) 0.42073(9)
C4 C 0.4377(3) -0.21127(19) 0.37930(7)
C5 C 0.4912(3) -0.2399(2) 0.35446(9)
C6 C 0.3382(3) -0.1700(2) 0.37536(7)
C7 C 0.4377(3) -0.21427(19) 0.46315(7)
C8 C 0.3424(3) -0.1697(2) 0.46815(6)
C9 C 0.4884(4) -0.2474(2) 0.48817(8)
C10 C 0.6575(2) -0.31877(18) 0.42055(8)
C11 C 0.7069(3) -0.3448(2) 0.44649(8)
C12 C 0.7049(3) -0.3447(2) 0.39472(9)
loop_
_geom_bond_atom_site_label_1
_geom_bond_atom_site_label_2
_geom_bond_site_symmetry_1
_geom_bond_site_symmetry_2
N1 C5 1_555 1_555
N2 C6 1_555 1_555
N3 C8 1_555 1_555
N4 C9 1_555 1_555
N5 C11 1_555 1_555
N6 C12 1_555 1_555
C1 C2 1_555 1_555
C2 C3 1_555 1_555
C3 C1 1_555 1_555
C4 C1 1_555 1_555
C5 C4 1_555 1_555
C6 C4 1_555 1_555
C7 C2 1_555 1_555
C8 C7 1_555 1_555
C9 C7 1_555 1_555
C10 C3 1_555 1_555
C11 C10 1_555 1_555
C12 C10 1_555 1_555
C13 H1 1_555 1_555
H2 C13 1_555 1_555
C14 C13 1_555 1_555
H3 C14 1_555 1_555
H4 C14 1_555 1_555
N7 C14 1_555 1_555
H5 N7 1_555 1_555
C15 N7 1_555 1_555
C16 C15 1_555 1_555
C17 C16 1_555 1_555
H6 C17 1_555 1_555
C18 C17 1_555 1_555
H7 C18 1_555 1_555
C19 C18 1_555 1_555
C20 C19 1_555 1_555
N8 C20 1_555 1_555
H8 N8 1_555 1_555
C21 N8 1_555 1_555
H9 C21 1_555 1_555
H10 C21 1_555 1_555
C22 C21 1_555 1_555
H11 C22 1_555 1_555
H12 C22 1_555 1_555
C23 H13 1_555 1_555
H14 C23 1_555 1_555
C24 C23 1_555 1_555
H15 C24 1_555 1_555
H16 C24 1_555 1_555
N9 C24 1_555 1_555
H17 N9 1_555 1_555
C25 N9 1_555 1_555
C26 C25 1_555 1_555
C27 C26 1_555 1_555
H18 C27 1_555 1_555
C28 C27 1_555 1_555
H19 C28 1_555 1_555
C29 C28 1_555 1_555
C30 C29 1_555 1_555
N10 C30 1_555 1_555
H20 N10 1_555 1_555
C31 N10 1_555 1_555
H21 C31 1_555 1_555
H22 C31 1_555 1_555
C32 C31 1_555 1_555
H23 C32 1_555 1_555
H24 C32 1_555 1_555
C13A C13 1_555 1_555
H1A C13A 1_555 1_555
H2A C13 1_555 1_555
C14A C13 1_555 1_555
H3A C14A 1_555 1_555
H4A C14A 1_555 1_555
N7A C15 1_555 1_555
H5A N7A 1_555 1_555
C17A C16 1_555 1_555
H6A C17A 1_555 1_555
C18A C19 1_555 1_555
H7A C18A 1_555 1_555
N8A C20 1_555 1_555
H8A N8A 1_555 1_555
C21A C22 1_555 1_555
H9A C21A 1_555 1_555
H10A C21A 1_555 1_555
C22A C21 1_555 1_555
H11A C22 1_555 1_555
H12A C22A 1_555 1_555
C23M C23 1_555 1_555
H13M C23M 1_555 1_555
H14M C23 1_555 1_555
C24M C23 1_555 1_555
H15M C24M 1_555 1_555
H16M C24M 1_555 1_555
N9M C25 1_555 1_555
H17M N9M 1_555 1_555
C27M C26 1_555 1_555
H18M C27M 1_555 1_555
C28M C29 1_555 1_555
H19M C28M 1_555 1_555
N10M C30 1_555 1_555
H20M N10M 1_555 1_555
C31M C32 1_555 1_555
H21M C31M 1_555 1_555
H22M C31M 1_555 1_555
C32M C31 1_555 1_555
H23M C32 1_555 1_555
H24M C32M 1_555 1_555
H2 C13A 1_555 1_555
H2 H2A 1_555 1_555
C14 C13A 1_555 1_555
C22 C22A 1_555 1_555
H11 C22A 1_555 1_555
H11 H11A 1_555 1_555
H14 C23M 1_555 1_555
H14 H14M 1_555 1_555
C24 C23M 1_555 1_555
C32 C32M 1_555 1_555
H23 C32M 1_555 1_555
H23 H23M 1_555 1_555
C13A H2A 1_555 1_555
C13A C14A 1_555 1_555
C14A N7A 1_555 1_555
C17A C18A 1_555 1_555
N8A C21A 1_555 1_555
C21A C22A 1_555 1_555
C22A H11A 1_555 1_555
C23M H14M 1_555 1_555
C23M C24M 1_555 1_555
C24M N9M 1_555 1_555
C27M C28M 1_555 1_555
N10M C31M 1_555 1_555
C31M C32M 1_555 1_555
C32M H23M 1_555 1_555

#END
