
#######################################################################
#
#                 Cambridge Crystallographic Data Centre
#                                CCDC 
#
#######################################################################
#
# If this CIF has been generated from an entry in the Cambridge 
# Structural Database, then it will include bibliographic, chemical, 
# crystal, experimental, refinement or atomic coordinate data resulting 
# from the CCDC's data processing and validation procedures.
#
#######################################################################

data_GAPHOU
_chemical_formula_moiety         'C14 H19 N1 O1 Si1'
_chemical_name_systematic        
4-Methyl-3-((Z)-methyl((E)-dimethyl(phenyl)silyl)methylidene)azetidin-2-one
_symmetry_cell_setting           orthorhombic
_symmetry_space_group_name_H-M   'P b c a'
_symmetry_Int_Tables_number      61
_space_group_name_Hall           '-P 2ac 2ab'
loop_
_symmetry_equiv_pos_site_id
_symmetry_equiv_pos_as_xyz
1 x,y,z
2 1/2-x,1/2+y,z
3 x,1/2-y,1/2+z
4 1/2-x,-y,1/2+z
5 -x,-y,-z
6 1/2+x,1/2-y,-z
7 -x,1/2+y,1/2-z
8 1/2+x,y,1/2-z
_cell_length_a                   8.215(3)
_cell_length_b                   10.551(4)
_cell_length_c                   32.795(14)
_cell_angle_alpha                90
_cell_angle_beta                 90
_cell_angle_gamma                90
_cell_volume                     2842.55
_exptl_crystal_colour            colorless
_cell_formula_units_Z            8
loop_
_atom_site_label
_atom_site_type_symbol
_atom_site_fract_x
_atom_site_fract_y
_atom_site_fract_z
Si1 Si 0.51477(12) 0.20628(10) 0.13138(3)
O1 O 0.5838(3) 0.4171(3) 0.04958(8)
N1 N 0.3396(4) 0.3970(3) 0.01250(9)
C1 C 0.4480(5) 0.3743(4) 0.04287(11)
C2 C 0.2158(4) 0.3068(4) 0.02719(12)
C3 C 0.3348(4) 0.2806(4) 0.06224(11)
C4 C 0.3348(4) 0.2082(3) 0.09502(11)
C5 C 0.4714(4) 0.0831(4) 0.17105(11)
C6 C 0.3889(6) 0.1125(5) 0.20670(13)
C7 C 0.3507(7) 0.0200(5) 0.23534(14)
C8 C 0.3983(7) -0.1020(6) 0.22924(16)
C9 C 0.4806(6) -0.1340(5) 0.19487(15)
C10 C 0.5161(5) -0.0424(4) 0.16567(13)
C11 C 0.0544(5) 0.3665(5) 0.03790(14)
C12 C 0.1897(5) 0.1246(4) 0.10458(14)
C13 C 0.5340(5) 0.3638(4) 0.15548(12)
C14 C 0.7040(5) 0.1636(5) 0.10324(14)
H1 H 0.352(5) 0.455(3) -0.012(1)
H2 H 0.1661(4) 0.2307(4) 0.0090(1)
H3 H 0.370(1) -0.174(1) 0.2518(2)
H4 H 0.519(1) -0.231(1) 0.1902(1)
H5 H 0.580(1) -0.0697(4) 0.1382(1)
H6 H -0.029(1) 0.294(1) 0.0483(1)
H7 H 0.005(1) 0.413(1) 0.0113(1)
H8 H 0.072(1) 0.436(1) 0.0618(1)
H9 H 0.212(1) 0.0729(4) 0.1324(1)
H10 H 0.171(1) 0.0585(4) 0.0799(1)
H11 H 0.082(1) 0.1827(4) 0.1082(1)
H12 H 0.559(1) 0.4340(4) 0.1324(1)
H13 H 0.632(1) 0.3622(4) 0.1773(1)
H14 H 0.422(1) 0.3872(4) 0.1709(1)
H15 H 0.729(1) 0.235(1) 0.0804(1)
H16 H 0.688(1) 0.073(1) 0.0887(1)
H17 H 0.805(1) 0.159(1) 0.1243(1)
loop_
_geom_bond_atom_site_label_1
_geom_bond_atom_site_label_2
_geom_bond_site_symmetry_1
_geom_bond_site_symmetry_2
Si1 C4 1_555 1_555
O1 C1 1_555 1_555
N1 C1 1_555 1_555
C1 C3 1_555 1_555
C2 N1 1_555 1_555
C3 C2 1_555 1_555
C4 C3 1_555 1_555
C5 Si1 1_555 1_555
C6 C5 1_555 1_555
C7 C6 1_555 1_555
C8 C7 1_555 1_555
C9 C8 1_555 1_555
C10 C5 1_555 1_555
C11 C2 1_555 1_555
C12 C4 1_555 1_555
C13 Si1 1_555 1_555
C14 Si1 1_555 1_555
H1 N1 1_555 1_555
H2 C2 1_555 1_555
H3 C8 1_555 1_555
H4 C9 1_555 1_555
H5 C10 1_555 1_555
H6 C11 1_555 1_555
H7 C11 1_555 1_555
H8 C11 1_555 1_555
H9 C12 1_555 1_555
H10 C12 1_555 1_555
H11 C12 1_555 1_555
H12 C13 1_555 1_555
H13 C13 1_555 1_555
H14 C13 1_555 1_555
H15 C14 1_555 1_555
H16 C14 1_555 1_555
H17 C14 1_555 1_555
C9 C10 1_555 1_555

#END
