
#######################################################################
#
#                 Cambridge Crystallographic Data Centre
#                                CCDC 
#
#######################################################################
#
# If this CIF has been generated from an entry in the Cambridge 
# Structural Database, then it will include bibliographic, chemical, 
# crystal, experimental, refinement or atomic coordinate data resulting 
# from the CCDC's data processing and validation procedures.
#
#######################################################################

data_GAQREY
_chemical_formula_moiety         'C35 H29 N1 O3'
_chemical_name_systematic        
N-(3-benzyl-2-oxo-4-phenyl-3,4-dihydro-2H-benzo[h]chromen-3-yl)-3,5-dimethylbenzamide
_symmetry_cell_setting           orthorhombic
_symmetry_space_group_name_H-M   'P 21 21 21'
_symmetry_Int_Tables_number      19
_space_group_name_Hall           'P 2ac 2ab'
loop_
_symmetry_equiv_pos_site_id
_symmetry_equiv_pos_as_xyz
1 x,y,z
2 1/2-x,-y,1/2+z
3 -x,1/2+y,1/2-z
4 1/2+x,1/2-y,-z
_cell_length_a                   11.6508(2)
_cell_length_b                   13.8642(2)
_cell_length_c                   16.6288(3)
_cell_angle_alpha                90
_cell_angle_beta                 90
_cell_angle_gamma                90
_cell_volume                     2686.03
_exptl_crystal_colour            colorless
_exptl_crystal_description       block
_cell_formula_units_Z            4
loop_
_atom_site_label
_atom_site_type_symbol
_atom_site_fract_x
_atom_site_fract_y
_atom_site_fract_z
O1 O 0.57054(15) 0.52233(13) 0.21719(11)
O2 O 0.41610(15) 0.49700(12) 0.29073(11)
O3 O 0.73755(17) 0.23221(14) 0.32975(12)
N1 N 0.69068(17) 0.37551(15) 0.27286(12)
H1 H 0.716662 0.425320 0.245579
C1 C 0.5548(2) 0.37215(17) 0.38975(14)
H2 H 0.568528 0.303838 0.406478
C2 C 0.5706(2) 0.37623(17) 0.29673(15)
C3 C 0.5228(2) 0.47119(17) 0.26464(14)
C4 C 0.3678(2) 0.45246(17) 0.35804(14)
C5 C 0.4304(2) 0.39468(17) 0.40848(15)
C6 C 0.3755(2) 0.35471(19) 0.47658(14)
H3 H 0.418081 0.315268 0.512518
C7 C 0.2616(2) 0.37203(19) 0.49150(16)
H4 H 0.226835 0.345914 0.538360
C8 C 0.1952(2) 0.42848(18) 0.43780(15)
C9 C 0.0751(2) 0.4410(2) 0.44791(16)
H5 H 0.037418 0.411294 0.492100
C10 C 0.0133(2) 0.4951(2) 0.39485(17)
H6 H -0.067280 0.501538 0.401678
C11 C 0.0678(2) 0.5414(2) 0.33032(17)
H7 H 0.024000 0.580628 0.294895
C12 C 0.1837(2) 0.53091(19) 0.31762(15)
H8 H 0.219811 0.562808 0.273838
C13 C 0.2488(2) 0.47234(17) 0.37010(14)
C14 C 0.6369(2) 0.43428(18) 0.43757(15)
C15 C 0.6388(2) 0.53487(19) 0.43155(17)
H9 H 0.589093 0.566593 0.394823
C16 C 0.7132(2) 0.58865(19) 0.47902(17)
H10 H 0.715136 0.656835 0.473546
C17 C 0.7845(2) 0.5440(2) 0.53418(16)
H11 H 0.833993 0.581420 0.567187
C18 C 0.7832(2) 0.4447(2) 0.54090(16)
H12 H 0.831874 0.413421 0.578590
C19 C 0.7105(2) 0.3907(2) 0.49248(15)
H13 H 0.711120 0.322407 0.496917
C20 C 0.7651(2) 0.30344(18) 0.28976(15)
C21 C 0.8848(2) 0.31561(17) 0.25796(15)
C22 C 0.9691(2) 0.25558(18) 0.28962(16)
H14 H 0.949210 0.209652 0.329651
C23 C 1.0822(2) 0.26195(19) 0.26344(17)
C24 C 1.1091(2) 0.33036(19) 0.20551(17)
H15 H 1.186265 0.335185 0.187477
C25 C 1.0273(2) 0.39221(19) 0.17282(15)
C26 C 0.9139(2) 0.38358(18) 0.19965(15)
H16 H 0.856251 0.424410 0.177917
C27 C 1.0593(2) 0.4682(2) 0.11273(16)
H17 H 0.991590 0.485715 0.080974
H18 H 1.119143 0.443160 0.076947
H19 H 1.088101 0.525285 0.140982
C28 C 1.1737(3) 0.1971(2) 0.2980(2)
H20 H 1.223964 0.234782 0.333265
H21 H 1.219039 0.169238 0.254121
H22 H 1.137484 0.145253 0.328933
C29 C 0.5027(2) 0.29107(18) 0.25817(16)
H23 H 0.531897 0.229872 0.281026
H24 H 0.421006 0.296988 0.273824
C30 C 0.5094(2) 0.28493(18) 0.16741(16)
C31 C 0.5906(2) 0.22686(19) 0.13025(18)
H25 H 0.644035 0.191904 0.162099
C32 C 0.5947(3) 0.2193(2) 0.04770(19)
H26 H 0.651497 0.180009 0.023082
C33 C 0.5163(3) 0.2687(2) 0.00026(18)
H27 H 0.518219 0.262267 -0.056598
C34 C 0.4356(3) 0.3273(2) 0.03624(18)
H28 H 0.382434 0.362031 0.004048
C35 C 0.4319(2) 0.3357(2) 0.11949(16)
H29 H 0.376203 0.376213 0.143921
loop_
_geom_bond_atom_site_label_1
_geom_bond_atom_site_label_2
_geom_bond_site_symmetry_1
_geom_bond_site_symmetry_2
O1 C3 1_555 1_555
O2 C3 1_555 1_555
O3 C20 1_555 1_555
N1 H1 1_555 1_555
C1 H2 1_555 1_555
C2 N1 1_555 1_555
C3 C2 1_555 1_555
C4 O2 1_555 1_555
C5 C1 1_555 1_555
C6 C5 1_555 1_555
H3 C6 1_555 1_555
C7 C6 1_555 1_555
H4 C7 1_555 1_555
C8 C7 1_555 1_555
C9 C8 1_555 1_555
H5 C9 1_555 1_555
C10 C9 1_555 1_555
H6 C10 1_555 1_555
C11 C10 1_555 1_555
H7 C11 1_555 1_555
C12 C11 1_555 1_555
H8 C12 1_555 1_555
C13 C4 1_555 1_555
C14 C1 1_555 1_555
C15 C14 1_555 1_555
H9 C15 1_555 1_555
C16 C15 1_555 1_555
H10 C16 1_555 1_555
C17 C16 1_555 1_555
H11 C17 1_555 1_555
C18 C17 1_555 1_555
H12 C18 1_555 1_555
C19 C14 1_555 1_555
H13 C19 1_555 1_555
C20 N1 1_555 1_555
C21 C20 1_555 1_555
C22 C21 1_555 1_555
H14 C22 1_555 1_555
C23 C22 1_555 1_555
C24 C23 1_555 1_555
H15 C24 1_555 1_555
C25 C24 1_555 1_555
C26 C21 1_555 1_555
H16 C26 1_555 1_555
C27 C25 1_555 1_555
H17 C27 1_555 1_555
H18 C27 1_555 1_555
H19 C27 1_555 1_555
C28 C23 1_555 1_555
H20 C28 1_555 1_555
H21 C28 1_555 1_555
H22 C28 1_555 1_555
C29 C2 1_555 1_555
H23 C29 1_555 1_555
H24 C29 1_555 1_555
C30 C29 1_555 1_555
C31 C30 1_555 1_555
H25 C31 1_555 1_555
C32 C31 1_555 1_555
H26 C32 1_555 1_555
C33 C32 1_555 1_555
H27 C33 1_555 1_555
C34 C33 1_555 1_555
H28 C34 1_555 1_555
C35 C30 1_555 1_555
H29 C35 1_555 1_555
C1 C2 1_555 1_555
C4 C5 1_555 1_555
C8 C13 1_555 1_555
C12 C13 1_555 1_555
C18 C19 1_555 1_555
C25 C26 1_555 1_555
C34 C35 1_555 1_555

#END
