
#######################################################################
#
#                 Cambridge Crystallographic Data Centre
#                                CCDC 
#
#######################################################################
#
# If this CIF has been generated from an entry in the Cambridge 
# Structural Database, then it will include bibliographic, chemical, 
# crystal, experimental, refinement or atomic coordinate data resulting 
# from the CCDC's data processing and validation procedures.
#
#######################################################################

data_GARKAM
_chemical_formula_moiety         'C116 H104,4(C1 H4 O1),4(H2 O1)'
_chemical_name_systematic        
'(P,P,P,P)/(M,M,M,M)-4,6,12,14,20,22,28,30-octa-t-butyl-1,9,17,25(9,10)tetraanthracenacyclodotriacontaphane-4,5,12,13,20,21,28,29-octaen-2,7,10,15,18,23,26,31-octayne methanol solvate tetrahydrate'
_symmetry_cell_setting           triclinic
_symmetry_space_group_name_H-M   'P -1'
_symmetry_Int_Tables_number      2
_space_group_name_Hall           '-P 1'
loop_
_symmetry_equiv_pos_site_id
_symmetry_equiv_pos_as_xyz
1 x,y,z
2 -x,-y,-z
_cell_length_a                   11.2927(2)
_cell_length_b                   13.4550(3)
_cell_length_c                   37.9436(8)
_cell_angle_alpha                83.672(1)
_cell_angle_beta                 89.873(1)
_cell_angle_gamma                80.841(1)
_cell_volume                     5656.4
_exptl_crystal_colour            yellow
_cell_formula_units_Z            2
loop_
_atom_site_label
_atom_site_type_symbol
_atom_site_fract_x
_atom_site_fract_y
_atom_site_fract_z
C1 C 0.7667(6) -0.2142(4) 0.43164(16)
C2 C 0.7598(6) -0.2896(5) 0.40884(17)
C3 C 0.6593(6) -0.3425(5) 0.41138(17)
C4 C 0.5715(6) -0.3211(5) 0.43726(17)
C5 C 0.5819(6) -0.2497(5) 0.46061(17)
C6 C 0.6803(6) -0.1952(4) 0.45851(16)
C7 C 0.6907(7) -0.1243(5) 0.48185(17)
H1 H 0.7545 -0.0869 0.4800
C8 C 0.6081(8) -0.1101(6) 0.5070(2)
H2 H 0.6167 -0.0638 0.5233
C9 C 0.5100(7) -0.1616(6) 0.51003(18)
H3 H 0.4535 -0.1490 0.5279
C10 C 0.4964(6) -0.2283(6) 0.48776(19)
H4 H 0.4295 -0.2621 0.4898
C11 C 0.6536(8) -0.4160(5) 0.3871(2)
H5 H 0.5883 -0.4516 0.3882
C12 C 0.7351(9) -0.4350(6) 0.3637(3)
H6 H 0.7272 -0.4832 0.3481
C13 C 0.8362(9) -0.3844(7) 0.3613(2)
H7 H 0.8951 -0.3999 0.3443
C14 C 0.8486(7) -0.3126(5) 0.3836(2)
H8 H 0.9159 -0.2792 0.3820
C15 C 0.4674(7) -0.3710(5) 0.43824(16)
C16 C 0.3852(7) -0.4146(5) 0.43668(15)
C17 C 0.2830(6) -0.4666(4) 0.43282(16)
C18 C 0.1940(6) -0.4728(5) 0.46309(15)
C19 C 0.2610(11) -0.5166(10) 0.4970(2)
H9 H 0.2967 -0.5863 0.4951
H10 H 0.2059 -0.5144 0.5166
H11 H 0.3236 -0.4773 0.5011
C20 C 0.1346(10) -0.3660(7) 0.4697(3)
H12 H 0.0813 -0.3366 0.4499
H13 H 0.1959 -0.3241 0.4720
H14 H 0.0889 -0.3696 0.4913
C21 C 0.1048(11) -0.5348(10) 0.4552(3)
H15 H 0.1431 -0.6047 0.4552
H16 H 0.0687 -0.5103 0.4321
H17 H 0.0431 -0.5308 0.4731
C22 C 0.2741(6) -0.5054(5) 0.40311(18)
C23 C 0.2713(6) -0.5447(5) 0.37332(17)
C24 C 0.3333(6) -0.6544(6) 0.36830(17)
C25 C 0.4366(7) -0.6443(6) 0.34311(19)
H18 H 0.4671 -0.7098 0.3354
H19 H 0.5001 -0.6199 0.3552
H20 H 0.4085 -0.5967 0.3226
C26 C 0.2449(8) -0.7130(6) 0.35338(19)
H21 H 0.1853 -0.7256 0.3711
H22 H 0.2871 -0.7770 0.3471
H23 H 0.2055 -0.6738 0.3324
C27 C 0.3825(8) -0.7083(6) 0.40371(19)
H24 H 0.3174 -0.7112 0.4203
H25 H 0.4409 -0.6716 0.4129
H26 H 0.4208 -0.7765 0.4006
C28 C 0.2127(7) -0.4835(6) 0.34272(18)
C29 C 0.1731(7) -0.4374(6) 0.31641(19)
C30 C 0.1282(7) -0.3751(7) 0.28363(18)
C31 C 0.0669(8) -0.2753(7) 0.28390(19)
C32 C 0.0273(9) -0.2184(7) 0.25154(19)
C33 C 0.0486(8) -0.2608(7) 0.21905(19)
C34 C 0.1074(8) -0.3621(8) 0.21857(19)
C35 C 0.1469(8) -0.4216(8) 0.2511(2)
C36 C 0.2102(10) -0.5227(8) 0.2500(2)
H27 H 0.2369 -0.5624 0.2712
C37 C 0.2321(11) -0.5619(8) 0.2182(3)
H28 H 0.2708 -0.6289 0.2176
C38 C 0.1950(12) -0.4994(10) 0.1865(2)
H29 H 0.2141 -0.5241 0.1647
C39 C 0.1327(10) -0.4045(8) 0.1868(2)
H30 H 0.1060 -0.3665 0.1652
C40 C -0.0375(11) -0.1219(9) 0.2523(2)
H31 H -0.0638 -0.0829 0.2308
C41 C -0.0637(13) -0.0826(9) 0.2833(3)
H32 H -0.1136 -0.0196 0.2833
C42 C -0.0148(11) -0.1375(9) 0.3163(2)
H33 H -0.0278 -0.1087 0.3377
C43 C 0.0488(9) -0.2297(8) 0.3159(2)
H34 H 0.0823 -0.2652 0.3372
C44 C 0.0113(8) -0.2000(7) 0.1862(2)
C45 C -0.0137(7) -0.1532(6) 0.15823(19)
C46 C -0.0436(6) -0.0959(5) 0.12435(16)
C47 C -0.1590(7) -0.0181(5) 0.12142(17)
C48 C -0.2664(7) -0.0719(6) 0.13075(19)
H35 H -0.2655 -0.1275 0.1165
H36 H -0.3402 -0.0244 0.1260
H37 H -0.2618 -0.0980 0.1557
C49 C -0.1489(9) 0.0628(7) 0.1468(2)
H38 H -0.0772 0.0925 0.1414
H39 H -0.1442 0.0313 0.1711
H40 H -0.2189 0.1152 0.1437
C50 C -0.1760(7) 0.0341(6) 0.08281(18)
H41 H -0.1814 -0.0165 0.0668
H42 H -0.1081 0.0681 0.0765
H43 H -0.2491 0.0833 0.0810
C51 C 0.0274(6) -0.1140(4) 0.09808(16)
C52 C 0.0996(6) -0.1273(4) 0.07197(16)
C53 C 0.0968(7) -0.2075(5) 0.04592(17)
C54 C 0.1059(9) -0.1602(6) 0.00844(17)
H44 H 0.1740 -0.1242 0.0067
H45 H 0.0330 -0.1132 0.0019
H46 H 0.1166 -0.2127 -0.0074
C55 C -0.0185(8) -0.2539(6) 0.0518(2)
H47 H -0.0233 -0.2796 0.0766
H48 H -0.0173 -0.3090 0.0372
H49 H -0.0876 -0.2025 0.0452
C56 C 0.2028(9) -0.2899(6) 0.0547(3)
H50 H 0.2743 -0.2596 0.0572
H51 H 0.2137 -0.3332 0.0357
H52 H 0.1886 -0.3298 0.0767
C57 C 0.1917(6) -0.0664(5) 0.06769(15)
C58 C 0.2652(6) -0.0102(5) 0.06451(16)
C59 C 0.3513(6) 0.0588(4) 0.06295(19)
C60 C 0.3917(5) 0.0972(4) 0.03034(17)
C61 C 0.4754(5) 0.1665(4) 0.02904(18)
C62 C 0.5122(6) 0.1984(4) 0.06081(18)
C63 C 0.4707(6) 0.1589(5) 0.09417(19)
C64 C 0.3920(6) 0.0866(5) 0.09492(19)
C65 C 0.3530(7) 0.0479(6) 0.1278(2)
H53 H 0.2989 0.0014 0.1284
C66 C 0.3902(9) 0.0749(8) 0.1590(2)
H54 H 0.3655 0.0458 0.1809
C67 C 0.4684(9) 0.1490(8) 0.1571(2)
H55 H 0.4932 0.1706 0.1782
C68 C 0.5069(7) 0.1881(6) 0.1265(2)
H56 H 0.5592 0.2360 0.1264
C69 C 0.5186(6) 0.2022(4) -0.00453(18)
H57 H 0.5734 0.2481 -0.0058
C70 C 0.4820(6) 0.1712(4) -0.03398(19)
H58 H 0.5141 0.1935 -0.0558
C71 C 0.3973(6) 0.1064(4) -0.03350(18)
H59 H 0.3705 0.0878 -0.0549
C72 C 0.3534(6) 0.0703(4) -0.0025(2)
H60 H 0.2963 0.0265 -0.0025
C73 C 0.5957(6) 0.2698(5) 0.06070(17)
C74 C 0.6607(6) 0.3306(5) 0.06344(17)
C75 C 0.7314(6) 0.4078(4) 0.06949(17)
C76 C 0.6700(7) 0.5180(5) 0.0585(2)
C77 C 0.5458(7) 0.5354(5) 0.0734(2)
H61 H 0.5507 0.5239 0.0990
H62 H 0.4985 0.4890 0.0645
H63 H 0.5081 0.6046 0.0661
C78 C 0.6659(8) 0.5302(6) 0.0173(2)
H64 H 0.6219 0.4806 0.0091
H65 H 0.7470 0.5197 0.0084
H66 H 0.6263 0.5978 0.0087
C79 C 0.7454(8) 0.5893(5) 0.0707(3)
H67 H 0.7461 0.5838 0.0965
H68 H 0.7126 0.6581 0.0613
H69 H 0.8267 0.5724 0.0625
C80 C 0.8363(7) 0.3830(4) 0.08434(15)
C81 C 0.9424(6) 0.3576(4) 0.09942(15)
C82 C 1.0569(6) 0.3457(5) 0.07784(15)
C83 C 1.1048(10) 0.2308(6) 0.0788(3)
H70 H 1.0506 0.1994 0.0655
H71 H 1.1102 0.1998 0.1032
H72 H 1.1837 0.2213 0.0683
C84 C 1.1463(9) 0.4057(9) 0.0930(2)
H73 H 1.1097 0.4761 0.0927
H74 H 1.2178 0.4014 0.0787
H75 H 1.1679 0.3775 0.1172
C85 C 1.0332(7) 0.3876(6) 0.03978(17)
H76 H 1.0078 0.4604 0.0383
H77 H 0.9705 0.3565 0.0301
H78 H 1.1059 0.3732 0.0264
C86 C 0.9508(6) 0.3381(4) 0.13707(18)
C87 C 0.9555(7) 0.3175(5) 0.1683(2)
C88 C 0.9505(10) 0.2945(6) 0.20646(19)
C89 C 1.0332(7) 0.2230(7) 0.22419(19)
C90 C 1.0250(8) 0.2018(7) 0.2628(2)
C91 C 0.9698(17) 0.2577(15) 0.2825(5)
C92 C 0.9199(12) 0.3525(9) 0.2672(3)
C93 C 0.9216(12) 0.3761(10) 0.2283(3)
C94 C 0.8683(15) 0.4771(13) 0.2147(4)
C95 C 0.8276(16) 0.5495(9) 0.2385(4)
C96 C 0.8512(15) 0.5262(9) 0.2672(4)
C97 C 0.8685(14) 0.4368(15) 0.2861(4)
C98 C 1.0916(14) 0.1286(11) 0.2020(4)
C99 C 1.1443(15) 0.0424(11) 0.2175(5)
C100 C 1.150(2) 0.0144(14) 0.2551(5)
C101 C 1.0918(16) 0.0842(13) 0.2765(4)
C102 C 0.9283(9) 0.2188(6) 0.3180(2)
C114 C 0.9209(7) 0.1928(4) 0.34848(19)
C115 C 0.9165(6) 0.1634(5) 0.38578(16)
C116 C 0.8539(8) 0.2422(5) 0.40890(18)
C117 C 0.7263(8) 0.2811(6) 0.3955(2)
H79 H 0.6890 0.3326 0.4098
H80 H 0.6808 0.2255 0.3973
H81 H 0.7278 0.3099 0.3710
C118 C 0.9229(8) 0.3314(6) 0.4063(2)
H82 H 1.0040 0.3084 0.4153
H83 H 0.8831 0.3831 0.4201
H84 H 0.9255 0.3595 0.3816
C119 C 0.8491(11) 0.1961(7) 0.4463(2)
H85 H 0.9289 0.1845 0.4569
H86 H 0.8196 0.1321 0.4467
H87 H 0.7957 0.2415 0.4596
C120 C 0.9606(6) 0.0705(5) 0.39894(14)
C121 C 1.0067(6) -0.0194(5) 0.41279(14)
C122 C 1.1412(6) -0.0503(5) 0.42352(16)
C123 C 1.2072(7) 0.0385(6) 0.4136(2)
H88 H 1.1980 0.0593 0.3884
H89 H 1.2916 0.0184 0.4197
H90 H 1.1740 0.0946 0.4266
C124 C 1.1926(7) -0.1386(6) 0.4050(2)
H91 H 1.1890 -0.1191 0.3796
H92 H 1.1469 -0.1933 0.4107
H93 H 1.2755 -0.1610 0.4125
C125 C 1.1470(7) -0.0779(6) 0.46378(19)
H94 H 1.2291 -0.1052 0.4711
H95 H 1.0959 -0.1282 0.4704
H96 H 1.1199 -0.0177 0.4754
C126 C 0.9285(6) -0.0928(5) 0.41958(14)
C127 C 0.8593(6) -0.1526(5) 0.42611(16)
O1 O 0.703(2) 0.188(3) 0.2261(9)
C128 C 0.672(2) 0.101(3) 0.2340(4)
O2 O 0.2977(11) -0.2218(8) 0.1572(5)
C129 C 0.378(2) -0.2530(15) 0.1335(4)
O3 O 0.4851(12) -0.3921(8) 0.1814(4)
C130 C 0.521(3) -0.2975(16) 0.1700(4)
O5 O 1.6842(7) 0.0573(5) 0.33995(18)
O6 O 1.5633(7) 0.0175(5) 0.40285(17)
O7 O 0.3947(8) 0.7211(8) 0.3377(3)
O8 O 0.4889(9) 0.6013(7) 0.2832(3)
C103? C 0.9093(18) 0.2373(13) 0.2781(4)
C104? C 0.8084(14) 0.2762(10) 0.2580(3)
C105? C 0.8174(12) 0.3026(10) 0.2208(3)
C106? C 0.6957(18) 0.3292(13) 0.1954(4)
C107? C 0.6070(17) 0.3511(12) 0.2064(10)
C108? C 0.5628(16) 0.3163(13) 0.2557(4)
C109? C 0.682(2) 0.2886(13) 0.2733(4)
C110? C 1.1478(14) 0.2172(13) 0.2088(4)
C111? C 1.2466(18) 0.1809(14) 0.2291(4)
C112? C 1.2351(16) 0.1546(13) 0.2687(5)
C113? C 1.1255(16) 0.1711(14) 0.2841(4)
O4? O 1.4503(13) 0.0217(13) 0.3354(5)
C131? C 1.5162(17) -0.1087(15) 0.3583(5)
loop_
_geom_bond_atom_site_label_1
_geom_bond_atom_site_label_2
_geom_bond_site_symmetry_1
_geom_bond_site_symmetry_2
C1 C2 1_555 1_555
C2 C3 1_555 1_555
C3 C4 1_555 1_555
C4 C5 1_555 1_555
C5 C6 1_555 1_555
C6 C1 1_555 1_555
C7 C6 1_555 1_555
H1 C7 1_555 1_555
C8 C7 1_555 1_555
H2 C8 1_555 1_555
C9 C8 1_555 1_555
H3 C9 1_555 1_555
C10 C5 1_555 1_555
H4 C10 1_555 1_555
C11 C3 1_555 1_555
H5 C11 1_555 1_555
C12 C11 1_555 1_555
H6 C12 1_555 1_555
C13 C12 1_555 1_555
H7 C13 1_555 1_555
C14 C2 1_555 1_555
H8 C14 1_555 1_555
C15 C4 1_555 1_555
C16 C15 1_555 1_555
C17 C16 1_555 1_555
C18 C17 1_555 1_555
C19 C18 1_555 1_555
H9 C19 1_555 1_555
H10 C19 1_555 1_555
H11 C19 1_555 1_555
C20 C18 1_555 1_555
H12 C20 1_555 1_555
H13 C20 1_555 1_555
H14 C20 1_555 1_555
C21 C18 1_555 1_555
H15 C21 1_555 1_555
H16 C21 1_555 1_555
H17 C21 1_555 1_555
C22 C17 1_555 1_555
C23 C22 1_555 1_555
C24 C23 1_555 1_555
C25 C24 1_555 1_555
H18 C25 1_555 1_555
H19 C25 1_555 1_555
H20 C25 1_555 1_555
C26 C24 1_555 1_555
H21 C26 1_555 1_555
H22 C26 1_555 1_555
H23 C26 1_555 1_555
C27 C24 1_555 1_555
H24 C27 1_555 1_555
H25 C27 1_555 1_555
H26 C27 1_555 1_555
C28 C23 1_555 1_555
C29 C28 1_555 1_555
C30 C29 1_555 1_555
C31 C30 1_555 1_555
C32 C31 1_555 1_555
C33 C32 1_555 1_555
C34 C33 1_555 1_555
C35 C30 1_555 1_555
C36 C35 1_555 1_555
H27 C36 1_555 1_555
C37 C36 1_555 1_555
H28 C37 1_555 1_555
C38 C37 1_555 1_555
H29 C38 1_555 1_555
C39 C34 1_555 1_555
H30 C39 1_555 1_555
C40 C32 1_555 1_555
H31 C40 1_555 1_555
C41 C40 1_555 1_555
H32 C41 1_555 1_555
C42 C41 1_555 1_555
H33 C42 1_555 1_555
C43 C31 1_555 1_555
H34 C43 1_555 1_555
C44 C33 1_555 1_555
C45 C44 1_555 1_555
C46 C45 1_555 1_555
C47 C46 1_555 1_555
C48 C47 1_555 1_555
H35 C48 1_555 1_555
H36 C48 1_555 1_555
H37 C48 1_555 1_555
C49 C47 1_555 1_555
H38 C49 1_555 1_555
H39 C49 1_555 1_555
H40 C49 1_555 1_555
C50 C47 1_555 1_555
H41 C50 1_555 1_555
H42 C50 1_555 1_555
H43 C50 1_555 1_555
C51 C46 1_555 1_555
C52 C51 1_555 1_555
C53 C52 1_555 1_555
C54 C53 1_555 1_555
H44 C54 1_555 1_555
H45 C54 1_555 1_555
H46 C54 1_555 1_555
C55 C53 1_555 1_555
H47 C55 1_555 1_555
H48 C55 1_555 1_555
H49 C55 1_555 1_555
C56 C53 1_555 1_555
H50 C56 1_555 1_555
H51 C56 1_555 1_555
H52 C56 1_555 1_555
C57 C52 1_555 1_555
C58 C57 1_555 1_555
C59 C58 1_555 1_555
C60 C59 1_555 1_555
C61 C60 1_555 1_555
C62 C61 1_555 1_555
C63 C62 1_555 1_555
C64 C59 1_555 1_555
C65 C64 1_555 1_555
H53 C65 1_555 1_555
C66 C65 1_555 1_555
H54 C66 1_555 1_555
C67 C66 1_555 1_555
H55 C67 1_555 1_555
C68 C63 1_555 1_555
H56 C68 1_555 1_555
C69 C61 1_555 1_555
H57 C69 1_555 1_555
C70 C69 1_555 1_555
H58 C70 1_555 1_555
C71 C70 1_555 1_555
H59 C71 1_555 1_555
C72 C60 1_555 1_555
H60 C72 1_555 1_555
C73 C62 1_555 1_555
C74 C73 1_555 1_555
C75 C74 1_555 1_555
C76 C75 1_555 1_555
C77 C76 1_555 1_555
H61 C77 1_555 1_555
H62 C77 1_555 1_555
H63 C77 1_555 1_555
C78 C76 1_555 1_555
H64 C78 1_555 1_555
H65 C78 1_555 1_555
H66 C78 1_555 1_555
C79 C76 1_555 1_555
H67 C79 1_555 1_555
H68 C79 1_555 1_555
H69 C79 1_555 1_555
C80 C75 1_555 1_555
C81 C80 1_555 1_555
C82 C81 1_555 1_555
C83 C82 1_555 1_555
H70 C83 1_555 1_555
H71 C83 1_555 1_555
H72 C83 1_555 1_555
C84 C82 1_555 1_555
H73 C84 1_555 1_555
H74 C84 1_555 1_555
H75 C84 1_555 1_555
C85 C82 1_555 1_555
H76 C85 1_555 1_555
H77 C85 1_555 1_555
H78 C85 1_555 1_555
C86 C81 1_555 1_555
C87 C86 1_555 1_555
C88 C87 1_555 1_555
C89 C88 1_555 1_555
C90 C89 1_555 1_555
C91 C90 1_555 1_555
C92 C91 1_555 1_555
C93 C88 1_555 1_555
C94 C93 1_555 1_555
C95 C94 1_555 1_555
C96 C95 1_555 1_555
C97 C92 1_555 1_555
C98 C89 1_555 1_555
C99 C98 1_555 1_555
C100 C99 1_555 1_555
C101 C90 1_555 1_555
C102 C91 1_555 1_555
C114 C102 1_555 1_555
C115 C114 1_555 1_555
C116 C115 1_555 1_555
C117 C116 1_555 1_555
H79 C117 1_555 1_555
H80 C117 1_555 1_555
H81 C117 1_555 1_555
C118 C116 1_555 1_555
H82 C118 1_555 1_555
H83 C118 1_555 1_555
H84 C118 1_555 1_555
C119 C116 1_555 1_555
H85 C119 1_555 1_555
H86 C119 1_555 1_555
H87 C119 1_555 1_555
C120 C115 1_555 1_555
C121 C120 1_555 1_555
C122 C121 1_555 1_555
C123 C122 1_555 1_555
H88 C123 1_555 1_555
H89 C123 1_555 1_555
H90 C123 1_555 1_555
C124 C122 1_555 1_555
H91 C124 1_555 1_555
H92 C124 1_555 1_555
H93 C124 1_555 1_555
C125 C122 1_555 1_555
H94 C125 1_555 1_555
H95 C125 1_555 1_555
H96 C125 1_555 1_555
C126 C121 1_555 1_555
C127 C1 1_555 1_555
O1 C128 1_555 1_555
O2 C129 1_555 1_555
O3 C130 1_555 1_555
C9 C10 1_555 1_555
C13 C14 1_555 1_555
C34 C35 1_555 1_555
C38 C39 1_555 1_555
C42 C43 1_555 1_555
C63 C64 1_555 1_555
C67 C68 1_555 1_555
C71 C72 1_555 1_555
C92 C93 1_555 1_555
C96 C97 1_555 1_555
C100 C101 1_555 1_555
C126 C127 1_555 1_555

#END
