
#######################################################################
#
#                 Cambridge Crystallographic Data Centre
#                                CCDC 
#
#######################################################################
#
# If this CIF has been generated from an entry in the Cambridge 
# Structural Database, then it will include bibliographic, chemical, 
# crystal, experimental, refinement or atomic coordinate data resulting 
# from the CCDC's data processing and validation procedures.
#
#######################################################################

data_GASCOS03
_chemical_name_common            'Trimethyl isocyanurate'
_chemical_formula_moiety         'C6 H9 N3 O3'
_chemical_name_systematic        
1,3,5-Trimethyl-1,3,5-triazine-2,4,6(1H,3H,5H)-trione
_symmetry_cell_setting           monoclinic
_symmetry_space_group_name_H-M   'P 21/a'
_symmetry_Int_Tables_number      14
_space_group_name_Hall           '-P 2yab'
loop_
_symmetry_equiv_pos_site_id
_symmetry_equiv_pos_as_xyz
1 x,y,z
2 1/2-x,1/2+y,-z
3 -x,-y,-z
4 1/2+x,1/2-y,z
_cell_length_a                   8.13710(10)
_cell_length_b                   13.3941(2)
_cell_length_c                   14.8269(2)
_cell_angle_alpha                90
_cell_angle_beta                 100.89(2)
_cell_angle_gamma                90
_cell_volume                     1586.87
_exptl_crystal_colour            colorless
_cell_formula_units_Z            8
_exptl_crystal_recrystallization_method water
loop_
_atom_site_label
_atom_site_type_symbol
_atom_site_fract_x
_atom_site_fract_y
_atom_site_fract_z
N1 N 0.0601(2) 0.40232(11) 0.59168(11)
C1 C -0.0502(2) 0.44835(14) 0.63747(13)
N2 N -0.0163(2) 0.54712(11) 0.66065(11)
C2 C 0.1263(2) 0.59626(14) 0.64895(13)
N3 N 0.2329(2) 0.54308(13) 0.60437(11)
C3 C 0.2055(2) 0.4453(2) 0.57599(12)
C4 C 0.0354(4) 0.2967(2) 0.5685(2)
H1 H -0.0698(4) 0.2750(2) 0.5819(2)
H2 H 0.1244(4) 0.2583(2) 0.6041(2)
H3 H 0.0354(4) 0.2874(2) 0.5043(2)
C5 C -0.1369(4) 0.6015(2) 0.7039(2)
H4 H -0.2299(4) 0.5587(2) 0.7080(2)
H5 H -0.1760(4) 0.6591(2) 0.6677(2)
H6 H -0.0839(4) 0.6222(2) 0.7644(2)
C6 C 0.3894(4) 0.5904(3) 0.5923(2)
H7 H 0.4510(4) 0.5454(3) 0.5608(2)
H8 H 0.4551(4) 0.6066(3) 0.6513(2)
H9 H 0.3648(4) 0.6504(3) 0.5568(2)
O1 O -0.1719(2) 0.40632(15) 0.65509(15)
O2 O 0.1549(2) 0.68128(12) 0.67488(13)
O3 O 0.3035(3) 0.40111(15) 0.53917(13)
N4 N -0.2331(2) 0.09284(15) 0.93031(12)
C7 C -0.1604(3) 0.1072(2) 1.02037(15)
N5 N 0.0049(2) 0.13802(14) 1.03576(11)
C8 C 0.0955(3) 0.1536(2) 0.9674(2)
N6 N 0.0117(2) 0.13447(15) 0.87968(11)
C9 C -0.1531(3) 0.1064(2) 0.85754(14)
C10 C -0.4111(4) 0.0649(3) 0.9090(2)
H10 H -0.4455(4) 0.0567(3) 0.8439(2)
H11 H -0.4767(4) 0.1165(3) 0.9299(2)
H12 H -0.4271(4) 0.0034(3) 0.9394(2)
C11 C 0.0838(5) 0.1616(3) 1.1305(2)
H13 H 0.1976(5) 0.1818(3) 1.1324(2)
H14 H 0.0819(5) 0.1035(3) 1.1683(2)
H15 H 0.0236(5) 0.2148(3) 1.1530(2)
C12 C 0.1049(4) 0.1442(3) 0.8041(2)
H16 H 0.0320(4) 0.1294(3) 0.7469(2)
H17 H 0.1972(4) 0.0983(3) 0.8136(2)
H18 H 0.1463(4) 0.2112(3) 0.8027(2)
O4 O -0.2347(3) 0.0918(2) 1.08236(13)
O5 O 0.2400(2) 0.1805(2) 0.9833(2)
O6 O -0.2228(2) 0.0927(2) 0.77906(11)
loop_
_geom_bond_atom_site_label_1
_geom_bond_atom_site_label_2
_geom_bond_site_symmetry_1
_geom_bond_site_symmetry_2
N1 C1 1_555 1_555
C1 N2 1_555 1_555
N2 C2 1_555 1_555
C2 N3 1_555 1_555
N3 C3 1_555 1_555
C3 N1 1_555 1_555
C4 N1 1_555 1_555
H1 C4 1_555 1_555
H2 C4 1_555 1_555
H3 C4 1_555 1_555
C5 N2 1_555 1_555
H4 C5 1_555 1_555
H5 C5 1_555 1_555
H6 C5 1_555 1_555
C6 N3 1_555 1_555
H7 C6 1_555 1_555
H8 C6 1_555 1_555
H9 C6 1_555 1_555
O1 C1 1_555 1_555
O2 C2 1_555 1_555
O3 C3 1_555 1_555
N4 C7 1_555 1_555
C7 N5 1_555 1_555
N5 C8 1_555 1_555
C8 N6 1_555 1_555
N6 C9 1_555 1_555
C9 N4 1_555 1_555
C10 N4 1_555 1_555
H10 C10 1_555 1_555
H11 C10 1_555 1_555
H12 C10 1_555 1_555
C11 N5 1_555 1_555
H13 C11 1_555 1_555
H14 C11 1_555 1_555
H15 C11 1_555 1_555
C12 N6 1_555 1_555
H16 C12 1_555 1_555
H17 C12 1_555 1_555
H18 C12 1_555 1_555
O4 C7 1_555 1_555
O5 C8 1_555 1_555
O6 C9 1_555 1_555

#END
