
#######################################################################
#
#                 Cambridge Crystallographic Data Centre
#                                CCDC 
#
#######################################################################
#
# If this CIF has been generated from an entry in the Cambridge 
# Structural Database, then it will include bibliographic, chemical, 
# crystal, experimental, refinement or atomic coordinate data resulting 
# from the CCDC's data processing and validation procedures.
#
#######################################################################

data_GASHOZ
_chemical_formula_moiety         'C26 H20 Cl1 O2 P1'
_chemical_name_systematic        
2-Chloro-4,4,5,5-tetraphenyl-1,3,2-dioxaphospholane
_symmetry_cell_setting           orthorhombic
_symmetry_space_group_name_H-M   'P b c a'
_symmetry_Int_Tables_number      61
_space_group_name_Hall           '-P 2ac 2ab'
loop_
_symmetry_equiv_pos_site_id
_symmetry_equiv_pos_as_xyz
1 x,y,z
2 1/2-x,-y,1/2+z
3 -x,1/2+y,1/2-z
4 1/2+x,1/2-y,-z
5 -x,-y,-z
6 1/2+x,y,1/2-z
7 x,1/2-y,1/2+z
8 1/2-x,1/2+y,z
_cell_length_a                   12.8071(3)
_cell_length_b                   16.2825(3)
_cell_length_c                   19.7307(4)
_cell_angle_alpha                90
_cell_angle_beta                 90
_cell_angle_gamma                90
_cell_volume                     4114.47
_exptl_crystal_colour            colorless
_exptl_crystal_description       prism
_cell_formula_units_Z            8
loop_
_atom_site_label
_atom_site_type_symbol
_atom_site_fract_x
_atom_site_fract_y
_atom_site_fract_z
C1 C 0.84896(9) 0.12736(7) 0.83759(5)
C2 C 0.96156(9) 0.08470(7) 0.83057(5)
C3 C 0.96794(9) -0.00697(7) 0.84610(6)
C4 C 1.04626(9) 0.13522(7) 0.86581(6)
C5 C 0.86055(9) 0.22048(7) 0.84712(6)
C6 C 0.77240(9) 0.09658(6) 0.89120(5)
C7 C 0.88311(9) -0.05969(7) 0.83810(6)
H1 H 0.8172 -0.0379 0.8253
C8 C 0.89375(10) -0.14358(8) 0.84860(7)
H2 H 0.8353 -0.1788 0.8427
C9 C 0.98954(11) -0.17611(8) 0.86765(7)
H3 H 0.9966 -0.2334 0.8756
C10 C 1.07418(11) -0.12478(8) 0.87495(7)
H4 H 1.1399 -0.1468 0.8880
C11 C 1.06406(10) -0.04098(8) 0.86333(6)
H5 H 1.1235 -0.0064 0.8672
C12 C 1.06837(9) 0.12454(7) 0.93430(6)
H6 H 1.0336 0.0826 0.9590
C13 C 1.14049(10) 0.17437(9) 0.96705(7)
H7 H 1.1553 0.1659 1.0137
C14 C 1.19070(11) 0.23616(9) 0.93192(7)
H8 H 1.2392 0.2709 0.9544
C15 C 1.16991(11) 0.24705(9) 0.86371(7)
H9 H 1.2044 0.2894 0.8393
C16 C 1.09918(10) 0.19670(8) 0.83071(6)
H10 H 1.0866 0.2042 0.7837
C17 C 0.86564(10) 0.27419(8) 0.79231(6)
H11 H 0.8580 0.2536 0.7475
C18 C 0.88186(12) 0.35780(8) 0.80268(7)
H12 H 0.8864 0.3937 0.7649
C19 C 0.89145(11) 0.38880(8) 0.86729(8)
H13 H 0.9024 0.4459 0.8742
C20 C 0.88492(10) 0.33600(8) 0.92229(7)
H14 H 0.8907 0.3571 0.9670
C21 C 0.86994(9) 0.25261(7) 0.91214(6)
H15 H 0.8660 0.2169 0.9501
C22 C 0.80106(9) 0.05681(7) 0.95061(6)
H16 H 0.8719 0.0415 0.9575
C23 C 0.72722(10) 0.03911(8) 1.00018(6)
H17 H 0.7480 0.0115 1.0404
C24 C 0.62414(10) 0.06130(8) 0.99159(6)
H18 H 0.5742 0.0501 1.0260
C25 C 0.59421(9) 0.10030(7) 0.93198(7)
H19 H 0.5232 0.1152 0.9253
C26 C 0.66753(9) 0.11758(7) 0.88235(6)
H20 H 0.6462 0.1441 0.8417
Cl1 Cl 0.84828(3) -0.01938(2) 0.678980(16)
O1 O 0.79960(6) 0.11256(5) 0.77195(4)
O2 O 0.98190(7) 0.09338(5) 0.75735(4)
P1 P 0.88062(3) 0.101628(19) 0.709894(15)
loop_
_geom_bond_atom_site_label_1
_geom_bond_atom_site_label_2
_geom_bond_site_symmetry_1
_geom_bond_site_symmetry_2
C1 C2 1_555 1_555
C2 C3 1_555 1_555
C3 C7 1_555 1_555
C4 C2 1_555 1_555
C5 C1 1_555 1_555
C6 C1 1_555 1_555
C7 H1 1_555 1_555
C8 C7 1_555 1_555
H2 C8 1_555 1_555
C9 C8 1_555 1_555
H3 C9 1_555 1_555
C10 C9 1_555 1_555
H4 C10 1_555 1_555
C11 C3 1_555 1_555
H5 C11 1_555 1_555
C12 C4 1_555 1_555
H6 C12 1_555 1_555
C13 C12 1_555 1_555
H7 C13 1_555 1_555
C14 C13 1_555 1_555
H8 C14 1_555 1_555
C15 C14 1_555 1_555
H9 C15 1_555 1_555
C16 C4 1_555 1_555
H10 C16 1_555 1_555
C17 C5 1_555 1_555
H11 C17 1_555 1_555
C18 C17 1_555 1_555
H12 C18 1_555 1_555
C19 C18 1_555 1_555
H13 C19 1_555 1_555
C20 C19 1_555 1_555
H14 C20 1_555 1_555
C21 C5 1_555 1_555
H15 C21 1_555 1_555
C22 C6 1_555 1_555
H16 C22 1_555 1_555
C23 C22 1_555 1_555
H17 C23 1_555 1_555
C24 C23 1_555 1_555
H18 C24 1_555 1_555
C25 C24 1_555 1_555
H19 C25 1_555 1_555
C26 C6 1_555 1_555
H20 C26 1_555 1_555
Cl1 P1 1_555 1_555
O1 C1 1_555 1_555
O2 C2 1_555 1_555
P1 O1 1_555 1_555
C10 C11 1_555 1_555
C15 C16 1_555 1_555
C20 C21 1_555 1_555
C25 C26 1_555 1_555
O2 P1 1_555 1_555

#END
