
#######################################################################
#
#                 Cambridge Crystallographic Data Centre
#                                CCDC 
#
#######################################################################
#
# If this CIF has been generated from an entry in the Cambridge 
# Structural Database, then it will include bibliographic, chemical, 
# crystal, experimental, refinement or atomic coordinate data resulting 
# from the CCDC's data processing and validation procedures.
#
#######################################################################

data_GASXIJ
_chemical_formula_moiety         'C29 H18 O2 S1'
_chemical_name_systematic        
3-(2-Phenyl-3-(phenylsulfanyl)-1H-inden-1-ylidene)-2-benzofuran-1(3H)-one
_symmetry_cell_setting           monoclinic
_symmetry_space_group_name_H-M   'P 21/n'
_symmetry_Int_Tables_number      14
_space_group_name_Hall           '-P 2yn'
loop_
_symmetry_equiv_pos_site_id
_symmetry_equiv_pos_as_xyz
1 x,y,z
2 1/2-x,1/2+y,1/2-z
3 -x,-y,-z
4 1/2+x,1/2-y,1/2+z
_cell_length_a                   14.937(6)
_cell_length_b                   7.471(3)
_cell_length_c                   19.015(7)
_cell_angle_alpha                90
_cell_angle_beta                 96.353(5)
_cell_angle_gamma                90
_cell_volume                     2108.94
_exptl_crystal_colour            red
_exptl_crystal_description       needle
_cell_formula_units_Z            4
loop_
_atom_site_label
_atom_site_type_symbol
_atom_site_fract_x
_atom_site_fract_y
_atom_site_fract_z
C1 C 0.61501(14) 0.8032(3) 0.98163(14)
C2 C 0.46762(13) 0.7341(3) 0.98659(12)
C3 C 0.44355(14) 0.6099(3) 0.85648(12)
H1 H 0.3845 0.5710 0.8568
C4 C 0.48757(16) 0.5901(3) 0.79714(13)
H2 H 0.4568 0.5386 0.7570
C5 C 0.57510(17) 0.6434(4) 0.79481(15)
H3 H 0.6020 0.6307 0.7533
C6 C 0.62254(17) 0.7148(3) 0.85342(16)
H4 H 0.6825 0.7482 0.8531
C7 C 0.57899(14) 0.7365(3) 0.91357(13)
C8 C 0.48940(13) 0.6894(3) 0.91588(12)
C9 C 0.39514(13) 0.7283(3) 1.02258(12)
C10 C 0.30285(13) 0.6709(3) 0.99692(12)
C11 C 0.25546(14) 0.6611(3) 1.05373(12)
C12 C 0.28816(17) 0.7392(3) 1.18551(14)
H5 H 0.2317 0.7058 1.1972
C13 C 0.3517(2) 0.8079(4) 1.23570(14)
H6 H 0.3378 0.8224 1.2818
C14 C 0.43554(18) 0.8558(4) 1.21910(14)
H7 H 0.4775 0.9033 1.2539
C15 C 0.45813(16) 0.8341(3) 1.15117(13)
H8 H 0.5154 0.8643 1.1404
C16 C 0.39506(14) 0.7673(3) 1.09954(12)
C17 C 0.31002(14) 0.7204(3) 1.11703(13)
C18 C 0.26145(12) 0.6567(3) 0.92312(11)
C19 C 0.25807(13) 0.8076(3) 0.88066(12)
H9 H 0.2843 0.9136 0.8985
C20 C 0.21678(15) 0.8029(4) 0.81297(15)
H10 H 0.2148 0.9057 0.7852
C21 C 0.17831(16) 0.6487(5) 0.78571(14)
H11 H 0.1513 0.6457 0.7393
C22 C 0.17964(16) 0.4982(4) 0.82700(15)
H12 H 0.1527 0.3934 0.8087
C23 C 0.22092(15) 0.5019(3) 0.89589(13)
H13 H 0.2213 0.3998 0.9239
C24 C 0.08658(13) 0.7837(3) 1.07485(11)
C25 C 0.00030(15) 0.7595(3) 1.09245(12)
H14 H -0.0231 0.6447 1.0952
C26 C -0.05103(16) 0.9057(4) 1.10591(14)
H15 H -0.1097 0.8894 1.1167
C27 C -0.01690(17) 1.0734(3) 1.10363(13)
H16 H -0.0517 1.1716 1.1133
C28 C 0.06870(17) 1.0972(3) 1.08712(13)
H17 H 0.0922 1.2123 1.0861
C29 C 0.12094(15) 0.9538(3) 1.07185(12)
H18 H 0.1789 0.9717 1.0596
O1 O 0.68852(10) 0.8545(2) 1.00496(10)
O2 O 0.54641(9) 0.80027(19) 1.02520(8)
S1 S 0.14361(4) 0.58992(8) 1.05053(4)
loop_
_geom_bond_atom_site_label_1
_geom_bond_atom_site_label_2
_geom_bond_site_symmetry_1
_geom_bond_site_symmetry_2
C1 C7 1_555 1_555
C2 C8 1_555 1_555
C3 H1 1_555 1_555
C4 C3 1_555 1_555
H2 C4 1_555 1_555
C5 C4 1_555 1_555
H3 C5 1_555 1_555
C6 C5 1_555 1_555
H4 C6 1_555 1_555
C7 C6 1_555 1_555
C8 C3 1_555 1_555
C9 C2 1_555 1_555
C10 C9 1_555 1_555
C11 C10 1_555 1_555
C12 H5 1_555 1_555
C13 C12 1_555 1_555
H6 C13 1_555 1_555
C14 C13 1_555 1_555
H7 C14 1_555 1_555
C15 C14 1_555 1_555
H8 C15 1_555 1_555
C16 C9 1_555 1_555
C17 C11 1_555 1_555
C18 C10 1_555 1_555
C19 C18 1_555 1_555
H9 C19 1_555 1_555
C20 C19 1_555 1_555
H10 C20 1_555 1_555
C21 C20 1_555 1_555
H11 C21 1_555 1_555
C22 C21 1_555 1_555
H12 C22 1_555 1_555
C23 C18 1_555 1_555
H13 C23 1_555 1_555
C24 C25 1_555 1_555
C25 H14 1_555 1_555
C26 C25 1_555 1_555
H15 C26 1_555 1_555
C27 C26 1_555 1_555
H16 C27 1_555 1_555
C28 C27 1_555 1_555
H17 C28 1_555 1_555
C29 C24 1_555 1_555
H18 C29 1_555 1_555
O1 C1 1_555 1_555
O2 C1 1_555 1_555
S1 C11 1_555 1_555
C2 O2 1_555 1_555
C7 C8 1_555 1_555
C12 C17 1_555 1_555
C15 C16 1_555 1_555
C16 C17 1_555 1_555
C22 C23 1_555 1_555
C24 S1 1_555 1_555
C28 C29 1_555 1_555

#END
