
#######################################################################
#
#                 Cambridge Crystallographic Data Centre
#                                CCDC 
#
#######################################################################
#
# If this CIF has been generated from an entry in the Cambridge 
# Structural Database, then it will include bibliographic, chemical, 
# crystal, experimental, refinement or atomic coordinate data resulting 
# from the CCDC's data processing and validation procedures.
#
#######################################################################

data_GATCEM
_chemical_formula_moiety         'C22 H22 O2'
_chemical_name_systematic        
5-(bis(2,5-dimethylphenyl)methyl)-2-furaldehyde
_symmetry_cell_setting           triclinic
_symmetry_space_group_name_H-M   'P -1'
_symmetry_Int_Tables_number      2
_space_group_name_Hall           '-P 1'
loop_
_symmetry_equiv_pos_site_id
_symmetry_equiv_pos_as_xyz
1 x,y,z
2 -x,-y,-z
_cell_length_a                   9.2780(9)
_cell_length_b                   9.7113(8)
_cell_length_c                   10.4743(12)
_cell_angle_alpha                74.783(8)
_cell_angle_beta                 73.786(9)
_cell_angle_gamma                79.128(8)
_cell_volume                     867.64
_cell_formula_units_Z            2
loop_
_atom_site_label
_atom_site_type_symbol
_atom_site_fract_x
_atom_site_fract_y
_atom_site_fract_z
O1 O 0.79157(11) 0.29480(11) 0.38947(10)
C1 C 1.19001(15) 0.29442(15) 0.21325(14)
C2 C 1.39347(16) 0.31122(16) 0.00657(14)
O2 O 0.51734(14) 0.21743(15) 0.57068(13)
C3 C 1.03322(18) 0.81936(16) 0.24079(15)
H1 H 1.03372(18) 0.91780(16) 0.22752(15)
C4 C 1.38200(17) 0.09365(16) 0.18353(15)
H2 H 1.42311(17) 0.00005(16) 0.21556(15)
C5 C 0.93220(17) 0.76980(16) 0.19246(15)
C6 C 0.93775(16) 0.62092(15) 0.21149(14)
H3 H 0.87221(16) 0.58566(15) 0.17847(14)
C7 C 1.45281(16) 0.17103(16) 0.05755(15)
H4 H 1.54085(16) 0.12898(16) 0.00648(15)
C8 C 1.13758(15) 0.57580(15) 0.32956(13)
C9 C 1.46855(19) 0.39429(19) -0.13089(16)
H5 H 1.5754(3) 0.3849(11) -0.1391(5)
H6 H 1.4506(12) 0.3572(9) -0.20074(16)
H7 H 1.4277(10) 0.4939(3) -0.1408(5)
C10 C 1.25059(16) 0.15325(15) 0.26302(14)
C11 C 0.68330(16) 0.24633(15) 0.35154(16)
C12 C 1.13321(17) 0.72413(16) 0.30847(15)
H8 H 1.19903(17) 0.76005(16) 0.34061(15)
C13 C 1.03821(15) 0.52439(15) 0.27821(13)
C14 C 0.81926(19) 0.87268(17) 0.12332(18)
H9 H 0.7214(3) 0.8749(10) 0.1859(4)
H10 H 0.8501(8) 0.9672(3) 0.0949(11)
H11 H 0.8143(10) 0.8415(8) 0.0451(7)
C15 C 0.91082(16) 0.31368(14) 0.27854(14)
C16 C 1.26162(16) 0.37087(15) 0.08627(14)
H12 H 1.22044(16) 0.46427(15) 0.05366(14)
C17 C 1.04534(15) 0.36179(14) 0.29910(13)
H13 H 1.04761(15) 0.32069(14) 0.39466(13)
C18 C 0.54575(18) 0.21014(18) 0.45261(18)
H14 H 0.47339(18) 0.17876(18) 0.42449(18)
C19 C 1.24744(16) 0.47572(16) 0.40467(14)
H15 H 1.3146(8) 0.4173(8) 0.3462(4)
H16 H 1.3051(9) 0.53109(16) 0.4311(10)
H17 H 1.19260(18) 0.4151(8) 0.4845(6)
C20 C 0.73299(18) 0.23591(16) 0.21949(16)
H18 H 0.68070(18) 0.20655(16) 0.16938(16)
C21 C 1.17645(18) 0.06680(16) 0.39970(16)
H19 H 1.1803(12) 0.1112(7) 0.47028(18)
H20 H 1.0729(4) 0.0631(11) 0.4026(5)
H21 H 1.2289(8) -0.0290(4) 0.4134(5)
C22 C 0.88043(18) 0.27854(17) 0.17250(15)
H22 H 0.94385(18) 0.28174(17) 0.08585(15)
loop_
_geom_bond_atom_site_label_1
_geom_bond_atom_site_label_2
_geom_bond_site_symmetry_1
_geom_bond_site_symmetry_2
O1 C11 1_555 1_555
C1 C10 1_555 1_555
C2 C7 1_555 1_555
O2 C18 1_555 1_555
C3 H1 1_555 1_555
C4 H2 1_555 1_555
C5 C3 1_555 1_555
C6 C5 1_555 1_555
H3 C6 1_555 1_555
C7 C4 1_555 1_555
H4 C7 1_555 1_555
C8 C12 1_555 1_555
C9 C2 1_555 1_555
H5 C9 1_555 1_555
H6 C9 1_555 1_555
H7 C9 1_555 1_555
C10 C4 1_555 1_555
C11 C18 1_555 1_555
C12 C3 1_555 1_555
H8 C12 1_555 1_555
C13 C6 1_555 1_555
C14 C5 1_555 1_555
H9 C14 1_555 1_555
H10 C14 1_555 1_555
H11 C14 1_555 1_555
C15 O1 1_555 1_555
C16 C1 1_555 1_555
H12 C16 1_555 1_555
C17 C1 1_555 1_555
H13 C17 1_555 1_555
C18 H14 1_555 1_555
C19 C8 1_555 1_555
H15 C19 1_555 1_555
H16 C19 1_555 1_555
H17 C19 1_555 1_555
C20 C11 1_555 1_555
H18 C20 1_555 1_555
C21 C10 1_555 1_555
H19 C21 1_555 1_555
H20 C21 1_555 1_555
H21 C21 1_555 1_555
C22 C15 1_555 1_555
H22 C22 1_555 1_555
C2 C16 1_555 1_555
C8 C13 1_555 1_555
C13 C17 1_555 1_555
C15 C17 1_555 1_555
C20 C22 1_555 1_555

#END
