
#######################################################################
#
#                 Cambridge Crystallographic Data Centre
#                                CCDC 
#
#######################################################################
#
# If this CIF has been generated from an entry in the Cambridge 
# Structural Database, then it will include bibliographic, chemical, 
# crystal, experimental, refinement or atomic coordinate data resulting 
# from the CCDC's data processing and validation procedures.
#
#######################################################################

data_GAVCOX
_chemical_formula_moiety         'C35 H31 Br1 N2'
_chemical_name_systematic        
3-(1-Benzyl-1H-indol-3-yl)-1-(2-bromophenyl)-2,2,5-trimethyl-1,2,3,4-tetrahydrocyclopenta[b]indole
_symmetry_cell_setting           orthorhombic
_symmetry_space_group_name_H-M   'P 21 21 21'
_symmetry_Int_Tables_number      19
_space_group_name_Hall           'P 2ac 2ab'
loop_
_symmetry_equiv_pos_site_id
_symmetry_equiv_pos_as_xyz
1 x,y,z
2 1/2-x,-y,1/2+z
3 -x,1/2+y,1/2-z
4 1/2+x,1/2-y,-z
_cell_length_a                   7.0360(10)
_cell_length_b                   13.6954(19)
_cell_length_c                   28.805(4)
_cell_angle_alpha                90
_cell_angle_beta                 90
_cell_angle_gamma                90
_cell_volume                     2775.67
_exptl_crystal_colour            colorless
_exptl_crystal_description       rod
_cell_formula_units_Z            4
loop_
_atom_site_label
_atom_site_type_symbol
_atom_site_fract_x
_atom_site_fract_y
_atom_site_fract_z
Br1 Br 1.01054(9) 0.62613(3) 0.212256(15)
N1 N 0.9098(5) 0.2701(2) 0.04779(10)
N2 N 1.0249(6) 0.0245(2) 0.15055(12)
C1 C 0.8006(7) 0.6026(3) 0.17231(14)
C2 C 0.6457(9) 0.6656(3) 0.17619(18)
H1 H 0.6499 0.7176 0.1970
C3 C 0.4864(9) 0.6509(4) 0.1492(2)
H2 H 0.3815 0.6918 0.1522
C4 C 0.4845(8) 0.5754(4) 0.11806(18)
H3 H 0.3784 0.5655 0.0994
C5 C 0.6401(7) 0.5133(4) 0.11407(15)
H4 H 0.6346 0.4621 0.0929
C6 C 0.8038(6) 0.5251(3) 0.14060(13)
C7 C 0.9708(6) 0.4539(2) 0.13634(12)
H5 H 1.0903 0.4883 0.1424
C8 C 0.9779(7) 0.4070(2) 0.08888(12)
C9 C 0.9163(6) 0.3141(3) 0.09123(13)
C10 C 0.8568(6) 0.2812(3) 0.13791(13)
H6 H 0.7193 0.2913 0.1402
C11 C 0.9556(6) 0.3614(3) 0.16916(13)
C12 C 0.8421(7) 0.3757(3) 0.21373(13)
H7 H 0.8406 0.3158 0.2310
H8 H 0.7142 0.3942 0.2062
H9 H 0.9000 0.4261 0.2321
C13 C 1.1616(7) 0.3325(3) 0.18163(16)
H10 H 1.2193 0.3838 0.1994
H11 H 1.2331 0.3224 0.1537
H12 H 1.1605 0.2734 0.1995
C14 C 1.0149(6) 0.4284(2) 0.04088(12)
C15 C 1.0858(6) 0.5076(3) 0.01562(14)
H13 H 1.1167 0.5656 0.0306
C16 C 1.1096(7) 0.4990(3) -0.03212(15)
H14 H 1.1589 0.5510 -0.0490
C17 C 1.0601(6) 0.4130(3) -0.05473(14)
H15 H 1.0747 0.4100 -0.0868
C18 C 0.9903(6) 0.3319(3) -0.03197(12)
C19 C 0.9690(6) 0.3418(3) 0.01599(12)
C20 C 0.9372(7) 0.2384(4) -0.05545(15)
H16 H 0.9531 0.2454 -0.0884
H17 H 0.8069 0.2232 -0.0487
H18 H 1.0174 0.1868 -0.0444
C21 C 0.8951(7) 0.1749(3) 0.14887(13)
C22 C 1.0448(6) 0.1202(3) 0.13569(14)
H19 H 1.1479 0.1436 0.1188
C23 C 0.8507(6) 0.0179(3) 0.17316(14)
C24 C 0.7698(6) 0.1113(3) 0.17363(13)
C25 C 0.5905(7) 0.1231(3) 0.19486(14)
H20 H 0.5318 0.1839 0.1956
C26 C 0.5047(8) 0.0435(3) 0.21433(14)
H21 H 0.3870 0.0507 0.2286
C27 C 0.5897(8) -0.0479(3) 0.21322(16)
H22 H 0.5265 -0.1005 0.2266
C28 C 0.7642(7) -0.0635(3) 0.19300(15)
H23 H 0.8210 -0.1248 0.1926
C29 C 1.1474(7) -0.0564(3) 0.13809(16)
H24 H 1.1497 -0.1028 0.1635
H25 H 1.2757 -0.0322 0.1338
C30 C 1.0850(6) -0.1089(3) 0.09407(15)
C31 C 1.1189(7) -0.0703(4) 0.05084(17)
H26 H 1.1822 -0.0110 0.0480
C32 C 1.0592(8) -0.1193(5) 0.01150(19)
H27 H 1.0858 -0.0935 -0.0176
C33 C 0.9611(9) -0.2057(4) 0.0150(2)
H28 H 0.9200 -0.2378 -0.0117
C34 C 0.9248(9) -0.2437(4) 0.0571(2)
H29 H 0.8577 -0.3020 0.0596
C35 C 0.9868(10) -0.1963(3) 0.09678(17)
H30 H 0.9620 -0.2236 0.1257
loop_
_geom_bond_atom_site_label_1
_geom_bond_atom_site_label_2
_geom_bond_site_symmetry_1
_geom_bond_site_symmetry_2
Br1 C1 1_555 1_555
N1 C9 1_555 1_555
N2 C22 1_555 1_555
C1 C2 1_555 1_555
C2 H1 1_555 1_555
C3 C2 1_555 1_555
H2 C3 1_555 1_555
C4 C3 1_555 1_555
H3 C4 1_555 1_555
C5 C4 1_555 1_555
H4 C5 1_555 1_555
C6 C1 1_555 1_555
C7 C6 1_555 1_555
H5 C7 1_555 1_555
C8 C7 1_555 1_555
C9 C8 1_555 1_555
C10 C9 1_555 1_555
H6 C10 1_555 1_555
C11 C7 1_555 1_555
C12 C11 1_555 1_555
H7 C12 1_555 1_555
H8 C12 1_555 1_555
H9 C12 1_555 1_555
C13 C11 1_555 1_555
H10 C13 1_555 1_555
H11 C13 1_555 1_555
H12 C13 1_555 1_555
C14 C8 1_555 1_555
C15 C14 1_555 1_555
H13 C15 1_555 1_555
C16 C15 1_555 1_555
H14 C16 1_555 1_555
C17 C16 1_555 1_555
H15 C17 1_555 1_555
C18 C17 1_555 1_555
C19 N1 1_555 1_555
C20 C18 1_555 1_555
H16 C20 1_555 1_555
H17 C20 1_555 1_555
H18 C20 1_555 1_555
C21 C10 1_555 1_555
C22 C21 1_555 1_555
H19 C22 1_555 1_555
C23 N2 1_555 1_555
C24 C21 1_555 1_555
C25 C24 1_555 1_555
H20 C25 1_555 1_555
C26 C25 1_555 1_555
H21 C26 1_555 1_555
C27 C26 1_555 1_555
H22 C27 1_555 1_555
C28 C23 1_555 1_555
H23 C28 1_555 1_555
C29 N2 1_555 1_555
H24 C29 1_555 1_555
H25 C29 1_555 1_555
C30 C29 1_555 1_555
C31 C30 1_555 1_555
H26 C31 1_555 1_555
C32 C31 1_555 1_555
H27 C32 1_555 1_555
C33 C32 1_555 1_555
H28 C33 1_555 1_555
C34 C33 1_555 1_555
H29 C34 1_555 1_555
C35 C30 1_555 1_555
H30 C35 1_555 1_555
C5 C6 1_555 1_555
C10 C11 1_555 1_555
C14 C19 1_555 1_555
C18 C19 1_555 1_555
C23 C24 1_555 1_555
C27 C28 1_555 1_555
C34 C35 1_555 1_555

#END
