
#######################################################################
#
#                 Cambridge Crystallographic Data Centre
#                                CCDC 
#
#######################################################################
#
# If this CIF has been generated from an entry in the Cambridge 
# Structural Database, then it will include bibliographic, chemical, 
# crystal, experimental, refinement or atomic coordinate data resulting 
# from the CCDC's data processing and validation procedures.
#
#######################################################################

data_GAVVEF
_chemical_formula_moiety         'C12 H12 N2 O1'
_chemical_name_systematic        3-(1H-Imidazol-1-yl)-1-phenylpropan-1-one
_symmetry_cell_setting           monoclinic
_symmetry_space_group_name_H-M   'P 21/c'
_symmetry_Int_Tables_number      14
_space_group_name_Hall           '-P 2ybc'
loop_
_symmetry_equiv_pos_site_id
_symmetry_equiv_pos_as_xyz
1 x,y,z
2 -x,1/2+y,1/2-z
3 -x,-y,-z
4 x,1/2-y,1/2+z
_cell_length_a                   12.5860(14)
_cell_length_b                   10.3777(12)
_cell_length_c                   8.0771(9)
_cell_angle_alpha                90
_cell_angle_beta                 102.095(2)
_cell_angle_gamma                90
_cell_volume                     1031.56
_exptl_crystal_colour            colorless
_exptl_crystal_description       block
_cell_formula_units_Z            4
_exptl_crystal_recrystallization_method 'dichloromethane/petroleum ether 1:1'
loop_
_atom_site_label
_atom_site_type_symbol
_atom_site_fract_x
_atom_site_fract_y
_atom_site_fract_z
O1 O 0.35506(10) 0.74330(10) -0.00263(15)
N1 N 0.12908(9) 0.50210(11) 0.15677(16)
N2 N 0.03531(10) 0.32484(13) 0.17810(18)
C1 C 0.55746(12) 0.53448(13) 0.24739(19)
H1 H 0.5127 0.4708 0.2765
C2 C 0.66897(12) 0.52503(15) 0.3022(2)
H2 H 0.6988 0.4549 0.3675
C3 C 0.73626(12) 0.61948(15) 0.26031(19)
H3 H 0.8111 0.6139 0.2992
C4 C 0.69216(13) 0.72180(15) 0.16084(19)
H4 H 0.7374 0.7848 0.1314
C5 C 0.58098(12) 0.73121(13) 0.10455(18)
H5 H 0.5519 0.8001 0.0363
C6 C 0.51188(11) 0.63847(12) 0.14899(16)
C7 C 0.39176(11) 0.65524(12) 0.09126(17)
C8 C 0.31751(11) 0.56208(13) 0.15422(18)
H6 H 0.3344 0.5624 0.2770
H7 H 0.3311 0.4759 0.1170
C9 C 0.19833(12) 0.59384(15) 0.0925(2)
H8 H 0.1843 0.6800 0.1294
H9 H 0.1808 0.5927 -0.0303
C10 C 0.09193(11) 0.38892(14) 0.0867(2)
H10 H 0.1050 0.3593 -0.0158
C11 C 0.03657(14) 0.40195(18) 0.3149(2)
H11 H 0.0027 0.3823 0.4037
C12 C 0.09356(15) 0.51061(17) 0.3044(2)
H12 H 0.1061 0.5778 0.3823
loop_
_geom_bond_atom_site_label_1
_geom_bond_atom_site_label_2
_geom_bond_site_symmetry_1
_geom_bond_site_symmetry_2
O1 C7 1_555 1_555
N1 C9 1_555 1_555
N2 C10 1_555 1_555
C1 H1 1_555 1_555
C2 C1 1_555 1_555
H2 C2 1_555 1_555
C3 C2 1_555 1_555
H3 C3 1_555 1_555
C4 C3 1_555 1_555
H4 C4 1_555 1_555
C5 C4 1_555 1_555
H5 C5 1_555 1_555
C6 C1 1_555 1_555
C7 C6 1_555 1_555
C8 C7 1_555 1_555
H6 C8 1_555 1_555
H7 C8 1_555 1_555
C9 C8 1_555 1_555
H8 C9 1_555 1_555
H9 C9 1_555 1_555
C10 N1 1_555 1_555
H10 C10 1_555 1_555
C11 N2 1_555 1_555
H11 C11 1_555 1_555
C12 N1 1_555 1_555
H12 C12 1_555 1_555
C5 C6 1_555 1_555
C11 C12 1_555 1_555

#END
