
#######################################################################
#
#                 Cambridge Crystallographic Data Centre
#                                CCDC 
#
#######################################################################
#
# If this CIF has been generated from an entry in the Cambridge 
# Structural Database, then it will include bibliographic, chemical, 
# crystal, experimental, refinement or atomic coordinate data resulting 
# from the CCDC's data processing and validation procedures.
#
#######################################################################

data_GAVWUW
_chemical_formula_moiety         'C14 H13 N3 O3,H2 O1'
_chemical_name_systematic        
'3-Hydroxy-4-methoxybenzaldehyde isonicotinoylhydrazone monohydrate'
_symmetry_cell_setting           monoclinic
_symmetry_space_group_name_H-M   'P 21/n'
_symmetry_Int_Tables_number      14
_space_group_name_Hall           '-P 2yn'
loop_
_symmetry_equiv_pos_site_id
_symmetry_equiv_pos_as_xyz
1 x,y,z
2 1/2-x,1/2+y,1/2-z
3 -x,-y,-z
4 1/2+x,1/2-y,1/2+z
_cell_length_a                   9.1684(16)
_cell_length_b                   11.489(2)
_cell_length_c                   13.889(2)
_cell_angle_alpha                90
_cell_angle_beta                 93.688(3)
_cell_angle_gamma                90
_cell_volume                     1459.98
_exptl_crystal_colour            colorless
_exptl_crystal_description       block
_chemical_melting_point          '463 K'
_cell_formula_units_Z            4
_exptl_crystal_recrystallization_method ethanol/water
loop_
_atom_site_label
_atom_site_type_symbol
_atom_site_fract_x
_atom_site_fract_y
_atom_site_fract_z
O1 O 0.25245(13) 0.54391(11) 0.35715(9)
O2 O 0.37743(12) 0.23613(10) 0.75734(8)
H1 H 0.445(2) 0.2509(18) 0.7093(16)
O3 O 0.19327(11) 0.11386(10) 0.84860(8)
N1 N -0.0252(2) 0.64113(14) 0.04566(11)
N2 N 0.05144(16) 0.43202(12) 0.36601(9)
H2 H -0.022(2) 0.4017(15) 0.3379(13)
N3 N 0.10256(14) 0.38462(12) 0.45344(9)
C1 C -0.1161(2) 0.59263(16) 0.10464(13)
H3 H -0.2147 0.5887 0.0845
C2 C -0.07281(19) 0.54760(14) 0.19418(12)
H4 H -0.1410 0.5148 0.2329
C3 C 0.07319(17) 0.55192(14) 0.22544(11)
C4 C 0.1685(2) 0.60190(18) 0.16418(13)
H5 H 0.2678 0.6070 0.1822
C5 C 0.1146(3) 0.64386(19) 0.07656(15)
H6 H 0.1805 0.6764 0.0361
C6 C 0.13380(18) 0.50909(14) 0.32213(11)
C7 C 0.01520(18) 0.31528(15) 0.49196(11)
H7 H -0.0764 0.3006 0.4618
C8 C 0.05851(17) 0.25851(14) 0.58365(11)
C9 C 0.19995(16) 0.27350(14) 0.62581(10)
H8 H 0.2669 0.3180 0.5943
C10 C 0.24122(16) 0.22342(13) 0.71308(10)
C11 C 0.13994(17) 0.15794(14) 0.76210(11)
C12 C 0.00052(17) 0.14190(15) 0.72068(12)
H9 H -0.0668 0.0979 0.7524
C13 C -0.03922(17) 0.19167(15) 0.63133(12)
H10 H -0.1329 0.1797 0.6034
C14 C 0.09332(19) 0.05221(16) 0.90501(12)
H11 H 0.0143 0.1028 0.9194
H12 H 0.1433 0.0264 0.9641
H13 H 0.0554 -0.0139 0.8694
O4 O 0.57840(15) 0.25477(16) 0.63487(11)
H14 H 0.573(3) 0.219(2) 0.578(2)
H15 H 0.632(3) 0.309(2) 0.6328(16)
loop_
_geom_bond_atom_site_label_1
_geom_bond_atom_site_label_2
_geom_bond_site_symmetry_1
_geom_bond_site_symmetry_2
O1 C6 1_555 1_555
O2 H1 1_555 1_555
O3 C11 1_555 1_555
N1 C1 1_555 1_555
N2 H2 1_555 1_555
N3 N2 1_555 1_555
C1 H3 1_555 1_555
C2 C1 1_555 1_555
H4 C2 1_555 1_555
C3 C2 1_555 1_555
C4 C3 1_555 1_555
H5 C4 1_555 1_555
C5 N1 1_555 1_555
H6 C5 1_555 1_555
C6 N2 1_555 1_555
C7 N3 1_555 1_555
H7 C7 1_555 1_555
C8 C7 1_555 1_555
C9 C8 1_555 1_555
H8 C9 1_555 1_555
C10 O2 1_555 1_555
C11 C10 1_555 1_555
C12 C11 1_555 1_555
H9 C12 1_555 1_555
C13 C8 1_555 1_555
H10 C13 1_555 1_555
C14 O3 1_555 1_555
H11 C14 1_555 1_555
H12 C14 1_555 1_555
H13 C14 1_555 1_555
O4 H14 1_555 1_555
H15 O4 1_555 1_555
C3 C6 1_555 1_555
C4 C5 1_555 1_555
C9 C10 1_555 1_555
C12 C13 1_555 1_555

#END
