
#######################################################################
#
#                 Cambridge Crystallographic Data Centre
#                                CCDC 
#
#######################################################################
#
# If this CIF has been generated from an entry in the Cambridge 
# Structural Database, then it will include bibliographic, chemical, 
# crystal, experimental, refinement or atomic coordinate data resulting 
# from the CCDC's data processing and validation procedures.
#
#######################################################################

data_GAVWUY
_chemical_formula_moiety         'C16 H13 N3 O3 S1,0.5(C1 H2 Cl2)'
_chemical_name_systematic        
'N-(4-diazoisochroman-3-ylidene)-4-methylbenzenesulfonamide dichloromethane solvate'
_symmetry_cell_setting           triclinic
_symmetry_space_group_name_H-M   'P -1'
_symmetry_Int_Tables_number      2
_space_group_name_Hall           '-P 1'
loop_
_symmetry_equiv_pos_site_id
_symmetry_equiv_pos_as_xyz
1 x,y,z
2 -x,-y,-z
_cell_length_a                   8.3200(6)
_cell_length_b                   8.9410(5)
_cell_length_c                   24.9526(17)
_cell_angle_alpha                83.367(5)
_cell_angle_beta                 81.578(6)
_cell_angle_gamma                67.510(6)
_cell_volume                     1692.94
_exptl_crystal_colour            yellow
_exptl_crystal_description       plate
_cell_formula_units_Z            4
loop_
_atom_site_label
_atom_site_type_symbol
_atom_site_fract_x
_atom_site_fract_y
_atom_site_fract_z
S1 S 0.60321(9) 0.65762(8) 0.09785(3)
O1 O 0.7608(2) 0.5944(3) 0.06162(9)
O2 O 0.5488(3) 0.8221(2) 0.11201(9)
O3 O 0.4460(2) 0.8003(2) 0.00138(8)
N1 N 0.4406(3) 0.6296(3) 0.07739(10)
N2 N 0.1756(3) 0.5796(3) 0.04683(11)
N3 N 0.1332(4) 0.4908(4) 0.07419(14)
C1 C 0.1293(4) 0.9908(4) -0.09934(13)
H1 H 0.1843 1.0525 -0.1213
C2 C -0.0393(4) 1.0118(4) -0.10548(14)
H2 H -0.0977 1.0868 -0.1320
C3 C -0.1220(4) 0.9229(4) -0.07280(14)
H3 H -0.2360 0.9376 -0.0776
C4 C -0.0391(4) 0.8120(4) -0.03293(13)
H4 H -0.0971 0.7536 -0.0105
C5 C 0.1324(3) 0.7887(3) -0.02684(11)
C6 C 0.2180(4) 0.8773(3) -0.06027(12)
C7 C 0.4054(4) 0.8399(4) -0.05470(13)
H5 H 0.4776 0.7492 -0.0762
H6 H 0.4350 0.9328 -0.0691
C8 C 0.3805(3) 0.7008(3) 0.03213(11)
C9 C 0.2337(4) 0.6824(3) 0.01492(11)
C10 C 0.6257(3) 0.5342(3) 0.15832(11)
C11 C 0.4970(4) 0.5790(4) 0.20149(14)
H7 H 0.3954 0.6699 0.1976
C12 C 0.5192(5) 0.4892(4) 0.25011(14)
H8 H 0.4314 0.5205 0.2789
C13 C 0.6687(5) 0.3531(4) 0.25755(13)
C14 C 0.7948(4) 0.3095(4) 0.21382(14)
H9 H 0.8959 0.2180 0.2177
C15 C 0.7758(4) 0.3975(4) 0.16433(13)
H10 H 0.8628 0.3653 0.1354
C16 C 0.6911(6) 0.2595(5) 0.31174(15)
H11 H 0.8085 0.1810 0.3114
H12 H 0.6100 0.2050 0.3188
H13 H 0.6692 0.3328 0.3396
S2 S 0.39498(9) 0.83578(9) 0.39791(3)
O4 O 0.2402(3) 0.8987(3) 0.43540(9)
O5 O 0.4497(3) 0.6714(3) 0.38378(10)
O6 O 0.5556(2) 0.6945(2) 0.49300(9)
N4 N 0.5589(3) 0.8656(3) 0.41698(10)
N5 N 0.8156(3) 0.9275(3) 0.44979(11)
N6 N 0.8572(4) 1.0182(4) 0.42386(14)
C17 C 0.8698(4) 0.5129(4) 0.59519(12)
H14 H 0.8173 0.4483 0.6167
C18 C 1.0353(4) 0.4987(4) 0.60254(13)
H15 H 1.0942 0.4254 0.6293
C19 C 1.1147(4) 0.5927(4) 0.57037(13)
H16 H 1.2261 0.5838 0.5761
C20 C 1.0309(4) 0.6998(4) 0.52979(12)
H17 H 1.0866 0.7604 0.5075
C21 C 0.8625(4) 0.7164(3) 0.52259(11)
C22 C 0.7806(4) 0.6233(3) 0.55577(12)
C23 C 0.5951(4) 0.6539(4) 0.54883(14)
H18 H 0.5703 0.5579 0.5623
H19 H 0.5184 0.7421 0.5708
C24 C 0.6179(3) 0.7969(3) 0.46255(12)
C25 C 0.7603(4) 0.8216(3) 0.48068(12)
C26 C 0.3664(4) 0.9594(3) 0.33718(11)
C27 C 0.2470(4) 1.1176(4) 0.33719(13)
H20 H 0.1815 1.1601 0.3692
C28 C 0.2269(5) 1.2113(4) 0.28898(14)
H21 H 0.1480 1.3182 0.2891
C29 C 0.3193(4) 1.1522(4) 0.24060(13)
C30 C 0.4347(5) 0.9925(4) 0.24157(14)
H22 H 0.4978 0.9488 0.2094
C31 C 0.4575(4) 0.8974(4) 0.28914(14)
H23 H 0.5353 0.7901 0.2889
C32 C 0.2946(6) 1.2565(5) 0.18841(15)
H24 H 0.3883 1.2960 0.1798
H25 H 0.1849 1.3467 0.1924
H26 H 0.2949 1.1936 0.1597
Cl1 Cl 0.07173(17) 0.83904(19) 0.28169(8)
Cl2 Cl -0.0870(2) 0.67527(17) 0.22753(8)
C33 C -0.1127(7) 0.8436(6) 0.2606(3)
H27 H -0.1571 0.9394 0.2363
H28 H -0.1998 0.8535 0.2918
loop_
_geom_bond_atom_site_label_1
_geom_bond_atom_site_label_2
_geom_bond_site_symmetry_1
_geom_bond_site_symmetry_2
S1 O1 1_555 1_555
O2 S1 1_555 1_555
O3 C7 1_555 1_555
N1 S1 1_555 1_555
N2 N3 1_555 1_555
C1 H1 1_555 1_555
C2 C1 1_555 1_555
H2 C2 1_555 1_555
C3 C2 1_555 1_555
H3 C3 1_555 1_555
C4 C3 1_555 1_555
H4 C4 1_555 1_555
C5 C4 1_555 1_555
C6 C1 1_555 1_555
C7 C6 1_555 1_555
H5 C7 1_555 1_555
H6 C7 1_555 1_555
C8 O3 1_555 1_555
C9 N2 1_555 1_555
C10 S1 1_555 1_555
C11 C10 1_555 1_555
H7 C11 1_555 1_555
C12 C11 1_555 1_555
H8 C12 1_555 1_555
C13 C12 1_555 1_555
C14 C13 1_555 1_555
H9 C14 1_555 1_555
C15 C10 1_555 1_555
H10 C15 1_555 1_555
C16 C13 1_555 1_555
H11 C16 1_555 1_555
H12 C16 1_555 1_555
H13 C16 1_555 1_555
S2 O4 1_555 1_555
O5 S2 1_555 1_555
O6 C23 1_555 1_555
N4 S2 1_555 1_555
N5 N6 1_555 1_555
C17 H14 1_555 1_555
C18 C17 1_555 1_555
H15 C18 1_555 1_555
C19 C18 1_555 1_555
H16 C19 1_555 1_555
C20 C19 1_555 1_555
H17 C20 1_555 1_555
C21 C20 1_555 1_555
C22 C17 1_555 1_555
C23 C22 1_555 1_555
H18 C23 1_555 1_555
H19 C23 1_555 1_555
C24 O6 1_555 1_555
C25 N5 1_555 1_555
C26 S2 1_555 1_555
C27 C26 1_555 1_555
H20 C27 1_555 1_555
C28 C27 1_555 1_555
H21 C28 1_555 1_555
C29 C28 1_555 1_555
C30 C29 1_555 1_555
H22 C30 1_555 1_555
C31 C26 1_555 1_555
H23 C31 1_555 1_555
C32 C29 1_555 1_555
H24 C32 1_555 1_555
H25 C32 1_555 1_555
H26 C32 1_555 1_555
Cl1 C33 1_555 1_555
Cl2 C33 1_555 1_555
C33 H27 1_555 1_555
H28 C33 1_555 1_555
N1 C8 1_555 1_555
C5 C6 1_555 1_555
C5 C9 1_555 1_555
C8 C9 1_555 1_555
C14 C15 1_555 1_555
N4 C24 1_555 1_555
C21 C22 1_555 1_555
C21 C25 1_555 1_555
C24 C25 1_555 1_555
C30 C31 1_555 1_555

#END
