
#######################################################################
#
#                 Cambridge Crystallographic Data Centre
#                                CCDC 
#
#######################################################################
#
# If this CIF has been generated from an entry in the Cambridge 
# Structural Database, then it will include bibliographic, chemical, 
# crystal, experimental, refinement or atomic coordinate data resulting 
# from the CCDC's data processing and validation procedures.
#
#######################################################################

data_GAWHOE
_chemical_formula_moiety         'C16 H14 O4'
_chemical_name_systematic        
(S)-6,6'-dimethoxybiphenyl-2,2'-dicarbaldehyde
_symmetry_cell_setting           orthorhombic
_symmetry_space_group_name_H-M   'P 21 21 21'
_symmetry_Int_Tables_number      19
_space_group_name_Hall           'P 2ac 2ab'
loop_
_symmetry_equiv_pos_site_id
_symmetry_equiv_pos_as_xyz
1 x,y,z
2 1/2-x,-y,1/2+z
3 1/2+x,1/2-y,-z
4 -x,1/2+y,1/2-z
_cell_length_a                   12.6780(4)
_cell_length_b                   12.7141(3)
_cell_length_c                   16.6128(4)
_cell_angle_alpha                90
_cell_angle_beta                 90
_cell_angle_gamma                90
_cell_volume                     2677.81
_exptl_crystal_colour            colorless
_exptl_crystal_description       column
_chemical_melting_point          '373-374 K'
_cell_formula_units_Z            8
_exptl_crystal_recrystallization_method 'dichloromethane/petroleum ether'
loop_
_atom_site_label
_atom_site_type_symbol
_atom_site_fract_x
_atom_site_fract_y
_atom_site_fract_z
O1 O -0.69890(14) -0.08816(14) -0.23500(10)
O2 O -0.65034(14) -0.00332(13) -0.47155(10)
C1 C -0.88840(19) 0.01688(19) -0.47433(15)
H1 H -0.8437 0.0747 -0.4782
C2 C -0.72507(19) 0.05900(18) -0.35181(14)
O3 O -0.81524(18) 0.18759(16) -0.16926(12)
C3 C -0.7313(2) 0.13635(19) -0.29187(14)
C4 C -0.79115(19) -0.03862(18) -0.35018(14)
C5 C -0.86858(19) -0.05945(18) -0.40869(14)
C6 C -0.9103(2) -0.2242(2) -0.34552(16)
H2 H -0.9496 -0.2860 -0.3440
C7 C -0.7754(2) -0.11386(19) -0.28957(15)
C8 C -0.6011(2) 0.24157(19) -0.35875(16)
H3 H -0.5609 0.3027 -0.3617
C9 C -0.9285(2) -0.1518(2) -0.40612(16)
H4 H -0.9801 -0.1644 -0.4448
C10 C -0.5909(2) 0.1653(2) -0.41837(15)
H5 H -0.5431 0.1747 -0.4602
C11 C -0.8059(2) 0.1251(2) -0.22387(15)
H6 H -0.8487 0.0658 -0.2230
C12 C -0.8342(2) -0.20598(19) -0.28684(15)
H7 H -0.8228 -0.2550 -0.2462
O4 O -0.95864(16) 0.00929(17) -0.52321(12)
C13 C -0.65283(19) 0.07464(19) -0.41505(14)
C14 C -0.6698(2) 0.22760(19) -0.29565(15)
H8 H -0.6754 0.2785 -0.2557
C15 C -0.6805(2) -0.1591(2) -0.16947(15)
H9 H -0.6286 -0.1296 -0.1339
H10 H -0.6553 -0.2250 -0.1901
H11 H -0.7451 -0.1702 -0.1405
C16 C -0.5815(2) 0.0112(2) -0.53919(15)
H12 H -0.5102 0.0187 -0.5206
H13 H -0.6019 0.0734 -0.5681
H14 H -0.5863 -0.0487 -0.5742
O5 O -0.35777(14) -0.02834(13) -0.71379(10)
O6 O -0.12441(14) 0.00835(13) -0.70421(10)
C17 C -0.27928(18) 0.03113(17) -0.59407(14)
C18 C -0.1884(2) 0.09895(19) -0.47096(15)
H15 H -0.1508 0.0363 -0.4674
C19 C -0.21271(19) -0.06639(18) -0.59473(14)
O7 O -0.16852(18) 0.16803(14) -0.42311(11)
C20 C -0.22539(19) -0.15050(18) -0.54028(14)
C21 C -0.13401(19) -0.07552(19) -0.65394(14)
C22 C -0.35125(19) 0.04951(18) -0.65728(14)
C23 C -0.2694(2) 0.10873(18) -0.53480(14)
C24 C -0.1612(2) -0.23910(19) -0.54516(15)
H16 H -0.1704 -0.2941 -0.5089
C25 C -0.3326(2) 0.19886(18) -0.53596(14)
H17 H -0.3268 0.2483 -0.4950
C26 C -0.0838(2) -0.24587(19) -0.60370(16)
H18 H -0.0411 -0.3052 -0.6065
C27 C -0.4034(2) 0.21447(18) -0.59783(15)
H19 H -0.4455 0.2743 -0.5986
O8 O -0.36709(16) -0.08496(15) -0.45735(12)
C28 C -0.4116(2) 0.14009(19) -0.65931(15)
H20 H -0.4578 0.1515 -0.7019
C29 C -0.0700(2) -0.1648(2) -0.65784(15)
H21 H -0.0179 -0.1696 -0.6971
C30 C -0.0576(2) -0.0032(2) -0.77253(17)
H22 H 0.0137 -0.0139 -0.7550
H23 H -0.0613 0.0592 -0.8049
H24 H -0.0802 -0.0626 -0.8037
C31 C -0.3064(2) -0.15364(19) -0.47598(14)
H25 H -0.3109 -0.2158 -0.4466
C32 C -0.4142(2) -0.0031(2) -0.78559(14)
H26 H -0.4865 0.0116 -0.7726
H27 H -0.4109 -0.0615 -0.8221
H28 H -0.3830 0.0577 -0.8104
loop_
_geom_bond_atom_site_label_1
_geom_bond_atom_site_label_2
_geom_bond_site_symmetry_1
_geom_bond_site_symmetry_2
O1 C7 1_555 1_555
O2 C13 1_555 1_555
C1 H1 1_555 1_555
C2 C3 1_555 1_555
O3 C11 1_555 1_555
C3 C11 1_555 1_555
C4 C2 1_555 1_555
C5 C1 1_555 1_555
C6 H2 1_555 1_555
C7 C4 1_555 1_555
C8 H3 1_555 1_555
C9 C5 1_555 1_555
H4 C9 1_555 1_555
C10 C8 1_555 1_555
H5 C10 1_555 1_555
C11 H6 1_555 1_555
C12 C6 1_555 1_555
H7 C12 1_555 1_555
O4 C1 1_555 1_555
C13 C2 1_555 1_555
C14 C3 1_555 1_555
H8 C14 1_555 1_555
C15 O1 1_555 1_555
H9 C15 1_555 1_555
H10 C15 1_555 1_555
H11 C15 1_555 1_555
C16 O2 1_555 1_555
H12 C16 1_555 1_555
H13 C16 1_555 1_555
H14 C16 1_555 1_555
O5 C22 1_555 1_555
O6 C21 1_555 1_555
C17 C19 1_555 1_555
C18 H15 1_555 1_555
C19 C20 1_555 1_555
O7 C18 1_555 1_555
C20 C24 1_555 1_555
C21 C19 1_555 1_555
C22 C17 1_555 1_555
C23 C17 1_555 1_555
C24 H16 1_555 1_555
C25 C23 1_555 1_555
H17 C25 1_555 1_555
C26 C24 1_555 1_555
H18 C26 1_555 1_555
C27 C25 1_555 1_555
H19 C27 1_555 1_555
O8 C31 1_555 1_555
C28 C22 1_555 1_555
H20 C28 1_555 1_555
C29 C21 1_555 1_555
H21 C29 1_555 1_555
C30 O6 1_555 1_555
H22 C30 1_555 1_555
H23 C30 1_555 1_555
H24 C30 1_555 1_555
C31 C20 1_555 1_555
H25 C31 1_555 1_555
C32 O5 1_555 1_555
H26 C32 1_555 1_555
H27 C32 1_555 1_555
H28 C32 1_555 1_555
C4 C5 1_555 1_555
C6 C9 1_555 1_555
C7 C12 1_555 1_555
C8 C14 1_555 1_555
C10 C13 1_555 1_555
C18 C23 1_555 1_555
C26 C29 1_555 1_555
C27 C28 1_555 1_555

#END
