
#######################################################################
#
#                 Cambridge Crystallographic Data Centre
#                                CCDC 
#
#######################################################################
#
# If this CIF has been generated from an entry in the Cambridge 
# Structural Database, then it will include bibliographic, chemical, 
# crystal, experimental, refinement or atomic coordinate data resulting 
# from the CCDC's data processing and validation procedures.
#
#######################################################################

data_GAXGOE
_chemical_formula_moiety         'C13 H11 N3 O4'
_chemical_name_systematic        
'methyl 4-methyl-2-(4-nitrophenyl)pyrimidine-5-carboxylate'
_symmetry_cell_setting           triclinic
_symmetry_space_group_name_H-M   'P -1'
_symmetry_Int_Tables_number      2
_space_group_name_Hall           '-P 1'
loop_
_symmetry_equiv_pos_site_id
_symmetry_equiv_pos_as_xyz
1 x,y,z
2 -x,-y,-z
_cell_length_a                   6.5180(5)
_cell_length_b                   7.2879(6)
_cell_length_c                   13.2101(11)
_cell_angle_alpha                94.2700(10)
_cell_angle_beta                 97.771(2)
_cell_angle_gamma                97.319(2)
_cell_volume                     613.995
_cell_formula_units_Z            2
loop_
_atom_site_label
_atom_site_type_symbol
_atom_site_fract_x
_atom_site_fract_y
_atom_site_fract_z
N1 N 0.4180(9) 0.7047(8) 1.3905(4)
N2 N 0.7464(11) 0.8272(9) 1.4832(4)
N3 N 0.2108(13) 0.7358(10) 1.8503(5)
O1 O 0.7366(9) 0.7029(9) 1.1353(4)
O2 O 0.9682(10) 0.9281(9) 1.2150(4)
O3 O 0.3245(10) 0.7969(10) 1.9270(4)
O4 O 0.0336(11) 0.6701(10) 1.8466(4)
C1 C 0.8147(13) 0.8114(13) 1.2124(8)
C2 C 0.7130(12) 0.7892(10) 1.3097(6)
C3 C 0.5106(13) 0.7181(10) 1.3017(5)
C4 C 0.5477(13) 0.7582(10) 1.4780(5)
C5 C 0.8359(13) 0.8442(10) 1.3977(6)
H1 H 0.9761 0.8919 1.4004
C6 C 0.4613(11) 0.7499(9) 1.5756(5)
C7 C 0.5823(10) 0.8124(9) 1.6659(5)
H2 H 0.7221 0.8586 1.6662
C8 C 0.5050(12) 0.8094(10) 1.7558(5)
H3 H 0.5886 0.8572 1.8172
C9 C 0.2988(12) 0.7335(10) 1.7546(5)
C10 C 0.1742(11) 0.6704(10) 1.6648(5)
H4 H 0.0345 0.6226 1.6634
C11 C 0.2622(12) 0.6795(10) 1.5754(5)
H5 H 0.1799 0.6351 1.5132
C12 C 0.3524(12) 0.6626(12) 1.2108(6)
H6 H 0.2994 0.7708 1.1864
H7 H 0.2398 0.5786 1.2285
H8 H 0.4146 0.6022 1.1579
C13 C 0.8335(13) 0.7278(13) 1.0439(5)
H9 H 0.8171 0.8484 1.0219
H10 H 0.7680 0.6340 0.9904
H11 H 0.9796 0.7175 1.0588
loop_
_geom_bond_atom_site_label_1
_geom_bond_atom_site_label_2
_geom_bond_site_symmetry_1
_geom_bond_site_symmetry_2
N1 C3 1_555 1_555
N2 C4 1_555 1_555
N3 O3 1_555 1_555
O1 C1 1_555 1_555
O2 C1 1_555 1_555
O4 N3 1_555 1_555
C1 C2 1_555 1_555
C2 C3 1_555 1_555
C3 C12 1_555 1_555
C4 N1 1_555 1_555
C5 N2 1_555 1_555
H1 C5 1_555 1_555
C6 C4 1_555 1_555
C7 C6 1_555 1_555
H2 C7 1_555 1_555
C8 C7 1_555 1_555
H3 C8 1_555 1_555
C9 N3 1_555 1_555
C10 C9 1_555 1_555
H4 C10 1_555 1_555
C11 C6 1_555 1_555
H5 C11 1_555 1_555
C12 H6 1_555 1_555
H7 C12 1_555 1_555
H8 C12 1_555 1_555
C13 O1 1_555 1_555
H9 C13 1_555 1_555
H10 C13 1_555 1_555
H11 C13 1_555 1_555
C2 C5 1_555 1_555
C8 C9 1_555 1_555
C10 C11 1_555 1_555

#END
