
#######################################################################
#
#                 Cambridge Crystallographic Data Centre
#                                CCDC 
#
#######################################################################
#
# If this CIF has been generated from an entry in the Cambridge 
# Structural Database, then it will include bibliographic, chemical, 
# crystal, experimental, refinement or atomic coordinate data resulting 
# from the CCDC's data processing and validation procedures.
#
#######################################################################

data_GAXMEA
_chemical_formula_moiety         'C34 H23 F3 N2'
_chemical_name_systematic        
(E)-2-(4'-(diphenylamino)biphenyl-4-yl)-3-(4-(trifluoromethyl)phenyl)prop-2-enenitrile
_symmetry_cell_setting           monoclinic
_symmetry_space_group_name_H-M   'P 21/n'
_symmetry_Int_Tables_number      14
_space_group_name_Hall           '-P 2yn'
loop_
_symmetry_equiv_pos_site_id
_symmetry_equiv_pos_as_xyz
1 x,y,z
2 1/2-x,1/2+y,1/2-z
3 -x,-y,-z
4 1/2+x,1/2-y,1/2+z
_cell_length_a                   12.565(9)
_cell_length_b                   8.465(6)
_cell_length_c                   26.031(19)
_cell_angle_alpha                90
_cell_angle_beta                 98.084(14)
_cell_angle_gamma                90
_cell_volume                     2741.22
_exptl_crystal_colour            yellow
_exptl_crystal_description       block
_cell_formula_units_Z            4
loop_
_atom_site_label
_atom_site_type_symbol
_atom_site_fract_x
_atom_site_fract_y
_atom_site_fract_z
F1 F 0.0597(5) -0.4165(4) 0.10290(19)
F2 F -0.0560(4) -0.3179(5) 0.1324(2)
F3 F 0.0857(6) -0.3125(6) 0.17145(18)
N1 N 0.8848(2) 0.3651(3) 0.28762(11)
N2 N 0.2086(4) 0.6173(6) -0.03240(18)
C1 C 0.9842(3) 0.3283(4) 0.27039(13)
C2 C 0.9899(3) 0.2054(5) 0.23592(15)
H1 H 0.9285 0.1480 0.2236
C3 C 1.0863(4) 0.1682(6) 0.21995(17)
H2 H 1.0894 0.0857 0.1966
C4 C 1.1770(4) 0.2492(8) 0.2375(2)
H3 H 1.2418 0.2229 0.2263
C5 C 1.1719(4) 0.3703(7) 0.2719(2)
H4 H 1.2341 0.4253 0.2846
C6 C 1.0757(3) 0.4118(5) 0.28779(17)
H5 H 1.0728 0.4964 0.3103
C7 C 0.8834(3) 0.3919(4) 0.34149(14)
C8 C 0.9509(4) 0.3070(5) 0.37811(16)
H6 H 0.9956 0.2299 0.3673
C9 C 0.9527(5) 0.3354(7) 0.43019(18)
H7 H 0.9995 0.2796 0.4545
C10 C 0.8852(5) 0.4464(7) 0.44610(19)
H8 H 0.8858 0.4647 0.4814
C11 C 0.8162(4) 0.5315(6) 0.4106(2)
H9 H 0.7702 0.6059 0.4219
C12 C 0.8157(3) 0.5057(5) 0.35765(15)
H10 H 0.7704 0.5640 0.3334
C13 C 0.7894(3) 0.3669(4) 0.25181(14)
C14 C 0.7899(3) 0.4238(4) 0.20156(14)
H11 H 0.8537 0.4607 0.1916
C15 C 0.6974(3) 0.4261(4) 0.16665(14)
H12 H 0.6999 0.4659 0.1335
C16 C 0.6000(3) 0.3707(4) 0.17918(13)
C17 C 0.6016(3) 0.3140(4) 0.22965(13)
H13 H 0.5383 0.2760 0.2397
C18 C 0.6933(3) 0.3125(4) 0.26471(14)
H14 H 0.6908 0.2741 0.2980
C19 C 0.5004(3) 0.3710(4) 0.14117(13)
C20 C 0.5032(3) 0.3738(5) 0.08783(14)
H15 H 0.5692 0.3723 0.0756
C21 C 0.4098(3) 0.3786(5) 0.05279(14)
H16 H 0.4146 0.3859 0.0175
C22 C 0.3106(3) 0.3731(4) 0.06864(14)
C23 C 0.3068(3) 0.3694(5) 0.12178(14)
H17 H 0.2406 0.3665 0.1339
C24 C 0.3998(3) 0.3701(5) 0.15658(14)
H18 H 0.3947 0.3699 0.1919
C25 C 0.2107(3) 0.3816(5) 0.03076(14)
C26 C 0.2085(4) 0.5115(6) -0.00498(18)
C27 C 0.1240(3) 0.2883(5) 0.02710(15)
H19 H 0.0655 0.3209 0.0036
C28 C 0.1084(3) 0.1412(5) 0.05516(14)
C29 C 0.1896(3) 0.0336(5) 0.07021(16)
H20 H 0.2593 0.0567 0.0644
C30 C 0.1692(4) -0.1086(6) 0.09384(16)
H21 H 0.2249 -0.1792 0.1040
C31 C 0.0649(4) -0.1447(5) 0.10219(15)
C32 C -0.0149(4) -0.0398(6) 0.08836(18)
H22 H -0.0840 -0.0617 0.0953
C33 C 0.0055(4) 0.1017(6) 0.06366(17)
H23 H -0.0510 0.1702 0.0528
C34 C 0.0425(6) -0.2938(7) 0.1263(3)
loop_
_geom_bond_atom_site_label_1
_geom_bond_atom_site_label_2
_geom_bond_site_symmetry_1
_geom_bond_site_symmetry_2
F1 C34 1_555 1_555
F2 C34 1_555 1_555
F3 C34 1_555 1_555
N1 C1 1_555 1_555
N2 C26 1_555 1_555
C1 C2 1_555 1_555
C2 H1 1_555 1_555
C3 C2 1_555 1_555
H2 C3 1_555 1_555
C4 C3 1_555 1_555
H3 C4 1_555 1_555
C5 C4 1_555 1_555
H4 C5 1_555 1_555
C6 C1 1_555 1_555
H5 C6 1_555 1_555
C7 N1 1_555 1_555
C8 C7 1_555 1_555
H6 C8 1_555 1_555
C9 C8 1_555 1_555
H7 C9 1_555 1_555
C10 C9 1_555 1_555
H8 C10 1_555 1_555
C11 C10 1_555 1_555
H9 C11 1_555 1_555
C12 C7 1_555 1_555
H10 C12 1_555 1_555
C13 N1 1_555 1_555
C14 C13 1_555 1_555
H11 C14 1_555 1_555
C15 C14 1_555 1_555
H12 C15 1_555 1_555
C16 C15 1_555 1_555
C17 C16 1_555 1_555
H13 C17 1_555 1_555
C18 C13 1_555 1_555
H14 C18 1_555 1_555
C19 C16 1_555 1_555
C20 C19 1_555 1_555
H15 C20 1_555 1_555
C21 C20 1_555 1_555
H16 C21 1_555 1_555
C22 C21 1_555 1_555
C23 C22 1_555 1_555
H17 C23 1_555 1_555
C24 C19 1_555 1_555
H18 C24 1_555 1_555
C25 C22 1_555 1_555
C26 C25 1_555 1_555
C27 C25 1_555 1_555
H19 C27 1_555 1_555
C28 C27 1_555 1_555
C29 C28 1_555 1_555
H20 C29 1_555 1_555
C30 C29 1_555 1_555
H21 C30 1_555 1_555
C31 C30 1_555 1_555
C32 C31 1_555 1_555
H22 C32 1_555 1_555
C33 C28 1_555 1_555
H23 C33 1_555 1_555
C34 C31 1_555 1_555
C5 C6 1_555 1_555
C11 C12 1_555 1_555
C17 C18 1_555 1_555
C23 C24 1_555 1_555
C32 C33 1_555 1_555

#END
