
#######################################################################
#
#                 Cambridge Crystallographic Data Centre
#                                CCDC 
#
#######################################################################
#
# If this CIF has been generated from an entry in the Cambridge 
# Structural Database, then it will include bibliographic, chemical, 
# crystal, experimental, refinement or atomic coordinate data resulting 
# from the CCDC's data processing and validation procedures.
#
#######################################################################

data_GAYNOM
_chemical_formula_moiety         'C10 H11 N2 1+,I1 1-'
_chemical_name_systematic        '3-methyl-1-phenyl-1H-imidazol-3-ium iodide'
_symmetry_cell_setting           monoclinic
_symmetry_space_group_name_H-M   'P 21/c'
_symmetry_Int_Tables_number      14
_space_group_name_Hall           '-P 2ybc'
loop_
_symmetry_equiv_pos_site_id
_symmetry_equiv_pos_as_xyz
1 x,y,z
2 -x,1/2+y,1/2-z
3 -x,-y,-z
4 x,1/2-y,1/2+z
_cell_length_a                   8.2438(12)
_cell_length_b                   31.628(4)
_cell_length_c                   17.204(2)
_cell_angle_alpha                90
_cell_angle_beta                 93.388(2)
_cell_angle_gamma                90
_cell_volume                     4477.84
_exptl_crystal_colour            colorless
_exptl_crystal_description       block
_cell_formula_units_Z            16
loop_
_atom_site_label
_atom_site_type_symbol
_atom_site_fract_x
_atom_site_fract_y
_atom_site_fract_z
C1 C 0.8465(17) 0.1702(5) 0.3983(10)
H1 H 0.8983 0.1472 0.4225
C2 C 0.7813(13) 0.2096(4) 0.2853(7)
H2 H 0.7894 0.2133 0.2321
C3 C 0.8556(14) 0.1768(4) 0.3217(9)
H3 H 0.9152 0.1581 0.2929
C4 C 0.6830(14) 0.2335(4) 0.4066(7)
H4 H 0.6289 0.2531 0.4359
C5 C 0.7592(18) 0.1982(5) 0.4403(8)
H5 H 0.7506 0.1933 0.4932
C6 C 0.6921(12) 0.2378(3) 0.3275(6)
N1 N 0.5132(11) 0.3121(3) 0.1939(7)
N2 N 0.6161(9) 0.2736(3) 0.2892(5)
C7 C 0.5772(12) 0.2756(3) 0.2121(6)
H6 H 0.5938 0.2539 0.1769
C8 C 0.4597(15) 0.3259(5) 0.1156(7)
H7 H 0.5163 0.3101 0.0780
H8 H 0.4825 0.3555 0.1100
H9 H 0.3449 0.3212 0.1072
C9 C 0.5130(15) 0.3353(4) 0.2610(9)
H10 H 0.4748 0.3628 0.2651
C10 C 0.5776(16) 0.3115(4) 0.3207(7)
H11 H 0.5926 0.3194 0.3726
C11 C 0.3386(15) 0.1701(5) 0.3147(9)
H12 H 0.3883 0.1480 0.2894
C12 C 0.2942(14) 0.2048(4) 0.2752(8)
H13 H 0.3147 0.2070 0.2228
N3 N 0.1029(9) 0.2678(2) 0.4271(5)
C13 C 0.1855(11) 0.2343(3) 0.3888(6)
C14 C 0.0845(13) 0.2714(4) 0.5027(6)
H14 H 0.1228 0.2522 0.5404
N4 N 0.0037(11) 0.3063(3) 0.5165(6)
C15 C 0.2305(14) 0.1982(4) 0.4315(8)
H15 H 0.2075 0.1953 0.4835
C16 C 0.0284(14) 0.3021(3) 0.3882(6)
H16 H 0.0207 0.3077 0.3350
C17 C 0.2162(12) 0.2384(3) 0.3123(7)
H17 H 0.1864 0.2628 0.2849
C18 C -0.0309(15) 0.3257(4) 0.4473(8)
H18 H -0.0864 0.3512 0.4408
C19 C 0.3115(15) 0.1665(4) 0.3925(10)
H19 H 0.3478 0.1426 0.4196
C20 C -0.0339(19) 0.3218(5) 0.5920(8)
H20 H -0.0303 0.2988 0.6285
H21 H -0.1407 0.3340 0.5889
H22 H 0.0441 0.3428 0.6089
I1 I 0.30015(9) 0.06165(2) 0.54005(4)
I2 I 0.77862(10) 0.06083(3) 0.95677(4)
C21 C 0.5364(11) -0.0159(3) 0.7222(6)
C22 C 0.6685(11) 0.0236(3) 0.6188(6)
H23 H 0.6446 0.0043 0.5789
N5 N 0.7459(9) 0.0584(3) 0.6113(5)
C23 C 0.6829(14) 0.0542(3) 0.7319(5)
H24 H 0.6732 0.0596 0.7846
C24 C 0.4726(13) -0.0457(3) 0.6725(7)
H25 H 0.4848 -0.0431 0.6194
N6 N 0.6272(9) 0.0192(2) 0.6921(5)
C25 C 0.7547(14) 0.0795(4) 0.6807(7)
H26 H 0.8007 0.1059 0.6907
C26 C 0.3697(14) -0.0832(4) 0.7780(9)
H27 H 0.3113 -0.1058 0.7966
C27 C 0.5195(14) -0.0186(4) 0.7997(6)
H28 H 0.5632 0.0022 0.8330
C28 C 0.4347(16) -0.0533(5) 0.8296(8)
H29 H 0.4229 -0.0560 0.8828
C29 C 0.3902(14) -0.0798(4) 0.7002(8)
H30 H 0.3488 -0.1005 0.6660
C30 C 0.8057(16) 0.0753(4) 0.5394(8)
H31 H 0.8382 0.0525 0.5071
H32 H 0.8972 0.0934 0.5516
H33 H 0.7210 0.0913 0.5122
C31 C 0.0014(16) -0.0338(5) 0.6536(9)
H34 H 0.0104 -0.0337 0.5999
N7 N 0.1330(10) 0.0312(3) 0.8219(6)
N8 N 0.2370(12) 0.0667(4) 0.9198(7)
C32 C 0.0593(11) -0.0024(3) 0.7760(6)
C33 C 0.0718(12) -0.0027(4) 0.6979(6)
H35 H 0.1291 0.0187 0.6745
C34 C 0.1664(16) 0.0715(4) 0.7953(11)
H36 H 0.1475 0.0817 0.7449
C35 C 0.1758(13) 0.0284(4) 0.8974(7)
H37 H 0.1657 0.0048 0.9289
C36 C -0.0942(15) -0.0663(4) 0.7686(9)
H38 H -0.1472 -0.0880 0.7933
C37 C -0.0226(14) -0.0334(3) 0.8121(8)
H39 H -0.0309 -0.0325 0.8658
C38 C 0.2312(17) 0.0930(4) 0.8569(10)
H40 H 0.2661 0.1209 0.8567
C39 C -0.0862(14) -0.0667(5) 0.6891(9)
H41 H -0.1369 -0.0879 0.6592
C40 C 0.292(2) 0.0758(5) 0.9999(9)
H42 H 0.2063 0.0897 1.0256
H43 H 0.3854 0.0938 1.0005
H44 H 0.3195 0.0499 1.0265
I3 I -0.01621(10) 0.18703(2) 0.65859(4)
I4 I 0.47878(10) 0.19019(3) 0.05835(5)
loop_
_geom_bond_atom_site_label_1
_geom_bond_atom_site_label_2
_geom_bond_site_symmetry_1
_geom_bond_site_symmetry_2
C1 H1 1_555 1_555
C2 H2 1_555 1_555
C3 C1 1_555 1_555
H3 C3 1_555 1_555
C4 H4 1_555 1_555
C5 C1 1_555 1_555
H5 C5 1_555 1_555
C6 C2 1_555 1_555
N1 C7 1_555 1_555
N2 C6 1_555 1_555
C7 N2 1_555 1_555
H6 C7 1_555 1_555
C8 N1 1_555 1_555
H7 C8 1_555 1_555
H8 C8 1_555 1_555
H9 C8 1_555 1_555
C9 N1 1_555 1_555
H10 C9 1_555 1_555
C10 N2 1_555 1_555
H11 C10 1_555 1_555
C11 H12 1_555 1_555
C12 C11 1_555 1_555
H13 C12 1_555 1_555
N3 C13 1_555 1_555
C13 C15 1_555 1_555
C14 N3 1_555 1_555
H14 C14 1_555 1_555
N4 C14 1_555 1_555
C15 H15 1_555 1_555
C16 N3 1_555 1_555
H16 C16 1_555 1_555
C17 C12 1_555 1_555
H17 C17 1_555 1_555
C18 N4 1_555 1_555
H18 C18 1_555 1_555
C19 C11 1_555 1_555
H19 C19 1_555 1_555
C20 N4 1_555 1_555
H20 C20 1_555 1_555
H21 C20 1_555 1_555
H22 C20 1_555 1_555
C21 C24 1_555 1_555
C22 H23 1_555 1_555
N5 C22 1_555 1_555
C23 H24 1_555 1_555
C24 H25 1_555 1_555
N6 C21 1_555 1_555
C25 N5 1_555 1_555
H26 C25 1_555 1_555
C26 H27 1_555 1_555
C27 C21 1_555 1_555
H28 C27 1_555 1_555
C28 C26 1_555 1_555
H29 C28 1_555 1_555
C29 C24 1_555 1_555
H30 C29 1_555 1_555
C30 N5 1_555 1_555
H31 C30 1_555 1_555
H32 C30 1_555 1_555
H33 C30 1_555 1_555
C31 H34 1_555 1_555
N7 C32 1_555 1_555
N8 C35 1_555 1_555
C32 C33 1_555 1_555
C33 C31 1_555 1_555
H35 C33 1_555 1_555
C34 N7 1_555 1_555
H36 C34 1_555 1_555
C35 N7 1_555 1_555
H37 C35 1_555 1_555
C36 H38 1_555 1_555
C37 C32 1_555 1_555
H39 C37 1_555 1_555
C38 N8 1_555 1_555
H40 C38 1_555 1_555
C39 C31 1_555 1_555
H41 C39 1_555 1_555
C40 N8 1_555 1_555
H42 C40 1_555 1_555
H43 C40 1_555 1_555
H44 C40 1_555 1_555
C2 C3 1_555 1_555
C4 C5 1_555 1_555
C4 C6 1_555 1_555
C9 C10 1_555 1_555
C13 C17 1_555 1_555
C15 C19 1_555 1_555
C16 C18 1_555 1_555
C22 N6 1_555 1_555
C23 N6 1_555 1_555
C23 C25 1_555 1_555
C26 C29 1_555 1_555
C27 C28 1_555 1_555
C34 C38 1_555 1_555
C36 C37 1_555 1_555
C36 C39 1_555 1_555

#END
