
#######################################################################
#
#                 Cambridge Crystallographic Data Centre
#                                CCDC 
#
#######################################################################
#
# If this CIF has been generated from an entry in the Cambridge 
# Structural Database, then it will include bibliographic, chemical, 
# crystal, experimental, refinement or atomic coordinate data resulting 
# from the CCDC's data processing and validation procedures.
#
#######################################################################

data_GAYPAA
_chemical_formula_moiety         'C15 H17 N3 O2 S1'
_chemical_name_systematic        
N-{[4-methoxy-5-(methylsulfanyl)[2,2'-bipyridin]-6-yl]methyl}acetamide
_symmetry_cell_setting           monoclinic
_symmetry_space_group_name_H-M   'P 21/n'
_symmetry_Int_Tables_number      14
_space_group_name_Hall           '-P 2yn'
loop_
_symmetry_equiv_pos_site_id
_symmetry_equiv_pos_as_xyz
1 x,y,z
2 1/2-x,1/2+y,1/2-z
3 -x,-y,-z
4 1/2+x,1/2-y,1/2+z
_cell_length_a                   11.2581(2)
_cell_length_b                   28.6822(10)
_cell_length_c                   19.2173(5)
_cell_angle_alpha                90
_cell_angle_beta                 103.658(2)
_cell_angle_gamma                90
_cell_volume                     6029.93
_exptl_crystal_colour            colorless
_exptl_crystal_description       Block
_cell_formula_units_Z            16
loop_
_atom_site_label
_atom_site_type_symbol
_atom_site_fract_x
_atom_site_fract_y
_atom_site_fract_z
S1 S 0.39462(5) 0.70954(2) 0.82067(3)
O1 O 0.21226(14) 0.71459(7) 0.90787(8)
N1 N 0.19341(15) 0.65614(7) 0.60377(9)
H1 H 0.1233 0.6438 0.6026
N2 N 0.06277(14) 0.67891(7) 0.69729(9)
N3 N -0.21500(16) 0.68404(8) 0.75873(10)
C1 C 0.18282(17) 0.68515(8) 0.72231(11)
C2 C -0.00985(18) 0.68556(8) 0.74280(11)
C3 C 0.23613(17) 0.69824(8) 0.79244(11)
C4 C -0.14355(18) 0.67932(8) 0.71259(12)
O2 O 0.33454(18) 0.67287(10) 0.54442(11)
C5 C 0.15879(19) 0.70377(8) 0.83931(11)
C6 C 0.03407(18) 0.69774(9) 0.81344(11)
H2 H -0.0191 0.7019 0.8433
C7 C 0.26143(18) 0.67683(9) 0.66960(11)
H3 H 0.2956 0.7063 0.6589
H4 H 0.3287 0.6564 0.6913
C8 C -0.1895(2) 0.66969(10) 0.64092(13)
H5 H -0.1372 0.6656 0.6105
C9 C 0.2358(2) 0.65558(10) 0.54514(13)
C10 C 0.4436(2) 0.66196(10) 0.88176(13)
H6 H 0.4407 0.6334 0.8553
H7 H 0.3905 0.6596 0.9140
H8 H 0.5258 0.6675 0.9086
C11 C -0.3351(2) 0.68038(10) 0.73203(15)
H9 H -0.3858 0.6837 0.7635
C12 C -0.3890(2) 0.67209(11) 0.66160(16)
H10 H -0.4736 0.6704 0.6457
C13 C -0.3145(2) 0.66628(12) 0.61523(14)
H11 H -0.3478 0.6601 0.5671
C14 C 0.1578(2) 0.63229(13) 0.48064(13)
H12 H 0.0918 0.6162 0.4940
H13 H 0.2063 0.6104 0.4615
H14 H 0.1253 0.6554 0.4450
C15 C 0.1367(3) 0.71489(14) 0.95816(13)
H15 H 0.0796 0.7403 0.9474
H16 H 0.1869 0.7187 1.0057
H17 H 0.0928 0.6860 0.9551
S2 S -0.07940(5) 0.41998(3) 0.14042(3)
O3 O 0.10582(14) 0.41485(7) 0.05636(8)
N4 N 0.25207(15) 0.44265(7) 0.27011(9)
N5 N 0.11957(15) 0.46090(7) 0.36466(9)
H18 H 0.1831 0.4779 0.3663
N6 N 0.53423(16) 0.44075(8) 0.21363(10)
O4 O -0.00091(19) 0.42717(9) 0.42696(10)
C16 C 0.32588(18) 0.43775(8) 0.22521(11)
C17 C 0.13193(18) 0.43764(8) 0.24373(11)
C18 C 0.45941(18) 0.44268(8) 0.25799(11)
C19 C 0.15865(19) 0.42377(9) 0.12595(11)
C20 C 0.07997(18) 0.42786(8) 0.17206(11)
C21 C 0.28316(19) 0.42889(9) 0.15302(11)
H19 H 0.3370 0.4264 0.1232
C22 C 0.05217(19) 0.44380(9) 0.29609(11)
H20 H -0.0131 0.4655 0.2762
H21 H 0.0151 0.4141 0.3028
C23 C 0.0877(2) 0.45153(10) 0.42500(12)
C24 C 0.5016(2) 0.44872(10) 0.33081(12)
H22 H 0.4471 0.4504 0.3604
C25 C 0.7036(2) 0.44981(10) 0.31439(15)
H23 H 0.7878 0.4518 0.3321
C26 C 0.6539(2) 0.44426(10) 0.24284(15)
H24 H 0.7070 0.4428 0.2124
C27 C 0.6258(2) 0.45230(11) 0.35924(14)
H25 H 0.6563 0.4564 0.4082
C28 C 0.1817(2) 0.41696(12) 0.00624(13)
H26 H 0.1333 0.4108 -0.0411
H27 H 0.2454 0.3941 0.0187
H28 H 0.2174 0.4474 0.0075
C29 C 0.1652(2) 0.47321(12) 0.49146(12)
H29 H 0.2336 0.4888 0.4800
H30 H 0.1941 0.4494 0.5264
H31 H 0.1173 0.4954 0.5105
C30 C -0.1191(3) 0.47248(11) 0.08878(15)
H32 H -0.0664 0.4760 0.0565
H33 H -0.1095 0.4988 0.1204
H34 H -0.2025 0.4706 0.0620
S3 S 0.53571(5) 0.68501(3) 0.08112(3)
O5 O 0.71982(15) 0.70034(8) -0.00293(8)
O6 O 0.59919(16) 0.65779(8) 0.36393(9)
N7 N 0.86723(15) 0.69216(7) 0.21463(9)
N8 N 0.74350(16) 0.68218(7) 0.31135(10)
H35 H 0.8188 0.6903 0.3176
N9 N 1.14898(18) 0.70346(9) 0.15872(12)
C31 C 0.74697(18) 0.68968(8) 0.18675(11)
C32 C 0.69455(18) 0.69208(8) 0.11386(11)
C33 C 0.94091(18) 0.69792(8) 0.16944(12)
C34 C 0.66801(18) 0.68446(8) 0.23991(11)
H36 H 0.6127 0.7108 0.2358
H37 H 0.6194 0.6563 0.2295
C35 C 0.7057(2) 0.66856(8) 0.36812(12)
C36 C 1.07480(19) 0.69841(9) 0.20337(13)
C37 C 0.7729(2) 0.69844(9) 0.06775(12)
C38 C 0.8980(2) 0.70175(9) 0.09663(12)
H38 H 0.9516 0.7065 0.0672
C39 C 1.1182(2) 0.69304(11) 0.27609(14)
H39 H 1.0641 0.6904 0.3057
C40 C 0.7997(2) 0.66745(12) 0.43773(13)
H40 H 0.7686 0.6832 0.4738
H41 H 0.8727 0.6827 0.4321
H42 H 0.8180 0.6357 0.4519
C41 C 1.2429(2) 0.69163(11) 0.30481(16)
H43 H 1.2739 0.6875 0.3537
C42 C 0.4918(2) 0.74076(11) 0.03978(16)
H44 H 0.5369 0.7466 0.0040
H45 H 0.5094 0.7648 0.0755
H46 H 0.4059 0.7406 0.0178
C43 C 1.3197(2) 0.69649(11) 0.25975(18)
H47 H 1.4041 0.6957 0.2772
C44 C 1.2692(2) 0.70247(11) 0.18841(18)
H48 H 1.3221 0.7061 0.1583
C45 C 0.7956(3) 0.70913(14) -0.05177(14)
H49 H 0.7457 0.7110 -0.0996
H50 H 0.8535 0.6842 -0.0489
H51 H 0.8385 0.7380 -0.0395
S4 S 0.23026(5) 0.55024(3) 0.11209(3)
O7 O 0.41522(14) 0.55366(7) 0.02735(8)
N10 N 0.56247(15) 0.56407(7) 0.24485(9)
N11 N 0.43093(16) 0.57602(8) 0.34121(9)
H52 H 0.4925 0.5944 0.3451
N12 N 0.84348(17) 0.57289(8) 0.18783(11)
O8 O 0.3154(2) 0.53597(9) 0.39970(10)
C46 C 0.76972(19) 0.56688(8) 0.23252(12)
C47 C 0.63610(18) 0.56356(8) 0.19930(11)
C48 C 0.44185(18) 0.56132(8) 0.21762(11)
C49 C 0.38952(18) 0.55715(8) 0.14462(11)
C50 C 0.4683(2) 0.55725(8) 0.09812(11)
C51 C 0.59310(19) 0.56078(8) 0.12606(11)
H53 H 0.6469 0.5613 0.0960
C52 C 0.36199(19) 0.56396(9) 0.27051(11)
H54 H 0.2986 0.5871 0.2544
H55 H 0.3225 0.5341 0.2722
C53 C 0.4048(2) 0.56039(10) 0.40048(13)
C54 C 0.8134(2) 0.56354(9) 0.30574(13)
H56 H 0.7598 0.5595 0.3354
C55 C 1.0139(2) 0.57266(10) 0.28898(16)
H57 H 1.0980 0.5748 0.3066
C56 C 0.9380(2) 0.56631(10) 0.33455(15)
H58 H 0.9696 0.5639 0.3837
C57 C 0.4916(2) 0.55947(11) -0.02183(13)
H59 H 0.4429 0.5572 -0.0700
H60 H 0.5531 0.5356 -0.0137
H61 H 0.5301 0.5895 -0.0148
C58 C 0.9631(2) 0.57575(11) 0.21740(15)
H62 H 1.0154 0.5801 0.1870
C59 C 0.1905(3) 0.60323(11) 0.06185(16)
H63 H 0.2427 0.6071 0.0293
H64 H 0.2007 0.6293 0.0941
H65 H 0.1069 0.6016 0.0353
C60 C 0.4898(3) 0.57475(13) 0.46950(13)
H66 H 0.5570 0.5920 0.4595
H67 H 0.5202 0.5475 0.4970
H68 H 0.4466 0.5940 0.4962
C61? C -0.0299(3) 0.80293(14) 0.9533(2)
loop_
_geom_bond_atom_site_label_1
_geom_bond_atom_site_label_2
_geom_bond_site_symmetry_1
_geom_bond_site_symmetry_2
S1 C3 1_555 1_555
O1 C5 1_555 1_555
N1 H1 1_555 1_555
N2 C1 1_555 1_555
N3 C4 1_555 1_555
C1 C3 1_555 1_555
C2 N2 1_555 1_555
C3 C5 1_555 1_555
C4 C2 1_555 1_555
O2 C9 1_555 1_555
C5 C6 1_555 1_555
C6 C2 1_555 1_555
H2 C6 1_555 1_555
C7 N1 1_555 1_555
H3 C7 1_555 1_555
H4 C7 1_555 1_555
C8 C4 1_555 1_555
H5 C8 1_555 1_555
C9 N1 1_555 1_555
C10 S1 1_555 1_555
H6 C10 1_555 1_555
H7 C10 1_555 1_555
H8 C10 1_555 1_555
C11 N3 1_555 1_555
H9 C11 1_555 1_555
C12 C11 1_555 1_555
H10 C12 1_555 1_555
C13 C8 1_555 1_555
H11 C13 1_555 1_555
C14 C9 1_555 1_555
H12 C14 1_555 1_555
H13 C14 1_555 1_555
H14 C14 1_555 1_555
C15 O1 1_555 1_555
H15 C15 1_555 1_555
H16 C15 1_555 1_555
H17 C15 1_555 1_555
S2 C20 1_555 1_555
O3 C19 1_555 1_555
N4 C16 1_555 1_555
N5 H18 1_555 1_555
N6 C18 1_555 1_555
O4 C23 1_555 1_555
C16 C18 1_555 1_555
C17 N4 1_555 1_555
C18 C24 1_555 1_555
C19 C20 1_555 1_555
C20 C17 1_555 1_555
C21 C16 1_555 1_555
H19 C21 1_555 1_555
C22 N5 1_555 1_555
H20 C22 1_555 1_555
H21 C22 1_555 1_555
C23 N5 1_555 1_555
C24 H22 1_555 1_555
C25 H23 1_555 1_555
C26 N6 1_555 1_555
H24 C26 1_555 1_555
C27 C24 1_555 1_555
H25 C27 1_555 1_555
C28 O3 1_555 1_555
H26 C28 1_555 1_555
H27 C28 1_555 1_555
H28 C28 1_555 1_555
C29 C23 1_555 1_555
H29 C29 1_555 1_555
H30 C29 1_555 1_555
H31 C29 1_555 1_555
C30 S2 1_555 1_555
H32 C30 1_555 1_555
H33 C30 1_555 1_555
H34 C30 1_555 1_555
S3 C32 1_555 1_555
O5 C37 1_555 1_555
O6 C35 1_555 1_555
N7 C31 1_555 1_555
N8 H35 1_555 1_555
N9 C36 1_555 1_555
C31 C32 1_555 1_555
C32 C37 1_555 1_555
C33 N7 1_555 1_555
C34 N8 1_555 1_555
H36 C34 1_555 1_555
H37 C34 1_555 1_555
C35 N8 1_555 1_555
C36 C33 1_555 1_555
C37 C38 1_555 1_555
C38 C33 1_555 1_555
H38 C38 1_555 1_555
C39 C36 1_555 1_555
H39 C39 1_555 1_555
C40 C35 1_555 1_555
H40 C40 1_555 1_555
H41 C40 1_555 1_555
H42 C40 1_555 1_555
C41 C39 1_555 1_555
H43 C41 1_555 1_555
C42 S3 1_555 1_555
H44 C42 1_555 1_555
H45 C42 1_555 1_555
H46 C42 1_555 1_555
C43 C41 1_555 1_555
H47 C43 1_555 1_555
C44 N9 1_555 1_555
H48 C44 1_555 1_555
C45 O5 1_555 1_555
H49 C45 1_555 1_555
H50 C45 1_555 1_555
H51 C45 1_555 1_555
S4 C49 1_555 1_555
O7 C50 1_555 1_555
N10 C47 1_555 1_555
N11 H52 1_555 1_555
N12 C46 1_555 1_555
O8 C53 1_555 1_555
C46 C47 1_555 1_555
C47 C51 1_555 1_555
C48 N10 1_555 1_555
C49 C48 1_555 1_555
C50 C49 1_555 1_555
C51 C50 1_555 1_555
H53 C51 1_555 1_555
C52 N11 1_555 1_555
H54 C52 1_555 1_555
H55 C52 1_555 1_555
C53 N11 1_555 1_555
C54 C46 1_555 1_555
H56 C54 1_555 1_555
C55 H57 1_555 1_555
C56 C54 1_555 1_555
H58 C56 1_555 1_555
C57 O7 1_555 1_555
H59 C57 1_555 1_555
H60 C57 1_555 1_555
H61 C57 1_555 1_555
C58 N12 1_555 1_555
H62 C58 1_555 1_555
C59 S4 1_555 1_555
H63 C59 1_555 1_555
H64 C59 1_555 1_555
H65 C59 1_555 1_555
C60 C53 1_555 1_555
H66 C60 1_555 1_555
H67 C60 1_555 1_555
H68 C60 1_555 1_555
C1 C7 1_555 1_555
C12 C13 1_555 1_555
C17 C22 1_555 1_555
C19 C21 1_555 1_555
C25 C26 1_555 1_555
C25 C27 1_555 1_555
C31 C34 1_555 1_555
C43 C44 1_555 1_555
C48 C52 1_555 1_555
C55 C56 1_555 1_555
C55 C58 1_555 1_555

#END
