
#######################################################################
#
#                 Cambridge Crystallographic Data Centre
#                                CCDC 
#
#######################################################################
#
# If this CIF has been generated from an entry in the Cambridge 
# Structural Database, then it will include bibliographic, chemical, 
# crystal, experimental, refinement or atomic coordinate data resulting 
# from the CCDC's data processing and validation procedures.
#
#######################################################################

data_GAYZIS
_chemical_formula_moiety         'C22 H14 O6 S6,0.25(H2 O1)'
_chemical_name_systematic        
"4,4'-{[2-(5,6-dihydro-2H-[1,3]dithiolo[4,5-b][1,4]dioxin-2-ylidene)-2H-1,3-dithiole-4,5-diyl]disulfanediyl}dibenzoic acid hydrate"
_symmetry_cell_setting           triclinic
_symmetry_space_group_name_H-M   'P -1'
_symmetry_Int_Tables_number      2
_space_group_name_Hall           '-P 1'
loop_
_symmetry_equiv_pos_site_id
_symmetry_equiv_pos_as_xyz
1 x,y,z
2 -x,-y,-z
_cell_length_a                   7.6995(6)
_cell_length_b                   9.2634(8)
_cell_length_c                   17.9198(14)
_cell_angle_alpha                90.970(4)
_cell_angle_beta                 92.039(4)
_cell_angle_gamma                110.902(4)
_cell_volume                     1192.64
_exptl_crystal_colour            colorless
_exptl_crystal_description       block
_cell_formula_units_Z            2
loop_
_atom_site_label
_atom_site_type_symbol
_atom_site_fract_x
_atom_site_fract_y
_atom_site_fract_z
S1 S 0.11044(11) 0.09238(9) 0.66738(4)
S2 S -0.09625(9) 0.29064(8) 0.61324(4)
S3 S 0.32187(10) 0.13385(8) 0.51255(4)
S4 S 0.12080(9) 0.32989(8) 0.45679(4)
S5 S 0.66618(9) 0.29700(9) 0.42971(4)
S6 S 0.42943(10) 0.51964(8) 0.36264(4)
O1 O -0.1244(3) 0.3703(2) 0.75549(11)
O2 O 0.0741(3) 0.1748(3) 0.80773(11)
O3 O 0.4480(5) 0.2974(3) 0.00584(14)
O4 O 0.2328(5) 0.0854(3) 0.04444(14)
H1 H 0.222(7) 0.048(5) -0.0006(14)
O5 O 0.7607(4) 0.0500(3) 0.08500(12)
O6 O 0.5255(4) -0.1560(3) 0.11897(12)
H2 H 0.539(5) -0.200(4) 0.0790(14)
C1 C -0.0452(6) 0.3816(4) 0.83013(18)
H3 H -0.1185 0.4167 0.8640
H4 H 0.0800 0.4579 0.8322
C2 C -0.0387(6) 0.2316(4) 0.85521(18)
H5 H 0.0124 0.2441 0.9062
H6 H -0.1642 0.1559 0.8547
C3 C 0.0365(4) 0.1960(3) 0.73426(15)
C4 C -0.0543(4) 0.2847(3) 0.71027(14)
C5 C 0.0641(3) 0.1999(3) 0.59408(14)
C6 C 0.1508(3) 0.2153(3) 0.52984(14)
C7 C 0.4361(3) 0.2753(3) 0.44870(13)
C8 C 0.3442(3) 0.3653(3) 0.42336(13)
C9 C 0.3906(3) 0.4271(3) 0.27335(13)
C10 C 0.4906(4) 0.5139(3) 0.21609(15)
H7 H 0.5698 0.6155 0.2256
C11 C 0.4719(5) 0.4482(3) 0.14444(16)
H8 H 0.5394 0.5058 0.1062
C12 C 0.3526(4) 0.2970(3) 0.13006(15)
C13 C 0.2478(4) 0.2132(3) 0.18680(15)
H9 H 0.1639 0.1134 0.1767
C14 C 0.2677(4) 0.2776(3) 0.25845(14)
H10 H 0.1986 0.2204 0.2965
C15 C 0.3430(5) 0.2226(4) 0.05515(16)
C16 C 0.6443(3) 0.2013(3) 0.34120(13)
C17 C 0.7745(4) 0.2746(3) 0.28949(15)
H11 H 0.8628 0.3721 0.3008
C18 C 0.7729(4) 0.2022(3) 0.22095(16)
H12 H 0.8597 0.2515 0.1862
C19 C 0.6421(4) 0.0565(3) 0.20418(14)
C20 C 0.5125(4) -0.0176(3) 0.25668(15)
H13 H 0.4252 -0.1158 0.2458
C21 C 0.5142(3) 0.0553(3) 0.32484(14)
H14 H 0.4278 0.0061 0.3598
C22 C 0.6426(4) -0.0211(3) 0.13115(15)
O7 O -0.114(3) 0.387(2) 1.0200(8)
H15 H -0.1141 0.2992 1.0328
H16 H -0.2242 0.3865 1.0236
loop_
_geom_bond_atom_site_label_1
_geom_bond_atom_site_label_2
_geom_bond_site_symmetry_1
_geom_bond_site_symmetry_2
S1 C3 1_555 1_555
S2 C4 1_555 1_555
S3 C6 1_555 1_555
S4 C6 1_555 1_555
S5 C7 1_555 1_555
S6 C8 1_555 1_555
O1 C1 1_555 1_555
O2 C2 1_555 1_555
O3 C15 1_555 1_555
O4 H1 1_555 1_555
O5 C22 1_555 1_555
O6 H2 1_555 1_555
C1 H3 1_555 1_555
H4 C1 1_555 1_555
C2 C1 1_555 1_555
H5 C2 1_555 1_555
H6 C2 1_555 1_555
C3 O2 1_555 1_555
C4 O1 1_555 1_555
C5 S1 1_555 1_555
C6 C5 1_555 1_555
C7 S3 1_555 1_555
C8 S4 1_555 1_555
C9 S6 1_555 1_555
C10 C9 1_555 1_555
H7 C10 1_555 1_555
C11 C10 1_555 1_555
H8 C11 1_555 1_555
C12 C11 1_555 1_555
C13 C12 1_555 1_555
H9 C13 1_555 1_555
C14 C9 1_555 1_555
H10 C14 1_555 1_555
C15 O4 1_555 1_555
C16 S5 1_555 1_555
C17 C16 1_555 1_555
H11 C17 1_555 1_555
C18 C17 1_555 1_555
H12 C18 1_555 1_555
C19 C18 1_555 1_555
C20 C19 1_555 1_555
H13 C20 1_555 1_555
C21 C16 1_555 1_555
H14 C21 1_555 1_555
C22 O6 1_555 1_555
O7 H15 1_555 1_555
H16 O7 1_555 1_555
S2 C5 1_555 1_555
C3 C4 1_555 1_555
C7 C8 1_555 1_555
C12 C15 1_555 1_555
C13 C14 1_555 1_555
C19 C22 1_555 1_555
C20 C21 1_555 1_555

#END
