
#######################################################################
#
#                 Cambridge Crystallographic Data Centre
#                                CCDC 
#
#######################################################################
#
# If this CIF has been generated from an entry in the Cambridge 
# Structural Database, then it will include bibliographic, chemical, 
# crystal, experimental, refinement or atomic coordinate data resulting 
# from the CCDC's data processing and validation procedures.
#
#######################################################################

data_GAZQEF
_chemical_formula_moiety         'C30 H32 N8 O8,C2 H6 O1,2(H2 O1)'
_chemical_name_systematic        
'8,8,25,25-Tetramethyl-7,9,24,26-tetraoxa-3,4,12,13,20,21,29,30-octaazapentacyclo[30.2.2.2^15,18^.0^6,10^.0^23,27^]octatriaconta-1(34),2,13,15,17,19,30,32,35,37-decaene-5,11,22,28-tetrone ethanol solvate dihydrate'
_symmetry_cell_setting           orthorhombic
_symmetry_space_group_name_H-M   'P 21 21 21'
_symmetry_Int_Tables_number      19
_space_group_name_Hall           'P 2ac 2ab'
loop_
_symmetry_equiv_pos_site_id
_symmetry_equiv_pos_as_xyz
1 x,y,z
2 1/2-x,-y,1/2+z
3 -x,1/2+y,1/2-z
4 1/2+x,1/2-y,-z
_cell_length_a                   9.7959(1)
_cell_length_b                   13.7201(2)
_cell_length_c                   25.5084(3)
_cell_angle_alpha                90
_cell_angle_beta                 90
_cell_angle_gamma                90
_cell_volume                     3428.35
_exptl_crystal_colour            colorless
_exptl_crystal_description       needle
_cell_formula_units_Z            4
loop_
_atom_site_label
_atom_site_type_symbol
_atom_site_fract_x
_atom_site_fract_y
_atom_site_fract_z
C1 C 0.1449(3) -0.1493(2) 0.52845(13)
H1 H 0.1220 -0.0928 0.5502
C2 C 0.2751(3) -0.1262(2) 0.49611(12)
H2 H 0.3390 -0.1811 0.4961
O1 O 0.0416(3) -0.1631(2) 0.49086(11)
O2 O 0.2232(3) -0.10743(17) 0.44518(9)
C3 C 0.1033(5) -0.1650(3) 0.43948(15)
C4 C 0.0064(6) -0.1126(4) 0.4029(2)
H3 H -0.0115 -0.0483 0.4161
H4 H -0.0777 -0.1483 0.4006
H5 H 0.0469 -0.1079 0.3687
C5 C 0.1401(7) -0.2673(3) 0.42350(17)
H6 H 0.0603 -0.3078 0.4230
H7 H 0.2037 -0.2942 0.4482
H8 H 0.1806 -0.2653 0.3892
C6 C 0.3447(3) -0.0315(2) 0.51327(11)
O3 O 0.2808(2) 0.03814(15) 0.53033(9)
N1 N 0.4802(3) -0.03447(17) 0.50707(10)
H9 H 0.5282 -0.0859 0.4929
N2 N 0.5570(3) 0.04538(18) 0.52220(10)
C7 C 0.6860(3) 0.0360(2) 0.51723(13)
H10 H 0.7220 -0.0201 0.5021
C8 C 0.7777(3) 0.1136(2) 0.53526(13)
C9 C 0.9184(3) 0.0988(2) 0.53423(13)
H11 H 0.9538 0.0413 0.5205
C10 C 1.0057(3) 0.1696(2) 0.55367(13)
H12 H 1.0995 0.1588 0.5532
C11 C 0.9551(3) 0.2567(2) 0.57389(13)
C12 C 0.8124(3) 0.2727(2) 0.57374(13)
H13 H 0.7771 0.3311 0.5863
C13 C 0.7264(3) 0.2023(2) 0.55512(14)
H14 H 0.6327 0.2131 0.5555
C14 C 1.0501(3) 0.3288(2) 0.59483(12)
H15 H 1.1435 0.3196 0.5905
N3 N 1.0072(3) 0.40450(18) 0.61908(10)
N4 N 1.1068(3) 0.46829(18) 0.63624(10)
H16 H 1.1934 0.4561 0.6330
C15 C 1.0697(3) 0.5504(2) 0.66073(12)
O4 O 1.1552(2) 0.61023(16) 0.67568(9)
C16 C 0.9176(4) 0.5660(2) 0.66968(13)
H17 H 0.8677 0.5604 0.6365
C17 C 0.8583(4) 0.4952(3) 0.71064(13)
H18 H 0.9299 0.4621 0.7307
O5 O 0.8944(3) 0.66021(18) 0.69294(10)
O6 O 0.7751(5) 0.5608(3) 0.74370(19)
C18 C 0.8268(4) 0.6509(3) 0.74146(15)
C19 C 0.7189(7) 0.7288(4) 0.7486(3)
H19 H 0.6617 0.7126 0.7779
H20 H 0.6626 0.7326 0.7178
H21 H 0.7625 0.7904 0.7546
C20 C 0.9387(8) 0.6643(5) 0.7842(2)
H22 H 0.9036 0.6458 0.8179
H23 H 0.9665 0.7313 0.7858
H24 H 1.0152 0.6239 0.7751
C21 C 0.7530(3) 0.4239(2) 0.68889(13)
O7 O 0.6682(2) 0.44768(15) 0.65605(9)
N5 N 0.7643(3) 0.33529(19) 0.71193(11)
H25 H 0.8190 0.3293 0.7434
N6 N 0.6738(3) 0.2645(2) 0.69674(11)
C22 C 0.6861(4) 0.1821(2) 0.72173(14)
H26 H 0.7496 0.1757 0.7486
C23 C 0.5996(4) 0.0999(2) 0.70719(13)
C24 C 0.5964(4) 0.0169(2) 0.73852(13)
H27 H 0.6477 0.0147 0.7692
C25 C 0.5178(4) -0.0620(2) 0.72435(13)
H28 H 0.5150 -0.1169 0.7457
C26 C 0.4419(3) -0.0597(2) 0.67771(12)
C27 C 0.4441(4) 0.0239(2) 0.64698(13)
H29 H 0.3922 0.0265 0.6165
C28 C 0.5217(4) 0.1026(2) 0.66115(13)
H30 H 0.5228 0.1580 0.6401
C29 C 0.3622(3) -0.1451(2) 0.66225(12)
H31 H 0.3574 -0.1986 0.6845
N7 N 0.2989(3) -0.14695(17) 0.61820(10)
N8 N 0.2288(3) -0.23138(18) 0.60742(10)
H32 H 0.2183 -0.2833 0.6314
C30 C 0.1556(3) -0.2398(2) 0.56331(12)
O8 O 0.0977(3) -0.31701(16) 0.55302(9)
O9 O 0.3676(2) 0.22864(15) 0.56314(9)
H33 H 0.3716 0.2597 0.5308
H34 H 0.3675 0.1646 0.5555
O10 O 0.3841(2) 0.38266(17) 0.63714(10)
H35 H 0.3825 0.3407 0.6089
H36 H 0.4697 0.3960 0.6440
O11 O 1.0433(3) 0.8323(2) 0.69981(11)
H37 H 1.0081 0.7729 0.7004
C31 C 0.9978(6) 0.9075(4) 0.6630(2)
H38 H 0.9927 0.8799 0.6284
H39 H 1.0655 0.9581 0.6623
C32 C 0.8707(7) 0.9500(6) 0.6758(3)
H40 H 0.8005 0.9013 0.6741
H41 H 0.8511 1.0017 0.6517
H42 H 0.8746 0.9773 0.7104
C33? C 0.6762(13) 0.6647(9) 0.7211(7)
C34? C 0.8549(15) 0.7139(13) 0.7847(7)
C35? C 0.8754(18) 0.8920(17) 0.6348(7)
H43? H 0.9910 0.9675 0.6821
H44? H 1.0690 0.9158 0.6375
H45? H 0.6144 0.6558 0.7499
H46? H 0.6639 0.7286 0.7065
H47? H 0.6558 0.6165 0.6950
H48? H 0.8188 0.7783 0.7798
H49? H 0.9520 0.7192 0.7890
H50? H 0.8158 0.6855 0.8157
H51? H 0.8390 0.8288 0.6430
H52? H 0.8935 0.8944 0.5979
H53? H 0.8104 0.9414 0.6441
O12? O 0.8312(11) 0.5388(8) 0.7554(4)
loop_
_geom_bond_atom_site_label_1
_geom_bond_atom_site_label_2
_geom_bond_site_symmetry_1
_geom_bond_site_symmetry_2
C1 H1 1_555 1_555
C2 C1 1_555 1_555
H2 C2 1_555 1_555
O1 C1 1_555 1_555
O2 C2 1_555 1_555
C3 O1 1_555 1_555
C4 C3 1_555 1_555
H3 C4 1_555 1_555
H4 C4 1_555 1_555
H5 C4 1_555 1_555
C5 C3 1_555 1_555
H6 C5 1_555 1_555
H7 C5 1_555 1_555
H8 C5 1_555 1_555
C6 C2 1_555 1_555
O3 C6 1_555 1_555
N1 C6 1_555 1_555
H9 N1 1_555 1_555
N2 N1 1_555 1_555
C7 N2 1_555 1_555
H10 C7 1_555 1_555
C8 C7 1_555 1_555
C9 C8 1_555 1_555
H11 C9 1_555 1_555
C10 C9 1_555 1_555
H12 C10 1_555 1_555
C11 C10 1_555 1_555
C12 C11 1_555 1_555
H13 C12 1_555 1_555
C13 C8 1_555 1_555
H14 C13 1_555 1_555
C14 C11 1_555 1_555
H15 C14 1_555 1_555
N3 C14 1_555 1_555
N4 N3 1_555 1_555
H16 N4 1_555 1_555
C15 N4 1_555 1_555
O4 C15 1_555 1_555
C16 C15 1_555 1_555
H17 C16 1_555 1_555
C17 C16 1_555 1_555
H18 C17 1_555 1_555
O5 C16 1_555 1_555
O6 C17 1_555 1_555
C18 O5 1_555 1_555
C19 C18 1_555 1_555
H19 C19 1_555 1_555
H20 C19 1_555 1_555
H21 C19 1_555 1_555
C20 C18 1_555 1_555
H22 C20 1_555 1_555
H23 C20 1_555 1_555
H24 C20 1_555 1_555
C21 C17 1_555 1_555
O7 C21 1_555 1_555
N5 C21 1_555 1_555
H25 N5 1_555 1_555
N6 N5 1_555 1_555
C22 N6 1_555 1_555
H26 C22 1_555 1_555
C23 C22 1_555 1_555
C24 C23 1_555 1_555
H27 C24 1_555 1_555
C25 C24 1_555 1_555
H28 C25 1_555 1_555
C26 C25 1_555 1_555
C27 C26 1_555 1_555
H29 C27 1_555 1_555
C28 C23 1_555 1_555
H30 C28 1_555 1_555
C29 C26 1_555 1_555
H31 C29 1_555 1_555
N7 C29 1_555 1_555
N8 N7 1_555 1_555
H32 N8 1_555 1_555
C30 C1 1_555 1_555
O8 C30 1_555 1_555
O9 H33 1_555 1_555
H34 O9 1_555 1_555
O10 H35 1_555 1_555
H36 O10 1_555 1_555
O11 H37 1_555 1_555
C31 O11 1_555 1_555
H38 C31 1_555 1_555
H39 C31 1_555 1_555
C32 C31 1_555 1_555
H40 C32 1_555 1_555
H41 C32 1_555 1_555
H42 C32 1_555 1_555
O2 C3 1_555 1_555
C12 C13 1_555 1_555
O6 C18 1_555 1_555
C27 C28 1_555 1_555
N8 C30 1_555 1_555

#END
