
#######################################################################
#
#                 Cambridge Crystallographic Data Centre
#                                CCDC 
#
#######################################################################
#
# If this CIF has been generated from an entry in the Cambridge 
# Structural Database, then it will include bibliographic, chemical, 
# crystal, experimental, refinement or atomic coordinate data resulting 
# from the CCDC's data processing and validation procedures.
#
#######################################################################

data_GAZRAC
_chemical_formula_moiety         'C22 H16 N2 O1 S1'
_chemical_name_systematic        
2-Amino-5,6-diphenyl-4-(2-thienyl)-4H-pyran-3-carbonitrile
_symmetry_cell_setting           monoclinic
_symmetry_space_group_name_H-M   'C 2'
_symmetry_Int_Tables_number      5
_space_group_name_Hall           'C 2y'
loop_
_symmetry_equiv_pos_site_id
_symmetry_equiv_pos_as_xyz
1 x,y,z
2 -x,y,-z
3 1/2+x,1/2+y,z
4 1/2-x,1/2+y,-z
_cell_length_a                   19.5817(7)
_cell_length_b                   5.8593(2)
_cell_length_c                   17.8395(6)
_cell_angle_alpha                90
_cell_angle_beta                 118.483(4)
_cell_angle_gamma                90
_cell_volume                     1799.07
_exptl_crystal_colour            colorless
_exptl_crystal_description       needle
_cell_formula_units_Z            4
loop_
_atom_site_label
_atom_site_type_symbol
_atom_site_fract_x
_atom_site_fract_y
_atom_site_fract_z
O1 O -0.11561(17) -0.8978(7) -0.10170(18)
N1 N -0.1468(2) -1.0041(8) -0.0025(2)
H1 H -0.1801 -1.0819 0.0055
H2 H -0.1006 -1.0401 0.0356
C1 C -0.2277(2) -1.3972(10) -0.1043(3)
C2 C -0.1718(3) -0.9480(9) -0.3760(3)
H3 H -0.1907 -0.8127 -0.3657
C3 C -0.1551(2) -1.0512(9) -0.0809(3)
C4 C -0.1475(3) -1.0869(9) -0.2326(3)
C5 C -0.1181(3) -1.3224(9) -0.3315(3)
H4 H -0.1016 -1.4396 -0.2915
C6 C -0.1052(2) -0.9373(9) -0.1734(3)
C7 C -0.1930(3) -1.2291(9) -0.1324(3)
C8 C -0.1452(2) -1.1181(9) -0.3151(3)
C9 C -0.0413(2) -0.7877(9) -0.1663(3)
C10 C 0.0657(3) -0.7056(11) -0.1933(3)
H5 H 0.0963 -0.7452 -0.2182
C11 C -0.1159(3) -1.3505(10) -0.4078(3)
H6 H -0.0967 -1.4848 -0.4183
C12 C -0.2081(3) -1.2346(10) -0.2241(3)
H7 H -0.2015 -1.3924 -0.2377
C13 C 0.0050(2) -0.8466(9) -0.2035(3)
H8 H -0.0050 -0.9804 -0.2350
N2 N -0.2553(3) -1.5378(9) -0.0826(3)
C14 C -0.1705(3) -0.9772(10) -0.4530(3)
H9 H -0.1884 -0.8622 -0.4938
C15 C 0.0811(3) -0.5065(11) -0.1463(3)
H10 H 0.1218 -0.4122 -0.1397
C16 C 0.0354(3) -0.4485(11) -0.1089(3)
C17 C -0.1424(3) -1.1778(11) -0.4679(3)
H11 H -0.1413 -1.1975 -0.5190
C18 C -0.0249(3) -0.5875(10) -0.1190(3)
H12 H -0.0552 -0.5470 -0.0938
C19 C -0.2880(3) -1.1617(14) -0.2856(3)
S1 S -0.32118(10) -0.9106(5) -0.28797(13)
C20 C -0.3570(2) -1.2752(11) -0.3621(3)
H13 H -0.3549 -1.4170 -0.3843
C21 C -0.4104(5) -0.954(3) -0.3637(8)
H14 H -0.4511 -0.8493 -0.3842
C22 C -0.4130(8) -1.159(3) -0.3888(5)
H15 H -0.4604 -1.2185 -0.4293
H16 H 0.045(3) -0.328(13) -0.074(4)
loop_
_geom_bond_atom_site_label_1
_geom_bond_atom_site_label_2
_geom_bond_site_symmetry_1
_geom_bond_site_symmetry_2
O1 C3 1_555 1_555
N1 H1 1_555 1_555
H2 N1 1_555 1_555
C1 C7 1_555 1_555
C2 H3 1_555 1_555
C3 N1 1_555 1_555
C4 C6 1_555 1_555
C5 H4 1_555 1_555
C6 O1 1_555 1_555
C7 C3 1_555 1_555
C8 C2 1_555 1_555
C9 C6 1_555 1_555
C10 H5 1_555 1_555
C11 C5 1_555 1_555
H6 C11 1_555 1_555
C12 C4 1_555 1_555
H7 C12 1_555 1_555
C13 C9 1_555 1_555
H8 C13 1_555 1_555
N2 C1 1_555 1_555
C14 C2 1_555 1_555
H9 C14 1_555 1_555
C15 C10 1_555 1_555
H10 C15 1_555 1_555
C16 C15 1_555 1_555
C17 C11 1_555 1_555
H11 C17 1_555 1_555
C18 C9 1_555 1_555
H12 C18 1_555 1_555
C19 C12 1_555 1_555
S1 C19 1_555 1_555
C20 C19 1_555 1_555
H13 C20 1_555 1_555
C21 S1 1_555 1_555
H14 C21 1_555 1_555
C22 C20 1_555 1_555
H15 C22 1_555 1_555
H16 C16 1_555 1_555
C4 C8 1_555 1_555
C5 C8 1_555 1_555
C7 C12 1_555 1_555
C10 C13 1_555 1_555
C14 C17 1_555 1_555
C16 C18 1_555 1_555
C21 C22 1_555 1_555

#END
