
#######################################################################
#
#                 Cambridge Crystallographic Data Centre
#                                CCDC 
#
#######################################################################
#
# If this CIF has been generated from an entry in the Cambridge 
# Structural Database, then it will include bibliographic, chemical, 
# crystal, experimental, refinement or atomic coordinate data resulting 
# from the CCDC's data processing and validation procedures.
#
#######################################################################

data_GEBJUU
_chemical_formula_moiety         'C30 H32 N2 O9 S2'
_chemical_name_systematic        
4-Benzyl-3-(2-(2,2-bis(phenylsulfonyl)ethyl)-2-nitrohexanoyl)-1,3-oxazolidin-2-one
_symmetry_cell_setting           orthorhombic
_symmetry_space_group_name_H-M   'P 21 21 21'
_symmetry_Int_Tables_number      19
_space_group_name_Hall           'P 2ac 2ab'
loop_
_symmetry_equiv_pos_site_id
_symmetry_equiv_pos_as_xyz
1 x,y,z
2 1/2+x,1/2-y,-z
3 -x,1/2+y,1/2-z
4 1/2-x,-y,1/2+z
_cell_length_a                   10.9723(2)
_cell_length_b                   12.9755(3)
_cell_length_c                   20.9704(4)
_cell_angle_alpha                90
_cell_angle_beta                 90
_cell_angle_gamma                90
_cell_volume                     2985.58
_exptl_crystal_colour            colorless
_exptl_crystal_description       block
_cell_formula_units_Z            4
loop_
_atom_site_label
_atom_site_type_symbol
_atom_site_fract_x
_atom_site_fract_y
_atom_site_fract_z
S1 S 0.69429(15) 0.95136(11) 0.64329(7)
S2 S 0.73181(16) 0.71519(12) 0.63440(7)
O1 O 0.8131(4) 0.9516(4) 0.6718(2)
O2 O 0.8623(5) 0.7197(5) 0.6382(3)
O3 O 0.6632(5) 1.0323(4) 0.5990(2)
O4 O 0.6746(5) 0.8988(4) 0.36844(19)
O5 O 0.6680(6) 1.1905(4) 0.4725(3)
O6 O 0.6761(6) 0.6356(4) 0.5981(2)
O7 O 0.4618(4) 0.9091(4) 0.5085(3)
O8 O 0.8393(5) 0.8438(4) 0.4145(3)
O9 O 0.7846(6) 1.0529(5) 0.4559(3)
N1 N 0.7303(6) 0.8677(5) 0.4140(2)
N2 N 0.5741(5) 1.0387(4) 0.4707(3)
C1 C 0.5594(7) 0.9353(5) 0.4848(3)
C2 C 0.5833(6) 0.9471(5) 0.7029(3)
C3 C 0.7440(6) 0.8460(5) 0.5322(3)
C4 C 0.6551(6) 0.8505(5) 0.4746(3)
C5 C 0.6734(6) 0.7134(5) 0.7112(3)
C6 C 0.5892(7) 0.7492(5) 0.4628(3)
C7 C 0.7532(9) 0.7220(6) 0.7628(4)
C8 C 0.5490(8) 0.6998(5) 0.7199(4)
C9 C 0.6187(8) 0.9579(6) 0.7657(3)
C10 C 0.6788(6) 0.8331(5) 0.5974(3)
C11 C 0.5290(9) 0.9593(6) 0.8125(4)
C12 C 0.3863(6) 1.1387(5) 0.3775(3)
C13 C 0.4619(7) 0.9426(6) 0.6863(4)
C14 C 0.4093(8) 0.9519(6) 0.7953(4)
C15 C 0.6847(8) 1.0889(6) 0.4656(3)
C16 C 0.6654(7) 0.6579(5) 0.4394(3)
C17 C 0.4757(7) 1.1110(6) 0.4879(3)
C18 C 0.3639(8) 1.1057(6) 0.4451(3)
C19 C 0.3740(8) 0.9424(6) 0.7341(4)
C20 C 0.4367(7) 1.0715(7) 0.3339(4)
C21 C 0.5854(9) 0.5627(6) 0.4343(5)
C22 C 0.3745(10) 1.2683(9) 0.2943(5)
C23 C 0.4545(9) 1.1009(10) 0.2722(4)
C24 C 0.5440(9) 1.2130(6) 0.4873(4)
C25 C 0.5011(11) 0.6986(7) 0.7810(5)
C26 C 0.3547(9) 1.2361(7) 0.3572(5)
C27 C 0.5767(16) 0.7081(8) 0.8309(5)
C28 C 0.4244(9) 1.2024(11) 0.2528(5)
C29 C 0.6464(13) 0.4725(9) 0.4081(6)
C30 C 0.7003(15) 0.7186(7) 0.8247(4)
H1 H 0.7997 0.7889 0.5261
H2 H 0.7918 0.9089 0.5331
H3 H 0.5255 0.7617 0.4316
H4 H 0.5496 0.7290 0.5022
H5 H 0.8367 0.7295 0.7570
H6 H 0.4980 0.6916 0.6848
H7 H 0.7006 0.9641 0.7764
H8 H 0.5918 0.8241 0.5885
H9 H 0.5503 0.9651 0.8553
H10 H 0.4390 0.9398 0.6437
H11 H 0.3501 0.9535 0.8270
H12 H 0.7003 0.6737 0.3981
H13 H 0.7315 0.6450 0.4690
H14 H 0.4503 1.0964 0.5318
H15 H 0.3337 1.0354 0.4449
H16 H 0.3007 1.1491 0.4632
H17 H 0.2919 0.9358 0.7239
H18 H 0.4587 1.0055 0.3468
H19 H 0.5549 0.5458 0.4764
H20 H 0.5157 0.5790 0.4077
H21 H 0.3533 1.3345 0.2815
H22 H 0.4864 1.0544 0.2428
H23 H 0.5096 1.2588 0.4554
H24 H 0.5383 1.2463 0.5286
H25 H 0.4176 0.6912 0.7874
H26 H 0.3193 1.2817 0.3860
H27 H 0.5436 0.7076 0.8717
H28 H 0.4393 1.2232 0.2110
H29 H 0.7122 0.4527 0.4357
H30 H 0.6779 0.4885 0.3666
H31 H 0.5892 0.4167 0.4048
H32 H 0.7494 0.7234 0.8607
loop_
_geom_bond_atom_site_label_1
_geom_bond_atom_site_label_2
_geom_bond_site_symmetry_1
_geom_bond_site_symmetry_2
S1 O1 1_555 1_555
S2 O2 1_555 1_555
O3 S1 1_555 1_555
O4 N1 1_555 1_555
O5 C15 1_555 1_555
O6 S2 1_555 1_555
O7 C1 1_555 1_555
O8 N1 1_555 1_555
O9 C15 1_555 1_555
N1 C4 1_555 1_555
N2 C1 1_555 1_555
C1 C4 1_555 1_555
C2 S1 1_555 1_555
C3 C4 1_555 1_555
C4 C6 1_555 1_555
C5 S2 1_555 1_555
C6 C16 1_555 1_555
C7 C5 1_555 1_555
C8 C5 1_555 1_555
C9 C2 1_555 1_555
C10 S1 1_555 1_555
C11 C9 1_555 1_555
C12 C18 1_555 1_555
C13 C2 1_555 1_555
C14 C11 1_555 1_555
C15 N2 1_555 1_555
C16 C21 1_555 1_555
C17 N2 1_555 1_555
C18 C17 1_555 1_555
C19 C13 1_555 1_555
C20 C12 1_555 1_555
C21 C29 1_555 1_555
C22 C26 1_555 1_555
C23 C20 1_555 1_555
C24 O5 1_555 1_555
C25 C8 1_555 1_555
C26 C12 1_555 1_555
C27 C25 1_555 1_555
C28 C22 1_555 1_555
C29 H29 1_555 1_555
C30 C7 1_555 1_555
H1 C3 1_555 1_555
H2 C3 1_555 1_555
H3 C6 1_555 1_555
H4 C6 1_555 1_555
H5 C7 1_555 1_555
H6 C8 1_555 1_555
H7 C9 1_555 1_555
H8 C10 1_555 1_555
H9 C11 1_555 1_555
H10 C13 1_555 1_555
H11 C14 1_555 1_555
H12 C16 1_555 1_555
H13 C16 1_555 1_555
H14 C17 1_555 1_555
H15 C18 1_555 1_555
H16 C18 1_555 1_555
H17 C19 1_555 1_555
H18 C20 1_555 1_555
H19 C21 1_555 1_555
H20 C21 1_555 1_555
H21 C22 1_555 1_555
H22 C23 1_555 1_555
H23 C24 1_555 1_555
H24 C24 1_555 1_555
H25 C25 1_555 1_555
H26 C26 1_555 1_555
H27 C27 1_555 1_555
H28 C28 1_555 1_555
H30 C29 1_555 1_555
H31 C29 1_555 1_555
H32 C30 1_555 1_555
S2 C10 1_555 1_555
C3 C10 1_555 1_555
C14 C19 1_555 1_555
C17 C24 1_555 1_555
C23 C28 1_555 1_555
C27 C30 1_555 1_555

#END
