
#######################################################################
#
#                 Cambridge Crystallographic Data Centre
#                                CCDC 
#
#######################################################################
#
# If this CIF has been generated from an entry in the Cambridge 
# Structural Database, then it will include bibliographic, chemical, 
# crystal, experimental, refinement or atomic coordinate data resulting 
# from the CCDC's data processing and validation procedures.
#
#######################################################################

data_GEBTEO
_chemical_formula_moiety         'C10 H4 S6'
_chemical_name_systematic        
2-(Thieno[2,3-d][1,3]dithiol-2-ylidene)thieno-[2,3-d][1,3]dithiole
_symmetry_cell_setting           monoclinic
_symmetry_space_group_name_H-M   'P 21/n'
_symmetry_Int_Tables_number      14
_space_group_name_Hall           '-P 2yn'
loop_
_symmetry_equiv_pos_site_id
_symmetry_equiv_pos_as_xyz
1 x,y,z
2 1/2-x,1/2+y,1/2-z
3 -x,-y,-z
4 1/2+x,1/2-y,1/2+z
_cell_length_a                   6.1828(5)
_cell_length_b                   15.4555(12)
_cell_length_c                   18.6169(12)
_cell_angle_alpha                90
_cell_angle_beta                 95.090(2)
_cell_angle_gamma                90
_cell_volume                     1771.98
_cell_formula_units_Z            6
loop_
_atom_site_label
_atom_site_type_symbol
_atom_site_fract_x
_atom_site_fract_y
_atom_site_fract_z
S1 S 0.19485(11) 0.18155(5) 0.57466(4)
S2 S 0.71508(18) 0.31353(7) 0.49306(6)
S3 S 0.65370(11) 0.21310(6) 0.63422(4)
S4 S 0.57044(11) 0.10126(6) 0.77580(4)
S5 S 0.0526(2) -0.03845(8) 0.85190(6)
S6 S 0.10991(11) 0.07269(5) 0.71606(4)
C1 C 0.4005(4) 0.16488(18) 0.64545(14)
C2 C 0.3622(4) 0.24047(18) 0.52187(14)
C3 C 0.3070(4) 0.28002(14) 0.44501(11)
C4 C 0.5090(7) 0.3188(2) 0.4310(2)
C5 C 0.5690(4) 0.25536(19) 0.54982(15)
C6 C 0.3673(4) 0.11812(18) 0.70480(14)
C7 C 0.4032(5) 0.03933(19) 0.82647(14)
C8 C 0.4659(3) -0.00709(14) 0.90168(10)
C9 C 0.2564(7) -0.0486(3) 0.9116(2)
C10 C 0.1954(5) 0.02590(19) 0.79905(15)
H1 H 0.1732 0.2751 0.4153
H2 H 0.5142 0.3476 0.3858
H3 H 0.6022 -0.0064 0.9321
H4 H 0.2519 -0.0836 0.9539
S7 S 0.69017(11) -0.04184(5) 0.59948(4)
S8 S 0.16689(16) -0.17243(7) 0.68128(6)
S9 S 0.22512(11) -0.06552(5) 0.54328(4)
C11 C 0.4834(4) -0.02266(18) 0.52995(14)
C12 C 0.5233(4) -0.10082(18) 0.65204(14)
C13 C 0.5882(4) -0.14629(14) 0.72638(10)
C14 C 0.3817(6) -0.1843(2) 0.74088(18)
C15 C 0.3129(4) -0.11222(18) 0.62587(14)
H5 H 0.7272 -0.1480 0.7541
H6 H 0.3787 -0.2156 0.7857
S7B S 0.30983(11) 0.04184(5) 0.40052(4)
S8B S 0.83311(16) 0.17243(7) 0.31872(6)
S9B S 0.77488(11) 0.06552(5) 0.45672(4)
C11B C 0.5166(4) 0.02266(18) 0.47005(14)
C12B C 0.4767(4) 0.10082(18) 0.34796(14)
C13B C 0.4118(4) 0.14629(14) 0.27362(10)
C14B C 0.6183(6) 0.1843(2) 0.25912(18)
C15B C 0.6871(4) 0.11222(18) 0.37413(14)
H5B H 0.2728 0.1480 0.2459
H6B H 0.6213 0.2156 0.2143
loop_
_geom_bond_atom_site_label_1
_geom_bond_atom_site_label_2
_geom_bond_site_symmetry_1
_geom_bond_site_symmetry_2
S1 C1 1_555 1_555
S2 C4 1_555 1_555
S3 C1 1_555 1_555
S4 C6 1_555 1_555
S5 C9 1_555 1_555
S6 C6 1_555 1_555
C1 C6 1_555 1_555
C2 S1 1_555 1_555
C3 C2 1_555 1_555
C4 C3 1_555 1_555
C5 S2 1_555 1_555
C7 S4 1_555 1_555
C8 C7 1_555 1_555
C9 C8 1_555 1_555
C10 S5 1_555 1_555
H1 C3 1_555 1_555
H2 C4 1_555 1_555
H3 C8 1_555 1_555
H4 C9 1_555 1_555
S7 C11 1_555 1_555
S8 C14 1_555 1_555
S9 C11 1_555 1_555
C11 C11B 1_555 1_555
C12 S7 1_555 1_555
C13 C12 1_555 1_555
C14 C13 1_555 1_555
C15 S8 1_555 1_555
H5 C13 1_555 1_555
H6 C14 1_555 1_555
S7B C11B 1_555 1_555
S8B C14B 1_555 1_555
S9B C11B 1_555 1_555
C12B S7B 1_555 1_555
C13B C12B 1_555 1_555
C14B C13B 1_555 1_555
C15B S8B 1_555 1_555
H5B C13B 1_555 1_555
H6B C14B 1_555 1_555
S3 C5 1_555 1_555
S6 C10 1_555 1_555
C2 C5 1_555 1_555
C7 C10 1_555 1_555
S9 C15 1_555 1_555
C12 C15 1_555 1_555
S9B C15B 1_555 1_555
C12B C15B 1_555 1_555

#END
