
#######################################################################
#
#                 Cambridge Crystallographic Data Centre
#                                CCDC 
#
#######################################################################
#
# If this CIF has been generated from an entry in the Cambridge 
# Structural Database, then it will include bibliographic, chemical, 
# crystal, experimental, refinement or atomic coordinate data resulting 
# from the CCDC's data processing and validation procedures.
#
#######################################################################

data_GEBVAK01
_chemical_name_common            'PDB Chemical Component code: 2AC'
_chemical_formula_moiety         'C7 H9 N1 O1'
_chemical_name_systematic        2-Amino-4-methylphenol
_symmetry_cell_setting           orthorhombic
_symmetry_space_group_name_H-M   'P b c a'
_symmetry_Int_Tables_number      61
_space_group_name_Hall           '-P 2ac 2ab'
loop_
_symmetry_equiv_pos_site_id
_symmetry_equiv_pos_as_xyz
1 x,y,z
2 1/2-x,-y,1/2+z
3 -x,1/2+y,1/2-z
4 1/2+x,1/2-y,-z
5 -x,-y,-z
6 1/2+x,y,1/2-z
7 x,1/2-y,1/2+z
8 1/2-x,1/2+y,z
_cell_length_a                   7.5058(15)
_cell_length_b                   7.7076(15)
_cell_length_c                   22.691(5)
_cell_angle_alpha                90
_cell_angle_beta                 90
_cell_angle_gamma                90
_cell_volume                     1312.71
_exptl_crystal_colour            colorless
_exptl_crystal_description       cube
_chemical_melting_point          '409 K'
_cell_formula_units_Z            8
_exptl_crystal_recrystallization_method 'ethyl acetate'
loop_
_atom_site_label
_atom_site_type_symbol
_atom_site_fract_x
_atom_site_fract_y
_atom_site_fract_z
O1 O 0.06993(10) 0.26328(10) 0.50306(3)
N1 N -0.19023(12) 0.41844(11) 0.56573(4)
C1 C -0.11256(13) 0.23793(13) 0.65096(4)
C2 C -0.08346(12) 0.29031(12) 0.59301(4)
C3 C 0.04685(13) 0.20543(13) 0.55940(4)
C4 C 0.14295(14) 0.06962(13) 0.58414(5)
C5 C -0.01583(13) 0.10241(14) 0.67657(4)
C6 C -0.04808(16) 0.05167(17) 0.73985(5)
C7 C 0.11111(14) 0.01785(14) 0.64204(5)
H1 H -0.2040(17) 0.2984(18) 0.6738(6)
H2 H 0.1812(18) -0.080(2) 0.6574(6)
H3 H -0.132(2) 0.4879(19) 0.5424(6)
H4 H -0.250(2) 0.480(2) 0.5932(7)
H5 H 0.2270(19) 0.0083(19) 0.5602(6)
H6 H 0.142(3) 0.190(2) 0.4834(8)
H7 H 0.051(3) 0.083(3) 0.7654(9)
H8 H -0.147(3) 0.122(3) 0.7575(8)
H9 H -0.078(3) -0.069(3) 0.7451(9)
loop_
_geom_bond_atom_site_label_1
_geom_bond_atom_site_label_2
_geom_bond_site_symmetry_1
_geom_bond_site_symmetry_2
O1 C3 1_555 1_555
N1 C2 1_555 1_555
C1 C2 1_555 1_555
C2 C3 1_555 1_555
C3 C4 1_555 1_555
C4 C7 1_555 1_555
C5 C1 1_555 1_555
C6 C5 1_555 1_555
C7 C5 1_555 1_555
H1 C1 1_555 1_555
H2 C7 1_555 1_555
H3 N1 1_555 1_555
H4 N1 1_555 1_555
H5 C4 1_555 1_555
H6 O1 1_555 1_555
H7 C6 1_555 1_555
H8 C6 1_555 1_555
H9 C6 1_555 1_555

#END
