
#######################################################################
#
#                 Cambridge Crystallographic Data Centre
#                                CCDC 
#
#######################################################################
#
# If this CIF has been generated from an entry in the Cambridge 
# Structural Database, then it will include bibliographic, chemical, 
# crystal, experimental, refinement or atomic coordinate data resulting 
# from the CCDC's data processing and validation procedures.
#
#######################################################################

data_GECNEK
_chemical_compound_source        
'Isolated from the aerial parts of Isodon scoparius.'
_chemical_name_common            'scopariusol D'
_chemical_formula_moiety         'C22 H34 O5'
_chemical_name_systematic        '3,13,15-trihydroxykaur-16-en-11-yl acetate'
_symmetry_cell_setting           orthorhombic
_symmetry_space_group_name_H-M   'P 21 21 21'
_symmetry_Int_Tables_number      19
_space_group_name_Hall           'P 2ac 2ab'
loop_
_symmetry_equiv_pos_site_id
_symmetry_equiv_pos_as_xyz
1 x,y,z
2 1/2+x,1/2-y,-z
3 -x,1/2+y,1/2-z
4 1/2-x,-y,1/2+z
_cell_length_a                   8.1897(2)
_cell_length_b                   11.8105(2)
_cell_length_c                   20.5092(4)
_cell_angle_alpha                90
_cell_angle_beta                 90
_cell_angle_gamma                90
_cell_volume                     1983.74
_exptl_crystal_colour            colorless
_exptl_crystal_description       prism
_cell_formula_units_Z            4
loop_
_atom_site_label
_atom_site_type_symbol
_atom_site_fract_x
_atom_site_fract_y
_atom_site_fract_z
O1 O 0.13707(16) 0.52244(10) 0.99918(6)
O2 O -0.03877(18) 0.11645(12) 0.81566(7)
H1 H -0.052(3) 0.147(2) 0.8531(14)
O3 O 0.59205(18) 0.69584(11) 0.94806(7)
H2 H 0.683(4) 0.678(2) 0.9569(12)
O4 O -0.09063(17) 0.61414(12) 0.96885(7)
O5 O 0.37088(18) 0.35488(11) 1.04834(6)
H3 H 0.282(3) 0.393(2) 1.0472(13)
C1 C -0.0541(3) 0.55938(16) 1.08110(10)
H4 H -0.1659 0.5867 1.0875
H5 H 0.0211 0.6045 1.1077
H6 H -0.0473 0.4797 1.0942
C2 C -0.0088(2) 0.57041(15) 1.01082(9)
C3 C 0.2014(2) 0.53175(15) 0.93232(8)
H7 H 0.1089 0.5504 0.9024
C4 C 0.2666(2) 0.41266(14) 0.91453(9)
H8 H 0.2082 0.3594 0.9444
C5 C 0.2131(2) 0.37679(15) 0.84374(9)
C6 C 0.0248(2) 0.36863(15) 0.84255(9)
H9 H -0.0120 0.3244 0.8808
H10 H -0.0216 0.4457 0.8464
C7 C -0.0416(2) 0.31306(16) 0.78050(9)
H11 H -0.1621 0.3081 0.7835
H12 H -0.0143 0.3611 0.7425
C8 C 0.0279(3) 0.19512(15) 0.76989(9)
H13 H -0.0083 0.1700 0.7256
C9 C 0.4962(2) 0.59611(14) 0.95085(9)
C10 C 0.3236(2) 0.62968(15) 0.93082(9)
H14 H 0.3270 0.6613 0.8861
H15 H 0.2846 0.6902 0.9604
C11 C 0.2678(2) 0.46425(15) 0.79213(9)
H16 H 0.1981 0.4578 0.7535
H17 H 0.3816 0.4497 0.7799
H18 H 0.2584 0.5407 0.8103
C12 C 0.2817(2) 0.25505(15) 0.83167(9)
H19 H 0.2399 0.2092 0.8691
C13 C 0.4673(2) 0.25373(15) 0.83955(9)
H20 H 0.5100 0.1777 0.8285
H21 H 0.5170 0.3092 0.8093
C14 C 0.5136(2) 0.28344(14) 0.90953(9)
H22 H 0.6340 0.2823 0.9136
H23 H 0.4692 0.2247 0.9391
C15 C 0.4508(2) 0.39902(15) 0.93132(9)
C16 C 0.4811(2) 0.41349(15) 1.00628(9)
H24 H 0.5922 0.3821 1.0153
C17 C 0.4919(2) 0.54049(15) 1.01770(9)
C18 C 0.4943(2) 0.59319(16) 1.07444(9)
H25 H 0.4889 0.5509 1.1138
H26 H 0.5014 0.6734 1.0759
C19 C 0.5529(2) 0.49930(14) 0.90654(9)
H27 H 0.6712 0.4847 0.9117
H28 H 0.5292 0.5158 0.8602
C20 C 0.2164(2) 0.19316(15) 0.76974(9)
C21 C 0.2787(3) 0.24220(17) 0.70487(9)
H29 H 0.2454 0.1926 0.6689
H30 H 0.3981 0.2474 0.7060
H31 H 0.2324 0.3178 0.6983
C22 C 0.2713(3) 0.06848(16) 0.77135(10)
H32 H 0.2166 0.0266 0.7364
H33 H 0.2424 0.0351 0.8135
H34 H 0.3898 0.0644 0.7652
loop_
_geom_bond_atom_site_label_1
_geom_bond_atom_site_label_2
_geom_bond_site_symmetry_1
_geom_bond_site_symmetry_2
O1 C2 1_555 1_555
O2 H1 1_555 1_555
O3 H2 1_555 1_555
O4 C2 1_555 1_555
O5 H3 1_555 1_555
C1 H4 1_555 1_555
H5 C1 1_555 1_555
H6 C1 1_555 1_555
C2 C1 1_555 1_555
C3 O1 1_555 1_555
H7 C3 1_555 1_555
C4 C3 1_555 1_555
H8 C4 1_555 1_555
C5 C4 1_555 1_555
C6 C5 1_555 1_555
H9 C6 1_555 1_555
H10 C6 1_555 1_555
C7 C6 1_555 1_555
H11 C7 1_555 1_555
H12 C7 1_555 1_555
C8 O2 1_555 1_555
H13 C8 1_555 1_555
C9 O3 1_555 1_555
C10 C3 1_555 1_555
H14 C10 1_555 1_555
H15 C10 1_555 1_555
C11 C5 1_555 1_555
H16 C11 1_555 1_555
H17 C11 1_555 1_555
H18 C11 1_555 1_555
C12 C5 1_555 1_555
H19 C12 1_555 1_555
C13 C12 1_555 1_555
H20 C13 1_555 1_555
H21 C13 1_555 1_555
C14 C13 1_555 1_555
H22 C14 1_555 1_555
H23 C14 1_555 1_555
C15 C4 1_555 1_555
C16 O5 1_555 1_555
H24 C16 1_555 1_555
C17 C9 1_555 1_555
C18 C17 1_555 1_555
H25 C18 1_555 1_555
H26 C18 1_555 1_555
C19 C9 1_555 1_555
H27 C19 1_555 1_555
H28 C19 1_555 1_555
C20 C8 1_555 1_555
C21 C20 1_555 1_555
H29 C21 1_555 1_555
H30 C21 1_555 1_555
H31 C21 1_555 1_555
C22 C20 1_555 1_555
H32 C22 1_555 1_555
H33 C22 1_555 1_555
H34 C22 1_555 1_555
C7 C8 1_555 1_555
C9 C10 1_555 1_555
C12 C20 1_555 1_555
C14 C15 1_555 1_555
C15 C16 1_555 1_555
C15 C19 1_555 1_555
C16 C17 1_555 1_555

#END
