
#######################################################################
#
#                 Cambridge Crystallographic Data Centre
#                                CCDC 
#
#######################################################################
#
# If this CIF has been generated from an entry in the Cambridge 
# Structural Database, then it will include bibliographic, chemical, 
# crystal, experimental, refinement or atomic coordinate data resulting 
# from the CCDC's data processing and validation procedures.
#
#######################################################################

data_GECNAG
_chemical_compound_source        
'Isolated from the aerial parts of Isodon scoparius.'
_chemical_name_common            'scopariusol B'
_chemical_formula_moiety         'C20 H32 O2'
_chemical_name_systematic        11,16-epoxykauran-18-ol
_symmetry_cell_setting           monoclinic
_symmetry_space_group_name_H-M   'P 21'
_symmetry_Int_Tables_number      4
_space_group_name_Hall           'P 2yb'
loop_
_symmetry_equiv_pos_site_id
_symmetry_equiv_pos_as_xyz
1 x,y,z
2 -x,1/2+y,-z
_cell_length_a                   10.6027(2)
_cell_length_b                   7.43600(10)
_cell_length_c                   21.0823(4)
_cell_angle_alpha                90
_cell_angle_beta                 96.4580(10)
_cell_angle_gamma                90
_cell_volume                     1651.62
_exptl_crystal_colour            colorless
_exptl_crystal_description       prism
_cell_formula_units_Z            4
loop_
_atom_site_label
_atom_site_type_symbol
_atom_site_fract_x
_atom_site_fract_y
_atom_site_fract_z
O1 O 1.0002(4) -0.0267(6) 0.6709(2)
H1 H 1.0000 0.0862 0.6716
O2 O 0.8227(4) 0.2022(6) 0.3488(2)
C1 C 0.8783(6) -0.0916(10) 0.6805(3)
H2 H 0.8637 -0.0699 0.7254
H3 H 0.8756 -0.2231 0.6731
C2 C 0.7698(6) -0.0013(9) 0.6357(3)
C3 C 0.7968(6) -0.0238(9) 0.5651(3)
H4 H 0.8864 0.0177 0.5649
C4 C 0.7981(6) -0.2177(9) 0.5414(3)
H5 H 0.7100 -0.2596 0.5295
H6 H 0.8379 -0.2964 0.5759
C5 C 0.8732(6) -0.2294(9) 0.4831(3)
H7 H 0.9624 -0.1937 0.4959
H8 H 0.8731 -0.3554 0.4679
C6 C 0.8164(6) -0.1078(9) 0.4286(3)
C7 C 0.9082(6) -0.0890(9) 0.3770(3)
H9 H 0.9857 -0.0217 0.3932
H10 H 0.9323 -0.2077 0.3609
C8 C 0.8253(6) 0.0182(9) 0.3253(3)
C9 C 0.8697(6) 0.0203(10) 0.2599(3)
H11 H 0.8058 0.0795 0.2298
H12 H 0.8822 -0.1035 0.2459
H13 H 0.9501 0.0861 0.2616
C10 C 0.7696(6) 0.1972(10) 0.6539(3)
H14 H 0.8582 0.2415 0.6587
H15 H 0.7371 0.2086 0.6960
C11 C 0.6899(6) 0.3175(9) 0.6060(3)
H16 H 0.7010 0.4448 0.6191
H17 H 0.5990 0.2865 0.6055
C12 C 0.7304(6) 0.2929(9) 0.5387(3)
H18 H 0.6776 0.3720 0.5087
H19 H 0.8198 0.3318 0.5391
C13 C 0.7182(6) 0.1001(9) 0.5142(3)
C14 C 0.5772(6) 0.0492(9) 0.5036(3)
H20 H 0.5404 0.0580 0.5441
H21 H 0.5685 -0.0743 0.4875
H22 H 0.5325 0.1315 0.4724
C15 C 0.7860(6) 0.0857(10) 0.4520(3)
H23 H 0.8714 0.1407 0.4642
C16 C 0.7042(6) -0.1919(9) 0.3856(3)
H24 H 0.6271 -0.1996 0.4079
H25 H 0.7256 -0.3130 0.3705
C17 C 0.6877(6) -0.0540(9) 0.3299(3)
H26 H 0.6464 -0.1060 0.2889
C18 C 0.7291(6) 0.1981(10) 0.3937(3)
H27 H 0.7064 0.3222 0.4067
C19 C 0.6194(6) 0.1099(9) 0.3520(3)
H28 H 0.5492 0.0763 0.3769
H29 H 0.5864 0.1879 0.3158
C20 C 0.6470(6) -0.0914(10) 0.6514(3)
H30 H 0.6471 -0.0982 0.6979
H31 H 0.6416 -0.2131 0.6334
H32 H 0.5739 -0.0207 0.6331
O3 O 0.4583(4) 0.4806(7) 0.8317(2)
H33 H 0.4096 0.3951 0.8382
O4 O 0.7130(4) 0.7051(6) 1.1418(2)
C21 C 0.5741(6) 0.4111(10) 0.8133(3)
H34 H 0.5766 0.4326 0.7671
H35 H 0.5769 0.2795 0.8205
C22 C 0.6912(6) 0.4982(9) 0.8509(3)
C23 C 0.6847(6) 0.4762(8) 0.9235(3)
H36 H 0.5979 0.5200 0.9300
C24 C 0.6872(6) 0.2821(9) 0.9472(3)
H37 H 0.7756 0.2369 0.9519
H38 H 0.6363 0.2055 0.9155
C25 C 0.6334(6) 0.2710(9) 1.0113(3)
H39 H 0.5424 0.3042 1.0050
H40 H 0.6394 0.1452 1.0267
C26 C 0.7017(6) 0.3931(9) 1.0622(3)
C27 C 0.6247(6) 0.4137(9) 1.1198(3)
H41 H 0.5444 0.4797 1.1079
H42 H 0.6057 0.2954 1.1380
C28 C 0.7169(6) 0.5228(10) 1.1660(3)
C29 C 0.6905(7) 0.5257(10) 1.2350(3)
H43 H 0.7551 0.5984 1.2601
H44 H 0.6928 0.4027 1.2517
H45 H 0.6065 0.5779 1.2379
C30 C 0.7933(6) 0.7009(9) 1.0905(3)
H46 H 0.8114 0.8248 1.0755
C31 C 0.7241(6) 0.5861(9) 1.0361(3)
H47 H 0.6372 0.6398 1.0286
C32 C 0.7761(6) 0.5962(9) 0.9692(3)
C33 C 0.9147(6) 0.5384(10) 0.9706(3)
H48 H 0.9411 0.5488 0.9277
H49 H 0.9237 0.4133 0.9851
H50 H 0.9681 0.6160 1.0001
C34 C 0.7640(6) 0.7909(9) 0.9456(3)
H51 H 0.8276 0.8655 0.9717
H52 H 0.6788 0.8367 0.9524
C35 C 0.7828(6) 0.8130(9) 0.8751(3)
H53 H 0.7710 0.9408 0.8627
H54 H 0.8705 0.7778 0.8686
C36 C 0.6887(6) 0.6971(10) 0.8330(3)
H55 H 0.7070 0.7088 0.7882
H56 H 0.6021 0.7442 0.8355
C37 C 0.9111(6) 0.6154(9) 1.1265(3)
H57 H 0.9747 0.5826 1.0974
H58 H 0.9509 0.6947 1.1607
C38 C 0.8516(7) 0.4510(9) 1.1531(3)
H59 H 0.9022 0.4004 1.1919
C39 C 0.8225(6) 0.3136(9) 1.0992(3)
H60 H 0.8065 0.1926 1.1162
H61 H 0.8927 0.3061 1.0720
C40 C 0.8049(7) 0.4065(10) 0.8254(3)
H62 H 0.7916 0.4032 0.7786
H63 H 0.8134 0.2835 0.8420
H64 H 0.8824 0.4743 0.8392
loop_
_geom_bond_atom_site_label_1
_geom_bond_atom_site_label_2
_geom_bond_site_symmetry_1
_geom_bond_site_symmetry_2
O1 H1 1_555 1_555
O2 C8 1_555 1_555
C1 O1 1_555 1_555
H2 C1 1_555 1_555
H3 C1 1_555 1_555
C2 C1 1_555 1_555
C3 C2 1_555 1_555
H4 C3 1_555 1_555
C4 C3 1_555 1_555
H5 C4 1_555 1_555
H6 C4 1_555 1_555
C5 C4 1_555 1_555
H7 C5 1_555 1_555
H8 C5 1_555 1_555
C6 C5 1_555 1_555
C7 C6 1_555 1_555
H9 C7 1_555 1_555
H10 C7 1_555 1_555
C8 C7 1_555 1_555
C9 C8 1_555 1_555
H11 C9 1_555 1_555
H12 C9 1_555 1_555
H13 C9 1_555 1_555
C10 C2 1_555 1_555
H14 C10 1_555 1_555
H15 C10 1_555 1_555
C11 C10 1_555 1_555
H16 C11 1_555 1_555
H17 C11 1_555 1_555
C12 C11 1_555 1_555
H18 C12 1_555 1_555
H19 C12 1_555 1_555
C13 C3 1_555 1_555
C14 C13 1_555 1_555
H20 C14 1_555 1_555
H21 C14 1_555 1_555
H22 C14 1_555 1_555
C15 C6 1_555 1_555
H23 C15 1_555 1_555
C16 C6 1_555 1_555
H24 C16 1_555 1_555
H25 C16 1_555 1_555
C17 C8 1_555 1_555
H26 C17 1_555 1_555
C18 O2 1_555 1_555
H27 C18 1_555 1_555
C19 C17 1_555 1_555
H28 C19 1_555 1_555
H29 C19 1_555 1_555
C20 C2 1_555 1_555
H30 C20 1_555 1_555
H31 C20 1_555 1_555
H32 C20 1_555 1_555
O3 H33 1_555 1_555
O4 C28 1_555 1_555
C21 O3 1_555 1_555
H34 C21 1_555 1_555
H35 C21 1_555 1_555
C22 C21 1_555 1_555
C23 C22 1_555 1_555
H36 C23 1_555 1_555
C24 C23 1_555 1_555
H37 C24 1_555 1_555
H38 C24 1_555 1_555
C25 C24 1_555 1_555
H39 C25 1_555 1_555
H40 C25 1_555 1_555
C26 C25 1_555 1_555
C27 C26 1_555 1_555
H41 C27 1_555 1_555
H42 C27 1_555 1_555
C28 C27 1_555 1_555
C29 C28 1_555 1_555
H43 C29 1_555 1_555
H44 C29 1_555 1_555
H45 C29 1_555 1_555
C30 O4 1_555 1_555
H46 C30 1_555 1_555
C31 C26 1_555 1_555
H47 C31 1_555 1_555
C32 C23 1_555 1_555
C33 C32 1_555 1_555
H48 C33 1_555 1_555
H49 C33 1_555 1_555
H50 C33 1_555 1_555
C34 C32 1_555 1_555
H51 C34 1_555 1_555
H52 C34 1_555 1_555
C35 C34 1_555 1_555
H53 C35 1_555 1_555
H54 C35 1_555 1_555
C36 C22 1_555 1_555
H55 C36 1_555 1_555
H56 C36 1_555 1_555
C37 C30 1_555 1_555
H57 C37 1_555 1_555
H58 C37 1_555 1_555
C38 C28 1_555 1_555
H59 C38 1_555 1_555
C39 C26 1_555 1_555
H60 C39 1_555 1_555
H61 C39 1_555 1_555
C40 C22 1_555 1_555
H62 C40 1_555 1_555
H63 C40 1_555 1_555
H64 C40 1_555 1_555
C12 C13 1_555 1_555
C13 C15 1_555 1_555
C15 C18 1_555 1_555
C16 C17 1_555 1_555
C18 C19 1_555 1_555
C30 C31 1_555 1_555
C31 C32 1_555 1_555
C35 C36 1_555 1_555
C37 C38 1_555 1_555
C38 C39 1_555 1_555

#END
