
#######################################################################
#
#                 Cambridge Crystallographic Data Centre
#                                CCDC 
#
#######################################################################
#
# If this CIF has been generated from an entry in the Cambridge 
# Structural Database, then it will include bibliographic, chemical, 
# crystal, experimental, refinement or atomic coordinate data resulting 
# from the CCDC's data processing and validation procedures.
#
#######################################################################

data_GECQUB
_chemical_name_common            '1,3-diallylisoamarinium hexafluorophosphate'
_chemical_formula_moiety         'C27 H27 N2 1+,F6 P1 1-'
_chemical_name_systematic        
'1,3-diallyl-2,4,5-triphenylimidazolidenium hexafluorophosphate'
_symmetry_cell_setting           monoclinic
_symmetry_space_group_name_H-M   'C c'
_symmetry_Int_Tables_number      9
_space_group_name_Hall           'C -2yc'
loop_
_symmetry_equiv_pos_site_id
_symmetry_equiv_pos_as_xyz
1 x,y,z
2 x,-y,1/2+z
3 1/2+x,1/2+y,z
4 1/2+x,1/2-y,1/2+z
_cell_length_a                   14.856(2)
_cell_length_b                   10.8075(16)
_cell_length_c                   15.652(2)
_cell_angle_alpha                90.00
_cell_angle_beta                 93.123(3)
_cell_angle_gamma                90.00
_cell_volume                     2509.29
_exptl_crystal_colour            colorless
_exptl_crystal_description       block
_cell_formula_units_Z            4
loop_
_atom_site_label
_atom_site_type_symbol
_atom_site_fract_x
_atom_site_fract_y
_atom_site_fract_z
P1 P 0.65901(9) 0.91508(14) 0.57043(8)
F1 F 0.7609(2) 0.9540(4) 0.5800(3)
F2 F 0.6714(3) 0.8717(4) 0.4762(2)
F3 F 0.5582(2) 0.8722(4) 0.5615(3)
F4 F 0.6477(3) 0.9594(5) 0.6647(2)
F5 F 0.6845(3) 0.7840(4) 0.6054(3)
F6 F 0.6327(3) 1.0464(4) 0.5369(3)
N1 N 0.9694(2) 1.1022(3) 0.5612(2)
N2 N 0.8640(2) 1.2113(3) 0.6161(2)
C1 C 1.0221(3) 0.9744(5) 0.6891(3)
C2 C 0.9870(3) 1.3061(5) 0.7847(3)
H1 H 1.0276 1.3187 0.7424
C3 C 0.8995(3) 1.1745(4) 0.5456(3)
C4 C 0.9939(3) 1.0971(4) 0.6532(3)
H2 H 1.0423 1.1568 0.6663
C5 C 0.9179(3) 1.2230(4) 0.7719(3)
C6 C 0.9064(3) 1.1458(4) 0.6902(3)
H3 H 0.8686 1.0743 0.7023
C7 C 0.8630(3) 1.2076(4) 0.4591(3)
C8 C 0.7766(3) 1.2713(5) 0.6208(3)
H4 H 0.7464 1.2360 0.6685
H5 H 0.7405 1.2518 0.5691
C9 C 0.8575(3) 1.2066(5) 0.8342(3)
H6 H 0.8101 1.1510 0.8253
C10 C 1.0388(3) 1.0769(5) 0.4981(3)
H7 H 1.0241 1.1251 0.4469
H8 H 1.0967 1.1056 0.5219
C11 C 0.8374(4) 1.3511(5) 0.3457(3)
H9 H 0.8453 1.4300 0.3235
C12 C 0.8666(4) 1.2724(6) 0.9102(3)
H10 H 0.8256 1.2621 0.9525
C13 C 0.8156(4) 1.1207(5) 0.4114(3)
H11 H 0.8077 1.0416 0.4331
C14 C 0.7785(4) 1.4062(6) 0.6311(3)
H12 H 0.7236 1.4443 0.6396
C15 C 1.0476(4) 0.9490(6) 0.4738(4)
H13 H 0.9955 0.9013 0.4675
C16 C 0.8736(4) 1.3227(5) 0.4276(3)
H14 H 0.9048 1.3825 0.4600
C17 C 0.8476(5) 1.4777(6) 0.6297(4)
H15 H 0.9042 1.4446 0.6214
H16 H 0.8409 1.5626 0.6369
C18 C 1.1169(5) 0.8598(8) 0.7884(4)
H17 H 1.1627 0.8589 0.8314
C19 C 1.1245(5) 0.8964(6) 0.4601(4)
H18 H 1.1776 0.9419 0.4658
H19 H 1.1263 0.8134 0.4445
C20 C 0.9824(4) 0.8659(5) 0.6630(4)
H20 H 0.9366 0.8660 0.6200
C21 C 0.9962(4) 1.3713(5) 0.8612(4)
H21 H 1.0431 1.4276 0.8703
C22 C 0.7914(3) 1.2664(6) 0.2990(3)
H22 H 0.7675 1.2863 0.2446
C23 C 0.7797(4) 1.1510(5) 0.3311(3)
H23 H 0.7472 1.0923 0.2987
C24 C 1.0783(5) 0.7519(8) 0.7629(5)
H24 H 1.0974 0.6772 0.7871
C25 C 1.0903(4) 0.9711(6) 0.7524(3)
H25 H 1.1183 1.0440 0.7708
C26 C 0.9375(5) 1.3530(6) 0.9215(4)
H26 H 0.9450 1.3961 0.9728
C27 C 1.0108(5) 0.7553(6) 0.7010(6)
H27 H 0.9828 0.6819 0.6836
loop_
_geom_bond_atom_site_label_1
_geom_bond_atom_site_label_2
_geom_bond_site_symmetry_1
_geom_bond_site_symmetry_2
P1 F1 1_555 1_555
N1 C3 1_555 1_555
N2 C3 1_555 1_555
C1 C4 1_555 1_555
C2 H1 1_555 1_555
C3 C7 1_555 1_555
C4 N1 1_555 1_555
H2 C4 1_555 1_555
C5 C2 1_555 1_555
C6 N2 1_555 1_555
H3 C6 1_555 1_555
C7 C13 1_555 1_555
C8 N2 1_555 1_555
H4 C8 1_555 1_555
H5 C8 1_555 1_555
C9 C5 1_555 1_555
H6 C9 1_555 1_555
C10 N1 1_555 1_555
H7 C10 1_555 1_555
H8 C10 1_555 1_555
C11 H9 1_555 1_555
C12 C9 1_555 1_555
H10 C12 1_555 1_555
C13 H11 1_555 1_555
F2 P1 1_555 1_555
F3 P1 1_555 1_555
C14 C8 1_555 1_555
H12 C14 1_555 1_555
C15 C10 1_555 1_555
H13 C15 1_555 1_555
F4 P1 1_555 1_555
C16 C7 1_555 1_555
H14 C16 1_555 1_555
F5 P1 1_555 1_555
C17 C14 1_555 1_555
H15 C17 1_555 1_555
H16 C17 1_555 1_555
C18 H17 1_555 1_555
C19 C15 1_555 1_555
H18 C19 1_555 1_555
H19 C19 1_555 1_555
C20 C1 1_555 1_555
H20 C20 1_555 1_555
C21 C2 1_555 1_555
H21 C21 1_555 1_555
C22 C11 1_555 1_555
H22 C22 1_555 1_555
C23 C13 1_555 1_555
H23 C23 1_555 1_555
F6 P1 1_555 1_555
C24 C18 1_555 1_555
H24 C24 1_555 1_555
C25 C1 1_555 1_555
H25 C25 1_555 1_555
C26 C12 1_555 1_555
H26 C26 1_555 1_555
C27 C20 1_555 1_555
H27 C27 1_555 1_555
C4 C6 1_555 1_555
C5 C6 1_555 1_555
C11 C16 1_555 1_555
C18 C25 1_555 1_555
C21 C26 1_555 1_555
C22 C23 1_555 1_555
C24 C27 1_555 1_555

#END
