
#######################################################################
#
#                 Cambridge Crystallographic Data Centre
#                                CCDC 
#
#######################################################################
#
# If this CIF has been generated from an entry in the Cambridge 
# Structural Database, then it will include bibliographic, chemical, 
# crystal, experimental, refinement or atomic coordinate data resulting 
# from the CCDC's data processing and validation procedures.
#
#######################################################################

data_GECQIQ
_chemical_formula_moiety         'C10 H18 B10'
_chemical_name_systematic        
3,4-dihydronaphtho(1,2)-1,2-dicarba-closo-dodecaborane
_symmetry_cell_setting           monoclinic
_symmetry_space_group_name_H-M   'P 21/c'
_symmetry_Int_Tables_number      14
_space_group_name_Hall           '-P 2ybc'
loop_
_symmetry_equiv_pos_site_id
_symmetry_equiv_pos_as_xyz
1 x,y,z
2 -x,1/2+y,1/2-z
3 -x,-y,-z
4 x,1/2-y,1/2+z
_cell_length_a                   7.1379(9)
_cell_length_b                   9.5516(12)
_cell_length_c                   20.648(3)
_cell_angle_alpha                90
_cell_angle_beta                 91.498(2)
_cell_angle_gamma                90
_cell_volume                     1407.27
_exptl_crystal_colour            colorless
_exptl_crystal_description       block
_cell_formula_units_Z            4
loop_
_atom_site_label
_atom_site_type_symbol
_atom_site_fract_x
_atom_site_fract_y
_atom_site_fract_z
C1 C 0.2692(2) 0.18989(16) 0.09291(7)
C2 C 0.2097(2) 0.23331(17) 0.16664(7)
C3 C 0.2589(2) 0.30543(18) 0.04369(8)
C4 C 0.2662(3) 0.2710(2) -0.02171(9)
H1 H 0.2748 0.1778 -0.0342
C5 C 0.2608(3) 0.3755(3) -0.06816(10)
H2 H 0.2649 0.3526 -0.1119
C6 C 0.2494(3) 0.5131(3) -0.04951(11)
H3 H 0.2474 0.5834 -0.0807
C7 C 0.2410(3) 0.5474(2) 0.01480(11)
H4 H 0.2320 0.6411 0.0266
C8 C 0.2458(2) 0.44475(19) 0.06297(9)
C9 C 0.2423(3) 0.48761(19) 0.13308(10)
H5 H 0.1790 0.5771 0.1361
H6 H 0.3702 0.5004 0.1490
C10 C 0.1452(3) 0.38274(18) 0.17645(9)
H7 H 0.1686 0.4088 0.2213
H8 H 0.0111 0.3877 0.1680
B1 B 0.0597(3) 0.1274(2) 0.12168(10)
H9 H -0.0795 0.1589 0.1028
B2 B 0.2087(3) 0.0188(2) 0.07687(11)
H10 H 0.1662 -0.0210 0.0287
B3 B 0.4442(3) 0.0674(2) 0.09512(10)
H11 H 0.5532 0.0593 0.0586
B4 B 0.4436(3) 0.2054(2) 0.15213(9)
H12 H 0.5517 0.2875 0.1531
B5 B 0.1054(3) 0.0977(2) 0.20499(10)
H13 H -0.0051 0.1102 0.2407
B6 B 0.1071(3) -0.0433(2) 0.14904(12)
H14 H -0.0016 -0.1249 0.1483
B7 B 0.3453(3) -0.0817(2) 0.13276(12)
H15 H 0.3915 -0.1885 0.1214
B8 B 0.4899(3) 0.0343(2) 0.17879(11)
H16 H 0.6297 0.0030 0.1972
B9 B 0.3412(3) 0.1445(2) 0.22362(10)
H17 H 0.3832 0.1868 0.2714
B10 B 0.2808(3) -0.0337(2) 0.21214(12)
H18 H 0.2843 -0.1090 0.2525
loop_
_geom_bond_atom_site_label_1
_geom_bond_atom_site_label_2
_geom_bond_site_symmetry_1
_geom_bond_site_symmetry_2
C1 C2 1_555 1_555
C2 C10 1_555 1_555
C3 C1 1_555 1_555
C4 C3 1_555 1_555
H1 C4 1_555 1_555
C5 C4 1_555 1_555
H2 C5 1_555 1_555
C6 C5 1_555 1_555
H3 C6 1_555 1_555
C7 C6 1_555 1_555
H4 C7 1_555 1_555
C8 C3 1_555 1_555
C9 C8 1_555 1_555
H5 C9 1_555 1_555
H6 C9 1_555 1_555
C10 C9 1_555 1_555
H7 C10 1_555 1_555
H8 C10 1_555 1_555
B1 C1 1_555 1_555
H9 B1 1_555 1_555
B2 C1 1_555 1_555
H10 B2 1_555 1_555
B3 C1 1_555 1_555
H11 B3 1_555 1_555
B4 C1 1_555 1_555
H12 B4 1_555 1_555
B5 C2 1_555 1_555
H13 B5 1_555 1_555
B6 B1 1_555 1_555
H14 B6 1_555 1_555
B7 B2 1_555 1_555
H15 B7 1_555 1_555
B8 B3 1_555 1_555
H16 B8 1_555 1_555
B9 C2 1_555 1_555
H17 B9 1_555 1_555
B10 B5 1_555 1_555
H18 B10 1_555 1_555
C2 B1 1_555 1_555
C2 B4 1_555 1_555
C7 C8 1_555 1_555
B1 B2 1_555 1_555
B1 B5 1_555 1_555
B2 B3 1_555 1_555
B2 B6 1_555 1_555
B3 B4 1_555 1_555
B3 B7 1_555 1_555
B4 B8 1_555 1_555
B4 B9 1_555 1_555
B5 B6 1_555 1_555
B5 B9 1_555 1_555
B6 B7 1_555 1_555
B6 B10 1_555 1_555
B7 B8 1_555 1_555
B7 B10 1_555 1_555
B8 B9 1_555 1_555
B8 B10 1_555 1_555
B9 B10 1_555 1_555

#END
