
#######################################################################
#
#                 Cambridge Crystallographic Data Centre
#                                CCDC 
#
#######################################################################
#
# If this CIF has been generated from an entry in the Cambridge 
# Structural Database, then it will include bibliographic, chemical, 
# crystal, experimental, refinement or atomic coordinate data resulting 
# from the CCDC's data processing and validation procedures.
#
#######################################################################

data_GECQOX
_chemical_formula_moiety         'C28 H21 N3'
_chemical_name_systematic        
N,N-diphenyl-4-{[(quinolin-5-yl)imino]methyl}aniline
_symmetry_cell_setting           monoclinic
_symmetry_space_group_name_H-M   'P 21/c'
_symmetry_Int_Tables_number      14
_space_group_name_Hall           '-P 2ybc'
loop_
_symmetry_equiv_pos_site_id
_symmetry_equiv_pos_as_xyz
1 x,y,z
2 -x,1/2+y,1/2-z
3 -x,-y,-z
4 x,1/2-y,1/2+z
_cell_length_a                   8.3398(4)
_cell_length_b                   9.4693(4)
_cell_length_c                   26.4590(12)
_cell_angle_alpha                90
_cell_angle_beta                 96.161(2)
_cell_angle_gamma                90
_cell_volume                     2077.45
_exptl_crystal_colour            'light yellow'
_exptl_crystal_description       block
_cell_formula_units_Z            4
loop_
_atom_site_label
_atom_site_type_symbol
_atom_site_fract_x
_atom_site_fract_y
_atom_site_fract_z
N1 N 0.7692(2) 0.91130(17) 0.35655(6)
N2 N 0.7215(2) 0.45869(19) 0.53731(7)
N3 N 0.7329(2) 0.0195(2) 0.63268(8)
C1 C 0.6130(4) 0.7508(3) 0.21137(9)
H1 H 0.578149 0.715641 0.178389
C2 C 0.5412(3) 0.8675(3) 0.22945(9)
H2 H 0.456648 0.913862 0.208923
C3 C 0.5916(3) 0.9185(2) 0.27775(8)
H3 H 0.539747 0.998634 0.290203
C4 C 0.7157(3) 0.8546(2) 0.30787(8)
C5 C 0.7888(3) 0.7354(2) 0.28980(10)
H4 H 0.873576 0.688692 0.310081
C6 C 0.7343(3) 0.6855(3) 0.24078(10)
H5 H 0.783567 0.604369 0.228040
C7 C 0.7946(3) 1.0597(2) 0.36071(7)
C8 C 0.8824(3) 1.1287(2) 0.32656(8)
H6 H 0.928935 1.076339 0.301200
C9 C 0.9025(3) 1.2744(2) 0.32936(9)
H7 H 0.961305 1.321295 0.305499
C10 C 0.8379(3) 1.3512(2) 0.36644(8)
H8 H 0.852274 1.450639 0.368289
C11 C 0.7522(3) 1.2826(2) 0.40090(8)
H9 H 0.708183 1.335169 0.426712
C12 C 0.7298(3) 1.1370(2) 0.39812(8)
H10 H 0.670031 1.090635 0.421862
C13 C 0.7799(2) 0.8255(2) 0.39990(8)
C14 C 0.8975(3) 0.8513(2) 0.44026(8)
H11 H 0.970385 0.927878 0.438697
C15 C 0.9079(3) 0.7648(2) 0.48275(8)
H12 H 0.989885 0.781732 0.509877
C16 C 0.8000(3) 0.6528(2) 0.48649(8)
C17 C 0.6811(3) 0.6302(2) 0.44620(8)
H13 H 0.605231 0.556189 0.448372
C18 C 0.6717(3) 0.7130(2) 0.40331(8)
H14 H 0.591595 0.694160 0.375839
C19 C 0.8138(3) 0.5647(2) 0.53156(8)
H15 H 0.895526 0.586561 0.558252
C20 C 0.7381(2) 0.3890(2) 0.58419(8)
C21 C 0.7609(3) 0.4587(3) 0.63001(8)
H16 H 0.767212 0.558872 0.630476
C22 C 0.7748(3) 0.3838(3) 0.67625(9)
H17 H 0.789644 0.434179 0.707449
C23 C 0.7674(3) 0.2405(3) 0.67692(9)
H18 H 0.779837 0.191213 0.708375
C24 C 0.7412(3) 0.1646(2) 0.63064(8)
C25 C 0.7225(2) 0.2393(2) 0.58385(8)
C26 C 0.6885(3) 0.1602(2) 0.53887(8)
H19 H 0.671936 0.206443 0.506878
C27 C 0.6795(3) 0.0168(3) 0.54162(9)
H20 H 0.656509 -0.038042 0.511651
C28 C 0.7046(3) -0.0485(3) 0.58924(10)
H21 H 0.701029 -0.148715 0.590308
loop_
_geom_bond_atom_site_label_1
_geom_bond_atom_site_label_2
_geom_bond_site_symmetry_1
_geom_bond_site_symmetry_2
N1 C4 1_555 1_555
N2 C19 1_555 1_555
N3 C24 1_555 1_555
C1 H1 1_555 1_555
C2 C1 1_555 1_555
H2 C2 1_555 1_555
C3 C2 1_555 1_555
H3 C3 1_555 1_555
C4 C3 1_555 1_555
C5 C4 1_555 1_555
H4 C5 1_555 1_555
C6 C1 1_555 1_555
H5 C6 1_555 1_555
C7 N1 1_555 1_555
C8 C7 1_555 1_555
H6 C8 1_555 1_555
C9 C8 1_555 1_555
H7 C9 1_555 1_555
C10 C9 1_555 1_555
H8 C10 1_555 1_555
C11 C10 1_555 1_555
H9 C11 1_555 1_555
C12 C7 1_555 1_555
H10 C12 1_555 1_555
C13 N1 1_555 1_555
C14 C13 1_555 1_555
H11 C14 1_555 1_555
C15 C14 1_555 1_555
H12 C15 1_555 1_555
C16 C15 1_555 1_555
C17 C16 1_555 1_555
H13 C17 1_555 1_555
C18 C13 1_555 1_555
H14 C18 1_555 1_555
C19 C16 1_555 1_555
H15 C19 1_555 1_555
C20 N2 1_555 1_555
C21 C20 1_555 1_555
H16 C21 1_555 1_555
C22 C21 1_555 1_555
H17 C22 1_555 1_555
C23 C22 1_555 1_555
H18 C23 1_555 1_555
C24 C23 1_555 1_555
C25 C20 1_555 1_555
C26 C25 1_555 1_555
H19 C26 1_555 1_555
C27 C26 1_555 1_555
H20 C27 1_555 1_555
C28 N3 1_555 1_555
H21 C28 1_555 1_555
C5 C6 1_555 1_555
C11 C12 1_555 1_555
C17 C18 1_555 1_555
C24 C25 1_555 1_555
C27 C28 1_555 1_555

#END
