
#######################################################################
#
#                 Cambridge Crystallographic Data Centre
#                                CCDC 
#
#######################################################################
#
# If this CIF has been generated from an entry in the Cambridge 
# Structural Database, then it will include bibliographic, chemical, 
# crystal, experimental, refinement or atomic coordinate data resulting 
# from the CCDC's data processing and validation procedures.
#
#######################################################################

data_GECSUE
_chemical_formula_moiety         'C14 H24 B10'
_chemical_name_systematic        
3-t-butylnaphtho(1,2)-1,2-dicarba-closo-dodecaborane
_symmetry_cell_setting           triclinic
_symmetry_space_group_name_H-M   'P -1'
_symmetry_Int_Tables_number      2
_space_group_name_Hall           '-P 1'
loop_
_symmetry_equiv_pos_site_id
_symmetry_equiv_pos_as_xyz
1 x,y,z
2 -x,-y,-z
_cell_length_a                   7.2687(9)
_cell_length_b                   9.1946(11)
_cell_length_c                   13.8045(16)
_cell_angle_alpha                79.501(2)
_cell_angle_beta                 82.865(2)
_cell_angle_gamma                83.347(2)
_cell_volume                     896.004
_exptl_crystal_colour            colorless
_exptl_crystal_description       block
_cell_formula_units_Z            2
loop_
_atom_site_label
_atom_site_type_symbol
_atom_site_fract_x
_atom_site_fract_y
_atom_site_fract_z
C1 C 0.7901(3) 0.3512(2) 0.71860(16)
C2 C 0.9200(3) 0.3478(3) 0.81304(17)
C3 C 0.8038(3) 0.2070(2) 0.67817(17)
C4 C 0.6716(3) 0.1823(3) 0.60434(18)
C5 C 0.6173(5) 0.3156(4) 0.5272(2)
H1 H 0.7273 0.3498 0.4878
H2 H 0.5539 0.3939 0.5597
H3 H 0.5364 0.2875 0.4853
C6 C 0.7544(5) 0.0579(3) 0.5471(2)
H4 H 0.8662 0.0868 0.5070
H5 H 0.6659 0.0403 0.5054
H6 H 0.7830 -0.0312 0.5931
C7 C 0.4932(4) 0.1274(4) 0.6678(3)
H7 H 0.4353 0.2027 0.7045
H8 H 0.5260 0.0383 0.7129
H9 H 0.4080 0.1071 0.6251
C8 C 0.9215(4) 0.0938(3) 0.7168(2)
H10 H 0.9302 0.0084 0.6887
C9 C 1.0368(3) 0.0866(3) 0.79639(19)
C10 C 1.1477(4) -0.0448(3) 0.8280(2)
H11 H 1.1497 -0.1261 0.7963
C11 C 1.2540(4) -0.0547(4) 0.9056(2)
H12 H 1.3279 -0.1420 0.9255
C12 C 1.2508(4) 0.0645(4) 0.9537(2)
H13 H 1.3210 0.0569 1.0066
C13 C 1.1441(4) 0.1947(3) 0.9235(2)
H14 H 1.1438 0.2753 0.9556
C14 C 1.0368(3) 0.2065(3) 0.84552(17)
B1 B 0.9889(4) 0.4472(3) 0.6980(2)
H15 H 1.1146 0.4157 0.6504
B2 B 0.7808(4) 0.5279(3) 0.6490(2)
H16 H 0.7718 0.5508 0.5686
B3 B 0.5898(4) 0.4666(3) 0.7356(2)
H17 H 0.4563 0.4497 0.7114
B4 B 0.6807(4) 0.3487(3) 0.8386(2)
H18 H 0.6087 0.2546 0.8811
B5 B 1.0002(4) 0.5163(3) 0.8091(2)
H19 H 1.1344 0.5309 0.8334
B6 B 0.9087(5) 0.6339(3) 0.7065(2)
H20 H 0.9825 0.7269 0.6638
B7 B 0.6624(5) 0.6462(3) 0.7290(3)
H21 H 0.5752 0.7472 0.7006
B8 B 0.6021(4) 0.5362(4) 0.8461(2)
H22 H 0.4762 0.5659 0.8942
B9 B 0.8106(4) 0.4554(4) 0.8955(2)
H23 H 0.8217 0.4305 0.9757
B10 B 0.7985(5) 0.6396(4) 0.8282(3)
H24 H 0.8004 0.7363 0.8646
loop_
_geom_bond_atom_site_label_1
_geom_bond_atom_site_label_2
_geom_bond_site_symmetry_1
_geom_bond_site_symmetry_2
C1 C2 1_555 1_555
C2 C14 1_555 1_555
C3 C1 1_555 1_555
C4 C3 1_555 1_555
C5 C4 1_555 1_555
H1 C5 1_555 1_555
H2 C5 1_555 1_555
H3 C5 1_555 1_555
C6 C4 1_555 1_555
H4 C6 1_555 1_555
H5 C6 1_555 1_555
H6 C6 1_555 1_555
C7 C4 1_555 1_555
H7 C7 1_555 1_555
H8 C7 1_555 1_555
H9 C7 1_555 1_555
C8 C3 1_555 1_555
H10 C8 1_555 1_555
C9 C8 1_555 1_555
C10 C9 1_555 1_555
H11 C10 1_555 1_555
C11 C10 1_555 1_555
H12 C11 1_555 1_555
C12 C11 1_555 1_555
H13 C12 1_555 1_555
C13 C12 1_555 1_555
H14 C13 1_555 1_555
C14 C9 1_555 1_555
B1 C1 1_555 1_555
H15 B1 1_555 1_555
B2 C1 1_555 1_555
H16 B2 1_555 1_555
B3 C1 1_555 1_555
H17 B3 1_555 1_555
B4 C1 1_555 1_555
H18 B4 1_555 1_555
B5 C2 1_555 1_555
H19 B5 1_555 1_555
B6 B1 1_555 1_555
H20 B6 1_555 1_555
B7 B2 1_555 1_555
H21 B7 1_555 1_555
B8 B3 1_555 1_555
H22 B8 1_555 1_555
B9 C2 1_555 1_555
H23 B9 1_555 1_555
B10 B5 1_555 1_555
H24 B10 1_555 1_555
C2 B1 1_555 1_555
C2 B4 1_555 1_555
C13 C14 1_555 1_555
B1 B2 1_555 1_555
B1 B5 1_555 1_555
B2 B3 1_555 1_555
B2 B6 1_555 1_555
B3 B4 1_555 1_555
B3 B7 1_555 1_555
B4 B8 1_555 1_555
B4 B9 1_555 1_555
B5 B6 1_555 1_555
B5 B9 1_555 1_555
B6 B7 1_555 1_555
B6 B10 1_555 1_555
B7 B8 1_555 1_555
B7 B10 1_555 1_555
B8 B9 1_555 1_555
B8 B10 1_555 1_555
B9 B10 1_555 1_555

#END
