
#######################################################################
#
#                 Cambridge Crystallographic Data Centre
#                                CCDC 
#
#######################################################################
#
# If this CIF has been generated from an entry in the Cambridge 
# Structural Database, then it will include bibliographic, chemical, 
# crystal, experimental, refinement or atomic coordinate data resulting 
# from the CCDC's data processing and validation procedures.
#
#######################################################################

data_GECTUG
_chemical_formula_moiety         'C16 H16 N2 O1'
_chemical_name_systematic        
N-methyl-N'-(1-phenylethylidene)benzohydrazide
_symmetry_cell_setting           triclinic
_symmetry_space_group_name_H-M   'P -1'
_symmetry_Int_Tables_number      2
_space_group_name_Hall           '-P 1'
loop_
_symmetry_equiv_pos_site_id
_symmetry_equiv_pos_as_xyz
1 x,y,z
2 -x,-y,-z
_cell_length_a                   8.0852(5)
_cell_length_b                   10.0984(6)
_cell_length_c                   17.1492(12)
_cell_angle_alpha                77.989(3)
_cell_angle_beta                 88.817(3)
_cell_angle_gamma                83.247(4)
_cell_volume                     1360.03
_exptl_crystal_colour            colorless
_exptl_crystal_description       prism
_cell_formula_units_Z            4
loop_
_atom_site_label
_atom_site_type_symbol
_atom_site_fract_x
_atom_site_fract_y
_atom_site_fract_z
C1 C 0.1448(3) 0.2591(2) -0.08299(14)
C2 C -0.0051(3) 0.2697(3) -0.04249(15)
H1 H -0.0049 0.2622 0.0137
C3 C -0.1547(3) 0.2911(3) -0.08333(17)
H2 H -0.2569 0.2997 -0.0555
C4 C -0.1552(3) 0.3001(3) -0.16518(17)
H3 H -0.2579 0.3136 -0.1932
C5 C -0.0072(3) 0.2895(3) -0.20582(16)
H4 H -0.0081 0.2945 -0.2617
C6 C 0.1431(3) 0.2716(3) -0.16537(15)
H5 H 0.2450 0.2679 -0.1939
C7 C 0.3097(3) 0.2471(2) -0.04190(14)
C8 C 0.2579(3) 0.0290(3) 0.04895(16)
H6 H 0.1685 0.0311 0.0108
H7 H 0.2127 0.0149 0.1031
H8 H 0.3447 -0.0458 0.0451
C9 C 0.5176(3) 0.2510(2) 0.09611(13)
C10 C 0.4021(3) 0.3778(3) 0.09473(15)
H9 H 0.4307 0.4490 0.0500
H10 H 0.4124 0.4083 0.1449
H11 H 0.2874 0.3594 0.0884
C11 C 0.6861(3) 0.2374(2) 0.13205(13)
C12 C 0.7602(3) 0.3540(3) 0.13832(14)
H12 H 0.7015 0.4420 0.1204
C13 C 0.9186(3) 0.3408(3) 0.17057(16)
H13 H 0.9692 0.4199 0.1736
C14 C 1.0029(3) 0.2136(3) 0.19825(16)
H14 H 1.1106 0.2049 0.2212
C15 C 0.9304(3) 0.0982(3) 0.19254(16)
H15 H 0.9883 0.0104 0.2118
C16 C 0.7748(3) 0.1107(3) 0.15910(15)
H16 H 0.7274 0.0310 0.1545
N1 N 0.3297(2) 0.1588(2) 0.03066(12)
N2 N 0.4856(2) 0.1457(2) 0.06964(12)
O1 O 0.4161(2) 0.32001(18) -0.07035(10)
C17 C 0.6726(3) 0.1843(2) 0.58489(14)
C18 C 0.5211(3) 0.2272(3) 0.54464(15)
H17 H 0.5200 0.2673 0.4894
C19 C 0.3728(3) 0.2113(3) 0.58519(16)
H18 H 0.2699 0.2413 0.5577
C20 C 0.3735(3) 0.1519(3) 0.66546(16)
H19 H 0.2712 0.1398 0.6928
C21 C 0.5223(3) 0.1104(3) 0.70587(16)
H20 H 0.5224 0.0698 0.7611
C22 C 0.6716(3) 0.1277(3) 0.66630(15)
H21 H 0.7738 0.1010 0.6947
C23 C 0.8361(3) 0.2077(2) 0.54540(15)
C24 C 0.7854(3) 0.0736(3) 0.44253(16)
H22 H 0.8696 -0.0050 0.4439
H23 H 0.7456 0.1085 0.3877
H24 H 0.6918 0.0458 0.4768
C25 C 1.0391(3) 0.3256(3) 0.40690(14)
C26 C 0.9132(3) 0.4473(3) 0.40440(17)
H25 H 0.8040 0.4172 0.4197
H26 H 0.9068 0.5032 0.3503
H27 H 0.9461 0.5012 0.4416
C27 C 1.2070(3) 0.3464(2) 0.37210(13)
C28 C 1.2705(3) 0.4709(3) 0.36582(14)
H28 H 1.2053 0.5444 0.3826
C29 C 1.4280(3) 0.4875(3) 0.33522(15)
H29 H 1.4712 0.5719 0.3321
C30 C 1.5224(3) 0.3835(3) 0.30936(15)
H30 H 1.6300 0.3962 0.2879
C31 C 1.4605(3) 0.2599(3) 0.31450(15)
H31 H 1.5249 0.1882 0.2955
C32 C 1.3056(3) 0.2403(3) 0.34704(14)
H32 H 1.2659 0.1540 0.3524
N3 N 0.8589(2) 0.1805(2) 0.47110(12)
N4 N 1.0167(2) 0.2010(2) 0.43462(12)
O2 O 0.9408(2) 0.25761(19) 0.57771(11)
loop_
_geom_bond_atom_site_label_1
_geom_bond_atom_site_label_2
_geom_bond_site_symmetry_1
_geom_bond_site_symmetry_2
C1 C2 1_555 1_555
C2 H1 1_555 1_555
C3 C2 1_555 1_555
H2 C3 1_555 1_555
C4 C3 1_555 1_555
H3 C4 1_555 1_555
C5 C4 1_555 1_555
H4 C5 1_555 1_555
C6 C1 1_555 1_555
H5 C6 1_555 1_555
C7 C1 1_555 1_555
C8 H6 1_555 1_555
H7 C8 1_555 1_555
H8 C8 1_555 1_555
C9 C10 1_555 1_555
C10 H9 1_555 1_555
H10 C10 1_555 1_555
H11 C10 1_555 1_555
C11 C9 1_555 1_555
C12 C11 1_555 1_555
H12 C12 1_555 1_555
C13 C12 1_555 1_555
H13 C13 1_555 1_555
C14 C13 1_555 1_555
H14 C14 1_555 1_555
C15 C14 1_555 1_555
H15 C15 1_555 1_555
C16 C11 1_555 1_555
H16 C16 1_555 1_555
N1 C7 1_555 1_555
N2 C9 1_555 1_555
O1 C7 1_555 1_555
C17 C18 1_555 1_555
C18 H17 1_555 1_555
C19 C18 1_555 1_555
H18 C19 1_555 1_555
C20 C19 1_555 1_555
H19 C20 1_555 1_555
C21 C20 1_555 1_555
H20 C21 1_555 1_555
C22 C17 1_555 1_555
H21 C22 1_555 1_555
C23 C17 1_555 1_555
C24 H22 1_555 1_555
H23 C24 1_555 1_555
H24 C24 1_555 1_555
C25 C26 1_555 1_555
C26 H25 1_555 1_555
H26 C26 1_555 1_555
H27 C26 1_555 1_555
C27 C25 1_555 1_555
C28 C27 1_555 1_555
H28 C28 1_555 1_555
C29 C28 1_555 1_555
H29 C29 1_555 1_555
C30 C29 1_555 1_555
H30 C30 1_555 1_555
C31 C30 1_555 1_555
H31 C31 1_555 1_555
C32 C27 1_555 1_555
H32 C32 1_555 1_555
N3 C23 1_555 1_555
N4 C25 1_555 1_555
O2 C23 1_555 1_555
C5 C6 1_555 1_555
C8 N1 1_555 1_555
C15 C16 1_555 1_555
N1 N2 1_555 1_555
C21 C22 1_555 1_555
C24 N3 1_555 1_555
C31 C32 1_555 1_555
N3 N4 1_555 1_555

#END
