
#######################################################################
#
#                 Cambridge Crystallographic Data Centre
#                                CCDC 
#
#######################################################################
#
# If this CIF has been generated from an entry in the Cambridge 
# Structural Database, then it will include bibliographic, chemical, 
# crystal, experimental, refinement or atomic coordinate data resulting 
# from the CCDC's data processing and validation procedures.
#
#######################################################################

data_GEDLOR
_chemical_formula_moiety         'C5 H8 N3 O2 1+,C1 F3 O3 S1 1-'
_chemical_name_systematic        
'1,3-Dimethyl-2-nitroimidazolium trifluoromethanesulfonate'
_symmetry_cell_setting           monoclinic
_symmetry_space_group_name_H-M   'P 21/c'
_symmetry_Int_Tables_number      14
_space_group_name_Hall           '-P 2ybc'
loop_
_symmetry_equiv_pos_site_id
_symmetry_equiv_pos_as_xyz
1 x,y,z
2 -x,1/2+y,1/2-z
3 -x,-y,-z
4 x,1/2-y,1/2+z
_cell_length_a                   6.882(3)
_cell_length_b                   11.924(5)
_cell_length_c                   13.324(6)
_cell_angle_alpha                90
_cell_angle_beta                 96.911(6)
_cell_angle_gamma                90
_cell_volume                     1085.44
_exptl_crystal_colour            colorless
_exptl_crystal_description       needle
_chemical_melting_point          '112-114 deg.C'
_cell_formula_units_Z            4
_exptl_crystal_recrystallization_method 'methanol/diethyl ether'
loop_
_atom_site_label
_atom_site_type_symbol
_atom_site_fract_x
_atom_site_fract_y
_atom_site_fract_z
S1 S 0.76371(8) 0.26196(4) 0.13295(4)
F1 F 0.3836(2) 0.24186(12) 0.08093(12)
F2 F 0.5494(2) 0.09221(11) 0.06287(12)
F3 F 0.5558(2) 0.22751(12) -0.04261(10)
O3 O 0.7286(3) 0.23193(15) 0.23373(13)
O4 O 0.9244(2) 0.20629(16) 0.09577(15)
O5 O 0.7487(2) 0.38025(12) 0.11197(12)
C6 C 0.5522(3) 0.20383(18) 0.05468(17)
O1 O -0.0512(3) 0.62459(13) 0.10094(12)
O2 O -0.2375(2) 0.61659(13) 0.22164(13)
N1 N 0.2035(3) 0.47239(14) 0.20258(13)
N2 N 0.0039(3) 0.45473(14) 0.31806(13)
N3 N -0.0929(3) 0.58998(14) 0.18179(14)
C1 C 0.0378(3) 0.50881(16) 0.23418(15)
C2 C 0.1532(3) 0.37983(17) 0.33968(17)
H1 H 0.153(3) 0.333(2) 0.3951(19)
C3 C 0.2768(4) 0.39063(18) 0.26912(17)
H2 H 0.392(4) 0.354(2) 0.2591(17)
C4 C 0.3013(4) 0.5112(2) 0.1158(2)
H3 H 0.318(3) 0.590(2) 0.1207(18)
H4 H 0.430(4) 0.473(2) 0.119(2)
H5 H 0.220(4) 0.492(2) 0.052(2)
C5 C -0.1602(4) 0.4668(2) 0.3782(2)
H6 H -0.134(4) 0.415(2) 0.435(2)
H7 H -0.279(4) 0.448(2) 0.339(2)
H8 H -0.162(4) 0.545(3) 0.403(2)
loop_
_geom_bond_atom_site_label_1
_geom_bond_atom_site_label_2
_geom_bond_site_symmetry_1
_geom_bond_site_symmetry_2
S1 O3 1_555 1_555
F1 C6 1_555 1_555
F2 C6 1_555 1_555
F3 C6 1_555 1_555
O1 N3 1_555 1_555
O2 N3 1_555 1_555
O4 S1 1_555 1_555
O5 S1 1_555 1_555
N1 C1 1_555 1_555
N2 C1 1_555 1_555
N3 C1 1_555 1_555
C2 N2 1_555 1_555
H1 C2 1_555 1_555
C3 N1 1_555 1_555
H2 C3 1_555 1_555
C4 N1 1_555 1_555
H3 C4 1_555 1_555
H4 C4 1_555 1_555
H5 C4 1_555 1_555
C5 N2 1_555 1_555
H6 C5 1_555 1_555
H7 C5 1_555 1_555
H8 C5 1_555 1_555
C6 S1 1_555 1_555
C2 C3 1_555 1_555

#END
