
#######################################################################
#
#                 Cambridge Crystallographic Data Centre
#                                CCDC 
#
#######################################################################
#
# If this CIF has been generated from an entry in the Cambridge 
# Structural Database, then it will include bibliographic, chemical, 
# crystal, experimental, refinement or atomic coordinate data resulting 
# from the CCDC's data processing and validation procedures.
#
#######################################################################

data_GEDLAD
_chemical_formula_moiety         'C5 H8 N3 O2 1+,C1 H3 O4 S1 1-'
_chemical_name_systematic        
'1,3-Dimethyl-4-nitroimidazolium methyl sulfate'
_symmetry_cell_setting           monoclinic
_symmetry_space_group_name_H-M   'P 21/n'
_symmetry_Int_Tables_number      14
_space_group_name_Hall           '-P 2yn'
loop_
_symmetry_equiv_pos_site_id
_symmetry_equiv_pos_as_xyz
1 x,y,z
2 1/2-x,1/2+y,1/2-z
3 -x,-y,-z
4 1/2+x,1/2-y,1/2+z
_cell_length_a                   8.366(3)
_cell_length_b                   11.036(4)
_cell_length_c                   11.379(4)
_cell_angle_alpha                90
_cell_angle_beta                 100.580(6)
_cell_angle_gamma                90
_cell_volume                     1032.73
_exptl_crystal_colour            colorless
_exptl_crystal_description       needle
_chemical_melting_point          '101-103 deg.C'
_cell_formula_units_Z            4
_exptl_crystal_recrystallization_method 'methanol/diethyl ether'
loop_
_atom_site_label
_atom_site_type_symbol
_atom_site_fract_x
_atom_site_fract_y
_atom_site_fract_z
S1 S 0.30772(8) 0.78152(6) 0.16212(6)
O3 O 0.3916(2) 0.74255(18) 0.29499(16)
O4 O 0.4304(2) 0.84388(19) 0.11285(17)
O5 O 0.1763(2) 0.85703(17) 0.18534(16)
O6 O 0.2535(2) 0.67088(19) 0.09973(18)
C6 C 0.5304(4) 0.6636(4) 0.3029(3)
H9 H 0.607(5) 0.700(3) 0.255(3)
H10 H 0.509(4) 0.584(4) 0.268(3)
H11 H 0.579(4) 0.655(3) 0.378(3)
O1 O -0.6021(2) 0.63795(19) -0.15964(17)
O2 O -0.5355(2) 0.8288(2) -0.15323(17)
N1 N -0.1691(2) 0.5961(2) 0.07029(18)
N2 N -0.2568(3) 0.7772(2) 0.01513(18)
N3 N -0.5125(3) 0.7232(2) -0.12264(19)
C1 C -0.1372(3) 0.7146(3) 0.0810(2)
H1 H -0.040(4) 0.749(3) 0.123(2)
C2 C -0.3675(3) 0.6933(3) -0.0393(2)
C3 C -0.3140(3) 0.5805(3) -0.0061(2)
H2 H -0.351(3) 0.500(3) -0.029(2)
C4 C -0.0683(4) 0.4983(3) 0.1341(3)
H3 H -0.103(3) 0.475(2) 0.212(2)
H4 H -0.083(3) 0.430(3) 0.082(3)
H5 H 0.048(4) 0.526(3) 0.150(3)
C5 C -0.2564(4) 0.9100(3) 0.0059(3)
H6 H -0.153(4) 0.940(3) 0.058(3)
H7 H -0.257(4) 0.931(3) -0.072(3)
H8 H -0.354(4) 0.939(3) 0.028(3)
loop_
_geom_bond_atom_site_label_1
_geom_bond_atom_site_label_2
_geom_bond_site_symmetry_1
_geom_bond_site_symmetry_2
S1 O3 1_555 1_555
O1 N3 1_555 1_555
O2 N3 1_555 1_555
O3 C6 1_555 1_555
O4 S1 1_555 1_555
O5 S1 1_555 1_555
O6 S1 1_555 1_555
N1 C1 1_555 1_555
N2 C1 1_555 1_555
N3 C2 1_555 1_555
C1 H1 1_555 1_555
C2 N2 1_555 1_555
C3 N1 1_555 1_555
H2 C3 1_555 1_555
C4 N1 1_555 1_555
H3 C4 1_555 1_555
H4 C4 1_555 1_555
H5 C4 1_555 1_555
C5 N2 1_555 1_555
H6 C5 1_555 1_555
H7 C5 1_555 1_555
H8 C5 1_555 1_555
C6 H9 1_555 1_555
H10 C6 1_555 1_555
H11 C6 1_555 1_555
C2 C3 1_555 1_555

#END
