
#######################################################################
#
#                 Cambridge Crystallographic Data Centre
#                                CCDC 
#
#######################################################################
#
# If this CIF has been generated from an entry in the Cambridge 
# Structural Database, then it will include bibliographic, chemical, 
# crystal, experimental, refinement or atomic coordinate data resulting 
# from the CCDC's data processing and validation procedures.
#
#######################################################################

data_GEDZUN
_chemical_formula_moiety         'C15 H10 O3'
_chemical_name_systematic        3-(2-hydroxyphenyl)-2H-1-benzopyran-2-one
_symmetry_cell_setting           orthorhombic
_symmetry_space_group_name_H-M   'P 21 21 21'
_symmetry_Int_Tables_number      19
_space_group_name_Hall           'P 2ac 2ab'
loop_
_symmetry_equiv_pos_site_id
_symmetry_equiv_pos_as_xyz
1 x,y,z
2 1/2-x,-y,1/2+z
3 -x,1/2+y,1/2-z
4 1/2+x,1/2-y,-z
_cell_length_a                   5.8423(6)
_cell_length_b                   10.7141(10)
_cell_length_c                   17.7750(18)
_cell_angle_alpha                90
_cell_angle_beta                 90
_cell_angle_gamma                90
_cell_volume                     1112.63
_exptl_crystal_colour            colorless
_exptl_crystal_description       block
_cell_formula_units_Z            4
loop_
_atom_site_label
_atom_site_type_symbol
_atom_site_fract_x
_atom_site_fract_y
_atom_site_fract_z
O1 O 0.8953(3) 0.49762(15) 0.28041(8)
O2 O 0.8101(3) 0.47541(14) 0.40025(8)
O3 O 0.8810(3) 0.21660(15) 0.24739(9)
H1 H 0.950207 0.154530 0.229628
C1 C 0.6582(4) 0.44354(19) 0.45626(11)
C2 C 0.7230(4) 0.4704(2) 0.52982(11)
H2 H 0.865834 0.508948 0.540308
C3 C 0.5739(4) 0.4394(2) 0.58721(11)
H3 H 0.615505 0.456232 0.637867
C4 C 0.3626(4) 0.3836(2) 0.57176(11)
H4 H 0.261695 0.362929 0.611778
C5 C 0.3007(4) 0.35842(19) 0.49819(12)
H5 H 0.156136 0.321682 0.487803
C6 C 0.4503(4) 0.38685(19) 0.43877(11)
C7 C 0.4090(4) 0.35253(19) 0.36169(12)
H6 H 0.269768 0.312013 0.348786
C8 C 0.5641(4) 0.37677(19) 0.30736(11)
C9 C 0.5417(4) 0.33137(19) 0.22885(11)
C10 C 0.3539(4) 0.3620(2) 0.18462(12)
H7 H 0.239345 0.416280 0.203810
C11 C 0.3326(4) 0.3133(2) 0.11208(12)
H8 H 0.203565 0.334159 0.082069
C12 C 0.4992(5) 0.2347(2) 0.08408(12)
H9 H 0.484970 0.202652 0.034481
C13 C 0.6870(4) 0.2021(2) 0.12741(12)
H10 H 0.801326 0.148315 0.107581
C14 C 0.7071(4) 0.2491(2) 0.20068(11)
C15 C 0.7648(4) 0.4520(2) 0.32553(11)
loop_
_geom_bond_atom_site_label_1
_geom_bond_atom_site_label_2
_geom_bond_site_symmetry_1
_geom_bond_site_symmetry_2
O1 C15 1_555 1_555
O2 C1 1_555 1_555
O3 H1 1_555 1_555
C1 C2 1_555 1_555
C2 H2 1_555 1_555
C3 C2 1_555 1_555
H3 C3 1_555 1_555
C4 C3 1_555 1_555
H4 C4 1_555 1_555
C5 C4 1_555 1_555
H5 C5 1_555 1_555
C6 C1 1_555 1_555
C7 C6 1_555 1_555
H6 C7 1_555 1_555
C8 C7 1_555 1_555
C9 C8 1_555 1_555
C10 C9 1_555 1_555
H7 C10 1_555 1_555
C11 C10 1_555 1_555
H8 C11 1_555 1_555
C12 C11 1_555 1_555
H9 C12 1_555 1_555
C13 C12 1_555 1_555
H10 C13 1_555 1_555
C14 O3 1_555 1_555
C15 O2 1_555 1_555
C5 C6 1_555 1_555
C8 C15 1_555 1_555
C9 C14 1_555 1_555
C13 C14 1_555 1_555

#END
