
#######################################################################
#
#                 Cambridge Crystallographic Data Centre
#                                CCDC 
#
#######################################################################
#
# If this CIF has been generated from an entry in the Cambridge 
# Structural Database, then it will include bibliographic, chemical, 
# crystal, experimental, refinement or atomic coordinate data resulting 
# from the CCDC's data processing and validation procedures.
#
#######################################################################

data_GEFGOQ
_chemical_formula_moiety         'C27 H36 O8'
_chemical_name_systematic        
"3-{3'-[3-hydroxy-1-(methoxymethoxy)propyl]-4'-oxo-7'H-spiro[1,3-dioxolane-2,8'-tricyclo[4.3.1.0^3,7^]decan]-7'-yl}propyl benzoate unknown solvate"
_symmetry_cell_setting           triclinic
_symmetry_space_group_name_H-M   'P -1'
_symmetry_Int_Tables_number      2
_space_group_name_Hall           '-P 1'
loop_
_symmetry_equiv_pos_site_id
_symmetry_equiv_pos_as_xyz
1 x,y,z
2 -x,-y,-z
_cell_length_a                   12.3565(9)
_cell_length_b                   15.4538(10)
_cell_length_c                   17.0147(12)
_cell_angle_alpha                83.811(6)
_cell_angle_beta                 75.257(6)
_cell_angle_gamma                80.638(6)
_cell_volume                     3092.7
_exptl_crystal_colour            colorless
_exptl_crystal_description       block
_chemical_melting_point          '323 K'
_cell_formula_units_Z            4
_exptl_crystal_recrystallization_method 'petroleum ether/ethyl acetate'
loop_
_atom_site_label
_atom_site_type_symbol
_atom_site_fract_x
_atom_site_fract_y
_atom_site_fract_z
O1 O 0.7451(2) 0.85032(15) -0.18414(15)
O2 O 0.3246(2) 0.73163(16) 0.01844(16)
O3 O 0.4703(2) 0.62202(14) -0.00199(14)
O4 O 0.5056(2) 0.75598(14) 0.19774(13)
O5 O 0.6029(3) 0.7921(2) 0.2791(2)
O6 O 0.7416(2) 0.52789(16) -0.23697(17)
H1 H 0.7662 0.4831 -0.2614
O7 O 0.7507(2) 0.68573(15) -0.05637(14)
O8 O 0.8037(4) 0.5413(2) -0.0068(3)
C1 C 0.6098(3) 0.74671(18) -0.13086(16)
C2 C 0.5631(3) 0.7320(2) -0.2055(2)
H2 H 0.5919 0.7722 -0.2510
H3 H 0.5907 0.6726 -0.2217
C3 C 0.4366(3) 0.7460(3) -0.1867(2)
H4 H 0.4106 0.7377 -0.2348
C4 C 0.3921(4) 0.8381(3) -0.1586(3)
H5 H 0.4071 0.8809 -0.2047
H6 H 0.3109 0.8434 -0.1368
C5 C 0.4478(3) 0.8573(2) -0.0938(2)
H7 H 0.3925 0.8896 -0.0510
C6 C 0.5051(3) 0.76892(19) -0.05599(18)
C7 C 0.5519(3) 0.9069(2) -0.1284(2)
H8 H 0.5415 0.9460 -0.1753
H9 H 0.5630 0.9413 -0.0874
C8 C 0.6503(3) 0.83694(19) -0.15221(18)
C9 C 0.3956(4) 0.6784(3) -0.1169(2)
H10 H 0.3145 0.6797 -0.1075
H11 H 0.4319 0.6198 -0.1313
C10 C 0.4243(3) 0.7001(2) -0.0396(2)
C11 C 0.5410(3) 0.78399(19) 0.01969(17)
H12 H 0.6111 0.8089 0.0023
H13 H 0.5573 0.7271 0.0476
C12 C 0.4576(4) 0.8436(2) 0.08208(19)
H14 H 0.4467 0.9030 0.0576
H15 H 0.3850 0.8223 0.0980
C13 C 0.5044(4) 0.8437(2) 0.1572(2)
H16 H 0.5803 0.8592 0.1410
H17 H 0.4570 0.8864 0.1937
C14 C 0.5571(3) 0.7390(2) 0.2581(2)
C15 C 0.5494(3) 0.6497(2) 0.2970(2)
C16 C 0.5018(3) 0.5888(2) 0.2688(2)
H18 H 0.4729 0.6036 0.2230
C17 C 0.4964(4) 0.5060(3) 0.3076(3)
H19 H 0.4634 0.4657 0.2879
C18 C 0.5386(3) 0.4828(3) 0.3742(3)
H20 H 0.5356 0.4265 0.3994
C19 C 0.5847(4) 0.5412(3) 0.4036(3)
H21 H 0.6128 0.5254 0.4497
C20 C 0.5909(3) 0.6261(3) 0.3653(2)
H22 H 0.6229 0.6663 0.3860
C21 C 0.7016(3) 0.67053(19) -0.12117(18)
H23 H 0.6663 0.6168 -0.1057
C22 C 0.7959(3) 0.6558(2) -0.2001(2)
H24 H 0.7696 0.6872 -0.2458
H25 H 0.8614 0.6803 -0.1958
C23 C 0.8309(3) 0.5597(2) -0.2169(2)
H26 H 0.8977 0.5531 -0.2616
H27 H 0.8488 0.5263 -0.1691
C24 C 0.2876(5) 0.6572(3) 0.0677(3)
H28 H 0.2273 0.6378 0.0502
H29 H 0.2604 0.6708 0.1243
C25 C 0.3859(4) 0.5900(3) 0.0574(3)
H30 H 0.4094 0.5768 0.1081
H31 H 0.3683 0.5366 0.0415
C26 C 0.8309(8) 0.6216(6) -0.0279(5)
C27 C 0.7117(8) 0.5520(7) 0.0815(5)
O9 O 1.1725(2) 0.65013(14) 0.27991(14)
O10 O 1.01006(19) 0.88359(13) 0.51442(13)
O11 O 1.0455(2) 0.77811(15) 0.61138(12)
O12 O 0.72890(18) 0.74175(14) 0.57751(13)
O13 O 0.5739(3) 0.7031(2) 0.5566(2)
O14 O 1.2259(2) 0.97523(16) 0.25389(17)
H32 H 1.2152 1.0290 0.2471
O15 O 0.97771(18) 0.81539(13) 0.32751(12)
O16 O 0.8823(2) 0.95453(17) 0.30159(18)
C28 C 1.1451(2) 0.75749(17) 0.38126(16)
C29 C 1.1652(2) 0.66635(18) 0.34932(19)
C30 C 1.1751(3) 0.5983(2) 0.4184(2)
H33 H 1.2473 0.5607 0.4060
H34 H 1.1150 0.5622 0.4291
C31 C 1.1651(3) 0.6511(2) 0.49102(19)
H35 H 1.1300 0.6191 0.5416
C32 C 1.2668(2) 0.7775(2) 0.37807(19)
H36 H 1.3220 0.7383 0.3421
H37 H 1.2737 0.8373 0.3554
C33 C 1.2926(3) 0.7668(2) 0.4601(2)
H38 H 1.3696 0.7785 0.4556
C34 C 1.2784(3) 0.6763(3) 0.4973(2)
H39 H 1.2806 0.6732 0.5542
H40 H 1.3404 0.6347 0.4697
C35 C 1.2060(3) 0.8318(3) 0.5152(2)
H41 H 1.2247 0.8296 0.5675
H42 H 1.2086 0.8911 0.4903
C36 C 1.0874(3) 0.80780(19) 0.52769(17)
C37 C 1.0840(2) 0.73600(17) 0.47373(16)
C38 C 0.9632(2) 0.71583(18) 0.48353(17)
H43 H 0.9138 0.7716 0.4852
H44 H 0.9619 0.6896 0.4345
C39 C 0.9107(3) 0.6566(2) 0.5560(2)
H45 H 0.9514 0.5975 0.5511
H46 H 0.9182 0.6777 0.6058
C40 C 0.7888(3) 0.6543(2) 0.5614(2)
H47 H 0.7795 0.6370 0.5107
H48 H 0.7594 0.6122 0.6050
C41 C 0.6224(3) 0.7575(2) 0.5726(2)
C42 C 0.5687(3) 0.8498(2) 0.59068(18)
C43 C 0.4565(3) 0.8731(3) 0.5921(3)
H49 H 0.4158 0.8325 0.5807
C44 C 0.4053(4) 0.9544(4) 0.6099(3)
H50 H 0.3286 0.9683 0.6118
C45 C 0.4606(4) 1.0170(3) 0.6251(3)
H51 H 0.4247 1.0742 0.6329
C46 C 0.5731(4) 0.9932(3) 0.6288(3)
H52 H 0.6110 1.0337 0.6437
C47 C 0.6292(3) 0.9095(2) 0.6104(2)
H53 H 0.7048 0.8939 0.6113
C48 C 1.0875(2) 0.83061(18) 0.32978(17)
H54 H 1.0788 0.8860 0.3554
C49 C 1.1577(3) 0.84307(19) 0.24160(17)
H55 H 1.2341 0.8134 0.2383
H56 H 1.1256 0.8152 0.2061
C50 C 1.1631(3) 0.9387(2) 0.2107(2)
H57 H 1.1988 0.9424 0.1529
H58 H 1.0873 0.9709 0.2188
C51 C 0.8890(3) 0.8808(2) 0.3565(2)
H59 H 0.8981 0.8991 0.4069
H60 H 0.8185 0.8565 0.3686
C52 C 0.8485(4) 0.9361(4) 0.2305(3)
H61 H 0.8236 0.9904 0.2030
H62 H 0.7879 0.9012 0.2469
H63 H 0.9116 0.9045 0.1943
C53 C 0.9615(4) 0.9192(3) 0.5902(2)
H64 H 0.8822 0.9412 0.5949
H65 H 0.9998 0.9673 0.5962
C54 C 0.9746(5) 0.8485(3) 0.6515(3)
H66 H 1.0078 0.8672 0.6916
H67 H 0.9016 0.8312 0.6792
H68? H 0.9516 0.5388 0.0248
H69? H 0.9674 0.4977 -0.0584
H70? H 0.6393 0.5415 0.0766
H71? H 0.6684 0.5994 0.0212
H72? H 0.9006 0.6170 -0.0702
H73? H 0.8465 0.6434 0.0189
H74? H 0.7056 0.6105 0.0978
H75? H 0.7617 0.6311 0.0528
H76? H 0.9435 0.6000 -0.0539
C55? C 0.9276(12) 0.5448(9) -0.0252(10)
H77? H 0.7365 0.5103 0.1216
C56? C 0.7462(9) 0.6108(7) 0.0054(5)
loop_
_geom_bond_atom_site_label_1
_geom_bond_atom_site_label_2
_geom_bond_site_symmetry_1
_geom_bond_site_symmetry_2
O1 C8 1_555 1_555
O2 C10 1_555 1_555
O3 C10 1_555 1_555
O4 C13 1_555 1_555
O5 C14 1_555 1_555
O6 H1 1_555 1_555
O7 C21 1_555 1_555
O8 C26 1_555 1_555
C1 C2 1_555 1_555
C2 H2 1_555 1_555
H3 C2 1_555 1_555
C3 C2 1_555 1_555
H4 C3 1_555 1_555
C4 C3 1_555 1_555
H5 C4 1_555 1_555
H6 C4 1_555 1_555
C5 C4 1_555 1_555
H7 C5 1_555 1_555
C6 C1 1_555 1_555
C7 C5 1_555 1_555
H8 C7 1_555 1_555
H9 C7 1_555 1_555
C8 C1 1_555 1_555
C9 C3 1_555 1_555
H10 C9 1_555 1_555
H11 C9 1_555 1_555
C10 C6 1_555 1_555
C11 C6 1_555 1_555
H12 C11 1_555 1_555
H13 C11 1_555 1_555
C12 C11 1_555 1_555
H14 C12 1_555 1_555
H15 C12 1_555 1_555
C13 C12 1_555 1_555
H16 C13 1_555 1_555
H17 C13 1_555 1_555
C14 O4 1_555 1_555
C15 C14 1_555 1_555
C16 C15 1_555 1_555
H18 C16 1_555 1_555
C17 C16 1_555 1_555
H19 C17 1_555 1_555
C18 C17 1_555 1_555
H20 C18 1_555 1_555
C19 C18 1_555 1_555
H21 C19 1_555 1_555
C20 C15 1_555 1_555
H22 C20 1_555 1_555
C21 C1 1_555 1_555
H23 C21 1_555 1_555
C22 C21 1_555 1_555
H24 C22 1_555 1_555
H25 C22 1_555 1_555
C23 O6 1_555 1_555
H26 C23 1_555 1_555
H27 C23 1_555 1_555
C24 O2 1_555 1_555
H28 C24 1_555 1_555
H29 C24 1_555 1_555
C25 O3 1_555 1_555
H30 C25 1_555 1_555
H31 C25 1_555 1_555
C26 O7 1_555 1_555
C27 O8 1_555 1_555
O9 C29 1_555 1_555
O10 C36 1_555 1_555
O11 C36 1_555 1_555
O12 C40 1_555 1_555
O13 C41 1_555 1_555
O14 H32 1_555 1_555
O15 C48 1_555 1_555
O16 C51 1_555 1_555
C28 C29 1_555 1_555
C29 C30 1_555 1_555
C30 H33 1_555 1_555
H34 C30 1_555 1_555
C31 C30 1_555 1_555
H35 C31 1_555 1_555
C32 C28 1_555 1_555
H36 C32 1_555 1_555
H37 C32 1_555 1_555
C33 C32 1_555 1_555
H38 C33 1_555 1_555
C34 C31 1_555 1_555
H39 C34 1_555 1_555
H40 C34 1_555 1_555
C35 C33 1_555 1_555
H41 C35 1_555 1_555
H42 C35 1_555 1_555
C36 C35 1_555 1_555
C37 C28 1_555 1_555
C38 C37 1_555 1_555
H43 C38 1_555 1_555
H44 C38 1_555 1_555
C39 C38 1_555 1_555
H45 C39 1_555 1_555
H46 C39 1_555 1_555
C40 C39 1_555 1_555
H47 C40 1_555 1_555
H48 C40 1_555 1_555
C41 O12 1_555 1_555
C42 C41 1_555 1_555
C43 C42 1_555 1_555
H49 C43 1_555 1_555
C44 C43 1_555 1_555
H50 C44 1_555 1_555
C45 C44 1_555 1_555
H51 C45 1_555 1_555
C46 C45 1_555 1_555
H52 C46 1_555 1_555
C47 C42 1_555 1_555
H53 C47 1_555 1_555
C48 C28 1_555 1_555
H54 C48 1_555 1_555
C49 C48 1_555 1_555
H55 C49 1_555 1_555
H56 C49 1_555 1_555
C50 O14 1_555 1_555
H57 C50 1_555 1_555
H58 C50 1_555 1_555
C51 O15 1_555 1_555
H59 C51 1_555 1_555
H60 C51 1_555 1_555
C52 O16 1_555 1_555
H61 C52 1_555 1_555
H62 C52 1_555 1_555
H63 C52 1_555 1_555
C53 O10 1_555 1_555
H64 C53 1_555 1_555
H65 C53 1_555 1_555
C54 O11 1_555 1_555
H66 C54 1_555 1_555
H67 C54 1_555 1_555
C5 C6 1_555 1_555
C7 C8 1_555 1_555
C9 C10 1_555 1_555
C19 C20 1_555 1_555
C22 C23 1_555 1_555
C24 C25 1_555 1_555
C31 C37 1_555 1_555
C33 C34 1_555 1_555
C36 C37 1_555 1_555
C46 C47 1_555 1_555
C49 C50 1_555 1_555
C53 C54 1_555 1_555

#END
