
#######################################################################
#
#                 Cambridge Crystallographic Data Centre
#                                CCDC 
#
#######################################################################
#
# If this CIF has been generated from an entry in the Cambridge 
# Structural Database, then it will include bibliographic, chemical, 
# crystal, experimental, refinement or atomic coordinate data resulting 
# from the CCDC's data processing and validation procedures.
#
#######################################################################

data_GEFVIY
_chemical_formula_moiety         'C15 H12 Br2 N2 O2'
_chemical_name_systematic        
3-Bromo-N'-(5-bromo-2-methoxybenzylidene)benzohydrazide
_symmetry_cell_setting           monoclinic
_symmetry_space_group_name_H-M   'C 2/c'
_symmetry_Int_Tables_number      15
_space_group_name_Hall           '-C 2yn'
loop_
_symmetry_equiv_pos_site_id
_symmetry_equiv_pos_as_xyz
1 x,y,z
2 -x,y,1/2-z
3 1/2+x,1/2+y,z
4 1/2-x,1/2+y,1/2-z
5 -x,-y,-z
6 x,-y,1/2+z
7 1/2-x,1/2-y,-z
8 1/2+x,1/2-y,1/2+z
_cell_length_a                   34.859(3)
_cell_length_b                   8.5814(6)
_cell_length_c                   25.155(2)
_cell_angle_alpha                90
_cell_angle_beta                 122.966(3)
_cell_angle_gamma                90
_cell_volume                     6313.29
_exptl_crystal_colour            colorless
_exptl_crystal_description       block
_cell_formula_units_Z            16
loop_
_atom_site_label
_atom_site_type_symbol
_atom_site_fract_x
_atom_site_fract_y
_atom_site_fract_z
Br1 Br 0.56499(2) -0.35828(7) 0.64861(3)
Br2 Br 0.70204(2) 0.58663(7) 0.43275(3)
N1 N 0.63380(11) 0.1210(4) 0.58508(16)
N2 N 0.66125(12) 0.2205(4) 0.57675(17)
O1 O 0.51452(10) 0.2929(4) 0.54556(15)
O2 O 0.71526(10) 0.0341(4) 0.60549(14)
C1 C 0.56683(14) 0.0862(5) 0.58568(19)
C2 C 0.52359(15) 0.1439(6) 0.5668(2)
C3 C 0.49270(15) 0.0477(6) 0.5701(2)
H1 H 0.4638 0.0850 0.5571
C4 C 0.50480(18) -0.1019(7) 0.5926(2)
H2 H 0.4838 -0.1666 0.5936
C5 C 0.54801(17) -0.1562(5) 0.6136(2)
C6 C 0.57857(16) -0.0640(5) 0.6096(2)
H3 H 0.6074 -0.1027 0.6232
C7 C 0.59814(14) 0.1812(5) 0.57793(19)
H4 H 0.5919 0.2863 0.5677
C8 C 0.70150(14) 0.1669(5) 0.58793(19)
C9 C 0.72810(15) 0.2817(5) 0.5760(2)
C10 C 0.70624(16) 0.3701(5) 0.5207(2)
H5 H 0.6748 0.3619 0.4922
C11 C 0.73155(19) 0.4697(5) 0.5087(3)
C12 C 0.7780(2) 0.4829(6) 0.5509(3)
H6 H 0.7949 0.5501 0.5422
C13 C 0.79948(18) 0.3973(7) 0.6058(3)
H7 H 0.8307 0.4091 0.6348
C14 C 0.77481(16) 0.2928(6) 0.6182(2)
H8 H 0.7896 0.2312 0.6544
C15 C 0.47205(16) 0.3600(6) 0.5294(3)
H9 H 0.4473 0.3005 0.4960
H10 H 0.4703 0.4654 0.5155
H11 H 0.4699 0.3592 0.5659
H12 H 0.6553(18) 0.3226(18) 0.568(2)
Br3 Br 0.54721(2) 0.67295(8) 0.22657(3)
Br4 Br 0.837405(19) 0.71568(9) 0.73221(3)
N3 N 0.62469(12) 0.7900(4) 0.47620(17)
N4 N 0.65475(12) 0.7762(4) 0.54041(16)
O3 O 0.59289(11) 1.2190(4) 0.40177(15)
O4 O 0.63085(10) 0.5308(4) 0.54121(13)
C16 C 0.59459(14) 0.9517(5) 0.38571(19)
C17 C 0.58281(14) 1.1020(6) 0.3596(2)
C18 C 0.56142(16) 1.1215(7) 0.2945(2)
H13 H 0.5539 1.2209 0.2770
C19 C 0.55139(17) 0.9941(8) 0.2563(2)
H14 H 0.5373 1.0083 0.2128
C20 C 0.56164(16) 0.8468(7) 0.2806(2)
C21 C 0.58335(15) 0.8256(6) 0.3445(2)
H15 H 0.5908 0.7251 0.3610
C22 C 0.62083(14) 0.9276(5) 0.4533(2)
H16 H 0.6350 1.0117 0.4804
C23 C 0.65829(15) 0.6380(5) 0.5686(2)
C24 C 0.69854(15) 0.6235(5) 0.6344(2)
C25 C 0.74141(15) 0.6756(5) 0.6504(2)
H17 H 0.7448 0.7286 0.6209
C26 C 0.77870(15) 0.6476(5) 0.7104(2)
C27 C 0.77443(19) 0.5742(6) 0.7553(2)
H18 H 0.7999 0.5571 0.7958
C28 C 0.7320(2) 0.5265(6) 0.7396(2)
H19 H 0.7286 0.4783 0.7699
C29 C 0.69412(17) 0.5492(6) 0.6791(2)
H20 H 0.6656 0.5139 0.6686
C30 C 0.5799(2) 1.3753(6) 0.3779(3)
H21 H 0.5964 1.4072 0.3592
H22 H 0.5870 1.4444 0.4121
H23 H 0.5477 1.3788 0.3466
H24 H 0.6735(14) 0.858(4) 0.559(2)
loop_
_geom_bond_atom_site_label_1
_geom_bond_atom_site_label_2
_geom_bond_site_symmetry_1
_geom_bond_site_symmetry_2
Br1 C5 1_555 1_555
Br2 C11 1_555 1_555
N1 N2 1_555 1_555
N2 C8 1_555 1_555
O1 C2 1_555 1_555
O2 C8 1_555 1_555
C1 C2 1_555 1_555
C2 C3 1_555 1_555
C3 H1 1_555 1_555
C4 C3 1_555 1_555
H2 C4 1_555 1_555
C5 C4 1_555 1_555
C6 C1 1_555 1_555
H3 C6 1_555 1_555
C7 N1 1_555 1_555
H4 C7 1_555 1_555
C8 C9 1_555 1_555
C9 C10 1_555 1_555
C10 H5 1_555 1_555
C11 C10 1_555 1_555
C12 C11 1_555 1_555
H6 C12 1_555 1_555
C13 C12 1_555 1_555
H7 C13 1_555 1_555
C14 C9 1_555 1_555
H8 C14 1_555 1_555
C15 O1 1_555 1_555
H9 C15 1_555 1_555
H10 C15 1_555 1_555
H11 C15 1_555 1_555
H12 N2 1_555 1_555
Br3 C20 1_555 1_555
Br4 C26 1_555 1_555
N3 N4 1_555 1_555
N4 C23 1_555 1_555
O3 C17 1_555 1_555
O4 C23 1_555 1_555
C16 C17 1_555 1_555
C17 C18 1_555 1_555
C18 H13 1_555 1_555
C19 C18 1_555 1_555
H14 C19 1_555 1_555
C20 C19 1_555 1_555
C21 C16 1_555 1_555
H15 C21 1_555 1_555
C22 N3 1_555 1_555
H16 C22 1_555 1_555
C23 C24 1_555 1_555
C24 C25 1_555 1_555
C25 H17 1_555 1_555
C26 C25 1_555 1_555
C27 C26 1_555 1_555
H18 C27 1_555 1_555
C28 C27 1_555 1_555
H19 C28 1_555 1_555
C29 C24 1_555 1_555
H20 C29 1_555 1_555
C30 O3 1_555 1_555
H21 C30 1_555 1_555
H22 C30 1_555 1_555
H23 C30 1_555 1_555
H24 N4 1_555 1_555
C1 C7 1_555 1_555
C5 C6 1_555 1_555
C13 C14 1_555 1_555
C16 C22 1_555 1_555
C20 C21 1_555 1_555
C28 C29 1_555 1_555

#END
