
#######################################################################
#
#                 Cambridge Crystallographic Data Centre
#                                CCDC 
#
#######################################################################
#
# If this CIF has been generated from an entry in the Cambridge 
# Structural Database, then it will include bibliographic, chemical, 
# crystal, experimental, refinement or atomic coordinate data resulting 
# from the CCDC's data processing and validation procedures.
#
#######################################################################

data_GEGFIJ
_chemical_formula_moiety         'C76 H64 N2 O8,4(C1 H1 Cl3)'
_chemical_name_systematic        
"9,9'-(Dodecane-1,12-diyl)bis(7,11-bis(4-methoxyphenyl)-8H-acenaphtho[1,2-f]isoindole-8,10(9H)-dione) chloroform solvate"
_symmetry_cell_setting           triclinic
_symmetry_space_group_name_H-M   'P -1'
_symmetry_Int_Tables_number      2
_space_group_name_Hall           '-P 1'
loop_
_symmetry_equiv_pos_site_id
_symmetry_equiv_pos_as_xyz
1 x,y,z
2 -x,-y,-z
_cell_length_a                   9.756(2)
_cell_length_b                   13.361(3)
_cell_length_c                   15.794(3)
_cell_angle_alpha                104.18(3)
_cell_angle_beta                 103.41(3)
_cell_angle_gamma                100.78(3)
_cell_volume                     1875.57
_exptl_crystal_colour            yellow
_exptl_crystal_description       line
_cell_formula_units_Z            1
loop_
_atom_site_label
_atom_site_type_symbol
_atom_site_fract_x
_atom_site_fract_y
_atom_site_fract_z
Cl1 Cl 0.8398(3) 0.4657(2) 0.40852(19)
Cl2 Cl 0.6609(4) 0.2595(2) 0.3721(2)
Cl3 Cl 0.5440(4) 0.4438(5) 0.4061(3)
C41 C 0.6543(7) 0.3874(5) 0.3567(5)
Cl7 Cl 0.9275(6) 0.7352(4) 0.5514(4)
Cl8 Cl 0.8928(8) 0.9305(7) 0.6574(6)
Cl9 Cl 1.1078(10) 0.9269(7) 0.5617(6)
C42 C 1.0115(9) 0.8610(5) 0.6263(5)
O1 O 0.6386(4) 0.4746(3) 0.1921(3)
O2 O 0.6167(4) 0.7649(3) 0.0930(3)
O3 O 0.7516(6) 0.9838(3) -0.1674(3)
O4 O 0.8060(5) 0.0986(3) 0.1768(3)
N1 N 0.6173(5) 0.6293(3) 0.1591(3)
C1 C 0.6546(6) 0.5330(4) 0.1458(4)
C2 C 0.7090(6) 0.5183(4) 0.0634(4)
C3 C 0.7595(6) 0.4349(4) 0.0215(4)
C4 C 0.7946(6) 0.4423(4) -0.0591(4)
C5 C 0.8510(6) 0.3699(4) -0.1231(4)
C6 C 0.9038(6) 0.2806(5) -0.1241(4)
H1 H 0.9098 0.2512 -0.0747
C7 C 0.9489(7) 0.2337(5) -0.2004(5)
H2 H 0.9855 0.1726 -0.2007
C8 C 0.9422(7) 0.2720(5) -0.2726(5)
H3 H 0.9732 0.2376 -0.3222
C9 C 0.8880(6) 0.3648(5) -0.2744(4)
C10 C 0.8677(7) 0.4116(5) -0.3456(4)
H4 H 0.8890 0.3809 -0.4004
C11 C 0.8171(7) 0.5021(5) -0.3357(4)
H5 H 0.8045 0.5326 -0.3844
C12 C 0.7830(6) 0.5516(5) -0.2559(4)
H6 H 0.7488 0.6142 -0.2508
C13 C 0.8008(6) 0.5064(4) -0.1858(4)
C14 C 0.8490(6) 0.4118(4) -0.1975(4)
C15 C 0.7721(6) 0.5289(4) -0.0949(4)
C16 C 0.7287(6) 0.6153(4) -0.0489(4)
C17 C 0.6950(6) 0.6052(4) 0.0302(4)
C18 C 0.6394(6) 0.6791(4) 0.0936(4)
C19 C 0.7276(6) 0.7129(4) -0.0799(4)
C20 C 0.8586(7) 0.7728(5) -0.0839(4)
H7 H 0.9461 0.7518 -0.0662
C21 C 0.8615(7) 0.8622(5) -0.1134(5)
H8 H 0.9513 0.9027 -0.1153
C22 C 0.7360(7) 0.8931(5) -0.1398(4)
C23 C 0.6040(7) 0.8340(4) -0.1371(4)
H9 H 0.5165 0.8544 -0.1563
C24 C 0.6012(6) 0.7452(4) -0.1063(4)
H10 H 0.5116 0.7059 -0.1032
C25 C 0.6230(9) 1.0066(6) -0.2117(6)
H11 H 0.5609 0.9426 -0.2606
H12 H 0.6486 1.0644 -0.2379
H13 H 0.5703 1.0287 -0.1675
C26 C 0.7739(6) 0.3435(4) 0.0586(4)
C27 C 0.8504(6) 0.3620(4) 0.1497(4)
H14 H 0.8977 0.4333 0.1868
C28 C 0.8593(6) 0.2803(4) 0.1872(4)
H15 H 0.9116 0.2949 0.2495
C29 C 0.7908(6) 0.1756(4) 0.1327(4)
C30 C 0.7168(6) 0.1544(4) 0.0418(4)
H16 H 0.6729 0.0826 0.0044
C31 C 0.7068(6) 0.2372(4) 0.0053(4)
H17 H 0.6536 0.2222 -0.0569
C32 C 0.7456(8) -0.0119(5) 0.1239(5)
H18 H 0.6396 -0.0260 0.0998
H19 H 0.7685 -0.0572 0.1627
H20 H 0.7877 -0.0278 0.0731
C33 C 0.5526(6) 0.6696(4) 0.2309(4)
H21 H 0.4884 0.6084 0.2393
H22 H 0.4911 0.7154 0.2108
C34 C 0.6631(8) 0.7329(6) 0.3212(5)
H23 H 0.7297 0.6895 0.3397
H24 H 0.7222 0.7979 0.3146
C35 C 0.5902(10) 0.7645(8) 0.3936(5)
H25 H 0.5291 0.6989 0.3979
H26 H 0.6664 0.7986 0.4529
C36 C 0.4974(10) 0.8386(6) 0.3789(6)
H27 H 0.4202 0.8041 0.3220
H28 H 0.5562 0.9018 0.3724
C38 C 0.4283(11) 0.8731(7) 0.4546(6)
C39 C 0.5353(16) 0.9309(14) 0.5487(9)
C40 C 0.3607(15) 0.9655(9) 0.4458(10)
O1A O 0.3614(4) 1.5254(3) 0.8079(3)
O2A O 0.3833(4) 1.2351(3) 0.9070(3)
O3A O 0.2484(6) 1.0162(3) 1.1674(3)
O4A O 0.1940(5) 1.9014(3) 0.8232(3)
N1A N 0.3827(5) 1.3707(3) 0.8409(3)
C1A C 0.3454(6) 1.4670(4) 0.8542(4)
C2A C 0.2910(6) 1.4817(4) 0.9366(4)
C3A C 0.2405(6) 1.5651(4) 0.9785(4)
C4A C 0.2054(6) 1.5577(4) 1.0591(4)
C5A C 0.1490(6) 1.6301(4) 1.1231(4)
C6A C 0.0962(6) 1.7194(5) 1.1241(4)
H1A H 0.0902 1.7488 1.0747
C7A C 0.0511(7) 1.7663(5) 1.2004(5)
H2A H 0.0145 1.8274 1.2007
C8A C 0.0578(7) 1.7280(5) 1.2726(5)
H3A H 0.0268 1.7624 1.3222
C9A C 0.1120(6) 1.6352(5) 1.2744(4)
C10A C 0.1323(7) 1.5884(5) 1.3456(4)
H4A H 0.1110 1.6191 1.4004
C11A C 0.1829(7) 1.4979(5) 1.3357(4)
H5A H 0.1955 1.4674 1.3844
C12A C 0.2170(6) 1.4484(5) 1.2559(4)
H6A H 0.2512 1.3858 1.2508
C13A C 0.1992(6) 1.4936(4) 1.1858(4)
C14A C 0.1510(6) 1.5882(4) 1.1975(4)
C15A C 0.2279(6) 1.4711(4) 1.0949(4)
C16A C 0.2713(6) 1.3847(4) 1.0489(4)
C17A C 0.3050(6) 1.3948(4) 0.9698(4)
C18A C 0.3606(6) 1.3209(4) 0.9064(4)
C19A C 0.2724(6) 1.2871(4) 1.0799(4)
C20A C 0.1414(7) 1.2272(5) 1.0839(4)
H7A H 0.0539 1.2482 1.0662
C21A C 0.1385(7) 1.1378(5) 1.1134(5)
H8A H 0.0487 1.0973 1.1153
C22A C 0.2640(7) 1.1069(5) 1.1398(4)
C23A C 0.3960(7) 1.1660(4) 1.1371(4)
H9A H 0.4835 1.1456 1.1563
C24A C 0.3988(6) 1.2548(4) 1.1063(4)
H10A H 0.4884 1.2941 1.1032
C25A C 0.3770(9) 0.9934(6) 1.2117(6)
H11A H 0.4391 1.0574 1.2606
H12A H 0.3514 0.9356 1.2379
H13A H 0.4297 0.9713 1.1675
C26A C 0.2261(6) 1.6565(4) 0.9414(4)
C27A C 0.1496(6) 1.6380(4) 0.8503(4)
H14A H 0.1023 1.5667 0.8132
C28A C 0.1407(6) 1.7197(4) 0.8128(4)
H15A H 0.0884 1.7051 0.7505
C29A C 0.2092(6) 1.8244(4) 0.8673(4)
C30A C 0.2832(6) 1.8456(4) 0.9582(4)
H16A H 0.3271 1.9174 0.9956
C31A C 0.2932(6) 1.7628(4) 0.9947(4)
H17A H 0.3464 1.7778 1.0569
C32A C 0.2544(8) 2.0119(5) 0.8761(5)
H18A H 0.3604 2.0260 0.9002
H19A H 0.2315 2.0572 0.8373
H20A H 0.2123 2.0278 0.9269
C33A C 0.4474(6) 1.3304(4) 0.7691(4)
H21A H 0.5116 1.3916 0.7607
H22A H 0.5089 1.2846 0.7892
C34A C 0.3369(8) 1.2671(6) 0.6788(5)
H23A H 0.2703 1.3105 0.6603
H24A H 0.2778 1.2021 0.6854
C35A C 0.4098(10) 1.2355(8) 0.6064(5)
H25A H 0.4709 1.3011 0.6021
H26A H 0.3336 1.2014 0.5471
C36A C 0.5026(10) 1.1614(6) 0.6211(6)
H27A H 0.5798 1.1959 0.6780
H28A H 0.4438 1.0982 0.6276
C38A C 0.5717(11) 1.1269(7) 0.5454(6)
C39A C 0.4647(16) 1.0691(14) 0.4513(9)
C40A C 0.6393(15) 1.0345(9) 0.5542(10)
C37? C 0.4283(11) 0.8731(7) 0.4546(6)
Cl4? Cl 0.6472(18) 0.5203(8) 0.4186(7)
Cl5? Cl 0.7850(16) 0.3308(14) 0.3992(10)
Cl6? Cl 0.4921(13) 0.3218(11) 0.3854(8)
Cl10? Cl 0.8333(12) 0.7879(9) 0.6359(8)
Cl11? Cl 0.9608(16) 0.9829(7) 0.6363(8)
Cl12? Cl 1.0007(14) 0.7942(10) 0.5178(7)
loop_
_geom_bond_atom_site_label_1
_geom_bond_atom_site_label_2
_geom_bond_site_symmetry_1
_geom_bond_site_symmetry_2
O1 C1 1_555 1_555
O2 C18 1_555 1_555
O3 C22 1_555 1_555
O4 C29 1_555 1_555
N1 C1 1_555 1_555
C1 C2 1_555 1_555
C2 C3 1_555 1_555
C3 C4 1_555 1_555
C4 C5 1_555 1_555
C5 C6 1_555 1_555
C6 H1 1_555 1_555
C7 C6 1_555 1_555
H2 C7 1_555 1_555
C8 C7 1_555 1_555
H3 C8 1_555 1_555
C9 C8 1_555 1_555
C10 C9 1_555 1_555
H4 C10 1_555 1_555
C11 C10 1_555 1_555
H5 C11 1_555 1_555
C12 C11 1_555 1_555
H6 C12 1_555 1_555
C13 C12 1_555 1_555
C14 C5 1_555 1_555
C15 C4 1_555 1_555
C16 C15 1_555 1_555
C17 C2 1_555 1_555
C18 N1 1_555 1_555
C19 C16 1_555 1_555
C20 C19 1_555 1_555
H7 C20 1_555 1_555
C21 C20 1_555 1_555
H8 C21 1_555 1_555
C22 C21 1_555 1_555
C23 C22 1_555 1_555
H9 C23 1_555 1_555
C24 C19 1_555 1_555
H10 C24 1_555 1_555
C25 O3 1_555 1_555
H11 C25 1_555 1_555
H12 C25 1_555 1_555
H13 C25 1_555 1_555
C26 C3 1_555 1_555
C27 C26 1_555 1_555
H14 C27 1_555 1_555
C28 C27 1_555 1_555
H15 C28 1_555 1_555
C29 C28 1_555 1_555
C30 C29 1_555 1_555
H16 C30 1_555 1_555
C31 C26 1_555 1_555
H17 C31 1_555 1_555
C32 O4 1_555 1_555
H18 C32 1_555 1_555
H19 C32 1_555 1_555
H20 C32 1_555 1_555
C33 N1 1_555 1_555
H21 C33 1_555 1_555
H22 C33 1_555 1_555
C34 C33 1_555 1_555
H23 C34 1_555 1_555
H24 C34 1_555 1_555
C35 C34 1_555 1_555
H25 C35 1_555 1_555
H26 C35 1_555 1_555
C36 C35 1_555 1_555
H27 C36 1_555 1_555
H28 C36 1_555 1_555
C38 C36 1_555 1_555
C39 C38 1_555 1_555
C40 C38 1_555 1_555
Cl1 C41 1_555 1_555
Cl2 C41 1_555 1_555
Cl3 C41 1_555 1_555
Cl7 C42 1_555 1_555
Cl8 C42 1_555 1_555
Cl9 C42 1_555 1_555
O1A C1A 1_555 1_555
O2A C18A 1_555 1_555
O3A C22A 1_555 1_555
O4A C29A 1_555 1_555
N1A C1A 1_555 1_555
C1A C2A 1_555 1_555
C2A C3A 1_555 1_555
C3A C4A 1_555 1_555
C4A C5A 1_555 1_555
C5A C6A 1_555 1_555
C6A H1A 1_555 1_555
C7A C6A 1_555 1_555
H2A C7A 1_555 1_555
C8A C7A 1_555 1_555
H3A C8A 1_555 1_555
C9A C8A 1_555 1_555
C10A C9A 1_555 1_555
H4A C10A 1_555 1_555
C11A C10A 1_555 1_555
H5A C11A 1_555 1_555
C12A C11A 1_555 1_555
H6A C12A 1_555 1_555
C13A C12A 1_555 1_555
C14A C5A 1_555 1_555
C15A C4A 1_555 1_555
C16A C15A 1_555 1_555
C17A C2A 1_555 1_555
C18A N1A 1_555 1_555
C19A C16A 1_555 1_555
C20A C19A 1_555 1_555
H7A C20A 1_555 1_555
C21A C20A 1_555 1_555
H8A C21A 1_555 1_555
C22A C21A 1_555 1_555
C23A C22A 1_555 1_555
H9A C23A 1_555 1_555
C24A C19A 1_555 1_555
H10A C24A 1_555 1_555
C25A O3A 1_555 1_555
H11A C25A 1_555 1_555
H12A C25A 1_555 1_555
H13A C25A 1_555 1_555
C26A C3A 1_555 1_555
C27A C26A 1_555 1_555
H14A C27A 1_555 1_555
C28A C27A 1_555 1_555
H15A C28A 1_555 1_555
C29A C28A 1_555 1_555
C30A C29A 1_555 1_555
H16A C30A 1_555 1_555
C31A C26A 1_555 1_555
H17A C31A 1_555 1_555
C32A O4A 1_555 1_555
H18A C32A 1_555 1_555
H19A C32A 1_555 1_555
H20A C32A 1_555 1_555
C33A N1A 1_555 1_555
H21A C33A 1_555 1_555
H22A C33A 1_555 1_555
C34A C33A 1_555 1_555
H23A C34A 1_555 1_555
H24A C34A 1_555 1_555
C35A C34A 1_555 1_555
H25A C35A 1_555 1_555
H26A C35A 1_555 1_555
C36A C35A 1_555 1_555
H27A C36A 1_555 1_555
H28A C36A 1_555 1_555
C38A C36A 1_555 1_555
C39A C40 1_555 1_555
C40A C39 1_555 1_555
C9 C14 1_555 1_555
C13 C14 1_555 1_555
C13 C15 1_555 1_555
C16 C17 1_555 1_555
C17 C18 1_555 1_555
C23 C24 1_555 1_555
C30 C31 1_555 1_555
C39 C40 1_555 1_555
C9A C14A 1_555 1_555
C13A C14A 1_555 1_555
C13A C15A 1_555 1_555
C16A C17A 1_555 1_555
C17A C18A 1_555 1_555
C23A C24A 1_555 1_555
C30A C31A 1_555 1_555
C38A C39A 1_555 1_555
C38A C40A 1_555 1_555
C39A C40A 1_555 1_555

#END
