
#######################################################################
#
#                 Cambridge Crystallographic Data Centre
#                                CCDC 
#
#######################################################################
#
# If this CIF has been generated from an entry in the Cambridge 
# Structural Database, then it will include bibliographic, chemical, 
# crystal, experimental, refinement or atomic coordinate data resulting 
# from the CCDC's data processing and validation procedures.
#
#######################################################################

data_GEGGEF02
_chemical_formula_moiety         'C15 H12 B1 F2 N3'
_chemical_name_systematic        
5,5-difluoro-N-phenyl-5H-4\l^5^,5\l^5^-dipyrrolo[1,2-c:2',1'-f][1,3,2]diazaborinin-10-amine
_symmetry_cell_setting           triclinic
_symmetry_space_group_name_H-M   'P -1'
_symmetry_Int_Tables_number      2
_space_group_name_Hall           '-P 1'
loop_
_symmetry_equiv_pos_site_id
_symmetry_equiv_pos_as_xyz
1 x,y,z
2 -x,-y,-z
_cell_length_a                   9.7482(7)
_cell_length_b                   11.7291(12)
_cell_length_c                   12.1757(10)
_cell_angle_alpha                97.176(8)
_cell_angle_beta                 105.473(7)
_cell_angle_gamma                96.047(7)
_cell_volume                     1317.1
_exptl_crystal_colour            yellow
_cell_formula_units_Z            4
loop_
_atom_site_label
_atom_site_type_symbol
_atom_site_fract_x
_atom_site_fract_y
_atom_site_fract_z
F1 F 0.73199(11) 0.91092(8) 0.20672(8)
F2 F 0.86708(10) 0.93281(8) 0.39310(8)
N1 N 0.83594(14) 0.74620(12) 0.27640(12)
N2 N 0.63155(15) 0.50933(12) 0.36169(12)
N3 N 0.63451(14) 0.81536(12) 0.33943(12)
C1 C 0.67472(16) 0.61219(14) 0.33807(13)
C2 C 0.69999(17) 0.40646(14) 0.36009(14)
C3 C 0.8189(2) 0.20308(16) 0.36020(18)
C4 C 0.79628(17) 0.63414(14) 0.29539(14)
C5 C 0.65195(18) 0.32066(15) 0.26429(16)
C6 C 0.54146(18) 0.88396(15) 0.36889(15)
C7 C 0.89027(18) 0.56313(15) 0.26223(15)
C8 C 0.8659(2) 0.29014(16) 0.45531(17)
C9 C 0.80687(18) 0.39276(15) 0.45619(15)
C10 C 0.59240(17) 0.70396(14) 0.35652(14)
C11 C 0.95020(18) 0.74431(16) 0.23333(16)
C12 C 0.43897(19) 0.81806(16) 0.40306(15)
C13 C 0.47076(18) 0.70472(15) 0.39614(15)
C14 C 0.71173(19) 0.21854(16) 0.26504(18)
C15 C 0.98639(19) 0.63303(16) 0.22341(16)
B1 B 0.7697(2) 0.85566(16) 0.30498(16)
H1 H 0.4198(19) 0.6378(16) 0.4165(16)
H2 H 0.9951(19) 0.8163(16) 0.2144(16)
H3 H 0.362(2) 0.8443(17) 0.4297(17)
H4 H 0.840(2) 0.4556(17) 0.5235(18)
H5 H 1.065(2) 0.6078(17) 0.1952(17)
H6 H 0.8864(19) 0.4814(17) 0.2648(16)
H7 H 0.5536(19) 0.9688(16) 0.3634(16)
H8 H 0.679(2) 0.1571(18) 0.1974(18)
H9 H 0.555(2) 0.5000(18) 0.3860(18)
H10 H 0.577(2) 0.3330(16) 0.1967(18)
H11 H 0.939(2) 0.2784(18) 0.5202(19)
H12 H 0.861(2) 0.1309(19) 0.3630(19)
F3 F 0.36515(10) 0.40971(8) 0.38825(8)
F4 F 0.12864(10) 0.39928(8) 0.29793(9)
N4 N 0.23027(14) 0.22080(12) 0.29527(11)
N5 N 0.28868(14) 0.36759(11) 0.18053(12)
N6 N 0.28607(15) 0.08112(12) 0.02677(12)
C16 C 0.24552(16) 0.13143(14) 0.21411(14)
C17 C 0.27747(16) 0.15986(14) 0.11291(14)
C18 C 0.29974(16) 0.27910(14) 0.09814(14)
C19 C 0.33534(17) 0.32888(15) 0.00921(15)
C20 C 0.26052(17) -0.04287(14) 0.01945(14)
C21 C 0.18850(17) 0.17198(15) 0.37795(14)
C22 C 0.12759(18) -0.10257(15) -0.04476(15)
C23 C 0.21232(17) 0.02562(15) 0.25234(15)
C24 C 0.31660(18) 0.46974(15) 0.14310(15)
C25 C 0.34546(18) 0.44915(15) 0.03815(15)
C26 C 0.20674(19) -0.28088(15) 0.00782(16)
C27 C 0.34027(19) -0.22043(16) 0.07006(15)
C28 C 0.17652(18) 0.05165(15) 0.35408(15)
C29 C 0.36891(18) -0.10099(15) 0.07541(15)
C30 C 0.10132(19) -0.22206(16) -0.05032(16)
B2 B 0.25180(19) 0.35225(16) 0.29304(16)
H13 H 0.4152(19) -0.2617(16) 0.1116(16)
H14 H 0.3132(19) 0.5430(17) 0.1892(16)
H15 H 0.0520(19) -0.0606(16) -0.0836(16)
H16 H 0.2124(19) -0.0512(16) 0.2137(16)
H17 H 0.007(2) -0.2667(17) -0.0947(17)
H18 H 0.464(2) -0.0560(16) 0.1178(17)
H19 H 0.1674(18) 0.2207(16) 0.4411(16)
H20 H 0.1463(19) -0.0025(16) 0.4013(17)
H21 H 0.186(2) -0.3644(17) 0.0037(17)
H22 H 0.3489(19) 0.2868(16) -0.0599(17)
H23 H 0.293(2) 0.1096(18) -0.0401(19)
H24 H 0.367(2) 0.5079(17) -0.0059(17)
loop_
_geom_bond_atom_site_label_1
_geom_bond_atom_site_label_2
_geom_bond_site_symmetry_1
_geom_bond_site_symmetry_2
F1 B1 1_555 1_555
F2 B1 1_555 1_555
N1 C4 1_555 1_555
N2 C1 1_555 1_555
N3 C6 1_555 1_555
C1 C4 1_555 1_555
C2 N2 1_555 1_555
C3 C8 1_555 1_555
C4 C7 1_555 1_555
C5 C2 1_555 1_555
C6 C12 1_555 1_555
C7 C15 1_555 1_555
C8 C9 1_555 1_555
C9 C2 1_555 1_555
C10 N3 1_555 1_555
C11 N1 1_555 1_555
C12 C13 1_555 1_555
C13 C10 1_555 1_555
C14 C3 1_555 1_555
C15 C11 1_555 1_555
B1 N1 1_555 1_555
H1 C13 1_555 1_555
H2 C11 1_555 1_555
H3 C12 1_555 1_555
H4 C9 1_555 1_555
H5 C15 1_555 1_555
H6 C7 1_555 1_555
H7 C6 1_555 1_555
H8 C14 1_555 1_555
H9 N2 1_555 1_555
H10 C5 1_555 1_555
H11 C8 1_555 1_555
H12 C3 1_555 1_555
F3 B2 1_555 1_555
F4 B2 1_555 1_555
N4 C16 1_555 1_555
N5 C18 1_555 1_555
N6 C17 1_555 1_555
C16 C17 1_555 1_555
C17 C18 1_555 1_555
C18 C19 1_555 1_555
C19 C25 1_555 1_555
C20 N6 1_555 1_555
C21 N4 1_555 1_555
C22 C20 1_555 1_555
C23 C16 1_555 1_555
C24 N5 1_555 1_555
C25 C24 1_555 1_555
C26 C27 1_555 1_555
C27 C29 1_555 1_555
C28 C21 1_555 1_555
C29 C20 1_555 1_555
C30 C22 1_555 1_555
B2 N4 1_555 1_555
H13 C27 1_555 1_555
H14 C24 1_555 1_555
H15 C22 1_555 1_555
H16 C23 1_555 1_555
H17 C30 1_555 1_555
H18 C29 1_555 1_555
H19 C21 1_555 1_555
H20 C28 1_555 1_555
H21 C26 1_555 1_555
H22 C19 1_555 1_555
H23 N6 1_555 1_555
H24 C25 1_555 1_555
N3 B1 1_555 1_555
C1 C10 1_555 1_555
C5 C14 1_555 1_555
N5 B2 1_555 1_555
C23 C28 1_555 1_555
C26 C30 1_555 1_555

#END
