
#######################################################################
#
#                 Cambridge Crystallographic Data Centre
#                                CCDC 
#
#######################################################################
#
# If this CIF has been generated from an entry in the Cambridge 
# Structural Database, then it will include bibliographic, chemical, 
# crystal, experimental, refinement or atomic coordinate data resulting 
# from the CCDC's data processing and validation procedures.
#
#######################################################################

data_GEGGIJ
_chemical_formula_moiety         'C24 H34 N4 O6'
_chemical_name_systematic        
't-Butoxycarbonyl-(\g-aminobutyryl)-alanyl-tryptophan methyl ester'
_symmetry_cell_setting           monoclinic
_symmetry_space_group_name_H-M   'P 21'
_symmetry_Int_Tables_number      4
_space_group_name_Hall           'P 2yb'
loop_
_symmetry_equiv_pos_site_id
_symmetry_equiv_pos_as_xyz
1 x,y,z
2 -x,1/2+y,-z
_cell_length_a                   5.903(7)
_cell_length_b                   8.451(9)
_cell_length_c                   25.29(3)
_cell_angle_alpha                90
_cell_angle_beta                 93.891(10)
_cell_angle_gamma                90
_cell_volume                     1258.72
_exptl_crystal_colour            white
_exptl_crystal_description       needle
_cell_formula_units_Z            2
_exptl_crystal_recrystallization_method water/methanol
loop_
_atom_site_label
_atom_site_type_symbol
_atom_site_fract_x
_atom_site_fract_y
_atom_site_fract_z
O1 O 0.6468(6) 0.7128(5) 0.10146(16)
C1 C 0.5474(10) 0.5630(7) 0.0828(2)
C2 C 0.3711(12) 0.5320(9) 0.1230(3)
H1 H 0.4447 0.5288 0.1581
H2 H 0.2978 0.4325 0.1153
H3 H 0.2600 0.6151 0.1210
C3 C 0.7283(12) 0.4325(9) 0.0855(3)
H4 H 0.8386 0.4545 0.0603
H5 H 0.6575 0.3323 0.0774
H6 H 0.8020 0.4290 0.1205
C4 C 0.4354(12) 0.5800(9) 0.0275(3)
H7 H 0.3447 0.6744 0.0256
H8 H 0.3405 0.4898 0.0195
H9 H 0.5500 0.5867 0.0025
C5 C 0.8136(10) 0.7861(7) 0.0753(2)
O2 O 0.8935(8) 0.7320(6) 0.03634(18)
N1 N 0.8709(8) 0.9214(6) 0.09887(19)
H10 H 0.8098 0.9464 0.1276
C6 C 1.0335(10) 1.0290(9) 0.0777(2)
H11 H 0.9640 1.1326 0.0733
H12 H 1.0689 0.9920 0.0429
C7 C 1.2487(12) 1.0449(11) 0.1115(3)
H13 H 1.3291 0.9450 0.1100
H14 H 1.3410 1.1238 0.0952
C8 C 1.2389(12) 1.0874(11) 0.1676(3)
H15 H 1.1826 0.9968 0.1862
H16 H 1.1294 1.1721 0.1701
C9 C 1.4599(11) 1.1392(8) 0.1956(2)
O3 O 1.6460(7) 1.1162(6) 0.17782(17)
N2 N 1.4433(8) 1.2192(6) 0.24126(18)
H17 H 1.3165 1.2208 0.2561
C10 C 1.6399(10) 1.3033(7) 0.2655(2)
H18 H 1.7095 1.3627 0.2375
C11 C 1.8180(9) 1.1930(7) 0.2907(2)
O4 O 2.0173(7) 1.2374(6) 0.29669(18)
N3 N 1.7505(8) 1.0550(6) 0.30967(19)
H19 H 1.6096 1.0295 0.3046
C12 C 1.9023(10) 0.9459(8) 0.3384(2)
H20 H 2.0103 1.0082 0.3610
C13 C 1.7718(11) 0.8380(8) 0.3744(3)
H21 H 1.6464 0.7897 0.3535
H22 H 1.8720 0.7537 0.3876
C14 C 1.6802(10) 0.9215(8) 0.4208(2)
C15 C 1.7726(10) 0.9162(7) 0.4750(2)
C16 C 1.9601(11) 0.8380(8) 0.5012(3)
H23 H 2.0573 0.7769 0.4822
C17 C 1.9963(12) 0.8536(9) 0.5548(3)
H24 H 2.1182 0.8019 0.5725
C18 C 1.8512(14) 0.9471(10) 0.5833(3)
H25 H 1.8790 0.9542 0.6199
C19 C 1.6720(12) 1.0276(9) 0.5602(3)
H26 H 1.5801 1.0910 0.5798
C20 C 1.6326(10) 1.0104(8) 0.5054(3)
C21 C 2.0391(13) 0.8466(9) 0.3006(3)
O5 O 1.9091(8) 0.7797(7) 0.2640(2)
C22 C 2.0130(15) 0.6792(11) 0.2262(3)
H27 H 2.1546 0.7247 0.2174
H28 H 1.9135 0.6698 0.1948
H29 H 2.0399 0.5763 0.2415
O6 O 2.2416(9) 0.8367(10) 0.3045(3)
N4 N 1.4676(9) 1.0726(7) 0.4707(2)
H30 H 1.3618 1.1358 0.4791
C23 C 1.5676(13) 1.4207(9) 0.3061(3)
H31 H 1.4637 1.4955 0.2893
H32 H 1.6986 1.4755 0.3214
H33 H 1.4944 1.3657 0.3335
C24 C 1.4967(11) 1.0183(9) 0.4200(3)
H34 H 1.4045 1.0441 0.3900
loop_
_geom_bond_atom_site_label_1
_geom_bond_atom_site_label_2
_geom_bond_site_symmetry_1
_geom_bond_site_symmetry_2
O1 C1 1_555 1_555
C1 C2 1_555 1_555
C2 H1 1_555 1_555
H2 C2 1_555 1_555
H3 C2 1_555 1_555
C3 C1 1_555 1_555
H4 C3 1_555 1_555
H5 C3 1_555 1_555
H6 C3 1_555 1_555
C4 C1 1_555 1_555
H7 C4 1_555 1_555
H8 C4 1_555 1_555
H9 C4 1_555 1_555
C5 O1 1_555 1_555
O2 C5 1_555 1_555
N1 C5 1_555 1_555
H10 N1 1_555 1_555
C6 N1 1_555 1_555
H11 C6 1_555 1_555
H12 C6 1_555 1_555
C7 C6 1_555 1_555
H13 C7 1_555 1_555
H14 C7 1_555 1_555
C8 C7 1_555 1_555
H15 C8 1_555 1_555
H16 C8 1_555 1_555
C9 C8 1_555 1_555
O3 C9 1_555 1_555
N2 C9 1_555 1_555
H17 N2 1_555 1_555
C10 N2 1_555 1_555
H18 C10 1_555 1_555
C11 C10 1_555 1_555
O4 C11 1_555 1_555
N3 C11 1_555 1_555
H19 N3 1_555 1_555
C12 N3 1_555 1_555
H20 C12 1_555 1_555
C13 C12 1_555 1_555
H21 C13 1_555 1_555
H22 C13 1_555 1_555
C14 C13 1_555 1_555
C15 C14 1_555 1_555
C16 C15 1_555 1_555
H23 C16 1_555 1_555
C17 C16 1_555 1_555
H24 C17 1_555 1_555
C18 C17 1_555 1_555
H25 C18 1_555 1_555
C19 C18 1_555 1_555
H26 C19 1_555 1_555
C20 C15 1_555 1_555
C21 C12 1_555 1_555
O5 C21 1_555 1_555
C22 O5 1_555 1_555
H27 C22 1_555 1_555
H28 C22 1_555 1_555
H29 C22 1_555 1_555
O6 C21 1_555 1_555
N4 C20 1_555 1_555
H30 N4 1_555 1_555
C23 C10 1_555 1_555
H31 C23 1_555 1_555
H32 C23 1_555 1_555
H33 C23 1_555 1_555
C24 C14 1_555 1_555
H34 C24 1_555 1_555
C19 C20 1_555 1_555
N4 C24 1_555 1_555

#END
