
#######################################################################
#
#                 Cambridge Crystallographic Data Centre
#                                CCDC 
#
#######################################################################
#
# If this CIF has been generated from an entry in the Cambridge 
# Structural Database, then it will include bibliographic, chemical, 
# crystal, experimental, refinement or atomic coordinate data resulting 
# from the CCDC's data processing and validation procedures.
#
#######################################################################

data_GEGKIO
_chemical_formula_moiety         'C23 H19 N1'
_chemical_name_systematic        
3,9-Diphenyl-2,3-dihydro-1H-pyrrolo[1,2-a]indole
_symmetry_cell_setting           triclinic
_symmetry_space_group_name_H-M   'P -1'
_symmetry_Int_Tables_number      2
_space_group_name_Hall           '-P 1'
loop_
_symmetry_equiv_pos_site_id
_symmetry_equiv_pos_as_xyz
1 x,y,z
2 -x,-y,-z
_cell_length_a                   9.8435(10)
_cell_length_b                   9.9731(10)
_cell_length_c                   10.8542(11)
_cell_angle_alpha                97.636(2)
_cell_angle_beta                 116.238(2)
_cell_angle_gamma                111.320(2)
_cell_volume                     833.581
_exptl_crystal_colour            colorless
_exptl_crystal_description       prismatic
_cell_formula_units_Z            2
loop_
_atom_site_label
_atom_site_type_symbol
_atom_site_fract_x
_atom_site_fract_y
_atom_site_fract_z
N1 N 1.00714(13) 1.05343(11) 0.18479(11)
C1 C 0.99788(16) 0.91126(14) 0.17351(14)
C2 C 1.11661(18) 0.86861(16) 0.25950(15)
H1 H 1.2250 0.9417 0.3386
C3 C 1.0686(2) 0.71467(18) 0.22377(18)
H2 H 1.1447 0.6824 0.2805
C4 C 0.9077(2) 0.60661(17) 0.10388(18)
H3 H 0.8791 0.5031 0.0808
C5 C 0.79052(19) 0.64807(16) 0.01904(16)
H4 H 0.6839 0.5735 -0.0612
C6 C 0.83119(16) 0.80317(14) 0.05311(13)
C7 C 0.74135(16) 0.88758(14) -0.00765(14)
C8 C 0.85686(17) 1.03954(14) 0.07750(14)
C9 C 0.87187(19) 1.19561(15) 0.08979(16)
H5 H 0.7750 1.2000 0.0896
H6 H 0.8784 1.2247 0.0100
C10 C 1.0397(2) 1.29923(16) 0.23723(18)
H7 H 1.0153 1.3232 0.3123
H8 H 1.1042 1.3947 0.2300
C11 C 1.14400(17) 1.21144(14) 0.27657(15)
H9 H 1.2245 1.2409 0.2431
C12 C 1.24079(16) 1.23175(14) 0.43637(14)
C13 C 1.15489(19) 1.18539(17) 0.50697(16)
H10 H 1.0356 1.1426 0.4554
C14 C 1.2424(2) 1.2013(2) 0.65200(18)
H11 H 1.1822 1.1693 0.6978
C15 C 1.4171(2) 1.2637(2) 0.72932(19)
H12 H 1.4761 1.2734 0.8274
C16 C 1.5048(2) 1.3117(2) 0.6623(2)
H13 H 1.6241 1.3556 0.7153
C17 C 1.41748(18) 1.29582(18) 0.51562(18)
H14 H 1.4785 1.3285 0.4706
C18 C 0.56696(16) 0.82561(15) -0.13562(14)
C19 C 0.5200(2) 0.91393(19) -0.21806(17)
H15 H 0.5993 1.0161 -0.1888
C20 C 0.3588(2) 0.8536(2) -0.3421(2)
H16 H 0.3309 0.9157 -0.3947
C21 C 0.2399(2) 0.7045(2) -0.38877(19)
H17 H 0.1320 0.6639 -0.4737
C22 C 0.2815(2) 0.6151(2) -0.3090(2)
H18 H 0.2008 0.5131 -0.3399
C23 C 0.44118(18) 0.67437(17) -0.18342(18)
H19 H 0.4657 0.6123 -0.1294
loop_
_geom_bond_atom_site_label_1
_geom_bond_atom_site_label_2
_geom_bond_site_symmetry_1
_geom_bond_site_symmetry_2
N1 C1 1_555 1_555
C1 C2 1_555 1_555
C2 H1 1_555 1_555
C3 C2 1_555 1_555
H2 C3 1_555 1_555
C4 C3 1_555 1_555
H3 C4 1_555 1_555
C5 C4 1_555 1_555
H4 C5 1_555 1_555
C6 C1 1_555 1_555
C7 C6 1_555 1_555
C8 N1 1_555 1_555
C9 C8 1_555 1_555
H5 C9 1_555 1_555
H6 C9 1_555 1_555
C10 C9 1_555 1_555
H7 C10 1_555 1_555
H8 C10 1_555 1_555
C11 N1 1_555 1_555
H9 C11 1_555 1_555
C12 C11 1_555 1_555
C13 C12 1_555 1_555
H10 C13 1_555 1_555
C14 C13 1_555 1_555
H11 C14 1_555 1_555
C15 C14 1_555 1_555
H12 C15 1_555 1_555
C16 C15 1_555 1_555
H13 C16 1_555 1_555
C17 C12 1_555 1_555
H14 C17 1_555 1_555
C18 C7 1_555 1_555
C19 C18 1_555 1_555
H15 C19 1_555 1_555
C20 C19 1_555 1_555
H16 C20 1_555 1_555
C21 C20 1_555 1_555
H17 C21 1_555 1_555
C22 C21 1_555 1_555
H18 C22 1_555 1_555
C23 C18 1_555 1_555
H19 C23 1_555 1_555
C5 C6 1_555 1_555
C7 C8 1_555 1_555
C10 C11 1_555 1_555
C16 C17 1_555 1_555
C22 C23 1_555 1_555

#END
