
#######################################################################
#
#                 Cambridge Crystallographic Data Centre
#                                CCDC 
#
#######################################################################
#
# If this CIF has been generated from an entry in the Cambridge 
# Structural Database, then it will include bibliographic, chemical, 
# crystal, experimental, refinement or atomic coordinate data resulting 
# from the CCDC's data processing and validation procedures.
#
#######################################################################

data_GEGLOW
_chemical_formula_moiety         'C17 H24 B1 N1 O2'
_chemical_name_systematic        
(S)-(+)-((4-acetyl-5-methylfuran-2-yl)(phenyl)methyl)(trimethylamine)dihydridoboron
_symmetry_cell_setting           orthorhombic
_symmetry_space_group_name_H-M   'P 21 21 21'
_symmetry_Int_Tables_number      19
_space_group_name_Hall           'P 2ac 2ab'
loop_
_symmetry_equiv_pos_site_id
_symmetry_equiv_pos_as_xyz
1 x,y,z
2 1/2-x,-y,1/2+z
3 -x,1/2+y,1/2-z
4 1/2+x,1/2-y,-z
_cell_length_a                   6.48052(10)
_cell_length_b                   9.63870(12)
_cell_length_c                   27.4697(3)
_cell_angle_alpha                90
_cell_angle_beta                 90
_cell_angle_gamma                90
_cell_volume                     1715.86
_exptl_crystal_colour            colorless
_exptl_crystal_description       prism
_cell_formula_units_Z            4
loop_
_atom_site_label
_atom_site_type_symbol
_atom_site_fract_x
_atom_site_fract_y
_atom_site_fract_z
O1 O 0.36147(17) 0.20640(11) 0.56143(4)
O2 O 0.9678(3) -0.0006(2) 0.59482(7)
N1 N 0.2403(3) 0.16770(16) 0.72469(5)
C1 C 0.4302(2) 0.22707(15) 0.60872(5)
C2 C 0.6094(3) 0.15937(17) 0.61394(6)
H1 H 0.6892 0.1563 0.6421
C3 C 0.6568(3) 0.09256(15) 0.56876(5)
C4 C 0.5001(3) 0.12411(16) 0.53811(6)
C5 C 0.4452(4) 0.0914(3) 0.48653(7)
H2 H 0.3112 0.1285 0.4793
H3 H 0.4437 -0.0073 0.4820
H4 H 0.5455 0.1321 0.4651
C6 C 0.8436(3) 0.0088(2) 0.56177(7)
C7 C 0.8784(5) -0.0673(3) 0.51506(10)
H5 H 0.8947 -0.0017 0.4890
H6 H 0.7620 -0.1260 0.5084
H7 H 1.0007 -0.1229 0.5177
C8 C 0.3018(2) 0.31801(14) 0.64016(5)
H8 H 0.1566 0.2947 0.6345
C9 C 0.3332(3) 0.47016(15) 0.62702(5)
C10 C 0.5240(3) 0.52199(18) 0.61366(6)
H9 H 0.6366 0.4625 0.6115
C11 C 0.5489(4) 0.6620(2) 0.60347(7)
H10 H 0.6778 0.6951 0.5941
C12 C 0.3854(5) 0.7523(2) 0.60700(8)
H11 H 0.4030 0.8462 0.6004
C13 C 0.1957(5) 0.7018(2) 0.62034(9)
H12 H 0.0839 0.7619 0.6228
C14 C 0.1696(3) 0.56207(19) 0.63013(7)
H13 H 0.0398 0.5293 0.6389
C15 C 0.3063(6) 0.0343(2) 0.70265(11)
H14 H 0.4536 0.0259 0.7049
H15 H 0.2653 0.0318 0.6691
H16 H 0.2425 -0.0413 0.7198
C16 C 0.3038(5) 0.1647(3) 0.77645(8)
H17 H 0.2379 0.0882 0.7925
H18 H 0.2636 0.2499 0.7919
H19 H 0.4508 0.1542 0.7785
C17 C 0.0139(4) 0.1760(3) 0.72249(12)
H20 H -0.0299 0.1736 0.6891
H21 H -0.0313 0.2610 0.7372
H22 H -0.0448 0.0987 0.7397
B1 B 0.3489(3) 0.30280(19) 0.69882(6)
H23 H 0.278(3) 0.388(2) 0.7191(7)
H24 H 0.518(3) 0.2870(19) 0.7055(7)
loop_
_geom_bond_atom_site_label_1
_geom_bond_atom_site_label_2
_geom_bond_site_symmetry_1
_geom_bond_site_symmetry_2
O1 C1 1_555 1_555
O2 C6 1_555 1_555
N1 C15 1_555 1_555
C1 C2 1_555 1_555
C2 H1 1_555 1_555
C3 C2 1_555 1_555
C4 O1 1_555 1_555
C5 C4 1_555 1_555
H2 C5 1_555 1_555
H3 C5 1_555 1_555
H4 C5 1_555 1_555
C6 C3 1_555 1_555
C7 C6 1_555 1_555
H5 C7 1_555 1_555
H6 C7 1_555 1_555
H7 C7 1_555 1_555
C8 C1 1_555 1_555
H8 C8 1_555 1_555
C9 C8 1_555 1_555
C10 C9 1_555 1_555
H9 C10 1_555 1_555
C11 C10 1_555 1_555
H10 C11 1_555 1_555
C12 C11 1_555 1_555
H11 C12 1_555 1_555
C13 C12 1_555 1_555
H12 C13 1_555 1_555
C14 C9 1_555 1_555
H13 C14 1_555 1_555
C15 H14 1_555 1_555
H15 C15 1_555 1_555
H16 C15 1_555 1_555
C16 N1 1_555 1_555
H17 C16 1_555 1_555
H18 C16 1_555 1_555
H19 C16 1_555 1_555
C17 N1 1_555 1_555
H20 C17 1_555 1_555
H21 C17 1_555 1_555
H22 C17 1_555 1_555
B1 N1 1_555 1_555
H23 B1 1_555 1_555
H24 B1 1_555 1_555
C3 C4 1_555 1_555
C8 B1 1_555 1_555
C13 C14 1_555 1_555

#END
