
#######################################################################
#
#                 Cambridge Crystallographic Data Centre
#                                CCDC 
#
#######################################################################
#
# If this CIF has been generated from an entry in the Cambridge 
# Structural Database, then it will include bibliographic, chemical, 
# crystal, experimental, refinement or atomic coordinate data resulting 
# from the CCDC's data processing and validation procedures.
#
#######################################################################

data_GEGREQ
_chemical_formula_moiety         'C42 H28'
_chemical_name_systematic        
cis-1,2-bis(Fluoren-9-ylidene)-3,4-diphenylcyclobutane
_symmetry_cell_setting           monoclinic
_symmetry_space_group_name_H-M   'P 21'
_symmetry_Int_Tables_number      4
_space_group_name_Hall           'P 2yb'
loop_
_symmetry_equiv_pos_site_id
_symmetry_equiv_pos_as_xyz
1 x,y,z
2 -x,1/2+y,-z
_cell_length_a                   15.233(6)
_cell_length_b                   8.987(4)
_cell_length_c                   41.163(16)
_cell_angle_alpha                90
_cell_angle_beta                 100.163(7)
_cell_angle_gamma                90
_cell_volume                     5546.76
_exptl_crystal_colour            orange
_exptl_crystal_description       rod
_chemical_melting_point          214-218deg.C
_cell_formula_units_Z            8
_exptl_crystal_recrystallization_method 'dichloromethane/diethyl ether'
loop_
_atom_site_label
_atom_site_type_symbol
_atom_site_fract_x
_atom_site_fract_y
_atom_site_fract_z
C1 C 0.7926(6) 0.7873(11) 0.3667(2)
C2 C 0.8177(6) 0.8085(11) 0.3365(2)
C3 C 0.8171(6) 0.6818(11) 0.3124(2)
C4 C 0.7834(8) 0.5416(14) 0.3110(3)
H1 H 0.7581 0.5065 0.3291
C5 C 0.7842(7) 0.4494(12) 0.2849(2)
H2 H 0.7576 0.3535 0.2843
C6 C 0.8263(9) 0.5006(16) 0.2583(3)
H3 H 0.8312 0.4365 0.2403
C7 C 0.8601(9) 0.6463(16) 0.2591(3)
H4 H 0.8883 0.6837 0.2419
C8 C 0.8506(7) 0.7328(13) 0.2861(3)
C9 C 0.8787(8) 0.8901(14) 0.2918(3)
C10 C 0.9227(9) 0.9796(14) 0.2753(3)
H5 H 0.9403 0.9474 0.2554
C11 C 0.9432(8) 1.1216(15) 0.2873(3)
H6 H 0.9717 1.1897 0.2749
C12 C 0.9211(8) 1.1668(14) 0.3187(3)
H7 H 0.9364 1.2635 0.3272
C13 C 0.8792(7) 1.0719(11) 0.3358(2)
H8 H 0.8662 1.0988 0.3567
C14 C 0.8550(6) 0.9326(11) 0.3221(2)
C15 C 0.7814(6) 0.8917(11) 0.3930(2)
C16 C 0.7348(6) 1.0143(10) 0.3937(2)
C17 C 0.6845(6) 1.1050(10) 0.3672(2)
C18 C 0.6703(6) 1.0925(11) 0.3330(2)
H9 H 0.6963 1.0128 0.3228
C19 C 0.6193(9) 1.1943(16) 0.3142(3)
H10 H 0.6135 1.1881 0.2909
C20 C 0.5745(8) 1.3094(13) 0.3278(3)
H11 H 0.5359 1.3746 0.3138
C21 C 0.5868(8) 1.3269(13) 0.3615(3)
H12 H 0.5590 1.4047 0.3715
C22 C 0.6428(6) 1.2228(11) 0.3799(2)
C23 C 0.6609(7) 1.2053(11) 0.4165(2)
C24 C 0.6364(7) 1.2954(13) 0.4412(3)
H13 H 0.6008 1.3819 0.4360
C25 C 0.6651(8) 1.2545(15) 0.4725(3)
H14 H 0.6473 1.3111 0.4897
C26 C 0.7179(7) 1.1375(12) 0.4803(3)
H15 H 0.7370 1.1144 0.5029
C27 C 0.7459(7) 1.0484(12) 0.4570(2)
H16 H 0.7823 0.9638 0.4633
C28 C 0.7195(6) 1.0859(11) 0.4245(2)
C29 C 0.8036(6) 0.7701(10) 0.4178(2)
H17 H 0.7561 0.7577 0.4315
C30 C 0.8950(5) 0.7813(10) 0.4389(2)
C31 C 0.9530(6) 0.8955(11) 0.4357(2)
H18 H 0.9356 0.9705 0.4196
C32 C 1.0295(8) 0.9021(14) 0.4538(3)
H19 H 1.0648 0.9867 0.4510
C33 C 1.0657(9) 0.8035(14) 0.4765(3)
H20 H 1.1242 0.8133 0.4888
C34 C 1.0099(7) 0.6851(13) 0.4803(3)
H21 H 1.0304 0.6133 0.4968
C35 C 0.9267(7) 0.6657(12) 0.4615(2)
H22 H 0.8922 0.5792 0.4634
C36 C 0.7932(7) 0.6526(11) 0.3886(2)
H23 H 0.7326 0.6060 0.3854
C37 C 0.8606(6) 0.5401(10) 0.3901(2)
C38 C 0.8487(8) 0.4044(14) 0.4064(3)
H24 H 0.7956 0.3877 0.4150
C39 C 0.9116(8) 0.3011(15) 0.4096(3)
H25 H 0.9005 0.2114 0.4204
C40 C 0.9905(8) 0.3119(15) 0.3988(3)
H26 H 1.0335 0.2345 0.4024
C41 C 1.0055(8) 0.4466(13) 0.3818(3)
H27 H 1.0582 0.4631 0.3730
C42 C 0.9382(8) 0.5497(13) 0.3793(3)
H28 H 0.9480 0.6399 0.3685
C43 C 0.1269(12) 0.015(2) 0.1127(4)
C44 C 0.0801(11) -0.1199(18) 0.1092(4)
C45 C 0.0356(13) -0.188(2) 0.0801(4)
C46 C 0.0404(13) -0.156(2) 0.0484(4)
H29 H 0.0728 -0.0705 0.0438
C47 C -0.0020(17) -0.248(3) 0.0214(6)
H30 H 0.0021 -0.2290 -0.0010
C48 C -0.0542(17) -0.378(3) 0.0326(6)
H31 H -0.0815 -0.4495 0.0171
C49 C -0.0614(13) -0.390(2) 0.0656(4)
H32 H -0.1068 -0.4517 0.0714
C50 C -0.0079(13) -0.318(2) 0.0897(5)
C51 C 0.0060(11) -0.3249(19) 0.1229(4)
C52 C -0.0320(12) -0.415(2) 0.1455(4)
H33 H -0.0766 -0.4847 0.1366
C53 C -0.0085(11) -0.407(2) 0.1788(4)
H34 H -0.0259 -0.4810 0.1928
C54 C 0.0440(10) -0.2800(18) 0.1919(4)
H35 H 0.0528 -0.2612 0.2150
C55 C 0.0814(12) -0.187(2) 0.1721(4)
H36 H 0.1192 -0.1073 0.1811
C56 C 0.0614(12) -0.213(2) 0.1374(4)
C57 C 0.1729(10) 0.1108(18) 0.1378(3)
C58 C 0.2187(9) 0.1009(17) 0.1662(3)
C59 C 0.2788(9) -0.0227(15) 0.1809(3)
C60 C 0.2833(9) -0.1641(16) 0.1662(3)
H37 H 0.2453 -0.1921 0.1463
C61 C 0.3500(10) -0.2630(18) 0.1839(3)
H38 H 0.3573 -0.3601 0.1757
C62 C 0.4003(10) -0.2182(18) 0.2114(3)
H39 H 0.4415 -0.2881 0.2227
C63 C 0.3989(10) -0.0850(17) 0.2246(4)
H40 H 0.4400 -0.0601 0.2440
C64 C 0.3359(8) 0.0200(14) 0.2098(3)
C65 C 0.3121(9) 0.1744(16) 0.2147(3)
C66 C 0.3496(9) 0.2629(16) 0.2430(3)
H41 H 0.3931 0.2291 0.2609
C67 C 0.3114(9) 0.4101(16) 0.2403(3)
H42 H 0.3336 0.4800 0.2571
C68 C 0.2464(10) 0.4558(17) 0.2156(3)
H43 H 0.2233 0.5539 0.2159
C69 C 0.2140(10) 0.3632(16) 0.1906(4)
H44 H 0.1681 0.3951 0.1733
C70 C 0.2478(9) 0.2249(15) 0.1905(3)
C71 C 0.1516(13) 0.247(2) 0.1156(4)
H45 H 0.0964 0.2957 0.1206
C72 C 0.2184(10) 0.3666(17) 0.1117(3)
C73 C 0.3051(9) 0.3423(16) 0.1221(3)
H46 H 0.3236 0.2503 0.1325
C74 C 0.3687(14) 0.447(2) 0.1183(4)
H47 H 0.4307 0.4351 0.1264
C75 C 0.3266(11) 0.587(2) 0.0989(4)
H48 H 0.3647 0.6646 0.0944
C76 C 0.2424(12) 0.599(2) 0.0889(4)
H49 H 0.2193 0.6854 0.0769
C77 C 0.1875(11) 0.4938(17) 0.0951(4)
H50 H 0.1251 0.5061 0.0880
C78 C 0.1241(13) 0.134(2) 0.0850(4)
H51 H 0.0634 0.1514 0.0718
C79 C 0.1957(12) 0.118(2) 0.0650(4)
C80 C 0.2059(13) 0.216(2) 0.0397(4)
H52 H 0.1630 0.2934 0.0356
C81 C 0.2713(18) 0.215(3) 0.0196(6)
H53 H 0.2740 0.2897 0.0034
C82 C 0.3262(15) 0.110(3) 0.0245(5)
H54 H 0.3698 0.1058 0.0107
C83 C 0.3300(15) -0.007(2) 0.0490(5)
H55 H 0.3722 -0.0856 0.0513
C84 C 0.2633(12) 0.009(2) 0.0695(5)
H56 H 0.2649 -0.0587 0.0873
C85 C 0.3228(7) 0.2874(12) 0.3622(2)
C86 C 0.2636(6) 0.2998(11) 0.3323(2)
C87 C 0.2371(7) 0.1814(12) 0.3089(3)
C88 C 0.2728(8) 0.0374(15) 0.3075(3)
H57 H 0.3186 -0.0005 0.3242
C89 C 0.2351(9) -0.0456(17) 0.2796(3)
H58 H 0.2558 -0.1443 0.2776
C90 C 0.1695(9) 0.0087(14) 0.2549(3)
H59 H 0.1455 -0.0505 0.2363
C91 C 0.1413(9) 0.1468(17) 0.2582(3)
H60 H 0.0968 0.1845 0.2411
C92 C 0.1706(7) 0.2372(12) 0.2835(3)
C93 C 0.1529(8) 0.3905(13) 0.2918(3)
C94 C 0.0914(8) 0.4800(14) 0.2753(3)
H61 H 0.0537 0.4487 0.2556
C95 C 0.0847(8) 0.6246(15) 0.2885(3)
H62 H 0.0419 0.6934 0.2777
C96 C 0.1417(9) 0.6641(16) 0.3174(3)
H63 H 0.1379 0.7612 0.3262
C97 C 0.2016(8) 0.5682(13) 0.3331(3)
H64 H 0.2381 0.5960 0.3533
C98 C 0.2105(7) 0.4304(12) 0.3201(2)
C99 C 0.3618(6) 0.3870(11) 0.3868(2)
C100 C 0.4078(6) 0.5170(10) 0.3874(2)
C101 C 0.4311(6) 0.6050(11) 0.3603(2)
C102 C 0.4080(7) 0.5932(13) 0.3280(2)
H65 H 0.3692 0.5157 0.3186
C103 C 0.4402(8) 0.6926(15) 0.3081(3)
H66 H 0.4215 0.6853 0.2849
C104 C 0.4960(9) 0.7978(17) 0.3200(3)
H67 H 0.5229 0.8579 0.3055
C105 C 0.5159(8) 0.8216(14) 0.3541(3)
H68 H 0.5483 0.9068 0.3631
C106 C 0.4874(7) 0.7185(12) 0.3736(2)
C107 C 0.5016(6) 0.7047(11) 0.4092(2)
C108 C 0.5492(7) 0.8032(13) 0.4335(3)
H69 H 0.5763 0.8915 0.4274
C109 C 0.5539(8) 0.7654(15) 0.4655(3)
H70 H 0.5922 0.8205 0.4819
C110 C 0.5045(8) 0.6482(13) 0.4754(3)
H71 H 0.5051 0.6308 0.4982
C111 C 0.4547(8) 0.5576(13) 0.4519(3)
H72 H 0.4224 0.4756 0.4584
C112 C 0.4529(6) 0.5885(11) 0.4188(2)
C113 C 0.3669(6) 0.2707(10) 0.4130(2)
H73 H 0.4286 0.2597 0.4260
C114 C 0.2991(7) 0.2829(12) 0.4346(2)
C115 C 0.2349(7) 0.3886(12) 0.4302(3)
H74 H 0.2346 0.4578 0.4128
C116 C 0.1712(7) 0.4020(13) 0.4491(3)
H75 H 0.1269 0.4771 0.4444
C117 C 0.1711(8) 0.3058(14) 0.4751(3)
H76 H 0.1297 0.3161 0.4897
C118 C 0.2336(8) 0.1942(14) 0.4788(3)
H77 H 0.2309 0.1227 0.4956
C119 C 0.2985(8) 0.1777(14) 0.4607(3)
H78 H 0.3415 0.1004 0.4650
C120 C 0.3464(6) 0.1536(11) 0.3839(2)
H79 H 0.4022 0.1046 0.3796
C121 C 0.2736(7) 0.0389(12) 0.3870(2)
C122 C 0.3032(8) -0.0920(14) 0.4025(3)
H80 H 0.3654 -0.1086 0.4090
C123 C 0.2436(8) -0.1994(14) 0.4086(3)
H81 H 0.2648 -0.2895 0.4192
C124 C 0.1532(8) -0.1759(14) 0.3991(3)
H82 H 0.1105 -0.2463 0.4037
C125 C 0.1291(8) -0.0502(13) 0.3833(3)
H83 H 0.0670 -0.0357 0.3761
C126 C 0.1841(7) 0.0609(13) 0.3764(3)
H84 H 0.1616 0.1483 0.3648
C127 C 0.7194(11) 0.5183(19) 0.1122(4)
C128 C 0.7510(10) 0.3844(17) 0.1094(4)
C129 C 0.7818(12) 0.318(2) 0.0806(4)
C130 C 0.7524(12) 0.350(2) 0.0468(4)
H85 H 0.7130 0.4320 0.0413
C131 C 0.7778(16) 0.270(3) 0.0216(6)
H86 H 0.7573 0.2982 -0.0007
C132 C 0.8345(14) 0.145(3) 0.0288(5)
H87 H 0.8553 0.0878 0.0124
C133 C 0.8587(14) 0.113(2) 0.0649(5)
H88 H 0.8974 0.0314 0.0715
C134 C 0.8300(11) 0.189(2) 0.0880(4)
C135 C 0.8520(11) 0.1819(19) 0.1225(4)
C136 C 0.8961(13) 0.079(2) 0.1429(4)
H89 H 0.9217 -0.0042 0.1338
C137 C 0.9053(12) 0.094(2) 0.1787(4)
H90 H 0.9353 0.0203 0.1931
C138 C 0.8712(9) 0.2120(17) 0.1906(4)
H91 H 0.8838 0.2295 0.2138
C139 C 0.8169(10) 0.3126(17) 0.1704(3)
H92 H 0.7888 0.3930 0.1795
C140 C 0.8060(11) 0.292(2) 0.1377(4)
C141 C 0.6957(9) 0.6165(16) 0.1386(3)
C142 C 0.6773(9) 0.6078(15) 0.1682(3)
C143 C 0.6271(9) 0.4749(14) 0.1814(3)
C144 C 0.6125(10) 0.3367(17) 0.1684(4)
H93 H 0.6303 0.3093 0.1482
C145 C 0.5690(8) 0.2354(16) 0.1867(3)
H94 H 0.5537 0.1401 0.1774
C146 C 0.5484(9) 0.2657(17) 0.2160(3)
H95 H 0.5217 0.1927 0.2278
C147 C 0.5665(8) 0.4022(14) 0.2285(3)
H96 H 0.5495 0.4276 0.2489
C148 C 0.6112(9) 0.5114(15) 0.2117(3)
C149 C 0.6342(8) 0.6587(13) 0.2190(3)
C150 C 0.6361(10) 0.7482(17) 0.2465(3)
H97 H 0.6143 0.7125 0.2653
C151 C 0.6694(9) 0.8870(16) 0.2461(3)
H98 H 0.6707 0.9467 0.2652
C152 C 0.6987(8) 0.9429(14) 0.2222(3)
H99 H 0.7165 1.0443 0.2236
C153 C 0.7069(10) 0.8604(16) 0.1924(3)
H100 H 0.7330 0.9003 0.1750
C154 C 0.6731(10) 0.7197(17) 0.1923(4)
C155 C 0.6985(12) 0.7481(18) 0.1161(4)
H101 H 0.7585 0.7966 0.1202
C156 C 0.6223(11) 0.8658(19) 0.1145(4)
C157 C 0.5487(10) 0.8430(17) 0.1243(3)
H102 H 0.5375 0.7512 0.1343
C158 C 0.4838(13) 0.958(2) 0.1199(4)
H103 H 0.4312 0.9482 0.1291
C159 C 0.4967(12) 1.077(2) 0.1030(4)
H104 H 0.4506 1.1494 0.0989
C160 C 0.5734(11) 1.102(2) 0.0909(4)
H105 H 0.5820 1.1915 0.0795
C161 C 0.6391(11) 0.9906(17) 0.0963(4)
H106 H 0.6930 0.9997 0.0878
C162 C 0.6877(12) 0.640(2) 0.0852(4)
H107 H 0.7342 0.6601 0.0713
C163 C 0.5997(12) 0.627(2) 0.0650(4)
C164 C 0.5783(14) 0.729(2) 0.0415(5)
H108 H 0.6208 0.8042 0.0394
C165 C 0.4986(15) 0.731(3) 0.0203(5)
H109 H 0.4818 0.8109 0.0054
C166 C 0.4491(14) 0.621(2) 0.0218(5)
H110 H 0.3974 0.6170 0.0051
C167 C 0.4588(13) 0.500(2) 0.0450(4)
H111 H 0.4154 0.4255 0.0463
C168 C 0.5499(14) 0.510(2) 0.0672(5)
H112 H 0.5702 0.4329 0.0825
loop_
_geom_bond_atom_site_label_1
_geom_bond_atom_site_label_2
_geom_bond_site_symmetry_1
_geom_bond_site_symmetry_2
C1 C2 1_555 1_555
C2 C3 1_555 1_555
C3 C4 1_555 1_555
C4 H1 1_555 1_555
C5 C4 1_555 1_555
H2 C5 1_555 1_555
C6 C5 1_555 1_555
H3 C6 1_555 1_555
C7 C6 1_555 1_555
H4 C7 1_555 1_555
C8 C3 1_555 1_555
C9 C8 1_555 1_555
C10 C9 1_555 1_555
H5 C10 1_555 1_555
C11 C10 1_555 1_555
H6 C11 1_555 1_555
C12 C11 1_555 1_555
H7 C12 1_555 1_555
C13 C12 1_555 1_555
H8 C13 1_555 1_555
C14 C2 1_555 1_555
C15 C1 1_555 1_555
C16 C15 1_555 1_555
C17 C16 1_555 1_555
C18 C17 1_555 1_555
H9 C18 1_555 1_555
C19 C18 1_555 1_555
H10 C19 1_555 1_555
C20 C19 1_555 1_555
H11 C20 1_555 1_555
C21 C20 1_555 1_555
H12 C21 1_555 1_555
C22 C17 1_555 1_555
C23 C22 1_555 1_555
C24 C23 1_555 1_555
H13 C24 1_555 1_555
C25 C24 1_555 1_555
H14 C25 1_555 1_555
C26 C25 1_555 1_555
H15 C26 1_555 1_555
C27 C26 1_555 1_555
H16 C27 1_555 1_555
C28 C16 1_555 1_555
C29 C15 1_555 1_555
H17 C29 1_555 1_555
C30 C29 1_555 1_555
C31 C30 1_555 1_555
H18 C31 1_555 1_555
C32 C31 1_555 1_555
H19 C32 1_555 1_555
C33 C32 1_555 1_555
H20 C33 1_555 1_555
C34 C33 1_555 1_555
H21 C34 1_555 1_555
C35 C30 1_555 1_555
H22 C35 1_555 1_555
C36 C1 1_555 1_555
H23 C36 1_555 1_555
C37 C36 1_555 1_555
C38 C37 1_555 1_555
H24 C38 1_555 1_555
C39 C38 1_555 1_555
H25 C39 1_555 1_555
C40 C39 1_555 1_555
H26 C40 1_555 1_555
C41 C40 1_555 1_555
H27 C41 1_555 1_555
C42 C37 1_555 1_555
H28 C42 1_555 1_555
C43 C44 1_555 1_555
C44 C45 1_555 1_555
C45 C46 1_555 1_555
C46 H29 1_555 1_555
C47 C46 1_555 1_555
H30 C47 1_555 1_555
C48 C47 1_555 1_555
H31 C48 1_555 1_555
C49 C48 1_555 1_555
H32 C49 1_555 1_555
C50 C45 1_555 1_555
C51 C50 1_555 1_555
C52 C51 1_555 1_555
H33 C52 1_555 1_555
C53 C52 1_555 1_555
H34 C53 1_555 1_555
C54 C53 1_555 1_555
H35 C54 1_555 1_555
C55 C54 1_555 1_555
H36 C55 1_555 1_555
C56 C44 1_555 1_555
C57 C43 1_555 1_555
C58 C57 1_555 1_555
C59 C58 1_555 1_555
C60 C59 1_555 1_555
H37 C60 1_555 1_555
C61 C60 1_555 1_555
H38 C61 1_555 1_555
C62 C61 1_555 1_555
H39 C62 1_555 1_555
C63 C62 1_555 1_555
H40 C63 1_555 1_555
C64 C59 1_555 1_555
C65 C64 1_555 1_555
C66 C65 1_555 1_555
H41 C66 1_555 1_555
C67 C66 1_555 1_555
H42 C67 1_555 1_555
C68 C67 1_555 1_555
H43 C68 1_555 1_555
C69 C68 1_555 1_555
H44 C69 1_555 1_555
C70 C58 1_555 1_555
C71 C57 1_555 1_555
H45 C71 1_555 1_555
C72 C71 1_555 1_555
C73 C72 1_555 1_555
H46 C73 1_555 1_555
C74 C73 1_555 1_555
H47 C74 1_555 1_555
C75 C74 1_555 1_555
H48 C75 1_555 1_555
C76 C75 1_555 1_555
H49 C76 1_555 1_555
C77 C72 1_555 1_555
H50 C77 1_555 1_555
C78 C43 1_555 1_555
H51 C78 1_555 1_555
C79 C78 1_555 1_555
C80 C79 1_555 1_555
H52 C80 1_555 1_555
C81 C80 1_555 1_555
H53 C81 1_555 1_555
C82 C81 1_555 1_555
H54 C82 1_555 1_555
C83 C82 1_555 1_555
H55 C83 1_555 1_555
C84 C79 1_555 1_555
H56 C84 1_555 1_555
C85 C86 1_555 1_555
C86 C87 1_555 1_555
C87 C88 1_555 1_555
C88 H57 1_555 1_555
C89 C88 1_555 1_555
H58 C89 1_555 1_555
C90 C89 1_555 1_555
H59 C90 1_555 1_555
C91 C90 1_555 1_555
H60 C91 1_555 1_555
C92 C87 1_555 1_555
C93 C92 1_555 1_555
C94 C93 1_555 1_555
H61 C94 1_555 1_555
C95 C94 1_555 1_555
H62 C95 1_555 1_555
C96 C95 1_555 1_555
H63 C96 1_555 1_555
C97 C96 1_555 1_555
H64 C97 1_555 1_555
C98 C86 1_555 1_555
C99 C85 1_555 1_555
C100 C99 1_555 1_555
C101 C100 1_555 1_555
C102 C101 1_555 1_555
H65 C102 1_555 1_555
C103 C102 1_555 1_555
H66 C103 1_555 1_555
C104 C103 1_555 1_555
H67 C104 1_555 1_555
C105 C104 1_555 1_555
H68 C105 1_555 1_555
C106 C101 1_555 1_555
C107 C106 1_555 1_555
C108 C107 1_555 1_555
H69 C108 1_555 1_555
C109 C108 1_555 1_555
H70 C109 1_555 1_555
C110 C109 1_555 1_555
H71 C110 1_555 1_555
C111 C110 1_555 1_555
H72 C111 1_555 1_555
C112 C100 1_555 1_555
C113 C99 1_555 1_555
H73 C113 1_555 1_555
C114 C113 1_555 1_555
C115 C114 1_555 1_555
H74 C115 1_555 1_555
C116 C115 1_555 1_555
H75 C116 1_555 1_555
C117 C116 1_555 1_555
H76 C117 1_555 1_555
C118 C117 1_555 1_555
H77 C118 1_555 1_555
C119 C114 1_555 1_555
H78 C119 1_555 1_555
C120 C85 1_555 1_555
H79 C120 1_555 1_555
C121 C120 1_555 1_555
C122 C121 1_555 1_555
H80 C122 1_555 1_555
C123 C122 1_555 1_555
H81 C123 1_555 1_555
C124 C123 1_555 1_555
H82 C124 1_555 1_555
C125 C124 1_555 1_555
H83 C125 1_555 1_555
C126 C121 1_555 1_555
H84 C126 1_555 1_555
C127 C128 1_555 1_555
C128 C129 1_555 1_555
C129 C130 1_555 1_555
C130 H85 1_555 1_555
C131 C130 1_555 1_555
H86 C131 1_555 1_555
C132 C131 1_555 1_555
H87 C132 1_555 1_555
C133 C132 1_555 1_555
H88 C133 1_555 1_555
C134 C129 1_555 1_555
C135 C134 1_555 1_555
C136 C135 1_555 1_555
H89 C136 1_555 1_555
C137 C136 1_555 1_555
H90 C137 1_555 1_555
C138 C137 1_555 1_555
H91 C138 1_555 1_555
C139 C138 1_555 1_555
H92 C139 1_555 1_555
C140 C128 1_555 1_555
C141 C127 1_555 1_555
C142 C141 1_555 1_555
C143 C142 1_555 1_555
C144 C143 1_555 1_555
H93 C144 1_555 1_555
C145 C144 1_555 1_555
H94 C145 1_555 1_555
C146 C145 1_555 1_555
H95 C146 1_555 1_555
C147 C146 1_555 1_555
H96 C147 1_555 1_555
C148 C143 1_555 1_555
C149 C148 1_555 1_555
C150 C149 1_555 1_555
H97 C150 1_555 1_555
C151 C150 1_555 1_555
H98 C151 1_555 1_555
C152 C151 1_555 1_555
H99 C152 1_555 1_555
C153 C152 1_555 1_555
H100 C153 1_555 1_555
C154 C142 1_555 1_555
C155 C141 1_555 1_555
H101 C155 1_555 1_555
C156 C155 1_555 1_555
C157 C156 1_555 1_555
H102 C157 1_555 1_555
C158 C157 1_555 1_555
H103 C158 1_555 1_555
C159 C158 1_555 1_555
H104 C159 1_555 1_555
C160 C159 1_555 1_555
H105 C160 1_555 1_555
C161 C156 1_555 1_555
H106 C161 1_555 1_555
C162 C127 1_555 1_555
H107 C162 1_555 1_555
C163 C162 1_555 1_555
C164 C163 1_555 1_555
H108 C164 1_555 1_555
C165 C164 1_555 1_555
H109 C165 1_555 1_555
C166 C165 1_555 1_555
H110 C166 1_555 1_555
C167 C166 1_555 1_555
H111 C167 1_555 1_555
C168 C163 1_555 1_555
H112 C168 1_555 1_555
C7 C8 1_555 1_555
C9 C14 1_555 1_555
C13 C14 1_555 1_555
C21 C22 1_555 1_555
C23 C28 1_555 1_555
C27 C28 1_555 1_555
C29 C36 1_555 1_555
C34 C35 1_555 1_555
C41 C42 1_555 1_555
C49 C50 1_555 1_555
C51 C56 1_555 1_555
C55 C56 1_555 1_555
C63 C64 1_555 1_555
C65 C70 1_555 1_555
C69 C70 1_555 1_555
C71 C78 1_555 1_555
C76 C77 1_555 1_555
C83 C84 1_555 1_555
C91 C92 1_555 1_555
C93 C98 1_555 1_555
C97 C98 1_555 1_555
C105 C106 1_555 1_555
C107 C112 1_555 1_555
C111 C112 1_555 1_555
C113 C120 1_555 1_555
C118 C119 1_555 1_555
C125 C126 1_555 1_555
C133 C134 1_555 1_555
C135 C140 1_555 1_555
C139 C140 1_555 1_555
C147 C148 1_555 1_555
C149 C154 1_555 1_555
C153 C154 1_555 1_555
C155 C162 1_555 1_555
C160 C161 1_555 1_555
C167 C168 1_555 1_555

#END
