
#######################################################################
#
#                 Cambridge Crystallographic Data Centre
#                                CCDC 
#
#######################################################################
#
# If this CIF has been generated from an entry in the Cambridge 
# Structural Database, then it will include bibliographic, chemical, 
# crystal, experimental, refinement or atomic coordinate data resulting 
# from the CCDC's data processing and validation procedures.
#
#######################################################################

data_GEGYIB
_chemical_formula_moiety         'C38 H38 S2,C1 D1 Cl3'
_chemical_name_systematic        
'2,7-bis(4-t-butylphenyl)-9-(4,5-dimethyl-1,3-dithiol-2-ylidene)fluorene deuterochloroform solvate'
_symmetry_cell_setting           monoclinic
_symmetry_space_group_name_H-M   'C 2/c'
_symmetry_Int_Tables_number      15
_space_group_name_Hall           '-C 2yn'
loop_
_symmetry_equiv_pos_site_id
_symmetry_equiv_pos_as_xyz
1 x,y,z
2 1/2+x,1/2+y,z
3 -x,y,1/2-z
4 1/2-x,1/2+y,1/2-z
5 -x,-y,-z
6 1/2-x,1/2-y,-z
7 x,-y,1/2+z
8 1/2+x,1/2-y,1/2+z
_cell_length_a                   23.879(6)
_cell_length_b                   8.541(2)
_cell_length_c                   34.868(8)
_cell_angle_alpha                90
_cell_angle_beta                 108.16(1)
_cell_angle_gamma                90
_cell_volume                     6757.13
_exptl_crystal_colour            yellow
_exptl_crystal_description       trapezoid
_chemical_melting_point          'above 623 K'
_cell_formula_units_Z            8
loop_
_atom_site_label
_atom_site_type_symbol
_atom_site_fract_x
_atom_site_fract_y
_atom_site_fract_z
S1 S 0.14310(4) 0.55934(10) 0.17956(2)
S2 S 0.07471(4) 0.56494(10) 0.23505(2)
C1 C 0.20413(13) 0.2283(4) 0.18162(9)
H1 H 0.19901(13) 0.3249(4) 0.16745(9)
C2 C 0.23855(13) 0.1096(4) 0.17244(9)
C3 C 0.24503(14) -0.0339(4) 0.19330(10)
H2 H 0.26783(14) -0.1152(4) 0.18696(10)
C4 C 0.21867(14) -0.0583(4) 0.22301(9)
H3 H 0.22323(14) -0.1555(4) 0.23686(9)
C5 C 0.15423(14) -0.0408(4) 0.29238(10)
H4 H 0.17276(14) -0.1399(4) 0.29361(10)
C6 C 0.12516(13) -0.0023(4) 0.31977(9)
H5 H 0.12496(13) -0.0745(4) 0.34046(9)
C7 C 0.09598(13) 0.1413(4) 0.31740(9)
C8 C 0.09649(13) 0.2491(4) 0.28713(9)
H6 H 0.07587(13) 0.3455(4) 0.28497(9)
C9 C 0.14003(13) 0.3061(4) 0.22772(9)
C10 C 0.17734(13) 0.2047(4) 0.21150(9)
C11 C 0.18538(13) 0.0602(4) 0.23222(9)
C12 C 0.15567(13) 0.0670(4) 0.26290(9)
C13 C 0.12731(13) 0.2142(4) 0.26016(9)
C14 C 0.12202(13) 0.4553(4) 0.21604(9)
C15 C 0.09497(14) 0.7186(4) 0.17504(10)
C16 C 0.06393(15) 0.7217(4) 0.20078(10)
C17 C 0.09315(16) 0.8342(4) 0.14227(11)
H7 H 0.06784(16) 0.9223(4) 0.14410(11)
H8 H 0.07731(16) 0.7838(4) 0.11583(11)
H9 H 0.13304(16) 0.8724(4) 0.14557(11)
C18 C 0.02022(17) 0.8432(4) 0.20377(12)
H10 H 0.03708(17) 0.9061(4) 0.22815(12)
H11 H -0.01588(17) 0.7922(4) 0.20507(12)
H12 H 0.01099(17) 0.9110(4) 0.17994(12)
C19 C 0.26902(14) 0.1354(4) 0.14160(9)
C20 C 0.32183(15) 0.0578(4) 0.14434(10)
H13 H 0.33796(15) -0.0136(4) 0.16586(10)
C21 C 0.35096(15) 0.0820(4) 0.11634(11)
H14 H 0.38614(15) 0.0254(4) 0.11882(11)
C22 C 0.33008(15) 0.1879(4) 0.08435(10)
C23 C 0.27758(14) 0.2655(4) 0.08187(10)
H15 H 0.26198(14) 0.3384(4) 0.06065(10)
C24 C 0.24763(14) 0.2390(4) 0.10932(10)
H16 H 0.21155(14) 0.2922(4) 0.10612(10)
C25 C 0.36386(16) 0.2130(4) 0.05409(11)
C26 C 0.42957(17) 0.2469(5) 0.07745(13)
H17 H 0.43230(17) 0.3387(5) 0.09480(13)
H18 H 0.45068(17) 0.2677(5) 0.05797(13)
H19 H 0.44722(17) 0.1563(5) 0.09407(13)
C27 C 0.33938(17) 0.3492(5) 0.02528(11)
H20 H 0.29894(17) 0.3265(5) 0.00854(11)
H21 H 0.36425(17) 0.3642(5) 0.00791(11)
H22 H 0.33977(17) 0.4447(5) 0.04094(11)
C28 C 0.3592(2) 0.0631(5) 0.02869(13)
H23 H 0.3755(2) -0.0256(5) 0.04649(13)
H24 H 0.3816(2) 0.0779(5) 0.00973(13)
H25 H 0.3179(2) 0.0421(5) 0.01361(13)
C29 C 0.06621(14) 0.1808(4) 0.34789(9)
C30 C 0.09425(15) 0.1532(4) 0.38890(10)
H26 H 0.13328(15) 0.1131(4) 0.39752(10)
C31 C 0.06568(15) 0.1838(4) 0.41720(10)
H27 H 0.08603(15) 0.1648(4) 0.44491(10)
C32 C 0.00898(15) 0.2412(4) 0.40654(10)
C33 C -0.01838(15) 0.2703(4) 0.36544(10)
H28 H -0.05739(15) 0.3106(4) 0.35693(10)
C34 C 0.00958(14) 0.2431(4) 0.33686(9)
H29 H -0.01013(14) 0.2672(4) 0.30935(9)
C35 C -0.02516(16) 0.2664(4) 0.43693(10)
C36 C -0.0491(2) 0.4356(5) 0.43342(14)
H30 H -0.0745(2) 0.4555(5) 0.40580(14)
H31 H -0.0158(2) 0.5088(5) 0.44017(14)
H32 H -0.0717(2) 0.4502(5) 0.45226(14)
C37 C 0.0139(2) 0.2406(6) 0.48048(11)
H33 H -0.0090(2) 0.2586(6) 0.49898(11)
H34 H 0.0471(2) 0.3138(6) 0.48676(11)
H35 H 0.0288(2) 0.1329(6) 0.48355(11)
C38 C -0.07653(19) 0.1527(5) 0.42765(12)
H36 H -0.06137(19) 0.0453(5) 0.43177(12)
H37 H -0.10155(19) 0.1655(5) 0.39961(12)
H38 H -0.09971(19) 0.1736(5) 0.44586(12)
Cl1 Cl 0.24333(6) 0.33988(15) 0.61588(4)
Cl2 Cl 0.14742(11) 0.1948(5) 0.55054(8)
Cl5 Cl 0.2514(6) 0.1556(16) 0.5571(4)
C39 C 0.2122(5) 0.2401(14) 0.5835(3)
Cl3? Cl 0.25680(11) 0.2500(3) 0.53556(9)
Cl4? Cl 0.1884(3) 0.1305(6) 0.54710(13)
Cl6? Cl 0.1478(12) 0.317(3) 0.5690(9)
C40? C 0.2241(4) 0.1999(11) 0.5749(3)
loop_
_geom_bond_atom_site_label_1
_geom_bond_atom_site_label_2
_geom_bond_site_symmetry_1
_geom_bond_site_symmetry_2
S1 C14 1_555 1_555
S2 C14 1_555 1_555
C1 H1 1_555 1_555
C2 C1 1_555 1_555
C3 C2 1_555 1_555
H2 C3 1_555 1_555
C4 C3 1_555 1_555
H3 C4 1_555 1_555
C5 H4 1_555 1_555
C6 C5 1_555 1_555
H5 C6 1_555 1_555
C7 C6 1_555 1_555
C8 C7 1_555 1_555
H6 C8 1_555 1_555
C9 C10 1_555 1_555
C10 C1 1_555 1_555
C11 C4 1_555 1_555
C12 C5 1_555 1_555
C13 C8 1_555 1_555
C14 C9 1_555 1_555
C15 S1 1_555 1_555
C16 S2 1_555 1_555
C17 C15 1_555 1_555
H7 C17 1_555 1_555
H8 C17 1_555 1_555
H9 C17 1_555 1_555
C18 C16 1_555 1_555
H10 C18 1_555 1_555
H11 C18 1_555 1_555
H12 C18 1_555 1_555
C19 C2 1_555 1_555
C20 C19 1_555 1_555
H13 C20 1_555 1_555
C21 C20 1_555 1_555
H14 C21 1_555 1_555
C22 C21 1_555 1_555
C23 C22 1_555 1_555
H15 C23 1_555 1_555
C24 C19 1_555 1_555
H16 C24 1_555 1_555
C25 C22 1_555 1_555
C26 C25 1_555 1_555
H17 C26 1_555 1_555
H18 C26 1_555 1_555
H19 C26 1_555 1_555
C27 C25 1_555 1_555
H20 C27 1_555 1_555
H21 C27 1_555 1_555
H22 C27 1_555 1_555
C28 C25 1_555 1_555
H23 C28 1_555 1_555
H24 C28 1_555 1_555
H25 C28 1_555 1_555
C29 C7 1_555 1_555
C30 C29 1_555 1_555
H26 C30 1_555 1_555
C31 C30 1_555 1_555
H27 C31 1_555 1_555
C32 C31 1_555 1_555
C33 C32 1_555 1_555
H28 C33 1_555 1_555
C34 C29 1_555 1_555
H29 C34 1_555 1_555
C35 C32 1_555 1_555
C36 C35 1_555 1_555
H30 C36 1_555 1_555
H31 C36 1_555 1_555
H32 C36 1_555 1_555
C37 C35 1_555 1_555
H33 C37 1_555 1_555
H34 C37 1_555 1_555
H35 C37 1_555 1_555
C38 C35 1_555 1_555
H36 C38 1_555 1_555
H37 C38 1_555 1_555
H38 C38 1_555 1_555
Cl1 C39 1_555 1_555
Cl2 C39 1_555 1_555
Cl5 C39 1_555 1_555
C9 C13 1_555 1_555
C10 C11 1_555 1_555
C11 C12 1_555 1_555
C12 C13 1_555 1_555
C15 C16 1_555 1_555
C23 C24 1_555 1_555
C33 C34 1_555 1_555

#END
