
#######################################################################
#
#                 Cambridge Crystallographic Data Centre
#                                CCDC 
#
#######################################################################
#
# If this CIF has been generated from an entry in the Cambridge 
# Structural Database, then it will include bibliographic, chemical, 
# crystal, experimental, refinement or atomic coordinate data resulting 
# from the CCDC's data processing and validation procedures.
#
#######################################################################

data_GEHKUC
_chemical_compound_source        
'fungus Xylaria sp. isolated from the Chinese medicinal plant Sophora tonkinensis'
_chemical_name_common            'Xylapeptide A'
_chemical_formula_moiety         'C30 H45 N5 O5,2(H2 O1)'
_chemical_name_systematic        
'3-benzyl-12-isobutyl-6-isopropyl-2,9-dimethyldodecahydropyrido[1,2-a][1,4,7,10,13]pentaazacyclopentadecine-1,4,7,10,13(15H)-pentone dihydrate'
_chemical_properties_biological  'antibacterial and antifungal activity'
_symmetry_cell_setting           monoclinic
_symmetry_space_group_name_H-M   'P 21'
_symmetry_Int_Tables_number      4
_space_group_name_Hall           'P 2yb'
loop_
_symmetry_equiv_pos_site_id
_symmetry_equiv_pos_as_xyz
1 x,y,z
2 -x,1/2+y,-z
_cell_length_a                   13.3173(2)
_cell_length_b                   6.90755(8)
_cell_length_c                   17.8276(3)
_cell_angle_alpha                90
_cell_angle_beta                 93.7299(14)
_cell_angle_gamma                90
_cell_volume                     1636.49
_exptl_crystal_colour            colorless
_exptl_crystal_description       block
_cell_formula_units_Z            2
loop_
_atom_site_label
_atom_site_type_symbol
_atom_site_fract_x
_atom_site_fract_y
_atom_site_fract_z
O1 O -0.91740(9) -0.44730(17) -0.34019(6)
O2 O -0.70770(9) -0.5356(2) -0.24856(6)
O3 O -0.53850(11) -0.78568(19) -0.28435(7)
N1 N -0.85154(11) -0.3488(2) -0.18318(8)
H1 H -0.8854 -0.4349 -0.2088
N2 N -0.53477(10) -0.5058(2) -0.34744(7)
N3 N -0.71652(10) -0.3271(2) -0.39241(7)
H2 H -0.7118 -0.4274 -0.3638
N4 N -0.90210(10) -0.1232(2) -0.32403(7)
H3 H -0.8804 -0.0164 -0.3417
O4 O -0.84804(11) -0.0346(2) -0.14571(7)
O5 O -0.62718(9) -0.09692(18) -0.44976(7)
N5 N -0.58563(11) -0.4623(2) -0.16068(8)
C1 C -0.68242(13) -0.4707(2) -0.18605(9)
C2 C -0.63215(13) -0.2288(2) -0.40464(9)
C3 C -0.53160(13) -0.6070(3) -0.28300(9)
C4 C -0.88532(11) -0.2879(2) -0.36003(9)
C5 C -0.88053(13) -0.1614(3) -0.18869(9)
C6 C -0.81603(12) -0.2725(2) -0.42512(8)
H4 H -0.8140 -0.1374 -0.4417
C7 C -0.50256(13) -0.5046(3) -0.20851(9)
H5 H -0.4703 -0.3817 -0.2201
C8 C -0.35167(13) -0.2504(3) -0.33078(10)
C9 C -0.53888(12) -0.2940(2) -0.35467(9)
H6 H -0.5457 -0.2406 -0.3043
C10 C -0.76484(13) -0.4084(2) -0.13525(9)
H7 H -0.7408 -0.2989 -0.1041
C11 C -0.87050(14) -0.5374(3) -0.02964(10)
H8 H -0.9326 -0.5016 -0.0588
C12 C -0.47492(15) -0.4897(3) -0.04543(10)
H9 H -0.4514 -0.4220 0.0000
H10 H -0.5063 -0.6095 -0.0310
C13 C -0.54069(14) -0.6178(3) -0.41773(10)
H11 H -0.4856 -0.7076 -0.4172
H12 H -0.5372 -0.5314 -0.4596
H13 H -0.6031 -0.6876 -0.4222
C14 C -0.44216(13) -0.2107(3) -0.38389(10)
H14 H -0.4314 -0.2672 -0.4325
H15 H -0.4497 -0.0720 -0.3906
C15 C -0.95650(13) -0.1188(3) -0.25510(9)
H16 H -1.0081 -0.2202 -0.2578
C16 C -0.78976(14) -0.5791(3) -0.08449(10)
H17 H -0.8118 -0.6873 -0.1161
H18 H -0.7287 -0.6184 -0.0559
C17 C -0.95641(14) -0.3234(3) -0.52323(11)
H19 H -1.0023 -0.3185 -0.4839
H20 H -0.9827 -0.4081 -0.5624
H21 H -0.9482 -0.1958 -0.5433
C18 C -0.78051(15) -0.4076(3) -0.55276(10)
H22 H -0.7724 -0.2804 -0.5732
H23 H -0.8056 -0.4937 -0.5919
H24 H -0.7167 -0.4538 -0.5319
C19 C -0.85456(13) -0.3993(3) -0.49151(9)
H25 H -0.8641 -0.5311 -0.4729
C20 C -0.89054(17) -0.7208(4) 0.01436(12)
H26 H -0.9090 -0.8237 -0.0200
H27 H -0.9444 -0.6979 0.0465
H28 H -0.8309 -0.7565 0.0443
C21 C -0.38810(17) -0.5336(5) -0.09100(12)
H29 H -0.3415 -0.6187 -0.0629
H30 H -0.3528 -0.4147 -0.1015
C22 C -0.32978(15) -0.1337(3) -0.26869(11)
H31 H -0.3683 -0.0238 -0.2616
C23 C -1.00712(17) 0.0764(3) -0.24685(11)
H32 H -0.9574 0.1770 -0.2464
H33 H -1.0403 0.0793 -0.2006
H34 H -1.0557 0.0963 -0.2883
C24 C -0.55086(16) -0.3666(4) -0.08966(11)
H35 H -0.6080 -0.3429 -0.0598
H36 H -0.5208 -0.2427 -0.1006
C25 C -0.84102(17) -0.3708(3) 0.02338(11)
H37 H -0.7766 -0.3973 0.0486
H38 H -0.8905 -0.3572 0.0599
H39 H -0.8374 -0.2531 -0.0049
C26 C -0.21156(17) -0.4531(5) -0.28911(16)
H40 H -0.1709 -0.5598 -0.2967
C27 C -0.29111(15) -0.4093(3) -0.34113(13)
H41 H -0.3035 -0.4877 -0.3831
C28 C -0.25118(17) -0.1792(4) -0.21724(13)
H42 H -0.2375 -0.0999 -0.1756
C29 C -0.19338(16) -0.3394(5) -0.22694(14)
H43 H -0.1418 -0.3711 -0.1914
C30 C -0.42450(17) -0.6304(5) -0.16484(12)
H44 H -0.4539 -0.7552 -0.1544
H45 H -0.3677 -0.6521 -0.1952
O6 O -0.79977(13) 0.2108(2) -0.36026(9)
H46 H -0.7413 0.2100 -0.3381
H47 H -0.8289 0.3174 -0.3516
O7 O -0.63466(17) -0.0170(3) -0.18389(17)
H48 H -0.6087 0.0669 -0.2117
H49 H -0.6940 0.0174 -0.1752
loop_
_geom_bond_atom_site_label_1
_geom_bond_atom_site_label_2
_geom_bond_site_symmetry_1
_geom_bond_site_symmetry_2
O1 C4 1_555 1_555
O2 C1 1_555 1_555
O3 C3 1_555 1_555
N1 H1 1_555 1_555
N2 C3 1_555 1_555
N3 H2 1_555 1_555
N4 H3 1_555 1_555
O4 C5 1_555 1_555
O5 C2 1_555 1_555
N5 C1 1_555 1_555
C1 C10 1_555 1_555
C2 N3 1_555 1_555
C3 C7 1_555 1_555
C4 N4 1_555 1_555
C5 N1 1_555 1_555
C6 N3 1_555 1_555
H4 C6 1_555 1_555
C7 N5 1_555 1_555
H5 C7 1_555 1_555
C8 C14 1_555 1_555
C9 N2 1_555 1_555
H6 C9 1_555 1_555
C10 N1 1_555 1_555
H7 C10 1_555 1_555
C11 H8 1_555 1_555
C12 H9 1_555 1_555
H10 C12 1_555 1_555
C13 N2 1_555 1_555
H11 C13 1_555 1_555
H12 C13 1_555 1_555
H13 C13 1_555 1_555
C14 C9 1_555 1_555
H14 C14 1_555 1_555
H15 C14 1_555 1_555
C15 N4 1_555 1_555
H16 C15 1_555 1_555
C16 C10 1_555 1_555
H17 C16 1_555 1_555
H18 C16 1_555 1_555
C17 H19 1_555 1_555
H20 C17 1_555 1_555
H21 C17 1_555 1_555
C18 H22 1_555 1_555
H23 C18 1_555 1_555
H24 C18 1_555 1_555
C19 C6 1_555 1_555
H25 C19 1_555 1_555
C20 C11 1_555 1_555
H26 C20 1_555 1_555
H27 C20 1_555 1_555
H28 C20 1_555 1_555
C21 C12 1_555 1_555
H29 C21 1_555 1_555
H30 C21 1_555 1_555
C22 C8 1_555 1_555
H31 C22 1_555 1_555
C23 C15 1_555 1_555
H32 C23 1_555 1_555
H33 C23 1_555 1_555
H34 C23 1_555 1_555
C24 N5 1_555 1_555
H35 C24 1_555 1_555
H36 C24 1_555 1_555
C25 C11 1_555 1_555
H37 C25 1_555 1_555
H38 C25 1_555 1_555
H39 C25 1_555 1_555
C26 H40 1_555 1_555
C27 C8 1_555 1_555
H41 C27 1_555 1_555
C28 C22 1_555 1_555
H42 C28 1_555 1_555
C29 C26 1_555 1_555
H43 C29 1_555 1_555
C30 C7 1_555 1_555
H44 C30 1_555 1_555
H45 C30 1_555 1_555
O6 H46 1_555 1_555
H47 O6 1_555 1_555
O7 H48 1_555 1_555
H49 O7 1_555 1_555
C2 C9 1_555 1_555
C4 C6 1_555 1_555
C5 C15 1_555 1_555
C11 C16 1_555 1_555
C12 C24 1_555 1_555
C17 C19 1_555 1_555
C18 C19 1_555 1_555
C21 C30 1_555 1_555
C26 C27 1_555 1_555
C28 C29 1_555 1_555

#END
