
#######################################################################
#
#                 Cambridge Crystallographic Data Centre
#                                CCDC 
#
#######################################################################
#
# If this CIF has been generated from an entry in the Cambridge 
# Structural Database, then it will include bibliographic, chemical, 
# crystal, experimental, refinement or atomic coordinate data resulting 
# from the CCDC's data processing and validation procedures.
#
#######################################################################

data_GEHSOC
_chemical_formula_moiety         'C31 H27 N1 O2'
_chemical_name_systematic        
(2RS,6SR)-N-Diphenylacetyl-2,6-diphenyl-4-piperidone
_symmetry_cell_setting           monoclinic
_symmetry_space_group_name_H-M   'P 21/n'
_symmetry_Int_Tables_number      14
_space_group_name_Hall           '-P 2yn'
loop_
_symmetry_equiv_pos_site_id
_symmetry_equiv_pos_as_xyz
1 x,y,z
2 1/2-x,1/2+y,1/2-z
3 -x,-y,-z
4 1/2+x,1/2-y,1/2+z
_cell_length_a                   11.2499(2)
_cell_length_b                   11.8622(3)
_cell_length_c                   18.2320(5)
_cell_angle_alpha                90
_cell_angle_beta                 107.8750(15)
_cell_angle_gamma                90
_cell_volume                     2315.59
_exptl_crystal_colour            colorless
_exptl_crystal_description       block
_chemical_melting_point          '456-458 K'
_cell_formula_units_Z            4
_exptl_crystal_recrystallization_method ethanol
loop_
_atom_site_label
_atom_site_type_symbol
_atom_site_fract_x
_atom_site_fract_y
_atom_site_fract_z
N1 N 0.34918(10) 0.41908(10) 0.58621(7)
C1 C 0.32132(13) 0.36064(12) 0.65098(8)
C2 C 0.34948(13) 0.23401(12) 0.64931(9)
C3 C 0.47622(13) 0.20574(12) 0.64165(8)
O1 O 0.52792(10) 0.11676(9) 0.66396(7)
C4 C 0.52832(13) 0.29441(12) 0.60146(9)
C5 C 0.42327(13) 0.35922(12) 0.54366(8)
C6 C 0.33943(12) 0.53392(12) 0.57633(8)
O2 O 0.35738(9) 0.57918(8) 0.52005(6)
C7 C 0.31285(13) 0.60404(11) 0.63988(8)
C8 C 0.18642(13) 0.37629(11) 0.64989(8)
C9 C 0.08834(13) 0.37124(12) 0.58159(8)
C10 C -0.03383(14) 0.38642(13) 0.58186(9)
C11 C -0.05890(14) 0.40706(12) 0.65050(9)
C12 C 0.03768(14) 0.41124(12) 0.71879(9)
C13 C 0.16009(13) 0.39562(12) 0.71856(8)
C14 C 0.34367(13) 0.28937(12) 0.47633(8)
C15 C 0.37743(14) 0.18174(12) 0.45973(9)
C16 C 0.30662(16) 0.12432(14) 0.39441(10)
C17 C 0.20107(16) 0.17371(14) 0.34489(9)
C18 C 0.16689(15) 0.28132(14) 0.36032(9)
C19 C 0.23736(13) 0.33839(13) 0.42541(8)
C20 C 0.43149(13) 0.60943(11) 0.70875(8)
C21 C 0.42128(14) 0.60855(12) 0.78310(8)
C22 C 0.52623(15) 0.61733(12) 0.84693(9)
C23 C 0.64295(15) 0.62671(12) 0.83756(9)
C24 C 0.65518(14) 0.62538(13) 0.76453(9)
C25 C 0.55003(13) 0.61714(12) 0.70026(9)
C26 C 0.26109(13) 0.71978(12) 0.61136(8)
C27 C 0.13782(13) 0.74515(12) 0.60553(8)
C28 C 0.08817(14) 0.85120(13) 0.58077(9)
C29 C 0.16154(15) 0.93211(13) 0.56122(9)
C30 C 0.28441(15) 0.90752(13) 0.56645(9)
C31 C 0.33386(14) 0.80231(12) 0.59163(8)
H1 H 0.3770 0.3926 0.7003
H2 H 0.3430 0.1993 0.6973
H3 H 0.2846 0.1992 0.6057
H4 H 0.5822 0.2584 0.5742
H5 H 0.5804 0.3474 0.6400
H6 H 0.4643 0.4188 0.5210
H7 H 0.2480 0.5633 0.6568
H8 H 0.1050 0.3573 0.5344
H9 H -0.1004 0.3827 0.5349
H10 H -0.1425 0.4183 0.6505
H11 H 0.0206 0.4248 0.7659
H12 H 0.2263 0.3982 0.7657
H13 H 0.4498 0.1470 0.4934
H14 H 0.3309 0.0509 0.3838
H15 H 0.1522 0.1342 0.3006
H16 H 0.0950 0.3160 0.3262
H17 H 0.2130 0.4120 0.4356
H18 H 0.3412 0.6018 0.7900
H19 H 0.5179 0.6169 0.8972
H20 H 0.7148 0.6341 0.8813
H21 H 0.7357 0.6301 0.7582
H22 H 0.5591 0.6168 0.6502
H23 H 0.0869 0.6896 0.6186
H24 H 0.0040 0.8678 0.5773
H25 H 0.1279 1.0044 0.5442
H26 H 0.3348 0.9629 0.5527
H27 H 0.4183 0.7863 0.5955
loop_
_geom_bond_atom_site_label_1
_geom_bond_atom_site_label_2
_geom_bond_site_symmetry_1
_geom_bond_site_symmetry_2
N1 C1 1_555 1_555
C1 C2 1_555 1_555
C2 C3 1_555 1_555
C3 O1 1_555 1_555
C4 C3 1_555 1_555
C5 N1 1_555 1_555
C6 N1 1_555 1_555
O2 C6 1_555 1_555
C7 C6 1_555 1_555
C8 C1 1_555 1_555
C9 C8 1_555 1_555
C10 C9 1_555 1_555
C11 C10 1_555 1_555
C12 C11 1_555 1_555
C13 C8 1_555 1_555
C14 C5 1_555 1_555
C15 C14 1_555 1_555
C16 C15 1_555 1_555
C17 C16 1_555 1_555
C18 C17 1_555 1_555
C19 C14 1_555 1_555
C20 C7 1_555 1_555
C21 C20 1_555 1_555
C22 C21 1_555 1_555
C23 C22 1_555 1_555
C24 C23 1_555 1_555
C25 C20 1_555 1_555
C26 C7 1_555 1_555
C27 C26 1_555 1_555
C28 C27 1_555 1_555
C29 C28 1_555 1_555
C30 C29 1_555 1_555
C31 C26 1_555 1_555
H1 C1 1_555 1_555
H2 C2 1_555 1_555
H3 C2 1_555 1_555
H4 C4 1_555 1_555
H5 C4 1_555 1_555
H6 C5 1_555 1_555
H7 C7 1_555 1_555
H8 C9 1_555 1_555
H9 C10 1_555 1_555
H10 C11 1_555 1_555
H11 C12 1_555 1_555
H12 C13 1_555 1_555
H13 C15 1_555 1_555
H14 C16 1_555 1_555
H15 C17 1_555 1_555
H16 C18 1_555 1_555
H17 C19 1_555 1_555
H18 C21 1_555 1_555
H19 C22 1_555 1_555
H20 C23 1_555 1_555
H21 C24 1_555 1_555
H22 C25 1_555 1_555
H23 C27 1_555 1_555
H24 C28 1_555 1_555
H25 C29 1_555 1_555
H26 C30 1_555 1_555
H27 C31 1_555 1_555
C4 C5 1_555 1_555
C12 C13 1_555 1_555
C18 C19 1_555 1_555
C24 C25 1_555 1_555
C30 C31 1_555 1_555

#END
