
#######################################################################
#
#                 Cambridge Crystallographic Data Centre
#                                CCDC 
#
#######################################################################
#
# If this CIF has been generated from an entry in the Cambridge 
# Structural Database, then it will include bibliographic, chemical, 
# crystal, experimental, refinement or atomic coordinate data resulting 
# from the CCDC's data processing and validation procedures.
#
#######################################################################

data_GEHVAT
_chemical_formula_moiety         'C10 H17 F1 N1 O2'
_chemical_name_systematic        
(6S,7S,7aS)-7-Ethyl-6-fluoro-3,3-dimethyltetrahydro-3H,5H-pyrrolo-[1,2-c]oxazol-5-one
_symmetry_cell_setting           orthorhombic
_symmetry_space_group_name_H-M   'P 21 21 21'
_symmetry_Int_Tables_number      19
_space_group_name_Hall           'P 2ac 2ab'
loop_
_symmetry_equiv_pos_site_id
_symmetry_equiv_pos_as_xyz
1 x,y,z
2 1/2-x,-y,1/2+z
3 -x,1/2+y,1/2-z
4 1/2+x,1/2-y,-z
_cell_length_a                   7.6271(4)
_cell_length_b                   7.7865(4)
_cell_length_c                   17.5309(9)
_cell_angle_alpha                90
_cell_angle_beta                 90
_cell_angle_gamma                90
_cell_volume                     1041.13
_exptl_crystal_description       plate
_cell_formula_units_Z            4
loop_
_atom_site_label
_atom_site_type_symbol
_atom_site_fract_x
_atom_site_fract_y
_atom_site_fract_z
O1 O 0.76842(19) -0.08514(18) 0.22649(7)
N1 N 0.64529(19) 0.15914(18) 0.18389(8)
H1 H 0.5891 0.1905 0.2275
C1 C 0.4315(2) 0.0837(3) 0.09178(10)
H2 H 0.3077 0.0505 0.0939
C2 C 0.8045(2) 0.0938(2) 0.22223(10)
C3 C 0.6519(3) -0.1300(2) 0.16562(10)
H3 H 0.5919 -0.2373 0.1760
H4 H 0.7141 -0.1395 0.1175
O2 O 0.7015(3) 0.4373(2) 0.14919(9)
C4 C 0.5252(2) 0.0195(2) 0.16482(9)
H5 H 0.4392 0.0054 0.2059
C5 C 0.6156(3) 0.3061(2) 0.14707(11)
C6 C 0.9662(3) 0.1286(3) 0.17419(13)
H6 H 1.0676 0.0819 0.1992
H7 H 0.9807 0.2502 0.1679
H8 H 0.9527 0.0756 0.1251
C7 C 0.4462(3) 0.2773(3) 0.10313(13)
H9 H 0.3476 0.3161 0.1346
F1 F 0.4475(3) 0.3703(2) 0.03624(10)
C8 C 0.8235(4) 0.1597(3) 0.30308(11)
H10 H 0.7196 0.1327 0.3315
H11 H 0.8399 0.2819 0.3022
H12 H 0.9230 0.1063 0.3268
C9 C 0.4591(4) -0.1648(4) 0.00042(14)
H13 H 0.4913 -0.2366 0.0427
H14 H 0.5184 -0.2034 -0.0447
H15 H 0.3346 -0.1710 -0.0074
C10 C 0.5108(3) 0.0187(3) 0.01721(11)
H16 H 0.4722 0.0917 -0.0244
H17 H 0.6376 0.0263 0.0202
loop_
_geom_bond_atom_site_label_1
_geom_bond_atom_site_label_2
_geom_bond_site_symmetry_1
_geom_bond_site_symmetry_2
O1 C2 1_555 1_555
N1 H1 1_555 1_555
C1 H2 1_555 1_555
C2 N1 1_555 1_555
C3 O1 1_555 1_555
H3 C3 1_555 1_555
H4 C3 1_555 1_555
O2 C5 1_555 1_555
C4 N1 1_555 1_555
H5 C4 1_555 1_555
C5 N1 1_555 1_555
C6 C2 1_555 1_555
H6 C6 1_555 1_555
H7 C6 1_555 1_555
H8 C6 1_555 1_555
C7 C1 1_555 1_555
H9 C7 1_555 1_555
F1 C7 1_555 1_555
C8 C2 1_555 1_555
H10 C8 1_555 1_555
H11 C8 1_555 1_555
H12 C8 1_555 1_555
C9 H13 1_555 1_555
H14 C9 1_555 1_555
H15 C9 1_555 1_555
C10 C1 1_555 1_555
H16 C10 1_555 1_555
H17 C10 1_555 1_555
C1 C4 1_555 1_555
C3 C4 1_555 1_555
C5 C7 1_555 1_555
C9 C10 1_555 1_555

#END
