
#######################################################################
#
#                 Cambridge Crystallographic Data Centre
#                                CCDC 
#
#######################################################################
#
# If this CIF has been generated from an entry in the Cambridge 
# Structural Database, then it will include bibliographic, chemical, 
# crystal, experimental, refinement or atomic coordinate data resulting 
# from the CCDC's data processing and validation procedures.
#
#######################################################################

data_GEJHEJ
_chemical_formula_moiety         'C11 H6 Cl1 F3 N4 O2 S1'
_chemical_name_systematic        
1-(2-Chlorobenzoyl)-3-(5-trifluoromethyl-1,3,4-thiadiazol-2-yl)urea
_symmetry_cell_setting           monoclinic
_symmetry_space_group_name_H-M   'P 21/c'
_symmetry_Int_Tables_number      14
_space_group_name_Hall           '-P 2ybc'
loop_
_symmetry_equiv_pos_site_id
_symmetry_equiv_pos_as_xyz
1 x,y,z
2 -x,1/2+y,1/2-z
3 -x,-y,-z
4 x,1/2-y,1/2+z
_cell_length_a                   15.657(2)
_cell_length_b                   9.6399(14)
_cell_length_c                   9.5673(14)
_cell_angle_alpha                90
_cell_angle_beta                 95.606(2)
_cell_angle_gamma                90
_cell_volume                     1437.1
_exptl_crystal_colour            colorless
_exptl_crystal_description       block
_chemical_melting_point          '479-480 K'
_cell_formula_units_Z            4
loop_
_atom_site_label
_atom_site_type_symbol
_atom_site_fract_x
_atom_site_fract_y
_atom_site_fract_z
C1 C 0.44653(19) 0.1183(5) 0.2314(5)
C2 C 0.35659(16) 0.1665(4) 0.2405(4)
C3 C 0.21088(15) 0.2090(3) 0.2287(3)
C4 C 0.07395(13) 0.1348(3) 0.1211(2)
C5 C -0.05626(16) 0.2634(3) 0.1710(3)
C6 C -0.15026(15) 0.2696(3) 0.1241(3)
C7 C -0.20459(17) 0.1649(3) 0.1555(3)
H1 H -0.1822 0.0871 0.2034
C8 C -0.29149(19) 0.1725(4) 0.1174(4)
H2 H -0.3273 0.1010 0.1409
C9 C -0.32475(18) 0.2835(4) 0.0462(3)
H3 H -0.3836 0.2890 0.0217
C10 C -0.2725(2) 0.3880(4) 0.0099(3)
H4 H -0.2953 0.4638 -0.0411
C11 C -0.18551(17) 0.3801(3) 0.0494(3)
Cl1 Cl -0.12204(10) 0.51454(15) -0.00119(18)
F1 F 0.5030(4) 0.2173(9) 0.2450(17)
F2 F 0.4715(7) 0.0396(13) 0.3438(14)
F3 F 0.4560(10) 0.049(2) 0.1222(13)
N1 N 0.3402(6) 0.2738(9) 0.3165(10)
N2 N 0.2560(6) 0.3008(10) 0.3100(9)
N7 N 0.12278(12) 0.2170(2) 0.2109(2)
H5 H 0.0998(17) 0.283(2) 0.254(3)
N8 N -0.01371(10) 0.1609(2) 0.1095(2)
H6 H -0.0399(14) 0.103(2) 0.051(2)
O1 O 0.10416(9) 0.04761(17) 0.0516(2)
O2 O -0.0235(8) 0.3426(13) 0.2504(13)
S1 S 0.26987(4) 0.08790(7) 0.15341(7)
Cl2? Cl -0.0977(4) 0.4497(9) -0.0299(10)
F4? F 0.4827(5) 0.1971(16) 0.1409(16)
F5? F 0.4918(7) 0.120(2) 0.3442(13)
F6? F 0.4470(9) -0.0034(12) 0.1771(18)
N3? N 0.3334(16) 0.2193(15) 0.3647(14)
N4? N 0.2478(16) 0.2469(18) 0.3602(12)
N5? N 0.346(2) 0.3053(13) 0.2609(18)
N6? N 0.2548(19) 0.332(2) 0.2536(15)
O3? O -0.014(2) 0.382(3) 0.208(3)
O4? O -0.0238(19) 0.303(3) 0.3006(18)
loop_
_geom_bond_atom_site_label_1
_geom_bond_atom_site_label_2
_geom_bond_site_symmetry_1
_geom_bond_site_symmetry_2
C1 C2 1_555 1_555
C2 N1 1_555 1_555
C3 N2 1_555 1_555
C4 N7 1_555 1_555
C5 C6 1_555 1_555
C6 C7 1_555 1_555
C7 H1 1_555 1_555
C8 C7 1_555 1_555
H2 C8 1_555 1_555
C9 C8 1_555 1_555
H3 C9 1_555 1_555
C10 C9 1_555 1_555
H4 C10 1_555 1_555
C11 C6 1_555 1_555
Cl1 C11 1_555 1_555
F1 C1 1_555 1_555
F2 C1 1_555 1_555
F3 C1 1_555 1_555
N1 N2 1_555 1_555
N7 C3 1_555 1_555
H5 N7 1_555 1_555
N8 C4 1_555 1_555
H6 N8 1_555 1_555
O1 C4 1_555 1_555
O2 C5 1_555 1_555
S1 C2 1_555 1_555
C3 S1 1_555 1_555
C5 N8 1_555 1_555
C10 C11 1_555 1_555

#END
