
#######################################################################
#
#                 Cambridge Crystallographic Data Centre
#                                CCDC 
#
#######################################################################
#
# If this CIF has been generated from an entry in the Cambridge 
# Structural Database, then it will include bibliographic, chemical, 
# crystal, experimental, refinement or atomic coordinate data resulting 
# from the CCDC's data processing and validation procedures.
#
#######################################################################

data_GEKMOA01
_chemical_formula_moiety         'C15 H16 N1 O2 1+,Cl1 O4 1-'
_chemical_name_systematic        
'4-((E)-2-(3,4-Dimethoxyphenyl)-1-ethenyl)pyridinium perchlorate'
_symmetry_cell_setting           orthorhombic
_symmetry_space_group_name_H-M   'P c a 21'
_symmetry_Int_Tables_number      29
_space_group_name_Hall           'P 2c -2ac'
loop_
_symmetry_equiv_pos_site_id
_symmetry_equiv_pos_as_xyz
1 x,y,z
2 -x,-y,1/2+z
3 1/2+x,-y,z
4 1/2-x,y,1/2+z
_cell_length_a                   34.351(4)
_cell_length_b                   4.9898(5)
_cell_length_c                   8.9617(10)
_cell_angle_alpha                90
_cell_angle_beta                 90
_cell_angle_gamma                90
_cell_volume                     1536.08
_exptl_crystal_colour            yellowish
_exptl_crystal_description       block
_chemical_melting_point          '260-262 deg.C.(dec.)'
_cell_formula_units_Z            4
loop_
_atom_site_label
_atom_site_type_symbol
_atom_site_fract_x
_atom_site_fract_y
_atom_site_fract_z
Cl1 Cl 0.54903(4) 0.1177(2) 0.7278(2)
O1 O 0.5282(2) 0.0297(12) 0.8544(7)
O2 O 0.5282(2) 0.0399(12) 0.5956(6)
O3 O 0.55170(15) 0.4037(8) 0.7389(9)
O4 O 0.58735(14) 0.0012(11) 0.7193(10)
N1 N 0.5366(2) 0.3925(14) 0.3057(11)
H1 H 0.5242 0.2624 0.3520
O5 O 0.7288(2) 1.9064(14) -0.0726(8)
O6 O 0.68026(17) 1.6631(12) -0.2645(13)
C1 C 0.5339(3) 0.3907(15) 0.1570(10)
H2 H 0.5166 0.2750 0.1048
C2 C 0.5592(3) 0.5782(16) 0.0817(11)
H3 H 0.5615 0.5740 -0.0240
C3 C 0.5794(4) 0.7574(19) 0.161(2)
C4 C 0.5793(3) 0.7481(16) 0.3124(14)
H4 H 0.5953 0.8663 0.3686
C5 C 0.5543(3) 0.554(2) 0.3880(13)
H5 H 0.5516 0.5500 0.4935
C6 C 0.6069(2) 0.9638(16) 0.1124(11)
H6 H 0.6068 0.9895 0.0073
C7 C 0.6318(2) 1.1224(14) 0.1818(11)
H7 H 0.6338 1.0995 0.2867
C8 C 0.6567(2) 1.3297(18) 0.1158(11)
C9 C 0.6834(2) 1.4634(15) 0.2147(14)
H8 H 0.6850 1.4249 0.3184
C10 C 0.7073(2) 1.6586(18) 0.1432(13)
H9 H 0.7257 1.7511 0.2034
C11 C 0.7060(2) 1.7213(19) 0.0005(11)
C12 C 0.6788(2) 1.5858(17) -0.0977(12)
C13 C 0.6560(3) 1.3946(17) -0.0405(10)
H10 H 0.6388 1.2995 -0.1046
C14 C 0.7600(4) 2.013(3) 0.0154(15)
H11 H 0.7744 2.1453 -0.0435
H12 H 0.7775 1.8678 0.0453
H13 H 0.7493 2.0997 0.1046
C15 C 0.6547(3) 1.523(2) -0.3440(16)
H14 H 0.6564 1.5757 -0.4491
H15 H 0.6283 1.5587 -0.3069
H16 H 0.6604 1.3314 -0.3344
loop_
_geom_bond_atom_site_label_1
_geom_bond_atom_site_label_2
_geom_bond_site_symmetry_1
_geom_bond_site_symmetry_2
Cl1 O1 1_555 1_555
O2 Cl1 1_555 1_555
O3 Cl1 1_555 1_555
O4 Cl1 1_555 1_555
N1 H1 1_555 1_555
O5 C11 1_555 1_555
O6 C12 1_555 1_555
C1 N1 1_555 1_555
H2 C1 1_555 1_555
C2 C1 1_555 1_555
H3 C2 1_555 1_555
C3 C2 1_555 1_555
C4 C3 1_555 1_555
H4 C4 1_555 1_555
C5 N1 1_555 1_555
H5 C5 1_555 1_555
C6 C3 1_555 1_555
H6 C6 1_555 1_555
C7 C6 1_555 1_555
H7 C7 1_555 1_555
C8 C7 1_555 1_555
C9 C8 1_555 1_555
H8 C9 1_555 1_555
C10 C9 1_555 1_555
H9 C10 1_555 1_555
C11 C10 1_555 1_555
C12 C11 1_555 1_555
C13 C8 1_555 1_555
H10 C13 1_555 1_555
C14 O5 1_555 1_555
H11 C14 1_555 1_555
H12 C14 1_555 1_555
H13 C14 1_555 1_555
C15 O6 1_555 1_555
H14 C15 1_555 1_555
H15 C15 1_555 1_555
H16 C15 1_555 1_555
C4 C5 1_555 1_555
C12 C13 1_555 1_555

#END
