
#######################################################################
#
#                 Cambridge Crystallographic Data Centre
#                                CCDC 
#
#######################################################################
#
# If this CIF has been generated from an entry in the Cambridge 
# Structural Database, then it will include bibliographic, chemical, 
# crystal, experimental, refinement or atomic coordinate data resulting 
# from the CCDC's data processing and validation procedures.
#
#######################################################################

data_GEKMUG
_chemical_formula_moiety         'C13 H10 Cl2 N1 1+,0.5(C6 H6),Cl1 O4 1-'
_chemical_name_systematic        
'4-((E)-2-(3,4-Dichlorophenyl)-1-ethenyl)pyridinium perchlorate benzene solvate'
_symmetry_cell_setting           monoclinic
_symmetry_space_group_name_H-M   'P 21/n'
_symmetry_Int_Tables_number      14
_space_group_name_Hall           '-P 2yn'
loop_
_symmetry_equiv_pos_site_id
_symmetry_equiv_pos_as_xyz
1 x,y,z
2 1/2-x,1/2+y,1/2-z
3 -x,-y,-z
4 1/2+x,1/2-y,1/2+z
_cell_length_a                   21.9866(19)
_cell_length_b                   17.5923(15)
_cell_length_c                   36.269(3)
_cell_angle_alpha                90
_cell_angle_beta                 106.924(4)
_cell_angle_gamma                90
_cell_volume                     13421.1
_exptl_crystal_colour            colorless
_exptl_crystal_description       block
_cell_formula_units_Z            32
_chemical_properties_physical    light-sensitive
loop_
_atom_site_label
_atom_site_type_symbol
_atom_site_fract_x
_atom_site_fract_y
_atom_site_fract_z
Cl1 Cl 0.56982(15) 0.37246(17) -0.05879(8)
O1 O 0.5376(5) 0.4366(4) -0.0783(2)
O2 O 0.5468(4) 0.3074(5) -0.0803(3)
O3 O 0.6366(5) 0.3812(6) -0.0577(3)
O4 O 0.5721(6) 0.3703(7) -0.0202(3)
Cl2 Cl 0.34825(14) 0.36881(17) -0.03716(8)
O5 O 0.2806(4) 0.3626(4) -0.0425(2)
O6 O 0.3710(4) 0.4404(4) -0.0189(2)
O7 O 0.3801(4) 0.3064(4) -0.0128(2)
O8 O 0.3623(5) 0.3665(5) -0.0740(3)
Cl3 Cl 0.06056(13) 0.37890(15) -0.05922(8)
O9 O 0.0985(3) 0.3124(3) -0.0451(2)
O10 O 0.0798(3) 0.4413(4) -0.0316(2)
O11 O -0.0044(4) 0.3604(4) -0.0632(3)
O12 O 0.0688(5) 0.4025(5) -0.0946(2)
Cl4 Cl -0.15490(13) 0.37461(16) -0.03825(8)
O13 O -0.2191(4) 0.3904(4) -0.0380(2)
O14 O -0.1135(4) 0.4331(4) -0.0162(2)
O15 O -0.1353(4) 0.3031(4) -0.0199(2)
O16 O -0.1532(4) 0.3735(5) -0.0770(2)
Cl5 Cl 0.56568(15) 0.87525(17) -0.05527(9)
O17 O 0.5769(5) 0.8108(5) -0.0341(3)
O18 O 0.6054(5) 0.9350(5) -0.0408(3)
O19 O 0.5033(7) 0.8985(7) -0.0641(4)
O20 O 0.5702(9) 0.8531(8) -0.0897(4)
Cl6 Cl 0.35122(14) 0.86843(17) -0.03213(9)
O21 O 0.2876(3) 0.8552(4) -0.0313(2)
O22 O 0.3538(4) 0.8707(5) -0.0716(2)
O23 O 0.3916(4) 0.8070(5) -0.0104(2)
O24 O 0.3738(4) 0.9402(5) -0.0126(3)
Cl7 Cl 0.06974(15) 0.87500(16) -0.05441(8)
O25 O 0.0382(3) 0.8128(4) -0.0761(2)
O26 O 0.0545(4) 0.9420(4) -0.0762(3)
O27 O 0.1371(4) 0.8655(5) -0.0456(3)
O28 O 0.0502(6) 0.8829(6) -0.0211(3)
Cl8 Cl -0.14682(14) 0.88792(16) -0.02931(8)
O29 O -0.2131(4) 0.8954(4) -0.0325(2)
O30 O -0.1131(4) 0.9514(4) -0.0063(2)
O31 O -0.1373(4) 0.8899(5) -0.0665(2)
O32 O -0.1243(4) 0.8193(4) -0.0094(2)
Cl9 Cl 1.19689(13) 0.37260(16) 0.21894(8)
Cl10 Cl 1.13123(14) 0.53528(15) 0.20075(9)
N1 N 0.7088(5) 0.3970(6) 0.0242(3)
H1 H 0.6690 0.4054 0.0109
C1 C 0.7276(6) 0.3278(7) 0.0327(3)
H2 H 0.6979 0.2877 0.0241
C2 C 0.7882(5) 0.3103(6) 0.0534(3)
H3 H 0.8021 0.2591 0.0578
C3 C 0.8299(5) 0.3727(6) 0.0684(3)
C4 C 0.8078(5) 0.4449(6) 0.0572(3)
H4 H 0.8352 0.4874 0.0652
C5 C 0.7476(5) 0.4557(6) 0.0350(3)
H5 H 0.7330 0.5056 0.0271
C6 C 0.8944(5) 0.3558(6) 0.0921(3)
H6 H 0.9091 0.3049 0.0929
C7 C 0.9337(5) 0.4076(6) 0.1127(3)
H7 H 0.9183 0.4583 0.1102
C8 C 0.9971(5) 0.3971(5) 0.1387(3)
C9 C 1.0262(5) 0.3250(6) 0.1458(3)
H8 H 1.0044 0.2809 0.1338
C10 C 1.0874(5) 0.3197(6) 0.1709(3)
H9 H 1.1069 0.2711 0.1765
C11 C 1.1206(5) 0.3839(6) 0.1879(3)
C12 C 1.0911(5) 0.4531(6) 0.1800(3)
C13 C 1.0323(5) 0.4598(6) 0.1565(3)
H10 H 1.0137 0.5089 0.1517
Cl11 Cl 0.95460(15) 0.59101(18) 0.21013(9)
Cl12 Cl 0.84230(17) 0.66983(18) 0.14696(11)
N2 N 0.5043(5) 0.3256(6) 0.0447(3)
H11 H 0.4694 0.3017 0.0319
C14 C 0.5049(7) 0.4011(7) 0.0440(4)
H12 H 0.4681 0.4288 0.0304
C15 C 0.5590(6) 0.4378(7) 0.0630(3)
H13 H 0.5603 0.4917 0.0615
C16 C 0.6127(5) 0.3993(6) 0.0844(3)
C17 C 0.6102(6) 0.3207(7) 0.0843(4)
H14 H 0.6462 0.2918 0.0979
C18 C 0.5545(6) 0.2847(7) 0.0640(3)
H15 H 0.5521 0.2308 0.0639
C19 C 0.6694(5) 0.4415(7) 0.1051(3)
H16 H 0.6676 0.4951 0.1021
C20 C 0.7239(5) 0.4128(7) 0.1280(3)
H17 H 0.7260 0.3594 0.1323
C21 C 0.7808(5) 0.4586(7) 0.1469(3)
C22 C 0.8290(6) 0.4239(7) 0.1748(3)
H18 H 0.8260 0.3714 0.1801
C23 C 0.8829(6) 0.4659(7) 0.1957(4)
H19 H 0.9152 0.4434 0.2161
C24 C 0.8868(5) 0.5402(7) 0.1854(3)
C25 C 0.8389(5) 0.5745(6) 0.1578(3)
C26 C 0.7859(5) 0.5346(6) 0.1373(3)
H20 H 0.7537 0.5582 0.1173
Cl13 Cl 0.69076(13) 0.37495(15) 0.21730(8)
Cl14 Cl 0.62900(14) 0.21146(15) 0.19843(9)
N3 N 0.2039(4) 0.3484(5) 0.0178(2)
H21 H 0.1659 0.3402 0.0019
C27 C 0.2225(5) 0.4206(6) 0.0301(3)
H22 H 0.1936 0.4617 0.0223
C28 C 0.2819(6) 0.4334(6) 0.0534(3)
H23 H 0.2945 0.4839 0.0612
C29 C 0.3240(5) 0.3759(6) 0.0657(3)
C30 C 0.3017(6) 0.3013(6) 0.0532(3)
H24 H 0.3290 0.2588 0.0615
C31 C 0.2439(6) 0.2906(6) 0.0302(3)
H25 H 0.2303 0.2405 0.0222
C32 C 0.3876(5) 0.3906(6) 0.0913(3)
H26 H 0.4025 0.4415 0.0932
C33 C 0.4260(5) 0.3390(6) 0.1119(3)
H27 H 0.4100 0.2885 0.1097
C34 C 0.4899(5) 0.3491(5) 0.1377(3)
C35 C 0.5186(5) 0.4204(6) 0.1460(3)
H28 H 0.4958 0.4645 0.1346
C36 C 0.5795(5) 0.4282(6) 0.1705(3)
H29 H 0.5981 0.4772 0.1760
C37 C 0.6126(5) 0.3656(7) 0.1866(3)
C38 C 0.5881(6) 0.2950(6) 0.1795(3)
C39 C 0.5255(5) 0.2876(6) 0.1549(3)
H30 H 0.5073 0.2382 0.1501
Cl15 Cl 0.45307(16) 0.15424(19) 0.20957(9)
Cl16 Cl 0.3452(2) 0.0764(2) 0.14431(12)
N4 N 0.0057(5) 0.4220(5) 0.0416(3)
H31 H -0.0285 0.4465 0.0283
C40 C 0.0069(5) 0.3464(6) 0.0387(3)
H32 H -0.0288 0.3199 0.0228
C41 C 0.0604(5) 0.3077(7) 0.0588(3)
H33 H 0.0610 0.2538 0.0578
C42 C 0.1135(5) 0.3465(6) 0.0804(3)
C43 C 0.1082(6) 0.4276(7) 0.0829(3)
H34 H 0.1433 0.4563 0.0980
C44 C 0.0547(6) 0.4625(6) 0.0642(3)
H35 H 0.0508 0.5160 0.0666
C45 C 0.1695(5) 0.3037(7) 0.0999(3)
H36 H 0.1685 0.2507 0.0949
C46 C 0.2224(6) 0.3312(6) 0.1243(3)
H37 H 0.2242 0.3843 0.1294
C47 C 0.2799(6) 0.2836(6) 0.1444(3)
C48 C 0.3260(6) 0.3206(7) 0.1741(3)
H38 H 0.3203 0.3720 0.1803
C49 C 0.3799(7) 0.2812(8) 0.1942(4)
H39 H 0.4121 0.3055 0.2139
C50 C 0.3863(5) 0.2061(7) 0.1852(3)
C51 C 0.3388(5) 0.1692(6) 0.1553(3)
C52 C 0.2868(5) 0.2098(6) 0.1351(3)
H40 H 0.2554 0.1865 0.1146
Cl17 Cl 1.18059(14) 0.74717(17) 0.21813(9)
Cl18 Cl 1.15985(14) 0.92491(16) 0.20715(8)
N5 N 0.7119(5) 0.9205(6) 0.0273(2)
H41 H 0.6753 0.9381 0.0128
C53 C 0.7187(6) 0.8454(7) 0.0338(3)
H42 H 0.6843 0.8119 0.0226
C54 C 0.7733(5) 0.8180(8) 0.0557(3)
H43 H 0.7782 0.7647 0.0599
C55 C 0.8246(5) 0.8674(7) 0.0731(3)
C56 C 0.8162(5) 0.9424(6) 0.0659(3)
H44 H 0.8499 0.9766 0.0771
C57 C 0.7602(5) 0.9701(6) 0.0426(3)
H45 H 0.7549 1.0229 0.0372
C58 C 0.8836(5) 0.8343(6) 0.0986(3)
H46 H 0.8859 0.7805 0.1005
C59 C 0.9340(5) 0.8735(6) 0.1191(3)
H47 H 0.9311 0.9274 0.1178
C60 C 0.9926(5) 0.8416(6) 0.1433(3)
C61 C 1.0024(5) 0.7640(6) 0.1493(3)
H48 H 0.9688 0.7300 0.1373
C62 C 1.0607(5) 0.7337(6) 0.1725(3)
H49 H 1.0667 0.6804 0.1759
C63 C 1.1094(5) 0.7848(6) 0.1904(3)
C64 C 1.0994(6) 0.8601(6) 0.1850(3)
C65 C 1.0442(5) 0.8888(6) 0.1623(3)
H50 H 1.0399 0.9423 0.1591
Cl19 Cl 0.9872(2) 0.9733(2) 0.23366(12)
Cl20 Cl 0.9432(2) 0.8036(2) 0.23358(10)
N6 N 0.5089(5) 0.8507(7) 0.0442(3)
H51 H 0.4725 0.8344 0.0287
C66 C 0.5165(6) 0.9241(7) 0.0495(4)
H52 H 0.4836 0.9588 0.0374
C67 C 0.5769(6) 0.9506(7) 0.0745(3)
H53 H 0.5859 1.0033 0.0787
C68 C 0.6224(6) 0.8935(7) 0.0925(4)
C69 C 0.6066(7) 0.8210(7) 0.0833(4)
H54 H 0.6370 0.7826 0.0940
C70 C 0.5517(7) 0.8002(8) 0.0603(4)
H55 H 0.5429 0.7477 0.0553
C71 C 0.6839(7) 0.9209(8) 0.1184(4)
H56 H 0.6906 0.9744 0.1191
C72 C 0.7267(6) 0.8827(8) 0.1387(4)
H57 H 0.7181 0.8298 0.1388
C73 C 0.7902(5) 0.9062(6) 0.1633(3)
C74 C 0.8139(7) 0.9802(7) 0.1647(4)
H58 H 0.7867 1.0181 0.1499
C75 C 0.8746(8) 1.0022(9) 0.1861(4)
H59 H 0.8900 1.0528 0.1864
C76 C 0.9085(6) 0.9466(8) 0.2057(4)
C77 C 0.8943(7) 0.8720(7) 0.2091(3)
C78 C 0.8284(7) 0.8480(7) 0.1857(4)
H60 H 0.8135 0.7973 0.1859
Cl21 Cl 0.68894(14) 0.99808(17) 0.22269(9)
Cl22 Cl 0.66464(14) 0.82085(16) 0.21266(8)
N7 N 0.2190(4) 0.8333(5) 0.0317(2)
H61 H 0.1816 0.8161 0.0180
C79 C 0.2270(6) 0.9101(6) 0.0361(3)
H62 H 0.1937 0.9442 0.0239
C80 C 0.2849(5) 0.9364(6) 0.0585(3)
H63 H 0.2905 0.9897 0.0624
C81 C 0.3360(5) 0.8882(6) 0.0760(3)
C82 C 0.3231(5) 0.8093(6) 0.0694(3)
H64 H 0.3556 0.7735 0.0805
C83 C 0.2643(5) 0.7833(6) 0.0471(3)
H65 H 0.2567 0.7304 0.0430
C84 C 0.3950(5) 0.9168(6) 0.0994(3)
H66 H 0.4014 0.9701 0.0989
C85 C 0.4421(5) 0.8762(6) 0.1221(3)
H67 H 0.4368 0.8226 0.1222
C86 C 0.5015(5) 0.9079(6) 0.1468(3)
C87 C 0.5130(5) 0.9858(6) 0.1519(3)
H68 H 0.4811 1.0211 0.1391
C88 C 0.5704(5) 1.0120(6) 0.1756(3)
H69 H 0.5767 1.0652 0.1794
C89 C 0.6192(5) 0.9625(6) 0.1942(3)
C90 C 0.6075(5) 0.8853(6) 0.1899(3)
C91 C 0.5491(5) 0.8595(5) 0.1667(3)
H70 H 0.5417 0.8062 0.1645
Cl23 Cl 0.48609(16) 0.77104(19) 0.23696(10)
Cl24 Cl 0.44396(16) 0.94339(18) 0.23308(9)
N8 N 0.0054(5) 0.9009(6) 0.0473(2)
H71 H -0.0326 0.9170 0.0341
C92 C 0.0154(6) 0.8261(7) 0.0525(3)
H72 H -0.0171 0.7909 0.0405
C93 C 0.0733(6) 0.8005(7) 0.0756(3)
H73 H 0.0802 0.7476 0.0799
C94 C 0.1216(6) 0.8513(6) 0.0925(3)
C95 C 0.1081(6) 0.9311(7) 0.0842(3)
H74 H 0.1397 0.9682 0.0949
C96 C 0.0518(7) 0.9523(8) 0.0615(4)
H75 H 0.0439 1.0045 0.0551
C97 C 0.1831(5) 0.8243(7) 0.1162(3)
H76 H 0.1904 0.7712 0.1158
C98 C 0.2289(6) 0.8651(7) 0.1377(3)
H77 H 0.2211 0.9183 0.1371
C99 C 0.2919(5) 0.8407(6) 0.1631(3)
C100 C 0.3126(7) 0.7644(8) 0.1648(4)
H78 H 0.2849 0.7270 0.1500
C101 C 0.3712(7) 0.7433(8) 0.1870(4)
H79 H 0.3841 0.6916 0.1880
C102 C 0.4121(6) 0.7978(8) 0.2083(4)
C103 C 0.3949(6) 0.8740(7) 0.2077(3)
C104 C 0.3326(5) 0.8963(6) 0.1854(3)
H80 H 0.3189 0.9475 0.1856
C105 C 0.6533(7) 0.6005(6) 0.2266(3)
H81 H 0.6727 0.5831 0.2521
C106 C 0.5898(7) 0.6140(6) 0.2157(3)
H82 H 0.5660 0.6096 0.2336
C107 C 0.5602(6) 0.6345(6) 0.1775(3)
H83 H 0.5156 0.6428 0.1692
C108 C 0.5953(6) 0.6427(6) 0.1516(3)
H84 H 0.5746 0.6562 0.1256
C109 C 0.6598(6) 0.6313(6) 0.1635(3)
H85 H 0.6838 0.6370 0.1457
C110 C 0.6910(6) 0.6109(6) 0.2026(3)
H86 H 0.7359 0.6047 0.2116
C111 C 0.4027(6) 0.6069(6) 0.3522(3)
H87 H 0.4236 0.5946 0.3784
C112 C 0.3373(6) 0.6159(6) 0.3407(3)
H88 H 0.3133 0.6105 0.3585
C113 C 0.3081(6) 0.6329(6) 0.3024(3)
H89 H 0.2632 0.6390 0.2935
C114 C 0.3433(7) 0.6409(6) 0.2773(3)
H90 H 0.3228 0.6540 0.2512
C115 C 0.4082(6) 0.6303(6) 0.2893(4)
H91 H 0.4319 0.6336 0.2712
C116 C 0.4384(6) 0.6152(6) 0.3268(4)
H92 H 0.4834 0.6105 0.3355
C117 C 0.3622(6) 0.5148(6) 0.2059(4)
H93 H 0.3813 0.4959 0.2312
C118 C 0.2983(6) 0.5287(6) 0.1937(4)
H94 H 0.2729 0.5188 0.2103
C119 C 0.2701(6) 0.5578(6) 0.1562(3)
H95 H 0.2257 0.5675 0.1472
C120 C 0.3087(7) 0.5714(7) 0.1333(3)
H96 H 0.2905 0.5904 0.1080
C121 C 0.3728(7) 0.5585(7) 0.1461(4)
H97 H 0.3988 0.5706 0.1301
C122 C 0.3991(6) 0.5282(6) 0.1816(3)
H98 H 0.4431 0.5162 0.1897
C123 C 0.6366(7) 0.6845(7) 0.3595(4)
H99 H 0.6113 0.6744 0.3761
C124 C 0.6053(6) 0.7125(6) 0.3245(3)
H100 H 0.5607 0.7212 0.3174
C125 C 0.6406(6) 0.7283(6) 0.2993(3)
H101 H 0.6205 0.7487 0.2745
C126 C 0.7044(6) 0.7142(6) 0.3104(4)
H102 H 0.7290 0.7237 0.2933
C127 C 0.7333(6) 0.6856(7) 0.3474(4)
H103 H 0.7778 0.6765 0.3557
C128 C 0.6954(7) 0.6700(7) 0.3730(4)
H104 H 0.7132 0.6503 0.3982
loop_
_geom_bond_atom_site_label_1
_geom_bond_atom_site_label_2
_geom_bond_site_symmetry_1
_geom_bond_site_symmetry_2
Cl1 O1 1_555 1_555
O2 Cl1 1_555 1_555
O3 Cl1 1_555 1_555
O4 Cl1 1_555 1_555
Cl2 O5 1_555 1_555
O6 Cl2 1_555 1_555
O7 Cl2 1_555 1_555
O8 Cl2 1_555 1_555
Cl3 O9 1_555 1_555
O10 Cl3 1_555 1_555
O11 Cl3 1_555 1_555
O12 Cl3 1_555 1_555
Cl4 O13 1_555 1_555
O14 Cl4 1_555 1_555
O15 Cl4 1_555 1_555
O16 Cl4 1_555 1_555
Cl5 O17 1_555 1_555
O18 Cl5 1_555 1_555
O19 Cl5 1_555 1_555
O20 Cl5 1_555 1_555
Cl6 O21 1_555 1_555
O22 Cl6 1_555 1_555
O23 Cl6 1_555 1_555
O24 Cl6 1_555 1_555
Cl7 O25 1_555 1_555
O26 Cl7 1_555 1_555
O27 Cl7 1_555 1_555
O28 Cl7 1_555 1_555
Cl8 O29 1_555 1_555
O30 Cl8 1_555 1_555
O31 Cl8 1_555 1_555
O32 Cl8 1_555 1_555
Cl9 C11 1_555 1_555
Cl10 C12 1_555 1_555
N1 H1 1_555 1_555
C1 N1 1_555 1_555
H2 C1 1_555 1_555
C2 C1 1_555 1_555
H3 C2 1_555 1_555
C3 C2 1_555 1_555
C4 C3 1_555 1_555
H4 C4 1_555 1_555
C5 N1 1_555 1_555
H5 C5 1_555 1_555
C6 C3 1_555 1_555
H6 C6 1_555 1_555
C7 C6 1_555 1_555
H7 C7 1_555 1_555
C8 C7 1_555 1_555
C9 C8 1_555 1_555
H8 C9 1_555 1_555
C10 C9 1_555 1_555
H9 C10 1_555 1_555
C11 C10 1_555 1_555
C12 C11 1_555 1_555
C13 C8 1_555 1_555
H10 C13 1_555 1_555
Cl11 C24 1_555 1_555
Cl12 C25 1_555 1_555
N2 H11 1_555 1_555
C14 N2 1_555 1_555
H12 C14 1_555 1_555
C15 C14 1_555 1_555
H13 C15 1_555 1_555
C16 C15 1_555 1_555
C17 C16 1_555 1_555
H14 C17 1_555 1_555
C18 N2 1_555 1_555
H15 C18 1_555 1_555
C19 C16 1_555 1_555
H16 C19 1_555 1_555
C20 C19 1_555 1_555
H17 C20 1_555 1_555
C21 C20 1_555 1_555
C22 C21 1_555 1_555
H18 C22 1_555 1_555
C23 C22 1_555 1_555
H19 C23 1_555 1_555
C24 C23 1_555 1_555
C25 C24 1_555 1_555
C26 C21 1_555 1_555
H20 C26 1_555 1_555
Cl13 C37 1_555 1_555
Cl14 C38 1_555 1_555
N3 H21 1_555 1_555
C27 N3 1_555 1_555
H22 C27 1_555 1_555
C28 C27 1_555 1_555
H23 C28 1_555 1_555
C29 C28 1_555 1_555
C30 C29 1_555 1_555
H24 C30 1_555 1_555
C31 N3 1_555 1_555
H25 C31 1_555 1_555
C32 C29 1_555 1_555
H26 C32 1_555 1_555
C33 C32 1_555 1_555
H27 C33 1_555 1_555
C34 C33 1_555 1_555
C35 C34 1_555 1_555
H28 C35 1_555 1_555
C36 C35 1_555 1_555
H29 C36 1_555 1_555
C37 C36 1_555 1_555
C38 C37 1_555 1_555
C39 C34 1_555 1_555
H30 C39 1_555 1_555
Cl15 C50 1_555 1_555
Cl16 C51 1_555 1_555
N4 H31 1_555 1_555
C40 N4 1_555 1_555
H32 C40 1_555 1_555
C41 C40 1_555 1_555
H33 C41 1_555 1_555
C42 C41 1_555 1_555
C43 C42 1_555 1_555
H34 C43 1_555 1_555
C44 N4 1_555 1_555
H35 C44 1_555 1_555
C45 C42 1_555 1_555
H36 C45 1_555 1_555
C46 C45 1_555 1_555
H37 C46 1_555 1_555
C47 C46 1_555 1_555
C48 C47 1_555 1_555
H38 C48 1_555 1_555
C49 C48 1_555 1_555
H39 C49 1_555 1_555
C50 C49 1_555 1_555
C51 C50 1_555 1_555
C52 C47 1_555 1_555
H40 C52 1_555 1_555
Cl17 C63 1_555 1_555
Cl18 C64 1_555 1_555
N5 H41 1_555 1_555
C53 N5 1_555 1_555
H42 C53 1_555 1_555
C54 C53 1_555 1_555
H43 C54 1_555 1_555
C55 C54 1_555 1_555
C56 C55 1_555 1_555
H44 C56 1_555 1_555
C57 N5 1_555 1_555
H45 C57 1_555 1_555
C58 C55 1_555 1_555
H46 C58 1_555 1_555
C59 C58 1_555 1_555
H47 C59 1_555 1_555
C60 C59 1_555 1_555
C61 C60 1_555 1_555
H48 C61 1_555 1_555
C62 C61 1_555 1_555
H49 C62 1_555 1_555
C63 C62 1_555 1_555
C64 C63 1_555 1_555
C65 C60 1_555 1_555
H50 C65 1_555 1_555
Cl19 C76 1_555 1_555
Cl20 C77 1_555 1_555
N6 H51 1_555 1_555
C66 N6 1_555 1_555
H52 C66 1_555 1_555
C67 C66 1_555 1_555
H53 C67 1_555 1_555
C68 C67 1_555 1_555
C69 C68 1_555 1_555
H54 C69 1_555 1_555
C70 N6 1_555 1_555
H55 C70 1_555 1_555
C71 C68 1_555 1_555
H56 C71 1_555 1_555
C72 C71 1_555 1_555
H57 C72 1_555 1_555
C73 C72 1_555 1_555
C74 C73 1_555 1_555
H58 C74 1_555 1_555
C75 C74 1_555 1_555
H59 C75 1_555 1_555
C76 C75 1_555 1_555
C77 C76 1_555 1_555
C78 C73 1_555 1_555
H60 C78 1_555 1_555
Cl21 C89 1_555 1_555
Cl22 C90 1_555 1_555
N7 H61 1_555 1_555
C79 N7 1_555 1_555
H62 C79 1_555 1_555
C80 C79 1_555 1_555
H63 C80 1_555 1_555
C81 C80 1_555 1_555
C82 C81 1_555 1_555
H64 C82 1_555 1_555
C83 N7 1_555 1_555
H65 C83 1_555 1_555
C84 C81 1_555 1_555
H66 C84 1_555 1_555
C85 C84 1_555 1_555
H67 C85 1_555 1_555
C86 C85 1_555 1_555
C87 C86 1_555 1_555
H68 C87 1_555 1_555
C88 C87 1_555 1_555
H69 C88 1_555 1_555
C89 C88 1_555 1_555
C90 C89 1_555 1_555
C91 C86 1_555 1_555
H70 C91 1_555 1_555
Cl23 C102 1_555 1_555
Cl24 C103 1_555 1_555
N8 H71 1_555 1_555
C92 N8 1_555 1_555
H72 C92 1_555 1_555
C93 C92 1_555 1_555
H73 C93 1_555 1_555
C94 C93 1_555 1_555
C95 C94 1_555 1_555
H74 C95 1_555 1_555
C96 N8 1_555 1_555
H75 C96 1_555 1_555
C97 C94 1_555 1_555
H76 C97 1_555 1_555
C98 C97 1_555 1_555
H77 C98 1_555 1_555
C99 C98 1_555 1_555
C100 C99 1_555 1_555
H78 C100 1_555 1_555
C101 C100 1_555 1_555
H79 C101 1_555 1_555
C102 C101 1_555 1_555
C103 C102 1_555 1_555
C104 C99 1_555 1_555
H80 C104 1_555 1_555
C105 H81 1_555 1_555
C106 C105 1_555 1_555
H82 C106 1_555 1_555
C107 C106 1_555 1_555
H83 C107 1_555 1_555
C108 C107 1_555 1_555
H84 C108 1_555 1_555
C109 C108 1_555 1_555
H85 C109 1_555 1_555
C110 C105 1_555 1_555
H86 C110 1_555 1_555
C111 H87 1_555 1_555
C112 C111 1_555 1_555
H88 C112 1_555 1_555
C113 C112 1_555 1_555
H89 C113 1_555 1_555
C114 C113 1_555 1_555
H90 C114 1_555 1_555
C115 C114 1_555 1_555
H91 C115 1_555 1_555
C116 C111 1_555 1_555
H92 C116 1_555 1_555
C117 H93 1_555 1_555
C118 C117 1_555 1_555
H94 C118 1_555 1_555
C119 C118 1_555 1_555
H95 C119 1_555 1_555
C120 C119 1_555 1_555
H96 C120 1_555 1_555
C121 C120 1_555 1_555
H97 C121 1_555 1_555
C122 C117 1_555 1_555
H98 C122 1_555 1_555
C123 H99 1_555 1_555
C124 C123 1_555 1_555
H100 C124 1_555 1_555
C125 C124 1_555 1_555
H101 C125 1_555 1_555
C126 C125 1_555 1_555
H102 C126 1_555 1_555
C127 C126 1_555 1_555
H103 C127 1_555 1_555
C128 C123 1_555 1_555
H104 C128 1_555 1_555
C4 C5 1_555 1_555
C12 C13 1_555 1_555
C17 C18 1_555 1_555
C25 C26 1_555 1_555
C30 C31 1_555 1_555
C38 C39 1_555 1_555
C43 C44 1_555 1_555
C51 C52 1_555 1_555
C56 C57 1_555 1_555
C64 C65 1_555 1_555
C69 C70 1_555 1_555
C77 C78 1_555 1_555
C82 C83 1_555 1_555
C90 C91 1_555 1_555
C95 C96 1_555 1_555
C103 C104 1_555 1_555
C109 C110 1_555 1_555
C115 C116 1_555 1_555
C121 C122 1_555 1_555
C127 C128 1_555 1_555

#END
