
#######################################################################
#
#                 Cambridge Crystallographic Data Centre
#                                CCDC 
#
#######################################################################
#
# If this CIF has been generated from an entry in the Cambridge 
# Structural Database, then it will include bibliographic, chemical, 
# crystal, experimental, refinement or atomic coordinate data resulting 
# from the CCDC's data processing and validation procedures.
#
#######################################################################

data_GEKWAX
_chemical_formula_moiety         'C28 H12 F12 N2,2(C26 H20 N2)'
_chemical_name_systematic        
"3,3'-(1,4-phenylene)bis(2-(3,5-bis(trifluoromethyl)phenyl)acrylonitrile) bis(2,2'-(1,4-phenylene)bis(3-(4-methylphenyl)acrylonitrile))"
_symmetry_cell_setting           triclinic
_symmetry_space_group_name_H-M   'P -1'
_symmetry_Int_Tables_number      2
_space_group_name_Hall           '-P 1'
loop_
_symmetry_equiv_pos_site_id
_symmetry_equiv_pos_as_xyz
1 x,y,z
2 -x,-y,-z
_cell_length_a                   8.8984(15)
_cell_length_b                   11.1618(19)
_cell_length_c                   16.400(3)
_cell_angle_alpha                103.245(9)
_cell_angle_beta                 95.134(10)
_cell_angle_gamma                92.214(10)
_cell_volume                     1576.25
_exptl_crystal_colour            yellow
_exptl_crystal_description       Plate
_cell_formula_units_Z            1
loop_
_atom_site_label
_atom_site_type_symbol
_atom_site_fract_x
_atom_site_fract_y
_atom_site_fract_z
F1 F 0.28951(18) 0.05559(15) 0.08461(11)
F2 F 0.27792(16) 0.13452(14) 0.21597(10)
F3 F 0.37729(16) 0.24124(13) 0.13899(10)
N1 N 1.1094(2) 0.0936(2) 0.36113(13)
F4 F 0.64119(17) -0.25496(14) 0.04929(10)
F5 F 0.86629(17) -0.17123(14) 0.05784(9)
F6 F 0.80266(17) -0.26010(13) 0.15370(9)
C1 C 0.6128(3) 0.1565(2) 0.23846(15)
H1 H 0.5812 0.2334 0.2678
C2 C 0.9394(3) 0.6152(2) 0.52050(15)
H2 H 0.8972 0.6933 0.5339
C3 C 0.8646(3) 0.5207(2) 0.45965(15)
H3 H 0.7710 0.5352 0.4319
C4 C 0.9222(3) 0.4035(2) 0.43716(14)
C5 C 0.8326(3) 0.3127(2) 0.37064(14)
H4 H 0.7373 0.3391 0.3532
C6 C 0.8615(2) 0.1972(2) 0.32929(14)
C7 C 1.0007(3) 0.1422(2) 0.34861(15)
C8 C 0.7566(3) 0.1187(2) 0.26101(14)
C9 C 0.7985(3) 0.0051(2) 0.21594(14)
H5 H 0.8952 -0.0223 0.2296
C10 C 0.7007(3) -0.0686(2) 0.15127(15)
C11 C 0.5588(3) -0.0309(2) 0.12973(15)
H6 H 0.4918 -0.0814 0.0858
C12 C 0.5173(3) 0.0826(2) 0.17405(15)
C13 C 0.7514(3) -0.1882(2) 0.10348(16)
C14 C 0.3662(3) 0.1278(2) 0.15315(16)
F1A F 1.71049(18) 0.94441(15) 0.91539(11)
F2A F 1.72208(16) 0.86548(14) 0.78403(10)
F3A F 1.62271(16) 0.75876(13) 0.86101(10)
N1A N 0.8906(2) 0.9064(2) 0.63887(13)
F4A F 1.35881(17) 1.25496(14) 0.95071(10)
F5A F 1.13371(17) 1.17123(14) 0.94216(9)
F6A F 1.19734(17) 1.26010(13) 0.84630(9)
C1A C 1.3872(3) 0.8435(2) 0.76154(15)
H1A H 1.4188 0.7666 0.7322
C2A C 1.0606(3) 0.3848(2) 0.47950(15)
H2A H 1.1028 0.3067 0.4661
C3A C 1.1354(3) 0.4793(2) 0.54035(15)
H3A H 1.2290 0.4648 0.5681
C4A C 1.0778(3) 0.5965(2) 0.56284(14)
C5A C 1.1674(3) 0.6873(2) 0.62936(14)
H4A H 1.2627 0.6609 0.6468
C6A C 1.1385(2) 0.8028(2) 0.67071(14)
C7A C 0.9993(3) 0.8578(2) 0.65139(15)
C8A C 1.2434(3) 0.8813(2) 0.73899(14)
C9A C 1.2015(3) 0.9949(2) 0.78406(14)
H5A H 1.1048 1.0223 0.7704
C10A C 1.2993(3) 1.0686(2) 0.84873(15)
C11A C 1.4412(3) 1.0309(2) 0.87027(15)
H6A H 1.5082 1.0814 0.9142
C12A C 1.4827(3) 0.9174(2) 0.82595(15)
C13A C 1.2486(3) 1.1882(2) 0.89652(16)
C14A C 1.6338(3) 0.8722(2) 0.84685(16)
C15 C -0.2209(3) 0.2127(2) 0.05478(15)
H7 H -0.3257 0.2350 0.0464
H8 H -0.2198 0.1310 0.0673
H9 H -0.1716 0.2112 0.0035
N2 N 0.4386(2) 0.43752(19) 0.35038(14)
C16 C -0.1375(3) 0.3063(2) 0.12720(15)
N3 N 0.2049(2) 1.2091(2) 0.63028(15)
C17 C -0.2028(3) 0.4138(2) 0.16494(16)
H10 H -0.3032 0.4276 0.1458
C18 C -0.1234(3) 0.5009(2) 0.22994(16)
H11 H -0.1707 0.5734 0.2547
C19 C 0.0887(3) 0.3754(2) 0.22283(16)
H12 H 0.1883 0.3606 0.2425
C20 C 0.0245(3) 0.4846(2) 0.25985(15)
C21 C 0.2367(3) 0.6018(2) 0.37048(14)
C22 C 0.0983(3) 0.5846(2) 0.32665(14)
H13 H 0.0361 0.6516 0.3427
C23 C 0.0087(3) 0.2888(2) 0.15789(15)
H14 H 0.0550 0.2155 0.1337
C24 C 0.4184(3) 0.7271(2) 0.48916(14)
H15 H 0.4794 0.6583 0.4850
C25 C 0.2445(3) 0.9283(2) 0.50242(14)
H16 H 0.1834 0.9969 0.5066
C26 C 0.2007(3) 0.8216(2) 0.44228(15)
H17 H 0.1114 0.8189 0.4054
C27 C 0.2858(3) 0.7171(2) 0.43459(14)
C28 C 0.3474(3) 0.5085(2) 0.35814(15)
C29 C 0.3760(3) 0.9385(2) 0.55735(14)
C30 C 0.4629(3) 0.8345(2) 0.54892(15)
H18 H 0.5536 0.8381 0.5849
C31 C 0.4181(3) 1.0554(2) 0.62121(14)
C32 C 0.3016(3) 1.1436(2) 0.62768(15)
C33 C 0.5508(3) 1.0801(2) 0.67022(15)
H19 H 0.6195 1.0166 0.6599
C34 C 0.6066(3) 1.1880(2) 0.73644(14)
C35 C 0.7500(3) 1.1830(2) 0.77837(15)
H20 H 0.8056 1.1119 0.7620
C36 C 0.8118(3) 1.2794(2) 0.84294(15)
H21 H 0.9091 1.2733 0.8701
C37 C 0.7346(3) 1.3854(2) 0.86897(15)
C38 C 0.5945(3) 1.3915(2) 0.82688(16)
H22 H 0.5401 1.4633 0.8430
C39 C 0.5311(3) 1.2960(2) 0.76193(16)
H23 H 0.4349 1.3038 0.7342
C40 C 0.8013(3) 1.4896(2) 0.93985(17)
H24 H 0.9082 1.5057 0.9335
H25 H 0.7924 1.4673 0.9937
H26 H 0.7467 1.5639 0.9386
loop_
_geom_bond_atom_site_label_1
_geom_bond_atom_site_label_2
_geom_bond_site_symmetry_1
_geom_bond_site_symmetry_2
F1 C14 1_555 1_555
F2 C14 1_555 1_555
F3 C14 1_555 1_555
N1 C7 1_555 1_555
F4 C13 1_555 1_555
F5 C13 1_555 1_555
F6 C13 1_555 1_555
C1 H1 1_555 1_555
C2 H2 1_555 1_555
C3 C2 1_555 1_555
H3 C3 1_555 1_555
C4 C3 1_555 1_555
C5 C4 1_555 1_555
H4 C5 1_555 1_555
C6 C5 1_555 1_555
C7 C6 1_555 1_555
C8 C1 1_555 1_555
C9 C8 1_555 1_555
H5 C9 1_555 1_555
C10 C9 1_555 1_555
C11 C10 1_555 1_555
H6 C11 1_555 1_555
C12 C1 1_555 1_555
C13 C10 1_555 1_555
C14 C12 1_555 1_555
C15 H7 1_555 1_555
H8 C15 1_555 1_555
H9 C15 1_555 1_555
N2 C28 1_555 1_555
C16 C15 1_555 1_555
N3 C32 1_555 1_555
C17 C16 1_555 1_555
H10 C17 1_555 1_555
C18 C17 1_555 1_555
H11 C18 1_555 1_555
C19 H12 1_555 1_555
C20 C18 1_555 1_555
C21 C22 1_555 1_555
C22 C20 1_555 1_555
H13 C22 1_555 1_555
C23 C16 1_555 1_555
H14 C23 1_555 1_555
C24 H15 1_555 1_555
C25 H16 1_555 1_555
C26 C25 1_555 1_555
H17 C26 1_555 1_555
C27 C21 1_555 1_555
C28 C21 1_555 1_555
C29 C25 1_555 1_555
C30 C24 1_555 1_555
H18 C30 1_555 1_555
C31 C29 1_555 1_555
C32 C31 1_555 1_555
C33 C31 1_555 1_555
H19 C33 1_555 1_555
C34 C33 1_555 1_555
C35 C34 1_555 1_555
H20 C35 1_555 1_555
C36 C35 1_555 1_555
H21 C36 1_555 1_555
C37 C36 1_555 1_555
C38 C37 1_555 1_555
H22 C38 1_555 1_555
C39 C34 1_555 1_555
H23 C39 1_555 1_555
C40 C37 1_555 1_555
H24 C40 1_555 1_555
H25 C40 1_555 1_555
H26 C40 1_555 1_555
F1A C14A 1_555 1_555
F2A C14A 1_555 1_555
F3A C14A 1_555 1_555
N1A C7A 1_555 1_555
F4A C13A 1_555 1_555
F5A C13A 1_555 1_555
F6A C13A 1_555 1_555
C1A H1A 1_555 1_555
C2A C4 1_555 1_555
H2A C2A 1_555 1_555
C3A C2A 1_555 1_555
H3A C3A 1_555 1_555
C4A C2 1_555 1_555
C5A C4A 1_555 1_555
H4A C5A 1_555 1_555
C6A C5A 1_555 1_555
C7A C6A 1_555 1_555
C8A C1A 1_555 1_555
C9A C8A 1_555 1_555
H5A C9A 1_555 1_555
C10A C9A 1_555 1_555
C11A C10A 1_555 1_555
H6A C11A 1_555 1_555
C12A C1A 1_555 1_555
C13A C10A 1_555 1_555
C14A C12A 1_555 1_555
C6 C8 1_555 1_555
C11 C12 1_555 1_555
C19 C20 1_555 1_555
C19 C23 1_555 1_555
C24 C27 1_555 1_555
C26 C27 1_555 1_555
C29 C30 1_555 1_555
C38 C39 1_555 1_555
C3A C4A 1_555 1_555
C6A C8A 1_555 1_555
C11A C12A 1_555 1_555

#END
