
#######################################################################
#
#                 Cambridge Crystallographic Data Centre
#                                CCDC 
#
#######################################################################
#
# If this CIF has been generated from an entry in the Cambridge 
# Structural Database, then it will include bibliographic, chemical, 
# crystal, experimental, refinement or atomic coordinate data resulting 
# from the CCDC's data processing and validation procedures.
#
#######################################################################

data_GELPAR
_chemical_name_common            'methyl (S)-N-(4-acetoxybenzoyl)tryptophanate'
_chemical_formula_moiety         'C21 H20 N2 O5'
_chemical_name_systematic        
'(S)-2-(3-acetoxybenzamido)-3-(1H-indol-3-yl)propanoic acid'
_symmetry_cell_setting           monoclinic
_symmetry_space_group_name_H-M   'P 21'
_symmetry_Int_Tables_number      4
_space_group_name_Hall           'P 2yb'
loop_
_symmetry_equiv_pos_site_id
_symmetry_equiv_pos_as_xyz
1 x,y,z
2 -x,1/2+y,-z
_cell_length_a                   9.5112(5)
_cell_length_b                   9.2197(4)
_cell_length_c                   10.9115(5)
_cell_angle_alpha                90
_cell_angle_beta                 95.686(2)
_cell_angle_gamma                90
_cell_volume                     952.126
_exptl_crystal_colour            colorless
_exptl_crystal_description       block
_cell_formula_units_Z            2
loop_
_atom_site_label
_atom_site_type_symbol
_atom_site_fract_x
_atom_site_fract_y
_atom_site_fract_z
O1 O 0.65101(16) 0.16402(16) 0.39313(13)
O2 O 0.93145(13) 0.19931(16) 0.60479(14)
O3 O 0.53011(17) -0.04017(18) 0.42212(14)
O4 O 0.91524(17) 0.85454(16) 0.78861(15)
N1 N 0.70005(15) 0.21831(16) 0.63150(14)
H1 H 0.6316 0.2745 0.6524
O5 O 1.1095(2) 0.7940(2) 0.9123(2)
N2 N 0.22324(17) 0.1705(2) 0.67888(17)
H2 H 0.1355 0.1849 0.6476
C1 C 0.83103(17) 0.27252(19) 0.63396(14)
C2 C 0.85063(17) 0.42674(19) 0.67523(15)
C3 C 0.60581(18) 0.05754(19) 0.46117(16)
C4 C 0.42825(18) 0.18505(19) 0.79998(15)
C5 C 0.44433(18) 0.0816(2) 0.70415(16)
C6 C 0.66792(16) 0.06964(18) 0.59542(15)
H3 H 0.7596 0.0157 0.6026
C7 C 0.76752(19) 0.4889(2) 0.75918(17)
H4 H 0.6943 0.4339 0.7901
C8 C 0.5176(2) 0.2391(2) 0.90007(16)
H5 H 0.6124 0.2062 0.9147
C9 C 0.28800(18) 0.2381(2) 0.78092(16)
C10 C 0.57386(19) -0.0037(2) 0.68320(17)
H6 H 0.5446 -0.0999 0.6493
H7 H 0.6299 -0.0197 0.7634
C11 C 0.95810(19) 0.5077(2) 0.62989(17)
H8 H 1.0155 0.4651 0.5731
C12 C 0.7915(2) 0.6314(2) 0.79791(18)
H9 H 0.7353 0.6743 0.8554
C13 C 0.8981(2) 0.7094(2) 0.75157(17)
C14 C 0.4651(2) 0.3410(2) 0.97692(18)
H10 H 0.5250 0.3784 1.0443
C15 C 0.9816(2) 0.6510(2) 0.66765(19)
H11 H 1.0536 0.7072 0.6362
C16 C 0.3254(2) 0.3900(2) 0.95720(17)
H12 H 0.2922 0.4593 1.0120
C17 C 0.2341(2) 0.3395(2) 0.85924(18)
H13 H 0.1391 0.3724 0.8460
C18 C 1.0259(2) 0.8845(2) 0.87477(18)
C19 C 0.6097(3) 0.1564(3) 0.26217(19)
H14 H 0.6642 0.2272 0.2194
H15 H 0.5087 0.1783 0.2460
H16 H 0.6281 0.0587 0.2323
C20 C 0.31686(19) 0.0768(3) 0.63320(19)
H17 H 0.2966 0.0171 0.5627
C21 C 1.0218(3) 1.0400(3) 0.9117(2)
H18 H 0.9779 1.0976 0.8427
H19 H 1.1182 1.0748 0.9344
H20 H 0.9664 1.0500 0.9824
loop_
_geom_bond_atom_site_label_1
_geom_bond_atom_site_label_2
_geom_bond_site_symmetry_1
_geom_bond_site_symmetry_2
O1 C3 1_555 1_555
O2 C1 1_555 1_555
O3 C3 1_555 1_555
O4 C13 1_555 1_555
N1 H1 1_555 1_555
O5 C18 1_555 1_555
N2 H2 1_555 1_555
C1 N1 1_555 1_555
C2 C1 1_555 1_555
C3 C6 1_555 1_555
C4 C5 1_555 1_555
C5 C10 1_555 1_555
C6 N1 1_555 1_555
H3 C6 1_555 1_555
C7 C2 1_555 1_555
H4 C7 1_555 1_555
C8 C4 1_555 1_555
H5 C8 1_555 1_555
C9 N2 1_555 1_555
C10 C6 1_555 1_555
H6 C10 1_555 1_555
H7 C10 1_555 1_555
C11 C2 1_555 1_555
H8 C11 1_555 1_555
C12 C7 1_555 1_555
H9 C12 1_555 1_555
C13 C12 1_555 1_555
C14 C8 1_555 1_555
H10 C14 1_555 1_555
C15 C11 1_555 1_555
H11 C15 1_555 1_555
C16 C14 1_555 1_555
H12 C16 1_555 1_555
C17 C9 1_555 1_555
H13 C17 1_555 1_555
C18 O4 1_555 1_555
C19 O1 1_555 1_555
H14 C19 1_555 1_555
H15 C19 1_555 1_555
H16 C19 1_555 1_555
C20 N2 1_555 1_555
H17 C20 1_555 1_555
C21 C18 1_555 1_555
H18 C21 1_555 1_555
H19 C21 1_555 1_555
H20 C21 1_555 1_555
C4 C9 1_555 1_555
C5 C20 1_555 1_555
C13 C15 1_555 1_555
C16 C17 1_555 1_555

#END
