
#######################################################################
#
#                 Cambridge Crystallographic Data Centre
#                                CCDC 
#
#######################################################################
#
# If this CIF has been generated from an entry in the Cambridge 
# Structural Database, then it will include bibliographic, chemical, 
# crystal, experimental, refinement or atomic coordinate data resulting 
# from the CCDC's data processing and validation procedures.
#
#######################################################################

data_GELYII
_chemical_formula_moiety         'C37 H44 Cl1 N1 O4'
_chemical_name_systematic        
't-butyl 3-[4-(4-chlorophenyl)-4-(3,5-di-t-butyl-4-hydroxyphenyl)butan-2-ylidene]-2-oxo-2,3-dihydro-1H-indole-1-carboxylate'
_symmetry_cell_setting           monoclinic
_symmetry_space_group_name_H-M   'P 21/c'
_symmetry_Int_Tables_number      14
_space_group_name_Hall           '-P 2ybc'
loop_
_symmetry_equiv_pos_site_id
_symmetry_equiv_pos_as_xyz
1 x,y,z
2 -x,1/2+y,1/2-z
3 -x,-y,-z
4 x,1/2-y,1/2+z
_cell_length_a                   12.8461(4)
_cell_length_b                   22.9593(5)
_cell_length_c                   11.4403(3)
_cell_angle_alpha                90
_cell_angle_beta                 95.599(2)
_cell_angle_gamma                90
_cell_volume                     3358.08
_exptl_crystal_colour            'light colorless'
_exptl_crystal_description       needle
_cell_formula_units_Z            4
loop_
_atom_site_label
_atom_site_type_symbol
_atom_site_fract_x
_atom_site_fract_y
_atom_site_fract_z
Cl1 Cl 1.14014(4) 0.64376(2) 0.33689(4)
O1 O 0.50290(10) 0.29810(5) 0.40943(11)
O2 O 0.66629(9) 0.33143(5) 0.38667(9)
O3 O 0.67616(8) 0.44680(4) 0.43347(8)
O4 O 0.83673(9) 0.59490(5) 1.08967(8)
H1 H 0.8361(16) 0.5671(9) 1.1294(17)
N1 N 0.56949(9) 0.37760(5) 0.51064(10)
C1 C 0.50931(10) 0.37462(6) 0.60815(12)
C2 C 0.44818(12) 0.32929(7) 0.64181(15)
H2 H 0.4370 0.2954 0.5946
C3 C 0.40357(13) 0.33492(7) 0.74724(16)
H3 H 0.3618 0.3043 0.7730
C4 C 0.41927(13) 0.38434(8) 0.81460(16)
H4 H 0.3893 0.3869 0.8871
C5 C 0.47812(12) 0.43057(7) 0.77845(14)
H5 H 0.4876 0.4647 0.8252
C6 C 0.52313(10) 0.42630(6) 0.67268(12)
C7 C 0.58940(10) 0.46572(6) 0.61163(12)
C8 C 0.62156(10) 0.43198(6) 0.50870(12)
C9 C 0.57422(12) 0.33152(6) 0.43002(13)
C10 C 0.68767(16) 0.28883(7) 0.29458(14)
C11 C 0.68156(18) 0.22729(8) 0.34194(19)
H6 H 0.7314 0.2230 0.4119
H7 H 0.6988 0.1995 0.2818
H8 H 0.6106 0.2197 0.3627
C12 C 0.6109(2) 0.29952(9) 0.18671(16)
H9 H 0.5398 0.2904 0.2053
H10 H 0.6290 0.2746 0.1222
H11 H 0.6144 0.3405 0.1632
C13 C 0.79840(17) 0.30482(8) 0.27247(18)
H12 H 0.8004 0.3455 0.2469
H13 H 0.8217 0.2795 0.2112
H14 H 0.8448 0.2998 0.3450
C14 C 0.61356(10) 0.52256(6) 0.63120(12)
C15 C 0.56922(11) 0.55621(7) 0.72761(13)
H15 H 0.4937 0.5493 0.7243
H16 H 0.5823 0.5979 0.7175
H17 H 0.6028 0.5434 0.8039
C16 C 0.68836(10) 0.55448(6) 0.55994(12)
H18 H 0.6778 0.5970 0.5667
H19 H 0.6746 0.5436 0.4761
C17 C 0.80253(10) 0.53873(5) 0.60489(10)
H20 H 0.8098 0.4956 0.5964
C18 C 0.88379(10) 0.56692(5) 0.53456(10)
C19 C 0.86003(12) 0.59369(6) 0.42622(11)
H21 H 0.7892 0.5962 0.3938
C20 C 0.93866(13) 0.61684(6) 0.36452(12)
H22 H 0.9218 0.6347 0.2902
C21 C 1.04109(12) 0.61357(6) 0.41224(12)
C22 C 1.06791(12) 0.58686(7) 0.51927(12)
H23 H 1.1388 0.5846 0.5515
C23 C 0.98844(11) 0.56352(6) 0.57813(11)
H24 H 1.0061 0.5445 0.6511
C24 C 0.82018(9) 0.55238(5) 0.73538(10)
C25 C 0.83289(10) 0.60949(5) 0.77401(11)
H25 H 0.8379 0.6394 0.7175
C26 C 0.83853(10) 0.62466(5) 0.89206(11)
C27 C 0.82978(10) 0.57884(6) 0.97285(10)
C28 C 0.81584(9) 0.52042(5) 0.93801(10)
C29 C 0.81294(9) 0.50878(5) 0.81783(11)
H26 H 0.8057 0.4696 0.7918
C30 C 0.80337(10) 0.47046(6) 1.02596(11)
C31 C 0.78542(14) 0.41168(6) 0.96293(13)
H27 H 0.7766 0.3811 1.0209
H28 H 0.8458 0.4025 0.9202
H29 H 0.7224 0.4140 0.9075
C32 C 0.70731(13) 0.48047(7) 1.09391(15)
H30 H 0.7170 0.5163 1.1403
H31 H 0.6991 0.4474 1.1465
H32 H 0.6446 0.4841 1.0383
C33 C 0.90257(13) 0.46351(7) 1.11128(14)
H33 H 0.9151 0.4994 1.1568
H34 H 0.9625 0.4557 1.0667
H35 H 0.8934 0.4310 1.1648
C34 C 0.85307(13) 0.68855(6) 0.93093(12)
C35 C 0.76190(16) 0.70830(7) 0.99924(17)
H36 H 0.7687 0.7500 1.0165
H37 H 0.7635 0.6864 1.0730
H38 H 0.6955 0.7010 0.9518
C36 C 0.95748(15) 0.69646(8) 1.00664(16)
H39 H 1.0151 0.6847 0.9616
H40 H 0.9580 0.6723 1.0773
H41 H 0.9661 0.7375 1.0294
C37 C 0.8544(2) 0.72909(7) 0.82410(15)
H42 H 0.9137 0.7190 0.7802
H43 H 0.8614 0.7696 0.8509
H44 H 0.7890 0.7246 0.7731
loop_
_geom_bond_atom_site_label_1
_geom_bond_atom_site_label_2
_geom_bond_site_symmetry_1
_geom_bond_site_symmetry_2
Cl1 C21 1_555 1_555
O1 C9 1_555 1_555
O2 C9 1_555 1_555
O3 C8 1_555 1_555
O4 H1 1_555 1_555
N1 C1 1_555 1_555
C1 C2 1_555 1_555
C2 H2 1_555 1_555
C3 C2 1_555 1_555
H3 C3 1_555 1_555
C4 C3 1_555 1_555
H4 C4 1_555 1_555
C5 C4 1_555 1_555
H5 C5 1_555 1_555
C6 C1 1_555 1_555
C7 C6 1_555 1_555
C8 N1 1_555 1_555
C9 N1 1_555 1_555
C10 O2 1_555 1_555
C11 C10 1_555 1_555
H6 C11 1_555 1_555
H7 C11 1_555 1_555
H8 C11 1_555 1_555
C12 C10 1_555 1_555
H9 C12 1_555 1_555
H10 C12 1_555 1_555
H11 C12 1_555 1_555
C13 C10 1_555 1_555
H12 C13 1_555 1_555
H13 C13 1_555 1_555
H14 C13 1_555 1_555
C14 C7 1_555 1_555
C15 C14 1_555 1_555
H15 C15 1_555 1_555
H16 C15 1_555 1_555
H17 C15 1_555 1_555
C16 C14 1_555 1_555
H18 C16 1_555 1_555
H19 C16 1_555 1_555
C17 C16 1_555 1_555
H20 C17 1_555 1_555
C18 C17 1_555 1_555
C19 C18 1_555 1_555
H21 C19 1_555 1_555
C20 C19 1_555 1_555
H22 C20 1_555 1_555
C21 C20 1_555 1_555
C22 C21 1_555 1_555
H23 C22 1_555 1_555
C23 C18 1_555 1_555
H24 C23 1_555 1_555
C24 C17 1_555 1_555
C25 C24 1_555 1_555
H25 C25 1_555 1_555
C26 C25 1_555 1_555
C27 O4 1_555 1_555
C28 C27 1_555 1_555
C29 C24 1_555 1_555
H26 C29 1_555 1_555
C30 C28 1_555 1_555
C31 C30 1_555 1_555
H27 C31 1_555 1_555
H28 C31 1_555 1_555
H29 C31 1_555 1_555
C32 C30 1_555 1_555
H30 C32 1_555 1_555
H31 C32 1_555 1_555
H32 C32 1_555 1_555
C33 C30 1_555 1_555
H33 C33 1_555 1_555
H34 C33 1_555 1_555
H35 C33 1_555 1_555
C34 C26 1_555 1_555
C35 C34 1_555 1_555
H36 C35 1_555 1_555
H37 C35 1_555 1_555
H38 C35 1_555 1_555
C36 C34 1_555 1_555
H39 C36 1_555 1_555
H40 C36 1_555 1_555
H41 C36 1_555 1_555
C37 C34 1_555 1_555
H42 C37 1_555 1_555
H43 C37 1_555 1_555
H44 C37 1_555 1_555
C5 C6 1_555 1_555
C7 C8 1_555 1_555
C22 C23 1_555 1_555
C26 C27 1_555 1_555
C28 C29 1_555 1_555

#END
