
#######################################################################
#
#                 Cambridge Crystallographic Data Centre
#                                CCDC 
#
#######################################################################
#
# If this CIF has been generated from an entry in the Cambridge 
# Structural Database, then it will include bibliographic, chemical, 
# crystal, experimental, refinement or atomic coordinate data resulting 
# from the CCDC's data processing and validation procedures.
#
#######################################################################

data_GEMWON
_chemical_name_common            
'tri-N-butyltetrabenzotetraaza[8]circulene hexane solvate'
_chemical_formula_moiety         'C52 H44 N4,0.75(C6 H14)'
_chemical_name_systematic        
'5,15,20-tributyl-5,10,15,20-tetrahydro-5,10,15,20-tetraazatetracyclopenta[fgh,pqr,za_1_b_1_,j_1_k_1_l_1_]tetranaphthylene hexane solvate'
_symmetry_cell_setting           tetragonal
_symmetry_space_group_name_H-M   'I 41/a'
_symmetry_Int_Tables_number      88
_space_group_name_Hall           '-I 4ad'
loop_
_symmetry_equiv_pos_site_id
_symmetry_equiv_pos_as_xyz
1 x,y,z
2 -x,1/2-y,z
3 3/4-y,1/4+x,1/4+z
4 1/4+y,1/4-x,1/4+z
5 1/2+x,1/2+y,1/2+z
6 1/2-x,-y,1/2+z
7 1/4-y,3/4+x,3/4+z
8 3/4+y,3/4-x,3/4+z
9 -x,-y,-z
10 x,1/2+y,-z
11 1/4+y,3/4-x,3/4-z
12 3/4-y,3/4+x,3/4-z
13 1/2-x,1/2-y,1/2-z
14 1/2+x,y,1/2-z
15 3/4+y,1/4-x,1/4-z
16 1/4-y,1/4+x,1/4-z
_cell_length_a                   49.602(7)
_cell_length_b                   49.602(7)
_cell_length_c                   13.7594(19)
_cell_angle_alpha                90
_cell_angle_beta                 90
_cell_angle_gamma                90
_cell_volume                     33853.1
_exptl_crystal_colour            colorless
_exptl_crystal_description       prism
_cell_formula_units_Z            32
_exptl_crystal_recrystallization_method 'Vapour deposition'
loop_
_atom_site_label
_atom_site_type_symbol
_atom_site_fract_x
_atom_site_fract_y
_atom_site_fract_z
C1 C 0.14296(11) 0.40760(10) 0.3409(4)
C2 C 0.16819(11) 0.41291(12) 0.2976(4)
H1 H 0.1827 0.4188 0.3372
C3 C 0.17212(12) 0.40972(12) 0.2002(4)
H2 H 0.1892 0.4138 0.1727
C4 C 0.15130(12) 0.40060(12) 0.1403(4)
H3 H 0.1544 0.3976 0.0730
C5 C 0.12645(11) 0.39598(11) 0.1797(4)
H4 H 0.1123 0.3898 0.1387
C6 C 0.12106(11) 0.40014(10) 0.2788(4)
C7 C 0.09537(11) 0.39595(10) 0.3224(3)
C8 C 0.09057(10) 0.39689(10) 0.4223(3)
C9 C 0.06275(10) 0.39002(10) 0.4374(3)
C10 C 0.05169(11) 0.38455(11) 0.3448(3)
C11 C 0.02638(11) 0.37312(11) 0.3297(4)
C12 C 0.01819(13) 0.36125(13) 0.2404(4)
H5 H 0.0302 0.3616 0.1865
C13 C -0.00656(14) 0.34938(15) 0.2302(5)
H6 H -0.0119 0.3423 0.1689
C14 C -0.02386(14) 0.34762(16) 0.3092(5)
H7 H -0.0409 0.3391 0.3021
C15 C -0.01654(13) 0.35815(15) 0.3975(5)
H8 H -0.0285 0.3564 0.4510
C16 C 0.00822(11) 0.37140(12) 0.4111(4)
C17 C 0.01803(11) 0.38107(11) 0.5026(4)
C18 C 0.04499(11) 0.38813(11) 0.5188(3)
C19 C 0.04774(10) 0.39281(10) 0.6219(3)
C20 C 0.02236(11) 0.38852(12) 0.6626(3)
C21 C 0.01736(11) 0.38894(11) 0.7651(4)
C22 C -0.00633(12) 0.37818(13) 0.8091(4)
H9 H -0.0202 0.3707 0.7699
C23 C -0.00904(13) 0.37869(14) 0.9089(4)
H10 H -0.0252 0.3721 0.9376
C24 C 0.01096(12) 0.38850(14) 0.9674(4)
H11 H 0.0085 0.3887 1.0359
C25 C 0.03449(12) 0.39801(13) 0.9280(4)
H12 H 0.0483 0.4044 0.9698
C26 C 0.03859(11) 0.39858(11) 0.8254(4)
C27 C 0.06339(10) 0.40583(11) 0.7809(3)
C28 C 0.06932(10) 0.40165(10) 0.6828(3)
C29 C 0.09721(10) 0.40812(10) 0.6691(3)
C30 C 0.10738(11) 0.41589(10) 0.7599(3)
C31 C 0.13483(11) 0.42173(10) 0.7783(3)
C32 C 0.14544(12) 0.42622(11) 0.8725(4)
H13 H 0.1338 0.4250 0.9272
C33 C 0.17211(13) 0.43231(12) 0.8864(4)
H14 H 0.1787 0.4356 0.9501
C34 C 0.18946(13) 0.43362(12) 0.8076(5)
H15 H 0.2079 0.4379 0.8173
C35 C 0.18000(12) 0.42880(12) 0.7160(4)
H16 H 0.1921 0.4299 0.6626
C36 C 0.15278(11) 0.42227(10) 0.6982(4)
C37 C 0.14184(11) 0.41597(10) 0.6044(3)
C38 C 0.11536(10) 0.40845(10) 0.5876(3)
C39 C 0.11251(10) 0.40397(10) 0.4853(3)
C40 C 0.13740(11) 0.40907(10) 0.4433(3)
N1 N 0.07145(9) 0.38911(9) 0.2726(3)
N2 N 0.00363(9) 0.38189(10) 0.5897(3)
N3 N 0.08635(9) 0.41572(9) 0.8287(3)
N4 N 0.15544(9) 0.41646(9) 0.5160(3)
H17 H 0.1725 0.4207 0.5075
C41 C 0.06310(13) 0.40590(13) 0.1893(4)
H18 H 0.0450 0.4002 0.1671
H19 H 0.0759 0.4033 0.1348
C42 C 0.06241(16) 0.43700(15) 0.2189(6)
H20 H 0.0494 0.4395 0.2727
H21 H 0.0805 0.4424 0.2426
C43 C 0.05474(18) 0.45435(18) 0.1376(6)
H22 H 0.0383 0.4469 0.1066
H23 H 0.0694 0.4542 0.0886
C44 C 0.0495(2) 0.48271(18) 0.1677(8)
H24 H 0.0344 0.4831 0.2136
H25 H 0.0450 0.4935 0.1103
H26 H 0.0656 0.4901 0.1989
C45 C -0.02469(12) 0.39096(14) 0.5943(4)
H27 H -0.0322 0.3901 0.5277
H28 H -0.0348 0.3778 0.6343
C46 C -0.02992(19) 0.4176(2) 0.6324(7)
H29 H -0.0250 0.4178 0.7021
H30 H -0.0495 0.4212 0.6280
C47 C -0.01455(15) 0.44084(16) 0.5800(6)
H31 H 0.0048 0.4367 0.5711
H32 H -0.0228 0.4456 0.5167
C48 C -0.0191(2) 0.4616(3) 0.6539(8)
H33 H -0.0179 0.4795 0.6239
H34 H -0.0054 0.4600 0.7050
H35 H -0.0371 0.4592 0.6824
C49 C 0.08318(15) 0.43824(14) 0.8991(4)
H36 H 0.0663 0.4352 0.9360
H37 H 0.0983 0.4373 0.9461
C50 C 0.0824(2) 0.46484(19) 0.8602(7)
H38 H 0.0760 0.4766 0.9134
H39 H 0.1014 0.4700 0.8481
C51 C 0.0682(2) 0.47254(18) 0.7778(6)
H40 H 0.0503 0.4637 0.7820
H41 H 0.0776 0.4644 0.7215
C52 C 0.0631(2) 0.50129(19) 0.7525(8)
H42 H 0.0597 0.5116 0.8120
H43 H 0.0474 0.5025 0.7096
H44 H 0.0789 0.5087 0.7192
C53 C 0.12227(13) 0.00643(12) 0.7699(4)
C54 C 0.13518(15) -0.01811(13) 0.7891(4)
H45 H 0.1406 -0.0291 0.7362
C55 C 0.14028(17) -0.02673(14) 0.8826(5)
H46 H 0.1488 -0.0436 0.8936
C56 C 0.13292(16) -0.01045(13) 0.9611(4)
H47 H 0.1362 -0.0164 1.0256
C57 C 0.12091(14) 0.01409(13) 0.9455(4)
H48 H 0.1165 0.0252 0.9995
C58 C 0.11501(12) 0.02318(11) 0.8504(4)
C59 C 0.10442(11) 0.04924(11) 0.8304(3)
C60 C 0.10432(10) 0.06104(11) 0.7378(3)
C61 C 0.09586(10) 0.08846(10) 0.7496(3)
C62 C 0.09050(10) 0.09207(11) 0.8495(3)
C63 C 0.08342(10) 0.11743(11) 0.8916(4)
C64 C 0.08142(11) 0.12166(12) 0.9928(4)
H49 H 0.0851 0.1072 1.0359
C65 C 0.07427(12) 0.14623(13) 1.0300(4)
H50 H 0.0726 0.1486 1.0983
C66 C 0.06939(13) 0.16780(13) 0.9673(4)
H51 H 0.0641 0.1848 0.9931
C67 C 0.07215(13) 0.16469(12) 0.8687(4)
H52 H 0.0688 0.1796 0.8271
C68 C 0.07980(11) 0.13983(11) 0.8280(4)
C69 C 0.08464(11) 0.13550(11) 0.7264(3)
C70 C 0.09271(10) 0.11117(11) 0.6862(3)
C71 C 0.09533(10) 0.11545(10) 0.5836(3)
C72 C 0.08898(11) 0.14204(11) 0.5657(4)
C73 C 0.08939(10) 0.15471(10) 0.4716(4)
C74 C 0.08408(12) 0.18205(12) 0.4539(4)
H53 H 0.0787 0.1932 0.5067
C75 C 0.08634(12) 0.19330(12) 0.3631(4)
H54 H 0.0821 0.2118 0.3526
C76 C 0.09504(12) 0.17682(12) 0.2856(4)
H55 H 0.0975 0.1845 0.2230
C77 C 0.09992(11) 0.15031(11) 0.2988(4)
H56 H 0.1058 0.1396 0.2455
C78 C 0.09640(10) 0.13810(11) 0.3919(4)
C79 C 0.10086(10) 0.10996(11) 0.4093(3)
C80 C 0.10165(10) 0.09868(10) 0.5022(3)
C81 C 0.10884(10) 0.07057(10) 0.4897(3)
C82 C 0.11208(11) 0.06640(10) 0.3899(3)
C83 C 0.12224(11) 0.04200(10) 0.3488(4)
C84 C 0.13073(12) 0.03964(11) 0.2518(4)
H57 H 0.1280 0.0544 0.2089
C85 C 0.14269(13) 0.01709(12) 0.2174(4)
H58 H 0.1480 0.0162 0.1511
C86 C 0.14736(13) -0.00505(12) 0.2784(4)
H59 H 0.1557 -0.0209 0.2541
C87 C 0.13960(12) -0.00332(11) 0.3738(4)
H60 H 0.1429 -0.0182 0.4157
C88 C 0.12681(11) 0.01979(11) 0.4117(4)
C89 C 0.12043(11) 0.02357(11) 0.5130(4)
C90 C 0.11328(10) 0.04855(10) 0.5539(3)
C91 C 0.11173(10) 0.04435(11) 0.6567(3)
C92 C 0.11811(12) 0.01736(11) 0.6744(4)
N5 N 0.09460(9) 0.06782(9) 0.8988(3)
N6 N 0.08248(9) 0.15462(9) 0.6527(3)
H61 H 0.0778 0.1716 0.6600
N7 N 0.10613(9) 0.09019(9) 0.3386(3)
N8 N 0.12270(10) 0.00408(9) 0.5864(3)
C93 C 0.08694(12) 0.08801(13) 0.2556(4)
H62 H 0.0936 0.0746 0.2082
H63 H 0.0854 0.1056 0.2223
C94 C 0.05841(19) 0.0791(2) 0.2952(7)
H64 H 0.0602 0.0619 0.3309
H65 H 0.0517 0.0929 0.3413
C95 C 0.0392(2) 0.0758(2) 0.2168(8)
H66 H 0.0464 0.0630 0.1682
H67 H 0.0362 0.0933 0.1841
C96 C 0.01211(19) 0.0651(3) 0.2570(10)
H68 H 0.0032 0.0794 0.2945
H69 H 0.0155 0.0496 0.2991
H70 H 0.0005 0.0597 0.2029
C97 C 0.11447(14) -0.02434(12) 0.5719(4)
H71 H 0.1293 -0.0341 0.5392
H72 H 0.1117 -0.0328 0.6363
C98 C 0.08961(15) -0.02754(13) 0.5137(5)
H73 H 0.0852 -0.0470 0.5098
H74 H 0.0932 -0.0211 0.4468
C99 C 0.06581(15) -0.01292(16) 0.5521(6)
H75 H 0.0659 -0.0144 0.6239
H76 H 0.0677 0.0064 0.5354
C100 C 0.0395(2) -0.0226(2) 0.5160(8)
H77 H 0.0391 -0.0423 0.5174
H78 H 0.0368 -0.0163 0.4491
H79 H 0.0251 -0.0155 0.5574
C101 C 0.07329(13) 0.05777(14) 0.9671(4)
H80 H 0.0709 0.0710 1.0203
H81 H 0.0793 0.0406 0.9964
C102 C 0.04629(14) 0.05332(16) 0.9166(5)
H82 H 0.0401 0.0706 0.8887
H83 H 0.0489 0.0405 0.8623
C103 C 0.02471(16) 0.04251(17) 0.9835(6)
H84 H 0.0205 0.0563 1.0333
H85 H 0.0317 0.0263 1.0174
C104 C -0.00094(16) 0.03515(19) 0.9292(6)
H86 H 0.0029 0.0208 0.8825
H87 H -0.0077 0.0510 0.8945
H88 H -0.0146 0.0289 0.9756
C105 C 0.0213(4) 0.3055(4) 0.5777(15)
C106 C 0.0097(7) 0.2927(9) 0.489(2)
C107 C 0.0280(8) 0.2871(10) 0.405(3)
C108 C 0.0458(10) 0.2463(9) 0.215(4)
C109 C 0.0224(11) 0.2476(8) 0.288(4)
C110 C 0.0137(9) 0.2765(11) 0.312(2)
C111? C 0.2063(12) 0.0083(11) 0.082(4)
C112? C 0.2204(7) 0.0231(10) 0.252(3)
C113? C 0.2247(12) 0.0030(9) 0.172(5)
C114? C 0.2448(8) 0.0343(7) 0.302(2)
C115? C 0.2788(7) 0.0301(7) 0.440(3)
C116? C 0.2532(10) 0.0174(10) 0.394(3)
C117? C 0.2962(11) -0.0230(7) 0.196(3)
C118? C 0.2966(8) -0.0005(6) 0.122(3)
C119? C 0.2932(5) 0.0261(5) 0.068(2)
C120? C 0.2748(3) 0.0492(3) 0.0258(11)
C121? C 0.2554(5) 0.0573(5) -0.0568(15)
C122? C 0.3007(5) -0.0491(5) 0.252(2)
loop_
_geom_bond_atom_site_label_1
_geom_bond_atom_site_label_2
_geom_bond_site_symmetry_1
_geom_bond_site_symmetry_2
C1 C2 1_555 1_555
C2 H1 1_555 1_555
C3 C2 1_555 1_555
H2 C3 1_555 1_555
C4 C3 1_555 1_555
H3 C4 1_555 1_555
C5 C4 1_555 1_555
H4 C5 1_555 1_555
C6 C1 1_555 1_555
C7 C6 1_555 1_555
C8 C7 1_555 1_555
C9 C8 1_555 1_555
C10 C9 1_555 1_555
C11 C10 1_555 1_555
C12 C11 1_555 1_555
H5 C12 1_555 1_555
C13 C12 1_555 1_555
H6 C13 1_555 1_555
C14 C13 1_555 1_555
H7 C14 1_555 1_555
C15 C14 1_555 1_555
H8 C15 1_555 1_555
C16 C11 1_555 1_555
C17 C16 1_555 1_555
C18 C9 1_555 1_555
C19 C18 1_555 1_555
C20 C19 1_555 1_555
C21 C20 1_555 1_555
C22 C21 1_555 1_555
H9 C22 1_555 1_555
C23 C22 1_555 1_555
H10 C23 1_555 1_555
C24 C23 1_555 1_555
H11 C24 1_555 1_555
C25 C24 1_555 1_555
H12 C25 1_555 1_555
C26 C21 1_555 1_555
C27 C26 1_555 1_555
C28 C19 1_555 1_555
C29 C28 1_555 1_555
C30 C29 1_555 1_555
C31 C30 1_555 1_555
C32 C31 1_555 1_555
H13 C32 1_555 1_555
C33 C32 1_555 1_555
H14 C33 1_555 1_555
C34 C33 1_555 1_555
H15 C34 1_555 1_555
C35 C34 1_555 1_555
H16 C35 1_555 1_555
C36 C31 1_555 1_555
C37 C36 1_555 1_555
C38 C29 1_555 1_555
C39 C8 1_555 1_555
C40 C1 1_555 1_555
N1 C7 1_555 1_555
N2 C17 1_555 1_555
N3 C27 1_555 1_555
N4 C37 1_555 1_555
H17 N4 1_555 1_555
C41 N1 1_555 1_555
H18 C41 1_555 1_555
H19 C41 1_555 1_555
C42 C41 1_555 1_555
H20 C42 1_555 1_555
H21 C42 1_555 1_555
C43 C42 1_555 1_555
H22 C43 1_555 1_555
H23 C43 1_555 1_555
C44 C43 1_555 1_555
H24 C44 1_555 1_555
H25 C44 1_555 1_555
H26 C44 1_555 1_555
C45 N2 1_555 1_555
H27 C45 1_555 1_555
H28 C45 1_555 1_555
C46 C45 1_555 1_555
H29 C46 1_555 1_555
H30 C46 1_555 1_555
C47 C46 1_555 1_555
H31 C47 1_555 1_555
H32 C47 1_555 1_555
C48 C47 1_555 1_555
H33 C48 1_555 1_555
H34 C48 1_555 1_555
H35 C48 1_555 1_555
C49 N3 1_555 1_555
H36 C49 1_555 1_555
H37 C49 1_555 1_555
C50 C49 1_555 1_555
H38 C50 1_555 1_555
H39 C50 1_555 1_555
C51 C50 1_555 1_555
H40 C51 1_555 1_555
H41 C51 1_555 1_555
C52 C51 1_555 1_555
H42 C52 1_555 1_555
H43 C52 1_555 1_555
H44 C52 1_555 1_555
C53 C54 1_555 1_555
C54 H45 1_555 1_555
C55 C54 1_555 1_555
H46 C55 1_555 1_555
C56 C55 1_555 1_555
H47 C56 1_555 1_555
C57 C56 1_555 1_555
H48 C57 1_555 1_555
C58 C53 1_555 1_555
C59 C58 1_555 1_555
C60 C59 1_555 1_555
C61 C60 1_555 1_555
C62 C61 1_555 1_555
C63 C62 1_555 1_555
C64 C63 1_555 1_555
H49 C64 1_555 1_555
C65 C64 1_555 1_555
H50 C65 1_555 1_555
C66 C65 1_555 1_555
H51 C66 1_555 1_555
C67 C66 1_555 1_555
H52 C67 1_555 1_555
C68 C63 1_555 1_555
C69 C68 1_555 1_555
C70 C61 1_555 1_555
C71 C70 1_555 1_555
C72 C71 1_555 1_555
C73 C72 1_555 1_555
C74 C73 1_555 1_555
H53 C74 1_555 1_555
C75 C74 1_555 1_555
H54 C75 1_555 1_555
C76 C75 1_555 1_555
H55 C76 1_555 1_555
C77 C76 1_555 1_555
H56 C77 1_555 1_555
C78 C73 1_555 1_555
C79 C78 1_555 1_555
C80 C71 1_555 1_555
C81 C80 1_555 1_555
C82 C81 1_555 1_555
C83 C82 1_555 1_555
C84 C83 1_555 1_555
H57 C84 1_555 1_555
C85 C84 1_555 1_555
H58 C85 1_555 1_555
C86 C85 1_555 1_555
H59 C86 1_555 1_555
C87 C86 1_555 1_555
H60 C87 1_555 1_555
C88 C83 1_555 1_555
C89 C88 1_555 1_555
C90 C81 1_555 1_555
C91 C60 1_555 1_555
C92 C53 1_555 1_555
N5 C59 1_555 1_555
N6 C69 1_555 1_555
H61 N6 1_555 1_555
N7 C79 1_555 1_555
N8 C89 1_555 1_555
C93 N7 1_555 1_555
H62 C93 1_555 1_555
H63 C93 1_555 1_555
C94 C93 1_555 1_555
H64 C94 1_555 1_555
H65 C94 1_555 1_555
C95 C94 1_555 1_555
H66 C95 1_555 1_555
H67 C95 1_555 1_555
C96 C95 1_555 1_555
H68 C96 1_555 1_555
H69 C96 1_555 1_555
H70 C96 1_555 1_555
C97 N8 1_555 1_555
H71 C97 1_555 1_555
H72 C97 1_555 1_555
C98 C97 1_555 1_555
H73 C98 1_555 1_555
H74 C98 1_555 1_555
C99 C98 1_555 1_555
H75 C99 1_555 1_555
H76 C99 1_555 1_555
C100 C99 1_555 1_555
H77 C100 1_555 1_555
H78 C100 1_555 1_555
H79 C100 1_555 1_555
C101 N5 1_555 1_555
H80 C101 1_555 1_555
H81 C101 1_555 1_555
C102 C101 1_555 1_555
H82 C102 1_555 1_555
H83 C102 1_555 1_555
C103 C102 1_555 1_555
H84 C103 1_555 1_555
H85 C103 1_555 1_555
C104 C103 1_555 1_555
H86 C104 1_555 1_555
H87 C104 1_555 1_555
H88 C104 1_555 1_555
C105 C106 1_555 1_555
C106 C107 1_555 1_555
C107 C110 1_555 1_555
C108 C109 1_555 1_555
C109 C110 1_555 1_555
C5 C6 1_555 1_555
C10 N1 1_555 1_555
C15 C16 1_555 1_555
C17 C18 1_555 1_555
C20 N2 1_555 1_555
C25 C26 1_555 1_555
C27 C28 1_555 1_555
C30 N3 1_555 1_555
C35 C36 1_555 1_555
C37 C38 1_555 1_555
C38 C39 1_555 1_555
C39 C40 1_555 1_555
C40 N4 1_555 1_555
C57 C58 1_555 1_555
C62 N5 1_555 1_555
C67 C68 1_555 1_555
C69 C70 1_555 1_555
C72 N6 1_555 1_555
C77 C78 1_555 1_555
C79 C80 1_555 1_555
C82 N7 1_555 1_555
C87 C88 1_555 1_555
C89 C90 1_555 1_555
C90 C91 1_555 1_555
C91 C92 1_555 1_555
C92 N8 1_555 1_555

#END
