
#######################################################################
#
#                 Cambridge Crystallographic Data Centre
#                                CCDC 
#
#######################################################################
#
# If this CIF has been generated from an entry in the Cambridge 
# Structural Database, then it will include bibliographic, chemical, 
# crystal, experimental, refinement or atomic coordinate data resulting 
# from the CCDC's data processing and validation procedures.
#
#######################################################################

data_GEMYED
_chemical_formula_moiety         'C29 H24 N3 O2 P1'
_chemical_name_systematic        
5-(\a-Azidobenzyl)-2-phenyl-3-(diphenylphosphoryl)-4,5-dihydrofuran
_symmetry_cell_setting           triclinic
_symmetry_space_group_name_H-M   'P 1'
_symmetry_Int_Tables_number      1
_space_group_name_Hall           'P 1'
loop_
_symmetry_equiv_pos_site_id
_symmetry_equiv_pos_as_xyz
1 x,y,z
_cell_length_a                   8.4713(3)
_cell_length_b                   8.5479(3)
_cell_length_c                   17.4621(6)
_cell_angle_alpha                83.267(2)
_cell_angle_beta                 83.693(2)
_cell_angle_gamma                74.518(2)
_cell_volume                     1206.09
_exptl_crystal_colour            colorless
_exptl_crystal_description       block
_cell_formula_units_Z            2
loop_
_atom_site_label
_atom_site_type_symbol
_atom_site_fract_x
_atom_site_fract_y
_atom_site_fract_z
P1 P -0.02607(14) 0.46372(15) 0.16577(7)
O1 O 0.1103(5) 0.3454(4) 0.3833(2)
O2 O 0.0959(5) 0.3573(5) 0.1133(2)
N1 N 0.2067(6) 0.6359(6) 0.3985(3)
N2 N 0.3404(7) 0.5401(7) 0.4113(3)
N3 N 0.4684(8) 0.4636(9) 0.4159(4)
C1 C 0.1086(6) 0.3135(6) 0.3076(3)
C2 C 0.0123(6) 0.4381(6) 0.2658(3)
C3 C -0.0614(8) 0.5761(7) 0.3170(3)
H1 H -0.1823 0.6127 0.3159
H2 H -0.0140 0.6702 0.3011
C4 C -0.0123(7) 0.4964(7) 0.3969(3)
H3 H -0.1104 0.4708 0.4277
C5 C 0.0591(7) 0.6003(7) 0.4425(3)
H4 H 0.0878 0.5419 0.4942
C6 C -0.0694(7) 0.7609(6) 0.4527(3)
C7 C -0.0551(8) 0.9048(7) 0.4102(3)
H5 H 0.0396 0.9072 0.3759
C8 C -0.1831(9) 1.0469(8) 0.4186(4)
H6 H -0.1744 1.1461 0.3897
C9 C -0.3198(8) 1.0445(8) 0.4677(4)
H7 H -0.4058 1.1412 0.4727
C10 C -0.3325(8) 0.9001(8) 0.5103(4)
H8 H -0.4281 0.8984 0.5440
C11 C -0.2083(7) 0.7591(7) 0.5041(3)
H9 H -0.2167 0.6614 0.5345
C12 C 0.2109(6) 0.1505(6) 0.2914(3)
C13 C 0.3428(7) 0.0750(7) 0.3360(3)
H10 H 0.3654 0.1293 0.3764
C14 C 0.4401(8) -0.0779(8) 0.3218(4)
H11 H 0.5321 -0.1262 0.3510
C15 C 0.4045(8) -0.1609(7) 0.2654(4)
H12 H 0.4706 -0.2668 0.2562
C16 C 0.2719(8) -0.0889(7) 0.2225(3)
H13 H 0.2465 -0.1462 0.1840
C17 C 0.1758(8) 0.0656(7) 0.2351(3)
H14 H 0.0853 0.1139 0.2050
C18 C -0.0436(6) 0.6775(6) 0.1337(3)
C19 C 0.0747(7) 0.7130(7) 0.0791(3)
H15 H 0.1610 0.6274 0.0597
C20 C 0.0680(9) 0.8747(9) 0.0520(4)
H16 H 0.1498 0.8990 0.0143
C21 C -0.0546(9) 0.9971(8) 0.0795(4)
H17 H -0.0577 1.1068 0.0609
C22 C -0.1746(9) 0.9649(8) 0.1339(4)
H18 H -0.2600 1.0518 0.1529
C23 C -0.1701(8) 0.8041(7) 0.1610(3)
H19 H -0.2534 0.7807 0.1981
C24 C -0.2325(6) 0.4404(6) 0.1648(3)
C25 C -0.3198(7) 0.3902(8) 0.2297(3)
H20 H -0.2753 0.3728 0.2785
C26 C -0.4735(8) 0.3646(8) 0.2240(4)
H21 H -0.5344 0.3310 0.2689
C27 C -0.5375(8) 0.3883(9) 0.1524(4)
H22 H -0.6423 0.3708 0.1484
C28 C -0.4499(9) 0.4368(10) 0.0876(4)
H23 H -0.4931 0.4515 0.0385
C29 C -0.2988(8) 0.4642(9) 0.0936(4)
H24 H -0.2392 0.4998 0.0486
P2 P 0.30920(15) 0.60181(14) 0.66414(7)
O3 O 0.1133(5) 0.5936(5) 0.8855(2)
N4 N 0.0369(6) 0.2987(6) 0.8697(3)
C30 C 0.1219(7) 0.6572(6) 0.8087(3)
O4 O 0.2262(5) 0.5279(4) 0.6131(2)
N5 N -0.1059(7) 0.3765(6) 0.8849(3)
C31 C 0.2495(6) 0.5724(6) 0.7650(3)
N6 N -0.2409(7) 0.4416(9) 0.8922(4)
C32 C 0.3352(7) 0.4209(7) 0.8141(3)
H25 H 0.4527 0.4161 0.8164
H26 H 0.3265 0.3205 0.7938
C33 C 0.2405(7) 0.4435(6) 0.8936(3)
H27 H 0.3166 0.4532 0.9316
C34 C 0.1563(7) 0.3068(6) 0.9249(3)
H28 H 0.0950 0.3339 0.9759
C35 C 0.2780(7) 0.1423(6) 0.9357(3)
C36 C 0.3028(8) 0.0249(7) 0.8833(3)
H29 H 0.2409 0.0467 0.8393
C37 C 0.4171(9) -0.1225(8) 0.8952(4)
H30 H 0.4318 -0.2033 0.8602
C38 C 0.5103(9) -0.1527(8) 0.9581(4)
H31 H 0.5907 -0.2534 0.9654
C39 C 0.4875(9) -0.0385(8) 1.0098(4)
H32 H 0.5514 -0.0607 1.0531
C40 C 0.3720(8) 0.1088(7) 0.9991(3)
H33 H 0.3565 0.1876 1.0352
C41 C -0.0139(7) 0.8026(6) 0.7920(3)
C42 C -0.0860(7) 0.9036(7) 0.8501(4)
H34 H -0.0459 0.8813 0.9000
C43 C -0.2169(8) 1.0374(8) 0.8345(4)
H35 H -0.2658 1.1076 0.8738
C44 C -0.2760(8) 1.0688(8) 0.7625(4)
H36 H -0.3651 1.1610 0.7521
C45 C -0.2070(7) 0.9673(7) 0.7054(4)
H37 H -0.2489 0.9891 0.6559
C46 C -0.0772(7) 0.8342(7) 0.7200(3)
H38 H -0.0306 0.7636 0.6806
C47 C 0.2849(6) 0.8176(6) 0.6363(3)
C48 C 0.2195(7) 0.8793(7) 0.5655(3)
H39 H 0.1842 0.8102 0.5360
C49 C 0.2059(7) 1.0408(7) 0.5383(3)
H40 H 0.1596 1.0828 0.4906
C50 C 0.2596(7) 1.1404(7) 0.5803(3)
H41 H 0.2523 1.2506 0.5611
C51 C 0.3239(7) 1.0803(7) 0.6505(3)
H42 H 0.3613 1.1491 0.6792
C52 C 0.3339(7) 0.9211(7) 0.6786(3)
H43 H 0.3748 0.8817 0.7277
C53 C 0.5294(6) 0.5127(6) 0.6575(3)
C54 C 0.6357(7) 0.5521(7) 0.7040(3)
H44 H 0.5922 0.6273 0.7417
C55 C 0.8021(7) 0.4828(7) 0.6955(3)
H45 H 0.8729 0.5105 0.7273
C56 C 0.8665(7) 0.3740(8) 0.6413(4)
H46 H 0.9817 0.3271 0.6357
C57 C 0.7650(8) 0.3318(7) 0.5948(4)
H47 H 0.8104 0.2548 0.5580
C58 C 0.5959(7) 0.4026(6) 0.6020(3)
H48 H 0.5262 0.3761 0.5692
loop_
_geom_bond_atom_site_label_1
_geom_bond_atom_site_label_2
_geom_bond_site_symmetry_1
_geom_bond_site_symmetry_2
P1 O2 1_555 1_555
O1 C1 1_555 1_555
N1 N2 1_555 1_555
N2 N3 1_555 1_555
C1 C2 1_555 1_555
C2 P1 1_555 1_555
C3 C2 1_555 1_555
H1 C3 1_555 1_555
H2 C3 1_555 1_555
C4 O1 1_555 1_555
H3 C4 1_555 1_555
C5 N1 1_555 1_555
H4 C5 1_555 1_555
C6 C5 1_555 1_555
C7 C6 1_555 1_555
H5 C7 1_555 1_555
C8 C7 1_555 1_555
H6 C8 1_555 1_555
C9 C8 1_555 1_555
H7 C9 1_555 1_555
C10 C9 1_555 1_555
H8 C10 1_555 1_555
C11 C6 1_555 1_555
H9 C11 1_555 1_555
C12 C1 1_555 1_555
C13 C12 1_555 1_555
H10 C13 1_555 1_555
C14 C13 1_555 1_555
H11 C14 1_555 1_555
C15 C14 1_555 1_555
H12 C15 1_555 1_555
C16 C15 1_555 1_555
H13 C16 1_555 1_555
C17 C12 1_555 1_555
H14 C17 1_555 1_555
C18 P1 1_555 1_555
C19 C18 1_555 1_555
H15 C19 1_555 1_555
C20 C19 1_555 1_555
H16 C20 1_555 1_555
C21 C20 1_555 1_555
H17 C21 1_555 1_555
C22 C21 1_555 1_555
H18 C22 1_555 1_555
C23 C18 1_555 1_555
H19 C23 1_555 1_555
C24 P1 1_555 1_555
C25 C24 1_555 1_555
H20 C25 1_555 1_555
C26 C25 1_555 1_555
H21 C26 1_555 1_555
C27 C26 1_555 1_555
H22 C27 1_555 1_555
C28 C27 1_555 1_555
H23 C28 1_555 1_555
C29 C24 1_555 1_555
H24 C29 1_555 1_555
P2 O4 1_555 1_555
O3 C30 1_555 1_555
N4 N5 1_555 1_555
C30 C31 1_555 1_555
N5 N6 1_555 1_555
C31 P2 1_555 1_555
C32 C31 1_555 1_555
H25 C32 1_555 1_555
H26 C32 1_555 1_555
C33 O3 1_555 1_555
H27 C33 1_555 1_555
C34 N4 1_555 1_555
H28 C34 1_555 1_555
C35 C34 1_555 1_555
C36 C35 1_555 1_555
H29 C36 1_555 1_555
C37 C36 1_555 1_555
H30 C37 1_555 1_555
C38 C37 1_555 1_555
H31 C38 1_555 1_555
C39 C38 1_555 1_555
H32 C39 1_555 1_555
C40 C35 1_555 1_555
H33 C40 1_555 1_555
C41 C30 1_555 1_555
C42 C41 1_555 1_555
H34 C42 1_555 1_555
C43 C42 1_555 1_555
H35 C43 1_555 1_555
C44 C43 1_555 1_555
H36 C44 1_555 1_555
C45 C44 1_555 1_555
H37 C45 1_555 1_555
C46 C41 1_555 1_555
H38 C46 1_555 1_555
C47 P2 1_555 1_555
C48 C47 1_555 1_555
H39 C48 1_555 1_555
C49 C48 1_555 1_555
H40 C49 1_555 1_555
C50 C49 1_555 1_555
H41 C50 1_555 1_555
C51 C50 1_555 1_555
H42 C51 1_555 1_555
C52 C47 1_555 1_555
H43 C52 1_555 1_555
C53 P2 1_555 1_555
C54 C53 1_555 1_555
H44 C54 1_555 1_555
C55 C54 1_555 1_555
H45 C55 1_555 1_555
C56 C55 1_555 1_555
H46 C56 1_555 1_555
C57 C56 1_555 1_555
H47 C57 1_555 1_555
C58 C53 1_555 1_555
H48 C58 1_555 1_555
C3 C4 1_555 1_555
C4 C5 1_555 1_555
C10 C11 1_555 1_555
C16 C17 1_555 1_555
C22 C23 1_555 1_555
C28 C29 1_555 1_555
C32 C33 1_555 1_555
C33 C34 1_555 1_555
C39 C40 1_555 1_555
C45 C46 1_555 1_555
C51 C52 1_555 1_555
C57 C58 1_555 1_555

#END
