
#######################################################################
#
#                 Cambridge Crystallographic Data Centre
#                                CCDC 
#
#######################################################################
#
# If this CIF has been generated from an entry in the Cambridge 
# Structural Database, then it will include bibliographic, chemical, 
# crystal, experimental, refinement or atomic coordinate data resulting 
# from the CCDC's data processing and validation procedures.
#
#######################################################################

data_GENDOV
_chemical_formula_moiety         'C42 H48 N7'
_chemical_name_systematic        
'1,3-bis[1,3-bis(2,4,6-trimethylphenyl)-1,3-dihydro-2H-imidazol-2-ylidene]triazane radical'
_symmetry_cell_setting           monoclinic
_symmetry_space_group_name_H-M   'C 2/c'
_symmetry_Int_Tables_number      15
_space_group_name_Hall           '-C 2yn'
loop_
_symmetry_equiv_pos_site_id
_symmetry_equiv_pos_as_xyz
1 x,y,z
2 -x,y,1/2-z
3 1/2+x,1/2+y,z
4 1/2-x,1/2+y,1/2-z
5 -x,-y,-z
6 x,-y,1/2+z
7 1/2-x,1/2-y,-z
8 1/2+x,1/2-y,1/2+z
_cell_length_a                   42.910(9)
_cell_length_b                   8.5970(17)
_cell_length_c                   21.633(4)
_cell_angle_alpha                90
_cell_angle_beta                 114.51(3)
_cell_angle_gamma                90
_cell_volume                     7261.24
_exptl_crystal_colour            red
_exptl_crystal_description       plate
_cell_formula_units_Z            8
loop_
_atom_site_label
_atom_site_type_symbol
_atom_site_fract_x
_atom_site_fract_y
_atom_site_fract_z
C1 C 0.56985(7) -0.0147(4) 0.61029(16)
H1 H 0.5467 -0.0317 0.6029
C2 C 0.59710(7) -0.0560(4) 0.66511(15)
H2 H 0.5969 -0.1084 0.7036
C3 C 0.66078(6) -0.0415(3) 0.70193(12)
C4 C 0.67294(6) -0.1944(3) 0.70894(12)
C5 C 0.70701(6) -0.2204(3) 0.75219(12)
H3 H 0.7155 -0.3239 0.7584
C6 C 0.65024(6) -0.3277(3) 0.67033(13)
H4 H 0.6400 -0.3766 0.6985
H5 H 0.6639 -0.4046 0.6591
H6 H 0.6320 -0.2883 0.6284
C7 C 0.72907(6) -0.1012(3) 0.78656(12)
C8 C 0.76643(6) -0.1310(3) 0.83027(14)
H7 H 0.7690 -0.1731 0.8742
H8 H 0.7792 -0.0333 0.8374
H9 H 0.7754 -0.2061 0.8076
C9 C 0.71582(6) 0.0493(3) 0.77829(12)
H10 H 0.7306 0.1324 0.8017
C10 C 0.68188(6) 0.0817(3) 0.73710(12)
C11 C 0.66807(7) 0.2450(3) 0.72964(14)
H11 H 0.6852 0.3127 0.7630
H12 H 0.6471 0.2454 0.7374
H13 H 0.6629 0.2830 0.6837
C12 C 0.61610(6) 0.0636(3) 0.59417(12)
C13 C 0.55754(6) 0.1551(3) 0.51096(13)
C14 C 0.55757(6) 0.3156(3) 0.52164(14)
C15 C 0.58333(8) 0.3897(3) 0.58492(15)
H14 H 0.5840 0.3331 0.6248
H15 H 0.5769 0.4982 0.5872
H16 H 0.6060 0.3863 0.5842
C16 C 0.53297(8) 0.4033(4) 0.47148(17)
H17 H 0.5325 0.5125 0.4777
C17 C 0.50914(7) 0.3379(4) 0.41268(17)
C18 C 0.51006(7) 0.1784(4) 0.40409(15)
H18 H 0.4938 0.1326 0.3636
C19 C 0.53402(7) 0.0830(3) 0.45290(14)
C20 C 0.53441(8) -0.0898(4) 0.44273(16)
H19 H 0.5577 -0.1232 0.4514
H20 H 0.5189 -0.1159 0.3959
H21 H 0.5269 -0.1431 0.4742
C21 C 0.48294(9) 0.4377(5) 0.3577(2)
H22 H 0.4789 0.5331 0.3780
H23 H 0.4614 0.3798 0.3359
H24 H 0.4916 0.4644 0.3236
C22 C 0.64812(6) 0.3211(3) 0.44944(13)
C23 C 0.64893(13) 0.3247(6) 0.34667(19)
H25 H 0.6453 0.2944 0.3020
C24 C 0.66571(10) 0.4484(4) 0.37841(16)
H26 H 0.6762 0.5234 0.3610
C25 C 0.68134(7) 0.5676(3) 0.49115(12)
C26 C 0.66102(7) 0.6736(3) 0.50716(13)
C27 C 0.67764(9) 0.7958(3) 0.54986(14)
H27 H 0.6644 0.8686 0.5617
C28 C 0.71682(7) 0.5801(3) 0.51892(13)
C29 C 0.73859(8) 0.4560(4) 0.50730(17)
H28 H 0.7307 0.3534 0.5142
H29 H 0.7625 0.4704 0.5394
H30 H 0.7368 0.4637 0.4607
C30 C 0.73172(8) 0.7073(3) 0.55995(14)
H31 H 0.7559 0.7199 0.5777
C31 C 0.71260(9) 0.8160(3) 0.57581(14)
C32 C 0.72897(10) 0.9542(4) 0.62037(17)
H32 H 0.7198 1.0503 0.5949
H33 H 0.7538 0.9506 0.6345
H34 H 0.7239 0.9515 0.6606
C33 C 0.62287(7) 0.6561(4) 0.47891(15)
H35 H 0.6127 0.7527 0.4861
H36 H 0.6171 0.5703 0.5020
H37 H 0.6139 0.6340 0.4301
C34 C 0.61485(8) 0.1149(4) 0.36236(13)
C35 C 0.56557(12) 0.2987(4) 0.3366(2)
H38 H 0.5407 0.2985 0.3101
H39 H 0.5760 0.3763 0.3180
H40 H 0.5708 0.3244 0.3840
C36 C 0.57975(8) 0.1401(4) 0.33328(15)
C37 C 0.55911(8) 0.0144(4) 0.30227(15)
H41 H 0.5350 0.0279 0.2823
C38 C 0.57244(8) -0.1298(4) 0.29934(15)
C39 C 0.60729(8) -0.1475(4) 0.32835(15)
H42 H 0.6167 -0.2465 0.3265
C40 C 0.62904(7) -0.0274(4) 0.35998(13)
C41 C 0.66770(7) -0.0500(6) 0.39061(18)
H43 H 0.6774 0.0057 0.3631
H44 H 0.6730 -0.1611 0.3914
H45 H 0.6777 -0.0090 0.4371
C42 C 0.54924(11) -0.2655(5) 0.2652(2)
H46 H 0.5612 -0.3372 0.2471
H47 H 0.5284 -0.2272 0.2280
H48 H 0.5432 -0.3202 0.2984
N1 N 0.62581(5) -0.0096(2) 0.65643(10)
N2 N 0.58085(5) 0.0585(3) 0.56482(11)
N3 N 0.63868(5) 0.1208(2) 0.57527(9)
N4 N 0.62620(5) 0.1691(3) 0.50779(10)
N5 N 0.64692(6) 0.2907(2) 0.50681(11)
N6 N 0.63717(8) 0.2446(3) 0.38868(13)
N7 N 0.66531(6) 0.4499(2) 0.44181(10)
loop_
_geom_bond_atom_site_label_1
_geom_bond_atom_site_label_2
_geom_bond_site_symmetry_1
_geom_bond_site_symmetry_2
C1 H1 1_555 1_555
C2 C1 1_555 1_555
H2 C2 1_555 1_555
C3 C4 1_555 1_555
C4 C5 1_555 1_555
C5 H3 1_555 1_555
C6 C4 1_555 1_555
H4 C6 1_555 1_555
H5 C6 1_555 1_555
H6 C6 1_555 1_555
C7 C5 1_555 1_555
C8 C7 1_555 1_555
H7 C8 1_555 1_555
H8 C8 1_555 1_555
H9 C8 1_555 1_555
C9 C7 1_555 1_555
H10 C9 1_555 1_555
C10 C3 1_555 1_555
C11 C10 1_555 1_555
H11 C11 1_555 1_555
H12 C11 1_555 1_555
H13 C11 1_555 1_555
C12 N1 1_555 1_555
C13 C14 1_555 1_555
C14 C15 1_555 1_555
C15 H14 1_555 1_555
H15 C15 1_555 1_555
H16 C15 1_555 1_555
C16 C14 1_555 1_555
H17 C16 1_555 1_555
C17 C16 1_555 1_555
C18 C17 1_555 1_555
H18 C18 1_555 1_555
C19 C13 1_555 1_555
C20 C19 1_555 1_555
H19 C20 1_555 1_555
H20 C20 1_555 1_555
H21 C20 1_555 1_555
C21 C17 1_555 1_555
H22 C21 1_555 1_555
H23 C21 1_555 1_555
H24 C21 1_555 1_555
C22 N5 1_555 1_555
C23 H25 1_555 1_555
C24 C23 1_555 1_555
H26 C24 1_555 1_555
C25 C26 1_555 1_555
C26 C27 1_555 1_555
C27 H27 1_555 1_555
C28 C25 1_555 1_555
C29 C28 1_555 1_555
H28 C29 1_555 1_555
H29 C29 1_555 1_555
H30 C29 1_555 1_555
C30 C28 1_555 1_555
H31 C30 1_555 1_555
C31 C27 1_555 1_555
C32 C31 1_555 1_555
H32 C32 1_555 1_555
H33 C32 1_555 1_555
H34 C32 1_555 1_555
C33 C26 1_555 1_555
H35 C33 1_555 1_555
H36 C33 1_555 1_555
H37 C33 1_555 1_555
C34 C36 1_555 1_555
C35 H38 1_555 1_555
H39 C35 1_555 1_555
H40 C35 1_555 1_555
C36 C35 1_555 1_555
C37 C36 1_555 1_555
H41 C37 1_555 1_555
C38 C37 1_555 1_555
C39 C38 1_555 1_555
H42 C39 1_555 1_555
C40 C34 1_555 1_555
C41 C40 1_555 1_555
H43 C41 1_555 1_555
H44 C41 1_555 1_555
H45 C41 1_555 1_555
C42 C38 1_555 1_555
H46 C42 1_555 1_555
H47 C42 1_555 1_555
H48 C42 1_555 1_555
N1 C2 1_555 1_555
N2 C1 1_555 1_555
N3 C12 1_555 1_555
N4 N3 1_555 1_555
N5 N4 1_555 1_555
N6 C22 1_555 1_555
N7 C22 1_555 1_555
C3 N1 1_555 1_555
C9 C10 1_555 1_555
C12 N2 1_555 1_555
C13 N2 1_555 1_555
C18 C19 1_555 1_555
C23 N6 1_555 1_555
C24 N7 1_555 1_555
C25 N7 1_555 1_555
C30 C31 1_555 1_555
C34 N6 1_555 1_555
C39 C40 1_555 1_555

#END
