
#######################################################################
#
#                 Cambridge Crystallographic Data Centre
#                                CCDC 
#
#######################################################################
#
# If this CIF has been generated from an entry in the Cambridge 
# Structural Database, then it will include bibliographic, chemical, 
# crystal, experimental, refinement or atomic coordinate data resulting 
# from the CCDC's data processing and validation procedures.
#
#######################################################################

data_GENLAN
_chemical_name_common            4-Ethynylphenyl-N,N-dimethylamine
_chemical_formula_moiety         'C10 H11 N1'
_chemical_name_systematic        4-Ethynyl-N,N-dimethylaniline
_symmetry_cell_setting           triclinic
_symmetry_space_group_name_H-M   'P -1'
_symmetry_Int_Tables_number      2
_space_group_name_Hall           '-P 1'
loop_
_symmetry_equiv_pos_site_id
_symmetry_equiv_pos_as_xyz
1 x,y,z
2 -x,-y,-z
_cell_length_a                   18.2204(10)
_cell_length_b                   19.0609(13)
_cell_length_c                   19.2870(14)
_cell_angle_alpha                105.18(1)
_cell_angle_beta                 113.60(1)
_cell_angle_gamma                108.25(1)
_cell_volume                     5220.49
_exptl_crystal_colour            colorless
_exptl_crystal_description       plate
_chemical_melting_point          '325 K'
_cell_formula_units_Z            24
loop_
_atom_site_label
_atom_site_type_symbol
_atom_site_fract_x
_atom_site_fract_y
_atom_site_fract_z
N1 N 1.09511(9) 0.48865(8) 0.17353(9)
C1 C 1.00257(11) 0.44272(9) 0.12503(10)
C2 C 0.94846(12) 0.42928(10) 0.16039(11)
H1 H 0.9773 0.4535 0.2207
C3 C 0.85547(12) 0.38251(10) 0.11049(11)
H2 H 0.8203 0.3743 0.1364
C4 C 0.81103(11) 0.34654(10) 0.02264(11)
C5 C 0.86369(12) 0.35999(10) -0.01267(11)
H3 H 0.8343 0.3355 -0.0731
C6 C 0.95646(12) 0.40672(9) 0.03630(10)
H4 H 0.9907 0.4157 0.0096
C7 C 1.14311(12) 0.52055(11) 0.26424(11)
H5 H 1.1228 0.5559 0.2880
H6 H 1.2075 0.5519 0.2878
H7 H 1.1326 0.4754 0.2791
C8 C 1.14837(12) 0.49991(11) 0.13493(11)
H8 H 1.1331 0.5292 0.1022
H9 H 1.1361 0.4469 0.0983
H10 H 1.2123 0.5309 0.1777
C9 C 0.71421(13) 0.29581(11) -0.03076(12)
C10 C 0.63488(17) 0.25331(15) -0.07667(16)
H11 H 0.5741(16) 0.2206(15) -0.1128(15)
N2 N -0.07630(9) 0.01946(8) -0.16532(8)
C11 C 0.01642(11) 0.06706(9) -0.11782(10)
C12 C 0.06395(11) 0.10337(9) -0.02911(10)
H12 H 0.0310 0.0936 -0.0013
C13 C 0.15632(12) 0.15254(10) 0.01831(11)
H13 H 0.1873 0.1762 0.0788
C14 C 0.20703(11) 0.16896(10) -0.01894(11)
C15 C 0.16065(12) 0.13117(10) -0.10691(11)
H14 H 0.1942 0.1405 -0.1342
C16 C 0.06784(11) 0.08171(10) -0.15522(11)
H15 H 0.0375 0.0565 -0.2157
C17 C -0.12765(11) 0.00618(11) -0.12510(11)
H16 H -0.1090 -0.0218 -0.0919
H17 H -0.1917 -0.0270 -0.1671
H18 H -0.1171 0.0584 -0.0885
C18 C -0.12598(12) -0.00883(10) -0.25566(10)
H19 H -0.1065 -0.0434 -0.2818
H20 H -0.1151 0.0380 -0.2680
H21 H -0.1903 -0.0400 -0.2790
C19 C 0.30214(13) 0.22657(11) 0.03210(12)
C20 C 0.37907(16) 0.27532(15) 0.07564(16)
H22 H 0.4378(14) 0.3172(12) 0.1085(13)
N3 N 1.06989(10) 0.34194(8) 0.40761(9)
C21 C 0.97719(11) 0.29898(9) 0.36234(10)
C22 C 0.92656(12) 0.26486(10) 0.27325(10)
H23 H 0.9581 0.2721 0.2439
C23 C 0.83325(12) 0.22239(10) 0.22822(11)
H24 H 0.8006 0.2002 0.1677
C24 C 0.78467(12) 0.21073(10) 0.26792(11)
C25 C 0.83432(12) 0.24359(10) 0.35557(11)
H25 H 0.8022 0.2355 0.3843
C26 C 0.92728(12) 0.28628(10) 0.40150(11)
H26 H 0.9594 0.3080 0.4619
C27 C 1.11966(12) 0.35988(11) 0.36676(11)
H27 H 1.1085 0.3095 0.3261
H28 H 1.1841 0.3916 0.4083
H29 H 1.1012 0.3915 0.3380
C28 C 1.12031(12) 0.37477(10) 0.49903(11)
H30 H 1.1060 0.3312 0.5157
H31 H 1.1054 0.4152 0.5236
H32 H 1.1847 0.4008 0.5205
C29 C 0.68760(14) 0.16743(11) 0.22258(13)
C30 C 0.60817(17) 0.13283(15) 0.18863(17)
H33 H 0.5479(16) 0.1060(14) 0.1641(15)
N4 N -0.06761(9) 0.16180(8) 0.58809(9)
C31 C 0.02584(11) 0.20240(9) 0.63799(10)
C32 C 0.07111(11) 0.23450(10) 0.72643(10)
H34 H 0.0361 0.2287 0.7527
C33 C 0.16401(11) 0.27393(10) 0.77574(11)
H35 H 0.1929 0.2943 0.8359
C34 C 0.21782(11) 0.28439(9) 0.74083(11)
C35 C 0.17338(12) 0.25403(9) 0.65324(11)
H36 H 0.2090 0.2611 0.6276
C36 C 0.08048(12) 0.21427(9) 0.60323(11)
H37 H 0.0520 0.1942 0.5431
C37 C -0.12192(12) 0.14166(11) 0.62414(11)
H38 H -0.1099 0.1911 0.6666
H39 H -0.1080 0.1066 0.6496
H40 H -0.1855 0.1131 0.5805
C38 C -0.11224(12) 0.12413(11) 0.49715(11)
H41 H -0.0968 0.1658 0.4785
H42 H -0.1772 0.0964 0.4721
H43 H -0.0934 0.0846 0.4788
C39 C 0.31494(13) 0.32247(11) 0.79195(12)
C40 C 0.39445(16) 0.35274(14) 0.83254(15)
H44 H 0.4537(14) 0.3785(13) 0.8650(14)
N5 N 1.07772(9) 0.34673(8) -0.08248(9)
C41 C 0.98498(11) 0.30207(9) -0.13133(10)
C42 C 0.93796(11) 0.22602(9) -0.13487(10)
H45 H 0.9720 0.2032 -0.1048
C43 C 0.84476(11) 0.18373(10) -0.17980(10)
H46 H 0.8144 0.1321 -0.1804
C44 C 0.79249(11) 0.21423(10) -0.22471(10)
C45 C 0.83860(12) 0.28800(10) -0.22443(10)
H47 H 0.8041 0.3093 -0.2564
C46 C 0.93194(11) 0.33100(10) -0.17963(10)
H48 H 0.9615 0.3813 -0.1815
C47 C 1.12544(11) 0.42422(10) -0.08090(11)
H49 H 1.1038 0.4620 -0.0634
H50 H 1.1901 0.4479 -0.0413
H51 H 1.1143 0.4149 -0.1369
C48 C 1.13057(11) 0.31487(10) -0.03468(10)
H52 H 1.1130 0.3054 0.0044
H53 H 1.1945 0.3536 -0.0033
H54 H 1.1202 0.2635 -0.0728
C49 C 0.69546(13) 0.17339(11) -0.26527(12)
C50 C 0.61608(17) 0.14012(14) -0.29588(16)
H55 H 0.5561(16) 0.1190(14) -0.3156(15)
N6 N -0.06658(10) 0.15777(8) 0.08497(9)
C51 C 0.02643(11) 0.20039(9) 0.13678(10)
C52 C 0.07503(12) 0.16805(10) 0.18343(10)
H56 H 0.0423 0.1167 0.1819
C53 C 0.16851(12) 0.20938(10) 0.23180(11)
H57 H 0.2001 0.1855 0.2625
C54 C 0.21878(11) 0.28435(10) 0.23726(10)
C55 C 0.17059(12) 0.31797(10) 0.19264(10)
H58 H 0.2039 0.3702 0.1959
C56 C 0.07725(12) 0.27766(10) 0.14425(10)
H59 H 0.0460 0.3028 0.1153
C57 C -0.11824(12) 0.08125(10) 0.08244(11)
H60 H -0.0981 0.0418 0.0672
H61 H -0.1817 0.0588 0.0412
H62 H -0.1105 0.0911 0.1371
C58 C -0.11622(12) 0.19398(10) 0.04137(11)
H63 H -0.0936 0.2100 0.0076
H64 H -0.1085 0.2420 0.0820
H65 H -0.1799 0.1549 0.0053
C59 C 0.31599(13) 0.32433(11) 0.28442(12)
C60 C 0.39585(17) 0.35584(14) 0.32209(16)
H66 H 0.4574(14) 0.3816(13) 0.3510(13)
N7 N 1.08461(9) 0.48083(8) 0.66771(9)
C61 C 0.99152(10) 0.43616(9) 0.61998(9)
C62 C 0.93803(11) 0.46506(10) 0.57278(10)
H67 H 0.9672 0.5182 0.5756
C63 C 0.84495(11) 0.41835(10) 0.52236(10)
H68 H 0.8101 0.4399 0.4913
C64 C 0.79998(11) 0.34135(10) 0.51606(10)
C65 C 0.85254(11) 0.31357(10) 0.56514(11)
H69 H 0.8228 0.2608 0.5629
C66 C 0.94525(11) 0.35920(9) 0.61568(10)
H70 H 0.9792 0.3384 0.6490
C67 C 1.13101(11) 0.55876(10) 0.67011(11)
H71 H 1.1170 0.5989 0.6967
H72 H 1.1124 0.5524 0.6135
H73 H 1.1959 0.5788 0.7021
C68 C 1.13950(11) 0.44990(11) 0.71485(11)
H74 H 1.1271 0.4445 0.7580
H75 H 1.2034 0.4868 0.7413
H76 H 1.1254 0.3966 0.6768
C69 C 0.70380(13) 0.29005(11) 0.45794(12)
C70 C 0.62584(16) 0.24686(14) 0.40760(16)
H77 H 0.5673(15) 0.2162(13) 0.3680(14)
N8 N -0.09833(9) 0.01144(8) 0.32259(8)
C71 C -0.00576(10) 0.05934(9) 0.37009(9)
C72 C 0.05096(11) 0.03546(10) 0.42180(9)
H78 H 0.0244 -0.0160 0.4229
C73 C 0.14384(11) 0.08497(9) 0.47106(10)
H79 H 0.1811 0.0673 0.5059
C74 C 0.18530(11) 0.16006(9) 0.47122(10)
C75 C 0.12964(11) 0.18287(10) 0.41842(10)
H80 H 0.1569 0.2338 0.4165
C76 C 0.03677(11) 0.13419(9) 0.36921(10)
H81 H 0.0004 0.1517 0.3334
C77 C -0.14093(11) -0.06531(10) 0.32442(11)
H82 H -0.1183 -0.1019 0.3075
H83 H -0.2059 -0.0916 0.2863
H84 H -0.1279 -0.0548 0.3808
C78 C -0.15630(11) 0.03856(10) 0.27249(11)
H85 H -0.1441 0.0438 0.2293
H86 H -0.1452 0.0913 0.3087
H87 H -0.2193 -0.0007 0.2459
C79 C 0.28126(12) 0.21477(10) 0.52632(11)
C80 C 0.35898(15) 0.26197(13) 0.57253(15)
H88 H 0.4191(13) 0.3005(12) 0.6117(12)
N9 N 0.36863(12) -0.02136(11) -0.47731(13)
C81 C 0.37441(12) 0.01712(12) -0.40312(14)
C82 C 0.37282(11) 0.09281(12) -0.38071(14)
H89 H 0.3680 0.1180 -0.4183
C83 C 0.37849(12) 0.13090(12) -0.30660(14)
H90 H 0.3769 0.1824 -0.2934
C84 C 0.38612(11) 0.09680(13) -0.25012(14)
C85 C 0.38720(12) 0.02155(13) -0.27222(15)
H91 H 0.3922 -0.0037 -0.2347
C86 C 0.38163(12) -0.01728(13) -0.34615(15)
H92 H 0.3824 -0.0691 -0.3597
C87 C 0.36432(15) 0.01736(13) -0.53321(14)
H93 H 0.4207 0.0674 -0.5060
H94 H 0.3550 -0.0200 -0.5843
H95 H 0.3147 0.0305 -0.5481
C88 C 0.38215(15) -0.09340(13) -0.49473(15)
H96 H 0.3373 -0.1387 -0.4966
H97 H 0.4422 -0.0789 -0.4511
H98 H 0.3777 -0.1110 -0.5486
C89 C 0.39054(13) 0.13639(15) -0.17337(17)
C90 C 0.39326(17) 0.17012(18) -0.1116(2)
H99 H 0.3955(15) 0.1985(14) -0.0665(13)
N10 N 0.61583(12) 0.36939(11) 0.14031(12)
C91 C 0.61816(12) 0.40789(12) 0.21262(13)
C92 C 0.61707(12) 0.48390(12) 0.23315(14)
H100 H 0.6153 0.5095 0.1962
C93 C 0.61987(12) 0.52221(13) 0.30543(14)
H101 H 0.6191 0.5740 0.3180
C94 C 0.62353(12) 0.48863(12) 0.36170(14)
C95 C 0.62477(11) 0.41326(12) 0.34171(14)
H102 H 0.6275 0.3887 0.3797
C96 C 0.62208(12) 0.37410(12) 0.27004(14)
H103 H 0.6240 0.3227 0.2586
C97 C 0.60665(15) 0.40341(14) 0.08014(14)
H104 H 0.6579 0.4573 0.1063
H105 H 0.5516 0.4083 0.0607
H106 H 0.6041 0.3678 0.0323
C98 C 0.61154(14) 0.28901(13) 0.11688(14)
H107 H 0.6646 0.2911 0.1596
H108 H 0.6087 0.2703 0.0638
H109 H 0.5578 0.2499 0.1109
C99 C 0.62542(14) 0.52827(15) 0.43683(16)
C100 C 0.62701(18) 0.56159(19) 0.4982(2)
H110 H 0.6292(16) 0.5862(14) 0.5438(14)
N11 N 0.36783(12) -0.01603(11) 0.03287(12)
C101 C 0.37068(11) 0.02290(12) 0.10563(13)
C102 C 0.36769(11) 0.09796(12) 0.12569(13)
H111 H 0.3630 0.1223 0.0873
C103 C 0.37096(11) 0.13689(12) 0.19843(13)
H112 H 0.3689 0.1882 0.2103
C104 C 0.37714(11) 0.10381(12) 0.25556(13)
C105 C 0.37981(11) 0.02893(12) 0.23553(13)
H113 H 0.3832 0.0044 0.2736
C106 C 0.37667(12) -0.01060(12) 0.16320(14)
H114 H 0.3794 -0.0616 0.1519
C107 C 0.36668(14) 0.02233(13) -0.02328(13)
H115 H 0.3173 0.0358 -0.0389
H116 H 0.4231 0.0723 0.0042
H117 H 0.3582 -0.0154 -0.0737
C108 C 0.38478(14) -0.08615(13) 0.01934(14)
H118 H 0.3392 -0.1313 0.0170
H119 H 0.3833 -0.1044 -0.0331
H120 H 0.4439 -0.0710 0.0652
C109 C 0.37798(13) 0.14316(14) 0.33009(15)
C110 C 0.37660(17) 0.17642(17) 0.38974(19)
H121 H 0.3744(16) 0.2029(14) 0.4317(14)
N12 N 0.59175(12) 0.35212(10) 0.61846(12)
C111 C 0.60123(11) 0.39188(11) 0.69441(13)
C112 C 0.60365(11) 0.46929(11) 0.71875(13)
H122 H 0.6006 0.4951 0.6819
C113 C 0.61099(11) 0.50828(12) 0.79339(13)
H123 H 0.6126 0.5610 0.8080
C114 C 0.61597(11) 0.47325(12) 0.84882(13)
C115 C 0.61429(12) 0.39660(12) 0.82550(13)
H124 H 0.6194 0.3716 0.8632
C116 C 0.60698(12) 0.35686(12) 0.75067(13)
H125 H 0.6057 0.3042 0.7360
C117 C 0.58893(19) 0.39086(16) 0.56252(16)
H126 H 0.5412 0.4063 0.5496
H127 H 0.5776 0.3531 0.5105
H128 H 0.6463 0.4396 0.5892
C118 C 0.59396(14) 0.27503(12) 0.59620(13)
H129 H 0.5460 0.2338 0.5953
H130 H 0.6517 0.2821 0.6363
H131 H 0.5854 0.2563 0.5406
C119 C 0.62076(13) 0.51288(13) 0.92562(15)
C120 C 0.62317(16) 0.54631(16) 0.98748(18)
H132 H 0.6219(14) 0.5696(13) 1.0319(12)
loop_
_geom_bond_atom_site_label_1
_geom_bond_atom_site_label_2
_geom_bond_site_symmetry_1
_geom_bond_site_symmetry_2
N1 C1 1_555 1_555
C1 C2 1_555 1_555
C2 H1 1_555 1_555
C3 C2 1_555 1_555
H2 C3 1_555 1_555
C4 C3 1_555 1_555
C5 C4 1_555 1_555
H3 C5 1_555 1_555
C6 C1 1_555 1_555
H4 C6 1_555 1_555
C7 N1 1_555 1_555
H5 C7 1_555 1_555
H6 C7 1_555 1_555
H7 C7 1_555 1_555
C8 N1 1_555 1_555
H8 C8 1_555 1_555
H9 C8 1_555 1_555
H10 C8 1_555 1_555
C9 C4 1_555 1_555
C10 C9 1_555 1_555
H11 C10 1_555 1_555
N2 C11 1_555 1_555
C11 C12 1_555 1_555
C12 H12 1_555 1_555
C13 C12 1_555 1_555
H13 C13 1_555 1_555
C14 C13 1_555 1_555
C15 C14 1_555 1_555
H14 C15 1_555 1_555
C16 C11 1_555 1_555
H15 C16 1_555 1_555
C17 N2 1_555 1_555
H16 C17 1_555 1_555
H17 C17 1_555 1_555
H18 C17 1_555 1_555
C18 N2 1_555 1_555
H19 C18 1_555 1_555
H20 C18 1_555 1_555
H21 C18 1_555 1_555
C19 C14 1_555 1_555
C20 C19 1_555 1_555
H22 C20 1_555 1_555
N3 C21 1_555 1_555
C21 C22 1_555 1_555
C22 H23 1_555 1_555
C23 C22 1_555 1_555
H24 C23 1_555 1_555
C24 C23 1_555 1_555
C25 C24 1_555 1_555
H25 C25 1_555 1_555
C26 C21 1_555 1_555
H26 C26 1_555 1_555
C27 N3 1_555 1_555
H27 C27 1_555 1_555
H28 C27 1_555 1_555
H29 C27 1_555 1_555
C28 N3 1_555 1_555
H30 C28 1_555 1_555
H31 C28 1_555 1_555
H32 C28 1_555 1_555
C29 C24 1_555 1_555
C30 C29 1_555 1_555
H33 C30 1_555 1_555
N4 C31 1_555 1_555
C31 C32 1_555 1_555
C32 H34 1_555 1_555
C33 C32 1_555 1_555
H35 C33 1_555 1_555
C34 C33 1_555 1_555
C35 C34 1_555 1_555
H36 C35 1_555 1_555
C36 C31 1_555 1_555
H37 C36 1_555 1_555
C37 N4 1_555 1_555
H38 C37 1_555 1_555
H39 C37 1_555 1_555
H40 C37 1_555 1_555
C38 N4 1_555 1_555
H41 C38 1_555 1_555
H42 C38 1_555 1_555
H43 C38 1_555 1_555
C39 C34 1_555 1_555
C40 C39 1_555 1_555
H44 C40 1_555 1_555
N5 C41 1_555 1_555
C41 C42 1_555 1_555
C42 H45 1_555 1_555
C43 C42 1_555 1_555
H46 C43 1_555 1_555
C44 C43 1_555 1_555
C45 C44 1_555 1_555
H47 C45 1_555 1_555
C46 C41 1_555 1_555
H48 C46 1_555 1_555
C47 N5 1_555 1_555
H49 C47 1_555 1_555
H50 C47 1_555 1_555
H51 C47 1_555 1_555
C48 N5 1_555 1_555
H52 C48 1_555 1_555
H53 C48 1_555 1_555
H54 C48 1_555 1_555
C49 C44 1_555 1_555
C50 C49 1_555 1_555
H55 C50 1_555 1_555
N6 C51 1_555 1_555
C51 C52 1_555 1_555
C52 H56 1_555 1_555
C53 C52 1_555 1_555
H57 C53 1_555 1_555
C54 C53 1_555 1_555
C55 C54 1_555 1_555
H58 C55 1_555 1_555
C56 C51 1_555 1_555
H59 C56 1_555 1_555
C57 N6 1_555 1_555
H60 C57 1_555 1_555
H61 C57 1_555 1_555
H62 C57 1_555 1_555
C58 N6 1_555 1_555
H63 C58 1_555 1_555
H64 C58 1_555 1_555
H65 C58 1_555 1_555
C59 C54 1_555 1_555
C60 C59 1_555 1_555
H66 C60 1_555 1_555
N7 C61 1_555 1_555
C61 C62 1_555 1_555
C62 H67 1_555 1_555
C63 C62 1_555 1_555
H68 C63 1_555 1_555
C64 C63 1_555 1_555
C65 C64 1_555 1_555
H69 C65 1_555 1_555
C66 C61 1_555 1_555
H70 C66 1_555 1_555
C67 N7 1_555 1_555
H71 C67 1_555 1_555
H72 C67 1_555 1_555
H73 C67 1_555 1_555
C68 N7 1_555 1_555
H74 C68 1_555 1_555
H75 C68 1_555 1_555
H76 C68 1_555 1_555
C69 C64 1_555 1_555
C70 C69 1_555 1_555
H77 C70 1_555 1_555
N8 C71 1_555 1_555
C71 C72 1_555 1_555
C72 H78 1_555 1_555
C73 C72 1_555 1_555
H79 C73 1_555 1_555
C74 C73 1_555 1_555
C75 C74 1_555 1_555
H80 C75 1_555 1_555
C76 C71 1_555 1_555
H81 C76 1_555 1_555
C77 N8 1_555 1_555
H82 C77 1_555 1_555
H83 C77 1_555 1_555
H84 C77 1_555 1_555
C78 N8 1_555 1_555
H85 C78 1_555 1_555
H86 C78 1_555 1_555
H87 C78 1_555 1_555
C79 C74 1_555 1_555
C80 C79 1_555 1_555
H88 C80 1_555 1_555
N9 C81 1_555 1_555
C81 C82 1_555 1_555
C82 H89 1_555 1_555
C83 C82 1_555 1_555
H90 C83 1_555 1_555
C84 C83 1_555 1_555
C85 C84 1_555 1_555
H91 C85 1_555 1_555
C86 C81 1_555 1_555
H92 C86 1_555 1_555
C87 N9 1_555 1_555
H93 C87 1_555 1_555
H94 C87 1_555 1_555
H95 C87 1_555 1_555
C88 N9 1_555 1_555
H96 C88 1_555 1_555
H97 C88 1_555 1_555
H98 C88 1_555 1_555
C89 C84 1_555 1_555
C90 C89 1_555 1_555
H99 C90 1_555 1_555
N10 C91 1_555 1_555
C91 C92 1_555 1_555
C92 H100 1_555 1_555
C93 C92 1_555 1_555
H101 C93 1_555 1_555
C94 C93 1_555 1_555
C95 C94 1_555 1_555
H102 C95 1_555 1_555
C96 C91 1_555 1_555
H103 C96 1_555 1_555
C97 N10 1_555 1_555
H104 C97 1_555 1_555
H105 C97 1_555 1_555
H106 C97 1_555 1_555
C98 N10 1_555 1_555
H107 C98 1_555 1_555
H108 C98 1_555 1_555
H109 C98 1_555 1_555
C99 C94 1_555 1_555
C100 C99 1_555 1_555
H110 C100 1_555 1_555
N11 C101 1_555 1_555
C101 C102 1_555 1_555
C102 H111 1_555 1_555
C103 C102 1_555 1_555
H112 C103 1_555 1_555
C104 C103 1_555 1_555
C105 C104 1_555 1_555
H113 C105 1_555 1_555
C106 C101 1_555 1_555
H114 C106 1_555 1_555
C107 N11 1_555 1_555
H115 C107 1_555 1_555
H116 C107 1_555 1_555
H117 C107 1_555 1_555
C108 N11 1_555 1_555
H118 C108 1_555 1_555
H119 C108 1_555 1_555
H120 C108 1_555 1_555
C109 C104 1_555 1_555
C110 C109 1_555 1_555
H121 C110 1_555 1_555
N12 C111 1_555 1_555
C111 C112 1_555 1_555
C112 H122 1_555 1_555
C113 C112 1_555 1_555
H123 C113 1_555 1_555
C114 C113 1_555 1_555
C115 C114 1_555 1_555
H124 C115 1_555 1_555
C116 C111 1_555 1_555
H125 C116 1_555 1_555
C117 N12 1_555 1_555
H126 C117 1_555 1_555
H127 C117 1_555 1_555
H128 C117 1_555 1_555
C118 N12 1_555 1_555
H129 C118 1_555 1_555
H130 C118 1_555 1_555
H131 C118 1_555 1_555
C119 C114 1_555 1_555
C120 C119 1_555 1_555
H132 C120 1_555 1_555
C5 C6 1_555 1_555
C15 C16 1_555 1_555
C25 C26 1_555 1_555
C35 C36 1_555 1_555
C45 C46 1_555 1_555
C55 C56 1_555 1_555
C65 C66 1_555 1_555
C75 C76 1_555 1_555
C85 C86 1_555 1_555
C95 C96 1_555 1_555
C105 C106 1_555 1_555
C115 C116 1_555 1_555

#END
