
#######################################################################
#
#                 Cambridge Crystallographic Data Centre
#                                CCDC 
#
#######################################################################
#
# If this CIF has been generated from an entry in the Cambridge 
# Structural Database, then it will include bibliographic, chemical, 
# crystal, experimental, refinement or atomic coordinate data resulting 
# from the CCDC's data processing and validation procedures.
#
#######################################################################

data_GENQUM
_chemical_compound_source        'Seeds of Acacia farnesiana Willd.A.farnesiana'
_chemical_name_common            Farnesiaside
_chemical_formula_moiety         'C26 H38 O10'
_chemical_name_systematic        
(1S,3aR,5aR,6S,6aR,7S,9R,11aS,11bR,11cS)-7-(\b-D-glucopyranosyloxy)dodecahydro-1,6-dihydroxy-3a,11b-dimethyl-8-methylene-1H-6a,9-methanocyclohept(2,3)indeno(4,5-c)furan-3(3aH)-one
_symmetry_cell_setting           monoclinic
_symmetry_space_group_name_H-M   'P 21'
_symmetry_Int_Tables_number      4
_space_group_name_Hall           'P 2yb'
loop_
_symmetry_equiv_pos_site_id
_symmetry_equiv_pos_as_xyz
1 x,y,z
2 -x,1/2+y,-z
_cell_length_a                   11.691(2)
_cell_length_b                   9.336(3)
_cell_length_c                   12.370(2)
_cell_angle_alpha                90
_cell_angle_beta                 114.82(3)
_cell_angle_gamma                90
_cell_volume                     1225.44
_exptl_crystal_colour            'pale yellow'
_exptl_crystal_description       prism
_chemical_melting_point          110-112deg.C
_cell_formula_units_Z            2
_exptl_crystal_recrystallization_method methanol
loop_
_atom_site_label
_atom_site_type_symbol
_atom_site_fract_x
_atom_site_fract_y
_atom_site_fract_z
C1 C 0.84069(19) -0.3137(2) 0.04432(17)
C2 C 0.8089(2) -0.4429(3) 0.1017(2)
C3 C 0.9290(2) -0.5194(3) 0.1817(2)
C4 C 1.0024(2) -0.4252(2) 0.29099(18)
C5 C 0.99885(17) -0.2623(2) 0.26492(16)
C6 C 1.13382(18) -0.2133(3) 0.34700(18)
C7 C 0.72650(18) -0.2144(2) -0.02009(16)
C8 C 0.75578(16) -0.0788(2) 0.05580(15)
C9 C 0.90080(17) -0.0645(2) 0.10313(15)
C10 C 0.95464(17) -0.2194(2) 0.13098(15)
C11 C 0.95394(18) 0.0563(2) 0.19622(17)
C12 C 0.8875(2) 0.0747(2) 0.27903(17)
C13 C 0.74353(19) 0.0568(3) 0.21344(17)
C14 C 0.71415(18) -0.0930(2) 0.15894(17)
C15 C 0.69608(17) 0.0667(2) -0.00044(15)
C16 C 0.68443(18) 0.1478(2) 0.10209(17)
C17 C 0.6225(2) 0.2691(3) 0.0914(2)
C18 C 1.1411(2) -0.4599(3) 0.3412(2)
C19 C 0.9584(3) -0.4550(4) 0.3893(2)
C20 C 1.0647(2) -0.2346(3) 0.09394(18)
C21 C 0.56711(18) 0.1102(2) -0.20594(16)
C22 C 0.54675(18) 0.3324(2) -0.30547(17)
C23 C 0.42753(18) 0.2829(2) -0.41210(17)
C24 C 0.43031(18) 0.1204(2) -0.42344(17)
C25 C 0.45274(18) 0.0452(2) -0.30748(17)
C26 C 0.5528(2) 0.4942(2) -0.2830(2)
O1 O 1.21256(14) -0.3422(2) 0.36876(15)
O2 O 1.14018(15) -0.1622(2) 0.45396(13)
O3 O 1.1867(2) -0.5792(3) 0.3562(2)
O4 O 0.71632(16) -0.19158(19) -0.13861(12)
O5 O 0.57420(12) 0.04957(16) -0.10035(11)
O6 O 0.55316(14) 0.26130(16) -0.20032(12)
O7 O 0.67420(15) 0.54557(19) -0.26418(14)
O8 O 0.42630(14) 0.34697(18) -0.51700(13)
O9 O 0.31556(14) 0.0664(2) -0.51304(12)
O10 O 0.47394(17) -0.10494(17) -0.31335(13)
H1 H 0.8652 -0.3511 -0.0169
H2 H 0.7548 -0.5079 0.0403
H3 H 0.7640 -0.4119 0.1480
H4 H 0.9087 -0.6106 0.2071
H5 H 0.9801 -0.5378 0.1385
H6 H 0.9411 -0.2176 0.2938
H7 H 1.1623 -0.1399 0.3073
H8 H 0.6495 -0.2593 -0.0231
H9 H 0.9159 -0.0333 0.0346
H10 H 0.9483 0.1459 0.1546
H11 H 1.0425 0.0374 0.2445
H12 H 0.9203 0.0045 0.3426
H13 H 0.9063 0.1691 0.3149
H14 H 0.7027 0.0735 0.2672
H15 H 0.7625 -0.1658 0.2157
H16 H 0.6251 -0.1150 0.1294
H17 H 0.7533 0.1183 -0.0263
H18 H 0.6119 0.3063 0.1564
H19 H 0.5895 0.3174 0.0190
H20 H 0.8690 -0.4407 0.3586
H21 H 0.9783 -0.5521 0.4162
H22 H 1.0004 -0.3908 0.4548
H23 H 1.1250 -0.1598 0.1304
H24 H 1.1045 -0.3261 0.1195
H25 H 1.0331 -0.2275 0.0089
H26 H 0.6438 0.0883 -0.2165
H27 H 0.6204 0.3043 -0.3192
H28 H 0.3525 0.3119 -0.4012
H29 H 0.4992 0.0954 -0.4453
H30 H 0.3786 0.0586 -0.2908
H31 H 0.5368 0.5142 -0.2137
H32 H 0.4888 0.5423 -0.3511
H33 H 1.1993 -0.1062 0.4827
H34 H 0.6500 -0.1502 -0.1783
H35 H 0.6917 0.6158 -0.2204
H36 H 0.3538 0.3687 -0.5619
H37 H 0.3155 0.0780 -0.5788
H38 H 0.4914 -0.1210 -0.3698
loop_
_geom_bond_atom_site_label_1
_geom_bond_atom_site_label_2
_geom_bond_site_symmetry_1
_geom_bond_site_symmetry_2
C1 C2 1_555 1_555
C2 C3 1_555 1_555
C3 C4 1_555 1_555
C4 C5 1_555 1_555
C5 C6 1_555 1_555
C6 O1 1_555 1_555
C7 C1 1_555 1_555
C8 C7 1_555 1_555
C9 C8 1_555 1_555
C10 C1 1_555 1_555
C11 C9 1_555 1_555
C12 C11 1_555 1_555
C13 C12 1_555 1_555
C14 C8 1_555 1_555
C15 C8 1_555 1_555
C16 C13 1_555 1_555
C17 C16 1_555 1_555
C18 C4 1_555 1_555
C19 C4 1_555 1_555
C20 C10 1_555 1_555
C21 C25 1_555 1_555
C22 C23 1_555 1_555
C23 C24 1_555 1_555
C24 C25 1_555 1_555
C25 O10 1_555 1_555
C26 C22 1_555 1_555
O1 C18 1_555 1_555
O2 C6 1_555 1_555
O3 C18 1_555 1_555
O4 C7 1_555 1_555
O5 C15 1_555 1_555
O6 C21 1_555 1_555
O7 C26 1_555 1_555
O8 C23 1_555 1_555
O9 C24 1_555 1_555
O10 H38 1_555 1_555
H1 C1 1_555 1_555
H2 C2 1_555 1_555
H3 C2 1_555 1_555
H4 C3 1_555 1_555
H5 C3 1_555 1_555
H6 C5 1_555 1_555
H7 C6 1_555 1_555
H8 C7 1_555 1_555
H9 C9 1_555 1_555
H10 C11 1_555 1_555
H11 C11 1_555 1_555
H12 C12 1_555 1_555
H13 C12 1_555 1_555
H14 C13 1_555 1_555
H15 C14 1_555 1_555
H16 C14 1_555 1_555
H17 C15 1_555 1_555
H18 C17 1_555 1_555
H19 C17 1_555 1_555
H20 C19 1_555 1_555
H21 C19 1_555 1_555
H22 C19 1_555 1_555
H23 C20 1_555 1_555
H24 C20 1_555 1_555
H25 C20 1_555 1_555
H26 C21 1_555 1_555
H27 C22 1_555 1_555
H28 C23 1_555 1_555
H29 C24 1_555 1_555
H30 C25 1_555 1_555
H31 C26 1_555 1_555
H32 C26 1_555 1_555
H33 O2 1_555 1_555
H34 O4 1_555 1_555
H35 O7 1_555 1_555
H36 O8 1_555 1_555
H37 O9 1_555 1_555
C5 C10 1_555 1_555
C9 C10 1_555 1_555
C13 C14 1_555 1_555
C15 C16 1_555 1_555
C21 O5 1_555 1_555
C22 O6 1_555 1_555

#END
