
#######################################################################
#
#                 Cambridge Crystallographic Data Centre
#                                CCDC 
#
#######################################################################
#
# If this CIF has been generated from an entry in the Cambridge 
# Structural Database, then it will include bibliographic, chemical, 
# crystal, experimental, refinement or atomic coordinate data resulting 
# from the CCDC's data processing and validation procedures.
#
#######################################################################

data_GEPDIP
_chemical_formula_moiety         'C23 H20 Cl1 N1 O2'
_chemical_name_systematic        
4-Chloro-2-(((R)-(3'S,8'R)-3,3a,8,8a-tetrahydro-2H-indeno(1,2-d)(1,3)oxazol-3-yl)(phenyl)methyl)phenol
_symmetry_cell_setting           orthorhombic
_symmetry_space_group_name_H-M   'P 21 21 21'
_symmetry_Int_Tables_number      19
_space_group_name_Hall           'P 2ac 2ab'
loop_
_symmetry_equiv_pos_site_id
_symmetry_equiv_pos_as_xyz
1 x,y,z
2 1/2-x,-y,1/2+z
3 -x,1/2+y,1/2-z
4 1/2+x,1/2-y,-z
_cell_length_a                   9.5270(12)
_cell_length_b                   18.657(2)
_cell_length_c                   22.679(3)
_cell_angle_alpha                90
_cell_angle_beta                 90
_cell_angle_gamma                90
_cell_volume                     4031.08
_exptl_crystal_colour            colorless
_exptl_crystal_description       block
_chemical_melting_point          '531-532 K'
_cell_formula_units_Z            8
_exptl_crystal_recrystallization_method 'ethyl acetate/ethanol'
loop_
_atom_site_label
_atom_site_type_symbol
_atom_site_fract_x
_atom_site_fract_y
_atom_site_fract_z
C1 C 0.2878(5) 0.5496(4) 0.5468(2)
C2 C 0.2830(6) 0.6173(4) 0.5718(3)
H1 H 0.3439 0.6530 0.5590
C3 C 0.1871(8) 0.6313(5) 0.6159(3)
H2 H 0.1834 0.6769 0.6325
C4 C 0.1004(9) 0.5813(7) 0.6350(3)
H3 H 0.0379 0.5917 0.6653
C5 C 0.1017(8) 0.5104(6) 0.6091(4)
H4 H 0.0396 0.4752 0.6219
C6 C 0.1985(6) 0.4959(4) 0.5644(3)
C7 C 0.2205(8) 0.4307(4) 0.5327(4)
H5 H 0.1329 0.4135 0.5161
H6 H 0.2584 0.3941 0.5585
C8 C 0.3263(7) 0.4488(3) 0.4831(3)
H7 H 0.4020 0.4134 0.4813
C9 C 0.3823(5) 0.5222(3) 0.4984(2)
H8 H 0.4795 0.5189 0.5123
C10 C 0.2494(5) 0.5325(5) 0.4167(2)
H9 H 0.1639 0.5508 0.4344
H10 H 0.2474 0.5426 0.3748
C11 C 0.4993(4) 0.5640(2) 0.40472(19)
H11 H 0.5054 0.5158 0.3878
C12 C 0.4789(4) 0.6162(3) 0.35453(19)
C13 C 0.4171(5) 0.6828(3) 0.3632(2)
C14 C 0.4132(7) 0.7316(4) 0.3177(3)
H12 H 0.3720 0.7762 0.3236
C15 C 0.4697(7) 0.7149(5) 0.2636(3)
H13 H 0.4673 0.7479 0.2330
C16 C 0.5297(6) 0.6487(4) 0.2555(2)
C17 C 0.5334(5) 0.6017(3) 0.2998(2)
H14 H 0.5747 0.5572 0.2933
C18 C 0.6323(5) 0.5779(2) 0.43781(18)
C19 C 0.7367(5) 0.5253(3) 0.4389(2)
H15 H 0.7223 0.4816 0.4202
C20 C 0.8630(6) 0.5388(4) 0.4682(3)
H16 H 0.9316 0.5033 0.4684
C21 C 0.8889(6) 0.5997(4) 0.4955(3)
H17 H 0.9742 0.6073 0.5144
C22 C 0.7871(7) 0.6513(4) 0.4953(3)
H18 H 0.8029 0.6941 0.5152
C23 C 0.6590(6) 0.6411(3) 0.4657(3)
H19 H 0.5925 0.6776 0.4650
N1 N 0.3745(4) 0.5660(2) 0.44453(15)
O1 O 0.2617(6) 0.4581(3) 0.4267(2)
O2 O 0.3587(5) 0.7026(2) 0.41557(16)
H39 H 0.3666 0.6697 0.4393
Cl1 Cl 0.6075(2) 0.62902(16) 0.18796(7)
C24 C 0.6366(9) 0.3530(4) 0.3572(4)
H20 H 0.5406 0.3545 0.3500
C25 C 0.6923(11) 0.3259(3) 0.4091(4)
H21 H 0.6317 0.3051 0.4363
C26 C 0.8314(8) 0.3282(3) 0.4219(3)
C27 C 0.9207(7) 0.3509(3) 0.3795(3)
H22 H 1.0164 0.3487 0.3874
C28 C 0.8796(7) 0.3768(3) 0.3257(3)
C29 C 0.7416(7) 0.3796(3) 0.3142(3)
C30 C 0.9844(6) 0.3962(3) 0.2789(2)
H23 H 1.0739 0.4058 0.2987
C31 C 1.0082(5) 0.3357(2) 0.2361(2)
C32 C 1.1106(7) 0.2869(3) 0.2476(3)
H24 H 1.1651 0.2923 0.2813
C33 C 1.1359(8) 0.2296(3) 0.2106(4)
H25 H 1.2089 0.1980 0.2187
C34 C 1.0533(8) 0.2194(3) 0.1618(3)
H26 H 1.0689 0.1802 0.1373
C35 C 0.9479(7) 0.2667(3) 0.1491(3)
H27 H 0.8909 0.2600 0.1163
C36 C 0.9278(6) 0.3243(3) 0.1858(3)
H28 H 0.8575 0.3570 0.1767
C37 C 1.0481(5) 0.4883(2) 0.20437(19)
H29 H 1.0972 0.4477 0.1862
C38 C 0.9863(5) 0.5378(3) 0.15889(18)
C39 C 0.8808(6) 0.5247(3) 0.11902(19)
H30 H 0.8397 0.4795 0.1164
C40 C 0.8365(7) 0.5807(5) 0.0825(2)
H31 H 0.7658 0.5723 0.0551
C41 C 0.8951(11) 0.6477(5) 0.0863(3)
H32 H 0.8614 0.6850 0.0631
C42 C 1.0058(9) 0.6589(4) 0.1253(3)
H33 H 1.0509 0.7030 0.1264
C43 C 1.0477(6) 0.6051(3) 0.1617(2)
C44 C 1.1609(7) 0.6066(4) 0.2063(3)
H34 H 1.1489 0.6469 0.2328
H35 H 1.2520 0.6104 0.1874
C45 C 1.1480(5) 0.5362(3) 0.2394(2)
H36 H 1.2400 0.5134 0.2441
C46 C 0.9387(6) 0.5240(3) 0.2877(2)
H37 H 0.8829 0.5629 0.2717
H38 H 0.8983 0.5096 0.3252
N2 N 0.9409(4) 0.46430(18) 0.24736(15)
O3 O 1.0811(4) 0.5465(2) 0.29564(14)
O4 O 0.6813(4) 0.4089(3) 0.2647(2)
H40 H 0.7430 0.4245 0.2429
Cl2 Cl 0.8897(3) 0.29449(13) 0.48823(9)
loop_
_geom_bond_atom_site_label_1
_geom_bond_atom_site_label_2
_geom_bond_site_symmetry_1
_geom_bond_site_symmetry_2
C1 C2 1_555 1_555
C2 H1 1_555 1_555
C3 C2 1_555 1_555
H2 C3 1_555 1_555
C4 C3 1_555 1_555
H3 C4 1_555 1_555
C5 C4 1_555 1_555
H4 C5 1_555 1_555
C6 C1 1_555 1_555
C7 C6 1_555 1_555
H5 C7 1_555 1_555
H6 C7 1_555 1_555
C8 C7 1_555 1_555
H7 C8 1_555 1_555
C9 C1 1_555 1_555
H8 C9 1_555 1_555
C10 H9 1_555 1_555
H10 C10 1_555 1_555
C11 H11 1_555 1_555
C12 C11 1_555 1_555
C13 C12 1_555 1_555
C14 C13 1_555 1_555
H12 C14 1_555 1_555
C15 C14 1_555 1_555
H13 C15 1_555 1_555
C16 C15 1_555 1_555
C17 C12 1_555 1_555
H14 C17 1_555 1_555
C18 C11 1_555 1_555
C19 C18 1_555 1_555
H15 C19 1_555 1_555
C20 C19 1_555 1_555
H16 C20 1_555 1_555
C21 C20 1_555 1_555
H17 C21 1_555 1_555
C22 C21 1_555 1_555
H18 C22 1_555 1_555
C23 C18 1_555 1_555
H19 C23 1_555 1_555
C24 H20 1_555 1_555
C25 C24 1_555 1_555
H21 C25 1_555 1_555
C26 C25 1_555 1_555
C27 C26 1_555 1_555
H22 C27 1_555 1_555
C28 C27 1_555 1_555
C29 C24 1_555 1_555
C30 C28 1_555 1_555
H23 C30 1_555 1_555
C31 C30 1_555 1_555
C32 C31 1_555 1_555
H24 C32 1_555 1_555
C33 C32 1_555 1_555
H25 C33 1_555 1_555
C34 C33 1_555 1_555
H26 C34 1_555 1_555
C35 C34 1_555 1_555
H27 C35 1_555 1_555
C36 C31 1_555 1_555
H28 C36 1_555 1_555
C37 H29 1_555 1_555
C38 C37 1_555 1_555
C39 C38 1_555 1_555
H30 C39 1_555 1_555
C40 C39 1_555 1_555
H31 C40 1_555 1_555
C41 C40 1_555 1_555
H32 C41 1_555 1_555
C42 C41 1_555 1_555
H33 C42 1_555 1_555
C43 C38 1_555 1_555
C44 C43 1_555 1_555
H34 C44 1_555 1_555
H35 C44 1_555 1_555
C45 C37 1_555 1_555
H36 C45 1_555 1_555
C46 H37 1_555 1_555
H38 C46 1_555 1_555
N1 C9 1_555 1_555
N2 C30 1_555 1_555
O1 C8 1_555 1_555
O2 C13 1_555 1_555
H39 O2 1_555 1_555
O3 C45 1_555 1_555
O4 C29 1_555 1_555
H40 O4 1_555 1_555
Cl1 C16 1_555 1_555
Cl2 C26 1_555 1_555
C5 C6 1_555 1_555
C8 C9 1_555 1_555
C10 N1 1_555 1_555
C10 O1 1_555 1_555
C11 N1 1_555 1_555
C16 C17 1_555 1_555
C22 C23 1_555 1_555
C28 C29 1_555 1_555
C35 C36 1_555 1_555
C37 N2 1_555 1_555
C42 C43 1_555 1_555
C44 C45 1_555 1_555
C46 N2 1_555 1_555
C46 O3 1_555 1_555

#END
