
#######################################################################
#
#                 Cambridge Crystallographic Data Centre
#                                CCDC 
#
#######################################################################
#
# If this CIF has been generated from an entry in the Cambridge 
# Structural Database, then it will include bibliographic, chemical, 
# crystal, experimental, refinement or atomic coordinate data resulting 
# from the CCDC's data processing and validation procedures.
#
#######################################################################

data_GEPKES
_chemical_formula_moiety         'C21 H26 O4'
_chemical_name_systematic        
16\a,17\a-Epoxypregna-11\a-hydroxy-1,4-diene-3,20-dione
_symmetry_cell_setting           orthorhombic
_symmetry_space_group_name_H-M   'P 21 21 21'
_symmetry_Int_Tables_number      19
_space_group_name_Hall           'P 2ac 2ab'
loop_
_symmetry_equiv_pos_site_id
_symmetry_equiv_pos_as_xyz
1 x,y,z
2 1/2-x,-y,1/2+z
3 -x,1/2+y,1/2-z
4 1/2+x,1/2-y,-z
_cell_length_a                   6.1342(12)
_cell_length_b                   15.433(3)
_cell_length_c                   19.029(4)
_cell_angle_alpha                90
_cell_angle_beta                 90
_cell_angle_gamma                90
_cell_volume                     1801.46
_exptl_crystal_colour            colorless
_exptl_crystal_description       block
_chemical_melting_point          '310.7 K'
_cell_formula_units_Z            4
loop_
_atom_site_label
_atom_site_type_symbol
_atom_site_fract_x
_atom_site_fract_y
_atom_site_fract_z
O1 O 1.3252(4) 0.51336(16) 0.20860(13)
O2 O 1.4403(4) 0.89418(14) 0.21697(13)
H1 H 1.4895 0.9373 0.2365
O3 O 1.2344(5) 1.00202(16) -0.04915(11)
O4 O 1.2838(6) 1.17885(17) 0.06333(15)
C1 C 1.2738(5) 0.7356(2) 0.25108(16)
H2 H 1.3461 0.7767 0.2782
C2 C 1.3518(5) 0.6555(2) 0.25110(18)
H3 H 1.4750 0.6429 0.2777
C3 C 1.2494(6) 0.5873(2) 0.21064(16)
C4 C 1.0535(5) 0.6100(2) 0.17392(16)
H4 H 0.9805 0.5667 0.1494
C5 C 0.9704(5) 0.6900(2) 0.17309(16)
C6 C 0.7737(5) 0.7105(2) 0.12934(16)
H5 H 0.6601 0.7352 0.1586
H6 H 0.7177 0.6580 0.1078
C7 C 0.8406(5) 0.7751(2) 0.07269(17)
H7 H 0.9439 0.7478 0.0410
H8 H 0.7133 0.7916 0.0456
C8 C 0.9431(5) 0.85536(19) 0.10436(15)
H9 H 0.8330 0.8857 0.1324
C9 C 1.1406(5) 0.83322(18) 0.15236(15)
H10 H 1.2493 0.8052 0.1223
C10 C 1.0762(5) 0.76490(19) 0.21037(16)
C11 C 1.2465(5) 0.91652(18) 0.18027(16)
H11 H 1.1455 0.9446 0.2130
C12 C 1.3052(5) 0.98048(19) 0.12242(16)
H12 H 1.3611 1.0332 0.1436
H13 H 1.4198 0.9559 0.0935
C13 C 1.1120(5) 1.00269(19) 0.07634(16)
C14 C 1.0246(5) 0.9160(2) 0.04728(15)
H14 H 1.1507 0.8869 0.0262
C15 C 0.8790(6) 0.9431(2) -0.01453(17)
H15 H 0.8634 0.8966 -0.0484
H16 H 0.7358 0.9611 0.0014
C16 C 1.0043(7) 1.0176(3) -0.04458(18)
H17 H 0.9340 1.0569 -0.0781
C17 C 1.1532(6) 1.0528(2) 0.00928(16)
C18 C 1.2401(7) 1.1429(2) 0.0089(2)
C19 C 1.2669(10) 1.1879(3) -0.0603(2)
H18 H 1.3244 1.2450 -0.0527
H19 H 1.1279 1.1921 -0.0833
H20 H 1.3656 1.1555 -0.0894
C20 C 0.9377(5) 1.0534(2) 0.11698(16)
H21 H 0.9994 1.1065 0.1343
H22 H 0.8868 1.0192 0.1558
H23 H 0.8178 1.0664 0.0863
C21 C 0.9162(5) 0.8031(2) 0.26503(16)
H24 H 0.8820 0.7599 0.2996
H25 H 0.7848 0.8211 0.2418
H26 H 0.9823 0.8521 0.2876
loop_
_geom_bond_atom_site_label_1
_geom_bond_atom_site_label_2
_geom_bond_site_symmetry_1
_geom_bond_site_symmetry_2
O1 C3 1_555 1_555
O2 H1 1_555 1_555
O3 C16 1_555 1_555
O4 C18 1_555 1_555
C1 H2 1_555 1_555
C2 C1 1_555 1_555
H3 C2 1_555 1_555
C3 C2 1_555 1_555
C4 C3 1_555 1_555
H4 C4 1_555 1_555
C5 C4 1_555 1_555
C6 C5 1_555 1_555
H5 C6 1_555 1_555
H6 C6 1_555 1_555
C7 C6 1_555 1_555
H7 C7 1_555 1_555
H8 C7 1_555 1_555
C8 C7 1_555 1_555
H9 C8 1_555 1_555
C9 C8 1_555 1_555
H10 C9 1_555 1_555
C10 C1 1_555 1_555
C11 O2 1_555 1_555
H11 C11 1_555 1_555
C12 C11 1_555 1_555
H12 C12 1_555 1_555
H13 C12 1_555 1_555
C13 C12 1_555 1_555
C14 C8 1_555 1_555
H14 C14 1_555 1_555
C15 C14 1_555 1_555
H15 C15 1_555 1_555
H16 C15 1_555 1_555
C16 C15 1_555 1_555
H17 C16 1_555 1_555
C17 O3 1_555 1_555
C18 C17 1_555 1_555
C19 C18 1_555 1_555
H18 C19 1_555 1_555
H19 C19 1_555 1_555
H20 C19 1_555 1_555
C20 C13 1_555 1_555
H21 C20 1_555 1_555
H22 C20 1_555 1_555
H23 C20 1_555 1_555
C21 C10 1_555 1_555
H24 C21 1_555 1_555
H25 C21 1_555 1_555
H26 C21 1_555 1_555
C5 C10 1_555 1_555
C9 C10 1_555 1_555
C9 C11 1_555 1_555
C13 C14 1_555 1_555
C13 C17 1_555 1_555
C16 C17 1_555 1_555

#END
