
#######################################################################
#
#                 Cambridge Crystallographic Data Centre
#                                CCDC 
#
#######################################################################
#
# If this CIF has been generated from an entry in the Cambridge 
# Structural Database, then it will include bibliographic, chemical, 
# crystal, experimental, refinement or atomic coordinate data resulting 
# from the CCDC's data processing and validation procedures.
#
#######################################################################

data_GEPQUO
_chemical_formula_moiety         'C19 H17 N3 O3,C1 H4 O1'
_chemical_name_systematic        
'trans-4-((1,5-Dimethyl-3-oxo-2-phenyl-2,3-dihydro-1H-pyrazol-4-yl)iminomethyl)benzoic acid methanol solvate'
_symmetry_cell_setting           triclinic
_symmetry_space_group_name_H-M   'P -1'
_symmetry_Int_Tables_number      2
_space_group_name_Hall           '-P 1'
loop_
_symmetry_equiv_pos_site_id
_symmetry_equiv_pos_as_xyz
1 x,y,z
2 -x,-y,-z
_cell_length_a                   9.4270(7)
_cell_length_b                   10.2516(8)
_cell_length_c                   10.3014(8)
_cell_angle_alpha                74.4500(10)
_cell_angle_beta                 85.6730(10)
_cell_angle_gamma                75.6650(10)
_cell_volume                     929.2
_exptl_crystal_colour            yellow
_exptl_crystal_description       Block
_cell_formula_units_Z            2
loop_
_atom_site_label
_atom_site_type_symbol
_atom_site_fract_x
_atom_site_fract_y
_atom_site_fract_z
O1 O 0.35079(16) 0.70738(15) 0.57502(16)
O2 O 0.58626(19) 1.38188(18) -0.13930(19)
H1 H 0.6204 1.4130 -0.2135
O3 O 0.7622(2) 1.20133(18) -0.1431(2)
N1 N 0.16205(17) 0.77815(16) 0.71427(16)
N2 N 0.06437(17) 0.90351(16) 0.71706(15)
N3 N 0.29010(17) 1.02808(17) 0.44551(16)
C1 C 0.1194(2) 0.6504(2) 0.76516(19)
C2 C 0.2234(2) 0.5341(2) 0.8248(2)
H2 H 0.3184 0.5401 0.8356
C3 C 0.1848(3) 0.4084(2) 0.8685(2)
H3 H 0.2551 0.3284 0.9070
C4 C 0.0452(3) 0.3997(3) 0.8559(2)
H4 H 0.0199 0.3144 0.8860
C5 C -0.0575(3) 0.5170(3) 0.7988(3)
H5 H -0.1535 0.5115 0.7919
C6 C -0.0213(2) 0.6424(3) 0.7517(2)
H6 H -0.0914 0.7215 0.7109
C7 C 0.2604(2) 0.8026(2) 0.6089(2)
C8 C 0.22671(19) 0.9496(2) 0.55489(18)
C9 C 0.1104(2) 1.0061(2) 0.62592(18)
C10 C 0.0413(3) 1.1543(2) 0.6156(2)
H7 H -0.0632 1.1674 0.6207
H8 H 0.0682 1.2102 0.5311
H9 H 0.0740 1.1815 0.6882
C11 C -0.0097(3) 0.9152(2) 0.8436(2)
H10 H 0.0614 0.9019 0.9107
H11 H -0.0653 0.8454 0.8721
H12 H -0.0744 1.0060 0.8315
C12 C 0.3968(2) 0.9674(2) 0.3840(2)
H13 H 0.4319 0.8714 0.4143
C13 C 0.4664(2) 1.0443(2) 0.26651(18)
C14 C 0.4270(2) 1.1868(2) 0.2223(2)
H14 H 0.3570 1.2371 0.2703
C15 C 0.4889(2) 1.2563(2) 0.1090(2)
H15 H 0.4606 1.3530 0.0806
C16 C 0.5932(2) 1.1835(2) 0.0365(2)
C17 C 0.6358(2) 1.0411(2) 0.0823(2)
H16 H 0.7082 0.9911 0.0360
C18 C 0.5727(2) 0.9720(2) 0.1956(2)
H17 H 0.6020 0.8754 0.2249
C19 C 0.6566(2) 1.2541(2) -0.0908(2)
C20 C 0.7092(17) 0.5482(6) 0.5150(11)
H18 H 0.7486 0.6294 0.4951
H19 H 0.6493 0.5533 0.4416
H20 H 0.7880 0.4663 0.5272
O4 O 0.6226(3) 0.5419(3) 0.6354(3)
H21 H 0.5415 0.5945 0.6178
C21? C 0.695(4) 0.5868(14) 0.518(3)
H22? H 0.6472 0.6532 0.5675
H23? H 0.6467 0.6086 0.4334
H24? H 0.7954 0.5904 0.5026
O5? O 0.6863(6) 0.4500(6) 0.5942(6)
H25? H 0.7677 0.3971 0.5977
loop_
_geom_bond_atom_site_label_1
_geom_bond_atom_site_label_2
_geom_bond_site_symmetry_1
_geom_bond_site_symmetry_2
O1 C7 1_555 1_555
O2 H1 1_555 1_555
O3 C19 1_555 1_555
N1 N2 1_555 1_555
N2 C9 1_555 1_555
N3 C8 1_555 1_555
C1 N1 1_555 1_555
C2 C1 1_555 1_555
H2 C2 1_555 1_555
C3 C2 1_555 1_555
H3 C3 1_555 1_555
C4 C3 1_555 1_555
H4 C4 1_555 1_555
C5 C4 1_555 1_555
H5 C5 1_555 1_555
C6 C1 1_555 1_555
H6 C6 1_555 1_555
C7 N1 1_555 1_555
C8 C7 1_555 1_555
C9 C8 1_555 1_555
C10 C9 1_555 1_555
H7 C10 1_555 1_555
H8 C10 1_555 1_555
H9 C10 1_555 1_555
C11 N2 1_555 1_555
H10 C11 1_555 1_555
H11 C11 1_555 1_555
H12 C11 1_555 1_555
C12 N3 1_555 1_555
H13 C12 1_555 1_555
C13 C12 1_555 1_555
C14 C13 1_555 1_555
H14 C14 1_555 1_555
C15 C14 1_555 1_555
H15 C15 1_555 1_555
C16 C15 1_555 1_555
C17 C16 1_555 1_555
H16 C17 1_555 1_555
C18 C13 1_555 1_555
H17 C18 1_555 1_555
C19 O2 1_555 1_555
C20 H18 1_555 1_555
H19 C20 1_555 1_555
H20 C20 1_555 1_555
O4 C20 1_555 1_555
H21 O4 1_555 1_555
C5 C6 1_555 1_555
C16 C19 1_555 1_555
C17 C18 1_555 1_555

#END
