
#######################################################################
#
#                 Cambridge Crystallographic Data Centre
#                                CCDC 
#
#######################################################################
#
# If this CIF has been generated from an entry in the Cambridge 
# Structural Database, then it will include bibliographic, chemical, 
# crystal, experimental, refinement or atomic coordinate data resulting 
# from the CCDC's data processing and validation procedures.
#
#######################################################################

data_GERQAV01
_chemical_formula_moiety         'C10 H8 S8 1+,C10 H8 S8,Br1 1-,3(H2 O1)'
_chemical_name_systematic        
'bis(bis(Ethylenedithio)tetrathiafulvalene) bromide trihydrate'
_symmetry_cell_setting           orthorhombic
_symmetry_space_group_name_H-M   'P c c a'
_symmetry_Int_Tables_number      54
_space_group_name_Hall           '-P 2a 2ac'
loop_
_symmetry_equiv_pos_site_id
_symmetry_equiv_pos_as_xyz
1 x,y,z
2 1/2-x,-y,z
3 1/2+x,-y,1/2-z
4 -x,y,1/2-z
5 -x,-y,-z
6 1/2+x,y,-z
7 1/2-x,y,1/2+z
8 x,-y,1/2+z
_cell_length_a                   32.784(6)
_cell_length_b                   6.729(2)
_cell_length_c                   14.991(4)
_cell_angle_alpha                90
_cell_angle_beta                 90
_cell_angle_gamma                90
_cell_volume                     3307.07
_exptl_crystal_colour            black
_exptl_crystal_description       plate
_cell_formula_units_Z            4
loop_
_atom_site_label
_atom_site_type_symbol
_atom_site_fract_x
_atom_site_fract_y
_atom_site_fract_z
O1 O 0.2683(3) 0.1801(14) 0.2183(6)
O2 O 0.2500 0.5000 -0.1507(9)
Br1 Br 0.2500 0.5000 0.0537(2)
S1 S 0.4283(1) 1.3155(4) -0.0621(2)
S2 S 0.4474(1) 0.8982(4) -0.0960(2)
S3 S 0.5185(1) 1.4402(4) -0.1289(2)
S4 S 0.5393(1) 1.0198(4) -0.1512(2)
S5 S 0.3431(1) 1.2496(5) -0.0105(3)
S6 S 0.3658(1) 0.7512(5) -0.0492(2)
S7 S 0.6236(1) 1.0929(4) -0.2114(2)
C1 C 0.4636(3) 1.1409(15) -0.0956(7)
C2 C 0.5028(3) 1.1924(14) -0.1220(6)
C3 C 0.3889(3) 1.1414(15) -0.0436(7)
C4 C 0.3988(3) 0.9559(16) -0.0590(7)
C5 C 0.5665(3) 1.3887(16) -0.1692(7)
C6 C 0.5766(3) 1.1906(16) -0.1771(7)
C7 C 0.3106(4) 1.0412(20) -0.0079(13)
C8 C 0.3182(4) 0.8794(21) -0.0630(12)
C9 C 0.6433(4) 1.4899(22) -0.2238(14)
C10 C 0.6562(5) 1.3058(22) -0.2080(20)
S8 S 0.6011 1.5281 -0.1821
S9? S 0.6083(4) 1.522(22) -0.1353(14)
loop_
_geom_bond_atom_site_label_1
_geom_bond_atom_site_label_2
_geom_bond_site_symmetry_1
_geom_bond_site_symmetry_2
S1 C1 1_555 1_555
S2 C1 1_555 1_555
S3 C2 1_555 1_555
S4 C2 1_555 1_555
S5 C3 1_555 1_555
S6 C4 1_555 1_555
S7 C6 1_555 1_555
C1 C2 1_555 1_555
C3 S1 1_555 1_555
C4 S2 1_555 1_555
C5 S3 1_555 1_555
C6 S4 1_555 1_555
C7 S5 1_555 1_555
C8 S6 1_555 1_555
C9 C10 1_555 1_555
C10 S7 1_555 1_555
S8 C5 1_555 1_555
C3 C4 1_555 1_555
C5 C6 1_555 1_555
C7 C8 1_555 1_555
C9 S8 1_555 1_555

#END
