
#######################################################################
#
#                 Cambridge Crystallographic Data Centre
#                                CCDC 
#
#######################################################################
#
# If this CIF has been generated from an entry in the Cambridge 
# Structural Database, then it will include bibliographic, chemical, 
# crystal, experimental, refinement or atomic coordinate data resulting 
# from the CCDC's data processing and validation procedures.
#
#######################################################################

data_GERQEC
_chemical_formula_moiety         'C21 H15 N1 O1'
_chemical_name_systematic        2,4,5-triphenyl-1,3-oxazole
_symmetry_cell_setting           orthorhombic
_symmetry_space_group_name_H-M   'P b c a'
_symmetry_Int_Tables_number      61
_space_group_name_Hall           '-P 2ac 2ab'
loop_
_symmetry_equiv_pos_site_id
_symmetry_equiv_pos_as_xyz
1 x,y,z
2 1/2-x,-y,1/2+z
3 -x,1/2+y,1/2-z
4 1/2+x,1/2-y,-z
5 -x,-y,-z
6 1/2+x,y,1/2-z
7 x,1/2-y,1/2+z
8 1/2-x,1/2+y,z
_cell_length_a                   7.6381(8)
_cell_length_b                   19.931(2)
_cell_length_c                   20.560(2)
_cell_angle_alpha                90
_cell_angle_beta                 90
_cell_angle_gamma                90
_cell_volume                     3129.95
_exptl_crystal_colour            colorless
_exptl_crystal_description       prismatic
_cell_formula_units_Z            8
loop_
_atom_site_label
_atom_site_type_symbol
_atom_site_fract_x
_atom_site_fract_y
_atom_site_fract_z
N1 N 0.3066(3) 0.22872(9) 0.75433(11)
O1 O 0.2322(2) 0.14431(9) 0.69106(9)
C1 C 0.2525(3) 0.16707(13) 0.75218(14)
C2 C 0.3209(3) 0.24948(12) 0.69041(13)
C3 C 0.2786(3) 0.19718(12) 0.65088(13)
C4 C 0.2825(3) 0.18416(12) 0.58108(13)
C5 C 0.1890(4) 0.13137(14) 0.55475(15)
H1 H 0.1216 0.1043 0.5818
C6 C 0.1945(5) 0.11835(17) 0.48897(17)
H2 H 0.1309 0.0826 0.4720
C7 C 0.2928(5) 0.15766(18) 0.44851(17)
H3 H 0.2954 0.1491 0.4041
C8 C 0.3872(4) 0.20964(16) 0.47399(15)
H4 H 0.4554 0.2361 0.4467
C9 C 0.3825(4) 0.22318(14) 0.53940(14)
H5 H 0.4470 0.2589 0.5559
C10 C 0.3674(4) 0.31987(12) 0.67695(13)
C11 C 0.2842(4) 0.35704(14) 0.62933(13)
H6 H 0.1985 0.3371 0.6036
C12 C 0.3277(4) 0.42379(14) 0.61972(14)
H7 H 0.2702 0.4485 0.5879
C13 C 0.4539(5) 0.45336(14) 0.65655(16)
H8 H 0.4842 0.4979 0.6494
C14 C 0.5356(5) 0.41733(14) 0.70390(15)
H9 H 0.6220 0.4375 0.7291
C15 C 0.4913(4) 0.35121(14) 0.71482(14)
H10 H 0.5458 0.3276 0.7481
C16 C 0.2129(4) 0.12470(12) 0.80752(13)
C17 C 0.2448(5) 0.14759(16) 0.86937(15)
H11 H 0.2930 0.1900 0.8753
C18 C 0.2065(5) 0.1086(2) 0.92253(17)
H12 H 0.2299 0.1244 0.9642
C19 C 0.1344(5) 0.0468(2) 0.9140(2)
H13 H 0.1075 0.0203 0.9499
C20 C 0.1015(5) 0.02382(17) 0.8529(2)
H14 H 0.0529 -0.0186 0.8472
C21 C 0.1395(4) 0.06265(14) 0.79976(15)
H15 H 0.1152 0.0467 0.7582
loop_
_geom_bond_atom_site_label_1
_geom_bond_atom_site_label_2
_geom_bond_site_symmetry_1
_geom_bond_site_symmetry_2
N1 C1 1_555 1_555
O1 C1 1_555 1_555
C1 C16 1_555 1_555
C2 N1 1_555 1_555
C3 O1 1_555 1_555
C4 C3 1_555 1_555
C5 C4 1_555 1_555
H1 C5 1_555 1_555
C6 C5 1_555 1_555
H2 C6 1_555 1_555
C7 C6 1_555 1_555
H3 C7 1_555 1_555
C8 C7 1_555 1_555
H4 C8 1_555 1_555
C9 C4 1_555 1_555
H5 C9 1_555 1_555
C10 C2 1_555 1_555
C11 C10 1_555 1_555
H6 C11 1_555 1_555
C12 C11 1_555 1_555
H7 C12 1_555 1_555
C13 C12 1_555 1_555
H8 C13 1_555 1_555
C14 C13 1_555 1_555
H9 C14 1_555 1_555
C15 C10 1_555 1_555
H10 C15 1_555 1_555
C16 C17 1_555 1_555
C17 H11 1_555 1_555
C18 C17 1_555 1_555
H12 C18 1_555 1_555
C19 C18 1_555 1_555
H13 C19 1_555 1_555
C20 C19 1_555 1_555
H14 C20 1_555 1_555
C21 C16 1_555 1_555
H15 C21 1_555 1_555
C2 C3 1_555 1_555
C8 C9 1_555 1_555
C14 C15 1_555 1_555
C20 C21 1_555 1_555

#END
