
#######################################################################
#
#                 Cambridge Crystallographic Data Centre
#                                CCDC 
#
#######################################################################
#
# If this CIF has been generated from an entry in the Cambridge 
# Structural Database, then it will include bibliographic, chemical, 
# crystal, experimental, refinement or atomic coordinate data resulting 
# from the CCDC's data processing and validation procedures.
#
#######################################################################

data_GERZAH
_chemical_formula_moiety         'C19 H15 Br1 O2'
_chemical_name_systematic        
3-(2-bromoethyl)-7-methyl-4-phenylnaphthalene-1,2-dione
_symmetry_cell_setting           orthorhombic
_symmetry_space_group_name_H-M   'P c c n'
_symmetry_Int_Tables_number      56
_space_group_name_Hall           '-P 2ab 2ac'
loop_
_symmetry_equiv_pos_site_id
_symmetry_equiv_pos_as_xyz
1 x,y,z
2 1/2-x,1/2-y,z
3 -x,1/2+y,1/2-z
4 1/2+x,-y,1/2-z
5 -x,-y,-z
6 1/2+x,1/2+y,-z
7 x,1/2-y,1/2+z
8 1/2-x,y,1/2+z
_cell_length_a                   20.087(5)
_cell_length_b                   8.0724(18)
_cell_length_c                   19.633(5)
_cell_angle_alpha                90
_cell_angle_beta                 90
_cell_angle_gamma                90
_cell_volume                     3183.5
_exptl_crystal_colour            red
_exptl_crystal_description       columnar
_cell_formula_units_Z            8
loop_
_atom_site_label
_atom_site_type_symbol
_atom_site_fract_x
_atom_site_fract_y
_atom_site_fract_z
Br1 Br 0.28155(2) -0.01556(5) 0.66796(3)
C1 C 0.67602(14) 0.4805(3) 0.56873(16)
C2 C 0.63469(14) 0.3912(3) 0.52605(14)
H1 H 0.6520 0.3501 0.4843
C3 C 0.56882(12) 0.3597(3) 0.54236(13)
C4 C 0.52738(14) 0.2634(3) 0.49573(13)
C5 C 0.45662(14) 0.2184(3) 0.51842(13)
C6 C 0.43189(12) 0.2848(3) 0.58318(12)
C7 C 0.47196(12) 0.3809(3) 0.62272(12)
C8 C 0.54129(12) 0.4204(3) 0.60331(12)
C9 C 0.58220(14) 0.5148(3) 0.64460(15)
H2 H 0.5648 0.5609 0.6854
C10 C 0.64789(15) 0.5432(4) 0.62765(16)
H3 H 0.6746 0.6079 0.6574
C11 C 0.74802(18) 0.5078(4) 0.5512(2)
H4 H 0.7744 0.4131 0.5671
H5 H 0.7639 0.6091 0.5734
H6 H 0.7528 0.5188 0.5018
C12 C 0.36305(12) 0.2284(3) 0.60394(14)
H7 H 0.3416 0.3147 0.6323
H8 H 0.3353 0.2110 0.5629
C13 C 0.36783(14) 0.0705(4) 0.64338(18)
H9 H 0.3941 0.0902 0.6853
H10 H 0.3917 -0.0130 0.6157
C14 C 0.44672(12) 0.4446(3) 0.68939(12)
C15 C 0.39797(13) 0.5669(3) 0.69221(13)
H11 H 0.3815 0.6139 0.6512
C16 C 0.37337(14) 0.6205(3) 0.75403(15)
H12 H 0.3395 0.7027 0.7555
C17 C 0.39814(15) 0.5542(4) 0.81395(15)
H13 H 0.3813 0.5908 0.8566
C18 C 0.44714(15) 0.4355(4) 0.81177(14)
H14 H 0.4644 0.3904 0.8528
C19 C 0.47119(13) 0.3821(3) 0.74982(13)
H15 H 0.5053 0.3006 0.7487
O1 O 0.54605(10) 0.2195(3) 0.43988(10)
O2 O 0.42345(11) 0.1285(3) 0.48236(10)
loop_
_geom_bond_atom_site_label_1
_geom_bond_atom_site_label_2
_geom_bond_site_symmetry_1
_geom_bond_site_symmetry_2
Br1 C13 1_555 1_555
C1 C2 1_555 1_555
C2 H1 1_555 1_555
C3 C2 1_555 1_555
C4 C3 1_555 1_555
C5 C4 1_555 1_555
C6 C5 1_555 1_555
C7 C6 1_555 1_555
C8 C3 1_555 1_555
C9 C8 1_555 1_555
H2 C9 1_555 1_555
C10 C1 1_555 1_555
H3 C10 1_555 1_555
C11 C1 1_555 1_555
H4 C11 1_555 1_555
H5 C11 1_555 1_555
H6 C11 1_555 1_555
C12 C6 1_555 1_555
H7 C12 1_555 1_555
H8 C12 1_555 1_555
C13 C12 1_555 1_555
H9 C13 1_555 1_555
H10 C13 1_555 1_555
C14 C7 1_555 1_555
C15 C14 1_555 1_555
H11 C15 1_555 1_555
C16 C15 1_555 1_555
H12 C16 1_555 1_555
C17 C16 1_555 1_555
H13 C17 1_555 1_555
C18 C17 1_555 1_555
H14 C18 1_555 1_555
C19 C14 1_555 1_555
H15 C19 1_555 1_555
O1 C4 1_555 1_555
O2 C5 1_555 1_555
C7 C8 1_555 1_555
C9 C10 1_555 1_555
C18 C19 1_555 1_555

#END
