
#######################################################################
#
#                 Cambridge Crystallographic Data Centre
#                                CCDC 
#
#######################################################################
#
# If this CIF has been generated from an entry in the Cambridge 
# Structural Database, then it will include bibliographic, chemical, 
# crystal, experimental, refinement or atomic coordinate data resulting 
# from the CCDC's data processing and validation procedures.
#
#######################################################################

data_GERZUB
_chemical_formula_moiety         'C88 H78 N4 O8'
_chemical_name_systematic        
"2,7,13,18-tetrakis(2,6-di-isopropylphenyl)benzo[lmn]dibenzo[1,12:4,5]dipyrido[3',4',5':10,11;3'',4'',5'':6,7]tetraceno[2,3-f][3,8]phenanthroline-1,3,6,8,12,14,17,19(2H,7H,13H,18H)-octone unknown solvate"
_symmetry_cell_setting           tetragonal
_symmetry_space_group_name_H-M   'P -4 b 2'
_symmetry_Int_Tables_number      117
_space_group_name_Hall           'P -4 -2ab'
loop_
_symmetry_equiv_pos_site_id
_symmetry_equiv_pos_as_xyz
1 x,y,z
2 -x,-y,z
3 y,-x,-z
4 -y,x,-z
5 1/2+x,1/2-y,z
6 1/2-x,1/2+y,z
7 1/2+y,1/2+x,-z
8 1/2-y,1/2-x,-z
_cell_length_a                   21.4198(8)
_cell_length_b                   21.4198(8)
_cell_length_c                   8.7425(4)
_cell_angle_alpha                90
_cell_angle_beta                 90
_cell_angle_gamma                90
_cell_volume                     4011.13
_exptl_crystal_colour            red
_exptl_crystal_description       plate
_cell_formula_units_Z            2
loop_
_atom_site_label
_atom_site_type_symbol
_atom_site_fract_x
_atom_site_fract_y
_atom_site_fract_z
O1 O 0.35966(17) 0.33475(15) 0.2204(5)
O2 O 0.49650(17) 0.17541(17) 0.2760(4)
N1 N 0.43184(17) 0.25724(17) 0.2378(4)
C1 C 0.3754(2) 0.2826(2) 0.1858(5)
C2 C 0.3356(2) 0.2404(2) 0.0900(5)
C3 C 0.2781(2) 0.2601(2) 0.0434(5)
H1 H 0.2643 0.2997 0.0705
C4 C 0.3580(2) 0.1815(2) 0.0474(5)
C5 C 0.4183(2) 0.1618(2) 0.0845(5)
C6 C 0.4531(2) 0.1972(2) 0.2016(6)
C7 C 0.4406(2) 0.1035(2) 0.0292(5)
C8 C 0.5072(2) 0.0867(2) 0.0193(5)
C9 C 0.52433(18) 0.02433(18) 0.0000
C10 C 0.5529(2) 0.1321(2) 0.0088(7)
H2 H 0.5415 0.1740 0.0076
C11 C 0.6158(2) 0.1158(2) 0.0000
H3 H 0.6465 0.1465 0.0000
C12 C 0.4651(2) 0.2915(2) 0.3555(6)
C13 C 0.4506(2) 0.2797(2) 0.5072(6)
C14 C 0.4835(3) 0.3118(3) 0.6172(7)
H4 H 0.4745 0.3045 0.7197
C15 C 0.5289(3) 0.3540(3) 0.5814(8)
H5 H 0.5508 0.3747 0.6580
C16 C 0.5419(3) 0.3656(3) 0.4286(8)
H6 H 0.5721 0.3951 0.4041
C17 C 0.5114(2) 0.3346(2) 0.3110(7)
C18 C 0.5293(3) 0.3439(3) 0.1465(8)
H7 H 0.4937 0.3322 0.0822
C19 C 0.5465(4) 0.4115(4) 0.1122(11)
H8 H 0.5142 0.4386 0.1496
H9 H 0.5509 0.4170 0.0037
H10 H 0.5852 0.4216 0.1616
C20 C 0.5838(3) 0.3023(4) 0.1063(9)
H11 H 0.6213 0.3189 0.1508
H12 H 0.5883 0.3005 -0.0029
H13 H 0.5765 0.2611 0.1454
C21 C 0.4023(3) 0.2308(3) 0.5537(7)
H14 H 0.3851 0.2128 0.4597
C22 C 0.4313(4) 0.1780(4) 0.6456(9)
H15 H 0.4602 0.1554 0.5822
H16 H 0.3991 0.1503 0.6803
H17 H 0.4531 0.1949 0.7322
C23 C 0.3492(3) 0.2623(4) 0.6382(9)
H18 H 0.3629 0.2739 0.7388
H19 H 0.3147 0.2339 0.6463
H20 H 0.3364 0.2989 0.5833
O1A O 0.64034(17) -0.33475(15) 0.2204(5)
O2A O 0.50350(17) -0.17541(17) 0.2760(4)
N1A N 0.56816(17) -0.25724(17) 0.2378(4)
C1A C 0.6246(2) -0.2826(2) 0.1858(5)
C2A C 0.6644(2) -0.2404(2) 0.0900(5)
C3A C 0.7219(2) -0.2601(2) 0.0434(5)
H1A H 0.7357 -0.2997 0.0705
C4A C 0.6420(2) -0.1815(2) 0.0474(5)
C5A C 0.5817(2) -0.1618(2) 0.0845(5)
C6A C 0.5469(2) -0.1972(2) 0.2016(6)
C7A C 0.5594(2) -0.1035(2) 0.0292(5)
C8A C 0.4928(2) -0.0867(2) 0.0193(5)
C9A C 0.47567(18) -0.02433(18) 0.0000
C10A C 0.4471(2) -0.1321(2) 0.0088(7)
H2A H 0.4585 -0.1740 0.0076
C11A C 0.3842(2) -0.1158(2) 0.0000
H3A H 0.3535 -0.1465 0.0000
C12A C 0.5349(2) -0.2915(2) 0.3555(6)
C13A C 0.5494(2) -0.2797(2) 0.5072(6)
C14A C 0.5165(3) -0.3118(3) 0.6172(7)
H4A H 0.5255 -0.3045 0.7197
C15A C 0.4711(3) -0.3540(3) 0.5814(8)
H5A H 0.4492 -0.3747 0.6580
C16A C 0.4581(3) -0.3656(3) 0.4286(8)
H6A H 0.4279 -0.3951 0.4041
C17A C 0.4886(2) -0.3346(2) 0.3110(7)
C18A C 0.4707(3) -0.3439(3) 0.1465(8)
H7A H 0.5063 -0.3322 0.0822
C19A C 0.4535(4) -0.4115(4) 0.1122(11)
H8A H 0.4858 -0.4386 0.1496
H9A H 0.4491 -0.4170 0.0037
H10A H 0.4148 -0.4216 0.1616
C20A C 0.4162(3) -0.3023(4) 0.1063(9)
H11A H 0.3787 -0.3189 0.1508
H12A H 0.4117 -0.3005 -0.0029
H13A H 0.4235 -0.2611 0.1454
C21A C 0.5977(3) -0.2308(3) 0.5537(7)
H14A H 0.6149 -0.2128 0.4597
C22A C 0.5687(4) -0.1780(4) 0.6456(9)
H15A H 0.5398 -0.1554 0.5822
H16A H 0.6009 -0.1503 0.6803
H17A H 0.5469 -0.1949 0.7322
C23A C 0.6508(3) -0.2623(4) 0.6382(9)
H18A H 0.6371 -0.2739 0.7388
H19A H 0.6853 -0.2339 0.6463
H20A H 0.6636 -0.2989 0.5833
O1F O 0.83475(15) -0.14034(17) -0.2204(5)
O2F O 0.67541(17) -0.00350(17) -0.2760(4)
N1F N 0.75724(17) -0.06816(17) -0.2378(4)
C1F C 0.7826(2) -0.1246(2) -0.1858(5)
C2F C 0.7404(2) -0.1644(2) -0.0900(5)
C3F C 0.7601(2) -0.2219(2) -0.0434(5)
H1F H 0.7997 -0.2357 -0.0705
C4F C 0.6815(2) -0.1420(2) -0.0474(5)
C5F C 0.6618(2) -0.0817(2) -0.0845(5)
C6F C 0.6972(2) -0.0469(2) -0.2016(6)
C7F C 0.6035(2) -0.0594(2) -0.0292(5)
C8F C 0.5867(2) 0.0072(2) -0.0193(5)
C10F C 0.6321(2) 0.0529(2) -0.0088(7)
H2F H 0.6740 0.0415 -0.0076
C12F C 0.7915(2) -0.0349(2) -0.3555(6)
C13F C 0.7797(2) -0.0494(2) -0.5072(6)
C14F C 0.8118(3) -0.0165(3) -0.6172(7)
H4F H 0.8045 -0.0255 -0.7197
C15F C 0.8540(3) 0.0289(3) -0.5814(8)
H5F H 0.8747 0.0508 -0.6580
C16F C 0.8656(3) 0.0419(3) -0.4286(8)
H6F H 0.8951 0.0721 -0.4041
C17F C 0.8346(2) 0.0114(2) -0.3110(7)
C18F C 0.8439(3) 0.0293(3) -0.1465(8)
H7F H 0.8322 -0.0063 -0.0822
C19F C 0.9115(4) 0.0465(4) -0.1122(11)
H8F H 0.9386 0.0142 -0.1496
H9F H 0.9170 0.0509 -0.0037
H10F H 0.9216 0.0852 -0.1616
C20F C 0.8023(4) 0.0838(3) -0.1063(9)
H11F H 0.8189 0.1213 -0.1508
H12F H 0.8005 0.0883 0.0029
H13F H 0.7611 0.0765 -0.1454
C21F C 0.7308(3) -0.0977(3) -0.5537(7)
H14F H 0.7128 -0.1149 -0.4597
C22F C 0.6780(4) -0.0687(4) -0.6456(9)
H15F H 0.6554 -0.0398 -0.5822
H16F H 0.6503 -0.1009 -0.6803
H17F H 0.6949 -0.0469 -0.7322
C23F C 0.7623(4) -0.1508(3) -0.6382(9)
H18F H 0.7739 -0.1371 -0.7388
H19F H 0.7339 -0.1853 -0.6463
H20F H 0.7989 -0.1636 -0.5833
O1G O 0.16525(15) 0.14034(17) -0.2204(5)
O2G O 0.32459(17) 0.00350(17) -0.2760(4)
N1G N 0.24276(17) 0.06816(17) -0.2378(4)
C1G C 0.2174(2) 0.1246(2) -0.1858(5)
C2G C 0.2596(2) 0.1644(2) -0.0900(5)
C3G C 0.2399(2) 0.2219(2) -0.0434(5)
H1G H 0.2003 0.2357 -0.0705
C4G C 0.3185(2) 0.1420(2) -0.0474(5)
C5G C 0.3382(2) 0.0817(2) -0.0845(5)
C6G C 0.3028(2) 0.0469(2) -0.2016(6)
C7G C 0.3965(2) 0.0594(2) -0.0292(5)
C8G C 0.4133(2) -0.0072(2) -0.0193(5)
C10G C 0.3679(2) -0.0529(2) -0.0088(7)
H2G H 0.3260 -0.0415 -0.0076
C12G C 0.2085(2) 0.0349(2) -0.3555(6)
C13G C 0.2203(2) 0.0494(2) -0.5072(6)
C14G C 0.1882(3) 0.0165(3) -0.6172(7)
H4G H 0.1955 0.0255 -0.7197
C15G C 0.1460(3) -0.0289(3) -0.5814(8)
H5G H 0.1253 -0.0508 -0.6580
C16G C 0.1344(3) -0.0419(3) -0.4286(8)
H6G H 0.1049 -0.0721 -0.4041
C17G C 0.1654(2) -0.0114(2) -0.3110(7)
C18G C 0.1561(3) -0.0293(3) -0.1465(8)
H7G H 0.1678 0.0063 -0.0822
C19G C 0.0885(4) -0.0465(4) -0.1122(11)
H8G H 0.0614 -0.0142 -0.1496
H9G H 0.0830 -0.0509 -0.0037
H10G H 0.0784 -0.0852 -0.1616
C20G C 0.1977(4) -0.0838(3) -0.1063(9)
H11G H 0.1811 -0.1213 -0.1508
H12G H 0.1995 -0.0883 0.0029
H13G H 0.2389 -0.0765 -0.1454
C21G C 0.2692(3) 0.0977(3) -0.5537(7)
H14G H 0.2872 0.1149 -0.4597
C22G C 0.3220(4) 0.0687(4) -0.6456(9)
H15G H 0.3446 0.0398 -0.5822
H16G H 0.3497 0.1009 -0.6803
H17G H 0.3051 0.0469 -0.7322
C23G C 0.2377(4) 0.1508(3) -0.6382(9)
H18G H 0.2261 0.1371 -0.7388
H19G H 0.2661 0.1853 -0.6463
H20G H 0.2011 0.1636 -0.5833
loop_
_geom_bond_atom_site_label_1
_geom_bond_atom_site_label_2
_geom_bond_site_symmetry_1
_geom_bond_site_symmetry_2
O1 C1 1_555 1_555
O2 C6 1_555 1_555
N1 C1 1_555 1_555
C1 C2 1_555 1_555
C2 C3 1_555 1_555
C3 H1 1_555 1_555
C4 C2 1_555 1_555
C5 C4 1_555 1_555
C6 N1 1_555 1_555
C7 C5 1_555 1_555
C8 C7 1_555 1_555
C9 C8 1_555 1_555
C10 C8 1_555 1_555
H2 C10 1_555 1_555
C11 C10 1_555 1_555
H3 C11 1_555 1_555
C12 N1 1_555 1_555
C13 C12 1_555 1_555
C14 C13 1_555 1_555
H4 C14 1_555 1_555
C15 C14 1_555 1_555
H5 C15 1_555 1_555
C16 C15 1_555 1_555
H6 C16 1_555 1_555
C17 C12 1_555 1_555
C18 C17 1_555 1_555
H7 C18 1_555 1_555
C19 C18 1_555 1_555
H8 C19 1_555 1_555
H9 C19 1_555 1_555
H10 C19 1_555 1_555
C20 C18 1_555 1_555
H11 C20 1_555 1_555
H12 C20 1_555 1_555
H13 C20 1_555 1_555
C21 C13 1_555 1_555
H14 C21 1_555 1_555
C22 C21 1_555 1_555
H15 C22 1_555 1_555
H16 C22 1_555 1_555
H17 C22 1_555 1_555
C23 C21 1_555 1_555
H18 C23 1_555 1_555
H19 C23 1_555 1_555
H20 C23 1_555 1_555
O1A C1A 1_555 1_555
O2A C6A 1_555 1_555
N1A C1A 1_555 1_555
C1A C2A 1_555 1_555
C2A C3A 1_555 1_555
C3A H1A 1_555 1_555
C4A C2A 1_555 1_555
C5A C4A 1_555 1_555
C6A N1A 1_555 1_555
C7A C5A 1_555 1_555
C8A C7A 1_555 1_555
C9A C9 1_555 1_555
C10A C8A 1_555 1_555
H2A C10A 1_555 1_555
C11A C10A 1_555 1_555
H3A C11A 1_555 1_555
C12A N1A 1_555 1_555
C13A C12A 1_555 1_555
C14A C13A 1_555 1_555
H4A C14A 1_555 1_555
C15A C14A 1_555 1_555
H5A C15A 1_555 1_555
C16A C15A 1_555 1_555
H6A C16A 1_555 1_555
C17A C12A 1_555 1_555
C18A C17A 1_555 1_555
H7A C18A 1_555 1_555
C19A C18A 1_555 1_555
H8A C19A 1_555 1_555
H9A C19A 1_555 1_555
H10A C19A 1_555 1_555
C20A C18A 1_555 1_555
H11A C20A 1_555 1_555
H12A C20A 1_555 1_555
H13A C20A 1_555 1_555
C21A C13A 1_555 1_555
H14A C21A 1_555 1_555
C22A C21A 1_555 1_555
H15A C22A 1_555 1_555
H16A C22A 1_555 1_555
H17A C22A 1_555 1_555
C23A C21A 1_555 1_555
H18A C23A 1_555 1_555
H19A C23A 1_555 1_555
H20A C23A 1_555 1_555
O1F C1F 1_555 1_555
O2F C6F 1_555 1_555
N1F C1F 1_555 1_555
C1F C2F 1_555 1_555
C2F C3F 1_555 1_555
C3F C3A 1_555 1_555
H1F C3F 1_555 1_555
C4F C4A 1_555 1_555
C5F C4F 1_555 1_555
C6F N1F 1_555 1_555
C7F C7A 1_555 1_555
C8F C9 1_555 1_555
C10F C11 1_555 1_555
H2F C10F 1_555 1_555
C12F N1F 1_555 1_555
C13F C12F 1_555 1_555
C14F C13F 1_555 1_555
H4F C14F 1_555 1_555
C15F C14F 1_555 1_555
H5F C15F 1_555 1_555
C16F C15F 1_555 1_555
H6F C16F 1_555 1_555
C17F C12F 1_555 1_555
C18F C17F 1_555 1_555
H7F C18F 1_555 1_555
C19F C18F 1_555 1_555
H8F C19F 1_555 1_555
H9F C19F 1_555 1_555
H10F C19F 1_555 1_555
C20F C18F 1_555 1_555
H11F C20F 1_555 1_555
H12F C20F 1_555 1_555
H13F C20F 1_555 1_555
C21F C13F 1_555 1_555
H14F C21F 1_555 1_555
C22F C21F 1_555 1_555
H15F C22F 1_555 1_555
H16F C22F 1_555 1_555
H17F C22F 1_555 1_555
C23F C21F 1_555 1_555
H18F C23F 1_555 1_555
H19F C23F 1_555 1_555
H20F C23F 1_555 1_555
O1G C1G 1_555 1_555
O2G C6G 1_555 1_555
N1G C1G 1_555 1_555
C1G C2G 1_555 1_555
C2G C3G 1_555 1_555
C3G C3 1_555 1_555
H1G C3G 1_555 1_555
C4G C4 1_555 1_555
C5G C4G 1_555 1_555
C6G N1G 1_555 1_555
C7G C7 1_555 1_555
C8G C9A 1_555 1_555
C10G C11A 1_555 1_555
H2G C10G 1_555 1_555
C12G N1G 1_555 1_555
C13G C12G 1_555 1_555
C14G C13G 1_555 1_555
H4G C14G 1_555 1_555
C15G C14G 1_555 1_555
H5G C15G 1_555 1_555
C16G C15G 1_555 1_555
H6G C16G 1_555 1_555
C17G C12G 1_555 1_555
C18G C17G 1_555 1_555
H7G C18G 1_555 1_555
C19G C18G 1_555 1_555
H8G C19G 1_555 1_555
H9G C19G 1_555 1_555
H10G C19G 1_555 1_555
C20G C18G 1_555 1_555
H11G C20G 1_555 1_555
H12G C20G 1_555 1_555
H13G C20G 1_555 1_555
C21G C13G 1_555 1_555
H14G C21G 1_555 1_555
C22G C21G 1_555 1_555
H15G C22G 1_555 1_555
H16G C22G 1_555 1_555
H17G C22G 1_555 1_555
C23G C21G 1_555 1_555
H18G C23G 1_555 1_555
H19G C23G 1_555 1_555
H20G C23G 1_555 1_555
C5 C6 1_555 1_555
C16 C17 1_555 1_555
C5A C6A 1_555 1_555
C8A C9A 1_555 1_555
C16A C17A 1_555 1_555
C2F C4F 1_555 1_555
C5F C6F 1_555 1_555
C5F C7F 1_555 1_555
C7F C8F 1_555 1_555
C8F C10F 1_555 1_555
C16F C17F 1_555 1_555
C2G C4G 1_555 1_555
C5G C6G 1_555 1_555
C5G C7G 1_555 1_555
C7G C8G 1_555 1_555
C8G C10G 1_555 1_555
C16G C17G 1_555 1_555

#END
