
#######################################################################
#
#                 Cambridge Crystallographic Data Centre
#                                CCDC 
#
#######################################################################
#
# If this CIF has been generated from an entry in the Cambridge 
# Structural Database, then it will include bibliographic, chemical, 
# crystal, experimental, refinement or atomic coordinate data resulting 
# from the CCDC's data processing and validation procedures.
#
#######################################################################

data_GESBOY
_chemical_name_common            '2-(biphenyl-4-yl)-2-oxoethyl picolinate'
_chemical_formula_moiety         'C20 H15 N1 O3'
_chemical_name_systematic        
'2-(biphenyl-4-yl)-2-oxoethyl pyridine-2-carboxylate'
_symmetry_cell_setting           triclinic
_symmetry_space_group_name_H-M   'P -1'
_symmetry_Int_Tables_number      2
_space_group_name_Hall           '-P 1'
loop_
_symmetry_equiv_pos_site_id
_symmetry_equiv_pos_as_xyz
1 x,y,z
2 -x,-y,-z
_cell_length_a                   9.0750(9)
_cell_length_b                   9.5322(9)
_cell_length_c                   17.8761(17)
_cell_angle_alpha                95.820(2)
_cell_angle_beta                 91.027(4)
_cell_angle_gamma                103.8530(10)
_cell_volume                     1492.22
_exptl_crystal_colour            orange
_exptl_crystal_description       plate
_chemical_melting_point          '389-391 K'
_cell_formula_units_Z            4
loop_
_atom_site_label
_atom_site_type_symbol
_atom_site_fract_x
_atom_site_fract_y
_atom_site_fract_z
N1 N 0.62727(16) -0.12943(16) 1.00860(8)
O1 O 0.70944(15) 0.13778(13) 0.88120(6)
O2 O 0.87202(14) 0.03326(15) 0.77732(7)
O3 O 0.55956(14) -0.08781(14) 0.86127(6)
C1 C 0.6841(4) 0.2539(3) 0.40616(17)
H1 H 0.6541 0.3210 0.4402
C2 C 0.6768(4) 0.2657(4) 0.32954(18)
H2 H 0.6444 0.3426 0.3122
C3 C 0.7795(5) 0.0589(4) 0.30602(18)
H3 H 0.8184 -0.0046 0.2737
C4 C 0.7863(4) 0.0458(4) 0.38239(18)
H4 H 0.8249 -0.0278 0.3994
C5 C 0.8144(3) 0.0276(3) 0.54500(17)
H5 H 0.8535 -0.0351 0.5122
C6 C 0.8259(3) 0.0166(4) 0.62122(17)
H6 H 0.8729 -0.0510 0.6389
C7 C 0.7023(4) 0.2108(3) 0.64536(17)
H7 H 0.6654 0.2731 0.6794
C8 C 0.6924(4) 0.2222(3) 0.56921(17)
H8 H 0.6487 0.2931 0.5527
C9 C 0.72015(19) 0.15742(19) 0.27577(9)
H9 H 0.7073 0.1571 0.2240
C10 C 0.73771(16) 0.13858(16) 0.43205(8)
C11 C 0.74758(16) 0.12756(16) 0.51435(8)
C12 C 0.76680(17) 0.10695(16) 0.67080(8)
C13 C 0.78150(18) 0.09317(17) 0.75264(9)
C14 C 0.6786(2) 0.1575(2) 0.80488(9)
H10 H 0.6946 0.2605 0.8000
H11 H 0.5733 0.1109 0.7906
C15 C 0.64738(18) 0.00464(18) 0.90148(9)
C16 C 0.70487(18) -0.01216(17) 0.97821(8)
C17 C 0.8336(2) 0.08326(19) 1.01221(9)
H12 H 0.8823 0.1647 0.9897
C18 C 0.6811(2) -0.1526(2) 1.07507(9)
H13 H 0.6278 -0.2319 1.0978
C19 C 0.8111(2) -0.0660(2) 1.11206(9)
H14 H 0.8459 -0.0887 1.1575
C20 C 0.8884(2) 0.0550(2) 1.08024(10)
H15 H 0.9755 0.1162 1.1041
N2 N 0.87956(17) 0.62030(16) 1.00866(8)
O4 O 0.78474(16) 0.66598(13) 0.87373(6)
O5 O 0.87038(15) 0.49768(16) 0.76309(7)
O6 O 0.59260(14) 0.46553(14) 0.86603(6)
C29 C 0.6978(4) 0.7533(3) 0.39930(17)
H24 H 0.6858 0.8290 0.4340
C30 C 0.6787(4) 0.7638(3) 0.32358(18)
H25 H 0.6536 0.8459 0.3082
C31 C 0.7296(4) 0.5300(4) 0.29577(18)
H26 H 0.7379 0.4526 0.2613
C32 C 0.7503(4) 0.5204(3) 0.37173(17)
H27 H 0.7752 0.4390 0.3880
C33 C 0.8182(3) 0.5145(3) 0.53286(16)
H28 H 0.8502 0.4500 0.4980
C34 C 0.8351(3) 0.5026(3) 0.60879(16)
H29 H 0.8784 0.4313 0.6251
C35 C 0.7197(4) 0.7022(4) 0.63762(17)
H30 H 0.6849 0.7645 0.6726
C36 C 0.7031(4) 0.7145(4) 0.56147(17)
H31 H 0.6577 0.7857 0.5469
C37 C 0.69650(19) 0.65237(18) 0.26915(9)
H32 H 0.6867 0.6598 0.2179
C38 C 0.73323(16) 0.63653(16) 0.42446(8)
C39 C 0.75141(16) 0.62546(16) 0.50643(8)
C40 C 0.78498(17) 0.60174(16) 0.66148(8)
C41 C 0.80479(17) 0.58427(17) 0.74245(8)
C42 C 0.7442(2) 0.68306(19) 0.79840(9)
H33 H 0.7845 0.7832 0.7890
H34 H 0.6345 0.6614 0.7919
C43 C 0.69900(19) 0.54791(18) 0.90073(9)
C44 C 0.75180(18) 0.52862(18) 0.97790(8)
C45 C 0.66715(19) 0.41399(19) 1.01246(9)
H35 H 0.5786 0.3542 0.9891
C46 C 0.9247(2) 0.5935(2) 1.07641(9)
H36 H 1.0125 0.6552 1.0994
C47 C 0.8492(2) 0.4803(2) 1.11418(9)
H37 H 0.8872 0.4650 1.1605
C48 C 0.7173(2) 0.3906(2) 1.08233(10)
H38 H 0.6624 0.3154 1.1074
C21? C 0.5961(3) 0.1229(3) 0.39201(16)
H16? H 0.5071 0.1057 0.4182
C22? C 0.8548(4) 0.1572(4) 0.30927(17)
H17? H 0.9401 0.1607 0.2808
C23? C 0.5872(3) 0.1326(3) 0.31505(17)
H18? H 0.4937 0.1226 0.2902
C24? C 0.8647(3) 0.1516(4) 0.38649(17)
H19? H 0.9592 0.1566 0.4092
C25? C 0.8840(3) 0.1257(4) 0.54979(17)
H20? H 0.9704 0.1315 0.5220
C26? C 0.8923(4) 0.1152(4) 0.62653(17)
H21? H 0.9850 0.1137 0.6491
C27? C 0.6265(3) 0.1035(4) 0.63297(17)
H22? H 0.5390 0.0952 0.6602
C28? C 0.6180(3) 0.1125(3) 0.55594(17)
H23? H 0.5249 0.1084 0.5321
C49? C 0.8595(3) 0.6686(3) 0.37811(17)
H39? H 0.9570 0.6876 0.4000
C50? C 0.8420(4) 0.6726(4) 0.30103(17)
H40? H 0.9262 0.6886 0.2713
C51? C 0.5737(4) 0.6289(3) 0.31174(17)
H41? H 0.4775 0.6178 0.2895
C52? C 0.5894(3) 0.6211(3) 0.38844(16)
H42? H 0.5032 0.6053 0.4168
C53? C 0.8891(3) 0.6206(4) 0.53820(17)
H43? H 0.9727 0.6271 0.5083
C54? C 0.9052(4) 0.6063(4) 0.61395(18)
H44? H 0.9986 0.5996 0.6335
C55? C 0.6464(4) 0.6170(4) 0.62939(17)
H45? H 0.5651 0.6196 0.6600
C56? C 0.6301(4) 0.6281(4) 0.55309(17)
H46? H 0.5381 0.6374 0.5329
loop_
_geom_bond_atom_site_label_1
_geom_bond_atom_site_label_2
_geom_bond_site_symmetry_1
_geom_bond_site_symmetry_2
N1 C16 1_555 1_555
O1 C14 1_555 1_555
O2 C13 1_555 1_555
O3 C15 1_555 1_555
C1 H1 1_555 1_555
C2 C1 1_555 1_555
H2 C2 1_555 1_555
C3 H3 1_555 1_555
C4 C3 1_555 1_555
H4 C4 1_555 1_555
C5 H5 1_555 1_555
C6 C5 1_555 1_555
H6 C6 1_555 1_555
C7 H7 1_555 1_555
C8 C7 1_555 1_555
H8 C8 1_555 1_555
C9 C2 1_555 1_555
H9 C9 1_555 1_555
C10 C1 1_555 1_555
C11 C5 1_555 1_555
C12 C6 1_555 1_555
C13 C12 1_555 1_555
C14 C13 1_555 1_555
H10 C14 1_555 1_555
H11 C14 1_555 1_555
C15 O1 1_555 1_555
C16 C15 1_555 1_555
C17 C16 1_555 1_555
H12 C17 1_555 1_555
C18 N1 1_555 1_555
H13 C18 1_555 1_555
C19 C18 1_555 1_555
H14 C19 1_555 1_555
C20 C17 1_555 1_555
H15 C20 1_555 1_555
N2 C44 1_555 1_555
O4 C42 1_555 1_555
O5 C41 1_555 1_555
O6 C43 1_555 1_555
C29 H24 1_555 1_555
C30 C29 1_555 1_555
H25 C30 1_555 1_555
C31 H26 1_555 1_555
C32 C31 1_555 1_555
H27 C32 1_555 1_555
C33 H28 1_555 1_555
C34 C33 1_555 1_555
H29 C34 1_555 1_555
C35 H30 1_555 1_555
C36 C35 1_555 1_555
H31 C36 1_555 1_555
C37 C30 1_555 1_555
H32 C37 1_555 1_555
C38 C29 1_555 1_555
C39 C33 1_555 1_555
C40 C34 1_555 1_555
C41 C40 1_555 1_555
C42 C41 1_555 1_555
H33 C42 1_555 1_555
H34 C42 1_555 1_555
C43 O4 1_555 1_555
C44 C43 1_555 1_555
C45 C44 1_555 1_555
H35 C45 1_555 1_555
C46 N2 1_555 1_555
H36 C46 1_555 1_555
C47 C46 1_555 1_555
H37 C47 1_555 1_555
C48 C45 1_555 1_555
H38 C48 1_555 1_555
C3 C9 1_555 1_555
C4 C10 1_555 1_555
C7 C12 1_555 1_555
C8 C11 1_555 1_555
C10 C11 1_555 1_555
C19 C20 1_555 1_555
C31 C37 1_555 1_555
C32 C38 1_555 1_555
C35 C40 1_555 1_555
C36 C39 1_555 1_555
C38 C39 1_555 1_555
C47 C48 1_555 1_555

#END
