
#######################################################################
#
#                 Cambridge Crystallographic Data Centre
#                                CCDC 
#
#######################################################################
#
# If this CIF has been generated from an entry in the Cambridge 
# Structural Database, then it will include bibliographic, chemical, 
# crystal, experimental, refinement or atomic coordinate data resulting 
# from the CCDC's data processing and validation procedures.
#
#######################################################################

data_GESCAL
_chemical_formula_moiety         'C17 H20 N2'
_chemical_name_systematic        
2-(tricyclo[3.3.1.1^3,7^]decan-1-yl)imidazo[1,2-a]pyridine
_symmetry_cell_setting           monoclinic
_symmetry_space_group_name_H-M   'P 21/c'
_symmetry_Int_Tables_number      14
_space_group_name_Hall           '-P 2ybc'
loop_
_symmetry_equiv_pos_site_id
_symmetry_equiv_pos_as_xyz
1 x,y,z
2 -x,1/2+y,1/2-z
3 -x,-y,-z
4 x,1/2-y,1/2+z
_cell_length_a                   12.712(2)
_cell_length_b                   10.7467(18)
_cell_length_c                   11.2151(19)
_cell_angle_alpha                90
_cell_angle_beta                 116.211(3)
_cell_angle_gamma                90
_cell_volume                     1374.58
_exptl_crystal_colour            colorless
_exptl_crystal_description       plate
_cell_formula_units_Z            4
loop_
_atom_site_label
_atom_site_type_symbol
_atom_site_fract_x
_atom_site_fract_y
_atom_site_fract_z
N1 N 0.47483(16) 0.17408(17) 0.42798(18)
N2 N 0.55636(17) 0.26941(18) 0.62506(18)
C1 C 0.56773(18) 0.2418(2) 0.4321(2)
H1 H 0.5927 0.2477 0.3658
C2 C 0.3981(2) 0.0956(3) 0.3313(3)
H2 H 0.4041 0.0831 0.2524
C3 C 0.3145(2) 0.0373(2) 0.3533(3)
H3 H 0.2614 -0.0150 0.2887
C4 C 0.3071(2) 0.0553(2) 0.4731(3)
H4 H 0.2490 0.0149 0.4873
C5 C 0.3834(2) 0.1307(3) 0.5679(3)
H5 H 0.3779 0.1412 0.6473
C6 C 0.4705(2) 0.1932(2) 0.5477(2)
C7 C 0.61595(15) 0.29837(18) 0.5528(2)
C8 C 0.72076(15) 0.38337(18) 0.6059(2)
C9 C 0.6864(2) 0.5134(3) 0.6251(4)
H6 H 0.6541 0.5121 0.6889
H7 H 0.6265 0.5446 0.5415
C10 C 0.7939(4) 0.6000(3) 0.6753(6)
H8 H 0.7700 0.6839 0.6875
C11 C 0.8844(4) 0.5517(5) 0.8076(5)
H9 H 0.8512 0.5479 0.8705
H10 H 0.9514 0.6073 0.8430
C12 C 0.9236(4) 0.4213(5) 0.7879(4)
H11 H 0.9844 0.3897 0.8722
C13 C 0.9707(3) 0.4302(4) 0.6851(5)
H12 H 1.0386 0.4845 0.7175
H13 H 0.9948 0.3484 0.6699
C14 C 0.8790(3) 0.4799(5) 0.5595(5)
H14 H 0.9109 0.4845 0.4945
C15 C 0.7721(3) 0.3918(4) 0.5049(3)
H15 H 0.7132 0.4232 0.4208
H16 H 0.7959 0.3098 0.4900
C16 C 0.8161(3) 0.3343(4) 0.7356(3)
H17 H 0.8394 0.2517 0.7216
H18 H 0.7859 0.3280 0.8011
C17 C 0.8439(4) 0.6052(4) 0.5789(5)
H19 H 0.7861 0.6379 0.4948
H20 H 0.9115 0.6600 0.6118
C18? C 0.699(2) 0.483(3) 0.497(2)
H21? H 0.6253 0.5254 0.4753
H22? H 0.6938 0.4430 0.4169
C19? C 0.801(2) 0.576(3) 0.550(3)
H23? H 0.7861 0.6417 0.4834
C20? C 0.808(4) 0.634(2) 0.674(3)
H24? H 0.7340 0.6730 0.6566
H25? H 0.8683 0.6982 0.7047
C21? C 0.837(2) 0.537(3) 0.782(3)
H26? H 0.8516 0.5756 0.8666
C22? C 0.943(3) 0.458(3) 0.796(3)
H27? H 1.0136 0.5079 0.8354
H28? H 0.9520 0.3883 0.8549
C23? C 0.928(2) 0.410(3) 0.666(3)
H29? H 0.9993 0.3653 0.6785
C24? C 0.825(2) 0.318(2) 0.614(3)
H30? H 0.8106 0.2873 0.5264
H31? H 0.8421 0.2471 0.6733
C25? C 0.730(2) 0.448(2) 0.734(2)
H32? H 0.7405 0.3863 0.8014
H33? H 0.6587 0.4943 0.7147
C26? C 0.911(3) 0.514(3) 0.575(4)
H34? H 0.9088 0.4837 0.4926
H35? H 0.9763 0.5719 0.6149
loop_
_geom_bond_atom_site_label_1
_geom_bond_atom_site_label_2
_geom_bond_site_symmetry_1
_geom_bond_site_symmetry_2
N1 C1 1_555 1_555
N2 C6 1_555 1_555
C1 H1 1_555 1_555
C2 N1 1_555 1_555
H2 C2 1_555 1_555
C3 C2 1_555 1_555
H3 C3 1_555 1_555
C4 C3 1_555 1_555
H4 C4 1_555 1_555
C5 C4 1_555 1_555
H5 C5 1_555 1_555
C6 N1 1_555 1_555
C7 N2 1_555 1_555
C8 C7 1_555 1_555
C9 C8 1_555 1_555
H6 C9 1_555 1_555
H7 C9 1_555 1_555
C10 C9 1_555 1_555
H8 C10 1_555 1_555
C11 C10 1_555 1_555
H9 C11 1_555 1_555
H10 C11 1_555 1_555
C12 C11 1_555 1_555
H11 C12 1_555 1_555
C13 C12 1_555 1_555
H12 C13 1_555 1_555
H13 C13 1_555 1_555
C14 C13 1_555 1_555
H14 C14 1_555 1_555
C15 C8 1_555 1_555
H15 C15 1_555 1_555
H16 C15 1_555 1_555
C16 C8 1_555 1_555
H17 C16 1_555 1_555
H18 C16 1_555 1_555
C17 C10 1_555 1_555
H19 C17 1_555 1_555
H20 C17 1_555 1_555
C1 C7 1_555 1_555
C5 C6 1_555 1_555
C12 C16 1_555 1_555
C14 C15 1_555 1_555
C14 C17 1_555 1_555

#END
