
#######################################################################
#
#                 Cambridge Crystallographic Data Centre
#                                CCDC 
#
#######################################################################
#
# If this CIF has been generated from an entry in the Cambridge 
# Structural Database, then it will include bibliographic, chemical, 
# crystal, experimental, refinement or atomic coordinate data resulting 
# from the CCDC's data processing and validation procedures.
#
#######################################################################

data_GESNUQ
_chemical_formula_moiety         'C19 H14 Br2 O2'
_chemical_name_systematic        
2-(1,3-dibromo-4-hydroxy-2-naphthyl)-1-(4-methylphenyl)ethanone
_symmetry_cell_setting           triclinic
_symmetry_space_group_name_H-M   'P -1'
_symmetry_Int_Tables_number      2
_space_group_name_Hall           '-P 1'
loop_
_symmetry_equiv_pos_site_id
_symmetry_equiv_pos_as_xyz
1 x,y,z
2 -x,-y,-z
_cell_length_a                   7.2746(7)
_cell_length_b                   10.866(9)
_cell_length_c                   12.2089(12)
_cell_angle_alpha                111.742(2)
_cell_angle_beta                 101.787(2)
_cell_angle_gamma                99.8660(10)
_cell_volume                     844.507
_exptl_crystal_colour            white
_exptl_crystal_description       block
_cell_formula_units_Z            2
loop_
_atom_site_label
_atom_site_type_symbol
_atom_site_fract_x
_atom_site_fract_y
_atom_site_fract_z
Br1 Br 0.6962(2) 0.37158(15) 0.46789(13)
Br2 Br 0.3501(3) 0.32250(15) -0.01597(12)
O1 O 0.2770(14) 0.2236(8) 0.4291(8)
H1 H 0.3821 0.2503 0.4824
O2 O 0.6168(14) 0.6141(8) 0.3211(8)
C1 C 0.304(2) 0.2473(12) 0.3320(10)
C2 C 0.4782(19) 0.3107(11) 0.3238(11)
C3 C 0.499(2) 0.3342(10) 0.2224(11)
C4 C 0.338(2) 0.2881(11) 0.1222(11)
C5 C 0.151(2) 0.2228(11) 0.1253(12)
C6 C 0.137(2) 0.1990(12) 0.2299(12)
C7 C -0.048(3) 0.1293(12) 0.2312(14)
H2 H -0.0555 0.1152 0.3010
C8 C -0.211(3) 0.0835(14) 0.1372(17)
H3 H -0.3300 0.0394 0.1408
C9 C -0.194(2) 0.1057(14) 0.0302(16)
H4 H -0.3051 0.0729 -0.0372
C10 C -0.025(2) 0.1722(12) 0.0227(12)
H5 H -0.0217 0.1853 -0.0480
C11 C 0.694(2) 0.4076(12) 0.2206(11)
H6 H 0.7961 0.3802 0.2632
H7 H 0.6966 0.3781 0.1358
C12 C 0.738(2) 0.5612(12) 0.2793(9)
C13 C 0.9212(19) 0.6417(14) 0.2814(11)
C14 C 1.052(2) 0.5911(13) 0.2205(10)
H8 H 1.0272 0.4964 0.1769
C15 C 1.218(2) 0.6751(16) 0.2222(12)
H9 H 1.2946 0.6370 0.1740
C16 C 1.272(2) 0.8160(15) 0.2942(11)
C17 C 1.149(2) 0.8705(14) 0.3555(11)
H10 H 1.1813 0.9651 0.4019
C18 C 0.975(2) 0.7880(14) 0.3506(11)
H11 H 0.8927 0.8286 0.3929
C19 C 1.465(2) 0.9054(13) 0.2999(12)
H12 H 1.4375 0.9595 0.2548
H13 H 1.5419 0.8473 0.2640
H14 H 1.5353 0.9654 0.3843
loop_
_geom_bond_atom_site_label_1
_geom_bond_atom_site_label_2
_geom_bond_site_symmetry_1
_geom_bond_site_symmetry_2
Br1 C2 1_555 1_555
Br2 C4 1_555 1_555
O1 H1 1_555 1_555
O2 C12 1_555 1_555
C1 O1 1_555 1_555
C2 C1 1_555 1_555
C3 C2 1_555 1_555
C4 C3 1_555 1_555
C5 C4 1_555 1_555
C6 C1 1_555 1_555
C7 C6 1_555 1_555
H2 C7 1_555 1_555
C8 C7 1_555 1_555
H3 C8 1_555 1_555
C9 C8 1_555 1_555
H4 C9 1_555 1_555
C10 C5 1_555 1_555
H5 C10 1_555 1_555
C11 C3 1_555 1_555
H6 C11 1_555 1_555
H7 C11 1_555 1_555
C12 C11 1_555 1_555
C13 C12 1_555 1_555
C14 C13 1_555 1_555
H8 C14 1_555 1_555
C15 C14 1_555 1_555
H9 C15 1_555 1_555
C16 C15 1_555 1_555
C17 C16 1_555 1_555
H10 C17 1_555 1_555
C18 C13 1_555 1_555
H11 C18 1_555 1_555
C19 C16 1_555 1_555
H12 C19 1_555 1_555
H13 C19 1_555 1_555
H14 C19 1_555 1_555
C5 C6 1_555 1_555
C9 C10 1_555 1_555
C17 C18 1_555 1_555

#END
