
#######################################################################
#
#                 Cambridge Crystallographic Data Centre
#                                CCDC 
#
#######################################################################
#
# If this CIF has been generated from an entry in the Cambridge 
# Structural Database, then it will include bibliographic, chemical, 
# crystal, experimental, refinement or atomic coordinate data resulting 
# from the CCDC's data processing and validation procedures.
#
#######################################################################

data_GESRAY01
_chemical_compound_source        
'root, stem bark, and leaf extracts of Erythrina schliebenii'
_chemical_name_common            tetramethylisoscutellarein
_chemical_formula_moiety         'C19 H18 O6'
_chemical_name_systematic        
5,6,7-trimethoxy-2-(4-methoxyphenyl)-4H-chromen-4-one
_chemical_properties_biological  
'moderate antitubercular and cytotoxic activities'
_symmetry_cell_setting           monoclinic
_symmetry_space_group_name_H-M   'P 21/c'
_symmetry_Int_Tables_number      14
_space_group_name_Hall           '-P 2ybc'
loop_
_symmetry_equiv_pos_site_id
_symmetry_equiv_pos_as_xyz
1 x,y,z
2 -x,1/2+y,1/2-z
3 -x,-y,-z
4 x,1/2-y,1/2+z
_cell_length_a                   11.8767(3)
_cell_length_b                   9.3428(3)
_cell_length_c                   16.2435(5)
_cell_angle_alpha                90
_cell_angle_beta                 113.850(2)
_cell_angle_gamma                90
_cell_volume                     1648.49
_exptl_crystal_colour            colorless
_exptl_crystal_description       block
_cell_formula_units_Z            4
loop_
_atom_site_label
_atom_site_type_symbol
_atom_site_fract_x
_atom_site_fract_y
_atom_site_fract_z
O1 O 0.33627(9) 0.40748(10) 0.87537(7)
O2 O 0.63176(10) 0.14299(12) 0.99298(9)
O3 O 0.77023(9) 0.34703(11) 0.94867(7)
O4 O 0.78064(9) 0.62941(12) 0.90676(7)
O5 O 0.57747(9) 0.79163(11) 0.84690(8)
O6 O -0.17790(9) 0.14015(13) 0.80123(8)
C1 C 0.45132(12) 0.45508(15) 0.88714(9)
C2 C 0.55548(12) 0.36841(14) 0.92213(9)
C3 C 0.66725(12) 0.43003(16) 0.92654(9)
C4 C 0.67160(12) 0.57081(15) 0.90148(9)
C5 C 0.56388(13) 0.65507(14) 0.86976(9)
C6 C 0.45314(13) 0.59695(15) 0.86174(9)
H1 H 0.379883 0.652489 0.839417
C7 C 0.32222(13) 0.27053(14) 0.89903(9)
C8 C 0.41872(13) 0.18180(15) 0.93612(10)
H2 H 0.404299 0.087566 0.951602
C9 C 0.54356(13) 0.22347(15) 0.95350(10)
C10 C 0.19214(12) 0.23707(15) 0.87667(9)
C11 C 0.09804(13) 0.31862(16) 0.81316(10)
H3 H 0.118556 0.399187 0.786287
C12 C -0.02403(13) 0.28362(16) 0.78906(10)
H4 H -0.086829 0.338580 0.744856
C13 C -0.05519(13) 0.16761(16) 0.82959(10)
C14 C 0.03707(14) 0.08662(17) 0.89325(11)
H5 H 0.016216 0.007801 0.921304
C15 C 0.15974(14) 0.12068(17) 0.91597(11)
H6 H 0.222398 0.063825 0.958886
C16 C 0.8597(2) 0.3618(2) 1.03825(16)
H7 H 0.823899 0.332771 1.080458
H8 H 0.886259 0.461879 1.049367
H9 H 0.930769 0.300910 1.046761
C17 C 0.79962(17) 0.6081(2) 0.82677(14)
H10 H 0.875354 0.656843 0.832137
H11 H 0.729677 0.647419 0.775403
H12 H 0.806914 0.505477 0.817562
C18 C 0.46870(15) 0.87809(16) 0.81398(12)
H13 H 0.435100 0.884416 0.859917
H14 H 0.407383 0.834791 0.759266
H15 H 0.489142 0.974271 0.800202
C19 C -0.21521(15) 0.0408(2) 0.85311(12)
H16 H -0.184148 0.073192 0.915783
H17 H -0.181616 -0.054159 0.850666
H18 H -0.305285 0.035639 0.828223
loop_
_geom_bond_atom_site_label_1
_geom_bond_atom_site_label_2
_geom_bond_site_symmetry_1
_geom_bond_site_symmetry_2
O1 C1 1_555 1_555
O2 C9 1_555 1_555
O3 C3 1_555 1_555
O4 C4 1_555 1_555
O5 C5 1_555 1_555
O6 C13 1_555 1_555
C1 C2 1_555 1_555
C2 C3 1_555 1_555
C3 C4 1_555 1_555
C4 C5 1_555 1_555
C5 C6 1_555 1_555
C6 C1 1_555 1_555
H1 C6 1_555 1_555
C7 O1 1_555 1_555
C8 C7 1_555 1_555
H2 C8 1_555 1_555
C9 C2 1_555 1_555
C10 C7 1_555 1_555
C11 C10 1_555 1_555
H3 C11 1_555 1_555
C12 C11 1_555 1_555
H4 C12 1_555 1_555
C13 C12 1_555 1_555
C14 C13 1_555 1_555
H5 C14 1_555 1_555
C15 C10 1_555 1_555
H6 C15 1_555 1_555
C16 O3 1_555 1_555
H7 C16 1_555 1_555
H8 C16 1_555 1_555
H9 C16 1_555 1_555
C17 O4 1_555 1_555
H10 C17 1_555 1_555
H11 C17 1_555 1_555
H12 C17 1_555 1_555
C18 O5 1_555 1_555
H13 C18 1_555 1_555
H14 C18 1_555 1_555
H15 C18 1_555 1_555
C19 O6 1_555 1_555
H16 C19 1_555 1_555
H17 C19 1_555 1_555
H18 C19 1_555 1_555
C8 C9 1_555 1_555
C14 C15 1_555 1_555

#END
