
#######################################################################
#
#                 Cambridge Crystallographic Data Centre
#                                CCDC 
#
#######################################################################
#
# If this CIF has been generated from an entry in the Cambridge 
# Structural Database, then it will include bibliographic, chemical, 
# crystal, experimental, refinement or atomic coordinate data resulting 
# from the CCDC's data processing and validation procedures.
#
#######################################################################

data_GESSII
_chemical_formula_moiety         'C17 H17 F3 N2 O5'
_chemical_name_systematic        
'Dimethyl 5-oxo-1-phenyl-3-(trifluoromethyl)dihydro-1H,5H-pyrazolo[1,2-a]pyrazole-2,2(3H)-dicarboxylate'
_symmetry_cell_setting           triclinic
_symmetry_space_group_name_H-M   'P -1'
_symmetry_Int_Tables_number      2
_space_group_name_Hall           '-P 1'
loop_
_symmetry_equiv_pos_site_id
_symmetry_equiv_pos_as_xyz
1 x,y,z
2 -x,-y,-z
_cell_length_a                   7.1839(8)
_cell_length_b                   7.8382(9)
_cell_length_c                   16.4142(19)
_cell_angle_alpha                90.922(3)
_cell_angle_beta                 99.568(3)
_cell_angle_gamma                104.072(3)
_cell_volume                     882.513
_exptl_crystal_colour            colorless
_exptl_crystal_description       prismatic
_cell_formula_units_Z            2
loop_
_atom_site_label
_atom_site_type_symbol
_atom_site_fract_x
_atom_site_fract_y
_atom_site_fract_z
F1 F 0.2443(2) 0.0200(2) 0.26501(11)
F2 F 0.4714(2) 0.0461(2) 0.36954(10)
F3 F 0.2891(2) 0.2272(2) 0.35750(11)
N1 N 0.5863(3) 0.1536(2) 0.21137(11)
N2 N 0.7939(3) 0.1807(2) 0.23649(11)
O1 O 0.3644(3) 0.1412(3) 0.09276(11)
O2 O 0.5346(3) 0.6206(2) 0.29710(12)
O3 O 0.8469(2) 0.67912(19) 0.35897(10)
O4 O 0.8994(3) 0.2730(2) 0.42621(10)
O5 O 0.6559(3) 0.3865(2) 0.45204(9)
C1 C 0.5270(4) 0.1364(3) 0.12677(15)
C2 C 0.6977(5) 0.1141(4) 0.08941(16)
H1 H 0.7380 0.2099 0.0544
H2 H 0.6648 0.0035 0.0565
C3 C 0.8578(4) 0.1157(4) 0.16271(16)
H3 H 0.8763 -0.0020 0.1701
H4 H 0.9798 0.1930 0.1541
C4 C 0.8613(3) 0.3713(3) 0.26188(13)
H5 H 0.9868 0.3910 0.2993
C5 C 0.7035(3) 0.3873(3) 0.31446(13)
C6 C 0.5150(3) 0.2572(3) 0.26655(14)
H6 H 0.4384 0.3266 0.2328
C7 C 0.3811(4) 0.1375(3) 0.31588(16)
C8 C 0.8861(4) 0.4975(3) 0.19284(14)
C9 C 1.0731(4) 0.5755(4) 0.18155(18)
H7 H 1.1789 0.5545 0.2173
C10 C 1.1044(6) 0.6862(4) 0.1165(2)
H8 H 1.2311 0.7392 0.1098
C11 C 0.9505(6) 0.7172(4) 0.0628(2)
H9 H 0.9724 0.7893 0.0191
C12 C 0.7652(5) 0.6418(4) 0.07371(17)
H10 H 0.6605 0.6630 0.0374
C13 C 0.7311(4) 0.5334(3) 0.13849(14)
H11 H 0.6037 0.4844 0.1457
C14 C 0.6803(3) 0.5759(3) 0.32104(13)
C15 C 0.8516(5) 0.8615(3) 0.3773(2)
H12 H 0.8204 0.9163 0.3267
H13 H 0.9794 0.9220 0.4054
H14 H 0.7579 0.8671 0.4121
C16 C 0.7680(3) 0.3387(3) 0.40379(13)
C17 C 0.6910(5) 0.3472(4) 0.53809(15)
H15 H 0.6577 0.2219 0.5425
H16 H 0.6124 0.3991 0.5679
H17 H 0.8262 0.3945 0.5610
loop_
_geom_bond_atom_site_label_1
_geom_bond_atom_site_label_2
_geom_bond_site_symmetry_1
_geom_bond_site_symmetry_2
F1 C7 1_555 1_555
F2 C7 1_555 1_555
F3 C7 1_555 1_555
N1 N2 1_555 1_555
N2 C3 1_555 1_555
O1 C1 1_555 1_555
O2 C14 1_555 1_555
O3 C14 1_555 1_555
O4 C16 1_555 1_555
O5 C16 1_555 1_555
C1 N1 1_555 1_555
C2 C1 1_555 1_555
H1 C2 1_555 1_555
H2 C2 1_555 1_555
C3 C2 1_555 1_555
H3 C3 1_555 1_555
H4 C3 1_555 1_555
C4 N2 1_555 1_555
H5 C4 1_555 1_555
C5 C4 1_555 1_555
C6 N1 1_555 1_555
H6 C6 1_555 1_555
C7 C6 1_555 1_555
C8 C4 1_555 1_555
C9 C8 1_555 1_555
H7 C9 1_555 1_555
C10 C9 1_555 1_555
H8 C10 1_555 1_555
C11 C10 1_555 1_555
H9 C11 1_555 1_555
C12 C11 1_555 1_555
H10 C12 1_555 1_555
C13 C8 1_555 1_555
H11 C13 1_555 1_555
C14 C5 1_555 1_555
C15 O3 1_555 1_555
H12 C15 1_555 1_555
H13 C15 1_555 1_555
H14 C15 1_555 1_555
C16 C5 1_555 1_555
C17 O5 1_555 1_555
H15 C17 1_555 1_555
H16 C17 1_555 1_555
H17 C17 1_555 1_555
C5 C6 1_555 1_555
C12 C13 1_555 1_555

#END
