
#######################################################################
#
#                 Cambridge Crystallographic Data Centre
#                                CCDC 
#
#######################################################################
#
# If this CIF has been generated from an entry in the Cambridge 
# Structural Database, then it will include bibliographic, chemical, 
# crystal, experimental, refinement or atomic coordinate data resulting 
# from the CCDC's data processing and validation procedures.
#
#######################################################################

data_GESZOV
_chemical_formula_moiety         'C36 H40 B10 F12'
_chemical_name_systematic        
1,2-bis(4-[difluoro(1,2,3,4,5-pentamethylcyclopenta-2,4-dien-1-yl)methyl]-2,3,5,6-tetrafluorophenyl)-1,2-dicarba-closo-dodecaborane
_symmetry_cell_setting           triclinic
_symmetry_space_group_name_H-M   'P -1'
_symmetry_Int_Tables_number      2
_space_group_name_Hall           '-P 1'
loop_
_symmetry_equiv_pos_site_id
_symmetry_equiv_pos_as_xyz
1 x,y,z
2 -x,-y,-z
_cell_length_a                   14.5973(13)
_cell_length_b                   16.0164(14)
_cell_length_c                   18.3603(16)
_cell_angle_alpha                70.015(4)
_cell_angle_beta                 79.973(4)
_cell_angle_gamma                89.535(4)
_cell_volume                     3966.33
_exptl_crystal_colour            red
_exptl_crystal_description       block
_cell_formula_units_Z            4
loop_
_atom_site_label
_atom_site_type_symbol
_atom_site_fract_x
_atom_site_fract_y
_atom_site_fract_z
C1 C 1.1475(4) 0.2266(4) 0.0007(3)
C2 C 1.2143(4) 0.1555(3) 0.0654(3)
B1 B 1.1987(5) 0.1369(5) -0.0205(4)
H1 H 1.1575 0.0777 -0.0194
B2 B 1.1983(5) 0.2434(6) -0.0946(4)
H2 H 1.1581 0.2545 -0.1436
B3 B 1.2086(5) 0.3243(5) -0.0513(4)
H3 H 1.1746 0.3891 -0.0713
B4 B 1.2170(4) 0.2696(4) 0.0490(4)
H4 H 1.1880 0.2980 0.0955
B5 B 1.3094(5) 0.1269(5) 0.0102(4)
H5 H 1.3424 0.0615 0.0300
B6 B 1.3004(5) 0.1829(6) -0.0893(4)
H6 H 1.3276 0.1535 -0.1356
B7 B 1.3094(5) 0.2998(6) -0.1094(4)
H7 H 1.3432 0.3484 -0.1679
B8 B 1.3187(5) 0.3149(5) -0.0200(4)
H8 H 1.3583 0.3742 -0.0195
C3 C 1.0431(4) 0.2225(3) 0.0244(3)
B9 B 1.3189(4) 0.2079(4) 0.0547(4)
H9 H 1.3575 0.1958 0.1046
F1 F 1.0417(2) 0.3348(2) 0.0832(3)
C4 C 0.9955(4) 0.2759(3) 0.0637(3)
B10 B 1.3767(5) 0.2282(5) -0.0450(4)
H10 H 1.4544 0.2299 -0.0617
F2 F 0.8646(2) 0.3266(2) 0.1227(3)
C5 C 0.9003(4) 0.2738(4) 0.0826(3)
C6 C 0.8416(4) 0.2188(3) 0.0641(3)
F3 F 0.8406(2) 0.1129(3) 0.0012(2)
C7 C 0.8874(4) 0.1679(4) 0.0245(3)
F4 F 1.0163(2) 0.1219(3) -0.0406(2)
C8 C 0.9830(4) 0.1712(4) 0.0034(3)
F5 F 0.7028(2) 0.1314(2) 0.10099(19)
C9 C 0.7365(4) 0.2172(3) 0.0843(3)
F6 F 0.7105(2) 0.2302(2) 0.15435(18)
C10 C 0.6882(4) 0.2824(3) 0.0208(3)
C11 C 0.7301(4) 0.3761(4) 0.0035(4)
C12 C 0.7842(4) 0.4025(4) -0.0677(4)
C13 C 0.7775(4) 0.3351(4) -0.1058(3)
C14 C 0.7183(4) 0.2667(4) -0.0562(3)
C15 C 0.5823(4) 0.2725(4) 0.0502(3)
H11 H 0.5515 0.3131 0.0096
H12 H 0.5679 0.2871 0.0985
H13 H 0.5601 0.2111 0.0612
C16 C 0.7063(5) 0.4274(4) 0.0580(4)
H14 H 0.7545 0.4750 0.0455
H15 H 0.7029 0.3875 0.1125
H16 H 0.6460 0.4535 0.0516
C17 C 0.8407(5) 0.4869(5) -0.1091(5)
H17 H 0.8116 0.5242 -0.1525
H18 H 0.9036 0.4743 -0.1301
H19 H 0.8442 0.5182 -0.0721
C18 C 0.8279(5) 0.3462(5) -0.1868(4)
H20 H 0.8203 0.2910 -0.1975
H21 H 0.8943 0.3601 -0.1909
H22 H 0.8022 0.3949 -0.2254
C19 C 0.6805(4) 0.1900(5) -0.0727(4)
H23 H 0.6165 0.2004 -0.0816
H24 H 0.6810 0.1353 -0.0276
H25 H 0.7193 0.1841 -0.1198
C20 C 1.1670(3) 0.0899(3) 0.1430(3)
F7 F 1.1557(3) 0.1913(2) 0.2133(2)
C21 C 1.1412(4) 0.1090(3) 0.2115(3)
F8 F 1.0821(3) 0.0766(3) 0.3436(2)
C22 C 1.1014(4) 0.0458(4) 0.2836(3)
C23 C 1.0842(4) -0.0406(4) 0.2926(4)
F9 F 1.1014(4) -0.1445(3) 0.2250(3)
C24 C 1.1113(5) -0.0616(4) 0.2244(5)
F10 F 1.1789(4) -0.0313(3) 0.0956(3)
C25 C 1.1522(5) 0.0006(4) 0.1532(4)
F11 F 1.0756(3) -0.1911(3) 0.3758(3)
C26 C 1.0376(5) -0.1107(5) 0.3705(5)
F12 F 1.0682(3) -0.0907(4) 0.4299(3)
C27 C 0.9206(9) -0.1064(7) 0.3970(6)
C28 C 0.8862(8) -0.1355(7) 0.3382(6)
C29 C 0.8575(5) -0.0729(4) 0.2768(5)
C30 C 0.8524(4) -0.0046(5) 0.3134(4)
C31 C 0.8911(7) -0.0151(7) 0.3816(6)
C32 C 0.8912(9) -0.1658(8) 0.4856(6)
H26 H 0.9047 -0.1328 0.5190
H27 H 0.9262 -0.2199 0.4964
H28 H 0.8243 -0.1820 0.4970
C33 C 0.8945(8) 0.0436(9) 0.4354(7)
H29 H 0.8854 0.1057 0.4055
H30 H 0.9552 0.0393 0.4520
H31 H 0.8450 0.0218 0.4820
C34 C 0.8048(5) 0.0794(6) 0.2808(4)
H32 H 0.7996 0.1125 0.3173
H33 H 0.7424 0.0650 0.2740
H34 H 0.8412 0.1158 0.2297
C35 C 0.8170(7) -0.0634(5) 0.2058(6)
H35 H 0.8379 -0.1108 0.1854
H36 H 0.8375 -0.0054 0.1654
H37 H 0.7488 -0.0678 0.2199
C36 C 0.8930(10) -0.2289(8) 0.3417(10)
H38 H 0.8896 -0.2322 0.2899
H39 H 0.8415 -0.2656 0.3810
H40 H 0.9524 -0.2506 0.3565
C37 C 0.7409(4) 0.4052(3) 0.3589(3)
C38 C 0.8084(4) 0.3408(3) 0.4239(3)
B11 B 0.8273(4) 0.3426(4) 0.3265(3)
H41 H 0.8115 0.2839 0.3099
B12 B 0.8084(4) 0.4537(4) 0.2674(4)
H42 H 0.7815 0.4685 0.2110
B13 B 0.7757(5) 0.5156(4) 0.3324(4)
H43 H 0.7272 0.5712 0.3191
B14 B 0.7744(5) 0.4414(4) 0.4303(4)
H44 H 0.7240 0.4469 0.4817
B15 B 0.9225(5) 0.3455(4) 0.3749(4)
H45 H 0.9700 0.2892 0.3894
B16 B 0.9247(5) 0.4180(4) 0.2762(4)
H46 H 0.9744 0.4099 0.2256
B17 B 0.8918(5) 0.5260(5) 0.2802(4)
H47 H 0.9204 0.5893 0.2317
B18 B 0.8702(5) 0.5177(4) 0.3805(4)
H48 H 0.8844 0.5757 0.3986
C39 C 0.6417(4) 0.3771(3) 0.3653(3)
B19 B 0.8900(5) 0.4076(4) 0.4392(4)
H49 H 0.9168 0.3924 0.4957
F13 F 0.6761(2) 0.3129(2) 0.26453(19)
C40 C 0.6135(4) 0.3338(4) 0.3182(3)
B20 B 0.9620(5) 0.4590(4) 0.3457(4)
H50 H 1.0371 0.4785 0.3402
F14 F 0.5073(2) 0.2697(2) 0.2703(2)
C41 C 0.5223(4) 0.3114(3) 0.3205(3)
C42 C 0.4489(4) 0.3289(4) 0.3703(3)
F15 F 0.4107(3) 0.3955(3) 0.4686(2)
C43 C 0.4745(4) 0.3726(4) 0.4179(3)
F16 F 0.5795(3) 0.4430(3) 0.4614(2)
C44 C 0.5668(4) 0.3962(4) 0.4145(3)
F17 F 0.3451(3) 0.2235(2) 0.3617(3)
C45 C 0.3479(4) 0.3039(4) 0.3726(4)
F18 F 0.2995(2) 0.2863(3) 0.4471(2)
C46 C 0.2966(4) 0.3730(4) 0.3140(3)
C47 C 0.3531(4) 0.3928(4) 0.2317(3)
C48 C 0.3927(4) 0.4741(4) 0.2070(3)
C49 C 0.3633(4) 0.5162(4) 0.2666(4)
C50 C 0.3042(4) 0.4593(4) 0.3279(3)
C51 C 0.1960(4) 0.3375(4) 0.3227(4)
H51 H 0.1617 0.3303 0.3755
H52 H 0.1971 0.2799 0.3149
H53 H 0.1653 0.3799 0.2831
C52 C 0.3519(5) 0.3306(6) 0.1861(5)
H54 H 0.2919 0.3321 0.1688
H55 H 0.3610 0.2699 0.2198
H56 H 0.4022 0.3493 0.1399
C53 C 0.4548(5) 0.5202(6) 0.1293(5)
H57 H 0.4731 0.4770 0.1030
H58 H 0.5107 0.5464 0.1378
H59 H 0.4214 0.5672 0.0961
C54 C 0.3952(6) 0.6082(5) 0.2560(7)
H60 H 0.3696 0.6221 0.3033
H61 H 0.3736 0.6503 0.2103
H62 H 0.4634 0.6129 0.2473
C55 C 0.2469(6) 0.4772(6) 0.3965(5)
H63 H 0.2702 0.5329 0.3994
H64 H 0.2512 0.4282 0.4453
H65 H 0.1817 0.4822 0.3896
C56 C 0.7611(4) 0.2590(3) 0.4917(3)
F19 F 0.7208(2) 0.1802(2) 0.41085(17)
C57 C 0.7238(4) 0.1832(3) 0.4829(3)
F20 F 0.6565(2) 0.0410(2) 0.52747(18)
C58 C 0.6863(4) 0.1088(3) 0.5460(3)
C59 C 0.6820(4) 0.1039(3) 0.6236(3)
F21 F 0.7143(2) 0.1835(2) 0.70427(17)
C60 C 0.7155(4) 0.1789(4) 0.6329(3)
F22 F 0.7814(2) 0.3202(2) 0.58970(18)
C61 C 0.7526(4) 0.2539(3) 0.5698(3)
F23 F 0.6690(2) -0.0528(2) 0.67289(19)
C62 C 0.6420(4) 0.0198(3) 0.6921(3)
F24 F 0.6866(2) 0.0134(2) 0.75393(18)
C63 C 0.5352(4) 0.0149(4) 0.7207(3)
C64 C 0.4850(4) 0.0200(4) 0.6539(3)
C65 C 0.4429(4) 0.0983(4) 0.6339(3)
C66 C 0.4575(4) 0.1466(4) 0.6856(3)
C67 C 0.5084(4) 0.0988(4) 0.7397(3)
C68 C 0.5063(4) -0.0702(4) 0.7926(3)
H66 H 0.4385 -0.0738 0.8098
H67 H 0.5370 -0.0686 0.8356
H68 H 0.5248 -0.1223 0.7783
C69 C 0.4778(4) -0.0559(4) 0.6241(4)
H69 H 0.4342 -0.1028 0.6628
H70 H 0.5393 -0.0798 0.6160
H71 H 0.4552 -0.0345 0.5740
C70 C 0.3844(5) 0.1296(5) 0.5708(4)
H72 H 0.3807 0.0843 0.5466
H73 H 0.4129 0.1852 0.5306
H74 H 0.3217 0.1399 0.5943
C71 C 0.4156(5) 0.2352(4) 0.6793(4)
H75 H 0.3475 0.2269 0.6921
H76 H 0.4345 0.2772 0.6254
H77 H 0.4378 0.2587 0.7163
C72 C 0.5277(4) 0.1159(4) 0.8102(3)
H78 H 0.5196 0.1787 0.8035
H79 H 0.5918 0.1016 0.8168
H80 H 0.4844 0.0786 0.8570
C73? C 0.9442(7) -0.1357(8) 0.3777(7)
C74? C 0.9118(8) -0.1480(7) 0.3016(7)
C75? C 0.8958(9) -0.0552(9) 0.3734(7)
C76? C 0.9020(8) -0.2128(8) 0.4503(7)
C77? C 0.8850(9) -0.0170(10) 0.4414(7)
C78? C 0.9290(10) -0.2334(7) 0.2783(9)
H81? H 0.9113 -0.2010 0.4975
H82? H 0.9321 -0.2674 0.4490
H83? H 0.8351 -0.2202 0.4514
H84? H 0.8561 0.0403 0.4255
H85? H 0.9465 -0.0087 0.4532
H86? H 0.8456 -0.0587 0.4884
H87? H 0.8720 -0.2723 0.2968
H88? H 0.9797 -0.2653 0.3027
H89? H 0.9461 -0.2159 0.2208
loop_
_geom_bond_atom_site_label_1
_geom_bond_atom_site_label_2
_geom_bond_site_symmetry_1
_geom_bond_site_symmetry_2
C1 C2 1_555 1_555
C2 B1 1_555 1_555
B1 C1 1_555 1_555
H1 B1 1_555 1_555
B2 C1 1_555 1_555
H2 B2 1_555 1_555
B3 C1 1_555 1_555
H3 B3 1_555 1_555
B4 C1 1_555 1_555
H4 B4 1_555 1_555
B5 C2 1_555 1_555
H5 B5 1_555 1_555
B6 B1 1_555 1_555
H6 B6 1_555 1_555
B7 B2 1_555 1_555
H7 B7 1_555 1_555
B8 B3 1_555 1_555
H8 B8 1_555 1_555
C3 C1 1_555 1_555
B9 C2 1_555 1_555
H9 B9 1_555 1_555
F1 C4 1_555 1_555
C4 C3 1_555 1_555
B10 B5 1_555 1_555
H10 B10 1_555 1_555
F2 C5 1_555 1_555
C5 C4 1_555 1_555
C6 C5 1_555 1_555
F3 C7 1_555 1_555
C7 C6 1_555 1_555
F4 C8 1_555 1_555
C8 C3 1_555 1_555
F5 C9 1_555 1_555
C9 C6 1_555 1_555
F6 C9 1_555 1_555
C10 C9 1_555 1_555
C11 C10 1_555 1_555
C12 C11 1_555 1_555
C13 C12 1_555 1_555
C14 C10 1_555 1_555
C15 C10 1_555 1_555
H11 C15 1_555 1_555
H12 C15 1_555 1_555
H13 C15 1_555 1_555
C16 C11 1_555 1_555
H14 C16 1_555 1_555
H15 C16 1_555 1_555
H16 C16 1_555 1_555
C17 C12 1_555 1_555
H17 C17 1_555 1_555
H18 C17 1_555 1_555
H19 C17 1_555 1_555
C18 C13 1_555 1_555
H20 C18 1_555 1_555
H21 C18 1_555 1_555
H22 C18 1_555 1_555
C19 C14 1_555 1_555
H23 C19 1_555 1_555
H24 C19 1_555 1_555
H25 C19 1_555 1_555
C20 C2 1_555 1_555
F7 C21 1_555 1_555
C21 C20 1_555 1_555
F8 C22 1_555 1_555
C22 C21 1_555 1_555
C23 C22 1_555 1_555
F9 C24 1_555 1_555
C24 C23 1_555 1_555
F10 C25 1_555 1_555
C25 C20 1_555 1_555
F11 C26 1_555 1_555
C26 C23 1_555 1_555
F12 C26 1_555 1_555
C27 C26 1_555 1_555
C28 C27 1_555 1_555
C29 C28 1_555 1_555
C30 C29 1_555 1_555
C31 C27 1_555 1_555
C32 C27 1_555 1_555
H26 C32 1_555 1_555
H27 C32 1_555 1_555
H28 C32 1_555 1_555
C33 C31 1_555 1_555
H29 C33 1_555 1_555
H30 C33 1_555 1_555
H31 C33 1_555 1_555
C34 C30 1_555 1_555
H32 C34 1_555 1_555
H33 C34 1_555 1_555
H34 C34 1_555 1_555
C35 C29 1_555 1_555
H35 C35 1_555 1_555
H36 C35 1_555 1_555
H37 C35 1_555 1_555
C36 C28 1_555 1_555
H38 C36 1_555 1_555
H39 C36 1_555 1_555
H40 C36 1_555 1_555
C37 C38 1_555 1_555
C38 B11 1_555 1_555
B11 C37 1_555 1_555
H41 B11 1_555 1_555
B12 C37 1_555 1_555
H42 B12 1_555 1_555
B13 C37 1_555 1_555
H43 B13 1_555 1_555
B14 C37 1_555 1_555
H44 B14 1_555 1_555
B15 C38 1_555 1_555
H45 B15 1_555 1_555
B16 B11 1_555 1_555
H46 B16 1_555 1_555
B17 B12 1_555 1_555
H47 B17 1_555 1_555
B18 B13 1_555 1_555
H48 B18 1_555 1_555
C39 C37 1_555 1_555
B19 C38 1_555 1_555
H49 B19 1_555 1_555
F13 C40 1_555 1_555
C40 C39 1_555 1_555
B20 B15 1_555 1_555
H50 B20 1_555 1_555
F14 C41 1_555 1_555
C41 C40 1_555 1_555
C42 C41 1_555 1_555
F15 C43 1_555 1_555
C43 C42 1_555 1_555
F16 C44 1_555 1_555
C44 C39 1_555 1_555
F17 C45 1_555 1_555
C45 C42 1_555 1_555
F18 C45 1_555 1_555
C46 C45 1_555 1_555
C47 C46 1_555 1_555
C48 C47 1_555 1_555
C49 C48 1_555 1_555
C50 C46 1_555 1_555
C51 C46 1_555 1_555
H51 C51 1_555 1_555
H52 C51 1_555 1_555
H53 C51 1_555 1_555
C52 C47 1_555 1_555
H54 C52 1_555 1_555
H55 C52 1_555 1_555
H56 C52 1_555 1_555
C53 C48 1_555 1_555
H57 C53 1_555 1_555
H58 C53 1_555 1_555
H59 C53 1_555 1_555
C54 C49 1_555 1_555
H60 C54 1_555 1_555
H61 C54 1_555 1_555
H62 C54 1_555 1_555
C55 C50 1_555 1_555
H63 C55 1_555 1_555
H64 C55 1_555 1_555
H65 C55 1_555 1_555
C56 C38 1_555 1_555
F19 C57 1_555 1_555
C57 C56 1_555 1_555
F20 C58 1_555 1_555
C58 C57 1_555 1_555
C59 C58 1_555 1_555
F21 C60 1_555 1_555
C60 C59 1_555 1_555
F22 C61 1_555 1_555
C61 C56 1_555 1_555
F23 C62 1_555 1_555
C62 C59 1_555 1_555
F24 C62 1_555 1_555
C63 C62 1_555 1_555
C64 C63 1_555 1_555
C65 C64 1_555 1_555
C66 C65 1_555 1_555
C67 C63 1_555 1_555
C68 C63 1_555 1_555
H66 C68 1_555 1_555
H67 C68 1_555 1_555
H68 C68 1_555 1_555
C69 C64 1_555 1_555
H69 C69 1_555 1_555
H70 C69 1_555 1_555
H71 C69 1_555 1_555
C70 C65 1_555 1_555
H72 C70 1_555 1_555
H73 C70 1_555 1_555
H74 C70 1_555 1_555
C71 C66 1_555 1_555
H75 C71 1_555 1_555
H76 C71 1_555 1_555
H77 C71 1_555 1_555
C72 C67 1_555 1_555
H78 C72 1_555 1_555
H79 C72 1_555 1_555
H80 C72 1_555 1_555
C2 B4 1_555 1_555
B1 B2 1_555 1_555
B1 B5 1_555 1_555
B2 B3 1_555 1_555
B2 B6 1_555 1_555
B3 B4 1_555 1_555
B3 B7 1_555 1_555
B4 B8 1_555 1_555
B4 B9 1_555 1_555
B5 B6 1_555 1_555
B5 B9 1_555 1_555
B6 B7 1_555 1_555
B6 B10 1_555 1_555
B7 B8 1_555 1_555
B7 B10 1_555 1_555
B8 B9 1_555 1_555
B8 B10 1_555 1_555
B9 B10 1_555 1_555
C7 C8 1_555 1_555
C13 C14 1_555 1_555
C24 C25 1_555 1_555
C30 C31 1_555 1_555
C38 B14 1_555 1_555
B11 B12 1_555 1_555
B11 B15 1_555 1_555
B12 B13 1_555 1_555
B12 B16 1_555 1_555
B13 B14 1_555 1_555
B13 B17 1_555 1_555
B14 B18 1_555 1_555
B14 B19 1_555 1_555
B15 B16 1_555 1_555
B15 B19 1_555 1_555
B16 B17 1_555 1_555
B16 B20 1_555 1_555
B17 B18 1_555 1_555
B17 B20 1_555 1_555
B18 B19 1_555 1_555
B18 B20 1_555 1_555
B19 B20 1_555 1_555
C43 C44 1_555 1_555
C49 C50 1_555 1_555
C60 C61 1_555 1_555
C66 C67 1_555 1_555

#END
