
#######################################################################
#
#                 Cambridge Crystallographic Data Centre
#                                CCDC 
#
#######################################################################
#
# If this CIF has been generated from an entry in the Cambridge 
# Structural Database, then it will include bibliographic, chemical, 
# crystal, experimental, refinement or atomic coordinate data resulting 
# from the CCDC's data processing and validation procedures.
#
#######################################################################

data_GETGEU
_chemical_formula_moiety         'C15 H10 F2 N2 O1 S1'
_chemical_name_systematic        
2-[(difluoromethyl)sulfanyl]-3-phenylquinazolin-4(3H)-one
_symmetry_cell_setting           triclinic
_symmetry_space_group_name_H-M   'P -1'
_symmetry_Int_Tables_number      2
_space_group_name_Hall           '-P 1'
loop_
_symmetry_equiv_pos_site_id
_symmetry_equiv_pos_as_xyz
1 x,y,z
2 -x,-y,-z
_cell_length_a                   9.9993(14)
_cell_length_b                   11.6554(17)
_cell_length_c                   12.6615(19)
_cell_angle_alpha                81.384(3)
_cell_angle_beta                 83.523(3)
_cell_angle_gamma                69.211(3)
_cell_volume                     1361.16
_exptl_crystal_colour            colorless
_exptl_crystal_description       prismatic
_cell_formula_units_Z            4
loop_
_atom_site_label
_atom_site_type_symbol
_atom_site_fract_x
_atom_site_fract_y
_atom_site_fract_z
S1 S 0.07749(7) 0.38025(6) 0.33773(6)
F1 F -0.0915(2) 0.3191(2) 0.2423(2)
F2 F -0.1737(3) 0.3688(3) 0.3976(2)
N1 N -0.0823(2) 0.6099(2) 0.37203(17)
N2 N 0.1691(2) 0.56287(19) 0.35555(16)
O1 O 0.2712(2) 0.71005(19) 0.34604(18)
C1 C 0.0455(3) 0.5348(2) 0.35770(19)
C2 C 0.1624(3) 0.6846(2) 0.3585(2)
C3 C 0.0178(3) 0.7709(2) 0.37821(19)
C4 C -0.0984(3) 0.7302(2) 0.38393(19)
C5 C -0.2365(3) 0.8143(3) 0.4036(2)
H1 H -0.3155 0.7892 0.4062
C6 C -0.2559(4) 0.9327(3) 0.4191(2)
H2 H -0.3478 0.9876 0.4330
C7 C -0.1392(4) 0.9713(3) 0.4140(2)
H3 H -0.1531 1.0521 0.4247
C8 C -0.0034(3) 0.8916(3) 0.3934(2)
H4 H 0.0745 0.9183 0.3897
C9 C 0.3086(3) 0.4681(2) 0.3427(2)
C10 C 0.3896(3) 0.4198(3) 0.4298(3)
H5 H 0.3564 0.4479 0.4961
C11 C 0.5217(3) 0.3284(3) 0.4167(3)
H6 H 0.5795 0.2961 0.4742
C12 C 0.5680(3) 0.2851(3) 0.3188(4)
H7 H 0.6558 0.2221 0.3109
C13 C 0.4852(3) 0.3346(3) 0.2335(3)
H8 H 0.5166 0.3051 0.1676
C14 C 0.3558(3) 0.4278(3) 0.2445(2)
H9 H 0.3006 0.4633 0.1859
C15 C -0.1007(3) 0.3969(3) 0.3104(2)
H10 H -0.1507 0.4817 0.2792
S2 S 0.30313(7) 0.12764(7) 0.12679(6)
F3 F 0.2230(2) 0.0643(2) 0.32240(15)
F4 F 0.4361(2) -0.0391(2) 0.26581(18)
N3 N 0.0571(2) 0.08922(19) 0.12365(15)
N4 N 0.1009(2) 0.23998(18) -0.00889(15)
O2 O -0.0593(2) 0.35230(18) -0.13058(15)
C16 C 0.1351(3) 0.1508(2) 0.07878(18)
C17 C -0.0294(3) 0.2716(2) -0.05594(19)
C18 C -0.1191(2) 0.2013(2) -0.00690(18)
C19 C -0.0731(2) 0.1137(2) 0.08090(18)
C20 C -0.1616(3) 0.0476(2) 0.1278(2)
H11 H -0.1322 -0.0120 0.1862
C21 C -0.2915(3) 0.0706(2) 0.0878(2)
H12 H -0.3505 0.0274 0.1203
C22 C -0.3365(3) 0.1568(3) 0.0001(2)
H13 H -0.4246 0.1706 -0.0265
C23 C -0.2512(3) 0.2218(3) -0.0477(2)
H14 H -0.2810 0.2796 -0.1072
C24 C 0.1999(3) 0.3016(2) -0.0565(2)
C25 C 0.2063(3) 0.3995(3) -0.0125(2)
H15 H 0.1471 0.4278 0.0472
C26 C 0.3028(4) 0.4555(3) -0.0590(3)
H16 H 0.3096 0.5218 -0.0299
C27 C 0.3889(3) 0.4140(3) -0.1477(3)
H17 H 0.4537 0.4523 -0.1782
C28 C 0.3800(3) 0.3175(3) -0.1912(3)
H18 H 0.4378 0.2905 -0.2518
C29 C 0.2855(3) 0.2596(3) -0.1456(2)
H19 H 0.2796 0.1929 -0.1747
C30 C 0.2995(3) 0.0127(3) 0.2386(2)
H20 H 0.2642 -0.0490 0.2186
loop_
_geom_bond_atom_site_label_1
_geom_bond_atom_site_label_2
_geom_bond_site_symmetry_1
_geom_bond_site_symmetry_2
S1 C1 1_555 1_555
F1 C15 1_555 1_555
F2 C15 1_555 1_555
N1 C1 1_555 1_555
N2 C1 1_555 1_555
O1 C2 1_555 1_555
C2 N2 1_555 1_555
C3 C2 1_555 1_555
C4 N1 1_555 1_555
C5 C4 1_555 1_555
H1 C5 1_555 1_555
C6 C5 1_555 1_555
H2 C6 1_555 1_555
C7 C6 1_555 1_555
H3 C7 1_555 1_555
C8 C3 1_555 1_555
H4 C8 1_555 1_555
C9 N2 1_555 1_555
C10 C9 1_555 1_555
H5 C10 1_555 1_555
C11 C10 1_555 1_555
H6 C11 1_555 1_555
C12 C11 1_555 1_555
H7 C12 1_555 1_555
C13 C12 1_555 1_555
H8 C13 1_555 1_555
C14 C9 1_555 1_555
H9 C14 1_555 1_555
C15 S1 1_555 1_555
H10 C15 1_555 1_555
S2 C16 1_555 1_555
F3 C30 1_555 1_555
F4 C30 1_555 1_555
N3 C16 1_555 1_555
N4 C16 1_555 1_555
O2 C17 1_555 1_555
C17 N4 1_555 1_555
C18 C17 1_555 1_555
C19 N3 1_555 1_555
C20 C19 1_555 1_555
H11 C20 1_555 1_555
C21 C20 1_555 1_555
H12 C21 1_555 1_555
C22 C21 1_555 1_555
H13 C22 1_555 1_555
C23 C18 1_555 1_555
H14 C23 1_555 1_555
C24 N4 1_555 1_555
C25 C24 1_555 1_555
H15 C25 1_555 1_555
C26 C25 1_555 1_555
H16 C26 1_555 1_555
C27 C26 1_555 1_555
H17 C27 1_555 1_555
C28 C27 1_555 1_555
H18 C28 1_555 1_555
C29 C24 1_555 1_555
H19 C29 1_555 1_555
C30 S2 1_555 1_555
H20 C30 1_555 1_555
C3 C4 1_555 1_555
C7 C8 1_555 1_555
C13 C14 1_555 1_555
C18 C19 1_555 1_555
C22 C23 1_555 1_555
C28 C29 1_555 1_555

#END
