
#######################################################################
#
#                 Cambridge Crystallographic Data Centre
#                                CCDC 
#
#######################################################################
#
# If this CIF has been generated from an entry in the Cambridge 
# Structural Database, then it will include bibliographic, chemical, 
# crystal, experimental, refinement or atomic coordinate data resulting 
# from the CCDC's data processing and validation procedures.
#
#######################################################################

data_GETKEV10
_chemical_formula_moiety         'C19 H30 O5 S2'
_chemical_name_systematic        
Perhydro-2-((3-Acetyloxy)-2-pyranyl)ethyl-2,3-epithio-3-methylthiopyrano(3,2-b)oxepin
_symmetry_cell_setting           monoclinic
_symmetry_space_group_name_H-M   'P 21/c'
_symmetry_Int_Tables_number      14
_space_group_name_Hall           '-P 2ybc'
loop_
_symmetry_equiv_pos_site_id
_symmetry_equiv_pos_as_xyz
1 x,y,z
2 -x,1/2+y,1/2-z
3 -x,-y,-z
4 x,1/2-y,1/2+z
_cell_length_a                   9.387(1)
_cell_length_b                   10.405(2)
_cell_length_c                   21.951(4)
_cell_angle_alpha                90
_cell_angle_beta                 100.59(1)
_cell_angle_gamma                90
_cell_volume                     2107.47
_exptl_crystal_colour            colorless
_chemical_melting_point          119-120.5deg.C
_cell_formula_units_Z            4
loop_
_atom_site_label
_atom_site_type_symbol
_atom_site_fract_x
_atom_site_fract_y
_atom_site_fract_z
S1 S 0.5548(1) 0.8100(1) 0.82117(5)
S2 S 0.6733(1) 1.0857(1) 0.82315(5)
C1 C 1.0106(4) 0.8161(5) 1.0668(2)
C2 C 1.0174(5) 0.6973(5) 1.1061(2)
C3 C 0.8752(5) 0.6764(4) 1.1280(2)
C4 C 0.7533(4) 0.6775(4) 1.0723(2)
C5 C 0.7549(4) 0.8004(4) 1.0350(2)
C6 C 0.6377(4) 0.8011(4) 0.9767(2)
C7 C 0.6309(4) 0.9251(4) 0.9403(2)
C8 C 0.5143(4) 0.9169(4) 0.8831(2)
C9 C 0.5199(4) 0.9847(4) 0.8242(2)
C10 C 0.3803(4) 1.0358(4) 0.7846(2)
C11 C 0.2540(4) 0.9439(4) 0.7652(2)
C12 C 0.1745(4) 0.9040(4) 0.8160(2)
C13 C 0.2644(4) 0.8309(4) 0.8699(2)
C14 C 0.1729(4) 0.7926(4) 0.9169(2)
C15 C 0.0420(4) 0.7163(5) 0.8842(2)
C16 C -0.0378(4) 0.7901(5) 0.8286(2)
C17 C 0.5466(5) 0.5607(4) 1.0892(2)
C18 C 0.3977(5) 0.5732(5) 1.1044(3)
C19 C 0.7154(5) 1.0467(5) 0.7494(2)
O1 O 0.8908(3) 0.8095(3) 1.0154(1)
O2 O 0.3798(3) 0.9092(3) 0.9024(1)
O3 O 0.0580(3) 0.8235(3) 0.7871(1)
O4 O 0.6132(3) 0.6731(3) 1.0916(1)
O5 O 0.5969(4) 0.4627(3) 1.0759(2)
H1 H 0.7696 0.6036 1.0483
H2 H 0.7380 0.8728 1.0610
H3 H 0.1476 0.9812 0.8347
H4 H 0.2986 0.7554 0.8514
H5 H 1.0006 0.8898 1.0920
H6 H 1.1001 0.8274 1.0512
H7 H 1.0367 0.6232 1.0809
H8 H 1.0975 0.7014 1.1402
H9 H 0.8739 0.5964 1.1504
H10 H 0.8591 0.7442 1.1561
H11 H 0.6568 0.7318 0.9504
H12 H 0.5449 0.7863 0.9876
H13 H 0.6126 0.9961 0.9660
H14 H 0.7241 0.9413 0.9287
H15 H 0.3461 1.1041 0.8071
H16 H 0.4051 1.0704 0.7475
H17 H 0.1844 0.9826 0.7330
H18 H 0.2890 0.8671 0.7489
H19 H 0.2308 0.7417 0.9497
H20 H 0.1427 0.8680 0.9364
H21 H 0.0752 0.6357 0.8699
H22 H -0.0216 0.6974 0.9121
H23 H -0.1173 0.7390 0.8066
H24 H -0.0789 0.8668 0.8423
H25 H 0.3450 0.6417 1.0827
H26 H 0.3430 0.4948 1.0947
H27 H 0.4048 0.5876 1.1483
H28 H 0.7237 0.9557 0.7463
H29 H 0.6407 1.0765 0.7174
H30 H 0.8046 1.0854 0.7452
loop_
_geom_bond_atom_site_label_1
_geom_bond_atom_site_label_2
_geom_bond_site_symmetry_1
_geom_bond_site_symmetry_2
S1 C8 1_555 1_555
S2 C9 1_555 1_555
C1 C2 1_555 1_555
C2 C3 1_555 1_555
C3 C4 1_555 1_555
C4 C5 1_555 1_555
C5 C6 1_555 1_555
C6 C7 1_555 1_555
C7 C8 1_555 1_555
C8 C9 1_555 1_555
C9 S1 1_555 1_555
C10 C9 1_555 1_555
C11 C10 1_555 1_555
C12 C11 1_555 1_555
C13 C12 1_555 1_555
C14 C13 1_555 1_555
C15 C14 1_555 1_555
C16 C15 1_555 1_555
C17 C18 1_555 1_555
C18 H25 1_555 1_555
C19 S2 1_555 1_555
O1 C1 1_555 1_555
O2 C8 1_555 1_555
O3 C12 1_555 1_555
O4 C4 1_555 1_555
O5 C17 1_555 1_555
H1 C4 1_555 1_555
H2 C5 1_555 1_555
H3 C12 1_555 1_555
H4 C13 1_555 1_555
H5 C1 1_555 1_555
H6 C1 1_555 1_555
H7 C2 1_555 1_555
H8 C2 1_555 1_555
H9 C3 1_555 1_555
H10 C3 1_555 1_555
H11 C6 1_555 1_555
H12 C6 1_555 1_555
H13 C7 1_555 1_555
H14 C7 1_555 1_555
H15 C10 1_555 1_555
H16 C10 1_555 1_555
H17 C11 1_555 1_555
H18 C11 1_555 1_555
H19 C14 1_555 1_555
H20 C14 1_555 1_555
H21 C15 1_555 1_555
H22 C15 1_555 1_555
H23 C16 1_555 1_555
H24 C16 1_555 1_555
H26 C18 1_555 1_555
H27 C18 1_555 1_555
H28 C19 1_555 1_555
H29 C19 1_555 1_555
H30 C19 1_555 1_555
C5 O1 1_555 1_555
C13 O2 1_555 1_555
C16 O3 1_555 1_555
C17 O4 1_555 1_555

#END
