
#######################################################################
#
#                 Cambridge Crystallographic Data Centre
#                                CCDC 
#
#######################################################################
#
# If this CIF has been generated from an entry in the Cambridge 
# Structural Database, then it will include bibliographic, chemical, 
# crystal, experimental, refinement or atomic coordinate data resulting 
# from the CCDC's data processing and validation procedures.
#
#######################################################################

data_GEVQUV
_chemical_formula_moiety         'C42 H36 N6 O6'
_chemical_name_systematic        
'Diethyl 4,8-dioxo-2,6-bis(4-(phenylethynyl)phenyl)tetrahydro-1H,5H-2,3a,4a,6,7a,8a-hexa-azacyclopenta[def]fluorene-8b,8c-dicarboxylate'
_symmetry_cell_setting           orthorhombic
_symmetry_space_group_name_H-M   'P b c a'
_symmetry_Int_Tables_number      61
_space_group_name_Hall           '-P 2ac 2ab'
loop_
_symmetry_equiv_pos_site_id
_symmetry_equiv_pos_as_xyz
1 x,y,z
2 1/2-x,-y,1/2+z
3 -x,1/2+y,1/2-z
4 1/2+x,1/2-y,-z
5 -x,-y,-z
6 1/2+x,y,1/2-z
7 x,1/2-y,1/2+z
8 1/2-x,1/2+y,z
_cell_length_a                   12.7639(5)
_cell_length_b                   16.9727(7)
_cell_length_c                   34.2069(14)
_cell_angle_alpha                90
_cell_angle_beta                 90
_cell_angle_gamma                90
_cell_volume                     7410.51
_exptl_crystal_colour            colorless
_exptl_crystal_description       block
_cell_formula_units_Z            8
loop_
_atom_site_label
_atom_site_type_symbol
_atom_site_fract_x
_atom_site_fract_y
_atom_site_fract_z
C1 C 0.211(2) 0.0412(18) 0.7659(5)
H1 H 0.1535 0.0309 0.7819
C2 C 0.217(3) 0.0074(14) 0.7290(5)
H2 H 0.1637 -0.0256 0.7203
C3 C 0.303(3) 0.0228(11) 0.7051(3)
H3 H 0.3067 0.0002 0.6804
C4 C 0.3823(17) 0.072(2) 0.7182(5)
H4 H 0.4396 0.0825 0.7022
C5 C 0.3762(19) 0.106(2) 0.7551(6)
H5 H 0.4295 0.1389 0.7639
C6 C 0.290(2) 0.0905(13) 0.7790(4)
C7 C 0.2885(3) 0.1259(2) 0.81756(10)
C8 C 0.2834(3) 0.1526(2) 0.84985(10)
C9 C 0.2715(2) 0.17820(19) 0.88964(9)
C10 C 0.1734(2) 0.18052(17) 0.90661(9)
H6 H 0.1150 0.1696 0.8913
C11 C 0.1592(2) 0.19822(16) 0.94511(8)
H7 H 0.0917 0.1989 0.9553
C12 C 0.24401(19) 0.21546(13) 0.96963(7)
C13 C 0.3422(2) 0.2166(2) 0.95207(9)
H8 H 0.4005 0.2303 0.9669
C14 C 0.3549(2) 0.1982(2) 0.91361(10)
H9 H 0.4220 0.1990 0.9030
C15 C 0.13072(18) 0.24206(13) 1.02757(8)
H10 H 0.1212 0.2130 1.0517
H11 H 0.0750 0.2270 1.0098
C16 C 0.31573(19) 0.24552(13) 1.03619(8)
H12 H 0.3825 0.2331 1.0241
H13 H 0.3112 0.2167 1.0606
C17 C 0.09506(17) 0.37827(13) 1.00549(7)
C18 C 0.36798(18) 0.38624(13) 1.02514(7)
C19 C 0.21001(18) 0.36020(13) 1.05774(7)
C20 C 0.2045(2) 0.34781(16) 1.10206(8)
C21 C 0.1300(18) 0.2792(10) 1.1544(3)
H14 H 0.0622 0.2862 1.1667
H15 H 0.1818 0.3096 1.1686
C22 C 0.160(2) 0.1931(9) 1.1528(6)
H16 H 0.1156 0.1663 1.1344
H17 H 0.1516 0.1701 1.1782
H18 H 0.2317 0.1884 1.1447
C23 C 0.21486(17) 0.44809(13) 1.04479(7)
C24 C 0.1842(2) 0.51008(15) 1.07540(8)
C25 C 0.0514(3) 0.5451(2) 1.12075(10)
H19 H 0.1079 0.5655 1.1368
H20 H 0.0156 0.5892 1.1086
C26 C -0.0218(4) 0.4998(3) 1.14476(12)
H21 H -0.0754 0.4778 1.1284
H22 H -0.0532 0.5339 1.1639
H23 H 0.0153 0.4581 1.1578
C27 C 0.15796(19) 0.51076(14) 0.98233(8)
H24 H 0.1135 0.5001 0.9599
H25 H 0.1385 0.5618 0.9928
C28 C 0.3363(2) 0.52214(13) 1.00285(7)
H26 H 0.3234 0.5726 1.0153
H27 H 0.4082 0.5217 0.9937
C29 C 0.3015(2) 0.47397(14) 0.93580(8)
C30 C 0.2396(2) 0.42121(18) 0.91506(9)
H28 H 0.1749 0.4062 0.9251
C31 C 0.2729(3) 0.3907(2) 0.87972(9)
H29 H 0.2297 0.3559 0.8662
C32 C 0.3692(3) 0.41071(19) 0.86398(9)
C33 C 0.4331(3) 0.46035(19) 0.88617(10)
H30 H 0.4998 0.4727 0.8771
C34 C 0.4000(2) 0.49101(18) 0.92071(9)
H31 H 0.4444 0.5242 0.9346
C35 C 0.4021(3) 0.3814(2) 0.82664(11)
C36 C 0.4307(3) 0.3595(2) 0.79519(10)
C37 C 0.4636(14) 0.3315(10) 0.7571(3)
C38 C 0.5679(13) 0.3386(17) 0.7459(3)
H32 H 0.6156 0.3633 0.7624
C39 C 0.6008(14) 0.3088(18) 0.7101(4)
H33 H 0.6706 0.3136 0.7027
C40 C 0.529(2) 0.2719(10) 0.6855(3)
H34 H 0.5515 0.2520 0.6615
C41 C 0.425(2) 0.2648(10) 0.6967(4)
H35 H 0.3774 0.2401 0.6802
C42 C 0.3923(16) 0.2946(12) 0.7325(4)
H36 H 0.3225 0.2899 0.7399
N1 N 0.23098(15) 0.22108(11) 1.01045(6)
N2 N 0.12340(14) 0.32725(11) 1.03569(6)
N3 N 0.31044(14) 0.32989(10) 1.04404(6)
N4 N 0.14025(14) 0.45006(11) 1.01226(6)
N5 N 0.32173(14) 0.45894(10) 1.03160(6)
N6 N 0.26614(15) 0.51306(12) 0.96981(6)
O1 O 0.03760(13) 0.36198(10) 0.97841(5)
O2 O 0.44879(13) 0.37519(9) 1.00732(6)
O3 O 0.2681(2) 0.37646(17) 1.12291(6)
O4 O 0.12668(16) 0.30291(13) 1.11286(5)
O5 O 0.23433(18) 0.56765(13) 1.08237(7)
O6 O 0.09314(15) 0.49216(12) 1.09074(6)
C43? C 0.191(2) 0.064(2) 0.7664(6)
H37? H 0.1313 0.0720 0.7816
C44? C 0.182(3) 0.029(2) 0.7299(6)
H38? H 0.1167 0.0128 0.7207
C45? C 0.271(3) 0.0173(11) 0.7070(4)
H39? H 0.2649 -0.0064 0.6826
C46? C 0.368(2) 0.041(2) 0.7207(5)
H40? H 0.4276 0.0336 0.7054
C47? C 0.3770(19) 0.077(2) 0.7572(6)
H41? H 0.4422 0.0927 0.7663
C48? C 0.288(2) 0.0882(14) 0.7800(4)
C49? C 0.114(3) 0.273(2) 1.1525(5)
H42? H 0.0463 0.2468 1.1549
H43? H 0.1166 0.3155 1.1711
C50? C 0.200(3) 0.214(2) 1.1609(10)
H44? H 0.1902 0.1679 1.1454
H45? H 0.1993 0.2007 1.1881
H46? H 0.2668 0.2378 1.1545
C51? C 0.473(2) 0.3360(14) 0.7587(4)
C52? C 0.5686(18) 0.3671(18) 0.7464(4)
H47? H 0.6020 0.4055 0.7613
C53? C 0.6140(13) 0.341(2) 0.7118(5)
H48? H 0.6777 0.3617 0.7036
C54? C 0.564(2) 0.2835(11) 0.6896(4)
H49? H 0.5946 0.2659 0.6665
C55? C 0.469(3) 0.2524(13) 0.7019(6)
H50? H 0.4357 0.2140 0.6870
C56? C 0.424(3) 0.2787(17) 0.7364(7)
H51? H 0.3599 0.2579 0.7447
loop_
_geom_bond_atom_site_label_1
_geom_bond_atom_site_label_2
_geom_bond_site_symmetry_1
_geom_bond_site_symmetry_2
C1 H1 1_555 1_555
C2 C1 1_555 1_555
H2 C2 1_555 1_555
C3 C2 1_555 1_555
H3 C3 1_555 1_555
C4 C3 1_555 1_555
H4 C4 1_555 1_555
C5 C4 1_555 1_555
H5 C5 1_555 1_555
C6 C1 1_555 1_555
C7 C6 1_555 1_555
C8 C7 1_555 1_555
C9 C8 1_555 1_555
C10 C9 1_555 1_555
H6 C10 1_555 1_555
C11 C10 1_555 1_555
H7 C11 1_555 1_555
C12 C11 1_555 1_555
C13 C12 1_555 1_555
H8 C13 1_555 1_555
C14 C9 1_555 1_555
H9 C14 1_555 1_555
C15 H10 1_555 1_555
H11 C15 1_555 1_555
C16 H12 1_555 1_555
H13 C16 1_555 1_555
C17 N2 1_555 1_555
C18 N3 1_555 1_555
C19 C20 1_555 1_555
C20 O3 1_555 1_555
C21 H14 1_555 1_555
H15 C21 1_555 1_555
C22 C21 1_555 1_555
H16 C22 1_555 1_555
H17 C22 1_555 1_555
H18 C22 1_555 1_555
C23 C19 1_555 1_555
C24 C23 1_555 1_555
C25 H19 1_555 1_555
H20 C25 1_555 1_555
C26 C25 1_555 1_555
H21 C26 1_555 1_555
H22 C26 1_555 1_555
H23 C26 1_555 1_555
C27 H24 1_555 1_555
H25 C27 1_555 1_555
C28 H26 1_555 1_555
H27 C28 1_555 1_555
C29 C30 1_555 1_555
C30 H28 1_555 1_555
C31 C30 1_555 1_555
H29 C31 1_555 1_555
C32 C31 1_555 1_555
C33 C32 1_555 1_555
H30 C33 1_555 1_555
C34 C29 1_555 1_555
H31 C34 1_555 1_555
C35 C32 1_555 1_555
C36 C35 1_555 1_555
C37 C36 1_555 1_555
C38 C37 1_555 1_555
H32 C38 1_555 1_555
C39 C38 1_555 1_555
H33 C39 1_555 1_555
C40 C39 1_555 1_555
H34 C40 1_555 1_555
C41 C40 1_555 1_555
H35 C41 1_555 1_555
C42 C37 1_555 1_555
H36 C42 1_555 1_555
N1 C12 1_555 1_555
N2 C15 1_555 1_555
N3 C16 1_555 1_555
N4 C17 1_555 1_555
N5 C18 1_555 1_555
N6 C27 1_555 1_555
O1 C17 1_555 1_555
O2 C18 1_555 1_555
O4 C20 1_555 1_555
O5 C24 1_555 1_555
O6 C24 1_555 1_555
C5 C6 1_555 1_555
C13 C14 1_555 1_555
C15 N1 1_555 1_555
C16 N1 1_555 1_555
C19 N2 1_555 1_555
C19 N3 1_555 1_555
C21 O4 1_555 1_555
C23 N4 1_555 1_555
C23 N5 1_555 1_555
C25 O6 1_555 1_555
C27 N4 1_555 1_555
C28 N5 1_555 1_555
C28 N6 1_555 1_555
C29 N6 1_555 1_555
C33 C34 1_555 1_555
C41 C42 1_555 1_555

#END
