
#######################################################################
#
#                 Cambridge Crystallographic Data Centre
#                                CCDC 
#
#######################################################################
#
# If this CIF has been generated from an entry in the Cambridge 
# Structural Database, then it will include bibliographic, chemical, 
# crystal, experimental, refinement or atomic coordinate data resulting 
# from the CCDC's data processing and validation procedures.
#
#######################################################################

data_GEWQAC
_chemical_formula_moiety         'C22 H25 N1 O3 S1'
_chemical_name_systematic        
4-Methyl-N-(5-methyl-4-oxo-2-phenyl-3-propylcyclopent-2-en-1-yl)benzenesulfonamide
_symmetry_cell_setting           monoclinic
_symmetry_space_group_name_H-M   'P 21'
_symmetry_Int_Tables_number      4
_space_group_name_Hall           'P 2ybc'
loop_
_symmetry_equiv_pos_site_id
_symmetry_equiv_pos_as_xyz
1 x,y,z
2 -x,1/2+y,1/2-z
_cell_length_a                   12.8525(4)
_cell_length_b                   8.9319(3)
_cell_length_c                   19.3506(7)
_cell_angle_alpha                90
_cell_angle_beta                 107.583(2)
_cell_angle_gamma                90
_cell_volume                     2117.61
_exptl_crystal_colour            colorless
_exptl_crystal_description       block
_cell_formula_units_Z            4
loop_
_atom_site_label
_atom_site_type_symbol
_atom_site_fract_x
_atom_site_fract_y
_atom_site_fract_z
S1 S 0.67808(12) 1.01059(17) 0.45836(8)
O1 O 0.6386(3) 0.9740(7) 0.51753(17)
O2 O 0.7243(3) 1.1535(5) 0.4558(3)
O3 O 0.3690(4) 0.6118(6) 0.23600(18)
N1 N 0.5781(4) 0.9932(6) 0.3851(2)
H1 H 0.5736 1.0574 0.3512
C1 C 1.0096(6) 0.5545(10) 0.4390(5)
H2 H 1.0325 0.5712 0.3968
H3 H 0.9785 0.4562 0.4367
H4 H 1.0713 0.5627 0.4817
C2 C 0.9288(6) 0.6651(12) 0.4417(5)
C3 C 0.8997(6) 0.7822(11) 0.3965(4)
H5 H 0.9310 0.7924 0.3593
C4 C 0.8234(5) 0.8905(8) 0.4032(3)
H6 H 0.8052 0.9697 0.3705
C5 C 0.7763(5) 0.8796(8) 0.4573(3)
C6 C 0.8088(6) 0.7670(11) 0.5067(4)
H7 H 0.7796 0.7578 0.5450
C7 C 0.8855(7) 0.6673(11) 0.4985(5)
H8 H 0.9102 0.5952 0.5344
C8 C 0.4949(4) 0.8777(7) 0.3716(3)
H9 H 0.4905 0.8411 0.4184
C9 C 0.3827(4) 0.9451(6) 0.3293(2)
C10 C 0.3502(5) 1.0934(7) 0.3480(3)
C11 C 0.3760(5) 1.1399(8) 0.4191(3)
H10 H 0.4164 1.0770 0.4557
C12 C 0.3434(6) 1.2774(9) 0.4373(3)
H11 H 0.3594 1.3052 0.4857
C13 C 0.2877(6) 1.3722(8) 0.3840(4)
H12 H 0.2659 1.4658 0.3955
C14 C 0.2637(5) 1.3280(8) 0.3127(4)
H13 H 0.2265 1.3938 0.2764
C15 C 0.2930(4) 1.1904(8) 0.2934(3)
H14 H 0.2750 1.1624 0.2450
C16 C 0.5571(5) 0.6040(8) 0.3680(3)
H15 H 0.5651 0.5295 0.3342
H16 H 0.5097 0.5667 0.3940
H17 H 0.6273 0.6265 0.4015
C17 C 0.5083(5) 0.7454(7) 0.3271(3)
H18 H 0.5561 0.7766 0.2987
C18 C 0.3953(5) 0.7237(8) 0.2747(3)
C19 C 0.3294(4) 0.8525(7) 0.2781(3)
C20 C 0.2122(4) 0.8510(8) 0.2294(3)
H19 H 0.2093 0.8056 0.1833
H20 H 0.1861 0.9532 0.2201
C21 C 0.1366(5) 0.7633(13) 0.2639(5)
H21 H 0.1691 0.6661 0.2791
H22 H 0.1336 0.8164 0.3069
C22 C 0.0277(6) 0.7413(14) 0.2178(5)
H23 H -0.0118 0.6809 0.2424
H24 H 0.0295 0.6917 0.1742
H25 H -0.0078 0.8366 0.2059
S2 S 0.32269(12) 0.68841(17) 0.54208(9)
O4 O 0.2770(3) 0.5443(5) 0.5463(2)
O5 O 0.3619(3) 0.7276(7) 0.48226(17)
O6 O 0.6340(3) 1.0889(6) 0.76335(17)
N2 N 0.4207(3) 0.7065(6) 0.6155(2)
H26 H 0.4225 0.6455 0.6503
C23 C -0.0110(6) 1.1724(12) 0.5602(6)
H27 H -0.0418 1.1471 0.5981
H28 H -0.0686 1.1849 0.5155
H29 H 0.0295 1.2641 0.5722
C24 C 0.0712(5) 1.0370(10) 0.5511(6)
C25 C 0.1228(6) 1.0512(11) 0.5008(5)
H30 H 0.1089 1.1334 0.4699
C26 C 0.1982(5) 0.9408(11) 0.4948(4)
H31 H 0.2305 0.9453 0.4579
C27 C 0.2233(5) 0.8250(7) 0.5453(3)
C28 C 0.1722(5) 0.8188(8) 0.5981(3)
H32 H 0.1881 0.7419 0.6321
C29 C 0.0988(6) 0.9249(11) 0.6002(4)
H33 H 0.0658 0.9209 0.6368
C30 C 0.5068(4) 0.8171(7) 0.6283(3)
H34 H 0.5112 0.8524 0.5813
C31 C 0.6152(4) 0.7555(6) 0.6703(3)
C32 C 0.6505(4) 0.6080(6) 0.6516(3)
C33 C 0.7046(5) 0.5062(8) 0.7041(3)
H35 H 0.7202 0.5335 0.7525
C34 C 0.7365(5) 0.3659(7) 0.6881(3)
H36 H 0.7740 0.3008 0.7246
C35 C 0.7110(5) 0.3263(8) 0.6165(4)
H37 H 0.7322 0.2330 0.6042
C36 C 0.6551(6) 0.4213(8) 0.5632(3)
H38 H 0.6386 0.3915 0.5151
C37 C 0.6222(5) 0.5610(7) 0.5791(3)
H39 H 0.5818 0.6232 0.5421
C38 C 0.4463(6) 1.0975(10) 0.6305(4)
H40 H 0.4430 1.1762 0.6636
H41 H 0.3744 1.0782 0.5985
H42 H 0.4933 1.1272 0.6027
C39 C 0.4914(4) 0.9554(7) 0.6733(3)
H43 H 0.4422 0.9267 0.7010
C40 C 0.6014(5) 0.9803(7) 0.7249(3)
C41 C 0.6740(5) 0.8510(7) 0.7238(3)
C42 C 0.7884(4) 0.8424(9) 0.7712(3)
H44 H 0.8142 0.7399 0.7738
H45 H 0.7927 0.8751 0.8198
C43 C 0.8653(5) 0.9518(8) 0.7371(4)
H46 H 0.8695 0.9082 0.6921
H47 H 0.8300 1.0486 0.7257
C44 C 0.9745(7) 0.9740(15) 0.7847(4)
H48 H 1.0147 1.0354 0.7609
H49 H 1.0102 0.8789 0.7966
H50 H 0.9715 1.0226 0.8283
loop_
_geom_bond_atom_site_label_1
_geom_bond_atom_site_label_2
_geom_bond_site_symmetry_1
_geom_bond_site_symmetry_2
S1 O1 1_555 1_555
O2 S1 1_555 1_555
O3 C18 1_555 1_555
N1 S1 1_555 1_555
H1 N1 1_555 1_555
C1 H2 1_555 1_555
H3 C1 1_555 1_555
H4 C1 1_555 1_555
C2 C1 1_555 1_555
C3 C2 1_555 1_555
H5 C3 1_555 1_555
C4 C3 1_555 1_555
H6 C4 1_555 1_555
C5 S1 1_555 1_555
C6 C5 1_555 1_555
H7 C6 1_555 1_555
C7 C2 1_555 1_555
H8 C7 1_555 1_555
C8 N1 1_555 1_555
H9 C8 1_555 1_555
C9 C8 1_555 1_555
C10 C9 1_555 1_555
C11 C10 1_555 1_555
H10 C11 1_555 1_555
C12 C11 1_555 1_555
H11 C12 1_555 1_555
C13 C12 1_555 1_555
H12 C13 1_555 1_555
C14 C13 1_555 1_555
H13 C14 1_555 1_555
C15 C10 1_555 1_555
H14 C15 1_555 1_555
C16 H15 1_555 1_555
H16 C16 1_555 1_555
H17 C16 1_555 1_555
C17 C8 1_555 1_555
H18 C17 1_555 1_555
C18 C17 1_555 1_555
C19 C9 1_555 1_555
C20 C19 1_555 1_555
H19 C20 1_555 1_555
H20 C20 1_555 1_555
C21 C20 1_555 1_555
H21 C21 1_555 1_555
H22 C21 1_555 1_555
C22 C21 1_555 1_555
H23 C22 1_555 1_555
H24 C22 1_555 1_555
H25 C22 1_555 1_555
S2 O4 1_555 1_555
O5 S2 1_555 1_555
O6 C40 1_555 1_555
N2 S2 1_555 1_555
H26 N2 1_555 1_555
C23 H27 1_555 1_555
H28 C23 1_555 1_555
H29 C23 1_555 1_555
C24 C23 1_555 1_555
C25 C24 1_555 1_555
H30 C25 1_555 1_555
C26 C25 1_555 1_555
H31 C26 1_555 1_555
C27 S2 1_555 1_555
C28 C27 1_555 1_555
H32 C28 1_555 1_555
C29 C24 1_555 1_555
H33 C29 1_555 1_555
C30 N2 1_555 1_555
H34 C30 1_555 1_555
C31 C30 1_555 1_555
C32 C31 1_555 1_555
C33 C32 1_555 1_555
H35 C33 1_555 1_555
C34 C33 1_555 1_555
H36 C34 1_555 1_555
C35 C34 1_555 1_555
H37 C35 1_555 1_555
C36 C35 1_555 1_555
H38 C36 1_555 1_555
C37 C32 1_555 1_555
H39 C37 1_555 1_555
C38 H40 1_555 1_555
H41 C38 1_555 1_555
H42 C38 1_555 1_555
C39 C30 1_555 1_555
H43 C39 1_555 1_555
C40 C39 1_555 1_555
C41 C31 1_555 1_555
C42 C41 1_555 1_555
H44 C42 1_555 1_555
H45 C42 1_555 1_555
C43 C42 1_555 1_555
H46 C43 1_555 1_555
H47 C43 1_555 1_555
C44 C43 1_555 1_555
H48 C44 1_555 1_555
H49 C44 1_555 1_555
H50 C44 1_555 1_555
C4 C5 1_555 1_555
C6 C7 1_555 1_555
C14 C15 1_555 1_555
C16 C17 1_555 1_555
C18 C19 1_555 1_555
C26 C27 1_555 1_555
C28 C29 1_555 1_555
C36 C37 1_555 1_555
C38 C39 1_555 1_555
C40 C41 1_555 1_555

#END
