
#######################################################################
#
#                 Cambridge Crystallographic Data Centre
#                                CCDC 
#
#######################################################################
#
# If this CIF has been generated from an entry in the Cambridge 
# Structural Database, then it will include bibliographic, chemical, 
# crystal, experimental, refinement or atomic coordinate data resulting 
# from the CCDC's data processing and validation procedures.
#
#######################################################################

data_GEXBOD
_chemical_formula_moiety         'C30 H44 O6,H2 O1'
_chemical_name_systematic        
"3',4',7-trihydroxy-1,1,4',7a,8,12a-hexamethyl-1,3,4,6,7,7a,7b,8,9,11a,12,12a,14,14a-tetradecahydro-2H,5H-spiro[cyclopropa[1',8a']naphtho[2',1':4,5]indeno[2,1-b]pyran-10,2'-oxolan]-2-one monohydrate"
_symmetry_cell_setting           monoclinic
_symmetry_space_group_name_H-M   'P 21'
_symmetry_Int_Tables_number      4
_space_group_name_Hall           'P 2yb'
loop_
_symmetry_equiv_pos_site_id
_symmetry_equiv_pos_as_xyz
1 x,y,z
2 -x,1/2+y,-z
_cell_length_a                   6.1629(2)
_cell_length_b                   18.1237(6)
_cell_length_c                   12.4853(4)
_cell_angle_alpha                90
_cell_angle_beta                 102.545(2)
_cell_angle_gamma                90
_cell_volume                     1361.25
_exptl_crystal_colour            colorless
_exptl_crystal_description       prism
_cell_formula_units_Z            2
loop_
_atom_site_label
_atom_site_type_symbol
_atom_site_fract_x
_atom_site_fract_y
_atom_site_fract_z
O1 O -0.0126(3) 0.07584(12) 0.81690(17)
H1 H 0.1052 0.0483 0.8234
H2 H -0.0103 0.1047 0.7628
O2 O 0.1126(3) 0.17894(11) 0.65907(17)
O3 O 0.3647(3) 0.76895(11) 0.72763(16)
O4 O 0.5739(3) 0.85337(12) 0.83836(16)
O5 O 0.3683(3) 0.99251(11) 0.83921(16)
H3 H 0.4738 1.0165 0.8776
O6 O 0.2772(4) 0.87975(12) 0.59552(16)
H4 H 0.3307 0.8371 0.5958
O7 O 0.2843(3) 0.57256(12) 1.03689(15)
H5 H 0.1899 0.5781 1.0757
C1 C 0.2445(5) 0.22650(16) 0.6977(2)
C2 C 0.3032(5) 0.24184(16) 0.8190(2)
H6 H 0.4652 0.2358 0.8472
H7 H 0.2250 0.2066 0.8581
C3 C 0.2336(5) 0.32129(16) 0.8391(2)
H8 H 0.0693 0.3247 0.8209
H9 H 0.2852 0.3334 0.9179
C4 C 0.3281(5) 0.37710(16) 0.7713(2)
C5 C 0.3070(5) 0.45874(15) 0.8000(2)
C6 C 0.2685(5) 0.51170(15) 0.7055(2)
C7 C 0.1690(4) 0.58490(15) 0.7253(2)
C8 C 0.2260(5) 0.65051(16) 0.6587(2)
H10 H 0.3837 0.6487 0.6531
H11 H 0.1306 0.6508 0.5839
C9 C 0.1813(5) 0.71848(16) 0.7235(2)
H12 H 0.0393 0.7425 0.6854
C10 C 0.3509(5) 0.83570(16) 0.7864(2)
C11 C 0.2691(5) 0.90039(16) 0.7047(2)
H13 H 0.1156 0.9162 0.7089
C12 C 0.4376(5) 0.96186(16) 0.7454(2)
C13 C 0.4549(5) 1.02098(17) 0.6622(3)
H14 H 0.3120 1.0466 0.6403
H15 H 0.4934 0.9982 0.5976
H16 H 0.5705 1.0565 0.6947
C14 C 0.5322(5) 0.41974(16) 0.8255(2)
H17 H 0.6402 0.4326 0.7803
H18 H 0.5991 0.4086 0.9033
C15 C 0.1958(5) 0.47665(15) 0.8955(2)
H19 H 0.2814 0.4517 0.9618
H20 H 0.0454 0.4545 0.8788
C16 C 0.1717(4) 0.55958(16) 0.9245(2)
H21 H 0.0100 0.5700 0.9181
C17 C 0.2572(4) 0.61215(15) 0.8467(2)
C18 C 0.3070(5) 0.49280(17) 0.6084(2)
H22 H 0.2911 0.5295 0.5529
C19 C 0.3745(5) 0.41618(17) 0.5817(2)
H23 H 0.5387 0.4127 0.5978
H24 H 0.3186 0.4064 0.5025
C20 C 0.2811(5) 0.35813(16) 0.6490(2)
H25 H 0.1158 0.3599 0.6230
C21 C 0.3524(5) 0.27780(16) 0.6264(2)
C22 C 0.6053(5) 0.26675(17) 0.6569(2)
H26 H 0.6396 0.2141 0.6545
H27 H 0.6637 0.2857 0.7311
H28 H 0.6741 0.2935 0.6047
C23 C 0.2639(5) 0.25770(17) 0.5061(2)
H29 H 0.2917 0.2053 0.4951
H30 H 0.3394 0.2876 0.4599
H31 H 0.1036 0.2673 0.4861
C24 C 0.1610(4) 0.69170(15) 0.8391(2)
H32 H -0.0016 0.6866 0.8367
C25 C 0.2496(4) 0.74984(15) 0.9270(2)
H33 H 0.4121 0.7418 0.9567
C26 C 0.2128(5) 0.82560(16) 0.8719(2)
H34 H 0.0535 0.8313 0.8367
H35 H 0.2520 0.8645 0.9285
C27 C 0.6452(5) 0.91563(16) 0.7852(2)
H36 H 0.7091 0.8998 0.7227
H37 H 0.7589 0.9441 0.8372
C28 C 0.1260(5) 0.74725(16) 1.0208(2)
H38 H 0.1785 0.7874 1.0725
H39 H 0.1542 0.6998 1.0589
H40 H -0.0339 0.7529 0.9911
C29 C -0.0871(5) 0.57418(17) 0.6952(2)
H41 H -0.1337 0.5613 0.6174
H42 H -0.1602 0.6201 0.7093
H43 H -0.1289 0.5344 0.7400
C30 C 0.5138(4) 0.61437(15) 0.8766(2)
H44 H 0.5642 0.6271 0.9544
H45 H 0.5673 0.6516 0.8316
H46 H 0.5727 0.5659 0.8629
loop_
_geom_bond_atom_site_label_1
_geom_bond_atom_site_label_2
_geom_bond_site_symmetry_1
_geom_bond_site_symmetry_2
O1 H1 1_555 1_555
H2 O1 1_555 1_555
O2 C1 1_555 1_555
O3 C9 1_555 1_555
O4 C10 1_555 1_555
O5 H3 1_555 1_555
O6 H4 1_555 1_555
O7 H5 1_555 1_555
C1 C2 1_555 1_555
C2 H6 1_555 1_555
H7 C2 1_555 1_555
C3 C2 1_555 1_555
H8 C3 1_555 1_555
H9 C3 1_555 1_555
C4 C3 1_555 1_555
C5 C4 1_555 1_555
C6 C5 1_555 1_555
C7 C6 1_555 1_555
C8 C7 1_555 1_555
H10 C8 1_555 1_555
H11 C8 1_555 1_555
C9 C8 1_555 1_555
H12 C9 1_555 1_555
C10 O3 1_555 1_555
C11 O6 1_555 1_555
H13 C11 1_555 1_555
C12 O5 1_555 1_555
C13 C12 1_555 1_555
H14 C13 1_555 1_555
H15 C13 1_555 1_555
H16 C13 1_555 1_555
C14 C4 1_555 1_555
H17 C14 1_555 1_555
H18 C14 1_555 1_555
C15 C5 1_555 1_555
H19 C15 1_555 1_555
H20 C15 1_555 1_555
C16 O7 1_555 1_555
H21 C16 1_555 1_555
C17 C7 1_555 1_555
C18 C6 1_555 1_555
H22 C18 1_555 1_555
C19 C18 1_555 1_555
H23 C19 1_555 1_555
H24 C19 1_555 1_555
C20 C4 1_555 1_555
H25 C20 1_555 1_555
C21 C1 1_555 1_555
C22 C21 1_555 1_555
H26 C22 1_555 1_555
H27 C22 1_555 1_555
H28 C22 1_555 1_555
C23 C21 1_555 1_555
H29 C23 1_555 1_555
H30 C23 1_555 1_555
H31 C23 1_555 1_555
C24 C9 1_555 1_555
H32 C24 1_555 1_555
C25 C24 1_555 1_555
H33 C25 1_555 1_555
C26 C10 1_555 1_555
H34 C26 1_555 1_555
H35 C26 1_555 1_555
C27 O4 1_555 1_555
H36 C27 1_555 1_555
H37 C27 1_555 1_555
C28 C25 1_555 1_555
H38 C28 1_555 1_555
H39 C28 1_555 1_555
H40 C28 1_555 1_555
C29 C7 1_555 1_555
H41 C29 1_555 1_555
H42 C29 1_555 1_555
H43 C29 1_555 1_555
C30 C17 1_555 1_555
H44 C30 1_555 1_555
H45 C30 1_555 1_555
H46 C30 1_555 1_555
C5 C14 1_555 1_555
C10 C11 1_555 1_555
C11 C12 1_555 1_555
C12 C27 1_555 1_555
C15 C16 1_555 1_555
C16 C17 1_555 1_555
C17 C24 1_555 1_555
C19 C20 1_555 1_555
C20 C21 1_555 1_555
C25 C26 1_555 1_555

#END
