
#######################################################################
#
#                 Cambridge Crystallographic Data Centre
#                                CCDC 
#
#######################################################################
#
# If this CIF has been generated from an entry in the Cambridge 
# Structural Database, then it will include bibliographic, chemical, 
# crystal, experimental, refinement or atomic coordinate data resulting 
# from the CCDC's data processing and validation procedures.
#
#######################################################################

data_GEXKID
_chemical_formula_moiety         'C8 H9 N3 O1 S1'
_chemical_name_systematic        'Salicylaldehyde thiosemicarbazone'
_chemical_properties_biological  'antibacterial activity'
_symmetry_cell_setting           monoclinic
_symmetry_space_group_name_H-M   'C 2/c'
_symmetry_Int_Tables_number      15
_space_group_name_Hall           '-C 2yn'
loop_
_symmetry_equiv_pos_site_id
_symmetry_equiv_pos_as_xyz
1 x,y,z
2 1/2+x,1/2+y,z
3 -x,y,1/2-z
4 1/2-x,1/2+y,1/2-z
5 -x,-y,-z
6 1/2-x,1/2-y,-z
7 x,-y,1/2+z
8 1/2+x,1/2-y,1/2+z
_cell_length_a                   14.206(3)
_cell_length_b                   14.244(4)
_cell_length_c                   10.457(4)
_cell_angle_alpha                90
_cell_angle_beta                 116.18(2)
_cell_angle_gamma                90
_cell_volume                     1898.9
_exptl_crystal_colour            yellowish
_cell_formula_units_Z            8
loop_
_atom_site_label
_atom_site_type_symbol
_atom_site_fract_x
_atom_site_fract_y
_atom_site_fract_z
S1 S 0.2994(1) 0.8935(1) 0.5844(1)
O1 O 0.4041(2) 0.8619(1) 0.0696(2)
N1 N 0.3613(2) 0.9636(2) 0.4006(3)
N2 N 0.3205(2) 0.8070(2) 0.3771(2)
N3 N 0.3473(2) 0.7999(1) 0.2657(2)
C1 C 0.3729(2) 0.6987(2) 0.1009(2)
C2 C 0.4012(2) 0.7705(2) 0.0319(2)
C3 C 0.4264(2) 0.7488(2) -0.0796(3)
C4 C 0.4230(2) 0.6571(3) -0.1224(3)
C5 C 0.3951(3) 0.5860(3) -0.0560(4)
C6 C 0.3706(2) 0.6060(2) 0.0545(3)
C7 C 0.3295(2) 0.8891(2) 0.4453(3)
C8 C 0.3461(2) 0.7174(2) 0.2174(2)
H1 H 0.377(2) 0.960(2) 0.336(3)
H2 H 0.371(2) 1.019(2) 0.452(3)
H3 H 0.295(2) 0.756(2) 0.400(3)
H4 H 0.387(2) 0.865(2) 0.131(3)
H5 H 0.446(2) 0.804(2) -0.118(3)
H6 H 0.438(2) 0.635(2) -0.203(3)
H7 H 0.391(2) 0.526(1) -0.085(3)
H8 H 0.351(2) 0.552(2) 0.108(3)
H9 H 0.330(2) 0.663(2) 0.258(3)
loop_
_geom_bond_atom_site_label_1
_geom_bond_atom_site_label_2
_geom_bond_site_symmetry_1
_geom_bond_site_symmetry_2
S1 C7 1_555 1_555
O1 C2 1_555 1_555
N1 C7 1_555 1_555
N2 N3 1_555 1_555
N3 C8 1_555 1_555
C1 C2 1_555 1_555
C2 C3 1_555 1_555
C3 C4 1_555 1_555
C4 C5 1_555 1_555
C5 C6 1_555 1_555
C6 C1 1_555 1_555
C7 N2 1_555 1_555
C8 C1 1_555 1_555
H1 N1 1_555 1_555
H2 N1 1_555 1_555
H3 N2 1_555 1_555
H4 O1 1_555 1_555
H5 C3 1_555 1_555
H6 C4 1_555 1_555
H7 C5 1_555 1_555
H8 C6 1_555 1_555
H9 C8 1_555 1_555

#END
