
#######################################################################
#
#                 Cambridge Crystallographic Data Centre
#                                CCDC 
#
#######################################################################
#
# If this CIF has been generated from an entry in the Cambridge 
# Structural Database, then it will include bibliographic, chemical, 
# crystal, experimental, refinement or atomic coordinate data resulting 
# from the CCDC's data processing and validation procedures.
#
#######################################################################

data_GEXNIJ
_chemical_formula_moiety         'C96 H62 N12 O12 Si1'
_chemical_name_systematic        
(phthalocyaninato)-bis(3-phenyl-2-(1,3,6,8-tetraoxo-7-(2-phenylpropyl)-3,6,7,8-tetrahydrobenzo[lmn][3,8]phenanthrolin-2(1H)-yl)propanoyl)-silicon
_symmetry_cell_setting           tetragonal
_symmetry_space_group_name_H-M   'P 43 21 2'
_symmetry_Int_Tables_number      96
_space_group_name_Hall           'P 4nw 2abw'
loop_
_symmetry_equiv_pos_site_id
_symmetry_equiv_pos_as_xyz
1 x,y,z
2 -x,-y,1/2+z
3 1/2-y,1/2+x,3/4+z
4 1/2+y,1/2-x,1/4+z
5 1/2-x,1/2+y,3/4-z
6 1/2+x,1/2-y,1/4-z
7 y,x,-z
8 -y,-x,1/2-z
_cell_length_a                   12.3595(5)
_cell_length_b                   12.3595(5)
_cell_length_c                   50.594(4)
_cell_angle_alpha                90
_cell_angle_beta                 90
_cell_angle_gamma                90
_cell_volume                     7728.6
_exptl_crystal_colour            blue
_exptl_crystal_description       plate
_cell_formula_units_Z            4
_exptl_crystal_recrystallization_method acetonitrile
loop_
_atom_site_label
_atom_site_type_symbol
_atom_site_fract_x
_atom_site_fract_y
_atom_site_fract_z
Si1 Si 0.1988(3) 0.1988(3) 0.0000
N1 N 0.0910(9) 0.0910(9) 0.0000
N2 N -0.0216(11) 0.1461(12) 0.0371(3)
N3 N 0.1291(10) 0.2672(9) 0.0285(2)
N4 N 0.2444(12) 0.4260(10) 0.0354(2)
N5 N 0.3073(9) 0.3073(9) 0.0000
N6 N 0.4474(9) -0.0066(10) 0.0274(2)
N7 N 0.8079(11) 0.0003(11) -0.0800(2)
O1 O 0.2784(7) 0.1172(7) 0.01967(18)
O2 O 0.2688(8) 0.1572(9) 0.0638(2)
O3 O 0.3766(8) -0.1634(9) 0.0123(2)
O4 O 0.7113(8) -0.1333(9) -0.09985(19)
O5 O 0.9049(9) 0.1337(8) -0.0603(2)
O6 O 0.5127(8) 0.1559(9) 0.0414(2)
C1 C -0.1961(13) -0.1502(13) 0.0112(3)
H1 H -0.2570 -0.1835 0.0193
C2 C -0.1538(13) -0.0566(14) 0.0219(4)
H2 H -0.1890 -0.0222 0.0363
C3 C -0.0574(12) -0.0118(14) 0.0112(3)
C4 C 0.0028(14) 0.0811(14) 0.0169(3)
C5 C 0.0356(14) 0.2324(16) 0.0423(3)
C6 C 0.0145(14) 0.3089(13) 0.0645(3)
C7 C -0.0673(14) 0.3029(14) 0.0835(3)
H3 H -0.1219 0.2487 0.0834
C8 C -0.0609(15) 0.3849(13) 0.1029(3)
H4 H -0.1127 0.3859 0.1167
C9 C 0.0176(14) 0.4631(13) 0.1022(3)
H5 H 0.0175 0.5175 0.1155
C10 C 0.0986(13) 0.4658(13) 0.0826(3)
H6 H 0.1541 0.5190 0.0826
C11 C 0.0931(12) 0.3880(13) 0.0636(3)
C12 C 0.1626(13) 0.3602(13) 0.0409(3)
C13 C 0.3094(13) 0.3993(13) 0.0161(3)
C14 C 0.4048(13) 0.4627(13) 0.0096(3)
C15 C 0.4422(15) 0.5598(14) 0.0190(3)
H7 H 0.4020 0.6000 0.0317
C16 C 0.5391(13) 0.5973(14) 0.0096(3)
H8 H 0.5676 0.6633 0.0162
C17 C 0.2974(11) 0.1039(12) 0.0450(3)
C18 C 0.3661(11) -0.0003(12) 0.0489(2)
H9 H 0.3153 -0.0619 0.0456
C19 C 0.4093(12) -0.0173(13) 0.0764(3)
H10 H 0.4659 0.0373 0.0802
H11 H 0.3502 -0.0077 0.0894
C20 C 0.4563(13) -0.1291(14) 0.0791(3)
C21 C 0.3935(16) -0.2175(15) 0.0804(3)
H12 H 0.3175 -0.2074 0.0818
C22 C 0.4325(17) -0.3225(17) 0.0798(3)
H13 H 0.3845 -0.3825 0.0794
C23 C 0.5421(18) -0.3371(18) 0.0799(4)
H14 H 0.5707 -0.4084 0.0804
C24 C 0.6114(15) -0.2510(17) 0.0794(3)
H15 H 0.6876 -0.2610 0.0794
C25 C 0.5660(14) -0.1480(15) 0.0787(3)
H16 H 0.6133 -0.0875 0.0779
C26 C 0.4409(13) -0.0891(14) 0.0092(3)
C27 C 0.5141(11) -0.0868(12) -0.0138(3)
C28 C 0.5042(13) -0.1650(11) -0.0338(3)
H17 H 0.4510 -0.2203 -0.0327
C29 C 0.5750(12) -0.1594(12) -0.0556(3)
H18 H 0.5686 -0.2103 -0.0696
C30 C 0.6536(12) -0.0801(12) -0.0568(3)
C31 C 0.7254(13) -0.0761(14) -0.0804(3)
C32 C 0.8257(14) 0.0724(14) -0.0597(3)
C33 C 0.7481(13) 0.0754(13) -0.0379(3)
C34 C 0.7558(14) 0.1504(13) -0.0183(3)
H19 H 0.8144 0.2001 -0.0187
C35 C 0.6799(12) 0.1578(12) 0.0026(3)
H20 H 0.6832 0.2151 0.0151
C36 C 0.5988(12) 0.0766(11) 0.0044(3)
C37 C 0.5182(12) 0.0789(14) 0.0257(3)
C38 C 0.5939(13) -0.0047(13) -0.0154(3)
C39 C 0.6656(12) -0.0029(13) -0.0370(3)
C40 C 0.8809(11) 0.0079(13) -0.1030(3)
H21 H 0.8954 0.0851 -0.1068
H22 H 0.8439 -0.0232 -0.1186
C41 C 0.9893(13) -0.0510(12) -0.0991(3)
H23 H 1.0173 -0.0293 -0.0813
C42 C 0.9773(15) -0.1734(11) -0.0988(4)
H24 H 1.0488 -0.2069 -0.0970
H25 H 0.9441 -0.1973 -0.1154
H26 H 0.9315 -0.1950 -0.0839
C43 C 1.0701(13) -0.0090(15) -0.1195(3)
C44 C 1.1047(14) -0.0654(15) -0.1418(3)
H27 H 1.0780 -0.1362 -0.1451
C45 C 1.1786(14) -0.0187(16) -0.1595(3)
H28 H 1.1990 -0.0563 -0.1751
C46 C 1.2216(15) 0.0823(17) -0.1542(4)
H29 H 1.2724 0.1129 -0.1661
C47 C 1.1917(15) 0.1406(14) -0.1314(4)
H30 H 1.2224 0.2094 -0.1277
C48 C 1.1157(14) 0.0943(13) -0.1145(3)
H31 H 1.0938 0.1331 -0.0992
N2F N 0.1461(12) -0.0216(11) -0.0371(3)
N3F N 0.2672(9) 0.1291(10) -0.0285(2)
N4F N 0.4260(10) 0.2444(12) -0.0354(2)
N6F N -0.0066(10) 0.4474(9) -0.0274(2)
N7F N 0.0003(11) 0.8079(11) 0.0800(2)
O1F O 0.1172(7) 0.2784(7) -0.01967(18)
O2F O 0.1572(9) 0.2688(8) -0.0638(2)
O3F O -0.1634(9) 0.3766(8) -0.0123(2)
O4F O -0.1333(9) 0.7113(8) 0.09985(19)
O5F O 0.1337(8) 0.9049(9) 0.0603(2)
O6F O 0.1559(9) 0.5127(8) -0.0414(2)
C1F C -0.1502(13) -0.1961(13) -0.0112(3)
H1F H -0.1835 -0.2570 -0.0193
C2F C -0.0566(14) -0.1538(13) -0.0219(4)
H2F H -0.0222 -0.1890 -0.0363
C3F C -0.0118(14) -0.0574(12) -0.0112(3)
C4F C 0.0811(14) 0.0028(14) -0.0169(3)
C5F C 0.2324(16) 0.0356(14) -0.0423(3)
C6F C 0.3089(13) 0.0145(14) -0.0645(3)
C7F C 0.3029(14) -0.0673(14) -0.0835(3)
H3F H 0.2487 -0.1219 -0.0834
C8F C 0.3849(13) -0.0609(15) -0.1029(3)
H4F H 0.3859 -0.1127 -0.1167
C9F C 0.4631(13) 0.0176(14) -0.1022(3)
H5F H 0.5175 0.0175 -0.1155
C10F C 0.4658(13) 0.0986(13) -0.0826(3)
H6F H 0.5190 0.1541 -0.0826
C11F C 0.3880(13) 0.0931(12) -0.0636(3)
C12F C 0.3602(13) 0.1626(13) -0.0409(3)
C13F C 0.3993(13) 0.3094(13) -0.0161(3)
C14F C 0.4627(13) 0.4048(13) -0.0096(3)
C15F C 0.5598(14) 0.4422(15) -0.0190(3)
H7F H 0.6000 0.4020 -0.0317
C16F C 0.5973(14) 0.5391(13) -0.0096(3)
H8F H 0.6633 0.5676 -0.0162
C17F C 0.1039(12) 0.2974(11) -0.0450(3)
C18F C -0.0003(12) 0.3661(11) -0.0489(2)
H9F H -0.0619 0.3153 -0.0456
C19F C -0.0173(13) 0.4093(12) -0.0764(3)
H10F H 0.0373 0.4659 -0.0802
H11F H -0.0077 0.3502 -0.0894
C20F C -0.1291(14) 0.4563(13) -0.0791(3)
C21F C -0.2175(15) 0.3935(16) -0.0804(3)
H12F H -0.2074 0.3175 -0.0818
C22F C -0.3225(17) 0.4325(17) -0.0798(3)
H13F H -0.3825 0.3845 -0.0794
C23F C -0.3371(18) 0.5421(18) -0.0799(4)
H14F H -0.4084 0.5707 -0.0804
C24F C -0.2510(17) 0.6114(15) -0.0794(3)
H15F H -0.2610 0.6876 -0.0794
C25F C -0.1480(15) 0.5660(14) -0.0787(3)
H16F H -0.0875 0.6133 -0.0779
C26F C -0.0891(14) 0.4409(13) -0.0092(3)
C27F C -0.0868(12) 0.5141(11) 0.0138(3)
C28F C -0.1650(11) 0.5042(13) 0.0338(3)
H17F H -0.2203 0.4510 0.0327
C29F C -0.1594(12) 0.5750(12) 0.0556(3)
H18F H -0.2103 0.5686 0.0696
C30F C -0.0801(12) 0.6536(12) 0.0568(3)
C31F C -0.0761(14) 0.7254(13) 0.0804(3)
C32F C 0.0724(14) 0.8257(14) 0.0597(3)
C33F C 0.0754(13) 0.7481(13) 0.0379(3)
C34F C 0.1504(13) 0.7558(14) 0.0183(3)
H19F H 0.2001 0.8144 0.0187
C35F C 0.1578(12) 0.6799(12) -0.0026(3)
H20F H 0.2151 0.6832 -0.0151
C36F C 0.0766(11) 0.5988(12) -0.0044(3)
C37F C 0.0789(14) 0.5182(12) -0.0257(3)
C38F C -0.0047(13) 0.5939(13) 0.0154(3)
C39F C -0.0029(13) 0.6656(12) 0.0370(3)
C40F C 0.0079(13) 0.8809(11) 0.1030(3)
H21F H 0.0851 0.8954 0.1068
H22F H -0.0232 0.8439 0.1186
C41F C -0.0510(12) 0.9893(13) 0.0991(3)
H23F H -0.0293 1.0173 0.0813
C42F C -0.1734(11) 0.9773(15) 0.0988(4)
H24F H -0.2069 1.0488 0.0970
H25F H -0.1973 0.9441 0.1154
H26F H -0.1950 0.9315 0.0839
C43F C -0.0090(15) 1.0701(13) 0.1195(3)
C44F C -0.0654(15) 1.1047(14) 0.1418(3)
H27F H -0.1362 1.0780 0.1451
C45F C -0.0187(16) 1.1786(14) 0.1595(3)
H28F H -0.0563 1.1990 0.1751
C46F C 0.0823(17) 1.2216(15) 0.1542(4)
H29F H 0.1129 1.2724 0.1661
C47F C 0.1406(14) 1.1917(15) 0.1314(4)
H30F H 0.2094 1.2224 0.1277
C48F C 0.0943(13) 1.1157(14) 0.1145(3)
H31F H 0.1331 1.0938 0.0992
loop_
_geom_bond_atom_site_label_1
_geom_bond_atom_site_label_2
_geom_bond_site_symmetry_1
_geom_bond_site_symmetry_2
Si1 N1 1_555 1_555
N1 C4 1_555 1_555
N2 C4 1_555 1_555
N3 Si1 1_555 1_555
N4 C12 1_555 1_555
N5 Si1 1_555 1_555
N6 C18 1_555 1_555
N7 C31 1_555 1_555
O1 Si1 1_555 1_555
O2 C17 1_555 1_555
O3 C26 1_555 1_555
O4 C31 1_555 1_555
O5 C32 1_555 1_555
O6 C37 1_555 1_555
C1 H1 1_555 1_555
C2 C1 1_555 1_555
H2 C2 1_555 1_555
C3 C2 1_555 1_555
C4 C3 1_555 1_555
C5 N2 1_555 1_555
C6 C5 1_555 1_555
C7 C6 1_555 1_555
H3 C7 1_555 1_555
C8 C7 1_555 1_555
H4 C8 1_555 1_555
C9 C8 1_555 1_555
H5 C9 1_555 1_555
C10 C9 1_555 1_555
H6 C10 1_555 1_555
C11 C6 1_555 1_555
C12 N3 1_555 1_555
C13 N4 1_555 1_555
C14 C13 1_555 1_555
C15 C14 1_555 1_555
H7 C15 1_555 1_555
C16 C15 1_555 1_555
H8 C16 1_555 1_555
C17 O1 1_555 1_555
C18 C17 1_555 1_555
H9 C18 1_555 1_555
C19 C18 1_555 1_555
H10 C19 1_555 1_555
H11 C19 1_555 1_555
C20 C19 1_555 1_555
C21 C20 1_555 1_555
H12 C21 1_555 1_555
C22 C21 1_555 1_555
H13 C22 1_555 1_555
C23 C22 1_555 1_555
H14 C23 1_555 1_555
C24 C23 1_555 1_555
H15 C24 1_555 1_555
C25 C20 1_555 1_555
H16 C25 1_555 1_555
C26 N6 1_555 1_555
C27 C26 1_555 1_555
C28 C27 1_555 1_555
H17 C28 1_555 1_555
C29 C28 1_555 1_555
H18 C29 1_555 1_555
C30 C29 1_555 1_555
C31 C30 1_555 1_555
C32 N7 1_555 1_555
C33 C32 1_555 1_555
C34 C33 1_555 1_555
H19 C34 1_555 1_555
C35 C34 1_555 1_555
H20 C35 1_555 1_555
C36 C35 1_555 1_555
C37 N6 1_555 1_555
C38 C27 1_555 1_555
C39 C30 1_555 1_555
C40 N7 1_555 1_555
H21 C40 1_555 1_555
H22 C40 1_555 1_555
C41 C40 1_555 1_555
H23 C41 1_555 1_555
C42 C41 1_555 1_555
H24 C42 1_555 1_555
H25 C42 1_555 1_555
H26 C42 1_555 1_555
C43 C41 1_555 1_555
C44 C43 1_555 1_555
H27 C44 1_555 1_555
C45 C44 1_555 1_555
H28 C45 1_555 1_555
C46 C45 1_555 1_555
H29 C46 1_555 1_555
C47 C46 1_555 1_555
H30 C47 1_555 1_555
C48 C43 1_555 1_555
H31 C48 1_555 1_555
N2F C4F 1_555 1_555
N3F Si1 1_555 1_555
N4F C12F 1_555 1_555
N6F C18F 1_555 1_555
N7F C31F 1_555 1_555
O1F Si1 1_555 1_555
O2F C17F 1_555 1_555
O3F C26F 1_555 1_555
O4F C31F 1_555 1_555
O5F C32F 1_555 1_555
O6F C37F 1_555 1_555
C1F C1 1_555 1_555
H1F C1F 1_555 1_555
C2F C1F 1_555 1_555
H2F C2F 1_555 1_555
C3F C3 1_555 1_555
C4F N1 1_555 1_555
C5F N2F 1_555 1_555
C6F C5F 1_555 1_555
C7F C6F 1_555 1_555
H3F C7F 1_555 1_555
C8F C7F 1_555 1_555
H4F C8F 1_555 1_555
C9F C8F 1_555 1_555
H5F C9F 1_555 1_555
C10F C9F 1_555 1_555
H6F C10F 1_555 1_555
C11F C6F 1_555 1_555
C12F N3F 1_555 1_555
C13F N5 1_555 1_555
C14F C14 1_555 1_555
C15F C14F 1_555 1_555
H7F C15F 1_555 1_555
C16F C16 1_555 1_555
H8F C16F 1_555 1_555
C17F O1F 1_555 1_555
C18F C17F 1_555 1_555
H9F C18F 1_555 1_555
C19F C18F 1_555 1_555
H10F C19F 1_555 1_555
H11F C19F 1_555 1_555
C20F C19F 1_555 1_555
C21F C20F 1_555 1_555
H12F C21F 1_555 1_555
C22F C21F 1_555 1_555
H13F C22F 1_555 1_555
C23F C22F 1_555 1_555
H14F C23F 1_555 1_555
C24F C23F 1_555 1_555
H15F C24F 1_555 1_555
C25F C20F 1_555 1_555
H16F C25F 1_555 1_555
C26F N6F 1_555 1_555
C27F C26F 1_555 1_555
C28F C27F 1_555 1_555
H17F C28F 1_555 1_555
C29F C28F 1_555 1_555
H18F C29F 1_555 1_555
C30F C29F 1_555 1_555
C31F C30F 1_555 1_555
C32F N7F 1_555 1_555
C33F C32F 1_555 1_555
C34F C33F 1_555 1_555
H19F C34F 1_555 1_555
C35F C34F 1_555 1_555
H20F C35F 1_555 1_555
C36F C35F 1_555 1_555
C37F N6F 1_555 1_555
C38F C27F 1_555 1_555
C39F C30F 1_555 1_555
C40F N7F 1_555 1_555
H21F C40F 1_555 1_555
H22F C40F 1_555 1_555
C41F C40F 1_555 1_555
H23F C41F 1_555 1_555
C42F C41F 1_555 1_555
H24F C42F 1_555 1_555
H25F C42F 1_555 1_555
H26F C42F 1_555 1_555
C43F C41F 1_555 1_555
C44F C43F 1_555 1_555
H27F C44F 1_555 1_555
C45F C44F 1_555 1_555
H28F C45F 1_555 1_555
C46F C45F 1_555 1_555
H29F C46F 1_555 1_555
C47F C46F 1_555 1_555
H30F C47F 1_555 1_555
C48F C43F 1_555 1_555
H31F C48F 1_555 1_555
N3 C5 1_555 1_555
N5 C13 1_555 1_555
C10 C11 1_555 1_555
C11 C12 1_555 1_555
C24 C25 1_555 1_555
C33 C39 1_555 1_555
C36 C37 1_555 1_555
C36 C38 1_555 1_555
C38 C39 1_555 1_555
C47 C48 1_555 1_555
N3F C5F 1_555 1_555
N4F C13F 1_555 1_555
C2F C3F 1_555 1_555
C3F C4F 1_555 1_555
C10F C11F 1_555 1_555
C11F C12F 1_555 1_555
C13F C14F 1_555 1_555
C15F C16F 1_555 1_555
C24F C25F 1_555 1_555
C33F C39F 1_555 1_555
C36F C37F 1_555 1_555
C36F C38F 1_555 1_555
C38F C39F 1_555 1_555
C47F C48F 1_555 1_555

#END
