
#######################################################################
#
#                 Cambridge Crystallographic Data Centre
#                                CCDC 
#
#######################################################################
#
# If this CIF has been generated from an entry in the Cambridge 
# Structural Database, then it will include bibliographic, chemical, 
# crystal, experimental, refinement or atomic coordinate data resulting 
# from the CCDC's data processing and validation procedures.
#
#######################################################################

data_GEXZER
_chemical_formula_moiety         'C21 H19 N1 O1'
_chemical_name_systematic        
(R)-2-((4-methylphenyl)amino)-2-(naphthalen-2-yl)but-3-yn-1-ol
_symmetry_cell_setting           orthorhombic
_symmetry_space_group_name_H-M   'P 21 21 21'
_symmetry_Int_Tables_number      19
_space_group_name_Hall           'P 2ac 2ab'
loop_
_symmetry_equiv_pos_site_id
_symmetry_equiv_pos_as_xyz
1 x,y,z
2 1/2-x,-y,1/2+z
3 -x,1/2+y,1/2-z
4 1/2+x,1/2-y,-z
_cell_length_a                   6.1346(3)
_cell_length_b                   12.5209(6)
_cell_length_c                   21.6853(10)
_cell_angle_alpha                90
_cell_angle_beta                 90
_cell_angle_gamma                90
_cell_volume                     1665.66
_exptl_crystal_colour            colorless
_exptl_crystal_description       plate
_chemical_melting_point          '128.0-130.5 deg.C'
_cell_formula_units_Z            4
loop_
_atom_site_label
_atom_site_type_symbol
_atom_site_fract_x
_atom_site_fract_y
_atom_site_fract_z
N1 N 0.7545(4) 0.5582(2) 0.70423(11)
H1 H 0.8885 0.5707 0.7134
O1 O 0.7866(4) 0.6345(3) 0.82711(11)
H2 H 0.6865 0.6073 0.8467
C1 C 0.7070(4) 0.4709(2) 0.66688(11)
C2 C 0.5109(5) 0.4592(2) 0.63543(11)
H3 H 0.4019 0.5102 0.6399
C3 C 0.5005(5) 0.7062(2) 0.67963(12)
C4 C 0.6211(5) 0.7319(2) 0.62892(13)
H4 H 0.7559 0.6994 0.6231
C5 C 0.5455(5) 0.8068(2) 0.58489(14)
C6 C 0.5877(4) 0.6295(2) 0.72846(12)
C7 C 0.8653(5) 0.3921(2) 0.65873(12)
H5 H 0.9985 0.3983 0.6789
C8 C 0.4778(6) 0.3718(2) 0.59747(12)
H6 H 0.3461 0.3658 0.5765
C9 C 0.6331(6) 0.2932(2) 0.58966(13)
C10 C 0.4119(5) 0.5692(3) 0.76037(14)
C11 C 0.3399(6) 0.8554(2) 0.59314(16)
C12 C 0.6689(7) 0.8319(3) 0.53162(15)
H7 H 0.8038 0.7998 0.5253
C13 C 0.2953(6) 0.7554(3) 0.68790(17)
H8 H 0.2113 0.7382 0.7222
C14 C 0.8271(6) 0.3056(2) 0.62134(14)
H9 H 0.9347 0.2538 0.6172
C15 C 0.6998(6) 0.6978(3) 0.77871(14)
H10 H 0.8165 0.7389 0.7601
H11 H 0.5948 0.7477 0.7957
C16 C 0.2188(6) 0.8280(3) 0.64606(19)
H12 H 0.0839 0.8599 0.6527
C17 C 0.5894(9) 0.9036(3) 0.48935(18)
H13 H 0.6721 0.9203 0.4547
C18 C 0.2654(7) 0.9293(3) 0.5478(2)
H14 H 0.1310 0.9625 0.5530
C19 C 0.3855(9) 0.9519(3) 0.49758(19)
H15 H 0.3331 0.9996 0.4683
C20 C 0.2861(7) 0.5246(4) 0.79150(19)
H16 H 0.1859 0.4891 0.8163
C21 C 0.5903(9) 0.1969(3) 0.54916(19)
H17 H 0.4480 0.1689 0.5580
H18 H 0.6980 0.1431 0.5573
H19 H 0.5977 0.2177 0.5066
loop_
_geom_bond_atom_site_label_1
_geom_bond_atom_site_label_2
_geom_bond_site_symmetry_1
_geom_bond_site_symmetry_2
N1 H1 1_555 1_555
O1 H2 1_555 1_555
C1 N1 1_555 1_555
C2 C1 1_555 1_555
H3 C2 1_555 1_555
C3 C4 1_555 1_555
C4 H4 1_555 1_555
C5 C4 1_555 1_555
C6 N1 1_555 1_555
C7 C1 1_555 1_555
H5 C7 1_555 1_555
C8 C2 1_555 1_555
H6 C8 1_555 1_555
C9 C8 1_555 1_555
C10 C6 1_555 1_555
C11 C5 1_555 1_555
C12 C5 1_555 1_555
H7 C12 1_555 1_555
C13 C3 1_555 1_555
H8 C13 1_555 1_555
C14 C7 1_555 1_555
H9 C14 1_555 1_555
C15 O1 1_555 1_555
H10 C15 1_555 1_555
H11 C15 1_555 1_555
C16 C11 1_555 1_555
H12 C16 1_555 1_555
C17 C12 1_555 1_555
H13 C17 1_555 1_555
C18 C11 1_555 1_555
H14 C18 1_555 1_555
C19 C17 1_555 1_555
H15 C19 1_555 1_555
C20 C10 1_555 1_555
H16 C20 1_555 1_555
C21 C9 1_555 1_555
H17 C21 1_555 1_555
H18 C21 1_555 1_555
H19 C21 1_555 1_555
C3 C6 1_555 1_555
C6 C15 1_555 1_555
C9 C14 1_555 1_555
C13 C16 1_555 1_555
C18 C19 1_555 1_555

#END
