
#######################################################################
#
#                 Cambridge Crystallographic Data Centre
#                                CCDC 
#
#######################################################################
#
# If this CIF has been generated from an entry in the Cambridge 
# Structural Database, then it will include bibliographic, chemical, 
# crystal, experimental, refinement or atomic coordinate data resulting 
# from the CCDC's data processing and validation procedures.
#
#######################################################################

data_GEYGOG02
_chemical_formula_moiety         'C30 H28 O4'
_chemical_name_systematic        
1,1',1'',1'''-Ethene-1,1,2,2-tetrayltetrakis(4-methoxybenzene)
_symmetry_cell_setting           monoclinic
_symmetry_space_group_name_H-M   'C 2'
_symmetry_Int_Tables_number      5
_space_group_name_Hall           'C 2y'
loop_
_symmetry_equiv_pos_site_id
_symmetry_equiv_pos_as_xyz
1 x,y,z
2 -x,y,-z
3 1/2+x,1/2+y,z
4 1/2-x,1/2+y,-z
_cell_length_a                   19.551(3)
_cell_length_b                   5.6250(9)
_cell_length_c                   13.766(2)
_cell_angle_alpha                90
_cell_angle_beta                 125.376(2)
_cell_angle_gamma                90
_cell_volume                     1234.4
_exptl_crystal_colour            colorless
_exptl_crystal_description       block
_cell_formula_units_Z            2
loop_
_atom_site_label
_atom_site_type_symbol
_atom_site_fract_x
_atom_site_fract_y
_atom_site_fract_z
C1 C 0.66255(16) 0.8833(4) 1.08545(17)
H1 H 0.6678 1.0242 1.0509
H2 H 0.7063 0.8805 1.1693
H3 H 0.6090 0.8831 1.0732
C2 C 0.61906(9) 0.6728(3) 0.90790(12)
C3 C 0.63304(9) 0.4850(3) 0.85661(13)
H4 H 0.6732 0.3709 0.9047
C4 C 0.58719(9) 0.4665(3) 0.73356(13)
H5 H 0.5972 0.3397 0.7000
C5 C 0.52635(8) 0.6347(2) 0.65930(11)
C6 C 0.51073(9) 0.8153(3) 0.71332(13)
H6 H 0.4681 0.9239 0.6658
C7 C 0.55721(9) 0.8371(3) 0.83602(13)
H7 H 0.5468 0.9622 0.8700
C8 C 0.47998(8) 0.6323(2) 0.52701(11)
C9 C 0.38665(8) 0.6514(2) 0.45845(11)
C10 C 0.34074(9) 0.4887(3) 0.47570(11)
H8 H 0.3688 0.3671 0.5310
C11 C 0.25426(9) 0.5044(3) 0.41221(12)
H9 H 0.2247 0.3923 0.4239
C12 C 0.21181(8) 0.6879(3) 0.33107(11)
C13 C 0.25610(9) 0.8548(3) 0.31436(14)
H10 H 0.2282 0.9796 0.2611
C14 C 0.34252(9) 0.8342(3) 0.37790(14)
H11 H 0.3719 0.9468 0.3661
C15 C 0.08173(10) 0.8836(4) 0.19453(19)
H12 H 0.1050 1.0300 0.2373
H13 H 0.0237 0.8736 0.1651
H14 H 0.0864 0.8788 0.1288
O1 O 0.66931(8) 0.6798(3) 1.03071(9)
O2 O 0.12629(6) 0.6892(2) 0.27191(10)
C1A C 0.33745(16) 0.8833(4) -0.08545(17)
H1A H 0.3322 1.0242 -0.0509
H2A H 0.2937 0.8805 -0.1693
H3A H 0.3910 0.8831 -0.0732
C2A C 0.38094(9) 0.6728(3) 0.09210(12)
C3A C 0.36696(9) 0.4850(3) 0.14339(13)
H4A H 0.3268 0.3709 0.0953
C4A C 0.41281(9) 0.4665(3) 0.26644(13)
H5A H 0.4028 0.3397 0.3000
C5A C 0.47365(8) 0.6347(2) 0.34070(11)
C6A C 0.48927(9) 0.8153(3) 0.28668(13)
H6A H 0.5319 0.9239 0.3342
C7A C 0.44279(9) 0.8371(3) 0.16398(13)
H7A H 0.4532 0.9622 0.1300
C8A C 0.52002(8) 0.6323(2) 0.47299(11)
C9A C 0.61335(8) 0.6514(2) 0.54155(11)
C10A C 0.65926(9) 0.4887(3) 0.52430(11)
H8A H 0.6312 0.3671 0.4690
C11A C 0.74574(9) 0.5044(3) 0.58779(12)
H9A H 0.7753 0.3923 0.5761
C12A C 0.78819(8) 0.6879(3) 0.66893(11)
C13A C 0.74390(9) 0.8548(3) 0.68564(14)
H10A H 0.7718 0.9796 0.7389
C14A C 0.65748(9) 0.8342(3) 0.62210(14)
H11A H 0.6281 0.9468 0.6339
C15A C 0.91827(10) 0.8836(4) 0.80547(19)
H12A H 0.8950 1.0300 0.7627
H13A H 0.9763 0.8736 0.8349
H14A H 0.9136 0.8788 0.8712
O1A O 0.33069(8) 0.6798(3) -0.03071(9)
O2A O 0.87371(6) 0.6892(2) 0.72809(10)
loop_
_geom_bond_atom_site_label_1
_geom_bond_atom_site_label_2
_geom_bond_site_symmetry_1
_geom_bond_site_symmetry_2
C1 H1 1_555 1_555
H2 C1 1_555 1_555
H3 C1 1_555 1_555
C2 C3 1_555 1_555
C3 H4 1_555 1_555
C4 C3 1_555 1_555
H5 C4 1_555 1_555
C5 C4 1_555 1_555
C6 C5 1_555 1_555
H6 C6 1_555 1_555
C7 C2 1_555 1_555
H7 C7 1_555 1_555
C8 C5 1_555 1_555
C9 C8 1_555 1_555
C10 C9 1_555 1_555
H8 C10 1_555 1_555
C11 C10 1_555 1_555
H9 C11 1_555 1_555
C12 C11 1_555 1_555
C13 C12 1_555 1_555
H10 C13 1_555 1_555
C14 C9 1_555 1_555
H11 C14 1_555 1_555
C15 H12 1_555 1_555
H13 C15 1_555 1_555
H14 C15 1_555 1_555
O1 C1 1_555 1_555
O2 C12 1_555 1_555
C1A H1A 1_555 1_555
H2A C1A 1_555 1_555
H3A C1A 1_555 1_555
C2A C3A 1_555 1_555
C3A H4A 1_555 1_555
C4A C3A 1_555 1_555
H5A C4A 1_555 1_555
C5A C4A 1_555 1_555
C6A C5A 1_555 1_555
H6A C6A 1_555 1_555
C7A C2A 1_555 1_555
H7A C7A 1_555 1_555
C8A C8 1_555 1_555
C9A C8A 1_555 1_555
C10A C9A 1_555 1_555
H8A C10A 1_555 1_555
C11A C10A 1_555 1_555
H9A C11A 1_555 1_555
C12A C11A 1_555 1_555
C13A C12A 1_555 1_555
H10A C13A 1_555 1_555
C14A C9A 1_555 1_555
H11A C14A 1_555 1_555
C15A H12A 1_555 1_555
H13A C15A 1_555 1_555
H14A C15A 1_555 1_555
O1A C1A 1_555 1_555
O2A C12A 1_555 1_555
C2 O1 1_555 1_555
C6 C7 1_555 1_555
C13 C14 1_555 1_555
C15 O2 1_555 1_555
C2A O1A 1_555 1_555
C5A C8A 1_555 1_555
C6A C7A 1_555 1_555
C13A C14A 1_555 1_555
C15A O2A 1_555 1_555

#END
