
#######################################################################
#
#                 Cambridge Crystallographic Data Centre
#                                CCDC 
#
#######################################################################
#
# If this CIF has been generated from an entry in the Cambridge 
# Structural Database, then it will include bibliographic, chemical, 
# crystal, experimental, refinement or atomic coordinate data resulting 
# from the CCDC's data processing and validation procedures.
#
#######################################################################

data_GEZREK
_chemical_formula_moiety         'C50 H46 N4 O2'
_chemical_name_systematic        
4,4'-Dioxybis(2-(4-t-butylphenyl)-4,5-diphenyl-4H-imidazole)
_symmetry_cell_setting           monoclinic
_symmetry_space_group_name_H-M   'P 21/c'
_symmetry_Int_Tables_number      14
_space_group_name_Hall           '-P 2ybc'
loop_
_symmetry_equiv_pos_site_id
_symmetry_equiv_pos_as_xyz
1 x,y,z
2 -x,1/2+y,1/2-z
3 -x,-y,-z
4 x,1/2-y,1/2+z
_cell_length_a                   16.0313(4)
_cell_length_b                   30.9627(9)
_cell_length_c                   16.5171(5)
_cell_angle_alpha                90
_cell_angle_beta                 93.7920(10)
_cell_angle_gamma                90
_cell_volume                     8180.68
_exptl_crystal_colour            'light colorless'
_cell_formula_units_Z            8
loop_
_atom_site_label
_atom_site_type_symbol
_atom_site_fract_x
_atom_site_fract_y
_atom_site_fract_z
O1 O 0.77371(7) 0.63770(4) 0.23645(7)
O2 O 0.69630(7) 0.61638(4) 0.26138(7)
N1 N 0.77201(9) 0.59902(5) 0.38516(9)
N2 N 0.69983(9) 0.65311(5) 0.11036(8)
C1 C 0.67868(12) 0.69967(6) 0.21940(11)
N3 N 0.61115(10) 0.70022(5) 0.17294(9)
N4 N 0.86173(10) 0.55530(5) 0.31631(9)
C2 C 0.84580(11) 0.58315(6) 0.38373(10)
C3 C 0.74488(11) 0.67085(6) 0.18286(10)
C4 C 0.62706(11) 0.67060(6) 0.10847(10)
C5 C 0.8206(2) 0.69522(13) 0.16003(18)
C6 C 0.8834(3) 0.67111(12) 0.1275(3)
H1 H 0.8771 0.6408 0.1210
C7 C 0.9554(3) 0.69139(16) 0.1044(3)
H2 H 0.9984 0.6749 0.0821
C8 C 0.9647(3) 0.73578(15) 0.1138(2)
H3 H 1.0139 0.7496 0.0980
C9 C 0.9018(3) 0.75989(11) 0.1464(3)
H4 H 0.9082 0.7902 0.1529
C10 C 0.8298(2) 0.73961(13) 0.1695(3)
H5 H 0.7869 0.7561 0.1917
C11 C 0.91404(11) 0.59185(6) 0.44458(11)
C12 C 0.56001(11) 0.66165(6) 0.04616(10)
C13 C 0.79285(12) 0.55532(6) 0.27183(11)
C14 C 0.68994(12) 0.72355(6) 0.29598(11)
C15 C 0.36009(11) 0.63695(6) -0.13891(11)
C16 C 0.56710(11) 0.62856(6) -0.00915(11)
H6 H 0.6163 0.6114 -0.0069
C17 C 0.43082(11) 0.64467(6) -0.07361(11)
C18 C 0.96743(12) 0.62525(6) 0.56853(12)
H7 H 0.9576 0.6427 0.6143
C19 C 0.78003(13) 0.53225(6) 0.19474(11)
C20 C 1.11899(12) 0.61589(6) 0.62519(12)
C21 C 0.72643(11) 0.58231(6) 0.31217(10)
C22 C 1.04739(12) 0.60832(6) 0.56095(11)
C23 C 0.90245(12) 0.61746(6) 0.51171(12)
H8 H 0.8491 0.6298 0.5186
C24 C 0.48717(13) 0.68661(7) 0.04087(13)
H9 H 0.4807 0.7095 0.0782
C25 C 0.42483(13) 0.67809(7) -0.01815(13)
H10 H 0.3761 0.6956 -0.0211
C26 C 0.70830(14) 0.53825(6) 0.14358(11)
H11 H 0.6664 0.5579 0.1584
C27 C 0.75843(13) 0.71621(6) 0.35085(12)
H12 H 0.7990 0.6951 0.3391
C28 C 0.50365(11) 0.62023(6) -0.06755(11)
H13 H 0.5099 0.5972 -0.1046
C29 C 0.27517(12) 0.63699(7) -0.10072(13)
H14 H 0.2760 0.6156 -0.0569
H15 H 0.2309 0.6296 -0.1422
H16 H 0.2645 0.6657 -0.0788
C30 C 0.36154(13) 0.67350(7) -0.20133(13)
H17 H 0.3559 0.7013 -0.1740
H18 H 0.3151 0.6698 -0.2424
H19 H 0.4146 0.6728 -0.2276
C31 C 0.6460(4) 0.5580(3) 0.3323(6)
C32 C 0.5709(5) 0.5801(2) 0.3362(6)
H20 H 0.5683 0.6102 0.3254
C33 C 0.4994(5) 0.5581(2) 0.3559(6)
H21 H 0.4481 0.5731 0.3586
C34 C 0.5031(5) 0.5140(2) 0.3717(5)
H22 H 0.4543 0.4989 0.3852
C35 C 0.5783(6) 0.4919(2) 0.3678(5)
H23 H 0.5808 0.4618 0.3786
C36 C 0.6497(5) 0.5139(3) 0.3481(6)
H24 H 0.7011 0.4989 0.3454
C37 C 0.84128(14) 0.50353(6) 0.17179(12)
H25 H 0.8909 0.4995 0.2056
C38 C 0.70875(16) 0.77056(7) 0.43924(13)
H26 H 0.7154 0.7868 0.4880
C39 C 0.63049(14) 0.75437(6) 0.31438(12)
H27 H 0.5830 0.7592 0.2779
C40 C 0.76732(15) 0.73960(7) 0.42244(12)
H28 H 0.8137 0.7344 0.4600
C41 C 0.99274(13) 0.57455(7) 0.43633(12)
H29 H 1.0021 0.5567 0.3910
C42 C 0.82937(16) 0.48095(7) 0.09947(13)
H30 H 0.8708 0.4612 0.0842
C43 C 1.05757(13) 0.58299(8) 0.49327(13)
H31 H 1.1111 0.5710 0.4858
C44 C 0.69784(15) 0.51574(7) 0.07141(12)
H32 H 0.6490 0.5201 0.0367
C45 C 0.75798(16) 0.48697(7) 0.04957(13)
H33 H 0.7502 0.4713 0.0002
C46 C 0.36899(13) 0.59384(7) -0.18269(13)
H34 H 0.4211 0.5938 -0.2105
H35 H 0.3215 0.5899 -0.2225
H36 H 0.3701 0.5702 -0.1431
C47 C 0.64045(15) 0.77791(7) 0.38530(13)
H37 H 0.6003 0.7992 0.3971
C48 C 1.20469(15) 0.61400(10) 0.58905(16)
H38 H 1.2145 0.5848 0.5691
H39 H 1.2484 0.6215 0.6310
H40 H 1.2059 0.6346 0.5440
C49 C 1.11636(19) 0.58000(12) 0.68846(18)
H41 H 1.0638 0.5818 0.7155
H42 H 1.1636 0.5833 0.7288
H43 H 1.1200 0.5519 0.6617
C50 C 1.11328(18) 0.65999(10) 0.6650(2)
H44 H 1.1121 0.6825 0.6232
H45 H 1.1620 0.6643 0.7032
H46 H 1.0621 0.6616 0.6942
O3 O 0.27641(7) 0.61196(4) 0.22958(7)
O4 O 0.20002(7) 0.63552(4) 0.25153(7)
N5 N 0.20131(9) 0.59113(5) 0.10705(8)
N6 N 0.10917(9) 0.55030(5) 0.17871(9)
N7 N 0.36605(10) 0.69809(5) 0.30179(9)
N8 N 0.27745(9) 0.65503(4) 0.37344(8)
C66 C 0.17698(11) 0.55148(5) 0.22463(11)
C67 C 0.18633(11) 0.53174(6) 0.30546(11)
C68 C 0.28438(12) 0.71826(6) 0.17842(11)
C69 C 0.32265(11) 0.55080(6) 0.16490(10)
C70 C 0.24517(11) 0.57637(6) 0.18261(10)
C71 C 0.07029(11) 0.61339(6) -0.01516(11)
H66 H 0.1225 0.6276 -0.0183
C72 C 0.29726(11) 0.69671(5) 0.25748(11)
C73 C 0.41933(11) 0.66361(6) 0.43203(11)
C74 C 0.23136(11) 0.67039(5) 0.29959(10)
C75 C 0.35089(11) 0.67134(5) 0.37074(11)
C76 C -0.07207(11) 0.60240(6) -0.07013(11)
C77 C 0.32886(12) 0.50672(6) 0.17925(12)
H67 H 0.2840 0.4918 0.2016
C78 C 0.00568(12) 0.62223(6) -0.07195(11)
H68 H 0.0145 0.6425 -0.1137
C79 C 0.12707(11) 0.57570(6) 0.10889(10)
C80 C 0.05961(11) 0.58395(6) 0.04644(11)
C81 C 0.25757(12) 0.53882(6) 0.35721(11)
H69 H 0.3005 0.5574 0.3410
C82 C 0.62392(12) 0.63752(6) 0.61126(12)
C83 C -0.14359(12) 0.61236(6) -0.13298(11)
C84 C 0.41078(12) 0.63388(6) 0.49385(12)
H70 H 0.3597 0.6186 0.4968
C85 C 0.55182(11) 0.64801(6) 0.54918(11)
C86 C 0.55912(12) 0.67782(7) 0.48695(13)
H71 H 0.6101 0.6933 0.4840
C87 C 0.40023(13) 0.48446(6) 0.16112(13)
H72 H 0.4039 0.4542 0.1707
C88 C -0.08093(13) 0.57258(7) -0.00854(14)
H73 H -0.1329 0.5581 -0.0057
C89 C 0.21315(13) 0.71068(6) 0.12721(11)
H74 H 0.1723 0.6905 0.1423
C90 C 0.47568(12) 0.62646(6) 0.55083(12)
H75 H 0.4684 0.6060 0.5926
C91 C 0.46588(13) 0.50582(7) 0.12935(14)
H76 H 0.5153 0.4906 0.1180
C92 C 0.34471(14) 0.74732(6) 0.15471(12)
H77 H 0.3941 0.7521 0.1886
C93 C -0.01684(13) 0.56331(7) 0.04873(13)
H78 H -0.0252 0.5427 0.0899
C94 C 0.38764(12) 0.57200(7) 0.13131(13)
H79 H 0.3834 0.6020 0.1199
C95 C -0.13986(14) 0.57996(8) -0.20244(13)
H80 H -0.0876 0.5839 -0.2292
H81 H -0.1874 0.5847 -0.2418
H82 H -0.1421 0.5505 -0.1809
C96 C 0.33261(17) 0.76918(7) 0.08210(13)
H83 H 0.3735 0.7892 0.0664
C97 C 0.49454(12) 0.68562(7) 0.42939(12)
H84 H 0.5016 0.7062 0.3877
C98 C 0.45911(14) 0.54958(7) 0.11414(15)
H85 H 0.5040 0.5645 0.0917
C99 C -0.22879(13) 0.60809(8) -0.09614(14)
H86 H -0.2383 0.5778 -0.0820
H87 H -0.2731 0.6177 -0.1358
H88 H -0.2293 0.6260 -0.0472
C100 C 0.20225(15) 0.73267(7) 0.05418(12)
H89 H 0.1539 0.7275 0.0191
C101 C 0.12283(12) 0.50512(6) 0.33100(12)
H90 H 0.0737 0.5006 0.2968
C102 C 0.20310(15) 0.49193(7) 0.45617(13)
H91 H 0.2092 0.4778 0.5073
C103 C 0.13160(14) 0.48549(7) 0.40597(13)
H92 H 0.0883 0.4674 0.4233
C104 C 0.26541(13) 0.51876(6) 0.43197(12)
H93 H 0.3140 0.5235 0.4669
C105 C 0.26149(16) 0.76216(7) 0.03217(13)
H94 H 0.2532 0.7776 -0.0174
C106 C -0.13755(14) 0.65810(7) -0.16652(16)
H95 H -0.1342 0.6788 -0.1215
H96 H -0.1872 0.6643 -0.2025
H97 H -0.0874 0.6606 -0.1971
C107 C 0.69100(16) 0.67262(9) 0.61392(18)
H98 H 0.7142 0.6749 0.5607
H99 H 0.7357 0.6651 0.6549
H100 H 0.6662 0.7003 0.6279
C108 C 0.66342(15) 0.59515(8) 0.58506(16)
H101 H 0.6213 0.5722 0.5832
H102 H 0.7097 0.5874 0.6241
H103 H 0.6845 0.5988 0.5311
C109 C 0.59248(17) 0.63272(12) 0.69522(15)
H104 H 0.5630 0.6591 0.7095
H105 H 0.6399 0.6279 0.7347
H106 H 0.5542 0.6081 0.6959
C110 C 0.1560(2) 0.69647(16) 0.32192(18)
C111 C 0.0914(3) 0.67385(12) 0.3547(4)
H107 H 0.0949 0.6434 0.3606
C112 C 0.0215(3) 0.69583(14) 0.3787(4)
H108 H -0.0227 0.6804 0.4011
C113 C 0.0164(3) 0.74042(14) 0.3700(3)
H109 H -0.0313 0.7554 0.3865
C114 C 0.0811(4) 0.76304(11) 0.3373(3)
H110 H 0.0776 0.7935 0.3314
C115 C 0.1509(3) 0.74106(16) 0.3132(3)
H111 H 0.1951 0.7565 0.2909
C51? C 1.0858(18) 0.6111(12) 0.7055(16)
H47? H 1.0533 0.6368 0.7177
H48? H 1.1322 0.6077 0.7467
H49? H 1.0497 0.5856 0.7057
C52? C 1.1596(16) 0.6540(9) 0.5942(18)
H50? H 1.1825 0.6470 0.5421
H51? H 1.2050 0.6631 0.6330
H52? H 1.1188 0.6774 0.5864
C53? C 1.1837(13) 0.5776(8) 0.6230(14)
H53? H 1.1537 0.5500 0.6227
H54? H 1.2229 0.5790 0.6710
H55? H 1.2146 0.5799 0.5740
C54? C 0.8304(5) 0.6906(3) 0.1608(4)
C55? C 0.9031(6) 0.6663(3) 0.1590(6)
H56? H 0.9025 0.6364 0.1719
C56? C 0.9769(5) 0.6858(4) 0.1381(7)
H57? H 1.0266 0.6692 0.1368
C57? C 0.9778(6) 0.7295(4) 0.1191(6)
H58? H 1.0282 0.7428 0.1048
C58? C 0.9051(8) 0.7538(3) 0.1210(6)
H59? H 0.9057 0.7837 0.1080
C59? C 0.8313(6) 0.7343(3) 0.1419(5)
H60? H 0.7816 0.7509 0.1431
C60? C 0.6571(8) 0.5552(6) 0.3351(12)
C61? C 0.5844(9) 0.5750(4) 0.3581(10)
H61? H 0.5793 0.6055 0.3562
C62? C 0.5192(8) 0.5500(4) 0.3839(9)
H62? H 0.4696 0.5634 0.3996
C63? C 0.5267(8) 0.5053(4) 0.3867(8)
H63? H 0.4821 0.4882 0.4044
C64? C 0.5993(9) 0.4855(4) 0.3637(11)
H64? H 0.6044 0.4550 0.3656
C65? C 0.6645(8) 0.5105(6) 0.3379(13)
H65? H 0.7142 0.4971 0.3222
C116? C 0.1494(7) 0.6931(5) 0.3194(6)
C117? C 0.0744(8) 0.6711(4) 0.3252(8)
H112? H 0.0717 0.6409 0.3152
C118? C 0.0034(7) 0.6933(5) 0.3458(9)
H113? H -0.0478 0.6783 0.3498
C119? C 0.0075(10) 0.7375(5) 0.3605(8)
H114? H -0.0410 0.7527 0.3746
C120? C 0.0824(12) 0.7595(4) 0.3547(9)
H115? H 0.0852 0.7897 0.3648
C121? C 0.1534(9) 0.7373(5) 0.3342(8)
H116? H 0.2046 0.7523 0.3302
C122? C 0.7110(10) 0.6441(6) 0.5834(11)
H117? H 0.7194 0.6253 0.5370
H118? H 0.7523 0.6371 0.6279
H119? H 0.7179 0.6743 0.5674
C123? C 0.6246(9) 0.5905(5) 0.6453(10)
H120? H 0.5836 0.5880 0.6864
H121? H 0.6805 0.5837 0.6698
H122? H 0.6104 0.5702 0.6009
C124? C 0.6160(10) 0.6697(7) 0.6861(9)
H123? H 0.6309 0.6990 0.6700
H124? H 0.6539 0.6603 0.7317
H125? H 0.5583 0.6694 0.7025
loop_
_geom_bond_atom_site_label_1
_geom_bond_atom_site_label_2
_geom_bond_site_symmetry_1
_geom_bond_site_symmetry_2
O1 O2 1_555 1_555
O2 C21 1_555 1_555
N1 C2 1_555 1_555
N2 C3 1_555 1_555
C1 N3 1_555 1_555
N3 C4 1_555 1_555
N4 C2 1_555 1_555
C2 C11 1_555 1_555
C3 O1 1_555 1_555
C4 N2 1_555 1_555
C5 C3 1_555 1_555
C6 C5 1_555 1_555
H1 C6 1_555 1_555
C7 C6 1_555 1_555
H2 C7 1_555 1_555
C8 C7 1_555 1_555
H3 C8 1_555 1_555
C9 C8 1_555 1_555
H4 C9 1_555 1_555
C10 C5 1_555 1_555
H5 C10 1_555 1_555
C11 C23 1_555 1_555
C12 C4 1_555 1_555
C13 N4 1_555 1_555
C14 C1 1_555 1_555
C15 C17 1_555 1_555
C16 C12 1_555 1_555
H6 C16 1_555 1_555
C17 C25 1_555 1_555
C18 H7 1_555 1_555
C19 C13 1_555 1_555
C20 C22 1_555 1_555
C21 N1 1_555 1_555
C22 C18 1_555 1_555
C23 C18 1_555 1_555
H8 C23 1_555 1_555
C24 C12 1_555 1_555
H9 C24 1_555 1_555
C25 C24 1_555 1_555
H10 C25 1_555 1_555
C26 C19 1_555 1_555
H11 C26 1_555 1_555
C27 C14 1_555 1_555
H12 C27 1_555 1_555
C28 C16 1_555 1_555
H13 C28 1_555 1_555
C29 C15 1_555 1_555
H14 C29 1_555 1_555
H15 C29 1_555 1_555
H16 C29 1_555 1_555
C30 C15 1_555 1_555
H17 C30 1_555 1_555
H18 C30 1_555 1_555
H19 C30 1_555 1_555
C31 C21 1_555 1_555
C32 C31 1_555 1_555
H20 C32 1_555 1_555
C33 C32 1_555 1_555
H21 C33 1_555 1_555
C34 C33 1_555 1_555
H22 C34 1_555 1_555
C35 C34 1_555 1_555
H23 C35 1_555 1_555
C36 C31 1_555 1_555
H24 C36 1_555 1_555
C37 C19 1_555 1_555
H25 C37 1_555 1_555
C38 H26 1_555 1_555
C39 C14 1_555 1_555
H27 C39 1_555 1_555
C40 C27 1_555 1_555
H28 C40 1_555 1_555
C41 C11 1_555 1_555
H29 C41 1_555 1_555
C42 C37 1_555 1_555
H30 C42 1_555 1_555
C43 C22 1_555 1_555
H31 C43 1_555 1_555
C44 C26 1_555 1_555
H32 C44 1_555 1_555
C45 C42 1_555 1_555
H33 C45 1_555 1_555
C46 C15 1_555 1_555
H34 C46 1_555 1_555
H35 C46 1_555 1_555
H36 C46 1_555 1_555
C47 C38 1_555 1_555
H37 C47 1_555 1_555
C48 C20 1_555 1_555
H38 C48 1_555 1_555
H39 C48 1_555 1_555
H40 C48 1_555 1_555
C49 C20 1_555 1_555
H41 C49 1_555 1_555
H42 C49 1_555 1_555
H43 C49 1_555 1_555
C50 C20 1_555 1_555
H44 C50 1_555 1_555
H45 C50 1_555 1_555
H46 C50 1_555 1_555
O3 O4 1_555 1_555
O4 C74 1_555 1_555
N5 C70 1_555 1_555
N6 C66 1_555 1_555
N7 C72 1_555 1_555
N8 C74 1_555 1_555
C66 C67 1_555 1_555
C67 C81 1_555 1_555
C68 C72 1_555 1_555
C69 C70 1_555 1_555
C70 O3 1_555 1_555
C71 H66 1_555 1_555
C72 C74 1_555 1_555
C73 C75 1_555 1_555
C74 C110 1_555 1_555
C75 N7 1_555 1_555
C76 C78 1_555 1_555
C77 C69 1_555 1_555
H67 C77 1_555 1_555
C78 C71 1_555 1_555
H68 C78 1_555 1_555
C79 N5 1_555 1_555
C80 C71 1_555 1_555
C81 H69 1_555 1_555
C82 C85 1_555 1_555
C83 C76 1_555 1_555
C84 C73 1_555 1_555
H70 C84 1_555 1_555
C85 C86 1_555 1_555
C86 H71 1_555 1_555
C87 C77 1_555 1_555
H72 C87 1_555 1_555
C88 C76 1_555 1_555
H73 C88 1_555 1_555
C89 C68 1_555 1_555
H74 C89 1_555 1_555
C90 C84 1_555 1_555
H75 C90 1_555 1_555
C91 C87 1_555 1_555
H76 C91 1_555 1_555
C92 C68 1_555 1_555
H77 C92 1_555 1_555
C93 C80 1_555 1_555
H78 C93 1_555 1_555
C94 C69 1_555 1_555
H79 C94 1_555 1_555
C95 C83 1_555 1_555
H80 C95 1_555 1_555
H81 C95 1_555 1_555
H82 C95 1_555 1_555
C96 C92 1_555 1_555
H83 C96 1_555 1_555
C97 C73 1_555 1_555
H84 C97 1_555 1_555
C98 C91 1_555 1_555
H85 C98 1_555 1_555
C99 C83 1_555 1_555
H86 C99 1_555 1_555
H87 C99 1_555 1_555
H88 C99 1_555 1_555
C100 C89 1_555 1_555
H89 C100 1_555 1_555
C101 C67 1_555 1_555
H90 C101 1_555 1_555
C102 H91 1_555 1_555
C103 C101 1_555 1_555
H92 C103 1_555 1_555
C104 C81 1_555 1_555
H93 C104 1_555 1_555
C105 C96 1_555 1_555
H94 C105 1_555 1_555
C106 C83 1_555 1_555
H95 C106 1_555 1_555
H96 C106 1_555 1_555
H97 C106 1_555 1_555
C107 C82 1_555 1_555
H98 C107 1_555 1_555
H99 C107 1_555 1_555
H100 C107 1_555 1_555
C108 C82 1_555 1_555
H101 C108 1_555 1_555
H102 C108 1_555 1_555
H103 C108 1_555 1_555
C109 C82 1_555 1_555
H104 C109 1_555 1_555
H105 C109 1_555 1_555
H106 C109 1_555 1_555
C110 C111 1_555 1_555
C111 H107 1_555 1_555
C112 C111 1_555 1_555
H108 C112 1_555 1_555
C113 C112 1_555 1_555
H109 C113 1_555 1_555
C114 C113 1_555 1_555
H110 C114 1_555 1_555
C115 C110 1_555 1_555
H111 C115 1_555 1_555
C1 C3 1_555 1_555
C9 C10 1_555 1_555
C13 C21 1_555 1_555
C17 C28 1_555 1_555
C35 C36 1_555 1_555
C38 C40 1_555 1_555
C39 C47 1_555 1_555
C41 C43 1_555 1_555
C44 C45 1_555 1_555
N6 C79 1_555 1_555
N8 C75 1_555 1_555
C66 C70 1_555 1_555
C79 C80 1_555 1_555
C85 C90 1_555 1_555
C86 C97 1_555 1_555
C88 C93 1_555 1_555
C94 C98 1_555 1_555
C100 C105 1_555 1_555
C102 C103 1_555 1_555
C102 C104 1_555 1_555
C114 C115 1_555 1_555

#END
