
#######################################################################
#
#                 Cambridge Crystallographic Data Centre
#                                CCDC 
#
#######################################################################
#
# If this CIF has been generated from an entry in the Cambridge 
# Structural Database, then it will include bibliographic, chemical, 
# crystal, experimental, refinement or atomic coordinate data resulting 
# from the CCDC's data processing and validation procedures.
#
#######################################################################

data_GEZSEL
_chemical_formula_moiety         'C25 H24 N2'
_chemical_name_systematic        2-(4-t-Butylphenyl)-4,5-diphenyl-1H-imidazole
_symmetry_cell_setting           monoclinic
_symmetry_space_group_name_H-M   'P 21/c'
_symmetry_Int_Tables_number      14
_space_group_name_Hall           '-P 2ybc'
loop_
_symmetry_equiv_pos_site_id
_symmetry_equiv_pos_as_xyz
1 x,y,z
2 -x,1/2+y,1/2-z
3 -x,-y,-z
4 x,1/2-y,1/2+z
_cell_length_a                   36.809(6)
_cell_length_b                   12.205(2)
_cell_length_c                   8.9185(15)
_cell_angle_alpha                90
_cell_angle_beta                 95.551(2)
_cell_angle_gamma                90
_cell_volume                     3987.88
_exptl_crystal_colour            'light colorless'
_exptl_crystal_description       lath
_cell_formula_units_Z            8
loop_
_atom_site_label
_atom_site_type_symbol
_atom_site_fract_x
_atom_site_fract_y
_atom_site_fract_z
N1 N 0.36453(4) 0.26400(14) 0.59315(19)
H1 H 0.3650 0.2130 0.6630
N2 N 0.37570(4) 0.35009(14) 0.38435(19)
C1 C 0.38320(5) 0.26210(16) 0.4704(2)
C2 C 0.43043(5) 0.18553(18) 0.3212(2)
H2 H 0.4343 0.2567 0.2826
C3 C 0.30500(5) 0.30893(19) 0.7902(2)
H3 H 0.3041 0.2359 0.7532
C4 C 0.34456(5) 0.35934(16) 0.5905(2)
C5 C 0.42203(6) -0.02071(18) 0.4399(3)
H4 H 0.4195 -0.0910 0.4837
C6 C 0.44889(6) 0.09669(19) 0.2681(3)
H5 H 0.4646 0.1077 0.1910
C7 C 0.40630(5) 0.17113(16) 0.4309(2)
C8 C 0.32364(5) 0.38917(17) 0.7166(2)
C9 C 0.40282(6) 0.06711(17) 0.4922(2)
H6 H 0.3873 0.0562 0.5699
C10 C 0.44481(6) -0.00866(18) 0.3254(2)
C11 C 0.32407(6) 0.49633(18) 0.7713(3)
H7 H 0.3364 0.5519 0.7215
C12 C 0.33486(6) 0.51180(16) 0.3899(2)
C13 C 0.30672(7) 0.5222(2) 0.8973(3)
H8 H 0.3070 0.5956 0.9328
C14 C 0.35132(5) 0.41138(16) 0.4586(2)
C15 C 0.29804(6) 0.53651(19) 0.4012(3)
H9 H 0.2837 0.4893 0.4561
C16 C 0.28777(6) 0.3353(2) 0.9174(3)
H10 H 0.2752 0.2803 0.9671
C17 C 0.28247(7) 0.6295(2) 0.3327(3)
H11 H 0.2575 0.6457 0.3417
C18 C 0.35525(6) 0.58246(18) 0.3081(3)
H12 H 0.3803 0.5670 0.2995
C19 C 0.28898(7) 0.4420(2) 0.9720(3)
H13 H 0.2777 0.4598 1.0602
C20 C 0.30290(7) 0.6989(2) 0.2515(3)
H14 H 0.2921 0.7624 0.2044
C21 C 0.33948(7) 0.67497(19) 0.2392(3)
H15 H 0.3537 0.7222 0.1834
C22 C 0.46404(8) -0.1073(2) 0.2632(3)
C23 C 0.49328(16) -0.1508(5) 0.4017(7)
H16 H 0.5043 -0.2197 0.3722
H17 H 0.4805 -0.1630 0.4917
H18 H 0.5124 -0.0958 0.4236
C24 C 0.48648(16) -0.0848(5) 0.1367(7)
H19 H 0.5052 -0.0303 0.1683
H20 H 0.4708 -0.0568 0.0502
H21 H 0.4983 -0.1527 0.1082
C25 C 0.43752(16) -0.2006(5) 0.2253(7)
H22 H 0.4196 -0.1785 0.1423
H23 H 0.4249 -0.2185 0.3140
H24 H 0.4509 -0.2650 0.1953
N3 N 0.13650(4) 0.26277(14) 0.19638(19)
H34 H 0.1367 0.2116 0.2659
N4 N 0.12368(4) 0.34893(14) -0.02103(19)
C29 C 0.09452(5) 0.16851(16) 0.0009(2)
C30 C 0.06997(5) 0.18341(17) -0.1266(2)
H35 H 0.0662 0.2547 -0.1678
C31 C 0.16177(6) 0.51459(16) 0.0118(2)
C32 C 0.11742(5) 0.26008(16) 0.0585(2)
C33 C 0.09825(6) 0.06389(17) 0.0633(2)
H36 H 0.1143 0.0523 0.1517
C34 C 0.17737(5) 0.39011(17) 0.3490(2)
C35 C 0.15564(5) 0.36026(16) 0.2082(2)
C36 C 0.07861(6) -0.02360(18) -0.0031(2)
H37 H 0.0812 -0.0940 0.0420
C37 C 0.13930(6) 0.57744(18) -0.0900(3)
H38 H 0.1145 0.5567 -0.1139
C38 C 0.05106(6) 0.09555(18) -0.1936(2)
H39 H 0.0349 0.1074 -0.2819
C39 C 0.19657(5) 0.31054(18) 0.4366(2)
H40 H 0.1967 0.2369 0.4022
C40 C 0.05507(6) -0.01055(18) -0.1346(2)
C41 C 0.21128(6) 0.64055(19) -0.0198(3)
H41 H 0.2359 0.6624 0.0052
C42 C 0.21554(6) 0.33815(19) 0.5740(2)
H42 H 0.2282 0.2831 0.6336
C43 C 0.19794(6) 0.54777(18) 0.0465(3)
H43 H 0.2136 0.5064 0.1162
C44 C 0.14755(5) 0.41222(16) 0.0714(2)
C45 C 0.21605(6) 0.4458(2) 0.6243(3)
H44 H 0.2292 0.4647 0.7177
C46 C 0.17788(6) 0.49830(18) 0.4011(2)
H45 H 0.1649 0.5534 0.3429
C47 C 0.15275(7) 0.67001(19) -0.1569(3)
H46 H 0.1372 0.7119 -0.2263
C48 C 0.19727(7) 0.5257(2) 0.5376(3)
H47 H 0.1977 0.5995 0.5716
C49 C 0.18895(7) 0.70129(18) -0.1220(3)
H48 H 0.1983 0.7641 -0.1682
C50 C 0.03482(8) -0.1076(2) -0.2107(3)
C51 C 0.00495(15) -0.1474(4) -0.0916(6)
H49 H -0.0136 -0.0904 -0.0855
H50 H 0.0178 -0.1595 0.0085
H51 H -0.0068 -0.2156 -0.1281
C52 C 0.01127(15) -0.0843(4) -0.3522(6)
H52 H -0.0005 -0.1522 -0.3901
H53 H 0.0263 -0.0548 -0.4278
H54 H -0.0074 -0.0306 -0.3319
C53 C 0.05924(15) -0.2036(4) -0.2257(6)
H55 H 0.0449 -0.2651 -0.2702
H56 H 0.0706 -0.2246 -0.1260
H57 H 0.0782 -0.1841 -0.2908
C26? C 0.44232(16) -0.1055(5) 0.0788(6)
H25? H 0.4446 -0.0324 0.0353
H26? H 0.4164 -0.1234 0.0811
H27? H 0.4538 -0.1596 0.0174
C27? C 0.45193(17) -0.2125(5) 0.3073(7)
H28? H 0.4607 -0.2687 0.2409
H29? H 0.4252 -0.2138 0.2996
H30? H 0.4616 -0.2274 0.4115
C28? C 0.50060(16) -0.0838(5) 0.2366(7)
H31? H 0.5154 -0.0745 0.3331
H32? H 0.5013 -0.0163 0.1776
H33? H 0.5104 -0.1445 0.1809
C54? C -0.00212(15) -0.0832(4) -0.2606(6)
H58? H -0.0122 -0.1415 -0.3278
H59? H -0.0033 -0.0133 -0.3150
H60? H -0.0163 -0.0779 -0.1734
C55? C 0.05618(15) -0.1092(4) -0.3785(6)
H61? H 0.0456 -0.1677 -0.4442
H62? H 0.0824 -0.1224 -0.3551
H63? H 0.0525 -0.0385 -0.4296
C56? C 0.04490(16) -0.2138(4) -0.1489(6)
H64? H 0.0380 -0.2188 -0.0458
H65? H 0.0713 -0.2238 -0.1480
H66? H 0.0323 -0.2710 -0.2110
loop_
_geom_bond_atom_site_label_1
_geom_bond_atom_site_label_2
_geom_bond_site_symmetry_1
_geom_bond_site_symmetry_2
N1 H1 1_555 1_555
N2 C1 1_555 1_555
C1 N1 1_555 1_555
C2 H2 1_555 1_555
C3 H3 1_555 1_555
C4 N1 1_555 1_555
C5 H4 1_555 1_555
C6 C2 1_555 1_555
H5 C6 1_555 1_555
C7 C1 1_555 1_555
C8 C3 1_555 1_555
C9 C5 1_555 1_555
H6 C9 1_555 1_555
C10 C5 1_555 1_555
C11 C8 1_555 1_555
H7 C11 1_555 1_555
C12 C14 1_555 1_555
C13 C11 1_555 1_555
H8 C13 1_555 1_555
C14 N2 1_555 1_555
C15 C12 1_555 1_555
H9 C15 1_555 1_555
C16 C3 1_555 1_555
H10 C16 1_555 1_555
C17 C15 1_555 1_555
H11 C17 1_555 1_555
C18 C12 1_555 1_555
H12 C18 1_555 1_555
C19 C13 1_555 1_555
H13 C19 1_555 1_555
C20 C17 1_555 1_555
H14 C20 1_555 1_555
C21 C18 1_555 1_555
H15 C21 1_555 1_555
C22 C10 1_555 1_555
C23 C22 1_555 1_555
H16 C23 1_555 1_555
H17 C23 1_555 1_555
H18 C23 1_555 1_555
C24 C22 1_555 1_555
H19 C24 1_555 1_555
H20 C24 1_555 1_555
H21 C24 1_555 1_555
C25 C22 1_555 1_555
H22 C25 1_555 1_555
H23 C25 1_555 1_555
H24 C25 1_555 1_555
N3 H34 1_555 1_555
N4 C32 1_555 1_555
C29 C30 1_555 1_555
C30 H35 1_555 1_555
C31 C37 1_555 1_555
C32 N3 1_555 1_555
C33 C29 1_555 1_555
H36 C33 1_555 1_555
C34 C35 1_555 1_555
C35 N3 1_555 1_555
C36 C33 1_555 1_555
H37 C36 1_555 1_555
C37 H38 1_555 1_555
C38 C30 1_555 1_555
H39 C38 1_555 1_555
C39 C34 1_555 1_555
H40 C39 1_555 1_555
C40 C36 1_555 1_555
C41 H41 1_555 1_555
C42 C39 1_555 1_555
H42 C42 1_555 1_555
C43 C31 1_555 1_555
H43 C43 1_555 1_555
C44 N4 1_555 1_555
C45 C42 1_555 1_555
H44 C45 1_555 1_555
C46 C34 1_555 1_555
H45 C46 1_555 1_555
C47 C37 1_555 1_555
H46 C47 1_555 1_555
C48 C45 1_555 1_555
H47 C48 1_555 1_555
C49 C41 1_555 1_555
H48 C49 1_555 1_555
C50 C40 1_555 1_555
C51 C50 1_555 1_555
H49 C51 1_555 1_555
H50 C51 1_555 1_555
H51 C51 1_555 1_555
C52 C50 1_555 1_555
H52 C52 1_555 1_555
H53 C52 1_555 1_555
H54 C52 1_555 1_555
C53 C50 1_555 1_555
H55 C53 1_555 1_555
H56 C53 1_555 1_555
H57 C53 1_555 1_555
C2 C7 1_555 1_555
C4 C8 1_555 1_555
C4 C14 1_555 1_555
C6 C10 1_555 1_555
C7 C9 1_555 1_555
C16 C19 1_555 1_555
C20 C21 1_555 1_555
C29 C32 1_555 1_555
C31 C44 1_555 1_555
C35 C44 1_555 1_555
C38 C40 1_555 1_555
C41 C43 1_555 1_555
C46 C48 1_555 1_555
C47 C49 1_555 1_555

#END
