
#######################################################################
#
#                 Cambridge Crystallographic Data Centre
#                                CCDC 
#
#######################################################################
#
# If this CIF has been generated from an entry in the Cambridge 
# Structural Database, then it will include bibliographic, chemical, 
# crystal, experimental, refinement or atomic coordinate data resulting 
# from the CCDC's data processing and validation procedures.
#
#######################################################################

data_GIBFUV
_chemical_formula_moiety         'C31 H25 Cl1'
_chemical_name_systematic        
7-((4-chlorophenyl)(phenyl)methylidene)-7a,8,9,10,11,11a-hexahydro-7H-8,11-methanobenzo[c]fluorene
_symmetry_cell_setting           monoclinic
_symmetry_space_group_name_H-M   'P 21/n'
_symmetry_Int_Tables_number      14
_space_group_name_Hall           '-P 2yn'
loop_
_symmetry_equiv_pos_site_id
_symmetry_equiv_pos_as_xyz
1 x,y,z
2 1/2-x,1/2+y,1/2-z
3 -x,-y,-z
4 1/2+x,1/2-y,1/2+z
_cell_length_a                   9.90789(18)
_cell_length_b                   19.4213(4)
_cell_length_c                   11.7413(2)
_cell_angle_alpha                90
_cell_angle_beta                 90.2212(17)
_cell_angle_gamma                90
_cell_volume                     2259.29
_exptl_crystal_colour            colorless
_exptl_crystal_description       block
_cell_formula_units_Z            4
loop_
_atom_site_label
_atom_site_type_symbol
_atom_site_fract_x
_atom_site_fract_y
_atom_site_fract_z
Cl1 Cl 1.00174(9) 0.32235(6) 1.07145(7)
C1 C 0.6926(2) 0.36118(11) 0.79547(18)
C2 C 0.5317(2) 0.37851(11) 0.49403(18)
C3 C 0.5272(2) 0.35703(11) 0.28920(19)
C4 C 0.4520(2) 0.39345(12) 0.74609(18)
C5 C 0.5899(2) 0.37457(11) 0.70465(19)
C6 C 0.5939(2) 0.35510(11) 0.39648(19)
C7 C 0.6200(2) 0.36703(11) 0.59383(18)
C8 C 0.7350(2) 0.32952(11) 0.41938(18)
H1 H 0.7449 0.2808 0.3993
C9 C 0.7552(2) 0.34169(12) 0.54953(18)
H2 H 0.7821 0.2990 0.5878
C10 C 0.3960(2) 0.38607(12) 0.2836(2)
C11 C 0.7378(2) 0.29533(12) 0.81919(19)
H3 H 0.7047 0.2586 0.7767
C12 C 0.3383(2) 0.41365(13) 0.3845(2)
H4 H 0.2541 0.4347 0.3804
C13 C 0.5854(3) 0.33116(13) 0.1874(2)
H5 H 0.6711 0.3117 0.1894
C14 C 0.4027(2) 0.41000(13) 0.4865(2)
H6 H 0.3624 0.4281 0.5513
C15 C 0.8472(2) 0.37404(13) 0.3659(2)
H7 H 0.8340 0.3847 0.2851
C16 C 0.3491(3) 0.34488(14) 0.7448(2)
H8 H 0.3671 0.3002 0.7207
C17 C 0.8714(2) 0.39517(13) 0.5527(2)
H9 H 0.8758 0.4227 0.6226
C18 C 0.4223(3) 0.45874(13) 0.7855(2)
H10 H 0.4902 0.4917 0.7893
C19 C 0.3270(3) 0.38754(14) 0.1783(2)
H11 H 0.2401 0.4056 0.1744
C20 C 0.8314(3) 0.28285(14) 0.9048(2)
H12 H 0.8597 0.2382 0.9206
C21 C 0.7445(3) 0.41506(14) 0.8610(2)
H13 H 0.7148 0.4598 0.8477
C22 C 0.8468(3) 0.43665(13) 0.4448(2)
H14 H 0.9194 0.4687 0.4285
H15 H 0.7608 0.4605 0.4452
C23 C 0.8396(3) 0.40309(16) 0.9454(2)
H16 H 0.8744 0.4395 0.9878
C24 C 1.0022(3) 0.35741(16) 0.5230(2)
H17 H 1.0126 0.3159 0.5682
H18 H 1.0803 0.3868 0.5348
C25 C 0.8815(3) 0.33721(16) 0.9658(2)
C26 C 0.9827(3) 0.33999(16) 0.3948(2)
H19 H 1.0550 0.3591 0.3493
H20 H 0.9789 0.2906 0.3828
C27 C 0.2203(3) 0.36228(17) 0.7790(2)
H21 H 0.1523 0.3293 0.7776
C28 C 0.5164(3) 0.33460(16) 0.0862(2)
H22 H 0.5562 0.3182 0.0200
C29 C 0.3865(3) 0.36262(16) 0.0818(2)
H23 H 0.3403 0.3643 0.0127
C30 C 0.1921(3) 0.42758(18) 0.8147(3)
H24 H 0.1048 0.4394 0.8359
C31 C 0.2932(3) 0.47566(16) 0.8192(3)
H25 H 0.2748 0.5199 0.8452
loop_
_geom_bond_atom_site_label_1
_geom_bond_atom_site_label_2
_geom_bond_site_symmetry_1
_geom_bond_site_symmetry_2
Cl1 C25 1_555 1_555
C1 C5 1_555 1_555
C2 C6 1_555 1_555
C3 C6 1_555 1_555
C4 C5 1_555 1_555
C5 C7 1_555 1_555
C6 C8 1_555 1_555
C7 C2 1_555 1_555
C8 H1 1_555 1_555
C9 C7 1_555 1_555
H2 C9 1_555 1_555
C10 C3 1_555 1_555
C11 C1 1_555 1_555
H3 C11 1_555 1_555
C12 C10 1_555 1_555
H4 C12 1_555 1_555
C13 C3 1_555 1_555
H5 C13 1_555 1_555
C14 C2 1_555 1_555
H6 C14 1_555 1_555
C15 C8 1_555 1_555
H7 C15 1_555 1_555
C16 C4 1_555 1_555
H8 C16 1_555 1_555
C17 C9 1_555 1_555
H9 C17 1_555 1_555
C18 C4 1_555 1_555
H10 C18 1_555 1_555
C19 C10 1_555 1_555
H11 C19 1_555 1_555
C20 C11 1_555 1_555
H12 C20 1_555 1_555
C21 C1 1_555 1_555
H13 C21 1_555 1_555
C22 C15 1_555 1_555
H14 C22 1_555 1_555
H15 C22 1_555 1_555
C23 C21 1_555 1_555
H16 C23 1_555 1_555
C24 C17 1_555 1_555
H17 C24 1_555 1_555
H18 C24 1_555 1_555
C25 C20 1_555 1_555
C26 C15 1_555 1_555
H19 C26 1_555 1_555
H20 C26 1_555 1_555
C27 C16 1_555 1_555
H21 C27 1_555 1_555
C28 C13 1_555 1_555
H22 C28 1_555 1_555
C29 C19 1_555 1_555
H23 C29 1_555 1_555
C30 C27 1_555 1_555
H24 C30 1_555 1_555
C31 C18 1_555 1_555
H25 C31 1_555 1_555
C8 C9 1_555 1_555
C12 C14 1_555 1_555
C17 C22 1_555 1_555
C23 C25 1_555 1_555
C24 C26 1_555 1_555
C28 C29 1_555 1_555
C30 C31 1_555 1_555

#END
