
#######################################################################
#
#                 Cambridge Crystallographic Data Centre
#                                CCDC 
#
#######################################################################
#
# If this CIF has been generated from an entry in the Cambridge 
# Structural Database, then it will include bibliographic, chemical, 
# crystal, experimental, refinement or atomic coordinate data resulting 
# from the CCDC's data processing and validation procedures.
#
#######################################################################

data_GICLEM
_chemical_name_common            
'5-((4-(1H-benzo[d]imidazol-2-yl)-2-methoxyphenoxy)methyl)-2-chlorothiazole chloroform methanol solvate'
_chemical_formula_moiety         'C18 H14 Cl1 N3 O2 S1,C1 H4 O1,C1 H1 Cl3'
_chemical_name_systematic        
'2-{4-[(2-chloro-1,3-thiazol-5-yl)methoxy]-3-methoxyphenyl}-1H-benzimidazole chloroform methanol solvate'
_symmetry_cell_setting           monoclinic
_symmetry_space_group_name_H-M   'P 21/c'
_symmetry_Int_Tables_number      14
_space_group_name_Hall           '-P 2ybc'
loop_
_symmetry_equiv_pos_site_id
_symmetry_equiv_pos_as_xyz
1 x,y,z
2 -x,1/2+y,1/2-z
3 -x,-y,-z
4 x,1/2-y,1/2+z
_cell_length_a                   14.2134(9)
_cell_length_b                   21.4083(13)
_cell_length_c                   7.6709(5)
_cell_angle_alpha                90
_cell_angle_beta                 99.260(6)
_cell_angle_gamma                90
_cell_volume                     2303.72
_exptl_crystal_colour            yellow
_exptl_crystal_description       block
_cell_formula_units_Z            4
loop_
_atom_site_label
_atom_site_type_symbol
_atom_site_fract_x
_atom_site_fract_y
_atom_site_fract_z
S1 S 0.17167(6) 0.18474(4) 0.32197(11)
Cl1 Cl -0.00451(7) 0.10788(4) 0.30692(12)
O1 O 0.29934(15) 0.30957(10) 0.4898(3)
O2 O 0.40726(16) 0.30557(11) 0.7963(3)
N1 N 0.69270(18) 0.45658(12) 0.7559(3)
N2 N 0.6898(2) 0.46525(14) 0.4646(4)
N3 N 0.0034(2) 0.23116(15) 0.3072(5)
C1 C 0.3807(2) 0.34506(14) 0.5060(4)
C2 C 0.7737(2) 0.48876(14) 0.7238(4)
C3 C 0.6452(2) 0.44342(14) 0.5975(4)
C4 C 0.5538(2) 0.40997(14) 0.5636(4)
C5 C 0.4410(2) 0.34145(14) 0.6716(4)
C6 C 0.5268(2) 0.37287(15) 0.6984(4)
H1 H 0.5671 0.3695 0.8062
C7 C 0.1611(2) 0.26497(15) 0.3189(4)
C8 C 0.4072(2) 0.38215(16) 0.3744(4)
H2 H 0.3674 0.3853 0.2660
C9 C 0.7727(2) 0.49437(15) 0.5415(4)
C10 C 0.8502(2) 0.51352(15) 0.8423(4)
H3 H 0.8521 0.5106 0.9637
C11 C 0.2421(2) 0.30846(16) 0.3163(4)
H4 H 0.2804 0.2947 0.2298
H5 H 0.2184 0.3501 0.2841
C12 C 0.0498(2) 0.17987(16) 0.3136(4)
C13 C 0.4931(2) 0.41483(16) 0.4032(4)
H6 H 0.5099 0.4401 0.3144
C14 C 0.9229(2) 0.54245(16) 0.7718(5)
H7 H 0.9745 0.5590 0.8478
C15 C 0.9206(2) 0.54730(17) 0.5902(5)
H8 H 0.9708 0.5668 0.5478
C16 C 0.4668(3) 0.30177(18) 0.9655(4)
H9 H 0.5242 0.2795 0.9542
H10 H 0.4335 0.2801 1.0466
H11 H 0.4826 0.3431 1.0089
C17 C 0.8449(3) 0.52375(17) 0.4703(5)
H12 H 0.8429 0.5275 0.3490
C18 C 0.0661(2) 0.27947(17) 0.3129(6)
H13 H 0.0456 0.3207 0.3128
H14 H 0.675(3) 0.4587(18) 0.365(6)
Cl2 Cl 0.84389(11) 0.33899(7) 0.4571(2)
Cl3 Cl 0.81331(16) 0.34423(9) 0.0764(3)
Cl4 Cl 0.67863(11) 0.28270(16) 0.2568(2)
C19 C 0.7976(3) 0.3003(2) 0.2607(6)
H15 H 0.8325 0.2609 0.2570
O3 O 0.6467(3) 0.47183(14) 0.0945(3)
H16 H 0.6623 0.4589 0.0027
C20 C 0.6277(4) 0.5345(3) 0.0790(6)
H17 H 0.6272 0.5520 0.1941
H18 H 0.5667 0.5408 0.0071
H19 H 0.6761 0.5547 0.0251
loop_
_geom_bond_atom_site_label_1
_geom_bond_atom_site_label_2
_geom_bond_site_symmetry_1
_geom_bond_site_symmetry_2
S1 C7 1_555 1_555
Cl1 C12 1_555 1_555
O1 C1 1_555 1_555
O2 C5 1_555 1_555
N1 C2 1_555 1_555
N2 C3 1_555 1_555
N3 C12 1_555 1_555
C1 C5 1_555 1_555
C2 C9 1_555 1_555
C3 N1 1_555 1_555
C4 C3 1_555 1_555
C5 C6 1_555 1_555
C6 C4 1_555 1_555
H1 C6 1_555 1_555
C7 C11 1_555 1_555
C8 C1 1_555 1_555
H2 C8 1_555 1_555
C9 N2 1_555 1_555
C10 C2 1_555 1_555
H3 C10 1_555 1_555
C11 O1 1_555 1_555
H4 C11 1_555 1_555
H5 C11 1_555 1_555
C12 S1 1_555 1_555
C13 C4 1_555 1_555
H6 C13 1_555 1_555
C14 C10 1_555 1_555
H7 C14 1_555 1_555
C15 C14 1_555 1_555
H8 C15 1_555 1_555
C16 O2 1_555 1_555
H9 C16 1_555 1_555
H10 C16 1_555 1_555
H11 C16 1_555 1_555
C17 C9 1_555 1_555
H12 C17 1_555 1_555
C18 N3 1_555 1_555
H13 C18 1_555 1_555
H14 N2 1_555 1_555
Cl2 C19 1_555 1_555
Cl3 C19 1_555 1_555
Cl4 C19 1_555 1_555
C19 H15 1_555 1_555
O3 H16 1_555 1_555
C20 O3 1_555 1_555
H17 C20 1_555 1_555
H18 C20 1_555 1_555
H19 C20 1_555 1_555
C7 C18 1_555 1_555
C8 C13 1_555 1_555
C15 C17 1_555 1_555

#END
