
#######################################################################
#
#                 Cambridge Crystallographic Data Centre
#                                CCDC 
#
#######################################################################
#
# If this CIF has been generated from an entry in the Cambridge 
# Structural Database, then it will include bibliographic, chemical, 
# crystal, experimental, refinement or atomic coordinate data resulting 
# from the CCDC's data processing and validation procedures.
#
#######################################################################

data_GICRAO
_chemical_formula_moiety         'C17 H13 N3'
_chemical_name_systematic        2-(3-methyl-1H-indazol-1-yl)quinoline
_symmetry_cell_setting           monoclinic
_symmetry_space_group_name_H-M   'P 21/n'
_symmetry_Int_Tables_number      14
_space_group_name_Hall           '-P 2yn'
loop_
_symmetry_equiv_pos_site_id
_symmetry_equiv_pos_as_xyz
1 x,y,z
2 1/2-x,1/2+y,1/2-z
3 -x,-y,-z
4 1/2+x,1/2-y,1/2+z
_cell_length_a                   7.4320(7)
_cell_length_b                   10.9216(10)
_cell_length_c                   15.6584(14)
_cell_angle_alpha                90
_cell_angle_beta                 91.0200(10)
_cell_angle_gamma                90
_cell_volume                     1270.78
_exptl_crystal_colour            pink
_exptl_crystal_description       block
_cell_formula_units_Z            4
loop_
_atom_site_label
_atom_site_type_symbol
_atom_site_fract_x
_atom_site_fract_y
_atom_site_fract_z
C1 C 0.42142(14) 0.85608(10) 1.26588(6)
H1 H 0.4468 0.9383 1.2881
H2 H 0.5322 0.8074 1.2673
H3 H 0.3308 0.8165 1.3013
C2 C 0.35211(13) 0.86527(9) 1.17612(6)
C3 C 0.29179(13) 0.76716(9) 1.12205(6)
C4 C 0.27922(14) 0.64049(10) 1.13254(7)
H4 H 0.3098 0.6029 1.1855
C5 C 0.22095(15) 0.57160(10) 1.06342(7)
H5 H 0.2124 0.4851 1.0686
C6 C 0.17410(15) 0.62813(10) 0.98536(7)
H6 H 0.1354 0.5783 0.9388
C7 C 0.18226(14) 0.75333(10) 0.97390(6)
H7 H 0.1486 0.7906 0.9212
C8 C 0.24266(13) 0.82253(9) 1.04396(6)
C9 C 0.25316(12) 1.04308(9) 0.99710(6)
C10 C 0.31502(14) 1.16171(10) 1.02153(7)
H8 H 0.3672 1.1759 1.0765
C11 C 0.29692(14) 1.25370(9) 0.96380(7)
H9 H 0.3382 1.3336 0.9779
C12 C 0.21655(13) 1.23125(9) 0.88232(6)
C13 C 0.19283(15) 1.32232(10) 0.81915(7)
H10 H 0.2282 1.4042 0.8311
C14 C 0.11923(15) 1.29385(11) 0.74060(7)
H11 H 0.1038 1.3558 0.6985
C15 C 0.06665(14) 1.17244(11) 0.72264(7)
H12 H 0.0174 1.1527 0.6679
C16 C 0.08574(13) 1.08223(10) 0.78328(6)
H13 H 0.0479 1.0011 0.7705
C17 C 0.16132(13) 1.10938(9) 0.86458(6)
N1 N 0.34197(11) 0.97067(8) 1.13643(5)
N2 N 0.27414(11) 0.94644(8) 1.05515(5)
N3 N 0.18000(11) 1.01609(8) 0.92259(5)
loop_
_geom_bond_atom_site_label_1
_geom_bond_atom_site_label_2
_geom_bond_site_symmetry_1
_geom_bond_site_symmetry_2
C1 H1 1_555 1_555
H2 C1 1_555 1_555
H3 C1 1_555 1_555
C2 C1 1_555 1_555
C3 C2 1_555 1_555
C4 C3 1_555 1_555
H4 C4 1_555 1_555
C5 C4 1_555 1_555
H5 C5 1_555 1_555
C6 C5 1_555 1_555
H6 C6 1_555 1_555
C7 C6 1_555 1_555
H7 C7 1_555 1_555
C8 C3 1_555 1_555
C9 C10 1_555 1_555
C10 H8 1_555 1_555
C11 C10 1_555 1_555
H9 C11 1_555 1_555
C12 C11 1_555 1_555
C13 C12 1_555 1_555
H10 C13 1_555 1_555
C14 C13 1_555 1_555
H11 C14 1_555 1_555
C15 C14 1_555 1_555
H12 C15 1_555 1_555
C16 C15 1_555 1_555
H13 C16 1_555 1_555
C17 C12 1_555 1_555
N1 C2 1_555 1_555
N2 C8 1_555 1_555
N3 C9 1_555 1_555
C7 C8 1_555 1_555
C9 N2 1_555 1_555
C16 C17 1_555 1_555
C17 N3 1_555 1_555
N1 N2 1_555 1_555

#END
