
#######################################################################
#
#                 Cambridge Crystallographic Data Centre
#                                CCDC 
#
#######################################################################
#
# If this CIF has been generated from an entry in the Cambridge 
# Structural Database, then it will include bibliographic, chemical, 
# crystal, experimental, refinement or atomic coordinate data resulting 
# from the CCDC's data processing and validation procedures.
#
#######################################################################

data_GICRUI
_chemical_formula_moiety         'C26 H19 N7,C5 H9 N1 O1,H2 O1'
_chemical_name_systematic        
'N^1^-(3-phenyl-1H-pyrazol-5-yl)-N^3^-(5-phenyl-1H-pyrazol-3-yl)-1H-isoindole-1,3(2H)-diimine 1-methylpyrrolidin-2-one solvate monohydrate'
_symmetry_cell_setting           monoclinic
_symmetry_space_group_name_H-M   'P 21/c'
_symmetry_Int_Tables_number      14
_space_group_name_Hall           '-P 2ybc'
loop_
_symmetry_equiv_pos_site_id
_symmetry_equiv_pos_as_xyz
1 x,y,z
2 -x,1/2+y,1/2-z
3 -x,-y,-z
4 x,1/2-y,1/2+z
_cell_length_a                   8.4620(8)
_cell_length_b                   27.162(3)
_cell_length_c                   11.6827(11)
_cell_angle_alpha                90
_cell_angle_beta                 94.8120(10)
_cell_angle_gamma                90
_cell_volume                     2675.74
_exptl_crystal_colour            yellow
_exptl_crystal_description       rod
_cell_formula_units_Z            4
loop_
_atom_site_label
_atom_site_type_symbol
_atom_site_fract_x
_atom_site_fract_y
_atom_site_fract_z
C1 C 0.81734(13) 0.17687(4) 0.48531(11)
H1 H 0.7906 0.1694 0.5607
C2 C 0.96521(14) 0.19690(4) 0.46867(12)
H2 H 1.0389 0.2030 0.5330
C3 C 1.00556(15) 0.20794(5) 0.35941(13)
H3 H 1.1075 0.2209 0.3485
C4 C 0.89695(17) 0.20000(5) 0.26590(12)
H4 H 0.9239 0.2080 0.1908
C5 C 0.74886(15) 0.18034(5) 0.28148(11)
H5 H 0.6745 0.1754 0.2170
C6 C 0.70830(13) 0.16774(4) 0.39116(10)
C7 C 0.55369(12) 0.14481(4) 0.40406(9)
C8 C 0.44281(13) 0.12534(4) 0.32287(9)
H6 H 0.4481 0.1243 0.2420
C9 C 0.32040(13) 0.10743(4) 0.38576(9)
C10 C 0.07007(13) 0.07269(4) 0.39736(9)
C11 C -0.08447(12) 0.05180(4) 0.35412(9)
C12 C -0.14894(14) 0.04183(4) 0.24331(10)
H7 H -0.0897 0.0470 0.1788
C13 C -0.30362(15) 0.02398(4) 0.23036(11)
H8 H -0.3504 0.0165 0.1556
C14 C -0.39139(14) 0.01685(4) 0.32516(11)
H9 H -0.4970 0.0049 0.3137
C15 C -0.32674(13) 0.02703(4) 0.43581(11)
H10 H -0.3860 0.0223 0.5005
C16 C -0.17240(12) 0.04441(4) 0.44810(10)
C17 C -0.07672(12) 0.06059(4) 0.55212(9)
C18 C -0.02943(13) 0.07915(4) 0.74497(9)
C19 C 0.06629(13) 0.12067(4) 0.75846(9)
H11 H 0.0940 0.1428 0.7005
C20 C 0.11318(13) 0.12274(4) 0.87654(9)
C21 C 0.20873(12) 0.16098(4) 0.93879(10)
C22 C 0.20693(14) 0.16675(4) 1.05767(10)
H12 H 0.1462 0.1449 1.1000
C23 C 0.29371(15) 0.20430(4) 1.11418(11)
H13 H 0.2914 0.2080 1.1949
C24 C 0.38365(15) 0.23646(4) 1.05382(12)
H14 H 0.4427 0.2621 1.0929
C25 C 0.38653(14) 0.23087(4) 0.93590(11)
H15 H 0.4479 0.2527 0.8941
C26 C 0.29990(13) 0.19343(4) 0.87873(10)
H16 H 0.3027 0.1899 0.7980
N1 N 0.49538(11) 0.13780(3) 0.50769(8)
H17 H 0.5453 0.1470 0.5733
N2 N 0.35250(11) 0.11520(4) 0.49914(8)
N3 N 0.18297(11) 0.08481(3) 0.33568(8)
N4 N 0.06573(11) 0.07714(3) 0.51534(8)
H18 H 0.1441 0.0891 0.5614
N5 N -0.12317(11) 0.05877(3) 0.65371(8)
N6 N -0.03595(12) 0.05911(4) 0.85006(8)
H19 H -0.0909 0.0326 0.8638
N7 N 0.05217(12) 0.08470(4) 0.93207(8)
C27 C 0.61494(13) 0.14087(4) 0.80116(10)
C28 C 0.53481(15) 0.09133(5) 0.79641(11)
H20 H 0.5892 0.0685 0.7467
H21 H 0.4225 0.0944 0.7659
C29 C 0.54636(15) 0.07274(5) 0.92011(12)
H22 H 0.5981 0.0400 0.9258
H23 H 0.4397 0.0701 0.9484
C30 C 0.64690(17) 0.11124(5) 0.98975(11)
H24 H 0.5877 0.1251 1.0519
H25 H 0.7467 0.0964 1.0242
C31 C 0.76970(14) 0.19265(5) 0.94126(11)
H26 H 0.7762 0.2141 0.8743
H27 H 0.8768 0.1831 0.9716
H28 H 0.7172 0.2103 1.0007
N8 N 0.67943(12) 0.14898(4) 0.90756(8)
O1 O 0.62188(11) 0.16952(3) 0.71906(7)
O2 O 0.20461(11) 0.02965(3) 0.11983(8)
H29 H 0.201(2) 0.0461(6) 0.1808(13)
H30 H 0.163(2) 0.0480(6) 0.0663(14)
loop_
_geom_bond_atom_site_label_1
_geom_bond_atom_site_label_2
_geom_bond_site_symmetry_1
_geom_bond_site_symmetry_2
C1 H1 1_555 1_555
C2 C1 1_555 1_555
H2 C2 1_555 1_555
C3 C2 1_555 1_555
H3 C3 1_555 1_555
C4 C3 1_555 1_555
H4 C4 1_555 1_555
C5 C4 1_555 1_555
H5 C5 1_555 1_555
C6 C1 1_555 1_555
C7 C6 1_555 1_555
C8 C7 1_555 1_555
H6 C8 1_555 1_555
C9 C8 1_555 1_555
C10 C11 1_555 1_555
C11 C12 1_555 1_555
C12 H7 1_555 1_555
C13 C12 1_555 1_555
H8 C13 1_555 1_555
C14 C13 1_555 1_555
H9 C14 1_555 1_555
C15 C14 1_555 1_555
H10 C15 1_555 1_555
C16 C11 1_555 1_555
C17 C16 1_555 1_555
C18 C19 1_555 1_555
C19 H11 1_555 1_555
C20 C19 1_555 1_555
C21 C20 1_555 1_555
C22 C21 1_555 1_555
H12 C22 1_555 1_555
C23 C22 1_555 1_555
H13 C23 1_555 1_555
C24 C23 1_555 1_555
H14 C24 1_555 1_555
C25 C24 1_555 1_555
H15 C25 1_555 1_555
C26 C21 1_555 1_555
H16 C26 1_555 1_555
N1 C7 1_555 1_555
H17 N1 1_555 1_555
N2 C9 1_555 1_555
N3 C9 1_555 1_555
N4 C10 1_555 1_555
H18 N4 1_555 1_555
N5 C17 1_555 1_555
N6 C18 1_555 1_555
H19 N6 1_555 1_555
N7 C20 1_555 1_555
C27 C28 1_555 1_555
C28 H20 1_555 1_555
H21 C28 1_555 1_555
C29 C28 1_555 1_555
H22 C29 1_555 1_555
H23 C29 1_555 1_555
C30 C29 1_555 1_555
H24 C30 1_555 1_555
H25 C30 1_555 1_555
C31 H26 1_555 1_555
H27 C31 1_555 1_555
H28 C31 1_555 1_555
N8 C27 1_555 1_555
O1 C27 1_555 1_555
O2 H29 1_555 1_555
H30 O2 1_555 1_555
C5 C6 1_555 1_555
C10 N3 1_555 1_555
C15 C16 1_555 1_555
C17 N4 1_555 1_555
C18 N5 1_555 1_555
C25 C26 1_555 1_555
N1 N2 1_555 1_555
N6 N7 1_555 1_555
C30 N8 1_555 1_555
C31 N8 1_555 1_555

#END
