
#######################################################################
#
#                 Cambridge Crystallographic Data Centre
#                                CCDC 
#
#######################################################################
#
# If this CIF has been generated from an entry in the Cambridge 
# Structural Database, then it will include bibliographic, chemical, 
# crystal, experimental, refinement or atomic coordinate data resulting 
# from the CCDC's data processing and validation procedures.
#
#######################################################################

data_GIDNOZ
_chemical_formula_moiety         '2(C11 H13 N2 1+),Cl6 Te1 2-'
_chemical_name_systematic        
'bis(3-benzyl-1-methylimidazolium) hexachloro-tellurium'
_symmetry_cell_setting           tetragonal
_symmetry_space_group_name_H-M   'I -4'
_symmetry_Int_Tables_number      82
_space_group_name_Hall           'I -4'
loop_
_symmetry_equiv_pos_site_id
_symmetry_equiv_pos_as_xyz
1 x,y,z
2 y,-x,-z
3 -x,-y,z
4 -y,x,-z
5 1/2+x,1/2+y,1/2+z
6 1/2+y,1/2-x,1/2-z
7 1/2-x,1/2-y,1/2+z
8 1/2-y,1/2+x,1/2-z
_cell_length_a                   17.8941(4)
_cell_length_b                   17.8941(4)
_cell_length_c                   8.6372(4)
_cell_angle_alpha                90
_cell_angle_beta                 90
_cell_angle_gamma                90
_cell_volume                     2765.62
_exptl_crystal_colour            yellow
_exptl_crystal_description       columnar
_cell_formula_units_Z            4
loop_
_atom_site_label
_atom_site_type_symbol
_atom_site_fract_x
_atom_site_fract_y
_atom_site_fract_z
Te1 Te 0.000000 0.500000 0.250000
Cl1 Cl 0.000000 0.500000 0.5423(5)
Cl2 Cl 0.04728(17) 0.36696(16) 0.2549(5)
Cl2B Cl -0.04728(17) 0.63304(16) 0.2549(5)
Cl1E Cl 0.000000 0.500000 -0.0423(5)
Cl2E Cl -0.13304(16) 0.45272(17) 0.2451(5)
Cl2G Cl 0.13304(16) 0.54728(17) 0.2451(5)
Te2 Te 0.000000 0.000000 0.500000
Cl3 Cl 0.06901(18) 0.12290(18) 0.4858(5)
Cl4 Cl 0.000000 0.000000 0.2060(5)
Cl3A Cl 0.12290(18) -0.06901(18) 0.5142(5)
Cl4A Cl 0.000000 0.000000 0.7940(5)
Cl3B Cl -0.06901(18) -0.12290(18) 0.4858(5)
Cl3C Cl -0.12290(18) 0.06901(18) 0.5142(5)
N1 N -0.0331(6) 0.2650(6) 0.6797(12)
N2 N 0.0245(6) 0.2292(6) 0.8842(13)
C1 C 0.0044(8) 0.3250(7) 0.738(2)
H1 H 0.005042 0.373883 0.695527
C2 C 0.0401(9) 0.3030(8) 0.867(2)
H2 H 0.070276 0.332941 0.933077
C3 C -0.0192(7) 0.2081(7) 0.7724(18)
H3 H -0.038410 0.158958 0.759458
C4 C -0.0799(9) 0.2664(8) 0.5403(16)
H4 H -0.130045 0.284025 0.567256
H5 H -0.083115 0.215933 0.496715
H6 H -0.057666 0.300175 0.463695
C5 C 0.0529(7) 0.1820(7) 1.011(2)
H7 H 0.032170 0.130996 1.000031
H8 H 0.035648 0.202552 1.111091
C6 C 0.1363(6) 0.1780(6) 1.0108(17)
C7 C 0.1736(8) 0.1373(7) 0.8977(16)
H9 H 0.145844 0.112929 0.818690
C8 C 0.2496(9) 0.1320(8) 0.8990(17)
H10 H 0.274458 0.102428 0.823684
C9 C 0.2901(8) 0.1695(8) 1.009(2)
H11 H 0.343086 0.167177 1.008030
C10 C 0.2542(9) 0.2105(9) 1.1212(19)
H12 H 0.282068 0.236517 1.197649
C11 C 0.1783(9) 0.2133(8) 1.1216(17)
H13 H 0.153645 0.240588 1.200914
loop_
_geom_bond_atom_site_label_1
_geom_bond_atom_site_label_2
_geom_bond_site_symmetry_1
_geom_bond_site_symmetry_2
Te1 Cl1 1_555 1_555
Cl2 Te1 1_555 1_555
Te2 Cl3 1_555 1_555
Cl4 Te2 1_555 1_555
N1 C1 1_555 1_555
N2 C2 1_555 1_555
C1 H1 1_555 1_555
C2 C1 1_555 1_555
H2 C2 1_555 1_555
C3 N1 1_555 1_555
H3 C3 1_555 1_555
C4 N1 1_555 1_555
H4 C4 1_555 1_555
H5 C4 1_555 1_555
H6 C4 1_555 1_555
C5 N2 1_555 1_555
H7 C5 1_555 1_555
H8 C5 1_555 1_555
C6 C5 1_555 1_555
C7 C6 1_555 1_555
H9 C7 1_555 1_555
C8 C7 1_555 1_555
H10 C8 1_555 1_555
C9 C8 1_555 1_555
H11 C9 1_555 1_555
C10 C9 1_555 1_555
H12 C10 1_555 1_555
C11 C6 1_555 1_555
H13 C11 1_555 1_555
Cl2B Te1 1_555 1_555
Cl1E Te1 1_555 1_555
Cl2E Te1 1_555 1_555
Cl2G Te1 1_555 1_555
Cl3A Te2 1_555 1_555
Cl4A Te2 1_555 1_555
Cl3B Te2 1_555 1_555
Cl3C Te2 1_555 1_555
N2 C3 1_555 1_555
C10 C11 1_555 1_555

#END
