
#######################################################################
#
#                 Cambridge Crystallographic Data Centre
#                                CCDC 
#
#######################################################################
#
# If this CIF has been generated from an entry in the Cambridge 
# Structural Database, then it will include bibliographic, chemical, 
# crystal, experimental, refinement or atomic coordinate data resulting 
# from the CCDC's data processing and validation procedures.
#
#######################################################################

data_GIDPOA
_chemical_formula_moiety         'C33 H31 Cl2 N3 O4 S1'
_chemical_name_systematic        
'(Z)-Ethyl 2-(10-chloro-1-(4-chloro-1-methyl-1H-indol-3-yl)-6-methyl-3-((4-methylphenyl)sulfonyl)-1,3,4,6-tetrahydroazepino[4,5-b]indol-5(2H)-ylidene)acetate'
_symmetry_cell_setting           monoclinic
_symmetry_space_group_name_H-M   'P 21/c'
_symmetry_Int_Tables_number      14
_space_group_name_Hall           '-P 2ybc'
loop_
_symmetry_equiv_pos_site_id
_symmetry_equiv_pos_as_xyz
1 x,y,z
2 -x,1/2+y,1/2-z
3 -x,-y,-z
4 x,1/2-y,1/2+z
_cell_length_a                   19.2131(15)
_cell_length_b                   16.6815(14)
_cell_length_c                   21.4380(17)
_cell_angle_alpha                90
_cell_angle_beta                 115.532(2)
_cell_angle_gamma                90
_cell_volume                     6199.97
_exptl_crystal_colour            colorless
_exptl_crystal_description       prismatic
_chemical_melting_point          '223-224 deg.C'
_cell_formula_units_Z            8
loop_
_atom_site_label
_atom_site_type_symbol
_atom_site_fract_x
_atom_site_fract_y
_atom_site_fract_z
S1 S 0.52920(8) 0.77925(9) 0.56885(6)
Cl1 Cl 0.24478(5) 0.76496(7) 0.33093(5)
Cl2 Cl 0.27478(8) 0.70677(9) 0.51199(6)
N1 N 0.5281(2) 0.6926(2) 0.53403(16)
N2 N 0.49684(17) 0.6994(2) 0.32911(17)
N3 N 0.2780(2) 0.4834(2) 0.35906(17)
O1 O 0.6111(9) 0.4545(10) 0.3790(7)
O2 O 0.5075(2) 0.5181(2) 0.33060(19)
O3 O 0.6083(2) 0.8015(2) 0.60288(17)
O4 O 0.4829(2) 0.7722(3) 0.60620(16)
C1 C 0.42336(19) 0.6880(2) 0.38732(17)
C2 C 0.3946(2) 0.6639(2) 0.43954(16)
H1 H 0.3682 0.7105 0.4471
C3 C 0.4601(2) 0.6406(3) 0.51061(19)
H2 H 0.4398 0.6417 0.5449
H3 H 0.4760 0.5860 0.5079
C4 C 0.5892(3) 0.6719(3) 0.5140(2)
H4 H 0.6259 0.6370 0.5489
H5 H 0.6162 0.7204 0.5123
C5 C 0.5595(2) 0.6304(3) 0.4446(2)
C6 C 0.4932(2) 0.6697(2) 0.38849(19)
C7 C 0.4286(2) 0.7368(2) 0.28986(19)
C8 C 0.38112(18) 0.7306(2) 0.32397(16)
C9 C 0.30803(19) 0.7669(2) 0.29242(18)
C10 C 0.2854(2) 0.8058(2) 0.23063(18)
H6 H 0.2369 0.8293 0.2100
C11 C 0.3342(3) 0.8105(3) 0.1984(2)
H7 H 0.3178 0.8378 0.1566
C12 C 0.4057(2) 0.7762(2) 0.2263(2)
H8 H 0.4379 0.7789 0.2041
C13 C 0.5632(3) 0.7019(3) 0.3142(3)
H9 H 0.5679 0.6517 0.2945
H10 H 0.6087 0.7111 0.3562
H11 H 0.5571 0.7444 0.2821
C14 C 0.3366(2) 0.5967(2) 0.41398(18)
C15 C 0.3375(2) 0.5363(3) 0.3718(2)
H12 H 0.3736 0.5314 0.3538
C16 C 0.2376(2) 0.5100(3) 0.3935(2)
C17 C 0.2718(2) 0.5808(3) 0.42877(19)
C18 C 0.2380(2) 0.6184(3) 0.4677(2)
C19 C 0.1748(3) 0.5855(4) 0.4712(3)
H13 H 0.1535 0.6102 0.4979
C20 C 0.1424(3) 0.5165(4) 0.4361(4)
H14 H 0.0988 0.4960 0.4389
C21 C 0.1717(3) 0.4764(3) 0.3968(3)
H15 H 0.1493 0.4293 0.3735
C22 C 0.2603(3) 0.4138(3) 0.3142(2)
H16 H 0.2252 0.3795 0.3227
H17 H 0.3070 0.3850 0.3233
H18 H 0.2371 0.4309 0.2668
C23 C 0.5953(2) 0.5644(3) 0.4383(2)
H19 H 0.6370 0.5475 0.4784
C24 C 0.5780(3) 0.5155(4) 0.3774(3)
C25 C 0.4885(4) 0.4771(4) 0.2639(3)
H20 H 0.4762 0.5162 0.2272
H21 H 0.5321 0.4455 0.2667
C26 C 0.4250(4) 0.4276(4) 0.2506(3)
H22 H 0.4354 0.3941 0.2900
H23 H 0.4157 0.3947 0.2110
H24 H 0.3804 0.4600 0.2416
C27 C 0.4843(2) 0.8489(3) 0.5021(2)
C28 C 0.5237(3) 0.8820(3) 0.4686(3)
H25 H 0.5755 0.8697 0.4827
C29 C 0.4870(3) 0.9337(3) 0.4138(3)
H26 H 0.5146 0.9559 0.3914
C30 C 0.4114(3) 0.9528(3) 0.3919(2)
C31 C 0.3721(3) 0.9213(3) 0.4262(3)
H27 H 0.3207 0.9351 0.4124
C32 C 0.4077(3) 0.8688(3) 0.4812(2)
H28 H 0.3802 0.8473 0.5038
C33 C 0.3696(3) 1.0077(3) 0.3303(3)
H29 H 0.3675 0.9826 0.2892
H30 H 0.3968 1.0576 0.3376
H31 H 0.3182 1.0174 0.3251
S2 S -0.00557(7) 0.23694(7) -0.07646(5)
Cl3 Cl 0.26297(5) 0.28398(8) 0.17577(6)
Cl4 Cl 0.23500(8) 0.38025(8) 0.00655(7)
N4 N -0.02518(17) 0.31026(19) -0.03747(14)
N5 N -0.00248(16) 0.26332(19) 0.16084(15)
N6 N 0.16458(18) 0.54683(19) 0.16361(15)
O6 O -0.1743(2) 0.4557(3) 0.1236(2)
O7 O -0.0489(2) 0.4355(2) 0.16796(17)
O8 O -0.07666(18) 0.1954(2) -0.11400(15)
O9 O 0.0363(2) 0.2696(2) -0.11122(15)
C34 C 0.07090(18) 0.3116(2) 0.11062(16)
C35 C 0.09634(19) 0.3583(2) 0.06391(17)
H32 H 0.1337 0.3250 0.0558
C36 C 0.0295(2) 0.3769(2) -0.00738(17)
H33 H 0.0014 0.4231 -0.0027
H34 H 0.0512 0.3913 -0.0392
C37 C -0.0912(2) 0.3045(3) -0.02089(19)
H35 H -0.1065 0.2487 -0.0230
H36 H -0.1343 0.3338 -0.0552
C38 C -0.07369(19) 0.3374(2) 0.05006(18)
C39 C -0.00183(18) 0.3062(2) 0.10616(16)
C40 C 0.0717(2) 0.2407(2) 0.20206(18)
C41 C 0.11953(19) 0.2698(2) 0.17275(17)
C42 C 0.1985(2) 0.2508(2) 0.20758(19)
C43 C 0.2260(2) 0.2069(3) 0.2673(2)
H37 H 0.2783 0.1945 0.2895
C44 C 0.1770(3) 0.1806(3) 0.2952(2)
H38 H 0.1969 0.1512 0.3361
C45 C 0.0996(3) 0.1971(3) 0.2635(2)
H39 H 0.0668 0.1798 0.2823
C46 C -0.0691(2) 0.2356(3) 0.1703(2)
H40 H -0.1153 0.2564 0.1338
H41 H -0.0653 0.2540 0.2140
H42 H -0.0706 0.1781 0.1692
C47 C 0.13699(19) 0.4348(2) 0.09760(17)
C48 C 0.1174(2) 0.4818(2) 0.13992(18)
H43 H 0.0767 0.4707 0.1512
C49 C 0.2179(2) 0.5436(2) 0.13719(19)
C50 C 0.20210(19) 0.4748(2) 0.09470(18)
C51 C 0.2500(2) 0.4616(3) 0.0616(2)
C52 C 0.3083(2) 0.5148(3) 0.0700(3)
H44 H 0.3389 0.5063 0.0468
C53 C 0.3215(2) 0.5812(3) 0.1128(3)
H45 H 0.3614 0.6162 0.1181
C54 C 0.2776(2) 0.5966(3) 0.1472(2)
H46 H 0.2872 0.6407 0.1763
C55 C 0.1599(3) 0.6074(3) 0.2102(2)
H47 H 0.1147 0.5983 0.2177
H48 H 0.1569 0.6596 0.1903
H49 H 0.2049 0.6045 0.2536
C56 C -0.1227(2) 0.3885(3) 0.0571(2)
H50 H -0.1660 0.4003 0.0164
C57 C -0.1197(3) 0.4292(3) 0.1183(3)
C58 C -0.0361(5) 0.4793(4) 0.2333(4)
H51 H 0.0096 0.5126 0.2482
H52 H -0.0800 0.5134 0.2256
C59 C -0.0266(8) 0.4194(8) 0.2860(5)
H53 H -0.0225 0.4457 0.3273
H54 H 0.0193 0.3888 0.2961
H55 H -0.0705 0.3842 0.2694
C60 C 0.0572(2) 0.1717(3) -0.0122(2)
C61 C 0.0273(3) 0.1196(3) 0.0192(3)
H56 H -0.0257 0.1176 0.0049
C62 C 0.0742(4) 0.0706(4) 0.0710(3)
H57 H 0.0525 0.0358 0.0916
C63 C 0.1510(4) 0.0714(4) 0.0931(3)
C64 C 0.1816(3) 0.1216(4) 0.0618(4)
H58 H 0.2347 0.1221 0.0760
C65 C 0.1346(3) 0.1729(3) 0.0081(3)
H59 H 0.1561 0.2070 -0.0131
C66 C 0.2050(4) 0.0165(5) 0.1514(3)
H60 H 0.1925 0.0201 0.1901
H61 H 0.2575 0.0329 0.1653
H62 H 0.1987 -0.0379 0.1352
O5? O 0.6326(7) 0.4929(10) 0.3623(8)
H63? H 0.0177 0.4883 0.2617
H64? H -0.0641 0.5288 0.2225
C67? C -0.0815(12) 0.4333(14) 0.2572(12)
H65? H -0.0955 0.3837 0.2322
H66? H -0.1274 0.4626 0.2500
H67? H -0.0526 0.4224 0.3056
loop_
_geom_bond_atom_site_label_1
_geom_bond_atom_site_label_2
_geom_bond_site_symmetry_1
_geom_bond_site_symmetry_2
S1 N1 1_555 1_555
Cl1 C9 1_555 1_555
Cl2 C18 1_555 1_555
N1 C3 1_555 1_555
N2 C6 1_555 1_555
N3 C15 1_555 1_555
O1 C24 1_555 1_555
O2 C24 1_555 1_555
O3 S1 1_555 1_555
O4 S1 1_555 1_555
C1 C2 1_555 1_555
C2 H1 1_555 1_555
C3 C2 1_555 1_555
H2 C3 1_555 1_555
H3 C3 1_555 1_555
C4 N1 1_555 1_555
H4 C4 1_555 1_555
H5 C4 1_555 1_555
C5 C4 1_555 1_555
C6 C1 1_555 1_555
C7 N2 1_555 1_555
C8 C1 1_555 1_555
C9 C8 1_555 1_555
C10 C9 1_555 1_555
H6 C10 1_555 1_555
C11 C10 1_555 1_555
H7 C11 1_555 1_555
C12 C7 1_555 1_555
H8 C12 1_555 1_555
C13 N2 1_555 1_555
H9 C13 1_555 1_555
H10 C13 1_555 1_555
H11 C13 1_555 1_555
C14 C2 1_555 1_555
C15 C14 1_555 1_555
H12 C15 1_555 1_555
C16 N3 1_555 1_555
C17 C14 1_555 1_555
C18 C17 1_555 1_555
C19 C18 1_555 1_555
H13 C19 1_555 1_555
C20 C19 1_555 1_555
H14 C20 1_555 1_555
C21 C16 1_555 1_555
H15 C21 1_555 1_555
C22 N3 1_555 1_555
H16 C22 1_555 1_555
H17 C22 1_555 1_555
H18 C22 1_555 1_555
C23 C5 1_555 1_555
H19 C23 1_555 1_555
C24 C23 1_555 1_555
C25 O2 1_555 1_555
H20 C25 1_555 1_555
H21 C25 1_555 1_555
C26 C25 1_555 1_555
H22 C26 1_555 1_555
H23 C26 1_555 1_555
H24 C26 1_555 1_555
C27 S1 1_555 1_555
C28 C27 1_555 1_555
H25 C28 1_555 1_555
C29 C28 1_555 1_555
H26 C29 1_555 1_555
C30 C29 1_555 1_555
C31 C30 1_555 1_555
H27 C31 1_555 1_555
C32 C27 1_555 1_555
H28 C32 1_555 1_555
C33 C30 1_555 1_555
H29 C33 1_555 1_555
H30 C33 1_555 1_555
H31 C33 1_555 1_555
S2 N4 1_555 1_555
Cl3 C42 1_555 1_555
Cl4 C51 1_555 1_555
N4 C36 1_555 1_555
N5 C39 1_555 1_555
N6 C48 1_555 1_555
O6 C57 1_555 1_555
O7 C57 1_555 1_555
O8 S2 1_555 1_555
O9 S2 1_555 1_555
C34 C35 1_555 1_555
C35 H32 1_555 1_555
C36 C35 1_555 1_555
H33 C36 1_555 1_555
H34 C36 1_555 1_555
C37 N4 1_555 1_555
H35 C37 1_555 1_555
H36 C37 1_555 1_555
C38 C37 1_555 1_555
C39 C34 1_555 1_555
C40 N5 1_555 1_555
C41 C34 1_555 1_555
C42 C41 1_555 1_555
C43 C42 1_555 1_555
H37 C43 1_555 1_555
C44 C43 1_555 1_555
H38 C44 1_555 1_555
C45 C40 1_555 1_555
H39 C45 1_555 1_555
C46 N5 1_555 1_555
H40 C46 1_555 1_555
H41 C46 1_555 1_555
H42 C46 1_555 1_555
C47 C35 1_555 1_555
C48 C47 1_555 1_555
H43 C48 1_555 1_555
C49 N6 1_555 1_555
C50 C47 1_555 1_555
C51 C50 1_555 1_555
C52 C51 1_555 1_555
H44 C52 1_555 1_555
C53 C52 1_555 1_555
H45 C53 1_555 1_555
C54 C49 1_555 1_555
H46 C54 1_555 1_555
C55 N6 1_555 1_555
H47 C55 1_555 1_555
H48 C55 1_555 1_555
H49 C55 1_555 1_555
C56 C38 1_555 1_555
H50 C56 1_555 1_555
C57 C56 1_555 1_555
C58 O7 1_555 1_555
H51 C58 1_555 1_555
H52 C58 1_555 1_555
C59 C58 1_555 1_555
H53 C59 1_555 1_555
H54 C59 1_555 1_555
H55 C59 1_555 1_555
C60 S2 1_555 1_555
C61 C60 1_555 1_555
H56 C61 1_555 1_555
C62 C61 1_555 1_555
H57 C62 1_555 1_555
C63 C62 1_555 1_555
C64 C63 1_555 1_555
H58 C64 1_555 1_555
C65 C60 1_555 1_555
H59 C65 1_555 1_555
C66 C63 1_555 1_555
H60 C66 1_555 1_555
H61 C66 1_555 1_555
H62 C66 1_555 1_555
C5 C6 1_555 1_555
C7 C8 1_555 1_555
C11 C12 1_555 1_555
C16 C17 1_555 1_555
C20 C21 1_555 1_555
C31 C32 1_555 1_555
C38 C39 1_555 1_555
C40 C41 1_555 1_555
C44 C45 1_555 1_555
C49 C50 1_555 1_555
C53 C54 1_555 1_555
C64 C65 1_555 1_555

#END
