
#######################################################################
#
#                 Cambridge Crystallographic Data Centre
#                                CCDC 
#
#######################################################################
#
# If this CIF has been generated from an entry in the Cambridge 
# Structural Database, then it will include bibliographic, chemical, 
# crystal, experimental, refinement or atomic coordinate data resulting 
# from the CCDC's data processing and validation procedures.
#
#######################################################################

data_GIFBOP
_chemical_compound_source        
'leaves and stem of Isodon amethystoides (Lamiaceae)'
_chemical_name_common            'amethinol A'
_chemical_formula_moiety         'C20 H32 O5'
_chemical_name_systematic        
'(4aR,4bR,7R,10aS)-4b,7-dihydroxy-1,1-dimethyl-9-oxo-7-(propan-2-yl)dodecahydrobenzo[a]azulene-4a(2H)-carboxylic acid'
_symmetry_cell_setting           orthorhombic
_symmetry_space_group_name_H-M   'P 21 21 21'
_symmetry_Int_Tables_number      19
_space_group_name_Hall           'P 2ac 2ab'
loop_
_symmetry_equiv_pos_site_id
_symmetry_equiv_pos_as_xyz
1 x,y,z
2 1/2-x,-y,1/2+z
3 -x,1/2+y,1/2-z
4 1/2+x,1/2-y,-z
_cell_length_a                   6.4641(2)
_cell_length_b                   11.6518(4)
_cell_length_c                   25.4249(9)
_cell_angle_alpha                90
_cell_angle_beta                 90
_cell_angle_gamma                90
_cell_volume                     1914.96
_exptl_crystal_colour            colorless
_exptl_crystal_description       block
_cell_formula_units_Z            4
loop_
_atom_site_label
_atom_site_type_symbol
_atom_site_fract_x
_atom_site_fract_y
_atom_site_fract_z
O1 O 0.94217(16) 0.28421(10) 0.28036(4)
H1 H 0.963(4) 0.214(2) 0.2739(9)
O2 O 0.30306(18) 0.35567(9) 0.31740(5)
H2 H 0.179(4) 0.335(2) 0.3103(9)
O3 O 0.55585(18) 0.42514(10) 0.16027(5)
H3 H 0.576(4) 0.494(2) 0.1522(9)
O4 O 0.31887(18) 0.17124(9) 0.33942(5)
O5 O 0.9565(2) 0.57373(10) 0.25697(5)
C1 C 0.8617(2) 0.49022(13) 0.24168(6)
C2 C 0.7537(2) 0.36813(13) 0.15861(6)
C3 C 0.4053(2) 0.26256(13) 0.33269(6)
C4 C 0.7133(2) 0.38684(13) 0.36756(6)
H4 H 0.8674 0.3794 0.3681
C5 C 0.6389(2) 0.27869(12) 0.33756(6)
C6 C 0.7326(3) 0.17358(13) 0.36456(6)
H5 H 0.8853 0.1764 0.3617
H6 H 0.6839 0.1029 0.3468
C7 C 0.9149(2) 0.44040(13) 0.18854(6)
H7 H 1.0396 0.3921 0.1931
H8 H 0.9547 0.5051 0.1654
C8 C 0.6936(2) 0.43776(12) 0.27520(6)
H9 H 0.5592 0.4508 0.2567
C9 C 0.6729(3) 0.48890(13) 0.33102(6)
H10 H 0.7760 0.5504 0.3368
H11 H 0.5326 0.5206 0.3367
C10 C 0.7232(2) 0.30567(12) 0.28054(6)
C11 C 0.6197(2) 0.23782(13) 0.23618(6)
H12 H 0.4744 0.2638 0.2331
H13 H 0.6171 0.1558 0.2463
C12 C 0.7222(3) 0.24793(13) 0.18195(6)
H14 H 0.6380 0.2031 0.1567
H15 H 0.8594 0.2105 0.1841
C13 C 0.6520(3) 0.39262(15) 0.42607(6)
C14 C 0.6694(3) 0.17070(15) 0.42285(7)
H16 H 0.5176 0.1608 0.4254
H17 H 0.7357 0.1041 0.4402
C15 C 0.8242(3) 0.36049(15) 0.10016(6)
H18 H 0.8295 0.4411 0.0868
C16 C 0.7326(3) 0.28090(16) 0.45154(6)
H19 H 0.8855 0.2844 0.4531
H20 H 0.6808 0.2770 0.4881
C17 C 0.4185(3) 0.40647(16) 0.43549(7)
H21 H 0.3671 0.4721 0.4153
H22 H 0.3930 0.4195 0.4730
H23 H 0.3466 0.3367 0.4242
C18 C 0.7637(4) 0.49480(18) 0.45147(7)
H24 H 0.9117 0.4909 0.4433
H25 H 0.7445 0.4922 0.4897
H26 H 0.7064 0.5666 0.4377
C19 C 0.6691(4) 0.29680(18) 0.06540(7)
H27 H 0.6767 0.2143 0.0727
H28 H 0.7020 0.3107 0.0283
H29 H 0.5290 0.3246 0.0729
C20 C 1.0403(4) 0.3110(2) 0.09255(8)
H30 H 1.1410 0.3585 0.1114
H31 H 1.0744 0.3102 0.0550
H32 H 1.0445 0.2325 0.1063
loop_
_geom_bond_atom_site_label_1
_geom_bond_atom_site_label_2
_geom_bond_site_symmetry_1
_geom_bond_site_symmetry_2
O1 H1 1_555 1_555
O2 H2 1_555 1_555
O3 H3 1_555 1_555
O4 C3 1_555 1_555
O5 C1 1_555 1_555
C1 C7 1_555 1_555
C2 O3 1_555 1_555
C3 O2 1_555 1_555
C4 H4 1_555 1_555
C5 C3 1_555 1_555
C6 C5 1_555 1_555
H5 C6 1_555 1_555
H6 C6 1_555 1_555
C7 C2 1_555 1_555
H7 C7 1_555 1_555
H8 C7 1_555 1_555
C8 C1 1_555 1_555
H9 C8 1_555 1_555
C9 C4 1_555 1_555
H10 C9 1_555 1_555
H11 C9 1_555 1_555
C10 O1 1_555 1_555
C11 C10 1_555 1_555
H12 C11 1_555 1_555
H13 C11 1_555 1_555
C12 C2 1_555 1_555
H14 C12 1_555 1_555
H15 C12 1_555 1_555
C13 C4 1_555 1_555
C14 C6 1_555 1_555
H16 C14 1_555 1_555
H17 C14 1_555 1_555
C15 C2 1_555 1_555
H18 C15 1_555 1_555
C16 C13 1_555 1_555
H19 C16 1_555 1_555
H20 C16 1_555 1_555
C17 C13 1_555 1_555
H21 C17 1_555 1_555
H22 C17 1_555 1_555
H23 C17 1_555 1_555
C18 C13 1_555 1_555
H24 C18 1_555 1_555
H25 C18 1_555 1_555
H26 C18 1_555 1_555
C19 C15 1_555 1_555
H27 C19 1_555 1_555
H28 C19 1_555 1_555
H29 C19 1_555 1_555
C20 C15 1_555 1_555
H30 C20 1_555 1_555
H31 C20 1_555 1_555
H32 C20 1_555 1_555
C4 C5 1_555 1_555
C5 C10 1_555 1_555
C8 C9 1_555 1_555
C8 C10 1_555 1_555
C11 C12 1_555 1_555
C14 C16 1_555 1_555

#END
