
#######################################################################
#
#                 Cambridge Crystallographic Data Centre
#                                CCDC 
#
#######################################################################
#
# If this CIF has been generated from an entry in the Cambridge 
# Structural Database, then it will include bibliographic, chemical, 
# crystal, experimental, refinement or atomic coordinate data resulting 
# from the CCDC's data processing and validation procedures.
#
#######################################################################

data_GIFRIY
_chemical_formula_moiety         'C24 H26 Cl1 N1 O6 S1'
_chemical_name_systematic        
'Isopropyl 5-acetyl-4-(3-chlorophenyl)-1-((4-methoxyphenyl)sulfonyl)-1,4,5,6-tetrahydropyridine-2-carboxylate'
_symmetry_cell_setting           orthorhombic
_symmetry_space_group_name_H-M   'P 21 21 21'
_symmetry_Int_Tables_number      19
_space_group_name_Hall           'P 2ac 2ab'
loop_
_symmetry_equiv_pos_site_id
_symmetry_equiv_pos_as_xyz
1 x,y,z
2 1/2-x,-y,1/2+z
3 -x,1/2+y,1/2-z
4 1/2+x,1/2-y,-z
_cell_length_a                   9.4194(9)
_cell_length_b                   14.3811(13)
_cell_length_c                   17.3632(14)
_cell_angle_alpha                90
_cell_angle_beta                 90
_cell_angle_gamma                90
_cell_volume                     2352.04
_exptl_crystal_colour            colorless
_exptl_crystal_description       block
_cell_formula_units_Z            4
loop_
_atom_site_label
_atom_site_type_symbol
_atom_site_fract_x
_atom_site_fract_y
_atom_site_fract_z
C1 C 0.3171(2) 0.94577(15) 0.17262(13)
H1 H 0.2871 0.9922 0.2106
H2 H 0.2466 0.8958 0.1701
H3 H 0.3257 0.9752 0.1219
C2 C 0.4581(2) 0.90611(13) 0.19589(12)
C3 C 0.4858(2) 0.80384(13) 0.17721(12)
H4 H 0.4020 0.7665 0.1942
C4 C 0.6190(2) 0.76678(12) 0.21871(12)
H5 H 0.6954 0.8147 0.2133
C5 C 0.5930(2) 0.75200(13) 0.30448(12)
C6 C 0.5154(2) 0.67491(14) 0.32967(13)
H6 H 0.4837 0.6295 0.2939
C7 C 0.4852(2) 0.66552(14) 0.40703(13)
C8 C 0.5295(3) 0.72985(15) 0.46091(14)
H7 H 0.5060 0.7227 0.5138
C9 C 0.6088(3) 0.80471(16) 0.43612(14)
H8 H 0.6422 0.8489 0.4725
C10 C 0.6404(2) 0.81618(14) 0.35891(14)
H9 H 0.6949 0.8683 0.3428
C11 C 0.6708(2) 0.67907(13) 0.18074(12)
H10 H 0.7407 0.6439 0.2073
C12 C 0.6268(2) 0.64690(13) 0.11337(12)
C13 C 0.7050(2) 0.56847(14) 0.07537(13)
C14 C 0.8259(2) 0.42560(14) 0.10163(13)
H11 H 0.8241 0.4196 0.0443
C15 C 0.7669(3) 0.33886(15) 0.13868(16)
H12 H 0.7754 0.3438 0.1948
H13 H 0.8202 0.2846 0.1207
H14 H 0.6666 0.3319 0.1247
C16 C 0.9732(2) 0.44805(18) 0.12872(17)
H15 H 1.0067 0.5045 0.1029
H16 H 1.0368 0.3962 0.1164
H17 H 0.9722 0.4581 0.1845
C17 C 0.5023(2) 0.79327(13) 0.08967(12)
H18 H 0.4155 0.8167 0.0640
H19 H 0.5833 0.8315 0.0720
C18 C 0.2588(2) 0.64387(14) 0.10912(12)
C19 C 0.1484(2) 0.70813(15) 0.10637(13)
H20 H 0.1367 0.7471 0.0627
C20 C 0.0554(2) 0.71463(17) 0.16812(14)
H21 H -0.0207 0.7579 0.1666
C21 C 0.0738(2) 0.65777(17) 0.23233(14)
C22 C -0.0155(3) 0.6102(2) 0.35529(15)
H22 H -0.0230 0.5450 0.3393
H23 H -0.0928 0.6250 0.3910
H24 H 0.0759 0.6202 0.3810
C23 C 0.1856(2) 0.59526(16) 0.23551(14)
H25 H 0.1989 0.5577 0.2799
C24 C 0.2779(2) 0.58772(15) 0.17364(13)
H26 H 0.3540 0.5444 0.1753
Cl1 Cl 0.38274(6) 0.57062(4) 0.43746(3)
N1 N 0.52608(17) 0.69558(11) 0.06715(10)
O1 O 0.54888(16) 0.95358(10) 0.22570(9)
O2 O 0.74213(17) 0.56904(11) 0.00877(9)
O3 O 0.73306(15) 0.50192(10) 0.12636(9)
O4 O 0.42967(16) 0.54255(10) 0.02672(10)
O5 O 0.33274(15) 0.68767(10) -0.03007(9)
O6 O -0.02485(17) 0.66887(14) 0.28933(10)
S1 S 0.38519(5) 0.63722(3) 0.03504(3)
loop_
_geom_bond_atom_site_label_1
_geom_bond_atom_site_label_2
_geom_bond_site_symmetry_1
_geom_bond_site_symmetry_2
C1 H1 1_555 1_555
H2 C1 1_555 1_555
H3 C1 1_555 1_555
C2 C1 1_555 1_555
C3 C2 1_555 1_555
H4 C3 1_555 1_555
C4 C3 1_555 1_555
H5 C4 1_555 1_555
C5 C4 1_555 1_555
C6 C5 1_555 1_555
H6 C6 1_555 1_555
C7 C6 1_555 1_555
C8 C7 1_555 1_555
H7 C8 1_555 1_555
C9 C8 1_555 1_555
H8 C9 1_555 1_555
C10 C5 1_555 1_555
H9 C10 1_555 1_555
C11 C4 1_555 1_555
H10 C11 1_555 1_555
C12 C11 1_555 1_555
C13 C12 1_555 1_555
C14 H11 1_555 1_555
C15 C14 1_555 1_555
H12 C15 1_555 1_555
H13 C15 1_555 1_555
H14 C15 1_555 1_555
C16 C14 1_555 1_555
H15 C16 1_555 1_555
H16 C16 1_555 1_555
H17 C16 1_555 1_555
C17 C3 1_555 1_555
H18 C17 1_555 1_555
H19 C17 1_555 1_555
C18 C19 1_555 1_555
C19 H20 1_555 1_555
C20 C19 1_555 1_555
H21 C20 1_555 1_555
C21 C20 1_555 1_555
C22 H22 1_555 1_555
H23 C22 1_555 1_555
H24 C22 1_555 1_555
C23 C21 1_555 1_555
H25 C23 1_555 1_555
C24 C18 1_555 1_555
H26 C24 1_555 1_555
Cl1 C7 1_555 1_555
N1 C12 1_555 1_555
O1 C2 1_555 1_555
O2 C13 1_555 1_555
O3 C13 1_555 1_555
O4 S1 1_555 1_555
O5 S1 1_555 1_555
O6 C21 1_555 1_555
S1 C18 1_555 1_555
C9 C10 1_555 1_555
C14 O3 1_555 1_555
C17 N1 1_555 1_555
C22 O6 1_555 1_555
C23 C24 1_555 1_555
N1 S1 1_555 1_555

#END
