
#######################################################################
#
#                 Cambridge Crystallographic Data Centre
#                                CCDC 
#
#######################################################################
#
# If this CIF has been generated from an entry in the Cambridge 
# Structural Database, then it will include bibliographic, chemical, 
# crystal, experimental, refinement or atomic coordinate data resulting 
# from the CCDC's data processing and validation procedures.
#
#######################################################################

data_GIGGAG
_chemical_formula_moiety         'C16 H10 Cl1 N3 O3'
_chemical_name_systematic        
6-(3-Chlorophenyl)-2-(2-nitrophenyl)pyridazin-3(2H)-one
_symmetry_cell_setting           triclinic
_symmetry_space_group_name_H-M   'P -1'
_symmetry_Int_Tables_number      2
_space_group_name_Hall           '-P 1'
loop_
_symmetry_equiv_pos_site_id
_symmetry_equiv_pos_as_xyz
1 x,y,z
2 -x,-y,-z
_cell_length_a                   7.2229(4)
_cell_length_b                   13.4298(7)
_cell_length_c                   15.5038(8)
_cell_angle_alpha                95.483(4)
_cell_angle_beta                 98.449(5)
_cell_angle_gamma                99.913(5)
_cell_volume                     1454.06
_cell_formula_units_Z            4
loop_
_atom_site_label
_atom_site_type_symbol
_atom_site_fract_x
_atom_site_fract_y
_atom_site_fract_z
C1 C 0.8724(3) 0.24952(14) -0.07397(12)
C2 C 0.7487(3) 0.17533(14) -0.14478(12)
C3 C 0.6599(3) 0.08076(14) -0.12608(13)
H1 H 0.6827 0.0623 -0.0684
C4 C 0.5385(3) 0.01433(15) -0.19238(13)
C5 C 0.4982(3) 0.03919(16) -0.27686(13)
H2 H 0.4103 -0.0063 -0.3209
C6 C 0.5897(4) 0.13216(17) -0.29536(13)
H3 H 0.5665 0.1502 -0.3532
C7 C 0.7140(3) 0.19889(16) -0.23066(12)
H4 H 0.7770 0.2619 -0.2448
C8 C 0.9740(3) 0.34490(14) -0.09152(12)
H5 H 0.9610 0.3628 -0.1496
C9 C 1.0873(3) 0.40855(14) -0.02576(12)
H6 H 1.1575 0.4707 -0.0381
C10 C 1.1050(3) 0.38477(13) 0.06330(12)
C11 C 1.0144(3) 0.25521(13) 0.15680(11)
C12 C 0.9955(3) 0.31300(14) 0.23321(12)
C13 C 1.0303(3) 0.27966(15) 0.31460(12)
H7 H 1.0218 0.3214 0.3664
C14 C 1.0778(3) 0.18450(15) 0.31951(13)
H8 H 1.0994 0.1599 0.3749
C15 C 1.0938(3) 0.12553(15) 0.24421(13)
H9 H 1.1237 0.0597 0.2478
C16 C 1.0667(3) 0.16152(14) 0.16331(12)
H10 H 1.0841 0.1217 0.1122
Cl1 Cl 0.43075(9) -0.10477(4) -0.17002(4)
N1 N 0.9959(2) 0.29134(11) 0.07211(9)
N2 N 0.8844(3) 0.22377(11) 0.00599(9)
N3 N 0.9322(3) 0.41126(12) 0.23121(10)
O1 O 1.2050(2) 0.43790(10) 0.12760(8)
O2 O 0.8103(2) 0.42021(11) 0.16979(9)
O3 O 1.0021(3) 0.47848(11) 0.29188(10)
C17 C 0.6648(3) 0.65283(13) 0.26036(11)
C18 C 0.6394(3) 0.68741(14) 0.17162(12)
C19 C 0.7330(3) 0.78397(13) 0.15994(12)
H11 H 0.8116 0.8280 0.2080
C20 C 0.7083(3) 0.81389(13) 0.07666(12)
C21 C 0.5970(3) 0.75154(14) 0.00497(12)
H12 H 0.5837 0.7737 -0.0516
C22 C 0.5053(3) 0.65604(14) 0.01766(12)
H13 H 0.4282 0.6119 -0.0307
C23 C 0.5252(3) 0.62427(14) 0.10067(12)
H14 H 0.4602 0.5590 0.1089
C24 C 0.5222(3) 0.57925(14) 0.28645(12)
H15 H 0.4092 0.5495 0.2465
C25 C 0.5502(3) 0.55270(14) 0.36847(12)
H16 H 0.4550 0.5049 0.3865
C26 C 0.7228(3) 0.59606(14) 0.42896(12)
C27 C 1.0321(3) 0.71153(14) 0.44576(11)
C28 C 1.1645(3) 0.65377(15) 0.47471(12)
H17 H 1.1346 0.5816 0.4620
C29 C 1.3410(4) 0.70111(16) 0.52228(13)
H18 H 1.4303 0.6610 0.5432
C30 C 1.3878(3) 0.80635(16) 0.53941(13)
H19 H 1.5084 0.8382 0.5723
C31 C 1.2582(3) 0.86513(15) 0.50838(12)
H20 H 1.2905 0.9374 0.5182
C32 C 1.0825(3) 0.81710(14) 0.46323(12)
Cl2 Cl 0.82151(8) 0.93522(3) 0.06223(3)
N4 N 0.8525(3) 0.66335(11) 0.39378(9)
N5 N 0.8245(3) 0.69327(11) 0.31185(9)
N6 N 0.9448(3) 0.88159(12) 0.43561(10)
O4 O 0.7598(2) 0.57836(10) 0.50567(8)
O5 O 1.0040(3) 0.95826(10) 0.40287(9)
O6 O 0.7813(2) 0.85761(10) 0.44958(9)
loop_
_geom_bond_atom_site_label_1
_geom_bond_atom_site_label_2
_geom_bond_site_symmetry_1
_geom_bond_site_symmetry_2
C1 C2 1_555 1_555
C2 C3 1_555 1_555
C3 H1 1_555 1_555
C4 C3 1_555 1_555
C5 C4 1_555 1_555
H2 C5 1_555 1_555
C6 C5 1_555 1_555
H3 C6 1_555 1_555
C7 C2 1_555 1_555
H4 C7 1_555 1_555
C8 C1 1_555 1_555
H5 C8 1_555 1_555
C9 C8 1_555 1_555
H6 C9 1_555 1_555
C10 C9 1_555 1_555
C11 C12 1_555 1_555
C12 C13 1_555 1_555
C13 H7 1_555 1_555
C14 C13 1_555 1_555
H8 C14 1_555 1_555
C15 C14 1_555 1_555
H9 C15 1_555 1_555
C16 C11 1_555 1_555
H10 C16 1_555 1_555
Cl1 C4 1_555 1_555
N1 C10 1_555 1_555
N2 C1 1_555 1_555
N3 C12 1_555 1_555
O1 C10 1_555 1_555
O2 N3 1_555 1_555
O3 N3 1_555 1_555
C17 C18 1_555 1_555
C18 C19 1_555 1_555
C19 H11 1_555 1_555
C20 C19 1_555 1_555
C21 C20 1_555 1_555
H12 C21 1_555 1_555
C22 C21 1_555 1_555
H13 C22 1_555 1_555
C23 C18 1_555 1_555
H14 C23 1_555 1_555
C24 C17 1_555 1_555
H15 C24 1_555 1_555
C25 C24 1_555 1_555
H16 C25 1_555 1_555
C26 C25 1_555 1_555
C27 C28 1_555 1_555
C28 H17 1_555 1_555
C29 C28 1_555 1_555
H18 C29 1_555 1_555
C30 C29 1_555 1_555
H19 C30 1_555 1_555
C31 C30 1_555 1_555
H20 C31 1_555 1_555
C32 C27 1_555 1_555
Cl2 C20 1_555 1_555
N4 C26 1_555 1_555
N5 C17 1_555 1_555
N6 C32 1_555 1_555
O4 C26 1_555 1_555
O5 N6 1_555 1_555
O6 N6 1_555 1_555
C6 C7 1_555 1_555
C11 N1 1_555 1_555
C15 C16 1_555 1_555
N1 N2 1_555 1_555
C22 C23 1_555 1_555
C27 N4 1_555 1_555
C31 C32 1_555 1_555
N4 N5 1_555 1_555

#END
