
#######################################################################
#
#                 Cambridge Crystallographic Data Centre
#                                CCDC 
#
#######################################################################
#
# If this CIF has been generated from an entry in the Cambridge 
# Structural Database, then it will include bibliographic, chemical, 
# crystal, experimental, refinement or atomic coordinate data resulting 
# from the CCDC's data processing and validation procedures.
#
#######################################################################

data_GIGHEK
_chemical_formula_moiety         'C21 H16 Cl2 N4'
_chemical_name_systematic        
(E)-2,6-Dichloro-N-(1-(6-(1-methyl-1H-benzo(d)imidazol-2-yl)pyridin-2-yl)ethylidene)aniline
_symmetry_cell_setting           orthorhombic
_symmetry_space_group_name_H-M   'P b c n'
_symmetry_Int_Tables_number      60
_space_group_name_Hall           '-P 2n 2ab'
loop_
_symmetry_equiv_pos_site_id
_symmetry_equiv_pos_as_xyz
1 x,y,z
2 1/2-x,1/2-y,1/2+z
3 -x,y,1/2-z
4 1/2+x,1/2-y,-z
5 -x,-y,-z
6 1/2+x,1/2+y,1/2-z
7 x,-y,1/2+z
8 1/2-x,1/2+y,z
_cell_length_a                   17.9085(5)
_cell_length_b                   8.3223(2)
_cell_length_c                   25.3872(7)
_cell_angle_alpha                90
_cell_angle_beta                 90
_cell_angle_gamma                90
_cell_volume                     3783.71
_exptl_crystal_colour            yellow
_exptl_crystal_description       block
_chemical_melting_point          '178-179 deg.C'
_cell_formula_units_Z            8
_exptl_crystal_recrystallization_method 'ethyl acetate'
loop_
_atom_site_label
_atom_site_type_symbol
_atom_site_fract_x
_atom_site_fract_y
_atom_site_fract_z
Cl1 Cl 0.16895(4) -0.00611(8) 0.13660(2)
Cl2 Cl 0.07372(4) 0.56951(9) 0.20760(3)
N1 N 0.20056(9) 0.05195(19) 0.32829(6)
N2 N 0.32420(9) -0.0644(2) 0.39260(6)
N3 N 0.10900(9) 0.2190(2) 0.21777(6)
N4 N 0.23976(9) -0.1928(2) 0.44322(6)
C1 C 0.31079(11) -0.2286(2) 0.46106(7)
C2 C 0.14206(11) 0.1067(2) 0.30010(7)
C3 C 0.24988(11) -0.0954(2) 0.40288(7)
C4 C 0.18626(11) -0.0303(2) 0.37258(7)
C5 C 0.36415(11) -0.1480(3) 0.43052(7)
C6 C 0.33387(12) -0.3274(3) 0.50237(8)
H1 H 0.2993 -0.3824 0.5229
C7 C 0.11378(12) -0.0586(3) 0.39033(8)
H2 H 0.1054 -0.1156 0.4213
C8 C 0.12408(10) 0.2883(3) 0.16820(7)
C9 C 0.16187(11) 0.1904(2) 0.25019(8)
C10 C 0.44030(12) -0.1602(3) 0.44021(8)
H3 H 0.4752 -0.1055 0.4199
C11 C 0.10801(11) 0.4487(3) 0.15753(9)
C12 C 0.05535(12) -0.0011(3) 0.36130(8)
H4 H 0.0065 -0.0187 0.3724
C13 C 0.14930(12) 0.1950(3) 0.12593(8)
C14 C 0.06893(11) 0.0835(3) 0.31538(8)
H5 H 0.0297 0.1236 0.2953
C15 C 0.35992(13) 0.0315(3) 0.35201(9)
H6 H 0.3224 0.0804 0.3302
H7 H 0.3912 -0.0361 0.3308
H8 H 0.3898 0.1137 0.3682
C16 C 0.24164(12) 0.2335(3) 0.24110(9)
H9 H 0.2464 0.2868 0.2078
H10 H 0.2714 0.1376 0.2410
H11 H 0.2584 0.3037 0.2687
C17 C 0.40913(12) -0.3410(3) 0.51186(8)
H12 H 0.4256 -0.4072 0.5390
C18 C 0.46140(13) -0.2574(3) 0.48151(9)
H13 H 0.5119 -0.2677 0.4894
C19 C 0.14313(14) 0.4178(4) 0.06765(10)
H14 H 0.1497 0.4616 0.0343
C20 C 0.15880(13) 0.2590(4) 0.07592(8)
H15 H 0.1756 0.1947 0.0484
C21 C 0.11792(13) 0.5134(3) 0.10785(10)
H16 H 0.1075 0.6213 0.1017
loop_
_geom_bond_atom_site_label_1
_geom_bond_atom_site_label_2
_geom_bond_site_symmetry_1
_geom_bond_site_symmetry_2
Cl1 C13 1_555 1_555
Cl2 C11 1_555 1_555
N1 C2 1_555 1_555
N2 C3 1_555 1_555
N3 C8 1_555 1_555
N4 C1 1_555 1_555
C1 C5 1_555 1_555
C2 C9 1_555 1_555
C3 N4 1_555 1_555
C4 N1 1_555 1_555
C5 N2 1_555 1_555
C6 C1 1_555 1_555
H1 C6 1_555 1_555
C7 C4 1_555 1_555
H2 C7 1_555 1_555
C8 C11 1_555 1_555
C9 N3 1_555 1_555
C10 C5 1_555 1_555
H3 C10 1_555 1_555
C11 C21 1_555 1_555
C12 C7 1_555 1_555
H4 C12 1_555 1_555
C13 C8 1_555 1_555
C14 C2 1_555 1_555
H5 C14 1_555 1_555
C15 N2 1_555 1_555
H6 C15 1_555 1_555
H7 C15 1_555 1_555
H8 C15 1_555 1_555
C16 C9 1_555 1_555
H9 C16 1_555 1_555
H10 C16 1_555 1_555
H11 C16 1_555 1_555
C17 C6 1_555 1_555
H12 C17 1_555 1_555
C18 C10 1_555 1_555
H13 C18 1_555 1_555
C19 H14 1_555 1_555
C20 C13 1_555 1_555
H15 C20 1_555 1_555
C21 C19 1_555 1_555
H16 C21 1_555 1_555
C3 C4 1_555 1_555
C12 C14 1_555 1_555
C17 C18 1_555 1_555
C19 C20 1_555 1_555

#END
