
#######################################################################
#
#                 Cambridge Crystallographic Data Centre
#                                CCDC 
#
#######################################################################
#
# If this CIF has been generated from an entry in the Cambridge 
# Structural Database, then it will include bibliographic, chemical, 
# crystal, experimental, refinement or atomic coordinate data resulting 
# from the CCDC's data processing and validation procedures.
#
#######################################################################

data_GIGMUG
_chemical_formula_moiety         'C21 H16 N2 O1'
_chemical_name_systematic        3-Benzyl-2-phenylquinazolin-4(3H)-one
_symmetry_cell_setting           monoclinic
_symmetry_space_group_name_H-M   'P 21/n'
_symmetry_Int_Tables_number      14
_space_group_name_Hall           '-P 2yn'
loop_
_symmetry_equiv_pos_site_id
_symmetry_equiv_pos_as_xyz
1 x,y,z
2 1/2-x,1/2+y,1/2-z
3 -x,-y,-z
4 1/2+x,1/2-y,1/2+z
_cell_length_a                   9.8881(8)
_cell_length_b                   29.449(3)
_cell_length_c                   11.4581(11)
_cell_angle_alpha                90
_cell_angle_beta                 112.371(3)
_cell_angle_gamma                90
_cell_volume                     3085.43
_exptl_crystal_colour            colorless
_exptl_crystal_description       block
_cell_formula_units_Z            8
loop_
_atom_site_label
_atom_site_type_symbol
_atom_site_fract_x
_atom_site_fract_y
_atom_site_fract_z
C1 C 0.81149(16) 0.11730(5) 0.23443(13)
C2 C 0.69785(16) 0.08336(5) 0.21459(13)
C3 C 0.58507(16) 0.07835(5) 0.09540(14)
H1 H 0.5820 0.0973 0.0273
C4 C 0.47891(17) 0.04589(5) 0.07765(14)
H2 H 0.4020 0.0426 -0.0027
C5 C 0.48412(17) 0.01777(5) 0.17776(14)
H3 H 0.4109 -0.0047 0.1645
C6 C 0.59418(16) 0.02231(5) 0.29557(14)
H4 H 0.5971 0.0030 0.3629
C7 C 0.70179(16) 0.05575(5) 0.31509(13)
C8 C 0.90542(15) 0.09217(5) 0.45375(13)
C9 C 1.01060(16) 0.09996(5) 0.58621(13)
C10 C 0.96214(17) 0.12452(5) 0.66671(14)
H5 H 0.8649 0.1358 0.6369
C11 C 1.05623(18) 0.13246(5) 0.79058(14)
H6 H 1.0234 0.1495 0.8452
C12 C 1.19832(18) 0.11560(5) 0.83503(14)
H7 H 1.2626 0.1212 0.9197
C13 C 1.24595(17) 0.09057(6) 0.75521(15)
H8 H 1.3428 0.0789 0.7855
C14 C 1.15229(16) 0.08255(5) 0.63102(14)
H9 H 1.1849 0.0652 0.5768
C15 C 1.03720(15) 0.15280(5) 0.38256(14)
H10 H 1.0557 0.1564 0.3040
H11 H 1.1269 0.1401 0.4476
C16 C 1.00854(15) 0.19898(5) 0.42547(13)
C17 C 0.91976(16) 0.23022(5) 0.33909(14)
H12 H 0.8762 0.2225 0.2522
C18 C 0.89466(18) 0.27268(5) 0.37957(15)
H13 H 0.8335 0.2938 0.3201
C19 C 0.95818(17) 0.28452(5) 0.50611(16)
H14 H 0.9403 0.3136 0.5334
C20 C 1.04756(17) 0.25382(5) 0.59217(15)
H15 H 1.0912 0.2617 0.6790
C21 C 1.07366(16) 0.21138(5) 0.55193(14)
H16 H 1.1366 0.1906 0.6114
N1 N 0.91539(13) 0.11984(4) 0.35893(11)
N2 N 0.80734(13) 0.06113(4) 0.43613(11)
O1 O 0.81981(12) 0.14244(4) 0.15232(10)
C22 C 0.29278(16) 0.11382(5) 0.22848(13)
C23 C 0.18649(15) 0.07806(5) 0.21786(13)
C24 C 0.06607(17) 0.07130(5) 0.10460(14)
H17 H 0.0543 0.0895 0.0329
C25 C -0.03535(17) 0.03818(5) 0.09777(14)
H18 H -0.1173 0.0337 0.0213
C26 C -0.01801(17) 0.01122(5) 0.20302(14)
H19 H -0.0887 -0.0114 0.1974
C27 C 0.10081(16) 0.01710(5) 0.31498(14)
H20 H 0.1124 -0.0015 0.3859
C28 C 0.20426(15) 0.05088(5) 0.32288(13)
C29 C 0.40873(15) 0.09050(5) 0.44827(13)
C30 C 0.51995(15) 0.09988(5) 0.57719(13)
C31 C 0.62638(16) 0.06765(5) 0.63740(14)
H21 H 0.6344 0.0410 0.5937
C32 C 0.72118(16) 0.07456(6) 0.76182(14)
H22 H 0.7955 0.0529 0.8023
C33 C 0.70799(17) 0.11271(6) 0.82710(14)
H23 H 0.7721 0.1170 0.9124
C34 C 0.60084(17) 0.14459(6) 0.76744(15)
H24 H 0.5912 0.1707 0.8122
C35 C 0.50758(17) 0.13850(5) 0.64269(14)
H25 H 0.4352 0.1607 0.6018
C36 C 0.52071(16) 0.15160(5) 0.36257(14)
H26 H 0.5281 0.1555 0.2794
H27 H 0.6147 0.1388 0.4210
C37 C 0.49973(16) 0.19770(5) 0.41091(13)
C38 C 0.36215(17) 0.21584(5) 0.38745(15)
H28 H 0.2772 0.1997 0.3360
C39 C 0.34783(19) 0.25734(5) 0.43852(17)
H29 H 0.2533 0.2691 0.4238
C40 C 0.4712(2) 0.28173(5) 0.51106(16)
H30 H 0.4615 0.3101 0.5465
C41 C 0.60868(19) 0.26449(6) 0.53149(16)
H31 H 0.6934 0.2815 0.5793
C42 C 0.62324(17) 0.22266(5) 0.48267(15)
H32 H 0.7179 0.2109 0.4981
N3 N 0.40341(13) 0.11859(4) 0.34891(11)
N4 N 0.31954(13) 0.05736(4) 0.43857(11)
O2 O 0.28904(12) 0.13886(4) 0.14215(10)
loop_
_geom_bond_atom_site_label_1
_geom_bond_atom_site_label_2
_geom_bond_site_symmetry_1
_geom_bond_site_symmetry_2
C1 C2 1_555 1_555
C2 C3 1_555 1_555
C3 H1 1_555 1_555
C4 C3 1_555 1_555
H2 C4 1_555 1_555
C5 C4 1_555 1_555
H3 C5 1_555 1_555
C6 C5 1_555 1_555
H4 C6 1_555 1_555
C7 C2 1_555 1_555
C8 C9 1_555 1_555
C9 C10 1_555 1_555
C10 H5 1_555 1_555
C11 C10 1_555 1_555
H6 C11 1_555 1_555
C12 C11 1_555 1_555
H7 C12 1_555 1_555
C13 C12 1_555 1_555
H8 C13 1_555 1_555
C14 C9 1_555 1_555
H9 C14 1_555 1_555
C15 H10 1_555 1_555
H11 C15 1_555 1_555
C16 C15 1_555 1_555
C17 C16 1_555 1_555
H12 C17 1_555 1_555
C18 C17 1_555 1_555
H13 C18 1_555 1_555
C19 C18 1_555 1_555
H14 C19 1_555 1_555
C20 C19 1_555 1_555
H15 C20 1_555 1_555
C21 C16 1_555 1_555
H16 C21 1_555 1_555
N1 C1 1_555 1_555
N2 C7 1_555 1_555
O1 C1 1_555 1_555
C22 C23 1_555 1_555
C23 C24 1_555 1_555
C24 H17 1_555 1_555
C25 C24 1_555 1_555
H18 C25 1_555 1_555
C26 C25 1_555 1_555
H19 C26 1_555 1_555
C27 C26 1_555 1_555
H20 C27 1_555 1_555
C28 C23 1_555 1_555
C29 C30 1_555 1_555
C30 C31 1_555 1_555
C31 H21 1_555 1_555
C32 C31 1_555 1_555
H22 C32 1_555 1_555
C33 C32 1_555 1_555
H23 C33 1_555 1_555
C34 C33 1_555 1_555
H24 C34 1_555 1_555
C35 C30 1_555 1_555
H25 C35 1_555 1_555
C36 H26 1_555 1_555
H27 C36 1_555 1_555
C37 C36 1_555 1_555
C38 C37 1_555 1_555
H28 C38 1_555 1_555
C39 C38 1_555 1_555
H29 C39 1_555 1_555
C40 C39 1_555 1_555
H30 C40 1_555 1_555
C41 C40 1_555 1_555
H31 C41 1_555 1_555
C42 C37 1_555 1_555
H32 C42 1_555 1_555
N3 C22 1_555 1_555
N4 C28 1_555 1_555
O2 C22 1_555 1_555
C6 C7 1_555 1_555
C8 N1 1_555 1_555
C8 N2 1_555 1_555
C13 C14 1_555 1_555
C15 N1 1_555 1_555
C20 C21 1_555 1_555
C27 C28 1_555 1_555
C29 N3 1_555 1_555
C29 N4 1_555 1_555
C34 C35 1_555 1_555
C36 N3 1_555 1_555
C41 C42 1_555 1_555

#END
