
#######################################################################
#
#                 Cambridge Crystallographic Data Centre
#                                CCDC 
#
#######################################################################
#
# If this CIF has been generated from an entry in the Cambridge 
# Structural Database, then it will include bibliographic, chemical, 
# crystal, experimental, refinement or atomic coordinate data resulting 
# from the CCDC's data processing and validation procedures.
#
#######################################################################

data_GIGQUJ
_chemical_formula_moiety         'C14 H10 Br2 N2 O3,C1 H4 O1'
_chemical_name_systematic        
'N-((3,5-Dibromo-2-hydroxyphenyl)methylene)-2-hydroxybenzohydrazide methanol solvate'
_chemical_properties_biological  
'moderate antibacterial activies against Escherichia coli, Pseudomonas aeruginosa, Salmonella typhi and Staphylococcus aureus'
_symmetry_cell_setting           monoclinic
_symmetry_space_group_name_H-M   'P 21/n'
_symmetry_Int_Tables_number      14
_space_group_name_Hall           '-P 2yn'
loop_
_symmetry_equiv_pos_site_id
_symmetry_equiv_pos_as_xyz
1 x,y,z
2 1/2-x,1/2+y,1/2-z
3 -x,-y,-z
4 1/2+x,1/2-y,1/2+z
_cell_length_a                   7.183(1)
_cell_length_b                   15.673(2)
_cell_length_c                   15.001(2)
_cell_angle_alpha                90
_cell_angle_beta                 98.345(2)
_cell_angle_gamma                90
_cell_volume                     1670.92
_exptl_crystal_colour            yellow
_exptl_crystal_description       needle
_chemical_melting_point          '112-114 deg.C'
_cell_formula_units_Z            4
loop_
_atom_site_label
_atom_site_type_symbol
_atom_site_fract_x
_atom_site_fract_y
_atom_site_fract_z
Br1 Br 0.11214(8) 1.01489(3) 0.88151(3)
Br2 Br 0.13561(10) 0.72665(3) 0.65920(4)
O1 O 0.2069(5) 0.85997(19) 0.5239(2)
O2 O 0.3161(5) 0.9472(2) 0.3127(2)
O3 O 0.4030(5) 0.9620(2) 0.1531(2)
N1 N 0.2616(5) 1.0102(2) 0.4684(3)
N2 N 0.2988(6) 1.0627(2) 0.4001(3)
C1 C 0.2036(6) 0.9859(3) 0.6165(3)
C2 C 0.1879(6) 0.8969(3) 0.6037(3)
C3 C 0.1539(6) 0.8462(3) 0.6752(3)
C4 C 0.1329(6) 0.8807(3) 0.7575(3)
H2 H 0.1113 0.8455 0.8049
C5 C 0.1441(6) 0.9671(3) 0.7690(3)
C6 C 0.1808(6) 1.0202(3) 0.7003(3)
H3 H 0.1904 1.0788 0.7097
C7 C 0.2432(6) 1.0418(3) 0.5448(3)
H4 H 0.2552 1.1003 0.5545
C8 C 0.3226(6) 1.0251(3) 0.3204(3)
C9 C 0.3533(6) 1.0831(3) 0.2455(3)
C10 C 0.3912(6) 1.0464(3) 0.1650(3)
C11 C 0.4223(7) 1.0991(4) 0.0941(3)
H5 H 0.4513 1.0752 0.0411
C12 C 0.4107(7) 1.1854(4) 0.1019(3)
H6 H 0.4314 1.2198 0.0538
C13 C 0.3686(8) 1.2229(3) 0.1804(4)
H7 H 0.3585 1.2819 0.1847
C14 C 0.3423(7) 1.1717(3) 0.2508(3)
H8 H 0.3162 1.1965 0.3039
H12 H 0.233(7) 0.903(2) 0.488(3)
H13 H 0.319(7) 1.1192(9) 0.405(4)
H14 H 0.355(7) 0.935(3) 0.197(3)
O4 O 0.4275(8) 0.2224(3) 0.4788(4)
H1 H 0.3292 0.1951 0.4693
C15 C 0.3887(11) 0.3036(4) 0.4841(6)
H9 H 0.4734 0.3291 0.5322
H10 H 0.2616 0.3102 0.4958
H11 H 0.4027 0.3311 0.4283
loop_
_geom_bond_atom_site_label_1
_geom_bond_atom_site_label_2
_geom_bond_site_symmetry_1
_geom_bond_site_symmetry_2
Br1 C5 1_555 1_555
Br2 C3 1_555 1_555
O1 C2 1_555 1_555
O2 C8 1_555 1_555
O3 C10 1_555 1_555
O4 H1 1_555 1_555
N1 N2 1_555 1_555
N2 C8 1_555 1_555
C1 C2 1_555 1_555
C2 C3 1_555 1_555
C3 C4 1_555 1_555
C4 H2 1_555 1_555
C5 C4 1_555 1_555
C6 C1 1_555 1_555
H3 C6 1_555 1_555
C7 N1 1_555 1_555
H4 C7 1_555 1_555
C8 C9 1_555 1_555
C9 C10 1_555 1_555
C10 C11 1_555 1_555
C11 H5 1_555 1_555
C12 C11 1_555 1_555
H6 C12 1_555 1_555
C13 C12 1_555 1_555
H7 C13 1_555 1_555
C14 C9 1_555 1_555
H8 C14 1_555 1_555
C15 O4 1_555 1_555
H9 C15 1_555 1_555
H10 C15 1_555 1_555
H11 C15 1_555 1_555
H12 O1 1_555 1_555
H13 N2 1_555 1_555
H14 O3 1_555 1_555
C1 C7 1_555 1_555
C5 C6 1_555 1_555
C13 C14 1_555 1_555

#END
