
#######################################################################
#
#                 Cambridge Crystallographic Data Centre
#                                CCDC 
#
#######################################################################
#
# If this CIF has been generated from an entry in the Cambridge 
# Structural Database, then it will include bibliographic, chemical, 
# crystal, experimental, refinement or atomic coordinate data resulting 
# from the CCDC's data processing and validation procedures.
#
#######################################################################

data_GIGZAZ
_chemical_formula_moiety         'C20 H21 Cl1 N2 O8 S1'
_chemical_name_systematic        
'3-t-Butyl 5-methyl 5-(3-chlorophenyl)-4-((2-oxo-1,3-oxazolidin-3-yl)carbonyl)-2-thioxo-1,3-oxazolidine-3,5-dicarboxylate'
_symmetry_cell_setting           monoclinic
_symmetry_space_group_name_H-M   'P 21'
_symmetry_Int_Tables_number      4
_space_group_name_Hall           'P 2yb'
loop_
_symmetry_equiv_pos_site_id
_symmetry_equiv_pos_as_xyz
1 x,y,z
2 -x,1/2+y,-z
_cell_length_a                   8.8530(5)
_cell_length_b                   12.9851(8)
_cell_length_c                   10.2079(6)
_cell_angle_alpha                90
_cell_angle_beta                 103.753(6)
_cell_angle_gamma                90
_cell_volume                     1139.83
_exptl_crystal_colour            colorless
_exptl_crystal_description       block
_cell_formula_units_Z            2
loop_
_atom_site_label
_atom_site_type_symbol
_atom_site_fract_x
_atom_site_fract_y
_atom_site_fract_z
Cl1 Cl -0.80107(13) -0.50840(10) -0.05219(11)
S1 S -0.45189(11) -0.39503(8) -0.78870(10)
O1 O -0.5217(2) -0.42278(18) -0.5593(2)
O2 O -1.1289(3) -0.4256(2) -0.3963(3)
O3 O -0.9743(3) -0.2951(2) -0.4188(3)
O4 O -0.5807(3) -0.2110(2) -0.3964(3)
O5 O -0.4060(3) -0.3305(2) -0.3115(3)
O6 O -0.8848(3) -0.48170(19) -0.7227(3)
O7 O -0.8968(3) -0.2223(2) -0.7861(2)
O8 O -0.6875(2) -0.22843(19) -0.8766(2)
N1 N -0.6902(3) -0.3190(2) -0.6900(3)
N2 N -0.9970(3) -0.4410(2) -0.5543(3)
C1 C -0.5564(3) -0.3762(3) -0.6827(3)
C2 C -0.6219(3) -0.3862(3) -0.4751(3)
C3 C -0.6573(3) -0.4742(3) -0.3904(3)
C4 C -0.7018(4) -0.4539(3) -0.2710(3)
H1 H -0.6998 -0.3869 -0.2384
C5 C -0.7483(4) -0.5335(3) -0.2022(4)
C6 C -0.7510(4) -0.6332(3) -0.2476(5)
H2 H -0.7831 -0.6865 -0.1997
C7 C -0.7053(5) -0.6533(3) -0.3651(5)
H3 H -0.7066 -0.7206 -0.3967
C8 C -0.6579(4) -0.5743(3) -0.4359(4)
H4 H -0.6261 -0.5885 -0.5145
C9 C -0.7635(3) -0.3441(3) -0.5807(3)
H5 H -0.8068 -0.2827 -0.5475
C10 C -0.8874(3) -0.4256(3) -0.6283(3)
C11 C -1.0270(4) -0.3783(3) -0.4530(4)
C12 C -1.1627(4) -0.5275(3) -0.4514(4)
H6 H -1.2740 -0.5397 -0.4749
H7 H -1.1135 -0.5792 -0.3865
C13 C -1.0981(4) -0.5313(3) -0.5754(4)
H8 H -1.0397 -0.5941 -0.5786
H9 H -1.1798 -0.5254 -0.6573
C14 C -0.5350(4) -0.2969(3) -0.3906(3)
C15 C -0.3015(4) -0.2556(4) -0.2306(4)
H10 H -0.2307 -0.2301 -0.2810
H11 H -0.2440 -0.2879 -0.1494
H12 H -0.3610 -0.1994 -0.2079
C16 C -0.7708(4) -0.2517(3) -0.7903(3)
C17 C -0.7460(4) -0.1555(3) -0.9897(3)
C18 C -0.7562(5) -0.0503(3) -0.9314(4)
H13 H -0.8337 -0.0505 -0.8797
H14 H -0.7842 -0.0010 -1.0032
H15 H -0.6573 -0.0320 -0.8742
C19 C -0.6167(4) -0.1627(4) -1.0644(4)
H16 H -0.5218 -0.1367 -1.0080
H17 H -0.6442 -0.1226 -1.1456
H18 H -0.6025 -0.2333 -1.0867
C20 C -0.8989(4) -0.1934(3) -1.0749(4)
H19 H -0.8900 -0.2649 -1.0956
H20 H -0.9256 -0.1544 -1.1571
H21 H -0.9785 -0.1849 -1.0263
loop_
_geom_bond_atom_site_label_1
_geom_bond_atom_site_label_2
_geom_bond_site_symmetry_1
_geom_bond_site_symmetry_2
Cl1 C5 1_555 1_555
S1 C1 1_555 1_555
O1 C1 1_555 1_555
O2 C11 1_555 1_555
O3 C11 1_555 1_555
O4 C14 1_555 1_555
O5 C14 1_555 1_555
O6 C10 1_555 1_555
O7 C16 1_555 1_555
O8 C16 1_555 1_555
N1 C1 1_555 1_555
N2 C10 1_555 1_555
C2 O1 1_555 1_555
C3 C2 1_555 1_555
C4 C3 1_555 1_555
H1 C4 1_555 1_555
C5 C4 1_555 1_555
C6 C5 1_555 1_555
H2 C6 1_555 1_555
C7 C6 1_555 1_555
H3 C7 1_555 1_555
C8 C3 1_555 1_555
H4 C8 1_555 1_555
C9 N1 1_555 1_555
H5 C9 1_555 1_555
C10 C9 1_555 1_555
C11 N2 1_555 1_555
C12 O2 1_555 1_555
H6 C12 1_555 1_555
H7 C12 1_555 1_555
C13 N2 1_555 1_555
H8 C13 1_555 1_555
H9 C13 1_555 1_555
C14 C2 1_555 1_555
C15 O5 1_555 1_555
H10 C15 1_555 1_555
H11 C15 1_555 1_555
H12 C15 1_555 1_555
C16 N1 1_555 1_555
C17 O8 1_555 1_555
C18 C17 1_555 1_555
H13 C18 1_555 1_555
H14 C18 1_555 1_555
H15 C18 1_555 1_555
C19 C17 1_555 1_555
H16 C19 1_555 1_555
H17 C19 1_555 1_555
H18 C19 1_555 1_555
C20 C17 1_555 1_555
H19 C20 1_555 1_555
H20 C20 1_555 1_555
H21 C20 1_555 1_555
C2 C9 1_555 1_555
C7 C8 1_555 1_555
C12 C13 1_555 1_555

#END
