
#######################################################################
#
#                 Cambridge Crystallographic Data Centre
#                                CCDC 
#
#######################################################################
#
# If this CIF has been generated from an entry in the Cambridge 
# Structural Database, then it will include bibliographic, chemical, 
# crystal, experimental, refinement or atomic coordinate data resulting 
# from the CCDC's data processing and validation procedures.
#
#######################################################################

data_GIHBAC
_chemical_formula_moiety         'C34 H36 B1 N1'
_chemical_name_systematic        
4-((2-(Dimesitylboryl)phenyl)ethynyl)-N,N-dimethylaniline
_symmetry_cell_setting           triclinic
_symmetry_space_group_name_H-M   'P -1'
_symmetry_Int_Tables_number      2
_space_group_name_Hall           '-P 1'
loop_
_symmetry_equiv_pos_site_id
_symmetry_equiv_pos_as_xyz
1 x,y,z
2 -x,-y,-z
_cell_length_a                   8.202(7)
_cell_length_b                   8.393(8)
_cell_length_c                   22.389(19)
_cell_angle_alpha                99.137(16)
_cell_angle_beta                 94.229(15)
_cell_angle_gamma                112.632(14)
_cell_volume                     1389.05
_exptl_crystal_description       block
_cell_formula_units_Z            2
loop_
_atom_site_label
_atom_site_type_symbol
_atom_site_fract_x
_atom_site_fract_y
_atom_site_fract_z
C1 C 0.7420(3) 0.5716(3) 0.87968(10)
C2 C 0.4380(3) 0.3064(3) 0.81800(10)
C3 C 0.6525(3) 0.5377(3) 0.75531(10)
N1 N 0.2036(5) 0.8971(4) 0.54381(13)
C4 C 0.6610(3) 0.7049(3) 0.74848(11)
C5 C 0.9219(3) 0.5892(3) 0.88604(11)
C6 C 0.2742(3) 0.2525(3) 0.77906(10)
C7 C 0.6837(3) 0.6385(3) 0.93147(11)
C8 C 0.2486(3) 0.3564(3) 0.73699(11)
C9 C 0.6707(3) 0.4281(3) 0.70416(11)
C10 C 0.4444(3) 0.1983(3) 0.85857(11)
H1 H 0.5490 0.2316 0.8856
C11 C 0.2124(3) 0.5561(4) 0.66231(13)
C12 C 0.2242(3) 0.4426(4) 0.70236(12)
C13 C 1.0314(3) 0.6702(3) 0.94184(12)
H2 H 1.1482 0.6784 0.9452
C14 C 0.6832(3) 0.7543(3) 0.69240(12)
H3 H 0.6856 0.8638 0.6884
C15 C 0.9761(4) 0.7391(4) 0.99255(12)
C16 C 0.8012(4) 0.7221(4) 0.98601(11)
H4 H 0.7601 0.7683 1.0193
B1 B 0.6119(3) 0.4743(3) 0.81711(12)
C17 C 0.1294(3) 0.0979(3) 0.78238(12)
H5 H 0.0218 0.0646 0.7570
C18 C 0.1438(4) -0.0049(4) 0.82243(14)
H6 H 0.0467 -0.1078 0.8240
C19 C 0.4965(3) 0.6308(4) 0.93026(13)
H7 H 0.4995 0.7468 0.9317
H8 H 0.4477 0.5870 0.9649
H9 H 0.4233 0.5536 0.8933
C20 C 0.7018(4) 0.6471(4) 0.64238(13)
C21 C 0.3018(4) 0.0436(4) 0.86038(13)
H10 H 0.3127 -0.0271 0.8871
C22 C 0.9962(4) 0.5159(4) 0.83452(13)
H11 H 0.9458 0.3895 0.8281
H12 H 1.1237 0.5600 0.8446
H13 H 0.9667 0.5512 0.7979
C23 C 0.6318(4) 0.8264(3) 0.79952(12)
H14 H 0.5093 0.7775 0.8059
H15 H 0.6595 0.9394 0.7889
H16 H 0.7079 0.8399 0.8363
C24 C 0.6972(4) 0.4860(4) 0.64956(12)
H17 H 0.7123 0.4130 0.6166
C25 C 0.2043(4) 0.7151(4) 0.68327(13)
H18 H 0.1984 0.7472 0.7245
C26 C 0.2191(5) 0.5158(4) 0.60065(15)
H19 H 0.2260 0.4097 0.5846
C27 C 0.2080(4) 0.7859(4) 0.58311(13)
C28 C 0.6657(4) 0.2478(4) 0.70623(14)
H20 H 0.7840 0.2510 0.7062
H21 H 0.5884 0.1646 0.6710
H22 H 0.6216 0.2130 0.7427
C29 C 0.2045(5) 0.8291(4) 0.64509(14)
H23 H 0.2022 0.9372 0.6614
C30 C 1.1003(5) 0.8286(5) 1.05217(14)
H24 H 1.2055 0.8046 1.0509
H25 H 1.0410 0.7847 1.0852
H26 H 1.1334 0.9535 1.0583
C31 C 0.2160(6) 0.6269(5) 0.56200(14)
H27 H 0.2193 0.5935 0.5206
C32 C 0.2290(7) 0.8572(5) 0.48143(16)
H28 H 0.3486 0.8653 0.4801
H29 H 0.2098 0.9398 0.4597
H30 H 0.1456 0.7399 0.4627
C33 C 0.2248(6) 1.0728(4) 0.56778(16)
H31 H 0.1433 1.0710 0.5966
H32 H 0.2001 1.1252 0.5350
H33 H 0.3451 1.1407 0.5879
C34 C 0.7206(5) 0.7037(5) 0.58093(14)
H34 H 0.6307 0.7462 0.5713
H35 H 0.7063 0.6047 0.5497
H36 H 0.8368 0.7958 0.5831
loop_
_geom_bond_atom_site_label_1
_geom_bond_atom_site_label_2
_geom_bond_site_symmetry_1
_geom_bond_site_symmetry_2
C1 C5 1_555 1_555
C2 C6 1_555 1_555
C3 C4 1_555 1_555
N1 C27 1_555 1_555
C4 C14 1_555 1_555
C5 C13 1_555 1_555
C6 C8 1_555 1_555
C7 C1 1_555 1_555
C8 C12 1_555 1_555
C9 C3 1_555 1_555
C10 C2 1_555 1_555
H1 C10 1_555 1_555
C11 C12 1_555 1_555
C13 H2 1_555 1_555
C14 H3 1_555 1_555
C15 C13 1_555 1_555
C16 C7 1_555 1_555
H4 C16 1_555 1_555
B1 C1 1_555 1_555
C17 C6 1_555 1_555
H5 C17 1_555 1_555
C18 C17 1_555 1_555
H6 C18 1_555 1_555
C19 C7 1_555 1_555
H7 C19 1_555 1_555
H8 C19 1_555 1_555
H9 C19 1_555 1_555
C20 C14 1_555 1_555
C21 C10 1_555 1_555
H10 C21 1_555 1_555
C22 C5 1_555 1_555
H11 C22 1_555 1_555
H12 C22 1_555 1_555
H13 C22 1_555 1_555
C23 C4 1_555 1_555
H14 C23 1_555 1_555
H15 C23 1_555 1_555
H16 C23 1_555 1_555
C24 C9 1_555 1_555
H17 C24 1_555 1_555
C25 C11 1_555 1_555
H18 C25 1_555 1_555
C26 C11 1_555 1_555
H19 C26 1_555 1_555
C27 C29 1_555 1_555
C28 C9 1_555 1_555
H20 C28 1_555 1_555
H21 C28 1_555 1_555
H22 C28 1_555 1_555
C29 C25 1_555 1_555
H23 C29 1_555 1_555
C30 C15 1_555 1_555
H24 C30 1_555 1_555
H25 C30 1_555 1_555
H26 C30 1_555 1_555
C31 C26 1_555 1_555
H27 C31 1_555 1_555
C32 N1 1_555 1_555
H28 C32 1_555 1_555
H29 C32 1_555 1_555
H30 C32 1_555 1_555
C33 N1 1_555 1_555
H31 C33 1_555 1_555
H32 C33 1_555 1_555
H33 C33 1_555 1_555
C34 C20 1_555 1_555
H34 C34 1_555 1_555
H35 C34 1_555 1_555
H36 C34 1_555 1_555
C2 B1 1_555 1_555
C3 B1 1_555 1_555
C15 C16 1_555 1_555
C18 C21 1_555 1_555
C20 C24 1_555 1_555
C27 C31 1_555 1_555

#END
