
#######################################################################
#
#                 Cambridge Crystallographic Data Centre
#                                CCDC 
#
#######################################################################
#
# If this CIF has been generated from an entry in the Cambridge 
# Structural Database, then it will include bibliographic, chemical, 
# crystal, experimental, refinement or atomic coordinate data resulting 
# from the CCDC's data processing and validation procedures.
#
#######################################################################

data_GIHHEK
_chemical_name_common            'Thiamin tetrahydrofurfuryl disulfide'
_chemical_formula_moiety         'C17 H26 N4 O3 S2'
_chemical_name_systematic        
'5-Hydroxy-2-methyl-3-(tetrahydrofurfuryl disulfide)-1-(4-amino-2-methylpyrimidin-5-ylmethyl)-1-azapent-2-enal'
_symmetry_cell_setting           monoclinic
_symmetry_space_group_name_H-M   'P 21/c'
_symmetry_Int_Tables_number      14
_space_group_name_Hall           '-P 2ybc'
loop_
_symmetry_equiv_pos_site_id
_symmetry_equiv_pos_as_xyz
1 x,y,z
2 -x,1/2+y,1/2-z
3 -x,-y,-z
4 x,1/2-y,1/2+z
_cell_length_a                   8.704(1)
_cell_length_b                   11.207(2)
_cell_length_c                   21.260(3)
_cell_angle_alpha                90
_cell_angle_beta                 92.44(2)
_cell_angle_gamma                90
_cell_volume                     2071.94
_cell_formula_units_Z            4
loop_
_atom_site_label
_atom_site_type_symbol
_atom_site_fract_x
_atom_site_fract_y
_atom_site_fract_z
N1 N 0.3827(9) 0.1903(8) 0.3926(4)
C1 C 0.4009(11) 0.2465(10) 0.4488(5)
N2 N 0.4416(9) 0.3609(8) 0.4561(3)
C2 C 0.4672(10) 0.4283(10) 0.4043(4)
C3 C 0.4503(10) 0.3750(9) 0.3436(4)
C4 C 0.4102(11) 0.2587(10) 0.3426(5)
C5 C 0.3756(21) 0.1742(16) 0.5057(7)
N3 N 0.5052(12) 0.5397(8) 0.4133(4)
C6 C 0.4850(12) 0.4417(11) 0.2851(4)
N4 N 0.3578(9) 0.5198(8) 0.2632(3)
C7 C 0.3640(16) 0.6403(12) 0.2737(5)
O1 O 0.4683(11) 0.6896(7) 0.3025(3)
C8 C 0.2290(12) 0.4662(9) 0.2283(4)
C9 C 0.0922(13) 0.4621(9) 0.2527(4)
C10 C 0.2649(13) 0.4233(11) 0.1629(4)
C11 C -0.0501(13) 0.4186(11) 0.2174(5)
C12 C -0.1350(13) 0.5183(11) 0.1842(6)
O2 O -0.2718(9) 0.4731(7) 0.1568(4)
S1 S 0.0783(4) 0.5236(4) 0.3294(1)
S2 S -0.1174(3) 0.4666(3) 0.3637(1)
C13 C -0.0922(29) 0.3135(9) 0.3822(6)
C14 C -0.0630(24) 0.2866(10) 0.4495(5)
C15 C -0.1388(17) 0.3475(11) 0.5037(5)
C16 C -0.1518(24) 0.2466(12) 0.5506(6)
C17 C -0.1167(23) 0.1309(12) 0.5179(6)
O3 O -0.0467(13) 0.1621(8) 0.4607(4)
H1 H 0.326(17) 0.116(14) 0.495(7)
H2 H 0.301(17) 0.200(15) 0.525(7)
H3 H 0.440(16) 0.176(14) 0.537(6)
H4 H 0.558(13) 0.560(10) 0.444(5)
H5 H 0.505(12) 0.598(9) 0.391(5)
H6 H 0.398(11) 0.228(9) 0.307(5)
H7 H 0.561(11) 0.489(8) 0.286(4)
H8 H 0.490(11) 0.377(8) 0.254(5)
H9 H 0.314(12) 0.674(10) 0.245(5)
H10 H -0.008(11) 0.336(10) 0.203(4)
H11 H -0.113(12) 0.367(9) 0.251(5)
H12 H -0.071(12) 0.564(10) 0.147(5)
H13 H -0.150(13) 0.593(10) 0.211(5)
H14 H -0.326(14) 0.546(11) 0.148(5)
H15 H 0.163 0.385 0.141
H16 H 0.355 0.357 0.166
H17 H 0.302 0.498 0.135
H18 H 0.004 0.281 0.357
H19 H -0.196 0.267 0.367
H20 H 0.040 0.340 0.453
H21 H -0.250 0.383 0.489
H22 H -0.067 0.418 0.523
H23 H -0.268 0.243 0.567
H24 H -0.072 0.260 0.590
H25 H -0.221 0.080 0.508
H26 H -0.038 0.078 0.547
loop_
_geom_bond_atom_site_label_1
_geom_bond_atom_site_label_2
_geom_bond_site_symmetry_1
_geom_bond_site_symmetry_2
N1 C1 1_555 1_555
C1 N2 1_555 1_555
N2 C2 1_555 1_555
C2 C3 1_555 1_555
C3 C4 1_555 1_555
C4 N1 1_555 1_555
C5 C1 1_555 1_555
N3 C2 1_555 1_555
C6 C3 1_555 1_555
N4 C6 1_555 1_555
C7 N4 1_555 1_555
O1 C7 1_555 1_555
C8 N4 1_555 1_555
C9 C8 1_555 1_555
C10 C8 1_555 1_555
C11 C9 1_555 1_555
C12 C11 1_555 1_555
O2 C12 1_555 1_555
S1 C9 1_555 1_555
S2 S1 1_555 1_555
C13 S2 1_555 1_555
C14 C13 1_555 1_555
C15 C14 1_555 1_555
C16 C15 1_555 1_555
C17 C16 1_555 1_555
O3 C14 1_555 1_555
H1 C5 1_555 1_555
H2 C5 1_555 1_555
H3 C5 1_555 1_555
H4 N3 1_555 1_555
H5 N3 1_555 1_555
H6 C4 1_555 1_555
H7 C6 1_555 1_555
H8 C6 1_555 1_555
H9 C7 1_555 1_555
H10 C11 1_555 1_555
H11 C11 1_555 1_555
H12 C12 1_555 1_555
H13 C12 1_555 1_555
H14 O2 1_555 1_555
H15 C10 1_555 1_555
H16 C10 1_555 1_555
H17 C10 1_555 1_555
H18 C13 1_555 1_555
H19 C13 1_555 1_555
H20 C14 1_555 1_555
H21 C15 1_555 1_555
H22 C15 1_555 1_555
H23 C16 1_555 1_555
H24 C16 1_555 1_555
H25 C17 1_555 1_555
H26 C17 1_555 1_555
C17 O3 1_555 1_555

#END
