
#######################################################################
#
#                 Cambridge Crystallographic Data Centre
#                                CCDC 
#
#######################################################################
#
# If this CIF has been generated from an entry in the Cambridge 
# Structural Database, then it will include bibliographic, chemical, 
# crystal, experimental, refinement or atomic coordinate data resulting 
# from the CCDC's data processing and validation procedures.
#
#######################################################################

data_GIJGIS
_chemical_formula_moiety         'C25 H22 Cl1 N1 O2 S1'
_chemical_name_systematic        
N-benzyl-N-(1-chloro-3-methylnaphthalen-2-yl)-4-methylbenzene-1-sulfonamide
_symmetry_cell_setting           triclinic
_symmetry_space_group_name_H-M   'P -1'
_symmetry_Int_Tables_number      2
_space_group_name_Hall           '-P 1'
loop_
_symmetry_equiv_pos_site_id
_symmetry_equiv_pos_as_xyz
1 x,y,z
2 -x,-y,-z
_cell_length_a                   7.8469(6)
_cell_length_b                   12.5869(10)
_cell_length_c                   13.0415(15)
_cell_angle_alpha                115.350(9)
_cell_angle_beta                 94.157(8)
_cell_angle_gamma                99.672(7)
_cell_volume                     1132.33
_exptl_crystal_colour            colorless
_exptl_crystal_description       prism
_cell_formula_units_Z            2
loop_
_atom_site_label
_atom_site_type_symbol
_atom_site_fract_x
_atom_site_fract_y
_atom_site_fract_z
C1 C 0.3432(3) 0.31459(19) 0.6095(2)
C2 C 0.2502(3) 0.2583(2) 0.6657(2)
C3 C 0.2209(3) 0.1307(2) 0.6214(2)
C4 C 0.2806(4) 0.0671(2) 0.5216(2)
H1 H 0.2599 -0.0164 0.4918
C5 C 0.3718(3) 0.1227(2) 0.4624(2)
C6 C 0.4080(3) 0.2504(2) 0.5074(2)
C7 C 0.4993(4) 0.3049(3) 0.4464(3)
H2 H 0.5225 0.3883 0.4750
C8 C 0.5535(4) 0.2375(3) 0.3470(3)
H3 H 0.6148 0.2750 0.3087
C9 C 0.5176(5) 0.1116(3) 0.3018(3)
H4 H 0.5537 0.0661 0.2331
C10 C 0.4299(4) 0.0552(3) 0.3580(3)
H5 H 0.4080 -0.0284 0.3274
C11 C 0.1281(4) 0.0661(2) 0.6824(3)
H6 H 0.0132 0.0824 0.6894
H7 H 0.1935 0.0936 0.7576
H8 H 0.1182 -0.0191 0.6392
C12 C 0.3182(4) 0.3979(2) 0.8773(2)
H9 H 0.2634 0.4539 0.9349
H10 H 0.4157 0.4447 0.8621
C13 C 0.3862(3) 0.3199(2) 0.9237(2)
C14 C 0.5310(4) 0.2761(3) 0.8899(2)
H11 H 0.5887 0.2953 0.8382
C15 C 0.5923(5) 0.2037(3) 0.9317(3)
H12 H 0.6910 0.1743 0.9081
C16 C 0.5091(6) 0.1750(4) 1.0074(4)
H13 H 0.5493 0.1246 1.0342
C17 C 0.3659(6) 0.2204(5) 1.0439(4)
H14 H 0.3101 0.2024 1.0969
C18 C 0.3050(5) 0.2929(4) 1.0019(3)
H15 H 0.2079 0.3239 1.0268
C19 C -0.0211(3) 0.4722(2) 0.7480(2)
C20 C -0.0934(4) 0.4604(3) 0.6426(3)
H16 H -0.1401 0.3844 0.5822
C21 C -0.0955(4) 0.5619(3) 0.6282(3)
H17 H -0.1444 0.5537 0.5574
C22 C -0.0272(4) 0.6755(3) 0.7157(3)
C23 C 0.0437(4) 0.6851(3) 0.8200(3)
H18 H 0.0903 0.7611 0.8804
C24 C 0.0471(4) 0.5840(2) 0.8369(2)
H19 H 0.0952 0.5921 0.9078
C25 C -0.0302(5) 0.7875(3) 0.6999(4)
H20 H -0.0046 0.7739 0.6249
H21 H 0.0562 0.8540 0.7574
H22 H -0.1441 0.8056 0.7071
Cl1 Cl 0.38385(10) 0.47089(5) 0.66628(6)
N1 N 0.1890(3) 0.32633(17) 0.76974(18)
O1 O -0.1150(3) 0.24118(17) 0.6677(2)
O2 O -0.0545(3) 0.3664(2) 0.8788(2)
S1 S -0.01333(8) 0.34252(6) 0.76708(6)
loop_
_geom_bond_atom_site_label_1
_geom_bond_atom_site_label_2
_geom_bond_site_symmetry_1
_geom_bond_site_symmetry_2
C1 C2 1_555 1_555
C2 C3 1_555 1_555
C3 C4 1_555 1_555
C4 H1 1_555 1_555
C5 C4 1_555 1_555
C6 C1 1_555 1_555
C7 C6 1_555 1_555
H2 C7 1_555 1_555
C8 C7 1_555 1_555
H3 C8 1_555 1_555
C9 C8 1_555 1_555
H4 C9 1_555 1_555
C10 C5 1_555 1_555
H5 C10 1_555 1_555
C11 C3 1_555 1_555
H6 C11 1_555 1_555
H7 C11 1_555 1_555
H8 C11 1_555 1_555
C12 H9 1_555 1_555
H10 C12 1_555 1_555
C13 C12 1_555 1_555
C14 C13 1_555 1_555
H11 C14 1_555 1_555
C15 C14 1_555 1_555
H12 C15 1_555 1_555
C16 C15 1_555 1_555
H13 C16 1_555 1_555
C17 C16 1_555 1_555
H14 C17 1_555 1_555
C18 C13 1_555 1_555
H15 C18 1_555 1_555
C19 C20 1_555 1_555
C20 H16 1_555 1_555
C21 C20 1_555 1_555
H17 C21 1_555 1_555
C22 C21 1_555 1_555
C23 C22 1_555 1_555
H18 C23 1_555 1_555
C24 C19 1_555 1_555
H19 C24 1_555 1_555
C25 C22 1_555 1_555
H20 C25 1_555 1_555
H21 C25 1_555 1_555
H22 C25 1_555 1_555
Cl1 C1 1_555 1_555
N1 C2 1_555 1_555
O1 S1 1_555 1_555
O2 S1 1_555 1_555
S1 C19 1_555 1_555
C5 C6 1_555 1_555
C9 C10 1_555 1_555
C12 N1 1_555 1_555
C17 C18 1_555 1_555
C23 C24 1_555 1_555
N1 S1 1_555 1_555

#END
