
#######################################################################
#
#                 Cambridge Crystallographic Data Centre
#                                CCDC 
#
#######################################################################
#
# If this CIF has been generated from an entry in the Cambridge 
# Structural Database, then it will include bibliographic, chemical, 
# crystal, experimental, refinement or atomic coordinate data resulting 
# from the CCDC's data processing and validation procedures.
#
#######################################################################

data_GIJGOY
_chemical_formula_moiety         'C24 H19 N3 O6 S1'
_chemical_name_systematic        
N-benzyl-N-(3-methyl-8-nitronaphthalen-2-yl)-4-nitrobenzene-1-sulfonamide
_symmetry_cell_setting           monoclinic
_symmetry_space_group_name_H-M   'P 21/n'
_symmetry_Int_Tables_number      14
_space_group_name_Hall           '-P 2yn'
loop_
_symmetry_equiv_pos_site_id
_symmetry_equiv_pos_as_xyz
1 x,y,z
2 1/2-x,1/2+y,1/2-z
3 -x,-y,-z
4 1/2+x,1/2-y,1/2+z
_cell_length_a                   8.5773(3)
_cell_length_b                   14.1769(5)
_cell_length_c                   17.9422(5)
_cell_angle_alpha                90
_cell_angle_beta                 91.809(3)
_cell_angle_gamma                90
_cell_volume                     2180.68
_exptl_crystal_colour            colorless
_exptl_crystal_description       prism
_cell_formula_units_Z            4
loop_
_atom_site_label
_atom_site_type_symbol
_atom_site_fract_x
_atom_site_fract_y
_atom_site_fract_z
C1 C 0.3594(3) 0.44445(19) 0.63225(15)
C2 C 0.3157(4) 0.4197(2) 0.56118(15)
H1 H 0.3911 0.4091 0.5260
C3 C 0.1582(4) 0.4103(2) 0.54106(15)
H2 H 0.1286 0.3931 0.4926
C4 C 0.0482(3) 0.42616(19) 0.59222(15)
H3 H -0.0567 0.4206 0.5780
C5 C 0.0891(3) 0.45099(17) 0.66669(14)
C6 C 0.2491(3) 0.46138(16) 0.68875(13)
C7 C 0.2833(3) 0.48825(17) 0.76340(13)
H4 H 0.3868 0.4964 0.7791
C8 C 0.1678(3) 0.50255(16) 0.81293(13)
C9 C 0.0078(3) 0.48712(19) 0.79294(15)
C10 C -0.0253(3) 0.4639(2) 0.72023(15)
H5 H -0.1294 0.4562 0.7053
C11 C -0.1183(3) 0.4926(3) 0.84948(18)
H6 H -0.0990 0.4462 0.8876
H7 H -0.2178 0.4808 0.8253
H8 H -0.1183 0.5543 0.8715
C12 C 0.3371(3) 0.4826(2) 0.92773(14)
H9 H 0.3526 0.5089 0.9773
H10 H 0.4328 0.4914 0.9012
C13 C 0.3029(3) 0.37919(19) 0.93376(12)
C14 C 0.4010(3) 0.3127(2) 0.90421(15)
H11 H 0.4869 0.3322 0.8779
C15 C 0.3732(4) 0.2185(2) 0.91315(17)
H12 H 0.4401 0.1745 0.8928
C16 C 0.2472(4) 0.1883(2) 0.95203(17)
H13 H 0.2293 0.1242 0.9584
C17 C 0.1477(4) 0.2534(2) 0.98152(16)
H14 H 0.0620 0.2333 1.0078
C18 C 0.1748(3) 0.3478(2) 0.97220(14)
H15 H 0.1065 0.3915 0.9919
C19 C 0.3650(3) 0.69012(17) 0.84565(14)
C20 C 0.5159(3) 0.69150(19) 0.87587(14)
H16 H 0.5340 0.6796 0.9264
C21 C 0.6380(3) 0.7104(2) 0.83089(17)
H17 H 0.7400 0.7124 0.8501
C22 C 0.6053(4) 0.7264(2) 0.75621(17)
C23 C 0.4558(4) 0.7297(2) 0.72611(16)
H18 H 0.4382 0.7439 0.6759
C24 C 0.3339(3) 0.7118(2) 0.77115(15)
H19 H 0.2318 0.7140 0.7523
N1 N 0.2084(2) 0.53381(15) 0.88807(11)
N2 N 0.528(3) 0.4657(9) 0.6447(13)
N3 N 0.7370(19) 0.7224(7) 0.7011(8)
O1 O 0.0678(2) 0.68517(15) 0.86734(12)
O2 O 0.2479(3) 0.66635(16) 0.97674(11)
O3 O 0.6184(19) 0.4555(13) 0.5938(7)
O4 O 0.5758(4) 0.5067(5) 0.7008(3)
O5 O 0.720(3) 0.7199(15) 0.6364(13)
O6 O 0.8674(9) 0.7136(8) 0.7248(5)
S1 S 0.20970(7) 0.65012(5) 0.89990(3)
N4? N 0.527(4) 0.4382(15) 0.6501(19)
N5? N 0.738(2) 0.7583(8) 0.7132(9)
O7? O 0.613(3) 0.423(2) 0.6089(11)
O8? O 0.5716(6) 0.4214(7) 0.7123(4)
O9? O 0.707(3) 0.7642(15) 0.6470(13)
O10? O 0.8558(9) 0.7860(8) 0.7415(5)
loop_
_geom_bond_atom_site_label_1
_geom_bond_atom_site_label_2
_geom_bond_site_symmetry_1
_geom_bond_site_symmetry_2
C1 C2 1_555 1_555
C2 H1 1_555 1_555
C3 C2 1_555 1_555
H2 C3 1_555 1_555
C4 C3 1_555 1_555
H3 C4 1_555 1_555
C5 C4 1_555 1_555
C6 C1 1_555 1_555
C7 C6 1_555 1_555
H4 C7 1_555 1_555
C8 C7 1_555 1_555
C9 C8 1_555 1_555
C10 C5 1_555 1_555
H5 C10 1_555 1_555
C11 C9 1_555 1_555
H6 C11 1_555 1_555
H7 C11 1_555 1_555
H8 C11 1_555 1_555
C12 H9 1_555 1_555
H10 C12 1_555 1_555
C13 C12 1_555 1_555
C14 C13 1_555 1_555
H11 C14 1_555 1_555
C15 C14 1_555 1_555
H12 C15 1_555 1_555
C16 C15 1_555 1_555
H13 C16 1_555 1_555
C17 C16 1_555 1_555
H14 C17 1_555 1_555
C18 C13 1_555 1_555
H15 C18 1_555 1_555
C19 C20 1_555 1_555
C20 H16 1_555 1_555
C21 C20 1_555 1_555
H17 C21 1_555 1_555
C22 C21 1_555 1_555
C23 C22 1_555 1_555
H18 C23 1_555 1_555
C24 C19 1_555 1_555
H19 C24 1_555 1_555
N1 C8 1_555 1_555
N2 C1 1_555 1_555
N3 C22 1_555 1_555
O1 S1 1_555 1_555
O2 S1 1_555 1_555
O3 N2 1_555 1_555
O4 N2 1_555 1_555
O5 N3 1_555 1_555
O6 N3 1_555 1_555
S1 C19 1_555 1_555
C5 C6 1_555 1_555
C9 C10 1_555 1_555
C12 N1 1_555 1_555
C17 C18 1_555 1_555
C23 C24 1_555 1_555
N1 S1 1_555 1_555

#END
