
#######################################################################
#
#                 Cambridge Crystallographic Data Centre
#                                CCDC 
#
#######################################################################
#
# If this CIF has been generated from an entry in the Cambridge 
# Structural Database, then it will include bibliographic, chemical, 
# crystal, experimental, refinement or atomic coordinate data resulting 
# from the CCDC's data processing and validation procedures.
#
#######################################################################

data_GIJLIW
_chemical_formula_moiety         'C17 H18 N2 O2'
_chemical_name_systematic        
'Ethyl 1-ethyl-3-methyl-1H-azuleno[8,1-cd]pyridazine-5-carboxylate'
_symmetry_cell_setting           orthorhombic
_symmetry_space_group_name_H-M   'P c a 21'
_symmetry_Int_Tables_number      29
_space_group_name_Hall           'P 2c -2ac'
loop_
_symmetry_equiv_pos_site_id
_symmetry_equiv_pos_as_xyz
1 x,y,z
2 -x,-y,1/2+z
3 1/2-x,y,1/2+z
4 1/2+x,-y,z
_cell_length_a                   22.6357(11)
_cell_length_b                   8.8938(4)
_cell_length_c                   7.2615(3)
_cell_angle_alpha                90
_cell_angle_beta                 90
_cell_angle_gamma                90
_cell_volume                     1461.87
_cell_formula_units_Z            4
loop_
_atom_site_label
_atom_site_type_symbol
_atom_site_fract_x
_atom_site_fract_y
_atom_site_fract_z
O1 O 0.42540(6) 0.24195(17) 0.3040(3)
O2 O 0.39355(5) 0.47272(16) 0.2395(2)
N1 N 0.13365(6) 0.12556(16) 0.3698(2)
N2 N 0.11918(6) 0.27103(16) 0.3168(2)
C1 C 0.30836(10) -0.1196(2) 0.4317(3)
H1 H 0.3362 -0.1938 0.4561
C2 C 0.33030(9) 0.0171(2) 0.3856(3)
H2 H 0.3713 0.0246 0.3812
C3 C 0.29877(7) 0.14925(19) 0.3435(2)
C4 C 0.32179(7) 0.2922(2) 0.2955(3)
C5 C 0.27548(7) 0.39334(19) 0.2625(3)
H3 H 0.2796 0.4935 0.2281
C6 C 0.22245(6) 0.31813(18) 0.2901(3)
C7 C 0.23539(7) 0.16812(17) 0.3411(2)
C8 C 0.18925(8) 0.06824(19) 0.3790(3)
C9 C 0.19727(9) -0.0869(2) 0.4266(3)
H4 H 0.1629 -0.1420 0.4454
C10 C 0.24876(11) -0.1638(2) 0.4477(3)
H5 H 0.2437 -0.2645 0.4784
C11 C 0.07958(8) 0.0387(2) 0.4124(3)
H6 H 0.0492 0.1070 0.4557
H7 H 0.0881 -0.0317 0.5110
C12 C 0.05666(9) -0.0465(3) 0.2488(4)
H8 H 0.0517 0.0212 0.1470
H9 H 0.0193 -0.0913 0.2789
H10 H 0.0843 -0.1238 0.2158
C13 C 0.16213(7) 0.36261(18) 0.2787(3)
C14 C 0.14479(9) 0.5187(2) 0.2248(4)
H11 H 0.1025 0.5277 0.2281
H12 H 0.1587 0.5393 0.1025
H13 H 0.1620 0.5892 0.3093
C15 C 0.38496(8) 0.3273(2) 0.2809(3)
C16 C 0.45444(10) 0.5174(3) 0.2141(5)
H14 H 0.4772 0.4924 0.3231
H15 H 0.4713 0.4638 0.1102
C17 C 0.45709(13) 0.6750(3) 0.1816(8)
H16 H 0.4378 0.6979 0.0672
H17 H 0.4976 0.7062 0.1755
H18 H 0.4376 0.7272 0.2801
loop_
_geom_bond_atom_site_label_1
_geom_bond_atom_site_label_2
_geom_bond_site_symmetry_1
_geom_bond_site_symmetry_2
O1 C15 1_555 1_555
O2 C15 1_555 1_555
N1 N2 1_555 1_555
N2 C13 1_555 1_555
C1 H1 1_555 1_555
C2 C1 1_555 1_555
H2 C2 1_555 1_555
C3 C2 1_555 1_555
C4 C3 1_555 1_555
C5 C4 1_555 1_555
H3 C5 1_555 1_555
C6 C5 1_555 1_555
C7 C3 1_555 1_555
C8 N1 1_555 1_555
C9 C8 1_555 1_555
H4 C9 1_555 1_555
C10 C1 1_555 1_555
H5 C10 1_555 1_555
C11 N1 1_555 1_555
H6 C11 1_555 1_555
H7 C11 1_555 1_555
C12 C11 1_555 1_555
H8 C12 1_555 1_555
H9 C12 1_555 1_555
H10 C12 1_555 1_555
C13 C6 1_555 1_555
C14 C13 1_555 1_555
H11 C14 1_555 1_555
H12 C14 1_555 1_555
H13 C14 1_555 1_555
C15 C4 1_555 1_555
C16 O2 1_555 1_555
H14 C16 1_555 1_555
H15 C16 1_555 1_555
C17 C16 1_555 1_555
H16 C17 1_555 1_555
H17 C17 1_555 1_555
H18 C17 1_555 1_555
C6 C7 1_555 1_555
C7 C8 1_555 1_555
C9 C10 1_555 1_555

#END
