
#######################################################################
#
#                 Cambridge Crystallographic Data Centre
#                                CCDC 
#
#######################################################################
#
# If this CIF has been generated from an entry in the Cambridge 
# Structural Database, then it will include bibliographic, chemical, 
# crystal, experimental, refinement or atomic coordinate data resulting 
# from the CCDC's data processing and validation procedures.
#
#######################################################################

data_GIJTUR
_chemical_formula_moiety         'C30 H23 N1 O2'
_chemical_name_systematic        
'ethyl 2-(tribenzo[c,i,k]phenanthridin-16-yl)propanoate'
_symmetry_cell_setting           triclinic
_symmetry_space_group_name_H-M   'P -1'
_symmetry_Int_Tables_number      2
_space_group_name_Hall           '-P 1'
loop_
_symmetry_equiv_pos_site_id
_symmetry_equiv_pos_as_xyz
1 x,y,z
2 -x,-y,-z
_cell_length_a                   7.3192(6)
_cell_length_b                   11.4476(7)
_cell_length_c                   14.2878(11)
_cell_angle_alpha                109.541(6)
_cell_angle_beta                 103.435(7)
_cell_angle_gamma                90.850(6)
_cell_volume                     1091.7
_exptl_crystal_description       block
_cell_formula_units_Z            2
loop_
_atom_site_label
_atom_site_type_symbol
_atom_site_fract_x
_atom_site_fract_y
_atom_site_fract_z
O1 O 0.99031(19) 0.85846(12) 0.80497(11)
O2 O 0.8660(2) 1.02129(11) 0.89871(11)
N1 N 0.5673(2) 0.74371(13) 0.74350(11)
C1 C 0.5681(2) 0.49235(15) 0.72658(13)
C2 C 0.4433(2) 0.52828(15) 0.64924(13)
C3 C 0.4564(2) 0.65498(15) 0.65925(13)
C4 C 0.5483(2) 0.37277(15) 0.74202(13)
C5 C 0.7179(2) 0.58005(15) 0.79365(13)
C6 C 0.3247(2) 0.44185(16) 0.55625(13)
H1 H 0.3185 0.3572 0.5465
C7 C 0.8803(3) 0.41514(16) 0.84645(13)
C8 C 0.3501(2) 0.69667(16) 0.57963(13)
C9 C 0.6947(2) 0.70810(15) 0.80724(13)
C10 C 0.3726(3) 0.82144(16) 0.58475(14)
H2 H 0.4533 0.8800 0.6421
C11 C 0.6995(3) 0.33845(15) 0.80592(13)
C12 C 0.8890(2) 0.53631(16) 0.84173(13)
C13 C 0.7965(2) 0.81638(15) 0.90276(13)
H3 H 0.8968 0.7854 0.9441
C14 C 0.1293(3) 0.64928(17) 0.41290(14)
H4 H 0.0461 0.5925 0.3556
C15 C 0.2218(2) 0.48048(16) 0.48252(14)
H5 H 0.1437 0.4219 0.4242
C16 C 0.8842(3) 0.91198(16) 0.87023(14)
C17 C 0.3771(3) 0.29632(16) 0.70461(14)
H6 H 0.2744 0.3191 0.6646
C18 C 0.6734(3) 0.22951(16) 0.82777(15)
H7 H 0.7720 0.2077 0.8710
C19 C 1.0482(3) 0.37028(17) 0.88539(14)
H8 H 1.0432 0.2914 0.8904
C20 C 0.2292(2) 0.60865(16) 0.49155(13)
C21 C 1.0668(3) 0.60416(17) 0.87000(14)
H9 H 1.0750 0.6822 0.8637
C22 C 0.1530(3) 0.77078(18) 0.41967(15)
H10 H 0.0868 0.7958 0.3669
C23 C 0.2759(3) 0.85726(18) 0.50549(15)
H11 H 0.2928 0.9396 0.5093
C24 C 0.5061(3) 0.15442(17) 0.78705(16)
H12 H 0.4932 0.0812 0.8007
C25 C 1.2291(3) 0.55712(18) 0.90685(15)
H13 H 1.3455 0.6035 0.9255
C26 C 1.2189(3) 0.44019(18) 0.91613(15)
H14 H 1.3279 0.4095 0.9432
C27 C 0.6568(3) 0.87263(19) 0.96633(15)
H15 H 0.5507 0.8946 0.9239
H16 H 0.7180 0.9458 1.0227
H17 H 0.6139 0.8127 0.9922
C28 C 0.3565(3) 0.18846(17) 0.72539(16)
H18 H 0.2422 0.1384 0.6980
C29 C 1.0600(3) 0.9326(2) 0.75317(17)
H19 H 1.1776 0.9043 0.7379
H20 H 1.0846 1.0192 0.7977
C30 C 0.9178(3) 0.9208(2) 0.65601(19)
H21 H 0.8856 0.8343 0.6147
H22 H 0.9699 0.9632 0.6190
H23 H 0.8066 0.9572 0.6719
loop_
_geom_bond_atom_site_label_1
_geom_bond_atom_site_label_2
_geom_bond_site_symmetry_1
_geom_bond_site_symmetry_2
O1 C16 1_555 1_555
O2 C16 1_555 1_555
N1 C3 1_555 1_555
C1 C2 1_555 1_555
C2 C3 1_555 1_555
C3 C8 1_555 1_555
C4 C1 1_555 1_555
C5 C1 1_555 1_555
C6 C2 1_555 1_555
H1 C6 1_555 1_555
C7 C11 1_555 1_555
C8 C10 1_555 1_555
C9 N1 1_555 1_555
C10 H2 1_555 1_555
C11 C4 1_555 1_555
C12 C5 1_555 1_555
C13 C9 1_555 1_555
H3 C13 1_555 1_555
C14 H4 1_555 1_555
C15 C6 1_555 1_555
H5 C15 1_555 1_555
C16 C13 1_555 1_555
C17 C4 1_555 1_555
H6 C17 1_555 1_555
C18 C11 1_555 1_555
H7 C18 1_555 1_555
C19 C7 1_555 1_555
H8 C19 1_555 1_555
C20 C8 1_555 1_555
C21 C12 1_555 1_555
H9 C21 1_555 1_555
C22 C14 1_555 1_555
H10 C22 1_555 1_555
C23 C10 1_555 1_555
H11 C23 1_555 1_555
C24 C18 1_555 1_555
H12 C24 1_555 1_555
C25 C21 1_555 1_555
H13 C25 1_555 1_555
C26 C19 1_555 1_555
H14 C26 1_555 1_555
C27 C13 1_555 1_555
H15 C27 1_555 1_555
H16 C27 1_555 1_555
H17 C27 1_555 1_555
C28 C17 1_555 1_555
H18 C28 1_555 1_555
C29 O1 1_555 1_555
H19 C29 1_555 1_555
H20 C29 1_555 1_555
C30 C29 1_555 1_555
H21 C30 1_555 1_555
H22 C30 1_555 1_555
H23 C30 1_555 1_555
C5 C9 1_555 1_555
C7 C12 1_555 1_555
C14 C20 1_555 1_555
C15 C20 1_555 1_555
C22 C23 1_555 1_555
C24 C28 1_555 1_555
C25 C26 1_555 1_555

#END
