
#######################################################################
#
#                 Cambridge Crystallographic Data Centre
#                                CCDC 
#
#######################################################################
#
# If this CIF has been generated from an entry in the Cambridge 
# Structural Database, then it will include bibliographic, chemical, 
# crystal, experimental, refinement or atomic coordinate data resulting 
# from the CCDC's data processing and validation procedures.
#
#######################################################################

data_GIKJIW
_chemical_formula_moiety         'C38 H30 Br1 N3 O2'
_chemical_name_systematic        
N-{3-[4-benzyl-3-(4-bromophenyl)-5-oxo-1-phenyl-4,5-dihydro-1H-pyrazol-4-yl]prop-1-en-1-yl}-N-phenylbenzamide
_symmetry_cell_setting           monoclinic
_symmetry_space_group_name_H-M   'P 21'
_symmetry_Int_Tables_number      4
_space_group_name_Hall           'P 2yb'
loop_
_symmetry_equiv_pos_site_id
_symmetry_equiv_pos_as_xyz
1 x,y,z
2 -x,1/2+y,-z
_cell_length_a                   10.2464(6)
_cell_length_b                   14.8028(8)
_cell_length_c                   11.8382(7)
_cell_angle_alpha                90
_cell_angle_beta                 114.139(3)
_cell_angle_gamma                90
_cell_volume                     1638.55
_exptl_crystal_colour            black
_exptl_crystal_description       block
_cell_formula_units_Z            2
loop_
_atom_site_label
_atom_site_type_symbol
_atom_site_fract_x
_atom_site_fract_y
_atom_site_fract_z
Br1 Br 0.41821(7) 0.43041(7) 0.46572(4)
C1 C 0.3691(4) 0.4297(4) 0.2936(3)
C2 C 0.3016(4) 0.4289(4) 0.0413(3)
N1 N 0.2915(4) 0.5025(3) -0.1404(3)
C3 C 0.2662(4) 0.4292(3) -0.0920(3)
N2 N -0.1520(4) 0.5422(2) -0.1312(3)
O1 O 0.1205(4) 0.3785(2) -0.4099(3)
C4 C -0.0460(4) 0.4274(4) -0.2118(4)
H1 H -0.0705 0.4607 -0.2843
C5 C 0.3477(5) 0.5082(4) 0.1096(4)
H2 H 0.3555 0.5613 0.0706
O2 O -0.2841(5) 0.6376(2) -0.0737(3)
C6 C 0.3819(6) 0.5080(4) 0.2354(5)
H3 H 0.4136 0.5608 0.2810
C7 C 0.0373(4) 0.3410(3) -0.1969(4)
H4 H -0.0125 0.3021 -0.2675
H5 H 0.0426 0.3098 -0.1231
C8 C -0.1384(7) 0.4283(5) 0.2824(4)
H6 H -0.1250 0.3980 0.3551
N3 N 0.2379(4) 0.4897(3) -0.2687(3)
C9 C 0.2675(5) 0.2664(3) -0.1764(4)
H7 H 0.2553 0.2308 -0.1125
H8 H 0.2202 0.2343 -0.2540
C10 C 0.3212(5) 0.3523(3) 0.2275(5)
H9 H 0.3110 0.2999 0.2666
C11 C 0.1764(5) 0.4076(3) -0.3049(4)
C12 C 0.2880(5) 0.3519(3) 0.1028(4)
H10 H 0.2556 0.2987 0.0583
C13 C -0.2100(6) 0.5687(4) -0.0522(5)
C14 C 0.4239(5) 0.2712(3) -0.1473(4)
C15 C 0.2446(5) 0.5646(3) -0.3427(4)
C16 C 0.1901(5) 0.3591(3) -0.1868(4)
C17 C 0.3528(6) 0.6265(4) -0.2945(5)
H11 H 0.4244 0.6186 -0.2155
C18 C -0.1669(6) 0.6013(3) -0.2326(4)
C19 C -0.1802(5) 0.5161(3) 0.0646(4)
C20 C -0.2947(6) 0.4943(4) 0.0913(5)
H12 H -0.3870 0.5093 0.0363
C21 C -0.0849(5) 0.4574(3) -0.1262(4)
H13 H -0.0675 0.4208 -0.0577
C22 C 0.1401(6) 0.5741(4) -0.4608(5)
H14 H 0.0668 0.5320 -0.4937
C23 C 0.5233(6) 0.2501(4) -0.0280(5)
H15 H 0.4918 0.2361 0.0333
C24 C 0.7168(7) 0.2716(4) -0.0856(8)
H16 H 0.8147 0.2715 -0.0649
C25 C -0.0437(6) 0.4939(4) 0.1488(5)
H17 H 0.0345 0.5078 0.1312
C26 C 0.1479(9) 0.6485(5) -0.5290(6)
H18 H 0.0778 0.6562 -0.6087
C27 C 0.6666(7) 0.2498(4) -0.0005(6)
H19 H 0.7308 0.2341 0.0789
C28 C -0.1818(12) 0.7046(5) -0.4274(8)
H20 H -0.1871 0.7396 -0.4944
C29 C -0.2981(9) 0.6560(5) -0.4363(6)
H21 H -0.3816 0.6587 -0.5084
C30 C -0.2718(6) 0.4497(4) 0.2008(5)
H22 H -0.3495 0.4343 0.2183
C31 C 0.6212(8) 0.2943(5) -0.2045(7)
H23 H 0.6545 0.3105 -0.2639
C32 C 0.3545(8) 0.7007(4) -0.3642(7)
H24 H 0.4245 0.7446 -0.3300
C33 C -0.2930(6) 0.6019(4) -0.3376(5)
H25 H -0.3714 0.5678 -0.3426
C34 C -0.0504(6) 0.6509(4) -0.2257(6)
H26 H 0.0343 0.6490 -0.1547
C35 C -0.0226(6) 0.4513(4) 0.2583(5)
H27 H 0.0695 0.4381 0.3156
C36 C 0.4769(7) 0.2927(4) -0.2336(5)
H28 H 0.4132 0.3065 -0.3140
C37 C -0.0601(9) 0.7036(4) -0.3251(7)
H29 H 0.0176 0.7381 -0.3209
C38 C 0.2548(8) 0.7105(4) -0.4829(6)
H30 H 0.2599 0.7587 -0.5314
loop_
_geom_bond_atom_site_label_1
_geom_bond_atom_site_label_2
_geom_bond_site_symmetry_1
_geom_bond_site_symmetry_2
Br1 C1 1_555 1_555
C1 C6 1_555 1_555
C2 C3 1_555 1_555
N1 C3 1_555 1_555
C3 C16 1_555 1_555
N2 C13 1_555 1_555
O1 C11 1_555 1_555
C4 H1 1_555 1_555
C5 C2 1_555 1_555
H2 C5 1_555 1_555
O2 C13 1_555 1_555
C6 C5 1_555 1_555
H3 C6 1_555 1_555
C7 C4 1_555 1_555
H4 C7 1_555 1_555
H5 C7 1_555 1_555
C8 H6 1_555 1_555
N3 N1 1_555 1_555
C9 H7 1_555 1_555
H8 C9 1_555 1_555
C10 C1 1_555 1_555
H9 C10 1_555 1_555
C11 N3 1_555 1_555
C12 C2 1_555 1_555
H10 C12 1_555 1_555
C13 C19 1_555 1_555
C14 C9 1_555 1_555
C15 N3 1_555 1_555
C16 C7 1_555 1_555
C17 C15 1_555 1_555
H11 C17 1_555 1_555
C18 N2 1_555 1_555
C19 C20 1_555 1_555
C20 H12 1_555 1_555
C21 N2 1_555 1_555
H13 C21 1_555 1_555
C22 C15 1_555 1_555
H14 C22 1_555 1_555
C23 C14 1_555 1_555
H15 C23 1_555 1_555
C24 H16 1_555 1_555
C25 C19 1_555 1_555
H17 C25 1_555 1_555
C26 C22 1_555 1_555
H18 C26 1_555 1_555
C27 C23 1_555 1_555
H19 C27 1_555 1_555
C28 H20 1_555 1_555
C29 C28 1_555 1_555
H21 C29 1_555 1_555
C30 C8 1_555 1_555
H22 C30 1_555 1_555
C31 C24 1_555 1_555
H23 C31 1_555 1_555
C32 C17 1_555 1_555
H24 C32 1_555 1_555
C33 C18 1_555 1_555
H25 C33 1_555 1_555
C34 C18 1_555 1_555
H26 C34 1_555 1_555
C35 C8 1_555 1_555
H27 C35 1_555 1_555
C36 C14 1_555 1_555
H28 C36 1_555 1_555
C37 C28 1_555 1_555
H29 C37 1_555 1_555
C38 C26 1_555 1_555
H30 C38 1_555 1_555
C4 C21 1_555 1_555
C9 C16 1_555 1_555
C10 C12 1_555 1_555
C11 C16 1_555 1_555
C20 C30 1_555 1_555
C24 C27 1_555 1_555
C25 C35 1_555 1_555
C29 C33 1_555 1_555
C31 C36 1_555 1_555
C32 C38 1_555 1_555
C34 C37 1_555 1_555

#END
