
#######################################################################
#
#                 Cambridge Crystallographic Data Centre
#                                CCDC 
#
#######################################################################
#
# If this CIF has been generated from an entry in the Cambridge 
# Structural Database, then it will include bibliographic, chemical, 
# crystal, experimental, refinement or atomic coordinate data resulting 
# from the CCDC's data processing and validation procedures.
#
#######################################################################

data_GIKSOJ
_chemical_formula_moiety         'C30 H30 N4 O3'
_chemical_name_systematic        
2,5-bis(5-(4-t-Butylphenyl)-(1,3,4)oxadiazol-2-yl)phenol
_symmetry_cell_setting           triclinic
_symmetry_space_group_name_H-M   'P -1'
_symmetry_Int_Tables_number      2
_space_group_name_Hall           '-P 1'
loop_
_symmetry_equiv_pos_site_id
_symmetry_equiv_pos_as_xyz
1 x,y,z
2 -x,-y,-z
_cell_length_a                   9.745(5)
_cell_length_b                   11.274(5)
_cell_length_c                   12.794(5)
_cell_angle_alpha                74.688(5)
_cell_angle_beta                 80.500(5)
_cell_angle_gamma                77.101(5)
_cell_volume                     1313.07
_exptl_crystal_colour            colorless
_exptl_crystal_description       Stick
_chemical_melting_point          '278 deg.C'
_cell_formula_units_Z            2
_exptl_crystal_recrystallization_method ethanol/chloroform
loop_
_atom_site_label
_atom_site_type_symbol
_atom_site_fract_x
_atom_site_fract_y
_atom_site_fract_z
O1 O 0.66323(19) 0.19847(16) 0.15559(14)
O2 O 0.45146(19) 0.29990(17) 0.71559(14)
O3 O 0.7105(3) 0.4271(2) 0.4296(2)
N1 N 0.5542(3) 0.0599(2) 0.1271(2)
N2 N 0.5058(3) 0.0796(3) 0.2306(2)
N3 N 0.6150(2) 0.4130(2) 0.6412(2)
N4 N 0.5678(3) 0.4321(2) 0.74648(19)
C1 C 1.0381(5) 0.2941(3) -0.3738(3)
H1 H 0.9515 0.3539 -0.3850
H2 H 1.0970 0.2966 -0.4420
H3 H 1.0869 0.3143 -0.3233
C2 C 1.1407(3) 0.0690(3) -0.3056(3)
H4 H 1.1898 0.0932 -0.2577
H5 H 1.1999 0.0660 -0.3730
H6 H 1.1181 -0.0122 -0.2719
C3 C 1.0048(3) 0.1639(3) -0.3279(2)
C4 C 0.9405(4) 0.1284(4) -0.4149(3)
H7 H 0.9207 0.0454 -0.3876
H8 H 1.0064 0.1313 -0.4797
H9 H 0.8542 0.1866 -0.4315
C5 C 0.9053(3) 0.1578(3) -0.2214(2)
C6 C 0.9380(3) 0.2023(3) -0.1382(3)
H10 H 1.0190 0.2369 -0.1494
C7 C 0.8536(3) 0.1964(3) -0.0401(2)
H11 H 0.8773 0.2285 0.0129
C8 C 0.7337(3) 0.1432(2) -0.0195(2)
C9 C 0.6985(3) 0.0989(3) -0.1015(2)
H12 H 0.6178 0.0640 -0.0899
C10 C 0.7832(3) 0.1067(3) -0.2002(2)
H13 H 0.7578 0.0769 -0.2541
C11 C 0.6467(3) 0.1313(3) 0.0851(2)
C12 C 0.5715(3) 0.1602(3) 0.2443(2)
C13 C 0.5638(3) 0.2076(2) 0.3413(2)
C14 C 0.6421(3) 0.2957(2) 0.3420(2)
H14 H 0.6993 0.3266 0.2795
C15 C 0.6362(3) 0.3381(2) 0.4344(2)
C16 C 0.5515(3) 0.2906(2) 0.5296(2)
C17 C 0.4724(3) 0.2021(3) 0.5275(2)
H15 H 0.4158 0.1705 0.5901
C18 C 0.5441(3) 0.3361(3) 0.6266(2)
C19 C 0.4766(3) 0.1609(3) 0.4351(2)
H16 H 0.4223 0.1029 0.4346
C20 C 0.4714(3) 0.3655(3) 0.7868(2)
C21 C 0.3840(3) 0.3554(2) 0.8911(2)
C22 C 0.3741(3) 0.4457(3) 0.9487(2)
H17 H 0.4251 0.5100 0.9211
C23 C 0.2885(3) 0.4408(3) 1.0474(2)
H18 H 0.2840 0.5017 1.0853
C24 C 0.2097(3) 0.3475(2) 1.0907(2)
C25 C 0.2222(3) 0.2567(3) 1.0324(2)
H19 H 0.1717 0.1921 1.0602
C26 C 0.3076(3) 0.2598(3) 0.9342(2)
H20 H 0.3137 0.1978 0.8971
C27 C 0.1086(3) 0.3502(3) 1.1961(2)
C28 C 0.1768(4) 0.3803(5) 1.2810(3)
H21 H 0.2054 0.4599 1.2525
H22 H 0.2583 0.3166 1.2998
H23 H 0.1101 0.3836 1.3449
C29 C 0.0587(6) 0.2265(4) 1.2452(4)
H24 H 0.0023 0.2300 1.3137
H25 H 0.1394 0.1598 1.2566
H26 H 0.0030 0.2117 1.1963
C30 C -0.0206(4) 0.4516(4) 1.1684(3)
H27 H 0.0061 0.5323 1.1492
H28 H -0.0913 0.4471 1.2305
H29 H -0.0583 0.4396 1.1080
H30 H 0.7071 0.4415 0.5189
loop_
_geom_bond_atom_site_label_1
_geom_bond_atom_site_label_2
_geom_bond_site_symmetry_1
_geom_bond_site_symmetry_2
O1 C11 1_555 1_555
O2 C18 1_555 1_555
O3 C15 1_555 1_555
N1 N2 1_555 1_555
N2 C12 1_555 1_555
N3 N4 1_555 1_555
N4 C20 1_555 1_555
C1 H1 1_555 1_555
H2 C1 1_555 1_555
H3 C1 1_555 1_555
C2 H4 1_555 1_555
H5 C2 1_555 1_555
H6 C2 1_555 1_555
C3 C1 1_555 1_555
C4 C3 1_555 1_555
H7 C4 1_555 1_555
H8 C4 1_555 1_555
H9 C4 1_555 1_555
C5 C3 1_555 1_555
C6 C5 1_555 1_555
H10 C6 1_555 1_555
C7 C6 1_555 1_555
H11 C7 1_555 1_555
C8 C7 1_555 1_555
C9 C8 1_555 1_555
H12 C9 1_555 1_555
C10 C5 1_555 1_555
H13 C10 1_555 1_555
C11 N1 1_555 1_555
C12 O1 1_555 1_555
C13 C12 1_555 1_555
C14 C13 1_555 1_555
H14 C14 1_555 1_555
C15 C14 1_555 1_555
C16 C15 1_555 1_555
C17 C16 1_555 1_555
H15 C17 1_555 1_555
C18 N3 1_555 1_555
C19 C13 1_555 1_555
H16 C19 1_555 1_555
C20 O2 1_555 1_555
C21 C20 1_555 1_555
C22 C21 1_555 1_555
H17 C22 1_555 1_555
C23 C22 1_555 1_555
H18 C23 1_555 1_555
C24 C23 1_555 1_555
C25 C24 1_555 1_555
H19 C25 1_555 1_555
C26 C21 1_555 1_555
H20 C26 1_555 1_555
C27 C24 1_555 1_555
C28 C27 1_555 1_555
H21 C28 1_555 1_555
H22 C28 1_555 1_555
H23 C28 1_555 1_555
C29 C27 1_555 1_555
H24 C29 1_555 1_555
H25 C29 1_555 1_555
H26 C29 1_555 1_555
C30 C27 1_555 1_555
H27 C30 1_555 1_555
H28 C30 1_555 1_555
H29 C30 1_555 1_555
H30 O3 1_555 1_555
C2 C3 1_555 1_555
C8 C11 1_555 1_555
C9 C10 1_555 1_555
C16 C18 1_555 1_555
C17 C19 1_555 1_555
C25 C26 1_555 1_555

#END
