
#######################################################################
#
#                 Cambridge Crystallographic Data Centre
#                                CCDC 
#
#######################################################################
#
# If this CIF has been generated from an entry in the Cambridge 
# Structural Database, then it will include bibliographic, chemical, 
# crystal, experimental, refinement or atomic coordinate data resulting 
# from the CCDC's data processing and validation procedures.
#
#######################################################################

data_GIKZUX
_chemical_formula_moiety         'C14 H9 Br1 F3 N1'
_chemical_name_systematic        
2-(4-Bromophenyl)-1-(2,4,6-trifluorophenyl)aziridine
_symmetry_cell_setting           monoclinic
_symmetry_space_group_name_H-M   'P 21'
_symmetry_Int_Tables_number      4
_space_group_name_Hall           'P 2yb'
loop_
_symmetry_equiv_pos_site_id
_symmetry_equiv_pos_as_xyz
1 x,y,z
2 -x,1/2+y,-z
_cell_length_a                   5.1539(2)
_cell_length_b                   9.3843(3)
_cell_length_c                   13.1416(4)
_cell_angle_alpha                90
_cell_angle_beta                 93.665(2)
_cell_angle_gamma                90
_cell_volume                     634.303
_exptl_crystal_colour            colorless
_exptl_crystal_description       plate
_cell_formula_units_Z            2
loop_
_atom_site_label
_atom_site_type_symbol
_atom_site_fract_x
_atom_site_fract_y
_atom_site_fract_z
Br1 Br 0.05833(9) 0.24757(6) 1.04851(3)
F1 F 0.6694(5) 0.2575(5) 0.21457(16)
F2 F 0.4017(5) 0.3058(3) 0.54630(17)
F3 F 1.0828(6) -0.0044(3) 0.4815(2)
C1 C 0.5601(6) 0.2464(5) 0.4803(2)
C2 C 0.2891(7) 0.2390(6) 0.9412(2)
C3 C 0.3908(10) 0.1084(5) 0.9157(3)
H1 H 0.3452 0.0244 0.9507
C4 C 0.5601(9) 0.1024(5) 0.8384(3)
H2 H 0.6311 0.0132 0.8204
C5 C 0.6283(8) 0.2238(4) 0.7867(3)
C6 C 0.8046(8) 0.2188(4) 0.7005(3)
H3 H 0.8493 0.3141 0.6723
N1 N 0.7473(6) 0.1075(3) 0.6229(2)
C7 C 0.7440(7) 0.1494(4) 0.5200(3)
C8 C 0.9001(8) 0.0921(4) 0.4485(3)
C9 C 0.8821(8) 0.1258(4) 0.3468(3)
H4 H 0.9946 0.0842 0.3005
C10 C 0.6940(8) 0.2224(4) 0.3148(3)
C11 C 0.5210(10) 0.3531(5) 0.8149(3)
H5 H 0.5656 0.4374 0.7801
C12 C 0.3523(10) 0.3623(5) 0.8917(4)
H6 H 0.2813 0.4514 0.9100
C13 C 0.9963(8) 0.1059(5) 0.6845(3)
H7 H 1.0216 0.0316 0.7377
H8 H 1.1553 0.1324 0.6504
C14 C 0.5299(8) 0.2847(4) 0.3794(3)
H9 H 0.4011 0.3513 0.3555
loop_
_geom_bond_atom_site_label_1
_geom_bond_atom_site_label_2
_geom_bond_site_symmetry_1
_geom_bond_site_symmetry_2
Br1 C2 1_555 1_555
F1 C10 1_555 1_555
F2 C1 1_555 1_555
F3 C8 1_555 1_555
C1 C7 1_555 1_555
C2 C3 1_555 1_555
C3 H1 1_555 1_555
C4 C3 1_555 1_555
H2 C4 1_555 1_555
C5 C4 1_555 1_555
C6 C5 1_555 1_555
H3 C6 1_555 1_555
N1 C6 1_555 1_555
C7 N1 1_555 1_555
C8 C7 1_555 1_555
C9 C8 1_555 1_555
H4 C9 1_555 1_555
C10 C9 1_555 1_555
C11 C5 1_555 1_555
H5 C11 1_555 1_555
C12 C2 1_555 1_555
H6 C12 1_555 1_555
C13 C6 1_555 1_555
H7 C13 1_555 1_555
H8 C13 1_555 1_555
C14 C1 1_555 1_555
H9 C14 1_555 1_555
N1 C13 1_555 1_555
C10 C14 1_555 1_555
C11 C12 1_555 1_555

#END
