
#######################################################################
#
#                 Cambridge Crystallographic Data Centre
#                                CCDC 
#
#######################################################################
#
# If this CIF has been generated from an entry in the Cambridge 
# Structural Database, then it will include bibliographic, chemical, 
# crystal, experimental, refinement or atomic coordinate data resulting 
# from the CCDC's data processing and validation procedures.
#
#######################################################################

data_GILGOA
_chemical_formula_moiety         'C84 H60 N4 S6'
_chemical_name_systematic        
'12,22,37,47-tetrakis(2,4,6-trimethylphenyl)-14,17,20,39,42,45-hexathia-10,24,35,49-tetraazapentadecacyclo[46.2.1.1^8,11^.1^13,16^.1^18,21^.1^23,26^.1^33,36^.1^38,41^.1^43,46^.0^2,7^.0^9,50^.0^15,19^.0^25,34^.0^27,32^.0^40,44^]octapentaconta-1(51),2,4,6,8(58),9,11,13(57),15,18,21(56),22,24,26(55),27,29,31,33(54),34,36,38(53),40,43,46(52),47,49-hexacosaene unknown solvate'
_symmetry_cell_setting           monoclinic
_symmetry_space_group_name_H-M   'P 21/n'
_symmetry_Int_Tables_number      14
_space_group_name_Hall           '-P 2yn'
loop_
_symmetry_equiv_pos_site_id
_symmetry_equiv_pos_as_xyz
1 x,y,z
2 1/2-x,1/2+y,1/2-z
3 -x,-y,-z
4 1/2+x,1/2-y,1/2+z
_cell_length_a                   13.511(3)
_cell_length_b                   27.674(6)
_cell_length_c                   14.945(3)
_cell_angle_alpha                90
_cell_angle_beta                 115.79(3)
_cell_angle_gamma                90
_cell_volume                     5031.39
_exptl_crystal_colour            purple
_exptl_crystal_description       prism
_cell_formula_units_Z            2
loop_
_atom_site_label
_atom_site_type_symbol
_atom_site_fract_x
_atom_site_fract_y
_atom_site_fract_z
S1 S -0.01436(11) 0.89496(5) 0.86432(10)
S2 S 0.18899(13) 0.88619(5) 0.71780(12)
S3 S 0.17300(11) 1.00814(5) 0.87827(10)
N1 N 0.2518(4) 1.10964(17) 0.9357(4)
N2 N 0.1736(4) 1.16116(17) 1.0796(4)
C1 C -0.0368(5) 0.83928(19) 0.8039(4)
C2 C 0.0294(5) 0.8330(2) 0.7537(4)
H1 H 0.0296 0.8049 0.7173
C3 C 0.0937(5) 0.8729(2) 0.7645(4)
C4 C 0.0815(4) 0.91036(19) 0.8211(4)
C5 C 0.1481(5) 0.95074(19) 0.8261(4)
C6 C 0.2110(5) 0.9421(2) 0.7742(5)
C7 C 0.2750(5) 0.9813(2) 0.7722(4)
H2 H 0.3217 0.9809 0.7396
C8 C 0.2625(4) 1.02093(19) 0.8234(4)
C9 C 0.3138(5) 1.10646(19) 0.8813(4)
C10 C 0.3757(5) 1.1500(2) 0.8882(4)
H3 H 0.4220 1.1563 0.8566
C11 C 0.3541(5) 1.18041(19) 0.9496(4)
C12 C 0.3932(4) 1.2292(2) 0.9855(4)
C13 C 0.4648(5) 1.2536(2) 0.9541(4)
H4 H 0.4900 1.2382 0.9110
C14 C 0.4976(5) 1.3003(2) 0.9869(5)
H5 H 0.5499 1.3160 0.9702
C15 C 0.4552(5) 1.3246(2) 1.0436(5)
H6 H 0.4721 1.3577 1.0600
C16 C 0.3869(5) 1.2994(2) 1.0766(5)
H7 H 0.3607 1.3150 1.1188
C17 C 0.3576(5) 1.2522(2) 1.0481(4)
C18 C 0.2850(4) 1.22511(19) 1.0806(4)
C19 C 0.2458(5) 1.23717(19) 1.1485(4)
H8 H 0.2624 1.2655 1.1882
C20 C 0.1745(5) 1.1982(2) 1.1472(4)
C21 C 0.2396(5) 1.1778(2) 1.0426(4)
C22 C 0.2785(5) 1.15399(19) 0.9771(4)
C23 C 0.3172(5) 1.0661(2) 0.8295(4)
C24 C -0.1147(4) 0.80325(19) 0.8001(4)
C25 C 0.3820(5) 1.06786(19) 0.7711(4)
C26 C 0.4907(5) 1.05193(19) 0.8103(4)
C27 C 0.5447(5) 1.0514(2) 0.7482(5)
H9 H 0.6188 1.0407 0.7747
C28 C 0.4945(5) 1.0656(2) 0.6519(5)
C29 C 0.3850(5) 1.0825(2) 0.6123(4)
H10 H 0.3487 1.0926 0.5450
C30 C 0.3303(6) 1.0843(2) 0.6732(5)
C31 C 0.5468(5) 1.0334(2) 0.9154(4)
H11 H 0.5252 0.9998 0.9174
H12 H 0.5250 1.0532 0.9582
H13 H 0.6267 1.0352 0.9390
C32 C 0.5552(8) 1.0657(3) 0.5856(7)
H14 H 0.6009 1.0948 0.5992
H15 H 0.5015 1.0655 0.5156
H16 H 0.6019 1.0370 0.5998
C33 C 0.2118(6) 1.1029(3) 0.6283(5)
H17 H 0.1718 1.0873 0.6617
H18 H 0.1758 1.0952 0.5573
H19 H 0.2119 1.1379 0.6373
C34 C -0.1333(4) 0.7628(2) 0.7270(4)
C35 C -0.2056(5) 0.7709(2) 0.6264(4)
C36 C -0.2215(5) 0.7328(2) 0.5604(4)
H20 H -0.2692 0.7377 0.4922
C37 C -0.1714(5) 0.6882(2) 0.5890(4)
C38 C -0.1007(5) 0.6812(2) 0.6895(4)
H21 H -0.0651 0.6509 0.7111
C39 C -0.0820(5) 0.7179(2) 0.7575(4)
C40 C -0.2622(6) 0.8187(2) 0.5921(5)
H22 H -0.2976 0.8196 0.5193
H23 H -0.2080 0.8448 0.6175
H24 H -0.3178 0.8228 0.6170
C41 C -0.1905(6) 0.6493(3) 0.5158(5)
H25 H -0.2145 0.6200 0.5375
H26 H -0.1222 0.6427 0.5101
H27 H -0.2475 0.6594 0.4509
C42 C -0.0048(6) 0.7096(2) 0.8632(5)
H28 H -0.0451 0.6965 0.8986
H29 H 0.0298 0.7403 0.8936
H30 H 0.0521 0.6866 0.8670
S1B S 0.01436(11) 1.10504(5) 1.13568(10)
S2B S -0.18899(13) 1.11381(5) 1.28220(12)
S3B S -0.17300(11) 0.99186(5) 1.12173(10)
N1B N -0.2518(4) 0.89036(17) 1.0643(4)
N2B N -0.1736(4) 0.83884(17) 0.9204(4)
C1B C 0.0368(5) 1.16072(19) 1.1961(4)
C2B C -0.0294(5) 1.1670(2) 1.2463(4)
H1B H -0.0296 1.1951 1.2827
C3B C -0.0937(5) 1.1271(2) 1.2355(4)
C4B C -0.0815(4) 1.08964(19) 1.1789(4)
C5B C -0.1481(5) 1.04926(19) 1.1739(4)
C6B C -0.2110(5) 1.0579(2) 1.2258(5)
C7B C -0.2750(5) 1.0187(2) 1.2278(4)
H2B H -0.3217 1.0191 1.2604
C8B C -0.2625(4) 0.97907(19) 1.1766(4)
C9B C -0.3138(5) 0.89354(19) 1.1187(4)
C10B C -0.3757(5) 0.8500(2) 1.1118(4)
H3B H -0.4220 0.8437 1.1434
C11B C -0.3541(5) 0.81959(19) 1.0504(4)
C12B C -0.3932(4) 0.7708(2) 1.0145(4)
C13B C -0.4648(5) 0.7464(2) 1.0459(4)
H4B H -0.4900 0.7618 1.0890
C14B C -0.4976(5) 0.6997(2) 1.0131(5)
H5B H -0.5499 0.6840 1.0298
C15B C -0.4552(5) 0.6754(2) 0.9564(5)
H6B H -0.4721 0.6423 0.9400
C16B C -0.3869(5) 0.7006(2) 0.9234(5)
H7B H -0.3607 0.6850 0.8812
C17B C -0.3576(5) 0.7478(2) 0.9519(4)
C18B C -0.2850(4) 0.77489(19) 0.9194(4)
C19B C -0.2458(5) 0.76283(19) 0.8515(4)
H8B H -0.2624 0.7345 0.8118
C20B C -0.1745(5) 0.8018(2) 0.8528(4)
C21B C -0.2396(5) 0.8222(2) 0.9574(4)
C22B C -0.2785(5) 0.84601(19) 1.0229(4)
C23B C -0.3172(5) 0.9339(2) 1.1705(4)
C24B C 0.1147(4) 1.19675(19) 1.1999(4)
C25B C -0.3820(5) 0.93214(19) 1.2289(4)
C26B C -0.4907(5) 0.94807(19) 1.1897(4)
C27B C -0.5447(5) 0.9486(2) 1.2518(5)
H9B H -0.6188 0.9593 1.2253
C28B C -0.4945(5) 0.9344(2) 1.3481(5)
C29B C -0.3850(5) 0.9175(2) 1.3877(4)
H10B H -0.3487 0.9074 1.4550
C30B C -0.3303(6) 0.9157(2) 1.3268(5)
C31B C -0.5468(5) 0.9666(2) 1.0846(4)
H11B H -0.5252 1.0002 1.0826
H12B H -0.5250 0.9468 1.0418
H13B H -0.6267 0.9648 1.0610
C32B C -0.5552(8) 0.9343(3) 1.4144(7)
H14B H -0.6009 0.9052 1.4008
H15B H -0.5015 0.9345 1.4844
H16B H -0.6019 0.9630 1.4002
C33B C -0.2118(6) 0.8971(3) 1.3717(5)
H17B H -0.1718 0.9127 1.3383
H18B H -0.1758 0.9048 1.4427
H19B H -0.2119 0.8621 1.3627
C34B C 0.1333(4) 1.2372(2) 1.2730(4)
C35B C 0.2056(5) 1.2291(2) 1.3736(4)
C36B C 0.2215(5) 1.2672(2) 1.4396(4)
H20B H 0.2692 1.2623 1.5078
C37B C 0.1714(5) 1.3118(2) 1.4110(4)
C38B C 0.1007(5) 1.3188(2) 1.3105(4)
H21B H 0.0651 1.3491 1.2889
C39B C 0.0820(5) 1.2821(2) 1.2425(4)
C40B C 0.2622(6) 1.1813(2) 1.4079(5)
H22B H 0.2976 1.1804 1.4807
H23B H 0.2080 1.1552 1.3825
H24B H 0.3178 1.1772 1.3830
C41B C 0.1905(6) 1.3507(3) 1.4842(5)
H25B H 0.2145 1.3800 1.4625
H26B H 0.1222 1.3573 1.4899
H27B H 0.2475 1.3406 1.5491
C42B C 0.0048(6) 1.2904(2) 1.1368(5)
H28B H 0.0451 1.3035 1.1014
H29B H -0.0298 1.2597 1.1064
H30B H -0.0521 1.3134 1.1330
loop_
_geom_bond_atom_site_label_1
_geom_bond_atom_site_label_2
_geom_bond_site_symmetry_1
_geom_bond_site_symmetry_2
S1 C1 1_555 1_555
S2 C3 1_555 1_555
S3 C5 1_555 1_555
N1 C9 1_555 1_555
N2 C20 1_555 1_555
C1 C2 1_555 1_555
C2 H1 1_555 1_555
C3 C2 1_555 1_555
C4 S1 1_555 1_555
C5 C4 1_555 1_555
C6 S2 1_555 1_555
C7 C6 1_555 1_555
H2 C7 1_555 1_555
C8 S3 1_555 1_555
C9 C10 1_555 1_555
C10 H3 1_555 1_555
C11 C10 1_555 1_555
C12 C11 1_555 1_555
C13 C12 1_555 1_555
H4 C13 1_555 1_555
C14 C13 1_555 1_555
H5 C14 1_555 1_555
C15 C14 1_555 1_555
H6 C15 1_555 1_555
C16 C15 1_555 1_555
H7 C16 1_555 1_555
C17 C12 1_555 1_555
C18 C17 1_555 1_555
C19 C18 1_555 1_555
H8 C19 1_555 1_555
C20 C19 1_555 1_555
C21 N2 1_555 1_555
C22 N1 1_555 1_555
C23 C8 1_555 1_555
C24 C1 1_555 1_555
C25 C23 1_555 1_555
C26 C25 1_555 1_555
C27 C26 1_555 1_555
H9 C27 1_555 1_555
C28 C27 1_555 1_555
C29 C28 1_555 1_555
H10 C29 1_555 1_555
C30 C25 1_555 1_555
C31 C26 1_555 1_555
H11 C31 1_555 1_555
H12 C31 1_555 1_555
H13 C31 1_555 1_555
C32 C28 1_555 1_555
H14 C32 1_555 1_555
H15 C32 1_555 1_555
H16 C32 1_555 1_555
C33 C30 1_555 1_555
H17 C33 1_555 1_555
H18 C33 1_555 1_555
H19 C33 1_555 1_555
C34 C24 1_555 1_555
C35 C34 1_555 1_555
C36 C35 1_555 1_555
H20 C36 1_555 1_555
C37 C36 1_555 1_555
C38 C37 1_555 1_555
H21 C38 1_555 1_555
C39 C34 1_555 1_555
C40 C35 1_555 1_555
H22 C40 1_555 1_555
H23 C40 1_555 1_555
H24 C40 1_555 1_555
C41 C37 1_555 1_555
H25 C41 1_555 1_555
H26 C41 1_555 1_555
H27 C41 1_555 1_555
C42 C39 1_555 1_555
H28 C42 1_555 1_555
H29 C42 1_555 1_555
H30 C42 1_555 1_555
S1B C1B 1_555 1_555
S2B C3B 1_555 1_555
S3B C5B 1_555 1_555
N1B C9B 1_555 1_555
N2B C20B 1_555 1_555
C1B C2B 1_555 1_555
C2B H1B 1_555 1_555
C3B C2B 1_555 1_555
C4B S1B 1_555 1_555
C5B C4B 1_555 1_555
C6B S2B 1_555 1_555
C7B C6B 1_555 1_555
H2B C7B 1_555 1_555
C8B S3B 1_555 1_555
C9B C10B 1_555 1_555
C10B H3B 1_555 1_555
C11B C10B 1_555 1_555
C12B C11B 1_555 1_555
C13B C12B 1_555 1_555
H4B C13B 1_555 1_555
C14B C13B 1_555 1_555
H5B C14B 1_555 1_555
C15B C14B 1_555 1_555
H6B C15B 1_555 1_555
C16B C15B 1_555 1_555
H7B C16B 1_555 1_555
C17B C12B 1_555 1_555
C18B C17B 1_555 1_555
C19B C18B 1_555 1_555
H8B C19B 1_555 1_555
C20B C24 1_555 1_555
C21B N2B 1_555 1_555
C22B N1B 1_555 1_555
C23B C8B 1_555 1_555
C24B C20 1_555 1_555
C25B C23B 1_555 1_555
C26B C25B 1_555 1_555
C27B C26B 1_555 1_555
H9B C27B 1_555 1_555
C28B C27B 1_555 1_555
C29B C28B 1_555 1_555
H10B C29B 1_555 1_555
C30B C25B 1_555 1_555
C31B C26B 1_555 1_555
H11B C31B 1_555 1_555
H12B C31B 1_555 1_555
H13B C31B 1_555 1_555
C32B C28B 1_555 1_555
H14B C32B 1_555 1_555
H15B C32B 1_555 1_555
H16B C32B 1_555 1_555
C33B C30B 1_555 1_555
H17B C33B 1_555 1_555
H18B C33B 1_555 1_555
H19B C33B 1_555 1_555
C34B C24B 1_555 1_555
C35B C34B 1_555 1_555
C36B C35B 1_555 1_555
H20B C36B 1_555 1_555
C37B C36B 1_555 1_555
C38B C37B 1_555 1_555
H21B C38B 1_555 1_555
C39B C34B 1_555 1_555
C40B C35B 1_555 1_555
H22B C40B 1_555 1_555
H23B C40B 1_555 1_555
H24B C40B 1_555 1_555
C41B C37B 1_555 1_555
H25B C41B 1_555 1_555
H26B C41B 1_555 1_555
H27B C41B 1_555 1_555
C42B C39B 1_555 1_555
H28B C42B 1_555 1_555
H29B C42B 1_555 1_555
H30B C42B 1_555 1_555
C3 C4 1_555 1_555
C5 C6 1_555 1_555
C7 C8 1_555 1_555
C9 C23 1_555 1_555
C11 C22 1_555 1_555
C16 C17 1_555 1_555
C18 C21 1_555 1_555
C21 C22 1_555 1_555
C29 C30 1_555 1_555
C38 C39 1_555 1_555
C1B C24B 1_555 1_555
C3B C4B 1_555 1_555
C5B C6B 1_555 1_555
C7B C8B 1_555 1_555
C9B C23B 1_555 1_555
C11B C22B 1_555 1_555
C16B C17B 1_555 1_555
C18B C21B 1_555 1_555
C19B C20B 1_555 1_555
C21B C22B 1_555 1_555
C29B C30B 1_555 1_555
C38B C39B 1_555 1_555

#END
