
#######################################################################
#
#                 Cambridge Crystallographic Data Centre
#                                CCDC 
#
#######################################################################
#
# If this CIF has been generated from an entry in the Cambridge 
# Structural Database, then it will include bibliographic, chemical, 
# crystal, experimental, refinement or atomic coordinate data resulting 
# from the CCDC's data processing and validation procedures.
#
#######################################################################

data_GILHIV
_chemical_formula_moiety         'C84 H62 N4 S6'
_chemical_name_systematic        
'12,22,37,47-tetrakis(2,4,6-trimethylphenyl)-14,17,20,39,42,45-hexathia-10,24,35,49-tetraazapentadecacyclo[46.2.1.1^8,11^.1^13,16^.1^18,21^.1^23,26^.1^33,36^.1^38,41^.1^43,46^.0^2,7^.0^9,50^.0^15,19^.0^25,34^.0^27,32^.0^40,44^]octapentaconta-1(51),2,4,6,8(58),9(50),10,12,15(19),16(57),18(56),21,23(55),25,27,29,31,33(54),34,36,38(53),40,43,46(52),47-pentacosaene unknown solvate'
_symmetry_cell_setting           triclinic
_symmetry_space_group_name_H-M   'P -1'
_symmetry_Int_Tables_number      2
_space_group_name_Hall           '-P 1'
loop_
_symmetry_equiv_pos_site_id
_symmetry_equiv_pos_as_xyz
1 x,y,z
2 -x,-y,-z
_cell_length_a                   12.841(3)
_cell_length_b                   13.475(3)
_cell_length_c                   13.870(3)
_cell_angle_alpha                90.48(3)
_cell_angle_beta                 109.93(3)
_cell_angle_gamma                96.86(3)
_cell_volume                     2236.97
_exptl_crystal_colour            purple
_exptl_crystal_description       prism
_cell_formula_units_Z            1
loop_
_atom_site_label
_atom_site_type_symbol
_atom_site_fract_x
_atom_site_fract_y
_atom_site_fract_z
S1 S 0.28648(11) 0.28759(9) -0.08939(9)
S2 S 0.24424(11) 0.07687(9) 0.12014(9)
S3 S 0.48646(11) 0.33068(9) 0.19766(9)
N1 N 0.6809(3) 0.4521(3) 0.3728(3)
H1 H 0.640471 0.458238 0.308156
N2 N 0.8030(3) 0.6487(3) 0.3138(3)
C1 C 0.1772(4) 0.1945(4) -0.1570(4)
C2 C 0.1613(4) 0.1194(4) -0.0913(4)
H2 H 0.107648 0.061458 -0.113748
C3 C 0.2313(4) 0.1388(4) 0.0081(4)
C4 C 0.3064(4) 0.2274(4) 0.0240(4)
C5 C 0.3778(4) 0.2435(4) 0.1262(4)
C6 C 0.3529(4) 0.1688(3) 0.1893(4)
C7 C 0.4142(4) 0.1849(4) 0.2908(4)
H3 H 0.404304 0.142405 0.342204
C8 C 0.4938(4) 0.2710(4) 0.3120(4)
C9 C 0.6585(4) 0.3803(3) 0.4354(4)
C10 C 0.7456(4) 0.3954(3) 0.5339(4)
H4 H 0.750912 0.356915 0.592046
C11 C 0.8202(4) 0.4758(3) 0.5288(4)
C12 C 0.9251(4) 0.5213(3) 0.6031(4)
C13 C 0.9719(4) 0.4831(4) 0.7002(4)
H5 H 0.933259 0.426625 0.719685
C14 C 1.0735(5) 0.5269(4) 0.7673(4)
H6 H 1.104314 0.500159 0.832603
C15 C 1.1313(5) 0.6094(4) 0.7408(4)
H7 H 1.201867 0.638305 0.787379
C16 C 1.0859(4) 0.6497(4) 0.6462(4)
H8 H 1.124886 0.707203 0.628758
C17 C 0.9833(4) 0.6065(3) 0.5765(4)
C18 C 0.9343(4) 0.6452(3) 0.4754(3)
C19 C 0.9663(4) 0.7282(3) 0.4306(4)
H9 H 1.030804 0.775558 0.460858
C20 C 0.8850(4) 0.7307(3) 0.3303(4)
C21 C 0.8316(4) 0.5974(3) 0.4015(4)
C22 C 0.7754(4) 0.5116(3) 0.4275(4)
C23 C 0.5700(4) 0.3015(3) 0.4096(4)
C24 C 0.5525(4) 0.2439(3) 0.4970(3)
C25 C 0.4863(4) 0.2795(4) 0.5479(4)
C26 C 0.4709(5) 0.2269(4) 0.6292(4)
H10 H 0.427432 0.251927 0.665036
C27 C 0.5166(4) 0.1399(4) 0.6593(4)
C28 C 0.5788(4) 0.1040(4) 0.6052(4)
H11 H 0.609151 0.043121 0.623685
C29 C 0.5982(4) 0.1552(4) 0.5239(4)
C30 C 0.4341(5) 0.3733(4) 0.5191(5)
H12 H 0.490097 0.431553 0.548795
H13 H 0.372355 0.373963 0.545429
H14 H 0.405463 0.375993 0.444121
C31 C 0.5017(5) 0.0853(5) 0.7492(4)
H15 H 0.440958 0.109429 0.766583
H16 H 0.571149 0.097578 0.808500
H17 H 0.483467 0.013283 0.731058
C32 C 0.6677(5) 0.1143(4) 0.4697(4)
H18 H 0.636282 0.125043 0.396168
H19 H 0.668084 0.042434 0.479888
H20 H 0.744368 0.148583 0.497555
C33 C 0.1107(4) 0.1950(3) -0.2609(4)
C34 C 0.0281(4) 0.1028(3) -0.3022(3)
C35 C -0.0770(4) 0.0923(3) -0.2910(4)
C36 C -0.1446(4) 0.0009(4) -0.3213(4)
H21 H -0.215954 -0.006691 -0.313934
C37 C -0.1118(4) -0.0797(4) -0.3618(4)
C38 C -0.0100(5) -0.0665(4) -0.3745(4)
H22 H 0.012199 -0.120081 -0.404718
C39 C 0.0627(4) 0.0234(4) -0.3446(4)
C40 C -0.1162(5) 0.1780(4) -0.2478(4)
H23 H -0.184406 0.153727 -0.233802
H24 H -0.131798 0.230184 -0.297727
H25 H -0.057932 0.205742 -0.183956
C41 C -0.1880(5) -0.1776(4) -0.3940(5)
H26 H -0.149297 -0.226635 -0.416421
H27 H -0.255684 -0.167115 -0.450825
H28 H -0.208328 -0.202449 -0.335828
C42 C 0.1736(5) 0.0333(4) -0.3589(5)
H29 H 0.169983 0.071809 -0.419372
H30 H 0.192748 -0.033368 -0.368845
H31 H 0.230790 0.068006 -0.297999
S1A S 0.71352(11) 0.71241(9) 0.08939(9)
S2A S 0.75576(11) 0.92313(9) -0.12014(9)
S3A S 0.51354(11) 0.66932(9) -0.19766(9)
N1A N 0.3191(3) 0.5479(3) -0.3728(3)
H1A H 0.359529 0.541762 -0.308156
N2A N 0.1970(3) 0.3513(3) -0.3138(3)
C1A C 0.8228(4) 0.8055(4) 0.1570(4)
C2A C 0.8387(4) 0.8806(4) 0.0913(4)
H2A H 0.892352 0.938542 0.113748
C3A C 0.7687(4) 0.8612(4) -0.0081(4)
C4A C 0.6936(4) 0.7726(4) -0.0240(4)
C5A C 0.6222(4) 0.7565(4) -0.1262(4)
C6A C 0.6471(4) 0.8312(3) -0.1893(4)
C7A C 0.5858(4) 0.8151(4) -0.2908(4)
H3A H 0.595696 0.857595 -0.342204
C8A C 0.5062(4) 0.7290(4) -0.3120(4)
C9A C 0.3415(4) 0.6197(3) -0.4354(4)
C10A C 0.2544(4) 0.6046(3) -0.5339(4)
H4A H 0.249088 0.643085 -0.592046
C11A C 0.1798(4) 0.5242(3) -0.5288(4)
C12A C 0.0749(4) 0.4787(3) -0.6031(4)
C13A C 0.0281(4) 0.5169(4) -0.7002(4)
H5A H 0.066741 0.573375 -0.719685
C14A C -0.0735(5) 0.4731(4) -0.7673(4)
H6A H -0.104314 0.499841 -0.832603
C15A C -0.1313(5) 0.3906(4) -0.7408(4)
H7A H -0.201867 0.361695 -0.787379
C16A C -0.0859(4) 0.3503(4) -0.6462(4)
H8A H -0.124886 0.292797 -0.628758
C17A C 0.0167(4) 0.3935(3) -0.5765(4)
C18A C 0.0657(4) 0.3548(3) -0.4754(3)
C19A C 0.0337(4) 0.2718(3) -0.4306(4)
H9A H -0.030804 0.224442 -0.460858
C20A C 0.1150(4) 0.2693(3) -0.3303(4)
C21A C 0.1684(4) 0.4026(3) -0.4015(4)
C22A C 0.2246(4) 0.4884(3) -0.4275(4)
C23A C 0.4300(4) 0.6985(3) -0.4096(4)
C24A C 0.4475(4) 0.7561(3) -0.4970(3)
C25A C 0.5137(4) 0.7205(4) -0.5479(4)
C26A C 0.5291(5) 0.7731(4) -0.6292(4)
H10A H 0.572568 0.748073 -0.665036
C27A C 0.4834(4) 0.8601(4) -0.6593(4)
C28A C 0.4212(4) 0.8960(4) -0.6052(4)
H11A H 0.390849 0.956879 -0.623685
C29A C 0.4018(4) 0.8448(4) -0.5239(4)
C30A C 0.5659(5) 0.6267(4) -0.5191(5)
H12A H 0.509903 0.568447 -0.548795
H13A H 0.627645 0.626037 -0.545429
H14A H 0.594537 0.624007 -0.444121
C31A C 0.4983(5) 0.9147(5) -0.7492(4)
H15A H 0.559042 0.890571 -0.766583
H16A H 0.428851 0.902422 -0.808500
H17A H 0.516533 0.986717 -0.731058
C32A C 0.3323(5) 0.8857(4) -0.4697(4)
H18A H 0.363718 0.874957 -0.396168
H19A H 0.331916 0.957566 -0.479888
H20A H 0.255632 0.851417 -0.497555
C33A C 0.8893(4) 0.8050(3) 0.2609(4)
C34A C 0.9719(4) 0.8972(3) 0.3022(3)
C35A C 1.0770(4) 0.9077(3) 0.2910(4)
C36A C 1.1446(4) 0.9991(4) 0.3213(4)
H21A H 1.215954 1.006691 0.313934
C37A C 1.1118(4) 1.0797(4) 0.3618(4)
C38A C 1.0100(5) 1.0665(4) 0.3745(4)
H22A H 0.987801 1.120081 0.404718
C39A C 0.9373(4) 0.9766(4) 0.3446(4)
C40A C 1.1162(5) 0.8220(4) 0.2478(4)
H23A H 1.184406 0.846273 0.233802
H24A H 1.131798 0.769816 0.297727
H25A H 1.057932 0.794258 0.183956
C41A C 1.1880(5) 1.1776(4) 0.3940(5)
H26A H 1.149297 1.226635 0.416421
H27A H 1.255684 1.167115 0.450825
H28A H 1.208328 1.202449 0.335828
C42A C 0.8264(5) 0.9667(4) 0.3589(5)
H29A H 0.830017 0.928191 0.419372
H30A H 0.807252 1.033368 0.368845
H31A H 0.769210 0.931994 0.297999
loop_
_geom_bond_atom_site_label_1
_geom_bond_atom_site_label_2
_geom_bond_site_symmetry_1
_geom_bond_site_symmetry_2
S1 C1 1_555 1_555
S2 C3 1_555 1_555
S3 C5 1_555 1_555
N1 H1 1_555 1_555
N2 C20 1_555 1_555
C1 C2 1_555 1_555
C2 H2 1_555 1_555
C3 C2 1_555 1_555
C4 S1 1_555 1_555
C5 C4 1_555 1_555
C6 S2 1_555 1_555
C7 C6 1_555 1_555
H3 C7 1_555 1_555
C8 S3 1_555 1_555
C9 N1 1_555 1_555
C10 C9 1_555 1_555
H4 C10 1_555 1_555
C11 C10 1_555 1_555
C12 C11 1_555 1_555
C13 C12 1_555 1_555
H5 C13 1_555 1_555
C14 C13 1_555 1_555
H6 C14 1_555 1_555
C15 C14 1_555 1_555
H7 C15 1_555 1_555
C16 C15 1_555 1_555
H8 C16 1_555 1_555
C17 C12 1_555 1_555
C18 C17 1_555 1_555
C19 C18 1_555 1_555
H9 C19 1_555 1_555
C20 C19 1_555 1_555
C21 N2 1_555 1_555
C22 N1 1_555 1_555
C23 C8 1_555 1_555
C24 C23 1_555 1_555
C25 C24 1_555 1_555
C26 C25 1_555 1_555
H10 C26 1_555 1_555
C27 C26 1_555 1_555
C28 C27 1_555 1_555
H11 C28 1_555 1_555
C29 C24 1_555 1_555
C30 C25 1_555 1_555
H12 C30 1_555 1_555
H13 C30 1_555 1_555
H14 C30 1_555 1_555
C31 C27 1_555 1_555
H15 C31 1_555 1_555
H16 C31 1_555 1_555
H17 C31 1_555 1_555
C32 C29 1_555 1_555
H18 C32 1_555 1_555
H19 C32 1_555 1_555
H20 C32 1_555 1_555
C33 C1 1_555 1_555
C34 C33 1_555 1_555
C35 C34 1_555 1_555
C36 C35 1_555 1_555
H21 C36 1_555 1_555
C37 C36 1_555 1_555
C38 C37 1_555 1_555
H22 C38 1_555 1_555
C39 C34 1_555 1_555
C40 C35 1_555 1_555
H23 C40 1_555 1_555
H24 C40 1_555 1_555
H25 C40 1_555 1_555
C41 C37 1_555 1_555
H26 C41 1_555 1_555
H27 C41 1_555 1_555
H28 C41 1_555 1_555
C42 C39 1_555 1_555
H29 C42 1_555 1_555
H30 C42 1_555 1_555
H31 C42 1_555 1_555
S1A C1A 1_555 1_555
S2A C3A 1_555 1_555
S3A C5A 1_555 1_555
N1A H1A 1_555 1_555
N2A C20A 1_555 1_555
C1A C2A 1_555 1_555
C2A H2A 1_555 1_555
C3A C2A 1_555 1_555
C4A S1A 1_555 1_555
C5A C4A 1_555 1_555
C6A S2A 1_555 1_555
C7A C6A 1_555 1_555
H3A C7A 1_555 1_555
C8A S3A 1_555 1_555
C9A N1A 1_555 1_555
C10A C9A 1_555 1_555
H4A C10A 1_555 1_555
C11A C10A 1_555 1_555
C12A C11A 1_555 1_555
C13A C12A 1_555 1_555
H5A C13A 1_555 1_555
C14A C13A 1_555 1_555
H6A C14A 1_555 1_555
C15A C14A 1_555 1_555
H7A C15A 1_555 1_555
C16A C15A 1_555 1_555
H8A C16A 1_555 1_555
C17A C12A 1_555 1_555
C18A C17A 1_555 1_555
C19A C18A 1_555 1_555
H9A C19A 1_555 1_555
C20A C33 1_555 1_555
C21A N2A 1_555 1_555
C22A N1A 1_555 1_555
C23A C8A 1_555 1_555
C24A C23A 1_555 1_555
C25A C24A 1_555 1_555
C26A C25A 1_555 1_555
H10A C26A 1_555 1_555
C27A C26A 1_555 1_555
C28A C27A 1_555 1_555
H11A C28A 1_555 1_555
C29A C24A 1_555 1_555
C30A C25A 1_555 1_555
H12A C30A 1_555 1_555
H13A C30A 1_555 1_555
H14A C30A 1_555 1_555
C31A C27A 1_555 1_555
H15A C31A 1_555 1_555
H16A C31A 1_555 1_555
H17A C31A 1_555 1_555
C32A C29A 1_555 1_555
H18A C32A 1_555 1_555
H19A C32A 1_555 1_555
H20A C32A 1_555 1_555
C33A C20 1_555 1_555
C34A C33A 1_555 1_555
C35A C34A 1_555 1_555
C36A C35A 1_555 1_555
H21A C36A 1_555 1_555
C37A C36A 1_555 1_555
C38A C37A 1_555 1_555
H22A C38A 1_555 1_555
C39A C34A 1_555 1_555
C40A C35A 1_555 1_555
H23A C40A 1_555 1_555
H24A C40A 1_555 1_555
H25A C40A 1_555 1_555
C41A C37A 1_555 1_555
H26A C41A 1_555 1_555
H27A C41A 1_555 1_555
H28A C41A 1_555 1_555
C42A C39A 1_555 1_555
H29A C42A 1_555 1_555
H30A C42A 1_555 1_555
H31A C42A 1_555 1_555
C3 C4 1_555 1_555
C5 C6 1_555 1_555
C7 C8 1_555 1_555
C9 C23 1_555 1_555
C11 C22 1_555 1_555
C16 C17 1_555 1_555
C18 C21 1_555 1_555
C21 C22 1_555 1_555
C28 C29 1_555 1_555
C38 C39 1_555 1_555
C1A C33A 1_555 1_555
C3A C4A 1_555 1_555
C5A C6A 1_555 1_555
C7A C8A 1_555 1_555
C9A C23A 1_555 1_555
C11A C22A 1_555 1_555
C16A C17A 1_555 1_555
C18A C21A 1_555 1_555
C19A C20A 1_555 1_555
C21A C22A 1_555 1_555
C28A C29A 1_555 1_555
C38A C39A 1_555 1_555

#END
