
#######################################################################
#
#                 Cambridge Crystallographic Data Centre
#                                CCDC 
#
#######################################################################
#
# If this CIF has been generated from an entry in the Cambridge 
# Structural Database, then it will include bibliographic, chemical, 
# crystal, experimental, refinement or atomic coordinate data resulting 
# from the CCDC's data processing and validation procedures.
#
#######################################################################

data_GILMEV
_chemical_formula_moiety         'C43 H41 N4 O4 S2 1+,Cl1 O4 1-,1.75(H2 O1)'
_chemical_name_systematic        
'3-(6-(1,3-Dioxo-1,3-dihydro-2H-isoindol-2-yl)hexyl)-2-((3-(6-(1,3-dioxo-1,3-dihydro-2H-isoindol-2-yl)hexyl)-1,3-benzothiazol-2(3H)-ylidene)methyl)-1,3-benzothiazol-3-ium perchlorate hydrate'
_symmetry_cell_setting           monoclinic
_symmetry_space_group_name_H-M   'C 2/c'
_symmetry_Int_Tables_number      15
_space_group_name_Hall           '-C 2yn'
loop_
_symmetry_equiv_pos_site_id
_symmetry_equiv_pos_as_xyz
1 x,y,z
2 -x,y,1/2-z
3 1/2+x,1/2+y,z
4 1/2-x,1/2+y,1/2-z
5 -x,-y,-z
6 x,-y,1/2+z
7 1/2-x,1/2-y,-z
8 1/2+x,1/2-y,1/2+z
_cell_length_a                   20.486(3)
_cell_length_b                   18.008(3)
_cell_length_c                   22.511(3)
_cell_angle_alpha                90
_cell_angle_beta                 96.954(2)
_cell_angle_gamma                90
_cell_volume                     8243.48
_exptl_crystal_colour            red
_exptl_crystal_description       block
_cell_formula_units_Z            8
loop_
_atom_site_label
_atom_site_type_symbol
_atom_site_fract_x
_atom_site_fract_y
_atom_site_fract_z
Cl1 Cl 0.42951(9) 0.84295(11) 0.13177(12)
O1 O 0.4827(5) 0.8570(6) 0.1055(5)
O2 O 0.3934(8) 0.9007(8) 0.1532(6)
O3 O 0.4673(5) 0.8259(6) 0.2022(4)
O4 O 0.3985(8) 0.7727(8) 0.1261(7)
S1 S 0.17076(6) 0.71591(7) 0.45412(5)
S2 S 0.23951(6) 0.84774(7) 0.40692(5)
O17 O 0.33128(19) 0.1712(2) 0.24783(17)
O18 O 0.4433(2) 0.3657(2) 0.17740(19)
O19 O 0.3491(2) 0.4668(3) 0.0480(2)
O20 O 0.5595(2) 0.5261(3) 0.1236(2)
N1 N 0.22448(18) 0.5942(2) 0.42751(17)
N2 N 0.3331(2) 0.8050(3) 0.34901(18)
N3 N 0.3787(2) 0.2805(2) 0.22053(18)
N4 N 0.4483(2) 0.5101(3) 0.0954(2)
C1 C 0.1385(2) 0.6330(3) 0.4774(2)
C2 C 0.0864(2) 0.6242(3) 0.5114(2)
H1 H 0.0637 0.6658 0.5247
C3 C 0.0693(3) 0.5520(3) 0.5250(2)
H2 H 0.0348 0.5438 0.5490
C4 C 0.1016(3) 0.4924(3) 0.5042(2)
H3 H 0.0877 0.4437 0.5130
C5 C 0.1537(2) 0.5006(3) 0.4709(2)
H4 H 0.1758 0.4588 0.4570
C6 C 0.1721(2) 0.5730(3) 0.45868(19)
C7 C 0.2305(2) 0.6683(3) 0.4206(2)
C8 C 0.2779(2) 0.7012(3) 0.3897(2)
H5 H 0.3076 0.6686 0.3734
C9 C 0.2862(2) 0.7766(3) 0.3805(2)
C10 C 0.3311(2) 0.8823(3) 0.3428(2)
C11 C 0.3710(3) 0.9258(4) 0.3103(2)
H6 H 0.4037 0.9040 0.2893
C12 C 0.3611(3) 1.0011(3) 0.3102(2)
H7 H 0.3874 1.0318 0.2883
C13 C 0.3139(3) 1.0338(3) 0.3411(2)
H8 H 0.3085 1.0862 0.3398
C14 C 0.2750(3) 0.9914(3) 0.3734(2)
H9 H 0.2434 1.0136 0.3954
C15 C 0.2834(2) 0.9152(3) 0.3727(2)
C16 C 0.2668(2) 0.5389(3) 0.4027(2)
H10 H 0.2702 0.4940 0.4283
H11 H 0.3116 0.5596 0.4027
C17 C 0.2394(2) 0.5175(3) 0.3391(2)
H12 H 0.2312 0.5631 0.3148
H13 H 0.1968 0.4918 0.3399
C18 C 0.2863(3) 0.4666(3) 0.3096(2)
H14 H 0.2718 0.4647 0.2660
H15 H 0.3309 0.4886 0.3153
C19 C 0.2900(3) 0.3883(3) 0.3338(2)
H16 H 0.2474 0.3632 0.3221
H17 H 0.2973 0.3903 0.3781
C20 C 0.3449(3) 0.3425(3) 0.3113(2)
H18 H 0.3478 0.2936 0.3315
H19 H 0.3874 0.3684 0.3213
C21 C 0.3319(3) 0.3312(3) 0.2434(2)
H20 H 0.2869 0.3114 0.2332
H21 H 0.3340 0.3799 0.2234
C22 C 0.3725(3) 0.2031(3) 0.2231(2)
C23 C 0.4253(2) 0.1727(3) 0.1896(2)
C24 C 0.4393(3) 0.1006(3) 0.1760(2)
H22 H 0.4154 0.0601 0.1896
C25 C 0.4902(3) 0.0900(4) 0.1413(3)
H23 H 0.5017 0.0408 0.1313
C26 C 0.5243(3) 0.1483(4) 0.1213(3)
H24 H 0.5592 0.1387 0.0982
C27 C 0.5090(3) 0.2208(4) 0.1340(2)
H25 H 0.5319 0.2613 0.1192
C28 C 0.4591(2) 0.2322(3) 0.1690(2)
C29 C 0.4293(2) 0.3022(3) 0.1877(2)
C30 C 0.3802(3) 0.7566(3) 0.3225(3)
H26 H 0.3951 0.7164 0.3510
H27 H 0.4192 0.7860 0.3149
C31 C 0.3494(3) 0.7237(4) 0.2657(3)
H28 H 0.3448 0.7620 0.2339
H29 H 0.3050 0.7048 0.2707
C32 C 0.3932(4) 0.6591(4) 0.2478(3)
H30 H 0.4292 0.6792 0.2268
H31 H 0.4131 0.6328 0.2841
C33 C 0.3538(4) 0.6077(4) 0.2088(4)
H32 H 0.3305 0.6356 0.1748
H33 H 0.3203 0.5849 0.2313
C34 C 0.3956(4) 0.5451(4) 0.1842(4)
H34 H 0.4318 0.5307 0.2152
H35 H 0.3676 0.5009 0.1743
C35 C 0.4239(3) 0.5710(4) 0.1290(3)
H36 H 0.3895 0.5981 0.1028
H37 H 0.4603 0.6061 0.1409
C36 C 0.4089(3) 0.4620(4) 0.0577(3)
C37 C 0.4538(3) 0.4098(3) 0.0329(2)
C38 C 0.4403(3) 0.3525(3) -0.0073(3)
H38 H 0.3964 0.3398 -0.0224
C39 C 0.4935(4) 0.3144(4) -0.0247(3)
H39 H 0.4863 0.2749 -0.0528
C40 C 0.5566(3) 0.3330(4) -0.0017(3)
H40 H 0.5923 0.3052 -0.0136
C41 C 0.5697(3) 0.3904(4) 0.0377(3)
H41 H 0.6136 0.4035 0.0525
C42 C 0.5170(3) 0.4285(3) 0.0552(2)
C43 C 0.5149(3) 0.4920(4) 0.0958(3)
O21 O 0.2272(2) 0.6931(3) 0.0005(3)
O5? O 0.4145(9) 0.8337(9) 0.0570(5)
O6? O 0.4463(7) 0.7675(6) 0.1445(6)
O7? O 0.3687(6) 0.8647(8) 0.1414(6)
O8? O 0.4812(8) 0.8930(11) 0.1315(10)
O9? O 0.4588(11) 0.8413(12) 0.0785(8)
O10? O 0.4612(10) 0.7909(12) 0.1744(10)
O11? O 0.4402(14) 0.9193(9) 0.1580(11)
O12? O 0.3614(6) 0.8306(13) 0.1217(10)
O13? O 0.3800(15) 0.8310(19) 0.0785(13)
O14? O 0.4819(13) 0.7943(18) 0.1314(17)
O15? O 0.4492(18) 0.9206(10) 0.1299(17)
O16? O 0.3941(19) 0.834(2) 0.1830(13)
O22? O 0.2770(5) 0.6344(6) -0.0058(5)
O23? O 0.2464(13) 0.7337(11) 0.0665(12)
O24? O 0.2662(14) 0.7162(18) 0.0348(13)
loop_
_geom_bond_atom_site_label_1
_geom_bond_atom_site_label_2
_geom_bond_site_symmetry_1
_geom_bond_site_symmetry_2
Cl1 O1 1_555 1_555
O2 Cl1 1_555 1_555
O3 Cl1 1_555 1_555
O4 Cl1 1_555 1_555
S1 C1 1_555 1_555
S2 C9 1_555 1_555
O17 C22 1_555 1_555
O18 C29 1_555 1_555
O19 C36 1_555 1_555
O20 C43 1_555 1_555
N1 C6 1_555 1_555
N2 C9 1_555 1_555
N3 C21 1_555 1_555
N4 C35 1_555 1_555
C1 C2 1_555 1_555
C2 H1 1_555 1_555
C3 C2 1_555 1_555
H2 C3 1_555 1_555
C4 C3 1_555 1_555
H3 C4 1_555 1_555
C5 C4 1_555 1_555
H4 C5 1_555 1_555
C6 C1 1_555 1_555
C7 S1 1_555 1_555
C8 C7 1_555 1_555
H5 C8 1_555 1_555
C9 C8 1_555 1_555
C10 N2 1_555 1_555
C11 C10 1_555 1_555
H6 C11 1_555 1_555
C12 C11 1_555 1_555
H7 C12 1_555 1_555
C13 C12 1_555 1_555
H8 C13 1_555 1_555
C14 C13 1_555 1_555
H9 C14 1_555 1_555
C15 S2 1_555 1_555
C16 N1 1_555 1_555
H10 C16 1_555 1_555
H11 C16 1_555 1_555
C17 C16 1_555 1_555
H12 C17 1_555 1_555
H13 C17 1_555 1_555
C18 C17 1_555 1_555
H14 C18 1_555 1_555
H15 C18 1_555 1_555
C19 C18 1_555 1_555
H16 C19 1_555 1_555
H17 C19 1_555 1_555
C20 C19 1_555 1_555
H18 C20 1_555 1_555
H19 C20 1_555 1_555
C21 C20 1_555 1_555
H20 C21 1_555 1_555
H21 C21 1_555 1_555
C22 N3 1_555 1_555
C23 C22 1_555 1_555
C24 C23 1_555 1_555
H22 C24 1_555 1_555
C25 C24 1_555 1_555
H23 C25 1_555 1_555
C26 C25 1_555 1_555
H24 C26 1_555 1_555
C27 C26 1_555 1_555
H25 C27 1_555 1_555
C28 C23 1_555 1_555
C29 N3 1_555 1_555
C30 N2 1_555 1_555
H26 C30 1_555 1_555
H27 C30 1_555 1_555
C31 C30 1_555 1_555
H28 C31 1_555 1_555
H29 C31 1_555 1_555
C32 C31 1_555 1_555
H30 C32 1_555 1_555
H31 C32 1_555 1_555
C33 C32 1_555 1_555
H32 C33 1_555 1_555
H33 C33 1_555 1_555
C34 C33 1_555 1_555
H34 C34 1_555 1_555
H35 C34 1_555 1_555
C35 C34 1_555 1_555
H36 C35 1_555 1_555
H37 C35 1_555 1_555
C36 N4 1_555 1_555
C37 C36 1_555 1_555
C38 C37 1_555 1_555
H38 C38 1_555 1_555
C39 C38 1_555 1_555
H39 C39 1_555 1_555
C40 C39 1_555 1_555
H40 C40 1_555 1_555
C41 C40 1_555 1_555
H41 C41 1_555 1_555
C42 C37 1_555 1_555
C43 N4 1_555 1_555
N1 C7 1_555 1_555
C5 C6 1_555 1_555
C10 C15 1_555 1_555
C14 C15 1_555 1_555
C27 C28 1_555 1_555
C28 C29 1_555 1_555
C41 C42 1_555 1_555
C42 C43 1_555 1_555

#END
