
#######################################################################
#
#                 Cambridge Crystallographic Data Centre
#                                CCDC 
#
#######################################################################
#
# If this CIF has been generated from an entry in the Cambridge 
# Structural Database, then it will include bibliographic, chemical, 
# crystal, experimental, refinement or atomic coordinate data resulting 
# from the CCDC's data processing and validation procedures.
#
#######################################################################

data_GILPUO
_chemical_formula_moiety         'C21 H13 Cl2 N1 O2'
_chemical_name_systematic        
4-(bis(4-Chlorophenyl)methyl)-1H-2,3-benzoxazin-1-one
_symmetry_cell_setting           monoclinic
_symmetry_space_group_name_H-M   'P 21/n'
_symmetry_Int_Tables_number      14
_space_group_name_Hall           '-P 2yn'
loop_
_symmetry_equiv_pos_site_id
_symmetry_equiv_pos_as_xyz
1 x,y,z
2 1/2-x,1/2+y,1/2-z
3 -x,-y,-z
4 1/2+x,1/2-y,1/2+z
_cell_length_a                   7.9375(4)
_cell_length_b                   27.1570(12)
_cell_length_c                   9.3464(4)
_cell_angle_alpha                90
_cell_angle_beta                 113.827(2)
_cell_angle_gamma                90
_cell_volume                     1842.98
_exptl_crystal_colour            white
_exptl_crystal_description       needle
_cell_formula_units_Z            4
loop_
_atom_site_label
_atom_site_type_symbol
_atom_site_fract_x
_atom_site_fract_y
_atom_site_fract_z
Cl1 Cl 0.66194(12) 0.56802(3) 0.99438(10)
Cl2 Cl 1.10767(11) 0.39669(5) 0.27171(10)
O1 O 0.8737(3) 0.21111(8) 0.9806(3)
O2 O 0.9089(2) 0.27236(6) 0.8459(2)
N1 N 0.8479(3) 0.31601(7) 0.7547(2)
C1 C 0.3766(4) 0.27224(11) 0.9663(3)
H1 H 0.3078 0.2581 1.0160
C2 C 0.3152(3) 0.31478(9) 0.8785(3)
H2 H 0.2041 0.3288 0.8684
C3 C 0.4164(3) 0.33641(8) 0.8062(3)
H3 H 0.3744 0.3651 0.7486
C4 C 0.5817(3) 0.31533(7) 0.8192(2)
C5 C 0.6955(3) 0.33497(7) 0.7425(2)
C6 C 0.6381(3) 0.38068(7) 0.6411(2)
H4 H 0.5101 0.3756 0.5674
C7 C 0.6403(3) 0.42654(7) 0.7358(2)
C8 C 0.5182(3) 0.46454(8) 0.6666(3)
H5 H 0.4312 0.4608 0.5645
C9 C 0.5225(3) 0.50768(8) 0.7451(3)
H6 H 0.4390 0.5328 0.6970
C10 C 0.6522(3) 0.51322(8) 0.8962(3)
C11 C 0.9662(4) 0.39403(12) 0.3735(3)
C12 C 0.8112(4) 0.36544(11) 0.3197(3)
H7 H 0.7781 0.3483 0.2262
C13 C 0.7035(4) 0.36208(10) 0.4049(3)
H8 H 0.5982 0.3426 0.3680
C14 C 0.7508(3) 0.38732(8) 0.5437(3)
C15 C 0.7733(4) 0.47613(9) 0.9683(3)
H9 H 0.8593 0.4800 1.0707
C16 C 0.7674(3) 0.43290(8) 0.8882(3)
H10 H 0.8500 0.4077 0.9375
C17 C 0.5378(4) 0.25121(10) 0.9796(3)
H11 H 0.5789 0.2226 1.0380
C18 C 0.6411(3) 0.27232(8) 0.9064(3)
C19 C 0.8102(4) 0.24916(9) 0.9161(3)
C20 C 0.9050(4) 0.41722(11) 0.5921(3)
H12 H 0.9370 0.4355 0.6835
C21 C 1.0115(4) 0.42039(13) 0.5076(4)
H13 H 1.1149 0.4406 0.5422
loop_
_geom_bond_atom_site_label_1
_geom_bond_atom_site_label_2
_geom_bond_site_symmetry_1
_geom_bond_site_symmetry_2
Cl1 C10 1_555 1_555
Cl2 C11 1_555 1_555
O1 C19 1_555 1_555
O2 N1 1_555 1_555
N1 C5 1_555 1_555
C1 H1 1_555 1_555
C2 C1 1_555 1_555
H2 C2 1_555 1_555
C3 C2 1_555 1_555
H3 C3 1_555 1_555
C4 C3 1_555 1_555
C5 C4 1_555 1_555
C6 C5 1_555 1_555
H4 C6 1_555 1_555
C7 C6 1_555 1_555
C8 C7 1_555 1_555
H5 C8 1_555 1_555
C9 C8 1_555 1_555
H6 C9 1_555 1_555
C10 C9 1_555 1_555
C11 C12 1_555 1_555
C12 H7 1_555 1_555
C13 C12 1_555 1_555
H8 C13 1_555 1_555
C14 C6 1_555 1_555
C15 C10 1_555 1_555
H9 C15 1_555 1_555
C16 C7 1_555 1_555
H10 C16 1_555 1_555
C17 C1 1_555 1_555
H11 C17 1_555 1_555
C18 C4 1_555 1_555
C19 O2 1_555 1_555
C20 C14 1_555 1_555
H12 C20 1_555 1_555
C21 C11 1_555 1_555
H13 C21 1_555 1_555
C13 C14 1_555 1_555
C15 C16 1_555 1_555
C17 C18 1_555 1_555
C18 C19 1_555 1_555
C20 C21 1_555 1_555

#END
