
#######################################################################
#
#                 Cambridge Crystallographic Data Centre
#                                CCDC 
#
#######################################################################
#
# If this CIF has been generated from an entry in the Cambridge 
# Structural Database, then it will include bibliographic, chemical, 
# crystal, experimental, refinement or atomic coordinate data resulting 
# from the CCDC's data processing and validation procedures.
#
#######################################################################

data_GILXIJ
_chemical_formula_moiety         'C24 H29 N1 O4'
_chemical_name_systematic        
2-(4-(di-n-butylamino)phenyl)-3-hydroxy-7-methoxy-4H-chromen-4-one
_symmetry_cell_setting           monoclinic
_symmetry_space_group_name_H-M   'P 21/n'
_symmetry_Int_Tables_number      14
_space_group_name_Hall           '-P 2yn'
loop_
_symmetry_equiv_pos_site_id
_symmetry_equiv_pos_as_xyz
1 x,y,z
2 1/2-x,1/2+y,1/2-z
3 -x,-y,-z
4 1/2+x,1/2-y,1/2+z
_cell_length_a                   15.7075(17)
_cell_length_b                   15.3951(14)
_cell_length_c                   18.458(2)
_cell_angle_alpha                90
_cell_angle_beta                 105.633(9)
_cell_angle_gamma                90
_cell_volume                     4298.37
_exptl_crystal_colour            brown
_exptl_crystal_description       prism
_chemical_melting_point          '147-149 deg.C'
_cell_formula_units_Z            8
_exptl_crystal_preparation       fluorescent
loop_
_atom_site_label
_atom_site_type_symbol
_atom_site_fract_x
_atom_site_fract_y
_atom_site_fract_z
C1 C 0.6049(2) 0.2468(2) 0.45229(19)
C4 C 0.5767(2) 0.2883(2) 0.38531(19)
C5 C 0.5742(3) 0.3820(2) 0.3797(2)
C8 C 0.5997(3) 0.5194(2) 0.4554(2)
H2 H 0.5848 0.5522 0.4114
C10 C 0.6198(3) 0.5605(3) 0.5226(2)
H4 H 0.6191 0.6209 0.5246
C12 C 0.6414(2) 0.5124(2) 0.5888(2)
C13 C 0.6461(2) 0.4234(2) 0.5867(2)
H5 H 0.6626 0.3912 0.631
C16 C 0.6257(2) 0.3825(2) 0.51711(19)
C18 C 0.6008(2) 0.4282(2) 0.4502(2)
C20 C 0.6623(3) 0.5160(3) 0.7221(2)
H10 H 0.6737 0.5574 0.7625
H11 H 0.7093 0.4742 0.7313
H12 H 0.6073 0.4869 0.719
C22 C 0.6140(2) 0.1539(2) 0.46612(18)
C23 C 0.5628(2) 0.0943(2) 0.41657(19)
H13 H 0.5234 0.1145 0.3728
C26 C 0.5685(2) 0.0069(2) 0.42999(18)
H16 H 0.5322 -0.0303 0.3954
C28 C 0.6274(2) -0.0284(2) 0.49428(19)
C30 C 0.6797(2) 0.0315(2) 0.54431(18)
H18 H 0.7202 0.0114 0.5876
C32 C 0.6723(2) 0.1194(2) 0.53064(18)
H20 H 0.7074 0.1572 0.5655
C33 C 0.5660(2) -0.1743(2) 0.4602(2)
H21 H 0.51 -0.1435 0.4462
H22 H 0.5591 -0.2236 0.4908
C35 C 0.5853(3) -0.2076(3) 0.3899(2)
H25 H 0.6382 -0.2432 0.4035
H26 H 0.5968 -0.1588 0.3606
C37 C 0.5099(3) -0.2607(3) 0.3421(2)
H29 H 0.4969 -0.3076 0.3726
H30 H 0.4579 -0.2241 0.3274
C39 C 0.5264(4) -0.2985(4) 0.2735(3)
H33 H 0.4754 -0.331 0.2467
H34 H 0.5768 -0.3363 0.2872
H35 H 0.5375 -0.2527 0.2419
C42 C 0.7010(2) -0.1567(2) 0.56588(19)
H41 H 0.753 -0.1198 0.5772
H42 H 0.7173 -0.2119 0.5481
C43 C 0.6740(2) -0.1719(2) 0.63745(19)
H43 H 0.6195 -0.205 0.6257
H44 H 0.6625 -0.1163 0.6576
C46 C 0.7435(3) -0.2200(3) 0.6970(2)
H49 H 0.7573 -0.2741 0.6758
H50 H 0.797 -0.1853 0.7106
C47 C 0.7152(3) -0.2397(3) 0.7672(2)
H51 H 0.7618 -0.27 0.8025
H52 H 0.663 -0.2752 0.7545
H53 H 0.7027 -0.1863 0.7893
N1 N 0.63274(19) -0.11663(18) 0.50577(16)
O1 O 0.62992(15) 0.29389(14) 0.51819(12)
O3 O 0.5525(2) 0.24158(17) 0.32072(15)
O5 O 0.55154(19) 0.41902(17) 0.31760(14)
O7 O 0.6570(2) 0.55984(16) 0.65311(16)
H58 H 0.526(3) 0.274(3) 0.275(3)
C2 C 0.9096(2) 0.0448(2) 0.54183(19)
C3 C 0.9475(2) 0.0848(2) 0.60829(19)
C6 C 0.9445(3) 0.1774(2) 0.6172(2)
C7 C 0.8848(3) 0.3153(2) 0.5518(2)
H1 H 0.9063 0.3461 0.5963
C9 C 0.8425(3) 0.3584(3) 0.4885(2)
H3 H 0.8344 0.4181 0.4901
C11 C 0.8110(3) 0.3135(3) 0.4206(2)
C14 C 0.8200(2) 0.2248(2) 0.4186(2)
H6 H 0.7985 0.1943 0.374
C15 C 0.8619(2) 0.1819(2) 0.48472(19)
C17 C 0.8968(2) 0.2250(2) 0.5517(2)
C19 C 0.7426(3) 0.3239(3) 0.2886(2)
H7 H 0.7166 0.3672 0.2518
H8 H 0.6993 0.2803 0.2899
H9 H 0.7918 0.2975 0.2755
C21 C 0.9045(2) -0.0485(2) 0.52482(18)
C24 C 0.9492(2) -0.1102(2) 0.57537(19)
H14 H 0.9849 -0.0921 0.6217
C25 C 0.9426(2) -0.1971(2) 0.5594(2)
H15 H 0.9743 -0.2362 0.595
C27 C 0.8900(2) -0.2285(2) 0.4916(2)
C29 C 0.8469(3) -0.1665(2) 0.4398(2)
H17 H 0.8128 -0.1847 0.3929
C31 C 0.8531(2) -0.0792(2) 0.45579(19)
H19 H 0.8226 -0.0398 0.4199
C34 C 0.9293(3) -0.3792(2) 0.5313(2)
H23 H 0.9883 -0.3569 0.5536
H24 H 0.9351 -0.4324 0.505
C36 C 0.8868(3) -0.4003(3) 0.5937(2)
H27 H 0.8315 -0.4305 0.5726
H28 H 0.8737 -0.3466 0.616
C38 C 0.9462(3) -0.4561(3) 0.6541(3)
H31 H 0.9622 -0.5079 0.6308
H32 H 1.0002 -0.4243 0.6766
C40 C 0.9060(4) -0.4829(4) 0.7145(3)
H36 H 0.9472 -0.5178 0.7506
H37 H 0.8534 -0.5159 0.6931
H38 H 0.8911 -0.4322 0.7388
C41 C 0.8140(3) -0.3539(3) 0.4135(3)
H39 H 0.7883 -0.4046 0.4306
H40 H 0.7671 -0.3118 0.3958
C44 C 0.8478(4) -0.3783(3) 0.3525(2)
H45 H 0.8952 -0.4199 0.3703
H46 H 0.8726 -0.3275 0.3348
C45 C 0.7766(3) -0.4190(3) 0.2856(2)
H47 H 0.7466 -0.4655 0.3042
H48 H 0.7329 -0.3752 0.2635
C48 C 0.8149(4) -0.4533(4) 0.2277(3)
H54 H 0.7689 -0.4777 0.1876
H55 H 0.8573 -0.4976 0.2491
H56 H 0.8436 -0.4073 0.2083
N2 N 0.8809(2) -0.3167(2) 0.47742(18)
O2 O 0.86813(15) 0.09386(15) 0.48009(12)
O4 O 0.9908(2) 0.03742(18) 0.66949(14)
O6 O 0.9811(2) 0.21217(17) 0.67822(14)
O8 O 0.77233(19) 0.36358(17) 0.36063(16)
H57 H 1.006(3) 0.076(3) 0.710(2)
loop_
_geom_bond_atom_site_label_1
_geom_bond_atom_site_label_2
_geom_bond_site_symmetry_1
_geom_bond_site_symmetry_2
C1 C4 1_555 1_555
C2 C3 1_555 1_555
C3 C6 1_555 1_555
C4 C5 1_555 1_555
C5 C18 1_555 1_555
C6 C17 1_555 1_555
C7 H1 1_555 1_555
C8 H2 1_555 1_555
C9 C7 1_555 1_555
H3 C9 1_555 1_555
C10 C8 1_555 1_555
H4 C10 1_555 1_555
C11 C9 1_555 1_555
C12 C10 1_555 1_555
C13 C12 1_555 1_555
H5 C13 1_555 1_555
C14 C11 1_555 1_555
H6 C14 1_555 1_555
C15 C14 1_555 1_555
C16 C13 1_555 1_555
C17 C7 1_555 1_555
C18 C8 1_555 1_555
C19 H7 1_555 1_555
H8 C19 1_555 1_555
H9 C19 1_555 1_555
C20 H10 1_555 1_555
H11 C20 1_555 1_555
H12 C20 1_555 1_555
C21 C2 1_555 1_555
C22 C1 1_555 1_555
C23 C22 1_555 1_555
H13 C23 1_555 1_555
C24 C21 1_555 1_555
H14 C24 1_555 1_555
C25 C24 1_555 1_555
H15 C25 1_555 1_555
C26 C23 1_555 1_555
H16 C26 1_555 1_555
C27 C25 1_555 1_555
C28 C26 1_555 1_555
C29 C27 1_555 1_555
H17 C29 1_555 1_555
C30 C28 1_555 1_555
H18 C30 1_555 1_555
C31 C21 1_555 1_555
H19 C31 1_555 1_555
C32 C22 1_555 1_555
H20 C32 1_555 1_555
C33 H21 1_555 1_555
H22 C33 1_555 1_555
C34 H23 1_555 1_555
H24 C34 1_555 1_555
C35 C33 1_555 1_555
H25 C35 1_555 1_555
H26 C35 1_555 1_555
C36 C34 1_555 1_555
H27 C36 1_555 1_555
H28 C36 1_555 1_555
C37 C35 1_555 1_555
H29 C37 1_555 1_555
H30 C37 1_555 1_555
C38 C36 1_555 1_555
H31 C38 1_555 1_555
H32 C38 1_555 1_555
C39 C37 1_555 1_555
H33 C39 1_555 1_555
H34 C39 1_555 1_555
H35 C39 1_555 1_555
C40 C38 1_555 1_555
H36 C40 1_555 1_555
H37 C40 1_555 1_555
H38 C40 1_555 1_555
C41 H39 1_555 1_555
H40 C41 1_555 1_555
C42 H41 1_555 1_555
H42 C42 1_555 1_555
C43 C42 1_555 1_555
H43 C43 1_555 1_555
H44 C43 1_555 1_555
C44 C41 1_555 1_555
H45 C44 1_555 1_555
H46 C44 1_555 1_555
C45 C44 1_555 1_555
H47 C45 1_555 1_555
H48 C45 1_555 1_555
C46 C43 1_555 1_555
H49 C46 1_555 1_555
H50 C46 1_555 1_555
C47 C46 1_555 1_555
H51 C47 1_555 1_555
H52 C47 1_555 1_555
H53 C47 1_555 1_555
C48 C45 1_555 1_555
H54 C48 1_555 1_555
H55 C48 1_555 1_555
H56 C48 1_555 1_555
N1 C28 1_555 1_555
N2 C27 1_555 1_555
O1 C1 1_555 1_555
O2 C2 1_555 1_555
O3 C4 1_555 1_555
O4 C3 1_555 1_555
O5 C5 1_555 1_555
O6 C6 1_555 1_555
O7 C12 1_555 1_555
O8 C11 1_555 1_555
H57 O4 1_555 1_555
H58 O3 1_555 1_555
C15 C17 1_555 1_555
C15 O2 1_555 1_555
C16 C18 1_555 1_555
C16 O1 1_555 1_555
C19 O8 1_555 1_555
C20 O7 1_555 1_555
C29 C31 1_555 1_555
C30 C32 1_555 1_555
C33 N1 1_555 1_555
C34 N2 1_555 1_555
C41 N2 1_555 1_555
C42 N1 1_555 1_555

#END
