
#######################################################################
#
#                 Cambridge Crystallographic Data Centre
#                                CCDC 
#
#######################################################################
#
# If this CIF has been generated from an entry in the Cambridge 
# Structural Database, then it will include bibliographic, chemical, 
# crystal, experimental, refinement or atomic coordinate data resulting 
# from the CCDC's data processing and validation procedures.
#
#######################################################################

data_GILYOQ
_chemical_formula_moiety         'C49 H32 N2'
_chemical_name_systematic        9,9-bis(4-(9H-carbazol-9-yl)phenyl)fluorene
_symmetry_cell_setting           monoclinic
_symmetry_space_group_name_H-M   'C c'
_symmetry_Int_Tables_number      9
_space_group_name_Hall           'C -2yc'
loop_
_symmetry_equiv_pos_site_id
_symmetry_equiv_pos_as_xyz
1 x,y,z
2 x,-y,1/2+z
3 1/2+x,1/2+y,z
4 1/2+x,1/2-y,1/2+z
_cell_length_a                   22.062(3)
_cell_length_b                   13.0607(16)
_cell_length_c                   15.9859(18)
_cell_angle_alpha                90
_cell_angle_beta                 131.733(2)
_cell_angle_gamma                90
_cell_volume                     3437.44
_exptl_crystal_colour            colorless
_exptl_crystal_description       granular
_cell_formula_units_Z            4
_exptl_crystal_recrystallization_method sublimation
_exptl_crystal_preparation       electrophosphorescent
loop_
_atom_site_label
_atom_site_type_symbol
_atom_site_fract_x
_atom_site_fract_y
_atom_site_fract_z
C1 C 0.15145(12) 0.42094(15) 0.26800(16)
C2 C 0.20447(13) 0.51076(17) 0.28999(16)
C3 C 0.28117(14) 0.5112(2) 0.32455(18)
H1 H 0.3064 0.4500 0.3333
C4 C 0.31954(18) 0.6034(3) 0.3458(2)
H2 H 0.3711 0.6042 0.3695
C5 C 0.2824(2) 0.6942(3) 0.3324(2)
H3 H 0.3097 0.7557 0.3489
C6 C 0.20545(19) 0.6956(2) 0.2951(2)
H4 H 0.1799 0.7572 0.2840
C7 C 0.16677(14) 0.60302(17) 0.27434(17)
C8 C 0.08632(13) 0.58192(16) 0.23632(16)
C9 C 0.02385(16) 0.64716(19) 0.20157(19)
H5 H 0.0297 0.7176 0.2010
C10 C -0.04690(16) 0.6066(2) 0.1679(2)
H6 H -0.0894 0.6498 0.1437
C11 C -0.05504(15) 0.5024(2) 0.1699(2)
H7 H -0.1027 0.4759 0.1487
C12 C 0.00669(14) 0.43621(18) 0.20315(17)
H8 H 0.0006 0.3658 0.2036
C13 C 0.07711(12) 0.47677(15) 0.23546(15)
C14 C 0.12204(12) 0.35538(16) 0.16714(15)
C15 C 0.11125(13) 0.39802(17) 0.07916(17)
H9 H 0.1258 0.4659 0.0837
C16 C 0.07917(13) 0.34174(18) -0.01558(17)
H10 H 0.0720 0.3721 -0.0743
C17 C 0.05799(12) 0.24177(17) -0.02340(16)
C18 C 0.06701(16) 0.19803(19) 0.06235(19)
H11 H 0.0520 0.1302 0.0571
C19 C 0.09859(16) 0.25521(18) 0.15693(19)
H12 H 0.1040 0.2253 0.2144
N1 N 0.02388(11) 0.18332(14) -0.12202(14)
C20 C -0.05851(13) 0.17367(17) -0.21235(17)
C21 C -0.12285(14) 0.2155(2) -0.22765(19)
H13 H -0.1141 0.2558 -0.1725
C22 C -0.20011(16) 0.1956(2) -0.3268(2)
H14 H -0.2444 0.2231 -0.3392
C23 C -0.21304(16) 0.1349(2) -0.4089(2)
H15 H -0.2659 0.1220 -0.4750
C24 C -0.14957(16) 0.0939(2) -0.3942(2)
H16 H -0.1591 0.0537 -0.4499
C25 C -0.07074(14) 0.11282(17) -0.29529(17)
C26 C 0.00930(14) 0.08586(17) -0.25162(18)
C27 C 0.03780(17) 0.0298(2) -0.2930(2)
H17 H 0.0016 0.0006 -0.3640
C28 C 0.11986(19) 0.0179(2) -0.2283(3)
H18 H 0.1390 -0.0202 -0.2557
C29 C 0.17478(17) 0.0616(2) -0.1227(2)
H19 H 0.2301 0.0521 -0.0803
C30 C 0.14875(15) 0.11905(18) -0.0793(2)
H20 H 0.1855 0.1491 -0.0088
C31 C 0.06613(14) 0.13017(16) -0.14442(17)
C32 C 0.19909(12) 0.35815(15) 0.37693(15)
C33 C 0.26031(16) 0.2935(2) 0.40764(19)
H21 H 0.2684 0.2831 0.3581
C34 C 0.31022(16) 0.2436(2) 0.50998(19)
H22 H 0.3510 0.2000 0.5286
C35 C 0.29879(13) 0.25908(17) 0.58368(16)
C36 C 0.23872(15) 0.3223(2) 0.55481(18)
H23 H 0.2309 0.3330 0.6046
C37 C 0.18872(14) 0.37137(19) 0.45158(17)
H24 H 0.1475 0.4140 0.4329
N2 N 0.35141(10) 0.20975(14) 0.69119(14)
C38 C 0.42571(12) 0.24921(17) 0.78565(17)
C39 C 0.46596(15) 0.3353(2) 0.7955(2)
H25 H 0.4453 0.3755 0.7335
C40 C 0.53809(17) 0.3600(2) 0.9007(2)
H26 H 0.5666 0.4177 0.9096
C41 C 0.56914(16) 0.3002(2) 0.9939(2)
H27 H 0.6176 0.3188 1.0642
C42 C 0.52876(14) 0.2141(2) 0.98263(18)
H28 H 0.5502 0.1739 1.0450
C43 C 0.45608(13) 0.18702(17) 0.87838(16)
C44 C 0.39759(13) 0.10787(17) 0.83832(16)
C45 C 0.39217(15) 0.02650(18) 0.8893(2)
H29 H 0.4338 0.0137 0.9654
C46 C 0.32463(17) -0.0342(2) 0.8255(2)
H30 H 0.3201 -0.0877 0.8595
C47 C 0.26258(16) -0.0179(2) 0.7113(2)
H31 H 0.2179 -0.0614 0.6700
C48 C 0.26601(14) 0.06179(19) 0.65777(19)
H32 H 0.2247 0.0726 0.5812
C49 C 0.33325(13) 0.12466(16) 0.72255(17)
loop_
_geom_bond_atom_site_label_1
_geom_bond_atom_site_label_2
_geom_bond_site_symmetry_1
_geom_bond_site_symmetry_2
C1 C2 1_555 1_555
C2 C3 1_555 1_555
C3 H1 1_555 1_555
C4 C3 1_555 1_555
H2 C4 1_555 1_555
C5 C4 1_555 1_555
H3 C5 1_555 1_555
C6 C5 1_555 1_555
H4 C6 1_555 1_555
C7 C2 1_555 1_555
C8 C7 1_555 1_555
C9 C8 1_555 1_555
H5 C9 1_555 1_555
C10 C9 1_555 1_555
H6 C10 1_555 1_555
C11 C10 1_555 1_555
H7 C11 1_555 1_555
C12 C11 1_555 1_555
H8 C12 1_555 1_555
C13 C1 1_555 1_555
C14 C1 1_555 1_555
C15 C14 1_555 1_555
H9 C15 1_555 1_555
C16 C15 1_555 1_555
H10 C16 1_555 1_555
C17 C16 1_555 1_555
C18 C17 1_555 1_555
H11 C18 1_555 1_555
C19 C14 1_555 1_555
H12 C19 1_555 1_555
N1 C17 1_555 1_555
C20 N1 1_555 1_555
C21 C20 1_555 1_555
H13 C21 1_555 1_555
C22 C21 1_555 1_555
H14 C22 1_555 1_555
C23 C22 1_555 1_555
H15 C23 1_555 1_555
C24 C23 1_555 1_555
H16 C24 1_555 1_555
C25 C20 1_555 1_555
C26 C25 1_555 1_555
C27 C26 1_555 1_555
H17 C27 1_555 1_555
C28 C27 1_555 1_555
H18 C28 1_555 1_555
C29 C28 1_555 1_555
H19 C29 1_555 1_555
C30 C29 1_555 1_555
H20 C30 1_555 1_555
C31 N1 1_555 1_555
C32 C1 1_555 1_555
C33 C32 1_555 1_555
H21 C33 1_555 1_555
C34 C33 1_555 1_555
H22 C34 1_555 1_555
C35 C34 1_555 1_555
C36 C35 1_555 1_555
H23 C36 1_555 1_555
C37 C32 1_555 1_555
H24 C37 1_555 1_555
N2 C35 1_555 1_555
C38 N2 1_555 1_555
C39 C38 1_555 1_555
H25 C39 1_555 1_555
C40 C39 1_555 1_555
H26 C40 1_555 1_555
C41 C40 1_555 1_555
H27 C41 1_555 1_555
C42 C41 1_555 1_555
H28 C42 1_555 1_555
C43 C38 1_555 1_555
C44 C43 1_555 1_555
C45 C44 1_555 1_555
H29 C45 1_555 1_555
C46 C45 1_555 1_555
H30 C46 1_555 1_555
C47 C46 1_555 1_555
H31 C47 1_555 1_555
C48 C47 1_555 1_555
H32 C48 1_555 1_555
C49 N2 1_555 1_555
C6 C7 1_555 1_555
C8 C13 1_555 1_555
C12 C13 1_555 1_555
C18 C19 1_555 1_555
C24 C25 1_555 1_555
C26 C31 1_555 1_555
C30 C31 1_555 1_555
C36 C37 1_555 1_555
C42 C43 1_555 1_555
C44 C49 1_555 1_555
C48 C49 1_555 1_555

#END
