
#######################################################################
#
#                 Cambridge Crystallographic Data Centre
#                                CCDC 
#
#######################################################################
#
# If this CIF has been generated from an entry in the Cambridge 
# Structural Database, then it will include bibliographic, chemical, 
# crystal, experimental, refinement or atomic coordinate data resulting 
# from the CCDC's data processing and validation procedures.
#
#######################################################################

data_GIMFUG
_chemical_formula_moiety         'C52 H28 Mg1 N4,0.7(C1 H1 Cl3),1.5(H2 O1)'
_chemical_name_systematic        
'[5,10,15,20-tetrakis(phenylethynyl)porphyrinato]-magnesium(ii) chloroform solvate sesquihydrate'
_symmetry_cell_setting           triclinic
_symmetry_space_group_name_H-M   'P -1'
_symmetry_Int_Tables_number      2
_space_group_name_Hall           '-P 1'
loop_
_symmetry_equiv_pos_site_id
_symmetry_equiv_pos_as_xyz
1 x,y,z
2 -x,-y,-z
_cell_length_a                   16.8139(9)
_cell_length_b                   17.9252(9)
_cell_length_c                   18.0582(6)
_cell_angle_alpha                77.698(6)
_cell_angle_beta                 80.084(5)
_cell_angle_gamma                120.221(2)
_cell_volume                     4335.9
_exptl_crystal_description       plate
_cell_formula_units_Z            4
loop_
_atom_site_label
_atom_site_type_symbol
_atom_site_fract_x
_atom_site_fract_y
_atom_site_fract_z
Mg1 Mg 0.08952(7) 0.58816(8) 0.88151(7)
N1 N 0.07140(19) 0.67738(19) 0.92710(16)
N2 N -0.06119(19) 0.50131(19) 0.91364(16)
N3 N 0.10018(19) 0.48236(19) 0.86596(16)
N4 N 0.23167(19) 0.65532(19) 0.88422(16)
C1 C 0.1439(2) 0.7578(2) 0.93110(19)
C2 C 0.1061(3) 0.8107(3) 0.9491(2)
H1 H 0.141793 0.869625 0.953857
C3 C 0.0099(3) 0.7604(3) 0.9578(2)
H2 H -0.034892 0.776811 0.970789
C4 C -0.0112(2) 0.6774(2) 0.9438(2)
C5 C -0.1040(2) 0.6065(3) 0.9462(2)
C6 C -0.1262(2) 0.5245(2) 0.9329(2)
C7 C -0.2215(2) 0.4524(3) 0.9359(2)
H3 H -0.279299 0.451557 0.947571
C8 C -0.2125(2) 0.3867(3) 0.9188(2)
H4 H -0.263091 0.330521 0.916814
C9 C -0.1117(2) 0.4177(2) 0.9040(2)
C10 C -0.0715(2) 0.3703(2) 0.8813(2)
C11 C 0.0272(2) 0.4001(2) 0.8646(2)
C12 C 0.0659(3) 0.3488(3) 0.8439(2)
H5 H 0.030320 0.290056 0.838829
C13 C 0.1621(3) 0.3999(3) 0.8332(2)
H6 H 0.207208 0.383934 0.819264
C14 C 0.1834(2) 0.4833(2) 0.8471(2)
C15 C 0.2755(2) 0.5541(3) 0.8437(2)
C16 C 0.2973(2) 0.6345(3) 0.8613(2)
C17 C 0.3927(2) 0.7062(3) 0.8581(2)
H7 H 0.451064 0.708394 0.843550
C18 C 0.3830(2) 0.7692(3) 0.8796(2)
H8 H 0.433087 0.823974 0.883894
C19 C 0.2818(3) 0.7378(2) 0.8952(2)
C20 C 0.2415(2) 0.7859(2) 0.9160(2)
C21 C -0.1809(3) 0.6200(3) 0.9618(2)
C22 C -0.2438(3) 0.6339(3) 0.9720(2)
C23 C -0.3225(9) 0.6492(10) 0.9801(9)
C24 C -0.3132(7) 0.7229(7) 0.9974(8)
H9 H -0.254175 0.765434 1.004329
C25 C -0.3870(7) 0.7381(7) 1.0054(8)
H10 H -0.378285 0.789790 1.018283
C26 C -0.4717(8) 0.6791(9) 0.9947(9)
H11 H -0.521144 0.690666 0.997038
C27 C -0.4838(7) 0.6032(8) 0.9805(8)
H12 H -0.543799 0.559930 0.975438
C28 C -0.4107(7) 0.5871(7) 0.9732(7)
H13 H -0.421320 0.533294 0.963573
C29 C -0.1361(2) 0.2826(3) 0.8747(2)
C30 C -0.1872(3) 0.2097(3) 0.8680(2)
C31 C -0.2438(3) 0.1210(2) 0.8605(2)
C32 C -0.3236(2) 0.0958(2) 0.8355(2)
H14 H -0.343187 0.137046 0.823925
C33 C -0.3752(3) 0.0109(3) 0.8272(2)
H15 H -0.429483 -0.005367 0.808985
C34 C -0.3493(3) -0.0501(3) 0.8447(3)
H16 H -0.385762 -0.108561 0.839271
C35 C -0.2706(3) -0.0266(3) 0.8702(3)
H17 H -0.252181 -0.068716 0.882271
C36 C -0.2176(3) 0.0590(3) 0.8786(3)
H18 H -0.163219 0.074956 0.896636
C37 C 0.3544(3) 0.5439(3) 0.8199(2)
C38 C 0.4180(3) 0.5333(3) 0.7983(3)
C39 C 0.4855(7) 0.5130(8) 0.7789(8)
C40 C 0.4487(6) 0.4220(6) 0.7903(7)
H19 H 0.380299 0.377529 0.813030
C41 C 0.5097(7) 0.3936(7) 0.7693(8)
H20 H 0.483222 0.330050 0.779278
C42 C 0.6081(7) 0.4575(8) 0.7342(11)
H21 H 0.649445 0.440263 0.712858
C43 C 0.6461(6) 0.5462(7) 0.7304(8)
H22 H 0.714657 0.590179 0.709568
C44 C 0.5845(5) 0.5724(6) 0.7569(6)
H23 H 0.611552 0.632311 0.759678
C45 C 0.3091(3) 0.8772(3) 0.9158(2)
C46 C 0.3660(3) 0.9560(3) 0.9073(2)
C47 C 0.4348(2) 1.0524(3) 0.8920(2)
C48 C 0.4703(3) 1.1179(3) 0.8159(2)
H24 H 0.448647 1.098587 0.774056
C49 C 0.5364(3) 1.2101(3) 0.8006(2)
H25 H 0.559663 1.253993 0.748569
C50 C 0.5692(3) 1.2391(3) 0.8609(2)
H26 H 0.613849 1.302837 0.850800
C51 C 0.5361(3) 1.1744(3) 0.9358(2)
H27 H 0.560121 1.193975 0.976725
C52 C 0.4690(3) 1.0821(3) 0.9522(2)
H28 H 0.446089 1.038601 1.004309
O1 O 0.12192(17) 0.66248(17) 0.76352(14)
H29 H 0.150292 0.646719 0.724126
H30 H 0.151188 0.727246 0.738866
C53 C 0.49532(19) 0.48160(16) 0.58510(17)
H31 H 0.498225 0.462499 0.651571
Cl1 Cl 0.5980(2) 0.5052(2) 0.5158(3)
Cl2 Cl 0.3915(2) 0.38989(17) 0.5780(3)
Cl3 Cl 0.4907(2) 0.57828(16) 0.5618(2)
Mg2 Mg 0.49433(7) 0.98948(7) 0.61605(7)
N5 N 0.50620(19) 1.11340(19) 0.58506(16)
N6 N 0.37441(18) 0.93340(18) 0.57664(16)
N7 N 0.49999(18) 0.87614(18) 0.62101(16)
N8 N 0.63321(18) 1.05759(18) 0.62401(16)
C54 C 0.5763(2) 1.1943(2) 0.58983(19)
C55 C 0.5507(2) 1.2600(2) 0.5757(2)
H32 H 0.587798 1.321361 0.575241
C56 C 0.4648(3) 1.2187(2) 0.5632(2)
H33 H 0.428973 1.244850 0.552852
C57 C 0.4370(2) 1.1270(2) 0.5684(2)
C58 C 0.3503(2) 1.0600(2) 0.5588(2)
C59 C 0.3223(2) 0.9703(2) 0.56210(19)
C60 C 0.2315(2) 0.9019(2) 0.5559(2)
H34 H 0.182402 0.910084 0.545437
C61 C 0.2294(2) 0.8238(3) 0.5680(2)
H35 H 0.178577 0.766637 0.567678
C62 C 0.3191(2) 0.8436(2) 0.58141(19)
C63 C 0.3427(2) 0.7787(2) 0.60252(19)
C64 C 0.4273(2) 0.7938(2) 0.61983(19)
C65 C 0.4496(2) 0.7259(2) 0.6399(2)
H36 H 0.410511 0.663306 0.643851
C66 C 0.5359(3) 0.7676(2) 0.6519(2)
H37 H 0.569898 0.740361 0.665256
C67 C 0.5673(2) 0.8612(2) 0.6407(2)
C68 C 0.6546(2) 0.9290(2) 0.6486(2)
C69 C 0.6853(2) 1.0206(2) 0.6385(2)
C70 C 0.7785(2) 1.0904(3) 0.6416(2)
H38 H 0.828614 1.082840 0.650256
C71 C 0.7799(2) 1.1677(3) 0.6300(2)
H39 H 0.831644 1.225285 0.628717
C72 C 0.6883(2) 1.1474(2) 0.61963(19)
C73 C 0.6622(2) 1.2102(2) 0.6057(2)
C74 C 0.2844(2) 1.0861(2) 0.5455(2)
C75 C 0.2295(3) 1.1080(3) 0.5361(2)
C76 C 0.1641(3) 1.1352(3) 0.5257(2)
C77 C 0.1970(3) 1.2261(3) 0.4909(3)
H40 H 0.264904 1.272777 0.472370
C78 C 0.1313(4) 1.2496(4) 0.4829(3)
H41 H 0.154831 1.312620 0.458937
C79 C 0.0338(3) 1.1843(4) 0.5085(3)
H42 H -0.010615 1.201032 0.501948
C80 C 0.0012(3) 1.0952(4) 0.5435(4)
H43 H -0.066888 1.049121 0.562790
C81 C 0.0650(3) 1.0699(3) 0.5516(3)
H44 H 0.040466 1.006590 0.575427
C82 C 0.2730(2) 0.6850(3) 0.6093(2)
C83 C 0.2169(2) 0.6047(3) 0.6193(2)
C84 C 0.1561(2) 0.5092(2) 0.6301(2)
C85 C 0.0551(2) 0.4612(2) 0.6591(2)
H45 H 0.025305 0.492128 0.671673
C86 C -0.0022(3) 0.3687(2) 0.6697(2)
H46 H -0.071247 0.336491 0.689169
C87 C 0.0397(3) 0.3229(3) 0.6524(3)
H47 H -0.000149 0.259067 0.660439
C88 C 0.1402(3) 0.3701(3) 0.6232(3)
H48 H 0.169941 0.339369 0.609998
C89 C 0.1969(3) 0.4624(3) 0.6133(3)
H49 H 0.265951 0.494336 0.594424
C90 C 0.7158(3) 0.9010(3) 0.6715(2)
C91 C 0.7671(3) 0.8790(3) 0.6928(2)
C92 C 0.8281(16) 0.8485(13) 0.7160(17)
C93 C 0.8019(9) 0.7593(9) 0.7265(8)
H50 H 0.744942 0.718453 0.716093
C94 C 0.8563(10) 0.7284(9) 0.7517(9)
H51 H 0.836724 0.666801 0.759118
C95 C 0.9393(16) 0.7878(13) 0.7660(18)
H52 H 0.979141 0.768208 0.781016
C96 C 0.9645(9) 0.8758(9) 0.7586(10)
H53 H 1.020498 0.916187 0.770266
C97 C 0.9083(9) 0.9054(8) 0.7341(9)
H54 H 0.925570 0.965814 0.729770
C98 C 0.7282(2) 1.2996(2) 0.6095(2)
C99 C 0.7828(3) 1.3717(3) 0.6153(2)
C100 C 0.8474(2) 1.4584(2) 0.6242(2)
C101 C 0.9199(3) 1.5355(2) 0.5576(2)
H55 H 0.926991 1.531648 0.505442
C102 C 0.9815(3) 1.6175(3) 0.5672(2)
H56 H 1.031191 1.669968 0.521611
C103 C 0.9715(3) 1.6240(3) 0.6428(2)
H57 H 1.013559 1.680985 0.648862
C104 C 0.9008(3) 1.5479(3) 0.7093(2)
H58 H 0.894388 1.552154 0.761218
C105 C 0.8388(2) 1.4649(2) 0.7004(2)
H59 H 0.790340 1.412308 0.746361
O2 O 0.40143(17) 0.93660(18) 0.73133(14)
H60 H 0.398502 0.920289 0.786290
H61 H 0.335730 0.915211 0.733979
C106 C 0.2427(8) 0.1526(6) 0.7194(5)
Cl4 Cl 0.1310(9) 0.1402(8) 0.7375(9)
Cl5 Cl 0.2258(8) 0.0526(6) 0.7803(7)
Cl6 Cl 0.3216(7) 0.2451(7) 0.7444(11)
O3 O 0.1981(2) 0.8513(2) 0.74800(16)
H62 H 0.187077 0.876214 0.701418
H63 H 0.163483 0.858634 0.790782
C107? C -0.3118(14) 0.6541(16) 0.9781(12)
C108? C -0.3379(10) 0.6809(11) 1.0381(8)
H64? H -0.307083 0.686312 1.077927
C109? C -0.4082(11) 0.7004(12) 1.0422(8)
H65? H -0.428212 0.714569 1.086666
C110? C -0.4485(13) 0.6993(15) 0.9832(10)
H66? H -0.497050 0.712265 0.986143
C111? C -0.4185(10) 0.6795(11) 0.9195(8)
H67? H -0.446358 0.678322 0.877920
C112? C -0.3473(9) 0.6609(11) 0.9153(8)
H68? H -0.322601 0.652703 0.868468
C113? C 0.4926(10) 0.5171(13) 0.7600(9)
C114? C 0.5096(9) 0.5142(10) 0.6840(7)
H69? H 0.469284 0.517368 0.654228
C115? C 0.5845(10) 0.5066(11) 0.6497(7)
H70? H 0.595163 0.505781 0.596609
C116? C 0.6426(11) 0.5004(15) 0.6906(8)
H71? H 0.694968 0.497070 0.666336
C117? C 0.6239(12) 0.4992(16) 0.7676(9)
H72? H 0.662615 0.493100 0.797888
C118? C 0.5489(10) 0.5067(11) 0.8022(7)
H73? H 0.536435 0.504537 0.856268
C119? C 0.8265(16) 0.8555(15) 0.7208(16)
C120? C 0.8459(9) 0.8007(10) 0.6882(7)
H74? H 0.818785 0.780925 0.648646
C121? C 0.9045(10) 0.7748(10) 0.7129(8)
H75? H 0.916193 0.736285 0.690767
C122? C 0.9460(17) 0.8037(15) 0.7690(15)
H76? H 0.983740 0.783341 0.787433
C123? C 0.9320(10) 0.8629(10) 0.7982(8)
H77? H 0.962411 0.885877 0.835276
C124? C 0.8733(9) 0.8883(9) 0.7728(8)
H78? H 0.865064 0.930033 0.792270
H79? H -0.074759 0.005116 1.063362
H80? H 0.276483 0.165761 0.650492
H81? H 0.348463 0.174063 0.705554
H82? H 0.091449 0.011827 0.879771
H83? H 0.198368 0.110327 0.686763
C125? C 0.2037(13) 0.1460(11) 0.7361(12)
Cl7? Cl 0.0927(12) 0.1292(16) 0.7796(18)
Cl8? Cl 0.2357(16) 0.0991(18) 0.8110(15)
Cl9? Cl 0.2923(14) 0.2638(11) 0.6918(12)
C126? C 0.2724(14) 0.1466(14) 0.7531(14)
Cl10? Cl 0.204(2) 0.1751(18) 0.7062(14)
Cl11? Cl 0.206(3) 0.0270(15) 0.799(2)
Cl12? Cl 0.2926(19) 0.1958(19) 0.8268(17)
C127? C 0.1405(15) 0.0789(13) 0.8950(14)
Cl13? Cl 0.0757(19) 0.076(2) 0.9831(15)
Cl14? Cl 0.2445(19) 0.086(2) 0.9066(17)
Cl15? Cl 0.176(2) 0.177(2) 0.8171(15)
C128? C -0.0286(11) 0.0064(9) 1.0044(9)
Cl16? Cl 0.0354(16) 0.1144(9) 0.9295(13)
Cl17? Cl 0.0540(16) -0.0189(15) 1.0264(14)
Cl18? Cl -0.1062(13) -0.0755(11) 0.9691(15)
loop_
_geom_bond_atom_site_label_1
_geom_bond_atom_site_label_2
_geom_bond_site_symmetry_1
_geom_bond_site_symmetry_2
Mg1 N1 1_555 1_555
N1 C1 1_555 1_555
N2 Mg1 1_555 1_555
N3 Mg1 1_555 1_555
N4 Mg1 1_555 1_555
C1 C2 1_555 1_555
C2 H1 1_555 1_555
C3 C2 1_555 1_555
H2 C3 1_555 1_555
C4 N1 1_555 1_555
C5 C4 1_555 1_555
C6 N2 1_555 1_555
C7 C6 1_555 1_555
H3 C7 1_555 1_555
C8 C7 1_555 1_555
H4 C8 1_555 1_555
C9 N2 1_555 1_555
C10 C9 1_555 1_555
C11 N3 1_555 1_555
C12 C11 1_555 1_555
H5 C12 1_555 1_555
C13 C12 1_555 1_555
H6 C13 1_555 1_555
C14 N3 1_555 1_555
C15 C14 1_555 1_555
C16 N4 1_555 1_555
C17 C16 1_555 1_555
H7 C17 1_555 1_555
C18 C17 1_555 1_555
H8 C18 1_555 1_555
C19 N4 1_555 1_555
C20 C1 1_555 1_555
C21 C5 1_555 1_555
C22 C21 1_555 1_555
C23 C22 1_555 1_555
C24 C23 1_555 1_555
H9 C24 1_555 1_555
C25 C24 1_555 1_555
H10 C25 1_555 1_555
C26 C25 1_555 1_555
H11 C26 1_555 1_555
C27 C26 1_555 1_555
H12 C27 1_555 1_555
C28 C23 1_555 1_555
H13 C28 1_555 1_555
C29 C10 1_555 1_555
C30 C29 1_555 1_555
C31 C30 1_555 1_555
C32 C31 1_555 1_555
H14 C32 1_555 1_555
C33 C32 1_555 1_555
H15 C33 1_555 1_555
C34 C33 1_555 1_555
H16 C34 1_555 1_555
C35 C34 1_555 1_555
H17 C35 1_555 1_555
C36 C31 1_555 1_555
H18 C36 1_555 1_555
C37 C15 1_555 1_555
C38 C37 1_555 1_555
C39 C38 1_555 1_555
C40 C39 1_555 1_555
H19 C40 1_555 1_555
C41 C40 1_555 1_555
H20 C41 1_555 1_555
C42 C41 1_555 1_555
H21 C42 1_555 1_555
C43 C42 1_555 1_555
H22 C43 1_555 1_555
C44 C39 1_555 1_555
H23 C44 1_555 1_555
C45 C20 1_555 1_555
C46 C45 1_555 1_555
C47 C46 1_555 1_555
C48 C47 1_555 1_555
H24 C48 1_555 1_555
C49 C48 1_555 1_555
H25 C49 1_555 1_555
C50 C49 1_555 1_555
H26 C50 1_555 1_555
C51 C50 1_555 1_555
H27 C51 1_555 1_555
C52 C47 1_555 1_555
H28 C52 1_555 1_555
O1 H29 1_555 1_555
H30 O1 1_555 1_555
C53 H31 1_555 1_555
Cl1 C53 1_555 1_555
Cl2 C53 1_555 1_555
Cl3 C53 1_555 1_555
Mg2 N5 1_555 1_555
N5 C54 1_555 1_555
N6 Mg2 1_555 1_555
N7 Mg2 1_555 1_555
N8 Mg2 1_555 1_555
C54 C55 1_555 1_555
C55 H32 1_555 1_555
C56 C55 1_555 1_555
H33 C56 1_555 1_555
C57 N5 1_555 1_555
C58 C57 1_555 1_555
C59 N6 1_555 1_555
C60 C59 1_555 1_555
H34 C60 1_555 1_555
C61 C60 1_555 1_555
H35 C61 1_555 1_555
C62 N6 1_555 1_555
C63 C62 1_555 1_555
C64 N7 1_555 1_555
C65 C64 1_555 1_555
H36 C65 1_555 1_555
C66 C65 1_555 1_555
H37 C66 1_555 1_555
C67 N7 1_555 1_555
C68 C67 1_555 1_555
C69 N8 1_555 1_555
C70 C69 1_555 1_555
H38 C70 1_555 1_555
C71 C70 1_555 1_555
H39 C71 1_555 1_555
C72 N8 1_555 1_555
C73 C54 1_555 1_555
C74 C58 1_555 1_555
C75 C74 1_555 1_555
C76 C75 1_555 1_555
C77 C76 1_555 1_555
H40 C77 1_555 1_555
C78 C77 1_555 1_555
H41 C78 1_555 1_555
C79 C78 1_555 1_555
H42 C79 1_555 1_555
C80 C79 1_555 1_555
H43 C80 1_555 1_555
C81 C76 1_555 1_555
H44 C81 1_555 1_555
C82 C63 1_555 1_555
C83 C82 1_555 1_555
C84 C83 1_555 1_555
C85 C84 1_555 1_555
H45 C85 1_555 1_555
C86 C85 1_555 1_555
H46 C86 1_555 1_555
C87 C86 1_555 1_555
H47 C87 1_555 1_555
C88 C87 1_555 1_555
H48 C88 1_555 1_555
C89 C84 1_555 1_555
H49 C89 1_555 1_555
C90 C68 1_555 1_555
C91 C90 1_555 1_555
C92 C91 1_555 1_555
C93 C92 1_555 1_555
H50 C93 1_555 1_555
C94 C93 1_555 1_555
H51 C94 1_555 1_555
C95 C94 1_555 1_555
H52 C95 1_555 1_555
C96 C95 1_555 1_555
H53 C96 1_555 1_555
C97 C92 1_555 1_555
H54 C97 1_555 1_555
C98 C73 1_555 1_555
C99 C98 1_555 1_555
C100 C99 1_555 1_555
C101 C100 1_555 1_555
H55 C101 1_555 1_555
C102 C101 1_555 1_555
H56 C102 1_555 1_555
C103 C102 1_555 1_555
H57 C103 1_555 1_555
C104 C103 1_555 1_555
H58 C104 1_555 1_555
C105 C100 1_555 1_555
H59 C105 1_555 1_555
O2 H60 1_555 1_555
H61 O2 1_555 1_555
C106 Cl4 1_555 1_555
Cl5 C106 1_555 1_555
Cl6 C106 1_555 1_555
O3 H62 1_555 1_555
H63 O3 1_555 1_555
C3 C4 1_555 1_555
C5 C6 1_555 1_555
C8 C9 1_555 1_555
C10 C11 1_555 1_555
C13 C14 1_555 1_555
C15 C16 1_555 1_555
C18 C19 1_555 1_555
C19 C20 1_555 1_555
C27 C28 1_555 1_555
C35 C36 1_555 1_555
C43 C44 1_555 1_555
C51 C52 1_555 1_555
C56 C57 1_555 1_555
C58 C59 1_555 1_555
C61 C62 1_555 1_555
C63 C64 1_555 1_555
C66 C67 1_555 1_555
C68 C69 1_555 1_555
C71 C72 1_555 1_555
C72 C73 1_555 1_555
C80 C81 1_555 1_555
C88 C89 1_555 1_555
C96 C97 1_555 1_555
C104 C105 1_555 1_555

#END
