
#######################################################################
#
#                 Cambridge Crystallographic Data Centre
#                                CCDC 
#
#######################################################################
#
# If this CIF has been generated from an entry in the Cambridge 
# Structural Database, then it will include bibliographic, chemical, 
# crystal, experimental, refinement or atomic coordinate data resulting 
# from the CCDC's data processing and validation procedures.
#
#######################################################################

data_GINPAV
_chemical_formula_moiety         'C24 H16 S6'
_chemical_name_systematic        
2,4,5,7,9,10-Hexathia-1,3,6,8(1,4)-tetrabenzenacyclodecaphane
_symmetry_cell_setting           orthorhombic
_symmetry_space_group_name_H-M   'P n a 21'
_symmetry_Int_Tables_number      33
_space_group_name_Hall           'P 2c -2n'
loop_
_symmetry_equiv_pos_site_id
_symmetry_equiv_pos_as_xyz
1 x,y,z
2 -x,-y,1/2+z
3 1/2+x,1/2-y,z
4 1/2-x,1/2+y,1/2+z
_cell_length_a                   14.6300(15)
_cell_length_b                   25.025(3)
_cell_length_c                   5.9754(6)
_cell_angle_alpha                90
_cell_angle_beta                 90
_cell_angle_gamma                90
_cell_volume                     2187.69
_exptl_crystal_colour            colorless
_exptl_crystal_description       block
_cell_formula_units_Z            4
_exptl_crystal_recrystallization_method ethanol
loop_
_atom_site_label
_atom_site_type_symbol
_atom_site_fract_x
_atom_site_fract_y
_atom_site_fract_z
S1 S 0.04551(7) 0.61284(3) -0.25432(16)
S2 S 0.19406(5) 0.42222(3) 0.33953(16)
S3 S 0.10998(5) 0.81877(3) 0.33467(17)
S4 S 0.42460(7) 0.63478(3) 0.83251(19)
S5 S 0.33401(5) 0.42247(3) 0.30183(15)
S6 S 0.24892(6) 0.82644(3) 0.29017(17)
C1 C 0.09121(19) 0.56196(11) -0.0797(5)
C2 C 0.1331(2) 0.57092(12) 0.1244(6)
H1 H 0.1401 0.6057 0.1765
C3 C 0.1646(2) 0.52860(11) 0.2518(6)
H2 H 0.1903 0.5349 0.3916
C4 C 0.15771(19) 0.47662(11) 0.1706(5)
C5 C 0.1188(2) 0.46789(11) -0.0373(5)
H3 H 0.1156 0.4333 -0.0940
C6 C 0.08465(19) 0.50999(11) -0.1612(6)
H4 H 0.0573 0.5036 -0.2992
C7 C 0.0574(2) 0.67187(12) -0.0927(5)
C8 C 0.0130(2) 0.67842(12) 0.1109(6)
H5 H -0.0272 0.6523 0.1620
C9 C 0.0283(2) 0.72354(12) 0.2371(6)
H6 H 0.0011 0.7270 0.3771
C10 C 0.0843(2) 0.76392(12) 0.1554(5)
C11 C 0.1210(2) 0.75951(13) -0.0562(5)
H7 H 0.1532 0.7880 -0.1178
C12 C 0.11021(19) 0.71307(11) -0.1764(6)
H8 H 0.1386 0.7094 -0.3148
C13 C 0.4031(2) 0.57457(12) 0.6845(6)
C14 C 0.4422(2) 0.56461(12) 0.4793(6)
H9 H 0.4823 0.5893 0.4168
C15 C 0.42192(19) 0.51778(11) 0.3656(6)
H10 H 0.4460 0.5119 0.2237
C16 C 0.3658(2) 0.47972(11) 0.4632(5)
C17 C 0.3322(2) 0.48796(13) 0.6754(6)
H11 H 0.2985 0.4613 0.7457
C18 C 0.3483(2) 0.53591(12) 0.7850(6)
H12 H 0.3226 0.5422 0.9249
C19 C 0.3718(2) 0.68490(12) 0.6690(6)
C20 C 0.3303(2) 0.67732(12) 0.4636(6)
H13 H 0.3279 0.6433 0.4016
C21 C 0.2923(2) 0.72005(11) 0.3493(6)
H14 H 0.2652 0.7145 0.2104
C22 C 0.2943(2) 0.77105(11) 0.4405(5)
C23 C 0.3359(2) 0.77856(12) 0.6463(6)
H15 H 0.3380 0.8126 0.7088
C24 C 0.37435(19) 0.73607(11) 0.7594(6)
H16 H 0.4022 0.7417 0.8973
loop_
_geom_bond_atom_site_label_1
_geom_bond_atom_site_label_2
_geom_bond_site_symmetry_1
_geom_bond_site_symmetry_2
S1 C1 1_555 1_555
S2 S5 1_555 1_555
S3 S6 1_555 1_555
S4 C13 1_555 1_555
S5 C16 1_555 1_555
S6 C22 1_555 1_555
C1 C2 1_555 1_555
C2 H1 1_555 1_555
C3 C2 1_555 1_555
H2 C3 1_555 1_555
C4 S2 1_555 1_555
C5 C4 1_555 1_555
H3 C5 1_555 1_555
C6 C1 1_555 1_555
H4 C6 1_555 1_555
C7 S1 1_555 1_555
C8 C7 1_555 1_555
H5 C8 1_555 1_555
C9 C8 1_555 1_555
H6 C9 1_555 1_555
C10 S3 1_555 1_555
C11 C10 1_555 1_555
H7 C11 1_555 1_555
C12 C7 1_555 1_555
H8 C12 1_555 1_555
C13 C14 1_555 1_555
C14 H9 1_555 1_555
C15 C14 1_555 1_555
H10 C15 1_555 1_555
C16 C15 1_555 1_555
C17 C16 1_555 1_555
H11 C17 1_555 1_555
C18 C13 1_555 1_555
H12 C18 1_555 1_555
C19 S4 1_555 1_555
C20 C19 1_555 1_555
H13 C20 1_555 1_555
C21 C20 1_555 1_555
H14 C21 1_555 1_555
C22 C21 1_555 1_555
C23 C22 1_555 1_555
H15 C23 1_555 1_555
C24 C19 1_555 1_555
H16 C24 1_555 1_555
C3 C4 1_555 1_555
C5 C6 1_555 1_555
C9 C10 1_555 1_555
C11 C12 1_555 1_555
C17 C18 1_555 1_555
C23 C24 1_555 1_555

#END
