
#######################################################################
#
#                 Cambridge Crystallographic Data Centre
#                                CCDC 
#
#######################################################################
#
# If this CIF has been generated from an entry in the Cambridge 
# Structural Database, then it will include bibliographic, chemical, 
# crystal, experimental, refinement or atomic coordinate data resulting 
# from the CCDC's data processing and validation procedures.
#
#######################################################################

data_GINPID
_chemical_formula_moiety         'C15 H15 N3 O4,H2 O1'
_chemical_name_systematic        
'4-Hydroxy-3,5-dimethoxybenzaldehyde isonicotinoylhydrazone monohydrate'
_symmetry_cell_setting           monoclinic
_symmetry_space_group_name_H-M   'P 21/c'
_symmetry_Int_Tables_number      14
_space_group_name_Hall           '-P 2ybc'
loop_
_symmetry_equiv_pos_site_id
_symmetry_equiv_pos_as_xyz
1 x,y,z
2 -x,1/2+y,1/2-z
3 -x,-y,-z
4 x,1/2-y,1/2+z
_cell_length_a                   9.0139(13)
_cell_length_b                   21.663(3)
_cell_length_c                   7.8198(11)
_cell_angle_alpha                90
_cell_angle_beta                 93.653(5)
_cell_angle_gamma                90
_cell_volume                     1523.86
_exptl_crystal_colour            yellow
_exptl_crystal_description       block
_cell_formula_units_Z            4
_exptl_crystal_recrystallization_method ethanol
loop_
_atom_site_label
_atom_site_type_symbol
_atom_site_fract_x
_atom_site_fract_y
_atom_site_fract_z
O1 O -0.26392(15) 0.46890(6) 0.35782(16)
H1 H -0.2922 0.4499 0.2710
O2 O -0.18690(16) 0.50673(6) 0.66825(16)
O3 O -0.15502(16) 0.36614(7) 0.22525(16)
O4 O 0.34468(14) 0.17268(6) 0.67074(14)
N1 N 0.59210(17) 0.11847(8) 1.25173(19)
N2 N 0.20424(14) 0.28062(6) 0.72122(16)
N3 N 0.29801(14) 0.25269(6) 0.84535(15)
H2 H 0.3163 0.2701 0.9432
C1 C -0.16440(18) 0.43429(8) 0.4518(2)
C2 C -0.12051(19) 0.45386(8) 0.6169(2)
C3 C -0.01778(19) 0.41989(8) 0.7162(2)
H3 H 0.0121 0.4334 0.8260
C4 C 0.04127(18) 0.36573(7) 0.6537(2)
C5 C -0.00257(19) 0.34559(8) 0.4888(2)
H4 H 0.0360 0.3093 0.4462
C6 C -0.10406(19) 0.38015(8) 0.3895(2)
C7 C -0.1517(3) 0.52670(10) 0.8388(3)
H5 H -0.1776 0.4950 0.9173
H6 H -0.2065 0.5636 0.8606
H7 H -0.0471 0.5351 0.8540
C8 C -0.0938(3) 0.31532(10) 0.1449(3)
H8 H 0.0124 0.3195 0.1485
H9 H -0.1325 0.3134 0.0278
H10 H -0.1192 0.2782 0.2032
C9 C 0.14731(18) 0.33143(8) 0.7657(2)
H11 H 0.1744 0.3473 0.8737
C10 C 0.35979(17) 0.19835(8) 0.81136(19)
C11 C 0.44799(17) 0.17032(7) 0.96018(19)
C12 C 0.54908(19) 0.20423(8) 1.0627(2)
H12 H 0.5697 0.2451 1.0366
C13 C 0.6184(2) 0.17607(9) 1.2039(2)
H13 H 0.6881 0.1988 1.2701
C14 C 0.4974(2) 0.08606(9) 1.1495(2)
H14 H 0.4794 0.0453 1.1786
C15 C 0.4246(2) 0.10932(8) 1.0031(2)
H15 H 0.3610 0.0845 0.9346
O5 O 0.5522(3) 0.07028(13) 0.5882(3)
H16 H 0.5759 0.0897 0.4930
H17 H 0.5194 0.0367 0.5458
O6? O 0.6179(8) 0.0378(3) 0.5492(8)
loop_
_geom_bond_atom_site_label_1
_geom_bond_atom_site_label_2
_geom_bond_site_symmetry_1
_geom_bond_site_symmetry_2
O1 H1 1_555 1_555
O2 C2 1_555 1_555
O3 C6 1_555 1_555
O4 C10 1_555 1_555
N1 C13 1_555 1_555
N2 N3 1_555 1_555
N3 H2 1_555 1_555
C1 O1 1_555 1_555
C2 C1 1_555 1_555
C3 C2 1_555 1_555
H3 C3 1_555 1_555
C4 C3 1_555 1_555
C5 C4 1_555 1_555
H4 C5 1_555 1_555
C6 C1 1_555 1_555
C7 O2 1_555 1_555
H5 C7 1_555 1_555
H6 C7 1_555 1_555
H7 C7 1_555 1_555
C8 O3 1_555 1_555
H8 C8 1_555 1_555
H9 C8 1_555 1_555
H10 C8 1_555 1_555
C9 N2 1_555 1_555
H11 C9 1_555 1_555
C10 N3 1_555 1_555
C11 C10 1_555 1_555
C12 C11 1_555 1_555
H12 C12 1_555 1_555
C13 C12 1_555 1_555
H13 C13 1_555 1_555
C14 N1 1_555 1_555
H14 C14 1_555 1_555
C15 C11 1_555 1_555
H15 C15 1_555 1_555
O5 H16 1_555 1_555
H17 O5 1_555 1_555
C4 C9 1_555 1_555
C5 C6 1_555 1_555
C14 C15 1_555 1_555

#END
