
#######################################################################
#
#                 Cambridge Crystallographic Data Centre
#                                CCDC 
#
#######################################################################
#
# If this CIF has been generated from an entry in the Cambridge 
# Structural Database, then it will include bibliographic, chemical, 
# crystal, experimental, refinement or atomic coordinate data resulting 
# from the CCDC's data processing and validation procedures.
#
#######################################################################

data_GINXEI
_chemical_formula_moiety         'C23 H16 Br1 O1 1+,Cl1 O4 1-'
_chemical_name_systematic        
'2-(4-bromophenyl)-4,5-diphenylpyrylium perchlorate'
_symmetry_cell_setting           orthorhombic
_symmetry_space_group_name_H-M   'P c a 21'
_symmetry_Int_Tables_number      29
_space_group_name_Hall           'P 2c -2ac'
loop_
_symmetry_equiv_pos_site_id
_symmetry_equiv_pos_as_xyz
1 x,y,z
2 -x,-y,1/2+z
3 1/2+x,-y,z
4 1/2-x,y,1/2+z
_cell_length_a                   6.978(2)
_cell_length_b                   16.954(5)
_cell_length_c                   17.472(5)
_cell_angle_alpha                90
_cell_angle_beta                 90
_cell_angle_gamma                90
_cell_volume                     2067.03
_exptl_crystal_colour            yellow
_exptl_crystal_description       block
_cell_formula_units_Z            4
loop_
_atom_site_label
_atom_site_type_symbol
_atom_site_fract_x
_atom_site_fract_y
_atom_site_fract_z
Br1 Br 0.91031(10) 1.23380(4) 0.45330(6)
C1 C 0.9731(8) 0.8974(4) 0.5744(3)
C2 C 0.9305(8) 0.8278(4) 0.5381(3)
H1 H 0.8815 0.8287 0.4887
C3 C 0.9600(9) 0.7561(4) 0.5746(3)
C4 C 1.0454(9) 0.7564(4) 0.6486(4)
C5 C 1.0801(9) 0.8268(4) 0.6796(4)
H2 H 1.1336 0.8281 0.7283
C6 C 0.9538(8) 0.9769(4) 0.5452(3)
C7 C 0.9765(9) 1.0422(4) 0.5939(3)
H3 H 1.0011 1.0339 0.6456
C8 C 0.9633(9) 1.1181(4) 0.5668(4)
H4 H 0.9792 1.1613 0.5990
C9 C 0.9257(8) 1.1277(4) 0.4898(4)
C10 C 0.9024(9) 1.0677(4) 0.4402(5)
H5 H 0.8778 1.0778 0.3888
C11 C 0.9153(9) 0.9911(4) 0.4663(4)
H6 H 0.8991 0.9491 0.4327
C12 C 0.8929(7) 0.6825(4) 0.5364(3)
C13 C 0.9214(8) 0.6718(3) 0.4586(4)
H7 H 0.9874 0.7098 0.4307
C14 C 0.8529(11) 0.6054(4) 0.4223(4)
H8 H 0.8764 0.5977 0.3705
C15 C 0.7507(10) 0.5514(4) 0.4627(4)
H9 H 0.7031 0.5068 0.4382
C16 C 0.7173(10) 0.5625(4) 0.5396(4)
H10 H 0.6451 0.5256 0.5665
C17 C 0.7891(10) 0.6271(4) 0.5772(3)
H11 H 0.7683 0.6335 0.6294
C18 C 1.1098(8) 0.6844(4) 0.6890(3)
C19 C 1.2416(9) 0.6340(4) 0.6574(3)
H12 H 1.2839 0.6429 0.6077
C20 C 1.3129(11) 0.5704(4) 0.6974(4)
H13 H 1.4012 0.5367 0.6747
C21 C 1.2526(10) 0.5572(4) 0.7712(4)
H14 H 1.3008 0.5146 0.7988
C22 C 1.1205(11) 0.6071(5) 0.8044(4)
H15 H 1.0799 0.5977 0.8543
C23 C 1.0481(9) 0.6705(4) 0.7650(3)
H16 H 0.9594 0.7039 0.7880
O1 O 1.0437(6) 0.8950(2) 0.6459(2)
Cl1 Cl 0.9063(3) 0.83641(16) 0.28429(9)
O2 O 0.8003(17) 0.8271(6) 0.3488(4)
O3 O 1.0728(13) 0.8688(13) 0.2976(9)
O4 O 0.922(3) 0.7678(12) 0.2451(14)
O5 O 0.802(2) 0.8744(17) 0.2350(10)
loop_
_geom_bond_atom_site_label_1
_geom_bond_atom_site_label_2
_geom_bond_site_symmetry_1
_geom_bond_site_symmetry_2
Br1 C9 1_555 1_555
C1 C2 1_555 1_555
C2 H1 1_555 1_555
C3 C2 1_555 1_555
C4 C3 1_555 1_555
C5 C4 1_555 1_555
H2 C5 1_555 1_555
C6 C1 1_555 1_555
C7 C6 1_555 1_555
H3 C7 1_555 1_555
C8 C7 1_555 1_555
H4 C8 1_555 1_555
C9 C8 1_555 1_555
C10 C9 1_555 1_555
H5 C10 1_555 1_555
C11 C6 1_555 1_555
H6 C11 1_555 1_555
C12 C3 1_555 1_555
C13 C12 1_555 1_555
H7 C13 1_555 1_555
C14 C13 1_555 1_555
H8 C14 1_555 1_555
C15 C14 1_555 1_555
H9 C15 1_555 1_555
C16 C15 1_555 1_555
H10 C16 1_555 1_555
C17 C12 1_555 1_555
H11 C17 1_555 1_555
C18 C4 1_555 1_555
C19 C18 1_555 1_555
H12 C19 1_555 1_555
C20 C19 1_555 1_555
H13 C20 1_555 1_555
C21 C20 1_555 1_555
H14 C21 1_555 1_555
C22 C21 1_555 1_555
H15 C22 1_555 1_555
C23 C18 1_555 1_555
H16 C23 1_555 1_555
O1 C1 1_555 1_555
Cl1 O2 1_555 1_555
O3 Cl1 1_555 1_555
O4 Cl1 1_555 1_555
O5 Cl1 1_555 1_555
C5 O1 1_555 1_555
C10 C11 1_555 1_555
C16 C17 1_555 1_555
C22 C23 1_555 1_555

#END
