
#######################################################################
#
#                 Cambridge Crystallographic Data Centre
#                                CCDC 
#
#######################################################################
#
# If this CIF has been generated from an entry in the Cambridge 
# Structural Database, then it will include bibliographic, chemical, 
# crystal, experimental, refinement or atomic coordinate data resulting 
# from the CCDC's data processing and validation procedures.
#
#######################################################################

data_GIPBUE
_chemical_formula_moiety         'C24 H16 F3 O1 1+,Cl1 O4 1-'
_chemical_name_systematic        
'2-(4-(trifluoromethyl)phenyl)-4,5-diphenylpyrylium perchlorate'
_symmetry_cell_setting           monoclinic
_symmetry_space_group_name_H-M   'P 21/c'
_symmetry_Int_Tables_number      14
_space_group_name_Hall           '-P 2ybc'
loop_
_symmetry_equiv_pos_site_id
_symmetry_equiv_pos_as_xyz
1 x,y,z
2 -x,1/2+y,1/2-z
3 -x,-y,-z
4 x,1/2-y,1/2+z
_cell_length_a                   15.4147(17)
_cell_length_b                   15.0010(16)
_cell_length_c                   10.2431(9)
_cell_angle_alpha                90
_cell_angle_beta                 106.490(7)
_cell_angle_gamma                90
_cell_volume                     2271.15
_exptl_crystal_colour            yellow
_exptl_crystal_description       block
_cell_formula_units_Z            4
loop_
_atom_site_label
_atom_site_type_symbol
_atom_site_fract_x
_atom_site_fract_y
_atom_site_fract_z
C1 C 0.4889(2) 0.3757(2) 0.7742(3)
C2 C 0.5576(2) 0.3676(2) 0.7132(4)
H1 H 0.5442 0.3491 0.6230
C3 C 0.6467(2) 0.3865(2) 0.7849(3)
C4 C 0.6653(2) 0.4145(3) 0.9213(4)
C5 C 0.5941(3) 0.4198(3) 0.9748(4)
H2 H 0.6050 0.4381 1.0648
C6 C 0.3919(2) 0.3621(2) 0.7104(4)
C7 C 0.3325(3) 0.3567(3) 0.7896(5)
H3 H 0.3544 0.3614 0.8838
C8 C 0.2414(3) 0.3443(4) 0.7294(5)
H4 H 0.2019 0.3395 0.7828
C9 C 0.2094(3) 0.3390(4) 0.5915(5)
C10 C 0.2678(3) 0.3451(4) 0.5104(5)
H5 H 0.2456 0.3412 0.4162
C11 C 0.3597(3) 0.3570(3) 0.5722(4)
H6 H 0.3994 0.3615 0.5190
C12 C 0.1096(4) 0.3269(5) 0.5217(7)
C13 C 0.7190(2) 0.3747(3) 0.7161(4)
C14 C 0.7035(3) 0.4061(4) 0.5840(4)
H7 H 0.6483 0.4322 0.5396
C15 C 0.7712(4) 0.3985(5) 0.5173(6)
H8 H 0.7619 0.4213 0.4300
C16 C 0.8510(3) 0.3571(5) 0.5821(6)
H9 H 0.8950 0.3498 0.5369
C17 C 0.8668(3) 0.3265(4) 0.7119(7)
H10 H 0.9220 0.3000 0.7548
C18 C 0.8009(3) 0.3344(3) 0.7822(5)
H11 H 0.8119 0.3131 0.8707
C19 C 0.7557(2) 0.4450(3) 1.0068(4)
C20 C 0.8019(3) 0.5118(3) 0.9631(5)
H12 H 0.7752 0.5405 0.8811
C21 C 0.8875(3) 0.5367(4) 1.0402(6)
H13 H 0.9190 0.5806 1.0083
C22 C 0.9257(3) 0.4970(5) 1.1627(6)
H14 H 0.9832 0.5140 1.2145
C23 C 0.8798(4) 0.4324(5) 1.2093(6)
H15 H 0.9055 0.4062 1.2938
C24 C 0.7950(3) 0.4057(4) 1.1310(4)
H16 H 0.7644 0.3610 1.1626
F1 F 0.0685(2) 0.2807(4) 0.5963(6)
F2 F 0.0657(2) 0.4029(4) 0.5100(5)
F3 F 0.0893(2) 0.2911(4) 0.4080(5)
O1 O 0.50878(16) 0.39978(19) 0.9036(2)
Cl1 Cl 0.48607(10) 0.37211(8) 0.27374(12)
O2 O 0.5527(4) 0.4360(3) 0.2777(5)
O3 O 0.5109(2) 0.3062(2) 0.3771(3)
O4 O 0.4064(6) 0.4138(5) 0.2820(9)
O5 O 0.4630(5) 0.3325(4) 0.1461(4)
loop_
_geom_bond_atom_site_label_1
_geom_bond_atom_site_label_2
_geom_bond_site_symmetry_1
_geom_bond_site_symmetry_2
C1 C2 1_555 1_555
C2 H1 1_555 1_555
C3 C2 1_555 1_555
C4 C3 1_555 1_555
C5 C4 1_555 1_555
H2 C5 1_555 1_555
C6 C1 1_555 1_555
C7 C6 1_555 1_555
H3 C7 1_555 1_555
C8 C7 1_555 1_555
H4 C8 1_555 1_555
C9 C8 1_555 1_555
C10 C9 1_555 1_555
H5 C10 1_555 1_555
C11 C6 1_555 1_555
H6 C11 1_555 1_555
C12 C9 1_555 1_555
C13 C3 1_555 1_555
C14 C13 1_555 1_555
H7 C14 1_555 1_555
C15 C14 1_555 1_555
H8 C15 1_555 1_555
C16 C15 1_555 1_555
H9 C16 1_555 1_555
C17 C16 1_555 1_555
H10 C17 1_555 1_555
C18 C13 1_555 1_555
H11 C18 1_555 1_555
C19 C4 1_555 1_555
C20 C19 1_555 1_555
H12 C20 1_555 1_555
C21 C20 1_555 1_555
H13 C21 1_555 1_555
C22 C21 1_555 1_555
H14 C22 1_555 1_555
C23 C22 1_555 1_555
H15 C23 1_555 1_555
C24 C19 1_555 1_555
H16 C24 1_555 1_555
F1 C12 1_555 1_555
F2 C12 1_555 1_555
F3 C12 1_555 1_555
O1 C1 1_555 1_555
Cl1 O2 1_555 1_555
O3 Cl1 1_555 1_555
O4 Cl1 1_555 1_555
O5 Cl1 1_555 1_555
C5 O1 1_555 1_555
C10 C11 1_555 1_555
C17 C18 1_555 1_555
C23 C24 1_555 1_555

#END
