
#######################################################################
#
#                 Cambridge Crystallographic Data Centre
#                                CCDC 
#
#######################################################################
#
# If this CIF has been generated from an entry in the Cambridge 
# Structural Database, then it will include bibliographic, chemical, 
# crystal, experimental, refinement or atomic coordinate data resulting 
# from the CCDC's data processing and validation procedures.
#
#######################################################################

data_GIPFUG
_chemical_formula_moiety         'C7 H11 Cl1 O1'
_chemical_name_systematic        3-Chloro-2-methyl-cyclohex-2-en-1-ol
_symmetry_cell_setting           tetragonal
_symmetry_space_group_name_H-M   'I 41/a'
_symmetry_Int_Tables_number      88
_space_group_name_Hall           '-I 4ad'
loop_
_symmetry_equiv_pos_site_id
_symmetry_equiv_pos_as_xyz
1 x,y,z
2 1/2+x,1/2+y,1/2+z
3 3/4-y,1/4+x,1/4+z
4 1/4-y,3/4+x,3/4+z
5 1/2-x,-y,1/2+z
6 -x,1/2-y,z
7 3/4+y,3/4-x,3/4+z
8 1/4+y,1/4-x,1/4+z
9 -x,-y,-z
10 1/2-x,1/2-y,1/2-z
11 1/4+y,3/4-x,3/4-z
12 3/4+y,1/4-x,1/4-z
13 1/2+x,y,1/2-z
14 x,1/2+y,-z
15 1/4-y,1/4+x,1/4-z
16 3/4-y,3/4+x,3/4-z
_cell_length_a                   19.807(3)
_cell_length_b                   19.807(3)
_cell_length_c                   7.819(1)
_cell_angle_alpha                90
_cell_angle_beta                 90
_cell_angle_gamma                90
_cell_volume                     3067.53
_cell_formula_units_Z            16
loop_
_atom_site_label
_atom_site_type_symbol
_atom_site_fract_x
_atom_site_fract_y
_atom_site_fract_z
Cl1 Cl 0.3568(1) 0.2877(1) 0.4407(1)
C1 C 0.3377(2) 0.3142(2) 0.2318(4)
C2 C 0.2810(2) 0.3465(2) 0.2014(4)
C3 C 0.2298(2) 0.3664(2) 0.3350(4)
C4 C 0.2637(2) 0.3655(2) 0.0201(4)
O1 O 0.2723(1) 0.4374(1) 0.0040(2)
C5 C 0.3054(2) 0.3281(2) -0.1107(4)
C6 C 0.3786(2) 0.3301(2) -0.0656(5)
C7 C 0.3905(2) 0.2945(2) 0.1048(5)
H1 H 0.1925 0.3896 0.2799
H2 H 0.2501 0.3966 0.4162
H3 H 0.2130 0.3274 0.3926
H4 H 0.2076 0.3574 -0.0002
H5 H 0.2422 0.4635 -0.0881
H6 H 0.2961 0.3483 -0.2292
H7 H 0.2835 0.2708 -0.1181
H8 H 0.4055 0.3024 -0.1672
H9 H 0.3959 0.3876 -0.0538
H10 H 0.3994 0.2427 0.0924
H11 H 0.4433 0.3102 0.1452
H12? H 0.2446 0.3493 0.4571
H13? H 0.2248 0.4210 0.3281
H14? H 0.1849 0.3411 0.2972
loop_
_geom_bond_atom_site_label_1
_geom_bond_atom_site_label_2
_geom_bond_site_symmetry_1
_geom_bond_site_symmetry_2
Cl1 C1 1_555 1_555
C1 C2 1_555 1_555
C2 C3 1_555 1_555
C3 H1 1_555 1_555
C4 C2 1_555 1_555
O1 C4 1_555 1_555
C5 C4 1_555 1_555
C6 C5 1_555 1_555
C7 C1 1_555 1_555
H2 C3 1_555 1_555
H3 C3 1_555 1_555
H4 C4 1_555 1_555
H5 O1 1_555 1_555
H6 C5 1_555 1_555
H7 C5 1_555 1_555
H8 C6 1_555 1_555
H9 C6 1_555 1_555
H10 C7 1_555 1_555
H11 C7 1_555 1_555
C6 C7 1_555 1_555

#END
