
#######################################################################
#
#                 Cambridge Crystallographic Data Centre
#                                CCDC 
#
#######################################################################
#
# If this CIF has been generated from an entry in the Cambridge 
# Structural Database, then it will include bibliographic, chemical, 
# crystal, experimental, refinement or atomic coordinate data resulting 
# from the CCDC's data processing and validation procedures.
#
#######################################################################

data_GIPFIX
_chemical_formula_moiety         'C36 H26 S2'
_chemical_name_systematic        5,5'-bis(2,2-diphenylvinyl)-2,2'-bithiophene
_symmetry_cell_setting           monoclinic
_symmetry_space_group_name_H-M   'P 21/c'
_symmetry_Int_Tables_number      14
_space_group_name_Hall           '-P 2ybc'
loop_
_symmetry_equiv_pos_site_id
_symmetry_equiv_pos_as_xyz
1 x,y,z
2 -x,1/2+y,1/2-z
3 -x,-y,-z
4 x,1/2-y,1/2+z
_cell_length_a                   13.857(5)
_cell_length_b                   10.552(7)
_cell_length_c                   9.398(7)
_cell_angle_alpha                90
_cell_angle_beta                 98.32(2)
_cell_angle_gamma                90
_cell_volume                     1359.7
_exptl_crystal_colour            colorless
_exptl_crystal_description       block
_cell_formula_units_Z            2
loop_
_atom_site_label
_atom_site_type_symbol
_atom_site_fract_x
_atom_site_fract_y
_atom_site_fract_z
S1 S 0.39137(3) -0.02267(5) 0.14552(5)
C1 C 0.22241(11) -0.04501(15) 0.32329(16)
C2 C 0.27715(11) 0.04400(15) 0.42793(17)
C3 C 0.16700(12) -0.00336(17) 0.19700(18)
H1 H 0.1637 0.0828 0.1759
C4 C 0.49046(12) 0.02719(17) 0.0669(2)
C5 C 0.13046(12) 0.08164(17) 0.54912(18)
H2 H 0.0916 0.0629 0.4625
C6 C 0.41898(12) 0.07882(17) 0.2900(2)
C7 C 0.22485(12) -0.17397(16) 0.35240(18)
H3 H 0.2611 -0.2035 0.4370
C8 C 0.36323(12) 0.09446(17) 0.40824(19)
H4 H 0.3914 0.1476 0.4816
C9 C 0.23145(11) 0.07606(15) 0.55714(17)
C10 C 0.14258(16) 0.13970(18) 0.79653(19)
H5 H 0.1133 0.1612 0.8762
C11 C 0.53981(13) 0.1186(2) 0.1489(2)
H6 H 0.5947 0.1588 0.1240
C12 C 0.12058(14) -0.2160(2) 0.1340(2)
H7 H 0.0862 -0.2732 0.0704
C13 C 0.08661(14) 0.11452(18) 0.66724(18)
H8 H 0.0190 0.1195 0.6588
C14 C 0.17448(14) -0.25904(18) 0.2580(2)
H9 H 0.1771 -0.3453 0.2786
C15 C 0.50060(13) 0.1470(2) 0.2745(2)
H10 H 0.5277 0.2068 0.3413
C16 C 0.28674(14) 0.10182(18) 0.68961(19)
H11 H 0.3544 0.0981 0.6991
C17 C 0.24203(17) 0.13286(18) 0.80730(19)
H12 H 0.2801 0.1494 0.8952
C18 C 0.11693(13) -0.0884(2) 0.10278(19)
H13 H 0.0806 -0.0597 0.0179
S1B S 0.60863(3) 0.02267(5) -0.14552(5)
C1B C 0.77759(11) 0.04501(15) -0.32329(16)
C2B C 0.72285(11) -0.04400(15) -0.42793(17)
C3B C 0.83300(12) 0.00336(17) -0.19700(18)
H1B H 0.8363 -0.0828 -0.1759
C4B C 0.50954(12) -0.02719(17) -0.0669(2)
C5B C 0.86954(12) -0.08164(17) -0.54912(18)
H2B H 0.9084 -0.0629 -0.4625
C6B C 0.58102(12) -0.07882(17) -0.2900(2)
C7B C 0.77515(12) 0.17397(16) -0.35240(18)
H3B H 0.7389 0.2035 -0.4370
C8B C 0.63677(12) -0.09446(17) -0.40824(19)
H4B H 0.6086 -0.1476 -0.4816
C9B C 0.76855(11) -0.07606(15) -0.55714(17)
C10B C 0.85742(16) -0.13970(18) -0.79653(19)
H5B H 0.8867 -0.1612 -0.8762
C11B C 0.46019(13) -0.1186(2) -0.1489(2)
H6B H 0.4053 -0.1588 -0.1240
C12B C 0.87942(14) 0.2160(2) -0.1340(2)
H7B H 0.9138 0.2732 -0.0704
C13B C 0.91339(14) -0.11452(18) -0.66724(18)
H8B H 0.9810 -0.1195 -0.6588
C14B C 0.82552(14) 0.25904(18) -0.2580(2)
H9B H 0.8229 0.3453 -0.2786
C15B C 0.49940(13) -0.1470(2) -0.2745(2)
H10B H 0.4723 -0.2068 -0.3413
C16B C 0.71326(14) -0.10182(18) -0.68961(19)
H11B H 0.6456 -0.0981 -0.6991
C17B C 0.75797(17) -0.13286(18) -0.80730(19)
H12B H 0.7199 -0.1494 -0.8952
C18B C 0.88307(13) 0.0884(2) -0.10278(19)
H13B H 0.9194 0.0597 -0.0179
loop_
_geom_bond_atom_site_label_1
_geom_bond_atom_site_label_2
_geom_bond_site_symmetry_1
_geom_bond_site_symmetry_2
S1 C4 1_555 1_555
C1 C2 1_555 1_555
C2 C8 1_555 1_555
C3 C1 1_555 1_555
H1 C3 1_555 1_555
C4 C11 1_555 1_555
C5 H2 1_555 1_555
C6 S1 1_555 1_555
C7 C1 1_555 1_555
H3 C7 1_555 1_555
C8 C6 1_555 1_555
H4 C8 1_555 1_555
C9 C2 1_555 1_555
C10 H5 1_555 1_555
C11 H6 1_555 1_555
C12 H7 1_555 1_555
C13 C5 1_555 1_555
H8 C13 1_555 1_555
C14 C7 1_555 1_555
H9 C14 1_555 1_555
C15 C6 1_555 1_555
H10 C15 1_555 1_555
C16 C9 1_555 1_555
H11 C16 1_555 1_555
C17 C10 1_555 1_555
H12 C17 1_555 1_555
C18 C3 1_555 1_555
H13 C18 1_555 1_555
S1B C4B 1_555 1_555
C1B C2B 1_555 1_555
C2B C8B 1_555 1_555
C3B C1B 1_555 1_555
H1B C3B 1_555 1_555
C4B C4 1_555 1_555
C5B H2B 1_555 1_555
C6B S1B 1_555 1_555
C7B C1B 1_555 1_555
H3B C7B 1_555 1_555
C8B C6B 1_555 1_555
H4B C8B 1_555 1_555
C9B C2B 1_555 1_555
C10B H5B 1_555 1_555
C11B C4B 1_555 1_555
H6B C11B 1_555 1_555
C12B H7B 1_555 1_555
C13B C5B 1_555 1_555
H8B C13B 1_555 1_555
C14B C7B 1_555 1_555
H9B C14B 1_555 1_555
C15B C6B 1_555 1_555
H10B C15B 1_555 1_555
C16B C9B 1_555 1_555
H11B C16B 1_555 1_555
C17B C10B 1_555 1_555
H12B C17B 1_555 1_555
C18B C3B 1_555 1_555
H13B C18B 1_555 1_555
C5 C9 1_555 1_555
C10 C13 1_555 1_555
C11 C15 1_555 1_555
C12 C14 1_555 1_555
C12 C18 1_555 1_555
C16 C17 1_555 1_555
C5B C9B 1_555 1_555
C10B C13B 1_555 1_555
C11B C15B 1_555 1_555
C12B C14B 1_555 1_555
C12B C18B 1_555 1_555
C16B C17B 1_555 1_555

#END
