
#######################################################################
#
#                 Cambridge Crystallographic Data Centre
#                                CCDC 
#
#######################################################################
#
# If this CIF has been generated from an entry in the Cambridge 
# Structural Database, then it will include bibliographic, chemical, 
# crystal, experimental, refinement or atomic coordinate data resulting 
# from the CCDC's data processing and validation procedures.
#
#######################################################################

data_GIPJUM
_chemical_formula_moiety         'C19 H8 F4 N4,H2 O1'
_chemical_name_systematic        
'2-(2,3,4,5-Tetrafluorophenyl)-1H-imidazo[4,5-b]phenazine monohydrate'
_symmetry_cell_setting           triclinic
_symmetry_space_group_name_H-M   'P -1'
_symmetry_Int_Tables_number      2
_space_group_name_Hall           '-P 1'
loop_
_symmetry_equiv_pos_site_id
_symmetry_equiv_pos_as_xyz
1 x,y,z
2 -x,-y,-z
_cell_length_a                   7.1893(17)
_cell_length_b                   7.2208(17)
_cell_length_c                   16.355(4)
_cell_angle_alpha                97.566(4)
_cell_angle_beta                 95.145(4)
_cell_angle_gamma                105.390(4)
_cell_volume                     804.53
_cell_formula_units_Z            2
loop_
_atom_site_label
_atom_site_type_symbol
_atom_site_fract_x
_atom_site_fract_y
_atom_site_fract_z
C1 C 0.6446(8) 0.4181(8) 0.4163(3)
N1 N 0.5433(6) 0.3221(6) 0.3409(3)
H1 H 0.4934 0.1983 0.3273
F1 F 0.3456(7) 0.6851(6) 0.0428(3)
C2 C 0.6954(8) 0.3545(8) 0.4875(3)
H2 H 0.6613 0.2227 0.4914
N2 N 0.8553(6) 0.4377(7) 0.6262(3)
F2 F 0.1859(7) 0.3185(7) -0.0390(2)
C3 C 0.8018(7) 0.4961(8) 0.5552(3)
N3 N 0.9509(7) 0.8386(6) 0.6111(3)
F3 F 0.1977(6) 0.0151(6) 0.0408(3)
C4 C 0.9559(8) 0.5759(9) 0.6892(4)
N4 N 0.6230(7) 0.6373(7) 0.3290(3)
F4 F 0.3571(6) 0.0757(6) 0.1966(2)
C5 C 1.0200(9) 0.5262(10) 0.7663(4)
H3 H 0.9929 0.3959 0.7726
C6 C 1.1188(9) 0.6646(12) 0.8299(4)
H4 H 1.1591 0.6290 0.8796
C7 C 1.1617(9) 0.8604(11) 0.8223(4)
H5 H 1.2272 0.9535 0.8678
C8 C 1.1109(9) 0.9193(10) 0.7507(4)
H6 H 1.1449 1.0512 0.7469
C9 C 1.0047(8) 0.7787(9) 0.6804(4)
C10 C 0.8524(8) 0.6996(8) 0.5477(4)
C11 C 0.7966(8) 0.7581(8) 0.4729(3)
H7 H 0.8284 0.8892 0.4676
C12 C 0.6941(8) 0.6178(8) 0.4077(4)
C13 C 0.5361(8) 0.4591(8) 0.2911(3)
C14 C 0.4415(8) 0.4168(9) 0.2058(3)
C15 C 0.4369(9) 0.5748(10) 0.1643(4)
H8 H 0.4920 0.7026 0.1906
C16 C 0.3480(10) 0.5329(11) 0.0835(4)
C17 C 0.2699(10) 0.3493(11) 0.0401(4)
C18 C 0.2741(9) 0.1984(10) 0.0806(4)
C19 C 0.3583(9) 0.2324(9) 0.1612(4)
O1 O 0.4198(7) -0.0662(6) 0.3509(3)
H9 H 0.3081 -0.1241 0.3529
H10 H 0.4532 -0.2033 0.3065
loop_
_geom_bond_atom_site_label_1
_geom_bond_atom_site_label_2
_geom_bond_site_symmetry_1
_geom_bond_site_symmetry_2
C1 N1 1_555 1_555
N1 H1 1_555 1_555
F1 C16 1_555 1_555
C2 C1 1_555 1_555
H2 C2 1_555 1_555
N2 C3 1_555 1_555
F2 C17 1_555 1_555
C3 C2 1_555 1_555
N3 C9 1_555 1_555
F3 C18 1_555 1_555
C4 N2 1_555 1_555
N4 C12 1_555 1_555
F4 C19 1_555 1_555
C5 C4 1_555 1_555
H3 C5 1_555 1_555
C6 C5 1_555 1_555
H4 C6 1_555 1_555
C7 C6 1_555 1_555
H5 C7 1_555 1_555
C8 C7 1_555 1_555
H6 C8 1_555 1_555
C9 C4 1_555 1_555
C10 C3 1_555 1_555
C11 C10 1_555 1_555
H7 C11 1_555 1_555
C12 C1 1_555 1_555
C13 N1 1_555 1_555
C14 C13 1_555 1_555
C15 C14 1_555 1_555
H8 C15 1_555 1_555
C16 C15 1_555 1_555
C17 C16 1_555 1_555
C18 C17 1_555 1_555
C19 C14 1_555 1_555
O1 H9 1_555 1_555
H10 O1 1_555 1_555
N3 C10 1_555 1_555
N4 C13 1_555 1_555
C8 C9 1_555 1_555
C11 C12 1_555 1_555
C18 C19 1_555 1_555

#END
