
#######################################################################
#
#                 Cambridge Crystallographic Data Centre
#                                CCDC 
#
#######################################################################
#
# If this CIF has been generated from an entry in the Cambridge 
# Structural Database, then it will include bibliographic, chemical, 
# crystal, experimental, refinement or atomic coordinate data resulting 
# from the CCDC's data processing and validation procedures.
#
#######################################################################

data_GIPKIC
_chemical_formula_moiety         'C17 H19 N1 O5'
_chemical_name_systematic        
3-acetyl-7-[2-(morpholin-4-yl)ethoxy]-2H-1-benzopyran-2-one
_symmetry_cell_setting           monoclinic
_symmetry_space_group_name_H-M   'P 21/c'
_symmetry_Int_Tables_number      14
_space_group_name_Hall           '-P 2ybc'
loop_
_symmetry_equiv_pos_site_id
_symmetry_equiv_pos_as_xyz
1 x,y,z
2 -x,1/2+y,1/2-z
3 -x,-y,-z
4 x,1/2-y,1/2+z
_cell_length_a                   8.4620(14)
_cell_length_b                   16.243(3)
_cell_length_c                   11.477(2)
_cell_angle_alpha                90
_cell_angle_beta                 93.091(2)
_cell_angle_gamma                90
_cell_volume                     1575.2
_exptl_crystal_colour            yellow
_exptl_crystal_description       block
_cell_formula_units_Z            4
loop_
_atom_site_label
_atom_site_type_symbol
_atom_site_fract_x
_atom_site_fract_y
_atom_site_fract_z
O1 O 0.78260(11) 1.00250(6) 1.05321(8)
C1 C 0.62360(15) 1.09671(8) 1.16169(12)
C2 C 0.71768(15) 1.03229(8) 0.94956(11)
C3 C 0.60334(15) 1.09440(8) 0.94933(12)
O2 O 0.73725(13) 0.99507(6) 0.63799(8)
C4 C 0.55908(16) 1.12462(8) 1.05895(12)
H1 H 0.4822 1.1655 1.0601
C5 C 0.74346(16) 1.03202(9) 1.16160(12)
C6 C 0.76948(15) 0.99760(8) 0.84890(11)
H2 H 0.8468 0.9568 0.8518
C7 C 0.70248(16) 1.02551(8) 0.74304(12)
O3 O 0.81172(13) 0.99990(7) 1.24383(9)
N1 N 0.94110(13) 0.82784(7) 0.49385(10)
O4 O 0.46331(15) 1.18477(7) 1.26493(11)
O5 O 1.02784(15) 0.67139(7) 0.40415(11)
C8 C 0.54063(18) 1.12231(9) 0.84065(13)
H3 H 0.4653 1.1640 0.8375
C9 C 0.56956(17) 1.13410(9) 1.27201(13)
C10 C 0.58914(18) 1.08882(9) 0.73952(13)
H4 H 0.5470 1.1080 0.6680
C11 C 0.84068(16) 0.92492(9) 0.63441(12)
H5 H 0.8035 0.8809 0.6830
H6 H 0.9473 0.9397 0.6619
C12 C 0.83778(18) 0.89834(10) 0.50911(12)
H7 H 0.7304 0.8840 0.4830
H8 H 0.8716 0.9437 0.4615
C13 C 0.8765(2) 0.75130(9) 0.53613(15)
H9 H 0.7783 0.7386 0.4923
H10 H 0.8538 0.7571 0.6177
C14 C 0.6433(2) 1.11053(14) 1.38787(15)
H11 H 0.5949 1.1412 1.4479
H12 H 0.7545 1.1225 1.3899
H13 H 0.6281 1.0527 1.4005
C15 C 0.9933(2) 0.68219(10) 0.52273(17)
H14 H 1.0902 0.6944 0.5685
H15 H 0.9498 0.6315 0.5523
C16 C 0.9760(2) 0.81673(11) 0.37205(15)
H16 H 1.0234 0.8665 0.3429
H17 H 0.8787 0.8063 0.3258
C17 C 1.0882(2) 0.74535(11) 0.36046(16)
H18 H 1.1090 0.7380 0.2788
H19 H 1.1879 0.7580 0.4023
loop_
_geom_bond_atom_site_label_1
_geom_bond_atom_site_label_2
_geom_bond_site_symmetry_1
_geom_bond_site_symmetry_2
O1 C2 1_555 1_555
C1 C4 1_555 1_555
C2 C3 1_555 1_555
C3 C4 1_555 1_555
O2 C7 1_555 1_555
C4 H1 1_555 1_555
C5 O1 1_555 1_555
C6 C2 1_555 1_555
H2 C6 1_555 1_555
C7 C6 1_555 1_555
O3 C5 1_555 1_555
N1 C12 1_555 1_555
O4 C9 1_555 1_555
O5 C15 1_555 1_555
C8 C3 1_555 1_555
H3 C8 1_555 1_555
C9 C1 1_555 1_555
C10 C7 1_555 1_555
H4 C10 1_555 1_555
C11 O2 1_555 1_555
H5 C11 1_555 1_555
H6 C11 1_555 1_555
C12 C11 1_555 1_555
H7 C12 1_555 1_555
H8 C12 1_555 1_555
C13 N1 1_555 1_555
H9 C13 1_555 1_555
H10 C13 1_555 1_555
C14 C9 1_555 1_555
H11 C14 1_555 1_555
H12 C14 1_555 1_555
H13 C14 1_555 1_555
C15 C13 1_555 1_555
H14 C15 1_555 1_555
H15 C15 1_555 1_555
C16 N1 1_555 1_555
H16 C16 1_555 1_555
H17 C16 1_555 1_555
C17 O5 1_555 1_555
H18 C17 1_555 1_555
H19 C17 1_555 1_555
C1 C5 1_555 1_555
C8 C10 1_555 1_555
C16 C17 1_555 1_555

#END
