
#######################################################################
#
#                 Cambridge Crystallographic Data Centre
#                                CCDC 
#
#######################################################################
#
# If this CIF has been generated from an entry in the Cambridge 
# Structural Database, then it will include bibliographic, chemical, 
# crystal, experimental, refinement or atomic coordinate data resulting 
# from the CCDC's data processing and validation procedures.
#
#######################################################################

data_GIPXIN
_chemical_formula_moiety         'C25 H14 Cl3 F1 N4 O1 S1'
_chemical_name_systematic        
2-(2,4-dichloro-5-fluorobenzoyl)-3-(4-chlorophenyl)-4-(1,2,4-triazole-1-yl)-5-anilinothiophene
_chemical_properties_biological  
'low fungicidal activity and some plant growth regulativity'
_symmetry_cell_setting           monoclinic
_symmetry_space_group_name_H-M   'P 21/c'
_symmetry_Int_Tables_number      14
_space_group_name_Hall           '-P 2ybc'
loop_
_symmetry_equiv_pos_site_id
_symmetry_equiv_pos_as_xyz
1 x,y,z
2 -x,1/2+y,1/2-z
3 -x,-y,-z
4 x,1/2-y,1/2+z
_cell_length_a                   14.665(3)
_cell_length_b                   7.5437(15)
_cell_length_c                   22.891(5)
_cell_angle_alpha                90
_cell_angle_beta                 105.98(3)
_cell_angle_gamma                90
_cell_volume                     2434.54
_cell_formula_units_Z            4
loop_
_atom_site_label
_atom_site_type_symbol
_atom_site_fract_x
_atom_site_fract_y
_atom_site_fract_z
Cl1 Cl -0.4417(1) 0.9327(2) 0.0879(1)
Cl2 Cl -0.2536(1) 0.7073(1) 0.3110(1)
Cl3 Cl -0.4673(1) 1.3851(1) 0.2201(1)
S1 S 0.0748(1) 0.9110(1) 0.3700(1)
F1 F -0.2514(2) 0.9988(3) 0.0771(1)
O1 O -0.0218(2) 0.6868(4) 0.2721(1)
N1 N -0.0516(2) 1.3127(5) 0.4226(1)
N2 N -0.1094(2) 1.5355(4) 0.4597(1)
N3 N -0.0216(4) 1.5003(7) 0.3945(2)
N4 N 0.1353(1) 1.1482(3) 0.4626(1)
C1 C 0.0654(2) 1.0885(4) 0.4149(1)
C2 C -0.0234(2) 1.1655(4) 0.3939(1)
C3 C -0.0835(2) 1.0871(3) 0.3417(1)
C4 C -0.0402(2) 0.9418(4) 0.3238(1)
C5 C -0.0719(2) 0.8128(4) 0.2765(1)
C6 C -0.1658(2) 0.8363(4) 0.2303(1)
C7 C -0.2515(2) 0.7918(4) 0.2414(1)
C8 C -0.3375(2) 0.8196(4) 0.1973(1)
C9 C -0.3371(2) 0.8887(4) 0.1426(2)
C10 C -0.2509(2) 0.9262(4) 0.1318(1)
C11 C -0.1666(2) 0.9016(4) 0.1740(2)
C12 C 0.2286(2) 1.0897(4) 0.4879(1)
C13 C 0.2652(2) 0.9321(5) 0.4726(2)
C14 C 0.3578(2) 0.8847(6) 0.5013(2)
C15 C 0.4140(2) 0.9864(5) 0.5443(2)
C16 C 0.3781(2) 1.1378(5) 0.5606(1)
C17 C 0.2863(2) 1.1893(4) 0.5332(1)
C18 C -0.1791(2) 1.1602(3) 0.3117(1)
C19 C -0.1963(2) 1.2431(4) 0.2558(1)
C20 C -0.2844(2) 1.3119(4) 0.2277(1)
C21 C -0.3555(2) 1.2987(4) 0.2555(1)
C22 C -0.3401(2) 1.2202(4) 0.3115(1)
C23 C -0.2514(2) 1.1525(4) 0.3396(1)
C24 C -0.0945(4) 1.3617(13) 0.4541(4)
C25 C -0.0615(5) 1.6076(10) 0.4232(3)
loop_
_geom_bond_atom_site_label_1
_geom_bond_atom_site_label_2
_geom_bond_site_symmetry_1
_geom_bond_site_symmetry_2
Cl1 C9 1_555 1_555
Cl2 C7 1_555 1_555
Cl3 C21 1_555 1_555
S1 C1 1_555 1_555
F1 C10 1_555 1_555
O1 C5 1_555 1_555
N1 N3 1_555 1_555
N2 C24 1_555 1_555
N3 C25 1_555 1_555
N4 C1 1_555 1_555
C1 C2 1_555 1_555
C2 N1 1_555 1_555
C3 C2 1_555 1_555
C4 S1 1_555 1_555
C5 C4 1_555 1_555
C6 C5 1_555 1_555
C7 C6 1_555 1_555
C8 C7 1_555 1_555
C9 C8 1_555 1_555
C10 C9 1_555 1_555
C11 C6 1_555 1_555
C12 N4 1_555 1_555
C13 C12 1_555 1_555
C14 C13 1_555 1_555
C15 C14 1_555 1_555
C16 C15 1_555 1_555
C17 C12 1_555 1_555
C18 C3 1_555 1_555
C19 C18 1_555 1_555
C20 C19 1_555 1_555
C21 C20 1_555 1_555
C22 C21 1_555 1_555
C23 C18 1_555 1_555
C24 N1 1_555 1_555
C25 N2 1_555 1_555
C3 C4 1_555 1_555
C10 C11 1_555 1_555
C16 C17 1_555 1_555
C22 C23 1_555 1_555

#END
