
#######################################################################
#
#                 Cambridge Crystallographic Data Centre
#                                CCDC 
#
#######################################################################
#
# If this CIF has been generated from an entry in the Cambridge 
# Structural Database, then it will include bibliographic, chemical, 
# crystal, experimental, refinement or atomic coordinate data resulting 
# from the CCDC's data processing and validation procedures.
#
#######################################################################

data_GIQGUL
_chemical_formula_moiety         'C31 H21 Cl2 F3 O5'
_chemical_name_systematic        
'2,6-dichlorophenyl 4-(4-methoxyphenyl)-4-oxo-2-phenyl-2-[4-(trifluoromethyl)benzene-1-carbonyl]butanoate'
_symmetry_cell_setting           monoclinic
_symmetry_space_group_name_H-M   'P 21/n'
_symmetry_Int_Tables_number      14
_space_group_name_Hall           '-P 2yn'
loop_
_symmetry_equiv_pos_site_id
_symmetry_equiv_pos_as_xyz
1 x,y,z
2 1/2-x,1/2+y,1/2-z
3 -x,-y,-z
4 1/2+x,1/2-y,1/2+z
_cell_length_a                   10.622(2)
_cell_length_b                   25.991(5)
_cell_length_c                   19.735(4)
_cell_angle_alpha                90
_cell_angle_beta                 97.75(3)
_cell_angle_gamma                90
_cell_volume                     5398.6
_exptl_crystal_colour            colorless
_exptl_crystal_description       block
_cell_formula_units_Z            8
loop_
_atom_site_label
_atom_site_type_symbol
_atom_site_fract_x
_atom_site_fract_y
_atom_site_fract_z
Cl1 Cl 0.76982(8) 0.46817(4) 0.81893(5)
Cl2 Cl 1.23222(9) 0.52623(4) 0.77005(5)
F1 F 0.3816(8) 0.5415(6) 1.0611(7)
F2 F 0.4817(12) 0.6024(4) 1.1152(7)
F3 F 0.5425(14) 0.5259(7) 1.1334(8)
O1 O 1.0386(2) 0.52299(8) 0.92222(11)
O2 O 0.9805(2) 0.54080(8) 0.81060(10)
O3 O 0.7532(2) 0.62110(10) 0.81960(11)
O4 O 1.2141(2) 0.62021(9) 0.86862(12)
O5 O 1.3409(2) 0.79476(10) 0.66494(13)
C1 C 1.0011(3) 0.55319(12) 0.87916(15)
C2 C 0.9572(3) 0.60883(12) 0.88655(15)
C3 C 0.8082(3) 0.60663(12) 0.87405(16)
C4 C 0.7332(3) 0.58987(12) 0.92938(16)
C5 C 0.7833(3) 0.56243(12) 0.98750(16)
H1 H 0.8697 0.5519 0.9932
C6 C 0.7063(3) 0.55056(13) 1.03721(17)
H2 H 0.7400 0.5316 1.0767
C7 C 0.5803(3) 0.56644(14) 1.02888(18)
C8 C 0.5293(3) 0.59264(15) 0.9706(2)
H3 H 0.4426 0.6028 0.9645
C9 C 0.6055(3) 0.60394(13) 0.92133(18)
H4 H 0.5703 0.6217 0.8811
C10 C 0.4983(3) 0.55732(15) 1.0834(2)
C11 C 1.0014(3) 0.63400(12) 0.95626(15)
C12 C 1.1017(3) 0.61664(13) 1.00338(16)
H5 H 1.1458 0.5861 0.9946
C13 C 1.1370(3) 0.64397(13) 1.06314(17)
H6 H 1.2047 0.6316 1.0954
C14 C 1.0759(3) 0.68878(13) 1.07671(17)
H7 H 1.1011 0.7071 1.1179
C15 C 0.9772(3) 0.70687(13) 1.02963(17)
H8 H 0.9347 0.7378 1.0384
C16 C 0.9408(3) 0.67977(12) 0.96999(16)
H9 H 0.8734 0.6925 0.9378
C17 C 0.9988(3) 0.64331(12) 0.82963(16)
H10 H 0.9626 0.6291 0.7846
H11 H 0.9627 0.6781 0.8336
C18 C 1.1412(3) 0.64799(12) 0.83176(16)
C19 C 1.1888(3) 0.68703(12) 0.78639(16)
C20 C 1.1094(3) 0.72127(13) 0.74707(17)
H12 H 1.0204 0.7194 0.7482
C21 C 1.1557(3) 0.75790(13) 0.70643(18)
H13 H 1.0994 0.7812 0.6806
C22 C 1.2846(3) 0.76041(13) 0.70354(17)
C23 C 1.3657(3) 0.72589(15) 0.7412(2)
H14 H 1.4543 0.7271 0.7387
C24 C 1.3181(3) 0.69007(14) 0.78209(19)
H15 H 1.3747 0.6669 0.8080
C25 C 1.2617(4) 0.83163(15) 0.6262(2)
H16 H 1.2031 0.8139 0.5912
H17 H 1.3145 0.8556 0.6041
H18 H 1.2129 0.8507 0.6567
C26 C 1.0051(3) 0.49037(12) 0.79213(15)
C27 C 0.9132(3) 0.45268(12) 0.79170(16)
C28 C 0.9334(3) 0.40378(13) 0.76740(17)
H19 H 0.8699 0.3780 0.7672
C29 C 1.0470(4) 0.39294(14) 0.74347(18)
H20 H 1.0612 0.3596 0.7264
C30 C 1.1402(3) 0.43007(15) 0.74408(18)
H21 H 1.2181 0.4223 0.7277
C31 C 1.1188(3) 0.47853(14) 0.76880(17)
Cl3 Cl 0.34772(7) 0.50620(3) 0.53397(4)
Cl4 Cl 0.64726(8) 0.67326(3) 0.58408(4)
O6 O 0.3775(2) 0.67055(8) 0.49581(11)
O7 O 0.48603(19) 0.59579(8) 0.49624(10)
O8 O 0.5746(2) 0.58521(8) 0.33461(11)
O9 O 0.1674(2) 0.60559(8) 0.42498(12)
O10 O -0.0382(2) 0.37844(9) 0.36423(13)
C32 C 0.4177(3) 0.63637(11) 0.46482(15)
C33 C 0.4102(3) 0.62699(11) 0.38760(15)
C34 C 0.5489(3) 0.62018(11) 0.37112(15)
C35 C 0.6509(3) 0.65636(12) 0.40087(15)
C36 C 0.7742(3) 0.63716(13) 0.41314(17)
H22 H 0.7901 0.6024 0.4020
C37 C 0.8743(3) 0.66807(14) 0.44152(19)
H23 H 0.9581 0.6546 0.4505
C38 C 0.8495(3) 0.71920(13) 0.45658(17)
C39 C 0.7281(3) 0.73916(12) 0.44395(17)
H24 H 0.7128 0.7742 0.4537
C40 C 0.6286(3) 0.70746(12) 0.41691(16)
H25 H 0.5446 0.7208 0.4093
C41 C 0.9562(3) 0.75277(14) 0.48647(19)
C42 C 0.3483(3) 0.66989(11) 0.34126(15)
C43 C 0.3737(3) 0.67130(13) 0.27353(16)
H26 H 0.4289 0.6464 0.2583
C44 C 0.3194(3) 0.70855(13) 0.22814(17)
H27 H 0.3368 0.7088 0.1822
C45 C 0.2400(3) 0.74522(14) 0.25029(19)
H28 H 0.2046 0.7714 0.2199
C46 C 0.2122(3) 0.74382(14) 0.31678(19)
H29 H 0.1563 0.7687 0.3316
C47 C 0.2651(3) 0.70646(12) 0.36194(17)
H30 H 0.2446 0.7057 0.4073
C48 C 0.3407(3) 0.57492(11) 0.37118(15)
H31 H 0.3293 0.5698 0.3210
H32 H 0.3961 0.5469 0.3919
C49 C 0.2123(3) 0.56996(12) 0.39581(15)
C50 C 0.1454(3) 0.51974(11) 0.38602(15)
C51 C 0.1947(3) 0.47765(12) 0.35400(16)
H33 H 0.2734 0.4811 0.3365
C52 C 0.1314(3) 0.43133(12) 0.34737(16)
H34 H 0.1660 0.4032 0.3252
C53 C 0.0167(3) 0.42579(12) 0.37313(16)
C54 C -0.0344(3) 0.46706(13) 0.40475(17)
H35 H -0.1130 0.4635 0.4222
C55 C 0.0303(3) 0.51337(12) 0.41056(16)
H36 H -0.0052 0.5416 0.4320
C56 C -0.1578(3) 0.37046(14) 0.3888(2)
H37 H -0.2210 0.3943 0.3657
H38 H -0.1481 0.3766 0.4382
H39 H -0.1861 0.3350 0.3793
C57 C 0.4930(3) 0.59012(12) 0.56656(15)
C58 C 0.4356(3) 0.54745(12) 0.59144(16)
C59 C 0.4451(3) 0.53751(12) 0.66098(16)
H40 H 0.4058 0.5080 0.6772
C60 C 0.5129(3) 0.57133(13) 0.70662(16)
H41 H 0.5193 0.5651 0.7544
C61 C 0.5710(3) 0.61388(12) 0.68300(16)
H42 H 0.6162 0.6372 0.7145
C62 C 0.5632(3) 0.62277(12) 0.61293(16)
F7 F 1.0136(10) 0.7750(4) 0.4375(4)
F8 F 0.9239(8) 0.7924(3) 0.5226(6)
F9 F 1.0485(10) 0.7295(3) 0.5260(7)
F4? F 0.3765(7) 0.5550(7) 1.0578(8)
F5? F 0.5083(18) 0.5910(6) 1.1335(8)
F6? F 0.5240(13) 0.5119(4) 1.1128(8)
F10? F 0.9723(18) 0.7936(6) 0.4502(10)
F11? F 0.9342(13) 0.7696(10) 0.5471(8)
F12? F 1.0642(8) 0.7285(5) 0.4973(9)
loop_
_geom_bond_atom_site_label_1
_geom_bond_atom_site_label_2
_geom_bond_site_symmetry_1
_geom_bond_site_symmetry_2
Cl1 C27 1_555 1_555
Cl2 C31 1_555 1_555
F1 C10 1_555 1_555
F2 C10 1_555 1_555
F3 C10 1_555 1_555
O1 C1 1_555 1_555
O2 C1 1_555 1_555
O3 C3 1_555 1_555
O4 C18 1_555 1_555
O5 C22 1_555 1_555
C1 C2 1_555 1_555
C2 C3 1_555 1_555
C3 C4 1_555 1_555
C4 C5 1_555 1_555
C5 H1 1_555 1_555
C6 C5 1_555 1_555
H2 C6 1_555 1_555
C7 C6 1_555 1_555
C8 C7 1_555 1_555
H3 C8 1_555 1_555
C9 C4 1_555 1_555
H4 C9 1_555 1_555
C10 C7 1_555 1_555
C11 C2 1_555 1_555
C12 C11 1_555 1_555
H5 C12 1_555 1_555
C13 C12 1_555 1_555
H6 C13 1_555 1_555
C14 C13 1_555 1_555
H7 C14 1_555 1_555
C15 C14 1_555 1_555
H8 C15 1_555 1_555
C16 C11 1_555 1_555
H9 C16 1_555 1_555
C17 C2 1_555 1_555
H10 C17 1_555 1_555
H11 C17 1_555 1_555
C18 C17 1_555 1_555
C19 C18 1_555 1_555
C20 C19 1_555 1_555
H12 C20 1_555 1_555
C21 C20 1_555 1_555
H13 C21 1_555 1_555
C22 C21 1_555 1_555
C23 C22 1_555 1_555
H14 C23 1_555 1_555
C24 C19 1_555 1_555
H15 C24 1_555 1_555
C25 O5 1_555 1_555
H16 C25 1_555 1_555
H17 C25 1_555 1_555
H18 C25 1_555 1_555
C26 O2 1_555 1_555
C27 C26 1_555 1_555
C28 C27 1_555 1_555
H19 C28 1_555 1_555
C29 C28 1_555 1_555
H20 C29 1_555 1_555
C30 C29 1_555 1_555
H21 C30 1_555 1_555
C31 C26 1_555 1_555
Cl3 C58 1_555 1_555
Cl4 C62 1_555 1_555
O6 C32 1_555 1_555
O7 C32 1_555 1_555
O8 C34 1_555 1_555
O9 C49 1_555 1_555
O10 C53 1_555 1_555
C32 C33 1_555 1_555
C33 C34 1_555 1_555
C34 C35 1_555 1_555
C35 C36 1_555 1_555
C36 H22 1_555 1_555
C37 C36 1_555 1_555
H23 C37 1_555 1_555
C38 C37 1_555 1_555
C39 C38 1_555 1_555
H24 C39 1_555 1_555
C40 C35 1_555 1_555
H25 C40 1_555 1_555
C41 C38 1_555 1_555
C42 C33 1_555 1_555
C43 C42 1_555 1_555
H26 C43 1_555 1_555
C44 C43 1_555 1_555
H27 C44 1_555 1_555
C45 C44 1_555 1_555
H28 C45 1_555 1_555
C46 C45 1_555 1_555
H29 C46 1_555 1_555
C47 C42 1_555 1_555
H30 C47 1_555 1_555
C48 C33 1_555 1_555
H31 C48 1_555 1_555
H32 C48 1_555 1_555
C49 C48 1_555 1_555
C50 C49 1_555 1_555
C51 C50 1_555 1_555
H33 C51 1_555 1_555
C52 C51 1_555 1_555
H34 C52 1_555 1_555
C53 C52 1_555 1_555
C54 C53 1_555 1_555
H35 C54 1_555 1_555
C55 C50 1_555 1_555
H36 C55 1_555 1_555
C56 O10 1_555 1_555
H37 C56 1_555 1_555
H38 C56 1_555 1_555
H39 C56 1_555 1_555
C57 O7 1_555 1_555
C58 C57 1_555 1_555
C59 C58 1_555 1_555
H40 C59 1_555 1_555
C60 C59 1_555 1_555
H41 C60 1_555 1_555
C61 C60 1_555 1_555
H42 C61 1_555 1_555
C62 C57 1_555 1_555
F7 C41 1_555 1_555
F8 C41 1_555 1_555
F9 C41 1_555 1_555
C8 C9 1_555 1_555
C15 C16 1_555 1_555
C23 C24 1_555 1_555
C30 C31 1_555 1_555
C39 C40 1_555 1_555
C46 C47 1_555 1_555
C54 C55 1_555 1_555
C61 C62 1_555 1_555

#END
