
#######################################################################
#
#                 Cambridge Crystallographic Data Centre
#                                CCDC 
#
#######################################################################
#
# If this CIF has been generated from an entry in the Cambridge 
# Structural Database, then it will include bibliographic, chemical, 
# crystal, experimental, refinement or atomic coordinate data resulting 
# from the CCDC's data processing and validation procedures.
#
#######################################################################

data_GIQHEW
_chemical_formula_moiety         'C24 H18 Cl2 O4'
_chemical_name_systematic        
'2,6-dichlorophenyl 2-acetyl-4-oxo-2,4-diphenylbutanoate'
_symmetry_cell_setting           monoclinic
_symmetry_space_group_name_H-M   'P 21/n'
_symmetry_Int_Tables_number      14
_space_group_name_Hall           '-P 2yn'
loop_
_symmetry_equiv_pos_site_id
_symmetry_equiv_pos_as_xyz
1 x,y,z
2 1/2-x,1/2+y,1/2-z
3 -x,-y,-z
4 1/2+x,1/2-y,1/2+z
_cell_length_a                   11.343(2)
_cell_length_b                   14.314(3)
_cell_length_c                   12.631(3)
_cell_angle_alpha                90
_cell_angle_beta                 98.32(3)
_cell_angle_gamma                90
_cell_volume                     2029.23
_exptl_crystal_colour            colorless
_exptl_crystal_description       block
_cell_formula_units_Z            4
loop_
_atom_site_label
_atom_site_type_symbol
_atom_site_fract_x
_atom_site_fract_y
_atom_site_fract_z
Cl1 Cl 0.27745(4) 1.11085(4) 0.05271(4)
Cl2 Cl 0.29371(4) 0.75528(4) 0.19394(4)
O1 O 0.23037(10) 0.95816(9) 0.19630(10)
O2 O 0.06119(11) 0.88567(10) 0.12589(10)
O3 O 0.19167(12) 0.83255(10) 0.39038(11)
O4 O -0.04584(12) 0.90273(10) 0.41337(11)
C1 C 0.28401(15) 0.92844(14) 0.10932(15)
C2 C 0.31892(16) 0.83639(14) 0.09855(15)
C3 C 0.37428(16) 0.80932(16) 0.01255(16)
H1 H 0.3973 0.7461 0.0053
C4 C 0.39561(16) 0.87483(17) -0.06238(17)
H2 H 0.4321 0.8562 -0.1221
C5 C 0.36454(16) 0.96728(16) -0.05169(16)
H3 H 0.3807 1.0121 -0.1031
C6 C 0.30951(15) 0.99421(14) 0.03480(15)
C7 C 0.11300(15) 0.93319(12) 0.19491(15)
C8 C 0.06112(15) 0.97818(13) 0.28734(14)
C9 C 0.15697(15) 0.99634(13) 0.38383(14)
H4 H 0.2161 1.0408 0.3625
H5 H 0.1193 1.0261 0.4413
C10 C 0.22126(16) 0.90856(14) 0.42779(14)
C11 C 0.32260(15) 0.91889(14) 0.51659(15)
C12 C 0.35538(17) 1.00455(15) 0.56428(15)
H6 H 0.3112 1.0591 0.5415
C13 C 0.45216(17) 1.01074(15) 0.64489(16)
H7 H 0.4745 1.0694 0.6767
C14 C 0.51596(17) 0.93137(15) 0.67873(17)
H8 H 0.5820 0.9355 0.7341
C15 C 0.48387(17) 0.84571(15) 0.63206(17)
H9 H 0.5279 0.7912 0.6555
C16 C 0.38808(16) 0.83963(14) 0.55171(15)
H10 H 0.3665 0.7808 0.5199
C17 C -0.04094(16) 0.91756(13) 0.31978(15)
C18 C -0.14088(17) 0.88746(16) 0.23527(16)
H11 H -0.1362 0.8199 0.2242
H12 H -0.1342 0.9200 0.1682
H13 H -0.2174 0.9028 0.2584
C19 C -0.00192(15) 1.07034(12) 0.24903(14)
C20 C -0.05703(15) 1.12152(14) 0.32245(15)
H14 H -0.0529 1.0998 0.3940
C21 C -0.11720(16) 1.20311(14) 0.29230(15)
H15 H -0.1542 1.2374 0.3429
C22 C -0.12356(16) 1.23512(14) 0.18783(16)
H16 H -0.1647 1.2915 0.1670
C23 C -0.07002(15) 1.18507(14) 0.11422(15)
H17 H -0.0740 1.2073 0.0429
C24 C -0.01038(15) 1.10238(13) 0.14413(14)
H18 H 0.0248 1.0675 0.0928
loop_
_geom_bond_atom_site_label_1
_geom_bond_atom_site_label_2
_geom_bond_site_symmetry_1
_geom_bond_site_symmetry_2
Cl1 C6 1_555 1_555
Cl2 C2 1_555 1_555
O1 C1 1_555 1_555
O2 C7 1_555 1_555
O3 C10 1_555 1_555
O4 C17 1_555 1_555
C1 C2 1_555 1_555
C2 C3 1_555 1_555
C3 H1 1_555 1_555
C4 C3 1_555 1_555
H2 C4 1_555 1_555
C5 C4 1_555 1_555
H3 C5 1_555 1_555
C6 C1 1_555 1_555
C7 O1 1_555 1_555
C8 C7 1_555 1_555
C9 C8 1_555 1_555
H4 C9 1_555 1_555
H5 C9 1_555 1_555
C10 C9 1_555 1_555
C11 C10 1_555 1_555
C12 C11 1_555 1_555
H6 C12 1_555 1_555
C13 C12 1_555 1_555
H7 C13 1_555 1_555
C14 C13 1_555 1_555
H8 C14 1_555 1_555
C15 C14 1_555 1_555
H9 C15 1_555 1_555
C16 C11 1_555 1_555
H10 C16 1_555 1_555
C17 C8 1_555 1_555
C18 C17 1_555 1_555
H11 C18 1_555 1_555
H12 C18 1_555 1_555
H13 C18 1_555 1_555
C19 C8 1_555 1_555
C20 C19 1_555 1_555
H14 C20 1_555 1_555
C21 C20 1_555 1_555
H15 C21 1_555 1_555
C22 C21 1_555 1_555
H16 C22 1_555 1_555
C23 C22 1_555 1_555
H17 C23 1_555 1_555
C24 C19 1_555 1_555
H18 C24 1_555 1_555
C5 C6 1_555 1_555
C15 C16 1_555 1_555
C23 C24 1_555 1_555

#END
