
#######################################################################
#
#                 Cambridge Crystallographic Data Centre
#                                CCDC 
#
#######################################################################
#
# If this CIF has been generated from an entry in the Cambridge 
# Structural Database, then it will include bibliographic, chemical, 
# crystal, experimental, refinement or atomic coordinate data resulting 
# from the CCDC's data processing and validation procedures.
#
#######################################################################

data_GIRQEG
_chemical_formula_moiety         'C14 H24 O2'
_chemical_name_systematic        
5-(hydroxymethyl)-3,5-dimethyl-7-(prop-1-en-2-yl)bicyclo[2.2.2]octan-2-ol
_symmetry_cell_setting           monoclinic
_symmetry_space_group_name_H-M   'C 2'
_symmetry_Int_Tables_number      5
_space_group_name_Hall           'C 2y'
loop_
_symmetry_equiv_pos_site_id
_symmetry_equiv_pos_as_xyz
1 x,y,z
2 -x,y,-z
3 1/2+x,1/2+y,z
4 1/2-x,1/2+y,-z
_cell_length_a                   14.471(2)
_cell_length_b                   6.2727(5)
_cell_length_c                   14.320(2)
_cell_angle_alpha                90
_cell_angle_beta                 100.746(5)
_cell_angle_gamma                90
_cell_volume                     1277.06
_exptl_crystal_colour            colorless
_exptl_crystal_description       needle
_cell_formula_units_Z            4
_exptl_crystal_recrystallization_method dichloromethane
loop_
_atom_site_label
_atom_site_type_symbol
_atom_site_fract_x
_atom_site_fract_y
_atom_site_fract_z
O1 O 0.06228(15) 0.5535(4) 0.89335(15)
H1 H 0.008(2) 0.561(6) 0.892(3)
O2 O 0.37760(14) 0.0612(3) 0.90953(15)
H2 H 0.392(2) 0.069(6) 0.970(2)
C1 C 0.1395(2) 0.4126(5) 0.7676(2)
C2 C 0.1670(2) 0.1973(5) 0.7259(2)
H3 H 0.1270 0.0816 0.7437
H4 H 0.1557 0.2064 0.6557
C3 C 0.2710(2) 0.1451(5) 0.7636(2)
H5 H 0.2849 -0.0026 0.7439
C4 C 0.3347(2) 0.3048(4) 0.7243(2)
H6 H 0.3988 0.2909 0.7644
C5 C 0.2988(2) 0.5319(5) 0.7421(2)
H7 H 0.3530 0.6257 0.7665
H8 H 0.2648 0.5926 0.6815
C6 C 0.2328(2) 0.5218(5) 0.8146(2)
H9 H 0.2192 0.6698 0.8342
C7 C 0.0772(2) 0.3656(5) 0.8405(2)
H10 H 0.0157 0.3103 0.8072
H11 H 0.1072 0.2541 0.8849
C8 C 0.0824(2) 0.5538(5) 0.6904(2)
H12 H 0.0253 0.4781 0.6604
H13 H 0.1203 0.5873 0.6423
H14 H 0.0650 0.6863 0.7190
C9 C 0.2888(2) 0.1587(4) 0.8712(2)
H15 H 0.2384 0.0758 0.8942
C10 C 0.2815(2) 0.3956(5) 0.9023(2)
H16 H 0.2397 0.4000 0.9506
C11 C 0.3759(2) 0.4944(5) 0.9473(2)
H17 H 0.4211 0.4739 0.9049
H18 H 0.3996 0.4255 1.0085
H19 H 0.3676 0.6473 0.9573
C12 C 0.3455(2) 0.2700(5) 0.6225(2)
C13 C 0.3113(2) 0.1062(5) 0.5700(2)
H20 H 0.2770 -0.0010 0.5957
H21 H 0.3210 0.0949 0.5064
C14 C 0.4031(2) 0.4394(6) 0.5836(2)
H22 H 0.4144 0.3950 0.5211
H23 H 0.4634 0.4579 0.6271
H24 H 0.3685 0.5746 0.5774
loop_
_geom_bond_atom_site_label_1
_geom_bond_atom_site_label_2
_geom_bond_site_symmetry_1
_geom_bond_site_symmetry_2
O1 H1 1_555 1_555
O2 H2 1_555 1_555
C1 C2 1_555 1_555
C2 H3 1_555 1_555
H4 C2 1_555 1_555
C3 C2 1_555 1_555
H5 C3 1_555 1_555
C4 C3 1_555 1_555
H6 C4 1_555 1_555
C5 C4 1_555 1_555
H7 C5 1_555 1_555
H8 C5 1_555 1_555
C6 C1 1_555 1_555
H9 C6 1_555 1_555
C7 O1 1_555 1_555
H10 C7 1_555 1_555
H11 C7 1_555 1_555
C8 C1 1_555 1_555
H12 C8 1_555 1_555
H13 C8 1_555 1_555
H14 C8 1_555 1_555
C9 O2 1_555 1_555
H15 C9 1_555 1_555
C10 C6 1_555 1_555
H16 C10 1_555 1_555
C11 C10 1_555 1_555
H17 C11 1_555 1_555
H18 C11 1_555 1_555
H19 C11 1_555 1_555
C12 C4 1_555 1_555
C13 C12 1_555 1_555
H20 C13 1_555 1_555
H21 C13 1_555 1_555
C14 C12 1_555 1_555
H22 C14 1_555 1_555
H23 C14 1_555 1_555
H24 C14 1_555 1_555
C1 C7 1_555 1_555
C3 C9 1_555 1_555
C5 C6 1_555 1_555
C9 C10 1_555 1_555

#END
