
#######################################################################
#
#                 Cambridge Crystallographic Data Centre
#                                CCDC 
#
#######################################################################
#
# If this CIF has been generated from an entry in the Cambridge 
# Structural Database, then it will include bibliographic, chemical, 
# crystal, experimental, refinement or atomic coordinate data resulting 
# from the CCDC's data processing and validation procedures.
#
#######################################################################

data_GIRYEO
_chemical_compound_source        .synthesis.
_chemical_formula_moiety         'C35 H51 N5 O7,C1 H2 Cl2'
_chemical_name_systematic        
'benzyl N-((2-((N-((2-((N-(cyclopropylcarbonyl)-2-methylalanyl)amino)cyclopentyl)carbonyl)-2-methylalanyl)amino)cyclopentyl)carbonyl)-2-methylalaninate dichloromethane solvate'
_symmetry_cell_setting           monoclinic
_symmetry_space_group_name_H-M   'P 21'
_symmetry_Int_Tables_number      4
_space_group_name_Hall           'P 2yb'
loop_
_symmetry_equiv_pos_site_id
_symmetry_equiv_pos_as_xyz
1 x,y,z
2 -x,1/2+y,-z
_cell_length_a                   10.9504(17)
_cell_length_b                   13.312(2)
_cell_length_c                   13.533(2)
_cell_angle_alpha                90
_cell_angle_beta                 100.485(6)
_cell_angle_gamma                90
_cell_volume                     1939.79
_exptl_crystal_colour            colorless
_exptl_crystal_description       block
_cell_formula_units_Z            2
_exptl_crystal_recrystallization_method 
'Re-crystallisation from solvent: Dichloromethane/diethyl ether'
loop_
_atom_site_label
_atom_site_type_symbol
_atom_site_fract_x
_atom_site_fract_y
_atom_site_fract_z
Cl1 Cl 0.3906(7) 0.5004(6) 0.3587(7)
Cl2 Cl 0.2661(5) 0.5241(6) 0.1505(7)
C1 C 0.2835(12) 0.4519(13) 0.2597(13)
H1 H 0.3120 0.3864 0.2428
H2 H 0.2028 0.4455 0.2790
O1 O -0.0139(5) 0.2237(4) 0.3075(4)
C2 C 0.0933(6) 0.2159(4) 0.2917(5)
N1 N 0.1211(6) 0.2182(4) 0.1997(4)
C3 C 0.0245(7) 0.2248(7) 0.1093(5)
C4 C -0.0697(7) 0.3067(7) 0.1242(5)
O2 O -0.0120(5) 0.3921(5) 0.1547(4)
C5 C -0.0901(9) 0.4765(8) 0.1702(7)
C6 C -0.0292(7) 0.5287(4) 0.2671(4)
C7 C -0.0117(8) 0.4755(4) 0.3565(4)
C8 C 0.0411(8) 0.5222(5) 0.4455(4)
C9 C 0.0779(7) 0.6217(5) 0.4448(4)
C10 C 0.0581(7) 0.6754(4) 0.3558(5)
C11 C 0.0053(7) 0.6286(4) 0.2667(4)
O3 O -0.1787(5) 0.2952(5) 0.1050(4)
C12 C 0.0901(9) 0.2589(8) 0.0240(6)
C13 C -0.0410(8) 0.1279(8) 0.0851(7)
C14 C 0.2034(6) 0.2001(6) 0.3760(5)
C15 C 0.2198(7) 0.0901(5) 0.4013(5)
N2 N 0.2770(6) 0.0336(5) 0.3290(4)
C16 C 0.2208(7) -0.0505(5) 0.2857(6)
O4 O 0.1258(8) -0.0839(6) 0.3024(8)
C17 C 0.3006(7) -0.1129(7) 0.2213(6)
N3 N 0.3829(6) -0.0489(5) 0.1747(5)
C18 C 0.3458(7) 0.0182(7) 0.0989(6)
O5 O 0.2377(5) 0.0385(6) 0.0700(5)
C19 C 0.4509(8) 0.0569(8) 0.0492(6)
C20 C 0.4601(7) 0.1715(9) 0.0531(6)
N4 N 0.5504(6) 0.2056(6) 0.1373(5)
C21 C 0.5217(6) 0.2096(6) 0.2301(6)
O6 O 0.4164(5) 0.2051(6) 0.2466(5)
C22 C 0.6333(7) 0.2240(7) 0.3170(6)
N5 N 0.7360(6) 0.1544(6) 0.3052(4)
C23 C 0.7154(7) 0.0593(7) 0.2903(5)
O7 O 0.6125(6) 0.0193(6) 0.2847(4)
C24 C 0.8281(8) -0.0053(7) 0.2792(7)
C25 C 0.8107(11) -0.0811(9) 0.1975(8)
C26 C 0.8220(10) -0.1150(8) 0.3051(8)
C27 C 0.5937(8) 0.2058(11) 0.4162(7)
C28 C 0.6826(9) 0.3296(9) 0.3151(10)
C29 C 0.4957(13) 0.1996(12) -0.0477(9)
C30 C 0.4090(13) 0.1290(14) -0.1190(9)
C31 C 0.4264(13) 0.0264(12) -0.0619(8)
C32 C 0.2125(9) -0.1710(8) 0.1421(8)
C33 C 0.3844(9) -0.1801(8) 0.2940(8)
C34 C 0.3044(10) 0.0890(6) 0.5073(6)
C35 C 0.2651(10) 0.1830(8) 0.5576(6)
C36 C 0.1862(7) 0.2462(6) 0.4770(5)
H3 H -0.1722 0.4524 0.1761
H4 H -0.0984 0.5235 0.1148
H5 H -0.0355 0.4085 0.3568
H6 H 0.0519 0.4867 0.5054
H7 H 0.1172 0.6520 0.5040
H8 H 0.0786 0.7428 0.3548
H9 H -0.0053 0.6636 0.2063
H10 H 0.0298 0.2863 -0.0298
H11 H 0.1312 0.2036 -0.0015
H12 H 0.1509 0.3097 0.0469
H13 H -0.0980 0.1351 0.0232
H14 H 0.0162 0.0751 0.0785
H15 H -0.0869 0.1112 0.1367
H16 H 0.2795 0.2265 0.3560
H17 H 0.1388 0.0597 0.4043
H18 H 0.5290 0.0281 0.0820
H19 H 0.3797 0.2007 0.0571
H20 H 0.9105 0.0274 0.2953
H21 H 0.8776 -0.0928 0.1613
H22 H 0.7317 -0.0895 0.1525
H23 H 0.8967 -0.1492 0.3392
H24 H 0.7509 -0.1410 0.3297
H25 H 0.6607 0.1761 0.4630
H26 H 0.5235 0.1616 0.4066
H27 H 0.5715 0.2683 0.4431
H28 H 0.7424 0.3439 0.3751
H29 H 0.7207 0.3360 0.2570
H30 H 0.6135 0.3761 0.3095
H31 H 0.5820 0.1816 -0.0460
H32 H 0.4836 0.2706 -0.0625
H33 H 0.4308 0.1266 -0.1849
H34 H 0.3238 0.1516 -0.1254
H35 H 0.4986 -0.0087 -0.0767
H36 H 0.3535 -0.0160 -0.0788
H37 H 0.2603 -0.2203 0.1127
H38 H 0.1534 -0.2049 0.1751
H39 H 0.1710 -0.1266 0.0913
H40 H 0.4222 -0.2319 0.2606
H41 H 0.3365 -0.2095 0.3394
H42 H 0.4483 -0.1393 0.3313
H43 H 0.2868 0.0296 0.5442
H44 H 0.3918 0.0903 0.5029
H45 H 0.2169 0.1650 0.6086
H46 H 0.3395 0.2191 0.5878
H47 H 0.1001 0.2453 0.4850
H48 H 0.2174 0.3148 0.4819
H49 H 0.352(4) 0.047(5) 0.323(6)
H50 H 0.623(5) 0.225(10) 0.128(2)
H51 H 0.460(3) -0.050(7) 0.202(6)
H52 H 0.8102(19) 0.1770(17) 0.3083(8)
H53 H 0.1973(19) 0.2126(7) 0.1933(16)
loop_
_geom_bond_atom_site_label_1
_geom_bond_atom_site_label_2
_geom_bond_site_symmetry_1
_geom_bond_site_symmetry_2
Cl1 C1 1_555 1_555
Cl2 C1 1_555 1_555
C1 H1 1_555 1_555
H2 C1 1_555 1_555
O1 C2 1_555 1_555
C2 N1 1_555 1_555
N1 C3 1_555 1_555
C3 C4 1_555 1_555
C4 O2 1_555 1_555
O2 C5 1_555 1_555
C5 C6 1_555 1_555
C6 C7 1_555 1_555
C7 C8 1_555 1_555
C8 C9 1_555 1_555
C9 C10 1_555 1_555
C10 C11 1_555 1_555
C11 C6 1_555 1_555
O3 C4 1_555 1_555
C12 C3 1_555 1_555
C13 C3 1_555 1_555
C14 C2 1_555 1_555
C15 C14 1_555 1_555
N2 C15 1_555 1_555
C16 N2 1_555 1_555
O4 C16 1_555 1_555
C17 C16 1_555 1_555
N3 C17 1_555 1_555
C18 N3 1_555 1_555
O5 C18 1_555 1_555
C19 C18 1_555 1_555
C20 C19 1_555 1_555
N4 C20 1_555 1_555
C21 N4 1_555 1_555
O6 C21 1_555 1_555
C22 C21 1_555 1_555
N5 C22 1_555 1_555
C23 N5 1_555 1_555
O7 C23 1_555 1_555
C24 C23 1_555 1_555
C25 C24 1_555 1_555
C26 C24 1_555 1_555
C27 C22 1_555 1_555
C28 C22 1_555 1_555
C29 C20 1_555 1_555
C30 C29 1_555 1_555
C31 C19 1_555 1_555
C32 C17 1_555 1_555
C33 C17 1_555 1_555
C34 C15 1_555 1_555
C35 C34 1_555 1_555
C36 C14 1_555 1_555
H3 C5 1_555 1_555
H4 C5 1_555 1_555
H5 C7 1_555 1_555
H6 C8 1_555 1_555
H7 C9 1_555 1_555
H8 C10 1_555 1_555
H9 C11 1_555 1_555
H10 C12 1_555 1_555
H11 C12 1_555 1_555
H12 C12 1_555 1_555
H13 C13 1_555 1_555
H14 C13 1_555 1_555
H15 C13 1_555 1_555
H16 C14 1_555 1_555
H17 C15 1_555 1_555
H18 C19 1_555 1_555
H19 C20 1_555 1_555
H20 C24 1_555 1_555
H21 C25 1_555 1_555
H22 C25 1_555 1_555
H23 C26 1_555 1_555
H24 C26 1_555 1_555
H25 C27 1_555 1_555
H26 C27 1_555 1_555
H27 C27 1_555 1_555
H28 C28 1_555 1_555
H29 C28 1_555 1_555
H30 C28 1_555 1_555
H31 C29 1_555 1_555
H32 C29 1_555 1_555
H33 C30 1_555 1_555
H34 C30 1_555 1_555
H35 C31 1_555 1_555
H36 C31 1_555 1_555
H37 C32 1_555 1_555
H38 C32 1_555 1_555
H39 C32 1_555 1_555
H40 C33 1_555 1_555
H41 C33 1_555 1_555
H42 C33 1_555 1_555
H43 C34 1_555 1_555
H44 C34 1_555 1_555
H45 C35 1_555 1_555
H46 C35 1_555 1_555
H47 C36 1_555 1_555
H48 C36 1_555 1_555
H49 N2 1_555 1_555
H50 N4 1_555 1_555
H51 N3 1_555 1_555
H52 N5 1_555 1_555
H53 N1 1_555 1_555
C25 C26 1_555 1_555
C30 C31 1_555 1_555
C35 C36 1_555 1_555

#END
