
#######################################################################
#
#                 Cambridge Crystallographic Data Centre
#                                CCDC 
#
#######################################################################
#
# If this CIF has been generated from an entry in the Cambridge 
# Structural Database, then it will include bibliographic, chemical, 
# crystal, experimental, refinement or atomic coordinate data resulting 
# from the CCDC's data processing and validation procedures.
#
#######################################################################

data_GISCAN
_chemical_formula_moiety         'C22 H22 N2 O10'
_chemical_name_systematic        
'3,4-Dicyanophenyl 2,3,4,6-tetra-O-acetyl-\a-D-glucopyranoside'
_symmetry_cell_setting           orthorhombic
_symmetry_space_group_name_H-M   'P 21 21 21'
_symmetry_Int_Tables_number      19
_space_group_name_Hall           'P 2ac 2ab'
loop_
_symmetry_equiv_pos_site_id
_symmetry_equiv_pos_as_xyz
1 x,y,z
2 1/2-x,-y,1/2+z
3 -x,1/2+y,1/2-z
4 1/2+x,1/2-y,-z
_cell_length_a                   8.175(2)
_cell_length_b                   10.2076(10)
_cell_length_c                   29.562(6)
_cell_angle_alpha                90
_cell_angle_beta                 90
_cell_angle_gamma                90
_cell_volume                     2466.86
_exptl_crystal_colour            colorless
_exptl_crystal_description       plate
_chemical_melting_point          '159-160 deg.C'
_cell_formula_units_Z            4
_exptl_crystal_recrystallization_method toluene
loop_
_atom_site_label
_atom_site_type_symbol
_atom_site_fract_x
_atom_site_fract_y
_atom_site_fract_z
O1 O 0.4684(4) 0.4661(4) 0.41414(12)
O2 O 0.3965(4) 0.5287(4) 0.34103(13)
O3 O 0.5901(5) 0.7056(4) 0.43421(13)
O4 O 0.4002(7) 0.8623(5) 0.43616(17)
O5 O 0.8048(4) 0.7509(4) 0.35957(13)
O6 O 1.0210(5) 0.6471(5) 0.38745(18)
O7 O 0.8182(5) 0.5260(4) 0.30029(14)
O8 O 0.8314(7) 0.6754(6) 0.2448(2)
O9 O 0.4682(5) 0.5005(4) 0.24344(15)
O10 O 0.5851(7) 0.3686(5) 0.19353(16)
N1 N -0.0545(8) -0.0194(6) 0.4681(2)
N2 N -0.2037(8) 0.2687(7) 0.3913(3)
C1 C 0.0363(10) 0.0603(7) 0.4593(2)
C2 C -0.0744(9) 0.2681(7) 0.4048(3)
C3 C 0.1489(8) 0.1642(6) 0.4468(2)
C4 C 0.0938(7) 0.2671(6) 0.4191(2)
C5 C 0.1966(7) 0.3700(6) 0.4070(2)
H1 H 0.1593 0.4382 0.3889
C6 C 0.3586(7) 0.3678(6) 0.4229(2)
C7 C 0.4143(8) 0.2645(6) 0.4483(2)
H2 H 0.5227 0.2631 0.4578
C8 C 0.3113(8) 0.1623(6) 0.4598(2)
H3 H 0.3515 0.0919 0.4763
C9 C 0.4184(7) 0.5689(5) 0.38547(19)
H4 H 0.3145 0.6038 0.3968
C10 C 0.5487(6) 0.6784(5) 0.38800(19)
H5 H 0.5069 0.7580 0.3735
C11 C 0.7051(6) 0.6337(5) 0.36433(18)
H6 H 0.7621 0.5676 0.3825
C12 C 0.6682(7) 0.5818(5) 0.31787(19)
H7 H 0.6283 0.6519 0.2981
C13 C 0.5412(7) 0.4711(5) 0.32161(18)
H8 H 0.5831 0.4044 0.3425
C14 C 0.5095(9) 0.8067(6) 0.4539(2)
C15 C 0.5743(8) 0.8297(6) 0.50044(19)
H9 H 0.5151 0.9003 0.5143
H10 H 0.6882 0.8519 0.4988
H11 H 0.5611 0.7516 0.5182
C16 C 0.9631(8) 0.7418(7) 0.3712(2)
C17 C 1.0494(8) 0.8681(6) 0.3598(2)
H12 H 1.1629 0.8612 0.3678
H13 H 1.0004 0.9389 0.3763
H14 H 1.0398 0.8848 0.3279
C18 C 0.8902(9) 0.5880(9) 0.2644(3)
C19 C 1.0554(7) 0.5319(8) 0.2574(3)
H15 H 1.1076 0.5755 0.2325
H16 H 1.0462 0.4401 0.2509
H17 H 1.1196 0.5438 0.2843
C20 C 0.5023(8) 0.4075(6) 0.27799(19)
H18 H 0.5939 0.3534 0.2688
H19 H 0.4081 0.3508 0.2819
C21 C 0.5168(8) 0.4719(7) 0.2017(2)
C22 C 0.4807(12) 0.5694(7) 0.1681(2)
H20 H 0.5217 0.5411 0.1393
H21 H 0.5318 0.6507 0.1763
H22 H 0.3645 0.5817 0.1662
loop_
_geom_bond_atom_site_label_1
_geom_bond_atom_site_label_2
_geom_bond_site_symmetry_1
_geom_bond_site_symmetry_2
O1 C6 1_555 1_555
O2 C9 1_555 1_555
O3 C10 1_555 1_555
O4 C14 1_555 1_555
O5 C11 1_555 1_555
O6 C16 1_555 1_555
O7 C12 1_555 1_555
O8 C18 1_555 1_555
O9 C20 1_555 1_555
O10 C21 1_555 1_555
N1 C1 1_555 1_555
N2 C2 1_555 1_555
C1 C3 1_555 1_555
C2 C4 1_555 1_555
C3 C4 1_555 1_555
C4 C5 1_555 1_555
C5 H1 1_555 1_555
C6 C5 1_555 1_555
C7 C6 1_555 1_555
H2 C7 1_555 1_555
C8 C3 1_555 1_555
H3 C8 1_555 1_555
C9 O1 1_555 1_555
H4 C9 1_555 1_555
C10 C9 1_555 1_555
H5 C10 1_555 1_555
C11 C10 1_555 1_555
H6 C11 1_555 1_555
C12 C11 1_555 1_555
H7 C12 1_555 1_555
C13 O2 1_555 1_555
H8 C13 1_555 1_555
C14 O3 1_555 1_555
C15 C14 1_555 1_555
H9 C15 1_555 1_555
H10 C15 1_555 1_555
H11 C15 1_555 1_555
C16 O5 1_555 1_555
C17 C16 1_555 1_555
H12 C17 1_555 1_555
H13 C17 1_555 1_555
H14 C17 1_555 1_555
C18 O7 1_555 1_555
C19 C18 1_555 1_555
H15 C19 1_555 1_555
H16 C19 1_555 1_555
H17 C19 1_555 1_555
C20 C13 1_555 1_555
H18 C20 1_555 1_555
H19 C20 1_555 1_555
C21 O9 1_555 1_555
C22 C21 1_555 1_555
H20 C22 1_555 1_555
H21 C22 1_555 1_555
H22 C22 1_555 1_555
C7 C8 1_555 1_555
C12 C13 1_555 1_555

#END
