
#######################################################################
#
#                 Cambridge Crystallographic Data Centre
#                                CCDC 
#
#######################################################################
#
# If this CIF has been generated from an entry in the Cambridge 
# Structural Database, then it will include bibliographic, chemical, 
# crystal, experimental, refinement or atomic coordinate data resulting 
# from the CCDC's data processing and validation procedures.
#
#######################################################################

data_GISZAK
_chemical_formula_moiety         'C15 H13 F3 N2 O1'
_chemical_name_systematic        
4-(3-(Trifluoromethyl)phenyl)-5,6,7,8-tetrahydrocinnolin-3(2H)-one
_symmetry_cell_setting           monoclinic
_symmetry_space_group_name_H-M   'C 2/c'
_symmetry_Int_Tables_number      15
_space_group_name_Hall           '-C 2yn'
loop_
_symmetry_equiv_pos_site_id
_symmetry_equiv_pos_as_xyz
1 x,y,z
2 1/2+x,1/2+y,z
3 -x,y,1/2-z
4 1/2-x,1/2+y,1/2-z
5 -x,-y,-z
6 1/2-x,1/2-y,-z
7 x,-y,1/2+z
8 1/2+x,1/2-y,1/2+z
_cell_length_a                   8.929(3)
_cell_length_b                   11.443(4)
_cell_length_c                   27.448(8)
_cell_angle_alpha                90
_cell_angle_beta                 94.232(6)
_cell_angle_gamma                90
_cell_volume                     2796.84
_exptl_crystal_colour            colorless
_exptl_crystal_description       prism
_cell_formula_units_Z            8
_exptl_crystal_recrystallization_method 'ethyl acetate/petroleum ether'
loop_
_atom_site_label
_atom_site_type_symbol
_atom_site_fract_x
_atom_site_fract_y
_atom_site_fract_z
F4 F 1.2515(15) 0.1731(11) 0.2699(3)
F5 F 1.3577(10) 0.0982(12) 0.2113(4)
F6 F 1.1498(13) 0.0330(10) 0.2327(5)
O1 O 1.0587(4) 0.0810(3) 0.05160(12)
N1 N 0.6764(5) 0.0930(3) 0.00974(15)
N2 N 0.8244(5) 0.0709(4) 0.01511(15)
C1 C 0.6214(5) 0.1615(4) 0.04183(19)
C2 C 0.4543(5) 0.1771(5) 0.0370(2)
H1 H 0.4236 0.1960 0.0033
H2 H 0.4074 0.1035 0.0446
C3 C 0.3977(7) 0.2691(7) 0.0689(3)
H3 H 0.4001 0.3431 0.0518
H4 H 0.2935 0.2522 0.0739
C4 C 0.4780(7) 0.2826(7) 0.1160(3)
H5 H 0.4599 0.2141 0.1356
H6 H 0.4373 0.3496 0.1322
C5 C 0.6424(6) 0.2986(5) 0.11490(19)
H7 H 0.6891 0.2872 0.1476
H8 H 0.6622 0.3784 0.1053
C6 C 0.7142(5) 0.2159(4) 0.08030(17)
C7 C 0.8642(5) 0.1920(4) 0.08449(15)
C8 C 0.9248(6) 0.1122(4) 0.05062(16)
C9 C 0.9705(5) 0.2428(4) 0.12244(17)
C10 C 0.9951(6) 0.3607(5) 0.1261(2)
H9 H 0.9450 0.4107 0.1036
C11 C 1.0930(7) 0.4069(6) 0.1624(3)
H10 H 1.1075 0.4872 0.1647
C12 C 1.1682(7) 0.3337(8) 0.1950(3)
H11 H 1.2339 0.3643 0.2196
C13 C 1.1474(6) 0.2162(7) 0.1915(2)
C14 C 1.0497(5) 0.1703(5) 0.15529(17)
H12 H 1.0369 0.0898 0.1530
C15 C 1.2323(9) 0.1368(8) 0.2247(2)
H13 H 0.862(5) 0.023(4) -0.0072(14)
F1? F 1.1701(18) 0.1095(16) 0.2649(5)
F2? F 1.3627(15) 0.1988(12) 0.2422(6)
F3? F 1.274(2) 0.0347(12) 0.2066(5)
loop_
_geom_bond_atom_site_label_1
_geom_bond_atom_site_label_2
_geom_bond_site_symmetry_1
_geom_bond_site_symmetry_2
F4 C15 1_555 1_555
F5 C15 1_555 1_555
F6 C15 1_555 1_555
O1 C8 1_555 1_555
N1 N2 1_555 1_555
N2 C8 1_555 1_555
C1 N1 1_555 1_555
C2 C1 1_555 1_555
H1 C2 1_555 1_555
H2 C2 1_555 1_555
C3 C2 1_555 1_555
H3 C3 1_555 1_555
H4 C3 1_555 1_555
C4 C3 1_555 1_555
H5 C4 1_555 1_555
H6 C4 1_555 1_555
C5 C4 1_555 1_555
H7 C5 1_555 1_555
H8 C5 1_555 1_555
C6 C1 1_555 1_555
C7 C6 1_555 1_555
C8 C7 1_555 1_555
C9 C7 1_555 1_555
C10 C9 1_555 1_555
H9 C10 1_555 1_555
C11 C10 1_555 1_555
H10 C11 1_555 1_555
C12 C11 1_555 1_555
H11 C12 1_555 1_555
C13 C12 1_555 1_555
C14 C9 1_555 1_555
H12 C14 1_555 1_555
C15 C13 1_555 1_555
H13 N2 1_555 1_555
C5 C6 1_555 1_555
C13 C14 1_555 1_555

#END
