
#######################################################################
#
#                 Cambridge Crystallographic Data Centre
#                                CCDC 
#
#######################################################################
#
# If this CIF has been generated from an entry in the Cambridge 
# Structural Database, then it will include bibliographic, chemical, 
# crystal, experimental, refinement or atomic coordinate data resulting 
# from the CCDC's data processing and validation procedures.
#
#######################################################################

data_GITMIG
_chemical_formula_moiety         'C26 H36 N3 O3 1+,Cl1 1-,H2 O1'
_chemical_name_systematic        
"N,N-diethyl-2-(9-hydroxy-6'-methoxycinchonan-1-ium-1-yl)acetamide chloride monohydrate"
_symmetry_cell_setting           orthorhombic
_symmetry_space_group_name_H-M   'P 21 21 21'
_symmetry_Int_Tables_number      19
_space_group_name_Hall           'P 2ac 2ab'
loop_
_symmetry_equiv_pos_site_id
_symmetry_equiv_pos_as_xyz
1 x,y,z
2 1/2-x,-y,1/2+z
3 -x,1/2+y,1/2-z
4 1/2+x,1/2-y,-z
_cell_length_a                   8.2213(12)
_cell_length_b                   17.441(3)
_cell_length_c                   18.161(3)
_cell_angle_alpha                90
_cell_angle_beta                 90
_cell_angle_gamma                90
_cell_volume                     2604.06
_exptl_crystal_colour            colorless
_exptl_crystal_description       block
_cell_formula_units_Z            4
loop_
_atom_site_label
_atom_site_type_symbol
_atom_site_fract_x
_atom_site_fract_y
_atom_site_fract_z
O1 O 0.3225(4) 0.93582(15) 0.56437(14)
O2 O 0.4216(3) 0.66267(12) 0.82251(11)
H1 H 0.3525 0.6737 0.8533
O3 O 0.5222(3) 0.90203(12) 0.78329(11)
N1 N 0.6959(3) 0.76896(13) 0.82281(11)
N2 N 0.4329(4) 0.92548(14) 0.89798(14)
C1 C 0.3147(4) 0.73809(18) 0.63577(14)
C2 C 0.3419(4) 0.81809(18) 0.63353(16)
H2 H 0.3878 0.8426 0.6739
C3 C 0.3012(5) 0.8596(2) 0.57254(18)
C4 C 0.2293(5) 0.8234(2) 0.51162(18)
H3 H 0.2016 0.8523 0.4705
C5 C 0.2000(5) 0.7482(3) 0.51186(17)
H4 H 0.1515 0.7254 0.4711
C6 C 0.2417(4) 0.7029(2) 0.57315(17)
N3 N 0.2080(4) 0.62659(18) 0.56833(16)
C7 C 0.2426(4) 0.5857(2) 0.6256(2)
H5 H 0.2206 0.5335 0.6232
C8 C 0.3111(4) 0.61412(19) 0.69128(17)
H6 H 0.3299 0.5814 0.7308
C9 C 0.3497(4) 0.69032(18) 0.69654(15)
C10 C 0.4145(7) 0.9754(2) 0.6174(3)
H7 H 0.5159 0.9494 0.6250
H8 H 0.3552 0.9773 0.6629
H9 H 0.4351 1.0267 0.6005
C11 C 0.4261(4) 0.72014(16) 0.76742(14)
H10 H 0.3644 0.7648 0.7845
C12 C 0.6021(3) 0.74435(18) 0.75294(13)
H11 H 0.5983 0.7890 0.7202
C13 C 0.7026(4) 0.68341(19) 0.71416(16)
H12 H 0.6918 0.6892 0.6613
H13 H 0.6632 0.6329 0.7276
C14 C 0.8815(4) 0.6912(2) 0.73606(18)
H14 H 0.9506 0.6614 0.7027
C15 C 0.9306(4) 0.7755(2) 0.73507(17)
H15 H 1.0470 0.7775 0.7466
C16 C 0.8411(4) 0.81627(19) 0.79803(16)
H16 H 0.9148 0.8237 0.8391
H17 H 0.8045 0.8663 0.7815
C17 C 0.8954(5) 0.6608(2) 0.81431(18)
H18 H 1.0031 0.6715 0.8336
H19 H 0.8793 0.6057 0.8146
C18 C 0.7671(4) 0.69938(17) 0.86258(16)
H20 H 0.8160 0.7155 0.9087
H21 H 0.6810 0.6631 0.8737
C19 C 0.9092(5) 0.8107(3) 0.6606(2)
H22 H 0.9496 0.7822 0.6214
C20 C 0.8428(6) 0.8751(3) 0.6433(2)
H23 H 0.7999 0.9065 0.6799
H24 H 0.8377 0.8902 0.5943
C21 C 0.5994(4) 0.81309(17) 0.87826(14)
H25 H 0.6714 0.8280 0.9181
H26 H 0.5172 0.7794 0.8988
C22 C 0.5158(4) 0.88459(17) 0.84909(17)
C23 C 0.3385(5) 0.9913(2) 0.8714(2)
H27 H 0.3963 1.0152 0.8309
H28 H 0.3297 1.0288 0.9107
C24 C 0.1710(6) 0.9696(3) 0.8462(3)
H29 H 0.1116 0.9479 0.8866
H30 H 0.1788 0.9327 0.8071
H31 H 0.1154 1.0145 0.8287
C25 C 0.4319(5) 0.9119(2) 0.97795(17)
H32 H 0.4590 0.8587 0.9874
H33 H 0.3233 0.9210 0.9968
C26 C 0.5499(6) 0.9624(2) 1.0182(2)
H34 H 0.5298 1.0150 1.0056
H35 H 0.6589 0.9489 1.0044
H36 H 0.5365 0.9556 1.0703
Cl1 Cl 0.19903(11) 0.74211(6) 0.93207(4)
O4 O 0.9536(5) 0.8684(2) -0.01438(18)
loop_
_geom_bond_atom_site_label_1
_geom_bond_atom_site_label_2
_geom_bond_site_symmetry_1
_geom_bond_site_symmetry_2
O1 C3 1_555 1_555
O2 H1 1_555 1_555
O3 C22 1_555 1_555
N1 C12 1_555 1_555
N2 C22 1_555 1_555
C1 C2 1_555 1_555
C2 H2 1_555 1_555
C3 C2 1_555 1_555
C4 C3 1_555 1_555
H3 C4 1_555 1_555
C5 C4 1_555 1_555
H4 C5 1_555 1_555
C6 C1 1_555 1_555
N3 C6 1_555 1_555
C7 N3 1_555 1_555
H5 C7 1_555 1_555
C8 C7 1_555 1_555
H6 C8 1_555 1_555
C9 C1 1_555 1_555
C10 O1 1_555 1_555
H7 C10 1_555 1_555
H8 C10 1_555 1_555
H9 C10 1_555 1_555
C11 O2 1_555 1_555
H10 C11 1_555 1_555
C12 C11 1_555 1_555
H11 C12 1_555 1_555
C13 C12 1_555 1_555
H12 C13 1_555 1_555
H13 C13 1_555 1_555
C14 C13 1_555 1_555
H14 C14 1_555 1_555
C15 C14 1_555 1_555
H15 C15 1_555 1_555
C16 N1 1_555 1_555
H16 C16 1_555 1_555
H17 C16 1_555 1_555
C17 C14 1_555 1_555
H18 C17 1_555 1_555
H19 C17 1_555 1_555
C18 N1 1_555 1_555
H20 C18 1_555 1_555
H21 C18 1_555 1_555
C19 C15 1_555 1_555
H22 C19 1_555 1_555
C20 C19 1_555 1_555
H23 C20 1_555 1_555
H24 C20 1_555 1_555
C21 N1 1_555 1_555
H25 C21 1_555 1_555
H26 C21 1_555 1_555
C22 C21 1_555 1_555
C23 N2 1_555 1_555
H27 C23 1_555 1_555
H28 C23 1_555 1_555
C24 C23 1_555 1_555
H29 C24 1_555 1_555
H30 C24 1_555 1_555
H31 C24 1_555 1_555
C25 N2 1_555 1_555
H32 C25 1_555 1_555
H33 C25 1_555 1_555
C26 C25 1_555 1_555
H34 C26 1_555 1_555
H35 C26 1_555 1_555
H36 C26 1_555 1_555
C5 C6 1_555 1_555
C8 C9 1_555 1_555
C9 C11 1_555 1_555
C15 C16 1_555 1_555
C17 C18 1_555 1_555

#END
