
#######################################################################
#
#                 Cambridge Crystallographic Data Centre
#                                CCDC 
#
#######################################################################
#
# If this CIF has been generated from an entry in the Cambridge 
# Structural Database, then it will include bibliographic, chemical, 
# crystal, experimental, refinement or atomic coordinate data resulting 
# from the CCDC's data processing and validation procedures.
#
#######################################################################

data_GITPUX
_chemical_formula_moiety         'C14 H19 N3 O1'
_chemical_name_systematic        
3-(propan-2-yl)-2-[(propan-2-yl)amino]quinazolin-4(3H)-one
_symmetry_cell_setting           tetragonal
_symmetry_space_group_name_H-M   'P 42/n'
_symmetry_Int_Tables_number      86
_space_group_name_Hall           '-P 4bc'
loop_
_symmetry_equiv_pos_site_id
_symmetry_equiv_pos_as_xyz
1 x,y,z
2 -y,1/2+x,1/2+z
3 1/2-x,1/2-y,z
4 1/2+y,-x,1/2+z
5 -x,-y,-z
6 y,1/2-x,1/2-z
7 1/2+x,1/2+y,-z
8 1/2-y,x,1/2-z
_cell_length_a                   16.6882(4)
_cell_length_b                   16.6882(4)
_cell_length_c                   10.0005(4)
_cell_angle_alpha                90
_cell_angle_beta                 90
_cell_angle_gamma                90
_cell_volume                     2785.1
_exptl_crystal_colour            colorless
_exptl_crystal_description       block
_cell_formula_units_Z            8
loop_
_atom_site_label
_atom_site_type_symbol
_atom_site_fract_x
_atom_site_fract_y
_atom_site_fract_z
O1 O 0.24820(8) 0.48183(8) 0.11100(12)
N1 N 0.40653(9) 0.41472(9) 0.47357(15)
N2 N 0.33326(8) 0.45453(8) 0.28280(13)
C1 C 0.35017(9) 0.46329(10) 0.41948(17)
N3 N 0.31497(9) 0.51557(9) 0.49681(15)
C2 C 0.26874(10) 0.49588(10) 0.22629(17)
C3 C 0.22937(10) 0.55385(10) 0.31135(19)
C4 C 0.25579(10) 0.56334(10) 0.4421(2)
C5 C 0.38494(10) 0.40575(11) 0.19198(18)
H1 H 0.4274 0.3830 0.2479
C6 C 0.21864(12) 0.62144(12) 0.5226(2)
H2 H 0.2359 0.6292 0.6101
C7 C 0.16538(11) 0.60009(11) 0.2625(2)
H3 H 0.1476 0.5928 0.1752
C8 C 0.42187(12) 0.41502(12) 0.61765(19)
H4 H 0.4256 0.4708 0.6475
C9 C 0.34220(13) 0.33596(12) 0.1290(2)
H5 H 0.3204 0.3022 0.1977
H6 H 0.3793 0.3057 0.0757
H7 H 0.2996 0.3554 0.0732
C10 C 0.50188(14) 0.37474(14) 0.6428(2)
H8 H 0.4997 0.3202 0.6123
H9 H 0.5135 0.3756 0.7368
H10 H 0.5432 0.4029 0.5952
C11 C 0.12929(13) 0.65537(13) 0.3422(2)
H11 H 0.0864 0.6854 0.3102
C12 C 0.42609(14) 0.45759(14) 0.0894(2)
H12 H 0.3871 0.4783 0.0279
H13 H 0.4648 0.4262 0.0414
H14 H 0.4526 0.5013 0.1334
C13 C 0.15709(13) 0.66668(13) 0.4724(2)
H15 H 0.1334 0.7056 0.5260
C14 C 0.35472(16) 0.37518(19) 0.6929(2)
H16 H 0.3054 0.4029 0.6752
H17 H 0.3659 0.3768 0.7870
H18 H 0.3500 0.3204 0.6645
H19 H 0.4235(13) 0.3739(12) 0.430(2)
loop_
_geom_bond_atom_site_label_1
_geom_bond_atom_site_label_2
_geom_bond_site_symmetry_1
_geom_bond_site_symmetry_2
O1 C2 1_555 1_555
N1 C1 1_555 1_555
N2 C1 1_555 1_555
C1 N3 1_555 1_555
N3 C4 1_555 1_555
C2 N2 1_555 1_555
C3 C2 1_555 1_555
C4 C3 1_555 1_555
C5 N2 1_555 1_555
H1 C5 1_555 1_555
C6 C4 1_555 1_555
H2 C6 1_555 1_555
C7 C3 1_555 1_555
H3 C7 1_555 1_555
C8 N1 1_555 1_555
H4 C8 1_555 1_555
C9 C5 1_555 1_555
H5 C9 1_555 1_555
H6 C9 1_555 1_555
H7 C9 1_555 1_555
C10 C8 1_555 1_555
H8 C10 1_555 1_555
H9 C10 1_555 1_555
H10 C10 1_555 1_555
C11 C7 1_555 1_555
H11 C11 1_555 1_555
C12 C5 1_555 1_555
H12 C12 1_555 1_555
H13 C12 1_555 1_555
H14 C12 1_555 1_555
C13 C6 1_555 1_555
H15 C13 1_555 1_555
C14 C8 1_555 1_555
H16 C14 1_555 1_555
H17 C14 1_555 1_555
H18 C14 1_555 1_555
H19 N1 1_555 1_555
C11 C13 1_555 1_555

#END
