
#######################################################################
#
#                 Cambridge Crystallographic Data Centre
#                                CCDC 
#
#######################################################################
#
# If this CIF has been generated from an entry in the Cambridge 
# Structural Database, then it will include bibliographic, chemical, 
# crystal, experimental, refinement or atomic coordinate data resulting 
# from the CCDC's data processing and validation procedures.
#
#######################################################################

data_GITWUD01
_chemical_formula_moiety         'C23 H15 N1 O1'
_chemical_name_systematic        1,3-diphenyl[1]benzofuro[2,3-c]pyridine
_symmetry_cell_setting           orthorhombic
_symmetry_space_group_name_H-M   'P c a 21'
_symmetry_Int_Tables_number      29
_space_group_name_Hall           'P 2c -2ac'
loop_
_symmetry_equiv_pos_site_id
_symmetry_equiv_pos_as_xyz
1 x,y,z
2 -x,-y,1/2+z
3 1/2+x,-y,z
4 1/2-x,y,1/2+z
_cell_length_a                   22.402(2)
_cell_length_b                   5.3481(6)
_cell_length_c                   13.3587(14)
_cell_angle_alpha                90
_cell_angle_beta                 90
_cell_angle_gamma                90
_cell_volume                     1600.48
_exptl_crystal_colour            colorless
_exptl_crystal_description       prismatic
_cell_formula_units_Z            4
loop_
_atom_site_label
_atom_site_type_symbol
_atom_site_fract_x
_atom_site_fract_y
_atom_site_fract_z
N1 N 0.50390(8) 0.4165(3) 0.44690(13)
O1 O 0.62568(7) 0.8224(3) 0.52968(13)
C1 C 0.61496(11) 1.0120(5) 0.59865(17)
C2 C 0.65624(12) 1.1794(5) 0.6346(2)
H1 H 0.6961 1.1737 0.6151
C3 C 0.63549(13) 1.3561(5) 0.70114(19)
H2 H 0.6621 1.4726 0.7273
C4 C 0.57598(13) 1.3651(5) 0.73014(18)
H3 H 0.5633 1.4862 0.7753
C5 C 0.53575(11) 1.1951(5) 0.69210(17)
H4 H 0.4958 1.2008 0.7111
C6 C 0.55573(10) 1.0133(4) 0.62436(17)
C7 C 0.52792(10) 0.8159(4) 0.56920(16)
C8 C 0.57191(9) 0.7038(4) 0.51162(16)
C9 C 0.56028(9) 0.5032(4) 0.44970(17)
C10 C 0.46030(9) 0.5175(4) 0.50405(16)
C11 C 0.47027(10) 0.7210(5) 0.56493(18)
H5 H 0.4395 0.7924 0.6019
C12 C 0.60477(9) 0.3723(5) 0.38651(17)
C13 C 0.66390(10) 0.4459(5) 0.3817(2)
H6 H 0.6763 0.5852 0.4178
C14 C 0.70440(11) 0.3180(6) 0.3249(2)
H7 H 0.7439 0.3714 0.3225
C15 C 0.68726(12) 0.1123(6) 0.2717(2)
H8 H 0.7150 0.0246 0.2336
C16 C 0.62970(11) 0.0371(6) 0.27487(19)
H9 H 0.6180 -0.1034 0.2389
C17 C 0.58822(11) 0.1655(5) 0.33059(17)
H10 H 0.5486 0.1131 0.3307
C18 C 0.40132(9) 0.3904(5) 0.49579(16)
C19 C 0.39389(10) 0.1907(5) 0.4329(2)
H11 H 0.4263 0.1342 0.3958
C20 C 0.33966(12) 0.0707(6) 0.4230(2)
H12 H 0.3358 -0.0640 0.3794
C21 C 0.29146(11) 0.1508(6) 0.4775(2)
H13 H 0.2546 0.0732 0.4703
C22 C 0.29821(11) 0.3433(6) 0.5415(2)
H14 H 0.2660 0.3942 0.5803
C23 C 0.35241(11) 0.4671(5) 0.5507(2)
H15 H 0.3558 0.6024 0.5941
loop_
_geom_bond_atom_site_label_1
_geom_bond_atom_site_label_2
_geom_bond_site_symmetry_1
_geom_bond_site_symmetry_2
N1 C9 1_555 1_555
O1 C1 1_555 1_555
C1 C2 1_555 1_555
C2 H1 1_555 1_555
C3 C2 1_555 1_555
H2 C3 1_555 1_555
C4 C3 1_555 1_555
H3 C4 1_555 1_555
C5 C4 1_555 1_555
H4 C5 1_555 1_555
C6 C1 1_555 1_555
C7 C6 1_555 1_555
C8 O1 1_555 1_555
C9 C8 1_555 1_555
C10 N1 1_555 1_555
C11 C7 1_555 1_555
H5 C11 1_555 1_555
C12 C9 1_555 1_555
C13 C12 1_555 1_555
H6 C13 1_555 1_555
C14 C13 1_555 1_555
H7 C14 1_555 1_555
C15 C14 1_555 1_555
H8 C15 1_555 1_555
C16 C15 1_555 1_555
H9 C16 1_555 1_555
C17 C12 1_555 1_555
H10 C17 1_555 1_555
C18 C10 1_555 1_555
C19 C18 1_555 1_555
H11 C19 1_555 1_555
C20 C19 1_555 1_555
H12 C20 1_555 1_555
C21 C20 1_555 1_555
H13 C21 1_555 1_555
C22 C21 1_555 1_555
H14 C22 1_555 1_555
C23 C18 1_555 1_555
H15 C23 1_555 1_555
C5 C6 1_555 1_555
C7 C8 1_555 1_555
C10 C11 1_555 1_555
C16 C17 1_555 1_555
C22 C23 1_555 1_555

#END
