
#######################################################################
#
#                 Cambridge Crystallographic Data Centre
#                                CCDC 
#
#######################################################################
#
# If this CIF has been generated from an entry in the Cambridge 
# Structural Database, then it will include bibliographic, chemical, 
# crystal, experimental, refinement or atomic coordinate data resulting 
# from the CCDC's data processing and validation procedures.
#
#######################################################################

data_GITXAL
_chemical_formula_moiety         'C18 H12 O4 Se2,2(C2 H6 O1 S1)'
_chemical_name_systematic        
'2,5-dihydroxy-3,6-bis(phenylselanyl)cyclohexa-2,5-diene-1,4-dione dimethyl sulfoxide solvate'
_symmetry_cell_setting           monoclinic
_symmetry_space_group_name_H-M   'P c'
_symmetry_Int_Tables_number      7
_space_group_name_Hall           'P -2yc'
loop_
_symmetry_equiv_pos_site_id
_symmetry_equiv_pos_as_xyz
1 x,y,z
2 x,-y,1/2+z
_cell_length_a                   10.4783(6)
_cell_length_b                   5.8620(3)
_cell_length_c                   20.6213(12)
_cell_angle_alpha                90
_cell_angle_beta                 96.093(2)
_cell_angle_gamma                90
_cell_volume                     1259.48
_cell_formula_units_Z            2
loop_
_atom_site_label
_atom_site_type_symbol
_atom_site_fract_x
_atom_site_fract_y
_atom_site_fract_z
Se1 Se 0.48138(7) 0.2976(3) 0.39582(4)
Se2 Se 0.52602(7) 1.2015(3) 0.59795(4)
O1 O 0.7244(12) 0.843(2) 0.5749(6)
H1 H 0.7655 0.7241 0.5767
O2 O 0.7116(12) 0.501(2) 0.4912(6)
C1 C 0.6098(17) 0.602(3) 0.4906(8)
C2 C 0.4977(15) 0.562(3) 0.4497(6)
C3 C 0.6089(18) 0.195(3) 0.2853(9)
H2 H 0.5617 0.0609 0.2868
C4 C 0.3900(14) 0.704(2) 0.4562(7)
C5 C 0.3442(15) 0.942(3) 0.6632(7)
H3 H 0.3499 0.8282 0.6323
O3 O 0.2844(11) 0.661(2) 0.4182(6)
H4 H 0.2237 0.7244 0.4326
C6 C 0.746(2) 0.585(4) 0.2838(10)
H5 H 0.7953 0.7166 0.2836
C7 C 0.4127(15) 1.137(2) 0.6590(7)
O4 O 0.2988(11) 1.018(2) 0.5008(6)
C8 C 0.5979(15) 0.363(3) 0.3296(7)
C9 C 0.757(2) 0.427(4) 0.2372(10)
H6 H 0.8090 0.4564 0.2046
C10 C 0.6111(17) 0.809(2) 0.5415(8)
C11 C 0.3301(19) 1.275(3) 0.7545(9)
H7 H 0.3284 1.3891 0.7858
C12 C 0.693(2) 0.226(4) 0.2369(8)
H8 H 0.7046 0.1137 0.2062
C13 C 0.5132(13) 0.938(3) 0.5435(7)
C14 C 0.2532(18) 1.081(3) 0.7601(7)
H9 H 0.1985 1.0680 0.7926
C15 C 0.6689(18) 0.563(2) 0.3287(8)
H10 H 0.6617 0.6772 0.3593
C16 C 0.3928(14) 0.892(3) 0.5005(7)
C17 C 0.4058(18) 1.305(3) 0.7067(7)
H11 H 0.4539 1.4383 0.7052
C18 C 0.263(2) 0.908(4) 0.7145(9)
H12 H 0.2175 0.7726 0.7171
S1 S 0.9834(5) 0.4218(11) 0.5623(3)
C19 C 0.9403(16) 0.632(3) 0.5888(9)
H13 H 0.8557 0.6119 0.6016
H14 H 0.9386 0.7499 0.5562
H15 H 0.9980 0.6757 0.6260
O5 O 1.1610(18) 0.467(4) 0.5735(11)
C20 C 0.966(3) 0.223(4) 0.6212(17)
H16 H 0.9976 0.2827 0.6631
H17 H 1.0126 0.0875 0.6125
H18 H 0.8763 0.1855 0.6211
S2 S 1.0189(5) 0.0634(9) 0.4346(3)
O6 O 1.0740(10) -0.138(2) 0.4010(6)
C21 C 0.8554(11) 0.042(2) 0.4233(6)
H19 H 0.8279 0.0261 0.3776
H20 H 0.8179 0.1775 0.4395
H21 H 0.8284 -0.0884 0.4464
C22 C 1.028(3) 0.301(4) 0.3807(14)
H22 H 1.1130 0.3121 0.3680
H23 H 1.0072 0.4387 0.4026
H24 H 0.9677 0.2799 0.3427
loop_
_geom_bond_atom_site_label_1
_geom_bond_atom_site_label_2
_geom_bond_site_symmetry_1
_geom_bond_site_symmetry_2
Se1 C2 1_555 1_555
Se2 C7 1_555 1_555
O1 H1 1_555 1_555
O2 C1 1_555 1_555
C1 C2 1_555 1_555
C2 C4 1_555 1_555
C3 H2 1_555 1_555
C4 O3 1_555 1_555
C5 H3 1_555 1_555
O3 H4 1_555 1_555
C6 H5 1_555 1_555
C7 C5 1_555 1_555
O4 C16 1_555 1_555
C8 Se1 1_555 1_555
C9 C6 1_555 1_555
H6 C9 1_555 1_555
C10 O1 1_555 1_555
C11 H7 1_555 1_555
C12 C3 1_555 1_555
H8 C12 1_555 1_555
C13 Se2 1_555 1_555
C14 C11 1_555 1_555
H9 C14 1_555 1_555
C15 C6 1_555 1_555
H10 C15 1_555 1_555
C16 C4 1_555 1_555
C17 C7 1_555 1_555
H11 C17 1_555 1_555
C18 C5 1_555 1_555
H12 C18 1_555 1_555
S1 C19 1_555 1_555
C19 H13 1_555 1_555
H14 C19 1_555 1_555
H15 C19 1_555 1_555
O5 S1 1_555 1_555
C20 S1 1_555 1_555
H16 C20 1_555 1_555
H17 C20 1_555 1_555
H18 C20 1_555 1_555
S2 O6 1_555 1_555
C21 S2 1_555 1_555
H19 C21 1_555 1_555
H20 C21 1_555 1_555
H21 C21 1_555 1_555
C22 S2 1_555 1_555
H22 C22 1_555 1_555
H23 C22 1_555 1_555
H24 C22 1_555 1_555
C1 C10 1_555 1_555
C3 C8 1_555 1_555
C8 C15 1_555 1_555
C9 C12 1_555 1_555
C10 C13 1_555 1_555
C11 C17 1_555 1_555
C13 C16 1_555 1_555
C14 C18 1_555 1_555

#END
