
#######################################################################
#
#                 Cambridge Crystallographic Data Centre
#                                CCDC 
#
#######################################################################
#
# If this CIF has been generated from an entry in the Cambridge 
# Structural Database, then it will include bibliographic, chemical, 
# crystal, experimental, refinement or atomic coordinate data resulting 
# from the CCDC's data processing and validation procedures.
#
#######################################################################

data_GIVLII
_chemical_formula_moiety         'C18 H8 Cl2 N6 O6,C8 H20 N1 1+,N1 O3 1-'
_chemical_name_systematic        
'tetraethylammonium nitrate 5,17-dichloro-2,8,14,20-tetraoxa-4,6,16,18,26,28-hexaazapentacyclo[19.3.1.1^3,7^.1^9,13^.1^15,19^]octacosa-1(25),3(28),4,6,9(27),10,12,15(26),16,18,21,23-dodecaene-11,23-diol'
_symmetry_cell_setting           orthorhombic
_symmetry_space_group_name_H-M   'P b c a'
_symmetry_Int_Tables_number      61
_space_group_name_Hall           '-P 2ac 2ab'
loop_
_symmetry_equiv_pos_site_id
_symmetry_equiv_pos_as_xyz
1 x,y,z
2 1/2-x,-y,1/2+z
3 -x,1/2+y,1/2-z
4 1/2+x,1/2-y,-z
5 -x,-y,-z
6 1/2+x,y,1/2-z
7 x,1/2-y,1/2+z
8 1/2-x,1/2+y,z
_cell_length_a                   17.539(4)
_cell_length_b                   17.744(4)
_cell_length_c                   19.730(4)
_cell_angle_alpha                90
_cell_angle_beta                 90
_cell_angle_gamma                90
_cell_volume                     6140.21
_exptl_crystal_colour            'light yellow'
_exptl_crystal_description       block
_cell_formula_units_Z            8
loop_
_atom_site_label
_atom_site_type_symbol
_atom_site_fract_x
_atom_site_fract_y
_atom_site_fract_z
Cl1 Cl 0.4841(3) 0.0968(2) 0.5027(2)
Cl2 Cl 0.7429(3) 0.5718(3) 0.8620(3)
O1 O 0.5758(5) 0.1260(4) 0.7295(4)
O2 O 0.6625(5) 0.3156(5) 0.8861(5)
O3 O 0.5125(5) 0.4760(4) 0.7608(5)
O4 O 0.3699(5) 0.2654(5) 0.6647(5)
O5 O 0.5596(6) 0.0845(6) 0.9653(5)
H1 H 0.5621 0.1076 1.0024
O6 O 0.2518(9) 0.4334(9) 0.8131(14)
H2 H 0.2182 0.4009 0.8052
N1 N 0.4243(7) 0.1870(6) 0.5927(6)
N2 N 0.5318(7) 0.1150(5) 0.6256(5)
N3 N 0.4719(5) 0.2003(5) 0.7034(4)
N4 N 0.6963(7) 0.4340(8) 0.8685(7)
N5 N 0.5794(6) 0.3909(5) 0.8221(5)
N6 N 0.6184(8) 0.5179(7) 0.8046(7)
C1 C 0.4819(9) 0.1362(7) 0.5848(7)
C2 C 0.5218(7) 0.1485(6) 0.6859(6)
C3 C 0.4272(6) 0.2148(6) 0.6565(6)
C4 C 0.5800(7) 0.1563(7) 0.7962(6)
C5 C 0.5637(8) 0.1101(7) 0.8492(7)
H3 H 0.5435 0.0612 0.8410
C6 C 0.5759(8) 0.1331(8) 0.9129(7)
C7 C 0.6065(7) 0.2039(8) 0.9260(5)
H4 H 0.6155 0.2204 0.9711
C8 C 0.6228(7) 0.2483(7) 0.8725(5)
C9 C 0.6110(6) 0.2287(6) 0.8054(7)
H5 H 0.6229 0.2613 0.7687
C10 C 0.6440(8) 0.3817(8) 0.8567(7)
C11 C 0.6777(11) 0.4999(9) 0.8428(10)
C12 C 0.5733(8) 0.4591(7) 0.7979(7)
C13 C 0.4480(7) 0.4270(6) 0.7594(6)
C14 C 0.3883(9) 0.4472(7) 0.7943(8)
H6 H 0.3911 0.4907 0.8224
C15 C 0.3212(8) 0.4070(7) 0.7913(8)
C16 C 0.3175(8) 0.3443(7) 0.7491(8)
H7 H 0.2722 0.3150 0.7468
C17 C 0.3786(7) 0.3255(6) 0.7117(7)
C18 C 0.4463(7) 0.3660(7) 0.7168(6)
H8 H 0.4901 0.3518 0.6915
O8 O 0.5734(8) 0.2861(7) 0.5921(6)
O9 O 0.6535(9) 0.3212(8) 0.6680(7)
O10 O 0.6218(7) 0.3904(8) 0.5901(6)
N7 N 0.6198(7) 0.3253(6) 0.6160(7)
N8 N 0.6862(6) 0.6343(7) 0.5686(6)
C19 C 0.6285(9) 0.5913(9) 0.5317(8)
H10 H 0.5785 0.6007 0.5534
H11 H 0.6401 0.5370 0.5373
C20 C 0.6204(12) 0.6076(11) 0.4552(10)
H12 H 0.5825 0.5733 0.4356
H13 H 0.6697 0.5999 0.4328
H14 H 0.6038 0.6598 0.4487
C21 C 0.6798(12) 0.7155(8) 0.5602(12)
H15 H 0.6819 0.7284 0.5114
H16 H 0.7229 0.7408 0.5832
C22 C 0.6008(12) 0.7445(10) 0.5918(11)
H17 H 0.5581 0.7240 0.5655
H18 H 0.5991 0.7997 0.5903
H19 H 0.5967 0.7275 0.6390
C23 C 0.6812(12) 0.6049(9) 0.6396(8)
H20 H 0.6295 0.6152 0.6574
H21 H 0.6881 0.5495 0.6386
C24 C 0.7379(14) 0.6376(13) 0.6869(11)
H22 H 0.7889 0.6340 0.6669
H23 H 0.7367 0.6098 0.7298
H24 H 0.7254 0.6906 0.6953
C25 C 0.7625(11) 0.6170(11) 0.5418(11)
H25 H 0.8003 0.6433 0.5705
H26 H 0.7661 0.6390 0.4958
C26 C 0.7858(12) 0.5355(12) 0.5372(10)
H27 H 0.8376 0.5320 0.5189
H28 H 0.7505 0.5085 0.5073
H29 H 0.7844 0.5128 0.5825
O7? O 0.280(2) 0.422(2) 0.8484(16)
H9? H 0.2389 0.3970 0.8474
loop_
_geom_bond_atom_site_label_1
_geom_bond_atom_site_label_2
_geom_bond_site_symmetry_1
_geom_bond_site_symmetry_2
Cl1 C1 1_555 1_555
Cl2 C11 1_555 1_555
O1 C2 1_555 1_555
O2 C8 1_555 1_555
O3 C12 1_555 1_555
O4 C3 1_555 1_555
O5 H1 1_555 1_555
O6 H2 1_555 1_555
N1 C1 1_555 1_555
N2 C1 1_555 1_555
N3 C2 1_555 1_555
N4 C10 1_555 1_555
N5 C10 1_555 1_555
N6 C11 1_555 1_555
C2 N2 1_555 1_555
C3 N1 1_555 1_555
C4 O1 1_555 1_555
C5 C4 1_555 1_555
H3 C5 1_555 1_555
C6 O5 1_555 1_555
C7 C6 1_555 1_555
H4 C7 1_555 1_555
C8 C7 1_555 1_555
C9 C4 1_555 1_555
H5 C9 1_555 1_555
C10 O2 1_555 1_555
C11 N4 1_555 1_555
C12 N5 1_555 1_555
C13 O3 1_555 1_555
C14 C13 1_555 1_555
H6 C14 1_555 1_555
C15 O6 1_555 1_555
C16 C15 1_555 1_555
H7 C16 1_555 1_555
C17 O4 1_555 1_555
C18 C13 1_555 1_555
H8 C18 1_555 1_555
O8 N7 1_555 1_555
O9 N7 1_555 1_555
O10 N7 1_555 1_555
N8 C19 1_555 1_555
C19 H10 1_555 1_555
H11 C19 1_555 1_555
C20 C19 1_555 1_555
H12 C20 1_555 1_555
H13 C20 1_555 1_555
H14 C20 1_555 1_555
C21 N8 1_555 1_555
H15 C21 1_555 1_555
H16 C21 1_555 1_555
C22 C21 1_555 1_555
H17 C22 1_555 1_555
H18 C22 1_555 1_555
H19 C22 1_555 1_555
C23 N8 1_555 1_555
H20 C23 1_555 1_555
H21 C23 1_555 1_555
C24 C23 1_555 1_555
H22 C24 1_555 1_555
H23 C24 1_555 1_555
H24 C24 1_555 1_555
C25 N8 1_555 1_555
H25 C25 1_555 1_555
H26 C25 1_555 1_555
C26 C25 1_555 1_555
H27 C26 1_555 1_555
H28 C26 1_555 1_555
H29 C26 1_555 1_555
N3 C3 1_555 1_555
N6 C12 1_555 1_555
C5 C6 1_555 1_555
C8 C9 1_555 1_555
C14 C15 1_555 1_555
C16 C17 1_555 1_555
C17 C18 1_555 1_555

#END
