
#######################################################################
#
#                 Cambridge Crystallographic Data Centre
#                                CCDC 
#
#######################################################################
#
# If this CIF has been generated from an entry in the Cambridge 
# Structural Database, then it will include bibliographic, chemical, 
# crystal, experimental, refinement or atomic coordinate data resulting 
# from the CCDC's data processing and validation procedures.
#
#######################################################################

data_GIVLOO
_chemical_formula_moiety         'C18 H8 Cl2 N6 O6,C4 H8 O2,0.5(H2 O1)'
_chemical_name_systematic        
'5,17-dichloro-2,8,14,20-tetraoxa-4,6,16,18,26,28-hexaazapentacyclo[19.3.1.1^3,7^.1^9,13^.1^15,19^]octacosa-1(25),3(28),4,6,9(27),10,12,15(26),16,18,21,23-dodecaene-11,23-diol ethyl acetate solvate hemihydrate'
_symmetry_cell_setting           monoclinic
_symmetry_space_group_name_H-M   'P 21/n'
_symmetry_Int_Tables_number      14
_space_group_name_Hall           '-P 2yn'
loop_
_symmetry_equiv_pos_site_id
_symmetry_equiv_pos_as_xyz
1 x,y,z
2 1/2-x,1/2+y,1/2-z
3 -x,-y,-z
4 1/2+x,1/2-y,1/2+z
_cell_length_a                   13.470(3)
_cell_length_b                   12.046(2)
_cell_length_c                   30.738(6)
_cell_angle_alpha                90
_cell_angle_beta                 92.59(3)
_cell_angle_gamma                90
_cell_volume                     4982.44
_exptl_crystal_colour            colorless
_exptl_crystal_description       Prism
_cell_formula_units_Z            8
loop_
_atom_site_label
_atom_site_type_symbol
_atom_site_fract_x
_atom_site_fract_y
_atom_site_fract_z
Cl1 Cl 0.51861(11) 0.68582(14) 0.16057(6)
Cl2 Cl 1.25881(12) 0.60271(15) 0.40352(5)
O1 O 1.1393(3) 0.7764(5) 0.10727(14)
H1 H 1.2005 0.7894 0.1070
O2 O 1.1002(3) 0.3002(4) 0.13870(15)
H2 H 1.1526 0.2690 0.1482
O3 O 0.8535(3) 0.8148(3) 0.18937(15)
O4 O 0.7973(3) 0.4382(3) 0.18753(15)
O5 O 1.0821(3) 0.4094(3) 0.28775(14)
O6 O 1.1727(3) 0.7712(3) 0.26370(13)
N1 N 0.6699(3) 0.5550(4) 0.17591(16)
N2 N 0.6979(4) 0.7504(4) 0.17894(17)
N3 N 0.8340(3) 0.6247(4) 0.18899(16)
N4 N 1.1678(3) 0.5022(4) 0.33957(15)
N5 N 1.1207(3) 0.5913(4) 0.27244(15)
N6 N 1.2149(3) 0.6900(4) 0.32770(15)
C1 C 0.6420(4) 0.6618(5) 0.1736(2)
C2 C 0.7675(4) 0.5448(5) 0.18464(19)
C3 C 0.7943(4) 0.7245(5) 0.18561(19)
C4 C 0.9574(4) 0.7954(5) 0.1885(2)
C5 C 0.9987(4) 0.7896(5) 0.1489(2)
H3 H 0.9579 0.7921 0.1228
C6 C 1.1014(5) 0.7801(5) 0.1471(2)
C7 C 1.1593(4) 0.7697(5) 0.1858(2)
H4 H 1.2292 0.7596 0.1852
C8 C 1.1128(4) 0.7746(5) 0.22437(19)
C9 C 1.0120(4) 0.7891(5) 0.2272(2)
H5 H 0.9819 0.7945 0.2545
C10 C 1.1680(4) 0.6794(5) 0.28831(19)
C11 C 1.2097(4) 0.5972(5) 0.35078(19)
C12 C 1.1247(4) 0.5062(5) 0.29960(19)
C13 C 1.0379(5) 0.4008(5) 0.2449(2)
C14 C 1.0943(4) 0.3590(5) 0.2134(2)
H6 H 1.1623 0.3411 0.2193
C15 C 1.0498(4) 0.3428(5) 0.1721(2)
C16 C 0.9508(4) 0.3708(5) 0.1632(2)
H7 H 0.9202 0.3603 0.1351
C17 C 0.8985(4) 0.4143(5) 0.1966(2)
C18 C 0.9387(4) 0.4294(5) 0.2382(2)
H8 H 0.9005 0.4577 0.2610
Cl3 Cl 0.36655(12) 0.55493(15) 0.24191(6)
Cl4 Cl 1.04522(17) 0.2406(2) 0.50961(8)
O7 O 0.9556(3) 0.8590(4) 0.34208(17)
H9 H 0.9188 0.9099 0.3319
O8 O 0.4924(3) 0.5506(4) 0.39135(14)
O9 O 0.7145(3) 0.5998(4) 0.28371(14)
O10 O 0.9742(3) 0.4837(4) 0.38773(15)
N7 N 0.4376(4) 0.5537(4) 0.32184(18)
N8 N 0.5530(4) 0.5771(4) 0.26578(17)
N9 N 0.6100(4) 0.5809(4) 0.34076(16)
N10 N 0.8929(5) 0.3723(6) 0.5027(2)
N11 N 0.8610(4) 0.4905(5) 0.44103(17)
N12 N 1.0024(4) 0.3707(5) 0.44443(19)
C19 C 0.4628(4) 0.5616(5) 0.2807(2)
C20 C 0.5160(4) 0.5626(5) 0.3502(2)
C21 C 0.6222(4) 0.5858(5) 0.2987(2)
C22 C 0.7948(4) 0.6231(5) 0.3144(2)
C23 C 0.8311(4) 0.7298(5) 0.3136(2)
H10 H 0.8009 0.7843 0.2950
C24 C 0.9135(4) 0.7554(5) 0.3407(2)
C25 C 0.9587(4) 0.6729(5) 0.3665(2)
H11 H 1.0153 0.6894 0.3849
C26 C 0.9203(5) 0.5683(5) 0.3648(2)
C27 C 0.8374(4) 0.5383(5) 0.3391(2)
H12 H 0.8117 0.4649 0.3385
C28 C 0.9429(5) 0.4484(5) 0.4259(2)
C29 C 0.9721(5) 0.3391(6) 0.4822(3)
C30 C 0.8399(5) 0.4486(7) 0.4789(2)
O11 O 0.5991(5) 0.8436(5) 0.4824(2)
H13 H 0.6329 0.8582 0.5054
O12 O 0.7609(5) 0.4891(6) 0.4991(2)
C31 C 0.6924(6) 0.5584(7) 0.4764(3)
C32 C 0.6838(6) 0.6667(6) 0.4910(3)
H14 H 0.7258 0.6937 0.5143
C33 C 0.6125(6) 0.7347(6) 0.4708(3)
C34 C 0.5500(6) 0.6956(6) 0.4372(3)
H15 H 0.5017 0.7423 0.4230
C35 C 0.6359(6) 0.5175(7) 0.4413(3)
H16 H 0.6482 0.4466 0.4291
C36 C 0.5609(4) 0.5855(5) 0.4249(2)
O15 O 1.1658(3) 0.3004(4) 0.38874(15)
H21 H 1.1756 0.3656 0.3803
H22 H 1.1249 0.3082 0.4084
O16 O 0.7176(5) 0.9122(6) 0.5475(2)
O17 O 0.7254(6) 0.9970(6) 0.6125(2)
C42 C 0.5614(7) 0.9629(10) 0.5797(4)
H23 H 0.5399 1.0347 0.5676
H24 H 0.5418 0.9573 0.6100
H25 H 0.5302 0.9029 0.5625
C43 C 0.6740(8) 0.9534(8) 0.5783(3)
C44 C 0.8336(7) 1.0009(10) 0.6099(4)
H26 H 0.8644 1.0133 0.6394
H27 H 0.8578 0.9289 0.5991
C45 C 0.8631(10) 1.0897(10) 0.5809(4)
H28 H 0.8337 1.0766 0.5516
H29 H 0.9357 1.0910 0.5798
H30 H 0.8398 1.1611 0.5919
O18 O 0.7124(16) 0.2187(14) 0.4217(5)
O19 O 0.7694(12) 0.1082(13) 0.4732(5)
C46 C 0.6337(18) 0.234(2) 0.4905(6)
H31 H 0.6661 0.2936 0.5076
H32 H 0.6130 0.1750 0.5100
H33 H 0.5752 0.2640 0.4743
C47 C 0.706(2) 0.188(2) 0.4588(7)
C48 C 0.8333(16) 0.0667(15) 0.4405(7)
H34 H 0.9035 0.0668 0.4516
H35 H 0.8275 0.1131 0.4139
C49 C 0.7977(17) -0.0530(15) 0.4307(7)
H36 H 0.8403 -0.0868 0.4093
H37 H 0.7289 -0.0512 0.4188
H38 H 0.8012 -0.0967 0.4576
O13? O 0.5496(18) 0.7509(19) 0.5247(8)
H17? H 0.5765 0.7431 0.5497
O14? O 0.7478(14) 0.436(2) 0.4956(9)
C37? C 0.679(2) 0.512(2) 0.4799(9)
C38? C 0.656(2) 0.596(2) 0.5088(9)
H18? H 0.6932 0.6045 0.5356
C39? C 0.578(2) 0.667(2) 0.4979(8)
C40? C 0.528(2) 0.655(3) 0.4576(7)
H19? H 0.4692 0.6964 0.4519
C41? C 0.614(3) 0.498(2) 0.4438(12)
H20? H 0.6062 0.4261 0.4316
O20? O 0.706(3) 0.257(2) 0.4305(9)
O21? O 0.715(2) 0.084(2) 0.4652(8)
C50? C 0.654(3) 0.217(4) 0.5040(10)
H39? H 0.7084 0.2141 0.5264
H40? H 0.6043 0.1608 0.5104
H41? H 0.6239 0.2905 0.5037
C51? C 0.695(5) 0.193(2) 0.4599(13)
C52? C 0.755(2) 0.031(4) 0.4281(9)
H42? H 0.7534 0.0805 0.4024
H43? H 0.7202 -0.0391 0.4206
C53? C 0.863(2) 0.010(4) 0.4458(12)
H44? H 0.8900 -0.0547 0.4311
H45? H 0.8627 -0.0042 0.4772
H46? H 0.9037 0.0753 0.4404
loop_
_geom_bond_atom_site_label_1
_geom_bond_atom_site_label_2
_geom_bond_site_symmetry_1
_geom_bond_site_symmetry_2
Cl1 C1 1_555 1_555
Cl2 C11 1_555 1_555
O1 H1 1_555 1_555
O2 H2 1_555 1_555
O3 C3 1_555 1_555
O4 C2 1_555 1_555
O5 C12 1_555 1_555
O6 C8 1_555 1_555
N1 C1 1_555 1_555
N2 C1 1_555 1_555
N3 C2 1_555 1_555
N4 C11 1_555 1_555
N5 C10 1_555 1_555
N6 C10 1_555 1_555
C2 N1 1_555 1_555
C3 N2 1_555 1_555
C4 O3 1_555 1_555
C5 C4 1_555 1_555
H3 C5 1_555 1_555
C6 O1 1_555 1_555
C7 C6 1_555 1_555
H4 C7 1_555 1_555
C8 C7 1_555 1_555
C9 C4 1_555 1_555
H5 C9 1_555 1_555
C10 O6 1_555 1_555
C11 N6 1_555 1_555
C12 N4 1_555 1_555
C13 O5 1_555 1_555
C14 C13 1_555 1_555
H6 C14 1_555 1_555
C15 O2 1_555 1_555
C16 C15 1_555 1_555
H7 C16 1_555 1_555
C17 O4 1_555 1_555
C18 C13 1_555 1_555
H8 C18 1_555 1_555
Cl3 C19 1_555 1_555
Cl4 C29 1_555 1_555
O7 H9 1_555 1_555
O8 C20 1_555 1_555
O9 C21 1_555 1_555
O10 C26 1_555 1_555
N7 C19 1_555 1_555
N8 C19 1_555 1_555
N9 C20 1_555 1_555
N10 C29 1_555 1_555
N11 C28 1_555 1_555
N12 C28 1_555 1_555
C20 N7 1_555 1_555
C21 N8 1_555 1_555
C22 O9 1_555 1_555
C23 C22 1_555 1_555
H10 C23 1_555 1_555
C24 O7 1_555 1_555
C25 C24 1_555 1_555
H11 C25 1_555 1_555
C26 C25 1_555 1_555
C27 C22 1_555 1_555
H12 C27 1_555 1_555
C28 O10 1_555 1_555
C29 N12 1_555 1_555
C30 N10 1_555 1_555
O11 H13 1_555 1_555
O12 C30 1_555 1_555
C31 O12 1_555 1_555
C32 C31 1_555 1_555
H14 C32 1_555 1_555
C33 O11 1_555 1_555
C34 C33 1_555 1_555
H15 C34 1_555 1_555
C35 C31 1_555 1_555
H16 C35 1_555 1_555
C36 O8 1_555 1_555
O15 H21 1_555 1_555
H22 O15 1_555 1_555
O16 C43 1_555 1_555
O17 C43 1_555 1_555
C42 H23 1_555 1_555
H24 C42 1_555 1_555
H25 C42 1_555 1_555
C43 C42 1_555 1_555
C44 O17 1_555 1_555
H26 C44 1_555 1_555
H27 C44 1_555 1_555
C45 C44 1_555 1_555
H28 C45 1_555 1_555
H29 C45 1_555 1_555
H30 C45 1_555 1_555
O18 C47 1_555 1_555
O19 C47 1_555 1_555
C46 H31 1_555 1_555
H32 C46 1_555 1_555
H33 C46 1_555 1_555
C47 C46 1_555 1_555
C48 O19 1_555 1_555
H34 C48 1_555 1_555
H35 C48 1_555 1_555
C49 C48 1_555 1_555
H36 C49 1_555 1_555
H37 C49 1_555 1_555
H38 C49 1_555 1_555
N3 C3 1_555 1_555
N5 C12 1_555 1_555
C5 C6 1_555 1_555
C8 C9 1_555 1_555
C14 C15 1_555 1_555
C16 C17 1_555 1_555
C17 C18 1_555 1_555
N9 C21 1_555 1_555
N11 C30 1_555 1_555
C23 C24 1_555 1_555
C26 C27 1_555 1_555
C32 C33 1_555 1_555
C34 C36 1_555 1_555
C35 C36 1_555 1_555

#END
