
#######################################################################
#
#                 Cambridge Crystallographic Data Centre
#                                CCDC 
#
#######################################################################
#
# If this CIF has been generated from an entry in the Cambridge 
# Structural Database, then it will include bibliographic, chemical, 
# crystal, experimental, refinement or atomic coordinate data resulting 
# from the CCDC's data processing and validation procedures.
#
#######################################################################

data_GIVQUA
_chemical_formula_moiety         'C27 H19 O2 P1 S1'
_chemical_name_systematic        
3-(diphenylphosphoryl)-2-phenyl-4H-1-benzothiopyran-4-one
_symmetry_cell_setting           monoclinic
_symmetry_space_group_name_H-M   'P 21/c'
_symmetry_Int_Tables_number      14
_space_group_name_Hall           '-P 2ybc'
loop_
_symmetry_equiv_pos_site_id
_symmetry_equiv_pos_as_xyz
1 x,y,z
2 -x,1/2+y,1/2-z
3 -x,-y,-z
4 x,1/2-y,1/2+z
_cell_length_a                   10.5444(5)
_cell_length_b                   18.3930(13)
_cell_length_c                   11.2507(6)
_cell_angle_alpha                90
_cell_angle_beta                 96.843(5)
_cell_angle_gamma                90
_cell_volume                     2166.45
_exptl_crystal_description       block
_cell_formula_units_Z            4
loop_
_atom_site_label
_atom_site_type_symbol
_atom_site_fract_x
_atom_site_fract_y
_atom_site_fract_z
P1 P 0.77295(5) 0.58305(3) 0.69511(4)
S1 S 0.36895(5) 0.64037(4) 0.57122(5)
O1 O 0.83027(14) 0.62688(9) 0.60518(13)
O2 O 0.60049(13) 0.53600(9) 0.86851(13)
C1 C 0.81753(18) 0.48829(12) 0.68690(16)
C2 C 0.82513(17) 0.61676(12) 0.84350(18)
C3 C 0.59862(18) 0.59140(11) 0.68117(18)
C4 C 0.41468(19) 0.60179(12) 0.80903(19)
C5 C 0.54123(19) 0.57390(12) 0.79111(18)
C6 C 0.7512(2) 0.42947(12) 0.72703(19)
H1 H 0.6777 0.4374 0.7635
C7 C 0.57134(19) 0.62507(13) 0.45896(18)
C8 C 0.8745(2) 0.57398(14) 0.93938(19)
H2 H 0.8805 0.5239 0.9306
C9 C 0.52919(19) 0.61730(12) 0.58033(17)
C10 C 0.33094(19) 0.63181(13) 0.7161(2)
C11 C 0.9271(2) 0.47483(14) 0.6324(2)
H3 H 0.9730 0.5136 0.6060
C12 C 0.8172(2) 0.69143(13) 0.8586(2)
H4 H 0.7855 0.7205 0.7941
C13 C 0.9016(2) 0.34699(14) 0.6577(2)
H5 H 0.9295 0.2997 0.6476
C14 C 0.3730(2) 0.59489(15) 0.9222(2)
H6 H 0.4272 0.5752 0.9852
C15 C 0.7940(2) 0.35953(13) 0.7129(2)
H7 H 0.7499 0.3205 0.7409
C16 C 0.5366(2) 0.68620(15) 0.3896(2)
H8 H 0.4950 0.7248 0.4218
C17 C 0.8559(2) 0.72315(15) 0.9685(2)
H9 H 0.8490 0.7731 0.9783
C18 C 0.9681(3) 0.40464(15) 0.6173(2)
H10 H 1.0407 0.3962 0.5799
C19 C 0.6351(2) 0.56863(15) 0.4105(2)
H11 H 0.6584 0.5275 0.4559
C20 C 0.9043(2) 0.68036(18) 1.0623(2)
H12 H 0.9303 0.7015 1.1363
C21 C 0.9151(2) 0.60662(16) 1.0487(2)
H13 H 0.9498 0.5783 1.1129
C22 C 0.2073(2) 0.65309(15) 0.7364(3)
H14 H 0.1514 0.6724 0.6743
C23 C 0.5642(3) 0.6894(2) 0.2726(2)
H15 H 0.5392 0.7297 0.2257
C24 C 0.1699(2) 0.64537(16) 0.8467(3)
H16 H 0.0878 0.6592 0.8598
C25 C 0.6281(3) 0.6336(2) 0.2251(2)
H17 H 0.6470 0.6364 0.1465
C26 C 0.2525(2) 0.61707(18) 0.9404(3)
H18 H 0.2261 0.6131 1.0162
C27 C 0.6643(3) 0.57381(18) 0.2936(2)
H19 H 0.7087 0.5363 0.2614
loop_
_geom_bond_atom_site_label_1
_geom_bond_atom_site_label_2
_geom_bond_site_symmetry_1
_geom_bond_site_symmetry_2
P1 O1 1_555 1_555
S1 C9 1_555 1_555
O2 C5 1_555 1_555
C1 P1 1_555 1_555
C2 P1 1_555 1_555
C3 P1 1_555 1_555
C4 C5 1_555 1_555
C5 C3 1_555 1_555
C6 C1 1_555 1_555
H1 C6 1_555 1_555
C7 C9 1_555 1_555
C8 C2 1_555 1_555
H2 C8 1_555 1_555
C9 C3 1_555 1_555
C10 S1 1_555 1_555
C11 C1 1_555 1_555
H3 C11 1_555 1_555
C12 C2 1_555 1_555
H4 C12 1_555 1_555
C13 H5 1_555 1_555
C14 C4 1_555 1_555
H6 C14 1_555 1_555
C15 C6 1_555 1_555
H7 C15 1_555 1_555
C16 C7 1_555 1_555
H8 C16 1_555 1_555
C17 C12 1_555 1_555
H9 C17 1_555 1_555
C18 C11 1_555 1_555
H10 C18 1_555 1_555
C19 C7 1_555 1_555
H11 C19 1_555 1_555
C20 C17 1_555 1_555
H12 C20 1_555 1_555
C21 C8 1_555 1_555
H13 C21 1_555 1_555
C22 C10 1_555 1_555
H14 C22 1_555 1_555
C23 C16 1_555 1_555
H15 C23 1_555 1_555
C24 C22 1_555 1_555
H16 C24 1_555 1_555
C25 C23 1_555 1_555
H17 C25 1_555 1_555
C26 C14 1_555 1_555
H18 C26 1_555 1_555
C27 C19 1_555 1_555
H19 C27 1_555 1_555
C4 C10 1_555 1_555
C13 C15 1_555 1_555
C13 C18 1_555 1_555
C20 C21 1_555 1_555
C24 C26 1_555 1_555
C25 C27 1_555 1_555

#END
