
#######################################################################
#
#                 Cambridge Crystallographic Data Centre
#                                CCDC 
#
#######################################################################
#
# If this CIF has been generated from an entry in the Cambridge 
# Structural Database, then it will include bibliographic, chemical, 
# crystal, experimental, refinement or atomic coordinate data resulting 
# from the CCDC's data processing and validation procedures.
#
#######################################################################

data_GIWCAQ
_chemical_formula_moiety         'C10 H6 S5'
_chemical_name_systematic        4-(3-Thienyl)tetrathiafulvalene
_symmetry_cell_setting           monoclinic
_symmetry_space_group_name_H-M   'P 21/c'
_symmetry_Int_Tables_number      14
_space_group_name_Hall           '-P 2ybc'
loop_
_symmetry_equiv_pos_site_id
_symmetry_equiv_pos_as_xyz
1 x,y,z
2 -x,1/2+y,1/2-z
3 -x,-y,-z
4 x,1/2-y,1/2+z
_cell_length_a                   5.886(1)
_cell_length_b                   8.617(1)
_cell_length_c                   23.146(1)
_cell_angle_alpha                90
_cell_angle_beta                 93.06(1)
_cell_angle_gamma                90
_cell_volume                     1172.28
_exptl_crystal_colour            orange
_chemical_melting_point          95-97deg.C
_cell_formula_units_Z            4
_exptl_crystal_recrystallization_method dichloromethane/hexane
loop_
_atom_site_label
_atom_site_type_symbol
_atom_site_fract_x
_atom_site_fract_y
_atom_site_fract_z
S1 S 0.2495(3) 0.6270(2) 0.16330(7)
S2 S 0.6511(3) 0.4231(2) 0.15933(7)
S3 S 0.3828(3) 0.7846(2) 0.04035(8)
S4 S 0.7876(3) 0.5839(2) 0.04040(8)
S5 S -0.1225(4) 0.6201(3) 0.3435(1)
C1 C 0.4909(10) 0.5713(7) 0.1263(2)
C2 C 0.3258(10) 0.5194(7) 0.2264(2)
C3 C 0.5142(9) 0.4188(7) 0.2225(2)
C4 C 0.5453(10) 0.6385(7) 0.0756(2)
C5 C 0.5518(11) 0.7964(7) -0.0184(2)
C6 C 0.7378(12) 0.7050(9) -0.0181(3)
C8 C -0.0105(10) 0.6392(8) 0.2774(2)
C9 C 0.1877(10) 0.5378(7) 0.2764(2)
C10 C 0.2339(10) 0.4538(7) 0.3315(2)
C11 C 0.0694(11) 0.5002(8) 0.3729(2)
H1 H 0.5612(9) 0.3536(7) 0.2529(2)
H2 H 0.5162(11) 0.8634(7) -0.0491(2)
H3 H 0.8357(12) 0.7076(9) -0.0484(3)
H4 H -0.0670(10) 0.7020(8) 0.2472(2)
H5 H 0.3515(10) 0.3831(7) 0.3386(2)
H6 H 0.0701(11) 0.4641(8) 0.4107(2)
S6? S 0.0694(11) 0.5002(8) 0.3729(2)
C7? C -0.1225(4) 0.6201(3) 0.3435(1)
loop_
_geom_bond_atom_site_label_1
_geom_bond_atom_site_label_2
_geom_bond_site_symmetry_1
_geom_bond_site_symmetry_2
S1 C1 1_555 1_555
S2 C1 1_555 1_555
S3 C4 1_555 1_555
S4 C4 1_555 1_555
S5 C8 1_555 1_555
C1 C4 1_555 1_555
C2 S1 1_555 1_555
C3 S2 1_555 1_555
C5 S3 1_555 1_555
C6 S4 1_555 1_555
C8 C9 1_555 1_555
C9 C2 1_555 1_555
C10 C9 1_555 1_555
C11 S5 1_555 1_555
H1 C3 1_555 1_555
H2 C5 1_555 1_555
H3 C6 1_555 1_555
H4 C8 1_555 1_555
H5 C10 1_555 1_555
H6 C11 1_555 1_555
C2 C3 1_555 1_555
C5 C6 1_555 1_555
C10 C11 1_555 1_555

#END
