
#######################################################################
#
#                 Cambridge Crystallographic Data Centre
#                                CCDC 
#
#######################################################################
#
# If this CIF has been generated from an entry in the Cambridge 
# Structural Database, then it will include bibliographic, chemical, 
# crystal, experimental, refinement or atomic coordinate data resulting 
# from the CCDC's data processing and validation procedures.
#
#######################################################################

data_GIWTEO
_chemical_formula_moiety         'C2 N10 O2 2-,2(C2 H5 N4 1+)'
_chemical_name_systematic        
"bis(4-amino-4H-1,2,4-triazol-1-ium) 5,5'-(diazene-1,2-diyl)bis(1H-tetrazol-1-olate)"
_symmetry_cell_setting           monoclinic
_symmetry_space_group_name_H-M   'P 21/c'
_symmetry_Int_Tables_number      14
_space_group_name_Hall           '-P 2ybc'
loop_
_symmetry_equiv_pos_site_id
_symmetry_equiv_pos_as_xyz
1 x,y,z
2 -x,1/2+y,1/2-z
3 -x,-y,-z
4 x,1/2-y,1/2+z
_cell_length_a                   3.7983(8)
_cell_length_b                   20.208(4)
_cell_length_c                   10.090(2)
_cell_angle_alpha                90
_cell_angle_beta                 97.55(3)
_cell_angle_gamma                90
_cell_volume                     767.754
_exptl_crystal_colour            yellow
_exptl_crystal_description       rod
_cell_formula_units_Z            2
loop_
_atom_site_label
_atom_site_type_symbol
_atom_site_fract_x
_atom_site_fract_y
_atom_site_fract_z
O1 O 1.0339(12) 0.35525(18) 0.0523(4)
N1 N 0.6033(11) 0.47374(19) -0.0012(4)
N2 N 0.9041(12) 0.3917(2) 0.1447(4)
N3 N 0.9606(12) 0.3765(2) 0.2772(4)
N4 N 0.7936(13) 0.4242(2) 0.3392(4)
N5 N 0.6333(12) 0.4690(2) 0.2492(4)
C1 C 0.7055(13) 0.4479(2) 0.1287(5)
O1B O -0.0339(12) 0.64475(18) -0.0523(4)
N1B N 0.3967(11) 0.52626(19) 0.0012(4)
N2B N 0.0959(12) 0.6083(2) -0.1447(4)
N3B N 0.0394(12) 0.6235(2) -0.2772(4)
N4B N 0.2064(13) 0.5758(2) -0.3392(4)
N5B N 0.3667(12) 0.5310(2) -0.2492(4)
C1B C 0.2945(13) 0.5521(2) -0.1287(5)
N6 N 0.2413(13) 0.5859(2) 0.3643(4)
H1 H 0.2599 0.5772 0.4504
H2 H 0.3352 0.5509 0.3308
N7 N 0.4248(12) 0.6447(2) 0.3414(4)
N8 N 0.6763(13) 0.7405(2) 0.3608(4)
H3 H 0.7793 0.7795 0.3719
N9 N 0.6052(14) 0.7284(2) 0.2254(5)
C2 C 0.4448(16) 0.6710(3) 0.2170(5)
H4 H 0.3537 0.6501 0.1353
C3 C 0.5726(15) 0.6906(2) 0.4309(5)
H5 H 0.5965 0.6874 0.5255
loop_
_geom_bond_atom_site_label_1
_geom_bond_atom_site_label_2
_geom_bond_site_symmetry_1
_geom_bond_site_symmetry_2
O1 N2 1_555 1_555
N1 C1 1_555 1_555
N2 N3 1_555 1_555
N3 N4 1_555 1_555
N4 N5 1_555 1_555
N5 C1 1_555 1_555
C1 N2 1_555 1_555
N6 H1 1_555 1_555
H2 N6 1_555 1_555
N7 N6 1_555 1_555
N8 H3 1_555 1_555
N9 N8 1_555 1_555
C2 N7 1_555 1_555
H4 C2 1_555 1_555
C3 N7 1_555 1_555
H5 C3 1_555 1_555
O1B N2B 1_555 1_555
N1B N1 1_555 1_555
N2B N3B 1_555 1_555
N3B N4B 1_555 1_555
N4B N5B 1_555 1_555
N5B C1B 1_555 1_555
C1B N1B 1_555 1_555
N8 C3 1_555 1_555
N9 C2 1_555 1_555
N2B C1B 1_555 1_555

#END
