
#######################################################################
#
#                 Cambridge Crystallographic Data Centre
#                                CCDC 
#
#######################################################################
#
# If this CIF has been generated from an entry in the Cambridge 
# Structural Database, then it will include bibliographic, chemical, 
# crystal, experimental, refinement or atomic coordinate data resulting 
# from the CCDC's data processing and validation procedures.
#
#######################################################################

data_GIXFAW
_chemical_formula_moiety         'C16 H11 F5 N2 O2'
_chemical_name_systematic        
N-(3-anilino-3-oxopropyl)-2,3,4,5,6-pentafluorobenzamide
_symmetry_cell_setting           triclinic
_symmetry_space_group_name_H-M   'P -1'
_symmetry_Int_Tables_number      2
_space_group_name_Hall           '-P 1'
loop_
_symmetry_equiv_pos_site_id
_symmetry_equiv_pos_as_xyz
1 x,y,z
2 -x,-y,-z
_cell_length_a                   6.235(4)
_cell_length_b                   7.257(5)
_cell_length_c                   32.88(2)
_cell_angle_alpha                87.826(13)
_cell_angle_beta                 89.408(12)
_cell_angle_gamma                84.552(13)
_cell_volume                     1479.91
_exptl_crystal_colour            colorless
_exptl_crystal_description       prismatic
_cell_formula_units_Z            4
loop_
_atom_site_label
_atom_site_type_symbol
_atom_site_fract_x
_atom_site_fract_y
_atom_site_fract_z
F1 F 0.9092(4) 0.5974(4) 0.18116(8)
F2 F 1.1884(4) 0.4961(4) 0.12299(10)
F3 F 1.0820(5) 0.5535(5) 0.04379(9)
F4 F 0.6808(5) 0.6968(5) 0.02396(8)
F5 F 0.3924(4) 0.7872(4) 0.08113(8)
N1 N 0.4670(7) 0.6220(6) 0.19654(11)
H1 H 0.5448 0.5185 0.1943
N2 N 0.4377(6) 0.6473(5) 0.34010(10)
H2 H 0.5573 0.5800 0.3368
O1 O 0.3614(6) 0.8941(5) 0.16404(12)
O2 O 0.1689(6) 0.8112(5) 0.30510(9)
C1 C 0.4723(7) 0.7462(6) 0.16647(13)
C2 C 0.6373(7) 0.6951(6) 0.13375(12)
C3 C 0.8445(7) 0.6215(6) 0.14295(13)
C4 C 0.9935(7) 0.5722(6) 0.11292(14)
C5 C 0.9378(7) 0.5995(6) 0.07302(13)
C6 C 0.7366(7) 0.6727(6) 0.06286(12)
C7 C 0.5875(7) 0.7211(6) 0.09312(13)
C8 C 0.3397(9) 0.6476(10) 0.23312(15)
H3 H 0.2690 0.5364 0.2395
H4 H 0.2288 0.7491 0.2285
C9 C 0.4711(9) 0.6873(10) 0.26767(15)
H5 H 0.5455 0.7959 0.2608
H6 H 0.5793 0.5839 0.2726
C10 C 0.3431(8) 0.7203(7) 0.30581(13)
C11 C 0.3664(7) 0.6666(5) 0.38083(12)
C12 C 0.1552(7) 0.7214(6) 0.39151(13)
H7 H 0.0508 0.7476 0.3716
C13 C 0.1027(8) 0.7365(7) 0.43183(14)
H8 H -0.0389 0.7745 0.4390
C14 C 0.2523(8) 0.6972(7) 0.46199(14)
H9 H 0.2135 0.7083 0.4892
C15 C 0.4609(8) 0.6411(7) 0.45096(14)
H10 H 0.5641 0.6122 0.4710
C16 C 0.5194(8) 0.6271(6) 0.41026(13)
H11 H 0.6614 0.5912 0.4030
F6 F -0.0985(4) 0.3134(4) 0.41792(8)
F7 F 0.1830(5) 0.2078(5) 0.47554(8)
F8 F 0.5857(5) 0.0685(5) 0.45637(9)
F9 F 0.7032(4) 0.0336(4) 0.37770(9)
F10 F 0.4304(4) 0.1484(4) 0.31905(8)
N3 N -0.0029(7) 0.1867(6) 0.30197(11)
H12 H 0.0779 0.0839 0.3030
N4 N -0.0769(6) 0.1022(5) 0.16011(11)
H13 H 0.0434 0.0352 0.1635
O3 O -0.1257(5) 0.4404(4) 0.33506(10)
O4 O -0.3492(6) 0.2529(5) 0.19452(10)
C17 C -0.0064(7) 0.2947(6) 0.33285(12)
C18 C 0.1522(6) 0.2346(5) 0.36595(12)
C19 C 0.0985(7) 0.2491(5) 0.40656(12)
C20 C 0.2437(7) 0.1935(6) 0.43715(12)
C21 C 0.4475(7) 0.1223(6) 0.42752(14)
C22 C 0.5055(7) 0.1057(6) 0.38746(14)
C23 C 0.3599(7) 0.1619(6) 0.35765(13)
C24 C -0.1300(8) 0.2342(7) 0.26620(13)
H14 H -0.1245 0.3645 0.2589
H15 H -0.2790 0.2133 0.2718
C25 C -0.0476(9) 0.1210(8) 0.23209(14)
H16 H -0.0531 -0.0090 0.2397
H17 H 0.1019 0.1415 0.2269
C26 C -0.1741(8) 0.1654(6) 0.19379(13)
C27 C -0.1479(7) 0.1321(5) 0.11965(12)
C28 C -0.3557(7) 0.1903(6) 0.10875(13)
H18 H -0.4611 0.2132 0.1286
C29 C -0.4068(8) 0.2147(7) 0.06824(14)
H19 H -0.5479 0.2533 0.0608
C30 C -0.2517(8) 0.1828(7) 0.03841(14)
H20 H -0.2872 0.2003 0.0110
C31 C -0.0463(9) 0.1253(7) 0.04967(14)
H21 H 0.0591 0.1039 0.0297
C32 C 0.0079(8) 0.0985(6) 0.08951(13)
H22 H 0.1489 0.0578 0.0966
loop_
_geom_bond_atom_site_label_1
_geom_bond_atom_site_label_2
_geom_bond_site_symmetry_1
_geom_bond_site_symmetry_2
F1 C3 1_555 1_555
F2 C4 1_555 1_555
F3 C5 1_555 1_555
F4 C6 1_555 1_555
F5 C7 1_555 1_555
N1 H1 1_555 1_555
N2 H2 1_555 1_555
O1 C1 1_555 1_555
O2 C10 1_555 1_555
C1 N1 1_555 1_555
C2 C1 1_555 1_555
C3 C2 1_555 1_555
C4 C3 1_555 1_555
C5 C4 1_555 1_555
C6 C5 1_555 1_555
C7 C2 1_555 1_555
C8 N1 1_555 1_555
H3 C8 1_555 1_555
H4 C8 1_555 1_555
C9 C8 1_555 1_555
H5 C9 1_555 1_555
H6 C9 1_555 1_555
C10 N2 1_555 1_555
C11 N2 1_555 1_555
C12 C11 1_555 1_555
H7 C12 1_555 1_555
C13 C12 1_555 1_555
H8 C13 1_555 1_555
C14 C13 1_555 1_555
H9 C14 1_555 1_555
C15 C14 1_555 1_555
H10 C15 1_555 1_555
C16 C11 1_555 1_555
H11 C16 1_555 1_555
F6 C19 1_555 1_555
F7 C20 1_555 1_555
F8 C21 1_555 1_555
F9 C22 1_555 1_555
F10 C23 1_555 1_555
N3 H12 1_555 1_555
N4 H13 1_555 1_555
O3 C17 1_555 1_555
O4 C26 1_555 1_555
C17 N3 1_555 1_555
C18 C17 1_555 1_555
C19 C18 1_555 1_555
C20 C19 1_555 1_555
C21 C20 1_555 1_555
C22 C21 1_555 1_555
C23 C18 1_555 1_555
C24 N3 1_555 1_555
H14 C24 1_555 1_555
H15 C24 1_555 1_555
C25 C24 1_555 1_555
H16 C25 1_555 1_555
H17 C25 1_555 1_555
C26 N4 1_555 1_555
C27 N4 1_555 1_555
C28 C27 1_555 1_555
H18 C28 1_555 1_555
C29 C28 1_555 1_555
H19 C29 1_555 1_555
C30 C29 1_555 1_555
H20 C30 1_555 1_555
C31 C30 1_555 1_555
H21 C31 1_555 1_555
C32 C27 1_555 1_555
H22 C32 1_555 1_555
C6 C7 1_555 1_555
C9 C10 1_555 1_555
C15 C16 1_555 1_555
C22 C23 1_555 1_555
C25 C26 1_555 1_555
C31 C32 1_555 1_555

#END
