
#######################################################################
#
#                 Cambridge Crystallographic Data Centre
#                                CCDC 
#
#######################################################################
#
# If this CIF has been generated from an entry in the Cambridge 
# Structural Database, then it will include bibliographic, chemical, 
# crystal, experimental, refinement or atomic coordinate data resulting 
# from the CCDC's data processing and validation procedures.
#
#######################################################################

data_GIXFIE
_chemical_formula_moiety         'C19 H17 F5 N2 O2'
_chemical_name_systematic        
N-(6-anilino-6-oxohexyl)-2,3,4,5,6-pentafluorobenzamide
_symmetry_cell_setting           monoclinic
_symmetry_space_group_name_H-M   'P 21/c'
_symmetry_Int_Tables_number      14
_space_group_name_Hall           '-P 2ybc'
loop_
_symmetry_equiv_pos_site_id
_symmetry_equiv_pos_as_xyz
1 x,y,z
2 -x,1/2+y,1/2-z
3 -x,-y,-z
4 x,1/2-y,1/2+z
_cell_length_a                   8.7960(9)
_cell_length_b                   20.174(2)
_cell_length_c                   10.7947(12)
_cell_angle_alpha                90
_cell_angle_beta                 105.704(3)
_cell_angle_gamma                90
_cell_volume                     1844.02
_exptl_crystal_colour            colorless
_exptl_crystal_description       prismatic
_cell_formula_units_Z            4
loop_
_atom_site_label
_atom_site_type_symbol
_atom_site_fract_x
_atom_site_fract_y
_atom_site_fract_z
F1 F 0.27844(17) 0.69977(6) 0.36893(12)
F2 F 0.2941(2) 0.56722(7) 0.38322(16)
F3 F 0.44421(17) 0.49850(6) 0.23741(14)
F4 F 0.57973(17) 0.56329(6) 0.07504(15)
F5 F 0.56077(17) 0.69531(6) 0.05676(13)
N1 N 0.2747(2) 0.80413(8) 0.17222(16)
N2 N -0.1797(2) 0.76314(8) 0.41696(19)
O1 O 0.54034(17) 0.80780(7) 0.23186(14)
O2 O 0.01943(18) 0.78501(7) 0.59188(15)
C1 C 0.3506(2) 0.66718(11) 0.29272(19)
C2 C 0.3591(3) 0.59975(11) 0.3018(2)
C3 C 0.4357(3) 0.56441(10) 0.2285(2)
C4 C 0.5036(2) 0.59745(10) 0.1465(2)
C5 C 0.4941(2) 0.66474(10) 0.1393(2)
C6 C 0.4178(2) 0.70221(9) 0.21123(17)
C7 C 0.4156(2) 0.77651(10) 0.20544(17)
C8 C 0.2509(3) 0.87527(9) 0.1692(2)
H1 H 0.1589 0.8861 0.0994
H2 H 0.3416 0.8968 0.1519
C9 C 0.2281(3) 0.90195(10) 0.2934(2)
H3 H 0.2189 0.9498 0.2874
H4 H 0.3207 0.8915 0.3630
C10 C 0.0836(3) 0.87403(11) 0.3249(2)
H5 H 0.0990 0.8268 0.3407
H6 H -0.0065 0.8795 0.2505
C11 C 0.0451(3) 0.90550(10) 0.4403(2)
H7 H 0.0314 0.9528 0.4258
H8 H 0.1333 0.8989 0.5157
C12 C -0.1033(3) 0.87694(10) 0.4659(2)
H9 H -0.1262 0.9004 0.5372
H10 H -0.1918 0.8832 0.3906
C13 C -0.0837(2) 0.80437(10) 0.4973(2)
C14 C -0.1762(2) 0.69274(9) 0.42992(18)
C15 C -0.2496(3) 0.66225(10) 0.5120(2)
H11 H -0.2984 0.6878 0.5619
C16 C -0.2514(3) 0.59428(11) 0.5209(2)
H12 H -0.3015 0.5741 0.5765
C17 C -0.1801(3) 0.55651(11) 0.4487(2)
H13 H -0.1811 0.5105 0.4550
C18 C -0.1070(3) 0.58631(12) 0.3668(2)
H14 H -0.0584 0.5603 0.3174
C19 C -0.1042(3) 0.65465(11) 0.3564(2)
H15 H -0.0543 0.6746 0.3003
H16 H 0.195(2) 0.7805(9) 0.1517(15)
H17 H -0.250(3) 0.7784(11) 0.357(2)
loop_
_geom_bond_atom_site_label_1
_geom_bond_atom_site_label_2
_geom_bond_site_symmetry_1
_geom_bond_site_symmetry_2
F1 C1 1_555 1_555
F2 C2 1_555 1_555
F3 C3 1_555 1_555
F4 C4 1_555 1_555
F5 C5 1_555 1_555
N1 C7 1_555 1_555
N2 C13 1_555 1_555
O1 C7 1_555 1_555
O2 C13 1_555 1_555
C1 C2 1_555 1_555
C2 C3 1_555 1_555
C3 C4 1_555 1_555
C4 C5 1_555 1_555
C5 C6 1_555 1_555
C6 C1 1_555 1_555
C7 C6 1_555 1_555
C8 N1 1_555 1_555
H1 C8 1_555 1_555
H2 C8 1_555 1_555
C9 C8 1_555 1_555
H3 C9 1_555 1_555
H4 C9 1_555 1_555
C10 C9 1_555 1_555
H5 C10 1_555 1_555
H6 C10 1_555 1_555
C11 C10 1_555 1_555
H7 C11 1_555 1_555
H8 C11 1_555 1_555
C12 C11 1_555 1_555
H9 C12 1_555 1_555
H10 C12 1_555 1_555
C13 C12 1_555 1_555
C14 N2 1_555 1_555
C15 C14 1_555 1_555
H11 C15 1_555 1_555
C16 C15 1_555 1_555
H12 C16 1_555 1_555
C17 C16 1_555 1_555
H13 C17 1_555 1_555
C18 C17 1_555 1_555
H14 C18 1_555 1_555
C19 C14 1_555 1_555
H15 C19 1_555 1_555
H16 N1 1_555 1_555
H17 N2 1_555 1_555
C18 C19 1_555 1_555

#END
