
#######################################################################
#
#                 Cambridge Crystallographic Data Centre
#                                CCDC 
#
#######################################################################
#
# If this CIF has been generated from an entry in the Cambridge 
# Structural Database, then it will include bibliographic, chemical, 
# crystal, experimental, refinement or atomic coordinate data resulting 
# from the CCDC's data processing and validation procedures.
#
#######################################################################

data_GIXXUJ
_chemical_name_common            5-hydroxyisoquinoline
_chemical_formula_moiety         'C9 H7 N1 O1'
_chemical_name_systematic        isoquinolin-5-ol
_symmetry_cell_setting           triclinic
_symmetry_space_group_name_H-M   'P -1'
_symmetry_Int_Tables_number      2
_space_group_name_Hall           '-P 1'
loop_
_symmetry_equiv_pos_site_id
_symmetry_equiv_pos_as_xyz
1 x,y,z
2 -x,-y,-z
_cell_length_a                   7.7205(7)
_cell_length_b                   7.7253(7)
_cell_length_c                   13.4187(11)
_cell_angle_alpha                93.871(8)
_cell_angle_beta                 106.323(8)
_cell_angle_gamma                112.269(9)
_cell_volume                     697.01
_exptl_crystal_colour            brown
_cell_formula_units_Z            4
loop_
_atom_site_label
_atom_site_type_symbol
_atom_site_fract_x
_atom_site_fract_y
_atom_site_fract_z
C1 C 0.4521(3) 1.2730(3) -0.30457(14)
H1 H 0.5193 1.3529 -0.2383
C2 C 0.4370(3) 1.0916(3) -0.31358(13)
H2 H 0.4937 1.0505 -0.2545
C3 C 0.3354(2) 0.9650(2) -0.41245(13)
C4 C 0.3119(3) 0.7731(2) -0.43047(13)
C5 C 0.2068(3) 0.6621(3) -0.52978(14)
H3 H 0.1906 0.5360 -0.5414
C6 C 0.1235(3) 0.7348(3) -0.61385(14)
H4 H 0.0520 0.6560 -0.6803
C7 C 0.1452(3) 0.9175(3) -0.60025(14)
H5 H 0.0902 0.9645 -0.6570
C8 C 0.2521(3) 1.0368(3) -0.49909(13)
C9 C 0.2791(3) 1.2274(3) -0.47952(15)
H6 H 0.2254 1.2747 -0.5365
N1 N 0.3744(2) 1.3450(2) -0.38707(12)
O1 O 0.3968(2) 0.70934(18) -0.34659(9)
H7 H 0.3823 0.6004 -0.3663
C10 C -0.1728(3) 0.7477(3) 0.09294(15)
H8 H -0.1870 0.7491 0.1595
C11 C -0.0006(3) 0.7496(3) 0.08384(14)
H9 H 0.0984 0.7515 0.1431
C12 C 0.0269(2) 0.7487(2) -0.01519(13)
C13 C 0.2030(3) 0.7547(3) -0.03291(13)
C14 C 0.2130(3) 0.7548(3) -0.13297(14)
H10 H 0.3279 0.7598 -0.1446
C15 C 0.0552(3) 0.7474(3) -0.21834(14)
H11 H 0.0669 0.7474 -0.2855
C16 C -0.1145(3) 0.7405(3) -0.20469(14)
H12 H -0.2194 0.7341 -0.2620
C17 C -0.1301(3) 0.7430(3) -0.10201(13)
C18 C -0.3006(3) 0.7412(3) -0.08248(15)
H13 H -0.4038 0.7378 -0.1398
N2 N -0.3249(2) 0.7439(2) 0.01025(12)
O2 O 0.35018(19) 0.7613(3) 0.05224(9)
H14 H 0.4421 0.7593 0.0338
loop_
_geom_bond_atom_site_label_1
_geom_bond_atom_site_label_2
_geom_bond_site_symmetry_1
_geom_bond_site_symmetry_2
C1 H1 1_555 1_555
C2 C1 1_555 1_555
H2 C2 1_555 1_555
C3 C2 1_555 1_555
C4 C3 1_555 1_555
C5 C4 1_555 1_555
H3 C5 1_555 1_555
C6 C5 1_555 1_555
H4 C6 1_555 1_555
C7 C6 1_555 1_555
H5 C7 1_555 1_555
C8 C3 1_555 1_555
C9 C8 1_555 1_555
H6 C9 1_555 1_555
N1 C1 1_555 1_555
O1 C4 1_555 1_555
H7 O1 1_555 1_555
C10 H8 1_555 1_555
C11 C10 1_555 1_555
H9 C11 1_555 1_555
C12 C11 1_555 1_555
C13 C12 1_555 1_555
C14 C13 1_555 1_555
H10 C14 1_555 1_555
C15 C14 1_555 1_555
H11 C15 1_555 1_555
C16 C15 1_555 1_555
H12 C16 1_555 1_555
C17 C12 1_555 1_555
C18 C17 1_555 1_555
H13 C18 1_555 1_555
N2 C10 1_555 1_555
O2 C13 1_555 1_555
H14 O2 1_555 1_555
C7 C8 1_555 1_555
C9 N1 1_555 1_555
C16 C17 1_555 1_555
C18 N2 1_555 1_555

#END
