
#######################################################################
#
#                 Cambridge Crystallographic Data Centre
#                                CCDC 
#
#######################################################################
#
# If this CIF has been generated from an entry in the Cambridge 
# Structural Database, then it will include bibliographic, chemical, 
# crystal, experimental, refinement or atomic coordinate data resulting 
# from the CCDC's data processing and validation procedures.
#
#######################################################################

data_GIXZEU
_chemical_formula_moiety         'C21 H23 N1 O2'
_chemical_name_systematic        
4-Butoxy-6-methyl-3-(4-methylphenyl)quinolin-2(1H)-one
_symmetry_cell_setting           triclinic
_symmetry_space_group_name_H-M   'P -1'
_symmetry_Int_Tables_number      2
_space_group_name_Hall           '-P 1'
loop_
_symmetry_equiv_pos_site_id
_symmetry_equiv_pos_as_xyz
1 x,y,z
2 -x,-y,-z
_cell_length_a                   7.7051(4)
_cell_length_b                   10.8189(5)
_cell_length_c                   11.1726(5)
_cell_angle_alpha                75.918(3)
_cell_angle_beta                 86.590(3)
_cell_angle_gamma                87.802(3)
_cell_volume                     901.493
_cell_formula_units_Z            2
loop_
_atom_site_label
_atom_site_type_symbol
_atom_site_fract_x
_atom_site_fract_y
_atom_site_fract_z
C1 C 0.3210(2) 0.75886(14) 0.08288(14)
N1 N 0.20922(17) 0.94569(12) -0.05874(12)
H1 H 0.1280 1.0023 -0.0795
O1 O 0.05450(15) 0.86660(11) 0.11992(11)
O2 O 0.59192(14) 0.66825(10) 0.02447(10)
C2 C 0.4644(2) 0.76206(14) 0.00433(14)
C3 C 0.1870(2) 0.85939(14) 0.05224(14)
C4 C 0.4870(2) 0.85904(14) -0.10907(14)
C5 C 0.3511(2) 0.94930(14) -0.13998(14)
C6 C 0.29370(19) 0.65651(14) 0.19742(14)
C7 C 0.6351(2) 0.86664(16) -0.18947(16)
H2 H 0.7268 0.8085 -0.1680
C8 C 0.3615(2) 1.04028(16) -0.25268(16)
H3 H 0.2703 1.0986 -0.2751
C9 C 0.3125(2) 0.52897(15) 0.19531(15)
H4 H 0.3371 0.5067 0.1206
C10 C 0.6486(2) 0.95840(17) -0.30006(17)
C11 C 0.2950(2) 0.43476(16) 0.30353(16)
H5 H 0.3090 0.3500 0.2999
C12 C 0.5075(3) 1.04304(17) -0.33041(17)
H6 H 0.5124 1.1033 -0.4057
C13 C 0.2574(2) 0.46222(18) 0.41660(17)
C14 C 0.7115(2) 0.67444(17) 0.11734(18)
H7 H 0.6478 0.6751 0.1947
H8 H 0.7770 0.7521 0.0916
C15 C 0.2348(3) 0.58982(19) 0.41787(17)
H9 H 0.2076 0.6114 0.4926
C16 C 0.8331(2) 0.56076(19) 0.1345(2)
H10 H 0.9238 0.5716 0.1874
H11 H 0.8881 0.5578 0.0549
C17 C 0.2517(2) 0.68506(17) 0.31131(15)
H12 H 0.2349 0.7696 0.3151
C18 C 0.8110(3) 0.9683(2) -0.3838(2)
H13 H 0.7961 1.0364 -0.4560
H14 H 0.8321 0.8895 -0.4079
H15 H 0.9081 0.9852 -0.3407
C19 C 0.7481(3) 0.43539(19) 0.1899(2)
H16 H 0.6648 0.4210 0.1331
H17 H 0.6838 0.4414 0.2657
C20 C 0.8711(4) 0.3216(2) 0.2183(3)
H18 H 0.8063 0.2461 0.2534
H19 H 0.9524 0.3334 0.2762
H20 H 0.9330 0.3127 0.1436
C21 C 0.2446(4) 0.3570(2) 0.5336(2)
H21 H 0.2637 0.2760 0.5135
H22 H 0.1310 0.3600 0.5732
H23 H 0.3309 0.3682 0.5883
loop_
_geom_bond_atom_site_label_1
_geom_bond_atom_site_label_2
_geom_bond_site_symmetry_1
_geom_bond_site_symmetry_2
C1 C2 1_555 1_555
N1 H1 1_555 1_555
O1 C3 1_555 1_555
O2 C2 1_555 1_555
C2 C4 1_555 1_555
C3 C1 1_555 1_555
C4 C5 1_555 1_555
C5 N1 1_555 1_555
C6 C1 1_555 1_555
C7 C4 1_555 1_555
H2 C7 1_555 1_555
C8 C5 1_555 1_555
H3 C8 1_555 1_555
C9 C6 1_555 1_555
H4 C9 1_555 1_555
C10 C7 1_555 1_555
C11 C9 1_555 1_555
H5 C11 1_555 1_555
C12 C8 1_555 1_555
H6 C12 1_555 1_555
C13 C11 1_555 1_555
C14 O2 1_555 1_555
H7 C14 1_555 1_555
H8 C14 1_555 1_555
C15 C13 1_555 1_555
H9 C15 1_555 1_555
C16 C14 1_555 1_555
H10 C16 1_555 1_555
H11 C16 1_555 1_555
C17 C6 1_555 1_555
H12 C17 1_555 1_555
C18 C10 1_555 1_555
H13 C18 1_555 1_555
H14 C18 1_555 1_555
H15 C18 1_555 1_555
C19 C16 1_555 1_555
H16 C19 1_555 1_555
H17 C19 1_555 1_555
C20 C19 1_555 1_555
H18 C20 1_555 1_555
H19 C20 1_555 1_555
H20 C20 1_555 1_555
C21 C13 1_555 1_555
H21 C21 1_555 1_555
H22 C21 1_555 1_555
H23 C21 1_555 1_555
N1 C3 1_555 1_555
C10 C12 1_555 1_555
C15 C17 1_555 1_555

#END
