
#######################################################################
#
#                 Cambridge Crystallographic Data Centre
#                                CCDC 
#
#######################################################################
#
# If this CIF has been generated from an entry in the Cambridge 
# Structural Database, then it will include bibliographic, chemical, 
# crystal, experimental, refinement or atomic coordinate data resulting 
# from the CCDC's data processing and validation procedures.
#
#######################################################################

data_GIXZIY
_chemical_formula_moiety         'C37 H31 Cl2 N3 O5'
_chemical_name_systematic        
"diethyl 1'-benzyl-1-(3,4-dichlorophenyl)-2'-oxo-1,1',2',9-tetrahydrospiro[\b-carboline-4,3'-indole]-3,3(2H)-dicarboxylate"
_symmetry_cell_setting           monoclinic
_symmetry_space_group_name_H-M   'C 2'
_symmetry_Int_Tables_number      5
_space_group_name_Hall           'C 2y'
loop_
_symmetry_equiv_pos_site_id
_symmetry_equiv_pos_as_xyz
1 x,y,z
2 -x,y,-z
3 1/2+x,1/2+y,z
4 1/2-x,1/2+y,-z
_cell_length_a                   45.1673(9)
_cell_length_b                   8.4975(2)
_cell_length_c                   8.5504(2)
_cell_angle_alpha                90
_cell_angle_beta                 96.9500(10)
_cell_angle_gamma                90
_cell_volume                     3257.61
_exptl_crystal_colour            colorless
_exptl_crystal_description       prism
_cell_formula_units_Z            4
loop_
_atom_site_label
_atom_site_type_symbol
_atom_site_fract_x
_atom_site_fract_y
_atom_site_fract_z
N1 N -0.07706(9) -0.9495(6) -0.2154(5)
H1 H -0.0670 -1.0376 -0.1961
N2 N -0.10587(11) -0.7180(7) -0.5674(5)
H2 H -0.0919 -0.6924 -0.6260
N3 N -0.17758(9) -0.9144(6) -0.1200(5)
O1 O -0.15324(8) -0.6788(5) -0.0794(4)
O2 O -0.07820(9) -1.1126(5) 0.0518(5)
O3 O -0.12250(8) -1.0109(5) 0.0930(4)
O4 O -0.08586(9) -0.7312(5) 0.1125(4)
O5 O -0.08819(9) -0.6257(5) -0.1282(4)
C1 C -0.09927(10) -0.8997(6) -0.1134(5)
C2 C -0.13085(10) -0.8979(6) -0.2148(5)
C3 C -0.12780(11) -0.8164(6) -0.3686(5)
C4 C -0.10178(12) -0.8011(8) -0.4289(6)
C5 C -0.07189(11) -0.8517(10) -0.3481(6)
H3 H -0.0594 -0.7631 -0.3159
C6 C -0.15034(11) -0.7434(6) -0.4760(6)
C7 C -0.13576(13) -0.6818(7) -0.5988(6)
C8 C -0.15105(16) -0.5955(8) -0.7234(6)
H4 H -0.1409 -0.5536 -0.8051
C9 C -0.18060(18) -0.5741(8) -0.7232(7)
H5 H -0.1912 -0.5130 -0.8047
C10 C -0.19652(14) -0.6396(8) -0.6058(7)
H6 H -0.2175 -0.6261 -0.6121
C11 C -0.18136(12) -0.7238(7) -0.4810(6)
H7 H -0.1918 -0.7672 -0.4010
C12 C -0.15448(9) -0.8133(6) -0.1288(5)
C13 C -0.14433(11) -1.0599(6) -0.2399(6)
C14 C -0.13367(13) -1.1927(7) -0.3085(6)
H8 H -0.1151 -1.1901 -0.3504
C15 C -0.15062(15) -1.3304(8) -0.3153(8)
H9 H -0.1435 -1.4230 -0.3605
C16 C -0.17794(15) -1.3320(8) -0.2557(8)
H10 H -0.1892 -1.4267 -0.2600
C17 C -0.18910(13) -1.1994(7) -0.1907(7)
H11 H -0.2080 -1.2011 -0.1522
C18 C -0.17186(11) -1.0625(6) -0.1831(6)
C19 C -0.20361(11) -0.8716(7) -0.0430(6)
H12 H -0.1970 -0.8059 0.0504
H13 H -0.2127 -0.9687 -0.0057
C20 C -0.22693(11) -0.7831(7) -0.1495(7)
C21 C -0.24449(13) -0.8589(8) -0.2724(8)
H14 H -0.2426 -0.9694 -0.2849
C22 C -0.26470(15) -0.7751(10) -0.3770(10)
H15 H -0.2760 -0.8279 -0.4623
C23 C -0.26827(12) -0.6172(10) -0.3569(8)
H16 H -0.2826 -0.5611 -0.4258
C24 C -0.25108(15) -0.5379(9) -0.2363(8)
H17 H -0.2533 -0.4275 -0.2245
C25 C -0.23063(13) -0.6199(9) -0.1331(7)
H18 H -0.2190 -0.5652 -0.0504
C26 C -0.09817(11) -1.0219(7) 0.0198(6)
C27 C -0.12472(15) -1.1197(9) 0.2235(8)
H19 H -0.1107 -1.0884 0.3161
H20 H -0.1197 -1.2278 0.1926
C28 C -0.15587(16) -1.1139(10) 0.2624(8)
H21 H -0.1580 -1.1866 0.3493
H22 H -0.1696 -1.1445 0.1698
H23 H -0.1605 -1.0066 0.2939
C29 C -0.09103(10) -0.7418(6) -0.0276(6)
C30 C -0.07904(16) -0.4732(8) -0.0621(8)
H24 H -0.0668 -0.4843 0.0414
H25 H -0.0965 -0.4056 -0.0505
C31 C -0.0605(3) -0.4072(17) -0.1875(16)
H26 H -0.0532 -0.3018 -0.1562
H27 H -0.0730 -0.4013 -0.2894
H28 H -0.0435 -0.4767 -0.1966
C32 C -0.05519(17) -0.9754(11) -0.4574(9)
C33 C -0.05600(19) -1.1387(11) -0.4494(9)
H29 H -0.0659 -1.1888 -0.3712
C34 C -0.0423(2) -1.2286(11) -0.5558(11)
H30 H -0.0428 -1.3402 -0.5503
C35 C -0.0278(2) -1.1552(14) -0.6703(9)
C36 C -0.0269(2) -0.9919(15) -0.6783(9)
C37 C -0.04066(19) -0.9020(11) -0.5719(10)
H31 H -0.0401 -0.7904 -0.5774
Cl1 Cl -0.01124(7) -1.2678(5) -0.8039(4)
Cl2 Cl -0.01012(9) -0.8951(7) -0.8192(5)
C38? C -0.05402(18) -0.9037(11) -0.4700(9)
C39? C -0.05243(16) -1.0658(11) -0.4893(9)
H32? H -0.0622 -1.1340 -0.4239
C40? C -0.03659(19) -1.1281(11) -0.6045(11)
H33? H -0.0355 -1.2388 -0.6177
C41? C -0.02233(19) -1.0283(14) -0.7002(10)
C42? C -0.02391(18) -0.8662(14) -0.6809(10)
C43? C -0.03976(19) -0.8039(11) -0.5658(11)
H34? H -0.0408 -0.6931 -0.5525
Cl3? Cl -0.00723(10) -0.7392(8) -0.8029(6)
Cl4? Cl -0.00255(7) -1.1090(6) -0.8431(4)
loop_
_geom_bond_atom_site_label_1
_geom_bond_atom_site_label_2
_geom_bond_site_symmetry_1
_geom_bond_site_symmetry_2
N1 H1 1_555 1_555
N2 H2 1_555 1_555
N3 C12 1_555 1_555
O1 C12 1_555 1_555
O2 C26 1_555 1_555
O3 C26 1_555 1_555
O4 C29 1_555 1_555
O5 C29 1_555 1_555
C1 N1 1_555 1_555
C2 C1 1_555 1_555
C3 C2 1_555 1_555
C4 N2 1_555 1_555
C5 N1 1_555 1_555
H3 C5 1_555 1_555
C6 C3 1_555 1_555
C7 N2 1_555 1_555
C8 C7 1_555 1_555
H4 C8 1_555 1_555
C9 C8 1_555 1_555
H5 C9 1_555 1_555
C10 C9 1_555 1_555
H6 C10 1_555 1_555
C11 C6 1_555 1_555
H7 C11 1_555 1_555
C12 C2 1_555 1_555
C13 C2 1_555 1_555
C14 C13 1_555 1_555
H8 C14 1_555 1_555
C15 C14 1_555 1_555
H9 C15 1_555 1_555
C16 C15 1_555 1_555
H10 C16 1_555 1_555
C17 C16 1_555 1_555
H11 C17 1_555 1_555
C18 N3 1_555 1_555
C19 N3 1_555 1_555
H12 C19 1_555 1_555
H13 C19 1_555 1_555
C20 C19 1_555 1_555
C21 C20 1_555 1_555
H14 C21 1_555 1_555
C22 C21 1_555 1_555
H15 C22 1_555 1_555
C23 C22 1_555 1_555
H16 C23 1_555 1_555
C24 C23 1_555 1_555
H17 C24 1_555 1_555
C25 C20 1_555 1_555
H18 C25 1_555 1_555
C26 C1 1_555 1_555
C27 O3 1_555 1_555
H19 C27 1_555 1_555
H20 C27 1_555 1_555
C28 C27 1_555 1_555
H21 C28 1_555 1_555
H22 C28 1_555 1_555
H23 C28 1_555 1_555
C29 C1 1_555 1_555
C30 O5 1_555 1_555
H24 C30 1_555 1_555
H25 C30 1_555 1_555
C31 C30 1_555 1_555
H26 C31 1_555 1_555
H27 C31 1_555 1_555
H28 C31 1_555 1_555
C32 C5 1_555 1_555
C33 C32 1_555 1_555
H29 C33 1_555 1_555
C34 C33 1_555 1_555
H30 C34 1_555 1_555
C35 C34 1_555 1_555
C36 C35 1_555 1_555
C37 C32 1_555 1_555
H31 C37 1_555 1_555
Cl1 C35 1_555 1_555
Cl2 C36 1_555 1_555
C3 C4 1_555 1_555
C4 C5 1_555 1_555
C6 C7 1_555 1_555
C10 C11 1_555 1_555
C13 C18 1_555 1_555
C17 C18 1_555 1_555
C24 C25 1_555 1_555
C36 C37 1_555 1_555

#END
