
#######################################################################
#
#                 Cambridge Crystallographic Data Centre
#                                CCDC 
#
#######################################################################
#
# If this CIF has been generated from an entry in the Cambridge 
# Structural Database, then it will include bibliographic, chemical, 
# crystal, experimental, refinement or atomic coordinate data resulting 
# from the CCDC's data processing and validation procedures.
#
#######################################################################

data_GIYDEZ01
_chemical_name_common            'Diglycine methanesulfonate'
_chemical_formula_moiety         'C2 H6 N1 O2 1+,C2 H5 N1 O2,C1 H3 O3 S1 1-'
_chemical_name_systematic        
'carboxymethanaminium methanesulfonate ammonioacetate'
_symmetry_cell_setting           monoclinic
_symmetry_space_group_name_H-M   'P 21/m'
_symmetry_Int_Tables_number      11
_space_group_name_Hall           '-P 2yb'
loop_
_symmetry_equiv_pos_site_id
_symmetry_equiv_pos_as_xyz
1 x,y,z
2 -x,1/2+y,-z
3 -x,-y,-z
4 x,1/2-y,z
_cell_length_a                   5.6479(2)
_cell_length_b                   6.4331(2)
_cell_length_c                   14.5843(6)
_cell_angle_alpha                90
_cell_angle_beta                 99.430(4)
_cell_angle_gamma                90
_cell_volume                     522.738
_cell_formula_units_Z            2
loop_
_atom_site_label
_atom_site_type_symbol
_atom_site_fract_x
_atom_site_fract_y
_atom_site_fract_z
S1 S 0.59392(12) 0.2500 0.89372(5)
O1 O 0.7637(4) 0.2500 0.97928(16)
C1 C 0.3050(5) 0.2500 0.9231(2)
O2 O 0.6102(3) 0.0644(3) 0.83894(12)
H1 H 0.1893 0.2500 0.8676
H2 H 0.2845 0.1294 0.9583
H2C H 0.2845 0.3706 0.9583
O2C O 0.6102(3) 0.4356(3) 0.83894(12)
O3 O 0.2392(4) 0.2500 0.33637(15)
C2 C 0.0225(5) 0.2500 0.3207(2)
O4 O -0.1169(4) 0.2500 0.38315(15)
N1 N 0.0461(5) 0.2500 0.15473(16)
C3 C -0.1176(5) 0.2500 0.22402(19)
H4 H -0.2197 0.1279 0.2152
H5 H -0.0252 0.2500 0.4418
H6 H -0.0383 0.2500 0.0980
H7 H 0.1378 0.3621 0.1622
H4C H -0.2197 0.3721 0.2152
H7C H 0.1378 0.1379 0.1622
O5 O 0.0932(4) 0.2500 0.54879(15)
O6 O 0.0298(4) 0.2500 0.69464(15)
C4 C -0.0413(5) 0.2500 0.6107(2)
C5 C -0.3080(5) 0.2500 0.5750(2)
H10 H -0.3490 0.3719 0.5365
N2 N -0.4447(5) 0.2500 0.6487(2)
H11 H -0.4115 0.3594 0.6829
H12 H -0.5964 0.2500 0.6265
H10C H -0.3490 0.1281 0.5365
H11C H -0.4115 0.1406 0.6829
H3? H 0.2845 0.1294 0.9583
H8? H -0.2197 0.1279 0.2152
H9? H 0.1378 0.3621 0.1622
H13? H -0.3490 0.3719 0.5365
H14? H -0.4115 0.3594 0.6829
loop_
_geom_bond_atom_site_label_1
_geom_bond_atom_site_label_2
_geom_bond_site_symmetry_1
_geom_bond_site_symmetry_2
S1 O1 1_555 1_555
C1 S1 1_555 1_555
O2 S1 1_555 1_555
H1 C1 1_555 1_555
H2 C1 1_555 1_555
O3 C2 1_555 1_555
C2 O4 1_555 1_555
O4 H5 1_555 1_555
N1 C3 1_555 1_555
C3 C2 1_555 1_555
H4 C3 1_555 1_555
H6 N1 1_555 1_555
H7 N1 1_555 1_555
O5 C4 1_555 1_555
O6 C4 1_555 1_555
C4 C5 1_555 1_555
C5 H10 1_555 1_555
N2 C5 1_555 1_555
H11 N2 1_555 1_555
H12 N2 1_555 1_555
H2C C1 1_555 1_555
O2C S1 1_555 1_555
H4C C3 1_555 1_555
H7C N1 1_555 1_555
H10C C5 1_555 1_555
H11C N2 1_555 1_555

#END
