
#######################################################################
#
#                 Cambridge Crystallographic Data Centre
#                                CCDC 
#
#######################################################################
#
# If this CIF has been generated from an entry in the Cambridge 
# Structural Database, then it will include bibliographic, chemical, 
# crystal, experimental, refinement or atomic coordinate data resulting 
# from the CCDC's data processing and validation procedures.
#
#######################################################################

data_GIYQEK
_chemical_formula_moiety         'C22 H29 N1 O2'
_chemical_name_systematic        
(2R,3S,4S)-1-Benzyl-3-benzyloxy-4-hydroxy-2-butyl-pyrrolidine
_chemical_properties_biological  
'one of a series of trans-dihydroxypyrrolidines such as anisomycin, a known antibiotic with antitumour activity'
_symmetry_cell_setting           monoclinic
_symmetry_space_group_name_H-M   'P 21'
_symmetry_Int_Tables_number      4
_space_group_name_Hall           'P 2yb'
loop_
_symmetry_equiv_pos_site_id
_symmetry_equiv_pos_as_xyz
1 x,y,z
2 -x,1/2+y,-z
_cell_length_a                   12.004(3)
_cell_length_b                   7.301(2)
_cell_length_c                   12.663(3)
_cell_angle_alpha                90
_cell_angle_beta                 112.96(2)
_cell_angle_gamma                90
_cell_volume                     1021.88
_exptl_crystal_colour            colorless
_exptl_crystal_description       needles
_chemical_melting_point          341-342K
_cell_formula_units_Z            2
loop_
_atom_site_label
_atom_site_type_symbol
_atom_site_fract_x
_atom_site_fract_y
_atom_site_fract_z
N1 N 0.5513(3) 0.3574(5) 0.6736(3)
C1 C 0.6810(4) 0.4020(7) 0.7084(4)
H1 H 0.7270(4) 0.3324(7) 0.7780(4)
C2 C 0.7115(4) 0.3249(6) 0.6089(3)
H2 H 0.7825(4) 0.2449(6) 0.6406(3)
C3 C 0.6023(4) 0.2107(6) 0.5371(3)
H3 H 0.5510(4) 0.2820(6) 0.4702(3)
O1 O 0.6384(3) 0.0475(5) 0.4998(3)
H4 H 0.5764(40) 0.0017(73) 0.4487(36)
C4 C 0.5353(4) 0.1802(6) 0.6162(3)
H5 H 0.4504(4) 0.1532(6) 0.5730(3)
H6 H 0.5715(4) 0.0821(6) 0.6704(3)
C5 C 0.7079(5) 0.6037(7) 0.7340(4)
H7 H 0.6794(5) 0.6704(7) 0.6621(4)
H8 H 0.6626(5) 0.6471(7) 0.7779(4)
C6 C 0.8384(6) 0.6471(10) 0.7987(6)
H9 H 0.8846(6) 0.6044(10) 0.7555(6)
H10 H 0.8675(6) 0.5830(10) 0.8716(6)
C7 C 0.8588(9) 0.8541(14) 0.8205(9)
H11 H 0.8616(9) 0.9070(14) 0.7513(9)
H12 H 0.7868(9) 0.9024(14) 0.8278(9)
C8 C 0.9462(16) 0.9160(22) 0.9015(10)
H13 H 0.9425(16) 1.0474(22) 0.9001(10)
H14 H 1.0197(16) 0.8768(22) 0.8953(10)
H15 H 0.9444(16) 0.8721(22) 0.9723(10)
O2 O 0.7376(2) 0.4702(4) 0.5476(2)
C9 C 0.7805(4) 0.4077(7) 0.4639(4)
H16 H 0.7162(4) 0.3447(7) 0.4028(4)
H17 H 0.8467(4) 0.3223(7) 0.4986(4)
C10 C 0.8231(4) 0.5689(7) 0.4157(4)
C11 C 0.8611(5) 0.5395(10) 0.3262(5)
H18 H 0.8574(5) 0.4223(10) 0.2963(5)
C12 C 0.9039(6) 0.6820(15) 0.2817(6)
H19 H 0.9301(6) 0.6595(15) 0.2228(6)
C13 C 0.9084(5) 0.8558(13) 0.3224(6)
H20 H 0.9365(5) 0.9522(13) 0.2915(6)
C14 C 0.8707(5) 0.8848(10) 0.4098(6)
H21 H 0.8732(5) 1.0026(10) 0.4387(6)
C15 C 0.8290(4) 0.7418(7) 0.4561(5)
H22 H 0.8045(4) 0.7649(7) 0.5161(5)
C16 C 0.5059(4) 0.3614(8) 0.7679(4)
H23 H 0.4190(4) 0.3422(8) 0.7346(4)
H24 H 0.5201(4) 0.4828(8) 0.8017(4)
C17 C 0.5609(4) 0.2237(8) 0.8622(4)
C18 C 0.5093(5) 0.0530(9) 0.8564(4)
H25 H 0.4396(5) 0.0244(9) 0.7929(4)
C19 C 0.5579(6) -0.0780(11) 0.9423(5)
H26 H 0.5219(6) -0.1925(11) 0.9359(5)
C20 C 0.6591(7) -0.0349(15) 1.0355(6)
H27 H 0.6924(7) -0.1203(15) 1.0939(6)
C21 C 0.7123(6) 0.1337(15) 1.0441(6)
H28 H 0.7814(6) 0.1621(15) 1.1081(6)
C22 C 0.6637(5) 0.2602(10) 0.9585(4)
H29 H 0.7010(5) 0.3738(10) 0.9654(4)
loop_
_geom_bond_atom_site_label_1
_geom_bond_atom_site_label_2
_geom_bond_site_symmetry_1
_geom_bond_site_symmetry_2
N1 C1 1_555 1_555
C1 H1 1_555 1_555
C2 C1 1_555 1_555
H2 C2 1_555 1_555
C3 C2 1_555 1_555
H3 C3 1_555 1_555
O1 C3 1_555 1_555
H4 O1 1_555 1_555
C4 N1 1_555 1_555
H5 C4 1_555 1_555
H6 C4 1_555 1_555
C5 C1 1_555 1_555
H7 C5 1_555 1_555
H8 C5 1_555 1_555
C6 C5 1_555 1_555
H9 C6 1_555 1_555
H10 C6 1_555 1_555
C7 C6 1_555 1_555
H11 C7 1_555 1_555
H12 C7 1_555 1_555
C8 C7 1_555 1_555
H13 C8 1_555 1_555
H14 C8 1_555 1_555
H15 C8 1_555 1_555
O2 C2 1_555 1_555
C9 O2 1_555 1_555
H16 C9 1_555 1_555
H17 C9 1_555 1_555
C10 C9 1_555 1_555
C11 C10 1_555 1_555
H18 C11 1_555 1_555
C12 C11 1_555 1_555
H19 C12 1_555 1_555
C13 C12 1_555 1_555
H20 C13 1_555 1_555
C14 C13 1_555 1_555
H21 C14 1_555 1_555
C15 C10 1_555 1_555
H22 C15 1_555 1_555
C16 N1 1_555 1_555
H23 C16 1_555 1_555
H24 C16 1_555 1_555
C17 C16 1_555 1_555
C18 C17 1_555 1_555
H25 C18 1_555 1_555
C19 C18 1_555 1_555
H26 C19 1_555 1_555
C20 C19 1_555 1_555
H27 C20 1_555 1_555
C21 C20 1_555 1_555
H28 C21 1_555 1_555
C22 C17 1_555 1_555
H29 C22 1_555 1_555
C3 C4 1_555 1_555
C14 C15 1_555 1_555
C21 C22 1_555 1_555

#END
