
#######################################################################
#
#                 Cambridge Crystallographic Data Centre
#                                CCDC 
#
#######################################################################
#
# If this CIF has been generated from an entry in the Cambridge 
# Structural Database, then it will include bibliographic, chemical, 
# crystal, experimental, refinement or atomic coordinate data resulting 
# from the CCDC's data processing and validation procedures.
#
#######################################################################

data_GIYXOC
_chemical_formula_moiety         'C24 H22 O4'
_chemical_name_systematic        
2\b,5\b-bis(2-Ethynylphenyl)-4\b-ethoxycarbonyl-4\a-ethyl-1,3-dioxolane
_symmetry_cell_setting           triclinic
_symmetry_space_group_name_H-M   'P -1'
_symmetry_Int_Tables_number      2
_space_group_name_Hall           '-P 1'
loop_
_symmetry_equiv_pos_site_id
_symmetry_equiv_pos_as_xyz
1 x,y,z
2 -x,-y,-z
_cell_length_a                   11.035(3)
_cell_length_b                   12.040(3)
_cell_length_c                   16.164(4)
_cell_angle_alpha                70.833(4)
_cell_angle_beta                 82.474(4)
_cell_angle_gamma                86.437(4)
_cell_volume                     2010.63
_exptl_crystal_colour            colorless
_exptl_crystal_description       block
_cell_formula_units_Z            4
loop_
_atom_site_label
_atom_site_type_symbol
_atom_site_fract_x
_atom_site_fract_y
_atom_site_fract_z
C1 C 0.58102(12) 1.22516(11) 0.06223(8)
C2 C 0.59217(13) 1.34770(11) 0.03077(9)
H1 H 0.5392 1.3947 -0.0095
C3 C 0.67972(14) 1.40023(12) 0.05806(9)
H2 H 0.6853 1.4835 0.0378
C4 C 0.76008(13) 1.33203(12) 0.11510(9)
H3 H 0.8213 1.3687 0.1328
C5 C 0.75083(12) 1.21070(11) 0.14613(9)
H4 H 0.8061 1.1642 0.1847
C6 C 0.66102(11) 1.15685(10) 0.12102(8)
C7 C 0.48905(13) 1.16997(11) 0.03443(9)
C8 C 0.41517(14) 1.12132(13) 0.01215(10)
H5 H 0.3591(16) 1.0852(15) -0.0096(11)
C9 C 0.64944(12) 1.02562(11) 0.15701(8)
H6 H 0.5641 1.0029 0.1563
C10 C 0.87637(12) 0.68117(11) 0.14463(9)
C11 C 0.99040(13) 0.63416(12) 0.12206(10)
H7 H 0.9987 0.5525 0.1295
C12 C 1.09077(13) 0.70518(13) 0.08914(10)
H8 H 1.1678 0.6723 0.0745
C13 C 1.07913(12) 0.82454(13) 0.07739(10)
H9 H 1.1478 0.8738 0.0535
C14 C 0.96688(12) 0.87220(11) 0.10060(9)
H10 H 0.9596 0.9538 0.0932
C15 C 0.86528(11) 0.80164(11) 0.13449(8)
C16 C 0.77134(12) 0.60689(11) 0.17807(9)
C17 C 0.68232(14) 0.54880(12) 0.20397(10)
H11 H 0.6106(16) 0.5057(15) 0.2230(11)
C18 C 0.74495(11) 0.85292(10) 0.16249(8)
H12 H 0.6767 0.8066 0.1560
C19 C 0.72668(11) 0.86380(10) 0.25786(8)
C20 C 0.63346(12) 0.77718(11) 0.31967(8)
H13 H 0.5559 0.7888 0.2930
H14 H 0.6638 0.6961 0.3258
C21 C 0.60819(15) 0.79040(15) 0.41081(9)
H15 H 0.5465 0.7339 0.4470
H16 H 0.5780 0.8705 0.4053
H17 H 0.6838 0.7753 0.4388
C22 C 0.84940(13) 0.85258(13) 0.29485(9)
C23 C 1.0029(2) 0.7028(3) 0.35452(17)
H18 H 1.0646 0.7611 0.3187
H19 H 1.0272 0.6251 0.3482
C24 C 0.9903(2) 0.6965(3) 0.44992(17)
H20 H 1.0678 0.6689 0.4740
H21 H 0.9255 0.6418 0.4834
H22 H 0.9692 0.7748 0.4544
O1 O 0.73370(8) 0.97213(7) 0.10677(5)
O2 O 0.68279(10) 0.98184(8) 0.24342(6)
O3 O 0.90882(11) 0.93386(11) 0.29252(8)
O4 O 0.88043(10) 0.73917(10) 0.32716(8)
C25 C 0.32341(11) 0.67241(11) 0.37521(9)
C26 C 0.30598(12) 0.79450(12) 0.34883(10)
H23 H 0.2877 0.8327 0.3920
C27 C 0.31521(13) 0.86010(12) 0.26012(11)
H24 H 0.3037 0.9431 0.2427
C28 C 0.34130(13) 0.80474(12) 0.19675(10)
H25 H 0.3491 0.8500 0.1359
C29 C 0.35597(13) 0.68338(12) 0.22205(9)
H26 H 0.3720 0.6457 0.1784
C30 C 0.34731(11) 0.61647(11) 0.31079(9)
C31 C 0.31576(13) 0.60666(12) 0.46785(10)
C32 C 0.30739(16) 0.55528(15) 0.54475(11)
H27 H 0.2988(17) 0.5136(16) 0.6054(13)
C33 C 0.35897(11) 0.48434(11) 0.33994(8)
H28 H 0.4076 0.4559 0.3913
C34 C 0.11921(12) 0.14806(12) 0.39143(8)
C35 C 0.00770(13) 0.10295(13) 0.38586(9)
H29 H -0.0042 0.0204 0.4075
C36 C -0.08505(13) 0.17797(14) 0.34899(10)
H30 H -0.1604 0.1468 0.3453
C37 C -0.06846(13) 0.29839(14) 0.31740(10)
H31 H -0.1330 0.3497 0.2932
C38 C 0.04263(12) 0.34435(12) 0.32110(9)
H32 H 0.0538 0.4269 0.2987
C39 C 0.13732(11) 0.27006(11) 0.35734(8)
C40 C 0.21310(13) 0.06914(11) 0.43308(9)
C41 C 0.28897(15) 0.00388(13) 0.46974(10)
H33 H 0.3498(17) -0.0469(16) 0.4996(12)
C42 C 0.25871(11) 0.31900(10) 0.35930(8)
H34 H 0.2964 0.2678 0.4122
C43 C 0.35407(11) 0.33814(10) 0.27521(8)
C44 C 0.44750(12) 0.23787(11) 0.27910(8)
H35 H 0.4030 0.1652 0.2878
H36 H 0.4988 0.2564 0.2214
C45 C 0.53131(13) 0.21324(13) 0.35125(9)
H37 H 0.5922 0.1526 0.3456
H38 H 0.4827 0.1858 0.4092
H39 H 0.5729 0.2855 0.3454
C46 C 0.28736(11) 0.36665(11) 0.19265(8)
C47 C 0.17622(14) 0.28325(13) 0.11199(9)
H40 H 0.2268 0.3080 0.0540
H41 H 0.1123 0.3445 0.1126
C48 C 0.11844(14) 0.16774(14) 0.12706(10)
H42 H 0.0664 0.1757 0.0806
H43 H 0.0687 0.1440 0.1846
H44 H 0.1824 0.1079 0.1257
O5 O 0.24133(8) 0.43531(8) 0.36419(6)
O6 O 0.41438(8) 0.44242(8) 0.27042(6)
O7 O 0.26687(10) 0.46419(8) 0.14533(6)
O8 O 0.25221(8) 0.26806(8) 0.18249(6)
C49? C 0.9854(5) 0.7359(6) 0.3817(4)
H45? H 1.0628 0.7619 0.3433
H46? H 0.9661 0.7857 0.4200
C50? C 0.9923(4) 0.6086(5) 0.4351(3)
H47? H 1.0663 0.5931 0.4651
H48? H 0.9952 0.5607 0.3962
H49? H 0.9201 0.5885 0.4790
loop_
_geom_bond_atom_site_label_1
_geom_bond_atom_site_label_2
_geom_bond_site_symmetry_1
_geom_bond_site_symmetry_2
C1 C2 1_555 1_555
C2 H1 1_555 1_555
C3 C2 1_555 1_555
H2 C3 1_555 1_555
C4 C3 1_555 1_555
H3 C4 1_555 1_555
C5 C4 1_555 1_555
H4 C5 1_555 1_555
C6 C1 1_555 1_555
C7 C1 1_555 1_555
C8 C7 1_555 1_555
H5 C8 1_555 1_555
C9 C6 1_555 1_555
H6 C9 1_555 1_555
C10 C11 1_555 1_555
C11 H7 1_555 1_555
C12 C11 1_555 1_555
H8 C12 1_555 1_555
C13 C12 1_555 1_555
H9 C13 1_555 1_555
C14 C13 1_555 1_555
H10 C14 1_555 1_555
C15 C10 1_555 1_555
C16 C10 1_555 1_555
C17 C16 1_555 1_555
H11 C17 1_555 1_555
C18 C15 1_555 1_555
H12 C18 1_555 1_555
C19 C18 1_555 1_555
C20 C19 1_555 1_555
H13 C20 1_555 1_555
H14 C20 1_555 1_555
C21 C20 1_555 1_555
H15 C21 1_555 1_555
H16 C21 1_555 1_555
H17 C21 1_555 1_555
C22 C19 1_555 1_555
C23 H18 1_555 1_555
H19 C23 1_555 1_555
C24 C23 1_555 1_555
H20 C24 1_555 1_555
H21 C24 1_555 1_555
H22 C24 1_555 1_555
O1 C9 1_555 1_555
O2 C9 1_555 1_555
O3 C22 1_555 1_555
O4 C22 1_555 1_555
C25 C26 1_555 1_555
C26 H23 1_555 1_555
C27 C26 1_555 1_555
H24 C27 1_555 1_555
C28 C27 1_555 1_555
H25 C28 1_555 1_555
C29 C28 1_555 1_555
H26 C29 1_555 1_555
C30 C25 1_555 1_555
C31 C25 1_555 1_555
C32 C31 1_555 1_555
H27 C32 1_555 1_555
C33 C30 1_555 1_555
H28 C33 1_555 1_555
C34 C35 1_555 1_555
C35 H29 1_555 1_555
C36 C35 1_555 1_555
H30 C36 1_555 1_555
C37 C36 1_555 1_555
H31 C37 1_555 1_555
C38 C37 1_555 1_555
H32 C38 1_555 1_555
C39 C34 1_555 1_555
C40 C34 1_555 1_555
C41 C40 1_555 1_555
H33 C41 1_555 1_555
C42 C39 1_555 1_555
H34 C42 1_555 1_555
C43 C42 1_555 1_555
C44 C43 1_555 1_555
H35 C44 1_555 1_555
H36 C44 1_555 1_555
C45 C44 1_555 1_555
H37 C45 1_555 1_555
H38 C45 1_555 1_555
H39 C45 1_555 1_555
C46 C43 1_555 1_555
C47 H40 1_555 1_555
H41 C47 1_555 1_555
C48 C47 1_555 1_555
H42 C48 1_555 1_555
H43 C48 1_555 1_555
H44 C48 1_555 1_555
O5 C33 1_555 1_555
O6 C33 1_555 1_555
O7 C46 1_555 1_555
O8 C46 1_555 1_555
C5 C6 1_555 1_555
C14 C15 1_555 1_555
C18 O1 1_555 1_555
C19 O2 1_555 1_555
C23 O4 1_555 1_555
C29 C30 1_555 1_555
C38 C39 1_555 1_555
C42 O5 1_555 1_555
C43 O6 1_555 1_555
C47 O8 1_555 1_555

#END
