
#######################################################################
#
#                 Cambridge Crystallographic Data Centre
#                                CCDC 
#
#######################################################################
#
# If this CIF has been generated from an entry in the Cambridge 
# Structural Database, then it will include bibliographic, chemical, 
# crystal, experimental, refinement or atomic coordinate data resulting 
# from the CCDC's data processing and validation procedures.
#
#######################################################################

data_GIZJEG
_chemical_formula_moiety         'C4 H18 B12'
_chemical_name_systematic        8,9dimethyl-8,9-dicarba-tetradecaborane(11)
_symmetry_cell_setting           monoclinic
_symmetry_space_group_name_H-M   'C 2/c'
_symmetry_Int_Tables_number      15
_space_group_name_Hall           '-C 2yn'
loop_
_symmetry_equiv_pos_site_id
_symmetry_equiv_pos_as_xyz
1 x,y,z
2 -x,y,1/2-z
3 1/2+x,1/2+y,z
4 1/2-x,1/2+y,1/2-z
5 -x,-y,-z
6 x,-y,1/2+z
7 1/2-x,1/2-y,-z
8 1/2+x,1/2-y,1/2+z
_cell_length_a                   21.114(3)
_cell_length_b                   16.368(2)
_cell_length_c                   14.3131(19)
_cell_angle_alpha                90
_cell_angle_beta                 97.043(3)
_cell_angle_gamma                90
_cell_volume                     4909.2
_exptl_crystal_colour            colorless
_exptl_crystal_description       block
_cell_formula_units_Z            16
loop_
_atom_site_label
_atom_site_type_symbol
_atom_site_fract_x
_atom_site_fract_y
_atom_site_fract_z
C1 C -0.00645(13) 0.32390(18) 0.5468(2)
C2 C 0.08208(13) 0.22367(16) 0.46808(19)
C3 C -0.00645(17) 0.4030(2) 0.6023(3)
H1 H -0.0385 0.4390 0.5721
H2 H 0.0346 0.4286 0.6048
H3 H -0.0155 0.3914 0.6651
C4 C 0.15358(14) 0.22174(19) 0.4612(2)
H4 H 0.1605 0.2146 0.3967
H5 H 0.1727 0.1772 0.4981
H6 H 0.1725 0.2722 0.4845
B1 B 0.04924(16) 0.2363(2) 0.5812(2)
B2 B 0.05638(15) 0.31677(19) 0.4875(2)
H7 H 0.0920 0.3661 0.4970
B3 B 0.05557(16) 0.1381(2) 0.5142(3)
H8 H 0.0903 0.0895 0.5357
B4 B -0.00616(16) 0.1488(2) 0.5814(3)
H9 H -0.0056 0.1061 0.6408
B5 B -0.03815(16) 0.2447(2) 0.5982(3)
H10 H -0.0552 0.2555 0.6667
B6 B -0.02076(16) 0.3284(2) 0.4277(2)
H11 H -0.0371 0.3824 0.3857
B7 B 0.03316(16) 0.2686(2) 0.3805(2)
H12 H 0.0467 0.2898 0.3128
B8 B 0.03216(17) 0.1638(2) 0.3962(2)
H13 H 0.0449 0.1274 0.3367
B9 B -0.02237(17) 0.1201(2) 0.4616(3)
H14 H -0.0403 0.0595 0.4380
B10 B -0.07668(16) 0.1817(2) 0.5107(3)
H15 H -0.1240 0.1546 0.5142
B11 B -0.07616(16) 0.2854(2) 0.4932(3)
H16 H -0.1230 0.3157 0.4872
B12 B -0.04720(17) 0.2194(2) 0.3973(3)
H17 H 0.0818(17) 0.249(2) 0.639(2)
H18 H -0.0781(17) 0.211(2) 0.339(3)
C5 C 0.19338(13) 0.02496(17) 0.76630(19)
C6 C 0.26423(13) -0.10171(16) 0.69500(19)
C7 C 0.12358(15) 0.0443(2) 0.7744(3)
H19 H 0.1192 0.0594 0.8381
H20 H 0.0979 -0.0030 0.7573
H21 H 0.1098 0.0887 0.7331
C8 C 0.25235(17) -0.18421(18) 0.6466(3)
H22 H 0.2791 -0.2248 0.6799
H23 H 0.2620 -0.1805 0.5829
H24 H 0.2084 -0.1993 0.6465
B13 B 0.22151(16) -0.00640(19) 0.6533(2)
B14 B 0.20549(16) -0.07460(19) 0.7554(2)
H25 H 0.1638 -0.1152 0.7521
B15 B 0.30525(16) -0.0368(2) 0.6345(2)
H26 H 0.3191 -0.0577 0.5668
B16 B 0.28738(17) 0.0658(2) 0.6428(3)
H27 H 0.2912 0.1021 0.5791
B17 B 0.22981(16) 0.09757(19) 0.7105(2)
H28 H 0.2016 0.1513 0.6848
B18 B 0.23808(17) -0.0219(2) 0.8572(2)
H29 H 0.2242 -0.0325 0.9278
B19 B 0.28086(16) -0.0989(2) 0.8138(2)
H30 H 0.2905 -0.1520 0.8605
B20 B 0.33880(16) -0.0764(2) 0.7426(3)
H31 H 0.3805 -0.1173 0.7502
B21 B 0.35351(16) 0.0241(2) 0.7149(3)
H32 H 0.4035 0.0391 0.7079
B22 B 0.30974(17) 0.1017(2) 0.7586(3)
H33 H 0.3359 0.1590 0.7753
B23 B 0.25221(17) 0.0787(2) 0.8297(2)
H34 H 0.2461 0.1234 0.8851
B24 B 0.32221(16) 0.0045(2) 0.8328(3)
H35 H 0.1839(14) -0.0167(17) 0.596(2)
H36 H 0.3531(16) 0.008(2) 0.890(2)
loop_
_geom_bond_atom_site_label_1
_geom_bond_atom_site_label_2
_geom_bond_site_symmetry_1
_geom_bond_site_symmetry_2
C1 C3 1_555 1_555
C2 C4 1_555 1_555
C3 H1 1_555 1_555
H2 C3 1_555 1_555
H3 C3 1_555 1_555
C4 H4 1_555 1_555
H5 C4 1_555 1_555
H6 C4 1_555 1_555
B1 C1 1_555 1_555
B2 C1 1_555 1_555
H7 B2 1_555 1_555
B3 C2 1_555 1_555
H8 B3 1_555 1_555
B4 B1 1_555 1_555
H9 B4 1_555 1_555
B5 C1 1_555 1_555
H10 B5 1_555 1_555
B6 C1 1_555 1_555
H11 B6 1_555 1_555
B7 C2 1_555 1_555
H12 B7 1_555 1_555
B8 C2 1_555 1_555
H13 B8 1_555 1_555
B9 B3 1_555 1_555
H14 B9 1_555 1_555
B10 B4 1_555 1_555
H15 B10 1_555 1_555
B11 C1 1_555 1_555
H16 B11 1_555 1_555
B12 B6 1_555 1_555
H17 B1 1_555 1_555
H18 B12 1_555 1_555
C5 C7 1_555 1_555
C6 C8 1_555 1_555
C7 H19 1_555 1_555
H20 C7 1_555 1_555
H21 C7 1_555 1_555
C8 H22 1_555 1_555
H23 C8 1_555 1_555
H24 C8 1_555 1_555
B13 C5 1_555 1_555
B14 C5 1_555 1_555
H25 B14 1_555 1_555
B15 C6 1_555 1_555
H26 B15 1_555 1_555
B16 B13 1_555 1_555
H27 B16 1_555 1_555
B17 C5 1_555 1_555
H28 B17 1_555 1_555
B18 C5 1_555 1_555
H29 B18 1_555 1_555
B19 C6 1_555 1_555
H30 B19 1_555 1_555
B20 C6 1_555 1_555
H31 B20 1_555 1_555
B21 B15 1_555 1_555
H32 B21 1_555 1_555
B22 B16 1_555 1_555
H33 B22 1_555 1_555
B23 C5 1_555 1_555
H34 B23 1_555 1_555
B24 B18 1_555 1_555
H35 B13 1_555 1_555
H36 B24 1_555 1_555
C2 B1 1_555 1_555
C2 B2 1_555 1_555
B1 B2 1_555 1_555
B1 B3 1_555 1_555
B1 B5 1_555 1_555
B2 B6 1_555 1_555
B2 B7 1_555 1_555
B3 B4 1_555 1_555
B3 B8 1_555 1_555
B4 B5 1_555 1_555
B4 B9 1_555 1_555
B5 B10 1_555 1_555
B5 B11 1_555 1_555
B6 B7 1_555 1_555
B6 B11 1_555 1_555
B7 B8 1_555 1_555
B7 B12 1_555 1_555
B8 B9 1_555 1_555
B8 B12 1_555 1_555
B9 B10 1_555 1_555
B9 B12 1_555 1_555
B10 B11 1_555 1_555
B10 B12 1_555 1_555
B11 B12 1_555 1_555
C6 B13 1_555 1_555
C6 B14 1_555 1_555
B13 B14 1_555 1_555
B13 B15 1_555 1_555
B13 B17 1_555 1_555
B14 B18 1_555 1_555
B14 B19 1_555 1_555
B15 B16 1_555 1_555
B15 B20 1_555 1_555
B16 B17 1_555 1_555
B16 B21 1_555 1_555
B17 B22 1_555 1_555
B17 B23 1_555 1_555
B18 B19 1_555 1_555
B18 B23 1_555 1_555
B19 B20 1_555 1_555
B19 B24 1_555 1_555
B20 B21 1_555 1_555
B20 B24 1_555 1_555
B21 B22 1_555 1_555
B21 B24 1_555 1_555
B22 B23 1_555 1_555
B22 B24 1_555 1_555
B23 B24 1_555 1_555

#END
