
#######################################################################
#
#                 Cambridge Crystallographic Data Centre
#                                CCDC 
#
#######################################################################
#
# If this CIF has been generated from an entry in the Cambridge 
# Structural Database, then it will include bibliographic, chemical, 
# crystal, experimental, refinement or atomic coordinate data resulting 
# from the CCDC's data processing and validation procedures.
#
#######################################################################

data_GIZQEM
_chemical_compound_source        
'leaf extract of Rutaceae Clausena lansium (Lour.) Skeels'
_chemical_formula_moiety         'C18 H19 N1 O3'
_chemical_name_systematic        Neoclausenamide
_chemical_properties_biological  
'parent plant used in folk medicine as a treatment of influenza, gastrointestinal disorder, viral hepatitis and dermatological diseases.'
_symmetry_cell_setting           monoclinic
_symmetry_space_group_name_H-M   'P 21/c'
_symmetry_Int_Tables_number      14
_space_group_name_Hall           '-P 2ybc'
loop_
_symmetry_equiv_pos_site_id
_symmetry_equiv_pos_as_xyz
1 x,y,z
2 -x,1/2+y,1/2-z
3 -x,-y,-z
4 x,1/2-y,1/2+z
_cell_length_a                   16.066(3)
_cell_length_b                   6.9390(14)
_cell_length_c                   14.017(3)
_cell_angle_alpha                90
_cell_angle_beta                 90.45(3)
_cell_angle_gamma                90
_cell_volume                     1562.59
_exptl_crystal_colour            colorless
_exptl_crystal_description       prism
_chemical_melting_point          '198-201 deg.C'
_cell_formula_units_Z            4
_exptl_crystal_recrystallization_method 'ethyl acetate/tetrahydrofuran'
loop_
_atom_site_label
_atom_site_type_symbol
_atom_site_fract_x
_atom_site_fract_y
_atom_site_fract_z
O1 O 0.6101(3) 0.0045(5) -0.4190(3)
H1 H 0.5910 0.0677 -0.4634
C1 C 0.6349(3) -0.5038(6) -0.3635(4)
H2 H 0.6471 -0.5974 -0.4139
O2 O 0.4558(2) -0.2255(6) -0.4280(3)
O3 O 0.6327(2) -0.4682(5) -0.1912(3)
H3 H 0.6060 -0.5313 -0.1527
C2 C 0.7573(3) -0.3339(6) -0.4442(4)
N1 N 0.5446(2) -0.4554(5) -0.3674(3)
C3 C 0.7553(3) -0.6224(6) -0.2599(4)
C4 C 0.5275(3) -0.2899(7) -0.4128(4)
C5 C 0.6611(3) -0.5913(6) -0.2654(4)
H4 H 0.6337 -0.7167 -0.2586
C6 C 0.7572(3) -0.4359(8) -0.5300(5)
H5 H 0.7073 -0.4853 -0.5536
C7 C 0.6778(3) -0.3075(6) -0.3887(4)
H6 H 0.6907 -0.2389 -0.3293
C8 C 0.7945(3) -0.7456(7) -0.3243(4)
H7 H 0.7629 -0.8120 -0.3693
C9 C 0.8320(3) -0.2563(8) -0.4100(5)
H8 H 0.8326 -0.1850 -0.3539
C10 C 0.8805(3) -0.7698(8) -0.3216(5)
H9 H 0.9060 -0.8508 -0.3655
C11 C 0.8049(3) -0.5284(8) -0.1912(5)
H10 H 0.7798 -0.4476 -0.1469
C12 C 0.6083(3) -0.1956(6) -0.4431(4)
H11 H 0.6156 -0.2112 -0.5120
C13 C 0.9056(4) -0.2857(9) -0.4599(6)
H12 H 0.9553 -0.2350 -0.4365
C14 C 0.4814(3) -0.5870(8) -0.3312(5)
H13 H 0.4273 -0.5306 -0.3398
H14 H 0.4913 -0.6103 -0.2646
H15 H 0.4841 -0.7066 -0.3655
C15 C 0.9285(3) -0.6736(9) -0.2541(5)
H16 H 0.9859 -0.6900 -0.2533
C16 C 0.8302(4) -0.4657(10) -0.5811(5)
H17 H 0.8296 -0.5338 -0.6383
C17 C 0.9052(4) -0.3895(10) -0.5439(6)
H18 H 0.9547 -0.4095 -0.5762
C18 C 0.8918(4) -0.5539(9) -0.1879(6)
H19 H 0.9240 -0.4913 -0.1420
loop_
_geom_bond_atom_site_label_1
_geom_bond_atom_site_label_2
_geom_bond_site_symmetry_1
_geom_bond_site_symmetry_2
O1 H1 1_555 1_555
C1 H2 1_555 1_555
O2 C4 1_555 1_555
O3 H3 1_555 1_555
C2 C6 1_555 1_555
N1 C1 1_555 1_555
C3 C5 1_555 1_555
C4 N1 1_555 1_555
C5 C1 1_555 1_555
H4 C5 1_555 1_555
C6 H5 1_555 1_555
C7 C1 1_555 1_555
H6 C7 1_555 1_555
C8 C3 1_555 1_555
H7 C8 1_555 1_555
C9 C2 1_555 1_555
H8 C9 1_555 1_555
C10 C8 1_555 1_555
H9 C10 1_555 1_555
C11 C3 1_555 1_555
H10 C11 1_555 1_555
C12 O1 1_555 1_555
H11 C12 1_555 1_555
C13 C9 1_555 1_555
H12 C13 1_555 1_555
C14 N1 1_555 1_555
H13 C14 1_555 1_555
H14 C14 1_555 1_555
H15 C14 1_555 1_555
C15 C10 1_555 1_555
H16 C15 1_555 1_555
C16 C6 1_555 1_555
H17 C16 1_555 1_555
C17 C13 1_555 1_555
H18 C17 1_555 1_555
C18 C11 1_555 1_555
H19 C18 1_555 1_555
O3 C5 1_555 1_555
C2 C7 1_555 1_555
C4 C12 1_555 1_555
C7 C12 1_555 1_555
C15 C18 1_555 1_555
C16 C17 1_555 1_555

#END
