
#######################################################################
#
#                 Cambridge Crystallographic Data Centre
#                                CCDC 
#
#######################################################################
#
# If this CIF has been generated from an entry in the Cambridge 
# Structural Database, then it will include bibliographic, chemical, 
# crystal, experimental, refinement or atomic coordinate data resulting 
# from the CCDC's data processing and validation procedures.
#
#######################################################################

data_GOBMAM
_chemical_formula_moiety         
'C33 H30 O4 S2 2+,2(C1 H6 B11 Cl6 1-),2(C1 H2 Cl2)'
_chemical_name_systematic        
"9,9'-Methanediylidenebis(1,8-dimethoxy-10-methyl-9H-thioxanthenium) bis(7,8,9,10,11,12-hexachloro-1-carba-closo-dodecaborate(6)) dichloromethane solvate"
_symmetry_cell_setting           monoclinic
_symmetry_space_group_name_H-M   'P 21/n'
_symmetry_Int_Tables_number      14
_space_group_name_Hall           '-P 2yn'
loop_
_symmetry_equiv_pos_site_id
_symmetry_equiv_pos_as_xyz
1 x,y,z
2 1/2-x,1/2+y,1/2-z
3 -x,-y,-z
4 1/2+x,1/2-y,1/2+z
_cell_length_a                   13.755(1)
_cell_length_b                   17.603(1)
_cell_length_c                   26.404(1)
_cell_angle_alpha                90
_cell_angle_beta                 103.170(1)
_cell_angle_gamma                90
_cell_volume                     6225.03
_exptl_crystal_colour            brown
_exptl_crystal_description       plate
_cell_formula_units_Z            4
loop_
_atom_site_label
_atom_site_type_symbol
_atom_site_fract_x
_atom_site_fract_y
_atom_site_fract_z
Cl1 Cl 0.61360(5) -0.24479(4) 0.48893(3)
Cl2 Cl 0.52982(6) -0.39616(4) 0.39322(3)
Cl3 Cl 0.41519(5) -0.37287(4) 0.50625(3)
Cl4 Cl 0.39436(5) -0.17236(4) 0.53065(3)
Cl5 Cl 0.49830(5) -0.06637(4) 0.43602(3)
Cl6 Cl 0.58400(5) -0.20719(4) 0.35185(3)
C1 C 0.275762 -0.239507 0.368105
B1 B 0.493013 -0.242702 0.446225
B2 B 0.451911 -0.316571 0.399651
B3 B 0.395646 -0.305648 0.453915
B4 B 0.385362 -0.206849 0.465749
B5 B 0.436209 -0.155617 0.419375
B6 B 0.477365 -0.223555 0.378467
B7 B 0.371283 -0.274908 0.344876
B8 B 0.321166 -0.325647 0.391324
B9 B 0.280411 -0.258004 0.431639
B10 B 0.305099 -0.166024 0.41039
B11 B 0.361851 -0.176078 0.356662
H1 H 0.201759 -0.238416 0.341354
H2 H 0.366039 -0.297178 0.30546
H3 H 0.278469 -0.378579 0.382002
H4 H 0.215917 -0.268964 0.448659
H5 H 0.2548 -0.117567 0.410571
H6 H 0.344778 -0.133784 0.325269
Cl7 Cl 0.47696(7) 0.15835(5) 0.15340(3)
Cl8 Cl 0.52126(8) -0.04879(5) 0.14086(3)
Cl9 Cl 0.73202(7) 0.08172(6) 0.18846(4)
Cl10 Cl 0.64771(8) 0.22516(6) 0.27015(4)
Cl11 Cl 0.39142(7) 0.18625(5) 0.27201(4)
Cl12 Cl 0.30998(7) 0.01749(5) 0.19438(4)
C2 C 0.591377 -0.010174 0.308894
B12 B 0.51737 0.097247 0.208429
B13 B 0.538269 -0.00209 0.202465
B14 B 0.641359 0.060484 0.225664
B15 B 0.602442 0.130188 0.26583
B16 B 0.47616 0.111109 0.267029
B17 B 0.436196 0.029538 0.228353
B18 B 0.509846 -0.048047 0.256995
B19 B 0.635744 -0.029206 0.255216
B20 B 0.675922 0.051921 0.29441
B21 B 0.573988 0.083366 0.319863
B22 B 0.471894 0.021684 0.296769
H7 H 0.616471 -0.046932 0.343015
H8 H 0.479705 -0.10609 0.254554
H9 H 0.689439 -0.075129 0.254291
H10 H 0.753819 0.05902 0.315853
H11 H 0.583249 0.107147 0.359159
H12 H 0.421465 0.009123 0.322532
Cl13 Cl 0.54425(10) -0.39751(8) 0.70487(5)
Cl14 Cl 0.33862(12) -0.41037(9) 0.64714(7)
C3 C 0.453412 -0.360481 0.653792
H13 H 0.478723 -0.366181 0.617666
H14 H 0.442645 -0.300077 0.660189
Cl15 Cl 0.18022(8) 0.15766(7) 0.66022(5)
Cl16 Cl 0.02606(15) 0.04546(12) 0.66248(6)
C4 C 0.094567 0.121665 0.694454
H15 H 0.041487 0.166361 0.698033
H16 H 0.134488 0.104745 0.733444
S1 S 0.27111(2) 0.048730(16) 0.396526(11)
S2 S 0.15913(2) 0.401297(15) 0.536457(10)
O1 O -0.03406(9) 0.21006(7) 0.32606(4)
O2 O 0.03013(10) 0.15184(7) 0.49908(5)
O3 O -0.10724(8) 0.25739(7) 0.40953(4)
O4 O 0.19157(8) 0.29636(6) 0.36242(5)
C5 C 0.02993(11) 0.15901(8) 0.31472(6)
C6 C 0.02807(11) 0.13287(9) 0.26460(5)
C7 C 0.09787(13) 0.08034(9) 0.25598(6)
C8 C 0.17044(11) 0.05265(8) 0.29715(6)
C9 C 0.25855(12) 0.00050(8) 0.49147(6)
C10 C 0.21820(14) 0.00075(9) 0.53506(6)
C11 C 0.14066(14) 0.05020(9) 0.53828(6)
C12 C 0.10448(12) 0.10203(8) 0.49852(6)
C13 C 0.10897(9) 0.15853(7) 0.41116(5)
C14 C 0.17063(10) 0.07906(7) 0.34676(5)
C15 C 0.22018(11) 0.05179(8) 0.45209(5)
C16 C 0.14571(10) 0.10448(7) 0.45427(5)
C17 C 0.10209(10) 0.13183(7) 0.35751(5)
C18 C -0.09543(12) 0.25127(10) 0.28459(6)
C19 C -0.02578(12) 0.14325(10) 0.53787(6)
C20 C 0.35283(9) 0.12938(8) 0.40470(5)
C21 C 0.09013(9) 0.22846(8) 0.42356(5)
C22 C -0.08886(10) 0.30922(8) 0.44774(5)
C23 C -0.16189(10) 0.34164(9) 0.46972(6)
C24 C -0.13661(11) 0.39459(8) 0.50957(6)
C25 C -0.03799(11) 0.41551(7) 0.52843(5)
C26 C 0.29520(10) 0.44632(7) 0.48420(5)
C27 C 0.33988(10) 0.44531(8) 0.44216(6)
C28 C 0.30584(10) 0.39597(8) 0.40097(6)
C29 C 0.22731(10) 0.34587(7) 0.40120(5)
C30 C 0.09203(9) 0.29752(7) 0.44304(5)
C31 C 0.03374(10) 0.38216(7) 0.50605(5)
C32 C 0.21636(10) 0.39676(7) 0.48341(5)
C33 C 0.18024(9) 0.34578(7) 0.44320(5)
C34 C 0.01197(10) 0.32988(7) 0.46524(5)
C35 C -0.19908(12) 0.21797(11) 0.39954(7)
C36 C 0.22373(13) 0.30384(8) 0.31514(6)
C37 C 0.19566(9) 0.31373(7) 0.57108(4)
H17 H -0.028236 0.154002 0.232067
H18 H 0.095529 0.06067 0.216855
H19 H 0.225383 0.011784 0.290876
H20 H 0.317715 -0.038504 0.488229
H21 H 0.246635 -0.038226 0.566703
H22 H 0.10852 0.048239 0.572076
H23 H -0.050132 0.27714 0.26198
H24 H -0.13459 0.293848 0.30015
H25 H -0.147002 0.2139 0.261045
H26 H -0.054579 0.087308 0.536582
H27 H -0.08556 0.182622 0.531101
H28 H 0.021226 0.15334 0.574989
H29 H 0.379673 0.137374 0.370536
H30 H 0.414001 0.119502 0.436504
H31 H 0.31369 0.178413 0.412133
H32 H -0.239225 0.325257 0.455635
H33 H -0.194655 0.419589 0.525868
H34 H -0.017618 0.456621 0.559555
H35 H 0.320864 0.484622 0.516584
H36 H 0.401779 0.483013 0.441465
H37 H 0.34057 0.396446 0.368049
H38 H -0.198291 0.177804 0.429488
H39 H -0.209576 0.189262 0.363453
H40 H -0.258249 0.256898 0.398382
H41 H 0.220699 0.36173 0.303976
H42 H 0.176165 0.271618 0.285719
H43 H 0.297884 0.283607 0.320502
H44 H 0.169024 0.26718 0.546405
H45 H 0.164475 0.311532 0.604209
H46 H 0.274507 0.311186 0.582896
Cl17? Cl 0.8037(4) 0.0532(3) 0.3254(2)
loop_
_geom_bond_atom_site_label_1
_geom_bond_atom_site_label_2
_geom_bond_site_symmetry_1
_geom_bond_site_symmetry_2
Cl1 B1 1_555 1_555
Cl2 B2 1_555 1_555
Cl3 B3 1_555 1_555
Cl4 B4 1_555 1_555
Cl5 B5 1_555 1_555
Cl6 B6 1_555 1_555
C1 B7 1_555 1_555
B1 B2 1_555 1_555
B2 B3 1_555 1_555
B3 B1 1_555 1_555
B4 B1 1_555 1_555
B5 B1 1_555 1_555
B6 B1 1_555 1_555
B7 B2 1_555 1_555
B8 C1 1_555 1_555
B9 C1 1_555 1_555
B10 C1 1_555 1_555
B11 C1 1_555 1_555
H1 C1 1_555 1_555
H2 B7 1_555 1_555
H3 B8 1_555 1_555
H4 B9 1_555 1_555
H5 B10 1_555 1_555
H6 B11 1_555 1_555
Cl7 B12 1_555 1_555
Cl8 B13 1_555 1_555
Cl9 B14 1_555 1_555
Cl10 B15 1_555 1_555
Cl11 B16 1_555 1_555
Cl12 B17 1_555 1_555
C2 B18 1_555 1_555
B12 B13 1_555 1_555
B13 B14 1_555 1_555
B14 B12 1_555 1_555
B15 B12 1_555 1_555
B16 B12 1_555 1_555
B17 B12 1_555 1_555
B18 B13 1_555 1_555
B19 C2 1_555 1_555
B20 C2 1_555 1_555
B21 C2 1_555 1_555
B22 C2 1_555 1_555
H7 C2 1_555 1_555
H8 B18 1_555 1_555
H9 B19 1_555 1_555
H10 B20 1_555 1_555
H11 B21 1_555 1_555
H12 B22 1_555 1_555
Cl13 C3 1_555 1_555
Cl14 C3 1_555 1_555
C3 H13 1_555 1_555
H14 C3 1_555 1_555
Cl15 C4 1_555 1_555
Cl16 C4 1_555 1_555
C4 H15 1_555 1_555
H16 C4 1_555 1_555
S1 C14 1_555 1_555
S2 C31 1_555 1_555
O1 C5 1_555 1_555
O2 C12 1_555 1_555
O3 C22 1_555 1_555
O4 C29 1_555 1_555
C5 C6 1_555 1_555
C6 C7 1_555 1_555
C7 C8 1_555 1_555
C8 C14 1_555 1_555
C9 C10 1_555 1_555
C10 C11 1_555 1_555
C11 C12 1_555 1_555
C12 C16 1_555 1_555
C13 C16 1_555 1_555
C14 C17 1_555 1_555
C15 S1 1_555 1_555
C16 C15 1_555 1_555
C17 C5 1_555 1_555
C18 O1 1_555 1_555
C19 O2 1_555 1_555
C20 S1 1_555 1_555
C21 C13 1_555 1_555
C22 C23 1_555 1_555
C23 C24 1_555 1_555
C24 C25 1_555 1_555
C25 C31 1_555 1_555
C26 C27 1_555 1_555
C27 C28 1_555 1_555
C28 C29 1_555 1_555
C29 C33 1_555 1_555
C30 C21 1_555 1_555
C31 C34 1_555 1_555
C32 S2 1_555 1_555
C33 C30 1_555 1_555
C34 C22 1_555 1_555
C35 O3 1_555 1_555
C36 O4 1_555 1_555
C37 S2 1_555 1_555
H17 C6 1_555 1_555
H18 C7 1_555 1_555
H19 C8 1_555 1_555
H20 C9 1_555 1_555
H21 C10 1_555 1_555
H22 C11 1_555 1_555
H23 C18 1_555 1_555
H24 C18 1_555 1_555
H25 C18 1_555 1_555
H26 C19 1_555 1_555
H27 C19 1_555 1_555
H28 C19 1_555 1_555
H29 C20 1_555 1_555
H30 C20 1_555 1_555
H31 C20 1_555 1_555
H32 C23 1_555 1_555
H33 C24 1_555 1_555
H34 C25 1_555 1_555
H35 C26 1_555 1_555
H36 C27 1_555 1_555
H37 C28 1_555 1_555
H38 C35 1_555 1_555
H39 C35 1_555 1_555
H40 C35 1_555 1_555
H41 C36 1_555 1_555
H42 C36 1_555 1_555
H43 C36 1_555 1_555
H44 C37 1_555 1_555
H45 C37 1_555 1_555
H46 C37 1_555 1_555
B2 B6 1_555 1_555
B2 B8 1_555 1_555
B3 B4 1_555 1_555
B3 B8 1_555 1_555
B3 B9 1_555 1_555
B4 B5 1_555 1_555
B4 B9 1_555 1_555
B4 B10 1_555 1_555
B5 B6 1_555 1_555
B5 B10 1_555 1_555
B5 B11 1_555 1_555
B6 B7 1_555 1_555
B6 B11 1_555 1_555
B7 B8 1_555 1_555
B7 B11 1_555 1_555
B8 B9 1_555 1_555
B9 B10 1_555 1_555
B10 B11 1_555 1_555
B13 B17 1_555 1_555
B13 B19 1_555 1_555
B14 B15 1_555 1_555
B14 B19 1_555 1_555
B14 B20 1_555 1_555
B15 B16 1_555 1_555
B15 B20 1_555 1_555
B15 B21 1_555 1_555
B16 B17 1_555 1_555
B16 B21 1_555 1_555
B16 B22 1_555 1_555
B17 B18 1_555 1_555
B17 B22 1_555 1_555
B18 B19 1_555 1_555
B18 B22 1_555 1_555
B19 B20 1_555 1_555
B20 B21 1_555 1_555
B21 B22 1_555 1_555
C9 C15 1_555 1_555
C13 C17 1_555 1_555
C26 C32 1_555 1_555
C30 C34 1_555 1_555
C32 C33 1_555 1_555

#END
