
#######################################################################
#
#                 Cambridge Crystallographic Data Centre
#                                CCDC 
#
#######################################################################
#
# If this CIF has been generated from an entry in the Cambridge 
# Structural Database, then it will include bibliographic, chemical, 
# crystal, experimental, refinement or atomic coordinate data resulting 
# from the CCDC's data processing and validation procedures.
#
#######################################################################

data_GOCZEE
_chemical_compound_source        'Ainsliaea macrocephala'
_chemical_formula_moiety         'C30 H34 O7,H2 O1'
_chemical_name_systematic        'Ainsliadimer A monohydrate'
_chemical_properties_biological  
'potent inhibitory activity against the production of nitric oxide in RAW264.7 stimulated by LPS'
_symmetry_cell_setting           orthorhombic
_symmetry_space_group_name_H-M   'P 21 21 21'
_symmetry_Int_Tables_number      19
_space_group_name_Hall           'P 2ac 2ab'
loop_
_symmetry_equiv_pos_site_id
_symmetry_equiv_pos_as_xyz
1 x,y,z
2 1/2-x,-y,1/2+z
3 -x,1/2+y,1/2-z
4 1/2+x,1/2-y,-z
_cell_length_a                   8.822(3)
_cell_length_b                   10.169(3)
_cell_length_c                   29.667(8)
_cell_angle_alpha                90
_cell_angle_beta                 90
_cell_angle_gamma                90
_cell_volume                     2661.45
_exptl_crystal_colour            colorless
_exptl_crystal_description       prism
_cell_formula_units_Z            4
_exptl_crystal_recrystallization_method chloroform/methanol
loop_
_atom_site_label
_atom_site_type_symbol
_atom_site_fract_x
_atom_site_fract_y
_atom_site_fract_z
O1 O 0.2697(3) 1.1697(3) -0.02924(8)
H1 H 0.340(5) 1.195(5) -0.0437(14)
O2 O 0.1435(3) 1.3482(2) -0.09237(9)
H2 H 0.057(4) 1.363(6) -0.0827(19)
O3 O 0.1106(3) 0.9620(2) 0.01793(7)
O4 O 0.1445(3) 0.8862(3) 0.08703(9)
O5 O 0.4816(3) 1.2664(3) -0.08558(9)
O6 O 0.0991(4) 1.0551(3) -0.21414(8)
O7 O -0.0876(4) 0.9700(4) -0.25538(11)
C1 C -0.1048(4) 1.1198(3) -0.08062(11)
H3 H -0.1700 1.1940 -0.0724
C2 C -0.0093(4) 1.1646(4) -0.12118(11)
H4 H 0.0052 1.0921 -0.1420
H5 H -0.0603 1.2354 -0.1370
C3 C 0.1433(4) 1.2119(3) -0.10340(10)
C4 C 0.1682(4) 1.1192(3) -0.06265(10)
C5 C 0.0113(4) 1.1016(3) -0.04093(10)
H6 H -0.0038 1.1745 -0.0198
C6 C -0.0109(4) 0.9755(3) -0.01513(11)
H7 H -0.0063 0.9014 -0.0362
C7 C -0.1583(4) 0.9663(4) 0.01229(11)
H8 H -0.1911 1.0555 0.0201
C8 C -0.2837(5) 0.8999(4) -0.01357(13)
H9 H -0.3706 0.8884 0.0061
H10 H -0.2500 0.8133 -0.0230
C9 C -0.3317(5) 0.9784(5) -0.05501(15)
H11 H -0.4138 0.9317 -0.0697
H12 H -0.3714 1.0624 -0.0450
C10 C -0.2088(4) 1.0038(4) -0.08945(13)
C11 C -0.1065(5) 0.8988(4) 0.05416(11)
C12 C 0.0595(5) 0.9123(4) 0.05650(12)
C13 C -0.1849(5) 0.8361(4) 0.08540(14)
H13 H -0.1353 0.7987 0.1099
H14 H -0.2897 0.8294 0.0829
C14 C -0.2018(6) 0.9294(5) -0.12557(16)
H15 H -0.2718 0.8621 -0.1297
H16 H -0.1268 0.9439 -0.1470
C15 C 0.2347(4) 0.9969(4) -0.08503(12)
H17 H 0.1542 0.9370 -0.0937
H18 H 0.3018 0.9517 -0.0643
C16 C 0.3886(4) 1.3271(4) -0.19837(11)
H19 H 0.3482 1.3971 -0.2176
C17 C 0.4319(5) 1.3863(4) -0.15301(12)
H20 H 0.5367 1.4152 -0.1532
H21 H 0.3676 1.4609 -0.1460
C18 C 0.4096(4) 1.2799(4) -0.12002(11)
C19 C 0.2804(4) 1.1880(3) -0.13558(10)
C20 C 0.2552(4) 1.2317(3) -0.18538(10)
H22 H 0.1616 1.2836 -0.1861
C21 C 0.2401(4) 1.1266(3) -0.22088(11)
H23 H 0.3244 1.0647 -0.2174
C22 C 0.2378(4) 1.1744(4) -0.26979(11)
H24 H 0.2050 1.2665 -0.2702
C23 C 0.3926(5) 1.1650(4) -0.29200(12)
H25 H 0.3811 1.1803 -0.3241
H26 H 0.4310 1.0763 -0.2881
C24 C 0.5090(5) 1.2616(5) -0.27348(13)
H27 H 0.6077 1.2401 -0.2859
H28 H 0.4829 1.3495 -0.2836
C25 C 0.5198(5) 1.2618(4) -0.22270(13)
C26 C 0.1160(5) 1.0917(4) -0.29051(12)
C27 C 0.0271(6) 1.0326(5) -0.25378(15)
C28 C 0.0838(6) 1.0688(6) -0.33269(14)
H29 H 0.0032 1.0140 -0.3401
H30 H 0.1416 1.1073 -0.3554
C29 C 0.6363(5) 1.2093(6) -0.20178(16)
H31 H 0.7143 1.1710 -0.2183
H32 H 0.6408 1.2104 -0.1705
C30 C 0.3226(4) 1.0421(4) -0.12672(11)
H33 H 0.2957 0.9884 -0.1525
H34 H 0.4308 1.0338 -0.1216
O8 O 0.4054(4) 0.0470(4) 0.04801(13)
H35 H 0.348(6) -0.003(6) 0.0652(18)
H36 H 0.356(6) 0.077(6) 0.0253(15)
loop_
_geom_bond_atom_site_label_1
_geom_bond_atom_site_label_2
_geom_bond_site_symmetry_1
_geom_bond_site_symmetry_2
O1 H1 1_555 1_555
O2 H2 1_555 1_555
O3 C6 1_555 1_555
O4 C12 1_555 1_555
O5 C18 1_555 1_555
O6 C21 1_555 1_555
O7 C27 1_555 1_555
C1 H3 1_555 1_555
C2 C1 1_555 1_555
H4 C2 1_555 1_555
H5 C2 1_555 1_555
C3 O2 1_555 1_555
C4 O1 1_555 1_555
C5 C1 1_555 1_555
H6 C5 1_555 1_555
C6 C5 1_555 1_555
H7 C6 1_555 1_555
C7 C6 1_555 1_555
H8 C7 1_555 1_555
C8 C7 1_555 1_555
H9 C8 1_555 1_555
H10 C8 1_555 1_555
C9 C8 1_555 1_555
H11 C9 1_555 1_555
H12 C9 1_555 1_555
C10 C1 1_555 1_555
C11 C7 1_555 1_555
C12 O3 1_555 1_555
C13 C11 1_555 1_555
H13 C13 1_555 1_555
H14 C13 1_555 1_555
C14 C10 1_555 1_555
H15 C14 1_555 1_555
H16 C14 1_555 1_555
C15 C4 1_555 1_555
H17 C15 1_555 1_555
H18 C15 1_555 1_555
C16 H19 1_555 1_555
C17 C16 1_555 1_555
H20 C17 1_555 1_555
H21 C17 1_555 1_555
C18 C17 1_555 1_555
C19 C3 1_555 1_555
C20 C16 1_555 1_555
H22 C20 1_555 1_555
C21 C20 1_555 1_555
H23 C21 1_555 1_555
C22 C21 1_555 1_555
H24 C22 1_555 1_555
C23 C22 1_555 1_555
H25 C23 1_555 1_555
H26 C23 1_555 1_555
C24 C23 1_555 1_555
H27 C24 1_555 1_555
H28 C24 1_555 1_555
C25 C16 1_555 1_555
C26 C22 1_555 1_555
C27 O6 1_555 1_555
C28 C26 1_555 1_555
H29 C28 1_555 1_555
H30 C28 1_555 1_555
C29 C25 1_555 1_555
H31 C29 1_555 1_555
H32 C29 1_555 1_555
C30 C15 1_555 1_555
H33 C30 1_555 1_555
H34 C30 1_555 1_555
O8 H35 1_555 1_555
H36 O8 1_555 1_555
C2 C3 1_555 1_555
C3 C4 1_555 1_555
C4 C5 1_555 1_555
C9 C10 1_555 1_555
C11 C12 1_555 1_555
C18 C19 1_555 1_555
C19 C20 1_555 1_555
C19 C30 1_555 1_555
C24 C25 1_555 1_555
C26 C27 1_555 1_555

#END
