
#######################################################################
#
#                 Cambridge Crystallographic Data Centre
#                                CCDC 
#
#######################################################################
#
# If this CIF has been generated from an entry in the Cambridge 
# Structural Database, then it will include bibliographic, chemical, 
# crystal, experimental, refinement or atomic coordinate data resulting 
# from the CCDC's data processing and validation procedures.
#
#######################################################################

data_GODPOE
_chemical_formula_moiety         'C17 H19 N3 O7,2(H2 O1)'
_chemical_name_systematic        'Anisoylcytidine dihydrate'
_symmetry_cell_setting           monoclinic
_symmetry_space_group_name_H-M   'P 21'
_symmetry_Int_Tables_number      4
_space_group_name_Hall           'P 2yb'
loop_
_symmetry_equiv_pos_site_id
_symmetry_equiv_pos_as_xyz
1 x,y,z
2 -x,1/2+y,-z
_cell_length_a                   4.851(2)
_cell_length_b                   13.535(3)
_cell_length_c                   14.013(5)
_cell_angle_alpha                90
_cell_angle_beta                 97.280(10)
_cell_angle_gamma                90
_cell_volume                     912.653
_exptl_crystal_colour            colorless
_exptl_crystal_description       needle
_cell_formula_units_Z            2
_exptl_crystal_recrystallization_method DMF/toluene
loop_
_atom_site_label
_atom_site_type_symbol
_atom_site_fract_x
_atom_site_fract_y
_atom_site_fract_z
N1 N 0.3030(5) 0.4552(2) 0.6724(2)
C1 C 0.3279(6) 0.5526(3) 0.7052(2)
O1 O 0.1660(5) 0.6165(2) 0.6685(2)
N2 N 0.5373(6) 0.5743(2) 0.7765(2)
C2 C 0.7003(6) 0.5041(3) 0.8155(2)
N3 N 0.9122(5) 0.5392(3) 0.8833(2)
H1 H 0.9382(5) 0.6021(3) 0.8836(2)
C3 C 0.6714(7) 0.4044(3) 0.7895(2)
H2 H 0.7847(7) 0.3556(3) 0.8203(2)
C4 C 0.4676(7) 0.3831(3) 0.7163(2)
H3 H 0.4406(7) 0.3180(3) 0.6961(2)
C5 C 0.1067(6) 0.4357(3) 0.5842(2)
H4 H -0.0585(6) 0.4775(3) 0.5836(2)
C6 C 0.2434(6) 0.4536(3) 0.4930(2)
H5 H 0.4373(6) 0.4318(3) 0.5052(2)
O2 O 0.2400(4) 0.5520(2) 0.4621(2)
H6 H 0.0894(51) 0.5769(15) 0.4686(45)
C7 C 0.0837(6) 0.3808(3) 0.4222(2)
H7 H 0.1868(6) 0.3646(3) 0.3685(2)
O3 O -0.1783(5) 0.4239(2) 0.3904(2)
H8 H -0.2580(43) 0.3912(20) 0.3460(23)
C8 C 0.0609(5) 0.2927(3) 0.4881(2)
H9 H -0.1067(5) 0.2550(3) 0.4648(2)
O4 O 0.0291(4) 0.3351 0.5821(2)
C9 C 0.3081(7) 0.2253(3) 0.4944(3)
H10 H 0.3291(7) 0.1995(3) 0.4311(3)
H11 H 0.4754(7) 0.2615(3) 0.5181(3)
O5 O 0.2682(5) 0.1461(2) 0.5580(2)
H12 H 0.4099(35) 0.1126(21) 0.5669(27)
C10 C 1.0852(6) 0.4862(3) 0.9497(2)
O6 O 1.0561(5) 0.3977(2) 0.9598(2)
C11 C 1.3085(6) 0.5426(3) 1.0081(2)
C12 C 1.4963(7) 0.4905(3) 1.0718(2)
H13 H 1.4806(7) 0.4221(3) 1.0750(2)
C13 C 1.7080(7) 0.5377(3) 1.1311(2)
H14 H 1.8322(7) 0.5014(3) 1.1733(2)
C14 C 1.7316(6) 0.6395(3) 1.1266(2)
C15 C 1.5505(8) 0.6926(3) 1.0609(3)
H15 H 1.5703(8) 0.7607(3) 1.0562(3)
C16 C 1.3425(7) 0.6450(3) 1.0028(2)
H16 H 1.2224(7) 0.6814(3) 0.9592(2)
O7 O 1.9221(5) 0.6935(3) 1.1828(2)
C17 C 2.1004(8) 0.6426(4) 1.2550(3)
H17 H 2.2251(8) 0.6889(4) 1.2899(3)
H18 H 2.2057(8) 0.5939(4) 1.2254(3)
H19 H 1.9909(8) 0.6108(4) 1.2985(3)
O8 O 0.6515(5) 0.2936(2) 0.2439(2)
O9 O 0.1121(6) 0.2875(3) 0.1376(2)
loop_
_geom_bond_atom_site_label_1
_geom_bond_atom_site_label_2
_geom_bond_site_symmetry_1
_geom_bond_site_symmetry_2
N1 C1 1_555 1_555
C1 O1 1_555 1_555
N2 C1 1_555 1_555
C2 N2 1_555 1_555
N3 C2 1_555 1_555
H1 N3 1_555 1_555
C3 C2 1_555 1_555
H2 C3 1_555 1_555
C4 N1 1_555 1_555
H3 C4 1_555 1_555
C5 N1 1_555 1_555
H4 C5 1_555 1_555
C6 C5 1_555 1_555
H5 C6 1_555 1_555
O2 C6 1_555 1_555
H6 O2 1_555 1_555
C7 C6 1_555 1_555
H7 C7 1_555 1_555
O3 C7 1_555 1_555
H8 O3 1_555 1_555
C8 C7 1_555 1_555
H9 C8 1_555 1_555
O4 C5 1_555 1_555
C9 C8 1_555 1_555
H10 C9 1_555 1_555
H11 C9 1_555 1_555
O5 C9 1_555 1_555
H12 O5 1_555 1_555
C10 N3 1_555 1_555
O6 C10 1_555 1_555
C11 C10 1_555 1_555
C12 C11 1_555 1_555
H13 C12 1_555 1_555
C13 C12 1_555 1_555
H14 C13 1_555 1_555
C14 C13 1_555 1_555
C15 C14 1_555 1_555
H15 C15 1_555 1_555
C16 C11 1_555 1_555
H16 C16 1_555 1_555
O7 C14 1_555 1_555
C17 O7 1_555 1_555
H17 C17 1_555 1_555
H18 C17 1_555 1_555
H19 C17 1_555 1_555
C3 C4 1_555 1_555
C8 O4 1_555 1_555
C15 C16 1_555 1_555

#END
