
#######################################################################
#
#                 Cambridge Crystallographic Data Centre
#                                CCDC 
#
#######################################################################
#
# If this CIF has been generated from an entry in the Cambridge 
# Structural Database, then it will include bibliographic, chemical, 
# crystal, experimental, refinement or atomic coordinate data resulting 
# from the CCDC's data processing and validation procedures.
#
#######################################################################

data_GOFKOD
_chemical_formula_moiety         'C18 H14 B1 F2 N3'
_chemical_name_systematic        
difluoro(6-(2-phenylvinyl)-N-(pyridin-2-yl)pyridin-2(1H)-iminato)boron
_symmetry_cell_setting           triclinic
_symmetry_space_group_name_H-M   'P -1'
_symmetry_Int_Tables_number      2
_space_group_name_Hall           '-P 1'
loop_
_symmetry_equiv_pos_site_id
_symmetry_equiv_pos_as_xyz
1 x,y,z
2 -x,-y,-z
_cell_length_a                   9.2087(10)
_cell_length_b                   9.2127(10)
_cell_length_c                   10.0205(11)
_cell_angle_alpha                95.313(2)
_cell_angle_beta                 97.800(2)
_cell_angle_gamma                111.654(2)
_cell_volume                     773.352
_exptl_crystal_colour            yellow
_exptl_crystal_description       block
_cell_formula_units_Z            2
loop_
_atom_site_label
_atom_site_type_symbol
_atom_site_fract_x
_atom_site_fract_y
_atom_site_fract_z
F1 F 0.04414(11) 0.07722(14) 0.83616(10)
F2 F 0.29703(12) 0.25717(11) 0.89762(9)
N1 N 0.35298(14) -0.05058(15) 0.66311(13)
N2 N 0.21307(12) 0.12338(13) 0.66591(11)
C1 C -0.13978(17) 0.41020(15) 0.67417(15)
C2 C -0.29784(18) 0.37518(17) 0.61790(17)
H1 H -0.3434 0.3074 0.5355
C3 C -0.38798(19) 0.44000(19) 0.68320(19)
H2 H -0.4938 0.4148 0.6451
N3 N 0.25199(13) -0.01773(15) 0.86355(12)
C4 C 0.3602(2) -0.2335(2) 0.9664(2)
H3 H 0.3982 -0.3052 1.0017
C5 C 0.3841(2) -0.1947(2) 0.84225(19)
H4 H 0.4374 -0.2416 0.7919
C6 C 0.29252(16) 0.04457(16) 0.60305(14)
C7 C 0.14967(16) 0.21559(16) 0.59464(14)
C8 C -0.3213(2) 0.54176(19) 0.80452(18)
H5 H -0.3825 0.5839 0.8491
C9 C 0.2780(2) -0.1654(2) 1.0413(2)
H6 H 0.2592 -0.1924 1.1263
C10 C 0.22633(19) -0.0601(2) 0.98874(17)
H7 H 0.1716 -0.0147 1.0387
C11 C 0.16352(19) 0.22525(18) 0.46141(16)
H8 H 0.1189 0.2850 0.4134
C12 C 0.24419(19) 0.14593(18) 0.39703(16)
H9 H 0.2531 0.1525 0.3062
C13 C 0.30929(17) 0.05959(17) 0.46673(15)
H10 H 0.3658 0.0095 0.4244
C14 C 0.32934(16) -0.08378(17) 0.78736(16)
C15 C 0.07124(17) 0.30393(17) 0.66663(16)
H11 H 0.1105 0.3435 0.7587
C16 C -0.05224(17) 0.32974(16) 0.60671(16)
H12 H -0.0865 0.2937 0.5136
C17 C -0.1640(2) 0.58110(19) 0.85972(17)
H13 H -0.1181 0.6520 0.9404
C18 C -0.07407(18) 0.51569(18) 0.79562(16)
H14 H 0.0319 0.5424 0.8340
B1 B 0.1988(2) 0.1139(2) 0.81862(17)
loop_
_geom_bond_atom_site_label_1
_geom_bond_atom_site_label_2
_geom_bond_site_symmetry_1
_geom_bond_site_symmetry_2
F1 B1 1_555 1_555
F2 B1 1_555 1_555
N1 C6 1_555 1_555
N2 C6 1_555 1_555
C1 C2 1_555 1_555
C2 H1 1_555 1_555
C3 C2 1_555 1_555
H2 C3 1_555 1_555
N3 C10 1_555 1_555
C4 H3 1_555 1_555
C5 C4 1_555 1_555
H4 C5 1_555 1_555
C6 C13 1_555 1_555
C7 N2 1_555 1_555
C8 C3 1_555 1_555
H5 C8 1_555 1_555
C9 C4 1_555 1_555
H6 C9 1_555 1_555
C10 C9 1_555 1_555
H7 C10 1_555 1_555
C11 C7 1_555 1_555
H8 C11 1_555 1_555
C12 C11 1_555 1_555
H9 C12 1_555 1_555
C13 C12 1_555 1_555
H10 C13 1_555 1_555
C14 N1 1_555 1_555
C15 C7 1_555 1_555
H11 C15 1_555 1_555
C16 C1 1_555 1_555
H12 C16 1_555 1_555
C17 C8 1_555 1_555
H13 C17 1_555 1_555
C18 C1 1_555 1_555
H14 C18 1_555 1_555
B1 N2 1_555 1_555
N3 C14 1_555 1_555
N3 B1 1_555 1_555
C5 C14 1_555 1_555
C15 C16 1_555 1_555
C17 C18 1_555 1_555

#END
