
#######################################################################
#
#                 Cambridge Crystallographic Data Centre
#                                CCDC 
#
#######################################################################
#
# If this CIF has been generated from an entry in the Cambridge 
# Structural Database, then it will include bibliographic, chemical, 
# crystal, experimental, refinement or atomic coordinate data resulting 
# from the CCDC's data processing and validation procedures.
#
#######################################################################

data_GOFLUJ
_chemical_name_common            
'(mu!2$-Dodecaglyme)-di-lithium bis(hexafluoro-arsenate)'
_chemical_formula_moiety         'C26 H54 Li2 O13 2+,2(As1 F6 1-)'
_chemical_name_systematic        
'(\m~2~-1,35-Dimethoxy-3,6,9,12,15,18,21,24,27,30,33-undecaoxapentatriacontane)-di-lithium bis(hexafluoro-arsenate)'
_symmetry_cell_setting           triclinic
_symmetry_space_group_name_H-M   'P -1'
_symmetry_Int_Tables_number      2
_space_group_name_Hall           '-P 1'
loop_
_symmetry_equiv_pos_site_id
_symmetry_equiv_pos_as_xyz
1 x,y,z
2 -x,-y,-z
_cell_length_a                   12.3091(19)
_cell_length_b                   12.9354(16)
_cell_length_c                   13.5584(19)
_cell_angle_alpha                87.196(9)
_cell_angle_beta                 73.571(9)
_cell_angle_gamma                74.149(8)
_cell_volume                     1990.99
_exptl_crystal_colour            colorless
_exptl_crystal_description       platelet
_cell_formula_units_Z            2
loop_
_atom_site_label
_atom_site_type_symbol
_atom_site_fract_x
_atom_site_fract_y
_atom_site_fract_z
As1 As 0.72203(9) 0.32652(8) 0.57269(7)
F1 F 0.7061(7) 0.2463(6) 0.4847(5)
F2 F 0.7313(10) 0.4098(6) 0.6613(6)
F3 F 0.6216(8) 0.2859(6) 0.6674(6)
F4 F 0.6105(9) 0.4262(6) 0.5455(8)
F5 F 0.8245(8) 0.2222(8) 0.5995(7)
F6 F 0.8055(11) 0.3917(11) 0.4798(10)
As2 As 0.73814(10) -0.19270(9) 0.05998(8)
F8 F 0.6352(8) -0.1163(7) 0.0056(7)
F9 F 0.6878(9) -0.1137(7) 0.1633(6)
F10 F 0.8280(9) -0.1197(12) -0.0042(8)
F11 F 0.6421(16) -0.2635(14) 0.1197(14)
F12 F 0.8576(11) -0.2593(10) 0.1025(10)
F14 F 0.8153(13) -0.2702(11) -0.0560(11)
Li1 Li 0.7163(15) -0.1735(14) 0.5700(13)
Li2 Li 0.7016(13) 0.3170(15) 0.0737(12)
C1 C 0.8940(11) -0.3997(9) 0.6030(11)
H1 H 0.8486 -0.4312 0.5702
H2 H 0.9124 -0.4447 0.6596
H3 H 0.9673 -0.3957 0.5523
O1 O 0.8259(6) -0.2931(5) 0.6428(6)
C2 C 0.8882(10) -0.2445(8) 0.6912(10)
H4 H 0.9564 -0.2292 0.6394
H5 H 0.9179 -0.2935 0.7419
C3 C 0.8066(10) -0.1423(9) 0.7441(8)
H6 H 0.7444 -0.1578 0.8026
H7 H 0.8502 -0.1014 0.7706
O2 O 0.7559(6) -0.0818(5) 0.6689(5)
C4 C 0.6632(10) 0.0139(8) 0.7112(8)
H8 H 0.6963 0.0689 0.7305
H9 H 0.6061 -0.0032 0.7731
C5 C 0.6048(9) 0.0536(8) 0.6290(8)
H10 H 0.5333 0.1129 0.6574
H11 H 0.6587 0.0823 0.5727
O3 O 0.5734(5) -0.0306(5) 0.5889(5)
C6 C 0.4674(8) -0.0540(10) 0.6512(8)
H12 H 0.3979 0.0035 0.6447
H13 H 0.4671 -0.0567 0.7244
C7 C 0.4612(9) -0.1577(9) 0.6172(8)
H14 H 0.3908 -0.1766 0.6614
H15 H 0.4568 -0.1543 0.5452
O4 O 0.5662(6) -0.2357(6) 0.6248(5)
C8 C 0.5864(10) -0.3351(8) 0.5715(8)
H16 H 0.5107 -0.3527 0.5813
H17 H 0.6383 -0.3937 0.6001
C9 C 0.6423(11) -0.3267(9) 0.4595(9)
H18 H 0.6686 -0.3982 0.4242
H19 H 0.5860 -0.2775 0.4272
O5 O 0.7419(7) -0.2851(5) 0.4527(5)
C10 C 0.7951(11) -0.2590(9) 0.3507(8)
H20 H 0.7359 -0.2095 0.3216
H21 H 0.8317 -0.3248 0.3061
C11 C 0.8856(11) -0.2066(8) 0.3587(9)
H22 H 0.9476 -0.2585 0.3828
H23 H 0.9227 -0.1818 0.2905
O6 O 0.8295(6) -0.1163(5) 0.4307(5)
C12 C 0.9043(8) -0.0516(8) 0.4356(8)
H24 H 0.9865 -0.0971 0.4200
H25 H 0.8820 -0.0211 0.5063
C13 C 0.8976(10) 0.0387(9) 0.3614(9)
H26 H 0.8142 0.0705 0.3632
H27 H 0.9258 0.0953 0.3849
O7 O 0.9641(6) 0.0076(6) 0.2581(6)
C14 C 0.8997(10) 0.0102(9) 0.1841(9)
H28 H 0.8176 0.0118 0.2215
H29 H 0.9344 -0.0572 0.1417
C15 C 0.8978(9) 0.1027(8) 0.1140(8)
H30 H 0.9781 0.1123 0.0902
H31 H 0.8773 0.0844 0.0527
O8 O 0.8169(6) 0.2043(5) 0.1581(5)
C16 C 0.8690(9) 0.2661(8) 0.2026(8)
H32 H 0.9319 0.2874 0.1491
H33 H 0.9043 0.2239 0.2541
C17 C 0.7752(10) 0.3640(8) 0.2532(8)
H34 H 0.7145 0.3433 0.3096
H35 H 0.8095 0.4121 0.2820
O9 O 0.7254(6) 0.4160(5) 0.1758(5)
C18 C 0.6241(11) 0.5067(9) 0.2133(9)
H36 H 0.6481 0.5696 0.2293
H37 H 0.5686 0.4886 0.2758
C19 C 0.5677(10) 0.5296(10) 0.1217(10)
H38 H 0.4919 0.5857 0.1437
H39 H 0.6204 0.5575 0.0637
O10 O 0.5484(7) 0.4382(7) 0.0885(6)
C20 C 0.4474(10) 0.4055(11) 0.1490(9)
H40 H 0.3747 0.4547 0.1382
H41 H 0.4426 0.4090 0.2229
C21 C 0.4575(12) 0.2965(10) 0.1187(10)
H42 H 0.3914 0.2715 0.1636
H43 H 0.4539 0.2944 0.0468
O11 O 0.5647(6) 0.2290(7) 0.1273(6)
C22 C 0.6039(11) 0.1290(9) 0.0717(10)
H44 H 0.5369 0.0980 0.0794
H45 H 0.6635 0.0777 0.0991
C23 C 0.6564(11) 0.1474(10) -0.0400(9)
H46 H 0.6940 0.0779 -0.0788
H47 H 0.5947 0.1903 -0.0705
O12 O 0.7417(7) 0.2041(6) -0.0437(5)
C24 C 0.7836(10) 0.2415(8) -0.1433(7)
H48 H 0.7177 0.2891 -0.1659
H49 H 0.8233 0.1803 -0.1934
C25 C 0.8698(9) 0.3029(8) -0.1356(7)
H50 H 0.9396 0.2534 -0.1203
H51 H 0.8962 0.3375 -0.2015
O13 O 0.8109(6) 0.3828(5) -0.0547(5)
C26 C 0.8836(12) 0.4497(9) -0.0478(10)
H52 H 0.8412 0.5034 0.0082
H53 H 0.9034 0.4862 -0.1128
H54 H 0.9559 0.4055 -0.0340
F7? F 0.8388(12) 0.3427(12) 0.4772(11)
F13? F 0.8140(14) -0.2994(13) 0.1145(12)
F15? F 0.7486(17) -0.2838(14) -0.0338(14)
loop_
_geom_bond_atom_site_label_1
_geom_bond_atom_site_label_2
_geom_bond_site_symmetry_1
_geom_bond_site_symmetry_2
As1 F1 1_555 1_555
F2 As1 1_555 1_555
F3 As1 1_555 1_555
F4 As1 1_555 1_555
F5 As1 1_555 1_555
F6 As1 1_555 1_555
As2 F8 1_555 1_555
F9 As2 1_555 1_555
F10 As2 1_555 1_555
F11 As2 1_555 1_555
F12 As2 1_555 1_555
F14 As2 1_555 1_555
Li1 O1 1_555 1_555
Li2 O8 1_555 1_555
C1 H1 1_555 1_555
H2 C1 1_555 1_555
H3 C1 1_555 1_555
O1 C1 1_555 1_555
C2 O1 1_555 1_555
H4 C2 1_555 1_555
H5 C2 1_555 1_555
C3 C2 1_555 1_555
H6 C3 1_555 1_555
H7 C3 1_555 1_555
O2 Li1 1_555 1_555
C4 O2 1_555 1_555
H8 C4 1_555 1_555
H9 C4 1_555 1_555
C5 C4 1_555 1_555
H10 C5 1_555 1_555
H11 C5 1_555 1_555
O3 Li1 1_555 1_555
C6 O3 1_555 1_555
H12 C6 1_555 1_555
H13 C6 1_555 1_555
C7 C6 1_555 1_555
H14 C7 1_555 1_555
H15 C7 1_555 1_555
O4 Li1 1_555 1_555
C8 O4 1_555 1_555
H16 C8 1_555 1_555
H17 C8 1_555 1_555
C9 C8 1_555 1_555
H18 C9 1_555 1_555
H19 C9 1_555 1_555
O5 Li1 1_555 1_555
C10 O5 1_555 1_555
H20 C10 1_555 1_555
H21 C10 1_555 1_555
C11 C10 1_555 1_555
H22 C11 1_555 1_555
H23 C11 1_555 1_555
O6 Li1 1_555 1_555
C12 O6 1_555 1_555
H24 C12 1_555 1_555
H25 C12 1_555 1_555
C13 C12 1_555 1_555
H26 C13 1_555 1_555
H27 C13 1_555 1_555
O7 C13 1_555 1_555
C14 O7 1_555 1_555
H28 C14 1_555 1_555
H29 C14 1_555 1_555
C15 C14 1_555 1_555
H30 C15 1_555 1_555
H31 C15 1_555 1_555
O8 C15 1_555 1_555
C16 O8 1_555 1_555
H32 C16 1_555 1_555
H33 C16 1_555 1_555
C17 C16 1_555 1_555
H34 C17 1_555 1_555
H35 C17 1_555 1_555
O9 Li2 1_555 1_555
C18 O9 1_555 1_555
H36 C18 1_555 1_555
H37 C18 1_555 1_555
C19 C18 1_555 1_555
H38 C19 1_555 1_555
H39 C19 1_555 1_555
O10 Li2 1_555 1_555
C20 O10 1_555 1_555
H40 C20 1_555 1_555
H41 C20 1_555 1_555
C21 C20 1_555 1_555
H42 C21 1_555 1_555
H43 C21 1_555 1_555
O11 Li2 1_555 1_555
C22 O11 1_555 1_555
H44 C22 1_555 1_555
H45 C22 1_555 1_555
C23 C22 1_555 1_555
H46 C23 1_555 1_555
H47 C23 1_555 1_555
O12 Li2 1_555 1_555
C24 O12 1_555 1_555
H48 C24 1_555 1_555
H49 C24 1_555 1_555
C25 C24 1_555 1_555
H50 C25 1_555 1_555
H51 C25 1_555 1_555
O13 Li2 1_555 1_555
C26 O13 1_555 1_555
H52 C26 1_555 1_555
H53 C26 1_555 1_555
H54 C26 1_555 1_555
C3 O2 1_555 1_555
C5 O3 1_555 1_555
C7 O4 1_555 1_555
C9 O5 1_555 1_555
C11 O6 1_555 1_555
C17 O9 1_555 1_555
C19 O10 1_555 1_555
C21 O11 1_555 1_555
C23 O12 1_555 1_555
C25 O13 1_555 1_555

#END
