
#######################################################################
#
#                 Cambridge Crystallographic Data Centre
#                                CCDC 
#
#######################################################################
#
# If this CIF has been generated from an entry in the Cambridge 
# Structural Database, then it will include bibliographic, chemical, 
# crystal, experimental, refinement or atomic coordinate data resulting 
# from the CCDC's data processing and validation procedures.
#
#######################################################################

data_GOFSAW
_chemical_formula_moiety         'C13 H10 O1 S2'
_chemical_name_systematic        (E,E)-1,5-bis(2-Thienyl)penta-1,4-dien-3-one
_symmetry_cell_setting           orthorhombic
_symmetry_space_group_name_H-M   'P b c a'
_symmetry_Int_Tables_number      61
_space_group_name_Hall           '-P 2ac 2ab'
loop_
_symmetry_equiv_pos_site_id
_symmetry_equiv_pos_as_xyz
1 x,y,z
2 1/2-x,-y,1/2+z
3 1/2+x,1/2-y,-z
4 -x,1/2+y,1/2-z
5 -x,-y,-z
6 1/2+x,y,1/2-z
7 1/2-x,1/2+y,z
8 x,1/2-y,1/2+z
_cell_length_a                   12.1141(4)
_cell_length_b                   7.4449(3)
_cell_length_c                   27.2460(10)
_cell_angle_alpha                90
_cell_angle_beta                 90
_cell_angle_gamma                90
_cell_volume                     2457.27
_exptl_crystal_colour            colorless
_exptl_crystal_description       Block
_cell_formula_units_Z            8
_exptl_crystal_recrystallization_method 'ethyl acetate'
loop_
_atom_site_label
_atom_site_type_symbol
_atom_site_fract_x
_atom_site_fract_y
_atom_site_fract_z
S1 S 0.52710(7) 0.54328(13) 0.23889(4)
S2 S 0.53529(8) 0.23805(14) 0.51370(4)
O1 O 0.82061(18) 0.5548(4) 0.38920(9)
C1 C 0.5312(3) 0.2113(6) 0.57495(18)
H1 H 0.4768 0.1455 0.5910
C2 C 0.6135(4) 0.2934(6) 0.59817(16)
H2 H 0.6209 0.2904 0.6321
C3 C 0.6903(3) 0.3874(5) 0.56716(12)
H3 H 0.7525 0.4507 0.5773
C4 C 0.6519(3) 0.3642(4) 0.51665(13)
C5 C 0.7055(3) 0.4350(4) 0.47339(13)
H4 H 0.7755 0.4843 0.4774
C6 C 0.6638(3) 0.4359(4) 0.42854(13)
H5 H 0.5938 0.3881 0.4236
C7 C 0.7236(2) 0.5093(4) 0.38617(12)
C8 C 0.6611(2) 0.5283(4) 0.34019(12)
H6 H 0.5901 0.4810 0.3384
C9 C 0.7027(2) 0.6109(4) 0.30106(12)
H7 H 0.7733 0.6583 0.3045
C10 C 0.6513(2) 0.6354(4) 0.25413(12)
C11 C 0.6974(2) 0.7299(4) 0.21337(11)
H8 H 0.7653 0.7882 0.2132
C12 C 0.6228(3) 0.7207(6) 0.17301(14)
H9 H 0.6364 0.7764 0.1431
C13 C 0.5322(3) 0.6260(6) 0.18183(15)
H10 H 0.4771 0.6074 0.1586
loop_
_geom_bond_atom_site_label_1
_geom_bond_atom_site_label_2
_geom_bond_site_symmetry_1
_geom_bond_site_symmetry_2
S1 C10 1_555 1_555
S2 C1 1_555 1_555
O1 C7 1_555 1_555
C1 H1 1_555 1_555
C2 C1 1_555 1_555
H2 C2 1_555 1_555
C3 C2 1_555 1_555
H3 C3 1_555 1_555
C4 S2 1_555 1_555
C5 C4 1_555 1_555
H4 C5 1_555 1_555
C6 C5 1_555 1_555
H5 C6 1_555 1_555
C7 C6 1_555 1_555
C8 C7 1_555 1_555
H6 C8 1_555 1_555
C9 C8 1_555 1_555
H7 C9 1_555 1_555
C10 C9 1_555 1_555
C11 C10 1_555 1_555
H8 C11 1_555 1_555
C12 C11 1_555 1_555
H9 C12 1_555 1_555
C13 S1 1_555 1_555
H10 C13 1_555 1_555
C3 C4 1_555 1_555
C12 C13 1_555 1_555

#END
