
#######################################################################
#
#                 Cambridge Crystallographic Data Centre
#                                CCDC 
#
#######################################################################
#
# If this CIF has been generated from an entry in the Cambridge 
# Structural Database, then it will include bibliographic, chemical, 
# crystal, experimental, refinement or atomic coordinate data resulting 
# from the CCDC's data processing and validation procedures.
#
#######################################################################

data_GOJHOE
_chemical_formula_moiety         'C13 H26 Cl2 I1 K1 O6'
_chemical_name_systematic        
(Dichloromethane)-(1,4,7,10,13,16-hexaoxacyclo-octadecane)-iodo-potassium
_symmetry_cell_setting           orthorhombic
_symmetry_space_group_name_H-M   'P b c a'
_symmetry_Int_Tables_number      61
_space_group_name_Hall           '-P 2ac 2ab'
loop_
_symmetry_equiv_pos_site_id
_symmetry_equiv_pos_as_xyz
1 x,y,z
2 1/2-x,-y,1/2+z
3 -x,1/2+y,1/2-z
4 1/2+x,1/2-y,-z
5 -x,-y,-z
6 1/2+x,y,1/2-z
7 x,1/2-y,1/2+z
8 1/2-x,1/2+y,z
_cell_length_a                   14.1654(3)
_cell_length_b                   16.2527(3)
_cell_length_c                   18.5337(4)
_cell_angle_alpha                90
_cell_angle_beta                 90
_cell_angle_gamma                90
_cell_volume                     4266.94
_exptl_crystal_colour            colorless
_exptl_crystal_description       block
_cell_formula_units_Z            8
loop_
_atom_site_label
_atom_site_type_symbol
_atom_site_fract_x
_atom_site_fract_y
_atom_site_fract_z
K1 K 0.15921(3) 0.14815(3) 0.65232(2)
O1 O -0.01662(10) 0.07694(9) 0.67990(7)
O2 O 0.14175(10) -0.02600(9) 0.67449(7)
O3 O 0.32113(10) 0.05133(9) 0.66739(8)
O4 O 0.33531(10) 0.19339(9) 0.57813(8)
O5 O 0.17375(10) 0.29194(9) 0.56659(7)
O6 O -0.00617(10) 0.22166(8) 0.59682(8)
C1 C -0.02434(16) -0.01024(13) 0.67262(12)
H1 H -0.0237 -0.0256 0.6209
H2 H -0.0845 -0.0295 0.6940
C2 C 0.05704(16) -0.04940(13) 0.71057(11)
H3 H 0.0590 -0.0310 0.7615
H4 H 0.0502 -0.1100 0.7099
C3 C 0.22362(16) -0.05769(14) 0.70987(11)
H5 H 0.2187 -0.1182 0.7146
H6 H 0.2290 -0.0338 0.7588
C4 C 0.30817(16) -0.03582(14) 0.66628(12)
H7 H 0.3647 -0.0633 0.6864
H8 H 0.2996 -0.0548 0.6160
C5 C 0.40544(16) 0.07583(16) 0.63173(12)
H9 H 0.4076 0.0513 0.5829
H10 H 0.4610 0.0561 0.6591
C6 C 0.40792(16) 0.16734(15) 0.62631(12)
H11 H 0.3979 0.1921 0.6745
H12 H 0.4702 0.1855 0.6081
C7 C 0.33988(17) 0.27967(15) 0.56358(13)
H13 H 0.3975 0.2924 0.5355
H14 H 0.3425 0.3108 0.6095
C8 C 0.25439(16) 0.30410(14) 0.52171(12)
H15 H 0.2590 0.3626 0.5072
H16 H 0.2490 0.2701 0.4776
C9 C 0.08864(16) 0.31593(14) 0.53139(12)
H17 H 0.0778 0.2809 0.4885
H18 H 0.0934 0.3738 0.5152
C10 C 0.00863(16) 0.30676(14) 0.58306(13)
H19 H 0.0234 0.3357 0.6287
H20 H -0.0493 0.3314 0.5624
C11 C -0.07793(15) 0.20842(14) 0.64982(12)
H21 H -0.1358 0.2391 0.6366
H22 H -0.0561 0.2282 0.6975
C12 C -0.09838(15) 0.11846(13) 0.65305(12)
H23 H -0.1528 0.1082 0.6853
H24 H -0.1143 0.0977 0.6043
Cl1 Cl 0.32597(5) 0.00362(4) 0.41340(3)
Cl2 Cl 0.16252(4) 0.04026(4) 0.50371(3)
C13 C 0.24949(18) 0.08135(14) 0.44522(12)
H25 H 0.2183 0.1084 0.4037
H26 H 0.2866 0.1235 0.4713
I1 I 0.146207(10) 0.260960(9) 0.808258(7)
loop_
_geom_bond_atom_site_label_1
_geom_bond_atom_site_label_2
_geom_bond_site_symmetry_1
_geom_bond_site_symmetry_2
K1 O1 1_555 1_555
O1 C1 1_555 1_555
O2 K1 1_555 1_555
O3 K1 1_555 1_555
O4 K1 1_555 1_555
O5 K1 1_555 1_555
O6 K1 1_555 1_555
C1 H1 1_555 1_555
H2 C1 1_555 1_555
C2 O2 1_555 1_555
H3 C2 1_555 1_555
H4 C2 1_555 1_555
C3 O2 1_555 1_555
H5 C3 1_555 1_555
H6 C3 1_555 1_555
C4 O3 1_555 1_555
H7 C4 1_555 1_555
H8 C4 1_555 1_555
C5 O3 1_555 1_555
H9 C5 1_555 1_555
H10 C5 1_555 1_555
C6 O4 1_555 1_555
H11 C6 1_555 1_555
H12 C6 1_555 1_555
C7 O4 1_555 1_555
H13 C7 1_555 1_555
H14 C7 1_555 1_555
C8 O5 1_555 1_555
H15 C8 1_555 1_555
H16 C8 1_555 1_555
C9 O5 1_555 1_555
H17 C9 1_555 1_555
H18 C9 1_555 1_555
C10 O6 1_555 1_555
H19 C10 1_555 1_555
H20 C10 1_555 1_555
C11 O6 1_555 1_555
H21 C11 1_555 1_555
H22 C11 1_555 1_555
C12 O1 1_555 1_555
H23 C12 1_555 1_555
H24 C12 1_555 1_555
Cl1 C13 1_555 1_555
Cl2 K1 1_555 1_555
C13 Cl2 1_555 1_555
H25 C13 1_555 1_555
H26 C13 1_555 1_555
I1 K1 1_555 1_555
C1 C2 1_555 1_555
C3 C4 1_555 1_555
C5 C6 1_555 1_555
C7 C8 1_555 1_555
C9 C10 1_555 1_555
C11 C12 1_555 1_555

#END
