
#######################################################################
#
#                 Cambridge Crystallographic Data Centre
#                                CCDC 
#
#######################################################################
#
# If this CIF has been generated from an entry in the Cambridge 
# Structural Database, then it will include bibliographic, chemical, 
# crystal, experimental, refinement or atomic coordinate data resulting 
# from the CCDC's data processing and validation procedures.
#
#######################################################################

data_GOJJIY
_chemical_formula_moiety         'C15 H12 O2'
_chemical_name_systematic        
Hexacyclo(7.4.2.0^1,9^.0^3,7^.0^4,14^.0^6,15^)pentadeca-10,12-diene-2,8-dione
_symmetry_cell_setting           monoclinic
_symmetry_space_group_name_H-M   'P 21/n'
_symmetry_Int_Tables_number      14
_space_group_name_Hall           '-P 2yn'
loop_
_symmetry_equiv_pos_site_id
_symmetry_equiv_pos_as_xyz
1 x,y,z
2 1/2-x,1/2+y,1/2-z
3 -x,-y,-z
4 1/2+x,1/2-y,1/2+z
_cell_length_a                   7.192(1)
_cell_length_b                   10.821(1)
_cell_length_c                   14.093(2)
_cell_angle_alpha                90
_cell_angle_beta                 97.48(1)
_cell_angle_gamma                90
_cell_volume                     1087.45
_cell_formula_units_Z            4
loop_
_atom_site_label
_atom_site_type_symbol
_atom_site_fract_x
_atom_site_fract_y
_atom_site_fract_z
C1 C 0.0870(4) -0.1169(3) 0.6337(2)
C2 C 0.2758(5) -0.0677(3) 0.6155(2)
C3 C 0.3870(5) -0.1776(3) 0.5915(2)
C4 C 0.2482(5) -0.2520(4) 0.5216(2)
C5 C 0.2952(6) -0.3865(3) 0.5431(3)
C6 C 0.2879(5) -0.3763(3) 0.6504(3)
C7 C 0.4163(5) -0.2672(3) 0.6828(2)
C8 C 0.3237(5) -0.2088(3) 0.7627(2)
C9 C 0.1160(4) -0.2061(3) 0.7247(2)
C10 C -0.0168(5) -0.1870(3) 0.7967(2)
C11 C -0.1576(5) -0.1075(4) 0.7821(3)
C12 C -0.1837(5) -0.0276(4) 0.6991(3)
C13 C -0.0695(5) -0.0281(3) 0.6324(3)
C14 C 0.0608(5) -0.2337(3) 0.5676(2)
C15 C 0.0926(5) -0.3206(3) 0.6564(2)
O1 O 0.3240(4) 0.0407(2) 0.6180(2)
O2 O 0.3970(3) -0.1716(3) 0.8395(2)
H1 H 0.494 -0.149 0.558
H2 H 0.231 -0.212 0.457
H3 H 0.429 -0.402 0.531
H4 H 0.193 -0.441 0.513
H5 H 0.312 -0.446 0.698
H6 H -0.003 -0.236 0.858
H7 H -0.248 -0.099 0.830
H8 H -0.293 0.031 0.690
H9 H -0.088 0.034 0.579
H10 H -0.072 -0.240 0.537
H11 H 0.011 -0.384 0.683
loop_
_geom_bond_atom_site_label_1
_geom_bond_atom_site_label_2
_geom_bond_site_symmetry_1
_geom_bond_site_symmetry_2
C1 C2 1_555 1_555
C2 C3 1_555 1_555
C3 C4 1_555 1_555
C4 C5 1_555 1_555
C5 C6 1_555 1_555
C6 C7 1_555 1_555
C7 C3 1_555 1_555
C8 C7 1_555 1_555
C9 C1 1_555 1_555
C10 C9 1_555 1_555
C11 C10 1_555 1_555
C12 C11 1_555 1_555
C13 C1 1_555 1_555
C14 C1 1_555 1_555
C15 C6 1_555 1_555
O1 C2 1_555 1_555
O2 C8 1_555 1_555
H1 C3 1_555 1_555
H2 C4 1_555 1_555
H3 C5 1_555 1_555
H4 C5 1_555 1_555
H5 C6 1_555 1_555
H6 C10 1_555 1_555
H7 C11 1_555 1_555
H8 C12 1_555 1_555
H9 C13 1_555 1_555
H10 C14 1_555 1_555
H11 C15 1_555 1_555
C4 C14 1_555 1_555
C8 C9 1_555 1_555
C9 C15 1_555 1_555
C12 C13 1_555 1_555
C14 C15 1_555 1_555

#END
