
#######################################################################
#
#                 Cambridge Crystallographic Data Centre
#                                CCDC 
#
#######################################################################
#
# If this CIF has been generated from an entry in the Cambridge 
# Structural Database, then it will include bibliographic, chemical, 
# crystal, experimental, refinement or atomic coordinate data resulting 
# from the CCDC's data processing and validation procedures.
#
#######################################################################

data_GOJRON
_chemical_formula_moiety         'C34 H26 O4,2(C1 H2 Cl2)'
_chemical_name_systematic        
'2,5,13-trimethoxy-9-(4-methoxyphenyl)dibenzo[fg,op]tetracene dichloromethane solvate'
_symmetry_cell_setting           triclinic
_symmetry_space_group_name_H-M   'P -1'
_symmetry_Int_Tables_number      2
_space_group_name_Hall           '-P 1'
loop_
_symmetry_equiv_pos_site_id
_symmetry_equiv_pos_as_xyz
1 x,y,z
2 -x,-y,-z
_cell_length_a                   8.9357(9)
_cell_length_b                   12.5794(16)
_cell_length_c                   14.3769(17)
_cell_angle_alpha                73.450(11)
_cell_angle_beta                 89.614(9)
_cell_angle_gamma                77.300(10)
_cell_volume                     1508.5
_exptl_crystal_colour            colorless
_exptl_crystal_description       needle
_cell_formula_units_Z            2
_exptl_crystal_recrystallization_method dichloromethane
loop_
_atom_site_label
_atom_site_type_symbol
_atom_site_fract_x
_atom_site_fract_y
_atom_site_fract_z
Cl1 Cl 0.00211(10) 0.50928(7) 0.12448(6)
Cl2 Cl -0.13142(10) 0.46807(8) 0.31355(7)
C35 C 0.0207(3) 0.4201(3) 0.2453(2)
H27 H 0.1199 0.4188 0.2763
H28 H 0.0207 0.3415 0.2451
Cl3 Cl 0.70977(12) 1.02532(8) 0.47397(7)
Cl4 Cl 0.95142(11) 0.81725(9) 0.50950(7)
C36 C 0.7920(5) 0.9067(3) 0.4346(3)
H29 H 0.8243 0.9334 0.3675
H30 H 0.7135 0.8626 0.4330
O1 O 0.3034(2) 0.25895(17) 1.20617(15)
O2 O 0.9327(2) -0.20011(16) 1.26260(14)
O3 O 1.2804(2) -0.32202(16) 0.83794(14)
O4 O 0.3199(2) 0.48115(18) 0.32948(14)
C1 C 0.7010(3) 0.0646(2) 0.88731(19)
C2 C 0.7663(3) 0.0416(2) 0.8035(2)
C3 C 0.7010(3) 0.1087(2) 0.7117(2)
H1 H 0.7454 0.0927 0.6556
C4 C 0.5732(3) 0.1980(2) 0.7001(2)
C5 C 0.5089(3) 0.2196(2) 0.7830(2)
H2 H 0.4207 0.2800 0.7758
C6 C 0.5698(3) 0.1552(2) 0.8767(2)
C7 C 0.5007(3) 0.1799(2) 0.9635(2)
C8 C 0.5639(3) 0.1138(2) 1.05616(19)
C9 C 0.4988(3) 0.1390(2) 1.1385(2)
H3 H 0.5420 0.0943 1.2013
C10 C 0.3733(3) 0.2276(2) 1.1295(2)
C11 C 0.3079(3) 0.2929(2) 1.0371(2)
H4 H 0.2195 0.3530 1.0306
C12 C 0.3712(3) 0.2702(2) 0.9562(2)
H5 H 0.3274 0.3161 0.8937
C13 C 0.3661(4) 0.1926(3) 1.3009(2)
H6 H 0.3040 0.2197 1.3496
H7 H 0.4719 0.1999 1.3089
H8 H 0.3656 0.1125 1.3096
C14 C 0.7643(3) -0.0042(2) 0.98237(19)
C15 C 0.8939(3) -0.0958(2) 0.99396(19)
C16 C 0.9530(3) -0.1628(2) 1.0880(2)
H9 H 1.0402 -0.2241 1.0960
C17 C 0.8847(3) -0.1397(2) 1.1684(2)
C18 C 0.7564(3) -0.0508(2) 1.1578(2)
H10 H 0.7089 -0.0373 1.2139
C19 C 0.6966(3) 0.0187(2) 1.06640(19)
C20 C 1.0630(3) -0.2922(2) 1.2788(2)
H11 H 1.0814 -0.3305 1.3487
H12 H 1.1531 -0.2634 1.2536
H13 H 1.0446 -0.3464 1.2454
C21 C 0.9016(3) -0.0520(2) 0.81471(19)
C22 C 0.9744(3) -0.0772(2) 0.7334(2)
H14 H 0.9350 -0.0314 0.6700
C23 C 1.1003(3) -0.1656(2) 0.7432(2)
H15 H 1.1476 -0.1802 0.6874
C24 C 1.1580(3) -0.2337(2) 0.8359(2)
C25 C 1.0912(3) -0.2113(2) 0.9166(2)
H16 H 1.1320 -0.2581 0.9795
C26 C 0.9626(3) -0.1199(2) 0.90776(19)
C27 C 1.3410(3) -0.3952(2) 0.9309(2)
H17 H 1.4254 -0.4560 0.9231
H18 H 1.2600 -0.4287 0.9657
H19 H 1.3795 -0.3514 0.9681
C28 C 0.5087(3) 0.2713(2) 0.6025(2)
C29 C 0.3518(3) 0.3235(2) 0.5850(2)
H20 H 0.2846 0.3106 0.6364
C30 C 0.2937(3) 0.3933(2) 0.4941(2)
H21 H 0.1873 0.4287 0.4838
C31 C 0.3890(3) 0.4124(2) 0.4177(2)
C32 C 0.5448(3) 0.3615(2) 0.4332(2)
H22 H 0.6115 0.3736 0.3814
C33 C 0.6014(3) 0.2930(2) 0.5250(2)
H23 H 0.7084 0.2595 0.5354
C34 C 0.4139(4) 0.4984(3) 0.2486(2)
H24 H 0.3522 0.5512 0.1912
H25 H 0.4559 0.4254 0.2359
H26 H 0.4985 0.5304 0.2631
loop_
_geom_bond_atom_site_label_1
_geom_bond_atom_site_label_2
_geom_bond_site_symmetry_1
_geom_bond_site_symmetry_2
Cl1 C35 1_555 1_555
Cl2 C35 1_555 1_555
Cl3 C36 1_555 1_555
Cl4 C36 1_555 1_555
O1 C10 1_555 1_555
O2 C17 1_555 1_555
O3 C24 1_555 1_555
O4 C31 1_555 1_555
C1 C2 1_555 1_555
C2 C3 1_555 1_555
C3 H1 1_555 1_555
C4 C3 1_555 1_555
C5 C4 1_555 1_555
H2 C5 1_555 1_555
C6 C1 1_555 1_555
C7 C6 1_555 1_555
C8 C7 1_555 1_555
C9 C8 1_555 1_555
H3 C9 1_555 1_555
C10 C9 1_555 1_555
C11 C10 1_555 1_555
H4 C11 1_555 1_555
C12 C7 1_555 1_555
H5 C12 1_555 1_555
C13 O1 1_555 1_555
H6 C13 1_555 1_555
H7 C13 1_555 1_555
H8 C13 1_555 1_555
C14 C1 1_555 1_555
C15 C14 1_555 1_555
C16 C15 1_555 1_555
H9 C16 1_555 1_555
C17 C16 1_555 1_555
C18 C17 1_555 1_555
H10 C18 1_555 1_555
C19 C8 1_555 1_555
C20 O2 1_555 1_555
H11 C20 1_555 1_555
H12 C20 1_555 1_555
H13 C20 1_555 1_555
C21 C2 1_555 1_555
C22 C21 1_555 1_555
H14 C22 1_555 1_555
C23 C22 1_555 1_555
H15 C23 1_555 1_555
C24 C23 1_555 1_555
C25 C24 1_555 1_555
H16 C25 1_555 1_555
C26 C15 1_555 1_555
C27 O3 1_555 1_555
H17 C27 1_555 1_555
H18 C27 1_555 1_555
H19 C27 1_555 1_555
C28 C4 1_555 1_555
C29 C28 1_555 1_555
H20 C29 1_555 1_555
C30 C29 1_555 1_555
H21 C30 1_555 1_555
C31 C30 1_555 1_555
C32 C31 1_555 1_555
H22 C32 1_555 1_555
C33 C28 1_555 1_555
H23 C33 1_555 1_555
C34 O4 1_555 1_555
H24 C34 1_555 1_555
H25 C34 1_555 1_555
H26 C34 1_555 1_555
C35 H27 1_555 1_555
H28 C35 1_555 1_555
C36 H29 1_555 1_555
H30 C36 1_555 1_555
C5 C6 1_555 1_555
C11 C12 1_555 1_555
C14 C19 1_555 1_555
C18 C19 1_555 1_555
C21 C26 1_555 1_555
C25 C26 1_555 1_555
C32 C33 1_555 1_555

#END
