
#######################################################################
#
#                 Cambridge Crystallographic Data Centre
#                                CCDC 
#
#######################################################################
#
# If this CIF has been generated from an entry in the Cambridge 
# Structural Database, then it will include bibliographic, chemical, 
# crystal, experimental, refinement or atomic coordinate data resulting 
# from the CCDC's data processing and validation procedures.
#
#######################################################################

data_GOLGUL01
_chemical_formula_moiety         'C12 H13 B1 F2 N2'
_chemical_name_systematic        
difluoro(2-(2-methyl-1-(2H-pyrrol-2-ylidene)propyl)-1H-pyrrolato)boron
_symmetry_cell_setting           monoclinic
_symmetry_space_group_name_H-M   'C c'
_symmetry_Int_Tables_number      9
_space_group_name_Hall           'C -2yc'
loop_
_symmetry_equiv_pos_site_id
_symmetry_equiv_pos_as_xyz
1 x,y,z
2 x,-y,1/2+z
3 1/2+x,1/2+y,z
4 1/2+x,1/2-y,1/2+z
_cell_length_a                   16.054(2)
_cell_length_b                   12.6204(19)
_cell_length_c                   13.685(3)
_cell_angle_alpha                90
_cell_angle_beta                 120.2280(10)
_cell_angle_gamma                90
_cell_volume                     2395.68
_cell_formula_units_Z            8
_chemical_properties_physical    Efflorescent
_exptl_crystal_preparation       Luminescent
loop_
_atom_site_label
_atom_site_type_symbol
_atom_site_fract_x
_atom_site_fract_y
_atom_site_fract_z
F1 F 0.61036(12) 0.63499(11) 0.45341(14)
F2 F 0.48885(14) 0.62374(11) 0.48869(15)
C1 C 0.6431(2) 0.9284(2) 0.6513(2)
H1 H 0.6522 1.0004 0.6677
C2 C 0.58305(17) 0.88444(15) 0.5440(2)
C3 C 0.47056(18) 0.86344(17) 0.3450(2)
C4 C 0.52324(18) 0.92924(17) 0.4385(2)
N1 N 0.47743(14) 0.75428(14) 0.35548(17)
C5 C 0.6857(3) 0.8492(2) 0.7270(3)
H2 H 0.7287 0.8563 0.8042
N2 N 0.59176(14) 0.77464(13) 0.55740(16)
C6 C 0.6530(2) 0.7558(2) 0.6674(3)
H3 H 0.6711 0.6886 0.6993
B1 B 0.5425(2) 0.6920(2) 0.4641(3)
C7 C 0.4185(2) 0.7133(3) 0.2530(3)
H4 H 0.4097 0.6414 0.2363
C8 C 0.4044(2) 0.8866(3) 0.2312(3)
H5 H 0.3857 0.9538 0.1996
C9 C 0.3728(3) 0.7933(3) 0.1761(3)
H6 H 0.3280 0.7848 0.0997
C10 C 0.5053(8) 1.0406(9) 0.4123(12)
H7 H 0.4612 1.0421 0.3303
C11 C 0.5922(11) 1.0990(7) 0.4282(16)
H8 H 0.6433 1.0920 0.5053
H9 H 0.5766 1.1726 0.4108
H10 H 0.6126 1.0699 0.3788
C12 C 0.4553(9) 1.0959(6) 0.4564(16)
H11 H 0.3944 1.0621 0.4321
H12 H 0.4447 1.1677 0.4297
H13 H 0.4927 1.0955 0.5375
C16 C 0.33392(17) 0.42325(18) 0.37821(18)
H21 H 0.3779 0.4788 0.4049
C17 C 0.24937(15) 0.28544(18) 0.27993(18)
C18 C 0.22080(15) 0.20430(18) 0.19968(19)
N3 N 0.31952(11) 0.35816(13) 0.29421(13)
C19 C 0.2738(2) 0.3963(2) 0.4203(2)
H22 H 0.2704 0.4296 0.4788
F3 F 0.35064(14) 0.45569(11) 0.16643(14)
C20 C 0.26257(17) 0.19690(16) 0.13149(19)
F4 F 0.46918(11) 0.35347(15) 0.29620(15)
B2 B 0.3710(2) 0.36259(19) 0.2257(2)
C21 C 0.22118(19) 0.3114(2) 0.3591(2)
H23 H 0.1744 0.2765 0.3680
N4 N 0.33276(13) 0.26854(14) 0.14417(16)
C22 C 0.3592(3) 0.2432(3) 0.0685(3)
H24 H 0.4053 0.2791 0.0592
C23 C 0.3084(3) 0.1571(3) 0.0070(3)
H25 H 0.3142 0.1249 -0.0504
C24 C 0.2482(2) 0.1267(2) 0.0441(3)
H26 H 0.2053 0.0701 0.0171
C25 C 0.1523(4) 0.1096(7) 0.1742(7)
H27 H 0.1544 0.0670 0.1156
C26 C 0.0518(7) 0.1528(13) 0.1241(16)
H28 H 0.0492 0.2020 0.1760
H29 H 0.0076 0.0957 0.1099
H30 H 0.0343 0.1883 0.0543
C27 C 0.1814(10) 0.0379(9) 0.2751(10)
H31 H 0.2352 -0.0049 0.2874
H32 H 0.1282 -0.0071 0.2608
H33 H 0.1991 0.0802 0.3411
C13? C 0.5222(18) 1.0605(14) 0.445(2)
H14? H 0.5800 1.0649 0.5204
C14? C 0.572(2) 1.1029(18) 0.382(3)
H15? H 0.5991 1.1716 0.4104
H16? H 0.5260 1.1081 0.3024
H17? H 0.6229 1.0552 0.3927
C15? C 0.4537(13) 1.0995(16) 0.4842(15)
H18? H 0.3932 1.0630 0.4429
H19? H 0.4434 1.1743 0.4706
H20? H 0.4813 1.0858 0.5636
C28? C 0.1904(19) 0.0342(15) 0.254(2)
H34? H 0.2185 0.0108 0.2106
H35? H 0.1441 -0.0170 0.2490
H36? H 0.2401 0.0421 0.3320
C29? C 0.0542(14) 0.1245(19) 0.0950(18)
H37? H 0.0317 0.1908 0.0559
H38? H 0.0039 0.0922 0.1032
H39? H 0.0716 0.0784 0.0524
C30? C 0.1392(5) 0.1433(6) 0.2079(8)
H40? H 0.1222 0.1779 0.2595
loop_
_geom_bond_atom_site_label_1
_geom_bond_atom_site_label_2
_geom_bond_site_symmetry_1
_geom_bond_site_symmetry_2
F1 B1 1_555 1_555
F2 B1 1_555 1_555
C1 H1 1_555 1_555
C2 C1 1_555 1_555
C3 C4 1_555 1_555
C4 C2 1_555 1_555
N1 C3 1_555 1_555
C5 C1 1_555 1_555
H2 C5 1_555 1_555
N2 C2 1_555 1_555
C6 C5 1_555 1_555
H3 C6 1_555 1_555
B1 N1 1_555 1_555
C7 N1 1_555 1_555
H4 C7 1_555 1_555
C8 C3 1_555 1_555
H5 C8 1_555 1_555
C9 C7 1_555 1_555
H6 C9 1_555 1_555
C10 C4 1_555 1_555
H7 C10 1_555 1_555
C11 C10 1_555 1_555
H8 C11 1_555 1_555
H9 C11 1_555 1_555
H10 C11 1_555 1_555
C12 C10 1_555 1_555
H11 C12 1_555 1_555
H12 C12 1_555 1_555
H13 C12 1_555 1_555
C16 H21 1_555 1_555
C17 C18 1_555 1_555
C18 C20 1_555 1_555
N3 C16 1_555 1_555
C19 C16 1_555 1_555
H22 C19 1_555 1_555
F3 B2 1_555 1_555
C20 N4 1_555 1_555
F4 B2 1_555 1_555
B2 N3 1_555 1_555
C21 C17 1_555 1_555
H23 C21 1_555 1_555
N4 B2 1_555 1_555
C22 N4 1_555 1_555
H24 C22 1_555 1_555
C23 C22 1_555 1_555
H25 C23 1_555 1_555
C24 C20 1_555 1_555
H26 C24 1_555 1_555
C25 C18 1_555 1_555
H27 C25 1_555 1_555
C26 C25 1_555 1_555
H28 C26 1_555 1_555
H29 C26 1_555 1_555
H30 C26 1_555 1_555
C27 C25 1_555 1_555
H31 C27 1_555 1_555
H32 C27 1_555 1_555
H33 C27 1_555 1_555
N2 C6 1_555 1_555
N2 B1 1_555 1_555
C8 C9 1_555 1_555
C17 N3 1_555 1_555
C19 C21 1_555 1_555
C23 C24 1_555 1_555

#END
