
#######################################################################
#
#                 Cambridge Crystallographic Data Centre
#                                CCDC 
#
#######################################################################
#
# If this CIF has been generated from an entry in the Cambridge 
# Structural Database, then it will include bibliographic, chemical, 
# crystal, experimental, refinement or atomic coordinate data resulting 
# from the CCDC's data processing and validation procedures.
#
#######################################################################

data_GOLKUP
_chemical_formula_moiety         'C19 H18 N3 1+,H2 O1,Cl1 1-'
_chemical_name_systematic        
'2-(4-((4-methylphenyl)carbonohydrazonoyl)phenyl)pyridinium chloride monohydrate unknown solvate'
_symmetry_cell_setting           triclinic
_symmetry_space_group_name_H-M   'P -1'
_symmetry_Int_Tables_number      2
_space_group_name_Hall           '-P 1'
loop_
_symmetry_equiv_pos_site_id
_symmetry_equiv_pos_as_xyz
1 x,y,z
2 -x,-y,-z
_cell_length_a                   9.1843(9)
_cell_length_b                   17.4004(14)
_cell_length_c                   18.960(2)
_cell_angle_alpha                67.111(5)
_cell_angle_beta                 86.938(4)
_cell_angle_gamma                82.035(6)
_cell_volume                     2764.49
_exptl_crystal_colour            orange
_exptl_crystal_description       plate
_cell_formula_units_Z            6
loop_
_atom_site_label
_atom_site_type_symbol
_atom_site_fract_x
_atom_site_fract_y
_atom_site_fract_z
Cl1 Cl 0.0037(2) 0.13317(13) 0.66077(14)
Cl2 Cl 0.5400(3) 0.08171(15) 0.75096(15)
Cl3 Cl 0.2611(4) 0.2862(2) 0.9149(2)
O1 O 0.3014(6) 0.7635(3) 0.3434(3)
H1 H 0.2145 0.7926 0.3423
H2 H 0.3468 0.8072 0.3166
O2 O 0.2335(8) 0.0226(4) 0.7835(4)
H3 H 0.1674 0.0540 0.7487
H4 H 0.3212 0.0393 0.7745
O3 O 0.3065(11) 0.2382(6) 0.7658(6)
H5 H 0.3682 0.1967 0.7616
H6 H 0.2938 0.2514 0.8063
N1 N 0.8192(7) -0.0485(4) 0.7613(4)
H7 H 0.7360 -0.0162 0.7435
N2 N 0.6174(7) 0.0690(4) 0.3710(4)
N3 N 0.5914(7) 0.0845(4) 0.2976(4)
H8 H 0.6471 0.0560 0.2745
C1 C 0.7593(8) -0.0102(4) 0.4833(5)
C2 C 0.6917(8) 0.0335(5) 0.5278(5)
H9 H 0.6121 0.0766 0.5070
C3 C 0.7390(8) 0.0146(5) 0.6008(5)
H10 H 0.6920 0.0452 0.6295
C4 C 0.8555(9) -0.0489(4) 0.6338(5)
C5 C 0.9203(8) -0.0939(5) 0.5904(5)
H11 H 0.9967 -0.1388 0.6123
C6 C 0.8752(8) -0.0740(5) 0.5167(5)
H12 H 0.9234 -0.1042 0.4879
C7 C 0.9060(9) -0.0737(5) 0.7128(5)
C8 C 0.8521(11) -0.0698(5) 0.8350(5)
H13 H 0.7847 -0.0509 0.8664
C9 C 0.9796(11) -0.1178(5) 0.8655(5)
H14 H 1.0031 -0.1331 0.9178
C10 C 1.0745(10) -0.1437(6) 0.8177(6)
H15 H 1.1657 -0.1767 0.8370
C11 C 1.0389(9) -0.1227(5) 0.7436(6)
H16 H 1.1053 -0.1416 0.7118
C12 C 0.7193(8) 0.0081(5) 0.4050(5)
H17 H 0.7679 -0.0247 0.3786
C13 C 0.4764(8) 0.1455(5) 0.2569(5)
C14 C 0.4606(9) 0.1632(5) 0.1791(5)
H18 H 0.5264 0.1337 0.1551
C15 C 0.3502(9) 0.2231(5) 0.1370(5)
H19 H 0.3422 0.2350 0.0839
C16 C 0.2510(9) 0.2663(5) 0.1702(5)
C17 C 0.2663(9) 0.2467(5) 0.2473(5)
H20 H 0.1982 0.2751 0.2713
C18 C 0.3767(9) 0.1872(5) 0.2917(5)
H21 H 0.3838 0.1754 0.3448
C19 C 0.1277(11) 0.3312(6) 0.1261(6)
H22 H 0.1246 0.3322 0.0741
H23 H 0.1442 0.3867 0.1235
H24 H 0.0341 0.3168 0.1519
N4 N 0.4667(7) 0.7045(4) 0.4729(4)
H25 H 0.4083 0.7089 0.4359
N5 N 0.0848(7) 0.3680(4) 0.5015(4)
N6 N 0.0139(7) 0.3022(4) 0.5088(4)
H26 H 0.0170 0.2584 0.5525
C20 C 0.2323(8) 0.4344(5) 0.5524(5)
C21 C 0.2344(8) 0.5059(5) 0.4841(5)
H27 H 0.1818 0.5100 0.4407
C22 C 0.3115(8) 0.5695(5) 0.4794(5)
H28 H 0.3119 0.6168 0.4324
C23 C 0.3890(8) 0.5671(5) 0.5412(5)
C24 C 0.3853(8) 0.4959(5) 0.6103(5)
H29 H 0.4358 0.4927 0.6539
C25 C 0.3094(9) 0.4309(5) 0.6151(5)
H30 H 0.3097 0.3832 0.6618
C26 C 0.4743(8) 0.6329(5) 0.5373(5)
C27 C 0.5433(8) 0.7701(5) 0.4618(5)
H31 H 0.5341 0.8178 0.4149
C28 C 0.6324(10) 0.7670(6) 0.5176(6)
H32 H 0.6841 0.8129 0.5115
C29 C 0.6456(8) 0.6966(6) 0.5824(6)
H33 H 0.7090 0.6930 0.6219
C30 C 0.5693(8) 0.6296(5) 0.5929(5)
H34 H 0.5824 0.5808 0.6389
C31 C 0.1562(9) 0.3645(5) 0.5595(5)
H35 H 0.1588 0.3167 0.6063
C32 C -0.0641(8) 0.3038(4) 0.4473(5)
C33 C -0.1566(8) 0.2419(5) 0.4579(5)
H36 H -0.1650 0.1991 0.5073
C34 C -0.2339(8) 0.2424(5) 0.3983(4)
H37 H -0.2959 0.2001 0.4077
C35 C -0.2255(8) 0.3027(5) 0.3240(5)
C36 C -0.1319(9) 0.3642(5) 0.3141(5)
H38 H -0.1224 0.4065 0.2646
C37 C -0.0546(9) 0.3643(5) 0.3739(5)
H39 H 0.0070 0.4067 0.3649
C38 C -0.3116(9) 0.3047(5) 0.2578(5)
H40 H -0.3976 0.3477 0.2479
H41 H -0.3441 0.2496 0.2702
H42 H -0.2492 0.3182 0.2121
N7 N 0.0467(9) 0.7695(4) 1.1048(4)
H43 H -0.0250 0.7455 1.0964
N8 N 0.4079(8) 0.5161(4) 0.8903(4)
N9 N 0.4276(8) 0.4602(4) 0.8568(4)
H44 H 0.3593 0.4281 0.8600
C39 C 0.2676(9) 0.5775(5) 0.9686(5)
C40 C 0.1460(9) 0.5766(5) 1.0144(5)
H45 H 0.0829 0.5349 1.0234
C41 C 0.1131(9) 0.6361(5) 1.0480(5)
H46 H 0.0275 0.6346 1.0787
C42 C 0.2054(9) 0.6975(5) 1.0369(5)
C43 C 0.3284(10) 0.6978(5) 0.9889(5)
H47 H 0.3929 0.7389 0.9800
C44 C 0.3580(10) 0.6409(5) 0.9545(5)
H48 H 0.4400 0.6444 0.9212
C45 C 0.1817(10) 0.7561(5) 1.0754(4)
C46 C 0.0169(13) 0.8174(6) 1.1460(6)
H49 H -0.0790 0.8236 1.1662
C47 C 0.1247(13) 0.8572(6) 1.1588(6)
H50 H 0.1058 0.8898 1.1893
C48 C 0.2617(13) 0.8492(6) 1.1267(5)
H51 H 0.3365 0.8786 1.1331
C49 C 0.2904(10) 0.7989(5) 1.0852(5)
H52 H 0.3849 0.7936 1.0634
C50 C 0.2974(9) 0.5142(5) 0.9346(5)
H53 H 0.2347 0.4719 0.9456
C51 C 0.5577(9) 0.4533(5) 0.8167(5)
C52 C 0.6657(9) 0.5046(5) 0.8064(5)
H54 H 0.6506 0.5489 0.8245
C53 C 0.7949(10) 0.4920(5) 0.7701(5)
H55 H 0.8673 0.5283 0.7632
C54 C 0.8231(10) 0.4273(6) 0.7432(5)
C55 C 0.7129(10) 0.3792(5) 0.7497(5)
H56 H 0.7264 0.3370 0.7289
C56 C 0.5814(10) 0.3913(5) 0.7863(5)
H57 H 0.5068 0.3569 0.7907
C57 C 0.9703(10) 0.4093(7) 0.7094(6)
H58 H 0.9763 0.3551 0.7041
H59 H 1.0491 0.4072 0.7433
H60 H 0.9810 0.4539 0.6590
loop_
_geom_bond_atom_site_label_1
_geom_bond_atom_site_label_2
_geom_bond_site_symmetry_1
_geom_bond_site_symmetry_2
O1 H1 1_555 1_555
H2 O1 1_555 1_555
O2 H3 1_555 1_555
H4 O2 1_555 1_555
O3 H5 1_555 1_555
H6 O3 1_555 1_555
N1 H7 1_555 1_555
N2 N3 1_555 1_555
N3 H8 1_555 1_555
C1 C2 1_555 1_555
C2 H9 1_555 1_555
C3 C2 1_555 1_555
H10 C3 1_555 1_555
C4 C3 1_555 1_555
C5 C4 1_555 1_555
H11 C5 1_555 1_555
C6 C1 1_555 1_555
H12 C6 1_555 1_555
C7 N1 1_555 1_555
C8 N1 1_555 1_555
H13 C8 1_555 1_555
C9 C8 1_555 1_555
H14 C9 1_555 1_555
C10 C9 1_555 1_555
H15 C10 1_555 1_555
C11 C7 1_555 1_555
H16 C11 1_555 1_555
C12 N2 1_555 1_555
H17 C12 1_555 1_555
C13 N3 1_555 1_555
C14 C13 1_555 1_555
H18 C14 1_555 1_555
C15 C14 1_555 1_555
H19 C15 1_555 1_555
C16 C15 1_555 1_555
C17 C16 1_555 1_555
H20 C17 1_555 1_555
C18 C13 1_555 1_555
H21 C18 1_555 1_555
C19 C16 1_555 1_555
H22 C19 1_555 1_555
H23 C19 1_555 1_555
H24 C19 1_555 1_555
N4 H25 1_555 1_555
N5 N6 1_555 1_555
N6 H26 1_555 1_555
C20 C21 1_555 1_555
C21 H27 1_555 1_555
C22 C21 1_555 1_555
H28 C22 1_555 1_555
C23 C22 1_555 1_555
C24 C23 1_555 1_555
H29 C24 1_555 1_555
C25 C20 1_555 1_555
H30 C25 1_555 1_555
C26 N4 1_555 1_555
C27 N4 1_555 1_555
H31 C27 1_555 1_555
C28 C27 1_555 1_555
H32 C28 1_555 1_555
C29 C28 1_555 1_555
H33 C29 1_555 1_555
C30 C26 1_555 1_555
H34 C30 1_555 1_555
C31 N5 1_555 1_555
H35 C31 1_555 1_555
C32 N6 1_555 1_555
C33 C32 1_555 1_555
H36 C33 1_555 1_555
C34 C33 1_555 1_555
H37 C34 1_555 1_555
C35 C34 1_555 1_555
C36 C35 1_555 1_555
H38 C36 1_555 1_555
C37 C32 1_555 1_555
H39 C37 1_555 1_555
C38 C35 1_555 1_555
H40 C38 1_555 1_555
H41 C38 1_555 1_555
H42 C38 1_555 1_555
N7 H43 1_555 1_555
N8 N9 1_555 1_555
N9 H44 1_555 1_555
C39 C40 1_555 1_555
C40 H45 1_555 1_555
C41 C40 1_555 1_555
H46 C41 1_555 1_555
C42 C41 1_555 1_555
C43 C42 1_555 1_555
H47 C43 1_555 1_555
C44 C39 1_555 1_555
H48 C44 1_555 1_555
C45 N7 1_555 1_555
C46 N7 1_555 1_555
H49 C46 1_555 1_555
C47 C46 1_555 1_555
H50 C47 1_555 1_555
C48 C47 1_555 1_555
H51 C48 1_555 1_555
C49 C45 1_555 1_555
H52 C49 1_555 1_555
C50 N8 1_555 1_555
H53 C50 1_555 1_555
C51 N9 1_555 1_555
C52 C51 1_555 1_555
H54 C52 1_555 1_555
C53 C52 1_555 1_555
H55 C53 1_555 1_555
C54 C53 1_555 1_555
C55 C54 1_555 1_555
H56 C55 1_555 1_555
C56 C51 1_555 1_555
H57 C56 1_555 1_555
C57 C54 1_555 1_555
H58 C57 1_555 1_555
H59 C57 1_555 1_555
H60 C57 1_555 1_555
C1 C12 1_555 1_555
C4 C7 1_555 1_555
C5 C6 1_555 1_555
C10 C11 1_555 1_555
C17 C18 1_555 1_555
C20 C31 1_555 1_555
C23 C26 1_555 1_555
C24 C25 1_555 1_555
C29 C30 1_555 1_555
C36 C37 1_555 1_555
C39 C50 1_555 1_555
C42 C45 1_555 1_555
C43 C44 1_555 1_555
C48 C49 1_555 1_555
C55 C56 1_555 1_555

#END
