
#######################################################################
#
#                 Cambridge Crystallographic Data Centre
#                                CCDC 
#
#######################################################################
#
# If this CIF has been generated from an entry in the Cambridge 
# Structural Database, then it will include bibliographic, chemical, 
# crystal, experimental, refinement or atomic coordinate data resulting 
# from the CCDC's data processing and validation procedures.
#
#######################################################################

data_GOLXEL
_chemical_formula_moiety         'C25 H15 Br1 N4'
_chemical_name_systematic        
4-(4-Bromophenyl)-6-(1H-indol-3-yl)-2,2'-bipyridine-5-carbonitrile
_symmetry_cell_setting           orthorhombic
_symmetry_space_group_name_H-M   'P b c a'
_symmetry_Int_Tables_number      61
_space_group_name_Hall           '-P 2ac 2ab'
loop_
_symmetry_equiv_pos_site_id
_symmetry_equiv_pos_as_xyz
1 x,y,z
2 1/2-x,-y,1/2+z
3 -x,1/2+y,1/2-z
4 1/2+x,1/2-y,-z
5 -x,-y,-z
6 1/2+x,y,1/2-z
7 x,1/2-y,1/2+z
8 1/2-x,1/2+y,z
_cell_length_a                   14.7393(4)
_cell_length_b                   10.7465(3)
_cell_length_c                   25.4251(7)
_cell_angle_alpha                90
_cell_angle_beta                 90
_cell_angle_gamma                90
_cell_volume                     4027.23
_exptl_crystal_colour            colorless
_exptl_crystal_description       Block
_cell_formula_units_Z            8
_exptl_crystal_recrystallization_method ethanol
loop_
_atom_site_label
_atom_site_type_symbol
_atom_site_fract_x
_atom_site_fract_y
_atom_site_fract_z
Br1 Br 0.24258(2) 0.41762(4) 0.228490(11)
N1 N 0.40577(13) 0.47359(16) 0.56512(7)
C1 C 0.41263(15) 0.3612(2) 0.54258(9)
C2 C 0.38681(16) 0.3440(2) 0.48975(9)
C3 C 0.35912(16) 0.4449(2) 0.45926(9)
C4 C 0.35655(16) 0.5595(2) 0.48331(9)
H1 H 0.3406 0.6298 0.4641
C5 C 0.37776(15) 0.5701(2) 0.53619(9)
C6 C 0.44948(15) 0.2632(2) 0.57570(9)
C7 C 0.44917(15) 0.2595(2) 0.63245(9)
C8 C 0.41165(18) 0.3326(2) 0.67203(10)
H2 H 0.3769 0.4021 0.6637
C9 C 0.4265(2) 0.3010(3) 0.72342(10)
H3 H 0.4022 0.3503 0.7499
C10 C 0.4771(2) 0.1972(3) 0.73681(11)
H4 H 0.4861 0.1783 0.7721
C11 C 0.5139(2) 0.1223(3) 0.69920(11)
H5 H 0.5473 0.0521 0.7082
C12 C 0.49973(16) 0.1545(2) 0.64702(10)
N2 N 0.52963(15) 0.09858(18) 0.60195(9)
H6 H 0.5626 0.0327 0.6007
C13 C 0.49954(16) 0.1625(2) 0.55983(10)
H7 H 0.5111 0.1413 0.5250
C14 C 0.38817(18) 0.2223(2) 0.46641(10)
N3 N 0.38837(19) 0.1271(2) 0.44684(10)
C15 C 0.33250(16) 0.4340(2) 0.40326(9)
C16 C 0.26769(17) 0.3498(2) 0.38682(10)
H8 H 0.2413 0.2960 0.4110
C17 C 0.24170(18) 0.3450(2) 0.33465(11)
H9 H 0.1982 0.2879 0.3237
C18 C 0.28003(18) 0.4241(2) 0.29947(10)
C19 C 0.34485(19) 0.5078(3) 0.31444(10)
H10 H 0.3712 0.5608 0.2899
C20 C 0.37058(19) 0.5126(2) 0.36651(10)
H11 H 0.4143 0.5697 0.3770
C21 C 0.36885(16) 0.6912(2) 0.56355(9)
N4 N 0.33924(15) 0.78608(18) 0.53415(8)
C22 C 0.32987(19) 0.8957(2) 0.55752(12)
H12 H 0.3101 0.9624 0.5373
C23 C 0.3474(2) 0.9165(2) 0.60946(12)
H13 H 0.3388 0.9947 0.6243
C24 C 0.3779(3) 0.8194(3) 0.63905(12)
H14 H 0.3908 0.8304 0.6746
C25 C 0.3895(2) 0.7051(2) 0.61584(10)
H15 H 0.4110 0.6381 0.6353
loop_
_geom_bond_atom_site_label_1
_geom_bond_atom_site_label_2
_geom_bond_site_symmetry_1
_geom_bond_site_symmetry_2
Br1 C18 1_555 1_555
N1 C1 1_555 1_555
C1 C2 1_555 1_555
C2 C3 1_555 1_555
C3 C4 1_555 1_555
C4 H1 1_555 1_555
C5 N1 1_555 1_555
C6 C1 1_555 1_555
C7 C6 1_555 1_555
C8 C7 1_555 1_555
H2 C8 1_555 1_555
C9 C8 1_555 1_555
H3 C9 1_555 1_555
C10 C9 1_555 1_555
H4 C10 1_555 1_555
C11 C10 1_555 1_555
H5 C11 1_555 1_555
C12 C7 1_555 1_555
N2 C12 1_555 1_555
H6 N2 1_555 1_555
C13 C6 1_555 1_555
H7 C13 1_555 1_555
C14 C2 1_555 1_555
N3 C14 1_555 1_555
C15 C3 1_555 1_555
C16 C15 1_555 1_555
H8 C16 1_555 1_555
C17 C16 1_555 1_555
H9 C17 1_555 1_555
C18 C17 1_555 1_555
C19 C18 1_555 1_555
H10 C19 1_555 1_555
C20 C15 1_555 1_555
H11 C20 1_555 1_555
C21 C5 1_555 1_555
N4 C21 1_555 1_555
C22 N4 1_555 1_555
H12 C22 1_555 1_555
C23 C22 1_555 1_555
H13 C23 1_555 1_555
C24 C23 1_555 1_555
H14 C24 1_555 1_555
C25 C21 1_555 1_555
H15 C25 1_555 1_555
C4 C5 1_555 1_555
C11 C12 1_555 1_555
N2 C13 1_555 1_555
C19 C20 1_555 1_555
C24 C25 1_555 1_555

#END
