
#######################################################################
#
#                 Cambridge Crystallographic Data Centre
#                                CCDC 
#
#######################################################################
#
# If this CIF has been generated from an entry in the Cambridge 
# Structural Database, then it will include bibliographic, chemical, 
# crystal, experimental, refinement or atomic coordinate data resulting 
# from the CCDC's data processing and validation procedures.
#
#######################################################################

data_GOMBUF
_chemical_formula_moiety         'C23 H21 N1 O2'
_chemical_name_systematic        
(Z)-N-Benzyl-2,3-dihydro-2-(2-methoxybenzylidine)-4H-1,4-benzoxazine
_symmetry_cell_setting           monoclinic
_symmetry_space_group_name_H-M   'P 21/c'
_symmetry_Int_Tables_number      14
_space_group_name_Hall           '-P 2ybc'
loop_
_symmetry_equiv_pos_site_id
_symmetry_equiv_pos_as_xyz
1 x,y,z
2 -x,1/2+y,1/2-z
3 -x,-y,-z
4 x,1/2-y,1/2+z
_cell_length_a                   12.103(1)
_cell_length_b                   5.630(1)
_cell_length_c                   26.795(1)
_cell_angle_alpha                90
_cell_angle_beta                 93.655(6)
_cell_angle_gamma                90
_cell_volume                     1822.09
_exptl_crystal_colour            colorless
_exptl_crystal_description       prism
_cell_formula_units_Z            4
_exptl_crystal_recrystallization_method 'light petroleum/ether'
loop_
_atom_site_label
_atom_site_type_symbol
_atom_site_fract_x
_atom_site_fract_y
_atom_site_fract_z
O1 O 0.36781(10) -0.0138(2) 0.32397(5)
O2 O 0.02515(12) 0.0613(4) 0.40847(6)
N1 N 0.48450(12) 0.3210(3) 0.38271(5)
C1 C -0.0715(2) 0.0599(8) 0.43459(11)
H1 H -0.0662(2) 0.1794(8) 0.46019(11)
H2 H -0.0803(2) -0.0932(8) 0.44962(11)
H3 H -0.1342(2) 0.0925(8) 0.41186(11)
C2 C 0.0350(2) -0.0973(4) 0.36990(8)
C3 C -0.0398(2) -0.2769(5) 0.35779(10)
H4 H -0.1016(2) -0.2967(5) 0.37629(10)
C4 C -0.0230(2) -0.4262(5) 0.31851(11)
H5 H -0.0740(2) -0.5456(5) 0.31026(11)
C5 C 0.0681(2) -0.4005(5) 0.29146(10)
H6 H 0.0792(2) -0.5022(5) 0.26488(10)
C6 C 0.1440(2) -0.2225(4) 0.30375(8)
H7 H 0.2060(2) -0.2068(4) 0.28523(8)
C7 C 0.12983(15) -0.0662(4) 0.34315(7)
C8 C 0.2046(2) 0.1291(4) 0.35683(7)
H8 H 0.1732(2) 0.2520(4) 0.37428(7)
C9 C 0.31053(15) 0.1596(3) 0.34835(6)
C10 C 0.37363(15) 0.3802(3) 0.36114(7)
H9 H 0.37968(15) 0.4754(3) 0.33126(7)
H10 H 0.33453(15) 0.4729(3) 0.38494(7)
C11 C 0.48131(15) 0.0100(3) 0.32166(6)
C12 C 0.5312(2) -0.1431(3) 0.29015(6)
H11 H 0.4888(2) -0.2518(3) 0.27111(6)
C13 C 0.6448(2) -0.1348(4) 0.28684(7)
H12 H 0.6793(2) -0.2389(4) 0.26581(7)
C14 C 0.7060(2) 0.0280(4) 0.31482(7)
H13 H 0.7823(2) 0.0347(4) 0.31245(7)
C15 C 0.6558(2) 0.1822(4) 0.34649(7)
H14 H 0.6987(2) 0.2917(4) 0.36508(7)
C16 C 0.54195(14) 0.1760(3) 0.35094(6)
C17 C 0.5434(2) 0.5179(3) 0.40757(7)
H15 H 0.4897(2) 0.6286(3) 0.41953(7)
H16 H 0.5853(2) 0.6008(3) 0.38328(7)
C18 C 0.62169(15) 0.4445(3) 0.45113(6)
C19 C 0.6093(2) 0.2363(4) 0.47684(7)
H17 H 0.5525(2) 0.1321(4) 0.46683(7)
C20 C 0.6806(2) 0.1805(5) 0.51760(8)
H18 H 0.6721(2) 0.0382(5) 0.53455(8)
C21 C 0.7637(2) 0.3339(6) 0.53306(8)
H19 H 0.8115(2) 0.2965(6) 0.56050(8)
C22 C 0.7759(2) 0.5410(5) 0.50806(9)
H20 H 0.8316(2) 0.6468(5) 0.51865(9)
C23 C 0.7060(2) 0.5948(4) 0.46706(8)
H21 H 0.7160(2) 0.7358(4) 0.44984(8)
loop_
_geom_bond_atom_site_label_1
_geom_bond_atom_site_label_2
_geom_bond_site_symmetry_1
_geom_bond_site_symmetry_2
O1 C9 1_555 1_555
O2 C1 1_555 1_555
N1 C10 1_555 1_555
C1 H1 1_555 1_555
H2 C1 1_555 1_555
H3 C1 1_555 1_555
C2 O2 1_555 1_555
C3 C2 1_555 1_555
H4 C3 1_555 1_555
C4 C3 1_555 1_555
H5 C4 1_555 1_555
C5 C4 1_555 1_555
H6 C5 1_555 1_555
C6 C5 1_555 1_555
H7 C6 1_555 1_555
C7 C2 1_555 1_555
C8 C7 1_555 1_555
H8 C8 1_555 1_555
C9 C8 1_555 1_555
C10 C9 1_555 1_555
H9 C10 1_555 1_555
H10 C10 1_555 1_555
C11 O1 1_555 1_555
C12 C11 1_555 1_555
H11 C12 1_555 1_555
C13 C12 1_555 1_555
H12 C13 1_555 1_555
C14 C13 1_555 1_555
H13 C14 1_555 1_555
C15 C14 1_555 1_555
H14 C15 1_555 1_555
C16 N1 1_555 1_555
C17 N1 1_555 1_555
H15 C17 1_555 1_555
H16 C17 1_555 1_555
C18 C17 1_555 1_555
C19 C18 1_555 1_555
H17 C19 1_555 1_555
C20 C19 1_555 1_555
H18 C20 1_555 1_555
C21 C20 1_555 1_555
H19 C21 1_555 1_555
C22 C21 1_555 1_555
H20 C22 1_555 1_555
C23 C18 1_555 1_555
H21 C23 1_555 1_555
C6 C7 1_555 1_555
C11 C16 1_555 1_555
C15 C16 1_555 1_555
C22 C23 1_555 1_555

#END
