
#######################################################################
#
#                 Cambridge Crystallographic Data Centre
#                                CCDC 
#
#######################################################################
#
# If this CIF has been generated from an entry in the Cambridge 
# Structural Database, then it will include bibliographic, chemical, 
# crystal, experimental, refinement or atomic coordinate data resulting 
# from the CCDC's data processing and validation procedures.
#
#######################################################################

data_GOMKUP
_chemical_formula_moiety         'C17 H18 N2 O5 S1'
_chemical_name_systematic        
'Methyl 4-(4-ethylbenzamido)-2-sulfamoylbenzoate'
_symmetry_cell_setting           triclinic
_symmetry_space_group_name_H-M   'P -1'
_symmetry_Int_Tables_number      2
_space_group_name_Hall           '-P 1'
loop_
_symmetry_equiv_pos_site_id
_symmetry_equiv_pos_as_xyz
1 x,y,z
2 -x,-y,-z
_cell_length_a                   8.650(3)
_cell_length_b                   8.832(3)
_cell_length_c                   11.619(4)
_cell_angle_alpha                76.445(5)
_cell_angle_beta                 79.684(5)
_cell_angle_gamma                78.770(5)
_cell_volume                     838.079
_exptl_crystal_colour            colorless
_exptl_crystal_description       club
_cell_formula_units_Z            2
_exptl_crystal_recrystallization_method 'ethyl acetate/petroleum ether'
loop_
_atom_site_label
_atom_site_type_symbol
_atom_site_fract_x
_atom_site_fract_y
_atom_site_fract_z
S1 S 0.23439(10) 0.61109(10) 1.17489(8)
O1 O 0.2073(3) -0.0002(3) 0.9137(2)
O2 O 0.2196(3) 0.5720(3) 1.3010(2)
O3 O 0.3884(3) 0.6221(3) 1.1085(2)
O4 O -0.1224(3) 0.6283(3) 1.2637(3)
O5 O -0.1954(3) 0.3957(3) 1.3344(2)
N1 N 0.3424(3) 0.1799(3) 0.9405(2)
N2 N 0.1305(4) 0.7770(3) 1.1359(3)
C1 C 0.8087(9) -0.0781(8) 0.4274(6)
H1 H 0.7077 -0.0955 0.4142
H2 H 0.8909 -0.1151 0.3685
H3 H 0.8062 0.0326 0.4213
C2 C 0.8401(8) -0.1614(7) 0.5433(5)
H4 H 0.9396 -0.1423 0.5602
H5 H 0.8445 -0.2740 0.5516
C3 C 0.6953(5) -0.0918(5) 0.6274(4)
C4 C 0.5821(5) -0.1807(5) 0.6859(4)
H6 H 0.5843 -0.2782 0.6677
C5 C 0.4660(4) -0.1308(4) 0.7703(3)
H7 H 0.3913 -0.1952 0.8097
C6 C 0.4575(4) 0.0143(4) 0.7983(3)
C7 C 0.5694(5) 0.1050(4) 0.7387(3)
H8 H 0.5657 0.2038 0.7553
C8 C 0.6867(5) 0.0530(6) 0.6550(4)
H9 H 0.7622 0.1166 0.6158
C9 C 0.3255(4) 0.0631(4) 0.8885(3)
C10 C 0.2320(3) 0.2509(3) 1.0222(3)
C11 C 0.2650(3) 0.3842(3) 1.0511(3)
H10 H 0.3588 0.4222 1.0151
C12 C 0.1635(3) 0.4605(3) 1.1307(3)
C13 C 0.0200(4) 0.4080(4) 1.1848(3)
C14 C -0.0091(4) 0.2739(4) 1.1569(3)
H11 H -0.1028 0.2355 1.1927
C15 C 0.0934(4) 0.1950(4) 1.0792(3)
H12 H 0.0702 0.1034 1.0644
C16 C -0.1027(4) 0.4917(4) 1.2639(3)
C17 C -0.3234(5) 0.4659(6) 1.4116(4)
H13 H -0.2807 0.5080 1.4661
H14 H -0.3862 0.3873 1.4560
H15 H -0.3888 0.5492 1.3646
H16 H 0.428(3) 0.227(4) 0.915(3)
H17 H 0.0276(17) 0.781(4) 1.166(3)
H18 H 0.151(3) 0.822(4) 1.0590(13)
loop_
_geom_bond_atom_site_label_1
_geom_bond_atom_site_label_2
_geom_bond_site_symmetry_1
_geom_bond_site_symmetry_2
S1 O2 1_555 1_555
O1 C9 1_555 1_555
O3 S1 1_555 1_555
O4 C16 1_555 1_555
O5 C16 1_555 1_555
N1 C9 1_555 1_555
N2 S1 1_555 1_555
C1 H1 1_555 1_555
H2 C1 1_555 1_555
H3 C1 1_555 1_555
C2 C1 1_555 1_555
H4 C2 1_555 1_555
H5 C2 1_555 1_555
C3 C2 1_555 1_555
C4 C3 1_555 1_555
H6 C4 1_555 1_555
C5 C4 1_555 1_555
H7 C5 1_555 1_555
C6 C5 1_555 1_555
C7 C6 1_555 1_555
H8 C7 1_555 1_555
C8 C3 1_555 1_555
H9 C8 1_555 1_555
C9 C6 1_555 1_555
C10 N1 1_555 1_555
C11 C10 1_555 1_555
H10 C11 1_555 1_555
C12 S1 1_555 1_555
C13 C12 1_555 1_555
C14 C13 1_555 1_555
H11 C14 1_555 1_555
C15 C10 1_555 1_555
H12 C15 1_555 1_555
C16 C13 1_555 1_555
C17 O5 1_555 1_555
H13 C17 1_555 1_555
H14 C17 1_555 1_555
H15 C17 1_555 1_555
H16 N1 1_555 1_555
H17 N2 1_555 1_555
H18 N2 1_555 1_555
C7 C8 1_555 1_555
C11 C12 1_555 1_555
C14 C15 1_555 1_555

#END
