
#######################################################################
#
#                 Cambridge Crystallographic Data Centre
#                                CCDC 
#
#######################################################################
#
# If this CIF has been generated from an entry in the Cambridge 
# Structural Database, then it will include bibliographic, chemical, 
# crystal, experimental, refinement or atomic coordinate data resulting 
# from the CCDC's data processing and validation procedures.
#
#######################################################################

data_GOPYIV
_chemical_formula_moiety         'C17 H11 F1 N2'
_chemical_name_systematic        5-(4-fluorophenyl)-5H-pyrido[3,2-b]indole
_symmetry_cell_setting           monoclinic
_symmetry_space_group_name_H-M   'C 2/c'
_symmetry_Int_Tables_number      15
_space_group_name_Hall           '-C 2yn'
loop_
_symmetry_equiv_pos_site_id
_symmetry_equiv_pos_as_xyz
1 x,y,z
2 -x,y,1/2-z
3 1/2+x,1/2+y,z
4 1/2-x,1/2+y,1/2-z
5 -x,-y,-z
6 x,-y,1/2+z
7 1/2-x,1/2-y,-z
8 1/2+x,1/2-y,1/2+z
_cell_length_a                   13.9224(7)
_cell_length_b                   11.0347(5)
_cell_length_c                   16.4227(9)
_cell_angle_alpha                90
_cell_angle_beta                 94.077(2)
_cell_angle_gamma                90
_cell_volume                     2516.63
_exptl_crystal_colour            colorless
_exptl_crystal_description       block
_cell_formula_units_Z            8
loop_
_atom_site_label
_atom_site_type_symbol
_atom_site_fract_x
_atom_site_fract_y
_atom_site_fract_z
N1 N 0.64306(15) 0.8014(2) 0.47293(11)
C1 C 0.5809(2) 0.8804(2) 0.43624(18)
C2 C 0.4894(2) 0.8459(2) 0.4000(2)
C3 C 0.4599(2) 0.7270(3) 0.4007(2)
H1 H 0.3990 0.7019 0.3769
C4 C 0.5247(2) 0.6462(2) 0.43851(15)
H2 H 0.5089 0.5626 0.4407
C5 C 0.61336(19) 0.6869(3) 0.47342(13)
H3 H 0.6554 0.6285 0.4993
C6 C 0.5903(3) 1.0086(2) 0.4221(2)
C7 C 0.6663(2) 1.0904(4) 0.43954(17)
H4 H 0.7246 1.0650 0.4681
C8 C 0.6538(2) 1.2074(3) 0.41418(17)
H5 H 0.7044 1.2643 0.4248
C9 C 0.5670(2) 1.2452(3) 0.3724(2)
H6 H 0.5602 1.3277 0.3565
C10 C 0.4922(3) 1.1670(4) 0.3541(3)
H7 H 0.4336 1.1920 0.3259
C11 C 0.5090(6) 1.0454(7) 0.3804(5)
N2 N 0.4418(5) 0.9496(4) 0.3650(4)
C12 C 0.3393(3) 0.8733(5) 0.2547(3)
H8 H 0.3897 0.8216 0.2399
C13 C 0.2512(3) 0.8730(6) 0.2092(3)
H9 H 0.2415 0.8210 0.1632
C14 C 0.1775(3) 0.9487(6) 0.2309(3)
C15 C 0.1918(4) 1.0248(6) 0.2981(4)
H10 H 0.1413 1.0765 0.3130
C16 C 0.2798(4) 1.0251(6) 0.3437(4)
H11 H 0.2896 1.0770 0.3896
C17 C 0.3536(3) 0.9493(5) 0.3220(3)
F1 F 0.0937(7) 0.9482(8) 0.1881(6)
N3? N 0.6656(7) 1.0370(6) 0.4482(5)
C18? C 0.5900(11) 0.9697(10) 0.4269(8)
C19? C 0.496(2) 1.024(2) 0.3773(16)
C20? C 0.5081(11) 1.1376(13) 0.3583(10)
H12? H 0.4572 1.1752 0.3260
C21? C 0.5899(8) 1.2105(10) 0.3814(7)
H13? H 0.5937 1.2937 0.3671
C22? C 0.6622(8) 1.1520(12) 0.4255(7)
H14? H 0.7170 1.1996 0.4420
C23? C 0.5674(6) 0.8450(6) 0.4355(6)
C24? C 0.6190(4) 0.7524(7) 0.4759(4)
H15? H 0.6804 0.7687 0.5027
C25? C 0.5809(5) 0.6361(6) 0.4771(4)
H16? H 0.6161 0.5728 0.5047
C26? C 0.4911(5) 0.6123(6) 0.4379(5)
H17? H 0.4650 0.5327 0.4387
C27? C 0.4395(5) 0.7048(8) 0.3974(6)
H18? H 0.3781 0.6885 0.3706
C28? C 0.4776(6) 0.8211(7) 0.3962(7)
N4? N 0.4467(16) 0.9224(14) 0.3678(12)
C29? C 0.3468(11) 0.9378(18) 0.3152(11)
C30? C 0.3231(11) 0.8679(17) 0.2471(12)
H19? H 0.3695 0.8140 0.2277
C31? C 0.2357(14) 0.8746(19) 0.2081(10)
H20? H 0.2147 0.8249 0.1631
C32? C 0.1820(10) 0.959(2) 0.2397(12)
C33? C 0.1957(12) 1.034(2) 0.2999(12)
H21? H 0.1497 1.0927 0.3130
C34? C 0.2832(12) 1.0196(15) 0.3434(9)
H22? H 0.2990 1.0653 0.3915
F2? F 0.085(2) 0.968(2) 0.194(2)
loop_
_geom_bond_atom_site_label_1
_geom_bond_atom_site_label_2
_geom_bond_site_symmetry_1
_geom_bond_site_symmetry_2
N1 C1 1_555 1_555
C1 C2 1_555 1_555
C2 C3 1_555 1_555
C3 H1 1_555 1_555
C4 C3 1_555 1_555
H2 C4 1_555 1_555
C5 N1 1_555 1_555
H3 C5 1_555 1_555
C6 C1 1_555 1_555
C7 C6 1_555 1_555
H4 C7 1_555 1_555
C8 C7 1_555 1_555
H5 C8 1_555 1_555
C9 C8 1_555 1_555
H6 C9 1_555 1_555
C10 C9 1_555 1_555
H7 C10 1_555 1_555
C11 C6 1_555 1_555
N2 C2 1_555 1_555
C12 H8 1_555 1_555
C13 C12 1_555 1_555
H9 C13 1_555 1_555
C14 C13 1_555 1_555
C15 C14 1_555 1_555
H10 C15 1_555 1_555
C16 C15 1_555 1_555
H11 C16 1_555 1_555
C17 N2 1_555 1_555
F1 C14 1_555 1_555
C4 C5 1_555 1_555
C10 C11 1_555 1_555
C11 N2 1_555 1_555
C12 C17 1_555 1_555
C16 C17 1_555 1_555

#END
