
#######################################################################
#
#                 Cambridge Crystallographic Data Centre
#                                CCDC 
#
#######################################################################
#
# If this CIF has been generated from an entry in the Cambridge 
# Structural Database, then it will include bibliographic, chemical, 
# crystal, experimental, refinement or atomic coordinate data resulting 
# from the CCDC's data processing and validation procedures.
#
#######################################################################

data_GOQMUU
_chemical_formula_moiety         'C25 H21 N1 O2'
_chemical_name_systematic        
3-Acetyl-1,6-diphenyl-7,8-benzo-3-aza-tricyclo(4.2.1.0^2,5^)non-7-ene
_symmetry_cell_setting           triclinic
_symmetry_space_group_name_H-M   'P -1'
_symmetry_Int_Tables_number      2
_space_group_name_Hall           '-P 1'
loop_
_symmetry_equiv_pos_site_id
_symmetry_equiv_pos_as_xyz
1 x,y,z
2 -x,-y,-z
_cell_length_a                   7.5633(3)
_cell_length_b                   8.6086(3)
_cell_length_c                   15.5578(5)
_cell_angle_alpha                80.668(3)
_cell_angle_beta                 85.332(3)
_cell_angle_gamma                76.203(3)
_cell_volume                     969.748
_exptl_crystal_description       prism
_cell_formula_units_Z            2
loop_
_atom_site_label
_atom_site_type_symbol
_atom_site_fract_x
_atom_site_fract_y
_atom_site_fract_z
O1 O 0.5159(2) 0.58747(15) 0.71114(8)
C1 C 0.5911(2) 0.6276(2) 0.78572(12)
C2 C 0.7725(3) 0.5138(2) 0.80600(13)
C3 C 0.8363(3) 0.4797(3) 0.88900(14)
H1 H 0.7648(3) 0.5244(3) 0.93433(14)
C4 C 1.0066(3) 0.3790(3) 0.9054(2)
H2 H 1.0489(3) 0.3578(3) 0.9615(2)
C5 C 1.1125(3) 0.3108(3) 0.8399(2)
H3 H 1.2259(3) 0.2421(3) 0.8513(2)
C6 C 1.0502(3) 0.3445(3) 0.7575(2)
H4 H 1.1217(3) 0.2986(3) 0.7125(2)
C7 C 0.8818(3) 0.4462(3) 0.7404(2)
H5 H 0.8418(3) 0.4692(3) 0.6838(2)
C8 C 0.5888(2) 0.8050(2) 0.75548(12)
C9 C 0.6920(3) 0.9054(2) 0.77472(15)
H6 H 0.7871(3) 0.8673(2) 0.81255(15)
C10 C 0.6492(3) 1.0656(3) 0.7357(2)
H7 H 0.7175(3) 1.1360(3) 0.7470(2)
C11 C 0.5072(3) 1.1220(3) 0.6805(2)
H8 H 0.4825(3) 1.2295(3) 0.6543(2)
C12 C 0.4005(3) 1.0216(3) 0.6633(2)
H9 H 0.3032(3) 1.0605(3) 0.6268(2)
C13 C 0.4424(2) 0.8624(2) 0.70179(12)
C14 C 0.3550(2) 0.7205(2) 0.70272(12)
C15 C 0.2459(3) 0.7194(2) 0.62674(12)
C16 C 0.3164(4) 0.6354(4) 0.5609(2)
H10 H 0.4368(4) 0.5768(4) 0.5618(2)
C17 C 0.2117(5) 0.6357(5) 0.4925(2)
H11 H 0.2628(5) 0.5777(5) 0.4475(2)
C18 C 0.0366(4) 0.7183(4) 0.4896(2)
H12 H -0.0333(4) 0.7164(4) 0.4434(2)
C19 C -0.0360(4) 0.8036(4) 0.5541(2)
H13 H -0.1567(4) 0.8616(4) 0.5528(2)
C20 C 0.0695(3) 0.8048(4) 0.6222(2)
H14 H 0.0188(3) 0.8654(4) 0.6662(2)
C21 C 0.2615(3) 0.6855(2) 0.79434(12)
H15 H 0.1829(3) 0.6091(2) 0.79711(12)
C22 C 0.1890(3) 0.8191(3) 0.85132(13)
H16 H 0.1785(3) 0.9278(3) 0.82007(13)
H17 H 0.0774(3) 0.8089(3) 0.88484(13)
N1 N 0.3539(2) 0.7580(2) 0.90134(10)
C23 C 0.4073(3) 0.7936(2) 0.97400(13)
O2 O 0.5513(2) 0.7186(2) 1.00660(10)
C24 C 0.2806(3) 0.9281(3) 1.0138(2)
H18 H 0.2865(17) 0.9056(10) 1.0761(2)
H19 H 0.1583(5) 0.9367(13) 0.9979(9)
H20 H 0.3159(14) 1.0280(4) 0.9929(9)
C25 C 0.4268(3) 0.6221(2) 0.85283(12)
H21 H 0.4306(3) 0.5155(2) 0.88725(12)
loop_
_geom_bond_atom_site_label_1
_geom_bond_atom_site_label_2
_geom_bond_site_symmetry_1
_geom_bond_site_symmetry_2
O1 C1 1_555 1_555
C1 C2 1_555 1_555
C2 C3 1_555 1_555
C3 H1 1_555 1_555
C4 C3 1_555 1_555
H2 C4 1_555 1_555
C5 C4 1_555 1_555
H3 C5 1_555 1_555
C6 C5 1_555 1_555
H4 C6 1_555 1_555
C7 C2 1_555 1_555
H5 C7 1_555 1_555
C8 C1 1_555 1_555
C9 C8 1_555 1_555
H6 C9 1_555 1_555
C10 C9 1_555 1_555
H7 C10 1_555 1_555
C11 C10 1_555 1_555
H8 C11 1_555 1_555
C12 C11 1_555 1_555
H9 C12 1_555 1_555
C13 C8 1_555 1_555
C14 O1 1_555 1_555
C15 C14 1_555 1_555
C16 C15 1_555 1_555
H10 C16 1_555 1_555
C17 C16 1_555 1_555
H11 C17 1_555 1_555
C18 C17 1_555 1_555
H12 C18 1_555 1_555
C19 C18 1_555 1_555
H13 C19 1_555 1_555
C20 C15 1_555 1_555
H14 C20 1_555 1_555
C21 C14 1_555 1_555
H15 C21 1_555 1_555
C22 C21 1_555 1_555
H16 C22 1_555 1_555
H17 C22 1_555 1_555
N1 C22 1_555 1_555
C23 N1 1_555 1_555
O2 C23 1_555 1_555
C24 C23 1_555 1_555
H18 C24 1_555 1_555
H19 C24 1_555 1_555
H20 C24 1_555 1_555
C25 C1 1_555 1_555
H21 C25 1_555 1_555
C6 C7 1_555 1_555
C12 C13 1_555 1_555
C13 C14 1_555 1_555
C19 C20 1_555 1_555
C21 C25 1_555 1_555
N1 C25 1_555 1_555

#END
