
#######################################################################
#
#                 Cambridge Crystallographic Data Centre
#                                CCDC 
#
#######################################################################
#
# If this CIF has been generated from an entry in the Cambridge 
# Structural Database, then it will include bibliographic, chemical, 
# crystal, experimental, refinement or atomic coordinate data resulting 
# from the CCDC's data processing and validation procedures.
#
#######################################################################

data_GORQUB
_chemical_name_common            
(E)-N-(5-Chloro-2-(phenylethynyl)phenyl)-N-tosylhept-2-enamide
_chemical_formula_moiety         'C28 H26 Cl1 N1 O3 S1'
_chemical_name_systematic        
(E)-N-(5-chloro-2-(phenylethynyl)phenyl)-N-((4-methylphenyl)sulfonyl)hept-2-enamide
_symmetry_cell_setting           monoclinic
_symmetry_space_group_name_H-M   'C 2/c'
_symmetry_Int_Tables_number      15
_space_group_name_Hall           '-C 2yn'
loop_
_symmetry_equiv_pos_site_id
_symmetry_equiv_pos_as_xyz
1 x,y,z
2 -x,y,1/2-z
3 1/2+x,1/2+y,z
4 1/2-x,1/2+y,1/2-z
5 -x,-y,-z
6 x,-y,1/2+z
7 1/2-x,1/2-y,-z
8 1/2+x,1/2-y,1/2+z
_cell_length_a                   32.266(3)
_cell_length_b                   7.8051(7)
_cell_length_c                   20.2398(18)
_cell_angle_alpha                90
_cell_angle_beta                 98.089(2)
_cell_angle_gamma                90
_cell_volume                     5046.46
_exptl_crystal_colour            colorless
_exptl_crystal_description       prismatic
_cell_formula_units_Z            8
_exptl_crystal_recrystallization_method 'methyl acetate/petroleum ether'
loop_
_atom_site_label
_atom_site_type_symbol
_atom_site_fract_x
_atom_site_fract_y
_atom_site_fract_z
S1 S 0.16555(2) -0.30998(8) 0.06030(3)
Cl1 Cl 0.26050(2) 0.14718(9) 0.24872(3)
N1 N 0.14939(5) -0.1068(2) 0.07189(8)
O1 O 0.08301(5) -0.1655(3) 0.02503(10)
O2 O 0.13863(6) -0.4215(2) 0.08879(8)
O3 O 0.20893(5) -0.3068(2) 0.08591(8)
C1 C 0.10705(8) -0.0638(4) 0.05376(12)
C2 C 0.09481(9) 0.1077(4) 0.07452(13)
H1 H 0.1147 0.1720 0.1017
C3 C 0.05852(12) 0.1740(6) 0.0576(2)
C4 C 0.04651(18) 0.3559(8) 0.0802(3)
H2 H 0.0707 0.4090 0.1060
H3 H 0.0380 0.4265 0.0413
C5 C 0.01188(19) 0.3464(8) 0.1213(3)
H4 H 0.0182 0.2562 0.1541
H5 H -0.0135 0.3141 0.0925
C6 C 0.0034(3) 0.5145(10) 0.1582(4)
H6 H -0.0208 0.4975 0.1810
H7 H 0.0272 0.5378 0.1919
C7 C -0.0037(3) 0.6579(10) 0.1165(5)
H8 H 0.0183 0.6671 0.0893
H9 H -0.0042 0.7594 0.1432
H10 H -0.0301 0.6455 0.0884
C8 C 0.18082(7) 0.0224(3) 0.08907(10)
C9 C 0.20265(6) 0.0256(3) 0.15258(10)
H11 H 0.1971 -0.0547 0.1841
C10 C 0.23270(7) 0.1484(3) 0.16883(11)
C11 C 0.24073(8) 0.2709(3) 0.12409(12)
H12 H 0.2608 0.3549 0.1362
C12 C 0.21853(8) 0.2681(3) 0.06057(12)
H13 H 0.2237 0.3516 0.0300
C13 C 0.18877(7) 0.1435(3) 0.04160(10)
C14 C 0.16603(8) 0.1374(3) -0.02450(12)
C15 C 0.14596(8) 0.1244(3) -0.07857(12)
C16 C 0.12116(8) 0.1024(3) -0.14218(11)
C17 C 0.13228(9) 0.1762(4) -0.19869(12)
H14 H 0.1567 0.2405 -0.1962
C18 C 0.10698(11) 0.1549(4) -0.25974(13)
H15 H 0.1143 0.2066 -0.2978
C19 C 0.07163(11) 0.0589(5) -0.26390(16)
H16 H 0.0549 0.0440 -0.3048
C20 C 0.06070(10) -0.0151(5) -0.20834(17)
H17 H 0.0364 -0.0803 -0.2114
C21 C 0.08504(9) 0.0049(4) -0.14745(13)
H18 H 0.0772 -0.0472 -0.1098
C22 C 0.15990(7) -0.3381(3) -0.02607(11)
C23 C 0.19118(7) -0.2811(3) -0.06054(12)
H19 H 0.2155 -0.2340 -0.0376
C24 C 0.18633(8) -0.2940(4) -0.12830(13)
H20 H 0.2077 -0.2564 -0.1511
C25 C 0.15047(9) -0.3613(3) -0.16394(13)
C26 C 0.12032(8) -0.4236(4) -0.12816(14)
H21 H 0.0965 -0.4749 -0.1510
C27 C 0.12449(8) -0.4119(4) -0.06022(12)
H22 H 0.1036 -0.4535 -0.0372
C28 C 0.14425(10) -0.3615(5) -0.23899(13)
H23 H 0.1248 -0.4501 -0.2552
H24 H 0.1706 -0.3821 -0.2546
H25 H 0.1334 -0.2524 -0.2551
H26 H 0.0402(5) 0.078(2) 0.0522(8)
C29? C 0.0210(4) 0.260(3) 0.0756(10)
H27? H 0.0029 0.1828 0.0959
H28? H 0.0051 0.3197 0.0383
C30? C 0.0447(6) 0.378(2) 0.1246(11)
H29? H 0.0707 0.4039 0.1075
H30? H 0.0524 0.3121 0.1651
C31? C 0.0265(5) 0.567(3) 0.1489(11)
H31? H 0.0250 0.5727 0.1964
H32? H 0.0416 0.6653 0.1349
C32? C -0.0137(5) 0.541(3) 0.1089(13)
H33? H -0.0106 0.4658 0.0725
H34? H -0.0246 0.6494 0.0917
H35? H -0.0328 0.4915 0.1359
loop_
_geom_bond_atom_site_label_1
_geom_bond_atom_site_label_2
_geom_bond_site_symmetry_1
_geom_bond_site_symmetry_2
S1 N1 1_555 1_555
Cl1 C10 1_555 1_555
N1 C1 1_555 1_555
O1 C1 1_555 1_555
O2 S1 1_555 1_555
O3 S1 1_555 1_555
C1 C2 1_555 1_555
C2 H1 1_555 1_555
C3 C2 1_555 1_555
C4 C3 1_555 1_555
H2 C4 1_555 1_555
H3 C4 1_555 1_555
C5 C4 1_555 1_555
H4 C5 1_555 1_555
H5 C5 1_555 1_555
C6 C5 1_555 1_555
H6 C6 1_555 1_555
H7 C6 1_555 1_555
C7 C6 1_555 1_555
H8 C7 1_555 1_555
H9 C7 1_555 1_555
H10 C7 1_555 1_555
C8 N1 1_555 1_555
C9 C8 1_555 1_555
H11 C9 1_555 1_555
C10 C9 1_555 1_555
C11 C10 1_555 1_555
H12 C11 1_555 1_555
C12 C11 1_555 1_555
H13 C12 1_555 1_555
C13 C8 1_555 1_555
C14 C13 1_555 1_555
C15 C14 1_555 1_555
C16 C15 1_555 1_555
C17 C16 1_555 1_555
H14 C17 1_555 1_555
C18 C17 1_555 1_555
H15 C18 1_555 1_555
C19 C18 1_555 1_555
H16 C19 1_555 1_555
C20 C19 1_555 1_555
H17 C20 1_555 1_555
C21 C16 1_555 1_555
H18 C21 1_555 1_555
C22 S1 1_555 1_555
C23 C22 1_555 1_555
H19 C23 1_555 1_555
C24 C23 1_555 1_555
H20 C24 1_555 1_555
C25 C24 1_555 1_555
C26 C25 1_555 1_555
H21 C26 1_555 1_555
C27 C22 1_555 1_555
H22 C27 1_555 1_555
C28 C25 1_555 1_555
H23 C28 1_555 1_555
H24 C28 1_555 1_555
H25 C28 1_555 1_555
H26 C3 1_555 1_555
C12 C13 1_555 1_555
C20 C21 1_555 1_555
C26 C27 1_555 1_555

#END
