
#######################################################################
#
#                 Cambridge Crystallographic Data Centre
#                                CCDC 
#
#######################################################################
#
# If this CIF has been generated from an entry in the Cambridge 
# Structural Database, then it will include bibliographic, chemical, 
# crystal, experimental, refinement or atomic coordinate data resulting 
# from the CCDC's data processing and validation procedures.
#
#######################################################################

data_GOSPOL10
_chemical_formula_moiety         'C30 H30 O8,C2 H4 O2'
_chemical_name_systematic        'Gossypol acetic acid clathrate'
_chemical_properties_biological  'male contraceptive activity'
_symmetry_cell_setting           triclinic
_symmetry_space_group_name_H-M   'P -1'
_symmetry_Int_Tables_number      2
_space_group_name_Hall           '-P 1'
loop_
_symmetry_equiv_pos_site_id
_symmetry_equiv_pos_as_xyz
1 x,y,z
2 -x,-y,-z
_cell_length_a                   14.278(7)
_cell_length_b                   6.924(5)
_cell_length_c                   14.706(6)
_cell_angle_alpha                91.90(5)
_cell_angle_beta                 92.34(3)
_cell_angle_gamma                98.71(5)
_cell_volume                     1434.74
_exptl_crystal_colour            yellow
_chemical_melting_point          186-188deg.C
_cell_formula_units_Z            2
loop_
_atom_site_label
_atom_site_type_symbol
_atom_site_fract_x
_atom_site_fract_y
_atom_site_fract_z
O1 O 0.4316(2) -0.0456(4) 1.1463(1)
O2 O 0.4623(2) 0.2203(4) 1.0256(2)
O3 O 0.4044(2) 0.4069(4) 0.8994(2)
O4 O 0.1716(2) 0.0987(4) 0.7970(2)
O5 O 0.1294(2) -0.2725(4) 0.6476(2)
O6 O 0.0969(2) -0.2576(5) 0.3846(2)
O7 O -0.0721(2) -0.2616(5) 0.3497(1)
O8 O -0.2490(2) -0.2838(5) 0.3986(2)
C1 C 0.2937(3) -0.2042(6) 1.0632(2)
C2 C 0.3684(3) -0.0568(6) 1.0735(2)
C3 C 0.3834(3) 0.0923(6) 1.0095(2)
C4 C 0.3171(3) 0.1084(6) 0.9389(2)
C5 C 0.2385(2) -0.0491(5) 0.9236(2)
C6 C 0.2310(2) -0.2092(6) 0.9826(2)
C7 C 0.1617(3) -0.3751(6) 0.9616(2)
C8 C 0.0966(2) -0.3819(6) 0.8891(2)
C9 C 0.0983(2) -0.2174(6) 0.8351(2)
C10 C 0.1683(2) -0.0584(6) 0.8520(2)
C11 C -0.1404(3) -0.1968(6) 0.7178(2)
C12 C -0.0692(3) -0.1806(6) 0.7852(2)
C13 C 0.0226(2) -0.2117(6) 0.7615(2)
C14 C 0.0422(2) -0.2421(6) 0.6709(2)
C15 C -0.0283(3) -0.2416(6) 0.5992(2)
C16 C -0.1222(3) -0.2314(6) 0.6246(2)
C17 C -0.2001(3) -0.2562(7) 0.5563(3)
C18 C -0.1779(3) -0.2665(7) 0.4673(3)
C19 C -0.0843(3) -0.2593(6) 0.4405(2)
C20 C -0.0080(3) -0.2525(6) 0.5037(2)
C21 C 0.0852(3) -0.2476(7) 0.4680(3)
C22 C 0.3316(3) 0.2839(6) 0.8880(3)
C23 C 0.2744(3) -0.3555(6) 1.1361(2)
C24 C 0.2516(4) -0.2592(9) 1.2262(3)
C25 C 0.3560(4) -0.4762(8) 1.1492(4)
C26 C 0.0258(3) -0.5651(6) 0.8680(2)
C27 C -0.0900(3) -0.1311(7) 0.8827(3)
C28 C -0.3025(3) -0.2731(9) 0.5839(3)
C29 C -0.3604(4) -0.4700(9) 0.5489(8)
C30 C -0.3484(5) -0.0928(9) 0.5543(5)
H1 H 0.1605 -0.4979 0.9972
H2 H -0.2062 -0.1827 0.7389
H3 H 0.1472 -0.2021 0.5116
H4 H 0.2773 0.3210 0.8496
H5 H 0.2160 -0.4506 1.1204
H6 H 0.2339 -0.3443 1.2665
H7 H 0.2937 -0.1391 1.2432
H8 H 0.1889 -0.2060 1.2094
H9 H 0.3797 -0.5057 1.0868
H10 H 0.3791 -0.4047 1.2046
H11 H 0.3257 -0.6111 1.1798
H12 H 0.0457 -0.6202 0.8141
H13 H 0.0189 -0.6468 0.9158
H14 H -0.0443 -0.5443 0.8774
H15 H -0.0736 -0.2394 0.9229
H16 H -0.1589 -0.1228 0.8956
H17 H -0.0432 -0.0144 0.9008
H18 H -0.3084 -0.2941 0.6513
H19 H -0.3662 -0.4646 0.4750
H20 H -0.4171 -0.4730 0.5781
H21 H -0.3245 -0.5807 0.5616
H22 H -0.4165 -0.0993 0.5845
H23 H -0.3509 -0.0872 0.4914
H24 H 0.4680 0.0543 1.1473
H25 H 0.4750 0.2999 0.9729
H26 H 0.1268 0.0789 0.7591
H27 H 0.1567 -0.3056 0.6970
H28 H -0.0039 -0.2468 0.3377
H29 H -0.2267 -0.3225 0.3572
O9 O 0.4290(2) 0.7179(5) 0.7985(2)
O10 O 0.2820(2) 0.6126(5) 0.7459(2)
C31 C 0.3539(3) 0.7299(7) 0.7453(3)
C32 C 0.3683(3) 0.9048(9) 0.6866(4)
H30 H 0.4184 0.9744 0.6958
H31 H 0.3145 0.9360 0.6709
H32 H 0.3654 0.7811 0.6496
H33 H 0.4215 0.6299 0.8307
loop_
_geom_bond_atom_site_label_1
_geom_bond_atom_site_label_2
_geom_bond_site_symmetry_1
_geom_bond_site_symmetry_2
O1 C2 1_555 1_555
O2 C3 1_555 1_555
O3 C22 1_555 1_555
O4 C10 1_555 1_555
O5 C14 1_555 1_555
O6 C21 1_555 1_555
O7 C19 1_555 1_555
O8 C18 1_555 1_555
C1 C2 1_555 1_555
C2 C3 1_555 1_555
C3 C4 1_555 1_555
C4 C5 1_555 1_555
C5 C6 1_555 1_555
C6 C1 1_555 1_555
C7 C6 1_555 1_555
C8 C7 1_555 1_555
C9 C8 1_555 1_555
C10 C5 1_555 1_555
C11 C12 1_555 1_555
C12 C13 1_555 1_555
C13 C9 1_555 1_555
C14 C13 1_555 1_555
C15 C14 1_555 1_555
C16 C11 1_555 1_555
C17 C16 1_555 1_555
C18 C17 1_555 1_555
C19 C18 1_555 1_555
C20 C15 1_555 1_555
C21 C20 1_555 1_555
C22 C4 1_555 1_555
C23 C1 1_555 1_555
C24 C23 1_555 1_555
C25 C23 1_555 1_555
C26 C8 1_555 1_555
C27 C12 1_555 1_555
C28 C17 1_555 1_555
C29 C28 1_555 1_555
C30 C28 1_555 1_555
H1 C7 1_555 1_555
H2 C11 1_555 1_555
H3 C21 1_555 1_555
H4 C22 1_555 1_555
H5 C23 1_555 1_555
H6 C24 1_555 1_555
H7 C24 1_555 1_555
H8 C24 1_555 1_555
H9 C25 1_555 1_555
H10 C25 1_555 1_555
H11 C25 1_555 1_555
H12 C26 1_555 1_555
H13 C26 1_555 1_555
H14 C26 1_555 1_555
H15 C27 1_555 1_555
H16 C27 1_555 1_555
H17 C27 1_555 1_555
H18 C28 1_555 1_555
H19 C29 1_555 1_555
H20 C29 1_555 1_555
H21 C29 1_555 1_555
H22 C30 1_555 1_555
H23 C30 1_555 1_555
H24 O1 1_555 1_555
H25 O2 1_555 1_555
H26 O4 1_555 1_555
H27 O5 1_555 1_555
H28 O7 1_555 1_555
H29 O8 1_555 1_555
O9 C31 1_555 1_555
O10 C31 1_555 1_555
C31 C32 1_555 1_555
C32 H30 1_555 1_555
H31 C32 1_555 1_555
H32 C32 1_555 1_555
H33 O9 1_555 1_555
C9 C10 1_555 1_555
C15 C16 1_555 1_555
C19 C20 1_555 1_555

#END
