
#######################################################################
#
#                 Cambridge Crystallographic Data Centre
#                                CCDC 
#
#######################################################################
#
# If this CIF has been generated from an entry in the Cambridge 
# Structural Database, then it will include bibliographic, chemical, 
# crystal, experimental, refinement or atomic coordinate data resulting 
# from the CCDC's data processing and validation procedures.
#
#######################################################################

data_GOVFUS
_chemical_formula_moiety         'C14 H15 Br3'
_chemical_name_systematic        
1,10,14-Tribromohexacyclo(9.2.1.0^2,7^.0^3,5^.0^4,8^.0^9,13^)tetradecane
_symmetry_cell_setting           monoclinic
_symmetry_space_group_name_H-M   'P 21/n'
_symmetry_Int_Tables_number      14
_space_group_name_Hall           '-P 2yn'
loop_
_symmetry_equiv_pos_site_id
_symmetry_equiv_pos_as_xyz
1 x,y,z
2 1/2-x,1/2+y,1/2-z
3 -x,-y,-z
4 1/2+x,1/2-y,1/2+z
_cell_length_a                   14.427(8)
_cell_length_b                   12.772(4)
_cell_length_c                   15.469(9)
_cell_angle_alpha                90
_cell_angle_beta                 111.69(4)
_cell_angle_gamma                90
_cell_volume                     2648.53
_chemical_melting_point          '108-109 deg.C'
_cell_formula_units_Z            8
loop_
_atom_site_label
_atom_site_type_symbol
_atom_site_fract_x
_atom_site_fract_y
_atom_site_fract_z
Br1 Br 0.4321(1) 0.1975(1) 0.1192(1)
Br2 Br 0.3727(1) 0.2696(1) -0.0994(1)
Br3 Br 0.7497(1) 0.4634(1) 0.0068(1)
C1 C 0.5453(7) 0.2104(9) 0.0769(7)
C2 C 0.6006(7) 0.1039(9) 0.0977(7)
C3 C 0.6448(8) 0.0650(9) 0.0284(7)
C4 C 0.7479(8) 0.1169(9) 0.0565(7)
C5 C 0.7375(9) 0.0064(10) 0.0823(9)
C6 C 0.7475(9) 0.0062(11) 0.1852(8)
C7 C 0.6993(8) 0.1125(8) 0.1813(7)
C8 C 0.7580(7) 0.1868(10) 0.1366(7)
C9 C 0.7109(8) 0.2944(9) 0.1173(7)
C10 C 0.6787(8) 0.3341(9) 0.0151(7)
C11 C 0.5676(9) 0.3576(9) -0.0145(7)
C12 C 0.5600(8) 0.3981(10) 0.0750(8)
C13 C 0.6104(8) 0.3028(9) 0.1317(7)
C14 C 0.5142(8) 0.2503(9) -0.0263(7)
Br4 Br 0.2330(1) 0.0471(1) 0.1662(1)
Br5 Br 0.0013(1) 0.4450(1) 0.2441(1)
Br6 Br 0.0444(1) 0.0055(1) 0.2341(1)
C15 C 0.1264(7) 0.1542(10) 0.1275(7)
C16 C 0.0888(8) 0.1633(9) 0.0182(7)
C17 C -0.0203(8) 0.1851(10) -0.0329(7)
C18 C -0.0328(9) 0.2990(11) -0.0312(8)
C19 C -0.0274(9) 0.2511(11) -0.1174(7)
C20 C 0.0761(10) 0.2674(12) -0.1139(9)
C21 C 0.1279(9) 0.2664(11) -0.0070(8)
C22 C 0.0671(9) 0.3469(9) 0.0216(8)
C23 C 0.1001(7) 0.3454(9) 0.1302(7)
C24 C 0.0171(8) 0.3236(10) 0.1709(7)
C25 C 0.0520(8) 0.2295(10) 0.2336(7)
C26 C 0.1655(8) 0.2460(11) 0.2716(8)
C27 C 0.1729(8) 0.2545(10) 0.1762(8)
C28 C 0.0421(9) 0.1351(9) 0.1674(7)
loop_
_geom_bond_atom_site_label_1
_geom_bond_atom_site_label_2
_geom_bond_site_symmetry_1
_geom_bond_site_symmetry_2
Br1 C1 1_555 1_555
Br2 C14 1_555 1_555
Br3 C10 1_555 1_555
C1 C2 1_555 1_555
C2 C3 1_555 1_555
C3 C4 1_555 1_555
C4 C5 1_555 1_555
C5 C3 1_555 1_555
C6 C5 1_555 1_555
C7 C2 1_555 1_555
C8 C4 1_555 1_555
C9 C8 1_555 1_555
C10 C9 1_555 1_555
C11 C10 1_555 1_555
C12 C11 1_555 1_555
C13 C1 1_555 1_555
C14 C1 1_555 1_555
Br4 C15 1_555 1_555
Br5 C24 1_555 1_555
Br6 C28 1_555 1_555
C15 C16 1_555 1_555
C16 C17 1_555 1_555
C17 C18 1_555 1_555
C18 C19 1_555 1_555
C19 C17 1_555 1_555
C20 C19 1_555 1_555
C21 C16 1_555 1_555
C22 C18 1_555 1_555
C23 C22 1_555 1_555
C24 C23 1_555 1_555
C25 C24 1_555 1_555
C26 C25 1_555 1_555
C27 C15 1_555 1_555
C28 C15 1_555 1_555
C6 C7 1_555 1_555
C7 C8 1_555 1_555
C9 C13 1_555 1_555
C11 C14 1_555 1_555
C12 C13 1_555 1_555
C20 C21 1_555 1_555
C21 C22 1_555 1_555
C23 C27 1_555 1_555
C25 C28 1_555 1_555
C26 C27 1_555 1_555

#END
