
#######################################################################
#
#                 Cambridge Crystallographic Data Centre
#                                CCDC 
#
#######################################################################
#
# If this CIF has been generated from an entry in the Cambridge 
# Structural Database, then it will include bibliographic, chemical, 
# crystal, experimental, refinement or atomic coordinate data resulting 
# from the CCDC's data processing and validation procedures.
#
#######################################################################

data_GOVTOC
_chemical_formula_moiety         'C27 H32 O6,C1 H4 O1'
_chemical_name_systematic        
"2-hydroxy-2',6,7',11'-tetramethyl-6'-oxospiro[1-benzofuran-3,14'-[5]oxatetracyclo[10.2.1.0^1,10^.0^4,8^]pentadec[10]en]-15'-yl acetate methanol solvate"
_symmetry_cell_setting           orthorhombic
_symmetry_space_group_name_H-M   'P 21 21 21'
_symmetry_Int_Tables_number      19
_space_group_name_Hall           'P 2ac 2ab'
loop_
_symmetry_equiv_pos_site_id
_symmetry_equiv_pos_as_xyz
1 x,y,z
2 1/2+x,1/2-y,-z
3 -x,1/2+y,1/2-z
4 1/2-x,-y,1/2+z
_cell_length_a                   8.7072(2)
_cell_length_b                   16.5203(4)
_cell_length_c                   17.3249(4)
_cell_angle_alpha                90
_cell_angle_beta                 90
_cell_angle_gamma                90
_cell_volume                     2492.11
_exptl_crystal_colour            colorless
_exptl_crystal_description       block
_cell_formula_units_Z            4
loop_
_atom_site_label
_atom_site_type_symbol
_atom_site_fract_x
_atom_site_fract_y
_atom_site_fract_z
O1 O 0.8402(2) 1.04134(12) 0.70390(12)
O2 O 0.6302(2) 1.12732(13) 0.70362(12)
H1 H 0.6641 1.1636 0.6743
O3 O 0.6887(3) 1.20275(12) 0.87850(12)
O4 O 0.8404(3) 1.27879(14) 0.95425(15)
O5 O 1.1735(3) 0.87451(17) 0.87585(14)
O6 O 1.1957(4) 0.7406(2) 0.87036(17)
C1 C 0.7435(4) 0.82493(18) 0.69434(18)
C2 C 0.6457(3) 0.82302(18) 0.75830(18)
H2 H 0.5970 0.7736 0.7718
C3 C 0.6179(3) 0.89155(18) 0.80267(16)
H3 H 0.5499 0.8893 0.8455
C4 C 0.6911(3) 0.96342(17) 0.78344(16)
C5 C 0.7828(3) 0.96529(18) 0.71836(16)
C6 C 0.8127(4) 0.89823(19) 0.67361(17)
H4 H 0.8783 0.9016 0.6299
C7 C 0.6855(3) 1.04735(17) 0.81854(16)
C8 C 0.7496(3) 1.09753(17) 0.74948(16)
H5 H 0.8153 1.1430 0.7686
C9 C 0.5204(3) 1.07163(18) 0.84430(17)
H6 H 0.4835 1.1192 0.8149
H7 H 0.4477 1.0263 0.8365
C10 C 0.7705(5) 0.7503(2) 0.6460(2)
H8 H 0.7824 0.7032 0.6798
H9 H 0.8640 0.7574 0.6152
H10 H 0.6827 0.7419 0.6115
C11 C 0.7653(4) 1.27109(18) 0.89695(19)
C12 C 0.7418(5) 1.3346(2) 0.8366(2)
H11 H 0.6509 1.3669 0.8494
H12 H 0.7270 1.3087 0.7863
H13 H 0.8322 1.3699 0.8345
C13 C 0.7830(3) 1.06096(17) 0.89755(17)
C14 C 0.6921(4) 1.13412(18) 0.93048(16)
H14 H 0.7266 1.1494 0.9836
C15 C 0.5369(3) 1.09190(19) 0.93056(17)
H15 H 0.4503 1.1235 0.9536
C16 C 0.5803(3) 1.01531(18) 0.97300(17)
C17 C 0.7260(3) 0.99678(17) 0.95478(16)
C18 C 0.8136(3) 0.92352(17) 0.98331(17)
H16 H 0.7388 0.8818 0.9997
H17 H 0.8739 0.9394 1.0293
C19 C 0.9219(3) 0.88617(18) 0.92442(18)
H18 H 0.8663 0.8836 0.8740
C20 C 1.0681(3) 0.9340(2) 0.91185(18)
H19 H 1.1106 0.9514 0.9629
C21 C 1.0555(3) 1.0064(2) 0.85941(19)
H20 H 1.0096 0.9890 0.8098
H21 H 1.1600 1.0270 0.8484
C22 C 0.9587(3) 1.07576(18) 0.89277(18)
H22 H 0.9731 1.1229 0.8573
C23 C 0.9844(4) 0.8010(2) 0.9418(2)
H23 H 0.9100 0.7590 0.9237
C24 C 1.1266(5) 0.7996(2) 0.8924(2)
C25 C 1.0300(5) 0.7846(2) 1.0263(2)
H24 H 1.0831 0.7324 1.0297
H25 H 0.9376 0.7834 1.0585
H26 H 1.0985 0.8277 1.0444
C26 C 1.0232(4) 1.10192(19) 0.9713(2)
H27 H 0.9906 1.0633 1.0110
H28 H 0.9846 1.1560 0.9842
H29 H 1.1356 1.1032 0.9689
C27 C 0.4681(4) 0.9685(2) 1.01963(19)
H30 H 0.3982 0.9393 0.9851
H31 H 0.4089 1.0057 1.0522
H32 H 0.5231 0.9297 1.0523
C28 C 0.2553(6) 0.0837(5) 0.6783(3)
H33 H 0.3022 0.1130 0.7215
H34 H 0.1848 0.0426 0.6984
H35 H 0.1985 0.1218 0.6457
O7 O 0.3700(4) 0.0463(2) 0.63481(18)
H36 H 0.4541 0.0496 0.6583
loop_
_geom_bond_atom_site_label_1
_geom_bond_atom_site_label_2
_geom_bond_site_symmetry_1
_geom_bond_site_symmetry_2
O1 C5 1_555 1_555
O2 H1 1_555 1_555
O3 C11 1_555 1_555
O4 C11 1_555 1_555
O5 C20 1_555 1_555
O6 C24 1_555 1_555
C1 C2 1_555 1_555
C2 H2 1_555 1_555
C3 C2 1_555 1_555
H3 C3 1_555 1_555
C4 C3 1_555 1_555
C5 C4 1_555 1_555
C6 C1 1_555 1_555
H4 C6 1_555 1_555
C7 C4 1_555 1_555
C8 O1 1_555 1_555
H5 C8 1_555 1_555
C9 C7 1_555 1_555
H6 C9 1_555 1_555
H7 C9 1_555 1_555
C10 C1 1_555 1_555
H8 C10 1_555 1_555
H9 C10 1_555 1_555
H10 C10 1_555 1_555
C11 C12 1_555 1_555
C12 H11 1_555 1_555
H12 C12 1_555 1_555
H13 C12 1_555 1_555
C13 C7 1_555 1_555
C14 O3 1_555 1_555
H14 C14 1_555 1_555
C15 C9 1_555 1_555
H15 C15 1_555 1_555
C16 C15 1_555 1_555
C17 C13 1_555 1_555
C18 C17 1_555 1_555
H16 C18 1_555 1_555
H17 C18 1_555 1_555
C19 C18 1_555 1_555
H18 C19 1_555 1_555
C20 C19 1_555 1_555
H19 C20 1_555 1_555
C21 C20 1_555 1_555
H20 C21 1_555 1_555
H21 C21 1_555 1_555
C22 C13 1_555 1_555
H22 C22 1_555 1_555
C23 C19 1_555 1_555
H23 C23 1_555 1_555
C24 O5 1_555 1_555
C25 C23 1_555 1_555
H24 C25 1_555 1_555
H25 C25 1_555 1_555
H26 C25 1_555 1_555
C26 C22 1_555 1_555
H27 C26 1_555 1_555
H28 C26 1_555 1_555
H29 C26 1_555 1_555
C27 C16 1_555 1_555
H30 C27 1_555 1_555
H31 C27 1_555 1_555
H32 C27 1_555 1_555
C28 H33 1_555 1_555
H34 C28 1_555 1_555
H35 C28 1_555 1_555
O7 C28 1_555 1_555
H36 O7 1_555 1_555
O2 C8 1_555 1_555
C5 C6 1_555 1_555
C7 C8 1_555 1_555
C13 C14 1_555 1_555
C14 C15 1_555 1_555
C16 C17 1_555 1_555
C21 C22 1_555 1_555
C23 C24 1_555 1_555

#END
