
#######################################################################
#
#                 Cambridge Crystallographic Data Centre
#                                CCDC 
#
#######################################################################
#
# If this CIF has been generated from an entry in the Cambridge 
# Structural Database, then it will include bibliographic, chemical, 
# crystal, experimental, refinement or atomic coordinate data resulting 
# from the CCDC's data processing and validation procedures.
#
#######################################################################

data_GOWXOH
_chemical_compound_source        'Perovskia atriplicifolia'
_chemical_formula_moiety         'C40 H56 O6,2(C1 H1 Cl3)'
_chemical_name_systematic        
'22,30-dihydroxy-12,28-diisopropyl-5,5,18,18-tetramethyl-10,26,33-trioxaoctacyclo[28.2.1.0^1,6^.0^9,27^.0^9,31^.0^11,25^.0^14,24^.0^17,22^]tritriaconta-11,13,24,27-tetraen-29-one chloroform solvate'
_symmetry_cell_setting           orthorhombic
_symmetry_space_group_name_H-M   'P 21 21 21'
_symmetry_Int_Tables_number      19
_space_group_name_Hall           'P 2ac 2ab'
loop_
_symmetry_equiv_pos_site_id
_symmetry_equiv_pos_as_xyz
1 x,y,z
2 1/2+x,1/2-y,-z
3 -x,1/2+y,1/2-z
4 1/2-x,-y,1/2+z
_cell_length_a                   12.1097(2)
_cell_length_b                   16.6824(3)
_cell_length_c                   21.2231(4)
_cell_angle_alpha                90
_cell_angle_beta                 90
_cell_angle_gamma                90
_cell_volume                     4287.47
_exptl_crystal_colour            colorless
_exptl_crystal_description       block
_cell_formula_units_Z            4
loop_
_atom_site_label
_atom_site_type_symbol
_atom_site_fract_x
_atom_site_fract_y
_atom_site_fract_z
Cl1 Cl 0.58088(6) -0.09250(4) 0.37315(3)
Cl2 Cl 0.70203(7) 0.05187(4) 0.34245(3)
Cl3 Cl 0.63217(6) 0.02342(5) 0.47036(3)
C1 C 0.5998(2) 0.00955(16) 0.39046(12)
H1 H 0.5288 0.0380 0.3817
O1 O 0.02883(12) 0.69670(9) 0.33285(7)
C2 C 0.07143(18) 0.48271(13) 0.34232(10)
C3 C -0.01067(18) 0.35989(13) 0.37595(10)
C4 C 0.17026(18) 0.19769(13) 0.41550(10)
C5 C 0.1668(2) -0.02322(15) 0.47963(13)
H2 H 0.0955 -0.0455 0.4666
H3 H 0.1605 -0.0014 0.5224
H4 H 0.2229 -0.0656 0.4790
C6 C -0.1150(2) 0.83784(14) 0.43824(13)
H5 H -0.1966 0.8376 0.4409
H6 H -0.0877 0.8817 0.4655
C7 C 0.00146(17) 0.29078(13) 0.41231(10)
C8 C 0.20061(19) 0.04408(13) 0.43391(11)
C9 C 0.29247(18) 0.20990(14) 0.42983(10)
H7 H 0.3194 0.2567 0.4056
H8 H 0.3008 0.2226 0.4752
O2 O 0.23925(13) 0.63929(10) 0.28331(9)
C10 C 0.04464(18) 0.63737(12) 0.28650(10)
C11 C -0.08913(18) 0.53349(13) 0.40509(10)
H9 H -0.1706 0.5368 0.4026
H10 H -0.0710 0.4876 0.4328
C12 C 0.27919(18) 0.48180(14) 0.33001(11)
H11 H 0.3318 0.5200 0.3095
C13 C -0.0814(2) 0.85499(13) 0.37101(13)
H12 H 0.0001 0.8572 0.3679
H13 H -0.1113 0.9076 0.3578
C14 C -0.07094(19) 0.75756(14) 0.46354(11)
C15 C 0.10946(18) 0.27163(13) 0.44331(10)
H14 H 0.0961 0.2621 0.4887
H15 H 0.1585 0.3189 0.4397
C16 C 0.31748(19) 0.47225(15) 0.39845(11)
H16 H 0.2731 0.4309 0.4192
H17 H 0.3084 0.5233 0.4207
H18 H 0.3954 0.4565 0.3991
C17 C -0.08928(17) 0.70531(13) 0.34730(10)
C18 C -0.30944(19) 0.35665(13) 0.32254(11)
H19 H -0.3172 0.4157 0.3291
C19 C -0.10423(18) 0.68812(13) 0.41816(10)
H20 H -0.1851 0.6793 0.4247
C20 C -0.4094(2) 0.31698(18) 0.35274(13)
H21 H -0.4096 0.2597 0.3425
H22 H -0.4771 0.3418 0.3366
H23 H -0.4060 0.3239 0.3986
C21 C 0.16534(17) 0.51947(13) 0.32515(10)
C22 C -0.05565(17) 0.58212(12) 0.29005(10)
H24 H -0.0695 0.5583 0.2476
C23 C 0.32114(19) 0.06561(14) 0.45008(12)
H25 H 0.3266 0.0763 0.4959
H26 H 0.3689 0.0190 0.4405
C24 C -0.3065(2) 0.34219(15) 0.25120(11)
H27 H -0.2429 0.3701 0.2330
H28 H -0.3747 0.3626 0.2321
H29 H -0.3002 0.2846 0.2429
C25 C -0.04752(18) 0.60946(13) 0.43691(10)
H30 H 0.0323 0.6147 0.4278
H31 H -0.0555 0.6027 0.4830
C26 C 0.12595(18) 0.11858(13) 0.44487(10)
H32 H 0.1265 0.1277 0.4914
C27 C -0.12570(19) 0.78949(13) 0.32791(11)
H33 H -0.1002 0.8000 0.2844
H34 H -0.2074 0.7918 0.3279
C28 C -0.1241(2) 0.74348(16) 0.52868(12)
H35 H -0.1086 0.7894 0.5561
H36 H -0.0934 0.6947 0.5475
H37 H -0.2041 0.7374 0.5238
C29 C 0.1946(2) 0.01129(15) 0.36646(12)
H38 H 0.2434 -0.0353 0.3625
H39 H 0.2180 0.0530 0.3368
H40 H 0.1185 -0.0047 0.3570
C30 C -0.08976(18) 0.23980(13) 0.41650(10)
C31 C -0.04542(17) 0.51453(13) 0.33885(10)
C32 C -0.10880(18) 0.38050(13) 0.34687(10)
C33 C 0.28734(19) 0.40278(14) 0.29333(11)
H41 H 0.2459 0.3610 0.3156
H42 H 0.3650 0.3868 0.2899
H43 H 0.2563 0.4101 0.2511
C34 C -0.14585(18) 0.64257(13) 0.30485(10)
H44 H -0.2081 0.6166 0.3272
H45 H -0.1741 0.6677 0.2658
C35 C -0.08047(19) 0.16258(13) 0.45363(11)
H46 H -0.1539 0.1365 0.4545
H47 H -0.0604 0.1759 0.4976
C36 C -0.18851(18) 0.26094(13) 0.38717(10)
H48 H -0.2498 0.2257 0.3908
C37 C 0.36394(18) 0.13818(14) 0.41431(12)
H49 H 0.4414 0.1491 0.4264
H50 H 0.3617 0.1276 0.3684
O3 O 0.08158(12) 0.40874(9) 0.36953(7)
C38 C 0.00432(18) 0.10221(13) 0.42785(10)
H51 H -0.0022 0.1011 0.3814
H52 H -0.0155 0.0482 0.4436
O4 O -0.11369(12) 0.45066(9) 0.31268(7)
C39 C 0.05505(19) 0.76297(14) 0.47239(12)
H53 H 0.0909 0.7660 0.4311
H54 H 0.0813 0.7153 0.4948
H55 H 0.0731 0.8110 0.4969
C40 C 0.15829(18) 0.60022(13) 0.29835(10)
C41 C -0.20126(18) 0.33142(13) 0.35270(10)
O5 O 0.16247(12) 0.19812(9) 0.34813(7)
H56 H 0.0963 0.1916 0.3374
O6 O 0.04484(13) 0.67118(9) 0.22538(7)
H57 H 0.1011 0.7001 0.2209
Cl4 Cl 0.55966(6) 0.54437(4) 0.25114(3)
Cl5 Cl 0.55429(6) 0.61105(6) 0.37493(3)
Cl6 Cl 0.57729(6) 0.71545(4) 0.26617(5)
C42 C 0.5172(2) 0.62715(17) 0.29569(14)
H58 H 0.4351 0.6320 0.2929
loop_
_geom_bond_atom_site_label_1
_geom_bond_atom_site_label_2
_geom_bond_site_symmetry_1
_geom_bond_site_symmetry_2
Cl1 C1 1_555 1_555
Cl2 C1 1_555 1_555
Cl3 C1 1_555 1_555
C1 H1 1_555 1_555
O1 C10 1_555 1_555
C2 C21 1_555 1_555
C3 C7 1_555 1_555
C4 C9 1_555 1_555
C5 H2 1_555 1_555
H3 C5 1_555 1_555
H4 C5 1_555 1_555
C6 H5 1_555 1_555
H6 C6 1_555 1_555
C7 C15 1_555 1_555
C8 C5 1_555 1_555
C9 H7 1_555 1_555
H8 C9 1_555 1_555
O2 C40 1_555 1_555
C10 C22 1_555 1_555
C11 H9 1_555 1_555
H10 C11 1_555 1_555
C12 H11 1_555 1_555
C13 C6 1_555 1_555
H12 C13 1_555 1_555
H13 C13 1_555 1_555
C14 C6 1_555 1_555
C15 C4 1_555 1_555
H14 C15 1_555 1_555
H15 C15 1_555 1_555
C16 C12 1_555 1_555
H16 C16 1_555 1_555
H17 C16 1_555 1_555
H18 C16 1_555 1_555
C17 O1 1_555 1_555
C18 H19 1_555 1_555
C19 C14 1_555 1_555
H20 C19 1_555 1_555
C20 C18 1_555 1_555
H21 C20 1_555 1_555
H22 C20 1_555 1_555
H23 C20 1_555 1_555
C21 C12 1_555 1_555
C22 H24 1_555 1_555
C23 C8 1_555 1_555
H25 C23 1_555 1_555
H26 C23 1_555 1_555
C24 C18 1_555 1_555
H27 C24 1_555 1_555
H28 C24 1_555 1_555
H29 C24 1_555 1_555
C25 C11 1_555 1_555
H30 C25 1_555 1_555
H31 C25 1_555 1_555
C26 C4 1_555 1_555
H32 C26 1_555 1_555
C27 C13 1_555 1_555
H33 C27 1_555 1_555
H34 C27 1_555 1_555
C28 C14 1_555 1_555
H35 C28 1_555 1_555
H36 C28 1_555 1_555
H37 C28 1_555 1_555
C29 C8 1_555 1_555
H38 C29 1_555 1_555
H39 C29 1_555 1_555
H40 C29 1_555 1_555
C30 C7 1_555 1_555
C31 C2 1_555 1_555
C32 C3 1_555 1_555
C33 C12 1_555 1_555
H41 C33 1_555 1_555
H42 C33 1_555 1_555
H43 C33 1_555 1_555
C34 C17 1_555 1_555
H44 C34 1_555 1_555
H45 C34 1_555 1_555
C35 C30 1_555 1_555
H46 C35 1_555 1_555
H47 C35 1_555 1_555
C36 C30 1_555 1_555
H48 C36 1_555 1_555
C37 C9 1_555 1_555
H49 C37 1_555 1_555
H50 C37 1_555 1_555
O3 C2 1_555 1_555
C38 C26 1_555 1_555
H51 C38 1_555 1_555
H52 C38 1_555 1_555
O4 C31 1_555 1_555
C39 C14 1_555 1_555
H53 C39 1_555 1_555
H54 C39 1_555 1_555
H55 C39 1_555 1_555
C40 C10 1_555 1_555
C41 C18 1_555 1_555
O5 C4 1_555 1_555
H56 O5 1_555 1_555
O6 C10 1_555 1_555
H57 O6 1_555 1_555
Cl4 C42 1_555 1_555
Cl5 C42 1_555 1_555
Cl6 C42 1_555 1_555
C42 H58 1_555 1_555
C3 O3 1_555 1_555
C8 C26 1_555 1_555
C11 C31 1_555 1_555
C17 C19 1_555 1_555
C17 C27 1_555 1_555
C19 C25 1_555 1_555
C21 C40 1_555 1_555
C22 C31 1_555 1_555
C22 C34 1_555 1_555
C23 C37 1_555 1_555
C32 O4 1_555 1_555
C32 C41 1_555 1_555
C35 C38 1_555 1_555
C36 C41 1_555 1_555

#END
