
#######################################################################
#
#                 Cambridge Crystallographic Data Centre
#                                CCDC 
#
#######################################################################
#
# If this CIF has been generated from an entry in the Cambridge 
# Structural Database, then it will include bibliographic, chemical, 
# crystal, experimental, refinement or atomic coordinate data resulting 
# from the CCDC's data processing and validation procedures.
#
#######################################################################

data_GOYQOC
_chemical_formula_moiety         'C12 H6 S2'
_chemical_name_systematic        acenaphtho[5,6-cd][1,2]dithiole
_symmetry_cell_setting           monoclinic
_symmetry_space_group_name_H-M   'P 21/c'
_symmetry_Int_Tables_number      14
_space_group_name_Hall           '-P 2ybc'
loop_
_symmetry_equiv_pos_site_id
_symmetry_equiv_pos_as_xyz
1 x,y,z
2 -x,1/2+y,1/2-z
3 -x,-y,-z
4 x,1/2-y,1/2+z
_cell_length_a                   7.4390(19)
_cell_length_b                   11.323(3)
_cell_length_c                   11.165(3)
_cell_angle_alpha                90
_cell_angle_beta                 105.277(5)
_cell_angle_gamma                90
_cell_volume                     907.216
_exptl_crystal_colour            orange
_cell_formula_units_Z            4
loop_
_atom_site_label
_atom_site_type_symbol
_atom_site_fract_x
_atom_site_fract_y
_atom_site_fract_z
S1 S 0.8190(3) 0.18378(10) 1.06283(10)
S2 S 0.61060(14) 0.28954(11) 1.09964(10)
C1 C 0.6837(3) 0.10809(16) 0.94448(17)
C2 C 0.7346(3) 0.01757(17) 0.87560(19)
C3 C 0.6021(3) -0.03801(17) 0.7786(2)
C4 C 0.4182(3) -0.00379(16) 0.74891(17)
C5 C 0.3676(3) 0.08788(15) 0.81889(16)
C6 C 0.1772(3) 0.11774(16) 0.78875(17)
C7 C 0.1222(3) 0.20539(17) 0.85856(19)
C8 C 0.2530(3) 0.26142(18) 0.95652(19)
C9 C 0.4395(3) 0.23086(16) 0.98530(18)
C10 C 0.4952(3) 0.14211(15) 0.91405(16)
C11 C 0.2273(10) -0.0313(7) 0.6601(7)
C12 C 0.0826(17) 0.0342(10) 0.6831(11)
H1 H 0.86101 -0.00709 0.89447
H2 H 0.64003 -0.09982 0.73313
H3 H -0.00518 0.22786 0.84004
H4 H 0.2126 0.32098 1.00342
H5 H 0.20993 -0.08805 0.59535
H6 H -0.04647 0.02851 0.64241
S3? S 0.0474(8) 0.0386(3) 0.6744(4)
S4? S 0.2582(5) -0.0643(3) 0.6355(3)
C13? C 0.6361(12) 0.2544(10) 1.0769(9)
C14? C 0.7779(18) 0.1865(12) 1.0561(11)
H7? H 0.65546 0.31122 1.14166
H8? H 0.90569 0.18757 1.10077
loop_
_geom_bond_atom_site_label_1
_geom_bond_atom_site_label_2
_geom_bond_site_symmetry_1
_geom_bond_site_symmetry_2
S1 S2 1_555 1_555
S2 C9 1_555 1_555
C1 S1 1_555 1_555
C2 C1 1_555 1_555
C3 C2 1_555 1_555
C4 C3 1_555 1_555
C5 C4 1_555 1_555
C6 C5 1_555 1_555
C7 C6 1_555 1_555
C8 C7 1_555 1_555
C9 C8 1_555 1_555
C10 C1 1_555 1_555
C11 C4 1_555 1_555
C12 C6 1_555 1_555
H1 C2 1_555 1_555
H2 C3 1_555 1_555
H3 C7 1_555 1_555
H4 C8 1_555 1_555
H5 C11 1_555 1_555
H6 C12 1_555 1_555
C5 C10 1_555 1_555
C9 C10 1_555 1_555
C11 C12 1_555 1_555

#END
