
#######################################################################
#
#                 Cambridge Crystallographic Data Centre
#                                CCDC 
#
#######################################################################
#
# If this CIF has been generated from an entry in the Cambridge 
# Structural Database, then it will include bibliographic, chemical, 
# crystal, experimental, refinement or atomic coordinate data resulting 
# from the CCDC's data processing and validation procedures.
#
#######################################################################

data_GOZDAA
_chemical_formula_moiety         'C13 H19 O4 1-,C8 H12 N1 1+'
_chemical_name_systematic        
'(S)-(-)-\a-Methylbenzylammonium 2-t-butoxycarbonyl-4-ethylcyclopentene-1-carboxylate'
_symmetry_cell_setting           monoclinic
_symmetry_space_group_name_H-M   'C 2'
_symmetry_Int_Tables_number      5
_space_group_name_Hall           'C 2y'
loop_
_symmetry_equiv_pos_site_id
_symmetry_equiv_pos_as_xyz
1 x,y,z
2 -x,y,-z
3 1/2+x,1/2+y,z
4 1/2-x,1/2+y,-z
_cell_length_a                   35.2023(19)
_cell_length_b                   6.0715(4)
_cell_length_c                   10.4710(9)
_cell_angle_alpha                90
_cell_angle_beta                 101.414(6)
_cell_angle_gamma                90
_cell_volume                     2193.71
_exptl_crystal_colour            colorless
_exptl_crystal_description       Plate
_cell_formula_units_Z            4
loop_
_atom_site_label
_atom_site_type_symbol
_atom_site_fract_x
_atom_site_fract_y
_atom_site_fract_z
O1 O 0.29402(5) 0.2042(4) 0.5007(2)
O2 O 0.33196(6) -0.0817(4) 0.5728(2)
O3 O 0.36860(7) 0.1163(5) 0.3390(2)
O4 O 0.42801(6) 0.2658(5) 0.3860(2)
C1 C 0.32630(8) 0.1200(6) 0.5513(3)
C2 C 0.35926(8) 0.2731(5) 0.5935(3)
C3 C 0.36265(10) 0.4032(7) 0.7187(3)
H1 H 0.3431(6) 0.517(4) 0.7099(4)
H2 H 0.35997(14) 0.308(3) 0.790(2)
C4 C 0.40265(12) 0.5026(8) 0.7400(4)
H3 H 0.4221(8) 0.368(6) 0.801(3)
C5 C 0.41489(9) 0.4931(7) 0.6092(4)
H4 H 0.41119(13) 0.640(5) 0.5640(14)
H5 H 0.4428(9) 0.4480(15) 0.6197(5)
C6 C 0.38840(8) 0.3216(6) 0.5346(3)
C7 C 0.39291(9) 0.2212(7) 0.4103(3)
C8 C 0.41045(13) 0.7024(10) 0.8222(5)
H6 H 0.3906(6) 0.831(4) 0.7769(12)
H7 H 0.4031(3) 0.6650(13) 0.916(2)
C9 C 0.44923(16) 0.7937(12) 0.8466(6)
H8 H 0.4686(6) 0.680(4) 0.899(3)
H9 H 0.4497(3) 0.939(5) 0.900(3)
H10 H 0.4574(5) 0.828(5) 0.758(3)
C10 C 0.41477(16) 0.2812(12) 0.1496(5)
H11 H 0.4249(7) 0.234(5) 0.066(3)
H12 H 0.4157(7) 0.454(5) 0.1584(15)
H13 H 0.3861(9) 0.227(5) 0.1423(19)
C11 C 0.43892(17) -0.0652(11) 0.2653(6)
H14 H 0.4533(9) -0.126(2) 0.352(3)
H15 H 0.4516(9) -0.121(2) 0.192(3)
H16 H 0.4108(8) -0.1161(19) 0.249(3)
C12 C 0.48121(12) 0.2697(13) 0.2856(5)
H17 H 0.4966(6) 0.216(5) 0.365(3)
H18 H 0.48039(14) 0.428(5) 0.288(3)
H19 H 0.4925(6) 0.224(5) 0.214(3)
C13 C 0.44028(11) 0.1787(9) 0.2688(5)
C14 C 0.25315(8) 0.1249(6) 0.7961(3)
C15 C 0.26981(10) 0.2602(8) 0.8984(4)
H20 H 0.2585(6) 0.411(8) 0.9091(7)
C16 C 0.30210(12) 0.1865(10) 0.9862(4)
H21 H 0.3123(6) 0.270(5) 1.049(3)
C17 C 0.31790(12) -0.0151(9) 0.9747(4)
H22 H 0.3396(11) -0.060(2) 1.033(3)
C18 C 0.30118(11) -0.1501(8) 0.8747(4)
H23 H 0.3123(6) -0.294(8) 0.8655(7)
C19 C 0.26864(10) -0.0836(7) 0.7866(3)
H24 H 0.2573(6) -0.177(5) 0.722(3)
C20 C 0.21813(8) 0.2067(6) 0.7004(3)
H25 H 0.21763(9) 0.385(9) 0.7062(4)
C21 C 0.17990(9) 0.1197(7) 0.7271(3)
H26 H 0.1786(4) -0.044(5) 0.713(3)
H27 H 0.1578(6) 0.192(4) 0.666(3)
H28 H 0.1781(4) 0.154(5) 0.820(3)
N1 N 0.22026(7) 0.1443(5) 0.5636(2)
H29 H 0.2450(10) 0.168(6) 0.550(3)
H30 H 0.2016(12) 0.263(8) 0.505(4)
H31 H 0.2123(9) -0.033(8) 0.544(3)
loop_
_geom_bond_atom_site_label_1
_geom_bond_atom_site_label_2
_geom_bond_site_symmetry_1
_geom_bond_site_symmetry_2
O1 C1 1_555 1_555
O2 C1 1_555 1_555
O3 C7 1_555 1_555
O4 C7 1_555 1_555
C1 C2 1_555 1_555
C2 C3 1_555 1_555
C3 H1 1_555 1_555
H2 C3 1_555 1_555
C4 C3 1_555 1_555
H3 C4 1_555 1_555
C5 C4 1_555 1_555
H4 C5 1_555 1_555
H5 C5 1_555 1_555
C6 C2 1_555 1_555
C7 C6 1_555 1_555
C8 C4 1_555 1_555
H6 C8 1_555 1_555
H7 C8 1_555 1_555
C9 C8 1_555 1_555
H8 C9 1_555 1_555
H9 C9 1_555 1_555
H10 C9 1_555 1_555
C10 H11 1_555 1_555
H12 C10 1_555 1_555
H13 C10 1_555 1_555
C11 H14 1_555 1_555
H15 C11 1_555 1_555
H16 C11 1_555 1_555
C12 H17 1_555 1_555
H18 C12 1_555 1_555
H19 C12 1_555 1_555
C13 O4 1_555 1_555
C14 C15 1_555 1_555
C15 H20 1_555 1_555
C16 C15 1_555 1_555
H21 C16 1_555 1_555
C17 C16 1_555 1_555
H22 C17 1_555 1_555
C18 C17 1_555 1_555
H23 C18 1_555 1_555
C19 C14 1_555 1_555
H24 C19 1_555 1_555
C20 C14 1_555 1_555
H25 C20 1_555 1_555
C21 C20 1_555 1_555
H26 C21 1_555 1_555
H27 C21 1_555 1_555
H28 C21 1_555 1_555
N1 C20 1_555 1_555
H29 N1 1_555 1_555
H30 N1 1_555 1_555
H31 N1 1_555 1_555
C5 C6 1_555 1_555
C10 C13 1_555 1_555
C11 C13 1_555 1_555
C12 C13 1_555 1_555
C18 C19 1_555 1_555

#END
