
#######################################################################
#
#                 Cambridge Crystallographic Data Centre
#                                CCDC 
#
#######################################################################
#
# If this CIF has been generated from an entry in the Cambridge 
# Structural Database, then it will include bibliographic, chemical, 
# crystal, experimental, refinement or atomic coordinate data resulting 
# from the CCDC's data processing and validation procedures.
#
#######################################################################

data_GOZKUD
_chemical_formula_moiety         'C24 H33 O4 P1'
_chemical_name_systematic        
'2-isopropyl-5-methylcyclohexyl (hydroxy(2-methoxyphenyl)methyl)phenylphosphinate'
_symmetry_cell_setting           monoclinic
_symmetry_space_group_name_H-M   'P 21'
_symmetry_Int_Tables_number      4
_space_group_name_Hall           'P 2yb'
loop_
_symmetry_equiv_pos_site_id
_symmetry_equiv_pos_as_xyz
1 x,y,z
2 -x,1/2+y,-z
_cell_length_a                   12.8321(11)
_cell_length_b                   5.8099(4)
_cell_length_c                   15.4610(14)
_cell_angle_alpha                90
_cell_angle_beta                 100.0510(10)
_cell_angle_gamma                90
_cell_volume                     1134.98
_exptl_crystal_colour            colorless
_exptl_crystal_description       block
_cell_formula_units_Z            2
loop_
_atom_site_label
_atom_site_type_symbol
_atom_site_fract_x
_atom_site_fract_y
_atom_site_fract_z
O1 O 1.0246(5) 0.6729(12) 0.8898(4)
O2 O 0.8455(5) 1.1990(11) 0.8040(4)
H1 H 0.8801 1.2970 0.7834
O3 O 0.8632(4) 0.5726(10) 0.7065(4)
O4 O 0.7033(4) 0.8348(12) 0.7187(3)
P1 P 0.82224(17) 0.8112(4) 0.70607(14)
C1 C 1.0858(8) 0.505(2) 0.9470(7)
H2 H 1.1407 0.5826 0.9866
H3 H 1.1170 0.3969 0.9121
H4 H 1.0403 0.4253 0.9800
C2 C 1.0738(7) 0.817(2) 0.8434(5)
C3 C 1.1808(7) 0.812(2) 0.8411(6)
H5 H 1.2241 0.6996 0.8716
C4 C 1.2214(8) 0.974(2) 0.7937(7)
H6 H 1.2939 0.9733 0.7938
C5 C 1.1604(9) 1.138(2) 0.7456(6)
H7 H 1.1897 1.2457 0.7124
C6 C 1.0538(7) 1.1370(16) 0.7487(5)
H8 H 1.0109 1.2457 0.7155
C7 C 1.0078(7) 0.9848(15) 0.7978(5)
C8 C 0.8910(6) 0.9785(15) 0.7961(5)
H9 H 0.8818 0.8945 0.8492
C9 C 0.8265(6) 0.9547(16) 0.6057(5)
C10 C 0.8878(7) 0.8544(19) 0.5524(6)
H10 H 0.9234 0.7172 0.5682
C11 C 0.8954(9) 0.964(3) 0.4734(7)
H11 H 0.9393 0.9022 0.4374
C12 C 0.8421(9) 1.154(3) 0.4483(7)
H12 H 0.8448 1.2177 0.3935
C13 C 0.7826(8) 1.2577(18) 0.5030(7)
H13 H 0.7489 1.3973 0.4877
C14 C 0.7739(7) 1.1531(16) 0.5796(6)
H14 H 0.7308 1.2186 0.6155
C15 C 0.6407(6) 0.6368(15) 0.7373(5)
H15 H 0.6878 0.5090 0.7594
C16 C 0.5701(7) 0.5669(16) 0.6533(5)
H16 H 0.6131 0.5261 0.6098
H17 H 0.5253 0.6954 0.6306
C17 C 0.5017(7) 0.3632(19) 0.6690(6)
H18 H 0.5484 0.2377 0.6941
C18 C 0.4348(8) 0.431(2) 0.7344(7)
H19 H 0.3923 0.3012 0.7468
H20 H 0.3873 0.5544 0.7106
C19 C 0.5045(8) 0.511(2) 0.8184(7)
H21 H 0.5469 0.3820 0.8442
H22 H 0.4596 0.5580 0.8597
C20 C 0.5784(7) 0.7100(17) 0.8064(5)
H23 H 0.5346 0.8420 0.7834
C21 C 0.6503(7) 0.786(2) 0.8917(5)
H24 H 0.6984 0.9037 0.8761
C22 C 0.5856(9) 0.8958(19) 0.9537(7)
H25 H 0.6299 0.9970 0.9933
H26 H 0.5575 0.7780 0.9866
H27 H 0.5284 0.9820 0.9204
C23 C 0.7185(9) 0.591(2) 0.9377(7)
H28 H 0.6738 0.4656 0.9489
H29 H 0.7580 0.6457 0.9923
H30 H 0.7666 0.5383 0.9008
C24 C 0.4346(8) 0.278(2) 0.5858(7)
H31 H 0.3859 0.3959 0.5616
H32 H 0.3960 0.1439 0.5984
H33 H 0.4792 0.2384 0.5442
loop_
_geom_bond_atom_site_label_1
_geom_bond_atom_site_label_2
_geom_bond_site_symmetry_1
_geom_bond_site_symmetry_2
O1 C1 1_555 1_555
O2 H1 1_555 1_555
O3 P1 1_555 1_555
O4 P1 1_555 1_555
P1 C8 1_555 1_555
C1 H2 1_555 1_555
H3 C1 1_555 1_555
H4 C1 1_555 1_555
C2 O1 1_555 1_555
C3 C2 1_555 1_555
H5 C3 1_555 1_555
C4 C3 1_555 1_555
H6 C4 1_555 1_555
C5 C4 1_555 1_555
H7 C5 1_555 1_555
C6 C5 1_555 1_555
H8 C6 1_555 1_555
C7 C2 1_555 1_555
C8 O2 1_555 1_555
H9 C8 1_555 1_555
C9 P1 1_555 1_555
C10 C9 1_555 1_555
H10 C10 1_555 1_555
C11 C10 1_555 1_555
H11 C11 1_555 1_555
C12 C11 1_555 1_555
H12 C12 1_555 1_555
C13 C12 1_555 1_555
H13 C13 1_555 1_555
C14 C9 1_555 1_555
H14 C14 1_555 1_555
C15 O4 1_555 1_555
H15 C15 1_555 1_555
C16 C15 1_555 1_555
H16 C16 1_555 1_555
H17 C16 1_555 1_555
C17 C16 1_555 1_555
H18 C17 1_555 1_555
C18 C17 1_555 1_555
H19 C18 1_555 1_555
H20 C18 1_555 1_555
C19 C18 1_555 1_555
H21 C19 1_555 1_555
H22 C19 1_555 1_555
C20 C15 1_555 1_555
H23 C20 1_555 1_555
C21 C20 1_555 1_555
H24 C21 1_555 1_555
C22 C21 1_555 1_555
H25 C22 1_555 1_555
H26 C22 1_555 1_555
H27 C22 1_555 1_555
C23 C21 1_555 1_555
H28 C23 1_555 1_555
H29 C23 1_555 1_555
H30 C23 1_555 1_555
C24 C17 1_555 1_555
H31 C24 1_555 1_555
H32 C24 1_555 1_555
H33 C24 1_555 1_555
C6 C7 1_555 1_555
C7 C8 1_555 1_555
C13 C14 1_555 1_555
C19 C20 1_555 1_555

#END
