
#######################################################################
#
#                 Cambridge Crystallographic Data Centre
#                                CCDC 
#
#######################################################################
#
# If this CIF has been generated from an entry in the Cambridge 
# Structural Database, then it will include bibliographic, chemical, 
# crystal, experimental, refinement or atomic coordinate data resulting 
# from the CCDC's data processing and validation procedures.
#
#######################################################################

data_GUBCIR
_chemical_formula_moiety         'C23 H24 N4 S1'
_chemical_name_systematic        
(4-t-butyl-5-(2-(1,3,3-trimethyl-1,3-dihydro-2H-indol-2-ylidene)ethylidene)-1,3-thiazol-2(5H)-ylidene)malononitrile
_symmetry_cell_setting           orthorhombic
_symmetry_space_group_name_H-M   'P b c m'
_symmetry_Int_Tables_number      57
_space_group_name_Hall           '-P 2c 2b'
loop_
_symmetry_equiv_pos_site_id
_symmetry_equiv_pos_as_xyz
1 x,y,z
2 -x,-y,1/2+z
3 -x,1/2+y,1/2-z
4 x,1/2-y,-z
5 -x,-y,-z
6 x,y,1/2-z
7 x,1/2-y,1/2+z
8 -x,1/2+y,z
_cell_length_a                   13.0012(5)
_cell_length_b                   24.1266(9)
_cell_length_c                   6.8589(2)
_cell_angle_alpha                90
_cell_angle_beta                 90
_cell_angle_gamma                90
_cell_volume                     2151.46
_exptl_crystal_colour            purple
_exptl_crystal_description       needle
_cell_formula_units_Z            4
loop_
_atom_site_label
_atom_site_type_symbol
_atom_site_fract_x
_atom_site_fract_y
_atom_site_fract_z
C1 C 0.10898(12) 0.19658(7) 0.2500
C2 C 0.08281(15) 0.25210(8) 0.2500
H1 H 0.1331 0.2801 0.2500
C3 C -0.02146(17) 0.26440(8) 0.2500
H2 H -0.0424 0.3017 0.2500
C4 C -0.09539(16) 0.22308(8) 0.2500
H3 H -0.1654 0.2327 0.2500
C5 C -0.06710(14) 0.16742(8) 0.2500
H4 H -0.1171 0.1393 0.2500
C6 C 0.03620(13) 0.15468(7) 0.2500
C7 C 0.09001(12) 0.09902(7) 0.2500
C8 C 0.20307(12) 0.11677(6) 0.2500
C9 C 0.29104(12) 0.08348(7) 0.2500
H5 H 0.3551 0.1015 0.2500
C10 C 0.29157(13) 0.02647(7) 0.2500
H6 H 0.2275 0.0084 0.2500
C11 C 0.37986(12) -0.00684(7) 0.2500
C12 C 0.39288(13) -0.06509(7) 0.2500
C13 C 0.31301(14) -0.11188(7) 0.2500
C14 C 0.20097(15) -0.09309(8) 0.2500
H7 H 0.1877 -0.0709 0.1347
H8 H 0.1563 -0.1253 0.2496
C15 C 0.33215(13) -0.14687(6) 0.0666(3)
H9 H 0.2838 -0.1775 0.0632
H10 H 0.4018 -0.1612 0.0691
H11 H 0.3229 -0.1240 -0.0484
C16 C 0.73468(13) -0.00436(7) 0.2500
C17 C 0.66455(13) -0.04911(7) 0.2500
C18 C 0.70288(14) -0.10409(8) 0.2500
C19 C 0.06193(10) 0.06679(6) 0.0643(2)
H12 H 0.0801 0.0886 -0.0494
H13 H -0.0114 0.0594 0.0632
H14 H 0.0994 0.0320 0.0617
C20 C 0.30351(14) 0.20416(7) 0.2500
H15 H 0.2875 0.2434 0.2500
H16 H 0.3432 0.1951 0.1345
C21 C 0.55785(13) -0.04063(7) 0.2500
N1 N 0.20802(10) 0.17214(6) 0.2500
N2 N 0.49068(10) -0.08265(6) 0.2500
N3 N 0.79056(13) 0.03230(7) 0.2500
N4 N 0.73340(15) -0.14868(7) 0.2500
S1 S 0.50190(3) 0.02449(2) 0.2500
H7E H 0.1877 -0.0709 0.3653
H16E H 0.3432 0.1951 0.3655
C15E C 0.33215(13) -0.14687(6) 0.4334(3)
H9E H 0.2838 -0.1775 0.4368
H10E H 0.4018 -0.1612 0.4309
H11E H 0.3229 -0.1240 0.5484
C19E C 0.06193(10) 0.06679(6) 0.4357(2)
H12E H 0.0801 0.0886 0.5494
H13E H -0.0114 0.0594 0.4368
H14E H 0.0994 0.0320 0.4383
H17? H 0.1876 -0.0711 0.1343
H18? H 0.3432 0.1951 0.1345
loop_
_geom_bond_atom_site_label_1
_geom_bond_atom_site_label_2
_geom_bond_site_symmetry_1
_geom_bond_site_symmetry_2
C1 C2 1_555 1_555
C2 H1 1_555 1_555
C3 C2 1_555 1_555
H2 C3 1_555 1_555
C4 C3 1_555 1_555
H3 C4 1_555 1_555
C5 C4 1_555 1_555
H4 C5 1_555 1_555
C6 C1 1_555 1_555
C7 C6 1_555 1_555
C8 C7 1_555 1_555
C9 C8 1_555 1_555
H5 C9 1_555 1_555
C10 C9 1_555 1_555
H6 C10 1_555 1_555
C11 C10 1_555 1_555
C12 C11 1_555 1_555
C13 C12 1_555 1_555
C14 C13 1_555 1_555
H7 C14 1_555 1_555
H8 C14 1_555 1_555
C15 C13 1_555 1_555
H9 C15 1_555 1_555
H10 C15 1_555 1_555
H11 C15 1_555 1_555
C16 C17 1_555 1_555
C17 C18 1_555 1_555
C18 N4 1_555 1_555
C19 C7 1_555 1_555
H12 C19 1_555 1_555
H13 C19 1_555 1_555
H14 C19 1_555 1_555
C20 H15 1_555 1_555
H16 C20 1_555 1_555
C21 C17 1_555 1_555
N1 C1 1_555 1_555
N2 C12 1_555 1_555
N3 C16 1_555 1_555
S1 C11 1_555 1_555
H7E C14 1_555 1_555
H16E C20 1_555 1_555
C15E C13 1_555 1_555
H9E C15E 1_555 1_555
H10E C15E 1_555 1_555
H11E C15E 1_555 1_555
C19E C7 1_555 1_555
H12E C19E 1_555 1_555
H13E C19E 1_555 1_555
H14E C19E 1_555 1_555
C5 C6 1_555 1_555
C8 N1 1_555 1_555
C20 N1 1_555 1_555
C21 N2 1_555 1_555
C21 S1 1_555 1_555

#END
