
#######################################################################
#
#                 Cambridge Crystallographic Data Centre
#                                CCDC 
#
#######################################################################
#
# If this CIF has been generated from an entry in the Cambridge 
# Structural Database, then it will include bibliographic, chemical, 
# crystal, experimental, refinement or atomic coordinate data resulting 
# from the CCDC's data processing and validation procedures.
#
#######################################################################

data_GUBJET
_chemical_formula_moiety         'C66 H80 O10,C1 H4 O1,H2 O1'
_chemical_name_systematic        
'5,11,17,23-Tetra-t-butyl-25,27-bis(3-(4-formyl-2-methoxyphenoxy)propoxy)-26,28-dihydroxycalix(4)arene methanol solvate monohydrate'
_symmetry_cell_setting           triclinic
_symmetry_space_group_name_H-M   'P -1'
_symmetry_Int_Tables_number      2
_space_group_name_Hall           '-P 1'
loop_
_symmetry_equiv_pos_site_id
_symmetry_equiv_pos_as_xyz
1 x,y,z
2 -x,-y,-z
_cell_length_a                   12.172(3)
_cell_length_b                   13.124(3)
_cell_length_c                   20.682(5)
_cell_angle_alpha                90.026(3)
_cell_angle_beta                 99.352(3)
_cell_angle_gamma                95.704(3)
_cell_volume                     3243.34
_exptl_crystal_colour            colorless
_exptl_crystal_description       block
_cell_formula_units_Z            2
loop_
_atom_site_label
_atom_site_type_symbol
_atom_site_fract_x
_atom_site_fract_y
_atom_site_fract_z
O1 O 0.8552(3) 0.8007(3) 0.16697(18)
O2 O 0.9179(3) 0.9576(3) 0.36440(18)
O3 O 0.9339(3) 0.7686(3) 0.3140(2)
H1 H 0.9352 0.8257 0.3304
O4 O 0.8816(4) 0.9898(3) 0.2181(2)
H2 H 0.8818 0.9341 0.2001
C1 C 1.0386(5) 0.7366(4) 0.3262(3)
C2 C 1.0655(5) 0.6676(4) 0.2810(3)
O5 O 0.5748(4) 0.9594(4) 0.2938(2)
C3 C 0.9793(5) 1.0519(4) 0.1307(3)
C4 C 0.9541(5) 0.7902(5) 0.1431(3)
C5 C 1.0833(5) 0.8458(5) 0.0730(3)
H3 H 1.1095 0.8948 0.0452
C6 C 1.1158(5) 0.7667(4) 0.3823(3)
C7 C 0.9513(5) 1.0619(5) 0.1922(3)
C8 C 1.0133(5) 0.7072(4) 0.1625(3)
O6 O 0.6741(4) 0.5974(4) 0.2166(2)
O7 O 0.3599(4) 0.9376(4) 0.2606(2)
C9 C 0.9323(5) 0.9602(4) 0.0859(3)
H4 H 0.8537 0.9446 0.0889
H5 H 0.9369 0.9792 0.0410
C10 C 1.2496(5) 0.6614(5) 0.3473(3)
C11 C 1.2194(5) 1.0023(5) 0.4196(3)
H6 H 1.2760 0.9680 0.4430
C12 C 0.9909(5) 0.8640(4) 0.1009(3)
C13 C 0.9904(5) 1.1475(5) 0.2322(3)
C14 C 1.1114(5) 0.9548(5) 0.4097(3)
C15 C 1.0273(5) 1.0061(5) 0.3753(3)
C16 C 1.1039(5) 0.6923(5) 0.1315(3)
H7 H 1.1429 0.6357 0.1426
C17 C 1.0896(5) 0.8443(5) 0.4305(3)
H8 H 1.1348 0.8353 0.4729
H9 H 1.0116 0.8310 0.4355
C18 C 1.0493(5) 1.1011(5) 0.3481(3)
C19 C 0.9865(5) 0.6380(4) 0.2182(3)
H10 H 0.9101 0.6435 0.2247
H11 H 0.9927 0.5674 0.2067
C20 C 1.2470(5) 1.0982(5) 0.3964(3)
C21 C 0.9650(5) 1.1532(5) 0.3012(3)
H12 H 0.9671 1.2244 0.3145
H13 H 0.8905 1.1204 0.3025
C22 C 1.0574(6) 1.2242(5) 0.2075(3)
H14 H 1.0826 1.2825 0.2334
C23 C 1.1388(5) 0.7591(5) 0.0843(3)
C24 C 1.2190(5) 0.7296(5) 0.3911(3)
H15 H 1.2707 0.7512 0.4280
C25 C 1.1597(6) 1.1453(5) 0.3605(3)
H16 H 1.1759 1.2098 0.3439
C26 C 0.4192(6) 0.9792(5) 0.2144(3)
C27 C 1.1691(5) 0.6319(4) 0.2932(3)
H17 H 1.1863 0.5851 0.2635
C28 C 0.5341(6) 0.9909(5) 0.2325(3)
C29 C 1.0489(6) 1.1313(5) 0.1093(3)
H18 H 1.0692 1.1251 0.0681
C30 C 0.8477(5) 0.9869(6) 0.4104(3)
H19 H 0.8543 1.0609 0.4155
H20 H 0.8706 0.9576 0.4529
C31 C 0.6590(6) 0.7535(6) 0.1609(4)
H21 H 0.5927 0.7208 0.1335
H22 H 0.6481 0.8251 0.1661
C32 C 1.0892(6) 1.2192(5) 0.1465(3)
C33 C 1.3673(6) 0.6256(6) 0.3589(4)
C34 C 1.2319(6) 0.7319(5) 0.0480(4)
C35 C 0.6916(6) 0.9888(6) 0.3164(3)
H23 H 0.7055 1.0629 0.3182
H24 H 0.7354 0.9632 0.2859
C36 C 0.7578(5) 0.7467(5) 0.1268(3)
H25 H 0.7699 0.6755 0.1209
H26 H 0.7445 0.7775 0.0839
C37 C 1.3659(6) 1.1544(6) 0.4084(3)
C38 C 0.6014(6) 1.0299(5) 0.1884(3)
H27 H 0.6789 1.0362 0.2000
C39 C 0.4392(7) 1.0500(6) 0.1088(3)
O8 O 0.3014(7) 1.0776(6) 0.0219(3)
C40 C 0.5524(6) 1.0595(6) 0.1272(4)
H28 H 0.5977 1.0864 0.0979
C41 C 0.2406(6) 0.9298(7) 0.2461(4)
H29 H 0.2167 0.9962 0.2353
H30 H 0.2099 0.9046 0.2836
H31 H 0.2150 0.8835 0.2096
C42 C 0.6922(6) 0.5356(6) 0.2695(4)
C43 C 1.1686(7) 1.3056(6) 0.1234(4)
C44 C 0.3714(6) 1.0088(6) 0.1534(4)
H32 H 0.2939 1.0015 0.1415
C45 C 0.7223(7) 0.3929(8) 0.3684(4)
O9 O 0.7352(7) 0.2268(6) 0.4132(4)
C46 C 0.6707(6) 0.7043(5) 0.2278(3)
H33 H 0.7388 0.7329 0.2555
H34 H 0.6075 0.7156 0.2492
C47 C 0.7272(6) 0.9468(6) 0.3830(3)
H35 H 0.7208 0.8726 0.3803
H36 H 0.6781 0.9664 0.4124
C48 C 0.7134(6) 0.5676(6) 0.3334(4)
H37 H 0.7176 0.6369 0.3440
C49 C 0.7009(8) 0.3615(7) 0.3033(5)
H38 H 0.6965 0.2921 0.2931
O10 O 0.6637(11) 0.4079(5) 0.1886(3)
C50 C 0.7286(7) 0.4966(8) 0.3824(4)
H39 H 0.7435 0.5190 0.4259
C51 C 1.2604(8) 0.8135(7) -0.0010(5)
H40 H 1.1946 0.8226 -0.0321
H41 H 1.3174 0.7921 -0.0236
H42 H 1.2871 0.8771 0.0219
C52 C 1.1661(9) 1.3011(7) 0.0493(4)
H43 H 1.0908 1.3041 0.0273
H44 H 1.1927 1.2383 0.0376
H45 H 1.2132 1.3581 0.0366
C53 C 1.1910(8) 0.6298(7) 0.0095(5)
H46 H 1.1708 0.5778 0.0393
H47 H 1.2499 0.6089 -0.0116
H48 H 1.1271 0.6395 -0.0229
C54 C 0.6859(9) 0.4299(7) 0.2533(4)
C55 C 1.4005(7) 1.1915(9) 0.3432(5)
H49 H 1.3414 1.2256 0.3187
H50 H 1.4144 1.1338 0.3183
H51 H 1.4672 1.2382 0.3521
C56 C 1.3868(8) 0.5538(10) 0.3052(6)
H52 H 1.3351 0.4933 0.3034
H53 H 1.4620 0.5351 0.3144
H54 H 1.3758 0.5875 0.2638
C57 C 0.7388(8) 0.3198(10) 0.4205(5)
H55 H 0.7534 0.3456 0.4632
C58 C 0.3988(8) 1.0840(8) 0.0421(5)
H56 H 0.4496 1.1105 0.0159
C59 C 1.4517(7) 1.0871(8) 0.4387(6)
H57 H 1.5247 1.1241 0.4434
H58 H 1.4493 1.0277 0.4112
H59 H 1.4362 1.0661 0.4811
C60 C 1.2876(9) 1.2961(9) 0.1578(5)
H60 H 1.3378 1.3482 0.1425
H61 H 1.3088 1.2298 0.1483
H62 H 1.2912 1.3041 0.2042
C61 C 1.4558(7) 0.7187(8) 0.3632(6)
H63 H 1.4461 0.7550 0.3227
H64 H 1.5292 0.6958 0.3711
H65 H 1.4474 0.7633 0.3985
C62 C 1.3897(8) 0.5708(8) 0.4235(5)
H66 H 1.3751 0.6135 0.4582
H67 H 1.4665 0.5565 0.4319
H68 H 1.3418 0.5078 0.4213
C63 C 0.646(2) 0.3017(10) 0.1702(7)
H69 H 0.6009 0.2655 0.1984
H70 H 0.7170 0.2740 0.1742
H71 H 0.6087 0.2942 0.1256
C64 C 1.1363(12) 1.4071(6) 0.1419(6)
H72 H 1.0634 1.4167 0.1184
H73 H 1.1898 1.4605 0.1312
H74 H 1.1349 1.4093 0.1882
C65 C 1.3687(8) 1.2490(8) 0.4507(5)
H75 H 1.3538 1.2289 0.4934
H76 H 1.3128 1.2911 0.4309
H77 H 1.4412 1.2868 0.4549
C66 C 1.3370(7) 0.7203(9) 0.0964(5)
H78 H 1.3560 0.7809 0.1235
H79 H 1.3973 0.7105 0.0730
H80 H 1.3246 0.6621 0.1233
O11 O 0.046(3) 0.484(3) 0.438(3)
H81 H 0.0119 0.5028 0.4666
C67 C 0.0440(18) 0.404(2) 0.4386(19)
H82 H -0.0242 0.3744 0.4124
H83 H 0.0474 0.3802 0.4828
H84 H 0.1068 0.3835 0.4209
O12 O 0.509(2) 0.4605(14) 0.0282(10)
H85 H 0.4521 0.5286 0.0456
H86 H 0.4719 0.3993 -0.0180
loop_
_geom_bond_atom_site_label_1
_geom_bond_atom_site_label_2
_geom_bond_site_symmetry_1
_geom_bond_site_symmetry_2
O1 C4 1_555 1_555
O2 C15 1_555 1_555
O3 H1 1_555 1_555
O4 H2 1_555 1_555
C1 O3 1_555 1_555
C2 C1 1_555 1_555
O5 C28 1_555 1_555
C3 C7 1_555 1_555
C4 C8 1_555 1_555
C5 H3 1_555 1_555
C6 C1 1_555 1_555
C7 O4 1_555 1_555
C8 C16 1_555 1_555
O6 C42 1_555 1_555
O7 C26 1_555 1_555
C9 C3 1_555 1_555
H4 C9 1_555 1_555
H5 C9 1_555 1_555
C10 C24 1_555 1_555
C11 H6 1_555 1_555
C12 C4 1_555 1_555
C13 C7 1_555 1_555
C14 C11 1_555 1_555
C15 C14 1_555 1_555
C16 H7 1_555 1_555
C17 C6 1_555 1_555
H8 C17 1_555 1_555
H9 C17 1_555 1_555
C18 C15 1_555 1_555
C19 C2 1_555 1_555
H10 C19 1_555 1_555
H11 C19 1_555 1_555
C20 C11 1_555 1_555
C21 C13 1_555 1_555
H12 C21 1_555 1_555
H13 C21 1_555 1_555
C22 C13 1_555 1_555
H14 C22 1_555 1_555
C23 C5 1_555 1_555
C24 C6 1_555 1_555
H15 C24 1_555 1_555
C25 C18 1_555 1_555
H16 C25 1_555 1_555
C26 C28 1_555 1_555
C27 C2 1_555 1_555
H17 C27 1_555 1_555
C28 C38 1_555 1_555
C29 C3 1_555 1_555
H18 C29 1_555 1_555
C30 O2 1_555 1_555
H19 C30 1_555 1_555
H20 C30 1_555 1_555
C31 H21 1_555 1_555
H22 C31 1_555 1_555
C32 C22 1_555 1_555
C33 C10 1_555 1_555
C34 C23 1_555 1_555
C35 O5 1_555 1_555
H23 C35 1_555 1_555
H24 C35 1_555 1_555
C36 O1 1_555 1_555
H25 C36 1_555 1_555
H26 C36 1_555 1_555
C37 C20 1_555 1_555
C38 H27 1_555 1_555
C39 C40 1_555 1_555
O8 C58 1_555 1_555
C40 C38 1_555 1_555
H28 C40 1_555 1_555
C41 O7 1_555 1_555
H29 C41 1_555 1_555
H30 C41 1_555 1_555
H31 C41 1_555 1_555
C42 C48 1_555 1_555
C43 C32 1_555 1_555
C44 C26 1_555 1_555
H32 C44 1_555 1_555
C45 C49 1_555 1_555
O9 C57 1_555 1_555
C46 O6 1_555 1_555
H33 C46 1_555 1_555
H34 C46 1_555 1_555
C47 C30 1_555 1_555
H35 C47 1_555 1_555
H36 C47 1_555 1_555
C48 H37 1_555 1_555
C49 H38 1_555 1_555
O10 C54 1_555 1_555
C50 C45 1_555 1_555
H39 C50 1_555 1_555
C51 C34 1_555 1_555
H40 C51 1_555 1_555
H41 C51 1_555 1_555
H42 C51 1_555 1_555
C52 C43 1_555 1_555
H43 C52 1_555 1_555
H44 C52 1_555 1_555
H45 C52 1_555 1_555
C53 C34 1_555 1_555
H46 C53 1_555 1_555
H47 C53 1_555 1_555
H48 C53 1_555 1_555
C54 C42 1_555 1_555
C55 C37 1_555 1_555
H49 C55 1_555 1_555
H50 C55 1_555 1_555
H51 C55 1_555 1_555
C56 C33 1_555 1_555
H52 C56 1_555 1_555
H53 C56 1_555 1_555
H54 C56 1_555 1_555
C57 C45 1_555 1_555
H55 C57 1_555 1_555
C58 C39 1_555 1_555
H56 C58 1_555 1_555
C59 C37 1_555 1_555
H57 C59 1_555 1_555
H58 C59 1_555 1_555
H59 C59 1_555 1_555
C60 C43 1_555 1_555
H60 C60 1_555 1_555
H61 C60 1_555 1_555
H62 C60 1_555 1_555
C61 C33 1_555 1_555
H63 C61 1_555 1_555
H64 C61 1_555 1_555
H65 C61 1_555 1_555
C62 C33 1_555 1_555
H66 C62 1_555 1_555
H67 C62 1_555 1_555
H68 C62 1_555 1_555
C63 O10 1_555 1_555
H69 C63 1_555 1_555
H70 C63 1_555 1_555
H71 C63 1_555 1_555
C64 C43 1_555 1_555
H72 C64 1_555 1_555
H73 C64 1_555 1_555
H74 C64 1_555 1_555
C65 C37 1_555 1_555
H75 C65 1_555 1_555
H76 C65 1_555 1_555
H77 C65 1_555 1_555
C66 C34 1_555 1_555
H78 C66 1_555 1_555
H79 C66 1_555 1_555
H80 C66 1_555 1_555
O11 H81 1_555 1_555
O12 H85 1_555 1_555
C67 O11 1_555 1_555
H82 C67 1_555 1_555
H83 C67 1_555 1_555
H84 C67 1_555 1_555
H86 O12 1_555 1_555
C5 C12 1_555 1_555
C8 C19 1_555 1_555
C9 C12 1_555 1_555
C10 C27 1_555 1_555
C14 C17 1_555 1_555
C16 C23 1_555 1_555
C18 C21 1_555 1_555
C20 C25 1_555 1_555
C29 C32 1_555 1_555
C31 C36 1_555 1_555
C31 C46 1_555 1_555
C35 C47 1_555 1_555
C39 C44 1_555 1_555
C48 C50 1_555 1_555
C49 C54 1_555 1_555

#END
