
#######################################################################
#
#                 Cambridge Crystallographic Data Centre
#                                CCDC 
#
#######################################################################
#
# If this CIF has been generated from an entry in the Cambridge 
# Structural Database, then it will include bibliographic, chemical, 
# crystal, experimental, refinement or atomic coordinate data resulting 
# from the CCDC's data processing and validation procedures.
#
#######################################################################

data_GUBTEE
_chemical_formula_moiety         'C32 H36 N4 O10,C2 H6 O1 S1'
_chemical_name_systematic        
"dimethyl 2,2'-((1,3,6,8-tetraoxo-1,3,6,8-tetrahydrobenzo[lmn][3,8]phenanthroline-2,7-diyl)bis((2-methyl-1-oxopropane-2,1-diyl)imino))bis(2-methylpropanoate) dimethyl sulfoxide solvate"
_symmetry_cell_setting           monoclinic
_symmetry_space_group_name_H-M   'P 21/n'
_symmetry_Int_Tables_number      14
_space_group_name_Hall           '-P 2yn'
loop_
_symmetry_equiv_pos_site_id
_symmetry_equiv_pos_as_xyz
1 x,y,z
2 1/2-x,1/2+y,1/2-z
3 -x,-y,-z
4 1/2+x,1/2-y,1/2+z
_cell_length_a                   8.6053(13)
_cell_length_b                   18.642(3)
_cell_length_c                   12.190(2)
_cell_angle_alpha                90
_cell_angle_beta                 98.319(5)
_cell_angle_gamma                90
_cell_volume                     1934.94
_exptl_crystal_colour            colorless
_exptl_crystal_description       rod
_cell_formula_units_Z            2
_exptl_crystal_recrystallization_method DMSO
loop_
_atom_site_label
_atom_site_type_symbol
_atom_site_fract_x
_atom_site_fract_y
_atom_site_fract_z
S1 S 0.00394(16) 0.08610(7) 0.83919(11)
O1 O 0.1039(4) 0.03871(17) 0.7788(3)
C1 C -0.1273(6) 0.1313(3) 0.7376(5)
H1 H -0.2031 0.0970 0.6997
H2 H -0.0684 0.1536 0.6835
H3 H -0.1834 0.1685 0.7731
C2 C 0.1206(6) 0.1616(3) 0.8881(4)
H4 H 0.2031 0.1465 0.9476
H5 H 0.0542 0.1978 0.9165
H6 H 0.1688 0.1820 0.8271
O2 O 0.0209(3) 0.53344(15) 0.8405(2)
O3 O 0.3687(3) 0.30045(15) 0.9072(2)
O4 O 0.1356(3) 0.32118(15) 0.6991(2)
O5 O 0.7386(3) 0.26204(16) 0.8868(3)
O6 O 0.6755(3) 0.36393(15) 0.9681(2)
N1 N 0.1280(4) 0.43405(17) 0.7695(3)
N2 N 0.4433(4) 0.38920(18) 0.7989(3)
H7 H 0.4239 0.4327 0.7722
C3 C 0.3437(5) 0.3588(2) 0.8613(3)
C4 C 0.0201(4) 0.4863(2) 0.5545(3)
C5 C 0.0530(5) 0.5016(2) 0.7601(3)
C6 C 0.1098(4) 0.3847(2) 0.6820(3)
C7 C 0.0616(5) 0.4131(2) 0.5675(3)
C8 C 0.2039(5) 0.4066(2) 0.8810(3)
C9 C 0.0628(5) 0.3701(2) 0.4773(4)
H8 H 0.0890 0.3208 0.4872
C10 C 0.0154(4) 0.5313(2) 0.6458(3)
C11 C 0.0255(5) 0.3980(2) 0.3696(3)
H9 H 0.0287 0.3677 0.3073
C12 C 0.0834(5) 0.3643(2) 0.9356(3)
H10 H -0.0038 0.3959 0.9471
H11 H 0.1334 0.3456 1.0072
H12 H 0.0433 0.3243 0.8875
C13 C 0.5376(6) 0.2914(3) 0.6922(4)
H13 H 0.4809 0.3118 0.6238
H14 H 0.4701 0.2569 0.7233
H15 H 0.6326 0.2670 0.6758
C14 C 0.6718(5) 0.3195(2) 0.8825(4)
C15 C 0.5831(5) 0.3509(2) 0.7750(3)
C16 C 0.2779(5) 0.4669(2) 0.9570(3)
H16 H 0.1956 0.4999 0.9735
H17 H 0.3540 0.4932 0.9198
H18 H 0.3313 0.4462 1.0262
C17 C 0.6929(5) 0.4055(2) 0.7302(4)
H19 H 0.6392 0.4268 0.6615
H20 H 0.7884 0.3810 0.7151
H21 H 0.7210 0.4433 0.7854
C18 C 0.7476(6) 0.3358(2) 1.0743(4)
H22 H 0.7448 0.3724 1.1317
H23 H 0.8569 0.3227 1.0701
H24 H 0.6898 0.2933 1.0929
O2B O -0.0209(3) 0.46656(15) 0.1595(2)
O3B O -0.3687(3) 0.69955(15) 0.0928(2)
O4B O -0.1356(3) 0.67882(15) 0.3009(2)
O5B O -0.7386(3) 0.73796(16) 0.1132(3)
O6B O -0.6755(3) 0.63607(15) 0.0319(2)
N1B N -0.1280(4) 0.56595(17) 0.2305(3)
N2B N -0.4433(4) 0.61080(18) 0.2011(3)
H7B H -0.4239 0.5673 0.2278
C3B C -0.3437(5) 0.6412(2) 0.1387(3)
C4B C -0.0201(4) 0.5137(2) 0.4455(3)
C5B C -0.0530(5) 0.4984(2) 0.2399(3)
C6B C -0.1098(4) 0.6153(2) 0.3180(3)
C7B C -0.0616(5) 0.5869(2) 0.4325(3)
C8B C -0.2039(5) 0.5934(2) 0.1190(3)
C9B C -0.0628(5) 0.6299(2) 0.5227(4)
H8B H -0.0890 0.6792 0.5128
C10B C -0.0154(4) 0.4687(2) 0.3542(3)
C11B C -0.0255(5) 0.6020(2) 0.6304(3)
H9B H -0.0287 0.6323 0.6927
C12B C -0.0834(5) 0.6357(2) 0.0644(3)
H10B H 0.0038 0.6041 0.0529
H11B H -0.1334 0.6544 -0.0072
H12B H -0.0433 0.6757 0.1125
C13B C -0.5376(6) 0.7086(3) 0.3078(4)
H13B H -0.4809 0.6882 0.3762
H14B H -0.4701 0.7431 0.2767
H15B H -0.6326 0.7330 0.3242
C14B C -0.6718(5) 0.6805(2) 0.1175(4)
C15B C -0.5831(5) 0.6491(2) 0.2250(3)
C16B C -0.2779(5) 0.5331(2) 0.0430(3)
H16B H -0.1956 0.5001 0.0265
H17B H -0.3540 0.5068 0.0802
H18B H -0.3313 0.5538 -0.0262
C17B C -0.6929(5) 0.5945(2) 0.2698(4)
H19B H -0.6392 0.5732 0.3385
H20B H -0.7884 0.6190 0.2849
H21B H -0.7210 0.5567 0.2146
C18B C -0.7476(6) 0.6642(2) -0.0743(4)
H22B H -0.7448 0.6276 -0.1317
H23B H -0.8569 0.6773 -0.0701
H24B H -0.6898 0.7067 -0.0929
loop_
_geom_bond_atom_site_label_1
_geom_bond_atom_site_label_2
_geom_bond_site_symmetry_1
_geom_bond_site_symmetry_2
S1 O1 1_555 1_555
C1 S1 1_555 1_555
H1 C1 1_555 1_555
H2 C1 1_555 1_555
H3 C1 1_555 1_555
C2 S1 1_555 1_555
H4 C2 1_555 1_555
H5 C2 1_555 1_555
H6 C2 1_555 1_555
O2 C5 1_555 1_555
O3 C3 1_555 1_555
O4 C6 1_555 1_555
O5 C14 1_555 1_555
O6 C14 1_555 1_555
N1 C5 1_555 1_555
N2 H7 1_555 1_555
C3 N2 1_555 1_555
C4 C7 1_555 1_555
C5 C10 1_555 1_555
C6 N1 1_555 1_555
C7 C6 1_555 1_555
C8 N1 1_555 1_555
C9 C7 1_555 1_555
H8 C9 1_555 1_555
C10 C4 1_555 1_555
C11 C9 1_555 1_555
H9 C11 1_555 1_555
C12 C8 1_555 1_555
H10 C12 1_555 1_555
H11 C12 1_555 1_555
H12 C12 1_555 1_555
C13 H13 1_555 1_555
H14 C13 1_555 1_555
H15 C13 1_555 1_555
C14 C15 1_555 1_555
C15 N2 1_555 1_555
C16 C8 1_555 1_555
H16 C16 1_555 1_555
H17 C16 1_555 1_555
H18 C16 1_555 1_555
C17 C15 1_555 1_555
H19 C17 1_555 1_555
H20 C17 1_555 1_555
H21 C17 1_555 1_555
C18 O6 1_555 1_555
H22 C18 1_555 1_555
H23 C18 1_555 1_555
H24 C18 1_555 1_555
O2B C5B 1_555 1_555
O3B C3B 1_555 1_555
O4B C6B 1_555 1_555
O5B C14B 1_555 1_555
O6B C14B 1_555 1_555
N1B C5B 1_555 1_555
N2B H7B 1_555 1_555
C3B N2B 1_555 1_555
C4B C4 1_555 1_555
C5B C10B 1_555 1_555
C6B N1B 1_555 1_555
C7B C4B 1_555 1_555
C8B N1B 1_555 1_555
C9B C7B 1_555 1_555
H8B C9B 1_555 1_555
C10B C11 1_555 1_555
C11B C10 1_555 1_555
H9B C11B 1_555 1_555
C12B C8B 1_555 1_555
H10B C12B 1_555 1_555
H11B C12B 1_555 1_555
H12B C12B 1_555 1_555
C13B H13B 1_555 1_555
H14B C13B 1_555 1_555
H15B C13B 1_555 1_555
C14B C15B 1_555 1_555
C15B N2B 1_555 1_555
C16B C8B 1_555 1_555
H16B C16B 1_555 1_555
H17B C16B 1_555 1_555
H18B C16B 1_555 1_555
C17B C15B 1_555 1_555
H19B C17B 1_555 1_555
H20B C17B 1_555 1_555
H21B C17B 1_555 1_555
C18B O6B 1_555 1_555
H22B C18B 1_555 1_555
H23B C18B 1_555 1_555
H24B C18B 1_555 1_555
C3 C8 1_555 1_555
C13 C15 1_555 1_555
C3B C8B 1_555 1_555
C4B C10B 1_555 1_555
C6B C7B 1_555 1_555
C9B C11B 1_555 1_555
C13B C15B 1_555 1_555

#END
