
#######################################################################
#
#                 Cambridge Crystallographic Data Centre
#                                CCDC 
#
#######################################################################
#
# If this CIF has been generated from an entry in the Cambridge 
# Structural Database, then it will include bibliographic, chemical, 
# crystal, experimental, refinement or atomic coordinate data resulting 
# from the CCDC's data processing and validation procedures.
#
#######################################################################

data_GUBYIN
_chemical_formula_moiety         'C28 H19 N7 O1'
_chemical_name_systematic        
4-(2-(8-(4-(4-methoxyphenyl)-2H-1,2,3-triazol-2-yl)-1-naphthyl)-2H-1,2,3-triazol-4-yl)benzonitrile
_symmetry_cell_setting           triclinic
_symmetry_space_group_name_H-M   'P -1'
_symmetry_Int_Tables_number      2
_space_group_name_Hall           '-P 1'
loop_
_symmetry_equiv_pos_site_id
_symmetry_equiv_pos_as_xyz
1 x,y,z
2 -x,-y,-z
_cell_length_a                   10.2477(4)
_cell_length_b                   10.8191(4)
_cell_length_c                   11.3109(4)
_cell_angle_alpha                79.0525(11)
_cell_angle_beta                 66.6749(11)
_cell_angle_gamma                76.9949(12)
_cell_volume                     1114.88
_exptl_crystal_colour            'light yellow'
_exptl_crystal_description       parallelepiped
_cell_formula_units_Z            2
loop_
_atom_site_label
_atom_site_type_symbol
_atom_site_fract_x
_atom_site_fract_y
_atom_site_fract_z
O1 O 0.4132(2) 0.44739(15) 0.92057(15)
N1 N 0.94253(17) 0.23858(14) 0.26487(15)
N2 N 0.89338(17) 0.35018(14) 0.31319(15)
N3 N 0.98116(18) 0.14090(16) 0.34263(16)
N4 N 0.72604(18) 0.08132(14) 0.32788(15)
N5 N 0.65921(16) 0.18305(14) 0.39215(15)
N6 N 0.7414(2) -0.02867(16) 0.40146(18)
N7 N 0.6586(3) 0.8029(2) 0.8207(2)
C1 C 0.89785(19) 0.32359(17) 0.43160(17)
C2 C 0.9524(2) 0.19389(19) 0.44859(19)
H1 H 0.9664 0.151 0.5232
C3 C 0.84745(19) 0.42388(17) 0.51784(17)
C4 C 0.8104(2) 0.54973(19) 0.4710(2)
H2 H 0.8194 0.5692 0.3847
C5 C 0.7610(3) 0.6459(2) 0.5494(2)
H3 H 0.7354 0.7293 0.5166
C6 C 0.7491(2) 0.6184(2) 0.67773(19)
C7 C 0.7861(3) 0.4944(2) 0.7253(2)
H4 H 0.7787 0.4754 0.8112
C8 C 0.8341(2) 0.3981(2) 0.6462(2)
H5 H 0.8579 0.3145 0.6798
C9 C 0.6989(3) 0.7200(2) 0.7587(2)
C10 C 0.9609(2) 0.23052(18) 0.13401(18)
C11 C 1.0561(2) 0.3010(2) 0.0414(2)
H6 H 1.1031 0.3499 0.0659
C12 C 1.0842(3) 0.3008(2) -0.0898(2)
H7 H 1.1485 0.3501 -0.1524
C13 C 1.0171(2) 0.2283(2) -0.1249(2)
H8 H 1.0389 0.2257 -0.2124
C14 C 0.9150(2) 0.15641(18) -0.03221(18)
C15 C 0.8458(2) 0.0827(2) -0.0727(2)
H9 H 0.8698 0.0812 -0.1609
C16 C 0.7459(3) 0.0146(2) 0.0133(2)
H10 H 0.7024 -0.0341 -0.0151
C17 C 0.7085(2) 0.0180(2) 0.1461(2)
H11 H 0.6383 -0.0277 0.2055
C18 C 0.7729(2) 0.08681(17) 0.18993(18)
C19 C 0.88136(19) 0.15781(16) 0.10314(17)
C20 C 0.6317(2) 0.13649(18) 0.51619(18)
C21 C 0.6825(3) 0.0058(2) 0.5200(2)
H12 H 0.6759 -0.0495 0.5952
C22 C 0.56719(19) 0.21758(17) 0.62189(17)
C23 C 0.4992(2) 0.34173(19) 0.60417(19)
H13 H 0.4901 0.3727 0.5248
C24 C 0.4446(2) 0.42074(19) 0.70136(19)
H14 H 0.3991 0.5037 0.6873
C25 C 0.4580(2) 0.37605(18) 0.81936(18)
C26 C 0.5224(2) 0.25129(19) 0.8404(2)
H15 H 0.529 0.2199 0.9207
C27 C 0.5766(2) 0.17363(18) 0.74264(19)
H16 H 0.6203 0.0902 0.7575
C28 C 0.3577(3) 0.5773(2) 0.9019(3)
H17 H 0.4223 0.6162 0.8234
H18 H 0.3476 0.6185 0.9739
H19 H 0.2652 0.5861 0.8958
loop_
_geom_bond_atom_site_label_1
_geom_bond_atom_site_label_2
_geom_bond_site_symmetry_1
_geom_bond_site_symmetry_2
O1 C25 1_555 1_555
N1 N2 1_555 1_555
N2 C1 1_555 1_555
N3 N1 1_555 1_555
N4 N5 1_555 1_555
N5 C20 1_555 1_555
N6 N4 1_555 1_555
N7 C9 1_555 1_555
C1 C2 1_555 1_555
C2 N3 1_555 1_555
H1 C2 1_555 1_555
C3 C1 1_555 1_555
C4 C3 1_555 1_555
H2 C4 1_555 1_555
C5 C4 1_555 1_555
H3 C5 1_555 1_555
C6 C5 1_555 1_555
C7 C6 1_555 1_555
H4 C7 1_555 1_555
C8 C3 1_555 1_555
H5 C8 1_555 1_555
C9 C6 1_555 1_555
C10 N1 1_555 1_555
C11 C10 1_555 1_555
H6 C11 1_555 1_555
C12 C11 1_555 1_555
H7 C12 1_555 1_555
C13 C12 1_555 1_555
H8 C13 1_555 1_555
C14 C13 1_555 1_555
C15 C14 1_555 1_555
H9 C15 1_555 1_555
C16 C15 1_555 1_555
H10 C16 1_555 1_555
C17 C16 1_555 1_555
H11 C17 1_555 1_555
C18 N4 1_555 1_555
C19 C10 1_555 1_555
C20 C21 1_555 1_555
C21 N6 1_555 1_555
H12 C21 1_555 1_555
C22 C20 1_555 1_555
C23 C22 1_555 1_555
H13 C23 1_555 1_555
C24 C23 1_555 1_555
H14 C24 1_555 1_555
C25 C24 1_555 1_555
C26 C25 1_555 1_555
H15 C26 1_555 1_555
C27 C22 1_555 1_555
H16 C27 1_555 1_555
C28 O1 1_555 1_555
H17 C28 1_555 1_555
H18 C28 1_555 1_555
H19 C28 1_555 1_555
C7 C8 1_555 1_555
C14 C19 1_555 1_555
C17 C18 1_555 1_555
C18 C19 1_555 1_555
C26 C27 1_555 1_555

#END
