
#######################################################################
#
#                 Cambridge Crystallographic Data Centre
#                                CCDC 
#
#######################################################################
#
# If this CIF has been generated from an entry in the Cambridge 
# Structural Database, then it will include bibliographic, chemical, 
# crystal, experimental, refinement or atomic coordinate data resulting 
# from the CCDC's data processing and validation procedures.
#
#######################################################################

data_GUDDOY
_chemical_formula_moiety         'C30 H46 B2 N2,0.5(C6 H6)'
_chemical_name_systematic        
"exo,exo-5,5'-Bi-((1R,9R)-6,10,10-trimethyl-4-dimethyliminio-4-boratricyclo(7.1.1.0^2,7^)undeca-2,6-dienyl) benzene solvate"
_symmetry_cell_setting           orthorhombic
_symmetry_space_group_name_H-M   'P 21 21 2'
_symmetry_Int_Tables_number      18
_space_group_name_Hall           'P 2 2ab'
loop_
_symmetry_equiv_pos_site_id
_symmetry_equiv_pos_as_xyz
1 x,y,z
2 -x,-y,z
3 1/2+x,1/2-y,-z
4 1/2-x,1/2+y,-z
_cell_length_a                   29.975(5)
_cell_length_b                   9.806(3)
_cell_length_c                   10.126(2)
_cell_angle_alpha                90
_cell_angle_beta                 90
_cell_angle_gamma                90
_cell_volume                     2976.38
_exptl_crystal_colour            'light yellow'
_exptl_crystal_description       irregular
_cell_formula_units_Z            4
loop_
_atom_site_label
_atom_site_type_symbol
_atom_site_fract_x
_atom_site_fract_y
_atom_site_fract_z
N1 N 0.21326(6) 0.8864(2) 0.1305(2)
N2 N 0.06547(7) 0.6948(2) 0.3279(2)
C1 C 0.12582(7) 0.9084(2) 0.1136(2)
C2 C 0.09175(7) 0.8447(2) 0.0232(2)
C3 C 0.09325(7) 0.7112(2) -0.0110(2)
C4 C 0.12930(7) 0.6204(2) 0.0365(2)
C5 C 0.16570(7) 0.6685(2) 0.0990(2)
C6 C 0.05603(8) 0.9385(2) -0.0277(3)
C7 C 0.05830(8) 0.6478(2) -0.1012(3)
C8 C 0.06414(8) 0.4934(2) -0.1124(2)
C9 C 0.07247(8) 0.4369(2) 0.0268(3)
C10 C 0.12210(8) 0.4724(2) 0.0044(2)
C11 C 0.11323(8) 0.4544(2) -0.1466(2)
C12 C 0.1170(1) 0.3059(3) -0.1907(3)
C13 C 0.13885(9) 0.5437(3) -0.2436(2)
C14 C 0.22156(8) 1.0328(2) 0.1341(2)
C15 C 0.25490(8) 0.8107(2) 0.1348(2)
C16 C 0.10435(7) 0.9249(2) 0.2593(2)
C17 C 0.13082(7) 1.0306(2) 0.3352(2)
C18 C 0.16110(7) 0.9966(2) 0.4273(2)
C19 C 0.17004(7) 0.8517(2) 0.4624(2)
C20 C 0.14411(8) 0.7490(2) 0.4179(2)
C21 C 0.12134(9) 1.1777(2) 0.3007(3)
C22 C 0.18882(8) 1.1028(2) 0.4995(2)
C23 C 0.22497(7) 1.0393(2) 0.5853(2)
C24 C 0.24747(7) 0.9245(2) 0.5044(2)
C25 C 0.20916(8) 0.8315(2) 0.5520(2)
C26 C 0.20561(8) 0.9265(2) 0.6767(2)
C27 C 0.16033(8) 0.9496(2) 0.7388(2)
C28 C 0.23866(9) 0.8820(2) 0.7838(2)
C29 C 0.0639(1) 0.5641(3) 0.3959(3)
C30 C 0.02338(9) 0.7278(3) 0.2648(3)
B1 B 0.17116(9) 0.8243(2) 0.1185(2)
B2 B 0.10277(9) 0.7814(3) 0.3320(3)
H1 H 0.1318(7) 0.999(2) 0.076(2)
H2 H 0.1896(7) 0.606(2) 0.117(2)
H3 H 0.065(2) 0.984(5) -0.128(4)
H4 H 0.053(1) 1.015(3) 0.030(3)
H5 H 0.0306(8) 0.905(3) -0.047(2)
H6 H 0.0589(7) 0.692(2) -0.196(2)
H7 H 0.0288(8) 0.666(2) -0.072(2)
H8 H 0.0400(8) 0.447(2) -0.173(2)
H9 H 0.0595(8) 0.480(2) 0.115(2)
H10 H 0.070(1) 0.350(3) 0.044(3)
H11 H 0.1449(8) 0.416(2) 0.042(2)
H12 H 0.1468(9) 0.269(2) -0.191(3)
H13 H 0.1024(9) 0.294(3) -0.276(3)
H14 H 0.099(1) 0.243(3) -0.135(3)
H15 H 0.139(1) 0.648(3) -0.216(3)
H16 H 0.170(1) 0.517(3) -0.265(3)
H17 H 0.1244(9) 0.534(3) -0.332(3)
H18 H 0.194(1) 1.087(3) 0.100(3)
H19 H 0.2323(8) 1.058(2) 0.219(2)
H20 H 0.2462(8) 1.055(2) 0.058(2)
H21 H 0.2752(7) 0.843(2) 0.060(2)
H22 H 0.2495(9) 0.713(2) 0.125(2)
H23 H 0.2717(9) 0.827(3) 0.214(3)
H24 H 0.0748(7) 0.968(2) 0.253(2)
H25 H 0.1534(7) 0.660(2) 0.447(2)
H26 H 0.090(2) 1.203(4) 0.327(5)
H27 H 0.113(1) 1.197(3) 0.208(3)
H28 H 0.140(2) 1.226(4) 0.349(5)
H29 H 0.1675(7) 1.164(2) 0.544(2)
H30 H 0.2043(8) 1.168(2) 0.436(2)
H31 H 0.2449(7) 1.104(2) 0.626(2)
H32 H 0.2494(7) 0.946(2) 0.414(2)
H33 H 0.2759(7) 0.893(2) 0.536(2)
H34 H 0.2139(7) 0.736(2) 0.557(2)
H35 H 0.1512(9) 0.869(3) 0.791(3)
H36 H 0.1338(9) 0.981(3) 0.666(3)
H37 H 0.1608(9) 1.022(3) 0.800(3)
H38 H 0.2391(8) 0.949(3) 0.870(2)
H39 H 0.2696(9) 0.865(3) 0.747(3)
H40 H 0.2289(8) 0.797(3) 0.839(2)
H41 H 0.050(1) 0.495(3) 0.324(3)
H42 H 0.044(1) 0.573(3) 0.468(3)
H43 H 0.097(2) 0.541(4) 0.418(4)
H44 H 0.0024(9) 0.723(3) 0.317(3)
H45 H 0.024(1) 0.825(3) 0.226(3)
H46 H 0.012(1) 0.659(3) 0.203(3)
C31 C 0.5051(1) 0.3618(4) 0.4055(3)
C32 C 0.4627(1) 0.4169(4) 0.4068(3)
C33 C 0.5420(1) 0.4447(4) 0.4068(3)
H47 H 0.511(1) 0.275(3) 0.412(3)
H48 H 0.433(1) 0.357(4) 0.396(4)
H49 H 0.577(1) 0.409(4) 0.381(4)
C33A C 0.4580(1) 0.5553(4) 0.4068(3)
C31A C 0.4949(1) 0.6382(4) 0.4055(3)
C32A C 0.5373(1) 0.5831(4) 0.4068(3)
H48A H 0.567(1) 0.643(4) 0.396(4)
H47A H 0.489(1) 0.725(3) 0.412(3)
H49A H 0.423(1) 0.591(4) 0.381(4)
loop_
_geom_bond_atom_site_label_1
_geom_bond_atom_site_label_2
_geom_bond_site_symmetry_1
_geom_bond_site_symmetry_2
N1 C14 1_555 1_555
N2 C29 1_555 1_555
C1 C2 1_555 1_555
C2 C3 1_555 1_555
C3 C4 1_555 1_555
C4 C5 1_555 1_555
C5 B1 1_555 1_555
C6 C2 1_555 1_555
C7 C3 1_555 1_555
C8 C7 1_555 1_555
C9 C8 1_555 1_555
C10 C4 1_555 1_555
C11 C8 1_555 1_555
C12 C11 1_555 1_555
C13 C11 1_555 1_555
C14 H18 1_555 1_555
C15 N1 1_555 1_555
C16 C1 1_555 1_555
C17 C16 1_555 1_555
C18 C17 1_555 1_555
C19 C18 1_555 1_555
C20 C19 1_555 1_555
C21 C17 1_555 1_555
C22 C18 1_555 1_555
C23 C22 1_555 1_555
C24 C23 1_555 1_555
C25 C19 1_555 1_555
C26 C23 1_555 1_555
C27 C26 1_555 1_555
C28 C26 1_555 1_555
C29 H41 1_555 1_555
C30 N2 1_555 1_555
C31 C32 1_555 1_555
C32 H48 1_555 1_555
C33 C31 1_555 1_555
B1 N1 1_555 1_555
B2 N2 1_555 1_555
H1 C1 1_555 1_555
H2 C5 1_555 1_555
H3 C6 1_555 1_555
H4 C6 1_555 1_555
H5 C6 1_555 1_555
H6 C7 1_555 1_555
H7 C7 1_555 1_555
H8 C8 1_555 1_555
H9 C9 1_555 1_555
H10 C9 1_555 1_555
H11 C10 1_555 1_555
H12 C12 1_555 1_555
H13 C12 1_555 1_555
H14 C12 1_555 1_555
H15 C13 1_555 1_555
H16 C13 1_555 1_555
H17 C13 1_555 1_555
H19 C14 1_555 1_555
H20 C14 1_555 1_555
H21 C15 1_555 1_555
H22 C15 1_555 1_555
H23 C15 1_555 1_555
H24 C16 1_555 1_555
H25 C20 1_555 1_555
H26 C21 1_555 1_555
H27 C21 1_555 1_555
H28 C21 1_555 1_555
H29 C22 1_555 1_555
H30 C22 1_555 1_555
H31 C23 1_555 1_555
H32 C24 1_555 1_555
H33 C24 1_555 1_555
H34 C25 1_555 1_555
H35 C27 1_555 1_555
H36 C27 1_555 1_555
H37 C27 1_555 1_555
H38 C28 1_555 1_555
H39 C28 1_555 1_555
H40 C28 1_555 1_555
H42 C29 1_555 1_555
H43 C29 1_555 1_555
H44 C30 1_555 1_555
H45 C30 1_555 1_555
H46 C30 1_555 1_555
H47 C31 1_555 1_555
H49 C33 1_555 1_555
C33A C32 1_555 1_555
C31A C33A 1_555 1_555
C32A C33 1_555 1_555
H48A C32A 1_555 1_555
H47A C31A 1_555 1_555
H49A C33A 1_555 1_555
C1 B1 1_555 1_555
C9 C10 1_555 1_555
C10 C11 1_555 1_555
C16 B2 1_555 1_555
C20 B2 1_555 1_555
C24 C25 1_555 1_555
C25 C26 1_555 1_555
C31A C32A 1_555 1_555

#END
