
#######################################################################
#
#                 Cambridge Crystallographic Data Centre
#                                CCDC 
#
#######################################################################
#
# If this CIF has been generated from an entry in the Cambridge 
# Structural Database, then it will include bibliographic, chemical, 
# crystal, experimental, refinement or atomic coordinate data resulting 
# from the CCDC's data processing and validation procedures.
#
#######################################################################

data_GUDDIS
_chemical_formula_moiety         'C18 H22 B1 N1'
_chemical_name_systematic        
((1R,9R)-6,10,10-Trimethyl-4-boratricyclo(7.1.1.0^2,7^)undeca-2,4,6-triene-B)-pyridine
_symmetry_cell_setting           orthorhombic
_symmetry_space_group_name_H-M   'P 21 21 21'
_symmetry_Int_Tables_number      19
_space_group_name_Hall           'P 2ac 2ab'
loop_
_symmetry_equiv_pos_site_id
_symmetry_equiv_pos_as_xyz
1 x,y,z
2 1/2-x,-y,1/2+z
3 1/2+x,1/2-y,-z
4 -x,1/2+y,1/2-z
_cell_length_a                   9.822(1)
_cell_length_b                   11.420(1)
_cell_length_c                   13.593(1)
_cell_angle_alpha                90
_cell_angle_beta                 90
_cell_angle_gamma                90
_cell_volume                     1524.69
_exptl_crystal_colour            red
_exptl_crystal_description       rod
_cell_formula_units_Z            4
loop_
_atom_site_label
_atom_site_type_symbol
_atom_site_fract_x
_atom_site_fract_y
_atom_site_fract_z
N1 N 0.3765(2) 0.5643(2) 0.0063(2)
C1 C 0.4894(3) 0.6078(3) 0.1786(2)
C2 C 0.5934(3) 0.5884(3) 0.2468(2)
C3 C 0.6977(3) 0.5077(3) 0.2266(2)
C4 C 0.6989(3) 0.4435(2) 0.1391(2)
C5 C 0.5986(3) 0.4552(2) 0.0669(2)
C6 C 0.5952(4) 0.6556(3) 0.3428(2)
C7 C 0.8166(3) 0.4913(3) 0.2981(2)
C8 C 0.9162(3) 0.4010(3) 0.2604(2)
C9 C 0.8372(3) 0.2919(3) 0.2240(2)
C10 C 0.8171(3) 0.3591(2) 0.1273(2)
C11 C 0.9546(3) 0.4234(2) 0.1512(2)
C12 C 1.0782(3) 0.3508(3) 0.1185(3)
C13 C 0.9739(3) 0.5471(3) 0.1157(2)
C14 C 0.3229(3) 0.6712(2) -0.0058(2)
C15 C 0.2251(3) 0.6957(3) -0.0756(3)
C16 C 0.1819(3) 0.6067(3) -0.1353(2)
C17 C 0.2361(3) 0.4969(3) -0.1248(2)
C18 C 0.3333(3) 0.4788(2) -0.0529(2)
B1 B 0.4877(3) 0.5411(3) 0.0855(2)
H1 H 0.432(3) 0.673(2) 0.195(2)
H2 H 0.614(2) 0.401(2) 0.006(2)
H3 H 0.573(3) 0.601(3) 0.400(2)
H4 H 0.520(4) 0.712(3) 0.346(2)
H5 H 0.662(3) 0.707(3) 0.344(2)
H6 H 0.783(3) 0.467(2) 0.369(2)
H7 H 0.857(3) 0.571(3) 0.310(2)
H8 H 0.988(3) 0.378(2) 0.312(2)
H9 H 0.751(3) 0.285(3) 0.263(2)
H10 H 0.873(3) 0.215(3) 0.223(2)
H11 H 0.816(2) 0.313(2) 0.063(2)
H12 H 1.072(3) 0.267(2) 0.141(2)
H13 H 1.162(4) 0.388(3) 0.143(3)
H14 H 1.086(3) 0.341(3) 0.043(2)
H15 H 0.900(3) 0.609(2) 0.135(2)
H16 H 0.966(3) 0.543(2) 0.044(2)
H17 H 1.049(4) 0.572(3) 0.148(3)
H18 H 0.359(2) 0.729(2) 0.039(2)
H19 H 0.190(3) 0.787(2) -0.080(2)
H20 H 0.116(3) 0.620(3) -0.193(2)
H21 H 0.199(3) 0.426(3) -0.156(2)
H22 H 0.364(2) 0.402(2) -0.040(2)
loop_
_geom_bond_atom_site_label_1
_geom_bond_atom_site_label_2
_geom_bond_site_symmetry_1
_geom_bond_site_symmetry_2
N1 C14 1_555 1_555
C1 C2 1_555 1_555
C2 C3 1_555 1_555
C3 C4 1_555 1_555
C4 C5 1_555 1_555
C5 B1 1_555 1_555
C6 C2 1_555 1_555
C7 C3 1_555 1_555
C8 C7 1_555 1_555
C9 C8 1_555 1_555
C10 C4 1_555 1_555
C11 C8 1_555 1_555
C12 C11 1_555 1_555
C13 C11 1_555 1_555
C14 C15 1_555 1_555
C15 C16 1_555 1_555
C16 C17 1_555 1_555
C17 C18 1_555 1_555
C18 N1 1_555 1_555
B1 N1 1_555 1_555
H1 C1 1_555 1_555
H2 C5 1_555 1_555
H3 C6 1_555 1_555
H4 C6 1_555 1_555
H5 C6 1_555 1_555
H6 C7 1_555 1_555
H7 C7 1_555 1_555
H8 C8 1_555 1_555
H9 C9 1_555 1_555
H10 C9 1_555 1_555
H11 C10 1_555 1_555
H12 C12 1_555 1_555
H13 C12 1_555 1_555
H14 C12 1_555 1_555
H15 C13 1_555 1_555
H16 C13 1_555 1_555
H17 C13 1_555 1_555
H18 C14 1_555 1_555
H19 C15 1_555 1_555
H20 C16 1_555 1_555
H21 C17 1_555 1_555
H22 C18 1_555 1_555
C1 B1 1_555 1_555
C9 C10 1_555 1_555
C10 C11 1_555 1_555

#END
