
#######################################################################
#
#                 Cambridge Crystallographic Data Centre
#                                CCDC 
#
#######################################################################
#
# If this CIF has been generated from an entry in the Cambridge 
# Structural Database, then it will include bibliographic, chemical, 
# crystal, experimental, refinement or atomic coordinate data resulting 
# from the CCDC's data processing and validation procedures.
#
#######################################################################

data_GUDMOI
_chemical_formula_moiety         'C21 H20 N2 P2 Se3'
_chemical_name_systematic        
'2,5-Diphenyl-N-(2-phenylethyl)-2,5-dihydro-1,3,2,5-selenazadiphosphol-4-amine 2,5-diselenide'
_symmetry_cell_setting           triclinic
_symmetry_space_group_name_H-M   'P 1'
_symmetry_Int_Tables_number      1
_space_group_name_Hall           'P 1'
loop_
_symmetry_equiv_pos_site_id
_symmetry_equiv_pos_as_xyz
1 x,y,z
_cell_length_a                   8.8864(5)
_cell_length_b                   9.7663(14)
_cell_length_c                   13.739(2)
_cell_angle_alpha                84.651(13)
_cell_angle_beta                 74.529(12)
_cell_angle_gamma                73.472(12)
_cell_volume                     1101.49
_exptl_crystal_colour            yellow
_exptl_crystal_description       prism
_chemical_melting_point          133-134deg.C
_cell_formula_units_Z            2
loop_
_atom_site_label
_atom_site_type_symbol
_atom_site_fract_x
_atom_site_fract_y
_atom_site_fract_z
Se1 Se 0.84983(8) 0.43766(8) 1.41113(6)
Se2 Se 0.92561(8) 0.53997(8) 1.13977(6)
Se5 Se 0.84965(8) 0.38930(8) 0.92764(6)
P1 P 0.9804(2) 0.3467(2) 1.03851(15)
P4 P 0.7994(2) 0.4272(2) 1.27167(14)
N1 N 0.8349(7) 0.1412(7) 1.2820(5)
H2 H 0.7877 0.1635 1.3456
C2 C 1.5300(9) 0.2445(8) 0.9045(6)
H3 H 1.6436 0.2263 0.8764
C3 C 1.2603(9) 0.2901(9) 0.8820(6)
H4 H 1.1894 0.3025 0.8390
C4 C 0.3643(10) 0.5324(9) 1.1959(6)
H5 H 0.3266 0.5512 1.1361
C6 C 1.3021(9) 0.2832(8) 1.0504(6)
H7 H 1.2602 0.2901 1.1216
C7 C 0.4745(9) 0.4741(8) 1.3702(6)
H9 H 0.5122 0.4561 1.4299
C9 C 0.3053(10) 0.1324(10) 1.3118(7)
H10 H 0.2297 0.2238 1.3236
C10 C 0.5831(9) 0.4744(8) 1.2771(6)
N4 N 0.9454(8) 0.2201(7) 1.1222(5)
C11 C 0.5276(10) -0.1321(9) 1.2823(7)
H11 H 0.6032 -0.2238 1.2742
C12 C 0.5800(9) -0.0087(9) 1.2475(6)
C15 C 0.2544(10) 0.5328(9) 1.2897(6)
H14 H 0.1415 0.5554 1.2942
C17 C 1.4240(9) 0.2611(8) 0.8411(6)
H16 H 1.4664 0.2520 0.7701
C18 C 0.3644(11) -0.1189(10) 1.3288(7)
H17 H 0.3303 -0.2028 1.3510
C22 C 0.2522(11) 0.0106(10) 1.3432(6)
H21 H 0.1411 0.0176 1.3738
C23 C 0.7558(10) -0.0263(9) 1.1906(6)
H22 H 0.7590 0.0427 1.1331
H23 H 0.8000 -0.1234 1.1623
C25 C 1.1964(9) 0.3018(8) 0.9865(6)
C26 C 0.8734(8) 0.2430(8) 1.2174(6)
C27 C 0.3101(10) 0.5001(9) 1.3764(7)
H25 H 0.2359 0.4955 1.4401
C32 C 0.8673(10) -0.0053(8) 1.2524(6)
H31 H 0.8556 -0.0666 1.3140
H32 H 0.9811 -0.0376 1.2123
C33 C 0.4662(10) 0.1229(8) 1.2637(6)
H33 H 0.4987 0.2077 1.2416
C37 C 0.5302(9) 0.5042(8) 1.1896(6)
H36 H 0.6054 0.5056 1.1260
C38 C 1.4668(9) 0.2551(9) 1.0081(6)
H37 H 1.5382 0.2426 1.0507
Se3 Se 0.68070(8) -0.20531(8) 0.52312(6)
Se4 Se 0.68769(9) 0.16365(8) 0.54565(6)
Se6 Se 0.70747(9) -0.51923(8) 0.69605(6)
P2 P 0.7772(2) -0.3317(2) 0.64919(14)
P3 P 0.5867(2) -0.0018(2) 0.61636(15)
C1 C 0.2939(10) 0.1296(9) 0.5687(6)
H1 H 0.3586 0.1612 0.5089
N2 N 0.6241(8) -0.0558(7) 0.7260(5)
C5 C 0.4067(10) -0.3294(9) 0.9388(6)
H6 H 0.5047 -0.4039 0.9228
N3 N 0.7211(7) -0.2306(7) 0.8375(5)
H8 H 0.7753 -0.3197 0.8456
C8 C 0.6958(9) -0.1870(8) 0.7467(6)
C13 C 0.5540(10) -0.1992(10) 1.0129(6)
H12 H 0.6161 -0.2953 1.0307
H13 H 0.5227 -0.1380 1.0724
C14 C 0.4034(9) -0.2107(9) 0.9877(6)
C16 C 1.0931(9) -0.4783(8) 0.6521(6)
H15 H 1.0517 -0.5580 0.6764
C19 C 0.2589(11) -0.1041(10) 1.0128(6)
H18 H 0.2531 -0.0219 1.0469
C20 C 1.0537(10) -0.2332(9) 0.5870(6)
H19 H 0.9845 -0.1471 0.5682
C21 C 0.2730(10) -0.3431(10) 0.9127(7)
H20 H 0.2792 -0.4247 0.8777
C24 C 0.1211(11) -0.1183(10) 0.9875(7)
H24 H 0.0218 -0.0455 1.0048
C28 C 0.1060(10) 0.0397(9) 0.7454(7)
H26 H 0.0407 0.0104 0.8059
C29 C 0.2745(9) 0.0009(9) 0.7282(7)
H27 H 0.3252 -0.0568 0.7764
C30 C 0.6624(10) -0.1361(8) 0.9240(6)
H28 H 0.5998 -0.0412 0.9046
H29 H 0.7558 -0.1234 0.9450
C31 C 1.2157(10) -0.2442(10) 0.5781(6)
H30 H 1.2589 -0.1658 0.5523
C34 C 0.3673(9) 0.0471(8) 0.6406(6)
C35 C 0.0338(11) 0.1227(9) 0.6721(8)
H34 H -0.0808 0.1495 0.6833
C36 C 0.1280(12) 0.1654(10) 0.5844(7)
H35 H 0.0785 0.2195 0.5346
C39 C 1.2529(10) -0.4865(10) 0.6436(6)
H38 H 1.3221 -0.5723 0.6629
C40 C 1.3143(9) -0.3700(10) 0.6070(6)
H39 H 1.4250 -0.3770 0.6019
C41 C 0.1290(11) -0.2364(11) 0.9381(7)
H40 H 0.0353 -0.2452 0.9211
C42 C 0.9928(9) -0.3517(8) 0.6245(5)
loop_
_geom_bond_atom_site_label_1
_geom_bond_atom_site_label_2
_geom_bond_site_symmetry_1
_geom_bond_site_symmetry_2
Se1 P4 1_555 1_555
Se2 P1 1_555 1_555
Se3 P2 1_555 1_555
Se4 P3 1_555 1_555
Se5 P1 1_555 1_555
Se6 P2 1_555 1_555
P1 N4 1_555 1_555
P2 C8 1_555 1_555
P3 Se3 1_555 1_555
P4 Se2 1_555 1_555
C1 H1 1_555 1_555
N1 H2 1_555 1_555
C2 H3 1_555 1_555
C3 H4 1_555 1_555
N2 P3 1_555 1_555
C4 H5 1_555 1_555
C5 H6 1_555 1_555
C6 H7 1_555 1_555
N3 H8 1_555 1_555
C7 H9 1_555 1_555
C8 N2 1_555 1_555
C9 H10 1_555 1_555
C10 P4 1_555 1_555
N4 C26 1_555 1_555
C11 H11 1_555 1_555
C12 C11 1_555 1_555
C13 H12 1_555 1_555
H13 C13 1_555 1_555
C14 C5 1_555 1_555
C15 C4 1_555 1_555
H14 C15 1_555 1_555
C16 H15 1_555 1_555
C17 C2 1_555 1_555
H16 C17 1_555 1_555
C18 C11 1_555 1_555
H17 C18 1_555 1_555
C19 C14 1_555 1_555
H18 C19 1_555 1_555
C20 H19 1_555 1_555
C21 C5 1_555 1_555
H20 C21 1_555 1_555
C22 C9 1_555 1_555
H21 C22 1_555 1_555
C23 C12 1_555 1_555
H22 C23 1_555 1_555
H23 C23 1_555 1_555
C24 C19 1_555 1_555
H24 C24 1_555 1_555
C25 P1 1_555 1_555
C26 P4 1_555 1_555
C27 C7 1_555 1_555
H25 C27 1_555 1_555
C28 H26 1_555 1_555
C29 C28 1_555 1_555
H27 C29 1_555 1_555
C30 N3 1_555 1_555
H28 C30 1_555 1_555
H29 C30 1_555 1_555
C31 C20 1_555 1_555
H30 C31 1_555 1_555
C32 N1 1_555 1_555
H31 C32 1_555 1_555
H32 C32 1_555 1_555
C33 C9 1_555 1_555
H33 C33 1_555 1_555
C34 P3 1_555 1_555
C35 C28 1_555 1_555
H34 C35 1_555 1_555
C36 C1 1_555 1_555
H35 C36 1_555 1_555
C37 C4 1_555 1_555
H36 C37 1_555 1_555
C38 C2 1_555 1_555
H37 C38 1_555 1_555
C39 C16 1_555 1_555
H38 C39 1_555 1_555
C40 C31 1_555 1_555
H39 C40 1_555 1_555
C41 C21 1_555 1_555
H40 C41 1_555 1_555
C42 P2 1_555 1_555
C1 C34 1_555 1_555
N1 C26 1_555 1_555
C3 C17 1_555 1_555
C3 C25 1_555 1_555
C6 C25 1_555 1_555
C6 C38 1_555 1_555
N3 C8 1_555 1_555
C7 C10 1_555 1_555
C10 C37 1_555 1_555
C12 C33 1_555 1_555
C13 C14 1_555 1_555
C13 C30 1_555 1_555
C15 C27 1_555 1_555
C16 C42 1_555 1_555
C18 C22 1_555 1_555
C20 C42 1_555 1_555
C23 C32 1_555 1_555
C24 C41 1_555 1_555
C29 C34 1_555 1_555
C35 C36 1_555 1_555
C39 C40 1_555 1_555

#END
