
#######################################################################
#
#                 Cambridge Crystallographic Data Centre
#                                CCDC 
#
#######################################################################
#
# If this CIF has been generated from an entry in the Cambridge 
# Structural Database, then it will include bibliographic, chemical, 
# crystal, experimental, refinement or atomic coordinate data resulting 
# from the CCDC's data processing and validation procedures.
#
#######################################################################

data_GUDROO
_chemical_formula_moiety         'C21 H17 F1 O2 S1'
_chemical_name_systematic        
1-Fluoro-4-(2-((4-methylphenyl)sulfonyl)-2-phenylvinyl)benzene
_symmetry_cell_setting           monoclinic
_symmetry_space_group_name_H-M   'P 21/n'
_symmetry_Int_Tables_number      14
_space_group_name_Hall           '-P 2yn'
loop_
_symmetry_equiv_pos_site_id
_symmetry_equiv_pos_as_xyz
1 x,y,z
2 1/2-x,1/2+y,1/2-z
3 -x,-y,-z
4 1/2+x,1/2-y,1/2+z
_cell_length_a                   12.402(3)
_cell_length_b                   5.7820(11)
_cell_length_c                   24.377(5)
_cell_angle_alpha                90
_cell_angle_beta                 100.253(3)
_cell_angle_gamma                90
_cell_volume                     1720.12
_exptl_crystal_colour            colorless
_exptl_crystal_description       block
_cell_formula_units_Z            4
loop_
_atom_site_label
_atom_site_type_symbol
_atom_site_fract_x
_atom_site_fract_y
_atom_site_fract_z
S1 S 0.84299(5) 0.38309(13) 0.06192(3)
F1 F 1.33101(15) 1.2950(3) 0.18407(7)
O1 O 0.85770(16) 0.4348(4) 0.00632(8)
O2 O 0.84920(15) 0.1470(3) 0.07993(9)
C1 C 1.2505(2) 1.1444(5) 0.16116(12)
C2 C 1.2270(2) 0.9609(5) 0.19171(12)
H1 H 1.2654 0.9367 0.2276
C3 C 1.1453(2) 0.8114(5) 0.16841(11)
H2 H 1.1275 0.6869 0.1892
C4 C 1.08944(19) 0.8429(5) 0.11480(10)
C5 C 1.1187(2) 1.0311(5) 0.08508(11)
H3 H 1.0835 1.0529 0.0485
C6 C 1.1976(2) 1.1851(5) 0.10812(13)
H4 H 1.2146 1.3132 0.0882
C7 C 1.0028(2) 0.6901(5) 0.08718(11)
H5 H 0.9917 0.6915 0.0484
C8 C 0.9372(2) 0.5489(4) 0.10932(10)
C9 C 0.9284(2) 0.5182(4) 0.16874(10)
C10 C 0.8774(2) 0.6877(5) 0.19545(11)
H6 H 0.8502 0.8205 0.1763
C11 C 0.8670(3) 0.6589(6) 0.25035(12)
H7 H 0.8323 0.7719 0.2681
C12 C 0.9077(3) 0.4645(6) 0.27900(13)
H8 H 0.9006 0.4466 0.3161
C13 C 0.9586(3) 0.2965(5) 0.25326(13)
H9 H 0.9868 0.1655 0.2729
C14 C 0.9679(2) 0.3231(5) 0.19817(12)
H10 H 1.0012 0.2077 0.1805
C15 C 0.7141(2) 0.4911(5) 0.06998(10)
C16 C 0.6483(2) 0.3652(5) 0.09863(12)
H11 H 0.6725 0.2244 0.1147
C17 C 0.5465(2) 0.4485(6) 0.10340(13)
H12 H 0.5023 0.3625 0.1228
C18 C 0.5090(2) 0.6553(6) 0.08018(12)
C19 C 0.5780(3) 0.7813(5) 0.05297(13)
H13 H 0.5551 0.9247 0.0379
C20 C 0.6798(2) 0.7001(5) 0.04754(12)
H14 H 0.7248 0.7870 0.0287
C21 C 0.3983(2) 0.7477(7) 0.08493(15)
H15 H 0.3444 0.6843 0.0556
H16 H 0.3986 0.9132 0.0818
H17 H 0.3810 0.7049 0.1204
loop_
_geom_bond_atom_site_label_1
_geom_bond_atom_site_label_2
_geom_bond_site_symmetry_1
_geom_bond_site_symmetry_2
S1 O1 1_555 1_555
F1 C1 1_555 1_555
O2 S1 1_555 1_555
C1 C2 1_555 1_555
C2 H1 1_555 1_555
C3 C2 1_555 1_555
H2 C3 1_555 1_555
C4 C3 1_555 1_555
C5 C4 1_555 1_555
H3 C5 1_555 1_555
C6 C1 1_555 1_555
H4 C6 1_555 1_555
C7 C4 1_555 1_555
H5 C7 1_555 1_555
C8 S1 1_555 1_555
C9 C8 1_555 1_555
C10 C9 1_555 1_555
H6 C10 1_555 1_555
C11 C10 1_555 1_555
H7 C11 1_555 1_555
C12 C11 1_555 1_555
H8 C12 1_555 1_555
C13 C12 1_555 1_555
H9 C13 1_555 1_555
C14 C9 1_555 1_555
H10 C14 1_555 1_555
C15 S1 1_555 1_555
C16 C15 1_555 1_555
H11 C16 1_555 1_555
C17 C16 1_555 1_555
H12 C17 1_555 1_555
C18 C17 1_555 1_555
C19 C18 1_555 1_555
H13 C19 1_555 1_555
C20 C15 1_555 1_555
H14 C20 1_555 1_555
C21 C18 1_555 1_555
H15 C21 1_555 1_555
H16 C21 1_555 1_555
H17 C21 1_555 1_555
C5 C6 1_555 1_555
C7 C8 1_555 1_555
C13 C14 1_555 1_555
C19 C20 1_555 1_555

#END
