
#######################################################################
#
#                 Cambridge Crystallographic Data Centre
#                                CCDC 
#
#######################################################################
#
# If this CIF has been generated from an entry in the Cambridge 
# Structural Database, then it will include bibliographic, chemical, 
# crystal, experimental, refinement or atomic coordinate data resulting 
# from the CCDC's data processing and validation procedures.
#
#######################################################################

data_GUGFIX
_chemical_formula_moiety         'C23 H14 S7,0.5(C1 D1 Cl3)'
_chemical_name_systematic        
'9-(4,5-Dimethyl-1,3-dithiol-2-ylidene)-10-(5-thio-1,3-dithiolo[4,5-d][1,3]dithiol-2-ylidene)-9,10-dihydroanthracene deuterochloroform solvate'
_symmetry_cell_setting           triclinic
_symmetry_space_group_name_H-M   'P -1'
_symmetry_Int_Tables_number      2
_space_group_name_Hall           '-P 1'
loop_
_symmetry_equiv_pos_site_id
_symmetry_equiv_pos_as_xyz
1 x,y,z
2 -x,-y,-z
_cell_length_a                   11.6822(8)
_cell_length_b                   13.4826(6)
_cell_length_c                   17.7155(9)
_cell_angle_alpha                79.481(4)
_cell_angle_beta                 71.432(4)
_cell_angle_gamma                69.885(4)
_cell_volume                     2475.34
_exptl_crystal_colour            orange
_exptl_crystal_description       plate
_chemical_melting_point          519-522K
_cell_formula_units_Z            4
loop_
_atom_site_label
_atom_site_type_symbol
_atom_site_fract_x
_atom_site_fract_y
_atom_site_fract_z
S1 S 0.85109(15) 0.49593(14) -0.09294(10)
S2 S 0.70459(11) 0.37855(9) 0.03891(7)
S3 S 0.61010(11) 0.60942(9) 0.01897(7)
S4 S 0.46593(12) 0.37378(9) 0.17741(7)
S5 S 0.36954(11) 0.61078(8) 0.15778(6)
S6 S 0.35846(11) 0.40484(9) 0.56517(7)
S7 S 0.26754(12) 0.63502(9) 0.53855(7)
C1 C 0.7283(4) 0.4953(4) -0.0161(3)
C2 C 0.5616(4) 0.4401(3) 0.1052(2)
C3 C 0.5180(4) 0.5464(3) 0.0962(2)
C4 C 0.3522(4) 0.4927(3) 0.2180(2)
C5 C 0.2737(4) 0.5133(3) 0.5116(2)
C6 C 0.4063(4) 0.4783(4) 0.6157(3)
C7 C 0.3648(4) 0.5832(4) 0.6031(3)
C8 C 0.4877(5) 0.4142(4) 0.6691(3)
H1 H 0.5722(11) 0.3779(22) 0.6360(3)
H2 H 0.4493(18) 0.3615(19) 0.7032(15)
H3 H 0.4953(27) 0.4608(6) 0.7026(15)
C9 C 0.3920(5) 0.6636(4) 0.6376(3)
H4 H 0.3121(7) 0.7200(20) 0.6600(25)
H5 H 0.4495(35) 0.6981(26) 0.5959(7)
H6 H 0.4330(40) 0.6305(8) 0.6813(18)
C10 C 0.2663(4) 0.4930(3) 0.2901(2)
C11 C 0.2249(4) 0.5049(3) 0.4534(2)
C12 C 0.2619(4) 0.3956(3) 0.3435(3)
C13 C 0.2751(4) 0.3010(4) 0.3160(3)
H7 H 0.2864(47) 0.3007(40) 0.2602(32)
C14 C 0.2770(5) 0.2097(4) 0.3670(3)
H8 H 0.2864(45) 0.1435(40) 0.3467(29)
C15 C 0.2601(5) 0.2137(4) 0.4468(3)
H9 H 0.2547(44) 0.1516(38) 0.4851(29)
C16 C 0.2408(4) 0.3087(4) 0.4767(3)
H10 H 0.2205(43) 0.3138(36) 0.5307(29)
C17 C 0.2427(4) 0.4011(3) 0.4261(3)
C18 C 0.1780(4) 0.5918(3) 0.3251(2)
C19 C 0.1127(4) 0.6763(4) 0.2805(3)
H11 H 0.1206(45) 0.6648(38) 0.2269(30)
C20 C 0.0322(5) 0.7681(4) 0.3154(3)
H12 H -0.0127(53) 0.8231(45) 0.2894(34)
C21 C 0.0140(5) 0.7764(4) 0.3957(3)
H13 H -0.0397(47) 0.8342(40) 0.4217(29)
C22 C 0.0749(4) 0.6912(4) 0.4416(3)
H14 H 0.0529(44) 0.6948(36) 0.4983(30)
C23 C 0.1584(4) 0.5983(3) 0.4076(3)
S8 S 0.79754(15) 0.70002(10) 0.21838(9)
S9 S 0.81589(12) 0.50092(9) 0.15857(8)
S10 S 0.93545(11) 0.48832(9) 0.28363(7)
S11 S 0.89825(11) 0.25568(9) 0.16522(7)
S12 S 1.01838(12) 0.24465(9) 0.29343(7)
S13 S 1.39703(11) -0.12836(9) -0.00883(7)
S14 S 1.52473(11) -0.14867(10) 0.11335(7)
C24 C 0.8464(4) 0.5707(4) 0.2205(3)
C25 C 0.8933(4) 0.3751(3) 0.1942(3)
C26 C 0.9479(4) 0.3700(3) 0.2520(3)
C27 C 0.9950(4) 0.1738(3) 0.2271(3)
C28 C 1.3774(4) -0.1209(3) 0.0937(3)
C29 C 1.5593(4) -0.1376(3) -0.0430(3)
C30 C 1.6179(4) -0.1481(3) 0.0136(3)
C31 C 1.6201(5) -0.1429(4) -0.1308(3)
H15 H 1.5810(32) -0.1806(34) -0.1528(6)
H16 H 1.7112(10) -0.1806(34) -0.1407(3)
H17 H 1.6082(41) -0.0708(4) -0.1571(5)
C32 C 1.7578(4) -0.1682(4) -0.0007(3)
H18 H 1.7863(4) -0.2176(4) 0.0425(3)
H19 H 1.7747(4) -0.1013(4) -0.0019(3)
H20 H 1.8045(4) -0.1992(4) -0.0520(3)
C33 C 1.0506(4) 0.0679(3) 0.2218(2)
C34 C 1.2623(4) -0.0942(3) 0.1489(3)
C35 C 1.0345(4) 0.0079(3) 0.1655(3)
C36 C 0.9176(4) 0.0239(4) 0.1516(3)
H21 H 0.8429(46) 0.0753(38) 0.1801(29)
C37 C 0.9061(5) -0.0408(4) 0.1032(3)
H22 H 0.8240(50) -0.0268(40) 0.0951(31)
C38 C 1.0096(5) -0.1226(4) 0.0695(3)
H23 H 1.0053(46) -0.1631(39) 0.0359(30)
C39 C 1.1260(4) -0.1398(4) 0.0827(3)
H24 H 1.1964(44) -0.1968(37) 0.0602(28)
C40 C 1.1409(4) -0.0747(3) 0.1295(3)
C41 C 1.1364(4) 0.0019(3) 0.2707(3)
C42 C 1.1115(5) 0.0134(4) 0.3520(3)
H25 H 1.0397(47) 0.0651(39) 0.3758(29)
C43 C 1.1939(5) -0.0511(4) 0.3959(3)
H26 H 1.1708(45) -0.0405(38) 0.4568(31)
C44 C 1.2991(5) -0.1294(4) 0.3599(3)
H27 H 1.3612(44) -0.1744(37) 0.3867(28)
C45 C 1.3251(5) -0.1444(4) 0.2795(3)
H28 H 1.3968(46) -0.2008(38) 0.2555(29)
C46 C 1.2445(4) -0.0789(3) 0.2335(3)
Cl1 Cl 0.2647(2) -0.0282(2) 0.6313(2)
Cl3 Cl 0.4037(5) 0.0139(4) 0.7395(3)
Cl4 Cl 0.4653(5) 0.0777(4) 0.5734(3)
C47 C 0.3339(15) 0.0936(13) 0.6639(10)
Cl2? Cl 0.4105(6) -0.0597(6) 0.7377(4)
Cl5? Cl 0.4020(7) 0.1094(6) 0.6154(5)
Cl6? Cl 0.4096(7) -0.1175(7) 0.7230(5)
C48? C 0.4028(18) -0.0251(15) 0.6385(11)
C49? C 0.3262(22) 0.0388(20) 0.6733(14)
loop_
_geom_bond_atom_site_label_1
_geom_bond_atom_site_label_2
_geom_bond_site_symmetry_1
_geom_bond_site_symmetry_2
S1 C1 1_555 1_555
S2 C1 1_555 1_555
S3 C1 1_555 1_555
S4 C2 1_555 1_555
S5 C3 1_555 1_555
S6 C5 1_555 1_555
S7 C5 1_555 1_555
C2 S2 1_555 1_555
C3 S3 1_555 1_555
C4 S4 1_555 1_555
C5 C11 1_555 1_555
C6 S6 1_555 1_555
C7 S7 1_555 1_555
C8 C6 1_555 1_555
H1 C8 1_555 1_555
H2 C8 1_555 1_555
H3 C8 1_555 1_555
C9 C7 1_555 1_555
H4 C9 1_555 1_555
H5 C9 1_555 1_555
H6 C9 1_555 1_555
C10 C4 1_555 1_555
C11 C17 1_555 1_555
C12 C10 1_555 1_555
C13 C12 1_555 1_555
H7 C13 1_555 1_555
C14 C13 1_555 1_555
H8 C14 1_555 1_555
C15 C14 1_555 1_555
H9 C15 1_555 1_555
C16 C15 1_555 1_555
H10 C16 1_555 1_555
C17 C12 1_555 1_555
C18 C10 1_555 1_555
C19 C18 1_555 1_555
H11 C19 1_555 1_555
C20 C19 1_555 1_555
H12 C20 1_555 1_555
C21 C20 1_555 1_555
H13 C21 1_555 1_555
C22 C21 1_555 1_555
H14 C22 1_555 1_555
C23 C11 1_555 1_555
S8 C24 1_555 1_555
S9 C24 1_555 1_555
S10 C24 1_555 1_555
S11 C25 1_555 1_555
S12 C26 1_555 1_555
S13 C28 1_555 1_555
S14 C28 1_555 1_555
C25 S9 1_555 1_555
C26 S10 1_555 1_555
C27 S11 1_555 1_555
C28 C34 1_555 1_555
C29 S13 1_555 1_555
C30 S14 1_555 1_555
C31 C29 1_555 1_555
H15 C31 1_555 1_555
H16 C31 1_555 1_555
H17 C31 1_555 1_555
C32 C30 1_555 1_555
H18 C32 1_555 1_555
H19 C32 1_555 1_555
H20 C32 1_555 1_555
C33 C27 1_555 1_555
C34 C40 1_555 1_555
C35 C33 1_555 1_555
C36 C35 1_555 1_555
H21 C36 1_555 1_555
C37 C36 1_555 1_555
H22 C37 1_555 1_555
C38 C37 1_555 1_555
H23 C38 1_555 1_555
C39 C38 1_555 1_555
H24 C39 1_555 1_555
C40 C35 1_555 1_555
C41 C33 1_555 1_555
C42 C41 1_555 1_555
H25 C42 1_555 1_555
C43 C42 1_555 1_555
H26 C43 1_555 1_555
C44 C43 1_555 1_555
H27 C44 1_555 1_555
C45 C44 1_555 1_555
H28 C45 1_555 1_555
C46 C34 1_555 1_555
Cl1 C47 1_555 1_555
Cl3 C47 1_555 1_555
Cl4 C47 1_555 1_555
S5 C4 1_555 1_555
C2 C3 1_555 1_555
C6 C7 1_555 1_555
C16 C17 1_555 1_555
C18 C23 1_555 1_555
C22 C23 1_555 1_555
S12 C27 1_555 1_555
C25 C26 1_555 1_555
C29 C30 1_555 1_555
C39 C40 1_555 1_555
C41 C46 1_555 1_555
C45 C46 1_555 1_555

#END
