
#######################################################################
#
#                 Cambridge Crystallographic Data Centre
#                                CCDC 
#
#######################################################################
#
# If this CIF has been generated from an entry in the Cambridge 
# Structural Database, then it will include bibliographic, chemical, 
# crystal, experimental, refinement or atomic coordinate data resulting 
# from the CCDC's data processing and validation procedures.
#
#######################################################################

data_GUGFOD
_chemical_formula_moiety         'C26 H24 S6'
_chemical_name_systematic        
9-(4,5-Dimethyl-1,3-dithiol-2-ylidene)-10-(4,5-diethylthio-1,3-dithiol-2-ylidene)-9,10-dihydroanthracene
_symmetry_cell_setting           triclinic
_symmetry_space_group_name_H-M   'P -1'
_symmetry_Int_Tables_number      2
_space_group_name_Hall           '-P 1'
loop_
_symmetry_equiv_pos_site_id
_symmetry_equiv_pos_as_xyz
1 x,y,z
2 -x,-y,-z
_cell_length_a                   9.673(1)
_cell_length_b                   9.793(1)
_cell_length_c                   13.159(1)
_cell_angle_alpha                98.34(1)
_cell_angle_beta                 90.36(1)
_cell_angle_gamma                93.09(1)
_cell_volume                     1231.42
_exptl_crystal_colour            amber
_exptl_crystal_description       plate
_chemical_melting_point          528-531K
_cell_formula_units_Z            2
_exptl_crystal_recrystallization_method deuterochloroform
loop_
_atom_site_label
_atom_site_type_symbol
_atom_site_fract_x
_atom_site_fract_y
_atom_site_fract_z
S1 S 0.40964(6) -0.03957(6) 0.18007(5)
S2 S 0.41460(6) 0.20238(6) 0.07416(5)
S3 S 0.81106(7) 0.28230(7) 0.54260(4)
S4 S 0.82570(7) 0.53036(6) 0.44174(5)
S5 S 0.74025(7) 0.43118(9) 0.74888(5)
S6 S 0.79647(14) 0.71668(13) 0.64458(10)
C1 C 0.7260(2) 0.3022(3) 0.0570(2)
H1 H 0.6727(30) 0.2490(30) -0.0002(23)
C2 C 0.8065(3) 0.4202(3) 0.0414(2)
H2 H 0.7991(33) 0.4502(33) -0.0223(26)
C3 C 0.8905(3) 0.4898(3) 0.1200(2)
H3 H 0.9427(28) 0.5658(29) 0.1115(21)
C4 C 0.8953(2) 0.4419(2) 0.2146(2)
H4 H 0.9561(29) 0.4898(29) 0.2692(22)
C5 C 0.8148(2) 0.3249(2) 0.2323(2)
C6 C 0.8829(3) 0.0379(3) 0.3783(2)
H5 H 0.9421(27) 0.0824(27) 0.4302(20)
C7 C 0.8708(3) -0.1064(3) 0.3622(2)
H6 H 0.9236(30) -0.1524(30) 0.4014(22)
C8 C 0.7865(3) -0.1748(3) 0.2834(2)
H7 H 0.7815(32) -0.2704(34) 0.2692(24)
C9 C 0.7134(3) -0.1003(2) 0.2205(2)
H8 H 0.6595(29) -0.1455(28) 0.1639(22)
C10 C 0.7218(2) 0.0446(2) 0.2374(2)
C11 C 0.6475(2) 0.1286(2) 0.1726(2)
C12 C 0.7285(2) 0.2534(2) 0.1519(2)
C13 C 0.8185(2) 0.2677(2) 0.3305(2)
C14 C 0.8082(2) 0.1145(2) 0.3179(2)
C15 C 0.5124(2) 0.0992(2) 0.1429(2)
C16 C 0.2482(2) 0.0153(3) 0.1443(2)
C17 C 0.2504(2) 0.1266(3) 0.0963(2)
C18 C 0.1241(3) -0.0694(3) 0.1731(3)
H9 H 0.1261(41) -0.0730(41) 0.2482(34)
H10 H 0.1223(45) -0.1550(48) 0.1367(35)
H11 H 0.0416(42) -0.0278(39) 0.1621(29)
C19 C 0.1293(3) 0.1964(3) 0.0590(3)
H12 H 0.1347(39) 0.1989(39) -0.0095(32)
H13 H 0.1241(37) 0.2832(39) 0.0985(28)
H14 H 0.0446(36) 0.1498(35) 0.0714(25)
C20 C 0.8214(2) 0.3474(2) 0.4239(2)
C21 C 0.7773(3) 0.4392(3) 0.6187(2)
C22 C 0.7857(3) 0.5532(3) 0.5733(2)
C23 C 0.6762(5) 0.7990(5) 0.5718(4)
H15 H 0.6785(5) 0.8989(5) 0.5986(4)
H16 H 0.7053(5) 0.7891(5) 0.4993(4)
C24 C 0.5329(6) 0.7399(7) 0.5764(5)
H17 H 0.4742(6) 0.7869(7) 0.5354(5)
H18 H 0.5294(6) 0.6432(7) 0.5495(5)
H19 H 0.5014(6) 0.7517(7) 0.6460(5)
C25 C 0.5511(4) 0.4214(5) 0.7440(3)
H20 H 0.4877(25) 0.4860(24) 0.7109(18)
H21 H 0.5264(47) 0.3457(48) 0.7010(36)
C26 C 0.4962(4) 0.4178(3) 0.8491(3)
H22 H 0.3724(49) 0.4175(46) 0.8475(35)
H23 H 0.5345(47) 0.5091(49) 0.9085(36)
H24 H 0.5316(50) 0.3145(52) 0.8795(38)
S7? S 0.7356(2) 0.7313(2) 0.6209(2)
C27? C 0.5827(13) 0.7598(12) 0.5477(10)
H25? H 0.5890(13) 0.7078(12) 0.4777(10)
H26? H 0.5007(13) 0.7208(12) 0.5804(10)
C28? C 0.5600(10) 0.9043(9) 0.5392(7)
H27? H 0.5288(10) 0.8747(9) 0.4696(7)
H28? H 0.4825(10) 0.9037(9) 0.5844(7)
H29? H 0.6021(10) 0.9962(9) 0.5450(7)
loop_
_geom_bond_atom_site_label_1
_geom_bond_atom_site_label_2
_geom_bond_site_symmetry_1
_geom_bond_site_symmetry_2
S1 C15 1_555 1_555
S2 C15 1_555 1_555
S3 C20 1_555 1_555
S4 C20 1_555 1_555
S5 C21 1_555 1_555
S6 C22 1_555 1_555
C1 H1 1_555 1_555
C2 C1 1_555 1_555
H2 C2 1_555 1_555
C3 C2 1_555 1_555
H3 C3 1_555 1_555
C4 C3 1_555 1_555
H4 C4 1_555 1_555
C5 C4 1_555 1_555
C6 H5 1_555 1_555
C7 C6 1_555 1_555
H6 C7 1_555 1_555
C8 C7 1_555 1_555
H7 C8 1_555 1_555
C9 C8 1_555 1_555
H8 C9 1_555 1_555
C10 C9 1_555 1_555
C11 C10 1_555 1_555
C12 C1 1_555 1_555
C13 C5 1_555 1_555
C14 C6 1_555 1_555
C15 C11 1_555 1_555
C16 S1 1_555 1_555
C17 S2 1_555 1_555
C18 C16 1_555 1_555
H9 C18 1_555 1_555
H10 C18 1_555 1_555
H11 C18 1_555 1_555
C19 C17 1_555 1_555
H12 C19 1_555 1_555
H13 C19 1_555 1_555
H14 C19 1_555 1_555
C20 C13 1_555 1_555
C21 S3 1_555 1_555
C22 S4 1_555 1_555
C23 S6 1_555 1_555
H15 C23 1_555 1_555
H16 C23 1_555 1_555
C24 C23 1_555 1_555
H17 C24 1_555 1_555
H18 C24 1_555 1_555
H19 C24 1_555 1_555
C25 S5 1_555 1_555
H20 C25 1_555 1_555
H21 C25 1_555 1_555
C26 C25 1_555 1_555
H22 C26 1_555 1_555
H23 C26 1_555 1_555
H24 C26 1_555 1_555
C5 C12 1_555 1_555
C10 C14 1_555 1_555
C11 C12 1_555 1_555
C13 C14 1_555 1_555
C16 C17 1_555 1_555
C21 C22 1_555 1_555

#END
