
#######################################################################
#
#                 Cambridge Crystallographic Data Centre
#                                CCDC 
#
#######################################################################
#
# If this CIF has been generated from an entry in the Cambridge 
# Structural Database, then it will include bibliographic, chemical, 
# crystal, experimental, refinement or atomic coordinate data resulting 
# from the CCDC's data processing and validation procedures.
#
#######################################################################

data_GUGZAK
_chemical_formula_moiety         'C17 H24 O4'
_chemical_name_systematic        
6a-(Adamantan-1-yl)-2,2-dimethyldihydrofuro[3,4-d][1,3]dioxol-4(3aH)-one
_symmetry_cell_setting           orthorhombic
_symmetry_space_group_name_H-M   'P b c a'
_symmetry_Int_Tables_number      61
_space_group_name_Hall           '-P 2ac 2ab'
loop_
_symmetry_equiv_pos_site_id
_symmetry_equiv_pos_as_xyz
1 x,y,z
2 1/2+x,1/2-y,-z
3 -x,1/2+y,1/2-z
4 1/2-x,-y,1/2+z
5 -x,-y,-z
6 1/2-x,1/2+y,z
7 x,1/2-y,1/2+z
8 1/2+x,y,1/2-z
_cell_length_a                   13.0782(19)
_cell_length_b                   11.7364(17)
_cell_length_c                   18.817(3)
_cell_angle_alpha                90
_cell_angle_beta                 90
_cell_angle_gamma                90
_cell_volume                     2888.24
_exptl_crystal_colour            colorless
_exptl_crystal_description       block
_cell_formula_units_Z            8
loop_
_atom_site_label
_atom_site_type_symbol
_atom_site_fract_x
_atom_site_fract_y
_atom_site_fract_z
O1 O 0.48143(8) 0.13061(9) -0.03555(5)
O2 O 0.64437(9) 0.07683(9) -0.04552(6)
O3 O 0.66561(7) 0.27212(8) 0.05567(5)
O4 O 0.51099(7) 0.36206(8) 0.05024(5)
C1 C 0.57832(11) 0.12419(11) -0.01227(8)
C2 C 0.59021(10) 0.18620(11) 0.05884(7)
H1 H 0.6047 0.1312 0.0982
C3 C 0.48762(10) 0.24667(10) 0.07040(7)
C4 C 0.41701(11) 0.19219(12) 0.01467(7)
H2 H 0.3685 0.1392 0.0379
H3 H 0.3773 0.2518 -0.0103
C5 C 0.61619(10) 0.37352(11) 0.02977(7)
C6 C 0.44255(10) 0.24536(11) 0.14646(7)
C7 C 0.42666(11) 0.12239(11) 0.17332(7)
H4 H 0.3802 0.0812 0.1407
H5 H 0.4930 0.0818 0.1740
C8 C 0.38073(12) 0.12351(12) 0.24845(8)
H6 H 0.3706 0.0434 0.2651
C9 C 0.45332(12) 0.18497(13) 0.29905(8)
H7 H 0.5198 0.1447 0.3005
H8 H 0.4243 0.1850 0.3476
C10 C 0.46920(12) 0.30773(13) 0.27383(7)
H9 H 0.5171 0.3478 0.3069
C11 C 0.51408(10) 0.30754(12) 0.19850(7)
H10 H 0.5816 0.2694 0.1990
H11 H 0.5242 0.3870 0.1824
C12 C 0.33864(10) 0.30769(12) 0.14694(7)
H12 H 0.3480 0.3871 0.1304
H13 H 0.2909 0.2692 0.1139
C13 C 0.29303(11) 0.30809(13) 0.22221(8)
H14 H 0.2257 0.3484 0.2216
C14 C 0.27773(11) 0.18499(13) 0.24749(8)
H15 H 0.2477 0.1848 0.2958
H16 H 0.2300 0.1450 0.2151
C15 C 0.36611(13) 0.36954(13) 0.27301(8)
H17 H 0.3758 0.4493 0.2573
H18 H 0.3367 0.3706 0.3215
C16 C 0.66356(11) 0.47459(12) 0.06665(8)
H19 H 0.7351 0.4821 0.0519
H20 H 0.6603 0.4635 0.1182
H21 H 0.6261 0.5439 0.0538
C17 C 0.62316(11) 0.38356(12) -0.05050(7)
H22 H 0.6950 0.3912 -0.0646
H23 H 0.5850 0.4508 -0.0663
H24 H 0.5940 0.3152 -0.0725
loop_
_geom_bond_atom_site_label_1
_geom_bond_atom_site_label_2
_geom_bond_site_symmetry_1
_geom_bond_site_symmetry_2
O1 C1 1_555 1_555
O2 C1 1_555 1_555
O3 C2 1_555 1_555
O4 C3 1_555 1_555
C1 C2 1_555 1_555
C2 H1 1_555 1_555
C3 C2 1_555 1_555
C4 O1 1_555 1_555
H2 C4 1_555 1_555
H3 C4 1_555 1_555
C5 O3 1_555 1_555
C6 C3 1_555 1_555
C7 C6 1_555 1_555
H4 C7 1_555 1_555
H5 C7 1_555 1_555
C8 C7 1_555 1_555
H6 C8 1_555 1_555
C9 C8 1_555 1_555
H7 C9 1_555 1_555
H8 C9 1_555 1_555
C10 C9 1_555 1_555
H9 C10 1_555 1_555
C11 C6 1_555 1_555
H10 C11 1_555 1_555
H11 C11 1_555 1_555
C12 C6 1_555 1_555
H12 C12 1_555 1_555
H13 C12 1_555 1_555
C13 C12 1_555 1_555
H14 C13 1_555 1_555
C14 C8 1_555 1_555
H15 C14 1_555 1_555
H16 C14 1_555 1_555
C15 C10 1_555 1_555
H17 C15 1_555 1_555
H18 C15 1_555 1_555
C16 C5 1_555 1_555
H19 C16 1_555 1_555
H20 C16 1_555 1_555
H21 C16 1_555 1_555
C17 C5 1_555 1_555
H22 C17 1_555 1_555
H23 C17 1_555 1_555
H24 C17 1_555 1_555
O4 C5 1_555 1_555
C3 C4 1_555 1_555
C10 C11 1_555 1_555
C13 C14 1_555 1_555
C13 C15 1_555 1_555

#END
