
#######################################################################
#
#                 Cambridge Crystallographic Data Centre
#                                CCDC 
#
#######################################################################
#
# If this CIF has been generated from an entry in the Cambridge 
# Structural Database, then it will include bibliographic, chemical, 
# crystal, experimental, refinement or atomic coordinate data resulting 
# from the CCDC's data processing and validation procedures.
#
#######################################################################

data_GUHMAY
_chemical_formula_moiety         'C48 H48 N32 O16,2(C9 H11 N1 O3),19(H2 O1)'
_chemical_name_systematic        
'Cucurbit(8)uril bis(L-tyrosine) clathrate nonadecahydrate'
_symmetry_cell_setting           orthorhombic
_symmetry_space_group_name_H-M   'P b c a'
_symmetry_Int_Tables_number      61
_space_group_name_Hall           '-P 2ac 2ab'
loop_
_symmetry_equiv_pos_site_id
_symmetry_equiv_pos_as_xyz
1 x,y,z
2 1/2-x,-y,1/2+z
3 -x,1/2+y,1/2-z
4 1/2+x,1/2-y,-z
5 -x,-y,-z
6 1/2+x,y,1/2-z
7 x,1/2-y,1/2+z
8 1/2-x,1/2+y,z
_cell_length_a                   21.6480(11)
_cell_length_b                   16.9429(8)
_cell_length_c                   23.8674(10)
_cell_angle_alpha                90
_cell_angle_beta                 90
_cell_angle_gamma                90
_cell_volume                     8754.08
_cell_formula_units_Z            4
loop_
_atom_site_label
_atom_site_type_symbol
_atom_site_fract_x
_atom_site_fract_y
_atom_site_fract_z
O1 O 0.24712(18) 0.9116(2) 0.51495(15)
H1 H 0.2430 0.9354 0.5463
H2 H 0.2385 0.9549 0.4867
O2 O 0.38457(17) 0.9924(2) 0.43833(15)
H3 H 0.3927 1.0013 0.3996
H4 H 0.3472 1.0184 0.4491
O3 O 0.14448(17) 0.8162(2) 0.52481(15)
H5 H 0.1800 0.8456 0.5224
H6 H 0.1389 0.7892 0.4953
O4 O 0.93243(18) 0.4695(2) 0.37407(17)
H7 H 0.9513 0.4194 0.3833
H8 H 0.8894 0.4727 0.3869
O5 O 0.20266(18) 0.0072(3) 0.10831(18)
H9 H 0.2109 -0.0541 0.1087
H10 H 0.2271 0.0210 0.1415
O6 O 0.41477(19) 0.9978(3) 0.32536(17)
H11 H 0.3937 1.0296 0.3019
H12 H 0.4505 0.9823 0.3063
O7 O 0.78645(19) 0.8092(3) 0.24895(19)
H13 H 0.8343 0.8005 0.2596
H14 H 0.7532 0.8174 0.2815
O8 O 0.8976(2) 0.2395(2) 0.3635(2)
H15 H 0.9174 0.2768 0.3881
H16 H 0.9118 0.1917 0.3482
O9 O 0.2882(3) 0.1601(4) 0.6446(3)
O10 O 0.7279(4) 0.7319(6) 0.3308(4)
O11 O 0.1744(5) 0.8606(6) 0.0683(5)
C1 C 0.0832(2) 0.6909(3) 0.40979(19)
C2 C -0.00533(19) 0.6540(3) 0.35976(18)
H17 H -0.0113 0.5986 0.3493
C3 C 0.04011(19) 0.6961(3) 0.31960(18)
H18 H 0.0515 0.6626 0.2877
C4 C -0.0546(2) 0.7619(3) 0.31733(19)
C5 C 0.15254(19) 0.7367(2) 0.33447(19)
H19 H 0.1621 0.7058 0.3014
H20 H 0.1835 0.7248 0.3626
C6 C 0.0243(2) 0.8121(3) 0.25316(18)
H21 H 0.0393 0.7762 0.2245
H22 H -0.0118 0.8388 0.2383
C7 C 0.19572(19) 0.8709(3) 0.34805(19)
C8 C 0.13645(19) 0.8504(3) 0.26680(17)
H23 H 0.1487 0.8159 0.2358
C9 C 0.16883(19) 0.9321(2) 0.26348(17)
H24 H 0.1976 0.9353 0.2319
C10 C 0.0614(2) 0.9498(3) 0.25859(18)
C11 C 0.24863(19) 0.9959(3) 0.32781(19)
H25 H 0.2779 0.9734 0.3541
H26 H 0.2706 1.0064 0.2932
C12 C 0.1254(2) 1.0692(3) 0.24612(19)
H27 H 0.0883 1.0888 0.2281
H28 H 0.1593 1.0757 0.2200
C13 C 0.23041(19) 1.0908(3) 0.40521(18)
C14 C 0.19994(19) 1.1316(2) 0.31560(18)
H29 H 0.2280 1.1468 0.2852
C15 C -0.18953(19) 0.7996(2) 0.64201(18)
H30 H -0.2150 0.7535 0.6511
C16 C 0.0950(2) 1.1700(3) 0.31519(18)
C17 C -0.2236(2) 0.7872(3) 0.53964(18)
H31 H -0.2507 0.7446 0.5514
H32 H -0.2463 0.8198 0.5134
C18 C -0.0986(2) 0.7067(3) 0.63077(18)
H33 H -0.1264 0.6652 0.6429
H34 H -0.0595 0.6991 0.6500
C19 C -0.1676(2) 0.7563(3) 0.45378(19)
C20 C -0.13965(19) 0.6836(2) 0.53333(17)
H35 H -0.1692 0.6462 0.5497
C21 C -0.10705(19) 0.6485(3) 0.48099(17)
H36 H -0.1198 0.5939 0.4741
C22 C -0.0335(2) 0.6749(2) 0.54978(18)
C23 C -0.1206(2) 0.6786(3) 0.37762(17)
H37 H -0.1266 0.6221 0.3741
H38 H -0.1531 0.7045 0.3565
C24 C 0.0056(2) 0.6149(3) 0.46276(18)
H39 H -0.0094 0.5639 0.4502
H40 H 0.0413 0.6058 0.4865
N1 N 0.02434(16) 0.6613(2) 0.41419(15)
N2 N 0.09270(16) 0.7128(2) 0.35550(15)
N3 N -0.06167(16) 0.6993(2) 0.35319(15)
N4 N 0.00610(16) 0.7664(2) 0.30198(15)
N5 N 0.15674(16) 0.8200(2) 0.32018(15)
N6 N 0.20025(16) 0.9383(2) 0.31688(14)
N7 N 0.07149(16) 0.8700(2) 0.26449(15)
N8 N 0.11759(17) 0.9862(2) 0.25738(16)
N9 N 0.22581(16) 1.0694(2) 0.35013(14)
N10 N 0.20725(16) 1.1654(2) 0.41157(14)
N11 N 0.13762(16) 1.1167(2) 0.29522(15)
N12 N -0.12411(16) 0.7821(2) 0.64673(14)
N13 N -0.17058(16) 0.7540(2) 0.51155(14)
N14 N -0.12650(16) 0.7003(2) 0.43613(14)
N15 N -0.08873(16) 0.6996(2) 0.57111(14)
N16 N -0.04218(16) 0.6533(2) 0.49531(15)
O12 O 0.12138(14) 0.69631(19) 0.44766(13)
O13 O 0.22201(14) 0.85743(18) 0.39193(13)
O14 O 0.25325(14) 1.04960(18) 0.44248(12)
O15 O -0.19769(16) 0.8004(2) 0.42368(13)
O16 O -0.09576(15) 0.8063(2) 0.30100(14)
O17 O 0.01095(14) 0.98235(19) 0.25560(14)
O18 O 0.04099(14) 1.17354(18) 0.30076(13)
O19 O 0.01573(14) 0.67189(19) 0.57588(13)
C1D C -0.0832(2) 1.3091(3) 0.59021(19)
C2D C 0.00533(19) 1.3460(3) 0.64024(18)
H17D H 0.0113 1.4014 0.6507
C3D C -0.04011(19) 1.3039(3) 0.68040(18)
H18D H -0.0515 1.3374 0.7123
C4D C 0.0546(2) 1.2381(3) 0.68267(19)
C5D C -0.15254(19) 1.2633(2) 0.66553(19)
H19D H -0.1621 1.2942 0.6986
H20D H -0.1835 1.2752 0.6374
C6D C -0.0243(2) 1.1879(3) 0.74684(18)
H21D H -0.0393 1.2238 0.7755
H22D H 0.0118 1.1612 0.7617
C7D C -0.19572(19) 1.1291(3) 0.65195(19)
C8D C -0.13645(19) 1.1496(3) 0.73320(17)
H23D H -0.1487 1.1841 0.7642
C9D C -0.16883(19) 1.0679(2) 0.73652(17)
H24D H -0.1976 1.0647 0.7681
C10D C -0.0614(2) 1.0502(3) 0.74141(18)
C11D C -0.24863(19) 1.0041(3) 0.67219(19)
H25D H -0.2779 1.0266 0.6459
H26D H -0.2706 0.9936 0.7068
C12D C -0.1254(2) 0.9308(3) 0.75388(19)
H27D H -0.0883 0.9112 0.7719
H28D H -0.1593 0.9243 0.7800
C13D C -0.23041(19) 0.9092(3) 0.59479(18)
C14D C -0.19994(19) 0.8684(2) 0.68440(18)
H29D H -0.2280 0.8532 0.7148
C15D C 0.18953(19) 1.2004(2) 0.35799(18)
H30D H 0.2150 1.2465 0.3489
C16D C -0.0950(2) 0.8300(3) 0.68481(18)
C17D C 0.2236(2) 1.2128(3) 0.46036(18)
H31D H 0.2507 1.2554 0.4486
H32D H 0.2463 1.1802 0.4866
C18D C 0.0986(2) 1.2933(3) 0.36923(18)
H33D H 0.1264 1.3348 0.3571
H34D H 0.0595 1.3009 0.3500
C19D C 0.1676(2) 1.2437(3) 0.54622(19)
C20D C 0.13965(19) 1.3164(2) 0.46667(17)
H35D H 0.1692 1.3538 0.4503
C21D C 0.10705(19) 1.3515(3) 0.51901(17)
H36D H 0.1198 1.4061 0.5259
C22D C 0.0335(2) 1.3251(2) 0.45022(18)
C23D C 0.1206(2) 1.3214(3) 0.62238(17)
H37D H 0.1266 1.3779 0.6259
H38D H 0.1531 1.2955 0.6435
C24D C -0.0056(2) 1.3851(3) 0.53724(18)
H39D H 0.0094 1.4361 0.5498
H40D H -0.0413 1.3942 0.5135
N1D N -0.02434(16) 1.3387(2) 0.58581(15)
N2D N -0.09270(16) 1.2872(2) 0.64450(15)
N3D N 0.06167(16) 1.3007(2) 0.64681(15)
N4D N -0.00610(16) 1.2336(2) 0.69802(15)
N5D N -0.15674(16) 1.1800(2) 0.67982(15)
N6D N -0.20025(16) 1.0617(2) 0.68312(14)
N7D N -0.07149(16) 1.1300(2) 0.73551(15)
N8D N -0.11759(17) 1.0138(2) 0.74262(16)
N9D N -0.22581(16) 0.9306(2) 0.64987(14)
N10D N -0.20725(16) 0.8346(2) 0.58843(14)
N11D N -0.13762(16) 0.8833(2) 0.70478(15)
N12D N 0.12411(16) 1.2179(2) 0.35327(14)
N13D N 0.17058(16) 1.2460(2) 0.48845(14)
N14D N 0.12650(16) 1.2997(2) 0.56387(14)
N15D N 0.08873(16) 1.3004(2) 0.42889(14)
N16D N 0.04218(16) 1.3467(2) 0.50469(15)
O12D O -0.12138(14) 1.30369(19) 0.55234(13)
O13D O -0.22201(14) 1.14257(18) 0.60807(13)
O14D O -0.25325(14) 0.95040(18) 0.55752(12)
O15D O 0.19769(16) 1.1996(2) 0.57632(13)
O16D O 0.09576(15) 1.1937(2) 0.69900(14)
O17D O -0.01095(14) 1.01765(19) 0.74440(14)
O18D O -0.04099(14) 0.82646(18) 0.69924(13)
O19D O -0.01573(14) 1.32811(19) 0.42412(13)
C25 C 0.1652(3) 0.9360(3) 0.7007(2)
C26 C 0.1214(4) 0.9671(6) 0.6563(4)
C27 C 0.1303(3) 1.0271(5) 0.6261(4)
H41 H 0.1701 1.0194 0.6083
H42 H 0.1353 1.0711 0.6518
C28 C 0.0872(3) 1.0560(4) 0.5804(3)
C29 C 0.1054(3) 1.0552(3) 0.5249(3)
H43 H 0.1446 1.0368 0.5159
C30 C 0.0671(3) 1.0810(3) 0.4821(3)
H44 H 0.0803 1.0792 0.4450
C31 C 0.0088(2) 1.1094(3) 0.4956(2)
C32 C -0.0106(2) 1.1114(3) 0.5510(2)
H45 H -0.0497 1.1299 0.5601
C33 C 0.0291(3) 1.0853(3) 0.5927(2)
H46 H 0.0163 1.0875 0.6298
N17 N 0.06240(18) 0.9222(2) 0.65833(17)
H47 H 0.0661 0.8823 0.6823
H48 H 0.0537 0.9035 0.6244
H49 H 0.0321 0.9540 0.6695
O20 O 0.14242(17) 0.9088(2) 0.74413(15)
O21 O 0.22164(19) 0.9414(3) 0.69029(16)
O22 O -0.02894(17) 1.1336(2) 0.45271(14)
H50 H -0.0336 1.0973 0.4304
loop_
_geom_bond_atom_site_label_1
_geom_bond_atom_site_label_2
_geom_bond_site_symmetry_1
_geom_bond_site_symmetry_2
O1 H1 1_555 1_555
H2 O1 1_555 1_555
O2 H3 1_555 1_555
H4 O2 1_555 1_555
O3 H5 1_555 1_555
H6 O3 1_555 1_555
O4 H7 1_555 1_555
H8 O4 1_555 1_555
O5 H9 1_555 1_555
H10 O5 1_555 1_555
O6 H11 1_555 1_555
H12 O6 1_555 1_555
O7 H13 1_555 1_555
H14 O7 1_555 1_555
O8 H15 1_555 1_555
H16 O8 1_555 1_555
C1 N1 1_555 1_555
C2 H17 1_555 1_555
C3 C2 1_555 1_555
H18 C3 1_555 1_555
C4 N3 1_555 1_555
C5 H19 1_555 1_555
H20 C5 1_555 1_555
C6 H21 1_555 1_555
H22 C6 1_555 1_555
C7 N5 1_555 1_555
C8 H23 1_555 1_555
C9 C8 1_555 1_555
H24 C9 1_555 1_555
C10 N7 1_555 1_555
C11 H25 1_555 1_555
H26 C11 1_555 1_555
C12 H27 1_555 1_555
H28 C12 1_555 1_555
C13 N9 1_555 1_555
C14 H29 1_555 1_555
C15 H30 1_555 1_555
C16 N11 1_555 1_555
C17 H31 1_555 1_555
H32 C17 1_555 1_555
C18 H33 1_555 1_555
H34 C18 1_555 1_555
C19 N13 1_555 1_555
C20 H35 1_555 1_555
C21 C20 1_555 1_555
H36 C21 1_555 1_555
C22 N15 1_555 1_555
C23 H37 1_555 1_555
H38 C23 1_555 1_555
C24 H39 1_555 1_555
H40 C24 1_555 1_555
N1 C2 1_555 1_555
N2 C1 1_555 1_555
N3 C2 1_555 1_555
N4 C3 1_555 1_555
N5 C5 1_555 1_555
N6 C7 1_555 1_555
N7 C6 1_555 1_555
N8 C9 1_555 1_555
N9 C11 1_555 1_555
N10 C13 1_555 1_555
N11 C12 1_555 1_555
N12 C15 1_555 1_555
N13 C17 1_555 1_555
N14 C19 1_555 1_555
N15 C18 1_555 1_555
N16 C21 1_555 1_555
O12 C1 1_555 1_555
O13 C7 1_555 1_555
O14 C13 1_555 1_555
O15 C19 1_555 1_555
O16 C4 1_555 1_555
O17 C10 1_555 1_555
O18 C16 1_555 1_555
O19 C22 1_555 1_555
C25 C26 1_555 1_555
C26 C27 1_555 1_555
C27 H41 1_555 1_555
H42 C27 1_555 1_555
C28 C27 1_555 1_555
C29 C28 1_555 1_555
H43 C29 1_555 1_555
C30 C29 1_555 1_555
H44 C30 1_555 1_555
C31 C30 1_555 1_555
C32 C31 1_555 1_555
H45 C32 1_555 1_555
C33 C28 1_555 1_555
H46 C33 1_555 1_555
N17 C26 1_555 1_555
H47 N17 1_555 1_555
H48 N17 1_555 1_555
H49 N17 1_555 1_555
O20 C25 1_555 1_555
O21 C25 1_555 1_555
O22 C31 1_555 1_555
H50 O22 1_555 1_555
C1D N1D 1_555 1_555
C2D H17D 1_555 1_555
C3D C2D 1_555 1_555
H18D C3D 1_555 1_555
C4D N3D 1_555 1_555
C5D H19D 1_555 1_555
H20D C5D 1_555 1_555
C6D H21D 1_555 1_555
H22D C6D 1_555 1_555
C7D N5D 1_555 1_555
C8D H23D 1_555 1_555
C9D C8D 1_555 1_555
H24D C9D 1_555 1_555
C10D N7D 1_555 1_555
C11D H25D 1_555 1_555
H26D C11D 1_555 1_555
C12D H27D 1_555 1_555
H28D C12D 1_555 1_555
C13D N9D 1_555 1_555
C14D C15 1_555 1_555
H29D C14D 1_555 1_555
C15D C14 1_555 1_555
H30D C15D 1_555 1_555
C16D N12 1_555 1_555
C17D N10 1_555 1_555
H31D C17D 1_555 1_555
H32D C17D 1_555 1_555
C18D H33D 1_555 1_555
H34D C18D 1_555 1_555
C19D N13D 1_555 1_555
C20D H35D 1_555 1_555
C21D C20D 1_555 1_555
H36D C21D 1_555 1_555
C22D N15D 1_555 1_555
C23D H37D 1_555 1_555
H38D C23D 1_555 1_555
C24D H39D 1_555 1_555
H40D C24D 1_555 1_555
N1D C2D 1_555 1_555
N2D C1D 1_555 1_555
N3D C2D 1_555 1_555
N4D C3D 1_555 1_555
N5D C5D 1_555 1_555
N6D C7D 1_555 1_555
N7D C6D 1_555 1_555
N8D C9D 1_555 1_555
N9D C11D 1_555 1_555
N10D C15 1_555 1_555
N11D C12D 1_555 1_555
N12D C16 1_555 1_555
N13D C17D 1_555 1_555
N14D C19D 1_555 1_555
N15D C18D 1_555 1_555
N16D C21D 1_555 1_555
O12D C1D 1_555 1_555
O13D C7D 1_555 1_555
O14D C13D 1_555 1_555
O15D C19D 1_555 1_555
O16D C4D 1_555 1_555
O17D C10D 1_555 1_555
O18D C16D 1_555 1_555
O19D C22D 1_555 1_555
C3 N2 1_555 1_555
C4 N4 1_555 1_555
C5 N2 1_555 1_555
C6 N4 1_555 1_555
C8 N5 1_555 1_555
C8 N7 1_555 1_555
C9 N6 1_555 1_555
C10 N8 1_555 1_555
C11 N6 1_555 1_555
C12 N8 1_555 1_555
C14 N9 1_555 1_555
C14 N11 1_555 1_555
C17 N10D 1_555 1_555
C18 N12 1_555 1_555
C20 N13 1_555 1_555
C20 N15 1_555 1_555
C21 N14 1_555 1_555
C22 N16 1_555 1_555
C23 N3 1_555 1_555
C23 N14 1_555 1_555
C24 N1 1_555 1_555
C24 N16 1_555 1_555
N10 C15D 1_555 1_555
C32 C33 1_555 1_555
C3D N2D 1_555 1_555
C4D N4D 1_555 1_555
C5D N2D 1_555 1_555
C6D N4D 1_555 1_555
C8D N5D 1_555 1_555
C8D N7D 1_555 1_555
C9D N6D 1_555 1_555
C10D N8D 1_555 1_555
C11D N6D 1_555 1_555
C12D N8D 1_555 1_555
C13D N10D 1_555 1_555
C14D N9D 1_555 1_555
C14D N11D 1_555 1_555
C15D N12D 1_555 1_555
C16D N11D 1_555 1_555
C18D N12D 1_555 1_555
C20D N13D 1_555 1_555
C20D N15D 1_555 1_555
C21D N14D 1_555 1_555
C22D N16D 1_555 1_555
C23D N3D 1_555 1_555
C23D N14D 1_555 1_555
C24D N1D 1_555 1_555
C24D N16D 1_555 1_555

#END
