
#######################################################################
#
#                 Cambridge Crystallographic Data Centre
#                                CCDC 
#
#######################################################################
#
# If this CIF has been generated from an entry in the Cambridge 
# Structural Database, then it will include bibliographic, chemical, 
# crystal, experimental, refinement or atomic coordinate data resulting 
# from the CCDC's data processing and validation procedures.
#
#######################################################################

data_GUHSOS
_chemical_name_common            
2-Chloro-7-(dinaphtho[2,1-d:1',2'-f][1,3,2]dioxaphosphepin-4-yloxy)-6,7-dihydro-5H-cyclopenta[b]pyridine
_chemical_formula_moiety         'C28 H19 Cl1 N1 O3 P1'
_chemical_name_systematic        
(R)-7-O-((S)-2,2'-O,O-(1,1'-Binaphthyl)-dioxophosphite)-2-chloro-6,7-dihydro-5H-cyclopenta(b)pyridine
_symmetry_cell_setting           monoclinic
_symmetry_space_group_name_H-M   'P 21'
_symmetry_Int_Tables_number      4
_space_group_name_Hall           'P 2yb'
loop_
_symmetry_equiv_pos_site_id
_symmetry_equiv_pos_as_xyz
1 x,y,z
2 -x,1/2+y,-z
_cell_length_a                   9.0228(9)
_cell_length_b                   12.6596(13)
_cell_length_c                   10.0940(10)
_cell_angle_alpha                90
_cell_angle_beta                 94.861(2)
_cell_angle_gamma                90
_cell_volume                     1148.84
_exptl_crystal_colour            colorless
_exptl_crystal_description       prismatic
_chemical_melting_point          '123 deg.C.(dec.)'
_cell_formula_units_Z            2
loop_
_atom_site_label
_atom_site_type_symbol
_atom_site_fract_x
_atom_site_fract_y
_atom_site_fract_z
P1 P 0.07430(10) 0.43424(8) 0.29738(9)
Cl1 Cl -0.30481(16) 0.78916(10) 0.03095(15)
N1 N -0.2638(3) 0.6296(2) 0.1909(3)
O1 O 0.0781(2) 0.55831(19) 0.3492(2)
O2 O 0.1243(3) 0.37469(18) 0.4376(3)
O3 O -0.1009(2) 0.42174(19) 0.2740(2)
C1 C 0.2148(3) 0.5925(3) 0.4071(3)
C2 C 0.2989(4) 0.6601(3) 0.3332(4)
H1 H 0.2604 0.6833 0.2499
C3 C 0.4362(4) 0.6919(3) 0.3825(4)
H2 H 0.4903 0.7388 0.3345
C4 C 0.4968(4) 0.6536(3) 0.5073(4)
C5 C 0.6444(4) 0.6769(3) 0.5571(4)
H3 H 0.7008 0.7224 0.5093
C6 C 0.7059(4) 0.6352(4) 0.6718(5)
H4 H 0.8034 0.6515 0.7023
C7 C 0.6218(4) 0.5674(4) 0.7441(4)
H5 H 0.6650 0.5370 0.8219
C8 C 0.4765(4) 0.5445(3) 0.7030(4)
H6 H 0.4215 0.5002 0.7536
C9 C 0.4104(4) 0.5885(3) 0.5831(3)
C10 C 0.2612(3) 0.5625(3) 0.5335(3)
C11 C 0.1588(3) 0.5019(3) 0.6128(3)
C12 C 0.1174(3) 0.5393(3) 0.7379(3)
C13 C 0.1566(4) 0.6401(3) 0.7894(3)
H7 H 0.2139 0.6844 0.7408
C14 C 0.1129(4) 0.6745(3) 0.9080(4)
H8 H 0.1412 0.7412 0.9393
C15 C 0.0260(4) 0.6101(4) 0.9829(4)
H9 H -0.0032 0.6335 1.0641
C16 C -0.0153(4) 0.5130(4) 0.9361(4)
H10 H -0.0717 0.4701 0.9873
C17 C 0.0238(4) 0.4753(3) 0.8142(4)
C18 C -0.0258(4) 0.3784(4) 0.7597(4)
H11 H -0.0813 0.3343 0.8103
C19 C 0.0035(5) 0.3461(3) 0.6367(4)
H12 H -0.0355 0.2831 0.6016
C20 C 0.0938(3) 0.4096(3) 0.5634(3)
C21 C -0.2142(3) 0.4768(3) 0.3443(3)
H13 H -0.1704 0.5217 0.4164
C22 C -0.3256(4) 0.3981(3) 0.3919(4)
H14 H -0.3657 0.4239 0.4720
H15 H -0.2776 0.3306 0.4116
C23 C -0.4504(4) 0.3854(3) 0.2802(4)
H16 H -0.4350 0.3234 0.2266
H17 H -0.5469 0.3805 0.3154
C24 C -0.4368(4) 0.4853(3) 0.2013(4)
C25 C -0.3074(3) 0.5384(3) 0.2408(3)
C26 C -0.3570(4) 0.6687(3) 0.0976(4)
C27 C -0.4910(5) 0.6252(4) 0.0489(4)
H18 H -0.5513 0.6587 -0.0177
C28 C -0.5324(4) 0.5312(3) 0.1020(4)
H19 H -0.6218 0.4989 0.0725
loop_
_geom_bond_atom_site_label_1
_geom_bond_atom_site_label_2
_geom_bond_site_symmetry_1
_geom_bond_site_symmetry_2
P1 O1 1_555 1_555
Cl1 C26 1_555 1_555
N1 C25 1_555 1_555
O1 C1 1_555 1_555
O2 P1 1_555 1_555
O3 P1 1_555 1_555
C1 C2 1_555 1_555
C2 H1 1_555 1_555
C3 C2 1_555 1_555
H2 C3 1_555 1_555
C4 C3 1_555 1_555
C5 C4 1_555 1_555
H3 C5 1_555 1_555
C6 C5 1_555 1_555
H4 C6 1_555 1_555
C7 C6 1_555 1_555
H5 C7 1_555 1_555
C8 C7 1_555 1_555
H6 C8 1_555 1_555
C9 C4 1_555 1_555
C10 C1 1_555 1_555
C11 C10 1_555 1_555
C12 C11 1_555 1_555
C13 C12 1_555 1_555
H7 C13 1_555 1_555
C14 C13 1_555 1_555
H8 C14 1_555 1_555
C15 C14 1_555 1_555
H9 C15 1_555 1_555
C16 C15 1_555 1_555
H10 C16 1_555 1_555
C17 C12 1_555 1_555
C18 C17 1_555 1_555
H11 C18 1_555 1_555
C19 C18 1_555 1_555
H12 C19 1_555 1_555
C20 O2 1_555 1_555
C21 O3 1_555 1_555
H13 C21 1_555 1_555
C22 C21 1_555 1_555
H14 C22 1_555 1_555
H15 C22 1_555 1_555
C23 C22 1_555 1_555
H16 C23 1_555 1_555
H17 C23 1_555 1_555
C24 C23 1_555 1_555
C25 C21 1_555 1_555
C26 N1 1_555 1_555
C27 C26 1_555 1_555
H18 C27 1_555 1_555
C28 C24 1_555 1_555
H19 C28 1_555 1_555
C8 C9 1_555 1_555
C9 C10 1_555 1_555
C11 C20 1_555 1_555
C16 C17 1_555 1_555
C19 C20 1_555 1_555
C24 C25 1_555 1_555
C27 C28 1_555 1_555

#END
