
#######################################################################
#
#                 Cambridge Crystallographic Data Centre
#                                CCDC 
#
#######################################################################
#
# If this CIF has been generated from an entry in the Cambridge 
# Structural Database, then it will include bibliographic, chemical, 
# crystal, experimental, refinement or atomic coordinate data resulting 
# from the CCDC's data processing and validation procedures.
#
#######################################################################

data_GUJFUO
_chemical_formula_moiety         'C31 H48 O4 Si1'
_chemical_name_systematic        
(3-(benzyloxy)-4-(but-3-en-1-ylidene)-5-((t-butyl(dimethyl)silyl)oxy)-2,8,8-trimethyloctahydro-2H-cyclopropa[1,7]cyclohepta[1,2-b]furan-2-yl)methanol
_symmetry_cell_setting           monoclinic
_symmetry_space_group_name_H-M   'C 2/c'
_symmetry_Int_Tables_number      15
_space_group_name_Hall           '-C 2yn'
loop_
_symmetry_equiv_pos_site_id
_symmetry_equiv_pos_as_xyz
1 x,y,z
2 -x,y,1/2-z
3 1/2+x,1/2+y,z
4 1/2-x,1/2+y,1/2-z
5 -x,-y,-z
6 x,-y,1/2+z
7 1/2-x,1/2-y,-z
8 1/2+x,1/2-y,1/2+z
_cell_length_a                   30.676(4)
_cell_length_b                   16.7189(15)
_cell_length_c                   13.6653(15)
_cell_angle_alpha                90
_cell_angle_beta                 113.823(15)
_cell_angle_gamma                90
_cell_volume                     6411.37
_exptl_crystal_colour            colorless
_exptl_crystal_description       platelet
_cell_formula_units_Z            8
loop_
_atom_site_label
_atom_site_type_symbol
_atom_site_fract_x
_atom_site_fract_y
_atom_site_fract_z
Si1 Si 0.13021(8) 0.45136(12) 0.0668(2)
O1 O 0.19418(11) 0.16998(17) -0.0183(2)
O2 O 0.17305(12) 0.15316(19) 0.2197(2)
O3 O 0.25646(14) 0.2789(2) 0.1389(3)
H1 H 0.2615 0.2946 0.0877
O4 O 0.09139(12) 0.3822(2) -0.0059(3)
C1 C 0.14442(18) 0.1558(2) -0.0608(3)
C2 C 0.12808(16) 0.1692(3) 0.0306(3)
H2 H 0.1142 0.1196 0.0434
C3 C 0.17450(16) 0.1859(3) 0.1258(3)
H3 H 0.1790 0.2439 0.1347
C4 C 0.09288(19) 0.2364(3) 0.0116(4)
C5 C 0.1893(3) 0.1792(3) 0.4029(4)
C6 C 0.10267(18) 0.3089(3) -0.0425(4)
H4 H 0.1366 0.3093 -0.0286
C7 C 0.11689(19) 0.1807(3) -0.1751(4)
H5 H 0.1370 0.2007 -0.2100
C8 C 0.21343(17) 0.1508(3) 0.0957(4)
C9 C 0.26143(18) 0.1960(4) 0.1469(4)
H6 H 0.2769 0.1814 0.2218
H7 H 0.2820 0.1791 0.1123
C10 C 0.0738(2) 0.3065(3) -0.1630(5)
H8 H 0.0886 0.3416 -0.1972
H9 H 0.0420 0.3267 -0.1788
C11 C 0.1242(2) 0.0924(3) -0.1465(4)
C12 C 0.1586(2) 0.0476(3) -0.1815(5)
H10 H 0.1844 0.0822 -0.1762
H11 H 0.1421 0.0303 -0.2543
H12 H 0.1709 0.0019 -0.1362
C13 C 0.2200(2) 0.0613(3) 0.1136(4)
H13 H 0.1899 0.0350 0.0782
H14 H 0.2323 0.0502 0.1889
H15 H 0.2420 0.0421 0.0851
C14 C 0.0699(2) 0.2223(3) -0.2103(4)
H16 H 0.0487 0.1905 -0.1892
H17 H 0.0559 0.2261 -0.2877
C15 C 0.2031(4) 0.1535(4) 0.5892(5)
H18 H 0.2222 0.1373 0.6585
C16 C 0.2190(3) 0.1529(4) 0.5066(6)
H19 H 0.2496 0.1349 0.5203
C17 C 0.2083(3) 0.1805(5) 0.3200(5)
H20 H 0.2179 0.2345 0.3120
H21 H 0.2362 0.1464 0.3415
C18 C 0.0823(2) 0.0417(4) -0.1499(5)
H22 H 0.0937 -0.0095 -0.1180
H23 H 0.0603 0.0344 -0.2229
H24 H 0.0665 0.0682 -0.1111
C19 C 0.1460(4) 0.2027(5) 0.3838(6)
H25 H 0.1264 0.2187 0.3147
C20 C 0.0948(3) 0.5415(4) 0.0566(8)
C21 C 0.1289(4) 0.2050(6) 0.4584(8)
H26 H 0.0981 0.2232 0.4429
C22 C 0.0593(3) 0.5145(6) 0.1149(8)
H27 H 0.0616 0.4578 0.1267
H28 H 0.0271 0.5284 0.0697
H29 H 0.0687 0.5417 0.1822
C23 C 0.1583(4) 0.1791(5) 0.5611(6)
H30 H 0.1461 0.1797 0.6133
C24 C 0.1310(3) 0.6083(5) 0.1258(8)
H31 H 0.1455 0.5916 0.1992
H32 H 0.1142 0.6576 0.1207
H33 H 0.1553 0.6161 0.0992
C25 C 0.0694(4) 0.5620(6) -0.0668(8)
H34 H 0.0926 0.5802 -0.0921
H35 H 0.0461 0.6032 -0.0774
H36 H 0.0539 0.5150 -0.1057
C26 C 0.1615(3) 0.4145(6) 0.2088(6)
H37 H 0.1411 0.3780 0.2247
H38 H 0.1689 0.4591 0.2570
H39 H 0.1904 0.3876 0.2169
C27 C 0.1771(3) 0.4670(6) 0.0111(9)
H40 H 0.1860 0.4162 -0.0082
H41 H 0.2047 0.4920 0.0644
H42 H 0.1645 0.5006 -0.0510
C28 C 0.0564(2) 0.2352(4) 0.0429(5)
H43 H 0.0383 0.2817 0.0311
C29 C 0.0421(4) 0.1678(6) 0.0942(9)
H44 H 0.0613 0.1212 0.0963
H45 H 0.0479 0.1820 0.1672
C30 C -0.0073(6) 0.1487(13) 0.0368(16)
H46 H -0.0310 0.1865 0.0260
C31 C -0.0162(7) 0.0853(12) 0.0051(17)
H47 H 0.0081 0.0484 0.0169
H48 H -0.0478 0.0702 -0.0326
H49? H 0.0705 0.1382 0.1379
H50? H 0.0219 0.1320 0.0384
C32? C 0.0164(11) 0.1902(17) 0.162(2)
H51? H -0.0018 0.1548 0.1827
C33? C 0.0224(11) 0.2662(17) 0.190(3)
H52? H 0.0411 0.2987 0.1672
H53? H 0.0081 0.2874 0.2328
loop_
_geom_bond_atom_site_label_1
_geom_bond_atom_site_label_2
_geom_bond_site_symmetry_1
_geom_bond_site_symmetry_2
Si1 O4 1_555 1_555
O1 C1 1_555 1_555
O2 C3 1_555 1_555
O3 H1 1_555 1_555
O4 C6 1_555 1_555
C1 C2 1_555 1_555
C2 H2 1_555 1_555
C3 C2 1_555 1_555
H3 C3 1_555 1_555
C4 C2 1_555 1_555
C5 C16 1_555 1_555
C6 C4 1_555 1_555
H4 C6 1_555 1_555
C7 C1 1_555 1_555
H5 C7 1_555 1_555
C8 O1 1_555 1_555
C9 O3 1_555 1_555
H6 C9 1_555 1_555
H7 C9 1_555 1_555
C10 C6 1_555 1_555
H8 C10 1_555 1_555
H9 C10 1_555 1_555
C11 C1 1_555 1_555
C12 C11 1_555 1_555
H10 C12 1_555 1_555
H11 C12 1_555 1_555
H12 C12 1_555 1_555
C13 C8 1_555 1_555
H13 C13 1_555 1_555
H14 C13 1_555 1_555
H15 C13 1_555 1_555
C14 C7 1_555 1_555
H16 C14 1_555 1_555
H17 C14 1_555 1_555
C15 H18 1_555 1_555
C16 C15 1_555 1_555
H19 C16 1_555 1_555
C17 O2 1_555 1_555
H20 C17 1_555 1_555
H21 C17 1_555 1_555
C18 C11 1_555 1_555
H22 C18 1_555 1_555
H23 C18 1_555 1_555
H24 C18 1_555 1_555
C19 C5 1_555 1_555
H25 C19 1_555 1_555
C20 Si1 1_555 1_555
C21 C19 1_555 1_555
H26 C21 1_555 1_555
C22 C20 1_555 1_555
H27 C22 1_555 1_555
H28 C22 1_555 1_555
H29 C22 1_555 1_555
C23 C15 1_555 1_555
H30 C23 1_555 1_555
C24 C20 1_555 1_555
H31 C24 1_555 1_555
H32 C24 1_555 1_555
H33 C24 1_555 1_555
C25 C20 1_555 1_555
H34 C25 1_555 1_555
H35 C25 1_555 1_555
H36 C25 1_555 1_555
C26 Si1 1_555 1_555
H37 C26 1_555 1_555
H38 C26 1_555 1_555
H39 C26 1_555 1_555
C27 Si1 1_555 1_555
H40 C27 1_555 1_555
H41 C27 1_555 1_555
H42 C27 1_555 1_555
C28 C4 1_555 1_555
H43 C28 1_555 1_555
C29 C28 1_555 1_555
H44 C29 1_555 1_555
H45 C29 1_555 1_555
C30 C29 1_555 1_555
H46 C30 1_555 1_555
C31 C30 1_555 1_555
H47 C31 1_555 1_555
H48 C31 1_555 1_555
C3 C8 1_555 1_555
C5 C17 1_555 1_555
C7 C11 1_555 1_555
C8 C9 1_555 1_555
C10 C14 1_555 1_555
C21 C23 1_555 1_555

#END
