
#######################################################################
#
#                 Cambridge Crystallographic Data Centre
#                                CCDC 
#
#######################################################################
#
# If this CIF has been generated from an entry in the Cambridge 
# Structural Database, then it will include bibliographic, chemical, 
# crystal, experimental, refinement or atomic coordinate data resulting 
# from the CCDC's data processing and validation procedures.
#
#######################################################################

data_GUJVIS
_chemical_formula_moiety         'C8 H13 N1 O2'
_chemical_name_systematic        3-Ethyl-2-oxopiperidine-3-carbaldehyde
_symmetry_cell_setting           monoclinic
_symmetry_space_group_name_H-M   'P 21'
_symmetry_Int_Tables_number      4
_space_group_name_Hall           'P 2yb'
loop_
_symmetry_equiv_pos_site_id
_symmetry_equiv_pos_as_xyz
1 x,y,z
2 -x,1/2+y,-z
_cell_length_a                   8.1906(13)
_cell_length_b                   10.4809(17)
_cell_length_c                   10.3279(16)
_cell_angle_alpha                90
_cell_angle_beta                 110.678(7)
_cell_angle_gamma                90
_cell_volume                     829.482
_exptl_crystal_colour            colorless
_exptl_crystal_description       needle
_cell_formula_units_Z            4
loop_
_atom_site_label
_atom_site_type_symbol
_atom_site_fract_x
_atom_site_fract_y
_atom_site_fract_z
C1 C 0.51289(15) 0.22508(11) 0.34255(12)
O1 O 0.49725(12) 0.28187(10) 0.23281(10)
C2 C 0.67476(15) 0.14231(12) 0.41157(13)
C3 C 0.65943(17) 0.03178(14) 0.31101(15)
H1 H 0.6035 0.0481 0.2149
O2 O 0.71339(15) -0.07438(11) 0.34546(13)
C4 C 0.84141(16) 0.21370(14) 0.41376(14)
H2 H 0.9440 0.1590 0.4603
H3 H 0.8351 0.2267 0.3172
C5 C 0.8695(2) 0.34256(17) 0.48643(18)
H4 H 0.7744 0.4005 0.4359
H5 H 0.9810 0.3787 0.4891
H6 H 0.8712 0.3315 0.5811
C6 C 0.69138(17) 0.09312(14) 0.55476(14)
H7 H 0.7729 0.0199 0.5795
H8 H 0.7401 0.1612 0.6241
C7 C 0.51498(18) 0.05168(14) 0.55812(15)
H9 H 0.4651 -0.0162 0.4887
H10 H 0.5288 0.0172 0.6506
C8 C 0.39398(18) 0.16629(14) 0.52634(15)
H11 H 0.2750 0.1385 0.5174
H12 H 0.4350 0.2280 0.6037
N1 N 0.38868(14) 0.22831(11) 0.39815(12)
H13 H 0.294(2) 0.275(2) 0.351(2)
C9 C 1.05118(15) 0.41228(12) 0.13077(13)
O3 O 1.06657(12) 0.35105(10) 0.23741(10)
C10 C 0.87931(16) 0.48257(13) 0.05537(13)
C11 C 0.74345(18) 0.37552(16) 0.00911(18)
H14 H 0.7250 0.3243 0.0786
O4 O 0.6589(2) 0.35257(18) -0.10972(16)
C12 C 0.8355(2) 0.56465(17) 0.16380(15)
H15 H 0.8425 0.5102 0.2439
H16 H 0.9243 0.6327 0.1974
C13 C 0.6550(2) 0.6260(2) 0.10769(19)
H17 H 0.6455 0.6781 0.0265
H18 H 0.6381 0.6801 0.1793
H19 H 0.5656 0.5591 0.0812
C14 C 0.88260(18) 0.56236(15) -0.06758(15)
H20 H 0.7615 0.5763 -0.1318
H21 H 0.9345 0.6468 -0.0340
C15 C 0.9870(2) 0.49785(17) -0.14509(15)
H22 H 0.9351 0.4138 -0.1802
H23 H 0.9842 0.5508 -0.2252
C16 C 1.1737(2) 0.48066(16) -0.04817(15)
H24 H 1.2388 0.4297 -0.0946
H25 H 1.2309 0.5651 -0.0249
N2 N 1.17863(14) 0.41606(12) 0.07866(12)
H26 H 1.273(2) 0.379(2) 0.126(2)
loop_
_geom_bond_atom_site_label_1
_geom_bond_atom_site_label_2
_geom_bond_site_symmetry_1
_geom_bond_site_symmetry_2
C1 O1 1_555 1_555
C2 C1 1_555 1_555
C3 C2 1_555 1_555
H1 C3 1_555 1_555
O2 C3 1_555 1_555
C4 C2 1_555 1_555
H2 C4 1_555 1_555
H3 C4 1_555 1_555
C5 C4 1_555 1_555
H4 C5 1_555 1_555
H5 C5 1_555 1_555
H6 C5 1_555 1_555
C6 C2 1_555 1_555
H7 C6 1_555 1_555
H8 C6 1_555 1_555
C7 C6 1_555 1_555
H9 C7 1_555 1_555
H10 C7 1_555 1_555
C8 C7 1_555 1_555
H11 C8 1_555 1_555
H12 C8 1_555 1_555
N1 C1 1_555 1_555
H13 N1 1_555 1_555
C9 O3 1_555 1_555
C10 C9 1_555 1_555
C11 C10 1_555 1_555
H14 C11 1_555 1_555
O4 C11 1_555 1_555
C12 C10 1_555 1_555
H15 C12 1_555 1_555
H16 C12 1_555 1_555
C13 C12 1_555 1_555
H17 C13 1_555 1_555
H18 C13 1_555 1_555
H19 C13 1_555 1_555
C14 C10 1_555 1_555
H20 C14 1_555 1_555
H21 C14 1_555 1_555
C15 C14 1_555 1_555
H22 C15 1_555 1_555
H23 C15 1_555 1_555
C16 C15 1_555 1_555
H24 C16 1_555 1_555
H25 C16 1_555 1_555
N2 C9 1_555 1_555
H26 N2 1_555 1_555
C8 N1 1_555 1_555
C16 N2 1_555 1_555

#END
