
#######################################################################
#
#                 Cambridge Crystallographic Data Centre
#                                CCDC 
#
#######################################################################
#
# If this CIF has been generated from an entry in the Cambridge 
# Structural Database, then it will include bibliographic, chemical, 
# crystal, experimental, refinement or atomic coordinate data resulting 
# from the CCDC's data processing and validation procedures.
#
#######################################################################

data_GUNCUO
_chemical_formula_moiety         'C18 H16 N2 S3'
_chemical_name_systematic        
4,5-bis(2,5-dimethyl-3-thienyl)-2,1,3-benzothiadiazole
_symmetry_cell_setting           orthorhombic
_symmetry_space_group_name_H-M   'P n a 21'
_symmetry_Int_Tables_number      33
_space_group_name_Hall           'P 2c -2n'
loop_
_symmetry_equiv_pos_site_id
_symmetry_equiv_pos_as_xyz
1 x,y,z
2 -x,-y,1/2+z
3 1/2+x,1/2-y,z
4 1/2-x,1/2+y,1/2+z
_cell_length_a                   6.8294(2)
_cell_length_b                   23.4914(5)
_cell_length_c                   10.5186(3)
_cell_angle_alpha                90
_cell_angle_beta                 90
_cell_angle_gamma                90
_cell_volume                     1687.52
_cell_formula_units_Z            4
_exptl_crystal_recrystallization_method methanol/water
loop_
_atom_site_label
_atom_site_type_symbol
_atom_site_fract_x
_atom_site_fract_y
_atom_site_fract_z
S1 S 0.32794(8) -0.04306(2) 0.50232(6)
S2 S 0.35834(8) 0.14420(2) 0.15309(6)
S3 S 0.34573(7) 0.32099(2) 0.65059(6)
N1 N 0.3790(3) 0.28017(9) 0.77200(18)
N2 N 0.3187(3) 0.27477(8) 0.53766(18)
C1 C 0.6179(3) 0.01467(9) 0.6393(3)
H1 H 0.6725 0.0531 0.6478
H2 H 0.7087 -0.0092 0.5907
H3 H 0.5986 -0.0019 0.7240
C2 C 0.4256(3) 0.01770(10) 0.5715(2)
C3 C 0.3070(3) 0.06366(9) 0.5497(2)
C4 C 0.1394(3) 0.04922(10) 0.4744(2)
H4 H 0.0441 0.0764 0.4491
C5 C 0.1285(3) -0.00642(10) 0.4425(2)
C6 C -0.0263(4) -0.03660(11) 0.3670(2)
H5 H -0.1254 -0.0091 0.3393
H6 H -0.0881 -0.0658 0.4201
H7 H 0.0335 -0.0546 0.2925
C7 C 0.0047(4) 0.19909(12) 0.0921(3)
H8 H -0.1046 0.2195 0.1316
H9 H -0.0448 0.1649 0.0495
H10 H 0.0687 0.2238 0.0297
C8 C 0.1500(3) 0.18222(10) 0.1928(2)
C9 C 0.1448(3) 0.19223(10) 0.3190(2)
H11 H 0.0437 0.2135 0.3589
C10 C 0.3064(3) 0.16775(9) 0.3877(2)
C11 C 0.4374(3) 0.14082(9) 0.3094(2)
C12 C 0.6270(3) 0.11208(10) 0.3399(2)
H12 H 0.6683 0.1226 0.4260
H13 H 0.7271 0.1241 0.2788
H14 H 0.6099 0.0707 0.3351
C13 C 0.3404(3) 0.12156(9) 0.6029(2)
C14 C 0.3756(3) 0.12560(10) 0.7368(2)
H15 H 0.3879 0.0914 0.7843
C15 C 0.3924(3) 0.17607(10) 0.7995(2)
H16 H 0.4178 0.1774 0.8883
C16 C 0.3705(3) 0.22665(10) 0.7271(2)
C17 C 0.3362(3) 0.22337(9) 0.5929(2)
C18 C 0.3271(3) 0.16979(9) 0.5276(2)
loop_
_geom_bond_atom_site_label_1
_geom_bond_atom_site_label_2
_geom_bond_site_symmetry_1
_geom_bond_site_symmetry_2
S1 C2 1_555 1_555
S2 C8 1_555 1_555
S3 N1 1_555 1_555
N1 C16 1_555 1_555
N2 S3 1_555 1_555
C1 H1 1_555 1_555
H2 C1 1_555 1_555
H3 C1 1_555 1_555
C2 C1 1_555 1_555
C3 C2 1_555 1_555
C4 C3 1_555 1_555
H4 C4 1_555 1_555
C5 S1 1_555 1_555
C6 C5 1_555 1_555
H5 C6 1_555 1_555
H6 C6 1_555 1_555
H7 C6 1_555 1_555
C7 H8 1_555 1_555
H9 C7 1_555 1_555
H10 C7 1_555 1_555
C8 C7 1_555 1_555
C9 C8 1_555 1_555
H11 C9 1_555 1_555
C10 C9 1_555 1_555
C11 S2 1_555 1_555
C12 C11 1_555 1_555
H12 C12 1_555 1_555
H13 C12 1_555 1_555
H14 C12 1_555 1_555
C13 C3 1_555 1_555
C14 C13 1_555 1_555
H15 C14 1_555 1_555
C15 C14 1_555 1_555
H16 C15 1_555 1_555
C16 C15 1_555 1_555
C17 N2 1_555 1_555
C18 C10 1_555 1_555
C4 C5 1_555 1_555
C10 C11 1_555 1_555
C13 C18 1_555 1_555
C16 C17 1_555 1_555
C17 C18 1_555 1_555

#END
