
#######################################################################
#
#                 Cambridge Crystallographic Data Centre
#                                CCDC 
#
#######################################################################
#
# If this CIF has been generated from an entry in the Cambridge 
# Structural Database, then it will include bibliographic, chemical, 
# crystal, experimental, refinement or atomic coordinate data resulting 
# from the CCDC's data processing and validation procedures.
#
#######################################################################

data_GUNHUS01
_chemical_formula_moiety         'C14 H19 N2 1+,C2 H12 B9 1-'
_chemical_name_systematic        
'8-Dimethylamino-1-(dimethylammonio)naphthalene 10,11-\mH-7,8-dicarba-nido-undecaborate(12)'
_symmetry_cell_setting           triclinic
_symmetry_space_group_name_H-M   'P -1'
_symmetry_Int_Tables_number      2
_space_group_name_Hall           '-P 1'
loop_
_symmetry_equiv_pos_site_id
_symmetry_equiv_pos_as_xyz
1 x,y,z
2 -x,-y,-z
_cell_length_a                   8.129(1)
_cell_length_b                   11.251(2)
_cell_length_c                   12.392(2)
_cell_angle_alpha                68.524(5)
_cell_angle_beta                 86.359(7)
_cell_angle_gamma                79.712(8)
_cell_volume                     1037.72
_exptl_crystal_colour            colorless
_exptl_crystal_description       irregular
_cell_formula_units_Z            2
_exptl_crystal_recrystallization_method hexane/dichloromethane
loop_
_atom_site_label
_atom_site_type_symbol
_atom_site_fract_x
_atom_site_fract_y
_atom_site_fract_z
B1 B 0.9842(3) 1.3664(2) 0.3602(2)
H1 H 1.042(3) 1.395(2) 0.4242(18)
B2 B 0.7992(3) 1.4582(2) 0.2867(2)
H2 H 0.735(3) 1.552(2) 0.292(2)
B3 B 0.9864(3) 1.4529(3) 0.2081(2)
H3 H 1.042(3) 1.540(2) 0.159(2)
B4 B 1.1037(3) 1.2951(3) 0.2678(2)
H4 H 1.242(3) 1.284(3) 0.259(2)
B5 B 0.9871(3) 1.2001(3) 0.3788(2)
H5 H 1.044(3) 1.123(2) 0.454(2)
B6 B 0.7918(3) 1.3026(3) 0.3908(2)
H6 H 0.729(3) 1.288(2) 0.475(2)
C1 C 0.8068(3) 1.4278(2) 0.1604(2)
H7 H 0.762(3) 1.500(2) 0.088(2)
C2 C 0.9716(3) 1.3367(2) 0.1501(2)
H8 H 1.024(3) 1.359(2) 0.067(2)
B7 B 0.9854(3) 1.1885(3) 0.2407(2)
H9 H 1.055(3) 1.104(3) 0.217(2)
B8 B 0.7963(3) 1.1836(3) 0.3269(2)
H10 H 0.742(3) 1.091(2) 0.378(2)
H11 H 0.755(4) 1.227(3) 0.232(3)
B9 B 0.6835(3) 1.3500(3) 0.2584(2)
H12 H 0.551(3) 1.373(2) 0.252(2)
C3 C 0.5849(2) 0.86938(19) 0.23088(17)
C4 C 0.7063(3) 0.9464(2) 0.19856(19)
H13 H 0.739(3) 0.985(2) 0.2508(19)
C5 C 0.7867(3) 0.9685(2) 0.0903(2)
H14 H 0.872(3) 1.028(2) 0.0681(19)
C6 C 0.7463(3) 0.9112(2) 0.0179(2)
H15 H 0.804(3) 0.924(2) -0.056(2)
C7 C 0.6210(2) 0.8313(2) 0.04827(18)
C8 C 0.5797(3) 0.7717(2) -0.02734(19)
H16 H 0.638(3) 0.788(2) -0.099(2)
C9 C 0.4589(3) 0.6953(2) 0.00148(19)
H17 H 0.430(3) 0.658(2) -0.050(2)
C10 C 0.3717(3) 0.6747(2) 0.10707(19)
H18 H 0.280(3) 0.620(2) 0.128(2)
C11 C 0.4077(2) 0.72967(19) 0.18331(17)
C12 C 0.5345(2) 0.80974(18) 0.15695(17)
C13 C 0.1388(3) 0.7688(2) 0.2770(2)
H19 H 0.075(3) 0.729(2) 0.238(2)
H20 H 0.086(3) 0.760(2) 0.355(2)
H21 H 0.131(3) 0.862(3) 0.228(2)
C14 C 0.3335(3) 0.5664(2) 0.3663(2)
H22 H 0.460(3) 0.528(2) 0.380(2)
H23 H 0.275(3) 0.561(2) 0.442(2)
H24 H 0.277(3) 0.523(2) 0.3291(19)
C15 C 0.4055(3) 0.9647(2) 0.3567(2)
H25 H 0.325(3) 1.008(2) 0.288(2)
H26 H 0.482(3) 1.029(2) 0.3526(19)
H27 H 0.347(3) 0.940(2) 0.429(2)
C16 C 0.6260(3) 0.7759(2) 0.4427(2)
H28 H 0.686(3) 0.697(2) 0.431(2)
H29 H 0.559(3) 0.754(2) 0.518(2)
H30 H 0.705(3) 0.832(2) 0.445(2)
N1 N 0.5037(2) 0.84421(16) 0.34547(14)
H31 H 0.406(4) 0.770(3) 0.342(3)
N2 N 0.3177(2) 0.70687(16) 0.29380(14)
loop_
_geom_bond_atom_site_label_1
_geom_bond_atom_site_label_2
_geom_bond_site_symmetry_1
_geom_bond_site_symmetry_2
B1 H1 1_555 1_555
B2 B1 1_555 1_555
H2 B2 1_555 1_555
B3 B1 1_555 1_555
H3 B3 1_555 1_555
B4 B1 1_555 1_555
H4 B4 1_555 1_555
B5 B1 1_555 1_555
H5 B5 1_555 1_555
B6 B1 1_555 1_555
H6 B6 1_555 1_555
C1 B2 1_555 1_555
H7 C1 1_555 1_555
C2 B3 1_555 1_555
H8 C2 1_555 1_555
B7 B4 1_555 1_555
H9 B7 1_555 1_555
B8 B5 1_555 1_555
H10 B8 1_555 1_555
H11 B8 1_555 1_555
B9 B2 1_555 1_555
H12 B9 1_555 1_555
C3 C4 1_555 1_555
C4 H13 1_555 1_555
C5 C4 1_555 1_555
H14 C5 1_555 1_555
C6 C5 1_555 1_555
H15 C6 1_555 1_555
C7 C6 1_555 1_555
C8 C7 1_555 1_555
H16 C8 1_555 1_555
C9 C8 1_555 1_555
H17 C9 1_555 1_555
C10 C9 1_555 1_555
H18 C10 1_555 1_555
C11 C10 1_555 1_555
C12 C3 1_555 1_555
C13 H19 1_555 1_555
H20 C13 1_555 1_555
H21 C13 1_555 1_555
C14 H22 1_555 1_555
H23 C14 1_555 1_555
H24 C14 1_555 1_555
C15 H25 1_555 1_555
H26 C15 1_555 1_555
H27 C15 1_555 1_555
C16 H28 1_555 1_555
H29 C16 1_555 1_555
H30 C16 1_555 1_555
N1 C3 1_555 1_555
H31 N1 1_555 1_555
N2 C11 1_555 1_555
B2 B3 1_555 1_555
B2 B6 1_555 1_555
B3 C1 1_555 1_555
B3 B4 1_555 1_555
B4 C2 1_555 1_555
B4 B5 1_555 1_555
B5 B7 1_555 1_555
B5 B6 1_555 1_555
B6 B9 1_555 1_555
B6 B8 1_555 1_555
C1 B9 1_555 1_555
C1 C2 1_555 1_555
C2 B7 1_555 1_555
B7 B8 1_555 1_555
B8 B9 1_555 1_555
H11 B9 1_555 1_555
C7 C12 1_555 1_555
C11 C12 1_555 1_555
C13 N2 1_555 1_555
C14 N2 1_555 1_555
C15 N1 1_555 1_555
C16 N1 1_555 1_555

#END
