
#######################################################################
#
#                 Cambridge Crystallographic Data Centre
#                                CCDC 
#
#######################################################################
#
# If this CIF has been generated from an entry in the Cambridge 
# Structural Database, then it will include bibliographic, chemical, 
# crystal, experimental, refinement or atomic coordinate data resulting 
# from the CCDC's data processing and validation procedures.
#
#######################################################################

data_GUNZOF
_chemical_formula_moiety         'C48 H35 N3 O1,0.5(C1 H2 Cl2)'
_chemical_name_systematic        
"2-(4-t-Butylphenyl)-5-(4-[4'-(N,N-diphenylamino)biphenyl]hexatriynylphenyl)-1,3,4-oxadiazole dichloromethane solvate"
_symmetry_cell_setting           triclinic
_symmetry_space_group_name_H-M   'P -1'
_symmetry_Int_Tables_number      2
_space_group_name_Hall           '-P 1'
loop_
_symmetry_equiv_pos_site_id
_symmetry_equiv_pos_as_xyz
1 x,y,z
2 -x,-y,-z
_cell_length_a                   9.5789(5)
_cell_length_b                   12.2322(7)
_cell_length_c                   16.4942(9)
_cell_angle_alpha                105.789(9)
_cell_angle_beta                 91.282(9)
_cell_angle_gamma                90.973(10)
_cell_volume                     1858.72
_exptl_crystal_colour            'light yellow'
_exptl_crystal_description       plate
_chemical_melting_point          224.2-225.0deg.C
_cell_formula_units_Z            2
_exptl_crystal_recrystallization_method dichloromethane
loop_
_atom_site_label
_atom_site_type_symbol
_atom_site_fract_x
_atom_site_fract_y
_atom_site_fract_z
O1 O 1.60752(9) 0.11091(8) 0.58428(6)
N1 N 1.71479(12) 0.15320(11) 0.47925(8)
N2 N 1.81024(12) 0.09915(10) 0.52117(7)
N3 N -0.35458(12) 0.83749(10) 0.15083(8)
C2 C 1.59857(14) 0.15814(11) 0.51862(8)
C3 C 1.74292(13) 0.07609(11) 0.58187(8)
C4 C 1.07809(15) 0.33224(12) 0.44633(9)
C5 C 0.97034(15) 0.36974(12) 0.42758(9)
C6 C 0.84783(15) 0.41178(12) 0.40586(9)
C7 C 0.74019(14) 0.44970(12) 0.38637(9)
C8 C 0.61755(14) 0.49159(12) 0.36439(9)
C9 C 0.50869(14) 0.52767(12) 0.34563(9)
C10 C 1.46507(13) 0.20486(11) 0.50238(8)
C11 C 1.34470(14) 0.18303(12) 0.54227(9)
H2 H 1.3499 0.1400 0.5808
C12 C 1.21737(15) 0.22440(12) 0.52432(9)
H3 H 1.1374 0.2097 0.5509
C13 C 1.20881(14) 0.28929(12) 0.46650(9)
C14 C 1.32998(15) 0.31210(12) 0.42764(9)
H4 H 1.3254 0.3562 0.3898
C15 C 1.45657(15) 0.27082(12) 0.44553(9)
H5 H 1.5366 0.2863 0.4193
C16 C 1.78527(13) 0.01807(11) 0.64451(8)
C17 C 1.91800(13) -0.02646(12) 0.64631(8)
H6 H 1.9840 -0.0175 0.6080
C18 C 1.95152(14) -0.08360(12) 0.70575(9)
H7 H 2.0406 -0.1124 0.7066
C19 C 1.85535(14) -0.09972(12) 0.76400(9)
C20 C 1.72315(15) -0.05480(13) 0.76060(9)
H8 H 1.6566 -0.0646 0.7984
C21 C 1.68826(14) 0.00338(13) 0.70265(9)
H9 H 1.5998 0.0336 0.7025
C22 C 1.88626(15) -0.16658(14) 0.82842(10)
C23 C 2.03982(16) -0.19368(17) 0.83241(12)
H10 H 2.0946 -0.1243 0.8465
H11 H 2.0666 -0.2405 0.7785
H12 H 2.0557 -0.2333 0.8745
C24 C 1.8451(2) -0.09531(18) 0.91658(11)
H13 H 1.8674 -0.1356 0.9575
H14 H 1.7466 -0.0821 0.9164
H15 H 1.8955 -0.0238 0.9307
C25 C 1.79860(18) -0.27695(16) 0.80313(12)
H16 H 1.8108 -0.3175 0.8451
H17 H 1.8280 -0.3233 0.7497
H18 H 1.7018 -0.2595 0.7988
C26 C 0.38159(14) 0.57080(12) 0.32021(9)
C27 C 0.37386(15) 0.59749(13) 0.24314(9)
H19 H 0.4506 0.5862 0.2085
C28 C 0.25301(15) 0.63956(14) 0.21758(10)
H20 H 0.2500 0.6570 0.1661
C29 C 0.13495(14) 0.65632(12) 0.26698(9)
C30 C 0.14244(15) 0.62902(12) 0.34371(9)
H21 H 0.0645 0.6386 0.3773
C31 C 0.26407(15) 0.58747(12) 0.37022(9)
H22 H 0.2670 0.5703 0.4218
C32 C -0.43852(15) 0.76559(12) 0.08507(9)
C33 C -0.3812(2) 0.68005(16) 0.02413(13)
H23 H -0.2858 0.6678 0.0260
C34 C -0.4641(3) 0.61155(18) -0.03980(15)
H24 H -0.4240 0.5535 -0.0805
C35 C -0.6048(2) 0.62789(15) -0.04467(12)
H25 H -0.6599 0.5822 -0.0884
C36 C -0.66324(17) 0.71314(15) 0.01588(10)
H26 H -0.7587 0.7250 0.0136
C37 C -0.58096(15) 0.78201(14) 0.08093(9)
H27 H -0.6219 0.8397 0.1215
C38 C -0.36369(13) 0.95726(11) 0.16888(9)
C39 C -0.32790(13) 1.02515(12) 0.24932(9)
H28 H -0.2973 0.9915 0.2905
C40 C -0.33745(14) 1.14161(13) 0.26839(9)
H29 H -0.3120 1.1861 0.3221
C41 C -0.38444(15) 1.19352(13) 0.20784(10)
H30 H -0.3935 1.2719 0.2213
C42 C -0.41889(14) 1.12663(12) 0.12758(9)
H31 H -0.4498 1.1607 0.0867
C43 C -0.40692(13) 1.00960(12) 0.10739(9)
H32 H -0.4281 0.9659 0.0528
C44 C 0.00709(14) 0.70333(12) 0.23777(9)
C45 C 0.01791(14) 0.78609(12) 0.19448(9)
H33 H 0.1058 0.8128 0.1849
C46 C -0.09986(14) 0.82998(12) 0.16564(9)
H34 H -0.0905 0.8849 0.1365
C47 C -0.23208(14) 0.79216(12) 0.17983(9)
C48 C -0.24419(15) 0.71047(13) 0.22365(10)
H35 H -0.3321 0.6849 0.2343
C49 C -0.12639(15) 0.66635(14) 0.25200(10)
H36 H -0.1361 0.6108 0.2805
Cl1 Cl -0.01147(10) 0.56920(9) -0.06166(6)
C1 C 0.0675(5) 0.4790(4) -0.0157(4)
H1 H 0.0491 0.4076 -0.0642
Cl1A Cl 0.01147(10) 0.43080(9) 0.06166(6)
C1A C -0.0675(5) 0.5210(4) 0.0157(4)
H1A H -0.0491 0.5924 0.0642
H37? H -0.0874 0.5875 0.0601
H38? H -0.1564 0.4853 -0.0045
Cl2? Cl -0.0321(7) 0.4734(6) 0.0691(4)
Cl3? Cl 0.0392(13) 0.4951(13) 0.0610(8)
Cl4? Cl -0.0197(15) 0.6091(13) -0.0125(10)
C50? C -0.032(2) 0.4458(17) -0.0382(12)
H39? H -0.1169 0.4120 -0.0669
C51? C 1.775(2) -0.209(2) 0.8777(14)
C52? C 1.952(3) -0.2822(14) 0.7809(18)
C53? C 2.0015(19) -0.114(2) 0.8931(13)
H40? H 1.7000 -0.2396 0.8376
H41? H 1.7392 -0.1516 0.9240
H42? H 1.8131 -0.2689 0.8981
H43? H 1.8856 -0.3253 0.7398
H44? H 1.9739 -0.3232 0.8214
H45? H 2.0361 -0.2699 0.7533
H46? H 2.0692 -0.0837 0.8627
H47? H 2.0434 -0.1726 0.9140
H48? H 1.9700 -0.0551 0.9396
loop_
_geom_bond_atom_site_label_1
_geom_bond_atom_site_label_2
_geom_bond_site_symmetry_1
_geom_bond_site_symmetry_2
Cl1 C1 1_555 1_555
C1 H1 1_555 1_555
O1 C2 1_555 1_555
N1 N2 1_555 1_555
N2 C3 1_555 1_555
N3 C32 1_555 1_555
C2 N1 1_555 1_555
C3 O1 1_555 1_555
C4 C5 1_555 1_555
C5 C6 1_555 1_555
C6 C7 1_555 1_555
C7 C8 1_555 1_555
C8 C9 1_555 1_555
C9 C26 1_555 1_555
C10 C2 1_555 1_555
C11 C10 1_555 1_555
H2 C11 1_555 1_555
C12 C11 1_555 1_555
H3 C12 1_555 1_555
C13 C4 1_555 1_555
C14 C13 1_555 1_555
H4 C14 1_555 1_555
C15 C10 1_555 1_555
H5 C15 1_555 1_555
C16 C3 1_555 1_555
C17 C16 1_555 1_555
H6 C17 1_555 1_555
C18 C17 1_555 1_555
H7 C18 1_555 1_555
C19 C18 1_555 1_555
C20 C19 1_555 1_555
H8 C20 1_555 1_555
C21 C16 1_555 1_555
H9 C21 1_555 1_555
C22 C19 1_555 1_555
C23 C22 1_555 1_555
H10 C23 1_555 1_555
H11 C23 1_555 1_555
H12 C23 1_555 1_555
C24 C22 1_555 1_555
H13 C24 1_555 1_555
H14 C24 1_555 1_555
H15 C24 1_555 1_555
C25 C22 1_555 1_555
H16 C25 1_555 1_555
H17 C25 1_555 1_555
H18 C25 1_555 1_555
C26 C27 1_555 1_555
C27 H19 1_555 1_555
C28 C27 1_555 1_555
H20 C28 1_555 1_555
C29 C28 1_555 1_555
C30 C29 1_555 1_555
H21 C30 1_555 1_555
C31 C26 1_555 1_555
H22 C31 1_555 1_555
C32 C33 1_555 1_555
C33 H23 1_555 1_555
C34 C33 1_555 1_555
H24 C34 1_555 1_555
C35 C34 1_555 1_555
H25 C35 1_555 1_555
C36 C35 1_555 1_555
H26 C36 1_555 1_555
C37 C32 1_555 1_555
H27 C37 1_555 1_555
C38 N3 1_555 1_555
C39 C38 1_555 1_555
H28 C39 1_555 1_555
C40 C39 1_555 1_555
H29 C40 1_555 1_555
C41 C40 1_555 1_555
H30 C41 1_555 1_555
C42 C41 1_555 1_555
H31 C42 1_555 1_555
C43 C38 1_555 1_555
H32 C43 1_555 1_555
C44 C29 1_555 1_555
C45 C44 1_555 1_555
H33 C45 1_555 1_555
C46 C45 1_555 1_555
H34 C46 1_555 1_555
C47 N3 1_555 1_555
C48 C47 1_555 1_555
H35 C48 1_555 1_555
C49 C44 1_555 1_555
H36 C49 1_555 1_555
Cl1A C1 1_555 1_555
C1A Cl1 1_555 1_555
H1A C1A 1_555 1_555
C1 C1A 1_555 1_555
C12 C13 1_555 1_555
C14 C15 1_555 1_555
C20 C21 1_555 1_555
C30 C31 1_555 1_555
C36 C37 1_555 1_555
C42 C43 1_555 1_555
C46 C47 1_555 1_555
C48 C49 1_555 1_555
Cl1A C1A 1_555 1_555

#END
