
#######################################################################
#
#                 Cambridge Crystallographic Data Centre
#                                CCDC 
#
#######################################################################
#
# If this CIF has been generated from an entry in the Cambridge 
# Structural Database, then it will include bibliographic, chemical, 
# crystal, experimental, refinement or atomic coordinate data resulting 
# from the CCDC's data processing and validation procedures.
#
#######################################################################

data_GUPPAJ
_chemical_formula_moiety         'C27 H39 I1 Mg1 N2 O1'
_chemical_name_systematic        
"(N,N'-Dimesitylpentane-2,4-di-iminato-N,N')-(diethyl ether)-iodo-magnesium"
_symmetry_cell_setting           triclinic
_symmetry_space_group_name_H-M   'P -1'
_symmetry_Int_Tables_number      2
_space_group_name_Hall           '-P 1'
loop_
_symmetry_equiv_pos_site_id
_symmetry_equiv_pos_as_xyz
1 x,y,z
2 -x,-y,-z
_cell_length_a                   7.8631(16)
_cell_length_b                   13.795(3)
_cell_length_c                   26.227(5)
_cell_angle_alpha                85.62(3)
_cell_angle_beta                 84.66(3)
_cell_angle_gamma                78.19(3)
_cell_volume                     2767.77
_exptl_crystal_colour            colorless
_exptl_crystal_description       block
_chemical_melting_point          '192-194 deg.C'
_cell_formula_units_Z            4
loop_
_atom_site_label
_atom_site_type_symbol
_atom_site_fract_x
_atom_site_fract_y
_atom_site_fract_z
I1 I 0.118244(17) 0.493727(9) 0.120575(5)
Mg1 Mg 0.22405(7) 0.66577(4) 0.12680(2)
O1 O 0.4856(2) 0.62005(14) 0.12071(7)
N1 N 0.13733(19) 0.74791(11) 0.18849(5)
C1 C -0.1000(3) 0.85688(15) 0.23669(7)
H1 H -0.0900 0.8047 0.2644
H2 H -0.2234 0.8843 0.2324
H3 H -0.0430 0.9097 0.2453
N2 N 0.11982(19) 0.77711(12) 0.07654(6)
C2 C -0.0128(2) 0.81360(13) 0.18723(7)
C3 C -0.0940(2) 0.84884(14) 0.14215(7)
H4 H -0.2122 0.8822 0.1468
C4 C -0.0228(2) 0.84108(14) 0.09067(7)
C5 C -0.1157(3) 0.91461(17) 0.05173(8)
H5 H -0.0402 0.9604 0.0380
H6 H -0.2236 0.9521 0.0682
H7 H -0.1436 0.8790 0.0237
C6 C 0.2315(2) 0.73842(13) 0.23362(7)
C7 C 0.2257(2) 0.65831(14) 0.26975(7)
C8 C 0.3361(3) 0.64522(15) 0.30938(7)
H8 H 0.3345 0.5907 0.3337
C9 C 0.4481(3) 0.70884(17) 0.31459(8)
C10 C 0.4440(3) 0.79015(16) 0.27993(8)
H9 H 0.5156 0.8363 0.2839
C11 C 0.3373(3) 0.80578(14) 0.23940(7)
C12 C 0.1006(3) 0.59051(14) 0.26675(7)
H10 H 0.1146 0.5397 0.2951
H11 H 0.1245 0.5585 0.2340
H12 H -0.0190 0.6290 0.2691
C13 C 0.5746(3) 0.6891(2) 0.35614(9)
H13 H 0.5196 0.6612 0.3874
H14 H 0.6064 0.7515 0.3634
H15 H 0.6796 0.6420 0.3445
C14 C 0.3370(3) 0.89573(15) 0.20272(8)
H16 H 0.3282 0.8777 0.1678
H17 H 0.4454 0.9198 0.2041
H18 H 0.2373 0.9481 0.2125
C15 C 0.1953(2) 0.78030(15) 0.02432(7)
C16 C 0.1420(3) 0.72666(16) -0.01245(7)
C17 C 0.2353(3) 0.72099(17) -0.06047(8)
H19 H 0.2003 0.6847 -0.0856
C18 C 0.3765(3) 0.76614(18) -0.07282(8)
C19 C 0.4209(3) 0.82233(17) -0.03645(8)
H20 H 0.5145 0.8562 -0.0448
C20 C 0.3323(3) 0.83063(16) 0.01206(8)
C21 C -0.0118(3) 0.67707(18) -0.00163(8)
H21 H -0.1193 0.7276 0.0004
H22 H -0.0015 0.6376 0.0310
H23 H -0.0149 0.6337 -0.0293
C22 C 0.4813(3) 0.7530(2) -0.12385(8)
H24 H 0.5029 0.8175 -0.1383
H25 H 0.4165 0.7255 -0.1474
H26 H 0.5929 0.7077 -0.1191
C23 C 0.3868(3) 0.89149(18) 0.05068(8)
H27 H 0.2833 0.9340 0.0667
H28 H 0.4648 0.9329 0.0334
H29 H 0.4477 0.8472 0.0771
C24 C 0.6059(3) 0.66631(17) 0.14344(9)
H30 H 0.5486 0.7347 0.1518
H31 H 0.7078 0.6701 0.1187
C25 C 0.6657(3) 0.6073(2) 0.19165(10)
H32 H 0.5640 0.5994 0.2150
H33 H 0.7395 0.6424 0.2085
H34 H 0.7324 0.5418 0.1828
C26 C 0.5767(3) 0.54016(19) 0.08889(10)
H35 H 0.5082 0.4871 0.0907
H36 H 0.6914 0.5114 0.1021
C27 C 0.6027(4) 0.5784(3) 0.03420(11)
H37 H 0.4893 0.5992 0.0198
H38 H 0.6752 0.5258 0.0142
H39 H 0.6605 0.6352 0.0329
I2 I -0.305023(19) 0.990645(10) 0.388243(5)
Mg2 Mg -0.22619(8) 1.17216(5) 0.37372(2)
O2 O 0.03165(18) 1.14222(11) 0.38241(6)
N3 N -0.3389(2) 1.28535(12) 0.41837(6)
N4 N -0.30754(19) 1.24918(11) 0.30812(5)
C28 C -0.5736(3) 1.42543(18) 0.44205(8)
H40 H -0.6001 1.3904 0.4748
H41 H -0.6824 1.4608 0.4283
H42 H -0.5009 1.4731 0.4474
C29 C -0.4767(2) 1.35124(15) 0.40439(7)
C30 C -0.5370(3) 1.36009(15) 0.35503(8)
H43 H -0.6515 1.3977 0.3519
C31 C -0.4494(2) 1.32028(14) 0.30954(7)
C32 C -0.5221(3) 1.36578(16) 0.25991(8)
H44 H -0.4334 1.3949 0.2389
H45 H -0.6250 1.4176 0.2674
H46 H -0.5549 1.3144 0.2412
C33 C -0.2638(3) 1.29683(14) 0.46506(7)
C34 C -0.2997(3) 1.24005(16) 0.50997(8)
C35 C -0.2054(3) 1.24382(17) 0.55217(8)
H47 H -0.2279 1.2052 0.5827
C36 C -0.0818(3) 1.30096(16) 0.55134(8)
C37 C -0.0530(3) 1.35906(16) 0.50719(8)
H48 H 0.0290 1.4011 0.5065
C38 C -0.1417(3) 1.35720(15) 0.46368(7)
C39 C -0.4339(4) 1.1764(2) 0.51254(9)
H49 H -0.5469 1.2177 0.5051
H50 H -0.4433 1.1439 0.5470
H51 H -0.3994 1.1259 0.4872
C40 C 0.0258(3) 1.2995(2) 0.59639(9)
H52 H 0.1494 1.2767 0.5856
H53 H -0.0102 1.2543 0.6241
H54 H 0.0078 1.3664 0.6086
C41 C -0.0996(3) 1.41743(17) 0.41541(8)
H55 H -0.0485 1.3727 0.3883
H56 H -0.0163 1.4580 0.4221
H57 H -0.2067 1.4607 0.4044
C42 C -0.2146(2) 1.22323(13) 0.25978(6)
C43 C -0.2520(2) 1.14725(14) 0.23316(7)
C44 C -0.1456(3) 1.11665(14) 0.18945(7)
H58 H -0.1694 1.0641 0.1716
C45 C -0.0068(3) 1.16009(15) 0.17117(7)
C46 C 0.0238(3) 1.23795(15) 0.19710(7)
H59 H 0.1170 1.2698 0.1846
C47 C -0.0787(2) 1.27058(14) 0.24093(7)
C48 C -0.4076(3) 1.10134(16) 0.24958(8)
H60 H -0.3897 1.0634 0.2824
H61 H -0.4225 1.0570 0.2236
H62 H -0.5121 1.1537 0.2534
C49 C 0.1075(3) 1.12457(19) 0.12378(8)
H63 H 0.2185 1.0847 0.1340
H64 H 0.1294 1.1819 0.1017
H65 H 0.0484 1.0840 0.1050
C50 C -0.0435(3) 1.35732(16) 0.26728(8)
H66 H 0.0394 1.3893 0.2454
H67 H 0.0055 1.3336 0.3000
H68 H -0.1528 1.4053 0.2736
C51 C 0.0723(4) 1.0926(3) 0.43350(12)
H69 H 0.1079 1.0202 0.4300
H70 H -0.0345 1.1044 0.4572
C52 C 0.2135(5) 1.1285(3) 0.45620(14)
H71 H 0.3240 1.1080 0.4357
H72 H 0.2244 1.1000 0.4914
H73 H 0.1848 1.2010 0.4564
C53 C 0.1614(3) 1.1222(2) 0.34183(10)
H74 H 0.2659 1.1465 0.3495
H75 H 0.1184 1.1581 0.3099
C54 C 0.2113(5) 1.0104(3) 0.33375(17)
H76 H 0.2792 0.9767 0.3618
H77 H 0.2812 0.9997 0.3010
H78 H 0.1053 0.9836 0.3333
C55? C 0.5441(14) 0.6248(9) 0.0523(4)
C56? C 0.6467(18) 0.5191(9) 0.0506(5)
C57? C 0.1502(10) 1.1504(7) 0.4177(4)
C58? C 0.1275(16) 1.0718(9) 0.4572(4)
C59? C 0.1570(12) 1.0411(7) 0.3137(3)
H79? H 0.6184 0.6707 0.0366
H80? H 0.4423 0.6322 0.0317
H81? H 0.7529 0.5129 0.0684
H82? H 0.6782 0.5026 0.0148
H83? H 0.5754 0.4736 0.0674
H84? H 0.1218 1.2165 0.4323
H85? H 0.2710 1.1393 0.4016
H86? H 0.0028 1.0746 0.4662
H87? H 0.1838 1.0812 0.4877
H88? H 0.1806 1.0070 0.4439
H89? H 0.1675 0.9810 0.3366
H90? H 0.2541 1.0331 0.2870
H91? H 0.0465 1.0523 0.2976
O3? O 0.4827(10) 0.6525(6) 0.1052(3)
loop_
_geom_bond_atom_site_label_1
_geom_bond_atom_site_label_2
_geom_bond_site_symmetry_1
_geom_bond_site_symmetry_2
I1 Mg1 1_555 1_555
Mg1 O1 1_555 1_555
O1 C24 1_555 1_555
N1 Mg1 1_555 1_555
C1 H1 1_555 1_555
H2 C1 1_555 1_555
H3 C1 1_555 1_555
N2 Mg1 1_555 1_555
C2 N1 1_555 1_555
C3 C2 1_555 1_555
H4 C3 1_555 1_555
C4 N2 1_555 1_555
C5 C4 1_555 1_555
H5 C5 1_555 1_555
H6 C5 1_555 1_555
H7 C5 1_555 1_555
C6 N1 1_555 1_555
C7 C6 1_555 1_555
C8 C7 1_555 1_555
H8 C8 1_555 1_555
C9 C8 1_555 1_555
C10 C9 1_555 1_555
H9 C10 1_555 1_555
C11 C6 1_555 1_555
C12 C7 1_555 1_555
H10 C12 1_555 1_555
H11 C12 1_555 1_555
H12 C12 1_555 1_555
C13 C9 1_555 1_555
H13 C13 1_555 1_555
H14 C13 1_555 1_555
H15 C13 1_555 1_555
C14 C11 1_555 1_555
H16 C14 1_555 1_555
H17 C14 1_555 1_555
H18 C14 1_555 1_555
C15 N2 1_555 1_555
C16 C15 1_555 1_555
C17 C16 1_555 1_555
H19 C17 1_555 1_555
C18 C17 1_555 1_555
C19 C18 1_555 1_555
H20 C19 1_555 1_555
C20 C15 1_555 1_555
C21 C16 1_555 1_555
H21 C21 1_555 1_555
H22 C21 1_555 1_555
H23 C21 1_555 1_555
C22 C18 1_555 1_555
H24 C22 1_555 1_555
H25 C22 1_555 1_555
H26 C22 1_555 1_555
C23 C20 1_555 1_555
H27 C23 1_555 1_555
H28 C23 1_555 1_555
H29 C23 1_555 1_555
C24 H30 1_555 1_555
H31 C24 1_555 1_555
C25 C24 1_555 1_555
H32 C25 1_555 1_555
H33 C25 1_555 1_555
H34 C25 1_555 1_555
C26 O1 1_555 1_555
H35 C26 1_555 1_555
H36 C26 1_555 1_555
C27 C26 1_555 1_555
H37 C27 1_555 1_555
H38 C27 1_555 1_555
H39 C27 1_555 1_555
I2 Mg2 1_555 1_555
Mg2 O2 1_555 1_555
O2 C51 1_555 1_555
N3 Mg2 1_555 1_555
N4 Mg2 1_555 1_555
C28 H40 1_555 1_555
H41 C28 1_555 1_555
H42 C28 1_555 1_555
C29 N3 1_555 1_555
C30 C29 1_555 1_555
H43 C30 1_555 1_555
C31 N4 1_555 1_555
C32 C31 1_555 1_555
H44 C32 1_555 1_555
H45 C32 1_555 1_555
H46 C32 1_555 1_555
C33 N3 1_555 1_555
C34 C33 1_555 1_555
C35 C34 1_555 1_555
H47 C35 1_555 1_555
C36 C35 1_555 1_555
C37 C36 1_555 1_555
H48 C37 1_555 1_555
C38 C33 1_555 1_555
C39 C34 1_555 1_555
H49 C39 1_555 1_555
H50 C39 1_555 1_555
H51 C39 1_555 1_555
C40 C36 1_555 1_555
H52 C40 1_555 1_555
H53 C40 1_555 1_555
H54 C40 1_555 1_555
C41 C38 1_555 1_555
H55 C41 1_555 1_555
H56 C41 1_555 1_555
H57 C41 1_555 1_555
C42 N4 1_555 1_555
C43 C42 1_555 1_555
C44 C43 1_555 1_555
H58 C44 1_555 1_555
C45 C44 1_555 1_555
C46 C45 1_555 1_555
H59 C46 1_555 1_555
C47 C42 1_555 1_555
C48 C43 1_555 1_555
H60 C48 1_555 1_555
H61 C48 1_555 1_555
H62 C48 1_555 1_555
C49 C45 1_555 1_555
H63 C49 1_555 1_555
H64 C49 1_555 1_555
H65 C49 1_555 1_555
C50 C47 1_555 1_555
H66 C50 1_555 1_555
H67 C50 1_555 1_555
H68 C50 1_555 1_555
C51 H69 1_555 1_555
H70 C51 1_555 1_555
C52 C51 1_555 1_555
H71 C52 1_555 1_555
H72 C52 1_555 1_555
H73 C52 1_555 1_555
C53 O2 1_555 1_555
H74 C53 1_555 1_555
H75 C53 1_555 1_555
C54 C53 1_555 1_555
H76 C54 1_555 1_555
H77 C54 1_555 1_555
H78 C54 1_555 1_555
C1 C2 1_555 1_555
C3 C4 1_555 1_555
C10 C11 1_555 1_555
C19 C20 1_555 1_555
C28 C29 1_555 1_555
C30 C31 1_555 1_555
C37 C38 1_555 1_555
C46 C47 1_555 1_555

#END
