
#######################################################################
#
#                 Cambridge Crystallographic Data Centre
#                                CCDC 
#
#######################################################################
#
# If this CIF has been generated from an entry in the Cambridge 
# Structural Database, then it will include bibliographic, chemical, 
# crystal, experimental, refinement or atomic coordinate data resulting 
# from the CCDC's data processing and validation procedures.
#
#######################################################################

data_GUPPOX
_chemical_formula_moiety         'C33 H49 I1 Mg1 N2 O1'
_chemical_name_systematic        
(N,N'-bis(2,6-Di-isopropylphenyl)pentane-2,4-di-iminato-N,N')-iodo-tetrahydrofuran-magnesium
_symmetry_cell_setting           monoclinic
_symmetry_space_group_name_H-M   'P 21/c'
_symmetry_Int_Tables_number      14
_space_group_name_Hall           '-P 2ybc'
loop_
_symmetry_equiv_pos_site_id
_symmetry_equiv_pos_as_xyz
1 x,y,z
2 -x,1/2+y,1/2-z
3 -x,-y,-z
4 x,1/2-y,1/2+z
_cell_length_a                   16.656(3)
_cell_length_b                   20.315(4)
_cell_length_c                   19.468(4)
_cell_angle_alpha                90
_cell_angle_beta                 91.52(3)
_cell_angle_gamma                90
_cell_volume                     6585
_exptl_crystal_colour            colorless
_exptl_crystal_description       block
_chemical_melting_point          '266-268 deg.C'
_cell_formula_units_Z            8
loop_
_atom_site_label
_atom_site_type_symbol
_atom_site_fract_x
_atom_site_fract_y
_atom_site_fract_z
I1 I 0.479108(15) 0.731361(17) 0.724580(14)
Mg1 Mg 0.62530(7) 0.74296(6) 0.78047(6)
O1 O 0.70209(14) 0.75050(12) 0.70100(12)
N1 N 0.67263(17) 0.66943(14) 0.84018(14)
C1 C 0.7864(2) 0.62889(18) 0.91164(19)
H1 H 0.7513 0.5979 0.9351
H2 H 0.8254 0.6475 0.9448
H3 H 0.8148 0.6058 0.8754
N2 N 0.65647(16) 0.81706(14) 0.84680(14)
C2 C 0.7363(2) 0.68367(16) 0.88014(17)
C3 C 0.7609(2) 0.74803(16) 0.89759(16)
H4 H 0.8128 0.7513 0.9187
C4 C 0.7199(2) 0.80846(17) 0.88846(17)
C5 C 0.7518(2) 0.86478(18) 0.93206(19)
H5 H 0.7524 0.9051 0.9045
H6 H 0.8065 0.8546 0.9485
H7 H 0.7172 0.8711 0.9715
C6 C 0.6447(2) 0.60222(17) 0.83653(18)
C7 C 0.6787(2) 0.55764(18) 0.79002(19)
C8 C 0.6495(2) 0.49305(19) 0.7878(2)
H8 H 0.6718 0.4625 0.7568
C9 C 0.5889(2) 0.4730(2) 0.8299(2)
H9 H 0.5708 0.4287 0.8285
C10 C 0.5546(2) 0.51757(19) 0.8742(2)
H10 H 0.5125 0.5036 0.9027
C11 C 0.5810(2) 0.58286(18) 0.87764(18)
C12 C 0.7427(2) 0.57788(19) 0.74022(19)
H11 H 0.7612 0.6231 0.7535
C13 C 0.7070(3) 0.5820(2) 0.6670(2)
H12 H 0.6907 0.5379 0.6515
H13 H 0.7475 0.5995 0.6362
H14 H 0.6602 0.6111 0.6663
C14 C 0.8166(2) 0.5328(2) 0.7422(2)
H15 H 0.8378 0.5295 0.7895
H16 H 0.8578 0.5511 0.7127
H17 H 0.8012 0.4889 0.7255
C15 C 0.5406(2) 0.63124(19) 0.92491(19)
H18 H 0.5474 0.6761 0.9048
C16 C 0.4509(3) 0.6191(2) 0.9304(3)
H19 H 0.4268 0.6134 0.8843
H20 H 0.4259 0.6567 0.9529
H21 H 0.4421 0.5792 0.9575
C17 C 0.5802(3) 0.6319(3) 0.9961(2)
H22 H 0.5544 0.6653 1.0244
H23 H 0.6373 0.6423 0.9924
H24 H 0.5743 0.5885 1.0174
C18 C 0.6118(2) 0.87822(17) 0.85029(18)
C19 C 0.6221(2) 0.92623(18) 0.79904(19)
C20 C 0.5748(2) 0.98307(19) 0.8013(2)
H25 H 0.5811 1.0161 0.7673
C21 C 0.5190(2) 0.99237(19) 0.8516(2)
H26 H 0.4868 1.0310 0.8516
C22 C 0.5104(2) 0.94511(19) 0.90205(19)
H27 H 0.4726 0.9518 0.9370
C23 C 0.5565(2) 0.88754(18) 0.90232(18)
C24 C 0.6829(2) 0.91929(19) 0.7433(2)
H28 H 0.7017 0.8726 0.7434
C25 C 0.6468(3) 0.9339(2) 0.6722(2)
H29 H 0.5996 0.9061 0.6638
H30 H 0.6868 0.9248 0.6374
H31 H 0.6310 0.9804 0.6696
C26 C 0.7563(3) 0.9633(2) 0.7580(2)
H32 H 0.7388 1.0090 0.7631
H33 H 0.7931 0.9602 0.7197
H34 H 0.7838 0.9487 0.8004
C27 C 0.5426(2) 0.83647(19) 0.95838(18)
H35 H 0.5855 0.8022 0.9556
C28 C 0.4615(2) 0.8028(2) 0.9470(2)
H36 H 0.4184 0.8354 0.9502
H37 H 0.4546 0.7688 0.9821
H38 H 0.4592 0.7824 0.9013
C29 C 0.5478(3) 0.8674(2) 1.0306(2)
H39 H 0.6004 0.8882 1.0377
H40 H 0.5407 0.8330 1.0652
H41 H 0.5055 0.9006 1.0347
C30 C 0.6842(2) 0.7603(2) 0.62800(18)
H42 H 0.6470 0.7978 0.6209
H43 H 0.6594 0.7204 0.6076
C31 C 0.7643(3) 0.7745(3) 0.5956(2)
H44 H 0.7865 0.7342 0.5747
H45 H 0.7585 0.8089 0.5598
C32 C 0.8175(3) 0.7980(3) 0.6544(2)
H46 H 0.8748 0.7892 0.6457
H47 H 0.8101 0.8456 0.6629
C33 C 0.7883(2) 0.7574(2) 0.71338(19)
H48 H 0.8148 0.7138 0.7144
H49 H 0.7997 0.7799 0.7577
I2 I -0.016956(15) 0.742469(18) 1.017248(14)
Mg2 Mg 0.12892(7) 0.74083(6) 0.96544(6)
O2 O 0.20457(14) 0.73134(13) 1.04810(12)
N3 N 0.17283(17) 0.81893(14) 0.91249(15)
N4 N 0.16172(17) 0.67187(14) 0.89516(14)
C34 C 0.2815(2) 0.86728(17) 0.84457(19)
H50 H 0.2455 0.8935 0.8148
H51 H 0.3266 0.8513 0.8179
H52 H 0.3019 0.8946 0.8826
C35 C 0.2358(2) 0.80917(17) 0.87293(17)
C36 C 0.2628(2) 0.74675(16) 0.85256(17)
H53 H 0.3144 0.7462 0.8330
C37 C 0.2250(2) 0.68500(17) 0.85680(17)
C38 C 0.2592(2) 0.63166(18) 0.81136(19)
H54 H 0.2636 0.5904 0.8373
H55 H 0.3125 0.6450 0.7964
H56 H 0.2235 0.6252 0.7711
C39 C 0.1424(2) 0.88525(17) 0.92086(18)
C40 C 0.1775(2) 0.92875(18) 0.96893(19)
C41 C 0.1445(2) 0.99117(19) 0.9763(2)
H57 H 0.1684 1.0209 1.0084
C42 C 0.0780(2) 1.0109(2) 0.9380(2)
H58 H 0.0566 1.0539 0.9433
C43 C 0.0426(2) 0.96699(19) 0.8917(2)
H59 H -0.0037 0.9802 0.8659
C44 C 0.0734(2) 0.90402(18) 0.88223(19)
C45 C 0.2486(2) 0.90868(18) 1.01490(19)
H60 H 0.2705 0.8665 0.9967
C46 C 0.2205(3) 0.8957(2) 1.0881(2)
H61 H 0.2003 0.9367 1.1078
H62 H 0.2656 0.8794 1.1165
H63 H 0.1775 0.8628 1.0868
C47 C 0.3165(2) 0.9595(2) 1.0161(2)
H64 H 0.3307 0.9702 0.9689
H65 H 0.3635 0.9412 1.0407
H66 H 0.2987 0.9994 1.0394
C48 C 0.0332(2) 0.85669(19) 0.8314(2)
H67 H 0.0378 0.8115 0.8515
C49 C -0.0562(2) 0.8706(2) 0.8194(3)
H68 H -0.0630 0.9124 0.7949
H69 H -0.0825 0.8733 0.8638
H70 H -0.0805 0.8350 0.7920
C50 C 0.0748(2) 0.8552(2) 0.7625(2)
H71 H 0.0749 0.8996 0.7427
H72 H 0.0460 0.8252 0.7311
H73 H 0.1303 0.8400 0.7695
C51 C 0.1224(2) 0.60876(17) 0.88463(18)
C52 C 0.1363(2) 0.55721(18) 0.93133(19)
C53 C 0.0982(2) 0.49702(19) 0.9191(2)
H74 H 0.1070 0.4618 0.9505
C54 C 0.0483(2) 0.4873(2) 0.8624(2)
H75 H 0.0244 0.4455 0.8542
C55 C 0.0334(2) 0.53893(19) 0.8178(2)
H76 H -0.0022 0.5324 0.7795
C56 C 0.0692(2) 0.60070(18) 0.82755(19)
C57 C 0.0472(2) 0.6569(2) 0.7793(2)
H77 H 0.0883 0.6924 0.7859
C58 C -0.0342(2) 0.6851(2) 0.7983(2)
H78 H -0.0753 0.6508 0.7936
H79 H -0.0480 0.7219 0.7677
H80 H -0.0316 0.7007 0.8460
C59 C 0.0461(3) 0.6366(2) 0.7037(2)
H81 H 0.0967 0.6146 0.6934
H82 H 0.0397 0.6758 0.6748
H83 H 0.0011 0.6065 0.6946
C60 C 0.1922(2) 0.56441(19) 0.99368(19)
H84 H 0.2095 0.6115 0.9965
C61 C 0.1489(3) 0.5478(2) 1.0601(2)
H85 H 0.1013 0.5757 1.0637
H86 H 0.1853 0.5555 1.0996
H87 H 0.1327 0.5014 1.0592
C62 C 0.2676(2) 0.5221(2) 0.9860(2)
H88 H 0.2520 0.4760 0.9797
H89 H 0.3019 0.5263 1.0275
H90 H 0.2971 0.5371 0.9460
C63 C 0.1861(2) 0.7158(2) 1.11976(18)
H91 H 0.1476 0.6787 1.1217
H92 H 0.1624 0.7545 1.1426
C64 C 0.2647(3) 0.6973(3) 1.1542(2)
H93 H 0.2582 0.6585 1.1842
H94 H 0.2861 0.7343 1.1823
C65 C 0.3206(2) 0.6816(2) 1.0956(2)
H95 H 0.3775 0.6900 1.1090
H96 H 0.3147 0.6354 1.0803
C66 C 0.2916(2) 0.7290(2) 1.04064(19)
H97 H 0.3157 0.7730 1.0478
H98 H 0.3054 0.7128 0.9944
loop_
_geom_bond_atom_site_label_1
_geom_bond_atom_site_label_2
_geom_bond_site_symmetry_1
_geom_bond_site_symmetry_2
I1 Mg1 1_555 1_555
Mg1 O1 1_555 1_555
O1 C30 1_555 1_555
N1 Mg1 1_555 1_555
C1 H1 1_555 1_555
H2 C1 1_555 1_555
H3 C1 1_555 1_555
N2 Mg1 1_555 1_555
C2 N1 1_555 1_555
C3 C2 1_555 1_555
H4 C3 1_555 1_555
C4 N2 1_555 1_555
C5 C4 1_555 1_555
H5 C5 1_555 1_555
H6 C5 1_555 1_555
H7 C5 1_555 1_555
C6 N1 1_555 1_555
C7 C6 1_555 1_555
C8 C7 1_555 1_555
H8 C8 1_555 1_555
C9 C8 1_555 1_555
H9 C9 1_555 1_555
C10 C9 1_555 1_555
H10 C10 1_555 1_555
C11 C6 1_555 1_555
C12 C7 1_555 1_555
H11 C12 1_555 1_555
C13 C12 1_555 1_555
H12 C13 1_555 1_555
H13 C13 1_555 1_555
H14 C13 1_555 1_555
C14 C12 1_555 1_555
H15 C14 1_555 1_555
H16 C14 1_555 1_555
H17 C14 1_555 1_555
C15 C11 1_555 1_555
H18 C15 1_555 1_555
C16 C15 1_555 1_555
H19 C16 1_555 1_555
H20 C16 1_555 1_555
H21 C16 1_555 1_555
C17 C15 1_555 1_555
H22 C17 1_555 1_555
H23 C17 1_555 1_555
H24 C17 1_555 1_555
C18 N2 1_555 1_555
C19 C18 1_555 1_555
C20 C19 1_555 1_555
H25 C20 1_555 1_555
C21 C20 1_555 1_555
H26 C21 1_555 1_555
C22 C21 1_555 1_555
H27 C22 1_555 1_555
C23 C18 1_555 1_555
C24 C19 1_555 1_555
H28 C24 1_555 1_555
C25 C24 1_555 1_555
H29 C25 1_555 1_555
H30 C25 1_555 1_555
H31 C25 1_555 1_555
C26 C24 1_555 1_555
H32 C26 1_555 1_555
H33 C26 1_555 1_555
H34 C26 1_555 1_555
C27 C23 1_555 1_555
H35 C27 1_555 1_555
C28 C27 1_555 1_555
H36 C28 1_555 1_555
H37 C28 1_555 1_555
H38 C28 1_555 1_555
C29 C27 1_555 1_555
H39 C29 1_555 1_555
H40 C29 1_555 1_555
H41 C29 1_555 1_555
C30 H42 1_555 1_555
H43 C30 1_555 1_555
C31 C30 1_555 1_555
H44 C31 1_555 1_555
H45 C31 1_555 1_555
C32 C31 1_555 1_555
H46 C32 1_555 1_555
H47 C32 1_555 1_555
C33 O1 1_555 1_555
H48 C33 1_555 1_555
H49 C33 1_555 1_555
I2 Mg2 1_555 1_555
Mg2 O2 1_555 1_555
O2 C63 1_555 1_555
N3 Mg2 1_555 1_555
N4 Mg2 1_555 1_555
C34 H50 1_555 1_555
H51 C34 1_555 1_555
H52 C34 1_555 1_555
C35 N3 1_555 1_555
C36 C35 1_555 1_555
H53 C36 1_555 1_555
C37 N4 1_555 1_555
C38 C37 1_555 1_555
H54 C38 1_555 1_555
H55 C38 1_555 1_555
H56 C38 1_555 1_555
C39 N3 1_555 1_555
C40 C39 1_555 1_555
C41 C40 1_555 1_555
H57 C41 1_555 1_555
C42 C41 1_555 1_555
H58 C42 1_555 1_555
C43 C42 1_555 1_555
H59 C43 1_555 1_555
C44 C39 1_555 1_555
C45 C40 1_555 1_555
H60 C45 1_555 1_555
C46 C45 1_555 1_555
H61 C46 1_555 1_555
H62 C46 1_555 1_555
H63 C46 1_555 1_555
C47 C45 1_555 1_555
H64 C47 1_555 1_555
H65 C47 1_555 1_555
H66 C47 1_555 1_555
C48 C44 1_555 1_555
H67 C48 1_555 1_555
C49 C48 1_555 1_555
H68 C49 1_555 1_555
H69 C49 1_555 1_555
H70 C49 1_555 1_555
C50 C48 1_555 1_555
H71 C50 1_555 1_555
H72 C50 1_555 1_555
H73 C50 1_555 1_555
C51 N4 1_555 1_555
C52 C51 1_555 1_555
C53 C52 1_555 1_555
H74 C53 1_555 1_555
C54 C53 1_555 1_555
H75 C54 1_555 1_555
C55 C54 1_555 1_555
H76 C55 1_555 1_555
C56 C51 1_555 1_555
C57 C56 1_555 1_555
H77 C57 1_555 1_555
C58 C57 1_555 1_555
H78 C58 1_555 1_555
H79 C58 1_555 1_555
H80 C58 1_555 1_555
C59 C57 1_555 1_555
H81 C59 1_555 1_555
H82 C59 1_555 1_555
H83 C59 1_555 1_555
C60 C52 1_555 1_555
H84 C60 1_555 1_555
C61 C60 1_555 1_555
H85 C61 1_555 1_555
H86 C61 1_555 1_555
H87 C61 1_555 1_555
C62 C60 1_555 1_555
H88 C62 1_555 1_555
H89 C62 1_555 1_555
H90 C62 1_555 1_555
C63 H91 1_555 1_555
H92 C63 1_555 1_555
C64 C63 1_555 1_555
H93 C64 1_555 1_555
H94 C64 1_555 1_555
C65 C64 1_555 1_555
H95 C65 1_555 1_555
H96 C65 1_555 1_555
C66 O2 1_555 1_555
H97 C66 1_555 1_555
H98 C66 1_555 1_555
C1 C2 1_555 1_555
C3 C4 1_555 1_555
C10 C11 1_555 1_555
C22 C23 1_555 1_555
C32 C33 1_555 1_555
C34 C35 1_555 1_555
C36 C37 1_555 1_555
C43 C44 1_555 1_555
C55 C56 1_555 1_555
C65 C66 1_555 1_555

#END
