
#######################################################################
#
#                 Cambridge Crystallographic Data Centre
#                                CCDC 
#
#######################################################################
#
# If this CIF has been generated from an entry in the Cambridge 
# Structural Database, then it will include bibliographic, chemical, 
# crystal, experimental, refinement or atomic coordinate data resulting 
# from the CCDC's data processing and validation procedures.
#
#######################################################################

data_GUPQUE01
_chemical_formula_moiety         'C46 H58 Mg2 N4'
_chemical_name_systematic        
bis(N,N'-Dimesitylpentane-2,4-di-iminato-N,N')-di-magnesium(i)
_symmetry_cell_setting           monoclinic
_symmetry_space_group_name_H-M   'P 2/n'
_symmetry_Int_Tables_number      13
_space_group_name_Hall           '-P 2yac'
loop_
_symmetry_equiv_pos_site_id
_symmetry_equiv_pos_as_xyz
1 x,y,z
2 1/2-x,y,1/2-z
3 -x,-y,-z
4 1/2+x,-y,1/2+z
_cell_length_a                   13.487(3)
_cell_length_b                   8.1980(16)
_cell_length_c                   19.795(4)
_cell_angle_alpha                90
_cell_angle_beta                 100.88(3)
_cell_angle_gamma                90
_cell_volume                     2149.32
_exptl_crystal_colour            colorless
_exptl_crystal_description       'irregular block'
_cell_formula_units_Z            2
loop_
_atom_site_label
_atom_site_type_symbol
_atom_site_fract_x
_atom_site_fract_y
_atom_site_fract_z
Mg1 Mg 0.3133(8) 0.2235(15) 0.3151(5)
N1 N 0.2919(4) 0.2919(8) 0.4106(3)
N2 N 0.4607(4) 0.1656(8) 0.3518(3)
C1 C 0.3394(6) 0.3718(13) 0.5324(4)
C2 C 0.3635(6) 0.3064(12) 0.4650(4)
C3 C 0.4652(6) 0.2580(11) 0.4681(4)
C4 C 0.5091(6) 0.1872(12) 0.4157(4)
C5 C 0.6184(6) 0.1357(14) 0.4368(4)
C6 C 0.1897(6) 0.3330(11) 0.4149(4)
C7 C 0.1253(6) 0.2130(12) 0.4310(4)
C8 C 0.0256(7) 0.2507(12) 0.4336(5)
C9 C -0.0134(6) 0.4073(12) 0.4168(4)
C10 C 0.0521(7) 0.5246(13) 0.3996(5)
C11 C 0.1537(6) 0.4920(11) 0.3967(4)
C12 C 0.1626(8) 0.0406(15) 0.4476(5)
C13 C -0.1220(6) 0.4509(14) 0.4189(5)
C14 C 0.2185(7) 0.6181(15) 0.3753(5)
C15 C 0.5150(6) 0.0957(11) 0.3031(4)
C16 C 0.5066(6) -0.0697(13) 0.2890(4)
C17 C 0.5571(6) -0.1454(15) 0.2393(4)
C18 C 0.6162(6) -0.0383(13) 0.2056(4)
C19 C 0.6218(6) 0.1240(13) 0.2193(4)
C20 C 0.5721(6) 0.1961(12) 0.2685(4)
C21 C 0.4398(7) -0.1809(16) 0.3237(5)
C22 C 0.6727(8) -0.1122(15) 0.1530(5)
C23 C 0.5789(7) 0.3783(14) 0.2810(5)
H1 H 0.2867(17) 0.287(3) 0.5525(11)
H2 H 0.298(2) 0.483(3) 0.5242(13)
H3 H 0.409(2) 0.389(4) 0.5707(14)
H4 H 0.5138(14) 0.273(2) 0.5169(10)
H5 H 0.6464(18) 0.166(3) 0.4901(12)
H6 H 0.6627(18) 0.181(3) 0.4037(11)
H7 H 0.6243(19) 0.009(3) 0.4275(13)
H8 H -0.0224(17) 0.162(3) 0.4470(11)
H9 H 0.0261(16) 0.641(3) 0.3862(10)
H10 H 0.221(3) 0.030(5) 0.4959(19)
H11 H 0.203(2) 0.001(4) 0.4140(16)
H12 H 0.106(3) -0.034(4) 0.4530(16)
H13 H -0.157(2) 0.353(4) 0.4426(15)
H14 H -0.1309(16) 0.550(3) 0.4478(11)
H15 H -0.165(2) 0.476(3) 0.3649(14)
H16 H 0.181(2) 0.730(4) 0.3617(15)
H17 H 0.282(2) 0.651(4) 0.4181(14)
H18 H 0.2550(18) 0.582(4) 0.3325(13)
H19 H 0.5498(16) -0.264(3) 0.2299(12)
H20 H 0.6693(14) 0.201(3) 0.1931(9)
H21 H 0.4559(17) -0.155(3) 0.3798(12)
H22 H 0.3573(18) -0.142(3) 0.3088(12)
H23 H 0.4474(19) -0.296(4) 0.3147(13)
H24 H 0.627(2) -0.134(4) 0.1037(15)
H25 H 0.711(3) -0.225(5) 0.169(2)
H26 H 0.730(3) -0.046(5) 0.1451(18)
H27 H 0.632(2) 0.431(4) 0.2551(13)
H28 H 0.598(2) 0.409(4) 0.3300(16)
H29 H 0.501(3) 0.439(6) 0.262(2)
Mg1A Mg 0.1867(8) 0.2235(15) 0.1849(5)
N1A N 0.2081(4) 0.2919(8) 0.0894(3)
N2A N 0.0393(4) 0.1656(8) 0.1482(3)
C1A C 0.1606(6) 0.3718(13) -0.0324(4)
C2A C 0.1365(6) 0.3064(12) 0.0350(4)
C3A C 0.0348(6) 0.2580(11) 0.0319(4)
C4A C -0.0091(6) 0.1872(12) 0.0843(4)
C5A C -0.1184(6) 0.1357(14) 0.0632(4)
C6A C 0.3103(6) 0.3330(11) 0.0851(4)
C7A C 0.3747(6) 0.2130(12) 0.0690(4)
C8A C 0.4744(7) 0.2507(12) 0.0664(5)
C9A C 0.5134(6) 0.4073(12) 0.0832(4)
C10A C 0.4479(7) 0.5246(13) 0.1004(5)
C11A C 0.3463(6) 0.4920(11) 0.1033(4)
C12A C 0.3374(8) 0.0406(15) 0.0524(5)
C13A C 0.6220(6) 0.4509(14) 0.0811(5)
C14A C 0.2815(7) 0.6181(15) 0.1247(5)
C15A C -0.0150(6) 0.0957(11) 0.1969(4)
C16A C -0.0066(6) -0.0697(13) 0.2110(4)
C17A C -0.0571(6) -0.1454(15) 0.2607(4)
C18A C -0.1162(6) -0.0383(13) 0.2944(4)
C19A C -0.1218(6) 0.1240(13) 0.2807(4)
C20A C -0.0721(6) 0.1961(12) 0.2315(4)
C21A C 0.0602(7) -0.1809(16) 0.1763(5)
C22A C -0.1727(8) -0.1122(15) 0.3470(5)
C23A C -0.0789(7) 0.3783(14) 0.2190(5)
H1A H 0.2133(17) 0.287(3) -0.0525(11)
H2A H 0.202(2) 0.483(3) -0.0242(13)
H3A H 0.091(2) 0.389(4) -0.0707(14)
H4A H -0.0138(14) 0.273(2) -0.0169(10)
H5A H -0.1464(18) 0.166(3) 0.0099(12)
H6A H -0.1627(18) 0.181(3) 0.0963(11)
H7A H -0.1243(19) 0.009(3) 0.0725(13)
H8A H 0.5224(17) 0.162(3) 0.0530(11)
H9A H 0.4739(16) 0.641(3) 0.1138(10)
H10A H 0.279(3) 0.030(5) 0.0041(19)
H11A H 0.297(2) 0.001(4) 0.0860(16)
H12A H 0.394(3) -0.034(4) 0.0470(16)
H13A H 0.657(2) 0.353(4) 0.0574(15)
H14A H 0.6309(16) 0.550(3) 0.0522(11)
H15A H 0.665(2) 0.476(3) 0.1351(14)
H16A H 0.319(2) 0.730(4) 0.1383(15)
H17A H 0.218(2) 0.651(4) 0.0819(14)
H18A H 0.2450(18) 0.582(4) 0.1675(13)
H19A H -0.0498(16) -0.264(3) 0.2701(12)
H20A H -0.1693(14) 0.201(3) 0.3069(9)
H21A H 0.0441(17) -0.155(3) 0.1202(12)
H22A H 0.1427(18) -0.142(3) 0.1912(12)
H23A H 0.0526(19) -0.296(4) 0.1853(13)
H24A H -0.127(2) -0.134(4) 0.3963(15)
H25A H -0.211(3) -0.225(5) 0.331(2)
H26A H -0.230(3) -0.046(5) 0.3549(18)
H27A H -0.132(2) 0.431(4) 0.2449(13)
H28A H -0.098(2) 0.409(4) 0.1700(16)
H29A H -0.001(3) 0.439(6) 0.238(2)
loop_
_geom_bond_atom_site_label_1
_geom_bond_atom_site_label_2
_geom_bond_site_symmetry_1
_geom_bond_site_symmetry_2
Mg1 N1 1_555 1_555
N1 C2 1_555 1_555
N2 Mg1 1_555 1_555
C1 C2 1_555 1_555
C2 C3 1_555 1_555
C3 C4 1_555 1_555
C4 N2 1_555 1_555
C5 C4 1_555 1_555
C6 N1 1_555 1_555
C7 C6 1_555 1_555
C8 C7 1_555 1_555
C9 C8 1_555 1_555
C10 C9 1_555 1_555
C11 C6 1_555 1_555
C12 C7 1_555 1_555
C13 C9 1_555 1_555
C14 C11 1_555 1_555
C15 N2 1_555 1_555
C16 C15 1_555 1_555
C17 C16 1_555 1_555
C18 C17 1_555 1_555
C19 C18 1_555 1_555
C20 C15 1_555 1_555
C21 C16 1_555 1_555
C22 C18 1_555 1_555
C23 C20 1_555 1_555
H1 C1 1_555 1_555
H2 C1 1_555 1_555
H3 C1 1_555 1_555
H4 C3 1_555 1_555
H5 C5 1_555 1_555
H6 C5 1_555 1_555
H7 C5 1_555 1_555
H8 C8 1_555 1_555
H9 C10 1_555 1_555
H10 C12 1_555 1_555
H11 C12 1_555 1_555
H12 C12 1_555 1_555
H13 C13 1_555 1_555
H14 C13 1_555 1_555
H15 C13 1_555 1_555
H16 C14 1_555 1_555
H17 C14 1_555 1_555
H18 C14 1_555 1_555
H19 C17 1_555 1_555
H20 C19 1_555 1_555
H21 C21 1_555 1_555
H22 C21 1_555 1_555
H23 C21 1_555 1_555
H24 C22 1_555 1_555
H25 C22 1_555 1_555
H26 C22 1_555 1_555
H27 C23 1_555 1_555
H28 C23 1_555 1_555
H29 C23 1_555 1_555
Mg1A Mg1 1_555 1_555
N1A Mg1A 1_555 1_555
N2A Mg1A 1_555 1_555
C1A C2A 1_555 1_555
C2A N1A 1_555 1_555
C3A C2A 1_555 1_555
C4A N2A 1_555 1_555
C5A C4A 1_555 1_555
C6A N1A 1_555 1_555
C7A C6A 1_555 1_555
C8A C7A 1_555 1_555
C9A C8A 1_555 1_555
C10A C9A 1_555 1_555
C11A C6A 1_555 1_555
C12A C7A 1_555 1_555
C13A C9A 1_555 1_555
C14A C11A 1_555 1_555
C15A N2A 1_555 1_555
C16A C15A 1_555 1_555
C17A C16A 1_555 1_555
C18A C17A 1_555 1_555
C19A C18A 1_555 1_555
C20A C15A 1_555 1_555
C21A C16A 1_555 1_555
C22A C18A 1_555 1_555
C23A C20A 1_555 1_555
H1A C1A 1_555 1_555
H2A C1A 1_555 1_555
H3A C1A 1_555 1_555
H4A C3A 1_555 1_555
H5A C5A 1_555 1_555
H6A C5A 1_555 1_555
H7A C5A 1_555 1_555
H8A C8A 1_555 1_555
H9A C10A 1_555 1_555
H10A C12A 1_555 1_555
H11A C12A 1_555 1_555
H12A C12A 1_555 1_555
H13A C13A 1_555 1_555
H14A C13A 1_555 1_555
H15A C13A 1_555 1_555
H16A C14A 1_555 1_555
H17A C14A 1_555 1_555
H18A C14A 1_555 1_555
H19A C17A 1_555 1_555
H20A C19A 1_555 1_555
H21A C21A 1_555 1_555
H22A C21A 1_555 1_555
H23A C21A 1_555 1_555
H24A C22A 1_555 1_555
H25A C22A 1_555 1_555
H26A C22A 1_555 1_555
H27A C23A 1_555 1_555
H28A C23A 1_555 1_555
H29A C23A 1_555 1_555
C10 C11 1_555 1_555
C19 C20 1_555 1_555
C3A C4A 1_555 1_555
C10A C11A 1_555 1_555
C19A C20A 1_555 1_555

#END
