
#######################################################################
#
#                 Cambridge Crystallographic Data Centre
#                                CCDC 
#
#######################################################################
#
# If this CIF has been generated from an entry in the Cambridge 
# Structural Database, then it will include bibliographic, chemical, 
# crystal, experimental, refinement or atomic coordinate data resulting 
# from the CCDC's data processing and validation procedures.
#
#######################################################################

data_GUQHUX
_chemical_compound_source        
'Pleosporales sp., a fungus derived from a marine alga Enteromorpha clathrata'
_chemical_name_common            'Pleosporallin A methanol solvate'
_chemical_formula_moiety         'C22 H34 O5,C1 H4 O1'
_chemical_name_systematic        
'4-(hydroxymethyl)-1-((5-(hydroxymethyl)-2,5,8a-trimethyl-1,4,4a,5,6,7,8,8a-octahydronaphthalen-1-yl)methyl)-7-oxabicyclo[4.1.0]hept-3-ene-2,5-diol methanol solvate'
_symmetry_cell_setting           orthorhombic
_symmetry_space_group_name_H-M   'P 21 21 21'
_symmetry_Int_Tables_number      19
_space_group_name_Hall           'P 2ac 2ab'
loop_
_symmetry_equiv_pos_site_id
_symmetry_equiv_pos_as_xyz
1 x,y,z
2 1/2-x,-y,1/2+z
3 -x,1/2+y,1/2-z
4 1/2+x,1/2-y,-z
_cell_length_a                   7.4369(2)
_cell_length_b                   10.2783(3)
_cell_length_c                   28.2055(8)
_cell_angle_alpha                90
_cell_angle_beta                 90
_cell_angle_gamma                90
_cell_volume                     2155.99
_exptl_crystal_description       Prism
_chemical_melting_point          '95-97 deg.C'
_cell_formula_units_Z            4
loop_
_atom_site_label
_atom_site_type_symbol
_atom_site_fract_x
_atom_site_fract_y
_atom_site_fract_z
O1 O 0.7429(2) 0.64242(16) 0.10877(6)
O2 O 1.0306(2) 0.84019(16) 0.07754(6)
H1 H 0.9241 0.8546 0.0722
O3 O 1.1926(2) 0.60040(17) -0.03886(6)
H2 H 1.3000 0.5975 -0.0453
O4 O 0.9891(3) 0.33517(17) 0.09114(7)
H3 H 0.9529 0.2681 0.0786
O5 O 0.6159(3) 0.4115(2) 0.41468(6)
H4 H 0.5858 0.3433 0.4275
C1 C 0.9284(3) 0.6546(2) 0.12265(9)
H5 H 0.9491 0.6877 0.1548
C2 C 1.0565(3) 0.7028(2) 0.08543(8)
H6 H 1.1776 0.6930 0.0986
C3 C 1.0537(3) 0.6259(2) 0.03987(9)
C4 C 0.9712(3) 0.5123(2) 0.03648(9)
H7 H 0.9697 0.4726 0.0068
C5 C 0.8799(3) 0.4418(2) 0.07647(8)
H8 H 0.7648 0.4077 0.0650
C6 C 0.8448(3) 0.5256(2) 0.11977(9)
C7 C 0.8013(3) 0.4506(2) 0.16488(8)
H9 H 0.9131 0.4367 0.1819
H10 H 0.7563 0.3657 0.1557
C8 C 0.6657(3) 0.5105(2) 0.19980(8)
H11 H 0.6723 0.6052 0.1961
C9 C 0.4734(3) 0.4695(2) 0.18754(9)
C10 C 0.3551(4) 0.4351(3) 0.22007(9)
H12 H 0.2422 0.4082 0.2099
C11 C 0.3909(4) 0.4365(3) 0.27266(9)
H13 H 0.4085 0.3481 0.2837
H14 H 0.2872 0.4722 0.2890
C12 C 0.5568(3) 0.5176(2) 0.28457(8)
H15 H 0.5257 0.6059 0.2744
C13 C 0.7175(3) 0.4785(2) 0.25247(8)
C14 C 0.8810(3) 0.5628(2) 0.26576(9)
H16 H 0.9852 0.5317 0.2485
H17 H 0.8584 0.6517 0.2559
C15 C 0.9238(4) 0.5618(3) 0.31893(9)
H18 H 0.9549 0.4742 0.3287
H19 H 1.0263 0.6176 0.3251
C16 C 0.7636(4) 0.6090(3) 0.34740(9)
H20 H 0.7405 0.6992 0.3394
H21 H 0.7936 0.6054 0.3808
C17 C 0.5928(3) 0.5304(2) 0.33901(8)
C18 C 1.1651(3) 0.6855(2) 0.00070(9)
H22 H 1.1060 0.7640 -0.0103
H23 H 1.2813 0.7103 0.0135
C19 C 0.4197(4) 0.4734(3) 0.13572(9)
H24 H 0.2947 0.4514 0.1327
H25 H 0.4907 0.4119 0.1182
H26 H 0.4396 0.5592 0.1234
C20 C 0.7645(4) 0.3317(2) 0.25668(9)
H27 H 0.8590 0.3107 0.2348
H28 H 0.6600 0.2805 0.2495
H29 H 0.8036 0.3130 0.2884
C21 C 0.6035(4) 0.3971(2) 0.36377(8)
H30 H 0.4975 0.3465 0.3560
H31 H 0.7080 0.3502 0.3523
C22 C 0.4344(4) 0.6043(3) 0.36182(9)
H32 H 0.4626 0.6238 0.3943
H33 H 0.3282 0.5513 0.3606
H34 H 0.4138 0.6839 0.3448
O6 O 0.3483(4) 0.3519(2) -0.03238(9)
H35 H 0.2797 0.4135 -0.0361
C23 C 0.4242(8) 0.3586(5) 0.01248(16)
H36 H 0.4802 0.4420 0.0167
H37 H 0.5128 0.2913 0.0158
H38 H 0.3322 0.3472 0.0360
loop_
_geom_bond_atom_site_label_1
_geom_bond_atom_site_label_2
_geom_bond_site_symmetry_1
_geom_bond_site_symmetry_2
O1 C1 1_555 1_555
O2 H1 1_555 1_555
O3 H2 1_555 1_555
O4 H3 1_555 1_555
O5 H4 1_555 1_555
C1 H5 1_555 1_555
C2 O2 1_555 1_555
H6 C2 1_555 1_555
C3 C2 1_555 1_555
C4 C3 1_555 1_555
H7 C4 1_555 1_555
C5 O4 1_555 1_555
H8 C5 1_555 1_555
C6 O1 1_555 1_555
C7 C6 1_555 1_555
H9 C7 1_555 1_555
H10 C7 1_555 1_555
C8 C7 1_555 1_555
H11 C8 1_555 1_555
C9 C8 1_555 1_555
C10 C9 1_555 1_555
H12 C10 1_555 1_555
C11 C10 1_555 1_555
H13 C11 1_555 1_555
H14 C11 1_555 1_555
C12 C11 1_555 1_555
H15 C12 1_555 1_555
C13 C8 1_555 1_555
C14 C13 1_555 1_555
H16 C14 1_555 1_555
H17 C14 1_555 1_555
C15 C14 1_555 1_555
H18 C15 1_555 1_555
H19 C15 1_555 1_555
C16 C15 1_555 1_555
H20 C16 1_555 1_555
H21 C16 1_555 1_555
C17 C12 1_555 1_555
C18 O3 1_555 1_555
H22 C18 1_555 1_555
H23 C18 1_555 1_555
C19 C9 1_555 1_555
H24 C19 1_555 1_555
H25 C19 1_555 1_555
H26 C19 1_555 1_555
C20 C13 1_555 1_555
H27 C20 1_555 1_555
H28 C20 1_555 1_555
H29 C20 1_555 1_555
C21 O5 1_555 1_555
H30 C21 1_555 1_555
H31 C21 1_555 1_555
C22 C17 1_555 1_555
H32 C22 1_555 1_555
H33 C22 1_555 1_555
H34 C22 1_555 1_555
O6 H35 1_555 1_555
C23 O6 1_555 1_555
H36 C23 1_555 1_555
H37 C23 1_555 1_555
H38 C23 1_555 1_555
C1 C2 1_555 1_555
C1 C6 1_555 1_555
C3 C18 1_555 1_555
C4 C5 1_555 1_555
C5 C6 1_555 1_555
C12 C13 1_555 1_555
C16 C17 1_555 1_555
C17 C21 1_555 1_555

#END
