
#######################################################################
#
#                 Cambridge Crystallographic Data Centre
#                                CCDC 
#
#######################################################################
#
# If this CIF has been generated from an entry in the Cambridge 
# Structural Database, then it will include bibliographic, chemical, 
# crystal, experimental, refinement or atomic coordinate data resulting 
# from the CCDC's data processing and validation procedures.
#
#######################################################################

data_GUQMEM
_chemical_formula_moiety         'C5 H14 B9 Br1 N2'
_chemical_name_systematic        
9,10-\mH-7,8-(1-amino-2-bromo-3-iminioprop-1-ene-1,3-diyl)-7,8-dicarba-nido-undecaborate(10)
_symmetry_cell_setting           monoclinic
_symmetry_space_group_name_H-M   'C 2/c'
_symmetry_Int_Tables_number      15
_space_group_name_Hall           '-C 2yn'
loop_
_symmetry_equiv_pos_site_id
_symmetry_equiv_pos_as_xyz
1 x,y,z
2 -x,y,1/2-z
3 1/2+x,1/2+y,z
4 1/2-x,1/2+y,1/2-z
5 -x,-y,-z
6 x,-y,1/2+z
7 1/2-x,1/2-y,-z
8 1/2+x,1/2-y,1/2+z
_cell_length_a                   12.0008(8)
_cell_length_b                   13.1284(6)
_cell_length_c                   16.9349(9)
_cell_angle_alpha                90
_cell_angle_beta                 107.573(6)
_cell_angle_gamma                90
_cell_volume                     2543.6
_exptl_crystal_colour            colorless
_exptl_crystal_description       needle
_cell_formula_units_Z            8
loop_
_atom_site_label
_atom_site_type_symbol
_atom_site_fract_x
_atom_site_fract_y
_atom_site_fract_z
Br1 Br 0.08704(2) 0.173074(19) 0.526761(14)
N1 N 0.12401(17) 0.19685(12) 0.34473(11)
H1 H 0.0927 0.2440 0.3662
H2 H 0.1345 0.2061 0.2972
N2 N 0.20048(17) -0.05712(14) 0.55714(9)
H3 H 0.1757 -0.0277 0.5940
H4 H 0.2312 -0.1168 0.5664
C1 C 0.20864(18) 0.02573(14) 0.35221(11)
C2 C 0.23074(18) -0.05659(15) 0.42046(11)
C3 C 0.19127(18) -0.01066(15) 0.48636(11)
C4 C 0.14449(19) 0.08467(15) 0.46154(11)
C5 C 0.15580(19) 0.11070(15) 0.38457(12)
B1 B 0.1667(2) -0.01863(19) 0.25879(14)
H5 H 0.1045 0.0268 0.2078
B2 B 0.3135(2) 0.0267(2) 0.30284(15)
H6 H 0.3480 0.0927 0.2777
B3 B 0.3533(2) 0.0050(2) 0.41032(17)
H7 H 0.4116 0.0575 0.4546
B4 B 0.3513(2) -0.12752(19) 0.42902(15)
H8 H 0.4103 -0.1616 0.4856
B5 B 0.2026(2) -0.17094(18) 0.38313(14)
H9 H 0.1675 -0.2283 0.4152
B6 B 0.1670(2) -0.15740(18) 0.26964(14)
H10 H 0.1155 -0.2129 0.2250
H11 H 0.1143 -0.1246 0.3008
B7 B 0.2860(2) -0.0917(2) 0.25297(15)
H12 H 0.3042 -0.1025 0.1936
B8 B 0.4024(3) -0.07912(19) 0.34874(15)
H13 H 0.4951 -0.0842 0.3518
B9 B 0.3096(2) -0.18923(19) 0.33218(15)
H14 H 0.3434 -0.2658 0.3262
loop_
_geom_bond_atom_site_label_1
_geom_bond_atom_site_label_2
_geom_bond_site_symmetry_1
_geom_bond_site_symmetry_2
Br1 C4 1_555 1_555
N1 H1 1_555 1_555
H2 N1 1_555 1_555
N2 H3 1_555 1_555
H4 N2 1_555 1_555
C1 C2 1_555 1_555
C2 C3 1_555 1_555
C3 N2 1_555 1_555
C4 C3 1_555 1_555
C5 N1 1_555 1_555
B1 C1 1_555 1_555
H5 B1 1_555 1_555
B2 C1 1_555 1_555
H6 B2 1_555 1_555
B3 C1 1_555 1_555
H7 B3 1_555 1_555
B4 C2 1_555 1_555
H8 B4 1_555 1_555
B5 C2 1_555 1_555
H9 B5 1_555 1_555
B6 B1 1_555 1_555
H10 B6 1_555 1_555
H11 B1 1_555 1_555
B7 B1 1_555 1_555
H12 B7 1_555 1_555
B8 B2 1_555 1_555
H13 B8 1_555 1_555
B9 B4 1_555 1_555
H14 B9 1_555 1_555
C1 C5 1_555 1_555
C2 B3 1_555 1_555
C4 C5 1_555 1_555
B1 B2 1_555 1_555
B2 B3 1_555 1_555
B2 B7 1_555 1_555
B3 B4 1_555 1_555
B3 B8 1_555 1_555
B4 B5 1_555 1_555
B4 B8 1_555 1_555
B5 B6 1_555 1_555
B5 B9 1_555 1_555
B6 H11 1_555 1_555
B6 B7 1_555 1_555
B6 B9 1_555 1_555
B7 B8 1_555 1_555
B7 B9 1_555 1_555
B8 B9 1_555 1_555

#END
