
#######################################################################
#
#                 Cambridge Crystallographic Data Centre
#                                CCDC 
#
#######################################################################
#
# If this CIF has been generated from an entry in the Cambridge 
# Structural Database, then it will include bibliographic, chemical, 
# crystal, experimental, refinement or atomic coordinate data resulting 
# from the CCDC's data processing and validation procedures.
#
#######################################################################

data_GUQMIQ
_chemical_formula_moiety         'C19 H36 N3 O6 P1'
_chemical_name_systematic        
5-((dibutylcarbamoyl)oxy)-3,8-diisopropyl-1,6-dioxa-4,9-diaza-5-phosphaspiro[4.4]nonane-2,7-dione
_symmetry_cell_setting           monoclinic
_symmetry_space_group_name_H-M   'P 21'
_symmetry_Int_Tables_number      4
_space_group_name_Hall           'P 2yb'
loop_
_symmetry_equiv_pos_site_id
_symmetry_equiv_pos_as_xyz
1 x,y,z
2 -x,1/2+y,-z
_cell_length_a                   10.02685(16)
_cell_length_b                   10.35683(16)
_cell_length_c                   23.9983(5)
_cell_angle_alpha                90
_cell_angle_beta                 97.9548(18)
_cell_angle_gamma                90
_cell_volume                     2468.16
_cell_formula_units_Z            4
loop_
_atom_site_label
_atom_site_type_symbol
_atom_site_fract_x
_atom_site_fract_y
_atom_site_fract_z
P1 P 0.78051(7) 0.41071(7) 0.48997(3)
O1 O 0.6346(2) 0.4474(2) 0.51809(12)
O2 O 0.5239(3) 0.6104(3) 0.55078(17)
O3 O 0.9200(2) 0.3758(2) 0.45879(9)
O4 O 1.0020(3) 0.2329(3) 0.40324(14)
O5 O 0.8502(3) 0.3667(2) 0.55270(10)
O6 O 0.9156(3) 0.1643(3) 0.53344(11)
N1 N 0.8049(3) 0.5646(3) 0.48066(13)
H1 H 0.8658 0.5910 0.4614
N2 N 0.6962(3) 0.3042(3) 0.45026(13)
H2 H 0.6107 0.2965 0.4500
N3 N 0.9310(4) 0.2372(4) 0.62286(14)
C1 C 0.6148(4) 0.5723(4) 0.52835(18)
C2 C 0.7202(3) 0.6558(3) 0.50597(17)
H3 H 0.7748 0.6983 0.5378
C3 C 0.6540(4) 0.7591(4) 0.4662(2)
H4 H 0.5996 0.8137 0.4876
C4 C 0.7605(6) 0.8446(5) 0.4456(3)
H5 H 0.8221 0.8744 0.4772
H6 H 0.7179 0.9174 0.4258
H7 H 0.8089 0.7960 0.4208
C5 C 0.5612(6) 0.7012(6) 0.4183(3)
H8 H 0.6110 0.6433 0.3977
H9 H 0.5226 0.7686 0.3938
H10 H 0.4907 0.6545 0.4327
C6 C 0.9080(4) 0.2728(3) 0.42461(15)
C7 C 0.7669(4) 0.2220(3) 0.41510(15)
H11 H 0.7665 0.1331 0.4291
C8 C 0.7019(5) 0.2246(5) 0.3538(2)
H12 H 0.6062 0.2060 0.3541
C9 C 0.7078(7) 0.3593(5) 0.3274(2)
H13 H 0.6712 0.4217 0.3507
H14 H 0.6563 0.3594 0.2906
H15 H 0.7997 0.3809 0.3246
C10 C 0.7545(9) 0.1177(8) 0.3221(3)
H16 H 0.8489 0.1304 0.3210
H17 H 0.7076 0.1161 0.2844
H18 H 0.7410 0.0372 0.3403
C11 C 0.8999(3) 0.2471(3) 0.56724(16)
C12 C 0.9269(7) 0.3479(7) 0.6600(2)
H19 H 0.9572 0.4237 0.6416
H20 H 0.9894 0.3332 0.6940
C13 C 0.7929(8) 0.3743(8) 0.6757(3)
H21 H 0.7616 0.3002 0.6949
H22 H 0.7291 0.3909 0.6422
C14 C 0.8037(14) 0.4952(13) 0.7153(6)
H23 H 0.8707 0.4778 0.7476
H24 H 0.8354 0.5679 0.6953
C15 C 0.6768(18) 0.5318(17) 0.7354(8)
H25 H 0.6095 0.4676 0.7240
H26 H 0.6471 0.6138 0.7196
H27 H 0.6910 0.5380 0.7757
C16 C 0.9825(6) 0.1126(5) 0.6461(2)
H28 H 1.0588 0.1292 0.6747
H29 H 1.0156 0.0641 0.6162
C17 C 0.8861(8) 0.0309(7) 0.6709(3)
H30 H 0.8518 0.0783 0.7008
H31 H 0.9322 -0.0452 0.6873
C18 C 0.7701(9) -0.0099(10) 0.6279(5)
H32 H 0.7167 0.0660 0.6162
H33 H 0.8061 -0.0425 0.5951
C19 C 0.6825(13) -0.1063(13) 0.6459(6)
H34 H 0.6227 -0.1373 0.6140
H35 H 0.6309 -0.0692 0.6727
H36 H 0.7353 -0.1767 0.6631
P2 P 0.28633(7) 0.37761(7) 1.01355(3)
O7 O 0.44973(19) 0.4115(2) 1.04026(9)
O8 O 0.5761(3) 0.5553(3) 1.09198(14)
O9 O 0.1193(2) 0.3404(2) 0.98969(12)
O10 O -0.0163(3) 0.1773(3) 0.96151(18)
O11 O 0.3029(2) 0.4233(2) 0.94966(10)
O12 O 0.3938(3) 0.6224(2) 0.96768(10)
N4 N 0.2361(3) 0.4847(3) 1.05562(13)
H37 H 0.1523 0.4918 1.0593
N5 N 0.3181(3) 0.2243(3) 1.02169(13)
H38 H 0.3942 0.1980 1.0389
N6 N 0.3291(4) 0.5543(4) 0.87846(14)
C20 C 0.4677(4) 0.5150(3) 1.07364(15)
C21 C 0.351(2) 0.181(2) 0.7463(8)
H39 H 0.4360 0.2178 0.7406
H40 H 0.3000 0.1609 0.7105
H41 H 0.3660 0.1038 0.7683
C22 C 0.3358(4) 0.5678(3) 1.08661(15)
H42 H 0.3243 0.6555 1.0714
C23 C 0.3314(6) 0.5727(5) 1.15068(18)
H43 H 0.4094 0.6239 1.1669
C24 C 0.2125(8) 0.6399(7) 1.1648(3)
H44 H 0.2018 0.7202 1.1447
H45 H 0.2232 0.6566 1.2046
H46 H 0.1342 0.5872 1.1545
C25 C 0.3506(7) 0.4381(7) 1.1768(2)
H47 H 0.2866 0.3797 1.1569
H48 H 0.3371 0.4419 1.2156
H49 H 0.4402 0.4083 1.1743
C26 C 0.0926(3) 0.2152(4) 0.9811(2)
C27 C 0.2144(3) 0.1324(3) 0.99900(18)
H50 H 0.2417 0.0905 0.9658
C28 C 0.1830(4) 0.0287(4) 1.0408(2)
H51 H 0.1125 -0.0269 1.0211
C29 C 0.1285(7) 0.0856(6) 1.0917(3)
H52 H 0.1971 0.1368 1.1132
H53 H 0.1023 0.0170 1.1148
H54 H 0.0518 0.1389 1.0793
C30 C 0.3060(5) -0.0559(5) 1.0583(3)
H55 H 0.3346 -0.0943 1.0255
H56 H 0.2834 -0.1226 1.0831
H57 H 0.3776 -0.0040 1.0774
C31 C 0.3462(3) 0.5413(3) 0.93427(14)
C32 C 0.3727(5) 0.6754(5) 0.85440(19)
H58 H 0.4185 0.6550 0.8225
H59 H 0.4367 0.7183 0.8823
C33 C 0.2583(7) 0.7666(6) 0.8356(3)
H60 H 0.2946 0.8440 0.8206
H61 H 0.1985 0.7262 0.8053
C34 C 0.1815(9) 0.8029(9) 0.8790(5)
H62 H 0.2396 0.8456 0.9092
H63 H 0.1444 0.7264 0.8944
C35 C 0.0690(11) 0.8926(13) 0.8559(7)
H64 H 0.0372 0.8697 0.8176
H65 H 0.1015 0.9799 0.8573
H66 H -0.0035 0.8853 0.8780
C36 C 0.2565(7) 0.4565(6) 0.8398(2)
H67 H 0.1914 0.4115 0.8591
H68 H 0.2079 0.5000 0.8074
C37 C 0.3501(9) 0.3629(8) 0.8210(3)
H69 H 0.3903 0.3120 0.8529
H70 H 0.4218 0.4086 0.8060
C38 C 0.2783(12) 0.2715(10) 0.7751(4)
H71 H 0.2125 0.2226 0.7924
H72 H 0.2282 0.3258 0.7466
H73? H 0.2330 0.3204 0.7435
H74? H 0.3423 0.2131 0.7614
C39? C 0.179(2) 0.198(2) 0.8041(8)
H75? H 0.1523 0.1212 0.7833
H76? H 0.1010 0.2512 0.8061
H77? H 0.2193 0.1757 0.8414
loop_
_geom_bond_atom_site_label_1
_geom_bond_atom_site_label_2
_geom_bond_site_symmetry_1
_geom_bond_site_symmetry_2
P1 O1 1_555 1_555
O1 C1 1_555 1_555
O2 C1 1_555 1_555
O3 P1 1_555 1_555
O4 C6 1_555 1_555
O5 P1 1_555 1_555
O6 C11 1_555 1_555
N1 P1 1_555 1_555
H1 N1 1_555 1_555
N2 P1 1_555 1_555
H2 N2 1_555 1_555
N3 C11 1_555 1_555
C1 C2 1_555 1_555
C2 N1 1_555 1_555
H3 C2 1_555 1_555
C3 C2 1_555 1_555
H4 C3 1_555 1_555
C4 C3 1_555 1_555
H5 C4 1_555 1_555
H6 C4 1_555 1_555
H7 C4 1_555 1_555
C5 C3 1_555 1_555
H8 C5 1_555 1_555
H9 C5 1_555 1_555
H10 C5 1_555 1_555
C6 O3 1_555 1_555
C7 N2 1_555 1_555
H11 C7 1_555 1_555
C8 C7 1_555 1_555
H12 C8 1_555 1_555
C9 C8 1_555 1_555
H13 C9 1_555 1_555
H14 C9 1_555 1_555
H15 C9 1_555 1_555
C10 C8 1_555 1_555
H16 C10 1_555 1_555
H17 C10 1_555 1_555
H18 C10 1_555 1_555
C11 O5 1_555 1_555
C12 N3 1_555 1_555
H19 C12 1_555 1_555
H20 C12 1_555 1_555
C13 C12 1_555 1_555
H21 C13 1_555 1_555
H22 C13 1_555 1_555
C14 C13 1_555 1_555
H23 C14 1_555 1_555
H24 C14 1_555 1_555
C15 C14 1_555 1_555
H25 C15 1_555 1_555
H26 C15 1_555 1_555
H27 C15 1_555 1_555
C16 N3 1_555 1_555
H28 C16 1_555 1_555
H29 C16 1_555 1_555
C17 C16 1_555 1_555
H30 C17 1_555 1_555
H31 C17 1_555 1_555
C18 C17 1_555 1_555
H32 C18 1_555 1_555
H33 C18 1_555 1_555
C19 C18 1_555 1_555
H34 C19 1_555 1_555
H35 C19 1_555 1_555
H36 C19 1_555 1_555
P2 O7 1_555 1_555
O7 C20 1_555 1_555
O8 C20 1_555 1_555
O9 P2 1_555 1_555
O10 C26 1_555 1_555
O11 P2 1_555 1_555
O12 C31 1_555 1_555
N4 P2 1_555 1_555
H37 N4 1_555 1_555
N5 P2 1_555 1_555
H38 N5 1_555 1_555
N6 C31 1_555 1_555
C20 C22 1_555 1_555
C21 H39 1_555 1_555
H40 C21 1_555 1_555
H41 C21 1_555 1_555
C22 N4 1_555 1_555
H42 C22 1_555 1_555
C23 C22 1_555 1_555
H43 C23 1_555 1_555
C24 C23 1_555 1_555
H44 C24 1_555 1_555
H45 C24 1_555 1_555
H46 C24 1_555 1_555
C25 C23 1_555 1_555
H47 C25 1_555 1_555
H48 C25 1_555 1_555
H49 C25 1_555 1_555
C26 O9 1_555 1_555
C27 N5 1_555 1_555
H50 C27 1_555 1_555
C28 C27 1_555 1_555
H51 C28 1_555 1_555
C29 C28 1_555 1_555
H52 C29 1_555 1_555
H53 C29 1_555 1_555
H54 C29 1_555 1_555
C30 C28 1_555 1_555
H55 C30 1_555 1_555
H56 C30 1_555 1_555
H57 C30 1_555 1_555
C31 O11 1_555 1_555
C32 N6 1_555 1_555
H58 C32 1_555 1_555
H59 C32 1_555 1_555
C33 C32 1_555 1_555
H60 C33 1_555 1_555
H61 C33 1_555 1_555
C34 C33 1_555 1_555
H62 C34 1_555 1_555
H63 C34 1_555 1_555
C35 C34 1_555 1_555
H64 C35 1_555 1_555
H65 C35 1_555 1_555
H66 C35 1_555 1_555
C36 N6 1_555 1_555
H67 C36 1_555 1_555
H68 C36 1_555 1_555
C37 C36 1_555 1_555
H69 C37 1_555 1_555
H70 C37 1_555 1_555
C38 C21 1_555 1_555
H71 C38 1_555 1_555
H72 C38 1_555 1_555
C6 C7 1_555 1_555
C26 C27 1_555 1_555
C37 C38 1_555 1_555

#END
