
#######################################################################
#
#                 Cambridge Crystallographic Data Centre
#                                CCDC 
#
#######################################################################
#
# If this CIF has been generated from an entry in the Cambridge 
# Structural Database, then it will include bibliographic, chemical, 
# crystal, experimental, refinement or atomic coordinate data resulting 
# from the CCDC's data processing and validation procedures.
#
#######################################################################

data_GUQQEQ
_chemical_formula_moiety         'C16 H10,C6 Br1 F5'
_chemical_name_systematic        'pyrene 1-bromo-2,3,4,5,6-pentafluorobenzene'
_symmetry_cell_setting           triclinic
_symmetry_space_group_name_H-M   'P -1'
_symmetry_Int_Tables_number      2
_space_group_name_Hall           '-P 1'
loop_
_symmetry_equiv_pos_site_id
_symmetry_equiv_pos_as_xyz
1 x,y,z
2 -x,-y,-z
_cell_length_a                   9.155(3)
_cell_length_b                   13.793(4)
_cell_length_c                   13.924(5)
_cell_angle_alpha                91.993(5)
_cell_angle_beta                 105.843(6)
_cell_angle_gamma                90.323(6)
_cell_volume                     1690.23
_cell_formula_units_Z            4
loop_
_atom_site_label
_atom_site_type_symbol
_atom_site_fract_x
_atom_site_fract_y
_atom_site_fract_z
Br1 Br 0.54935(10) 0.76346(5) 0.26469(6)
C1 C 0.5220(9) 0.8965(6) 0.2560(5)
C2 C 0.6378(8) 0.9610(5) 0.2916(5)
C3 C 0.6210(9) 1.0596(6) 0.2840(5)
C4 C 0.4775(9) 1.0953(5) 0.2374(5)
C5 C 0.3577(8) 1.0315(6) 0.2010(5)
C6 C 0.3793(9) 0.9338(6) 0.2104(5)
F1 F 0.7782(5) 0.9283(3) 0.3383(3)
F2 F 0.7383(5) 1.1217(3) 0.3188(3)
F3 F 0.4601(5) 1.1912(3) 0.2324(3)
F4 F 0.2210(5) 1.0671(3) 0.1562(3)
F5 F 0.2590(5) 0.8731(3) 0.1728(3)
Br2 Br 0.03838(11) 0.71531(6) 0.26851(6)
C7 C 0.0127(9) 0.5801(5) 0.2561(6)
C8 C -0.1270(9) 0.5371(5) 0.2102(5)
C9 C -0.1437(8) 0.4382(6) 0.2021(5)
C10 C -0.0230(8) 0.3796(5) 0.2394(5)
C11 C 0.1192(8) 0.4219(5) 0.2844(5)
C12 C 0.1362(8) 0.5214(5) 0.2938(5)
F6 F -0.2499(5) 0.5931(3) 0.1729(3)
F7 F -0.2819(5) 0.3975(3) 0.1565(3)
F8 F -0.0399(5) 0.2836(3) 0.2306(3)
F9 F 0.2380(5) 0.3653(3) 0.3204(3)
F10 F 0.2736(5) 0.5628(3) 0.3392(3)
C13 C 0.5022(9) 0.1851(5) 0.0004(5)
H1 H 0.4788 0.2518 -0.0082
C14 C 0.6421(10) 0.1611(5) 0.0467(6)
H2 H 0.7152 0.2115 0.0716
C15 C 0.6899(9) 0.0616(6) 0.0615(5)
C16 C 0.8366(9) 0.0357(6) 0.1076(5)
H3 H 0.9130 0.0844 0.1311
C17 C 0.8731(10) -0.0611(6) 0.1199(6)
H4 H 0.9749 -0.0776 0.1521
C18 C 0.7669(9) -0.1337(6) 0.0870(6)
H5 H 0.7953 -0.1994 0.0979
C19 C 0.6186(9) -0.1122(5) 0.0383(5)
C20 C 0.5738(8) -0.0129(5) 0.0237(5)
C13A C 0.4978(9) -0.1851(5) -0.0004(5)
H1A H 0.5212 -0.2518 0.0082
C14A C 0.3579(10) -0.1611(5) -0.0467(6)
H2A H 0.2848 -0.2115 -0.0716
C15A C 0.3101(9) -0.0616(6) -0.0615(5)
C16A C 0.1634(9) -0.0357(6) -0.1076(5)
H3A H 0.0870 -0.0844 -0.1311
C17A C 0.1269(10) 0.0611(6) -0.1199(6)
H4A H 0.0251 0.0776 -0.1521
C18A C 0.2331(9) 0.1337(6) -0.0870(6)
H5A H 0.2047 0.1994 -0.0979
C19A C 0.3814(9) 0.1122(5) -0.0383(5)
C20A C 0.4262(8) 0.0129(5) -0.0237(5)
C21 C -0.1882(10) 0.3581(6) -0.0548(6)
H6 H -0.2746 0.3173 -0.0817
C22 C -0.0548(9) 0.3176(5) -0.0099(5)
H7 H -0.0501 0.2491 -0.0053
C23 C 0.0822(9) 0.3757(5) 0.0319(5)
C24 C 0.2202(10) 0.3366(6) 0.0793(6)
H8 H 0.2288 0.2685 0.0865
C25 C 0.3463(10) 0.3965(6) 0.1163(6)
H9 H 0.4408 0.3679 0.1473
C26 C 0.3398(9) 0.4962(6) 0.1098(5)
H10 H 0.4281 0.5352 0.1372
C27 C 0.2038(9) 0.5385(6) 0.0633(6)
C28 C 0.0704(8) 0.4791(5) 0.0233(5)
C21A C 0.1882(10) 0.6419(6) 0.0548(6)
H6A H 0.2746 0.6827 0.0817
C22A C 0.0548(9) 0.6824(5) 0.0099(5)
H7A H 0.0501 0.7509 0.0053
C23A C -0.0822(9) 0.6243(5) -0.0319(5)
C24A C -0.2202(10) 0.6634(6) -0.0793(6)
H8A H -0.2288 0.7315 -0.0865
C25A C -0.3463(10) 0.6035(6) -0.1163(6)
H9A H -0.4408 0.6321 -0.1473
C26A C -0.3398(9) 0.5038(6) -0.1098(5)
H10A H -0.4281 0.4648 -0.1372
C27A C -0.2038(9) 0.4615(6) -0.0633(6)
C28A C -0.0704(8) 0.5209(5) -0.0233(5)
C29 C 0.6320(9) 0.1646(5) 0.5187(5)
H11 H 0.7024 0.2175 0.5337
C30 C 0.4876(9) 0.1815(5) 0.4724(5)
H12 H 0.4575 0.2459 0.4556
C31 C 0.3756(8) 0.1040(5) 0.4469(5)
C32 C 0.2234(9) 0.1191(6) 0.3966(5)
H13 H 0.1915 0.1823 0.3758
C33 C 0.1189(9) 0.0431(6) 0.3767(6)
H14 H 0.0156 0.0547 0.3433
C34 C 0.1631(9) -0.0491(6) 0.4050(5)
H15 H 0.0893 -0.1001 0.3915
C35 C 0.3148(9) -0.0696(5) 0.4533(5)
C36 C 0.4220(8) 0.0094(5) 0.4750(5)
C29A C 0.3680(9) -0.1646(5) 0.4813(5)
H11A H 0.2976 -0.2175 0.4663
C30A C 0.5124(9) -0.1815(5) 0.5276(5)
H12A H 0.5425 -0.2459 0.5444
C31A C 0.6244(8) -0.1040(5) 0.5531(5)
C32A C 0.7766(9) -0.1191(6) 0.6034(5)
H13A H 0.8085 -0.1823 0.6242
C33A C 0.8811(9) -0.0431(6) 0.6233(6)
H14A H 0.9844 -0.0547 0.6567
C34A C 0.8369(9) 0.0491(6) 0.5950(5)
H15A H 0.9107 0.1001 0.6085
C35A C 0.6852(9) 0.0696(5) 0.5467(5)
C36A C 0.5780(8) -0.0094(5) 0.5250(5)
C37 C -0.1319(8) 0.6628(5) 0.4830(5)
H16 H -0.2017 0.7146 0.4685
C38 C 0.0159(9) 0.6827(5) 0.5298(5)
H17 H 0.0470 0.7482 0.5477
C39 C 0.1266(8) 0.6081(5) 0.5531(5)
C40 C 0.2796(9) 0.6264(5) 0.6022(5)
H18 H 0.3120 0.6911 0.6237
C41 C 0.3848(9) 0.5535(5) 0.6204(5)
H19 H 0.4888 0.5682 0.6516
C42 C 0.3368(9) 0.4569(6) 0.5923(5)
H20 H 0.4088 0.4063 0.6056
C43 C 0.1849(8) 0.4347(5) 0.5451(5)
C44 C 0.0772(8) 0.5103(5) 0.5238(5)
C37A C 0.1319(8) 0.3372(5) 0.5170(5)
H16A H 0.2017 0.2854 0.5315
C38A C -0.0159(9) 0.3173(5) 0.4702(5)
H17A H -0.0470 0.2518 0.4523
C39A C -0.1266(8) 0.3919(5) 0.4469(5)
C40A C -0.2796(9) 0.3736(5) 0.3978(5)
H18A H -0.3120 0.3089 0.3763
C41A C -0.3848(9) 0.4465(5) 0.3796(5)
H19A H -0.4888 0.4318 0.3484
C42A C -0.3368(9) 0.5431(6) 0.4077(5)
H20A H -0.4088 0.5937 0.3944
C43A C -0.1849(8) 0.5653(5) 0.4549(5)
C44A C -0.0772(8) 0.4897(5) 0.4762(5)
loop_
_geom_bond_atom_site_label_1
_geom_bond_atom_site_label_2
_geom_bond_site_symmetry_1
_geom_bond_site_symmetry_2
Br1 C1 1_555 1_555
C1 C2 1_555 1_555
C2 C3 1_555 1_555
C3 C4 1_555 1_555
C4 C5 1_555 1_555
C5 C6 1_555 1_555
C6 C1 1_555 1_555
F1 C2 1_555 1_555
F2 C3 1_555 1_555
F3 C4 1_555 1_555
F4 C5 1_555 1_555
F5 C6 1_555 1_555
Br2 C7 1_555 1_555
C7 C8 1_555 1_555
C8 C9 1_555 1_555
C9 C10 1_555 1_555
C10 C11 1_555 1_555
C11 C12 1_555 1_555
C12 C7 1_555 1_555
F6 C8 1_555 1_555
F7 C9 1_555 1_555
F8 C10 1_555 1_555
F9 C11 1_555 1_555
F10 C12 1_555 1_555
C13 H1 1_555 1_555
C14 C13 1_555 1_555
H2 C14 1_555 1_555
C15 C14 1_555 1_555
C16 C15 1_555 1_555
H3 C16 1_555 1_555
C17 C16 1_555 1_555
H4 C17 1_555 1_555
C18 C17 1_555 1_555
H5 C18 1_555 1_555
C19 C18 1_555 1_555
C20 C15 1_555 1_555
C21 H6 1_555 1_555
C22 C21 1_555 1_555
H7 C22 1_555 1_555
C23 C22 1_555 1_555
C24 C23 1_555 1_555
H8 C24 1_555 1_555
C25 C24 1_555 1_555
H9 C25 1_555 1_555
C26 C25 1_555 1_555
H10 C26 1_555 1_555
C27 C26 1_555 1_555
C28 C23 1_555 1_555
C29 H11 1_555 1_555
C30 C29 1_555 1_555
H12 C30 1_555 1_555
C31 C30 1_555 1_555
C32 C31 1_555 1_555
H13 C32 1_555 1_555
C33 C32 1_555 1_555
H14 C33 1_555 1_555
C34 C33 1_555 1_555
H15 C34 1_555 1_555
C35 C34 1_555 1_555
C36 C31 1_555 1_555
C37 H16 1_555 1_555
C38 C37 1_555 1_555
H17 C38 1_555 1_555
C39 C38 1_555 1_555
C40 C39 1_555 1_555
H18 C40 1_555 1_555
C41 C40 1_555 1_555
H19 C41 1_555 1_555
C42 C41 1_555 1_555
H20 C42 1_555 1_555
C43 C42 1_555 1_555
C44 C39 1_555 1_555
C13A C19 1_555 1_555
H1A C13A 1_555 1_555
C14A C13A 1_555 1_555
H2A C14A 1_555 1_555
C15A C14A 1_555 1_555
C16A C15A 1_555 1_555
H3A C16A 1_555 1_555
C17A C16A 1_555 1_555
H4A C17A 1_555 1_555
C18A C17A 1_555 1_555
H5A C18A 1_555 1_555
C19A C13 1_555 1_555
C20A C20 1_555 1_555
C21A C27 1_555 1_555
H6A C21A 1_555 1_555
C22A C21A 1_555 1_555
H7A C22A 1_555 1_555
C23A C22A 1_555 1_555
C24A C23A 1_555 1_555
H8A C24A 1_555 1_555
C25A C24A 1_555 1_555
H9A C25A 1_555 1_555
C26A C25A 1_555 1_555
H10A C26A 1_555 1_555
C27A C21 1_555 1_555
C28A C28 1_555 1_555
C29A C35 1_555 1_555
H11A C29A 1_555 1_555
C30A C29A 1_555 1_555
H12A C30A 1_555 1_555
C31A C30A 1_555 1_555
C32A C31A 1_555 1_555
H13A C32A 1_555 1_555
C33A C32A 1_555 1_555
H14A C33A 1_555 1_555
C34A C33A 1_555 1_555
H15A C34A 1_555 1_555
C35A C29 1_555 1_555
C36A C36 1_555 1_555
C37A C43 1_555 1_555
H16A C37A 1_555 1_555
C38A C37A 1_555 1_555
H17A C38A 1_555 1_555
C39A C38A 1_555 1_555
C40A C39A 1_555 1_555
H18A C40A 1_555 1_555
C41A C40A 1_555 1_555
H19A C41A 1_555 1_555
C42A C41A 1_555 1_555
H20A C42A 1_555 1_555
C43A C37 1_555 1_555
C44A C44 1_555 1_555
C19 C20 1_555 1_555
C27 C28 1_555 1_555
C35 C36 1_555 1_555
C43 C44 1_555 1_555
C15A C20A 1_555 1_555
C18A C19A 1_555 1_555
C19A C20A 1_555 1_555
C23A C28A 1_555 1_555
C26A C27A 1_555 1_555
C27A C28A 1_555 1_555
C31A C36A 1_555 1_555
C34A C35A 1_555 1_555
C35A C36A 1_555 1_555
C39A C44A 1_555 1_555
C42A C43A 1_555 1_555
C43A C44A 1_555 1_555

#END
