
#######################################################################
#
#                 Cambridge Crystallographic Data Centre
#                                CCDC 
#
#######################################################################
#
# If this CIF has been generated from an entry in the Cambridge 
# Structural Database, then it will include bibliographic, chemical, 
# crystal, experimental, refinement or atomic coordinate data resulting 
# from the CCDC's data processing and validation procedures.
#
#######################################################################

data_GUQSER
_chemical_formula_moiety         'C17 H15 O4 P1,H2 O1'
_chemical_name_systematic        
'Dimethyl (1-oxo-3-phenyl-1H-inden-2-yl)phosphonate monohydrate'
_symmetry_cell_setting           monoclinic
_symmetry_space_group_name_H-M   'P 21'
_symmetry_Int_Tables_number      4
_space_group_name_Hall           'P 2yb'
loop_
_symmetry_equiv_pos_site_id
_symmetry_equiv_pos_as_xyz
1 x,y,z
2 -x,1/2+y,-z
_cell_length_a                   10.723(4)
_cell_length_b                   7.421(2)
_cell_length_c                   10.609(4)
_cell_angle_alpha                90
_cell_angle_beta                 103.992(8)
_cell_angle_gamma                90
_cell_volume                     819.167
_exptl_crystal_colour            yellow
_exptl_crystal_description       block
_cell_formula_units_Z            2
loop_
_atom_site_label
_atom_site_type_symbol
_atom_site_fract_x
_atom_site_fract_y
_atom_site_fract_z
P1 P 0.77031(6) 0.33946(11) 0.07678(6)
O1 O 0.64200(18) 0.2593(3) 0.04007(19)
O2 O 0.7782(2) 0.5432(3) 0.04466(19)
O3 O 0.86744(19) 0.2556(3) 0.00446(19)
O4 O 1.06983(17) 0.3095(4) 0.24931(19)
C1 C 0.7221(4) 0.6102(5) -0.0842(3)
H1 H 0.6479 0.5394 -0.1234
H2 H 0.7840 0.6023 -0.1360
H3 H 0.6970 0.7337 -0.0790
C2 C 0.8784(4) 0.0627(5) -0.0040(4)
H4 H 0.8354 0.0063 0.0551
H5 H 0.9675 0.0292 0.0181
H6 H 0.8395 0.0242 -0.0910
C3 C 0.8428(2) 0.3294(4) 0.2466(2)
C4 C 0.9843(2) 0.3142(4) 0.3051(3)
C5 C 0.9993(2) 0.3057(4) 0.4489(2)
C6 C 1.1071(3) 0.2983(4) 0.5481(3)
H7 H 1.1882 0.2936 0.5313
C7 C 1.0931(3) 0.2980(5) 0.6752(3)
H8 H 1.1653 0.2941 0.7444
C8 C 0.9724(3) 0.3034(5) 0.6981(3)
H9 H 0.9640 0.3006 0.7832
C9 C 0.8619(3) 0.3129(5) 0.5961(3)
H10 H 0.7806 0.3187 0.6125
C10 C 0.8768(2) 0.3134(4) 0.4713(2)
C11 C 0.7812(2) 0.3296(4) 0.3438(2)
C12 C 0.6433(2) 0.3523(5) 0.3366(2)
C13 C 0.5788(3) 0.5025(4) 0.2738(3)
H11 H 0.6218 0.5849 0.2334
C14 C 0.4508(3) 0.5283(5) 0.2719(3)
H12 H 0.4075 0.6283 0.2298
C15 C 0.3873(3) 0.4083(6) 0.3312(3)
H13 H 0.3011 0.4267 0.3295
C16 C 0.4497(3) 0.2619(6) 0.3928(3)
H14 H 0.4055 0.1800 0.4322
C17 C 0.5793(3) 0.2331(5) 0.3976(3)
H15 H 0.6220 0.1341 0.4417
O5 O 0.5973(3) 0.8986(5) 0.1212(4)
H16 H 0.607(4) 1.003(8) 0.102(5)
H17 H 0.537(4) 0.855(7) 0.068(4)
loop_
_geom_bond_atom_site_label_1
_geom_bond_atom_site_label_2
_geom_bond_site_symmetry_1
_geom_bond_site_symmetry_2
P1 O1 1_555 1_555
O2 P1 1_555 1_555
O3 P1 1_555 1_555
O4 C4 1_555 1_555
C1 O2 1_555 1_555
H1 C1 1_555 1_555
H2 C1 1_555 1_555
H3 C1 1_555 1_555
C2 O3 1_555 1_555
H4 C2 1_555 1_555
H5 C2 1_555 1_555
H6 C2 1_555 1_555
C3 P1 1_555 1_555
C4 C3 1_555 1_555
C5 C4 1_555 1_555
C6 C5 1_555 1_555
H7 C6 1_555 1_555
C7 C6 1_555 1_555
H8 C7 1_555 1_555
C8 C7 1_555 1_555
H9 C8 1_555 1_555
C9 C8 1_555 1_555
H10 C9 1_555 1_555
C10 C5 1_555 1_555
C11 C3 1_555 1_555
C12 C11 1_555 1_555
C13 C12 1_555 1_555
H11 C13 1_555 1_555
C14 C13 1_555 1_555
H12 C14 1_555 1_555
C15 C14 1_555 1_555
H13 C15 1_555 1_555
C16 C15 1_555 1_555
H14 C16 1_555 1_555
C17 C12 1_555 1_555
H15 C17 1_555 1_555
O5 H16 1_555 1_555
H17 O5 1_555 1_555
C9 C10 1_555 1_555
C10 C11 1_555 1_555
C16 C17 1_555 1_555

#END
