
#######################################################################
#
#                 Cambridge Crystallographic Data Centre
#                                CCDC 
#
#######################################################################
#
# If this CIF has been generated from an entry in the Cambridge 
# Structural Database, then it will include bibliographic, chemical, 
# crystal, experimental, refinement or atomic coordinate data resulting 
# from the CCDC's data processing and validation procedures.
#
#######################################################################

data_GURHOR
_chemical_formula_moiety         'C16 H17 N3 O3 S1'
_chemical_name_systematic        
2-(2,5-Dimethoxybenzoyl)-N-phenylhydrazinecarbothioamide
_symmetry_cell_setting           monoclinic
_symmetry_space_group_name_H-M   'P 21/c'
_symmetry_Int_Tables_number      14
_space_group_name_Hall           '-P 2ybc'
loop_
_symmetry_equiv_pos_site_id
_symmetry_equiv_pos_as_xyz
1 x,y,z
2 -x,1/2+y,1/2-z
3 -x,-y,-z
4 x,1/2-y,1/2+z
_cell_length_a                   6.0739(2)
_cell_length_b                   10.6574(4)
_cell_length_c                   24.3162(7)
_cell_angle_alpha                90
_cell_angle_beta                 95.899(3)
_cell_angle_gamma                90
_cell_volume                     1565.7
_cell_formula_units_Z            4
loop_
_atom_site_label
_atom_site_type_symbol
_atom_site_fract_x
_atom_site_fract_y
_atom_site_fract_z
S1 S 0.04060(6) 0.05189(4) 0.142910(13)
O1 O -0.19793(17) 0.25403(11) 0.02797(4)
O2 O 0.07272(18) 0.49123(10) -0.15562(4)
O3 O 0.35319(16) 0.11911(10) -0.03892(4)
N1 N 0.14364(19) 0.11219(11) 0.03154(4)
H1 H 0.0271 0.1374 0.0456
N2 N 0.2791(2) 0.02334(12) 0.05865(5)
H2 H 0.3783 -0.0142 0.0419
N3 N 0.4205(2) -0.07560(11) 0.13601(4)
H3 H 0.5312 -0.0877 0.1173
C1 C 0.0536(2) 0.26555(12) -0.04014(5)
C2 C -0.1322(2) 0.31294(14) -0.01765(5)
C3 C -0.2419(3) 0.41706(15) -0.04162(6)
H4 H -0.3655 0.4487 -0.0267
C4 C -0.1683(3) 0.47400(15) -0.08754(6)
H5 H -0.2425 0.5438 -0.1031
C5 C 0.0145(2) 0.42800(13) -0.11043(5)
C6 C 0.1257(2) 0.32419(12) -0.08671(5)
H6 H 0.2493 0.2933 -0.1019
C7 C 0.1932(2) 0.15908(12) -0.01649(5)
C8 C 0.2539(2) -0.00407(12) 0.11212(5)
C9 C 0.4316(2) -0.13297(12) 0.18898(5)
C10 C 0.6258(2) -0.12078(13) 0.22405(6)
H7 H 0.7400 -0.0702 0.2141
C11 C 0.6483(2) -0.18475(15) 0.27414(6)
H8 H 0.7789 -0.1779 0.2975
C12 C 0.4778(3) -0.25831(15) 0.28930(6)
H9 H 0.4938 -0.3017 0.3226
C13 C 0.2824(3) -0.26729(15) 0.25466(6)
H10 H 0.1660 -0.3153 0.2652
C14 C 0.2597(2) -0.20530(13) 0.20442(6)
H11 H 0.1290 -0.2123 0.1811
C15 C -0.3645(2) 0.31081(16) 0.05703(6)
H12 H -0.3953 0.2579 0.0873
H13 H -0.4970 0.3217 0.0324
H14 H -0.3134 0.3910 0.0710
C16 C 0.2492(3) 0.44267(15) -0.18335(6)
H15 H 0.2726 0.4959 -0.2141
H16 H 0.2124 0.3596 -0.1965
H17 H 0.3817 0.4398 -0.1582
loop_
_geom_bond_atom_site_label_1
_geom_bond_atom_site_label_2
_geom_bond_site_symmetry_1
_geom_bond_site_symmetry_2
S1 C8 1_555 1_555
O1 C2 1_555 1_555
O2 C5 1_555 1_555
O3 C7 1_555 1_555
N1 H1 1_555 1_555
N2 N1 1_555 1_555
H2 N2 1_555 1_555
N3 H3 1_555 1_555
C1 C2 1_555 1_555
C2 C3 1_555 1_555
C3 H4 1_555 1_555
C4 C3 1_555 1_555
H5 C4 1_555 1_555
C5 C4 1_555 1_555
C6 C1 1_555 1_555
H6 C6 1_555 1_555
C7 N1 1_555 1_555
C8 N2 1_555 1_555
C9 N3 1_555 1_555
C10 C9 1_555 1_555
H7 C10 1_555 1_555
C11 C10 1_555 1_555
H8 C11 1_555 1_555
C12 C11 1_555 1_555
H9 C12 1_555 1_555
C13 C12 1_555 1_555
H10 C13 1_555 1_555
C14 C9 1_555 1_555
H11 C14 1_555 1_555
C15 O1 1_555 1_555
H12 C15 1_555 1_555
H13 C15 1_555 1_555
H14 C15 1_555 1_555
C16 O2 1_555 1_555
H15 C16 1_555 1_555
H16 C16 1_555 1_555
H17 C16 1_555 1_555
N3 C8 1_555 1_555
C1 C7 1_555 1_555
C5 C6 1_555 1_555
C13 C14 1_555 1_555

#END
