
#######################################################################
#
#                 Cambridge Crystallographic Data Centre
#                                CCDC 
#
#######################################################################
#
# If this CIF has been generated from an entry in the Cambridge 
# Structural Database, then it will include bibliographic, chemical, 
# crystal, experimental, refinement or atomic coordinate data resulting 
# from the CCDC's data processing and validation procedures.
#
#######################################################################

data_GURZIE
_chemical_formula_moiety         'C36 H34 N20 O2'
_chemical_name_systematic        
"6,6',6'',6'''-(2,2'-diethoxy-1,1'-binaphthalene-4,4',6,6'-tetrayl)tetrakis(1,3,5-triazine-2,4-diamine) unknown solvate"
_symmetry_cell_setting           hexagonal
_symmetry_space_group_name_H-M   'P 65'
_symmetry_Int_Tables_number      170
_space_group_name_Hall           'P 65'
loop_
_symmetry_equiv_pos_site_id
_symmetry_equiv_pos_as_xyz
1 x,y,z
2 -y,x-y,2/3+z
3 -x+y,-x,1/3+z
4 -x,-y,1/2+z
5 y,-x+y,1/6+z
6 x-y,x,5/6+z
_cell_length_a                   11.8861(7)
_cell_length_b                   11.8861(7)
_cell_length_c                   71.796(8)
_cell_angle_alpha                90
_cell_angle_beta                 90
_cell_angle_gamma                120
_cell_volume                     8784.35
_exptl_crystal_colour            yellow
_exptl_crystal_description       block
_cell_formula_units_Z            6
loop_
_atom_site_label
_atom_site_type_symbol
_atom_site_fract_x
_atom_site_fract_y
_atom_site_fract_z
N1 N 1.4133(4) 0.7536(4) 0.99599(5)
N2 N 1.5964(4) 0.9443(4) 1.00731(6)
N3 N 1.4373(5) 0.9553(4) 0.98794(8)
N4 N 1.5624(5) 0.7517(5) 1.01565(8)
H1 H 1.6327 0.7907 1.0221
H2 H 1.5180 0.6682 1.0155
N5 N 1.6210(9) 1.1457(6) 0.99721(12)
H3 H 1.5992 1.1882 0.9898
H4 H 1.6906 1.1862 1.0038
N6 N 1.0733(4) 0.4558(4) 1.03047(7)
N7 N 0.9523(7) 0.2824(6) 1.05078(9)
N8 N 0.8958(6) 0.2729(5) 1.01808(8)
N9 N 1.1303(6) 0.4665(4) 1.06133(7)
H5 H 1.1981 0.5411 1.0595
H6 H 1.1147 0.4323 1.0723
N10 N 0.7893(7) 0.0999(6) 1.03755(12)
H7 H 0.7736 0.0590 1.0480
H8 H 0.7438 0.0610 1.0279
N11 N 0.5864(4) 0.3399(4) 0.88799(6)
N12 N 0.4082(4) 0.3572(5) 0.87594(7)
N13 N 0.5617(5) 0.5152(5) 0.89614(9)
N14 N 0.4366(4) 0.1867(5) 0.86837(7)
H9 H 0.3661 0.1550 0.8620
H10 H 0.4794 0.1461 0.8689
N15 N 0.3894(7) 0.5299(7) 0.88461(11)
H11 H 0.3278 0.5073 0.8766
H12 H 0.4134 0.5979 0.8914
N16 N 0.9233(4) 0.3867(5) 0.85281(6)
N17 N 1.0532(7) 0.3365(10) 0.83327(8)
N18 N 1.1018(5) 0.3729(6) 0.86489(7)
N19 N 0.8773(5) 0.3469(6) 0.82209(7)
H13 H 0.8118 0.3591 0.8227
H14 H 0.8984 0.3271 0.8116
N20 N 1.2251(7) 0.3240(11) 0.84418(13)
H15 H 1.2463 0.3219 0.8328
H16 H 1.2720 0.3208 0.8531
O1 O 1.1654(10) 0.8448(6) 0.93064(12)
O2 O 0.8390(6) 0.6915(7) 0.95306(7)
C1 C 1.0465(6) 0.6564(8) 0.94973(8)
C2 C 1.1504(10) 0.7747(8) 0.94772(11)
C3 C 1.2607(7) 0.8331(7) 0.95963(11)
H17 H 1.3317 0.9144 0.9570
C4 C 1.2578(7) 0.7652(5) 0.97486(9)
C5 C 1.1438(6) 0.6382(5) 0.97860(7)
C6 C 1.1271(5) 0.5736(5) 0.99554(6)
H18 H 1.1920 0.6108 1.0045
C7 C 1.0163(6) 0.4556(5) 0.99936(8)
C8 C 0.9273(7) 0.3958(9) 0.98477(12)
H19 H 0.8626 0.3091 0.9858
C9 C 0.9359(5) 0.4687(6) 0.96818(8)
H20 H 0.8686 0.4359 0.9595
C10 C 1.0477(6) 0.5900(5) 0.96540(8)
C11 C 1.235(2) 0.902(2) 0.9143(3)
H21 H 1.1830 0.8319 0.9057
H22 H 1.3098 0.8911 0.9167
C12 C 1.296(2) 1.009(3) 0.9007(5)
H23 H 1.3460 0.9905 0.8919
H24 H 1.3520 1.0883 0.9071
H25 H 1.2297 1.0164 0.8942
C13 C 1.3759(5) 0.8287(4) 0.98717(7)
C14 C 1.5429(8) 1.0096(5) 0.99864(9)
C15 C 1.5228(6) 0.8194(5) 1.00612(7)
C16 C 1.0004(6) 0.3925(5) 1.01716(10)
C17 C 1.0508(6) 0.4046(5) 1.04751(8)
C18 C 0.8789(8) 0.2168(7) 1.03649(12)
C19 C 0.9390(7) 0.6037(7) 0.93618(8)
C20 C 0.8435(8) 0.6206(7) 0.93777(8)
C21 C 0.7412(7) 0.5715(8) 0.92556(11)
H26 H 0.6707 0.5826 0.9282
C22 C 0.7388(6) 0.5034(6) 0.90880(8)
C23 C 0.8490(6) 0.4917(6) 0.90562(7)
C24 C 0.8750(5) 0.4441(6) 0.88905(7)
H27 H 0.8120 0.4139 0.8798
C25 C 0.9822(5) 0.4394(6) 0.88577(8)
C26 C 1.0757(6) 0.4770(8) 0.89996(9)
H28 H 1.1473 0.4659 0.8985
C27 C 1.0603(6) 0.5285(8) 0.91546(8)
H29 H 1.1250 0.5575 0.9245
C28 C 0.9558(6) 0.5406(6) 0.91874(8)
C29 C 0.743(2) 0.734(2) 0.9541(2)
H30 H 0.6568 0.6598 0.9526
H31 H 0.7578 0.7937 0.9439
C30 C 0.7503(15) 0.8029(15) 0.9727(2)
H32 H 0.8101 0.8944 0.9715
H33 H 0.7796 0.7678 0.9824
H34 H 0.6658 0.7890 0.9758
C31 C 0.6295(6) 0.4548(7) 0.89666(9)
C32 C 0.4470(6) 0.4605(8) 0.88646(12)
C33 C 0.4778(5) 0.2944(6) 0.87706(7)
C34 C 1.0061(6) 0.3956(7) 0.86670(7)
C35 C 0.9466(7) 0.3589(9) 0.83751(10)
C36 C 1.1126(9) 0.3326(10) 0.84834(10)
loop_
_geom_bond_atom_site_label_1
_geom_bond_atom_site_label_2
_geom_bond_site_symmetry_1
_geom_bond_site_symmetry_2
N1 C13 1_555 1_555
N2 C14 1_555 1_555
N3 C13 1_555 1_555
N4 H1 1_555 1_555
H2 N4 1_555 1_555
N5 H3 1_555 1_555
H4 N5 1_555 1_555
N6 C16 1_555 1_555
N7 C17 1_555 1_555
N8 C16 1_555 1_555
N9 H5 1_555 1_555
H6 N9 1_555 1_555
N10 H7 1_555 1_555
H8 N10 1_555 1_555
N11 C31 1_555 1_555
N12 C32 1_555 1_555
N13 C31 1_555 1_555
N14 H9 1_555 1_555
H10 N14 1_555 1_555
N15 H11 1_555 1_555
H12 N15 1_555 1_555
N16 C34 1_555 1_555
N17 C35 1_555 1_555
N18 C34 1_555 1_555
N19 H13 1_555 1_555
H14 N19 1_555 1_555
N20 H15 1_555 1_555
H16 N20 1_555 1_555
O1 C2 1_555 1_555
O2 C20 1_555 1_555
C1 C2 1_555 1_555
C2 C3 1_555 1_555
C3 H17 1_555 1_555
C4 C3 1_555 1_555
C5 C4 1_555 1_555
C6 C5 1_555 1_555
H18 C6 1_555 1_555
C7 C6 1_555 1_555
C8 C7 1_555 1_555
H19 C8 1_555 1_555
C9 C8 1_555 1_555
H20 C9 1_555 1_555
C10 C1 1_555 1_555
C11 O1 1_555 1_555
H21 C11 1_555 1_555
H22 C11 1_555 1_555
C12 C11 1_555 1_555
H23 C12 1_555 1_555
H24 C12 1_555 1_555
H25 C12 1_555 1_555
C13 C4 1_555 1_555
C14 N3 1_555 1_555
C15 N1 1_555 1_555
C16 C7 1_555 1_555
C17 N6 1_555 1_555
C18 N7 1_555 1_555
C19 C1 1_555 1_555
C20 C19 1_555 1_555
C21 C20 1_555 1_555
H26 C21 1_555 1_555
C22 C21 1_555 1_555
C23 C22 1_555 1_555
C24 C23 1_555 1_555
H27 C24 1_555 1_555
C25 C24 1_555 1_555
C26 C25 1_555 1_555
H28 C26 1_555 1_555
C27 C26 1_555 1_555
H29 C27 1_555 1_555
C28 C19 1_555 1_555
C29 O2 1_555 1_555
H30 C29 1_555 1_555
H31 C29 1_555 1_555
C30 C29 1_555 1_555
H32 C30 1_555 1_555
H33 C30 1_555 1_555
H34 C30 1_555 1_555
C31 C22 1_555 1_555
C32 N13 1_555 1_555
C33 N11 1_555 1_555
C34 C25 1_555 1_555
C35 N16 1_555 1_555
C36 N17 1_555 1_555
N2 C15 1_555 1_555
N4 C15 1_555 1_555
N5 C14 1_555 1_555
N8 C18 1_555 1_555
N9 C17 1_555 1_555
N10 C18 1_555 1_555
N12 C33 1_555 1_555
N14 C33 1_555 1_555
N15 C32 1_555 1_555
N18 C36 1_555 1_555
N19 C35 1_555 1_555
N20 C36 1_555 1_555
C5 C10 1_555 1_555
C9 C10 1_555 1_555
C23 C28 1_555 1_555
C27 C28 1_555 1_555

#END
