
#######################################################################
#
#                 Cambridge Crystallographic Data Centre
#                                CCDC 
#
#######################################################################
#
# If this CIF has been generated from an entry in the Cambridge 
# Structural Database, then it will include bibliographic, chemical, 
# crystal, experimental, refinement or atomic coordinate data resulting 
# from the CCDC's data processing and validation procedures.
#
#######################################################################

data_GUTGOT
_chemical_formula_moiety         'C112 H104 Mg4 O10'
_chemical_name_systematic        
hexakis(\m-diphenylmethanolato)-bis(diphenylmethanolato)-bis(tetrahydrofuran)-tetra-magnesium
_symmetry_cell_setting           monoclinic
_symmetry_space_group_name_H-M   'P 21/c'
_symmetry_Int_Tables_number      14
_space_group_name_Hall           '-P 2ybc'
loop_
_symmetry_equiv_pos_site_id
_symmetry_equiv_pos_as_xyz
1 x,y,z
2 -x,1/2+y,1/2-z
3 -x,-y,-z
4 x,1/2-y,1/2+z
_cell_length_a                   12.8509(9)
_cell_length_b                   14.1392(10)
_cell_length_c                   28.232(2)
_cell_angle_alpha                90
_cell_angle_beta                 91.5750(10)
_cell_angle_gamma                90
_cell_volume                     5127.86
_exptl_crystal_colour            colorless
_exptl_crystal_description       block
_cell_formula_units_Z            2
loop_
_atom_site_label
_atom_site_type_symbol
_atom_site_fract_x
_atom_site_fract_y
_atom_site_fract_z
Mg1 Mg 0.5734(2) -0.00390(18) 0.04060(7)
Mg2 Mg 0.6767(2) -0.0072(2) 0.13453(8)
O1 O 0.6956(4) 0.0494(5) 0.07224(16)
O2 O 0.5509(5) -0.0605(4) 0.10335(16)
O3 O 0.4615(4) 0.0785(3) 0.01585(15)
O4 O 0.7615(5) -0.0899(4) 0.16903(19)
O5 O 0.6442(4) 0.1030(4) 0.17725(16)
C1 C 0.7492(7) 0.1336(8) 0.0606(3)
H1 H 0.6982 0.1851 0.0601
C2 C 0.4574(8) -0.1035(6) 0.1167(3)
H2 H 0.4088 -0.0989 0.0894
C3 C 0.4175(8) 0.1544(7) 0.0409(3)
H3 H 0.4154 0.1362 0.0744
C4 C 0.8433(7) -0.0803(7) 0.2031(3)
H4 H 0.8691 -0.0153 0.2007
C5 C 0.8355(7) 0.1593(8) 0.0984(3)
C6 C 0.9045(6) 0.0897(7) 0.1150(3)
H5 H 0.8997 0.0282 0.1034
C7 C 0.9806(8) 0.1130(11) 0.1493(4)
H6 H 1.0286 0.0672 0.1588
C8 C 0.9867(10) 0.1985(13) 0.1686(4)
H7 H 1.0363 0.2116 0.1923
C9 C 0.9193(11) 0.2665(11) 0.1533(5)
H8 H 0.9233 0.3266 0.1666
C10 C 0.8424(8) 0.2476(9) 0.1170(4)
H9 H 0.7976 0.2952 0.1064
C11 C 0.7998(7) 0.1318(8) 0.0121(3)
C12 C 0.8428(7) 0.0470(7) -0.0052(3)
H10 H 0.8399 -0.0082 0.0126
C13 C 0.8890(7) 0.0467(9) -0.0488(4)
H11 H 0.9194 -0.0083 -0.0601
C14 C 0.8899(9) 0.1267(12) -0.0749(3)
H12 H 0.9174 0.1252 -0.1051
C15 C 0.8507(10) 0.2111(11) -0.0577(4)
H13 H 0.8542 0.2657 -0.0759
C16 C 0.8079(8) 0.2143(8) -0.0152(3)
H14 H 0.7833 0.2715 -0.0036
C17 C 0.4674(10) -0.2084(7) 0.1290(3)
C18 C 0.3765(12) -0.2628(9) 0.1296(3)
H15 H 0.3132 -0.2343 0.1217
C19 C 0.3781(15) -0.3584(10) 0.1417(4)
H16 H 0.3178 -0.3941 0.1446
C20 C 0.477(2) -0.3956(13) 0.1490(5)
H17 H 0.4816 -0.4606 0.1539
C21 C 0.5714(18) -0.3455(12) 0.1498(5)
H18 H 0.6355 -0.3733 0.1569
C22 C 0.5595(10) -0.2501(8) 0.1390(3)
H19 H 0.6190 -0.2128 0.1385
C23 C 0.4080(7) -0.0515(5) 0.1574(3)
C24 C 0.4514(7) -0.0547(6) 0.2025(3)
H20 H 0.5107 -0.0913 0.2078
C25 C 0.4114(10) -0.0065(7) 0.2399(3)
H21 H 0.4423 -0.0110 0.2700
C26 C 0.3245(11) 0.0486(8) 0.2321(4)
H22 H 0.2962 0.0819 0.2571
C27 C 0.2795(8) 0.0548(7) 0.1878(5)
H23 H 0.2215 0.0930 0.1823
C28 C 0.3223(7) 0.0021(6) 0.1502(3)
H24 H 0.2907 0.0046 0.1202
C29 C 0.3072(8) 0.1750(6) 0.0239(3)
C30 C 0.2285(10) 0.1867(7) 0.0570(4)
H25 H 0.2439 0.1780 0.0891
C31 C 0.1257(10) 0.2117(8) 0.0420(5)
H26 H 0.0750 0.2212 0.0644
C32 C 0.1014(10) 0.2215(9) -0.0038(5)
H27 H 0.0341 0.2381 -0.0135
C33 C 0.1771(9) 0.2067(8) -0.0371(4)
H28 H 0.1593 0.2108 -0.0691
C34 C 0.2796(8) 0.1859(7) -0.0232(3)
H29 H 0.3298 0.1793 -0.0461
C35 C 0.4772(8) 0.2448(8) 0.0379(3)
C36 C 0.4781(10) 0.3137(10) 0.0731(4)
H30 H 0.4451 0.2998 0.1011
C37 C 0.5241(16) 0.4002(14) 0.0693(6)
H31 H 0.5179 0.4445 0.0934
C38 C 0.5798(12) 0.4221(10) 0.0296(7)
H32 H 0.6155 0.4791 0.0278
C39 C 0.5820(8) 0.3578(8) -0.0076(4)
H33 H 0.6156 0.3727 -0.0354
C40 C 0.5327(9) 0.2704(8) -0.0023(4)
H34 H 0.5369 0.2268 -0.0268
C41 C 0.8125(7) -0.0943(7) 0.2530(3)
C42 C 0.7322(8) -0.1595(8) 0.2628(4)
H35 H 0.6987 -0.1928 0.2384
C43 C 0.7043(8) -0.1730(8) 0.3103(5)
H36 H 0.6527 -0.2162 0.3177
C44 C 0.7545(10) -0.1209(9) 0.3457(4)
H37 H 0.7354 -0.1284 0.3771
C45 C 0.8306(9) -0.0598(8) 0.3350(4)
H38 H 0.8647 -0.0256 0.3590
C46 C 0.8572(7) -0.0483(7) 0.2898(3)
H39 H 0.9102 -0.0056 0.2835
C47 C 0.9336(9) -0.1442(9) 0.1949(3)
C48 C 0.9102(11) -0.2344(8) 0.1763(4)
H40 H 0.8430 -0.2519 0.1670
C49 C 0.9979(11) -0.2982(13) 0.1727(5)
H41 H 0.9853 -0.3587 0.1610
C50 C 1.0915(15) -0.2765(11) 0.1846(5)
H42 H 1.1440 -0.3206 0.1800
C51 C 1.1172(10) -0.1898(13) 0.2042(4)
H43 H 1.1855 -0.1761 0.2135
C52 C 1.0364(9) -0.1217(9) 0.2096(3)
H44 H 1.0514 -0.0628 0.2228
C53 C 0.6894(7) 0.1266(7) 0.2229(3)
H45 H 0.7636 0.1375 0.2208
H46 H 0.6779 0.0764 0.2455
C54 C 0.6357(11) 0.2134(8) 0.2368(4)
H47 H 0.5865 0.1989 0.2612
H48 H 0.6860 0.2582 0.2498
C55 C 0.5852(10) 0.2521(9) 0.1994(5)
H49 H 0.6243 0.3052 0.1874
H50 H 0.5172 0.2745 0.2085
C56 C 0.5740(7) 0.1762(7) 0.1622(3)
H51 H 0.5031 0.1528 0.1603
H52 H 0.5924 0.2004 0.1314
Mg1B Mg 0.4266(2) 0.00390(18) -0.04060(7)
Mg2B Mg 0.3233(2) 0.0072(2) -0.13453(8)
O1B O 0.3044(4) -0.0494(5) -0.07224(16)
O2B O 0.4491(5) 0.0605(4) -0.10335(16)
O3B O 0.5385(4) -0.0785(3) -0.01585(15)
O4B O 0.2385(5) 0.0899(4) -0.16903(19)
O5B O 0.3558(4) -0.1030(4) -0.17725(16)
C1B C 0.2508(7) -0.1336(8) -0.0606(3)
H1B H 0.3018 -0.1851 -0.0601
C2B C 0.5426(8) 0.1035(6) -0.1167(3)
H2B H 0.5912 0.0989 -0.0894
C3B C 0.5825(8) -0.1544(7) -0.0409(3)
H3B H 0.5846 -0.1362 -0.0744
C4B C 0.1567(7) 0.0803(7) -0.2031(3)
H4B H 0.1309 0.0153 -0.2007
C5B C 0.1645(7) -0.1593(8) -0.0984(3)
C6B C 0.0955(6) -0.0897(7) -0.1150(3)
H5B H 0.1003 -0.0282 -0.1034
C7B C 0.0194(8) -0.1130(11) -0.1493(4)
H6B H -0.0286 -0.0672 -0.1588
C8B C 0.0133(10) -0.1985(13) -0.1686(4)
H7B H -0.0363 -0.2116 -0.1923
C9B C 0.0807(11) -0.2665(11) -0.1533(5)
H8B H 0.0767 -0.3266 -0.1666
C10B C 0.1576(8) -0.2476(9) -0.1170(4)
H9B H 0.2024 -0.2952 -0.1064
C11B C 0.2002(7) -0.1318(8) -0.0121(3)
C12B C 0.1572(7) -0.0470(7) 0.0052(3)
H10B H 0.1601 0.0082 -0.0126
C13B C 0.1110(7) -0.0467(9) 0.0488(4)
H11B H 0.0806 0.0083 0.0601
C14B C 0.1101(9) -0.1267(12) 0.0749(3)
H12B H 0.0826 -0.1252 0.1051
C15B C 0.1493(10) -0.2111(11) 0.0577(4)
H13B H 0.1458 -0.2657 0.0759
C16B C 0.1921(8) -0.2143(8) 0.0152(3)
H14B H 0.2167 -0.2715 0.0036
C17B C 0.5326(10) 0.2084(7) -0.1290(3)
C18B C 0.6235(12) 0.2628(9) -0.1296(3)
H15B H 0.6868 0.2343 -0.1217
C19B C 0.6219(15) 0.3584(10) -0.1417(4)
H16B H 0.6822 0.3941 -0.1446
C20B C 0.523(2) 0.3956(13) -0.1490(5)
H17B H 0.5184 0.4606 -0.1539
C21B C 0.4286(18) 0.3455(12) -0.1498(5)
H18B H 0.3645 0.3733 -0.1569
C22B C 0.4405(10) 0.2501(8) -0.1390(3)
H19B H 0.3810 0.2128 -0.1385
C23B C 0.5920(7) 0.0515(5) -0.1574(3)
C24B C 0.5486(7) 0.0547(6) -0.2025(3)
H20B H 0.4893 0.0913 -0.2078
C25B C 0.5886(10) 0.0065(7) -0.2399(3)
H21B H 0.5577 0.0110 -0.2700
C26B C 0.6755(11) -0.0486(8) -0.2321(4)
H22B H 0.7038 -0.0819 -0.2571
C27B C 0.7205(8) -0.0548(7) -0.1878(5)
H23B H 0.7785 -0.0930 -0.1823
C28B C 0.6777(7) -0.0021(6) -0.1502(3)
H24B H 0.7093 -0.0046 -0.1202
C29B C 0.6928(8) -0.1750(6) -0.0239(3)
C30B C 0.7715(10) -0.1867(7) -0.0570(4)
H25B H 0.7561 -0.1780 -0.0891
C31B C 0.8743(10) -0.2117(8) -0.0420(5)
H26B H 0.9250 -0.2212 -0.0644
C32B C 0.8986(10) -0.2215(9) 0.0038(5)
H27B H 0.9659 -0.2381 0.0135
C33B C 0.8229(9) -0.2067(8) 0.0371(4)
H28B H 0.8407 -0.2108 0.0691
C34B C 0.7204(8) -0.1859(7) 0.0232(3)
H29B H 0.6702 -0.1793 0.0461
C35B C 0.5228(8) -0.2448(8) -0.0379(3)
C36B C 0.5219(10) -0.3137(10) -0.0731(4)
H30B H 0.5549 -0.2998 -0.1011
C37B C 0.4759(16) -0.4002(14) -0.0693(6)
H31B H 0.4821 -0.4445 -0.0934
C38B C 0.4202(12) -0.4221(10) -0.0296(7)
H32B H 0.3845 -0.4791 -0.0278
C39B C 0.4180(8) -0.3578(8) 0.0076(4)
H33B H 0.3844 -0.3727 0.0354
C40B C 0.4673(9) -0.2704(8) 0.0023(4)
H34B H 0.4631 -0.2268 0.0268
C41B C 0.1875(7) 0.0943(7) -0.2530(3)
C42B C 0.2678(8) 0.1595(8) -0.2628(4)
H35B H 0.3013 0.1928 -0.2384
C43B C 0.2957(8) 0.1730(8) -0.3103(5)
H36B H 0.3473 0.2162 -0.3177
C44B C 0.2455(10) 0.1209(9) -0.3457(4)
H37B H 0.2646 0.1284 -0.3771
C45B C 0.1694(9) 0.0598(8) -0.3350(4)
H38B H 0.1353 0.0256 -0.3590
C46B C 0.1428(7) 0.0483(7) -0.2898(3)
H39B H 0.0898 0.0056 -0.2835
C47B C 0.0664(9) 0.1442(9) -0.1949(3)
C48B C 0.0898(11) 0.2344(8) -0.1763(4)
H40B H 0.1570 0.2519 -0.1670
C49B C 0.0021(11) 0.2982(13) -0.1727(5)
H41B H 0.0147 0.3587 -0.1610
C50B C -0.0915(15) 0.2765(11) -0.1846(5)
H42B H -0.1440 0.3206 -0.1800
C51B C -0.1172(10) 0.1898(13) -0.2042(4)
H43B H -0.1855 0.1761 -0.2135
C52B C -0.0364(9) 0.1217(9) -0.2096(3)
H44B H -0.0514 0.0628 -0.2228
C53B C 0.3106(7) -0.1266(7) -0.2229(3)
H45B H 0.2364 -0.1375 -0.2208
H46B H 0.3221 -0.0764 -0.2455
C54B C 0.3643(11) -0.2134(8) -0.2368(4)
H47B H 0.4135 -0.1989 -0.2612
H48B H 0.3140 -0.2582 -0.2498
C55B C 0.4148(10) -0.2521(9) -0.1994(5)
H49B H 0.3757 -0.3052 -0.1874
H50B H 0.4828 -0.2745 -0.2085
C56B C 0.4260(7) -0.1762(7) -0.1622(3)
H51B H 0.4969 -0.1528 -0.1603
H52B H 0.4076 -0.2004 -0.1314
loop_
_geom_bond_atom_site_label_1
_geom_bond_atom_site_label_2
_geom_bond_site_symmetry_1
_geom_bond_site_symmetry_2
Mg1 O1 1_555 1_555
Mg2 O1 1_555 1_555
O1 C1 1_555 1_555
O2 Mg1 1_555 1_555
O3 Mg1 1_555 1_555
O4 Mg2 1_555 1_555
O5 Mg2 1_555 1_555
C1 H1 1_555 1_555
C2 O2 1_555 1_555
H2 C2 1_555 1_555
C3 O3 1_555 1_555
H3 C3 1_555 1_555
C4 O4 1_555 1_555
H4 C4 1_555 1_555
C5 C1 1_555 1_555
C6 C5 1_555 1_555
H5 C6 1_555 1_555
C7 C6 1_555 1_555
H6 C7 1_555 1_555
C8 C7 1_555 1_555
H7 C8 1_555 1_555
C9 C8 1_555 1_555
H8 C9 1_555 1_555
C10 C5 1_555 1_555
H9 C10 1_555 1_555
C11 C1 1_555 1_555
C12 C11 1_555 1_555
H10 C12 1_555 1_555
C13 C12 1_555 1_555
H11 C13 1_555 1_555
C14 C13 1_555 1_555
H12 C14 1_555 1_555
C15 C14 1_555 1_555
H13 C15 1_555 1_555
C16 C11 1_555 1_555
H14 C16 1_555 1_555
C17 C2 1_555 1_555
C18 C17 1_555 1_555
H15 C18 1_555 1_555
C19 C18 1_555 1_555
H16 C19 1_555 1_555
C20 C19 1_555 1_555
H17 C20 1_555 1_555
C21 C20 1_555 1_555
H18 C21 1_555 1_555
C22 C17 1_555 1_555
H19 C22 1_555 1_555
C23 C2 1_555 1_555
C24 C23 1_555 1_555
H20 C24 1_555 1_555
C25 C24 1_555 1_555
H21 C25 1_555 1_555
C26 C25 1_555 1_555
H22 C26 1_555 1_555
C27 C26 1_555 1_555
H23 C27 1_555 1_555
C28 C23 1_555 1_555
H24 C28 1_555 1_555
C29 C3 1_555 1_555
C30 C29 1_555 1_555
H25 C30 1_555 1_555
C31 C30 1_555 1_555
H26 C31 1_555 1_555
C32 C31 1_555 1_555
H27 C32 1_555 1_555
C33 C32 1_555 1_555
H28 C33 1_555 1_555
C34 C29 1_555 1_555
H29 C34 1_555 1_555
C35 C3 1_555 1_555
C36 C35 1_555 1_555
H30 C36 1_555 1_555
C37 C36 1_555 1_555
H31 C37 1_555 1_555
C38 C37 1_555 1_555
H32 C38 1_555 1_555
C39 C38 1_555 1_555
H33 C39 1_555 1_555
C40 C35 1_555 1_555
H34 C40 1_555 1_555
C41 C4 1_555 1_555
C42 C41 1_555 1_555
H35 C42 1_555 1_555
C43 C42 1_555 1_555
H36 C43 1_555 1_555
C44 C43 1_555 1_555
H37 C44 1_555 1_555
C45 C44 1_555 1_555
H38 C45 1_555 1_555
C46 C41 1_555 1_555
H39 C46 1_555 1_555
C47 C4 1_555 1_555
C48 C47 1_555 1_555
H40 C48 1_555 1_555
C49 C48 1_555 1_555
H41 C49 1_555 1_555
C50 C49 1_555 1_555
H42 C50 1_555 1_555
C51 C50 1_555 1_555
H43 C51 1_555 1_555
C52 C47 1_555 1_555
H44 C52 1_555 1_555
C53 O5 1_555 1_555
H45 C53 1_555 1_555
H46 C53 1_555 1_555
C54 C53 1_555 1_555
H47 C54 1_555 1_555
H48 C54 1_555 1_555
C55 C54 1_555 1_555
H49 C55 1_555 1_555
H50 C55 1_555 1_555
C56 O5 1_555 1_555
H51 C56 1_555 1_555
H52 C56 1_555 1_555
Mg1B O3 1_555 1_555
Mg2B O1B 1_555 1_555
O1B Mg1B 1_555 1_555
O2B Mg1B 1_555 1_555
O3B Mg1 1_555 1_555
O4B Mg2B 1_555 1_555
O5B Mg2B 1_555 1_555
C1B O1B 1_555 1_555
H1B C1B 1_555 1_555
C2B O2B 1_555 1_555
H2B C2B 1_555 1_555
C3B O3B 1_555 1_555
H3B C3B 1_555 1_555
C4B O4B 1_555 1_555
H4B C4B 1_555 1_555
C5B C1B 1_555 1_555
C6B C5B 1_555 1_555
H5B C6B 1_555 1_555
C7B C6B 1_555 1_555
H6B C7B 1_555 1_555
C8B C7B 1_555 1_555
H7B C8B 1_555 1_555
C9B C8B 1_555 1_555
H8B C9B 1_555 1_555
C10B C5B 1_555 1_555
H9B C10B 1_555 1_555
C11B C1B 1_555 1_555
C12B C11B 1_555 1_555
H10B C12B 1_555 1_555
C13B C12B 1_555 1_555
H11B C13B 1_555 1_555
C14B C13B 1_555 1_555
H12B C14B 1_555 1_555
C15B C14B 1_555 1_555
H13B C15B 1_555 1_555
C16B C11B 1_555 1_555
H14B C16B 1_555 1_555
C17B C2B 1_555 1_555
C18B C17B 1_555 1_555
H15B C18B 1_555 1_555
C19B C18B 1_555 1_555
H16B C19B 1_555 1_555
C20B C19B 1_555 1_555
H17B C20B 1_555 1_555
C21B C20B 1_555 1_555
H18B C21B 1_555 1_555
C22B C17B 1_555 1_555
H19B C22B 1_555 1_555
C23B C2B 1_555 1_555
C24B C23B 1_555 1_555
H20B C24B 1_555 1_555
C25B C24B 1_555 1_555
H21B C25B 1_555 1_555
C26B C25B 1_555 1_555
H22B C26B 1_555 1_555
C27B C26B 1_555 1_555
H23B C27B 1_555 1_555
C28B C23B 1_555 1_555
H24B C28B 1_555 1_555
C29B C3B 1_555 1_555
C30B C29B 1_555 1_555
H25B C30B 1_555 1_555
C31B C30B 1_555 1_555
H26B C31B 1_555 1_555
C32B C31B 1_555 1_555
H27B C32B 1_555 1_555
C33B C32B 1_555 1_555
H28B C33B 1_555 1_555
C34B C29B 1_555 1_555
H29B C34B 1_555 1_555
C35B C3B 1_555 1_555
C36B C35B 1_555 1_555
H30B C36B 1_555 1_555
C37B C36B 1_555 1_555
H31B C37B 1_555 1_555
C38B C37B 1_555 1_555
H32B C38B 1_555 1_555
C39B C38B 1_555 1_555
H33B C39B 1_555 1_555
C40B C35B 1_555 1_555
H34B C40B 1_555 1_555
C41B C4B 1_555 1_555
C42B C41B 1_555 1_555
H35B C42B 1_555 1_555
C43B C42B 1_555 1_555
H36B C43B 1_555 1_555
C44B C43B 1_555 1_555
H37B C44B 1_555 1_555
C45B C44B 1_555 1_555
H38B C45B 1_555 1_555
C46B C41B 1_555 1_555
H39B C46B 1_555 1_555
C47B C4B 1_555 1_555
C48B C47B 1_555 1_555
H40B C48B 1_555 1_555
C49B C48B 1_555 1_555
H41B C49B 1_555 1_555
C50B C49B 1_555 1_555
H42B C50B 1_555 1_555
C51B C50B 1_555 1_555
H43B C51B 1_555 1_555
C52B C47B 1_555 1_555
H44B C52B 1_555 1_555
C53B O5B 1_555 1_555
H45B C53B 1_555 1_555
H46B C53B 1_555 1_555
C54B C53B 1_555 1_555
H47B C54B 1_555 1_555
H48B C54B 1_555 1_555
C55B C54B 1_555 1_555
H49B C55B 1_555 1_555
H50B C55B 1_555 1_555
C56B O5B 1_555 1_555
H51B C56B 1_555 1_555
H52B C56B 1_555 1_555
Mg2 O2 1_555 1_555
C9 C10 1_555 1_555
C15 C16 1_555 1_555
C21 C22 1_555 1_555
C27 C28 1_555 1_555
C33 C34 1_555 1_555
C39 C40 1_555 1_555
C45 C46 1_555 1_555
C51 C52 1_555 1_555
C55 C56 1_555 1_555
Mg1B O3B 1_555 1_555
Mg2B O2B 1_555 1_555
C9B C10B 1_555 1_555
C15B C16B 1_555 1_555
C21B C22B 1_555 1_555
C27B C28B 1_555 1_555
C33B C34B 1_555 1_555
C39B C40B 1_555 1_555
C45B C46B 1_555 1_555
C51B C52B 1_555 1_555
C55B C56B 1_555 1_555

#END
