
#######################################################################
#
#                 Cambridge Crystallographic Data Centre
#                                CCDC 
#
#######################################################################
#
# If this CIF has been generated from an entry in the Cambridge 
# Structural Database, then it will include bibliographic, chemical, 
# crystal, experimental, refinement or atomic coordinate data resulting 
# from the CCDC's data processing and validation procedures.
#
#######################################################################

data_GUTPIW
_chemical_formula_moiety         'C22 H22 N4 O5,C2 H6 O1'
_chemical_name_systematic        
'9H-fluoren-9-ylmethyl (2-(1-amino-1-oxopropan-2-yl)-3,6-dioxohexahydropyridazin-4-yl)carbamate ethanol solvate'
_symmetry_cell_setting           orthorhombic
_symmetry_space_group_name_H-M   'P 21 21 21'
_symmetry_Int_Tables_number      19
_space_group_name_Hall           'P 2ac 2ab'
loop_
_symmetry_equiv_pos_site_id
_symmetry_equiv_pos_as_xyz
1 x,y,z
2 1/2+x,1/2-y,-z
3 -x,1/2+y,1/2-z
4 1/2-x,-y,1/2+z
_cell_length_a                   6.1328(2)
_cell_length_b                   16.7206(4)
_cell_length_c                   22.9284(6)
_cell_angle_alpha                90
_cell_angle_beta                 90
_cell_angle_gamma                90
_cell_volume                     2351.17
_exptl_crystal_colour            colorless
_exptl_crystal_description       plate
_cell_formula_units_Z            4
loop_
_atom_site_label
_atom_site_type_symbol
_atom_site_fract_x
_atom_site_fract_y
_atom_site_fract_z
O1 O 0.5224(4) 0.50523(16) 0.60024(10)
N1 N 0.2333(4) 0.57864(14) 0.57972(10)
H1 H 0.332(7) 0.605(2) 0.5638(18)
O2 O -0.3518(4) 0.83105(15) 0.71094(11)
O3 O 0.2715(3) 0.70137(15) 0.65722(9)
O4 O -0.4559(3) 0.68871(12) 0.53358(8)
C1 C 0.0391(4) 0.62158(15) 0.59509(11)
H2 H -0.0622 0.5848 0.6163
N2 N -0.0662(4) 0.74878(15) 0.63822(10)
O5 O 0.2036(7) 0.4821(2) 0.64816(13)
N3 N -0.2655(4) 0.73646(14) 0.60972(11)
C2 C 1.0947(6) 0.4088(2) 0.44524(14)
H3 H 1.1999 0.4164 0.4153
C3 C 0.9052(8) 0.4544(3) 0.44522(19)
H4 H 0.8830 0.4926 0.4151
C4 C 0.7468(8) 0.4454(2) 0.48845(16)
H5 H 0.6174 0.4767 0.4880
C5 C 0.7837(7) 0.3896(2) 0.53205(16)
C6 C 0.6446(6) 0.3688(2) 0.58456(16)
H6 H 0.4975 0.3491 0.5724
C7 C 0.6257(6) 0.4372(2) 0.62740(15)
H7 H 0.5389 0.4200 0.6616
H8 H 0.7727 0.4525 0.6413
C8 C 0.3099(7) 0.5190(2) 0.61265(14)
C9 C 0.0934(5) 0.69263(19) 0.63425(11)
C10 C -0.0179(5) 0.8304(2) 0.65745(13)
H9 H 0.1381 0.8325 0.6700
C11 C -0.1604(5) 0.85276(19) 0.70961(14)
N4 N -0.0673(5) 0.89928(18) 0.74863(12)
C12 C 1.1321(6) 0.3526(2) 0.48802(14)
H10 H 1.2611 0.3211 0.4877
C13 C 0.9757(8) 0.3429(2) 0.53200(17)
C14 C 0.9709(10) 0.2882(3) 0.5819(2)
C15 C 1.1183(6) 0.2296(2) 0.60024(15)
H11 H 1.2493 0.2203 0.5792
C16 C 1.0698(6) 0.1856(2) 0.64944(16)
H12 H 1.1666 0.1447 0.6620
C17 C 0.8780(11) 0.2008(3) 0.6811(3)
H13 H 0.8481 0.1703 0.7151
C18 C 0.7314(8) 0.2593(2) 0.66382(19)
H14 H 0.6035 0.2698 0.6859
C19 C 0.7771(7) 0.3021(2) 0.61326(17)
C20 C -0.0757(5) 0.65409(16) 0.54094(11)
H15 H 0.0204 0.6925 0.5205
H16 H -0.1100 0.6098 0.5138
C21 C -0.2820(5) 0.69497(15) 0.55960(12)
C22 C -0.0499(8) 0.8908(2) 0.60845(16)
H17 H 0.0383 0.8750 0.5747
H18 H -0.0043 0.9439 0.6218
H19 H -0.2041 0.8923 0.5973
H20 H -0.145(7) 0.913(2) 0.7772(18)
H21 H 0.080(8) 0.910(3) 0.7402(19)
H22 H -0.376(6) 0.748(2) 0.6293(14)
O8 O 0.3620(4) 0.95633(19) 0.72673(16)
H35 H 0.4554 0.9218 0.7177
C34 C 0.3371(7) 1.0895(3) 0.76659(17)
H36 H 0.3926 1.1439 0.7612
H37 H 0.3554 1.0736 0.8074
H38 H 0.1821 1.0878 0.7563
C35 C 0.4616(6) 1.0330(2) 0.72810(16)
H39 H 0.4680 1.0550 0.6881
H40 H 0.6128 1.0279 0.7427
H23? H 0.3309 0.5972 0.5550
H24? H 1.1775 0.4089 0.4102
H25? H 1.2433 0.3140 0.4815
H26? H 1.2296 0.2127 0.5742
H27? H 1.1519 0.1382 0.6559
C23? C 0.501(2) 0.3943(9) 0.6089(7)
H28? H 0.4326 0.3531 0.5838
H29? H 0.4512 0.3863 0.6496
C24? C 0.7403(19) 0.3903(8) 0.6051(6)
H30? H 0.7911 0.4345 0.6312
O6? O 0.445(2) 0.4750(9) 0.5883(6)
C25? C 0.847(3) 0.3176(8) 0.6293(6)
C26? C 0.858(2) 0.4054(8) 0.5484(6)
C27? C 0.817(2) 0.4620(8) 0.5065(7)
H31? H 0.7059 0.5003 0.5131
C28? C 0.253(2) 0.5067(7) 0.6068(5)
O7? O 0.137(3) 0.4718(13) 0.6407(9)
C29? C 0.798(3) 0.2738(11) 0.6786(7)
H32? H 0.6863 0.2911 0.7044
C30? C 1.019(2) 0.3491(8) 0.5392(5)
C31? C 1.006(2) 0.2961(6) 0.5900(6)
C32? C 0.9335(19) 0.4649(8) 0.4547(7)
H33? H 0.9029 0.5048 0.4263
C33? C 0.913(2) 0.2046(10) 0.6899(6)
H34? H 0.8849 0.1723 0.7232
loop_
_geom_bond_atom_site_label_1
_geom_bond_atom_site_label_2
_geom_bond_site_symmetry_1
_geom_bond_site_symmetry_2
O1 C7 1_555 1_555
N1 H1 1_555 1_555
O2 C11 1_555 1_555
O3 C9 1_555 1_555
O4 C21 1_555 1_555
C1 N1 1_555 1_555
H2 C1 1_555 1_555
N2 N3 1_555 1_555
O5 C8 1_555 1_555
N3 C21 1_555 1_555
C2 H3 1_555 1_555
C3 C2 1_555 1_555
H4 C3 1_555 1_555
C4 C3 1_555 1_555
H5 C4 1_555 1_555
C5 C4 1_555 1_555
C6 C5 1_555 1_555
H6 C6 1_555 1_555
C7 C6 1_555 1_555
H7 C7 1_555 1_555
H8 C7 1_555 1_555
C8 O1 1_555 1_555
C9 C1 1_555 1_555
C10 N2 1_555 1_555
H9 C10 1_555 1_555
C11 C10 1_555 1_555
N4 C11 1_555 1_555
C12 C2 1_555 1_555
H10 C12 1_555 1_555
C13 C5 1_555 1_555
C14 C13 1_555 1_555
C15 C14 1_555 1_555
H11 C15 1_555 1_555
C16 C15 1_555 1_555
H12 C16 1_555 1_555
C17 C16 1_555 1_555
H13 C17 1_555 1_555
C18 C17 1_555 1_555
H14 C18 1_555 1_555
C19 C6 1_555 1_555
C20 C1 1_555 1_555
H15 C20 1_555 1_555
H16 C20 1_555 1_555
C21 C20 1_555 1_555
C22 C10 1_555 1_555
H17 C22 1_555 1_555
H18 C22 1_555 1_555
H19 C22 1_555 1_555
H20 N4 1_555 1_555
H21 N4 1_555 1_555
H22 N3 1_555 1_555
O8 H35 1_555 1_555
C34 H36 1_555 1_555
H37 C34 1_555 1_555
H38 C34 1_555 1_555
C35 O8 1_555 1_555
H39 C35 1_555 1_555
H40 C35 1_555 1_555
N1 C8 1_555 1_555
N2 C9 1_555 1_555
C12 C13 1_555 1_555
C14 C19 1_555 1_555
C18 C19 1_555 1_555
C34 C35 1_555 1_555

#END
