
#######################################################################
#
#                 Cambridge Crystallographic Data Centre
#                                CCDC 
#
#######################################################################
#
# If this CIF has been generated from an entry in the Cambridge 
# Structural Database, then it will include bibliographic, chemical, 
# crystal, experimental, refinement or atomic coordinate data resulting 
# from the CCDC's data processing and validation procedures.
#
#######################################################################

data_GUVSIA
_chemical_formula_moiety         'C24 H30 N2 O4 S1'
_chemical_name_systematic        
't-Butyl 1-benzyl-7-(phenylsulfonyl)-hexahydro-1H-pyrrolo[1,2-a]imidazole-5-carboxylate'
_symmetry_cell_setting           monoclinic
_symmetry_space_group_name_H-M   'P 21/c'
_symmetry_Int_Tables_number      14
_space_group_name_Hall           '-P 2ybc'
loop_
_symmetry_equiv_pos_site_id
_symmetry_equiv_pos_as_xyz
1 x,y,z
2 -x,1/2+y,1/2-z
3 -x,-y,-z
4 x,1/2-y,1/2+z
_cell_length_a                   17.167(9)
_cell_length_b                   13.352(7)
_cell_length_c                   9.861(5)
_cell_angle_alpha                90
_cell_angle_beta                 94.360(9)
_cell_angle_gamma                90
_cell_volume                     2253.74
_exptl_crystal_colour            colorless
_exptl_crystal_description       needle
_chemical_melting_point          '145.5-146.7 deg.C'
_cell_formula_units_Z            4
loop_
_atom_site_label
_atom_site_type_symbol
_atom_site_fract_x
_atom_site_fract_y
_atom_site_fract_z
N1 N 0.75572(13) 0.42530(15) 0.5191(2)
C1 C 0.70098(17) 0.47610(19) 0.4217(3)
H1 H 0.7288 0.5125 0.3525
H2 H 0.6677 0.5239 0.4679
C2 C 0.65222(17) 0.38929(19) 0.3573(3)
H3 H 0.6031 0.3809 0.4025
H4 H 0.6394 0.4013 0.2591
N2 N 0.70297(13) 0.29978(15) 0.3789(2)
C3 C 0.67413(17) 0.2290(2) 0.4796(3)
H5 H 0.6549 0.2683 0.5566
C4 C 0.74682(16) 0.1717(2) 0.5312(3)
H6 H 0.7582 0.1167 0.4682
H7 H 0.7410 0.1434 0.6226
C5 C 0.81104(16) 0.25191(19) 0.5360(3)
H8 H 0.8210 0.2775 0.6310
C6 C 0.77759(16) 0.33673(18) 0.4423(3)
H9 H 0.8144 0.3547 0.3722
C7 C 0.82082(17) 0.48789(19) 0.5721(3)
H10 H 0.8425 0.5243 0.4960
H11 H 0.8626 0.4449 0.6153
C8 C 0.79497(17) 0.56268(19) 0.6754(3)
C9 C 0.83068(19) 0.6562(2) 0.6907(3)
H12 H 0.8701 0.6748 0.6330
C10 C 0.8090(2) 0.7225(2) 0.7896(4)
H13 H 0.8338 0.7860 0.7989
C11 C 0.7527(2) 0.6975(2) 0.8735(4)
H14 H 0.7386 0.7433 0.9412
C12 C 0.71565(19) 0.6050(2) 0.8601(3)
H15 H 0.6760 0.5874 0.9179
C13 C 0.73742(17) 0.5387(2) 0.7614(3)
H16 H 0.7123 0.4754 0.7525
C14 C 0.60975(17) 0.1599(2) 0.4241(3)
O1 O 0.59806(13) 0.08013(15) 0.4774(2)
O2 O 0.56667(12) 0.19787(13) 0.3180(2)
C15 C 0.49889(17) 0.1420(2) 0.2530(3)
C16 C 0.4713(2) 0.2114(3) 0.1372(4)
H17 H 0.4589 0.2772 0.1740
H18 H 0.4246 0.1832 0.0882
H19 H 0.5127 0.2186 0.0748
C17 C 0.43628(19) 0.1290(2) 0.3506(3)
H20 H 0.4562 0.0870 0.4270
H21 H 0.3905 0.0969 0.3036
H22 H 0.4214 0.1947 0.3847
C18 C 0.5269(2) 0.0427(2) 0.1984(4)
H23 H 0.5745 0.0538 0.1514
H24 H 0.4862 0.0145 0.1345
H25 H 0.5381 -0.0040 0.2740
S1 S 0.89949(4) 0.20471(4) 0.47665(7)
O3 O 0.88365(11) 0.17138(13) 0.33824(19)
O4 O 0.95973(11) 0.27912(13) 0.5047(2)
C19 C 0.92161(16) 0.09901(18) 0.5798(3)
C20 C 0.95759(17) 0.1136(2) 0.7083(3)
H26 H 0.9702 0.1793 0.7400
C21 C 0.97523(17) 0.0305(2) 0.7908(3)
H27 H 1.0002 0.0392 0.8793
C22 C 0.95622(18) -0.0648(2) 0.7432(3)
H28 H 0.9681 -0.1214 0.7994
C23 C 0.92012(18) -0.07786(19) 0.6146(3)
H29 H 0.9078 -0.1435 0.5827
C24 C 0.90160(17) 0.00363(19) 0.5312(3)
H30 H 0.8759 -0.0053 0.4433
loop_
_geom_bond_atom_site_label_1
_geom_bond_atom_site_label_2
_geom_bond_site_symmetry_1
_geom_bond_site_symmetry_2
N1 C1 1_555 1_555
C1 H1 1_555 1_555
H2 C1 1_555 1_555
C2 C1 1_555 1_555
H3 C2 1_555 1_555
H4 C2 1_555 1_555
N2 C2 1_555 1_555
C3 N2 1_555 1_555
H5 C3 1_555 1_555
C4 C3 1_555 1_555
H6 C4 1_555 1_555
H7 C4 1_555 1_555
C5 C4 1_555 1_555
H8 C5 1_555 1_555
C6 N1 1_555 1_555
H9 C6 1_555 1_555
C7 N1 1_555 1_555
H10 C7 1_555 1_555
H11 C7 1_555 1_555
C8 C7 1_555 1_555
C9 C8 1_555 1_555
H12 C9 1_555 1_555
C10 C9 1_555 1_555
H13 C10 1_555 1_555
C11 C10 1_555 1_555
H14 C11 1_555 1_555
C12 C11 1_555 1_555
H15 C12 1_555 1_555
C13 C8 1_555 1_555
H16 C13 1_555 1_555
C14 C3 1_555 1_555
O1 C14 1_555 1_555
O2 C14 1_555 1_555
C15 O2 1_555 1_555
C16 C15 1_555 1_555
H17 C16 1_555 1_555
H18 C16 1_555 1_555
H19 C16 1_555 1_555
C17 C15 1_555 1_555
H20 C17 1_555 1_555
H21 C17 1_555 1_555
H22 C17 1_555 1_555
C18 C15 1_555 1_555
H23 C18 1_555 1_555
H24 C18 1_555 1_555
H25 C18 1_555 1_555
S1 C5 1_555 1_555
O3 S1 1_555 1_555
O4 S1 1_555 1_555
C19 S1 1_555 1_555
C20 C19 1_555 1_555
H26 C20 1_555 1_555
C21 C20 1_555 1_555
H27 C21 1_555 1_555
C22 C21 1_555 1_555
H28 C22 1_555 1_555
C23 C22 1_555 1_555
H29 C23 1_555 1_555
C24 C19 1_555 1_555
H30 C24 1_555 1_555
N2 C6 1_555 1_555
C5 C6 1_555 1_555
C12 C13 1_555 1_555
C23 C24 1_555 1_555

#END
