
#######################################################################
#
#                 Cambridge Crystallographic Data Centre
#                                CCDC 
#
#######################################################################
#
# If this CIF has been generated from an entry in the Cambridge 
# Structural Database, then it will include bibliographic, chemical, 
# crystal, experimental, refinement or atomic coordinate data resulting 
# from the CCDC's data processing and validation procedures.
#
#######################################################################

data_GUVSOG
_chemical_formula_moiety         'C19 H28 N2 O4 S1'
_chemical_name_systematic        
't-Butyl 1-benzyl-7-(methylsulfonyl)-hexahydro-1H-pyrrolo[1,2-a]imidazole-5-carboxylate'
_symmetry_cell_setting           triclinic
_symmetry_space_group_name_H-M   'P -1'
_symmetry_Int_Tables_number      2
_space_group_name_Hall           '-P 1'
loop_
_symmetry_equiv_pos_site_id
_symmetry_equiv_pos_as_xyz
1 x,y,z
2 -x,-y,-z
_cell_length_a                   5.8306(2)
_cell_length_b                   10.8889(4)
_cell_length_c                   16.5253(5)
_cell_angle_alpha                104.8054(5)
_cell_angle_beta                 92.0748(5)
_cell_angle_gamma                93.7859(5)
_cell_volume                     1010.59
_exptl_crystal_colour            colorless
_exptl_crystal_description       block
_chemical_melting_point          '123.5-124.7 deg.C'
_cell_formula_units_Z            2
loop_
_atom_site_label
_atom_site_type_symbol
_atom_site_fract_x
_atom_site_fract_y
_atom_site_fract_z
C1 C 0.0455(2) 0.70102(15) 0.61375(9)
H1 H 0.0582 0.6600 0.5534
H2 H -0.0260 0.7827 0.6199
C2 C -0.0908(2) 0.61312(14) 0.65662(8)
H3 H -0.2567 0.6274 0.6551
H4 H -0.0716 0.5226 0.6291
N1 N 0.00894(18) 0.64854(10) 0.74403(6)
C3 C 0.1065(2) 0.54395(11) 0.77064(8)
H5 H 0.1941 0.4934 0.7243
C4 C -0.0769(2) 0.45681(12) 0.79505(9)
O1 O -0.2690(2) 0.48261(13) 0.80978(13)
O2 O 0.01130(16) 0.34885(9) 0.79832(6)
C5 C -0.1286(2) 0.24313(13) 0.81947(9)
C6 C -0.3253(4) 0.19767(18) 0.75523(13)
H6 H -0.2652 0.1716 0.6993
H7 H -0.4262 0.2668 0.7573
H8 H -0.4130 0.1250 0.7672
C7 C 0.0414(3) 0.14193(19) 0.81279(17)
H9 H 0.0896 0.1158 0.7551
H10 H -0.0317 0.0680 0.8281
H11 H 0.1763 0.1766 0.8509
C8 C -0.2026(5) 0.2852(2) 0.90753(12)
H12 H -0.0665 0.3137 0.9461
H13 H -0.2878 0.2138 0.9220
H14 H -0.3017 0.3556 0.9122
C9 C 0.2739(2) 0.61276(11) 0.84378(7)
H15 H 0.3872 0.5556 0.8566
H16 H 0.1920 0.6493 0.8948
C10 C 0.3886(2) 0.71748(11) 0.80819(7)
H17 H 0.5235 0.6840 0.7762
S1 S 0.48136(5) 0.85944(3) 0.886762(18)
O3 O 0.29399(17) 0.89388(9) 0.94067(6)
O4 O 0.5741(2) 0.95141(9) 0.84512(7)
C11 C 0.7074(2) 0.81292(14) 0.94274(9)
H18 H 0.8341 0.7893 0.9059
H19 H 0.6523 0.7397 0.9629
H20 H 0.7618 0.8838 0.9906
C12 C 0.2033(2) 0.74376(11) 0.74700(7)
H21 H 0.1540 0.8321 0.7674
N2 N 0.27153(18) 0.72020(10) 0.65973(6)
C13 C 0.4184(2) 0.82560(12) 0.64535(8)
H22 H 0.5452 0.8488 0.6893
H23 H 0.3269 0.9005 0.6510
C14 C 0.5208(2) 0.79579(12) 0.56001(7)
C15 C 0.6436(2) 0.89363(12) 0.53577(8)
H24 H 0.6543 0.9777 0.5714
C16 C 0.7506(2) 0.86959(14) 0.46004(9)
H25 H 0.8352 0.9370 0.4447
C17 C 0.7344(3) 0.74783(14) 0.40690(9)
H26 H 0.8066 0.7315 0.3550
C18 C 0.6113(3) 0.64967(14) 0.43032(9)
H27 H 0.5992 0.5660 0.3942
C19 C 0.5059(2) 0.67372(13) 0.50650(8)
H28 H 0.4230 0.6060 0.5221
loop_
_geom_bond_atom_site_label_1
_geom_bond_atom_site_label_2
_geom_bond_site_symmetry_1
_geom_bond_site_symmetry_2
C1 H1 1_555 1_555
H2 C1 1_555 1_555
C2 C1 1_555 1_555
H3 C2 1_555 1_555
H4 C2 1_555 1_555
N1 C2 1_555 1_555
C3 N1 1_555 1_555
H5 C3 1_555 1_555
C4 C3 1_555 1_555
O1 C4 1_555 1_555
O2 C4 1_555 1_555
C5 O2 1_555 1_555
C6 C5 1_555 1_555
H6 C6 1_555 1_555
H7 C6 1_555 1_555
H8 C6 1_555 1_555
C7 C5 1_555 1_555
H9 C7 1_555 1_555
H10 C7 1_555 1_555
H11 C7 1_555 1_555
C8 C5 1_555 1_555
H12 C8 1_555 1_555
H13 C8 1_555 1_555
H14 C8 1_555 1_555
C9 C3 1_555 1_555
H15 C9 1_555 1_555
H16 C9 1_555 1_555
C10 C9 1_555 1_555
H17 C10 1_555 1_555
S1 C10 1_555 1_555
O3 S1 1_555 1_555
O4 S1 1_555 1_555
C11 S1 1_555 1_555
H18 C11 1_555 1_555
H19 C11 1_555 1_555
H20 C11 1_555 1_555
C12 N1 1_555 1_555
H21 C12 1_555 1_555
N2 C1 1_555 1_555
C13 N2 1_555 1_555
H22 C13 1_555 1_555
H23 C13 1_555 1_555
C14 C13 1_555 1_555
C15 C14 1_555 1_555
H24 C15 1_555 1_555
C16 C15 1_555 1_555
H25 C16 1_555 1_555
C17 C16 1_555 1_555
H26 C17 1_555 1_555
C18 C17 1_555 1_555
H27 C18 1_555 1_555
C19 C14 1_555 1_555
H28 C19 1_555 1_555
C10 C12 1_555 1_555
C12 N2 1_555 1_555
C18 C19 1_555 1_555

#END
