
#######################################################################
#
#                 Cambridge Crystallographic Data Centre
#                                CCDC 
#
#######################################################################
#
# If this CIF has been generated from an entry in the Cambridge 
# Structural Database, then it will include bibliographic, chemical, 
# crystal, experimental, refinement or atomic coordinate data resulting 
# from the CCDC's data processing and validation procedures.
#
#######################################################################

data_GUVTIB
_chemical_formula_moiety         'C27 H28 N2 O4 S1'
_chemical_name_systematic        
'(3R*,5R*,7S*,7aR*)-Methyl 1-benzyl-3-phenyl-7-(phenylsulfonyl)-hexahydro-1H-pyrrolo[1,2-a]imidazole-5-carboxylate'
_symmetry_cell_setting           monoclinic
_symmetry_space_group_name_H-M   'P 21/c'
_symmetry_Int_Tables_number      14
_space_group_name_Hall           '-P 2ybc'
loop_
_symmetry_equiv_pos_site_id
_symmetry_equiv_pos_as_xyz
1 x,y,z
2 -x,1/2+y,1/2-z
3 -x,-y,-z
4 x,1/2-y,1/2+z
_cell_length_a                   5.6510(2)
_cell_length_b                   12.1055(4)
_cell_length_c                   35.9079(13)
_cell_angle_alpha                90
_cell_angle_beta                 91.485(2)
_cell_angle_gamma                90
_cell_volume                     2455.57
_exptl_crystal_colour            'pale yellow'
_exptl_crystal_description       block
_chemical_melting_point          '175.5-176.6 deg.C'
_cell_formula_units_Z            4
loop_
_atom_site_label
_atom_site_type_symbol
_atom_site_fract_x
_atom_site_fract_y
_atom_site_fract_z
N1 N 0.3625(2) 0.74244(10) 0.07936(3)
C1 C 0.1468(3) 0.67763(13) 0.06927(4)
H1 H 0.0096 0.7063 0.0834
C2 C 0.2167(3) 0.56462(13) 0.08405(4)
H2 H 0.0752 0.5187 0.0885
H3 H 0.3195 0.5256 0.0664
N2 N 0.3448(2) 0.58863(10) 0.11897(3)
C3 C 0.4499(3) 0.69844(12) 0.11546(4)
H4 H 0.6262 0.6918 0.1153
C4 C 0.3775(3) 0.78412(12) 0.14599(4)
H5 H 0.5246 0.8161 0.1577
C5 C 0.2435(3) 0.87606(12) 0.12499(4)
H6 H 0.2912 0.9497 0.1345
H7 H 0.0703 0.8675 0.1274
C6 C 0.3157(3) 0.86106(12) 0.08425(4)
H8 H 0.1852 0.8858 0.0668
C7 C 0.0899(3) 0.68321(13) 0.02803(4)
C8 C -0.1229(3) 0.72744(16) 0.01489(5)
H9 H -0.2354 0.7533 0.0321
C9 C -0.1730(3) 0.73429(18) -0.02330(5)
H10 H -0.3180 0.7661 -0.0319
C10 C -0.0139(3) 0.69526(16) -0.04852(5)
H11 H -0.0489 0.6993 -0.0745
C11 C 0.1971(4) 0.65031(17) -0.03566(5)
H12 H 0.3074 0.6229 -0.0529
C12 C 0.2497(3) 0.64483(16) 0.00222(5)
H13 H 0.3966 0.6145 0.0107
C13 C 0.5157(3) 0.50425(13) 0.13046(5)
H14 H 0.6082 0.5313 0.1524
H15 H 0.6272 0.4919 0.1101
C14 C 0.4002(3) 0.39596(13) 0.14012(5)
C15 C 0.5100(4) 0.29725(16) 0.13137(6)
H16 H 0.6521 0.2983 0.1178
C16 C 0.4149(6) 0.19707(18) 0.14218(8)
H17 H 0.4910 0.1300 0.1358
C17 C 0.2100(6) 0.19478(19) 0.16212(8)
H18 H 0.1462 0.1262 0.1699
C18 C 0.0975(5) 0.29251(18) 0.17079(6)
H19 H -0.0448 0.2910 0.1843
C19 C 0.1916(3) 0.39267(15) 0.15982(5)
H20 H 0.1131 0.4595 0.1658
S1 S 0.20109(6) 0.72648(3) 0.181888(10)
O1 O 0.3337(2) 0.63974(9) 0.20022(3)
O2 O -0.03587(19) 0.70467(9) 0.16778(3)
C20 C 0.1860(3) 0.83808(13) 0.21357(4)
C21 C 0.3743(3) 0.85342(15) 0.23882(5)
H21 H 0.5034 0.8031 0.2397
C22 C 0.3702(3) 0.94330(17) 0.26268(5)
H22 H 0.4987 0.9556 0.2798
C23 C 0.1808(4) 1.01474(17) 0.26172(5)
H23 H 0.1798 1.0763 0.2781
C24 C -0.0076(3) 0.99793(17) 0.23717(6)
H24 H -0.1391 1.0468 0.2371
C25 C -0.0053(3) 0.90938(15) 0.21243(5)
H25 H -0.1328 0.8981 0.1951
C26 C 0.5409(3) 0.92384(13) 0.07683(4)
O3 O 0.7151(2) 0.92025(14) 0.09641(4)
O4 O 0.5252(2) 0.98432(12) 0.04626(4)
C27 C 0.7369(4) 1.0465(2) 0.03755(7)
H26 H 0.7889 1.0894 0.0594
H27 H 0.7017 1.0967 0.0167
H28 H 0.8627 0.9953 0.0306
loop_
_geom_bond_atom_site_label_1
_geom_bond_atom_site_label_2
_geom_bond_site_symmetry_1
_geom_bond_site_symmetry_2
N1 C1 1_555 1_555
C1 H1 1_555 1_555
C2 C1 1_555 1_555
H2 C2 1_555 1_555
H3 C2 1_555 1_555
N2 C2 1_555 1_555
C3 N1 1_555 1_555
H4 C3 1_555 1_555
C4 C3 1_555 1_555
H5 C4 1_555 1_555
C5 C4 1_555 1_555
H6 C5 1_555 1_555
H7 C5 1_555 1_555
C6 N1 1_555 1_555
H8 C6 1_555 1_555
C7 C1 1_555 1_555
C8 C7 1_555 1_555
H9 C8 1_555 1_555
C9 C8 1_555 1_555
H10 C9 1_555 1_555
C10 C9 1_555 1_555
H11 C10 1_555 1_555
C11 C10 1_555 1_555
H12 C11 1_555 1_555
C12 C7 1_555 1_555
H13 C12 1_555 1_555
C13 N2 1_555 1_555
H14 C13 1_555 1_555
H15 C13 1_555 1_555
C14 C13 1_555 1_555
C15 C14 1_555 1_555
H16 C15 1_555 1_555
C16 C15 1_555 1_555
H17 C16 1_555 1_555
C17 C16 1_555 1_555
H18 C17 1_555 1_555
C18 C17 1_555 1_555
H19 C18 1_555 1_555
C19 C14 1_555 1_555
H20 C19 1_555 1_555
S1 C4 1_555 1_555
O1 S1 1_555 1_555
O2 S1 1_555 1_555
C20 S1 1_555 1_555
C21 C20 1_555 1_555
H21 C21 1_555 1_555
C22 C21 1_555 1_555
H22 C22 1_555 1_555
C23 C22 1_555 1_555
H23 C23 1_555 1_555
C24 C23 1_555 1_555
H24 C24 1_555 1_555
C25 C20 1_555 1_555
H25 C25 1_555 1_555
C26 C6 1_555 1_555
O3 C26 1_555 1_555
O4 C26 1_555 1_555
C27 O4 1_555 1_555
H26 C27 1_555 1_555
H27 C27 1_555 1_555
H28 C27 1_555 1_555
N2 C3 1_555 1_555
C5 C6 1_555 1_555
C11 C12 1_555 1_555
C18 C19 1_555 1_555
C24 C25 1_555 1_555

#END
