
#######################################################################
#
#                 Cambridge Crystallographic Data Centre
#                                CCDC 
#
#######################################################################
#
# If this CIF has been generated from an entry in the Cambridge 
# Structural Database, then it will include bibliographic, chemical, 
# crystal, experimental, refinement or atomic coordinate data resulting 
# from the CCDC's data processing and validation procedures.
#
#######################################################################

data_GUVWEB
_chemical_formula_moiety         'C21 H29 N1 O7'
_chemical_name_systematic        
'benzyl ((5-(2,2-dimethyl-1,3-dioxolan-4-yl)-2,2-dimethyltetrahydrofuro[2,3-d][1,3]dioxol-6-yl)methyl)carbamate'
_symmetry_cell_setting           monoclinic
_symmetry_space_group_name_H-M   'P 21'
_symmetry_Int_Tables_number      4
_space_group_name_Hall           'P 2yb'
loop_
_symmetry_equiv_pos_site_id
_symmetry_equiv_pos_as_xyz
1 x,y,z
2 -x,1/2+y,-z
_cell_length_a                   9.3235(3)
_cell_length_b                   5.41180(10)
_cell_length_c                   20.4381(7)
_cell_angle_alpha                90
_cell_angle_beta                 96.7480(10)
_cell_angle_gamma                90
_cell_volume                     1024.1
_exptl_crystal_colour            colorless
_exptl_crystal_description       block
_cell_formula_units_Z            2
loop_
_atom_site_label
_atom_site_type_symbol
_atom_site_fract_x
_atom_site_fract_y
_atom_site_fract_z
O1 O 0.34514(16) 0.3163(3) 0.37758(7)
C1 C 0.2837(2) 0.3609(4) 0.31216(10)
H1 H 0.2922 0.5356 0.3006
C2 C 0.3645(2) 0.1973(4) 0.26790(10)
H2 H 0.3840 0.2807 0.2273
C3 C 0.5014(2) 0.1255(4) 0.31153(9)
H3 H 0.5695 0.2635 0.3118
C4 C 0.4468(2) 0.1149(4) 0.37946(9)
H4 H 0.3965 -0.0419 0.3842
C5 C 0.5571(2) 0.1572(4) 0.43934(10)
H5 H 0.5063 0.1803 0.4782
C6 C 0.6694(2) -0.0473(4) 0.45328(10)
H6 H 0.6898 -0.0777 0.5002
H7 H 0.6366 -0.1997 0.4314
O2 O 0.79329(15) 0.0472(3) 0.42712(7)
C7 C 0.7920(2) 0.3060(4) 0.43977(10)
O3 O 0.64107(15) 0.3721(3) 0.43018(7)
C8 C 0.8696(3) 0.4342(4) 0.38914(12)
H8 H 0.8217 0.3997 0.3459
H9 H 0.9674 0.3758 0.3923
H10 H 0.8695 0.6092 0.3968
C9 C 0.8532(2) 0.3653(4) 0.51018(11)
H11 H 0.9549 0.3308 0.5161
H12 H 0.8057 0.2657 0.5400
H13 H 0.8376 0.5369 0.5190
O4 O 0.13924(16) 0.2825(3) 0.30147(9)
C10 C 0.1257(2) 0.0752(4) 0.25826(11)
O5 O 0.27047(15) -0.0114(3) 0.25586(7)
C11 C 0.0589(3) 0.1589(6) 0.19055(13)
H14 H 0.1160 0.2897 0.1752
H15 H -0.0375 0.2176 0.1932
H16 H 0.0558 0.0225 0.1604
C12 C 0.0396(3) -0.1209(5) 0.28758(14)
H17 H -0.0564 -0.0612 0.2904
H18 H 0.0849 -0.1617 0.3309
H19 H 0.0352 -0.2656 0.2602
C13 C 0.5763(2) -0.1049(4) 0.29004(10)
H20 H 0.6569 -0.1470 0.3226
H21 H 0.5093 -0.2427 0.2863
N1 N 0.6281(2) -0.0585(4) 0.22661(9)
C14 C 0.6706(2) -0.2436(4) 0.18935(10)
O6 O 0.66529(19) -0.4616(3) 0.20170(8)
O7 O 0.71820(19) -0.1464(3) 0.13471(8)
C15 C 0.7650(3) -0.3172(5) 0.08682(11)
H22 H 0.7087 -0.4682 0.0856
H23 H 0.8662 -0.3584 0.0979
C16 C 0.7418(3) -0.1870(5) 0.02154(11)
C17 C 0.8230(3) 0.0185(6) 0.00934(12)
H24 H 0.8968 0.0708 0.0409
C18 C 0.7954(3) 0.1460(6) -0.04903(14)
H25 H 0.8502 0.2845 -0.0565
C19 C 0.6868(3) 0.0694(6) -0.09655(13)
H26 H 0.6679 0.1563 -0.1359
C20 C 0.6074(3) -0.1351(7) -0.08519(13)
H27 H 0.5349 -0.1882 -0.1173
C21 C 0.6334(3) -0.2644(6) -0.02641(13)
H28 H 0.5783 -0.4028 -0.0191
H29 H 0.647(3) 0.080(5) 0.2161(12)
loop_
_geom_bond_atom_site_label_1
_geom_bond_atom_site_label_2
_geom_bond_site_symmetry_1
_geom_bond_site_symmetry_2
O1 C1 1_555 1_555
C1 H1 1_555 1_555
C2 C1 1_555 1_555
H2 C2 1_555 1_555
C3 C2 1_555 1_555
H3 C3 1_555 1_555
C4 O1 1_555 1_555
H4 C4 1_555 1_555
C5 C4 1_555 1_555
H5 C5 1_555 1_555
C6 C5 1_555 1_555
H6 C6 1_555 1_555
H7 C6 1_555 1_555
O2 C6 1_555 1_555
C7 O2 1_555 1_555
O3 C5 1_555 1_555
C8 C7 1_555 1_555
H8 C8 1_555 1_555
H9 C8 1_555 1_555
H10 C8 1_555 1_555
C9 C7 1_555 1_555
H11 C9 1_555 1_555
H12 C9 1_555 1_555
H13 C9 1_555 1_555
O4 C1 1_555 1_555
C10 O4 1_555 1_555
O5 C2 1_555 1_555
C11 C10 1_555 1_555
H14 C11 1_555 1_555
H15 C11 1_555 1_555
H16 C11 1_555 1_555
C12 C10 1_555 1_555
H17 C12 1_555 1_555
H18 C12 1_555 1_555
H19 C12 1_555 1_555
C13 C3 1_555 1_555
H20 C13 1_555 1_555
H21 C13 1_555 1_555
N1 C13 1_555 1_555
C14 N1 1_555 1_555
O6 C14 1_555 1_555
O7 C14 1_555 1_555
C15 O7 1_555 1_555
H22 C15 1_555 1_555
H23 C15 1_555 1_555
C16 C15 1_555 1_555
C17 C16 1_555 1_555
H24 C17 1_555 1_555
C18 C17 1_555 1_555
H25 C18 1_555 1_555
C19 C18 1_555 1_555
H26 C19 1_555 1_555
C20 C19 1_555 1_555
H27 C20 1_555 1_555
C21 C16 1_555 1_555
H28 C21 1_555 1_555
H29 N1 1_555 1_555
C3 C4 1_555 1_555
C7 O3 1_555 1_555
C10 O5 1_555 1_555
C20 C21 1_555 1_555

#END
