
#######################################################################
#
#                 Cambridge Crystallographic Data Centre
#                                CCDC 
#
#######################################################################
#
# If this CIF has been generated from an entry in the Cambridge 
# Structural Database, then it will include bibliographic, chemical, 
# crystal, experimental, refinement or atomic coordinate data resulting 
# from the CCDC's data processing and validation procedures.
#
#######################################################################

data_GUYBUX
_chemical_name_common            '1,2-bis(4-Pyridyl)ethylene bis(capric acid)'
_chemical_formula_moiety         'C12 H10 N2,2(C10 H20 O2)'
_chemical_name_systematic        '1,2-bis(4-Pyridyl)ethylene bis(decanoic acid)'
_symmetry_cell_setting           triclinic
_symmetry_space_group_name_H-M   'P -1'
_symmetry_Int_Tables_number      2
_space_group_name_Hall           '-P 1'
loop_
_symmetry_equiv_pos_site_id
_symmetry_equiv_pos_as_xyz
1 x,y,z
2 -x,-y,-z
_cell_length_a                   5.1378(8)
_cell_length_b                   8.0684(10)
_cell_length_c                   19.435(3)
_cell_angle_alpha                98.549(9)
_cell_angle_beta                 90.326(9)
_cell_angle_gamma                98.463(10)
_cell_volume                     787.715
_exptl_crystal_colour            colorless
_exptl_crystal_description       block
_cell_formula_units_Z            1
loop_
_atom_site_label
_atom_site_type_symbol
_atom_site_fract_x
_atom_site_fract_y
_atom_site_fract_z
C1 C 0.9511(14) 0.5740(8) -0.2123(3)
H1 H 0.7822 0.5200 -0.1999
H2 H 1.0072 0.5108 -0.2539
H3 H 0.9381 0.6872 -0.2201
C2 C 1.1486(14) 0.5801(8) -0.1539(3)
H4 H 1.1504 0.4659 -0.1440
H5 H 1.3224 0.6214 -0.1691
C3 C 1.0929(12) 0.6904(7) -0.0884(3)
H6 H 0.9185 0.6486 -0.0737
H7 H 1.0895 0.8039 -0.0989
C4 C 1.2840(12) 0.7018(7) -0.0283(3)
H8 H 1.2883 0.5885 -0.0177
H9 H 1.4585 0.7447 -0.0426
C5 C 1.2221(12) 0.8127(7) 0.0369(3)
H10 H 1.0478 0.7693 0.0511
H11 H 1.2163 0.9256 0.0260
C6 C 1.4128(12) 0.8271(6) 0.0980(3)
H12 H 1.4205 0.7143 0.1089
H13 H 1.5870 0.8724 0.0843
C7 C 1.3436(12) 0.9375(6) 0.1631(2)
H14 H 1.1694 0.8924 0.1768
H15 H 1.3365 1.0504 0.1524
C8 C 1.5343(12) 0.9507(7) 0.2238(3)
H16 H 1.7089 0.9945 0.2098
H17 H 1.5399 0.8379 0.2348
C9 C 1.4671(11) 1.0635(6) 0.2892(3)
H18 H 1.6134 1.0773 0.3224
H19 H 1.4549 1.1745 0.2771
C10 C 1.2190(12) 1.0061(6) 0.3255(3)
O1 O 1.1104(8) 1.0970(4) 0.3651(2)
O2 O 1.1420(8) 0.8417(4) 0.31124(17)
H20 H 1.0070 0.8162 0.3320
C11 C 0.3014(9) 0.6209(5) 0.4618(2)
C12 C 0.3527(12) 0.5281(6) 0.3985(3)
H21 H 0.237(9) 0.440(5) 0.381(2)
C13 C 0.5559(12) 0.5879(6) 0.3601(3)
H22 H 0.617(9) 0.520(5) 0.320(2)
C14 C 0.0893(10) 0.5694(5) 0.5061(2)
H23 H 0.0760 0.6412 0.5476
C15 C 0.6813(12) 0.8154(6) 0.4418(3)
H24 H 0.849(10) 0.906(6) 0.453(2)
C16 C 0.4800(12) 0.7667(6) 0.4831(3)
H25 H 0.428(8) 0.835(4) 0.5275(19)
N1 N 0.7299(8) 0.7285(5) 0.3800(2)
C14A C -0.0893(10) 0.4306(5) 0.4939(2)
C11A C -0.3014(9) 0.3791(5) 0.5382(2)
C12A C -0.3527(12) 0.4719(6) 0.6015(3)
H21A H -0.237(9) 0.560(5) 0.619(2)
C13A C -0.5559(12) 0.4121(6) 0.6399(3)
H22A H -0.617(9) 0.480(5) 0.680(2)
N1A N -0.7299(8) 0.2715(5) 0.6200(2)
C15A C -0.6813(12) 0.1846(6) 0.5582(3)
H24A H -0.849(10) 0.094(6) 0.547(2)
C16A C -0.4800(12) 0.2333(6) 0.5169(3)
H25A H -0.428(8) 0.165(4) 0.4725(19)
H23A H -0.0760 0.3588 0.4524
loop_
_geom_bond_atom_site_label_1
_geom_bond_atom_site_label_2
_geom_bond_site_symmetry_1
_geom_bond_site_symmetry_2
C1 H1 1_555 1_555
H2 C1 1_555 1_555
H3 C1 1_555 1_555
C2 C1 1_555 1_555
H4 C2 1_555 1_555
H5 C2 1_555 1_555
C3 C2 1_555 1_555
H6 C3 1_555 1_555
H7 C3 1_555 1_555
C4 C3 1_555 1_555
H8 C4 1_555 1_555
H9 C4 1_555 1_555
C5 C4 1_555 1_555
H10 C5 1_555 1_555
H11 C5 1_555 1_555
C6 C5 1_555 1_555
H12 C6 1_555 1_555
H13 C6 1_555 1_555
C7 C6 1_555 1_555
H14 C7 1_555 1_555
H15 C7 1_555 1_555
C8 C7 1_555 1_555
H16 C8 1_555 1_555
H17 C8 1_555 1_555
C9 C8 1_555 1_555
H18 C9 1_555 1_555
H19 C9 1_555 1_555
C10 C9 1_555 1_555
O1 C10 1_555 1_555
O2 C10 1_555 1_555
H20 O2 1_555 1_555
C11 C12 1_555 1_555
C12 H21 1_555 1_555
C13 C12 1_555 1_555
H22 C13 1_555 1_555
C14 C11 1_555 1_555
H23 C14 1_555 1_555
C15 H24 1_555 1_555
C16 C11 1_555 1_555
H25 C16 1_555 1_555
N1 C13 1_555 1_555
C14A C14 1_555 1_555
C11A C14A 1_555 1_555
C12A C11A 1_555 1_555
H21A C12A 1_555 1_555
C13A C12A 1_555 1_555
H22A C13A 1_555 1_555
N1A C13A 1_555 1_555
C15A N1A 1_555 1_555
H24A C15A 1_555 1_555
C16A C11A 1_555 1_555
H25A C16A 1_555 1_555
H23A C14A 1_555 1_555
C15 C16 1_555 1_555
C15 N1 1_555 1_555
C15A C16A 1_555 1_555

#END
