
#######################################################################
#
#                 Cambridge Crystallographic Data Centre
#                                CCDC 
#
#######################################################################
#
# If this CIF has been generated from an entry in the Cambridge 
# Structural Database, then it will include bibliographic, chemical, 
# crystal, experimental, refinement or atomic coordinate data resulting 
# from the CCDC's data processing and validation procedures.
#
#######################################################################

data_GUZNAR
_chemical_formula_moiety         'C26 H18 O4'
_chemical_name_systematic        
5,10-Diethynyl-5,10-dihydroxy-4a,9a-dimethyl-4a,5,9a,10,10c,10d-hexahydrodicyclopenta[def,mno]chrysene-4,9-dione
_symmetry_cell_setting           triclinic
_symmetry_space_group_name_H-M   'P -1'
_symmetry_Int_Tables_number      2
_space_group_name_Hall           '-P 1'
loop_
_symmetry_equiv_pos_site_id
_symmetry_equiv_pos_as_xyz
1 x,y,z
2 -x,-y,-z
_cell_length_a                   8.2648(9)
_cell_length_b                   9.2931(10)
_cell_length_c                   14.3522(15)
_cell_angle_alpha                75.654(2)
_cell_angle_beta                 80.148(2)
_cell_angle_gamma                67.897(2)
_cell_volume                     985.74
_exptl_crystal_colour            colorless
_cell_formula_units_Z            2
_exptl_crystal_recrystallization_method 'ethyl acetate/hexanes'
loop_
_atom_site_label
_atom_site_type_symbol
_atom_site_fract_x
_atom_site_fract_y
_atom_site_fract_z
O1 O 0.40663(16) 0.69038(14) 0.01758(7)
O2 O 0.75358(15) 0.47485(14) 0.06177(7)
H1 H 0.6964 0.4267 0.0504
O3 O 0.73543(16) 0.92544(14) 0.39805(8)
O4 O 0.36098(16) 1.03514(13) 0.41383(8)
H2 H 0.3446 1.0190 0.4729
C1 C 0.60096(18) 0.64070(16) 0.32752(9)
H3 H 0.6464 0.5325 0.3652
C2 C 0.55993(18) 0.76430(16) 0.39393(9)
C3 C 0.37275(19) 0.89974(17) 0.38105(10)
C4 C 0.34227(18) 0.95094(16) 0.27447(10)
C5 C 0.2882(2) 1.10530(18) 0.22302(11)
H4 H 0.2633 1.1884 0.2545
C6 C 0.2705(2) 1.13773(19) 0.12391(12)
H5 H 0.2319 1.2425 0.0907
C7 C 0.3093(2) 1.01675(19) 0.07454(11)
H6 H 0.2983 1.0385 0.0086
C8 C 0.36543(18) 0.86115(17) 0.12686(9)
C9 C 0.37727(17) 0.82998(16) 0.22529(9)
C10 C 0.45022(17) 0.65776(16) 0.26994(9)
H7 H 0.3597 0.6254 0.3138
C11 C 0.50184(18) 0.57289(16) 0.18137(9)
C12 C 0.42431(18) 0.70866(17) 0.09590(9)
C13 C 0.70851(18) 0.49855(16) 0.15809(9)
C14 C 0.79431(17) 0.61122(16) 0.17003(9)
C15 C 0.91592(18) 0.66026(18) 0.10380(10)
H8 H 0.9569 0.6183 0.0482
C16 C 0.97723(19) 0.7725(2) 0.12013(11)
H9 H 1.0595 0.8032 0.0752
C17 C 0.9187(2) 0.8390(2) 0.20152(11)
H10 H 0.9588 0.9146 0.2115
C18 C 0.79726(19) 0.78825(17) 0.26780(10)
C19 C 0.74004(17) 0.67416(16) 0.25327(9)
C20 C 0.70242(19) 0.84116(17) 0.35699(9)
C21 C 0.5801(2) 0.68454(19) 0.50042(10)
H11 H 0.6978 0.6114 0.5076
H12 H 0.4995 0.6285 0.5224
H13 H 0.5555 0.7638 0.5380
C22 C 0.2344(2) 0.8374(2) 0.43353(11)
C23 C 0.1193(3) 0.7955(3) 0.47531(14)
H14 H 0.0282 0.7624 0.5083
C24 C 0.4166(2) 0.44739(19) 0.19488(11)
H15 H 0.2914 0.4967 0.2024
H16 H 0.4556 0.3677 0.2514
H17 H 0.4494 0.3992 0.1393
C25 C 0.7776(2) 0.34779(18) 0.22724(11)
C26 C 0.8327(3) 0.2279(2) 0.28347(14)
H18 H 0.8760 0.1336 0.3277
loop_
_geom_bond_atom_site_label_1
_geom_bond_atom_site_label_2
_geom_bond_site_symmetry_1
_geom_bond_site_symmetry_2
O1 C12 1_555 1_555
O2 H1 1_555 1_555
O3 C20 1_555 1_555
O4 H2 1_555 1_555
C1 H3 1_555 1_555
C2 C1 1_555 1_555
C3 O4 1_555 1_555
C4 C3 1_555 1_555
C5 C4 1_555 1_555
H4 C5 1_555 1_555
C6 C5 1_555 1_555
H5 C6 1_555 1_555
C7 C6 1_555 1_555
H6 C7 1_555 1_555
C8 C7 1_555 1_555
C9 C4 1_555 1_555
C10 C1 1_555 1_555
H7 C10 1_555 1_555
C11 C10 1_555 1_555
C12 C8 1_555 1_555
C13 O2 1_555 1_555
C14 C13 1_555 1_555
C15 C14 1_555 1_555
H8 C15 1_555 1_555
C16 C15 1_555 1_555
H9 C16 1_555 1_555
C17 C16 1_555 1_555
H10 C17 1_555 1_555
C18 C17 1_555 1_555
C19 C1 1_555 1_555
C20 C2 1_555 1_555
C21 C2 1_555 1_555
H11 C21 1_555 1_555
H12 C21 1_555 1_555
H13 C21 1_555 1_555
C22 C3 1_555 1_555
C23 C22 1_555 1_555
H14 C23 1_555 1_555
C24 C11 1_555 1_555
H15 C24 1_555 1_555
H16 C24 1_555 1_555
H17 C24 1_555 1_555
C25 C13 1_555 1_555
C26 C25 1_555 1_555
H18 C26 1_555 1_555
C2 C3 1_555 1_555
C8 C9 1_555 1_555
C9 C10 1_555 1_555
C11 C12 1_555 1_555
C11 C13 1_555 1_555
C14 C19 1_555 1_555
C18 C19 1_555 1_555
C18 C20 1_555 1_555

#END
