
#######################################################################
#
#                 Cambridge Crystallographic Data Centre
#                                CCDC 
#
#######################################################################
#
# If this CIF has been generated from an entry in the Cambridge 
# Structural Database, then it will include bibliographic, chemical, 
# crystal, experimental, refinement or atomic coordinate data resulting 
# from the CCDC's data processing and validation procedures.
#
#######################################################################

data_GUZTEB01
_chemical_compound_source        'Psidium guajava L'
_chemical_name_common            'Psidial A'
_chemical_formula_moiety         'C30 H34 O5'
_chemical_name_systematic        
7,9-Dihydroxy-2,2,4a-trimethyl-13-methylene-10-phenyl-1,2,2a,3,4,4a,10,10a,11,12,13,13a-dodecahydrocyclobuta[6,7]cyclonona[1,2-b]chromene-6,8-dicarbaldehyde
_symmetry_cell_setting           tetragonal
_symmetry_space_group_name_H-M   'P 43 21 2'
_symmetry_Int_Tables_number      96
_space_group_name_Hall           'P 4nw 2abw'
loop_
_symmetry_equiv_pos_site_id
_symmetry_equiv_pos_as_xyz
1 x,y,z
2 -x,-y,1/2+z
3 1/2-y,1/2+x,3/4+z
4 1/2+y,1/2-x,1/4+z
5 1/2-x,1/2+y,3/4-z
6 1/2+x,1/2-y,1/4-z
7 y,x,-z
8 -y,-x,1/2-z
_cell_length_a                   11.196(1)
_cell_length_b                   11.196(1)
_cell_length_c                   40.747(1)
_cell_angle_alpha                90
_cell_angle_beta                 90
_cell_angle_gamma                90
_cell_volume                     5107.65
_exptl_crystal_colour            colorless
_exptl_crystal_description       plate
_chemical_melting_point          '523 K'
_cell_formula_units_Z            8
loop_
_atom_site_label
_atom_site_type_symbol
_atom_site_fract_x
_atom_site_fract_y
_atom_site_fract_z
O1 O 0.13067(16) 0.72532(16) 0.03793(5)
O2 O 0.28945(19) 1.11451(18) 0.03872(6)
H1 H 0.2670 1.1842 0.0395
O3 O 0.1432(3) 1.2908(2) 0.04199(7)
O4 O -0.12721(18) 1.0567(2) 0.04716(6)
H2 H -0.1758 1.0019 0.0477
O5 O -0.20542(18) 0.8443(2) 0.04276(6)
C1 C 0.1950(2) 1.0423(2) 0.03942(7)
C2 C 0.0793(3) 1.0909(2) 0.04257(7)
C3 C -0.0170(2) 1.0119(3) 0.04370(6)
C4 C 0.0001(2) 0.8882(2) 0.04104(6)
C5 C 0.1190(2) 0.8445(2) 0.03805(6)
C6 C 0.2342(2) 0.6656(2) 0.02154(7)
C7 C 0.3305(2) 0.7567(2) 0.01160(6)
H3 H 0.3060 0.7874 -0.0099
C8 C 0.3396(2) 0.8678(2) 0.03448(6)
H4 H 0.3885 0.9269 0.0229
C9 C 0.2160(2) 0.9198(2) 0.03704(6)
C10 C 0.4524(2) 0.6973(3) 0.00617(7)
H5 H 0.4929 0.6898 0.0271
H6 H 0.4402 0.6175 -0.0025
C11 C 0.5313(2) 0.7673(3) -0.01738(7)
H7 H 0.5479 0.8452 -0.0080
H8 H 0.6069 0.7258 -0.0199
C12 C 0.4755(3) 0.7837(3) -0.05077(7)
C13 C 0.4304(3) 0.6717(3) -0.06699(7)
H9 H 0.4821 0.6046 -0.0608
C14 C 0.2971(3) 0.6343(3) -0.06242(7)
H10 H 0.2490 0.7074 -0.0620
C15 C 0.2485(3) 0.5506(3) -0.03589(7)
H11 H 0.3157 0.5102 -0.0258
H12 H 0.2000 0.4902 -0.0465
C16 C 0.1731(2) 0.6085(2) -0.00834(7)
H13 H 0.1239 0.6696 -0.0185
H14 H 0.1192 0.5476 -0.0001
C17 C 0.2986(4) 0.5878(3) -0.09854(8)
C18 C 0.4083(4) 0.6681(4) -0.10417(9)
H15 H 0.4718 0.6296 -0.1164
H16 H 0.3890 0.7454 -0.1135
C19 C 0.3970(2) 0.8494(3) 0.06791(7)
C20 C 0.3317(3) 0.8243(3) 0.09559(7)
H17 H 0.2490 0.8184 0.0941
C21 C 0.3869(3) 0.8079(4) 0.12547(8)
H18 H 0.3411 0.7907 0.1439
C22 C 0.5088(3) 0.8167(4) 0.12835(9)
H19 H 0.5459 0.8049 0.1485
C23 C 0.5738(3) 0.8430(4) 0.10140(10)
H20 H 0.6563 0.8501 0.1032
C24 C 0.5198(3) 0.8596(3) 0.07105(8)
H21 H 0.5662 0.8777 0.0528
C25 C 0.0619(3) 1.2174(3) 0.04344(8)
H22 H -0.0158 1.2459 0.0452
C26 C -0.1007(2) 0.8102(3) 0.04054(7)
H23 H -0.0868 0.7287 0.0384
C27 C 0.2739(3) 0.5727(3) 0.04619(7)
H24 H 0.3226 0.6099 0.0627
H25 H 0.3191 0.5119 0.0352
H26 H 0.2050 0.5374 0.0563
C28 C 0.3304(5) 0.4553(4) -0.10141(10)
H27 H 0.3996 0.4387 -0.0883
H28 H 0.3469 0.4363 -0.1239
H29 H 0.2645 0.4079 -0.0938
C29 C 0.1867(4) 0.6158(5) -0.11811(10)
H30 H 0.1702 0.6998 -0.1169
H31 H 0.1205 0.5719 -0.1092
H32 H 0.1986 0.5933 -0.1406
C30 C 0.4670(3) 0.8914(3) -0.06398(9)
H33 H 0.4315 0.9009 -0.0845
H34 H 0.4965 0.9575 -0.0528
loop_
_geom_bond_atom_site_label_1
_geom_bond_atom_site_label_2
_geom_bond_site_symmetry_1
_geom_bond_site_symmetry_2
O1 C5 1_555 1_555
O2 H1 1_555 1_555
O3 C25 1_555 1_555
O4 H2 1_555 1_555
O5 C26 1_555 1_555
C1 O2 1_555 1_555
C2 C1 1_555 1_555
C3 O4 1_555 1_555
C4 C3 1_555 1_555
C5 C4 1_555 1_555
C6 O1 1_555 1_555
C7 C6 1_555 1_555
H3 C7 1_555 1_555
C8 C7 1_555 1_555
H4 C8 1_555 1_555
C9 C1 1_555 1_555
C10 C7 1_555 1_555
H5 C10 1_555 1_555
H6 C10 1_555 1_555
C11 C10 1_555 1_555
H7 C11 1_555 1_555
H8 C11 1_555 1_555
C12 C11 1_555 1_555
C13 C12 1_555 1_555
H9 C13 1_555 1_555
C14 C13 1_555 1_555
H10 C14 1_555 1_555
C15 C14 1_555 1_555
H11 C15 1_555 1_555
H12 C15 1_555 1_555
C16 C6 1_555 1_555
H13 C16 1_555 1_555
H14 C16 1_555 1_555
C17 C14 1_555 1_555
C18 C13 1_555 1_555
H15 C18 1_555 1_555
H16 C18 1_555 1_555
C19 C8 1_555 1_555
C20 C19 1_555 1_555
H17 C20 1_555 1_555
C21 C20 1_555 1_555
H18 C21 1_555 1_555
C22 C21 1_555 1_555
H19 C22 1_555 1_555
C23 C22 1_555 1_555
H20 C23 1_555 1_555
C24 C19 1_555 1_555
H21 C24 1_555 1_555
C25 C2 1_555 1_555
H22 C25 1_555 1_555
C26 C4 1_555 1_555
H23 C26 1_555 1_555
C27 C6 1_555 1_555
H24 C27 1_555 1_555
H25 C27 1_555 1_555
H26 C27 1_555 1_555
C28 C17 1_555 1_555
H27 C28 1_555 1_555
H28 C28 1_555 1_555
H29 C28 1_555 1_555
C29 C17 1_555 1_555
H30 C29 1_555 1_555
H31 C29 1_555 1_555
H32 C29 1_555 1_555
C30 C12 1_555 1_555
H33 C30 1_555 1_555
H34 C30 1_555 1_555
C2 C3 1_555 1_555
C5 C9 1_555 1_555
C8 C9 1_555 1_555
C15 C16 1_555 1_555
C17 C18 1_555 1_555
C23 C24 1_555 1_555

#END
