
#######################################################################
#
#                 Cambridge Crystallographic Data Centre
#                                CCDC 
#
#######################################################################
#
# If this CIF has been generated from an entry in the Cambridge 
# Structural Database, then it will include bibliographic, chemical, 
# crystal, experimental, refinement or atomic coordinate data resulting 
# from the CCDC's data processing and validation procedures.
#
#######################################################################

data_HABGEY
_chemical_compound_source        'liverwort Frullania inouei'
_chemical_formula_moiety         'C20 H28 O3'
_chemical_name_systematic        
3,4a,7,7,10a-Pentamethyl-3-vinyl-2,3,6a,7,10a,10b-hexahydro-1H-benzo[f]chromene-5,8(4aH,6H)-dione
_symmetry_cell_setting           orthorhombic
_symmetry_space_group_name_H-M   'P 21 21 21'
_symmetry_Int_Tables_number      19
_space_group_name_Hall           'P 2ac 2ab'
loop_
_symmetry_equiv_pos_site_id
_symmetry_equiv_pos_as_xyz
1 x,y,z
2 1/2-x,-y,1/2+z
3 1/2+x,1/2-y,-z
4 -x,1/2+y,1/2-z
_cell_length_a                   6.3107(6)
_cell_length_b                   12.2516(12)
_cell_length_c                   22.849(2)
_cell_angle_alpha                90
_cell_angle_beta                 90
_cell_angle_gamma                90
_cell_volume                     1766.6
_exptl_crystal_colour            colorless
_exptl_crystal_description       prism
_chemical_melting_point          '209-210 deg.C'
_cell_formula_units_Z            4
_exptl_crystal_recrystallization_method methanol
loop_
_atom_site_label
_atom_site_type_symbol
_atom_site_fract_x
_atom_site_fract_y
_atom_site_fract_z
C1 C 0.1640(4) 0.5316(2) 0.19719(12)
C2 C 0.0968(4) 0.6322(2) 0.22524(11)
H1 H -0.0124 0.6292 0.2525
C3 C 0.1847(4) 0.7282(2) 0.21354(10)
H2 H 0.1343 0.7900 0.2327
C4 C 0.3641(3) 0.74056(17) 0.17020(8)
C5 C 0.3210(4) 0.65774(16) 0.12048(8)
H3 H 0.1839 0.6796 0.1041
C6 C 0.2894(4) 0.53630(19) 0.13995(10)
C7 C 0.4939(5) 0.4713(2) 0.14781(11)
H4 H 0.5667 0.4665 0.1110
H5 H 0.4607 0.3992 0.1615
H6 H 0.5830 0.5074 0.1759
C8 C 0.1513(6) 0.4789(2) 0.09392(13)
H7 H 0.0173 0.5157 0.0909
H8 H 0.1285 0.4044 0.1054
H9 H 0.2216 0.4808 0.0567
C9 C 0.5705(4) 0.7213(2) 0.20459(10)
H10 H 0.5568 0.6563 0.2278
H11 H 0.5972 0.7825 0.2297
H12 H 0.6862 0.7128 0.1777
C10 C 0.3534(3) 0.85594(16) 0.14221(8)
H13 H 0.2116 0.8603 0.1249
C11 C 0.5076(3) 0.87603(16) 0.09030(8)
C12 C 0.4751(3) 0.78490(17) 0.04520(8)
C13 C 0.4789(4) 0.67040(16) 0.06984(8)
H14 H 0.6205 0.6537 0.0837
H15 H 0.4438 0.6188 0.0391
C14 C 0.7475(3) 0.8771(2) 0.10467(10)
H16 H 0.7691 0.9091 0.1426
H17 H 0.8214 0.9193 0.0757
H18 H 0.8007 0.8037 0.1046
C15 C 0.3668(4) 0.95424(18) 0.18345(9)
H19 H 0.2765 0.9427 0.2172
H20 H 0.5113 0.9638 0.1970
C16 C 0.2951(4) 1.05475(18) 0.14998(9)
H21 H 0.3086 1.1182 0.1751
H22 H 0.1465 1.0468 0.1400
C17 C 0.4222(4) 1.07414(17) 0.09388(10)
C18 C 0.6350(5) 1.1281(2) 0.10700(13)
H23 H 0.7248 1.1230 0.0732
H24 H 0.7012 1.0917 0.1394
H25 H 0.6128 1.2035 0.1166
C19 C 0.2956(5) 1.1484(2) 0.05439(12)
H26 H 0.2764 1.2197 0.0673
C20 C 0.2125(7) 1.1244(3) 0.00562(14)
H27 H 0.2268 1.0542 -0.0094
H28 H 0.1373 1.1769 -0.0152
O1 O 0.1205(4) 0.44394(17) 0.21931(10)
O2 O 0.4505(3) 0.80287(12) -0.00601(5)
O3 O 0.4472(3) 0.97442(11) 0.06109(6)
loop_
_geom_bond_atom_site_label_1
_geom_bond_atom_site_label_2
_geom_bond_site_symmetry_1
_geom_bond_site_symmetry_2
C1 C2 1_555 1_555
C2 H1 1_555 1_555
C3 C2 1_555 1_555
H2 C3 1_555 1_555
C4 C3 1_555 1_555
C5 C4 1_555 1_555
H3 C5 1_555 1_555
C6 C1 1_555 1_555
C7 C6 1_555 1_555
H4 C7 1_555 1_555
H5 C7 1_555 1_555
H6 C7 1_555 1_555
C8 C6 1_555 1_555
H7 C8 1_555 1_555
H8 C8 1_555 1_555
H9 C8 1_555 1_555
C9 C4 1_555 1_555
H10 C9 1_555 1_555
H11 C9 1_555 1_555
H12 C9 1_555 1_555
C10 C4 1_555 1_555
H13 C10 1_555 1_555
C11 C10 1_555 1_555
C12 C11 1_555 1_555
C13 C5 1_555 1_555
H14 C13 1_555 1_555
H15 C13 1_555 1_555
C14 C11 1_555 1_555
H16 C14 1_555 1_555
H17 C14 1_555 1_555
H18 C14 1_555 1_555
C15 C10 1_555 1_555
H19 C15 1_555 1_555
H20 C15 1_555 1_555
C16 C15 1_555 1_555
H21 C16 1_555 1_555
H22 C16 1_555 1_555
C17 C16 1_555 1_555
C18 C17 1_555 1_555
H23 C18 1_555 1_555
H24 C18 1_555 1_555
H25 C18 1_555 1_555
C19 C17 1_555 1_555
H26 C19 1_555 1_555
C20 C19 1_555 1_555
H27 C20 1_555 1_555
H28 C20 1_555 1_555
O1 C1 1_555 1_555
O2 C12 1_555 1_555
O3 C11 1_555 1_555
C5 C6 1_555 1_555
C12 C13 1_555 1_555
C17 O3 1_555 1_555

#END
