
#######################################################################
#
#                 Cambridge Crystallographic Data Centre
#                                CCDC 
#
#######################################################################
#
# If this CIF has been generated from an entry in the Cambridge 
# Structural Database, then it will include bibliographic, chemical, 
# crystal, experimental, refinement or atomic coordinate data resulting 
# from the CCDC's data processing and validation procedures.
#
#######################################################################

data_HACNAD
_chemical_formula_moiety         'C47 H36 O6,2(C5 H5 N1)'
_chemical_name_systematic        
'methyl-tris(3,4-dimethoxy-1,2-phenylene)-tribenzo-cyclopenta[cd]pentalene pyridine solvate'
_symmetry_cell_setting           triclinic
_symmetry_space_group_name_H-M   'P -1'
_symmetry_Int_Tables_number      2
_space_group_name_Hall           '-P 1'
loop_
_symmetry_equiv_pos_site_id
_symmetry_equiv_pos_as_xyz
1 x,y,z
2 -x,-y,-z
_cell_length_a                   12.002(2)
_cell_length_b                   12.2342(19)
_cell_length_c                   15.114(3)
_cell_angle_alpha                102.499(5)
_cell_angle_beta                 99.728(6)
_cell_angle_gamma                92.966(6)
_cell_volume                     2126.5
_exptl_crystal_colour            yellow
_exptl_crystal_description       needle
_cell_formula_units_Z            2
loop_
_atom_site_label
_atom_site_type_symbol
_atom_site_fract_x
_atom_site_fract_y
_atom_site_fract_z
C1 C 0.6785(2) 0.34137(19) 0.29134(17)
H1 H 0.6524 0.3273 0.2252
H2 H 0.7539 0.3167 0.3039
H3 H 0.6809 0.4212 0.3182
O1 O -0.04519(17) 0.4007(2) 0.16585(13)
C2 C 0.59726(19) 0.27667(17) 0.33347(14)
O2 O -0.00077(15) 0.54789(15) 0.32531(13)
C3 C 0.63352(18) 0.29238(17) 0.43999(14)
H4 H 0.7040 0.3430 0.4655
O3 O 0.74801(15) 0.46002(14) 0.88656(11)
O4 O 0.87066(16) 0.29193(16) 0.85805(11)
C4 C 0.53377(18) 0.33491(16) 0.48063(14)
O5 O 0.66237(15) -0.37689(14) 0.17150(13)
C5 C 0.44396(19) 0.34463(16) 0.41292(14)
C6 C 0.58699(18) 0.14720(17) 0.29300(14)
H5 H 0.6351 0.1256 0.2461
C7 C 0.47360(19) 0.31169(17) 0.31855(14)
H6 H 0.4652 0.3724 0.2846
O6 O 0.49228(15) -0.36163(13) 0.04639(11)
C8 C 0.46297(19) 0.11393(17) 0.25499(14)
C9 C 0.39956(19) 0.20585(17) 0.26890(14)
C10 C 0.66293(18) 0.14804(17) 0.54145(15)
C11 C 0.64469(17) 0.17608(17) 0.45614(14)
C12 C 0.61798(18) 0.09559(17) 0.37456(14)
C13 C 0.68233(18) 0.23597(17) 0.62878(14)
C14 C 0.41842(19) 0.38001(17) 0.59330(15)
H7 H 0.4089 0.3958 0.6551
C15 C 0.52322(19) 0.34867(17) 0.57282(15)
C16 C 0.61661(18) 0.32820(17) 0.64351(14)
C17 C 0.32835(19) 0.38858(17) 0.52550(15)
H8 H 0.2591 0.4086 0.5426
C18 C 0.33706(19) 0.36848(17) 0.43245(15)
C19 C 0.23900(19) 0.37115(18) 0.35819(15)
C20 C 0.63345(19) -0.19806(18) 0.26864(15)
H9 H 0.6947 -0.2047 0.3144
C21 C 0.1655(2) 0.45539(18) 0.37594(16)
H10 H 0.1806 0.5070 0.4334
C22 C 0.6059(2) -0.28219(18) 0.18971(16)
C23 C 0.0721(2) 0.4655(2) 0.31235(17)
C24 C 0.51356(19) -0.27464(18) 0.12244(15)
C25 C 0.0487(2) 0.3884(2) 0.22741(17)
C26 C 0.45291(19) -0.18135(18) 0.13529(15)
H11 H 0.3905 -0.1768 0.0899
C27 C 0.1181(2) 0.3036(2) 0.20986(17)
H12 H 0.1006 0.2511 0.1529
C28 C 0.48175(19) -0.09327(17) 0.21414(15)
C29 C 0.21406(19) 0.29197(18) 0.27323(15)
C30 C 0.41249(19) 0.00485(17) 0.22080(14)
C31 C 0.2815(2) 0.19438(18) 0.24948(15)
C32 C 0.2941(2) -0.00650(19) 0.19479(15)
H13 H 0.2567 -0.0781 0.1667
C33 C 0.2305(2) 0.08545(19) 0.20943(15)
H14 H 0.1511 0.0741 0.1919
C34 C 0.63775(19) 0.40216(18) 0.73052(15)
H15 H 0.5926 0.4624 0.7414
C35 C 0.57319(19) -0.10304(17) 0.28289(15)
C36 C 0.7221(2) 0.38996(19) 0.80068(15)
C37 C 0.60833(18) -0.01850(17) 0.37203(15)
C38 C 0.78842(19) 0.29960(19) 0.78533(15)
C39 C 0.63167(19) -0.04805(18) 0.45733(15)
H16 H 0.6294 -0.1245 0.4589
C40 C 0.76721(19) 0.22472(19) 0.70121(15)
H17 H 0.8114 0.1635 0.6919
C41 C 0.65811(19) 0.03274(18) 0.53952(15)
H18 H 0.6732 0.0096 0.5954
C42 C 0.9621(3) 0.2305(3) 0.8386(2)
H19 H 0.9893 0.2506 0.7868
H20 H 0.9377 0.1508 0.8233
H21 H 1.0228 0.2475 0.8922
C43 C 0.6814(3) 0.5525(2) 0.90560(18)
H22 H 0.6905 0.6018 0.8644
H23 H 0.7064 0.5939 0.9690
H24 H 0.6022 0.5248 0.8963
C44 C 0.4009(2) -0.3566(2) -0.02570(18)
H25 H 0.4169 -0.2931 -0.0518
H26 H 0.3314 -0.3480 -0.0011
H27 H 0.3919 -0.4255 -0.0733
C45 C -0.0369(3) 0.3930(4) 0.0777(2)
H28 H -0.0405 0.3144 0.0465
H29 H 0.0349 0.4311 0.0748
H30 H -0.0989 0.4278 0.0480
C46 C 0.0243(3) 0.6317(2) 0.4087(2)
H31 H 0.1002 0.6676 0.4155
H32 H 0.0200 0.5973 0.4603
H33 H -0.0302 0.6874 0.4073
C47 C 0.7716(2) -0.3768(2) 0.2230(2)
H34 H 0.8063 -0.4427 0.1959
H35 H 0.7660 -0.3782 0.2860
H36 H 0.8177 -0.3096 0.2224
N1 N -0.0500(4) -0.0625(3) 0.3470(3)
C48 C 0.0435(4) -0.0106(5) 0.4036(3)
H37 H 0.0906 -0.0532 0.4364
C49 C 0.0748(3) 0.1011(5) 0.4167(3)
H38 H 0.1421 0.1341 0.4573
C50 C -0.1131(3) 0.0020(4) 0.3022(3)
H39 H -0.1796 -0.0325 0.2612
C51 C -0.0884(3) 0.1135(4) 0.3115(3)
H40 H -0.1365 0.1547 0.2782
C52 C 0.0080(4) 0.1646(3) 0.3704(3)
H41 H 0.0277 0.2420 0.3789
N2 N 0.2292(8) -0.0967(5) -0.0689(3)
C53 C 0.1345(5) -0.0444(6) -0.0529(4)
H42 H 0.0659 -0.0885 -0.0591
C54 C 0.3262(7) -0.0354(11) -0.0560(5)
H43 H 0.3940 -0.0687 -0.0629
C55 C 0.3246(9) 0.0790(11) -0.0320(6)
H44 H 0.3912 0.1268 -0.0242
C56 C 0.2246(9) 0.1222(5) -0.0198(4)
H45 H 0.2231 0.2007 -0.0031
C57 C 0.1358(5) 0.0617(6) -0.0299(4)
H46 H 0.0685 0.0946 -0.0204
loop_
_geom_bond_atom_site_label_1
_geom_bond_atom_site_label_2
_geom_bond_site_symmetry_1
_geom_bond_site_symmetry_2
C1 H1 1_555 1_555
H2 C1 1_555 1_555
H3 C1 1_555 1_555
O1 C25 1_555 1_555
C2 C1 1_555 1_555
O2 C23 1_555 1_555
C3 C2 1_555 1_555
H4 C3 1_555 1_555
O3 C36 1_555 1_555
O4 C38 1_555 1_555
C4 C3 1_555 1_555
O5 C22 1_555 1_555
C5 C4 1_555 1_555
C6 C2 1_555 1_555
H5 C6 1_555 1_555
C7 C2 1_555 1_555
H6 C7 1_555 1_555
O6 C24 1_555 1_555
C8 C6 1_555 1_555
C9 C7 1_555 1_555
C10 C11 1_555 1_555
C11 C3 1_555 1_555
C12 C6 1_555 1_555
C13 C10 1_555 1_555
C14 H7 1_555 1_555
C15 C4 1_555 1_555
C16 C13 1_555 1_555
C17 C14 1_555 1_555
H8 C17 1_555 1_555
C18 C5 1_555 1_555
C19 C18 1_555 1_555
C20 H9 1_555 1_555
C21 C19 1_555 1_555
H10 C21 1_555 1_555
C22 C20 1_555 1_555
C23 C21 1_555 1_555
C24 C22 1_555 1_555
C25 C23 1_555 1_555
C26 C24 1_555 1_555
H11 C26 1_555 1_555
C27 C25 1_555 1_555
H12 C27 1_555 1_555
C28 C26 1_555 1_555
C29 C19 1_555 1_555
C30 C8 1_555 1_555
C31 C9 1_555 1_555
C32 C30 1_555 1_555
H13 C32 1_555 1_555
C33 C31 1_555 1_555
H14 C33 1_555 1_555
C34 C16 1_555 1_555
H15 C34 1_555 1_555
C35 C20 1_555 1_555
C36 C34 1_555 1_555
C37 C12 1_555 1_555
C38 C36 1_555 1_555
C39 C37 1_555 1_555
H16 C39 1_555 1_555
C40 C13 1_555 1_555
H17 C40 1_555 1_555
C41 C10 1_555 1_555
H18 C41 1_555 1_555
C42 O4 1_555 1_555
H19 C42 1_555 1_555
H20 C42 1_555 1_555
H21 C42 1_555 1_555
C43 O3 1_555 1_555
H22 C43 1_555 1_555
H23 C43 1_555 1_555
H24 C43 1_555 1_555
C44 O6 1_555 1_555
H25 C44 1_555 1_555
H26 C44 1_555 1_555
H27 C44 1_555 1_555
C45 O1 1_555 1_555
H28 C45 1_555 1_555
H29 C45 1_555 1_555
H30 C45 1_555 1_555
C46 O2 1_555 1_555
H31 C46 1_555 1_555
H32 C46 1_555 1_555
H33 C46 1_555 1_555
C47 O5 1_555 1_555
H34 C47 1_555 1_555
H35 C47 1_555 1_555
H36 C47 1_555 1_555
N1 C48 1_555 1_555
C48 H37 1_555 1_555
C49 C48 1_555 1_555
H38 C49 1_555 1_555
C50 N1 1_555 1_555
H39 C50 1_555 1_555
C51 C50 1_555 1_555
H40 C51 1_555 1_555
C52 C49 1_555 1_555
H41 C52 1_555 1_555
N2 C53 1_555 1_555
C53 H42 1_555 1_555
C54 N2 1_555 1_555
H43 C54 1_555 1_555
C55 C54 1_555 1_555
H44 C55 1_555 1_555
C56 C55 1_555 1_555
H45 C56 1_555 1_555
C57 C53 1_555 1_555
H46 C57 1_555 1_555
C5 C7 1_555 1_555
C8 C9 1_555 1_555
C11 C12 1_555 1_555
C14 C15 1_555 1_555
C15 C16 1_555 1_555
C17 C18 1_555 1_555
C27 C29 1_555 1_555
C28 C30 1_555 1_555
C28 C35 1_555 1_555
C29 C31 1_555 1_555
C32 C33 1_555 1_555
C35 C37 1_555 1_555
C38 C40 1_555 1_555
C39 C41 1_555 1_555
C51 C52 1_555 1_555
C56 C57 1_555 1_555

#END
