
#######################################################################
#
#                 Cambridge Crystallographic Data Centre
#                                CCDC 
#
#######################################################################
#
# If this CIF has been generated from an entry in the Cambridge 
# Structural Database, then it will include bibliographic, chemical, 
# crystal, experimental, refinement or atomic coordinate data resulting 
# from the CCDC's data processing and validation procedures.
#
#######################################################################

data_HACQUZ
_chemical_formula_moiety         'C13 H12 Cl1 N1 O1'
_chemical_name_systematic        
5-(4-Chlorophenyl)-2,3-dimethyl-5-oxopent-2-enenitrile
_symmetry_cell_setting           orthorhombic
_symmetry_space_group_name_H-M   'P 21 21 21'
_symmetry_Int_Tables_number      19
_space_group_name_Hall           'P 2ac 2ab'
loop_
_symmetry_equiv_pos_site_id
_symmetry_equiv_pos_as_xyz
1 x,y,z
2 1/2-x,-y,1/2+z
3 -x,1/2+y,1/2-z
4 1/2+x,1/2-y,-z
_cell_length_a                   8.140(5)
_cell_length_b                   11.896(7)
_cell_length_c                   12.943(7)
_cell_angle_alpha                90
_cell_angle_beta                 90
_cell_angle_gamma                90
_cell_volume                     1253.32
_exptl_crystal_colour            yellow
_exptl_crystal_description       block
_cell_formula_units_Z            4
loop_
_atom_site_label
_atom_site_type_symbol
_atom_site_fract_x
_atom_site_fract_y
_atom_site_fract_z
C1 C 0.0879(15) 0.1397(9) 0.5935(5)
H1 H 0.1863 0.1451 0.5515
H2 H 0.0663 0.2133 0.6226
C2 C 0.1174(4) 0.0572(3) 0.6800(2)
C3 C 0.0613(4) 0.0713(2) 0.7763(2)
C4 C 0.0953(7) -0.0149(4) 0.8530(3)
C5 C 0.2290(11) -0.0412(8) 0.6522(9)
H3 H 0.2248 -0.0965 0.7061
H4 H 0.3398 -0.0148 0.6445
H5 H 0.1928 -0.0742 0.5885
C6 C -0.0340(10) 0.1741(6) 0.8140(6)
H6 H 0.0410 0.2272 0.8440
H7 H -0.1129 0.1514 0.8650
H8 H -0.0898 0.2084 0.7568
N1 N 0.1357(15) -0.0938(10) 0.9063(7)
C7 C -0.0637(2) 0.15398(15) 0.41906(14)
C8 C 0.0176(2) 0.25229(16) 0.39221(15)
H9 H 0.0798 0.2903 0.4413
C9 C 0.0064(3) 0.29408(19) 0.29261(17)
H10 H 0.0586 0.3610 0.2752
C10 C -0.0820(3) 0.2363(2) 0.21978(15)
C11 C -0.1641(3) 0.1389(2) 0.24404(17)
H11 H -0.2246 0.1008 0.1941
C12 C -0.1552(3) 0.09819(18) 0.34449(17)
H12 H -0.2113 0.0328 0.3620
C13 C -0.0554(2) 0.10554(17) 0.52543(15)
Cl1 Cl -0.09032(14) 0.28805(8) 0.09427(5)
O1 O -0.1533(2) 0.03437(17) 0.55324(13)
C14? C 0.1467(8) 0.0092(5) 0.7230(4)
C15? C 0.1388(14) -0.0436(9) 0.8241(6)
C16? C -0.039(2) 0.1550(12) 0.7931(10)
C17? C 0.229(3) -0.0557(18) 0.6365(15)
C18? C 0.059(3) 0.1605(18) 0.6039(10)
C19? C 0.0656(9) 0.1038(5) 0.7079(5)
H13? H -0.0274 0.1115 0.8551
H14? H -0.1525 0.1549 0.7721
H15? H -0.0044 0.2308 0.8058
H16? H 0.1470 -0.0920 0.5951
H17? H 0.3013 -0.1112 0.6654
H18? H 0.2913 -0.0048 0.5942
H19? H 0.1692 0.1619 0.5752
H20? H 0.0247 0.2378 0.6137
N2? N 0.099(3) -0.069(2) 0.9120(13)
loop_
_geom_bond_atom_site_label_1
_geom_bond_atom_site_label_2
_geom_bond_site_symmetry_1
_geom_bond_site_symmetry_2
C1 H1 1_555 1_555
H2 C1 1_555 1_555
C2 C1 1_555 1_555
C3 C2 1_555 1_555
C4 C3 1_555 1_555
C5 C2 1_555 1_555
H3 C5 1_555 1_555
H4 C5 1_555 1_555
H5 C5 1_555 1_555
C6 C3 1_555 1_555
H6 C6 1_555 1_555
H7 C6 1_555 1_555
H8 C6 1_555 1_555
N1 C4 1_555 1_555
C7 C8 1_555 1_555
C8 H9 1_555 1_555
C9 C8 1_555 1_555
H10 C9 1_555 1_555
C10 C9 1_555 1_555
C11 C10 1_555 1_555
H11 C11 1_555 1_555
C12 C7 1_555 1_555
H12 C12 1_555 1_555
C13 C1 1_555 1_555
Cl1 C10 1_555 1_555
O1 C13 1_555 1_555
C7 C13 1_555 1_555
C11 C12 1_555 1_555

#END
