
#######################################################################
#
#                 Cambridge Crystallographic Data Centre
#                                CCDC 
#
#######################################################################
#
# If this CIF has been generated from an entry in the Cambridge 
# Structural Database, then it will include bibliographic, chemical, 
# crystal, experimental, refinement or atomic coordinate data resulting 
# from the CCDC's data processing and validation procedures.
#
#######################################################################

data_HACSEL
_chemical_formula_moiety         'C29 H24 N2 O3'
_chemical_name_systematic        
cis-(3S,4S)-N-(4-Anilino-3-benzyl-2-oxo-3,4-dihydro-2H-chromen-3-yl)benzamide
_symmetry_cell_setting           orthorhombic
_symmetry_space_group_name_H-M   'P 21 21 21'
_symmetry_Int_Tables_number      19
_space_group_name_Hall           'P 2ac 2ab'
loop_
_symmetry_equiv_pos_site_id
_symmetry_equiv_pos_as_xyz
1 x,y,z
2 1/2-x,-y,1/2+z
3 -x,1/2+y,1/2-z
4 1/2+x,1/2-y,-z
_cell_length_a                   9.768(2)
_cell_length_b                   10.747(2)
_cell_length_c                   22.023(4)
_cell_angle_alpha                90
_cell_angle_beta                 90
_cell_angle_gamma                90
_cell_volume                     2311.9
_exptl_crystal_colour            colorless
_exptl_crystal_description       block
_cell_formula_units_Z            4
loop_
_atom_site_label
_atom_site_type_symbol
_atom_site_fract_x
_atom_site_fract_y
_atom_site_fract_z
O1 O 0.59305(12) 0.84943(10) 0.93513(5)
O2 O 0.37555(12) 0.81835(10) 0.95645(5)
O3 O 0.37802(12) 1.16954(10) 1.09386(5)
N1 N 0.35815(13) 0.98691(12) 1.04299(6)
H1 H 0.3030 0.9235 1.0341
N2 N 0.60648(15) 0.86467(12) 1.08522(6)
H2 H 0.6582 0.8042 1.0698
C1 C 0.71882(17) 0.90536(14) 0.95037(7)
C2 C 0.82295(19) 0.89307(16) 0.90858(8)
H3 H 0.8081 0.8510 0.8712
C3 C 0.94979(19) 0.94347(17) 0.92234(8)
H4 H 1.0229 0.9362 0.8941
C4 C 0.97066(19) 1.00422(18) 0.97687(8)
H5 H 1.0581 1.0378 0.9862
C5 C 0.86380(17) 1.01610(16) 1.01798(7)
H6 H 0.8786 1.0582 1.0553
C6 C 0.73566(17) 0.96724(14) 1.00511(7)
C7 C 0.61439(16) 0.97640(14) 1.04731(6)
H7 H 0.6252 1.0512 1.0739
C8 C 0.48360(16) 0.99175(14) 1.00759(7)
C9 C 0.47659(17) 0.87935(15) 0.96555(7)
C10 C 0.49364(17) 1.11288(15) 0.96858(7)
H8 H 0.4780 1.1856 0.9953
H9 H 0.5877 1.1197 0.9521
C11 C 0.39351(16) 1.11842(14) 0.91656(7)
C12 C 0.26743(16) 1.17650(15) 0.92266(8)
H10 H 0.2429 1.2120 0.9606
C13 C 0.17648(18) 1.18380(16) 0.87445(8)
H11 H 0.0908 1.2243 0.8795
C14 C 0.21081(19) 1.13206(17) 0.81913(8)
H12 H 0.1492 1.1376 0.7859
C15 C 0.33537(19) 1.07199(17) 0.81228(8)
H13 H 0.3584 1.0349 0.7745
C16 C 0.42627(17) 1.06591(15) 0.86040(7)
H14 H 0.5120 1.0255 0.8552
C17 C 0.31541(16) 1.07239(14) 1.08387(7)
C18 C 0.18597(16) 1.04176(14) 1.11710(7)
C19 C 0.11105(17) 1.13857(15) 1.14261(7)
H15 H 0.1415 1.2220 1.1380
C20 C -0.00813(17) 1.11383(17) 1.17478(7)
H16 H -0.0588 1.1804 1.1921
C21 C -0.05337(17) 0.99285(17) 1.18173(7)
H17 H -0.1349 0.9763 1.2038
C22 C 0.02028(19) 0.89593(17) 1.15651(8)
H18 H -0.0108 0.8127 1.1612
C23 C 0.13937(18) 0.92014(15) 1.12441(7)
H19 H 0.1897 0.8532 1.1072
C24 C 0.61534(16) 0.86992(15) 1.14900(7)
C25 C 0.66646(18) 0.76634(16) 1.17962(7)
H20 H 0.6948 0.6953 1.1572
C26 C 0.67638(19) 0.76584(18) 1.24223(8)
H21 H 0.7097 0.6939 1.2625
C27 C 0.63820(18) 0.86936(19) 1.27575(7)
H22 H 0.6464 0.8695 1.3187
C28 C 0.58800(18) 0.97213(18) 1.24551(7)
H23 H 0.5624 1.0437 1.2681
C29 C 0.57408(16) 0.97324(16) 1.18262(7)
H24 H 0.5367 1.0439 1.1627
loop_
_geom_bond_atom_site_label_1
_geom_bond_atom_site_label_2
_geom_bond_site_symmetry_1
_geom_bond_site_symmetry_2
O1 C1 1_555 1_555
O2 C9 1_555 1_555
O3 C17 1_555 1_555
N1 H1 1_555 1_555
N2 H2 1_555 1_555
C1 C2 1_555 1_555
C2 H3 1_555 1_555
C3 C2 1_555 1_555
H4 C3 1_555 1_555
C4 C3 1_555 1_555
H5 C4 1_555 1_555
C5 C4 1_555 1_555
H6 C5 1_555 1_555
C6 C1 1_555 1_555
C7 N2 1_555 1_555
H7 C7 1_555 1_555
C8 N1 1_555 1_555
C9 O1 1_555 1_555
C10 C8 1_555 1_555
H8 C10 1_555 1_555
H9 C10 1_555 1_555
C11 C10 1_555 1_555
C12 C11 1_555 1_555
H10 C12 1_555 1_555
C13 C12 1_555 1_555
H11 C13 1_555 1_555
C14 C13 1_555 1_555
H12 C14 1_555 1_555
C15 C14 1_555 1_555
H13 C15 1_555 1_555
C16 C11 1_555 1_555
H14 C16 1_555 1_555
C17 N1 1_555 1_555
C18 C17 1_555 1_555
C19 C18 1_555 1_555
H15 C19 1_555 1_555
C20 C19 1_555 1_555
H16 C20 1_555 1_555
C21 C20 1_555 1_555
H17 C21 1_555 1_555
C22 C21 1_555 1_555
H18 C22 1_555 1_555
C23 C18 1_555 1_555
H19 C23 1_555 1_555
C24 N2 1_555 1_555
C25 C24 1_555 1_555
H20 C25 1_555 1_555
C26 C25 1_555 1_555
H21 C26 1_555 1_555
C27 C26 1_555 1_555
H22 C27 1_555 1_555
C28 C27 1_555 1_555
H23 C28 1_555 1_555
C29 C24 1_555 1_555
H24 C29 1_555 1_555
C5 C6 1_555 1_555
C6 C7 1_555 1_555
C7 C8 1_555 1_555
C8 C9 1_555 1_555
C15 C16 1_555 1_555
C22 C23 1_555 1_555
C28 C29 1_555 1_555

#END
