
#######################################################################
#
#                 Cambridge Crystallographic Data Centre
#                                CCDC 
#
#######################################################################
#
# If this CIF has been generated from an entry in the Cambridge 
# Structural Database, then it will include bibliographic, chemical, 
# crystal, experimental, refinement or atomic coordinate data resulting 
# from the CCDC's data processing and validation procedures.
#
#######################################################################

data_HACYOC
_chemical_formula_moiety         'C30 H25 Cl1 N4 O3'
_chemical_name_systematic        
2-((4-(4-(4-chlorobenzyl)-3-methyl-1-(4-methylphenyl)-5-oxo-4,5-dihydro-1H-pyrazol-4-yl)but-2-en-1-ylidene)amino)-1H-isoindole-1,3(2H)-dione
_symmetry_cell_setting           monoclinic
_symmetry_space_group_name_H-M   'C 2'
_symmetry_Int_Tables_number      5
_space_group_name_Hall           'C 2y'
loop_
_symmetry_equiv_pos_site_id
_symmetry_equiv_pos_as_xyz
1 x,y,z
2 -x,y,-z
3 1/2+x,1/2+y,z
4 1/2-x,1/2+y,-z
_cell_length_a                   29.178(6)
_cell_length_b                   7.2062(14)
_cell_length_c                   27.810(6)
_cell_angle_alpha                90
_cell_angle_beta                 118.307(4)
_cell_angle_gamma                90
_cell_volume                     5148.16
_exptl_crystal_colour            colorless
_exptl_crystal_description       block
_cell_formula_units_Z            8
loop_
_atom_site_label
_atom_site_type_symbol
_atom_site_fract_x
_atom_site_fract_y
_atom_site_fract_z
Cl1 Cl 0.14140(5) 0.17779(19) 0.29974(5)
O1 O 0.29588(10) 0.9860(4) 0.40826(12)
O2 O 0.57569(10) 1.2263(4) 0.49887(11)
O3 O 0.58972(11) 1.3269(5) 0.34244(12)
N1 N 0.38509(12) 0.6728(5) 0.40368(13)
N2 N 0.36312(12) 0.7733(5) 0.43132(13)
N3 N 0.51749(13) 1.2202(5) 0.37484(13)
N4 N 0.56808(12) 1.2714(5) 0.41196(13)
C1 C 0.32198(15) 0.8702(6) 0.34123(16)
C2 C 0.34064(16) 1.0588(6) 0.32920(17)
H1 H 0.3370 1.0543 0.2919
H2 H 0.3175 1.1585 0.3297
C3 C 0.39612(16) 1.1083(6) 0.36889(18)
H3 H 0.4054 1.1183 0.4065
C4 C 0.43264(16) 1.1384(6) 0.35440(18)
H4 H 0.4239 1.1265 0.3170
C5 C 0.48549(15) 1.1891(6) 0.39345(17)
H5 H 0.4960 1.1989 0.4313
C6 C 0.32326(15) 0.8876(6) 0.39652(17)
C7 C 0.36182(14) 0.7215(6) 0.35319(16)
C8 C 0.37728(16) 0.6411(7) 0.31393(17)
H6 H 0.3891 0.7406 0.2983
H7 H 0.3474 0.5777 0.2846
H8 H 0.4056 0.5521 0.3329
C9 C 0.26625(15) 0.8356(7) 0.29330(17)
H9 H 0.2448 0.9462 0.2899
H10 H 0.2688 0.8263 0.2592
C10 C 0.23753(15) 0.6673(7) 0.29696(16)
C11 C 0.20274(16) 0.6833(7) 0.31758(17)
H11 H 0.1992 0.7999 0.3314
C12 C 0.17286(17) 0.5350(7) 0.31872(18)
H12 H 0.1494 0.5488 0.3332
C13 C 0.17830(17) 0.3677(7) 0.29822(18)
C14 C 0.21078(18) 0.3465(7) 0.2752(2)
H13 H 0.2128 0.2311 0.2598
C15 C 0.24041(17) 0.4966(7) 0.27514(19)
H14 H 0.2632 0.4827 0.2598
C16 C 0.38979(15) 0.7694(6) 0.48963(16)
C17 C 0.44121(15) 0.7115(6) 0.51648(16)
H15 H 0.4583 0.6743 0.4963
C18 C 0.46749(16) 0.7085(7) 0.57307(17)
H16 H 0.5025 0.6667 0.5913
C19 C 0.44403(16) 0.7647(7) 0.60389(16)
C20 C 0.39259(17) 0.8216(6) 0.57605(17)
H17 H 0.3756 0.8599 0.5963
C21 C 0.36494(16) 0.8244(6) 0.51907(17)
H18 H 0.3296 0.8634 0.5008
C22 C 0.47338(18) 0.7635(8) 0.66599(16)
H19 H 0.4907 0.8833 0.6792
H20 H 0.4995 0.6642 0.6786
H21 H 0.4489 0.7422 0.6802
C23 C 0.59400(16) 1.2735(6) 0.46987(16)
C24 C 0.64703(15) 1.3441(6) 0.48562(17)
C25 C 0.68705(17) 1.3867(6) 0.53714(18)
H22 H 0.6842 1.3628 0.5692
C26 C 0.73156(16) 1.4661(6) 0.53962(18)
H23 H 0.7598 1.4968 0.5742
C27 C 0.73572(16) 1.5019(6) 0.49219(19)
H24 H 0.7664 1.5589 0.4953
C28 C 0.69580(16) 1.4554(6) 0.44083(18)
H25 H 0.6988 1.4747 0.4087
C29 C 0.65100(15) 1.3787(6) 0.43891(17)
C30 C 0.60123(16) 1.3252(6) 0.39040(17)
Cl2 Cl 0.30294(4) 0.75209(17) 0.17127(4)
O4 O 0.39242(11) -0.0059(4) 0.10805(12)
O5 O 0.73124(11) -0.3540(5) 0.15475(11)
O6 O 0.57379(11) -0.2436(5) 0.00135(11)
N5 N 0.48485(13) 0.3149(5) 0.11337(14)
N6 N 0.43762(12) 0.2141(5) 0.08563(13)
N7 N 0.63152(13) -0.2388(5) 0.12528(13)
N8 N 0.64660(12) -0.2897(5) 0.08717(13)
C31 C 0.47797(15) 0.1141(6) 0.17552(17)
C32 C 0.50828(16) -0.0725(6) 0.18707(17)
H26 H 0.5411 -0.0613 0.2219
H27 H 0.4872 -0.1716 0.1917
C33 C 0.52105(17) -0.1290(6) 0.14294(18)
H28 H 0.4931 -0.1494 0.1073
C34 C 0.56970(17) -0.1523(6) 0.15119(17)
H29 H 0.5974 -0.1299 0.1868
C35 C 0.58277(17) -0.2090(6) 0.10958(17)
H30 H 0.5570 -0.2237 0.0726
C36 C 0.42945(16) 0.0958(6) 0.11979(17)
C37 C 0.50711(15) 0.2642(6) 0.16383(16)
C38 C 0.55827(15) 0.3418(7) 0.20417(17)
H31 H 0.5850 0.2453 0.2150
H32 H 0.5561 0.3852 0.2364
H33 H 0.5674 0.4459 0.1877
C39 C 0.46449(16) 0.1560(6) 0.22167(16)
H34 H 0.4517 0.0405 0.2305
H35 H 0.4968 0.1930 0.2546
C40 C 0.42452(16) 0.3049(6) 0.20901(16)
C41 C 0.37408(15) 0.2599(7) 0.19888(15)
H36 H 0.3653 0.1336 0.1999
C42 C 0.33650(17) 0.3967(6) 0.18738(17)
H37 H 0.3026 0.3647 0.1814
C43 C 0.34926(16) 0.5776(6) 0.18481(16)
C44 C 0.39793(16) 0.6280(6) 0.19310(17)
H38 H 0.4058 0.7542 0.1904
C45 C 0.43537(17) 0.4908(6) 0.20549(17)
H39 H 0.4692 0.5249 0.2117
C46 C 0.41154(15) 0.2189(6) 0.02742(15)
C47 C 0.43741(16) 0.2819(7) 0.00029(17)
H40 H 0.4722 0.3257 0.0204
C48 C 0.41285(16) 0.2820(7) -0.05672(17)
H41 H 0.4313 0.3243 -0.0750
C49 C 0.36184(15) 0.2213(7) -0.08709(16)
C50 C 0.33653(16) 0.1605(6) -0.05880(17)
H42 H 0.3015 0.1193 -0.0790
C51 C 0.36019(15) 0.1570(6) -0.00185(17)
H43 H 0.3419 0.1137 0.0165
C52 C 0.33539(16) 0.2233(8) -0.14887(16)
H44 H 0.3027 0.1534 -0.1633
H45 H 0.3583 0.1659 -0.1614
H46 H 0.3280 0.3517 -0.1619
C53 C 0.69880(16) -0.3440(6) 0.10656(18)
C54 C 0.70464(16) -0.3883(6) 0.05780(17)
C55 C 0.74695(17) -0.4572(6) 0.05374(18)
H47 H 0.7798 -0.4743 0.0851
C56 C 0.73913(18) -0.5004(7) 0.00156(19)
H48 H 0.7670 -0.5521 -0.0027
C57 C 0.69142(19) -0.4695(7) -0.04454(19)
H49 H 0.6874 -0.5000 -0.0795
C58 C 0.64935(18) -0.3948(6) -0.04040(18)
H50 H 0.6170 -0.3712 -0.0718
C59 C 0.65689(16) -0.3567(6) 0.01132(17)
C60 C 0.61866(17) -0.2899(6) 0.02904(17)
loop_
_geom_bond_atom_site_label_1
_geom_bond_atom_site_label_2
_geom_bond_site_symmetry_1
_geom_bond_site_symmetry_2
Cl1 C13 1_555 1_555
O1 C6 1_555 1_555
O2 C23 1_555 1_555
O3 C30 1_555 1_555
N1 N2 1_555 1_555
N2 C6 1_555 1_555
N3 N4 1_555 1_555
N4 C23 1_555 1_555
C1 C2 1_555 1_555
C2 H1 1_555 1_555
H2 C2 1_555 1_555
C3 C2 1_555 1_555
H3 C3 1_555 1_555
C4 C3 1_555 1_555
H4 C4 1_555 1_555
C5 N3 1_555 1_555
H5 C5 1_555 1_555
C6 C1 1_555 1_555
C7 N1 1_555 1_555
C8 C7 1_555 1_555
H6 C8 1_555 1_555
H7 C8 1_555 1_555
H8 C8 1_555 1_555
C9 C1 1_555 1_555
H9 C9 1_555 1_555
H10 C9 1_555 1_555
C10 C9 1_555 1_555
C11 C10 1_555 1_555
H11 C11 1_555 1_555
C12 C11 1_555 1_555
H12 C12 1_555 1_555
C13 C12 1_555 1_555
C14 C13 1_555 1_555
H13 C14 1_555 1_555
C15 C10 1_555 1_555
H14 C15 1_555 1_555
C16 N2 1_555 1_555
C17 C16 1_555 1_555
H15 C17 1_555 1_555
C18 C17 1_555 1_555
H16 C18 1_555 1_555
C19 C18 1_555 1_555
C20 C19 1_555 1_555
H17 C20 1_555 1_555
C21 C16 1_555 1_555
H18 C21 1_555 1_555
C22 C19 1_555 1_555
H19 C22 1_555 1_555
H20 C22 1_555 1_555
H21 C22 1_555 1_555
C23 C24 1_555 1_555
C24 C25 1_555 1_555
C25 H22 1_555 1_555
C26 C25 1_555 1_555
H23 C26 1_555 1_555
C27 C26 1_555 1_555
H24 C27 1_555 1_555
C28 C27 1_555 1_555
H25 C28 1_555 1_555
C29 C24 1_555 1_555
C30 N4 1_555 1_555
Cl2 C43 1_555 1_555
O4 C36 1_555 1_555
O5 C53 1_555 1_555
O6 C60 1_555 1_555
N5 N6 1_555 1_555
N6 C36 1_555 1_555
N7 N8 1_555 1_555
N8 C53 1_555 1_555
C31 C32 1_555 1_555
C32 H26 1_555 1_555
H27 C32 1_555 1_555
C33 C32 1_555 1_555
H28 C33 1_555 1_555
C34 C33 1_555 1_555
H29 C34 1_555 1_555
C35 N7 1_555 1_555
H30 C35 1_555 1_555
C36 C31 1_555 1_555
C37 N5 1_555 1_555
C38 C37 1_555 1_555
H31 C38 1_555 1_555
H32 C38 1_555 1_555
H33 C38 1_555 1_555
C39 C31 1_555 1_555
H34 C39 1_555 1_555
H35 C39 1_555 1_555
C40 C39 1_555 1_555
C41 C40 1_555 1_555
H36 C41 1_555 1_555
C42 C41 1_555 1_555
H37 C42 1_555 1_555
C43 C42 1_555 1_555
C44 C43 1_555 1_555
H38 C44 1_555 1_555
C45 C40 1_555 1_555
H39 C45 1_555 1_555
C46 N6 1_555 1_555
C47 C46 1_555 1_555
H40 C47 1_555 1_555
C48 C47 1_555 1_555
H41 C48 1_555 1_555
C49 C48 1_555 1_555
C50 C49 1_555 1_555
H42 C50 1_555 1_555
C51 C46 1_555 1_555
H43 C51 1_555 1_555
C52 C49 1_555 1_555
H44 C52 1_555 1_555
H45 C52 1_555 1_555
H46 C52 1_555 1_555
C53 C54 1_555 1_555
C54 C55 1_555 1_555
C55 H47 1_555 1_555
C56 C55 1_555 1_555
H48 C56 1_555 1_555
C57 C56 1_555 1_555
H49 C57 1_555 1_555
C58 C57 1_555 1_555
H50 C58 1_555 1_555
C59 C54 1_555 1_555
C60 N8 1_555 1_555
C1 C7 1_555 1_555
C4 C5 1_555 1_555
C14 C15 1_555 1_555
C20 C21 1_555 1_555
C28 C29 1_555 1_555
C29 C30 1_555 1_555
C31 C37 1_555 1_555
C34 C35 1_555 1_555
C44 C45 1_555 1_555
C50 C51 1_555 1_555
C58 C59 1_555 1_555
C59 C60 1_555 1_555

#END
