
#######################################################################
#
#                 Cambridge Crystallographic Data Centre
#                                CCDC 
#
#######################################################################
#
# If this CIF has been generated from an entry in the Cambridge 
# Structural Database, then it will include bibliographic, chemical, 
# crystal, experimental, refinement or atomic coordinate data resulting 
# from the CCDC's data processing and validation procedures.
#
#######################################################################

data_HADMAC
_chemical_formula_moiety         'C19 H16 N2 O3'
_chemical_name_systematic        
N-(4-Benzoyl-1-methyl-2-oxo-1,2-dihydroquinolin-3-yl)acetamide
_symmetry_cell_setting           monoclinic
_symmetry_space_group_name_H-M   'P 21/c'
_symmetry_Int_Tables_number      14
_space_group_name_Hall           '-P 2ybc'
loop_
_symmetry_equiv_pos_site_id
_symmetry_equiv_pos_as_xyz
1 x,y,z
2 -x,1/2+y,1/2-z
3 -x,-y,-z
4 x,1/2-y,1/2+z
_cell_length_a                   10.4908(14)
_cell_length_b                   17.614(2)
_cell_length_c                   9.1784(12)
_cell_angle_alpha                90
_cell_angle_beta                 106.541(2)
_cell_angle_gamma                90
_cell_volume                     1625.84
_exptl_crystal_colour            colorless
_exptl_crystal_description       prismatic
_cell_formula_units_Z            4
loop_
_atom_site_label
_atom_site_type_symbol
_atom_site_fract_x
_atom_site_fract_y
_atom_site_fract_z
N1 N 0.97889(14) 0.02729(8) 0.74111(17)
N2 N 0.77196(14) 0.19308(8) 0.74524(16)
O1 O 0.97570(14) 0.14657(8) 0.64486(17)
O2 O 0.75456(14) 0.21497(7) 0.98055(13)
O3 O 0.62475(13) 0.06886(7) 1.00526(14)
C1 C 0.92876(18) 0.09957(11) 0.71387(19)
C2 C 0.81436(16) 0.11723(10) 0.76805(18)
C3 C 0.75424(16) 0.06413(10) 0.83167(18)
C4 C 0.80916(17) -0.01127(10) 0.85753(18)
C5 C 0.75248(19) -0.06926(10) 0.9223(2)
H1 H 0.6759 -0.0593 0.9508
C6 C 0.8070(2) -0.14026(11) 0.9447(2)
H2 H 0.7678 -0.1781 0.9880
C7 C 0.9205(2) -0.15542(11) 0.9029(2)
H3 H 0.9581 -0.2036 0.9189
C8 C 0.9784(2) -0.10067(11) 0.8383(2)
H4 H 1.0554 -0.1116 0.8114
C9 C 0.92295(17) -0.02842(10) 0.81227(19)
C10 C 0.74547(17) 0.23802(10) 0.85320(19)
C11 C 0.7018(2) 0.31682(11) 0.8048(2)
H5 H 0.6121 0.3240 0.8085
H6 H 0.7061 0.3249 0.7029
H7 H 0.7592 0.3524 0.8718
C12 C 0.63055(17) 0.08157(9) 0.8775(2)
C13 C 0.51401(17) 0.11080(10) 0.7579(2)
C14 C 0.4949(2) 0.09514(12) 0.6067(2)
H8 H 0.5588 0.0681 0.5757
C15 C 0.3798(2) 0.11980(14) 0.4998(3)
H9 H 0.3662 0.1091 0.3973
C16 C 0.2864(2) 0.15996(13) 0.5462(3)
H10 H 0.2087 0.1757 0.4751
C17 C 0.3067(2) 0.17683(14) 0.6951(3)
H11 H 0.2441 0.2055 0.7251
C18 C 0.4184(2) 0.15201(11) 0.8015(3)
H12 H 0.4304 0.1628 0.9037
C19 C 1.09749(19) 0.00912(12) 0.6930(2)
H13 H 1.1213 0.0522 0.6422
H14 H 1.0789 -0.0334 0.6248
H15 H 1.1698 -0.0033 0.7805
H16 H 0.7745(19) 0.2166(10) 0.6608(18)
loop_
_geom_bond_atom_site_label_1
_geom_bond_atom_site_label_2
_geom_bond_site_symmetry_1
_geom_bond_site_symmetry_2
N1 C1 1_555 1_555
N2 C2 1_555 1_555
O1 C1 1_555 1_555
O2 C10 1_555 1_555
O3 C12 1_555 1_555
C1 C2 1_555 1_555
C2 C3 1_555 1_555
C3 C4 1_555 1_555
C4 C5 1_555 1_555
C5 H1 1_555 1_555
C6 C5 1_555 1_555
H2 C6 1_555 1_555
C7 C6 1_555 1_555
H3 C7 1_555 1_555
C8 C7 1_555 1_555
H4 C8 1_555 1_555
C9 N1 1_555 1_555
C10 N2 1_555 1_555
C11 C10 1_555 1_555
H5 C11 1_555 1_555
H6 C11 1_555 1_555
H7 C11 1_555 1_555
C12 C3 1_555 1_555
C13 C12 1_555 1_555
C14 C13 1_555 1_555
H8 C14 1_555 1_555
C15 C14 1_555 1_555
H9 C15 1_555 1_555
C16 C15 1_555 1_555
H10 C16 1_555 1_555
C17 C16 1_555 1_555
H11 C17 1_555 1_555
C18 C13 1_555 1_555
H12 C18 1_555 1_555
C19 N1 1_555 1_555
H13 C19 1_555 1_555
H14 C19 1_555 1_555
H15 C19 1_555 1_555
H16 N2 1_555 1_555
C4 C9 1_555 1_555
C8 C9 1_555 1_555
C17 C18 1_555 1_555

#END
