
#######################################################################
#
#                 Cambridge Crystallographic Data Centre
#                                CCDC 
#
#######################################################################
#
# If this CIF has been generated from an entry in the Cambridge 
# Structural Database, then it will include bibliographic, chemical, 
# crystal, experimental, refinement or atomic coordinate data resulting 
# from the CCDC's data processing and validation procedures.
#
#######################################################################

data_HAFROX
_chemical_formula_moiety         'C25 H24 O4'
_chemical_name_systematic        
'(R)-3-(2-Furylmethyl)-2-phenyl-2H-chromen-4-yl pivalate'
_symmetry_cell_setting           orthorhombic
_symmetry_space_group_name_H-M   'P 21 21 21'
_symmetry_Int_Tables_number      19
_space_group_name_Hall           'P 2ac 2ab'
loop_
_symmetry_equiv_pos_site_id
_symmetry_equiv_pos_as_xyz
1 x,y,z
2 1/2-x,-y,1/2+z
3 1/2+x,1/2-y,-z
4 -x,1/2+y,1/2-z
_cell_length_a                   8.2364(5)
_cell_length_b                   9.6818(6)
_cell_length_c                   26.1298(16)
_cell_angle_alpha                90
_cell_angle_beta                 90
_cell_angle_gamma                90
_cell_volume                     2083.67
_exptl_crystal_colour            colorless
_exptl_crystal_description       prism
_cell_formula_units_Z            4
loop_
_atom_site_label
_atom_site_type_symbol
_atom_site_fract_x
_atom_site_fract_y
_atom_site_fract_z
C1 C 0.35005(18) 0.53479(15) 0.58897(6)
C2 C 0.20094(19) 0.49341(17) 0.56923(7)
H1 H 0.1643 0.5278 0.5372
C3 C 0.1065(2) 0.40156(19) 0.59686(7)
H2 H 0.0052 0.3723 0.5833
C4 C 0.1570(2) 0.35175(18) 0.64371(7)
H3 H 0.0910 0.2888 0.6623
C5 C 0.30517(19) 0.39450(16) 0.66340(6)
H4 H 0.3403 0.3605 0.6957
C6 C 0.40297(17) 0.48650(15) 0.63648(5)
C7 C 0.55825(18) 0.53969(14) 0.65451(5)
C8 C 0.65616(17) 0.61505(14) 0.62555(5)
C9 C 0.61099(18) 0.63838(15) 0.57039(6)
H5 H 0.6450 0.7346 0.5615
C10 C 0.68732(17) 0.39270(15) 0.71269(5)
C11 C 0.7325(2) 0.37283(17) 0.76866(6)
C12 C 0.8050(2) 0.2295(2) 0.77517(7)
H6 H 0.8349 0.2154 0.8111
H7 H 0.9019 0.2209 0.7536
H8 H 0.7250 0.1599 0.7650
C13 C 0.8581(3) 0.4832(2) 0.78197(8)
H9 H 0.8100 0.5749 0.7775
H10 H 0.9523 0.4737 0.7593
H11 H 0.8926 0.4716 0.8176
C14 C 0.5817(3) 0.3860(3) 0.80205(7)
H12 H 0.4974 0.3232 0.7894
H13 H 0.5416 0.4812 0.8007
H14 H 0.6091 0.3620 0.8375
C15 C 0.81986(18) 0.66768(15) 0.64291(6)
H15 H 0.8218 0.6703 0.6808
H16 H 0.9047 0.6020 0.6316
C16 C 0.85986(18) 0.80750(15) 0.62294(6)
C17 C 0.9657(2) 0.85332(16) 0.58755(6)
H17 H 1.0417 0.7991 0.5690
C18 C 0.9422(2) 0.99834(17) 0.58329(6)
H18 H 0.9989 1.0597 0.5613
C19 C 0.8249(2) 1.03129(17) 0.61620(7)
H19 H 0.7845 1.1220 0.6216
C20 C 0.70102(18) 0.54220(15) 0.53454(5)
C21 C 0.79370(19) 0.59556(17) 0.49457(6)
H20 H 0.8042 0.6927 0.4908
C22 C 0.87039(19) 0.5084(2) 0.46044(6)
H21 H 0.9339 0.5460 0.4335
C23 C 0.8553(2) 0.36663(19) 0.46528(6)
H22 H 0.9058 0.3068 0.4412
C24 C 0.7658(2) 0.31253(17) 0.50566(6)
H23 H 0.7556 0.2153 0.5093
C25 C 0.69180(18) 0.39909(15) 0.54033(5)
H24 H 0.6339 0.3611 0.5685
O1 O 0.43735(13) 0.62995(11) 0.56171(4)
O2 O 0.59843(12) 0.51026(10) 0.70559(3)
O3 O 0.72414(16) 0.31938(12) 0.67801(4)
O4 O 0.77050(14) 0.91487(11) 0.64136(4)
loop_
_geom_bond_atom_site_label_1
_geom_bond_atom_site_label_2
_geom_bond_site_symmetry_1
_geom_bond_site_symmetry_2
C1 C2 1_555 1_555
C2 H1 1_555 1_555
C3 C2 1_555 1_555
H2 C3 1_555 1_555
C4 C3 1_555 1_555
H3 C4 1_555 1_555
C5 C4 1_555 1_555
H4 C5 1_555 1_555
C6 C1 1_555 1_555
C7 C6 1_555 1_555
C8 C7 1_555 1_555
C9 C8 1_555 1_555
H5 C9 1_555 1_555
C10 C11 1_555 1_555
C11 C12 1_555 1_555
C12 H6 1_555 1_555
H7 C12 1_555 1_555
H8 C12 1_555 1_555
C13 C11 1_555 1_555
H9 C13 1_555 1_555
H10 C13 1_555 1_555
H11 C13 1_555 1_555
C14 C11 1_555 1_555
H12 C14 1_555 1_555
H13 C14 1_555 1_555
H14 C14 1_555 1_555
C15 C8 1_555 1_555
H15 C15 1_555 1_555
H16 C15 1_555 1_555
C16 C15 1_555 1_555
C17 C16 1_555 1_555
H17 C17 1_555 1_555
C18 C17 1_555 1_555
H18 C18 1_555 1_555
C19 C18 1_555 1_555
H19 C19 1_555 1_555
C20 C9 1_555 1_555
C21 C20 1_555 1_555
H20 C21 1_555 1_555
C22 C21 1_555 1_555
H21 C22 1_555 1_555
C23 C22 1_555 1_555
H22 C23 1_555 1_555
C24 C23 1_555 1_555
H23 C24 1_555 1_555
C25 C20 1_555 1_555
H24 C25 1_555 1_555
O1 C1 1_555 1_555
O2 C7 1_555 1_555
O3 C10 1_555 1_555
O4 C16 1_555 1_555
C5 C6 1_555 1_555
C9 O1 1_555 1_555
C10 O2 1_555 1_555
C19 O4 1_555 1_555
C24 C25 1_555 1_555

#END
