
#######################################################################
#
#                 Cambridge Crystallographic Data Centre
#                                CCDC 
#
#######################################################################
#
# If this CIF has been generated from an entry in the Cambridge 
# Structural Database, then it will include bibliographic, chemical, 
# crystal, experimental, refinement or atomic coordinate data resulting 
# from the CCDC's data processing and validation procedures.
#
#######################################################################

data_HAGCEA
_chemical_formula_moiety         'C17 H15 O2 P1'
_chemical_name_systematic        
'6-(3-methylbuta-1,2-dien-1-yl)-6H-dibenzo[c,e][1,2]oxaphosphinine 6-oxide'
_symmetry_cell_setting           monoclinic
_symmetry_space_group_name_H-M   'P 21/c'
_symmetry_Int_Tables_number      14
_space_group_name_Hall           '-P 2ybc'
loop_
_symmetry_equiv_pos_site_id
_symmetry_equiv_pos_as_xyz
1 x,y,z
2 -x,1/2+y,1/2-z
3 -x,-y,-z
4 x,1/2-y,1/2+z
_cell_length_a                   9.0417(8)
_cell_length_b                   9.6447(9)
_cell_length_c                   16.4029(15)
_cell_angle_alpha                90
_cell_angle_beta                 96.0260(10)
_cell_angle_gamma                90
_cell_volume                     1422.5
_exptl_crystal_colour            colorless
_exptl_crystal_description       block
_cell_formula_units_Z            4
loop_
_atom_site_label
_atom_site_type_symbol
_atom_site_fract_x
_atom_site_fract_y
_atom_site_fract_z
P1 P 0.99401(7) 0.23642(7) 0.79489(4)
O1 O 0.93935(19) 0.38448(16) 0.82332(9)
C1 C 1.0785(3) 0.1629(2) 0.88800(13)
C2 C 0.8778(3) 0.4015(2) 0.89756(14)
C3 C 0.9232(3) 0.3203(2) 0.96570(14)
C4 C 1.1833(3) 0.0587(3) 0.88521(15)
H1 H 1.2078 0.0268 0.8348
C5 C 1.0376(3) 0.2109(2) 0.96310(13)
C6 C 0.7760(3) 0.5078(3) 0.89917(17)
H2 H 0.7506 0.5621 0.8529
C7 C 1.1093(3) 0.1528(3) 1.03480(15)
H3 H 1.0863 0.1842 1.0856
O2 O 1.0922(2) 0.25093(19) 0.72974(10)
C8 C 0.8283(3) 0.1405(3) 0.76662(14)
H4 H 0.8360 0.0481 0.7516
C9 C 0.6966(3) 0.1955(3) 0.76625(15)
C10 C 1.2519(3) 0.0017(3) 0.95704(17)
H5 H 1.3226 -0.0679 0.9552
C11 C 0.8559(3) 0.3484(3) 1.03692(15)
H6 H 0.8822 0.2958 1.0837
C12 C 1.2140(3) 0.0494(3) 1.03101(16)
H7 H 1.2597 0.0114 1.0794
C13 C 0.7124(3) 0.5321(3) 0.97117(18)
H8 H 0.6428 0.6027 0.9733
C14 C 0.7518(3) 0.4520(3) 1.03948(17)
H9 H 0.7080 0.4679 1.0874
C15 C 0.5694(3) 0.2565(3) 0.7692(2)
C16 C 0.4909(4) 0.3260(4) 0.6949(3)
H10 H 0.5412 0.3044 0.6478
H11 H 0.4912 0.4245 0.7032
H12 H 0.3902 0.2934 0.6863
C17 C 0.4965(4) 0.2618(4) 0.8470(2)
H13 H 0.5559 0.2116 0.8891
H14 H 0.3995 0.2205 0.8381
H15 H 0.4874 0.3565 0.8636
loop_
_geom_bond_atom_site_label_1
_geom_bond_atom_site_label_2
_geom_bond_site_symmetry_1
_geom_bond_site_symmetry_2
P1 O1 1_555 1_555
O1 C2 1_555 1_555
C1 P1 1_555 1_555
C2 C3 1_555 1_555
C3 C5 1_555 1_555
C4 C1 1_555 1_555
H1 C4 1_555 1_555
C5 C1 1_555 1_555
C6 C2 1_555 1_555
H2 C6 1_555 1_555
C7 C5 1_555 1_555
H3 C7 1_555 1_555
O2 P1 1_555 1_555
C8 P1 1_555 1_555
H4 C8 1_555 1_555
C9 C8 1_555 1_555
C10 C4 1_555 1_555
H5 C10 1_555 1_555
C11 C3 1_555 1_555
H6 C11 1_555 1_555
C12 C7 1_555 1_555
H7 C12 1_555 1_555
C13 C6 1_555 1_555
H8 C13 1_555 1_555
C14 C11 1_555 1_555
H9 C14 1_555 1_555
C15 C9 1_555 1_555
C16 C15 1_555 1_555
H10 C16 1_555 1_555
H11 C16 1_555 1_555
H12 C16 1_555 1_555
C17 C15 1_555 1_555
H13 C17 1_555 1_555
H14 C17 1_555 1_555
H15 C17 1_555 1_555
C10 C12 1_555 1_555
C13 C14 1_555 1_555

#END
