
#######################################################################
#
#                 Cambridge Crystallographic Data Centre
#                                CCDC 
#
#######################################################################
#
# If this CIF has been generated from an entry in the Cambridge 
# Structural Database, then it will include bibliographic, chemical, 
# crystal, experimental, refinement or atomic coordinate data resulting 
# from the CCDC's data processing and validation procedures.
#
#######################################################################

data_HAHFED
_chemical_formula_moiety         'C19 H9 Cl3 F3 N5 O1 S1'
_chemical_name_systematic        
4-Chloro-N-((3-cyano-1-(2,6-dichloro-4-(trifluoromethyl)phenyl)-1H-pyrazol-5-yl)carbamothioyl)benzamide
_symmetry_cell_setting           monoclinic
_symmetry_space_group_name_H-M   'P 21/n'
_symmetry_Int_Tables_number      14
_space_group_name_Hall           '-P 2yn'
loop_
_symmetry_equiv_pos_site_id
_symmetry_equiv_pos_as_xyz
1 x,y,z
2 1/2-x,1/2+y,1/2-z
3 -x,-y,-z
4 1/2+x,1/2-y,1/2+z
_cell_length_a                   16.9725(16)
_cell_length_b                   7.3779(7)
_cell_length_c                   17.3459(17)
_cell_angle_alpha                90
_cell_angle_beta                 94.280(2)
_cell_angle_gamma                90
_cell_volume                     2166.02
_exptl_crystal_colour            colorless
_exptl_crystal_description       block
_chemical_melting_point          '482-483 K'
_cell_formula_units_Z            4
loop_
_atom_site_label
_atom_site_type_symbol
_atom_site_fract_x
_atom_site_fract_y
_atom_site_fract_z
S1 S 0.76040(6) 0.5722(2) 0.15844(7)
O1 O 1.01410(17) 0.7530(5) 0.15196(17)
F1 F 1.2254(3) 1.1789(9) 0.3240(6)
F2 F 1.2817(2) 0.9446(7) 0.3424(4)
F3 F 1.2521(4) 1.0868(15) 0.4293(5)
N1 N 0.88963(19) 0.6918(5) 0.10182(19)
H1 H 0.8603 0.6914 0.0592
N2 N 0.8958(2) 0.6797(5) 0.23412(19)
H2 H 0.9411 0.7291 0.2298
N3 N 0.92881(19) 0.6895(5) 0.36841(19)
N4 N 0.9045(2) 0.6374(5) 0.4380(2)
N5 N 0.7537(3) 0.4135(7) 0.5217(3)
C1 C 1.0499(3) 0.7993(6) -0.1276(2)
C2 C 1.1027(3) 0.7774(7) -0.0639(3)
H3 H 1.1568 0.7770 -0.0690
C3 C 1.0735(2) 0.7563(6) 0.0073(3)
H4 H 1.1085 0.7436 0.0509
C4 C 0.9930(2) 0.7534(5) 0.0155(2)
C5 C 0.9416(2) 0.7752(6) -0.0494(2)
H5 H 0.8873 0.7737 -0.0447
C6 C 0.9698(3) 0.7991(7) -0.1209(3)
H6 H 0.9350 0.8150 -0.1644
C7 C 0.9676(2) 0.7335(5) 0.0954(2)
C8 C 0.8513(2) 0.6498(5) 0.1681(2)
C9 C 0.8767(2) 0.6398(6) 0.3084(2)
C10 C 0.8152(3) 0.5529(6) 0.3393(3)
H7 H 0.7701 0.5039 0.3135
C11 C 0.8361(2) 0.5550(6) 0.4188(2)
C12 C 0.7918(3) 0.4768(7) 0.4778(3)
C13 C 1.0026(2) 0.7800(6) 0.3654(2)
C14 C 1.0675(2) 0.6890(6) 0.3401(3)
C15 C 1.1398(3) 0.7738(7) 0.3375(3)
H8 H 1.1825 0.7134 0.3189
C16 C 1.1469(2) 0.9499(7) 0.3632(3)
C17 C 1.0838(2) 1.0429(6) 0.3891(2)
H9 H 1.0899 1.1616 0.4066
C18 C 1.0116(2) 0.9583(6) 0.3887(2)
C19 C 1.2252(3) 1.0430(10) 0.3624(5)
Cl1 Cl 1.08635(8) 0.83380(19) -0.21759(7)
Cl2 Cl 1.05809(9) 0.46684(18) 0.31074(10)
Cl3 Cl 0.93154(7) 1.07746(18) 0.41736(7)
loop_
_geom_bond_atom_site_label_1
_geom_bond_atom_site_label_2
_geom_bond_site_symmetry_1
_geom_bond_site_symmetry_2
S1 C8 1_555 1_555
O1 C7 1_555 1_555
F1 C19 1_555 1_555
F2 C19 1_555 1_555
F3 C19 1_555 1_555
N1 H1 1_555 1_555
N2 H2 1_555 1_555
N3 N4 1_555 1_555
N4 C11 1_555 1_555
N5 C12 1_555 1_555
C1 C2 1_555 1_555
C2 H3 1_555 1_555
C3 C2 1_555 1_555
H4 C3 1_555 1_555
C4 C3 1_555 1_555
C5 C4 1_555 1_555
H5 C5 1_555 1_555
C6 C1 1_555 1_555
H6 C6 1_555 1_555
C7 N1 1_555 1_555
C8 N1 1_555 1_555
C9 N2 1_555 1_555
C10 C9 1_555 1_555
H7 C10 1_555 1_555
C11 C10 1_555 1_555
C12 C11 1_555 1_555
C13 N3 1_555 1_555
C14 C13 1_555 1_555
C15 C14 1_555 1_555
H8 C15 1_555 1_555
C16 C15 1_555 1_555
C17 C16 1_555 1_555
H9 C17 1_555 1_555
C18 C13 1_555 1_555
C19 C16 1_555 1_555
Cl1 C1 1_555 1_555
Cl2 C14 1_555 1_555
Cl3 C18 1_555 1_555
N2 C8 1_555 1_555
N3 C9 1_555 1_555
C4 C7 1_555 1_555
C5 C6 1_555 1_555
C17 C18 1_555 1_555

#END
