
#######################################################################
#
#                 Cambridge Crystallographic Data Centre
#                                CCDC 
#
#######################################################################
#
# If this CIF has been generated from an entry in the Cambridge 
# Structural Database, then it will include bibliographic, chemical, 
# crystal, experimental, refinement or atomic coordinate data resulting 
# from the CCDC's data processing and validation procedures.
#
#######################################################################

data_HAHGOO
_chemical_formula_moiety         'C13 H10 N1 1+,H2 O1,Cl1 1-'
_chemical_name_systematic        'Acridinium chloride monohydrate'
_symmetry_cell_setting           monoclinic
_symmetry_space_group_name_H-M   'P 21'
_symmetry_Int_Tables_number      4
_space_group_name_Hall           'P 2yb'
loop_
_symmetry_equiv_pos_site_id
_symmetry_equiv_pos_as_xyz
1 x,y,z
2 -x,1/2+y,-z
_cell_length_a                   5.442(2)
_cell_length_b                   14.935(5)
_cell_length_c                   6.931(2)
_cell_angle_alpha                90
_cell_angle_beta                 99.016(8)
_cell_angle_gamma                90
_cell_volume                     556.366
_exptl_crystal_colour            yellow
_exptl_crystal_description       block
_cell_formula_units_Z            2
loop_
_atom_site_label
_atom_site_type_symbol
_atom_site_fract_x
_atom_site_fract_y
_atom_site_fract_z
Cl1 Cl 0.33830(19) 0.15989(8) 0.86460(13)
N1 N 0.9580(7) 0.2989(2) 0.9686(5)
H1 H 1.072(10) 0.261(3) 0.945(7)
C1 C 0.8988(7) 0.3672(3) 0.8407(5)
C2 C 1.0365(8) 0.3808(3) 0.6865(6)
H2 H 1.1718 0.3426 0.6715
C3 C 0.9711(9) 0.4499(3) 0.5593(6)
H3 H 1.0623 0.4593 0.4549
C4 C 0.7713(9) 0.5075(3) 0.5798(6)
H4 H 0.7275 0.5542 0.4878
C5 C 0.6413(9) 0.4967(3) 0.7300(7)
H5 H 0.5094 0.5367 0.7439
C6 C 0.7013(8) 0.4257(3) 0.8674(6)
C7 C 0.5744(7) 0.4102(3) 1.0224(6)
H6 H 0.4421 0.4491 1.0412
C8 C 0.6351(8) 0.3396(3) 1.1513(5)
C9 C 0.5067(9) 0.3207(3) 1.3085(7)
H7 H 0.3717 0.3575 1.3311
C10 C 0.5769(9) 0.2492(3) 1.4287(6)
H8 H 0.4891 0.2363 1.5336
C11 C 0.7769(8) 0.1948(3) 1.3980(6)
H9 H 0.8240 0.1462 1.4842
C12 C 0.9049(8) 0.2098(3) 1.2488(6)
H10 H 1.0397 0.1721 1.2303
C13 C 0.8358(7) 0.2822(3) 1.1212(5)
O1 O 0.8319(8) 0.0439(2) 0.8322(5)
H11 H 0.697(9) 0.077(3) 0.850(6)
H12 H 0.987(12) 0.074(4) 0.842(7)
loop_
_geom_bond_atom_site_label_1
_geom_bond_atom_site_label_2
_geom_bond_site_symmetry_1
_geom_bond_site_symmetry_2
N1 H1 1_555 1_555
C1 N1 1_555 1_555
C2 C1 1_555 1_555
H2 C2 1_555 1_555
C3 C2 1_555 1_555
H3 C3 1_555 1_555
C4 C3 1_555 1_555
H4 C4 1_555 1_555
C5 C4 1_555 1_555
H5 C5 1_555 1_555
C6 C1 1_555 1_555
C7 C6 1_555 1_555
H6 C7 1_555 1_555
C8 C7 1_555 1_555
C9 C8 1_555 1_555
H7 C9 1_555 1_555
C10 C9 1_555 1_555
H8 C10 1_555 1_555
C11 C10 1_555 1_555
H9 C11 1_555 1_555
C12 C11 1_555 1_555
H10 C12 1_555 1_555
C13 N1 1_555 1_555
O1 H11 1_555 1_555
H12 O1 1_555 1_555
C5 C6 1_555 1_555
C8 C13 1_555 1_555
C12 C13 1_555 1_555

#END
