
#######################################################################
#
#                 Cambridge Crystallographic Data Centre
#                                CCDC 
#
#######################################################################
#
# If this CIF has been generated from an entry in the Cambridge 
# Structural Database, then it will include bibliographic, chemical, 
# crystal, experimental, refinement or atomic coordinate data resulting 
# from the CCDC's data processing and validation procedures.
#
#######################################################################

data_HAJMEN
_chemical_formula_moiety         'C15 H11 Cl1 F3 N3 O3'
_chemical_name_systematic        
3-(4-chlorophenyl)-4,4,4-trifluoro-3-(nitromethyl)-1-(pyrazin-2-yl)butan-1-one
_symmetry_cell_setting           orthorhombic
_symmetry_space_group_name_H-M   'P 21 21 21'
_symmetry_Int_Tables_number      19
_space_group_name_Hall           'P 2ac 2ab'
loop_
_symmetry_equiv_pos_site_id
_symmetry_equiv_pos_as_xyz
1 x,y,z
2 1/2-x,-y,1/2+z
3 1/2+x,1/2-y,-z
4 -x,1/2+y,1/2-z
_cell_length_a                   7.74798(19)
_cell_length_b                   9.1129(2)
_cell_length_c                   21.7190(5)
_cell_angle_alpha                90
_cell_angle_beta                 90
_cell_angle_gamma                90
_cell_volume                     1533.5
_exptl_crystal_colour            colorless
_exptl_crystal_description       block
_cell_formula_units_Z            4
loop_
_atom_site_label
_atom_site_type_symbol
_atom_site_fract_x
_atom_site_fract_y
_atom_site_fract_z
C1 C 0.5268(4) 0.5953(3) 0.62805(13)
H1 H 0.6122 0.5961 0.6581
C2 C 0.4703(4) 0.7273(3) 0.60344(15)
H2 H 0.5165 0.8157 0.6170
C3 C 0.3451(4) 0.7253(3) 0.55878(13)
C4 C 0.2706(4) 0.5965(4) 0.54010(14)
H3 H 0.1825 0.5969 0.5110
C5 C 0.3280(4) 0.4663(4) 0.56506(15)
H4 H 0.2781 0.3786 0.5523
C6 C 0.4592(3) 0.4626(3) 0.60900(12)
C7 C 0.5315(4) 0.3142(3) 0.63237(12)
C8 C 0.6395(4) 0.3377(3) 0.69148(13)
H5 H 0.7406 0.3944 0.6801
H6 H 0.5717 0.3981 0.7192
C9 C 0.7012(4) 0.2057(3) 0.72767(14)
C10 C 0.8308(4) 0.2377(3) 0.77733(13)
C11 C 0.9244(4) 0.1222(4) 0.80231(14)
H7 H 0.9049 0.0277 0.7878
C12 C 1.0601(4) 0.2796(4) 0.86528(16)
H8 H 1.1384 0.2991 0.8967
C13 C 0.9683(4) 0.3940(4) 0.84029(15)
H9 H 0.9887 0.4882 0.8550
C14 C 0.3871(4) 0.1978(3) 0.63930(14)
H10 H 0.3359 0.1791 0.5993
H11 H 0.4372 0.1068 0.6540
C15 C 0.6514(4) 0.2557(4) 0.58154(15)
Cl1 Cl 0.28061(12) 0.89001(9) 0.52471(4)
F1 F 0.7199(3) 0.1253(2) 0.59512(11)
F2 F 0.7821(3) 0.3454(3) 0.57080(12)
F3 F 0.5695(3) 0.2377(3) 0.52822(9)
N1 N 0.8519(3) 0.3761(3) 0.79619(12)
N2 N 1.0409(4) 0.1427(3) 0.84630(13)
N3 N 0.2498(4) 0.2456(3) 0.68279(15)
O1 O 0.6547(4) 0.0810(2) 0.71977(13)
O2 O 0.2887(4) 0.2657(3) 0.73589(13)
O3 O 0.1042(4) 0.2597(3) 0.66201(17)
loop_
_geom_bond_atom_site_label_1
_geom_bond_atom_site_label_2
_geom_bond_site_symmetry_1
_geom_bond_site_symmetry_2
C1 H1 1_555 1_555
C2 C1 1_555 1_555
H2 C2 1_555 1_555
C3 C2 1_555 1_555
C4 C3 1_555 1_555
H3 C4 1_555 1_555
C5 C4 1_555 1_555
H4 C5 1_555 1_555
C6 C1 1_555 1_555
C7 C6 1_555 1_555
C8 C7 1_555 1_555
H5 C8 1_555 1_555
H6 C8 1_555 1_555
C9 C8 1_555 1_555
C10 C9 1_555 1_555
C11 C10 1_555 1_555
H7 C11 1_555 1_555
C12 H8 1_555 1_555
C13 C12 1_555 1_555
H9 C13 1_555 1_555
C14 C7 1_555 1_555
H10 C14 1_555 1_555
H11 C14 1_555 1_555
C15 C7 1_555 1_555
Cl1 C3 1_555 1_555
F1 C15 1_555 1_555
F2 C15 1_555 1_555
F3 C15 1_555 1_555
N1 C10 1_555 1_555
N2 C11 1_555 1_555
N3 C14 1_555 1_555
O1 C9 1_555 1_555
O2 N3 1_555 1_555
O3 N3 1_555 1_555
C5 C6 1_555 1_555
C12 N2 1_555 1_555
C13 N1 1_555 1_555

#END
