
#######################################################################
#
#                 Cambridge Crystallographic Data Centre
#                                CCDC 
#
#######################################################################
#
# If this CIF has been generated from an entry in the Cambridge 
# Structural Database, then it will include bibliographic, chemical, 
# crystal, experimental, refinement or atomic coordinate data resulting 
# from the CCDC's data processing and validation procedures.
#
#######################################################################

data_HAJQAN
_chemical_formula_moiety         'C30 H27 N1 O3'
_chemical_name_systematic        
1-methyl-3-oxo-N,1-diphenyl-1,3,3a,4,5,6,7,11c-octahydrophenanthro[3,4-c]furan-4-carboxamide
_symmetry_cell_setting           orthorhombic
_symmetry_space_group_name_H-M   'P b c a'
_symmetry_Int_Tables_number      61
_space_group_name_Hall           '-P 2ac 2ab'
loop_
_symmetry_equiv_pos_site_id
_symmetry_equiv_pos_as_xyz
1 x,y,z
2 1/2-x,-y,1/2+z
3 1/2+x,1/2-y,-z
4 -x,1/2+y,1/2-z
5 -x,-y,-z
6 1/2+x,y,1/2-z
7 1/2-x,1/2+y,z
8 x,1/2-y,1/2+z
_cell_length_a                   17.6276(19)
_cell_length_b                   9.7602(12)
_cell_length_c                   27.685(2)
_cell_angle_alpha                90
_cell_angle_beta                 90
_cell_angle_gamma                90
_cell_volume                     4763.17
_exptl_crystal_colour            colorless
_exptl_crystal_description       Prism
_chemical_melting_point          '415.4 K'
_cell_formula_units_Z            8
_chemical_properties_physical    ', base sensitive'
_exptl_crystal_recrystallization_method chloroform
loop_
_atom_site_label
_atom_site_type_symbol
_atom_site_fract_x
_atom_site_fract_y
_atom_site_fract_z
O1 O 0.11740(11) 0.3219(2) 0.12891(7)
O2 O 0.21165(10) 0.4144(2) -0.03417(6)
C1 C 0.15662(13) 0.1889(3) -0.03579(8)
H1 H 0.1782 0.0971 -0.0440
C2 C 0.07096(13) 0.1813(3) -0.04191(8)
N1 N 0.21648(12) 0.1761(2) 0.12111(7)
H2 H 0.2350 0.1119 0.1022
C3 C 0.12660(13) 0.1961(3) 0.05493(8)
H3 H 0.1194 0.0944 0.0558
O3 O 0.21708(12) 0.4551(2) 0.04443(7)
C4 C 0.19819(14) 0.2996(3) -0.06795(9)
C5 C 0.09468(15) 0.4517(3) -0.10026(10)
H4 H 0.0827 0.4752 -0.0678
C6 C 0.02392(14) 0.2196(3) -0.00647(8)
C7 C 0.18330(14) 0.2266(3) 0.01509(8)
H5 H 0.2304 0.1730 0.0220
C8 C 0.03977(15) 0.1199(3) -0.08631(8)
C9 C 0.04997(14) 0.2592(3) 0.04308(8)
H6 H 0.0121 0.2284 0.0671
H7 H 0.0538 0.3602 0.0452
C10 C 0.15310(16) 0.2397(3) 0.10507(9)
C11 C 0.20487(15) 0.3758(3) 0.01224(10)
C12 C 0.25658(16) 0.1997(3) 0.16443(8)
C13 C 0.15334(15) 0.3615(3) -0.10918(9)
C14 C -0.03679(15) 0.1379(3) -0.09763(9)
C15 C -0.06749(19) 0.0739(4) -0.13761(10)
H8 H -0.1196 0.0868 -0.1450
C16 C -0.06094(13) 0.2134(4) -0.01330(8)
H9 H -0.0851 0.2870 0.0059
H10 H -0.0801 0.1244 -0.0012
C17 C 0.23457(18) 0.2951(4) 0.19847(9)
H11 H 0.1888 0.3451 0.1942
C18 C 0.32269(17) 0.1284(3) 0.17156(10)
H12 H 0.3389 0.0634 0.1482
C19 C -0.08268(14) 0.2297(4) -0.06593(9)
H13 H -0.1372 0.2080 -0.0700
H14 H -0.0748 0.3261 -0.0759
C20 C 0.08326(18) 0.0391(3) -0.11681(9)
H15 H 0.1357 0.0272 -0.1101
C21 C 0.05291(16) 0.5086(4) -0.13748(11)
H16 H 0.0128 0.5705 -0.1304
C22 C 0.2789(2) 0.3177(4) 0.23859(10)
H17 H 0.2639 0.3848 0.2616
C23 C -0.0235(3) -0.0084(4) -0.16697(11)
H18 H -0.0454 -0.0534 -0.1940
C24 C 0.27537(14) 0.2453(4) -0.08276(10)
H19 H 0.3017 0.3143 -0.1023
H20 H 0.2689 0.1614 -0.1018
H21 H 0.3054 0.2251 -0.0538
C25 C 0.3434(2) 0.2461(4) 0.24578(11)
H22 H 0.3732 0.2617 0.2738
C26 C 0.16917(18) 0.3305(4) -0.15662(10)
H23 H 0.2092 0.2689 -0.1640
C27 C 0.0691(2) 0.4762(4) -0.18430(11)
H24 H 0.0403 0.5142 -0.2100
C28 C 0.3656(2) 0.1506(4) 0.21231(12)
H25 H 0.4108 0.0995 0.2173
C29 C 0.0523(2) -0.0246(4) -0.15671(10)
H26 H 0.0833 -0.0795 -0.1770
C30 C 0.1275(2) 0.3880(5) -0.19345(11)
H27 H 0.1396 0.3658 -0.2260
loop_
_geom_bond_atom_site_label_1
_geom_bond_atom_site_label_2
_geom_bond_site_symmetry_1
_geom_bond_site_symmetry_2
O1 C10 1_555 1_555
O2 C4 1_555 1_555
C1 H1 1_555 1_555
C2 C1 1_555 1_555
N1 H2 1_555 1_555
C3 H3 1_555 1_555
O3 C11 1_555 1_555
C4 C1 1_555 1_555
C5 H4 1_555 1_555
C6 C2 1_555 1_555
C7 C1 1_555 1_555
H5 C7 1_555 1_555
C8 C2 1_555 1_555
C9 C3 1_555 1_555
H6 C9 1_555 1_555
H7 C9 1_555 1_555
C10 N1 1_555 1_555
C11 O2 1_555 1_555
C12 N1 1_555 1_555
C13 C4 1_555 1_555
C14 C8 1_555 1_555
C15 C14 1_555 1_555
H8 C15 1_555 1_555
C16 C6 1_555 1_555
H9 C16 1_555 1_555
H10 C16 1_555 1_555
C17 C12 1_555 1_555
H11 C17 1_555 1_555
C18 C12 1_555 1_555
H12 C18 1_555 1_555
C19 C14 1_555 1_555
H13 C19 1_555 1_555
H14 C19 1_555 1_555
C20 C8 1_555 1_555
H15 C20 1_555 1_555
C21 C5 1_555 1_555
H16 C21 1_555 1_555
C22 C17 1_555 1_555
H17 C22 1_555 1_555
C23 C15 1_555 1_555
H18 C23 1_555 1_555
C24 C4 1_555 1_555
H19 C24 1_555 1_555
H20 C24 1_555 1_555
H21 C24 1_555 1_555
C25 C22 1_555 1_555
H22 C25 1_555 1_555
C26 C13 1_555 1_555
H23 C26 1_555 1_555
C27 C21 1_555 1_555
H24 C27 1_555 1_555
C28 C18 1_555 1_555
H25 C28 1_555 1_555
C29 C20 1_555 1_555
H26 C29 1_555 1_555
C30 C26 1_555 1_555
H27 C30 1_555 1_555
C3 C7 1_555 1_555
C3 C10 1_555 1_555
C5 C13 1_555 1_555
C6 C9 1_555 1_555
C7 C11 1_555 1_555
C16 C19 1_555 1_555
C23 C29 1_555 1_555
C25 C28 1_555 1_555
C27 C30 1_555 1_555

#END
