
#######################################################################
#
#                 Cambridge Crystallographic Data Centre
#                                CCDC 
#
#######################################################################
#
# If this CIF has been generated from an entry in the Cambridge 
# Structural Database, then it will include bibliographic, chemical, 
# crystal, experimental, refinement or atomic coordinate data resulting 
# from the CCDC's data processing and validation procedures.
#
#######################################################################

data_HAKCON
_chemical_name_common            (E)-N'-(2-Thienylmethylene)-2-furohydrazide
_chemical_formula_moiety         'C10 H8 N2 O2 S1'
_chemical_name_systematic        
(E)-N'-(Thiophen-2-ylmethylene)furan-2-carbohydrazide
_symmetry_cell_setting           orthorhombic
_symmetry_space_group_name_H-M   'P b c a'
_symmetry_Int_Tables_number      61
_space_group_name_Hall           '-P 2ac 2ab'
loop_
_symmetry_equiv_pos_site_id
_symmetry_equiv_pos_as_xyz
1 x,y,z
2 1/2-x,-y,1/2+z
3 -x,1/2+y,1/2-z
4 1/2+x,1/2-y,-z
5 -x,-y,-z
6 1/2+x,y,1/2-z
7 x,1/2-y,1/2+z
8 1/2-x,1/2+y,z
_cell_length_a                   11.9394(5)
_cell_length_b                   7.6572(3)
_cell_length_c                   22.4747(9)
_cell_angle_alpha                90
_cell_angle_beta                 90
_cell_angle_gamma                90
_cell_volume                     2054.69
_exptl_crystal_colour            colorless
_exptl_crystal_description       block
_cell_formula_units_Z            8
_exptl_crystal_recrystallization_method methanol
loop_
_atom_site_label
_atom_site_type_symbol
_atom_site_fract_x
_atom_site_fract_y
_atom_site_fract_z
S1 S 0.28080(8) 0.08976(13) 0.73136(4)
N1 N 0.2567(2) 0.2140(3) 0.85969(10)
O1 O 0.11097(18) 0.0792(3) 0.93900(9)
N2 N 0.2337(2) 0.2933(3) 0.91358(11)
H1 H 0.2674 0.3879 0.9238
C1 C 0.1571(2) 0.2190(4) 0.94981(12)
C2 C 0.3377(2) 0.2819(4) 0.83101(13)
H2 H 0.3782 0.3731 0.8479
C3 C 0.3678(3) 0.2184(4) 0.77196(13)
O2 O 0.1784(2) 0.4752(3) 1.01280(10)
C4 C 0.4678(2) 0.2603(4) 0.73937(13)
H3 H 0.5261 0.3304 0.7529
C5 C 0.1308(2) 0.3156(4) 1.00420(13)
C6 C 0.0621(3) 0.2775(5) 1.04965(14)
H4 H 0.0197 0.1766 1.0542
C7 C 0.3703(4) 0.0869(5) 0.67340(17)
C8 C 0.0669(4) 0.4206(5) 1.08915(17)
H5 H 0.0283 0.4322 1.1249
C9 C 0.4627(3) 0.1775(5) 0.68369(15)
H6 H 0.5203 0.1857 0.6560
C10 C 0.1368(4) 0.5348(5) 1.06548(17)
H7 H 0.1552 0.6418 1.0825
H8 H 0.344(4) 0.029(6) 0.644(2)
loop_
_geom_bond_atom_site_label_1
_geom_bond_atom_site_label_2
_geom_bond_site_symmetry_1
_geom_bond_site_symmetry_2
S1 C3 1_555 1_555
N1 N2 1_555 1_555
O1 C1 1_555 1_555
N2 H1 1_555 1_555
C1 N2 1_555 1_555
C2 N1 1_555 1_555
H2 C2 1_555 1_555
C3 C2 1_555 1_555
O2 C5 1_555 1_555
C4 C3 1_555 1_555
H3 C4 1_555 1_555
C5 C1 1_555 1_555
C6 C5 1_555 1_555
H4 C6 1_555 1_555
C7 S1 1_555 1_555
C8 C6 1_555 1_555
H5 C8 1_555 1_555
C9 C4 1_555 1_555
H6 C9 1_555 1_555
C10 O2 1_555 1_555
H7 C10 1_555 1_555
H8 C7 1_555 1_555
C7 C9 1_555 1_555
C8 C10 1_555 1_555

#END
