
#######################################################################
#
#                 Cambridge Crystallographic Data Centre
#                                CCDC 
#
#######################################################################
#
# If this CIF has been generated from an entry in the Cambridge 
# Structural Database, then it will include bibliographic, chemical, 
# crystal, experimental, refinement or atomic coordinate data resulting 
# from the CCDC's data processing and validation procedures.
#
#######################################################################

data_HAKJUB
_chemical_formula_moiety         'C19 H36 O4 Si1'
_chemical_name_systematic        
1-((t-butyl(dimethyl)silyl)oxy)-4-(hydroxymethyl)-9-(3-hydroxypropyl)bicyclo[3.3.1]nonan-3-one
_symmetry_cell_setting           triclinic
_symmetry_space_group_name_H-M   'P -1'
_symmetry_Int_Tables_number      2
_space_group_name_Hall           '-P 1'
loop_
_symmetry_equiv_pos_site_id
_symmetry_equiv_pos_as_xyz
1 x,y,z
2 -x,-y,-z
_cell_length_a                   8.6124(9)
_cell_length_b                   11.8286(11)
_cell_length_c                   20.662(2)
_cell_angle_alpha                100.162(8)
_cell_angle_beta                 95.034(8)
_cell_angle_gamma                90.072(8)
_cell_volume                     2063.58
_exptl_crystal_colour            colorless
_exptl_crystal_description       plate
_cell_formula_units_Z            4
_exptl_crystal_recrystallization_method ethanol
loop_
_atom_site_label
_atom_site_type_symbol
_atom_site_fract_x
_atom_site_fract_y
_atom_site_fract_z
Si1 Si 0.8158(3) 0.57112(19) 0.86073(11)
O1 O 0.7715(6) 0.5920(4) 0.7863(2)
O2 O 0.2955(7) 0.7562(5) 0.7174(3)
O3 O 0.3770(6) 0.6780(5) 0.5197(2)
H1 H 0.2966 0.6729 0.4932
O4 O 0.9220(6) 0.3329(5) 0.5335(3)
H2 H 0.9770 0.2775 0.5184
C1 C 0.6379(9) 0.5841(6) 0.7390(4)
C2 C 0.5402(9) 0.6935(7) 0.7569(4)
H3 H 0.4861 0.6867 0.7964
H4 H 0.6124 0.7605 0.7690
C3 C 0.4223(10) 0.7167(7) 0.7043(4)
C4 C 0.4696(10) 0.6941(7) 0.6342(4)
H5 H 0.5459 0.7563 0.6311
C5 C 0.5570(9) 0.5791(7) 0.6197(4)
H6 H 0.5978 0.5728 0.5754
C6 C 0.4543(10) 0.4717(8) 0.6195(4)
H7 H 0.3601 0.4741 0.5887
H8 H 0.5128 0.4024 0.6025
C7 C 0.4035(9) 0.4606(7) 0.6872(4)
H9 H 0.3540 0.3841 0.6845
H10 H 0.3249 0.5195 0.6999
C8 C 0.5409(9) 0.4752(7) 0.7403(4)
H11 H 0.6082 0.4072 0.7330
H12 H 0.5013 0.4802 0.7842
C9 C 0.6961(9) 0.5812(6) 0.6717(4)
H13 H 0.7520 0.6561 0.6739
C10 C 0.8149(9) 0.4870(7) 0.6525(4)
H14 H 0.8790 0.4749 0.6928
H15 H 0.7580 0.4142 0.6337
C11 C 0.9224(9) 0.5157(7) 0.6026(4)
H16 H 0.8582 0.5415 0.5660
H17 H 0.9921 0.5806 0.6243
C12 C 1.0189(9) 0.4196(7) 0.5748(4)
H18 H 1.0971 0.4476 0.5487
H19 H 1.0750 0.3870 0.6110
C13 C 0.3337(10) 0.7053(7) 0.5859(4)
H20 H 0.2483 0.6529 0.5917
H21 H 0.2951 0.7849 0.5942
C14 C 0.6694(11) 0.6274(9) 0.9186(5)
H22 H 0.6389 0.7045 0.9118
H23 H 0.7146 0.6312 0.9642
H24 H 0.5774 0.5763 0.9105
C15 C 0.8369(12) 0.4145(7) 0.8611(5)
H25 H 0.7339 0.3769 0.8527
H26 H 0.8849 0.4032 0.9042
H27 H 0.9030 0.3812 0.8266
C16 C 1.0077(11) 0.6491(8) 0.8842(5)
C17 C 1.1210(10) 0.6081(10) 0.8313(5)
H28 H 1.0832 0.6321 0.7898
H29 H 1.1271 0.5241 0.8244
H30 H 1.2247 0.6419 0.8463
C18 C 1.0816(12) 0.6228(11) 0.9507(5)
H31 H 1.1792 0.6669 0.9634
H32 H 1.1030 0.5405 0.9462
H33 H 1.0094 0.6442 0.9848
C19 C 0.9833(13) 0.7793(8) 0.8890(5)
H34 H 1.0845 0.8183 0.8913
H35 H 0.9313 0.8088 0.9287
H36 H 0.9184 0.7934 0.8499
Si2 Si 0.6801(3) 0.85074(19) 0.13889(11)
O5 O 0.7265(6) 0.9152(5) 0.2143(3)
O6 O 1.2027(6) 1.1240(5) 0.2822(3)
O7 O 1.1236(6) 1.1669(5) 0.4803(3)
H37 H 1.2048 1.1735 0.5064
O8 O 0.5769(6) 0.8133(5) 0.4672(3)
H38 H 0.5212 0.7775 0.4885
C20 C 0.8611(9) 0.9350(6) 0.2607(4)
C21 C 0.9559(9) 1.0349(7) 0.2426(4)
H39 H 1.0102 1.0047 0.2030
H40 H 0.8821 1.0935 0.2307
C22 C 1.0745(10) 1.0924(7) 0.2960(4)
C23 C 1.0306(9) 1.1103(7) 0.3658(4)
H41 H 0.9536 1.1739 0.3696
C24 C 0.9427(9) 1.0027(7) 0.3794(4)
H42 H 0.9021 1.0230 0.4238
C25 C 1.0450(10) 0.8996(7) 0.3801(4)
H43 H 0.9885 0.8406 0.3980
H44 H 1.1397 0.9227 0.4103
C26 C 1.0946(9) 0.8458(7) 0.3120(4)
H45 H 1.1725 0.8969 0.2987
H46 H 1.1447 0.7714 0.3149
C27 C 0.9574(9) 0.8265(7) 0.2596(4)
H47 H 0.8906 0.7630 0.2674
H48 H 0.9963 0.8039 0.2155
C28 C 0.8024(9) 0.9750(7) 0.3278(4)
H49 H 0.7469 1.0487 0.3258
C29 C 0.6851(9) 0.8914(7) 0.3476(4)
H50 H 0.6210 0.8530 0.3076
H51 H 0.7430 0.8314 0.3671
C30 C 0.5774(9) 0.9530(7) 0.3976(4)
H52 H 0.6420 1.0022 0.4338
H53 H 0.5077 1.0037 0.3755
C31 C 0.4804(9) 0.8741(7) 0.4266(4)
H54 H 0.4035 0.9188 0.4531
H55 H 0.4226 0.8193 0.3909
C32 C 1.1652(10) 1.1520(7) 0.4138(4)
H56 H 1.2506 1.0961 0.4081
H57 H 1.2038 1.2261 0.4048
C33 C 0.6609(11) 0.6944(7) 0.1343(5)
H58 H 0.5875 0.6784 0.1654
H59 H 0.7629 0.6631 0.1458
H60 H 0.6222 0.6584 0.0894
C34 C 0.8227(11) 0.8793(9) 0.0811(5)
H61 H 0.9214 0.8423 0.0913
H62 H 0.8403 0.9624 0.0859
H63 H 0.7816 0.8484 0.0357
C35 C 0.4836(11) 0.9106(8) 0.1180(4)
C36 C 0.3777(11) 0.9050(9) 0.1742(5)
H64 H 0.3622 0.8247 0.1785
H65 H 0.2766 0.9387 0.1637
H66 H 0.4272 0.9481 0.2157
C37 C 0.5031(15) 1.0392(9) 0.1122(6)
H67 H 0.4002 1.0738 0.1079
H68 H 0.5578 1.0447 0.0732
H69 H 0.5637 1.0802 0.1518
C38 C 0.4057(12) 0.8444(10) 0.0537(5)
H70 H 0.3109 0.8838 0.0409
H71 H 0.3786 0.7666 0.0596
H72 H 0.4774 0.8401 0.0191
loop_
_geom_bond_atom_site_label_1
_geom_bond_atom_site_label_2
_geom_bond_site_symmetry_1
_geom_bond_site_symmetry_2
Si1 O1 1_555 1_555
O1 C1 1_555 1_555
O2 C3 1_555 1_555
O3 H1 1_555 1_555
O4 H2 1_555 1_555
C1 C2 1_555 1_555
C2 H3 1_555 1_555
H4 C2 1_555 1_555
C3 C2 1_555 1_555
C4 C3 1_555 1_555
H5 C4 1_555 1_555
C5 C4 1_555 1_555
H6 C5 1_555 1_555
C6 C5 1_555 1_555
H7 C6 1_555 1_555
H8 C6 1_555 1_555
C7 C6 1_555 1_555
H9 C7 1_555 1_555
H10 C7 1_555 1_555
C8 C1 1_555 1_555
H11 C8 1_555 1_555
H12 C8 1_555 1_555
C9 C1 1_555 1_555
H13 C9 1_555 1_555
C10 C9 1_555 1_555
H14 C10 1_555 1_555
H15 C10 1_555 1_555
C11 C10 1_555 1_555
H16 C11 1_555 1_555
H17 C11 1_555 1_555
C12 O4 1_555 1_555
H18 C12 1_555 1_555
H19 C12 1_555 1_555
C13 O3 1_555 1_555
H20 C13 1_555 1_555
H21 C13 1_555 1_555
C14 Si1 1_555 1_555
H22 C14 1_555 1_555
H23 C14 1_555 1_555
H24 C14 1_555 1_555
C15 Si1 1_555 1_555
H25 C15 1_555 1_555
H26 C15 1_555 1_555
H27 C15 1_555 1_555
C16 Si1 1_555 1_555
C17 C16 1_555 1_555
H28 C17 1_555 1_555
H29 C17 1_555 1_555
H30 C17 1_555 1_555
C18 C16 1_555 1_555
H31 C18 1_555 1_555
H32 C18 1_555 1_555
H33 C18 1_555 1_555
C19 C16 1_555 1_555
H34 C19 1_555 1_555
H35 C19 1_555 1_555
H36 C19 1_555 1_555
Si2 O5 1_555 1_555
O5 C20 1_555 1_555
O6 C22 1_555 1_555
O7 H37 1_555 1_555
O8 H38 1_555 1_555
C20 C21 1_555 1_555
C21 H39 1_555 1_555
H40 C21 1_555 1_555
C22 C21 1_555 1_555
C23 C22 1_555 1_555
H41 C23 1_555 1_555
C24 C23 1_555 1_555
H42 C24 1_555 1_555
C25 C24 1_555 1_555
H43 C25 1_555 1_555
H44 C25 1_555 1_555
C26 C25 1_555 1_555
H45 C26 1_555 1_555
H46 C26 1_555 1_555
C27 C20 1_555 1_555
H47 C27 1_555 1_555
H48 C27 1_555 1_555
C28 C20 1_555 1_555
H49 C28 1_555 1_555
C29 C28 1_555 1_555
H50 C29 1_555 1_555
H51 C29 1_555 1_555
C30 C29 1_555 1_555
H52 C30 1_555 1_555
H53 C30 1_555 1_555
C31 O8 1_555 1_555
H54 C31 1_555 1_555
H55 C31 1_555 1_555
C32 O7 1_555 1_555
H56 C32 1_555 1_555
H57 C32 1_555 1_555
C33 Si2 1_555 1_555
H58 C33 1_555 1_555
H59 C33 1_555 1_555
H60 C33 1_555 1_555
C34 Si2 1_555 1_555
H61 C34 1_555 1_555
H62 C34 1_555 1_555
H63 C34 1_555 1_555
C35 Si2 1_555 1_555
C36 C35 1_555 1_555
H64 C36 1_555 1_555
H65 C36 1_555 1_555
H66 C36 1_555 1_555
C37 C35 1_555 1_555
H67 C37 1_555 1_555
H68 C37 1_555 1_555
H69 C37 1_555 1_555
C38 C35 1_555 1_555
H70 C38 1_555 1_555
H71 C38 1_555 1_555
H72 C38 1_555 1_555
C4 C13 1_555 1_555
C5 C9 1_555 1_555
C7 C8 1_555 1_555
C11 C12 1_555 1_555
C23 C32 1_555 1_555
C24 C28 1_555 1_555
C26 C27 1_555 1_555
C30 C31 1_555 1_555

#END
