
#######################################################################
#
#                 Cambridge Crystallographic Data Centre
#                                CCDC 
#
#######################################################################
#
# If this CIF has been generated from an entry in the Cambridge 
# Structural Database, then it will include bibliographic, chemical, 
# crystal, experimental, refinement or atomic coordinate data resulting 
# from the CCDC's data processing and validation procedures.
#
#######################################################################

data_HAKLEN
_chemical_formula_moiety         'C25 H22 O1 P1 1+,Br1 1-'
_chemical_name_systematic        
'(4-methoxyphenyl)(triphenyl)phosphonium bromide'
_symmetry_cell_setting           triclinic
_symmetry_space_group_name_H-M   'P -1'
_symmetry_Int_Tables_number      2
_space_group_name_Hall           '-P 1'
loop_
_symmetry_equiv_pos_site_id
_symmetry_equiv_pos_as_xyz
1 x,y,z
2 -x,-y,-z
_cell_length_a                   10.5304(12)
_cell_length_b                   10.6627(12)
_cell_length_c                   10.6950(12)
_cell_angle_alpha                75.107(2)
_cell_angle_beta                 72.547(2)
_cell_angle_gamma                70.327(2)
_cell_volume                     1062.31
_exptl_crystal_colour            colorless
_exptl_crystal_description       block
_cell_formula_units_Z            2
loop_
_atom_site_label
_atom_site_type_symbol
_atom_site_fract_x
_atom_site_fract_y
_atom_site_fract_z
Br1 Br 0.05212(6) 0.24993(6) 0.67768(6)
P1 P -0.44570(13) 0.26637(12) 0.83217(14)
O1 O -1.0107(4) 0.3523(5) 1.1893(4)
C1 C -0.6154(5) 0.2849(5) 0.9388(5)
C2 C -0.7335(6) 0.3015(5) 0.8916(6)
C3 C -0.8630(6) 0.3236(6) 0.9765(6)
C4 C -0.8799(5) 0.3307(5) 1.1088(6)
C5 C -0.7657(6) 0.3145(6) 1.1559(6)
C6 C -0.6349(5) 0.2913(5) 1.0711(6)
C7 C -0.3245(5) 0.2206(5) 0.9350(5)
C8 C -0.2675(6) 0.0837(6) 0.9813(6)
C9 C -0.1844(6) 0.0467(8) 1.0715(7)
C10 C -0.1582(6) 0.1444(9) 1.1119(7)
H1 H -0.1002 0.1191 1.1725
C11 C -0.2135(7) 0.2776(10) 1.0673(7)
C12 C -0.2977(5) 0.3196(6) 0.9763(6)
H2 H -0.3351 0.4128 0.9443
C13 C -0.4364(5) 0.4245(5) 0.7227(5)
C14 C -0.5560(6) 0.5211(5) 0.6949(6)
H3 H -0.6443 0.5063 0.7373
C15 C -0.5465(8) 0.6372(7) 0.6066(7)
C16 C -0.4183(9) 0.6583(7) 0.5424(7)
C17 C -0.2999(8) 0.5642(6) 0.5697(6)
C18 C -0.3092(6) 0.4467(6) 0.6602(6)
C19 C -0.3965(5) 0.1364(5) 0.7322(5)
C20 C -0.4866(6) 0.0637(5) 0.7382(5)
H4 H -0.5753 0.0779 0.7982
C21 C -0.4431(8) -0.0299(6) 0.6543(7)
C22 C -0.3159(7) -0.0508(6) 0.5685(6)
H5 H -0.2894 -0.1139 0.5103
C23 C -0.2259(6) 0.0176(6) 0.5649(6)
H6 H -0.1366 0.0006 0.5060
C24 C -0.2651(6) 0.1117(5) 0.6473(6)
C25 C -1.0350(7) 0.3683(8) 1.3309(7)
H7 H -1.1339 0.3832 1.3739
H8 H -1.0058 0.4460 1.3321
H9 H -0.9812 0.2862 1.3789
H10 H -0.726(5) 0.305(4) 0.806(5)
H11 H -0.942(5) 0.335(5) 0.952(5)
H12 H -0.780(4) 0.323(4) 1.247(5)
H13 H -0.554(5) 0.276(5) 1.099(5)
H14 H -0.280(6) 0.019(6) 0.951(6)
H15 H -0.148(7) -0.041(7) 1.108(6)
H16 H -0.215(6) 0.346(6) 1.081(6)
H17 H -0.617(7) 0.692(7) 0.587(7)
H18 H -0.419(6) 0.730(6) 0.484(6)
H19 H -0.219(5) 0.585(5) 0.529(5)
H20 H -0.244(5) 0.392(5) 0.685(5)
H21 H -0.503(5) -0.060(5) 0.660(5)
H22 H -0.205(6) 0.156(5) 0.645(5)
loop_
_geom_bond_atom_site_label_1
_geom_bond_atom_site_label_2
_geom_bond_site_symmetry_1
_geom_bond_site_symmetry_2
P1 C1 1_555 1_555
O1 C4 1_555 1_555
C1 C2 1_555 1_555
C2 C3 1_555 1_555
C3 C4 1_555 1_555
C4 C5 1_555 1_555
C5 C6 1_555 1_555
C6 C1 1_555 1_555
C7 P1 1_555 1_555
C8 C7 1_555 1_555
C9 C8 1_555 1_555
C10 C9 1_555 1_555
H1 C10 1_555 1_555
C11 C10 1_555 1_555
C12 C7 1_555 1_555
H2 C12 1_555 1_555
C13 P1 1_555 1_555
C14 C13 1_555 1_555
H3 C14 1_555 1_555
C15 C14 1_555 1_555
C16 C15 1_555 1_555
C17 C16 1_555 1_555
C18 C13 1_555 1_555
C19 P1 1_555 1_555
C20 C19 1_555 1_555
H4 C20 1_555 1_555
C21 C20 1_555 1_555
C22 C21 1_555 1_555
H5 C22 1_555 1_555
C23 C22 1_555 1_555
H6 C23 1_555 1_555
C24 C19 1_555 1_555
C25 O1 1_555 1_555
H7 C25 1_555 1_555
H8 C25 1_555 1_555
H9 C25 1_555 1_555
H10 C2 1_555 1_555
H11 C3 1_555 1_555
H12 C5 1_555 1_555
H13 C6 1_555 1_555
H14 C8 1_555 1_555
H15 C9 1_555 1_555
H16 C11 1_555 1_555
H17 C15 1_555 1_555
H18 C16 1_555 1_555
H19 C17 1_555 1_555
H20 C18 1_555 1_555
H21 C21 1_555 1_555
H22 C24 1_555 1_555
C11 C12 1_555 1_555
C17 C18 1_555 1_555
C23 C24 1_555 1_555

#END
