
#######################################################################
#
#                 Cambridge Crystallographic Data Centre
#                                CCDC 
#
#######################################################################
#
# If this CIF has been generated from an entry in the Cambridge 
# Structural Database, then it will include bibliographic, chemical, 
# crystal, experimental, refinement or atomic coordinate data resulting 
# from the CCDC's data processing and validation procedures.
#
#######################################################################

data_HAKZAW
_chemical_formula_moiety         'C25 H22 Br1 Cl1 O3 S1'
_chemical_name_systematic        
2-(Bromomethyl)-6-(4-chlorophenyl)-5-((4-methylphenyl)sulfonyl)-4-phenyl-3,6-dihydro-2H-pyran
_symmetry_cell_setting           triclinic
_symmetry_space_group_name_H-M   'P -1'
_symmetry_Int_Tables_number      2
_space_group_name_Hall           '-P 1'
loop_
_symmetry_equiv_pos_site_id
_symmetry_equiv_pos_as_xyz
1 x,y,z
2 -x,-y,-z
_cell_length_a                   7.9489(6)
_cell_length_b                   11.4254(9)
_cell_length_c                   13.5638(11)
_cell_angle_alpha                79.0030(10)
_cell_angle_beta                 84.1110(10)
_cell_angle_gamma                76.7080(10)
_cell_volume                     1174.61
_cell_formula_units_Z            2
loop_
_atom_site_label
_atom_site_type_symbol
_atom_site_fract_x
_atom_site_fract_y
_atom_site_fract_z
Br1 Br 0.42106(4) 0.62412(3) -0.20011(2)
C1 C 0.3451(3) 0.6728(2) -0.07066(17)
H1 H 0.2386 0.7347 -0.0770
H2 H 0.3218 0.6029 -0.0226
C2 C 0.4813(3) 0.72242(19) -0.03302(16)
H3 H 0.5127 0.7882 -0.0841
C3 C 0.4200(3) 0.7695(2) 0.06436(18)
H4 H 0.3413 0.8483 0.0496
H5 H 0.3563 0.7139 0.1069
C4 C 0.7751(2) 0.66505(18) 0.00489(15)
H6 H 0.8636 0.5919 0.0269
C5 C 0.7305(3) 0.73456(17) 0.09225(14)
C6 C 0.5671(3) 0.78239(18) 0.12097(15)
C7 C 0.5120(3) 0.8455(2) 0.20932(16)
C8 C 0.5545(3) 0.9547(2) 0.2139(2)
H7 H 0.6209 0.9904 0.1612
C9 C 0.4986(4) 1.0118(3) 0.2969(3)
H8 H 0.5269 1.0857 0.2996
C10 C 0.4020(5) 0.9590(4) 0.3746(2)
H9 H 0.3666 0.9965 0.4306
C11 C 0.3571(4) 0.8519(3) 0.3706(2)
H10 H 0.2908 0.8168 0.4236
C12 C 0.4100(3) 0.7954(3) 0.28792(19)
H11 H 0.3771 0.7232 0.2849
C13 C 0.8498(2) 0.73322(17) -0.09065(15)
C14 C 0.8756(3) 0.85059(19) -0.10078(16)
H12 H 0.8470 0.8918 -0.0465
C15 C 0.9434(3) 0.9080(2) -0.19053(17)
H13 H 0.9607 0.9869 -0.1966
C16 C 0.9841(3) 0.8465(2) -0.26968(16)
C17 C 0.9585(3) 0.7303(2) -0.26252(17)
H14 H 0.9861 0.6900 -0.3174
C18 C 0.8913(3) 0.6740(2) -0.17280(17)
H15 H 0.8736 0.5953 -0.1675
C19 C 0.8562(3) 0.6814(2) 0.28622(16)
C20 C 0.8125(3) 0.5688(2) 0.31174(17)
H16 H 0.8111 0.5228 0.2623
C21 C 0.7709(3) 0.5254(2) 0.41064(19)
H17 H 0.7404 0.4498 0.4277
C22 C 0.7736(3) 0.5923(3) 0.48555(18)
C23 C 0.8181(4) 0.7039(3) 0.45817(19)
H18 H 0.8203 0.7497 0.5077
C24 C 0.8598(3) 0.7500(2) 0.35912(18)
H19 H 0.8896 0.8257 0.3420
C25 C 0.7261(5) 0.5429(4) 0.5937(2)
H20 H 0.8185 0.4776 0.6198
H21 H 0.6220 0.5129 0.5970
H22 H 0.7077 0.6068 0.6329
Cl1 Cl 1.07159(10) 0.91575(7) -0.38319(5)
O1 O 0.62817(17) 0.62438(11) -0.01572(10)
O2 O 1.05099(19) 0.64139(15) 0.12590(12)
O3 O 0.9417(2) 0.85443(15) 0.14906(13)
S1 S 0.91259(7) 0.73350(5) 0.15921(4)
loop_
_geom_bond_atom_site_label_1
_geom_bond_atom_site_label_2
_geom_bond_site_symmetry_1
_geom_bond_site_symmetry_2
Br1 C1 1_555 1_555
C1 H1 1_555 1_555
H2 C1 1_555 1_555
C2 C1 1_555 1_555
H3 C2 1_555 1_555
C3 C2 1_555 1_555
H4 C3 1_555 1_555
H5 C3 1_555 1_555
C4 H6 1_555 1_555
C5 C4 1_555 1_555
C6 C3 1_555 1_555
C7 C6 1_555 1_555
C8 C7 1_555 1_555
H7 C8 1_555 1_555
C9 C8 1_555 1_555
H8 C9 1_555 1_555
C10 C9 1_555 1_555
H9 C10 1_555 1_555
C11 C10 1_555 1_555
H10 C11 1_555 1_555
C12 C7 1_555 1_555
H11 C12 1_555 1_555
C13 C4 1_555 1_555
C14 C13 1_555 1_555
H12 C14 1_555 1_555
C15 C14 1_555 1_555
H13 C15 1_555 1_555
C16 C15 1_555 1_555
C17 C16 1_555 1_555
H14 C17 1_555 1_555
C18 C13 1_555 1_555
H15 C18 1_555 1_555
C19 C20 1_555 1_555
C20 H16 1_555 1_555
C21 C20 1_555 1_555
H17 C21 1_555 1_555
C22 C21 1_555 1_555
C23 C22 1_555 1_555
H18 C23 1_555 1_555
C24 C19 1_555 1_555
H19 C24 1_555 1_555
C25 C22 1_555 1_555
H20 C25 1_555 1_555
H21 C25 1_555 1_555
H22 C25 1_555 1_555
Cl1 C16 1_555 1_555
O1 C2 1_555 1_555
O2 S1 1_555 1_555
O3 S1 1_555 1_555
S1 C5 1_555 1_555
C4 O1 1_555 1_555
C5 C6 1_555 1_555
C11 C12 1_555 1_555
C17 C18 1_555 1_555
C19 S1 1_555 1_555
C23 C24 1_555 1_555

#END
