
#######################################################################
#
#                 Cambridge Crystallographic Data Centre
#                                CCDC 
#
#######################################################################
#
# If this CIF has been generated from an entry in the Cambridge 
# Structural Database, then it will include bibliographic, chemical, 
# crystal, experimental, refinement or atomic coordinate data resulting 
# from the CCDC's data processing and validation procedures.
#
#######################################################################

data_HALHOT
_chemical_formula_moiety         'C14 H10 N2 O1 S1,C7 H6 N2 S1'
_chemical_name_systematic        
'2-((1,3-Benzothiazol-2-ylimino)methyl)phenol 1,3-benzothiazol-2-amine'
_symmetry_cell_setting           triclinic
_symmetry_space_group_name_H-M   'P -1'
_symmetry_Int_Tables_number      2
_space_group_name_Hall           '-P 1'
loop_
_symmetry_equiv_pos_site_id
_symmetry_equiv_pos_as_xyz
1 x,y,z
2 -x,-y,-z
_cell_length_a                   9.7732(5)
_cell_length_b                   9.9936(4)
_cell_length_c                   11.0193(7)
_cell_angle_alpha                71.901(9)
_cell_angle_beta                 78.686(10)
_cell_angle_gamma                70.397(9)
_cell_volume                     958.609
_exptl_crystal_colour            yellow
_exptl_crystal_description       prism
_cell_formula_units_Z            2
loop_
_atom_site_label
_atom_site_type_symbol
_atom_site_fract_x
_atom_site_fract_y
_atom_site_fract_z
S1 S 0.33370(7) 0.22030(7) 0.54036(6)
O1 O 0.2539(3) -0.3108(2) 0.6268(2)
H1 H 0.2852 -0.2493 0.6396
N1 N 0.3056(2) -0.0591(2) 0.58105(19)
N2 N 0.4397(2) -0.0210(2) 0.71401(18)
C1 C 0.1839(3) -0.2507(3) 0.5199(3)
C2 C 0.1231(3) -0.3363(3) 0.4813(3)
H4 H 0.1308 -0.4338 0.5298
C3 C 0.0520(3) -0.2786(4) 0.3726(3)
H5 H 0.0124 -0.3380 0.3467
C4 C 0.0372(3) -0.1354(4) 0.3004(3)
H6 H -0.0123 -0.0971 0.2263
C5 C 0.0956(3) -0.0497(3) 0.3380(3)
H7 H 0.0848 0.0482 0.2891
C6 C 0.1711(3) -0.1037(3) 0.4473(2)
C7 C 0.2318(3) -0.0121(3) 0.4836(2)
H8 H 0.2175 0.0861 0.4345
C8 C 0.3616(3) 0.0318(2) 0.6170(2)
C9 C 0.4341(3) 0.2280(3) 0.6502(2)
C10 C 0.4654(3) 0.3483(3) 0.6626(3)
H9 H 0.4332 0.4418 0.6055
C11 C 0.5447(3) 0.3272(3) 0.7606(3)
H10 H 0.5671 0.4075 0.7704
C12 C 0.5926(3) 0.1884(3) 0.8461(3)
H11 H 0.6462 0.1768 0.9127
C13 C 0.5623(3) 0.0689(3) 0.8336(2)
H12 H 0.5958 -0.0244 0.8907
C14 C 0.4812(3) 0.0875(3) 0.7355(2)
S2 S 0.18453(8) 0.36043(8) 0.20893(6)
N3 N 0.4706(3) 0.3373(3) 0.1368(2)
H2 H 0.547(2) 0.362(3) 0.087(2)
H3 H 0.484(3) 0.2475(17) 0.189(2)
N4 N 0.2985(2) 0.5557(2) 0.0440(2)
C15 C 0.3326(3) 0.4225(3) 0.1211(2)
C16 C 0.0657(3) 0.5274(3) 0.1355(2)
C17 C -0.0860(3) 0.5756(3) 0.1517(2)
H13 H -0.1399 0.5137 0.2060
C18 C -0.1552(3) 0.7180(4) 0.0851(3)
H14 H -0.2577 0.7535 0.0949
C19 C -0.0762(3) 0.8087(3) 0.0046(3)
H15 H -0.1259 0.9054 -0.0382
C20 C 0.0751(3) 0.7599(3) -0.0142(3)
H16 H 0.1279 0.8217 -0.0705
C21 C 0.1468(3) 0.6177(3) 0.0522(2)
loop_
_geom_bond_atom_site_label_1
_geom_bond_atom_site_label_2
_geom_bond_site_symmetry_1
_geom_bond_site_symmetry_2
S1 C8 1_555 1_555
S2 C15 1_555 1_555
O1 H1 1_555 1_555
N1 C7 1_555 1_555
N2 C8 1_555 1_555
N3 H2 1_555 1_555
H3 N3 1_555 1_555
N4 C15 1_555 1_555
C1 O1 1_555 1_555
C2 C1 1_555 1_555
H4 C2 1_555 1_555
C3 C2 1_555 1_555
H5 C3 1_555 1_555
C4 C3 1_555 1_555
H6 C4 1_555 1_555
C5 C4 1_555 1_555
H7 C5 1_555 1_555
C6 C1 1_555 1_555
C7 C6 1_555 1_555
H8 C7 1_555 1_555
C8 N1 1_555 1_555
C9 S1 1_555 1_555
C10 C9 1_555 1_555
H9 C10 1_555 1_555
C11 C10 1_555 1_555
H10 C11 1_555 1_555
C12 C11 1_555 1_555
H11 C12 1_555 1_555
C13 C12 1_555 1_555
H12 C13 1_555 1_555
C14 N2 1_555 1_555
C15 N3 1_555 1_555
C16 S2 1_555 1_555
C17 C16 1_555 1_555
H13 C17 1_555 1_555
C18 C17 1_555 1_555
H14 C18 1_555 1_555
C19 C18 1_555 1_555
H15 C19 1_555 1_555
C20 C19 1_555 1_555
H16 C20 1_555 1_555
C21 N4 1_555 1_555
C5 C6 1_555 1_555
C9 C14 1_555 1_555
C13 C14 1_555 1_555
C16 C21 1_555 1_555
C20 C21 1_555 1_555

#END
