
#######################################################################
#
#                 Cambridge Crystallographic Data Centre
#                                CCDC 
#
#######################################################################
#
# If this CIF has been generated from an entry in the Cambridge 
# Structural Database, then it will include bibliographic, chemical, 
# crystal, experimental, refinement or atomic coordinate data resulting 
# from the CCDC's data processing and validation procedures.
#
#######################################################################

data_HALJIP
_chemical_formula_moiety         'C16 H20 N4 O3 S1'
_chemical_name_systematic        
N'-t-Butyl-N-(3-methoxybenzoyl)-4-methyl-1,2,3-thiadiazole-5-carbohydrazide
_symmetry_cell_setting           monoclinic
_symmetry_space_group_name_H-M   'P 21/c'
_symmetry_Int_Tables_number      14
_space_group_name_Hall           '-P 2ybc'
loop_
_symmetry_equiv_pos_site_id
_symmetry_equiv_pos_as_xyz
1 x,y,z
2 -x,1/2+y,1/2-z
3 -x,-y,-z
4 x,1/2-y,1/2+z
_cell_length_a                   17.986(2)
_cell_length_b                   8.0180(10)
_cell_length_c                   12.0190(14)
_cell_angle_alpha                90
_cell_angle_beta                 91.160(5)
_cell_angle_gamma                90
_cell_volume                     1732.93
_exptl_crystal_colour            colorless
_exptl_crystal_description       prism
_chemical_melting_point          '467-469 K'
_cell_formula_units_Z            4
loop_
_atom_site_label
_atom_site_type_symbol
_atom_site_fract_x
_atom_site_fract_y
_atom_site_fract_z
S1 S 0.12472(2) 0.29166(4) 0.46169(3)
O1 O 0.32289(5) 0.49315(13) 0.50346(8)
O2 O 0.27328(6) 0.65341(14) 0.21749(8)
O3 O 0.48853(6) 1.06175(14) 0.26811(8)
N1 N 0.11214(7) 0.15227(15) 0.56180(10)
N2 N 0.16396(7) 0.16137(14) 0.63948(9)
N3 N 0.23018(6) 0.59276(13) 0.38994(8)
N4 N 0.15803(6) 0.55604(13) 0.34640(9)
C1 C 0.20506(7) 0.36574(16) 0.52152(10)
C2 C 0.21756(8) 0.27870(16) 0.61937(11)
C3 C 0.27881(9) 0.30006(19) 0.70446(12)
H1 H 0.2819 0.2004 0.7515
H2 H 0.2685 0.3977 0.7507
H3 H 0.3261 0.3160 0.6668
C4 C 0.25814(7) 0.48818(16) 0.47303(10)
C5 C 0.10432(7) 0.69751(16) 0.35292(10)
C6 C 0.13174(8) 0.85785(17) 0.29813(12)
H4 H 0.0931 0.9437 0.3022
H5 H 0.1428 0.8357 0.2200
H6 H 0.1768 0.8969 0.3371
C7 C 0.03448(8) 0.63344(19) 0.29198(11)
H7 H 0.0161 0.5338 0.3298
H8 H 0.0465 0.6053 0.2151
H9 H -0.0039 0.7202 0.2920
C8 C 0.08845(8) 0.73173(18) 0.47546(11)
H10 H 0.0671 0.6318 0.5091
H11 H 0.0532 0.8245 0.4809
H12 H 0.1349 0.7608 0.5148
C9 C 0.28073(7) 0.67799(16) 0.31624(10)
C10 C 0.33319(7) 0.80082(15) 0.36379(10)
C11 C 0.38843(7) 0.86128(16) 0.29349(10)
H13 H 0.3947 0.8139 0.2218
C12 C 0.43356(7) 0.99057(18) 0.32980(11)
C13 C 0.42423(9) 1.0587(2) 0.43536(12)
H14 H 0.4552 1.1478 0.4600
C14 C 0.37008(8) 0.99692(19) 0.50421(11)
H15 H 0.3645 1.0434 0.5763
C15 C 0.32395(7) 0.86799(17) 0.46923(10)
H16 H 0.2866 0.8262 0.5165
C16 C 0.49920(9) 0.9955(2) 0.15893(12)
H17 H 0.5128 0.8774 0.1645
H18 H 0.5391 1.0571 0.1227
H19 H 0.4531 1.0069 0.1148
H20 H 0.1637(8) 0.5267(19) 0.2767(12)
loop_
_geom_bond_atom_site_label_1
_geom_bond_atom_site_label_2
_geom_bond_site_symmetry_1
_geom_bond_site_symmetry_2
S1 N1 1_555 1_555
O1 C4 1_555 1_555
O2 C9 1_555 1_555
O3 C12 1_555 1_555
N1 N2 1_555 1_555
N2 C2 1_555 1_555
N3 N4 1_555 1_555
N4 C5 1_555 1_555
C1 S1 1_555 1_555
C2 C1 1_555 1_555
C3 C2 1_555 1_555
H1 C3 1_555 1_555
H2 C3 1_555 1_555
H3 C3 1_555 1_555
C4 N3 1_555 1_555
C5 C6 1_555 1_555
C6 H4 1_555 1_555
H5 C6 1_555 1_555
H6 C6 1_555 1_555
C7 C5 1_555 1_555
H7 C7 1_555 1_555
H8 C7 1_555 1_555
H9 C7 1_555 1_555
C8 C5 1_555 1_555
H10 C8 1_555 1_555
H11 C8 1_555 1_555
H12 C8 1_555 1_555
C9 N3 1_555 1_555
C10 C9 1_555 1_555
C11 C10 1_555 1_555
H13 C11 1_555 1_555
C12 C11 1_555 1_555
C13 C12 1_555 1_555
H14 C13 1_555 1_555
C14 C13 1_555 1_555
H15 C14 1_555 1_555
C15 C10 1_555 1_555
H16 C15 1_555 1_555
C16 O3 1_555 1_555
H17 C16 1_555 1_555
H18 C16 1_555 1_555
H19 C16 1_555 1_555
H20 N4 1_555 1_555
C1 C4 1_555 1_555
C14 C15 1_555 1_555

#END
