
#######################################################################
#
#                 Cambridge Crystallographic Data Centre
#                                CCDC 
#
#######################################################################
#
# If this CIF has been generated from an entry in the Cambridge 
# Structural Database, then it will include bibliographic, chemical, 
# crystal, experimental, refinement or atomic coordinate data resulting 
# from the CCDC's data processing and validation procedures.
#
#######################################################################

data_HALPIW
_chemical_formula_moiety         'C25 H29 N3 O3'
_chemical_name_systematic        
'methyl N-[(5-methyl-3-oxo-2-phenyl-2,3-dihydro-1H-pyrazol-4-yl)(4-methylphenyl)methylidene]leucinate'
_symmetry_cell_setting           monoclinic
_symmetry_space_group_name_H-M   'P 21'
_symmetry_Int_Tables_number      4
_space_group_name_Hall           'P 2yb'
loop_
_symmetry_equiv_pos_site_id
_symmetry_equiv_pos_as_xyz
1 x,y,z
2 -x,1/2+y,-z
_cell_length_a                   9.5612(5)
_cell_length_b                   13.2329(8)
_cell_length_c                   19.3593(11)
_cell_angle_alpha                90
_cell_angle_beta                 92.9190(10)
_cell_angle_gamma                90
_cell_volume                     2446.21
_exptl_crystal_colour            colorless
_exptl_crystal_description       block
_cell_formula_units_Z            4
loop_
_atom_site_label
_atom_site_type_symbol
_atom_site_fract_x
_atom_site_fract_y
_atom_site_fract_z
O1 O 0.2307(4) -0.0980(3) 0.1061(2)
O2 O 0.4226(7) 0.0859(5) 0.2601(4)
O3 O 0.4226(6) 0.2505(5) 0.2721(3)
N1 N 0.0032(4) -0.1635(3) 0.10401(18)
N2 N -0.1301(4) -0.1285(3) 0.1186(2)
N3 N 0.2319(4) 0.0944(3) 0.1535(2)
C1 C -0.1151(5) -0.0347(4) 0.1408(3)
C2 C 0.0299(4) -0.0027(4) 0.1402(2)
C3 C 0.1025(4) -0.0896(3) 0.1157(2)
C4 C 0.0191(5) -0.2632(4) 0.0811(2)
C5 C -0.1006(5) -0.3222(4) 0.0686(2)
H1 H -0.1892 -0.2952 0.0742
C6 C -0.0852(7) -0.4225(4) 0.0476(3)
H2 H -0.1644 -0.4624 0.0397
C7 C 0.0413(8) -0.4621(4) 0.0385(2)
H3 H 0.0492 -0.5290 0.0246
C8 C 0.1595(7) -0.4042(5) 0.0497(3)
H4 H 0.2472 -0.4318 0.0430
C9 C 0.1482(6) -0.3036(4) 0.0713(2)
H5 H 0.2282 -0.2644 0.0789
C10 C -0.2409(5) 0.0234(5) 0.1586(4)
H6 H -0.3235 -0.0104 0.1402
H7 H -0.2366 0.0900 0.1391
H8 H -0.2441 0.0283 0.2079
C11 C 0.0924(4) 0.0887(3) 0.1561(2)
C12 C 0.0100(4) 0.1776(3) 0.17457(19)
C13 C -0.0519(5) 0.2376(4) 0.1228(2)
H9 H -0.0379 0.2237 0.0765
C14 C -0.1341(5) 0.3178(4) 0.1405(3)
H10 H -0.1759 0.3574 0.1055
C15 C -0.1563(5) 0.3413(4) 0.2077(3)
C16 C -0.0912(6) 0.2845(4) 0.2574(3)
H11 H -0.1029 0.3008 0.3035
C17 C -0.0075(5) 0.2029(4) 0.2424(2)
H12 H 0.0364 0.1655 0.2780
C18 C -0.2493(7) 0.4290(4) 0.2246(4)
H13 H -0.1947 0.4899 0.2273
H14 H -0.2898 0.4171 0.2683
H15 H -0.3225 0.4359 0.1891
C19 C 0.3154(5) 0.1830(4) 0.1707(3)
H16 H 0.2558 0.2432 0.1720
C20 C 0.3928(6) 0.1678(7) 0.2388(4)
C21 C 0.5009(13) 0.2372(14) 0.3374(5)
H17 H 0.4374 0.2237 0.3731
H18 H 0.5529 0.2976 0.3485
H19 H 0.5644 0.1814 0.3339
C22 C 0.4340(7) 0.1993(6) 0.1204(4)
H20 H 0.5267 0.1819 0.1314
C23 C 0.3922(10) 0.2403(8) 0.0602(5)
H21 H 0.3106 0.2047 0.0395
C24 C 0.3606(14) 0.3602(8) 0.0677(6)
H22 H 0.2615 0.3718 0.0620
H23 H 0.4077 0.3967 0.0330
H24 H 0.3937 0.3829 0.1127
C25 C 0.5165(12) 0.2450(12) 0.0077(5)
H25 H 0.5923 0.2845 0.0278
H26 H 0.4827 0.2754 -0.0349
H27 H 0.5489 0.1778 -0.0011
O4 O 0.7371(3) 0.9819(3) 0.41540(17)
O5 O 0.5888(5) 0.7208(4) 0.4840(2)
O6 O 0.5996(5) 0.5643(3) 0.4428(3)
N4 N 0.9541(4) 1.0565(3) 0.39994(17)
N5 N 1.0840(4) 1.0278(3) 0.37450(18)
N6 N 0.7421(4) 0.7867(3) 0.3760(2)
C26 C 1.0690(5) 0.9330(4) 0.3554(2)
C27 C 0.9330(4) 0.8955(3) 0.36664(18)
C28 C 0.8583(4) 0.9793(3) 0.39555(19)
C29 C 1.1935(5) 0.8829(4) 0.3264(3)
H28 H 1.2707 0.9293 0.3275
H29 H 1.1711 0.8626 0.2796
H30 H 1.2187 0.8244 0.3537
C30 C 0.9404(5) 1.1574(3) 0.42401(19)
C31 C 0.8099(5) 1.1942(4) 0.4389(2)
H31 H 0.7316 1.1524 0.4346
C32 C 0.7962(7) 1.2938(5) 0.4603(3)
H32 H 0.7084 1.3190 0.4697
C33 C 0.9131(9) 1.3558(5) 0.4676(3)
H33 H 0.9037 1.4227 0.4814
C34 C 1.0434(7) 1.3176(5) 0.4543(2)
H34 H 1.1224 1.3583 0.4603
C35 C 1.0569(6) 1.2179(4) 0.4319(2)
H35 H 1.1445 1.1925 0.4224
C36 C 0.8749(4) 0.8009(3) 0.35841(18)
C37 C 0.9574(4) 0.7132(3) 0.33521(18)
C38 C 1.0274(5) 0.6550(4) 0.3833(2)
H36 H 1.0200 0.6689 0.4300
C39 C 1.1097(6) 0.5751(4) 0.3633(3)
H37 H 1.1581 0.5362 0.3967
C40 C 1.1201(5) 0.5532(4) 0.2949(3)
C41 C 1.0513(5) 0.6135(4) 0.2465(2)
H38 H 1.0597 0.6005 0.1997
C42 C 0.9719(5) 0.6912(4) 0.2662(2)
H39 H 0.9256 0.7309 0.2326
C43 C 1.2130(7) 0.4626(5) 0.2733(4)
H40 H 1.1954 0.4488 0.2250
H41 H 1.1907 0.4040 0.2998
H42 H 1.3100 0.4794 0.2819
C44 C 0.6600(5) 0.6940(4) 0.3684(3)
H43 H 0.7166 0.6409 0.3482
C45 C 0.6174(5) 0.6617(5) 0.4388(3)
C46 C 0.5437(11) 0.5252(6) 0.5066(6)
H44 H 0.4903 0.5771 0.5279
H45 H 0.6197 0.5048 0.5379
H46 H 0.4845 0.4681 0.4960
C47 C 0.5261(6) 0.7147(7) 0.3202(3)
H47 H 0.4665 0.6554 0.3195
H48 H 0.4740 0.7703 0.3391
C48 C 0.5620(7) 0.7405(11) 0.2464(4)
H49 H 0.6638 0.7487 0.2459
C49 C 0.502(3) 0.8247(9) 0.2193(8)
H50 H 0.4454 0.8208 0.1790
H51 H 0.5182 0.8867 0.2409
C50 C 0.523(2) 0.6511(8) 0.2042(6)
H52 H 0.4302 0.6299 0.2140
H53 H 0.5879 0.5972 0.2150
H54 H 0.5260 0.6679 0.1561
loop_
_geom_bond_atom_site_label_1
_geom_bond_atom_site_label_2
_geom_bond_site_symmetry_1
_geom_bond_site_symmetry_2
O1 C3 1_555 1_555
O2 C20 1_555 1_555
O3 C20 1_555 1_555
N1 N2 1_555 1_555
N2 C1 1_555 1_555
N3 C11 1_555 1_555
C1 C2 1_555 1_555
C2 C3 1_555 1_555
C3 N1 1_555 1_555
C4 N1 1_555 1_555
C5 C4 1_555 1_555
H1 C5 1_555 1_555
C6 C5 1_555 1_555
H2 C6 1_555 1_555
C7 C6 1_555 1_555
H3 C7 1_555 1_555
C8 C7 1_555 1_555
H4 C8 1_555 1_555
C9 C4 1_555 1_555
H5 C9 1_555 1_555
C10 C1 1_555 1_555
H6 C10 1_555 1_555
H7 C10 1_555 1_555
H8 C10 1_555 1_555
C11 C2 1_555 1_555
C12 C11 1_555 1_555
C13 C12 1_555 1_555
H9 C13 1_555 1_555
C14 C13 1_555 1_555
H10 C14 1_555 1_555
C15 C14 1_555 1_555
C16 C15 1_555 1_555
H11 C16 1_555 1_555
C17 C12 1_555 1_555
H12 C17 1_555 1_555
C18 C15 1_555 1_555
H13 C18 1_555 1_555
H14 C18 1_555 1_555
H15 C18 1_555 1_555
C19 N3 1_555 1_555
H16 C19 1_555 1_555
C20 C19 1_555 1_555
C21 O3 1_555 1_555
H17 C21 1_555 1_555
H18 C21 1_555 1_555
H19 C21 1_555 1_555
C22 C19 1_555 1_555
H20 C22 1_555 1_555
C23 C22 1_555 1_555
H21 C23 1_555 1_555
C24 C23 1_555 1_555
H22 C24 1_555 1_555
H23 C24 1_555 1_555
H24 C24 1_555 1_555
C25 C23 1_555 1_555
H25 C25 1_555 1_555
H26 C25 1_555 1_555
H27 C25 1_555 1_555
O4 C28 1_555 1_555
O5 C45 1_555 1_555
O6 C45 1_555 1_555
N4 N5 1_555 1_555
N5 C26 1_555 1_555
N6 C36 1_555 1_555
C26 C27 1_555 1_555
C27 C28 1_555 1_555
C28 N4 1_555 1_555
C29 C26 1_555 1_555
H28 C29 1_555 1_555
H29 C29 1_555 1_555
H30 C29 1_555 1_555
C30 N4 1_555 1_555
C31 C30 1_555 1_555
H31 C31 1_555 1_555
C32 C31 1_555 1_555
H32 C32 1_555 1_555
C33 C32 1_555 1_555
H33 C33 1_555 1_555
C34 C33 1_555 1_555
H34 C34 1_555 1_555
C35 C30 1_555 1_555
H35 C35 1_555 1_555
C36 C27 1_555 1_555
C37 C36 1_555 1_555
C38 C37 1_555 1_555
H36 C38 1_555 1_555
C39 C38 1_555 1_555
H37 C39 1_555 1_555
C40 C39 1_555 1_555
C41 C40 1_555 1_555
H38 C41 1_555 1_555
C42 C37 1_555 1_555
H39 C42 1_555 1_555
C43 C40 1_555 1_555
H40 C43 1_555 1_555
H41 C43 1_555 1_555
H42 C43 1_555 1_555
C44 N6 1_555 1_555
H43 C44 1_555 1_555
C45 C44 1_555 1_555
C46 O6 1_555 1_555
H44 C46 1_555 1_555
H45 C46 1_555 1_555
H46 C46 1_555 1_555
C47 C44 1_555 1_555
H47 C47 1_555 1_555
H48 C47 1_555 1_555
C48 C47 1_555 1_555
H49 C48 1_555 1_555
C49 C48 1_555 1_555
H50 C49 1_555 1_555
H51 C49 1_555 1_555
C50 C48 1_555 1_555
H52 C50 1_555 1_555
H53 C50 1_555 1_555
H54 C50 1_555 1_555
C8 C9 1_555 1_555
C16 C17 1_555 1_555
C34 C35 1_555 1_555
C41 C42 1_555 1_555

#END
