
#######################################################################
#
#                 Cambridge Crystallographic Data Centre
#                                CCDC 
#
#######################################################################
#
# If this CIF has been generated from an entry in the Cambridge 
# Structural Database, then it will include bibliographic, chemical, 
# crystal, experimental, refinement or atomic coordinate data resulting 
# from the CCDC's data processing and validation procedures.
#
#######################################################################

data_HALTAR
_chemical_formula_moiety         'C21 H28 Br1 N1 O5'
_chemical_name_systematic        
'Di-t-butyl 1-(4-bromobenzoyl)pyrrolidine-2,4-dicarboxylate'
_symmetry_cell_setting           monoclinic
_symmetry_space_group_name_H-M   'P 21'
_symmetry_Int_Tables_number      4
_space_group_name_Hall           'P 2yb'
loop_
_symmetry_equiv_pos_site_id
_symmetry_equiv_pos_as_xyz
1 x,y,z
2 -x,1/2+y,-z
_cell_length_a                   5.7589(16)
_cell_length_b                   16.624(2)
_cell_length_c                   12.098(3)
_cell_angle_alpha                90
_cell_angle_beta                 98.74(2)
_cell_angle_gamma                90
_cell_volume                     1144.76
_exptl_crystal_colour            colorless
_exptl_crystal_description       tablet
_cell_formula_units_Z            2
loop_
_atom_site_label
_atom_site_type_symbol
_atom_site_fract_x
_atom_site_fract_y
_atom_site_fract_z
N1 N 0.3827(7) 1.2384(3) 0.9831(3)
C1 C 0.3415(9) 1.3129(4) 1.0414(4)
H1 H 0.1848 1.3116 1.0637
C2 C 0.5303(10) 1.3095(4) 1.1461(4)
H2 H 0.6640 1.3428 1.1364
H3 H 0.4669 1.3279 1.2116
C3 C 0.6010(9) 1.2221(4) 1.1582(4)
H4 H 0.4810 1.1923 1.1908
C4 C 0.5939(8) 1.1965(4) 1.0373(4)
H5 H 0.7329 1.2143 1.0079
H6 H 0.5784 1.1387 1.0289
O1 O 0.3062(7) 1.4532(3) 1.0049(3)
C5 C 0.3691(9) 1.3884(4) 0.9759(5)
O2 O 0.4757(7) 1.3737(3) 0.8877(3)
C6 C 0.5487(9) 1.4391(5) 0.8173(4)
C7 C 0.3337(10) 1.4852(4) 0.7613(5)
H7 H 0.2273 1.4487 0.7179
H8 H 0.3818 1.5259 0.7132
H9 H 0.2565 1.5100 0.8175
C8 C 0.6633(12) 1.3916(4) 0.7328(5)
H10 H 0.5481 1.3577 0.6899
H11 H 0.7873 1.3590 0.7714
H12 H 0.7267 1.4281 0.6836
C9 C 0.7237(11) 1.4931(5) 0.8874(6)
H13 H 0.8572 1.4620 0.9198
H14 H 0.6513 1.5171 0.9458
H15 H 0.7736 1.5346 0.8411
C10 C 0.8362(10) 1.2101(4) 1.2298(4)
O3 O 1.0199(7) 1.2050(4) 1.1962(3)
O4 O 0.8098(6) 1.2068(3) 1.3364(3)
C11 C 1.0120(10) 1.1991(4) 1.4281(4)
C12 C 1.1613(22) 1.1250(6) 1.4065(10)
H16 H 1.0669 1.0773 1.4050
H17 H 1.2932 1.1206 1.4652
H18 H 1.2166 1.1311 1.3360
C13 C 1.1724(12) 1.2699(5) 1.4283(6)
H19 H 1.0872 1.3184 1.4383
H20 H 1.2317 1.2723 1.3584
H21 H 1.3011 1.2645 1.4883
C14 C 0.8973(19) 1.2160(12) 1.5317(8)
H22 H 0.7876 1.1739 1.5408
H23 H 0.8161 1.2666 1.5229
H24 H 1.0161 1.2182 1.5966
C15 C 0.2198(9) 1.2116(4) 0.9001(4)
O5 O 0.0290(7) 1.2458(3) 0.8750(3)
C16 C 0.2791(9) 1.1400(4) 0.8355(4)
C17 C 0.4728(10) 1.1418(4) 0.7821(4)
H25 H 0.5773 1.1847 0.7942
C18 C 0.5145(10) 1.0804(4) 0.7102(4)
H26 H 0.6460 1.0814 0.6741
C19 C 0.3564(13) 1.0178(4) 0.6934(4)
C20 C 0.1628(12) 1.0138(4) 0.7470(5)
H27 H 0.0603 0.9703 0.7361
C21 C 0.1245(10) 1.0762(4) 0.8172(4)
H28 H -0.0075 1.0753 0.8529
Br1 Br 0.4179(23) 0.9386(3) 0.5873(4)
Br2? Br 0.3670(57) 0.9307(10) 0.5913(13)
C22? C 1.0663(61) 1.1117(7) 1.4438(25)
C23? C 0.9018(31) 1.1660(17) 1.5240(13)
H29? H 0.9227 1.0821 1.4421
H30? H 1.1639 1.1036 1.5146
H31? H 1.1472 1.0932 1.3849
H32? H 0.8085 1.1198 1.4993
H33? H 0.8038 1.2064 1.5499
H34? H 1.0231 1.1509 1.5839
loop_
_geom_bond_atom_site_label_1
_geom_bond_atom_site_label_2
_geom_bond_site_symmetry_1
_geom_bond_site_symmetry_2
N1 C1 1_555 1_555
C1 H1 1_555 1_555
C2 C1 1_555 1_555
H2 C2 1_555 1_555
H3 C2 1_555 1_555
C3 C2 1_555 1_555
H4 C3 1_555 1_555
C4 N1 1_555 1_555
H5 C4 1_555 1_555
H6 C4 1_555 1_555
O1 C5 1_555 1_555
C5 C1 1_555 1_555
O2 C5 1_555 1_555
C6 O2 1_555 1_555
C7 C6 1_555 1_555
H7 C7 1_555 1_555
H8 C7 1_555 1_555
H9 C7 1_555 1_555
C8 C6 1_555 1_555
H10 C8 1_555 1_555
H11 C8 1_555 1_555
H12 C8 1_555 1_555
C9 C6 1_555 1_555
H13 C9 1_555 1_555
H14 C9 1_555 1_555
H15 C9 1_555 1_555
C10 C3 1_555 1_555
O3 C10 1_555 1_555
O4 C10 1_555 1_555
C11 O4 1_555 1_555
C12 C11 1_555 1_555
H16 C12 1_555 1_555
H17 C12 1_555 1_555
H18 C12 1_555 1_555
C13 C11 1_555 1_555
H19 C13 1_555 1_555
H20 C13 1_555 1_555
H21 C13 1_555 1_555
C14 C11 1_555 1_555
H22 C14 1_555 1_555
H23 C14 1_555 1_555
H24 C14 1_555 1_555
C15 N1 1_555 1_555
O5 C15 1_555 1_555
C16 C15 1_555 1_555
C17 C16 1_555 1_555
H25 C17 1_555 1_555
C18 C17 1_555 1_555
H26 C18 1_555 1_555
C19 C18 1_555 1_555
C20 C19 1_555 1_555
H27 C20 1_555 1_555
C21 C16 1_555 1_555
H28 C21 1_555 1_555
Br1 C19 1_555 1_555
C3 C4 1_555 1_555
C20 C21 1_555 1_555

#END
