
#######################################################################
#
#                 Cambridge Crystallographic Data Centre
#                                CCDC 
#
#######################################################################
#
# If this CIF has been generated from an entry in the Cambridge 
# Structural Database, then it will include bibliographic, chemical, 
# crystal, experimental, refinement or atomic coordinate data resulting 
# from the CCDC's data processing and validation procedures.
#
#######################################################################

data_HAMROF
_chemical_formula_moiety         'C25 H23 N4 1+,F6 P1 1-'
_chemical_name_systematic        
'2-ethyl-1,3-bis(quinolin-2-ylmethyl)-1H-imidazol-3-ium hexafluorophosphate'
_chemical_properties_biological  
'poor anti-cancer properties against the NSCLC cell lines'
_symmetry_cell_setting           orthorhombic
_symmetry_space_group_name_H-M   'P b c a'
_symmetry_Int_Tables_number      61
_space_group_name_Hall           '-P 2ac 2ab'
loop_
_symmetry_equiv_pos_site_id
_symmetry_equiv_pos_as_xyz
1 x,y,z
2 1/2-x,-y,1/2+z
3 -x,1/2+y,1/2-z
4 1/2+x,1/2-y,-z
5 -x,-y,-z
6 1/2+x,y,1/2-z
7 x,1/2-y,1/2+z
8 1/2-x,1/2+y,z
_cell_length_a                   14.929(2)
_cell_length_b                   14.230(2)
_cell_length_c                   22.128(4)
_cell_angle_alpha                90
_cell_angle_beta                 90
_cell_angle_gamma                90
_cell_volume                     4700.87
_exptl_crystal_colour            colorless
_exptl_crystal_description       plate
_cell_formula_units_Z            8
loop_
_atom_site_label
_atom_site_type_symbol
_atom_site_fract_x
_atom_site_fract_y
_atom_site_fract_z
P1 P 0.31140(5) 0.18795(5) 0.94377(3)
F1 F 0.26460(11) 0.28447(11) 0.92469(7)
F2 F 0.33475(10) 0.16711(11) 0.87514(7)
F3 F 0.40521(9) 0.24144(11) 0.95176(7)
F4 F 0.35744(10) 0.09180(11) 0.96364(8)
F5 F 0.28772(10) 0.20947(11) 1.01287(7)
F6 F 0.21696(10) 0.13469(11) 0.93658(7)
N1 N 0.51316(14) 1.00616(14) 0.59179(10)
N2 N 0.38280(14) 1.04469(15) 0.55817(9)
N3 N 0.50558(14) 0.94576(14) 0.70890(10)
N4 N 0.25194(14) 1.09107(14) 0.63843(10)
C1 C 0.43290(17) 0.97178(17) 0.57609(11)
C2 C 0.51254(18) 1.10279(18) 0.58509(12)
H1 H 0.5607 1.1444 0.5937
C3 C 0.43127(18) 1.12702(18) 0.56418(12)
H2 H 0.4110 1.1888 0.5552
C4 C 0.58944(17) 0.95234(19) 0.61514(12)
H3 H 0.6447 0.9898 0.6096
H4 H 0.5958 0.8940 0.5911
C5 C 0.58056(17) 0.92665(17) 0.68085(12)
C6 C 0.65476(17) 0.88195(18) 0.70878(13)
H5 H 0.7072 0.8680 0.6861
C7 C 0.64988(18) 0.85942(18) 0.76809(13)
H6 H 0.6992 0.8302 0.7877
C8 C 0.57103(18) 0.87976(18) 0.80058(13)
C9 C 0.5604(2) 0.85864(19) 0.86267(13)
H7 H 0.6087 0.8317 0.8846
C10 C 0.4813(2) 0.8767(2) 0.89110(14)
H8 H 0.4742 0.8610 0.9325
C11 C 0.4099(2) 0.9189(2) 0.85921(14)
H9 H 0.3552 0.9317 0.8796
C12 C 0.41831(19) 0.94128(19) 0.79960(13)
H10 H 0.3697 0.9695 0.7786
C13 C 0.49937(18) 0.92253(17) 0.76900(12)
C14 C 0.29008(17) 1.04174(19) 0.53687(12)
H11 H 0.2757 0.9767 0.5242
H12 H 0.2844 1.0827 0.5009
C15 C 0.22309(17) 1.07252(17) 0.58347(12)
C16 C 0.13274(18) 1.07919(19) 0.56553(13)
H13 H 0.1154 1.0643 0.5253
C17 C 0.07084(18) 1.10733(18) 0.60673(13)
H14 H 0.0096 1.1119 0.5955
C18 C 0.09751(17) 1.12965(17) 0.66600(12)
C19 C 0.03824(19) 1.16306(18) 0.71085(13)
H15 H -0.0237 1.1697 0.7018
C20 C 0.06893(19) 1.18588(18) 0.76690(13)
H16 H 0.0286 1.2090 0.7966
C21 C 0.16022(19) 1.1754(2) 0.78098(13)
H17 H 0.1811 1.1913 0.8202
C22 C 0.21887(19) 1.14265(18) 0.73913(12)
H18 H 0.2802 1.1349 0.7496
C23 C 0.18975(17) 1.12006(17) 0.68039(12)
C24 C 0.40358(18) 0.87184(18) 0.57763(13)
H19 H 0.4562 0.8314 0.5855
H20 H 0.3791 0.8545 0.5376
C25 C 0.33255(18) 0.85327(19) 0.62599(12)
H21 H 0.3589 0.8621 0.6661
H22 H 0.3106 0.7886 0.6222
H23 H 0.2826 0.8972 0.6206
loop_
_geom_bond_atom_site_label_1
_geom_bond_atom_site_label_2
_geom_bond_site_symmetry_1
_geom_bond_site_symmetry_2
P1 F1 1_555 1_555
F2 P1 1_555 1_555
F3 P1 1_555 1_555
F4 P1 1_555 1_555
F5 P1 1_555 1_555
F6 P1 1_555 1_555
N1 C1 1_555 1_555
N2 C1 1_555 1_555
N3 C5 1_555 1_555
N4 C15 1_555 1_555
C1 C24 1_555 1_555
C2 N1 1_555 1_555
H1 C2 1_555 1_555
C3 N2 1_555 1_555
H2 C3 1_555 1_555
C4 N1 1_555 1_555
H3 C4 1_555 1_555
H4 C4 1_555 1_555
C5 C4 1_555 1_555
C6 C5 1_555 1_555
H5 C6 1_555 1_555
C7 C6 1_555 1_555
H6 C7 1_555 1_555
C8 C7 1_555 1_555
C9 C8 1_555 1_555
H7 C9 1_555 1_555
C10 C9 1_555 1_555
H8 C10 1_555 1_555
C11 C10 1_555 1_555
H9 C11 1_555 1_555
C12 C11 1_555 1_555
H10 C12 1_555 1_555
C13 N3 1_555 1_555
C14 N2 1_555 1_555
H11 C14 1_555 1_555
H12 C14 1_555 1_555
C15 C14 1_555 1_555
C16 C15 1_555 1_555
H13 C16 1_555 1_555
C17 C16 1_555 1_555
H14 C17 1_555 1_555
C18 C17 1_555 1_555
C19 C18 1_555 1_555
H15 C19 1_555 1_555
C20 C19 1_555 1_555
H16 C20 1_555 1_555
C21 C20 1_555 1_555
H17 C21 1_555 1_555
C22 C21 1_555 1_555
H18 C22 1_555 1_555
C23 N4 1_555 1_555
C24 H19 1_555 1_555
H20 C24 1_555 1_555
C25 C24 1_555 1_555
H21 C25 1_555 1_555
H22 C25 1_555 1_555
H23 C25 1_555 1_555
C2 C3 1_555 1_555
C8 C13 1_555 1_555
C12 C13 1_555 1_555
C18 C23 1_555 1_555
C22 C23 1_555 1_555

#END
