
#######################################################################
#
#                 Cambridge Crystallographic Data Centre
#                                CCDC 
#
#######################################################################
#
# If this CIF has been generated from an entry in the Cambridge 
# Structural Database, then it will include bibliographic, chemical, 
# crystal, experimental, refinement or atomic coordinate data resulting 
# from the CCDC's data processing and validation procedures.
#
#######################################################################

data_HAMSOG
_chemical_formula_moiety         'C26 H24 N3 1+,Cl1 1-,H2 O1'
_chemical_name_systematic        
'2-ethyl-1-(2-naphthylmethyl)-3-(quinolin-2-ylmethyl)-1H-imidazol-3-ium chloride monohydrate'
_chemical_properties_biological  
'evaluated for anti-cancer properties against NSCLC to establish a SAR'
_symmetry_cell_setting           monoclinic
_symmetry_space_group_name_H-M   'C 2/c'
_symmetry_Int_Tables_number      15
_space_group_name_Hall           '-C 2yn'
loop_
_symmetry_equiv_pos_site_id
_symmetry_equiv_pos_as_xyz
1 x,y,z
2 -x,y,1/2-z
3 1/2+x,1/2+y,z
4 1/2-x,1/2+y,1/2-z
5 -x,-y,-z
6 x,-y,1/2+z
7 1/2-x,1/2-y,-z
8 1/2+x,1/2-y,1/2+z
_cell_length_a                   34.6333(13)
_cell_length_b                   9.5796(4)
_cell_length_c                   13.6475(5)
_cell_angle_alpha                90
_cell_angle_beta                 92.286(2)
_cell_angle_gamma                90
_cell_volume                     4524.27
_exptl_crystal_colour            colorless
_exptl_crystal_description       plate
_cell_formula_units_Z            8
loop_
_atom_site_label
_atom_site_type_symbol
_atom_site_fract_x
_atom_site_fract_y
_atom_site_fract_z
Cl1 Cl 0.26307(2) 0.19280(5) 0.80105(4)
O1 O 0.27116(5) 0.97725(17) 0.63388(11)
H1 H 0.2620(10) 0.897(2) 0.647(2)
H2 H 0.2689(8) 1.035(2) 0.6822(16)
N1 N 0.19255(5) 0.77393(18) 0.05632(12)
N2 N 0.19475(5) 0.98182(18) -0.00226(11)
N3 N 0.12319(5) 1.09224(18) -0.04106(11)
C1 C 0.18742(5) 0.9083(2) 0.07786(14)
C2 C 0.20296(6) 0.7627(2) -0.04017(15)
H3 H 0.2081 0.6787 -0.0743
C3 C 0.20440(6) 0.8915(2) -0.07627(15)
H4 H 0.2109 0.9167 -0.1409
C4 C 0.18745(6) 0.6554(2) 0.12137(17)
H5 H 0.1925 0.6862 0.1900
H6 H 0.2068 0.5830 0.1067
C5 C 0.14742(6) 0.5915(2) 0.11226(15)
C6 C 0.11686(6) 0.6527(2) 0.05585(16)
H7 H 0.1213 0.7353 0.0195
C7 C 0.08095(6) 0.5938(2) 0.05328(16)
H8 H 0.0606 0.6366 0.0153
C8 C 0.07351(6) 0.4710(2) 0.10581(15)
C9 C 0.03659(6) 0.4063(3) 0.10477(16)
H9 H 0.0155 0.4479 0.0689
C10 C 0.03104(7) 0.2861(3) 0.15420(17)
H10 H 0.0063 0.2434 0.1519
C11 C 0.06162(7) 0.2241(3) 0.20895(18)
H11 H 0.0574 0.1398 0.2436
C12 C 0.09733(7) 0.2839(2) 0.21267(17)
H12 H 0.1178 0.2416 0.2505
C13 C 0.10416(6) 0.4078(2) 0.16100(15)
C14 C 0.14114(6) 0.4716(2) 0.16234(15)
H13 H 0.1619 0.4296 0.1990
C15 C 0.19205(6) 1.1325(2) -0.01415(15)
H14 H 0.2107 1.1630 -0.0628
H15 H 0.1993 1.1780 0.0491
C16 C 0.15196(6) 1.1802(2) -0.04742(13)
C17 C 0.14811(6) 1.3175(2) -0.08360(14)
H16 H 0.1700 1.3770 -0.0864
C18 C 0.11247(7) 1.3630(2) -0.11448(15)
H17 H 0.1092 1.4550 -0.1395
C19 C 0.08051(6) 1.2738(2) -0.10935(14)
C20 C 0.04251(7) 1.3134(3) -0.13984(15)
H18 H 0.0378 1.4046 -0.1650
C21 C 0.01275(7) 1.2219(3) -0.13332(16)
H19 H -0.0127 1.2499 -0.1531
C22 C 0.01939(7) 1.0864(3) -0.09753(17)
H20 H -0.0015 1.0227 -0.0943
C23 C 0.05561(6) 1.0454(3) -0.06742(16)
H21 H 0.0597 0.9534 -0.0431
C24 C 0.08703(6) 1.1384(2) -0.07209(14)
C25 C 0.17682(6) 0.9646(2) 0.17421(14)
H22 H 0.1821 1.0662 0.1754
H23 H 0.1936 0.9209 0.2260
C26 C 0.13453(6) 0.9407(2) 0.19886(15)
H24 H 0.1176 0.9786 0.1461
H25 H 0.1292 0.9879 0.2606
H26 H 0.1298 0.8404 0.2056
loop_
_geom_bond_atom_site_label_1
_geom_bond_atom_site_label_2
_geom_bond_site_symmetry_1
_geom_bond_site_symmetry_2
O1 H1 1_555 1_555
H2 O1 1_555 1_555
N1 C1 1_555 1_555
N2 C1 1_555 1_555
N3 C16 1_555 1_555
C1 C25 1_555 1_555
C2 N1 1_555 1_555
H3 C2 1_555 1_555
C3 N2 1_555 1_555
H4 C3 1_555 1_555
C4 N1 1_555 1_555
H5 C4 1_555 1_555
H6 C4 1_555 1_555
C5 C4 1_555 1_555
C6 C5 1_555 1_555
H7 C6 1_555 1_555
C7 C6 1_555 1_555
H8 C7 1_555 1_555
C8 C7 1_555 1_555
C9 C8 1_555 1_555
H9 C9 1_555 1_555
C10 C9 1_555 1_555
H10 C10 1_555 1_555
C11 C10 1_555 1_555
H11 C11 1_555 1_555
C12 C11 1_555 1_555
H12 C12 1_555 1_555
C13 C8 1_555 1_555
C14 C5 1_555 1_555
H13 C14 1_555 1_555
C15 N2 1_555 1_555
H14 C15 1_555 1_555
H15 C15 1_555 1_555
C16 C15 1_555 1_555
C17 C16 1_555 1_555
H16 C17 1_555 1_555
C18 C17 1_555 1_555
H17 C18 1_555 1_555
C19 C18 1_555 1_555
C20 C19 1_555 1_555
H18 C20 1_555 1_555
C21 C20 1_555 1_555
H19 C21 1_555 1_555
C22 C21 1_555 1_555
H20 C22 1_555 1_555
C23 C22 1_555 1_555
H21 C23 1_555 1_555
C24 N3 1_555 1_555
C25 H22 1_555 1_555
H23 C25 1_555 1_555
C26 C25 1_555 1_555
H24 C26 1_555 1_555
H25 C26 1_555 1_555
H26 C26 1_555 1_555
C2 C3 1_555 1_555
C12 C13 1_555 1_555
C13 C14 1_555 1_555
C19 C24 1_555 1_555
C23 C24 1_555 1_555

#END
