
#######################################################################
#
#                 Cambridge Crystallographic Data Centre
#                                CCDC 
#
#######################################################################
#
# If this CIF has been generated from an entry in the Cambridge 
# Structural Database, then it will include bibliographic, chemical, 
# crystal, experimental, refinement or atomic coordinate data resulting 
# from the CCDC's data processing and validation procedures.
#
#######################################################################

data_HAMWEZ
_chemical_formula_moiety         'C10 H15 N4 1+,C8 H5 O4 1-'
_chemical_name_systematic        
'3-(4-(1H-Imidazol-1-yl)butyl)-1H-imidazol-3-ium 2-carboxybenzoate'
_symmetry_cell_setting           orthorhombic
_symmetry_space_group_name_H-M   'P n a 21'
_symmetry_Int_Tables_number      33
_space_group_name_Hall           'P 2c -2n'
loop_
_symmetry_equiv_pos_site_id
_symmetry_equiv_pos_as_xyz
1 x,y,z
2 -x,-y,1/2+z
3 1/2+x,1/2-y,z
4 1/2-x,1/2+y,1/2+z
_cell_length_a                   13.0059(12)
_cell_length_b                   7.9942(6)
_cell_length_c                   16.7147(16)
_cell_angle_alpha                90
_cell_angle_beta                 90
_cell_angle_gamma                90
_cell_volume                     1737.86
_exptl_crystal_colour            colorless
_exptl_crystal_description       block
_chemical_melting_point          '166-168 deg.C'
_cell_formula_units_Z            4
loop_
_atom_site_label
_atom_site_type_symbol
_atom_site_fract_x
_atom_site_fract_y
_atom_site_fract_z
N1 N 0.3777(2) 0.5713(3) 0.51402(18)
N2 N 0.5454(2) 0.5459(4) 0.5152(2)
N3 N -0.0930(2) 0.4242(3) 0.52110(16)
N4 N -0.2542(2) 0.4613(4) 0.49698(18)
H1 H -0.3172 0.4921 0.5023
C1 C 0.2715(2) 0.5740(5) 0.4836(2)
H3 H 0.2684 0.5102 0.4343
H4 H 0.2526 0.6885 0.4713
C2 C 0.1948(2) 0.5029(5) 0.5422(2)
H5 H 0.1925 0.5725 0.5897
H6 H 0.2160 0.3915 0.5581
C3 C 0.0892(2) 0.4954(5) 0.5046(2)
H7 H 0.0694 0.6071 0.4880
H8 H 0.0924 0.4258 0.4572
C4 C 0.0079(2) 0.4268(5) 0.5602(2)
H9 H 0.0265 0.3142 0.5763
H10 H 0.0044 0.4956 0.6079
C5 C 0.4619(3) 0.5381(5) 0.4710(2)
H11 H 0.4615 0.5126 0.4167
C6 C 0.5118(3) 0.5874(5) 0.5898(2)
H12 H 0.5541 0.6021 0.6341
C7 C 0.4094(3) 0.6040(5) 0.5904(2)
H13 H 0.3682 0.6321 0.6339
C8 C -0.1796(2) 0.4875(5) 0.5492(2)
H14 H -0.1869 0.5420 0.5980
C9 C -0.2142(3) 0.3768(5) 0.4330(2)
H15 H -0.2499 0.3417 0.3878
C10 C -0.1136(2) 0.3541(4) 0.44768(19)
H16 H -0.0666 0.3008 0.4144
O1 O 0.47892(16) 1.1163(3) 0.25244(15)
H2 H 0.4658 1.2097 0.2349
O2 O 0.60197(16) 1.2321(3) 0.32613(16)
O3 O 0.76421(18) 1.2081(3) 0.19323(15)
O4 O 0.87493(16) 1.1301(3) 0.28741(15)
C11 C 0.5682(2) 1.1181(4) 0.28602(18)
C12 C 0.7929(2) 1.1130(4) 0.24657(18)
C13 C 0.6266(2) 0.9568(4) 0.27503(18)
C14 C 0.7327(2) 0.9549(4) 0.26110(17)
C15 C 0.7822(3) 0.8024(4) 0.2544(2)
H17 H 0.8525 0.8002 0.2442
C16 C 0.7294(3) 0.6534(5) 0.2623(2)
H18 H 0.7639 0.5521 0.2570
C17 C 0.6253(3) 0.6557(4) 0.2782(3)
H19 H 0.5895 0.5559 0.2850
C18 C 0.5746(3) 0.8065(4) 0.2841(2)
H20 H 0.5043 0.8075 0.2942
loop_
_geom_bond_atom_site_label_1
_geom_bond_atom_site_label_2
_geom_bond_site_symmetry_1
_geom_bond_site_symmetry_2
N1 C1 1_555 1_555
N2 C5 1_555 1_555
N3 C4 1_555 1_555
N4 H1 1_555 1_555
O1 H2 1_555 1_555
O2 C11 1_555 1_555
O3 C12 1_555 1_555
O4 C12 1_555 1_555
C1 H3 1_555 1_555
H4 C1 1_555 1_555
C2 C1 1_555 1_555
H5 C2 1_555 1_555
H6 C2 1_555 1_555
C3 C2 1_555 1_555
H7 C3 1_555 1_555
H8 C3 1_555 1_555
C4 C3 1_555 1_555
H9 C4 1_555 1_555
H10 C4 1_555 1_555
C5 N1 1_555 1_555
H11 C5 1_555 1_555
C6 N2 1_555 1_555
H12 C6 1_555 1_555
C7 N1 1_555 1_555
H13 C7 1_555 1_555
C8 N3 1_555 1_555
H14 C8 1_555 1_555
C9 N4 1_555 1_555
H15 C9 1_555 1_555
C10 N3 1_555 1_555
H16 C10 1_555 1_555
C11 O1 1_555 1_555
C12 C14 1_555 1_555
C13 C11 1_555 1_555
C14 C13 1_555 1_555
C15 C14 1_555 1_555
H17 C15 1_555 1_555
C16 C15 1_555 1_555
H18 C16 1_555 1_555
C17 C16 1_555 1_555
H19 C17 1_555 1_555
C18 C13 1_555 1_555
H20 C18 1_555 1_555
N4 C8 1_555 1_555
C6 C7 1_555 1_555
C9 C10 1_555 1_555
C17 C18 1_555 1_555

#END
