
#######################################################################
#
#                 Cambridge Crystallographic Data Centre
#                                CCDC 
#
#######################################################################
#
# If this CIF has been generated from an entry in the Cambridge 
# Structural Database, then it will include bibliographic, chemical, 
# crystal, experimental, refinement or atomic coordinate data resulting 
# from the CCDC's data processing and validation procedures.
#
#######################################################################

data_HANTOI
_chemical_formula_moiety         'C30 H32 O8'
_chemical_name_systematic        
'diethyl 1,7a-dihydroxy-1-methyl-6,12-dioxo-3-phenyl-1,2,3,4,4a,5,6,7,7a,12-decahydrobenzo[j]fluorene-2,5-dicarboxylate'
_symmetry_cell_setting           triclinic
_symmetry_space_group_name_H-M   'P -1'
_symmetry_Int_Tables_number      2
_space_group_name_Hall           '-P 1'
loop_
_symmetry_equiv_pos_site_id
_symmetry_equiv_pos_as_xyz
1 x,y,z
2 -x,-y,-z
_cell_length_a                   8.3137(12)
_cell_length_b                   10.7365(15)
_cell_length_c                   16.091(2)
_cell_angle_alpha                100.872(4)
_cell_angle_beta                 97.697(4)
_cell_angle_gamma                108.723(3)
_cell_volume                     1306.33
_exptl_crystal_colour            colorless
_exptl_crystal_description       prism
_cell_formula_units_Z            2
loop_
_atom_site_label
_atom_site_type_symbol
_atom_site_fract_x
_atom_site_fract_y
_atom_site_fract_z
C1 C 0.2006(2) 0.19916(19) 0.13753(12)
C2 C 0.1250(3) 0.24812(19) 0.06807(12)
C3 C -0.0242(3) 0.1780(2) 0.00289(13)
H1 H -0.0991 0.0900 0.0027
C4 C -0.0590(3) 0.2407(3) -0.06094(14)
H2 H -0.1598 0.1954 -0.1057
C5 C 0.0518(3) 0.3698(3) -0.06068(14)
H3 H 0.0269 0.4099 -0.1063
C6 C 0.1979(3) 0.4408(2) 0.00500(13)
H4 H 0.2720 0.5292 0.0053
C7 C 0.2326(3) 0.3790(2) 0.07012(12)
C8 C 0.3783(2) 0.43797(19) 0.14976(12)
C9 C 0.3380(3) 0.54513(19) 0.21462(13)
H5 H 0.4429 0.5980 0.2605
H6 H 0.3075 0.6088 0.1840
C10 C 0.1909(2) 0.47934(19) 0.25513(12)
C11 C 0.2221(2) 0.37979(18) 0.30619(11)
H7 H 0.1166 0.2954 0.2912
C12 C 0.2567(3) 0.4487(2) 0.40215(12)
C13 C 0.1858(4) 0.4372(3) 0.53892(14)
H8 H 0.3105 0.4602 0.5634
H9 H 0.1592 0.5215 0.5503
C14 C 0.0794(4) 0.3387(3) 0.58021(17)
H10 H 0.1039 0.3778 0.6427
H11 H 0.1071 0.2558 0.5693
H12 H -0.0439 0.3168 0.5561
C15 C 0.3810(2) 0.34323(18) 0.28709(12)
H13 H 0.4869 0.4254 0.3148
C16 C 0.3943(3) 0.2302(2) 0.33022(12)
H14 H 0.4107 0.2631 0.3936
H15 H 0.2839 0.1516 0.3099
C17 C 0.5438(2) 0.18368(19) 0.31083(12)
H16 H 0.6543 0.2634 0.3343
C18 C 0.5561(3) 0.07183(19) 0.35403(12)
C19 C 0.7093(3) 0.0876(2) 0.40777(13)
H17 H 0.8073 0.1683 0.4171
C20 C 0.7216(4) -0.0140(2) 0.44845(15)
H18 H 0.8276 -0.0018 0.4853
C21 C 0.5816(4) -0.1312(2) 0.43540(15)
H19 H 0.5902 -0.2000 0.4633
C22 C 0.4282(4) -0.1489(2) 0.38165(16)
H20 H 0.3312 -0.2303 0.3724
C23 C 0.4143(3) -0.0484(2) 0.34070(14)
H21 H 0.3081 -0.0617 0.3036
C24 C 0.5244(2) 0.14072(19) 0.21140(12)
H22 H 0.4106 0.0649 0.1866
C25 C 0.6691(3) 0.0890(2) 0.19244(12)
C26 C 0.7418(3) -0.1097(2) 0.15299(14)
H23 H 0.8320 -0.0540 0.1272
H24 H 0.6854 -0.2005 0.1125
C27 C 0.8254(4) -0.1236(3) 0.23756(16)
H25 H 0.9116 -0.1662 0.2280
H26 H 0.7365 -0.1802 0.2626
H27 H 0.8826 -0.0336 0.2774
C28 C 0.5277(2) 0.25947(19) 0.16910(12)
C29 C 0.5199(3) 0.2141(2) 0.07153(13)
H28 H 0.5224 0.2893 0.0447
H29 H 0.4124 0.1367 0.0448
H30 H 0.6200 0.1876 0.0629
C30 C 0.3756(2) 0.31060(18) 0.18774(12)
O1 O 0.13992(17) 0.08759(13) 0.15230(9)
O2 O 0.53396(18) 0.50880(14) 0.12478(10)
H31 H 0.6279 0.4921 0.1600
O3 O 0.05495(19) 0.50024(16) 0.24720(10)
O4 O 0.3724(2) 0.55485(14) 0.43582(9)
O5 O 0.14829(19) 0.37789(15) 0.44481(9)
O6 O 0.81953(18) 0.16289(14) 0.20310(10)
O7 O 0.61165(17) -0.04578(13) 0.16474(9)
O8 O 0.68250(17) 0.37581(13) 0.20964(9)
H32 H 0.7788 0.3521 0.2183
loop_
_geom_bond_atom_site_label_1
_geom_bond_atom_site_label_2
_geom_bond_site_symmetry_1
_geom_bond_site_symmetry_2
C1 C2 1_555 1_555
C2 C3 1_555 1_555
C3 H1 1_555 1_555
C4 C3 1_555 1_555
H2 C4 1_555 1_555
C5 C4 1_555 1_555
H3 C5 1_555 1_555
C6 C5 1_555 1_555
H4 C6 1_555 1_555
C7 C2 1_555 1_555
C8 C7 1_555 1_555
C9 C8 1_555 1_555
H5 C9 1_555 1_555
H6 C9 1_555 1_555
C10 C9 1_555 1_555
C11 C10 1_555 1_555
H7 C11 1_555 1_555
C12 C11 1_555 1_555
C13 H8 1_555 1_555
H9 C13 1_555 1_555
C14 C13 1_555 1_555
H10 C14 1_555 1_555
H11 C14 1_555 1_555
H12 C14 1_555 1_555
C15 C11 1_555 1_555
H13 C15 1_555 1_555
C16 C15 1_555 1_555
H14 C16 1_555 1_555
H15 C16 1_555 1_555
C17 C16 1_555 1_555
H16 C17 1_555 1_555
C18 C17 1_555 1_555
C19 C18 1_555 1_555
H17 C19 1_555 1_555
C20 C19 1_555 1_555
H18 C20 1_555 1_555
C21 C20 1_555 1_555
H19 C21 1_555 1_555
C22 C21 1_555 1_555
H20 C22 1_555 1_555
C23 C18 1_555 1_555
H21 C23 1_555 1_555
C24 C17 1_555 1_555
H22 C24 1_555 1_555
C25 C24 1_555 1_555
C26 H23 1_555 1_555
H24 C26 1_555 1_555
C27 C26 1_555 1_555
H25 C27 1_555 1_555
H26 C27 1_555 1_555
H27 C27 1_555 1_555
C28 C24 1_555 1_555
C29 C28 1_555 1_555
H28 C29 1_555 1_555
H29 C29 1_555 1_555
H30 C29 1_555 1_555
C30 C1 1_555 1_555
O1 C1 1_555 1_555
O2 C8 1_555 1_555
H31 O2 1_555 1_555
O3 C10 1_555 1_555
O4 C12 1_555 1_555
O5 C12 1_555 1_555
O6 C25 1_555 1_555
O7 C25 1_555 1_555
O8 C28 1_555 1_555
H32 O8 1_555 1_555
C6 C7 1_555 1_555
C8 C30 1_555 1_555
C13 O5 1_555 1_555
C15 C30 1_555 1_555
C22 C23 1_555 1_555
C26 O7 1_555 1_555
C28 C30 1_555 1_555

#END
