
#######################################################################
#
#                 Cambridge Crystallographic Data Centre
#                                CCDC 
#
#######################################################################
#
# If this CIF has been generated from an entry in the Cambridge 
# Structural Database, then it will include bibliographic, chemical, 
# crystal, experimental, refinement or atomic coordinate data resulting 
# from the CCDC's data processing and validation procedures.
#
#######################################################################

data_HAPCAF
_chemical_compound_source        'Delphinium tianshanicum W.T.Wang'
_chemical_name_common            'Tianshanisine C'
_chemical_formula_moiety         'C25 H39 N1 O6'
_chemical_name_systematic        
'20-ethyl-1\a,7\b-dihydroxy-8,16\b-dimethoxy-4-methylaconitan-14\a-yl acetate'
_chemical_properties_biological  
'tested and found to have no obvious cytotoxic inhibitory activity'
_symmetry_cell_setting           orthorhombic
_symmetry_space_group_name_H-M   'P 21 21 21'
_symmetry_Int_Tables_number      19
_space_group_name_Hall           'P 2ac 2ab'
loop_
_symmetry_equiv_pos_site_id
_symmetry_equiv_pos_as_xyz
1 x,y,z
2 1/2-x,-y,1/2+z
3 1/2+x,1/2-y,-z
4 -x,1/2+y,1/2-z
_cell_length_a                   13.5625(6)
_cell_length_b                   18.4011(10)
_cell_length_c                   18.7611(8)
_cell_angle_alpha                90
_cell_angle_beta                 90
_cell_angle_gamma                90
_cell_volume                     4682.11
_exptl_crystal_colour            white
_exptl_crystal_description       prism
_cell_formula_units_Z            8
_exptl_crystal_recrystallization_method acetone
loop_
_atom_site_label
_atom_site_type_symbol
_atom_site_fract_x
_atom_site_fract_y
_atom_site_fract_z
O1 O 0.1201(2) 0.33571(15) 0.38746(17)
H1 H 0.105(4) 0.327(3) 0.343(3)
O2 O 0.27250(18) 0.22115(14) 0.15850(12)
H2 H 0.298(3) 0.265(2) 0.143(2)
O3 O 0.45092(18) 0.15963(13) 0.21728(13)
O4 O 0.5459(2) 0.38804(16) 0.27620(16)
O5 O 0.58921(18) 0.22088(16) 0.31813(14)
O6 O 0.6937(2) 0.23982(19) 0.40815(18)
N1 N 0.1271(2) 0.28406(16) 0.25459(16)
C1 C 0.0680(3) 0.2176(2) 0.2430(2)
H3 H 0.0910 0.1932 0.2003
H4 H -0.0004 0.2309 0.2358
C2 C 0.0754(3) 0.1651(2) 0.30650(19)
C3 C 0.0158(3) 0.1937(2) 0.3715(2)
H5 H -0.0236 0.2350 0.3564
H6 H -0.0290 0.1560 0.3873
C4 C 0.0798(3) 0.2166(2) 0.4336(2)
H7 H 0.0393 0.2406 0.4691
H8 H 0.1088 0.1738 0.4553
C5 C 0.1605(3) 0.26728(19) 0.41009(19)
H9 H 0.2025 0.2767 0.4516
C6 C 0.2268(2) 0.23149(18) 0.35126(18)
C7 C 0.3319(3) 0.2277(2) 0.38121(18)
H10 H 0.3295 0.1957 0.4229
C8 C 0.3733(3) 0.3018(2) 0.4073(2)
H11 H 0.3289 0.3410 0.3946
H12 H 0.3818 0.3016 0.4586
C9 C 0.4725(3) 0.3109(2) 0.3699(2)
H13 H 0.5186 0.3386 0.3995
C10 C 0.4613(3) 0.3459(2) 0.2959(2)
H14 H 0.4038 0.3781 0.2970
C11 C 0.4478(3) 0.2919(2) 0.23488(19)
H15 H 0.5122 0.2825 0.2143
H16 H 0.4083 0.3153 0.1984
C12 C 0.4001(2) 0.21822(18) 0.25218(18)
C13 C 0.4134(2) 0.19762(19) 0.33162(18)
H17 H 0.4172 0.1447 0.3364
C14 C 0.5045(3) 0.2322(2) 0.3636(2)
H18 H 0.5171 0.2119 0.4110
C15 C 0.2889(3) 0.21440(18) 0.23339(17)
C16 C 0.2472(3) 0.14032(18) 0.25831(18)
H19 H 0.2058 0.1191 0.2217
H20 H 0.3003 0.1068 0.2691
C17 C 0.1866(2) 0.15689(18) 0.32548(18)
H21 H 0.1964 0.1193 0.3618
C18 C 0.2292(2) 0.27000(18) 0.27818(18)
H22 H 0.2656 0.3158 0.2819
C19 C 0.6794(3) 0.2293(2) 0.3464(3)
C20 C 0.7552(3) 0.2237(3) 0.2894(3)
H23 H 0.7668 0.1734 0.2786
H24 H 0.8154 0.2457 0.3055
H25 H 0.7323 0.2483 0.2475
C21 C 0.5510(5) 0.4567(3) 0.3104(3)
H26 H 0.5544 0.4499 0.3611
H27 H 0.4933 0.4846 0.2989
H28 H 0.6087 0.4822 0.2945
C22 C 0.4745(4) 0.1639(3) 0.1443(2)
H29 H 0.5138 0.2064 0.1358
H30 H 0.4149 0.1668 0.1169
H31 H 0.5109 0.1214 0.1305
C23 C 0.0319(3) 0.0918(2) 0.2839(2)
H32 H 0.0697 0.0723 0.2451
H33 H -0.0352 0.0984 0.2690
H34 H 0.0339 0.0587 0.3234
C24 C 0.1166(3) 0.3344(2) 0.1940(2)
H35 H 0.1764 0.3629 0.1894
H36 H 0.1084 0.3066 0.1505
C25 C 0.0332(7) 0.3831(5) 0.2024(5)
H37 H -0.0245 0.3554 0.2145
H38 H 0.0220 0.4088 0.1586
H39 H 0.0468 0.4173 0.2398
O7 O 0.3437(2) 0.34465(16) 0.07992(16)
H45 H 0.327(3) 0.390(2) 0.081(2)
O8 O 0.48952(19) 0.58983(12) -0.00856(14)
H46 H 0.4624 0.6110 -0.0416
O9 O 0.6654(2) 0.54047(13) -0.07907(14)
O10 O 0.81097(17) 0.43943(13) -0.01782(14)
O11 O 0.9117(2) 0.35837(19) 0.03387(19)
O12 O 0.76474(18) 0.47238(14) 0.14109(14)
N2 N 0.3445(2) 0.48390(16) 0.04075(17)
C27 C 0.2866(3) 0.4993(2) -0.0238(2)
H47 H 0.3081 0.5453 -0.0437
H48 H 0.2177 0.5042 -0.0107
C28 C 0.2963(3) 0.4403(2) -0.0807(2)
C29 C 0.2389(3) 0.3709(2) -0.0584(3)
H49 H 0.1986 0.3819 -0.0171
H50 H 0.1952 0.3567 -0.0969
C30 C 0.3064(3) 0.3076(2) -0.0407(3)
H51 H 0.2677 0.2684 -0.0205
H52 H 0.3367 0.2898 -0.0842
C31 C 0.3861(3) 0.32933(19) 0.0114(2)
H53 H 0.4303 0.2876 0.0171
C32 C 0.4485(2) 0.39361(17) -0.01881(18)
C33 C 0.5570(2) 0.36647(17) -0.02302(19)
H54 H 0.5586 0.3252 -0.0560
C34 C 0.5953(2) 0.33905(18) 0.0508(2)
H55 H 0.5482 0.3504 0.0881
H56 H 0.6055 0.2869 0.0498
C35 C 0.6921(2) 0.37837(18) 0.06399(19)
H57 H 0.7381 0.3474 0.0905
C36 C 0.7280(3) 0.38998(19) -0.0123(2)
H58 H 0.7447 0.3432 -0.0341
C37 C 0.6367(2) 0.42151(17) -0.04767(19)
H59 H 0.6437 0.4198 -0.0996
C38 C 0.6161(2) 0.49953(17) -0.02347(18)
C39 C 0.6595(3) 0.51630(18) 0.05124(19)
H60 H 0.7215 0.5416 0.0445
H61 H 0.6150 0.5497 0.0750
C40 C 0.6782(3) 0.45210(19) 0.10183(19)
H62 H 0.6226 0.4482 0.1350
C41 C 0.5046(3) 0.51594(17) -0.02730(19)
C42 C 0.4654(3) 0.49465(18) -0.10159(19)
H63 H 0.4228 0.5324 -0.1204
H64 H 0.5196 0.4871 -0.1346
C43 C 0.4078(3) 0.42405(18) -0.0906(2)
H65 H 0.4190 0.3899 -0.1298
C44 C 0.4477(2) 0.46452(17) 0.02430(18)
H66 H 0.4851 0.4582 0.0686
C45 C 0.7804(4) 0.4309(3) 0.2036(2)
H67 H 0.8159 0.3874 0.1918
H68 H 0.7180 0.4182 0.2243
H69 H 0.8179 0.4589 0.2372
C46 C 0.8966(3) 0.4175(3) 0.0114(2)
C47 C 0.9700(3) 0.4782(3) 0.0120(3)
H70 H 0.9829 0.4936 -0.0360
H71 H 1.0302 0.4618 0.0336
H72 H 0.9440 0.5183 0.0389
C48 C 0.6923(4) 0.6137(2) -0.0701(3)
H73 H 0.7281 0.6300 -0.1112
H74 H 0.7330 0.6184 -0.0285
H75 H 0.6340 0.6427 -0.0643
C49 C 0.2512(3) 0.4698(3) -0.1503(3)
H76 H 0.2855 0.5131 -0.1643
H77 H 0.1828 0.4808 -0.1428
H78 H 0.2573 0.4338 -0.1871
C50 C 0.3325(3) 0.5409(2) 0.0954(2)
H79 H 0.2626 0.5496 0.1026
H80 H 0.3614 0.5856 0.0777
C51 C 0.3792(6) 0.5226(4) 0.1667(4)
H81 H 0.3637 0.4733 0.1792
H82 H 0.3539 0.5547 0.2027
H83 H 0.4494 0.5282 0.1635
H40? H 0.1587 0.3169 0.1560
H41? H 0.0492 0.3309 0.1771
C26? C 0.1373(16) 0.4068(10) 0.2039(10)
H42? H 0.0973 0.4255 0.2419
H43? H 0.1234 0.4330 0.1608
H44? H 0.2057 0.4124 0.2159
H84? H 0.3850 0.5371 0.1302
H85? H 0.3365 0.5884 0.0732
C52? C 0.2371(13) 0.5328(9) 0.1307(8)
H86? H 0.1851 0.5406 0.0968
H87? H 0.2317 0.5677 0.1685
H88? H 0.2317 0.4846 0.1500
loop_
_geom_bond_atom_site_label_1
_geom_bond_atom_site_label_2
_geom_bond_site_symmetry_1
_geom_bond_site_symmetry_2
O1 H1 1_555 1_555
O2 H2 1_555 1_555
O3 C12 1_555 1_555
O4 C10 1_555 1_555
O5 C14 1_555 1_555
O6 C19 1_555 1_555
N1 C1 1_555 1_555
C1 H3 1_555 1_555
H4 C1 1_555 1_555
C2 C1 1_555 1_555
C3 C2 1_555 1_555
H5 C3 1_555 1_555
H6 C3 1_555 1_555
C4 C3 1_555 1_555
H7 C4 1_555 1_555
H8 C4 1_555 1_555
C5 O1 1_555 1_555
H9 C5 1_555 1_555
C6 C5 1_555 1_555
C7 C6 1_555 1_555
H10 C7 1_555 1_555
C8 C7 1_555 1_555
H11 C8 1_555 1_555
H12 C8 1_555 1_555
C9 C8 1_555 1_555
H13 C9 1_555 1_555
C10 C9 1_555 1_555
H14 C10 1_555 1_555
C11 C10 1_555 1_555
H15 C11 1_555 1_555
H16 C11 1_555 1_555
C12 C11 1_555 1_555
C13 C7 1_555 1_555
H17 C13 1_555 1_555
C14 C9 1_555 1_555
H18 C14 1_555 1_555
C15 O2 1_555 1_555
C16 C15 1_555 1_555
H19 C16 1_555 1_555
H20 C16 1_555 1_555
C17 C2 1_555 1_555
H21 C17 1_555 1_555
C18 N1 1_555 1_555
H22 C18 1_555 1_555
C19 O5 1_555 1_555
C20 C19 1_555 1_555
H23 C20 1_555 1_555
H24 C20 1_555 1_555
H25 C20 1_555 1_555
C21 O4 1_555 1_555
H26 C21 1_555 1_555
H27 C21 1_555 1_555
H28 C21 1_555 1_555
C22 O3 1_555 1_555
H29 C22 1_555 1_555
H30 C22 1_555 1_555
H31 C22 1_555 1_555
C23 C2 1_555 1_555
H32 C23 1_555 1_555
H33 C23 1_555 1_555
H34 C23 1_555 1_555
C24 N1 1_555 1_555
H35 C24 1_555 1_555
H36 C24 1_555 1_555
C25 C24 1_555 1_555
H37 C25 1_555 1_555
H38 C25 1_555 1_555
H39 C25 1_555 1_555
O7 H45 1_555 1_555
O8 H46 1_555 1_555
O9 C38 1_555 1_555
O10 C36 1_555 1_555
O11 C46 1_555 1_555
O12 C40 1_555 1_555
N2 C27 1_555 1_555
C27 H47 1_555 1_555
H48 C27 1_555 1_555
C28 C27 1_555 1_555
C29 C28 1_555 1_555
H49 C29 1_555 1_555
H50 C29 1_555 1_555
C30 C29 1_555 1_555
H51 C30 1_555 1_555
H52 C30 1_555 1_555
C31 O7 1_555 1_555
H53 C31 1_555 1_555
C32 C31 1_555 1_555
C33 C32 1_555 1_555
H54 C33 1_555 1_555
C34 C33 1_555 1_555
H55 C34 1_555 1_555
H56 C34 1_555 1_555
C35 C34 1_555 1_555
H57 C35 1_555 1_555
C36 C35 1_555 1_555
H58 C36 1_555 1_555
C37 C33 1_555 1_555
H59 C37 1_555 1_555
C38 C37 1_555 1_555
C39 C38 1_555 1_555
H60 C39 1_555 1_555
H61 C39 1_555 1_555
C40 C35 1_555 1_555
H62 C40 1_555 1_555
C41 O8 1_555 1_555
C42 C41 1_555 1_555
H63 C42 1_555 1_555
H64 C42 1_555 1_555
C43 C28 1_555 1_555
H65 C43 1_555 1_555
C44 N2 1_555 1_555
H66 C44 1_555 1_555
C45 O12 1_555 1_555
H67 C45 1_555 1_555
H68 C45 1_555 1_555
H69 C45 1_555 1_555
C46 O10 1_555 1_555
C47 C46 1_555 1_555
H70 C47 1_555 1_555
H71 C47 1_555 1_555
H72 C47 1_555 1_555
C48 O9 1_555 1_555
H73 C48 1_555 1_555
H74 C48 1_555 1_555
H75 C48 1_555 1_555
C49 C28 1_555 1_555
H76 C49 1_555 1_555
H77 C49 1_555 1_555
H78 C49 1_555 1_555
C50 N2 1_555 1_555
H79 C50 1_555 1_555
H80 C50 1_555 1_555
C51 C50 1_555 1_555
H81 C51 1_555 1_555
H82 C51 1_555 1_555
H83 C51 1_555 1_555
C4 C5 1_555 1_555
C6 C17 1_555 1_555
C6 C18 1_555 1_555
C12 C13 1_555 1_555
C12 C15 1_555 1_555
C13 C14 1_555 1_555
C15 C18 1_555 1_555
C16 C17 1_555 1_555
C30 C31 1_555 1_555
C32 C43 1_555 1_555
C32 C44 1_555 1_555
C36 C37 1_555 1_555
C38 C41 1_555 1_555
C39 C40 1_555 1_555
C41 C44 1_555 1_555
C42 C43 1_555 1_555

#END
