
#######################################################################
#
#                 Cambridge Crystallographic Data Centre
#                                CCDC 
#
#######################################################################
#
# If this CIF has been generated from an entry in the Cambridge 
# Structural Database, then it will include bibliographic, chemical, 
# crystal, experimental, refinement or atomic coordinate data resulting 
# from the CCDC's data processing and validation procedures.
#
#######################################################################

data_HAPWEC
_chemical_formula_moiety         'C32 H52 Li4 O4 S4'
_chemical_name_systematic        
'tetrakis(\m~3~-2-Thienyl)-tetrakis(diethyl ether)-tetra-lithium'
_symmetry_cell_setting           triclinic
_symmetry_space_group_name_H-M   'P -1'
_symmetry_Int_Tables_number      2
_space_group_name_Hall           '-P 1'
loop_
_symmetry_equiv_pos_site_id
_symmetry_equiv_pos_as_xyz
1 x,y,z
2 -x,-y,-z
_cell_length_a                   10.086(2)
_cell_length_b                   11.779(2)
_cell_length_c                   17.970(3)
_cell_angle_alpha                85.97(2)
_cell_angle_beta                 73.83(2)
_cell_angle_gamma                66.45(2)
_cell_volume                     1877.62
_exptl_crystal_colour            colorless
_exptl_crystal_description       block
_cell_formula_units_Z            2
loop_
_atom_site_label
_atom_site_type_symbol
_atom_site_fract_x
_atom_site_fract_y
_atom_site_fract_z
S1 S 0.60290(6) 0.04435(5) 0.82909(3)
S2 S 0.14978(6) 0.56053(5) 0.83194(3)
S3 S 0.42159(6) 0.22577(5) 0.54020(3)
S4 S -0.03513(7) 0.14622(5) 0.81204(4)
O1 O 0.61197(14) 0.30141(12) 0.64326(7)
C1 C 0.4948(2) 0.09174(18) 0.76361(11)
C2 C 0.5809(2) 0.01440(17) 0.69790(12)
H1 H 0.5461 0.0218 0.6531
C3 C 0.7234(2) -0.07618(19) 0.70065(13)
H2 H 0.7911 -0.1336 0.6589
C4 C 0.7521(2) -0.07165(19) 0.76907(13)
H3 H 0.8413 -0.1246 0.7821
C5 C 0.2830(2) 0.41295(18) 0.79809(11)
C6 C 0.4048(2) 0.39936(19) 0.82531(11)
H4 H 0.4941 0.3257 0.8144
C7 C 0.3891(3) 0.5012(2) 0.87030(13)
H5 H 0.4651 0.5019 0.8915
C8 C 0.2544(3) 0.5961(2) 0.87932(13)
H6 H 0.2222 0.6717 0.9078
C9 C 0.2933(2) 0.23552(17) 0.63011(11)
C10 C 0.1799(2) 0.21356(18) 0.61313(12)
H7 H 0.0953 0.2134 0.6530
C11 C 0.1944(2) 0.1913(2) 0.53417(12)
H8 H 0.1224 0.1755 0.5168
C12 C 0.3226(2) 0.19508(19) 0.48643(12)
H9 H 0.3530 0.1827 0.4316
C13 C -0.0233(4) 0.3187(4) 0.8772(2)
H10 H 0.0089 0.3763 0.8931
C14 C -0.1704(3) 0.3247(3) 0.91141(19)
H11 H -0.2436 0.3846 0.9506
C15 C -0.1942(3) 0.2339(4) 0.88113(17)
H12 H -0.2852 0.2212 0.8961
C16 C 0.0718(2) 0.22833(18) 0.82078(11)
C17 C 0.3853(11) 0.2965(12) 1.0298(6)
H13 H 0.4697 0.2876 0.9842
H14 H 0.4111 0.2215 1.0596
H15 H 0.3641 0.3683 1.0625
C18 C 0.2475(10) 0.3153(7) 1.0040(5)
H16 H 0.1616 0.3260 1.0501
H17 H 0.2207 0.3916 0.9745
C19 C 0.2718(9) 0.1036(6) 0.9999(5)
H18 H 0.3195 0.0974 1.0422
H19 H 0.3313 0.0277 0.9657
C20 C 0.1139(10) 0.1110(10) 1.0344(6)
H20 H 0.0624 0.1267 0.9935
H21 H 0.0591 0.1786 1.0742
H22 H 0.1176 0.0324 1.0578
O2 O 0.27455(16) 0.21039(13) 0.95575(8)
C21 C 0.1572(17) -0.1277(15) 0.6486(8)
H23 H 0.1466 -0.1931 0.6835
H24 H 0.1621 -0.1502 0.5961
H25 H 0.0705 -0.0495 0.6668
C22 C 0.2999(15) -0.1126(13) 0.6474(4)
H26 H 0.3856 -0.1942 0.6352
H27 H 0.3190 -0.0566 0.6059
O3 O 0.29101(16) -0.06334(13) 0.71947(8)
C23 C 0.2882(8) -0.1520(5) 0.7799(3)
H28 H 0.3634 -0.2357 0.7594
H29 H 0.1877 -0.1554 0.7967
C24 C 0.3224(10) -0.1149(7) 0.8470(4)
H30 H 0.2462 -0.0331 0.8681
H31 H 0.4217 -0.1112 0.8302
H32 H 0.3220 -0.1757 0.8871
C25 C -0.2868(4) 0.5938(4) 0.7358(3)
H33 H -0.2859 0.6551 0.6960
H34 H -0.2951 0.6290 0.7855
H35 H -0.3728 0.5718 0.7408
C26 C -0.1451(4) 0.4811(3) 0.7130(2)
H36 H -0.1560 0.4147 0.7480
H37 H -0.1321 0.4530 0.6598
O4 O -0.0110(7) 0.4953(7) 0.7147(3)
C27 C 0.0261(4) 0.5858(3) 0.66467(19)
H38 H 0.1179 0.5897 0.6721
H39 H -0.0568 0.6684 0.6799
C28 C 0.0519(12) 0.5572(12) 0.5808(5)
H40 H -0.0432 0.5669 0.5714
H41 H 0.1251 0.4716 0.5669
H42 H 0.0907 0.6141 0.5490
C29 C 0.4684(2) 0.50781(19) 0.61291(13)
H43 H 0.4430 0.5341 0.6674
H44 H 0.3908 0.4834 0.6051
H45 H 0.4737 0.5766 0.5799
C30 C 0.6178(2) 0.39959(18) 0.59196(12)
H46 H 0.6418 0.3702 0.5376
H47 H 0.6976 0.4252 0.5965
C31 C 0.7587(2) 0.20943(18) 0.64300(12)
H48 H 0.7484 0.1552 0.6870
H49 H 0.8219 0.2515 0.6506
C32 C 0.8364(2) 0.1305(2) 0.56836(13)
H50 H 0.8573 0.1822 0.5253
H51 H 0.7712 0.0932 0.5587
H52 H 0.9311 0.0647 0.5727
Li1 Li 0.2798(4) 0.2290(3) 0.84709(19)
Li2 Li 0.2875(4) 0.1036(3) 0.7328(2)
Li3 Li 0.4319(4) 0.2713(3) 0.70033(19)
Li4 Li 0.1442(4) 0.3598(3) 0.7365(2)
C33? C -0.027(4) 0.182(5) 0.809(3)
C34? C -0.171(5) 0.222(8) 0.863(4)
C35? C -0.190(6) 0.306(8) 0.916(4)
C36? C 0.347(3) 0.307(3) 1.0457(16)
C37? C 0.227(3) 0.307(2) 1.0122(15)
C38? C 0.274(3) 0.0906(14) 0.9822(15)
C39? C 0.120(3) 0.089(3) 1.0124(16)
C40? C 0.183(3) -0.165(2) 0.653(2)
C41? C 0.141(5) -0.141(5) 0.667(2)
C42? C 0.289(4) -0.101(3) 0.6445(10)
C43? C 0.284(4) -0.123(4) 0.6551(12)
C44? C 0.373(2) -0.1738(10) 0.7561(8)
C45? C 0.278(2) -0.1150(16) 0.7938(8)
C46? C 0.362(3) -0.146(2) 0.8373(10)
C47? C 0.4347(17) -0.2060(15) 0.7917(11)
C48? C -0.2720(7) 0.5034(7) 0.7578(4)
C49? C -0.1668(6) 0.5655(5) 0.7598(3)
C50? C -0.0443(7) 0.5407(6) 0.6235(3)
C51? C 0.083(2) 0.569(2) 0.5740(9)
H53? H 0.0016 0.1244 0.7674
H54? H -0.2465 0.1935 0.8611
H55? H -0.2739 0.3383 0.9604
H56? H 0.3036 0.3725 1.0864
H57? H 0.4256 0.3210 1.0047
H58? H 0.3914 0.2263 1.0678
H59? H 0.1442 0.2999 1.0550
H60? H 0.1858 0.3871 0.9885
H61? H 0.3257 0.0654 1.0238
H62? H 0.3325 0.0282 0.9386
H63? H 0.0704 0.1086 0.9707
H64? H 0.0611 0.1509 1.0554
H65? H 0.1295 0.0066 1.0306
H66? H 0.1359 -0.2021 0.7068
H67? H 0.1390 -0.1720 0.6182
H68? H 0.0547 -0.0624 0.6839
H69? H 0.1996 -0.2265 0.6929
H70? H 0.2014 -0.2059 0.6037
H71? H 0.0788 -0.1035 0.6690
H72? H 0.3696 -0.2043 0.6436
H73? H 0.2959 -0.0722 0.6092
H74? H 0.3914 -0.1573 0.6160
H75? H 0.2571 -0.0265 0.6136
H76? H 0.2081 -0.1576 0.8032
H77? H 0.2404 -0.0497 0.8352
H78? H 0.4805 -0.2083 0.7261
H79? H 0.3327 -0.2374 0.7553
H80? H 0.4693 -0.2703 0.7508
H81? H 0.4344 -0.2444 0.8419
H82? H 0.5025 -0.1624 0.7812
H83? H 0.2587 -0.0896 0.8630
H84? H 0.4310 -0.1067 0.8377
H85? H 0.3886 -0.2231 0.8650
H86? H -0.2255 0.4153 0.7676
H87? H -0.2911 0.5121 0.7067
H88? H -0.3672 0.5429 0.7978
H89? H -0.2150 0.6551 0.7514
H90? H -0.1474 0.5567 0.8114
H91? H -0.1399 0.6132 0.6270
H92? H -0.0490 0.4698 0.5994
H93? H 0.1742 0.4925 0.5613
H94? H 0.0993 0.6285 0.6020
H95? H 0.0590 0.6047 0.5261
O5? O -0.0270(11) 0.5107(13) 0.7009(5)
S5? S -0.038(2) 0.347(2) 0.8928(14)
loop_
_geom_bond_atom_site_label_1
_geom_bond_atom_site_label_2
_geom_bond_site_symmetry_1
_geom_bond_site_symmetry_2
S1 C1 1_555 1_555
S2 C5 1_555 1_555
S3 C9 1_555 1_555
S4 C15 1_555 1_555
O1 C30 1_555 1_555
C1 C2 1_555 1_555
C2 H1 1_555 1_555
C3 C2 1_555 1_555
H2 C3 1_555 1_555
C4 S1 1_555 1_555
H3 C4 1_555 1_555
C5 C6 1_555 1_555
C6 H4 1_555 1_555
C7 C6 1_555 1_555
H5 C7 1_555 1_555
C8 S2 1_555 1_555
H6 C8 1_555 1_555
C9 C10 1_555 1_555
C10 H7 1_555 1_555
C11 C10 1_555 1_555
H8 C11 1_555 1_555
C12 S3 1_555 1_555
H9 C12 1_555 1_555
C13 H10 1_555 1_555
C14 C13 1_555 1_555
H11 C14 1_555 1_555
C15 C14 1_555 1_555
H12 C15 1_555 1_555
C16 S4 1_555 1_555
C17 H13 1_555 1_555
H14 C17 1_555 1_555
H15 C17 1_555 1_555
C18 C17 1_555 1_555
H16 C18 1_555 1_555
H17 C18 1_555 1_555
C19 H18 1_555 1_555
H19 C19 1_555 1_555
C20 C19 1_555 1_555
H20 C20 1_555 1_555
H21 C20 1_555 1_555
H22 C20 1_555 1_555
O2 C18 1_555 1_555
C21 H23 1_555 1_555
H24 C21 1_555 1_555
H25 C21 1_555 1_555
C22 C21 1_555 1_555
H26 C22 1_555 1_555
H27 C22 1_555 1_555
O3 C22 1_555 1_555
C23 O3 1_555 1_555
H28 C23 1_555 1_555
H29 C23 1_555 1_555
C24 C23 1_555 1_555
H30 C24 1_555 1_555
H31 C24 1_555 1_555
H32 C24 1_555 1_555
C25 H33 1_555 1_555
H34 C25 1_555 1_555
H35 C25 1_555 1_555
C26 C25 1_555 1_555
H36 C26 1_555 1_555
H37 C26 1_555 1_555
O4 C26 1_555 1_555
C27 O4 1_555 1_555
H38 C27 1_555 1_555
H39 C27 1_555 1_555
C28 C27 1_555 1_555
H40 C28 1_555 1_555
H41 C28 1_555 1_555
H42 C28 1_555 1_555
C29 H43 1_555 1_555
H44 C29 1_555 1_555
H45 C29 1_555 1_555
C30 C29 1_555 1_555
H46 C30 1_555 1_555
H47 C30 1_555 1_555
C31 O1 1_555 1_555
H48 C31 1_555 1_555
H49 C31 1_555 1_555
C32 C31 1_555 1_555
H50 C32 1_555 1_555
H51 C32 1_555 1_555
H52 C32 1_555 1_555
Li1 C1 1_555 1_555
Li2 C1 1_555 1_555
Li3 O1 1_555 1_555
Li4 C5 1_555 1_555
C1 Li3 1_555 1_555
C3 C4 1_555 1_555
C5 Li1 1_555 1_555
C5 Li3 1_555 1_555
C7 C8 1_555 1_555
C9 Li2 1_555 1_555
C9 Li3 1_555 1_555
C9 Li4 1_555 1_555
C11 C12 1_555 1_555
C13 C16 1_555 1_555
C16 Li1 1_555 1_555
C16 Li2 1_555 1_555
C16 Li4 1_555 1_555
C19 O2 1_555 1_555
O2 Li1 1_555 1_555
O3 Li2 1_555 1_555
O4 Li4 1_555 1_555

#END
