
#######################################################################
#
#                 Cambridge Crystallographic Data Centre
#                                CCDC 
#
#######################################################################
#
# If this CIF has been generated from an entry in the Cambridge 
# Structural Database, then it will include bibliographic, chemical, 
# crystal, experimental, refinement or atomic coordinate data resulting 
# from the CCDC's data processing and validation procedures.
#
#######################################################################

data_HARHOZ
_chemical_formula_moiety         
'C62 H42 N2,0.25(C1 H2 Cl2),0.25(C6 H14),0.4(H2 O1)'
_chemical_name_systematic        
"9,9'-((2,2-diphenylethene-1,1-diyl)dibiphenyl-4',4-diyl)bis-9H-carbazole dichloromethane hexane solvate hydrate"
_symmetry_cell_setting           triclinic
_symmetry_space_group_name_H-M   'P -1'
_symmetry_Int_Tables_number      2
_space_group_name_Hall           '-P 1'
loop_
_symmetry_equiv_pos_site_id
_symmetry_equiv_pos_as_xyz
1 x,y,z
2 -x,-y,-z
_cell_length_a                   11.0164(17)
_cell_length_b                   11.8961(18)
_cell_length_c                   18.841(3)
_cell_angle_alpha                81.814(3)
_cell_angle_beta                 84.930(3)
_cell_angle_gamma                69.902(3)
_cell_volume                     2293.1
_exptl_crystal_colour            colorless
_exptl_crystal_description       block
_cell_formula_units_Z            2
loop_
_atom_site_label
_atom_site_type_symbol
_atom_site_fract_x
_atom_site_fract_y
_atom_site_fract_z
C63 C 0.7821(8) 0.5524(5) 0.4506(3)
C64 C 0.6875(10) 0.4817(13) 0.4710(9)
C65 C 0.5433(7) 0.5105(8) 0.4829(5)
C63A C 0.2179(8) 0.4476(5) 0.5494(3)
C64A C 0.3125(10) 0.5183(13) 0.5290(9)
C65A C 0.4567(7) 0.4895(8) 0.5171(5)
N1 N 0.39424(19) 0.34840(17) 0.83029(11)
N2 N 0.90978(18) 1.29455(17) 1.17249(10)
C1 C 0.7296(2) 1.0405(2) 0.71900(12)
C2 C 0.7437(2) 1.0949(2) 0.65230(12)
C3 C 0.7866(2) 1.2025(2) 0.63815(12)
C4 C 0.7204(3) 1.3089(2) 0.66842(13)
H1 H 0.6480 1.3130 0.7006
C5 C 0.7605(3) 1.4082(3) 0.65151(16)
H2 H 0.7154 1.4803 0.6722
C6 C 0.8653(4) 1.4032(3) 0.60481(17)
H3 H 0.8916 1.4719 0.5930
C7 C 0.9318(3) 1.2987(3) 0.57523(16)
H4 H 1.0048 1.2949 0.5436
C8 C 0.8924(2) 1.1992(2) 0.59159(13)
H5 H 0.9383 1.1275 0.5707
C9 C 0.7143(2) 1.0550(2) 0.58629(12)
C10 C 0.7661(3) 0.9366(3) 0.57137(15)
H6 H 0.8236 0.8776 0.6035
C11 C 0.7339(3) 0.9040(3) 0.50908(16)
H7 H 0.7694 0.8226 0.4992
C12 C 0.6518(3) 0.9881(3) 0.46244(15)
H8 H 0.6302 0.9649 0.4203
C13 C 0.6001(3) 1.1064(3) 0.47598(14)
H9 H 0.5427 1.1648 0.4435
C14 C 0.6324(3) 1.1395(3) 0.53718(13)
H10 H 0.5981 1.2215 0.5459
C15 C 0.6805(2) 0.9365(2) 0.73167(12)
C16 C 0.7571(2) 0.8265(2) 0.76512(12)
H11 H 0.8396 0.8190 0.7806
C17 C 0.7164(2) 0.7280(2) 0.77649(13)
H12 H 0.7729 0.6529 0.7975
C18 C 0.5928(2) 0.7365(2) 0.75752(12)
C19 C 0.5146(2) 0.8493(2) 0.72598(13)
H13 H 0.4298 0.8589 0.7133
C20 C 0.5573(2) 0.9467(2) 0.71293(13)
H14 H 0.5021 1.0217 0.6909
C21 C 0.5466(2) 0.63214(19) 0.77244(12)
C22 C 0.4417(2) 0.6275(2) 0.73779(13)
H15 H 0.4035 0.6899 0.7008
C23 C 0.3921(2) 0.5345(2) 0.75584(13)
H16 H 0.3192 0.5351 0.7321
C24 C 0.4475(2) 0.4411(2) 0.80793(13)
C25 C 0.5581(2) 0.4391(2) 0.84007(13)
H17 H 0.6011 0.3725 0.8736
C26 C 0.6047(2) 0.5339(2) 0.82311(13)
H18 H 0.6782 0.5325 0.8465
C27 C 0.3483(2) 0.2876(2) 0.78652(15)
C28 C 0.3404(3) 0.3024(2) 0.71246(16)
H19 H 0.3728 0.3580 0.6826
C29 C 0.2829(3) 0.2324(3) 0.68397(18)
H20 H 0.2737 0.2422 0.6336
C30 C 0.2386(3) 0.1482(3) 0.7271(2)
H21 H 0.1987 0.1026 0.7059
C31 C 0.2518(3) 0.1305(3) 0.79944(19)
H22 H 0.2238 0.0711 0.8284
C32 C 0.3064(2) 0.2002(2) 0.83053(16)
C33 C 0.3282(2) 0.2085(2) 0.90372(15)
C34 C 0.3074(3) 0.1467(3) 0.96997(18)
H23 H 0.2758 0.0814 0.9721
C35 C 0.3331(3) 0.1811(3) 1.03204(17)
H24 H 0.3221 0.1375 1.0771
C36 C 0.3749(3) 0.2793(2) 1.02913(16)
H25 H 0.3877 0.3046 1.0727
C37 C 0.3983(2) 0.3413(2) 0.96455(14)
H26 H 0.4273 0.4081 0.9632
C38 C 0.3780(2) 0.3030(2) 0.90159(14)
C39 C 0.7608(2) 1.07630(19) 0.78591(12)
C40 C 0.6745(2) 1.08412(19) 0.84525(12)
H27 H 0.5971 1.0673 0.8419
C41 C 0.6992(2) 1.11579(19) 0.90897(12)
H28 H 0.6381 1.1210 0.9483
C42 C 0.8119(2) 1.14013(19) 0.91650(12)
C43 C 0.8986(2) 1.1314(2) 0.85694(12)
H29 H 0.9766 1.1471 0.8605
C44 C 0.8738(2) 1.1007(2) 0.79337(12)
H30 H 0.9346 1.0960 0.7539
C45 C 0.8384(2) 1.17600(19) 0.98440(12)
C46 C 0.7378(2) 1.2327(2) 1.03104(14)
H31 H 0.6511 1.2454 1.0201
C47 C 0.7609(2) 1.2709(2) 1.09277(14)
H32 H 0.6905 1.3101 1.1235
C48 C 0.8857(2) 1.2521(2) 1.10969(12)
C49 C 0.9872(2) 1.1944(2) 1.06515(13)
H33 H 1.0737 1.1803 1.0770
C50 C 0.9635(2) 1.1571(2) 1.00331(13)
H34 H 1.0344 1.1177 0.9730
C51 C 0.8947(2) 1.2465(2) 1.24288(12)
C52 C 0.8623(2) 1.1449(2) 1.26843(13)
H35 H 0.8462 1.0969 1.2366
C53 C 0.8545(3) 1.1162(3) 1.34185(14)
H36 H 0.8337 1.0463 1.3607
C54 C 0.8761(3) 1.1860(3) 1.38903(14)
H37 H 0.8672 1.1649 1.4393
C55 C 0.9104(3) 1.2858(3) 1.36346(14)
H38 H 0.9271 1.3326 1.3959
C56 C 0.9204(2) 1.3178(2) 1.28907(13)
C57 C 0.9518(2) 1.4137(2) 1.24441(14)
C58 C 0.9860(2) 1.5106(2) 1.25826(17)
H39 H 0.9897 1.5248 1.3063
C59 C 1.0141(3) 1.5847(2) 1.20228(19)
H40 H 1.0392 1.6498 1.2115
C60 C 1.0065(3) 1.5665(2) 1.13145(18)
H41 H 1.0257 1.6202 1.0934
C61 C 0.9715(3) 1.4720(2) 1.11525(16)
H42 H 0.9661 1.4597 1.0671
C62 C 0.9450(2) 1.3966(2) 1.17277(13)
C66? C 0.5462(12) 0.518(2) 0.4579(8)
Cl1? Cl 0.6671(3) 0.5815(3) 0.47013(16)
Cl2? Cl 0.5457(7) 0.4864(8) 0.4602(5)
Cl3? Cl 0.5945(9) 0.4562(12) 0.4849(7)
O1? O 0.5849(5) 0.4599(5) 0.4167(3)
loop_
_geom_bond_atom_site_label_1
_geom_bond_atom_site_label_2
_geom_bond_site_symmetry_1
_geom_bond_site_symmetry_2
N1 C24 1_555 1_555
N2 C48 1_555 1_555
C1 C2 1_555 1_555
C2 C3 1_555 1_555
C3 C4 1_555 1_555
C4 H1 1_555 1_555
C5 C4 1_555 1_555
H2 C5 1_555 1_555
C6 C5 1_555 1_555
H3 C6 1_555 1_555
C7 C6 1_555 1_555
H4 C7 1_555 1_555
C8 C3 1_555 1_555
H5 C8 1_555 1_555
C9 C2 1_555 1_555
C10 C9 1_555 1_555
H6 C10 1_555 1_555
C11 C10 1_555 1_555
H7 C11 1_555 1_555
C12 C11 1_555 1_555
H8 C12 1_555 1_555
C13 C12 1_555 1_555
H9 C13 1_555 1_555
C14 C9 1_555 1_555
H10 C14 1_555 1_555
C15 C1 1_555 1_555
C16 C15 1_555 1_555
H11 C16 1_555 1_555
C17 C16 1_555 1_555
H12 C17 1_555 1_555
C18 C17 1_555 1_555
C19 C18 1_555 1_555
H13 C19 1_555 1_555
C20 C15 1_555 1_555
H14 C20 1_555 1_555
C21 C18 1_555 1_555
C22 C21 1_555 1_555
H15 C22 1_555 1_555
C23 C22 1_555 1_555
H16 C23 1_555 1_555
C24 C23 1_555 1_555
C25 C24 1_555 1_555
H17 C25 1_555 1_555
C26 C21 1_555 1_555
H18 C26 1_555 1_555
C27 N1 1_555 1_555
C28 C27 1_555 1_555
H19 C28 1_555 1_555
C29 C28 1_555 1_555
H20 C29 1_555 1_555
C30 C29 1_555 1_555
H21 C30 1_555 1_555
C31 C30 1_555 1_555
H22 C31 1_555 1_555
C32 C27 1_555 1_555
C33 C32 1_555 1_555
C34 C33 1_555 1_555
H23 C34 1_555 1_555
C35 C34 1_555 1_555
H24 C35 1_555 1_555
C36 C35 1_555 1_555
H25 C36 1_555 1_555
C37 C36 1_555 1_555
H26 C37 1_555 1_555
C38 N1 1_555 1_555
C39 C1 1_555 1_555
C40 C39 1_555 1_555
H27 C40 1_555 1_555
C41 C40 1_555 1_555
H28 C41 1_555 1_555
C42 C41 1_555 1_555
C43 C42 1_555 1_555
H29 C43 1_555 1_555
C44 C39 1_555 1_555
H30 C44 1_555 1_555
C45 C42 1_555 1_555
C46 C45 1_555 1_555
H31 C46 1_555 1_555
C47 C46 1_555 1_555
H32 C47 1_555 1_555
C48 C47 1_555 1_555
C49 C48 1_555 1_555
H33 C49 1_555 1_555
C50 C45 1_555 1_555
H34 C50 1_555 1_555
C51 N2 1_555 1_555
C52 C51 1_555 1_555
H35 C52 1_555 1_555
C53 C52 1_555 1_555
H36 C53 1_555 1_555
C54 C53 1_555 1_555
H37 C54 1_555 1_555
C55 C54 1_555 1_555
H38 C55 1_555 1_555
C56 C51 1_555 1_555
C57 C56 1_555 1_555
C58 C57 1_555 1_555
H39 C58 1_555 1_555
C59 C58 1_555 1_555
H40 C59 1_555 1_555
C60 C59 1_555 1_555
H41 C60 1_555 1_555
C61 C60 1_555 1_555
H42 C61 1_555 1_555
C62 N2 1_555 1_555
C63 C64 1_555 1_555
C64 C65 1_555 1_555
C65 C65A 1_555 1_555
C63A C64A 1_555 1_555
C64A C65A 1_555 1_555
C7 C8 1_555 1_555
C13 C14 1_555 1_555
C19 C20 1_555 1_555
C25 C26 1_555 1_555
C31 C32 1_555 1_555
C33 C38 1_555 1_555
C37 C38 1_555 1_555
C43 C44 1_555 1_555
C49 C50 1_555 1_555
C55 C56 1_555 1_555
C57 C62 1_555 1_555
C61 C62 1_555 1_555

#END
