
#######################################################################
#
#                 Cambridge Crystallographic Data Centre
#                                CCDC 
#
#######################################################################
#
# If this CIF has been generated from an entry in the Cambridge 
# Structural Database, then it will include bibliographic, chemical, 
# crystal, experimental, refinement or atomic coordinate data resulting 
# from the CCDC's data processing and validation procedures.
#
#######################################################################

data_HARMUL
_chemical_formula_moiety         'C26 H21 N1 O3'
_chemical_name_systematic        
1-(hydroxymethyl)-17-(4-methylphenyl)-17-azapentacyclo[6.6.5.0^2,7^.0^9,14^.0^15,19^]nonadeca-2,4,6,9,11,13-hexaene-16,18-dione
_symmetry_cell_setting           triclinic
_symmetry_space_group_name_H-M   'P -1'
_symmetry_Int_Tables_number      2
_space_group_name_Hall           '-P 1'
loop_
_symmetry_equiv_pos_site_id
_symmetry_equiv_pos_as_xyz
1 x,y,z
2 -x,-y,-z
_cell_length_a                   8.908(3)
_cell_length_b                   9.384(3)
_cell_length_c                   13.422(5)
_cell_angle_alpha                108.421(9)
_cell_angle_beta                 103.935(9)
_cell_angle_gamma                98.091(10)
_cell_volume                     1004.11
_exptl_crystal_colour            colorless
_exptl_crystal_description       Block
_cell_formula_units_Z            2
loop_
_atom_site_label
_atom_site_type_symbol
_atom_site_fract_x
_atom_site_fract_y
_atom_site_fract_z
H1 H 0.444(2) 0.665(2) 0.2286(15)
H2 H 0.461(2) 0.767(2) 0.6473(16)
H3 H 0.066(3) 0.792(2) 0.5155(16)
H4 H 0.443(2) 0.924(2) 0.3275(16)
H5 H 0.316(2) 0.982(2) 0.4618(17)
H6 H 0.194(3) 0.439(3) 0.107(2)
H7 H -0.027(3) 0.533(3) 0.3974(19)
H8 H 0.720(3) 0.725(3) 0.682(2)
H9 H 0.186(2) 0.698(3) 0.5752(17)
H10 H -0.053(3) 0.282(3) 0.086(2)
H11 H 0.842(3) 0.669(3) 0.5332(19)
H12 H 0.010(3) 1.032(3) 0.118(2)
H13 H -0.172(3) 0.662(3) 0.180(2)
H14 H 0.699(3) 0.660(3) 0.357(2)
H15 H -0.239(3) 0.990(3) -0.017(2)
H16 H -0.419(3) 0.630(4) 0.054(2)
H17 H -0.160(3) 0.324(3) 0.235(2)
H18 H -0.524(6) 0.867(6) -0.103(4)
H19 H -0.521(5) 0.704(5) -0.143(4)
H20 H -0.599(6) 0.753(6) -0.059(4)
H21 H 0.196(5) 0.998(5) 0.650(3)
O1 O 0.24180(19) 0.8264(2) 0.12008(13)
O2 O 0.26870(19) 0.9344(2) 0.63009(12)
N1 N 0.08472(19) 0.86634(19) 0.23501(13)
O3 O -0.00795(18) 0.9155(2) 0.38391(12)
C1 C 0.4937(2) 0.6995(2) 0.39960(17)
C2 C 0.2556(2) 0.7537(2) 0.45109(15)
C3 C 0.1621(2) 0.6079(2) 0.35241(16)
C4 C 0.4254(2) 0.7337(2) 0.48517(17)
C5 C 0.0187(2) 0.5141(3) 0.3397(2)
C6 C -0.0647(2) 0.8468(2) 0.15553(16)
C7 C 0.2646(2) 0.8855(2) 0.40220(17)
C8 C 0.1828(3) 0.7906(3) 0.54425(18)
C9 C 0.2296(2) 0.5762(2) 0.26658(16)
C10 C 0.5107(2) 0.7428(2) 0.58872(19)
C11 C 0.3456(2) 0.8507(2) 0.31161(17)
C12 C 0.3848(2) 0.6890(2) 0.29138(17)
C13 C 0.2254(2) 0.8472(2) 0.20989(18)
C14 C 0.6469(3) 0.6775(3) 0.4184(2)
C15 C 0.0991(2) 0.8932(2) 0.34460(17)
C16 C -0.0829(3) 0.9440(3) 0.0986(2)
C17 C 0.6644(3) 0.7189(3) 0.6064(2)
C18 C 0.0062(3) 0.3628(3) 0.1558(2)
C19 C -0.1907(3) 0.7298(3) 0.1386(2)
C20 C 0.1504(3) 0.4551(3) 0.1677(2)
C21 C -0.3559(3) 0.8059(3) 0.0035(2)
C22 C -0.0575(3) 0.3904(3) 0.2413(2)
C23 C 0.7304(3) 0.6869(3) 0.5218(2)
C24 C -0.3345(3) 0.7117(4) 0.0635(2)
C25 C -0.2281(3) 0.9219(3) 0.0224(2)
C26 C -0.5130(5) 0.7803(7) -0.0812(4)
loop_
_geom_bond_atom_site_label_1
_geom_bond_atom_site_label_2
_geom_bond_site_symmetry_1
_geom_bond_site_symmetry_2
H1 C12 1_555 1_555
H2 C10 1_555 1_555
H3 C8 1_555 1_555
H4 C11 1_555 1_555
H5 C7 1_555 1_555
H6 C20 1_555 1_555
H7 C5 1_555 1_555
H8 C17 1_555 1_555
H9 C8 1_555 1_555
H10 C18 1_555 1_555
H11 C23 1_555 1_555
H12 C16 1_555 1_555
H13 C19 1_555 1_555
H14 C14 1_555 1_555
H15 C25 1_555 1_555
H16 C24 1_555 1_555
H17 C22 1_555 1_555
H18 C26 1_555 1_555
H19 C26 1_555 1_555
H20 C26 1_555 1_555
H21 O2 1_555 1_555
O1 C13 1_555 1_555
O2 C8 1_555 1_555
N1 C6 1_555 1_555
O3 C15 1_555 1_555
C1 C4 1_555 1_555
C2 C3 1_555 1_555
C3 C5 1_555 1_555
C4 C2 1_555 1_555
C5 C22 1_555 1_555
C6 C16 1_555 1_555
C7 C2 1_555 1_555
C8 C2 1_555 1_555
C9 C3 1_555 1_555
C10 C4 1_555 1_555
C11 C7 1_555 1_555
C12 C1 1_555 1_555
C13 N1 1_555 1_555
C14 C1 1_555 1_555
C15 N1 1_555 1_555
C16 C25 1_555 1_555
C17 C10 1_555 1_555
C18 C20 1_555 1_555
C19 C6 1_555 1_555
C20 C9 1_555 1_555
C21 C24 1_555 1_555
C22 C18 1_555 1_555
C23 C14 1_555 1_555
C24 C19 1_555 1_555
C25 C21 1_555 1_555
C26 C21 1_555 1_555
C7 C15 1_555 1_555
C9 C12 1_555 1_555
C11 C12 1_555 1_555
C11 C13 1_555 1_555
C17 C23 1_555 1_555

#END
