
#######################################################################
#
#                 Cambridge Crystallographic Data Centre
#                                CCDC 
#
#######################################################################
#
# If this CIF has been generated from an entry in the Cambridge 
# Structural Database, then it will include bibliographic, chemical, 
# crystal, experimental, refinement or atomic coordinate data resulting 
# from the CCDC's data processing and validation procedures.
#
#######################################################################

data_HARMAO
_chemical_formula_moiety         'C8 H7 N1 S5'
_chemical_name_systematic        4-(N-Methylthioamido)tetrathiafulvalene
_symmetry_cell_setting           monoclinic
_symmetry_space_group_name_H-M   'P 21/c'
_symmetry_Int_Tables_number      14
_space_group_name_Hall           '-P 2ybc'
loop_
_symmetry_equiv_pos_site_id
_symmetry_equiv_pos_as_xyz
1 x,y,z
2 -x,1/2+y,1/2-z
3 -x,-y,-z
4 x,1/2-y,1/2+z
_cell_length_a                   11.720(3)
_cell_length_b                   8.474(2)
_cell_length_c                   11.231(2)
_cell_angle_alpha                90
_cell_angle_beta                 92.88(2)
_cell_angle_gamma                90
_cell_volume                     1114
_exptl_crystal_colour            'dark purple'
_cell_formula_units_Z            4
loop_
_atom_site_label
_atom_site_type_symbol
_atom_site_fract_x
_atom_site_fract_y
_atom_site_fract_z
S1 S 0.2959(1) 0.2445(1) 0.5897(1)
S2 S 0.3835(1) -0.0001(1) 0.7559(1)
S3 S 0.5475(1) 0.2740(1) 0.4819(1)
S4 S 0.6394(1) 0.0489(1) 0.6614(1)
S5 S 0.0582(1) 0.4005(2) 0.6143(1)
N1 N 0.0697(3) 0.3011(4) 0.8363(3)
C1 C 0.4141(3) 0.1323(4) 0.6419(3)
C2 C 0.2209(3) 0.2128(4) 0.7196(3)
C3 C 0.2619(3) 0.0983(4) 0.7927(3)
C4 C 0.5187(4) 0.1482(4) 0.6012(3)
C5 C 0.6948(4) 0.2657(6) 0.5065(4)
C6 C 0.7348(4) 0.1647(6) 0.5868(4)
C7 C 0.1162(3) 0.3025(4) 0.7310(3)
C8 C -0.0384(4) 0.3728(6) 0.8588(4)
H1 H 0.1026(33) 0.2431(42) 0.8854(32)
H2 H 0.2241 0.0719 0.8638
H3 H 0.7449 0.3320 0.4635
H4 H 0.8156 0.1547 0.6039
H5 H -0.0602 0.4429 0.7945
H6 H -0.0318 0.4312 0.9321
H7 H -0.0954 0.2922 0.8648
loop_
_geom_bond_atom_site_label_1
_geom_bond_atom_site_label_2
_geom_bond_site_symmetry_1
_geom_bond_site_symmetry_2
S1 C1 1_555 1_555
S2 C1 1_555 1_555
S3 C4 1_555 1_555
S4 C4 1_555 1_555
S5 C7 1_555 1_555
N1 C7 1_555 1_555
C1 C4 1_555 1_555
C2 S1 1_555 1_555
C3 S2 1_555 1_555
C5 S3 1_555 1_555
C6 S4 1_555 1_555
C7 C2 1_555 1_555
C8 N1 1_555 1_555
H1 N1 1_555 1_555
H2 C3 1_555 1_555
H3 C5 1_555 1_555
H4 C6 1_555 1_555
H5 C8 1_555 1_555
H6 C8 1_555 1_555
H7 C8 1_555 1_555
C2 C3 1_555 1_555
C5 C6 1_555 1_555

#END
