
#######################################################################
#
#                 Cambridge Crystallographic Data Centre
#                                CCDC 
#
#######################################################################
#
# If this CIF has been generated from an entry in the Cambridge 
# Structural Database, then it will include bibliographic, chemical, 
# crystal, experimental, refinement or atomic coordinate data resulting 
# from the CCDC's data processing and validation procedures.
#
#######################################################################

data_HARNAS
_chemical_formula_moiety         'C32 H25 N1'
_chemical_name_systematic        
2-(diphenylmethyl)-9-methyl-1-phenyl-9H-carbazole
_symmetry_cell_setting           monoclinic
_symmetry_space_group_name_H-M   'P 21/c'
_symmetry_Int_Tables_number      14
_space_group_name_Hall           '-P 2ybc'
loop_
_symmetry_equiv_pos_site_id
_symmetry_equiv_pos_as_xyz
1 x,y,z
2 -x,1/2+y,1/2-z
3 -x,-y,-z
4 x,1/2-y,1/2+z
_cell_length_a                   11.8651(9)
_cell_length_b                   9.2832(5)
_cell_length_c                   22.0493(14)
_cell_angle_alpha                90
_cell_angle_beta                 104.422(7)
_cell_angle_gamma                90
_cell_volume                     2352.11
_exptl_crystal_colour            yellow
_exptl_crystal_description       plate
_cell_formula_units_Z            4
loop_
_atom_site_label
_atom_site_type_symbol
_atom_site_fract_x
_atom_site_fract_y
_atom_site_fract_z
N1 N 0.46005(14) 0.76617(16) 0.01068(8)
C1 C 0.33790(15) 0.64765(19) 0.07668(8)
C2 C 0.35649(16) 0.72480(19) 0.02506(9)
C3 C 0.26254(17) 0.7745(2) -0.02316(9)
C4 C 0.43564(15) 0.59875(19) 0.12930(8)
C5 C 0.22216(16) 0.6198(2) 0.07735(9)
C6 C 0.3111(2) 0.8475(2) -0.06852(9)
C7 C 0.19463(16) 0.5260(2) 0.12867(9)
H1 H 0.2629 0.5300 0.1644
C8 C 0.43215(19) 0.8396(2) -0.04597(9)
C9 C 0.47228(18) 0.6826(2) 0.18244(9)
H2 H 0.4337 0.7682 0.1860
C10 C 0.17697(16) 0.3681(2) 0.10960(10)
C11 C 0.13097(17) 0.6711(2) 0.02943(10)
H3 H 0.0548 0.6522 0.0311
C12 C 0.14983(18) 0.7483(2) -0.02000(10)
H4 H 0.0874 0.7825 -0.0510
C13 C 0.5656(2) 0.6405(3) 0.23034(10)
H5 H 0.5898 0.6983 0.2656
C14 C 0.49277(19) 0.4709(2) 0.12660(11)
H6 H 0.4685 0.4117 0.0918
C15 C 0.09325(19) 0.5884(2) 0.15107(10)
C16 C 0.6224(2) 0.5144(3) 0.22607(12)
H7 H 0.6859 0.4870 0.2580
C17 C 0.17909(18) 0.3165(3) 0.05129(11)
H8 H 0.1917 0.3801 0.0211
C18 C 0.57857(17) 0.7363(3) 0.04445(11)
H9 H 0.5849 0.7419 0.0887
H10 H 0.6297 0.8058 0.0331
H11 H 0.5999 0.6414 0.0340
C19 C 0.2629(2) 0.9140(2) -0.12574(10)
H12 H 0.1826 0.9205 -0.1409
C20 C 0.5063(2) 0.8977(2) -0.07963(11)
H13 H 0.5868 0.8941 -0.0645
C21 C 0.5856(2) 0.4292(3) 0.17480(13)
H14 H 0.6231 0.3424 0.1721
C22 C 0.4552(3) 0.9608(3) -0.13629(13)
H15 H 0.5027 0.9989 -0.1600
C23 C -0.0202(2) 0.5421(3) 0.12827(12)
H16 H -0.0345 0.4662 0.0999
C24 C 0.1576(2) 0.2692(3) 0.15291(12)
H17 H 0.1560 0.3006 0.1927
C25 C 0.3356(3) 0.9697(3) -0.15929(12)
H18 H 0.3045 1.0138 -0.1977
C26 C 0.1405(2) 0.1253(3) 0.13822(17)
H19 H 0.1267 0.0612 0.1680
C27 C 0.1438(2) 0.0762(3) 0.08039(19)
H20 H 0.1332 -0.0212 0.0708
C28 C -0.1121(3) 0.6032(4) 0.14568(15)
H21 H -0.1872 0.5695 0.1289
C29 C 0.1627(2) 0.1711(3) 0.03682(15)
H22 H 0.1647 0.1384 -0.0028
C30 C 0.1137(3) 0.6981(3) 0.19461(13)
H23 H 0.1891 0.7298 0.2121
C31 C 0.0177(5) 0.7622(4) 0.21245(18)
H24 H 0.0297 0.8377 0.2411
C32 C -0.0936(4) 0.7112(5) 0.1868(2)
H25 H -0.1564 0.7529 0.1984
loop_
_geom_bond_atom_site_label_1
_geom_bond_atom_site_label_2
_geom_bond_site_symmetry_1
_geom_bond_site_symmetry_2
N1 C2 1_555 1_555
C1 C2 1_555 1_555
C2 C3 1_555 1_555
C3 C6 1_555 1_555
C4 C1 1_555 1_555
C5 C1 1_555 1_555
C6 C8 1_555 1_555
C7 C5 1_555 1_555
H1 C7 1_555 1_555
C8 N1 1_555 1_555
C9 C4 1_555 1_555
H2 C9 1_555 1_555
C10 C7 1_555 1_555
C11 C5 1_555 1_555
H3 C11 1_555 1_555
C12 C3 1_555 1_555
H4 C12 1_555 1_555
C13 C9 1_555 1_555
H5 C13 1_555 1_555
C14 C4 1_555 1_555
H6 C14 1_555 1_555
C15 C7 1_555 1_555
C16 C13 1_555 1_555
H7 C16 1_555 1_555
C17 C10 1_555 1_555
H8 C17 1_555 1_555
C18 N1 1_555 1_555
H9 C18 1_555 1_555
H10 C18 1_555 1_555
H11 C18 1_555 1_555
C19 C6 1_555 1_555
H12 C19 1_555 1_555
C20 C8 1_555 1_555
H13 C20 1_555 1_555
C21 C14 1_555 1_555
H14 C21 1_555 1_555
C22 C20 1_555 1_555
H15 C22 1_555 1_555
C23 C15 1_555 1_555
H16 C23 1_555 1_555
C24 C10 1_555 1_555
H17 C24 1_555 1_555
C25 C19 1_555 1_555
H18 C25 1_555 1_555
C26 C24 1_555 1_555
H19 C26 1_555 1_555
C27 C26 1_555 1_555
H20 C27 1_555 1_555
C28 C23 1_555 1_555
H21 C28 1_555 1_555
C29 C17 1_555 1_555
H22 C29 1_555 1_555
C30 C15 1_555 1_555
H23 C30 1_555 1_555
C31 C30 1_555 1_555
H24 C31 1_555 1_555
C32 C28 1_555 1_555
H25 C32 1_555 1_555
C11 C12 1_555 1_555
C16 C21 1_555 1_555
C22 C25 1_555 1_555
C27 C29 1_555 1_555
C31 C32 1_555 1_555

#END
