
#######################################################################
#
#                 Cambridge Crystallographic Data Centre
#                                CCDC 
#
#######################################################################
#
# If this CIF has been generated from an entry in the Cambridge 
# Structural Database, then it will include bibliographic, chemical, 
# crystal, experimental, refinement or atomic coordinate data resulting 
# from the CCDC's data processing and validation procedures.
#
#######################################################################

data_HARQAV
_chemical_formula_moiety         'C27 H33 N3 O4'
_chemical_name_systematic        
't-butyl 11-cyano-2-ethoxy-21-oxo-11,21-cycloaspidospermidine-1-carboxylate'
_symmetry_cell_setting           monoclinic
_symmetry_space_group_name_H-M   'P 21'
_symmetry_Int_Tables_number      4
_space_group_name_Hall           'P 2yb'
loop_
_symmetry_equiv_pos_site_id
_symmetry_equiv_pos_as_xyz
1 x,y,z
2 -x,1/2+y,-z
_cell_length_a                   9.0149(5)
_cell_length_b                   10.6167(5)
_cell_length_c                   25.7997(13)
_cell_angle_alpha                90
_cell_angle_beta                 90
_cell_angle_gamma                90
_cell_volume                     2469.25
_exptl_crystal_colour            colorless
_cell_formula_units_Z            4
loop_
_atom_site_label
_atom_site_type_symbol
_atom_site_fract_x
_atom_site_fract_y
_atom_site_fract_z
O1 O 0.4144(4) 0.4512(3) 0.43740(15)
O2 O 0.6467(5) 0.6638(3) 0.23018(13)
O3 O 0.7612(4) 0.8496(3) 0.23827(12)
O4 O 0.4579(3) 0.6705(3) 0.34374(11)
N1 N 0.6840(4) 0.7517(3) 0.30952(14)
N2 N 0.8241(4) 0.6565(4) 0.46682(15)
N3 N 0.3278(5) 0.7590(5) 0.4598(2)
C1 C 0.7068(5) 0.8584(4) 0.34233(18)
C2 C 0.7406(6) 0.9820(4) 0.3294(2)
H1 H 0.7583 1.0051 0.2952
C3 C 0.7471(6) 1.0699(4) 0.3691(2)
H2 H 0.7707 1.1530 0.3611
C4 C 0.7201(6) 1.0384(4) 0.4191(2)
H3 H 0.7229 1.0999 0.4448
C5 C 0.6885(5) 0.9149(4) 0.4321(2)
H4 H 0.6712 0.8924 0.4664
C6 C 0.6831(4) 0.8253(4) 0.39327(17)
C7 C 0.6662(4) 0.6841(4) 0.39659(16)
C8 C 0.5692(5) 0.6352(4) 0.44275(16)
C9 C 0.5377(6) 0.4947(4) 0.43408(17)
C10 C 0.6740(5) 0.4173(4) 0.42597(19)
H5 H 0.6473 0.3460 0.4044
H6 H 0.7039 0.3839 0.4594
C11 C 0.8106(5) 0.4815(4) 0.40129(19)
C12 C 0.7993(6) 0.4696(4) 0.3428(2)
H7 H 0.8788 0.5173 0.3268
H8 H 0.8111 0.3820 0.3330
C13 C 0.6522(6) 0.5173(4) 0.32322(18)
H9 H 0.5749 0.4603 0.3348
H10 H 0.6534 0.5155 0.2856
C14 C 0.6126(5) 0.6508(4) 0.34086(16)
C15 C 0.8125(5) 0.6239(4) 0.41240(19)
H11 H 0.8939 0.6634 0.3932
C16 C 0.6765(5) 0.6431(5) 0.49013(18)
H12 H 0.6530 0.7152 0.5117
H13 H 0.6708 0.5672 0.5110
C17 C 0.9511(6) 0.5977(5) 0.4921(2)
H14 H 0.9419 0.6099 0.5292
H15 H 1.0404 0.6409 0.4810
C18 C 0.9701(7) 0.4564(5) 0.4815(3)
H16 H 1.0677 0.4299 0.4930
H17 H 0.8968 0.4097 0.5012
C19 C 0.9524(6) 0.4264(5) 0.4239(3)
H18 H 1.0369 0.4598 0.4051
H19 H 0.9516 0.3358 0.4192
C20 C 0.6948(5) 0.7481(4) 0.25665(18)
C21 C 0.7765(6) 0.8719(5) 0.1829(2)
C22 C 0.8505(9) 1.0002(6) 0.1815(3)
H20 H 0.7936 1.0587 0.2017
H21 H 0.8559 1.0292 0.1463
H22 H 0.9488 0.9938 0.1956
C23 C 0.8730(10) 0.7755(7) 0.1589(3)
H23 H 0.9561 0.7590 0.1811
H24 H 0.9080 0.8057 0.1260
H25 H 0.8176 0.6993 0.1538
C24 C 0.6230(10) 0.8802(9) 0.1591(3)
H26 H 0.5772 0.7985 0.1598
H27 H 0.6309 0.9088 0.1240
H28 H 0.5637 0.9384 0.1787
C25 C 0.3665(6) 0.6459(6) 0.3000(2)
H29 H 0.3886 0.5634 0.2859
H30 H 0.3839 0.7084 0.2733
C26 C 0.2099(6) 0.6513(7) 0.3176(3)
H31 H 0.1452 0.6421 0.2883
H32 H 0.1915 0.7309 0.3340
H33 H 0.1916 0.5845 0.3418
C27 C 0.4315(5) 0.7051(5) 0.45088(18)
O5 O -0.0855(4) 0.5490(3) 0.06282(15)
O6 O 0.1455(5) 0.3359(3) 0.26980(13)
O7 O 0.2609(4) 0.1504(3) 0.26191(13)
O8 O -0.0423(3) 0.3289(3) 0.15659(11)
N4 N 0.1851(4) 0.2481(3) 0.19045(14)
N5 N 0.3223(4) 0.3433(4) 0.03316(15)
N6 N -0.1718(5) 0.2394(5) 0.0409(2)
C28 C 0.2056(5) 0.1403(4) 0.15794(18)
C29 C 0.2404(6) 0.0173(4) 0.1711(2)
H34 H 0.2591 -0.0056 0.2053
C30 C 0.2465(6) -0.0703(4) 0.1313(2)
H35 H 0.2700 -0.1533 0.1393
C31 C 0.2191(6) -0.0393(4) 0.0807(2)
H36 H 0.2212 -0.1009 0.0551
C32 C 0.1883(5) 0.0848(4) 0.06791(19)
H37 H 0.1714 0.1075 0.0336
C33 C 0.1830(4) 0.1738(4) 0.10656(18)
C34 C 0.1660(4) 0.3141(4) 0.10335(16)
C35 C 0.0691(5) 0.3642(4) 0.05790(16)
C36 C 0.0369(6) 0.5048(4) 0.06605(17)
C37 C 0.1743(6) 0.5827(4) 0.07363(19)
H38 H 0.1484 0.6545 0.0950
H39 H 0.2043 0.6151 0.0401
C38 C 0.3096(5) 0.5176(4) 0.0983(2)
C39 C 0.3004(6) 0.5293(4) 0.15736(19)
H40 H 0.3793 0.4804 0.1731
H41 H 0.3137 0.6167 0.1673
C40 C 0.1514(6) 0.4825(4) 0.17684(18)
H42 H 0.0747 0.5397 0.1650
H43 H 0.1517 0.4846 0.2144
C41 C 0.1121(5) 0.3490(4) 0.15907(17)
C42 C 0.1778(5) 0.3574(5) 0.01000(18)
H44 H 0.1543 0.2860 -0.0120
H45 H 0.1724 0.4339 -0.0105
C43 C 0.3132(5) 0.3752(4) 0.08771(18)
H46 H 0.3953 0.3361 0.1067
C44 C 0.4534(6) 0.5725(5) 0.0754(3)
H47 H 0.4531 0.6632 0.0797
H48 H 0.5378 0.5391 0.0943
C45 C 0.4701(6) 0.5413(5) 0.0186(2)
H49 H 0.5673 0.5682 0.0069
H50 H 0.3964 0.5876 -0.0011
C46 C 0.4523(6) 0.4017(5) 0.0078(2)
H51 H 0.4440 0.3894 -0.0293
H52 H 0.5411 0.3583 0.0194
C47 C 0.1930(5) 0.2521(4) 0.24340(19)
C48 C 0.2761(7) 0.1269(5) 0.3176(2)
C49 C 0.1258(9) 0.1196(8) 0.3414(3)
H53 H 0.0881 0.2032 0.3467
H54 H 0.1321 0.0766 0.3740
H55 H 0.0604 0.0743 0.3187
C50 C 0.3759(10) 0.2246(6) 0.3412(3)
H56 H 0.4513 0.2477 0.3168
H57 H 0.4215 0.1908 0.3719
H58 H 0.3186 0.2976 0.3502
C51 C 0.3507(9) -0.0007(6) 0.3188(3)
H59 H 0.2864 -0.0623 0.3033
H60 H 0.3710 -0.0239 0.3540
H61 H 0.4419 0.0030 0.2997
C52 C -0.1352(6) 0.3519(6) 0.2003(2)
H62 H -0.1129 0.4338 0.2150
H63 H -0.1181 0.2884 0.2267
C53 C -0.2907(6) 0.3477(7) 0.1830(2)
H64 H -0.3118 0.4205 0.1622
H65 H -0.3549 0.3470 0.2127
H66 H -0.3069 0.2729 0.1629
C54 C -0.0687(6) 0.2947(5) 0.0491(2)
loop_
_geom_bond_atom_site_label_1
_geom_bond_atom_site_label_2
_geom_bond_site_symmetry_1
_geom_bond_site_symmetry_2
O1 C9 1_555 1_555
O2 C20 1_555 1_555
O3 C20 1_555 1_555
O4 C14 1_555 1_555
N1 C1 1_555 1_555
N2 C15 1_555 1_555
N3 C27 1_555 1_555
C1 C2 1_555 1_555
C2 H1 1_555 1_555
C3 C2 1_555 1_555
H2 C3 1_555 1_555
C4 C3 1_555 1_555
H3 C4 1_555 1_555
C5 C4 1_555 1_555
H4 C5 1_555 1_555
C6 C1 1_555 1_555
C7 C6 1_555 1_555
C8 C7 1_555 1_555
C9 C8 1_555 1_555
C10 C9 1_555 1_555
H5 C10 1_555 1_555
H6 C10 1_555 1_555
C11 C10 1_555 1_555
C12 C11 1_555 1_555
H7 C12 1_555 1_555
H8 C12 1_555 1_555
C13 C12 1_555 1_555
H9 C13 1_555 1_555
H10 C13 1_555 1_555
C14 N1 1_555 1_555
C15 C7 1_555 1_555
H11 C15 1_555 1_555
C16 N2 1_555 1_555
H12 C16 1_555 1_555
H13 C16 1_555 1_555
C17 N2 1_555 1_555
H14 C17 1_555 1_555
H15 C17 1_555 1_555
C18 C17 1_555 1_555
H16 C18 1_555 1_555
H17 C18 1_555 1_555
C19 C11 1_555 1_555
H18 C19 1_555 1_555
H19 C19 1_555 1_555
C20 N1 1_555 1_555
C21 O3 1_555 1_555
C22 C21 1_555 1_555
H20 C22 1_555 1_555
H21 C22 1_555 1_555
H22 C22 1_555 1_555
C23 C21 1_555 1_555
H23 C23 1_555 1_555
H24 C23 1_555 1_555
H25 C23 1_555 1_555
C24 C21 1_555 1_555
H26 C24 1_555 1_555
H27 C24 1_555 1_555
H28 C24 1_555 1_555
C25 O4 1_555 1_555
H29 C25 1_555 1_555
H30 C25 1_555 1_555
C26 C25 1_555 1_555
H31 C26 1_555 1_555
H32 C26 1_555 1_555
H33 C26 1_555 1_555
C27 C8 1_555 1_555
O5 C36 1_555 1_555
O6 C47 1_555 1_555
O7 C47 1_555 1_555
O8 C41 1_555 1_555
N4 C28 1_555 1_555
N5 C42 1_555 1_555
N6 C54 1_555 1_555
C28 C29 1_555 1_555
C29 H34 1_555 1_555
C30 C29 1_555 1_555
H35 C30 1_555 1_555
C31 C30 1_555 1_555
H36 C31 1_555 1_555
C32 C31 1_555 1_555
H37 C32 1_555 1_555
C33 C28 1_555 1_555
C34 C33 1_555 1_555
C35 C34 1_555 1_555
C36 C35 1_555 1_555
C37 C36 1_555 1_555
H38 C37 1_555 1_555
H39 C37 1_555 1_555
C38 C37 1_555 1_555
C39 C38 1_555 1_555
H40 C39 1_555 1_555
H41 C39 1_555 1_555
C40 C39 1_555 1_555
H42 C40 1_555 1_555
H43 C40 1_555 1_555
C41 N4 1_555 1_555
C42 C35 1_555 1_555
H44 C42 1_555 1_555
H45 C42 1_555 1_555
C43 N5 1_555 1_555
H46 C43 1_555 1_555
C44 C38 1_555 1_555
H47 C44 1_555 1_555
H48 C44 1_555 1_555
C45 C44 1_555 1_555
H49 C45 1_555 1_555
H50 C45 1_555 1_555
C46 N5 1_555 1_555
H51 C46 1_555 1_555
H52 C46 1_555 1_555
C47 N4 1_555 1_555
C48 O7 1_555 1_555
C49 C48 1_555 1_555
H53 C49 1_555 1_555
H54 C49 1_555 1_555
H55 C49 1_555 1_555
C50 C48 1_555 1_555
H56 C50 1_555 1_555
H57 C50 1_555 1_555
H58 C50 1_555 1_555
C51 C48 1_555 1_555
H59 C51 1_555 1_555
H60 C51 1_555 1_555
H61 C51 1_555 1_555
C52 O8 1_555 1_555
H62 C52 1_555 1_555
H63 C52 1_555 1_555
C53 C52 1_555 1_555
H64 C53 1_555 1_555
H65 C53 1_555 1_555
H66 C53 1_555 1_555
C54 C35 1_555 1_555
C5 C6 1_555 1_555
C7 C14 1_555 1_555
C8 C16 1_555 1_555
C11 C15 1_555 1_555
C13 C14 1_555 1_555
C18 C19 1_555 1_555
C32 C33 1_555 1_555
C34 C41 1_555 1_555
C34 C43 1_555 1_555
C38 C43 1_555 1_555
C40 C41 1_555 1_555
C45 C46 1_555 1_555

#END
