
#######################################################################
#
#                 Cambridge Crystallographic Data Centre
#                                CCDC 
#
#######################################################################
#
# If this CIF has been generated from an entry in the Cambridge 
# Structural Database, then it will include bibliographic, chemical, 
# crystal, experimental, refinement or atomic coordinate data resulting 
# from the CCDC's data processing and validation procedures.
#
#######################################################################

data_HARSEB
_chemical_formula_moiety         'C22 H18 O3'
_chemical_name_systematic        
3-(2-oxopropyl)-4-phenyl-3,4-dihydro-2H-benzo[h]chromen-2-one
_symmetry_cell_setting           orthorhombic
_symmetry_space_group_name_H-M   'P 21 21 21'
_symmetry_Int_Tables_number      19
_space_group_name_Hall           'P 2ac 2ab'
loop_
_symmetry_equiv_pos_site_id
_symmetry_equiv_pos_as_xyz
1 x,y,z
2 1/2+x,1/2-y,-z
3 -x,1/2+y,1/2-z
4 1/2-x,-y,1/2+z
_cell_length_a                   8.9563(2)
_cell_length_b                   11.6767(2)
_cell_length_c                   33.6088(6)
_cell_angle_alpha                90
_cell_angle_beta                 90
_cell_angle_gamma                90
_cell_volume                     3514.81
_exptl_crystal_colour            colorless
_exptl_crystal_description       block
_cell_formula_units_Z            8
loop_
_atom_site_label
_atom_site_type_symbol
_atom_site_fract_x
_atom_site_fract_y
_atom_site_fract_z
O1 O 0.8851(2) 0.24506(14) 0.29213(5)
O2 O 0.84844(15) 0.25658(11) 0.22783(4)
O3 O 0.73675(19) 0.4852(2) 0.32092(6)
C1 C 0.8913(2) 0.30392(17) 0.26330(6)
C2 C 0.9399(2) 0.42670(17) 0.26176(6)
H1 H 0.8515 0.4716 0.2546
C3 C 1.0539(2) 0.44278(17) 0.22766(6)
H2 H 1.0716 0.5251 0.2245
C4 C 0.9825(2) 0.39931(17) 0.19009(6)
C5 C 1.0188(3) 0.4440(2) 0.15215(7)
H3 H 1.0870 0.5038 0.1502
C6 C 0.9557(3) 0.4010(2) 0.11865(7)
H4 H 0.9826 0.4311 0.0940
C7 C 0.8503(3) 0.3119(2) 0.12039(6)
C8 C 0.7839(3) 0.2628(3) 0.08618(7)
H5 H 0.8104 0.2901 0.0612
C9 C 0.6825(4) 0.1770(3) 0.08899(9)
H6 H 0.6413 0.1458 0.0660
C10 C 0.6396(3) 0.1353(2) 0.12613(9)
H7 H 0.5687 0.0774 0.1278
C11 C 0.7008(2) 0.1786(2) 0.16013(7)
H8 H 0.6710 0.1503 0.1847
C12 C 0.8089(2) 0.26617(17) 0.15808(6)
C13 C 0.88070(19) 0.31262(16) 0.19188(5)
C14 C 1.2031(2) 0.38586(18) 0.23609(6)
C15 C 1.3194(2) 0.4478(2) 0.25224(7)
H9 H 1.3070 0.5255 0.2572
C16 C 1.4545(3) 0.3959(3) 0.26113(9)
H10 H 1.5309 0.4389 0.2724
C17 C 1.4765(3) 0.2831(3) 0.25350(9)
H11 H 1.5675 0.2489 0.2595
C18 C 1.3648(3) 0.2207(3) 0.23711(11)
H12 H 1.3792 0.1433 0.2319
C19 C 1.2287(3) 0.2717(2) 0.22804(9)
H13 H 1.1537 0.2281 0.2164
C20 C 0.9904(2) 0.46948(19) 0.30216(6)
H14 H 1.0566 0.4130 0.3139
H15 H 1.0472 0.5394 0.2985
C21 C 0.8648(3) 0.4927(2) 0.33075(7)
C22 C 0.9072(4) 0.5304(3) 0.37171(8)
H16 H 0.9753 0.5937 0.3700
H17 H 0.9542 0.4681 0.3855
H18 H 0.8193 0.5537 0.3859
O4 O 0.75147(19) 1.04889(14) -0.03954(5)
O5 O 0.75775(15) 0.93733(12) 0.01264(4)
O6 O 0.81600(19) 0.90177(17) -0.11401(5)
C23 C 0.8149(2) 0.97301(17) -0.02277(6)
C24 C 0.9495(2) 0.91046(18) -0.03834(6)
H19 H 0.9141 0.8359 -0.0479
C25 C 1.0639(2) 0.88585(16) -0.00514(6)
H20 H 1.1312 0.8261 -0.0150
C26 C 0.9854(2) 0.83843(16) 0.03053(6)
C27 C 1.0606(3) 0.7701(2) 0.05907(8)
H21 H 1.1596 0.7499 0.0545
C28 C 0.9928(4) 0.7337(2) 0.09256(9)
H22 H 1.0456 0.6892 0.1107
C29 C 0.8433(3) 0.7622(2) 0.10033(7)
C30 C 0.7691(5) 0.7287(3) 0.13568(9)
H23 H 0.8203 0.6859 0.1546
C31 C 0.6253(6) 0.7577(3) 0.14243(10)
H24 H 0.5792 0.7350 0.1659
C32 C 0.5446(4) 0.8219(3) 0.11440(10)
H25 H 0.4453 0.8406 0.1193
C33 C 0.6118(3) 0.8572(2) 0.07972(8)
H26 H 0.5583 0.9000 0.0613
C34 C 0.7623(3) 0.82830(18) 0.07224(6)
C35 C 0.8395(2) 0.86513(16) 0.03775(6)
C36 C 1.1598(2) 0.98867(17) 0.00567(6)
C37 C 1.3114(2) 0.9894(2) -0.00252(6)
H27 H 1.3545 0.9264 -0.0149
C38 C 1.3994(2) 1.0822(2) 0.00738(8)
H28 H 1.5011 1.0810 0.0018
C39 C 1.3371(2) 1.1764(2) 0.02543(7)
H29 H 1.3963 1.2390 0.0320
C40 C 1.1858(2) 1.17750(19) 0.03370(7)
H30 H 1.1428 1.2410 0.0458
C41 C 1.0991(2) 1.08447(18) 0.02395(6)
H31 H 0.9976 1.0858 0.0297
C42 C 1.0142(2) 0.9719(2) -0.07409(6)
H32 H 1.0310 1.0514 -0.0671
H33 H 1.1104 0.9382 -0.0804
C43 C 0.9174(3) 0.9675(2) -0.11066(7)
C44 C 0.9596(5) 1.0468(4) -0.14327(12)
H34 H 0.9097 1.0244 -0.1673
H35 H 1.0657 1.0438 -0.1473
H36 H 0.9309 1.1234 -0.1363
loop_
_geom_bond_atom_site_label_1
_geom_bond_atom_site_label_2
_geom_bond_site_symmetry_1
_geom_bond_site_symmetry_2
O1 C1 1_555 1_555
O2 C1 1_555 1_555
O3 C21 1_555 1_555
C1 C2 1_555 1_555
C2 H1 1_555 1_555
C3 C2 1_555 1_555
H2 C3 1_555 1_555
C4 C3 1_555 1_555
C5 C4 1_555 1_555
H3 C5 1_555 1_555
C6 C5 1_555 1_555
H4 C6 1_555 1_555
C7 C6 1_555 1_555
C8 C7 1_555 1_555
H5 C8 1_555 1_555
C9 C8 1_555 1_555
H6 C9 1_555 1_555
C10 C9 1_555 1_555
H7 C10 1_555 1_555
C11 C10 1_555 1_555
H8 C11 1_555 1_555
C12 C7 1_555 1_555
C13 O2 1_555 1_555
C14 C3 1_555 1_555
C15 C14 1_555 1_555
H9 C15 1_555 1_555
C16 C15 1_555 1_555
H10 C16 1_555 1_555
C17 C16 1_555 1_555
H11 C17 1_555 1_555
C18 C17 1_555 1_555
H12 C18 1_555 1_555
C19 C14 1_555 1_555
H13 C19 1_555 1_555
C20 C2 1_555 1_555
H14 C20 1_555 1_555
H15 C20 1_555 1_555
C21 C20 1_555 1_555
C22 C21 1_555 1_555
H16 C22 1_555 1_555
H17 C22 1_555 1_555
H18 C22 1_555 1_555
O4 C23 1_555 1_555
O5 C23 1_555 1_555
O6 C43 1_555 1_555
C23 C24 1_555 1_555
C24 H19 1_555 1_555
C25 C24 1_555 1_555
H20 C25 1_555 1_555
C26 C25 1_555 1_555
C27 C26 1_555 1_555
H21 C27 1_555 1_555
C28 C27 1_555 1_555
H22 C28 1_555 1_555
C29 C28 1_555 1_555
C30 C29 1_555 1_555
H23 C30 1_555 1_555
C31 C30 1_555 1_555
H24 C31 1_555 1_555
C32 C31 1_555 1_555
H25 C32 1_555 1_555
C33 C32 1_555 1_555
H26 C33 1_555 1_555
C34 C29 1_555 1_555
C35 O5 1_555 1_555
C36 C25 1_555 1_555
C37 C36 1_555 1_555
H27 C37 1_555 1_555
C38 C37 1_555 1_555
H28 C38 1_555 1_555
C39 C38 1_555 1_555
H29 C39 1_555 1_555
C40 C39 1_555 1_555
H30 C40 1_555 1_555
C41 C36 1_555 1_555
H31 C41 1_555 1_555
C42 C24 1_555 1_555
H32 C42 1_555 1_555
H33 C42 1_555 1_555
C43 C42 1_555 1_555
C44 C43 1_555 1_555
H34 C44 1_555 1_555
H35 C44 1_555 1_555
H36 C44 1_555 1_555
C4 C13 1_555 1_555
C11 C12 1_555 1_555
C12 C13 1_555 1_555
C18 C19 1_555 1_555
C26 C35 1_555 1_555
C33 C34 1_555 1_555
C34 C35 1_555 1_555
C40 C41 1_555 1_555

#END
