
#######################################################################
#
#                 Cambridge Crystallographic Data Centre
#                                CCDC 
#
#######################################################################
#
# If this CIF has been generated from an entry in the Cambridge 
# Structural Database, then it will include bibliographic, chemical, 
# crystal, experimental, refinement or atomic coordinate data resulting 
# from the CCDC's data processing and validation procedures.
#
#######################################################################

data_HARSAX
_chemical_formula_moiety         'C19 H15 I1 N1 O1 P1'
_chemical_name_systematic        
'2-iodo-5-methyl-6-phenyl-5,6-dihydrodibenzo[c,e][1,2]azaphosphinine 6-oxide'
_symmetry_cell_setting           monoclinic
_symmetry_space_group_name_H-M   'P 21'
_symmetry_Int_Tables_number      4
_space_group_name_Hall           'P 2yb'
loop_
_symmetry_equiv_pos_site_id
_symmetry_equiv_pos_as_xyz
1 x,y,z
2 -x,1/2+y,-z
_cell_length_a                   7.3476(3)
_cell_length_b                   24.0907(4)
_cell_length_c                   9.5252(3)
_cell_angle_alpha                90
_cell_angle_beta                 90.084(3)
_cell_angle_gamma                90
_cell_volume                     1686.04
_exptl_crystal_colour            'light brown'
_exptl_crystal_description       block
_cell_formula_units_Z            4
loop_
_atom_site_label
_atom_site_type_symbol
_atom_site_fract_x
_atom_site_fract_y
_atom_site_fract_z
I1 I 0.66952(7) 0.923821(12) 0.31109(4)
P1 P 0.57011(19) 0.64815(5) 0.62496(12)
O1 O 0.3753(5) 0.64065(15) 0.6489(4)
N1 N 0.6548(6) 0.70894(14) 0.6808(4)
C1 C 0.6724(7) 0.75549(18) 0.5940(5)
C2 C 0.6910(8) 0.8077(2) 0.6535(5)
H1 H 0.7006 0.8106 0.7507
C3 C 0.6959(8) 0.8554(2) 0.5750(6)
H2 H 0.7063 0.8899 0.6178
C4 C 0.6850(8) 0.8507(2) 0.4303(6)
C5 C 0.6768(6) 0.7999(2) 0.3670(5)
H3 H 0.6730 0.7979 0.2695
C6 C 0.6740(7) 0.75083(18) 0.4447(5)
C7 C 0.6746(7) 0.6970(2) 0.3723(5)
C8 C 0.7122(7) 0.6921(2) 0.2296(5)
H4 H 0.7322 0.7240 0.1768
C9 C 0.7203(8) 0.6410(2) 0.1652(5)
H5 H 0.7449 0.6391 0.0696
C10 C 0.6928(8) 0.5926(2) 0.2392(5)
H6 H 0.7013 0.5583 0.1949
C11 C 0.6526(8) 0.5960(2) 0.3797(5)
H7 H 0.6328 0.5636 0.4308
C12 C 0.6413(6) 0.64757(18) 0.4467(4)
C13 C 0.6318(8) 0.7178(2) 0.8334(5)
H8 H 0.5413 0.7458 0.8489
H9 H 0.7454 0.7295 0.8735
H10 H 0.5938 0.6837 0.8767
C14 C 0.7017(8) 0.59627(18) 0.7164(5)
C15 C 0.8894(8) 0.5931(2) 0.7002(5)
H11 H 0.9497 0.6192 0.6453
C16 C 0.9861(9) 0.5513(2) 0.7653(6)
H12 H 1.1109 0.5482 0.7508
C17 C 0.9001(11) 0.5149(2) 0.8500(7)
H13 H 0.9671 0.4878 0.8965
C18 C 0.7152(12) 0.5173(3) 0.8685(6)
H14 H 0.6581 0.4914 0.9259
C19 C 0.6122(10) 0.5581(2) 0.8023(6)
H15 H 0.4869 0.5600 0.8150
I2 I 0.18840(6) 0.528140(14) 0.37883(4)
P2 P 0.06910(18) 0.80077(5) 0.04654(12)
O2 O -0.1270(5) 0.80978(14) 0.0200(3)
N2 N 0.1510(6) 0.73997(16) -0.0063(4)
C20 C 0.1690(7) 0.69337(18) 0.0830(5)
C21 C 0.1866(8) 0.6410(2) 0.0242(5)
H16 H 0.1940 0.6376 -0.0729
C22 C 0.1933(8) 0.5934(2) 0.1069(5)
H17 H 0.2006 0.5585 0.0657
C23 C 0.1890(7) 0.5989(2) 0.2501(6)
C24 C 0.1805(7) 0.6505(2) 0.3118(5)
H18 H 0.1792 0.6531 0.4092
C25 C 0.1737(7) 0.69946(18) 0.2311(5)
C26 C 0.1727(6) 0.7541(2) 0.3014(4)
C27 C 0.2105(8) 0.7600(2) 0.4454(5)
H19 H 0.2323 0.7286 0.4994
C28 C 0.2157(8) 0.8112(2) 0.5077(5)
H20 H 0.2409 0.8139 0.6031
C29 C 0.1841(8) 0.8589(2) 0.4308(5)
H21 H 0.1899 0.8935 0.4735
C30 C 0.1443(8) 0.8544(2) 0.2911(5)
H22 H 0.1221 0.8863 0.2389
C31 C 0.1366(7) 0.80279(19) 0.2258(4)
C32 C 0.2040(7) 0.85190(19) -0.0440(5)
C33 C 0.3920(8) 0.8549(2) -0.0248(5)
H23 H 0.4495 0.8298 0.0350
C34 C 0.4926(9) 0.8944(2) -0.0934(6)
H24 H 0.6177 0.8964 -0.0791
C35 C 0.4077(10) 0.9313(2) -0.1843(6)
H25 H 0.4765 0.9578 -0.2316
C36 C 0.2233(10) 0.9290(3) -0.2046(6)
H26 H 0.1668 0.9541 -0.2647
C37 C 0.1206(9) 0.8890(2) -0.1349(5)
H27 H -0.0045 0.8871 -0.1494
C38 C 0.1351(8) 0.7294(2) -0.1596(5)
H28 H 0.0306 0.7065 -0.1774
H29 H 0.2426 0.7108 -0.1922
H30 H 0.1217 0.7641 -0.2083
loop_
_geom_bond_atom_site_label_1
_geom_bond_atom_site_label_2
_geom_bond_site_symmetry_1
_geom_bond_site_symmetry_2
I1 C4 1_555 1_555
P1 O1 1_555 1_555
N1 P1 1_555 1_555
C1 N1 1_555 1_555
C2 C1 1_555 1_555
H1 C2 1_555 1_555
C3 C2 1_555 1_555
H2 C3 1_555 1_555
C4 C3 1_555 1_555
C5 C4 1_555 1_555
H3 C5 1_555 1_555
C6 C1 1_555 1_555
C7 C6 1_555 1_555
C8 C7 1_555 1_555
H4 C8 1_555 1_555
C9 C8 1_555 1_555
H5 C9 1_555 1_555
C10 C9 1_555 1_555
H6 C10 1_555 1_555
C11 C10 1_555 1_555
H7 C11 1_555 1_555
C12 P1 1_555 1_555
C13 N1 1_555 1_555
H8 C13 1_555 1_555
H9 C13 1_555 1_555
H10 C13 1_555 1_555
C14 P1 1_555 1_555
C15 C14 1_555 1_555
H11 C15 1_555 1_555
C16 C15 1_555 1_555
H12 C16 1_555 1_555
C17 C16 1_555 1_555
H13 C17 1_555 1_555
C18 C17 1_555 1_555
H14 C18 1_555 1_555
C19 C14 1_555 1_555
H15 C19 1_555 1_555
I2 C23 1_555 1_555
P2 O2 1_555 1_555
N2 P2 1_555 1_555
C20 N2 1_555 1_555
C21 C20 1_555 1_555
H16 C21 1_555 1_555
C22 C21 1_555 1_555
H17 C22 1_555 1_555
C23 C22 1_555 1_555
C24 C23 1_555 1_555
H18 C24 1_555 1_555
C25 C20 1_555 1_555
C26 C25 1_555 1_555
C27 C26 1_555 1_555
H19 C27 1_555 1_555
C28 C27 1_555 1_555
H20 C28 1_555 1_555
C29 C28 1_555 1_555
H21 C29 1_555 1_555
C30 C29 1_555 1_555
H22 C30 1_555 1_555
C31 P2 1_555 1_555
C32 P2 1_555 1_555
C33 C32 1_555 1_555
H23 C33 1_555 1_555
C34 C33 1_555 1_555
H24 C34 1_555 1_555
C35 C34 1_555 1_555
H25 C35 1_555 1_555
C36 C35 1_555 1_555
H26 C36 1_555 1_555
C37 C32 1_555 1_555
H27 C37 1_555 1_555
C38 N2 1_555 1_555
H28 C38 1_555 1_555
H29 C38 1_555 1_555
H30 C38 1_555 1_555
C5 C6 1_555 1_555
C7 C12 1_555 1_555
C11 C12 1_555 1_555
C18 C19 1_555 1_555
C24 C25 1_555 1_555
C26 C31 1_555 1_555
C30 C31 1_555 1_555
C36 C37 1_555 1_555

#END
