
#######################################################################
#
#                 Cambridge Crystallographic Data Centre
#                                CCDC 
#
#######################################################################
#
# If this CIF has been generated from an entry in the Cambridge 
# Structural Database, then it will include bibliographic, chemical, 
# crystal, experimental, refinement or atomic coordinate data resulting 
# from the CCDC's data processing and validation procedures.
#
#######################################################################

data_HASVIG
_chemical_formula_moiety         'C22 H38 O3'
_chemical_name_systematic        
15-Acetoxy-4,4,8-trimethyl-16,17-dinorandrostan-3-ol
_symmetry_cell_setting           monoclinic
_symmetry_space_group_name_H-M   'C 2/c'
_symmetry_Int_Tables_number      15
_space_group_name_Hall           '-C 2yn'
loop_
_symmetry_equiv_pos_site_id
_symmetry_equiv_pos_as_xyz
1 x,y,z
2 1/2+x,1/2+y,z
3 -x,y,1/2-z
4 1/2-x,1/2+y,1/2-z
5 -x,-y,-z
6 1/2-x,1/2-y,-z
7 x,-y,1/2+z
8 1/2+x,1/2-y,1/2+z
_cell_length_a                   50.703(9)
_cell_length_b                   7.349(1)
_cell_length_c                   10.896(1)
_cell_angle_alpha                90
_cell_angle_beta                 95.99(2)
_cell_angle_gamma                90
_cell_volume                     4037.86
_exptl_crystal_colour            colorless
_cell_formula_units_Z            8
loop_
_atom_site_label
_atom_site_type_symbol
_atom_site_fract_x
_atom_site_fract_y
_atom_site_fract_z
O1 O 0.0097(1) 0.0478(6) 0.8833(4)
O2 O 0.1986(1) 0.3456(4) 1.2011(3)
O3 O 0.2172(2) 0.6114(8) 1.1813(7)
C1 C 0.0812(1) -0.0803(4) 0.8671(3)
C2 C 0.0511(1) -0.0724(5) 0.8328(3)
C3 C 0.0381(1) 0.0553(5) 0.9148(3)
C4 C 0.0489(1) 0.2515(4) 0.9155(3)
C5 C 0.0793(1) 0.2396(4) 0.9471(3)
C6 C 0.0933(1) 0.4232(4) 0.9625(4)
C7 C 0.1212(1) 0.4026(5) 1.0286(3)
C8 C 0.1393(1) 0.2731(4) 0.9644(3)
C9 C 0.1234(1) 0.0924(4) 0.9363(3)
C10 C 0.0947(1) 0.1092(4) 0.8670(3)
C11 C 0.1416(1) -0.0523(5) 0.8845(4)
C12 C 0.1648(1) -0.0994(6) 0.9784(6)
C13 C 0.1821(1) 0.0662(6) 1.0172(5)
C14 C 0.1643(1) 0.2242(5) 1.0563(3)
C15 C 0.1474(1) 0.3704(6) 0.8483(4)
C16 C 0.0400(1) 0.3479(7) 0.7914(4)
C17 C 0.0368(1) 0.3560(6) 1.0164(4)
C18 C 0.1806(1) 0.3933(6) 1.0854(4)
C19 C 0.0952(1) 0.1677(6) 0.7321(3)
C20 C 0.2014(1) 0.1105(9) 0.9257(7)
C21 C 0.2351(2) 0.408(1) 1.3447(8)
C22 C 0.2176(1) 0.4646(8) 1.2330(5)
H1 H -0.009(2) 0.07(1) 0.808(9)
H3 H 0.0875(8) -0.164(5) 0.814(4)
H4 H 0.086(1) -0.130(6) 0.970(5)
H5 H 0.0463(6) -0.201(5) 0.839(3)
H6 H 0.0449(6) -0.035(4) 0.738(3)
H7 H 0.0424(7) 0.007(5) 1.008(3)
H8 H 0.0811(7) 0.169(5) 1.032(3)
H9 H 0.0920(9) 0.495(6) 0.890(5)
H10 H 0.0859(9) 0.517(7) 1.011(4)
H11 H 0.1206(8) 0.367(6) 1.108(4)
H12 H 0.1285(7) 0.541(5) 1.037(3)
H13 H 0.1232(6) 0.061(4) 1.026(3)
H14 H 0.1311(8) -0.163(6) 0.855(4)
H15 H 0.1449(9) -0.012(6) 0.791(4)
H16 H 0.174(1) -0.209(8) 0.955(5)
H17 H 0.161(1) -0.152(7) 1.054(5)
H18 H 0.198(1) 0.038(7) 1.099(5)
H19 H 0.1571(8) 0.174(6) 1.145(4)
H20 H 0.1487(8) 0.285(6) 0.791(4)
H21 H 0.1343(9) 0.452(6) 0.801(4)
H22 H 0.160(1) 0.465(8) 0.862(5)
H23 H 0.0425(8) 0.279(5) 0.726(4)
H24 H 0.0504(8) 0.471(6) 0.791(4)
H25 H 0.023(1) 0.370(6) 0.798(4)
H26 H 0.0446(8) 0.317(6) 1.118(4)
H27 H 0.014(1) 0.351(7) 1.010(5)
H28 H 0.0373(8) 0.484(6) 1.004(4)
H29 H 0.1894(8) 0.431(5) 1.032(4)
H30 H 0.1702(7) 0.507(5) 1.130(3)
H31 H 0.0969(9) 0.312(7) 0.714(4)
H32 H 0.109(1) 0.093(8) 0.687(6)
H33 H 0.081(1) 0.124(6) 0.686(5)
H34 H 0.213(1) -0.026 0.928(6)
H35 H 0.187(1) 0.085(6) 0.844(5)
H36 H 0.217(1) 0.210(8) 0.950(5)
H37 H 0.224(2) 0.40(2) 1.42(1)
H38 H 0.244(2) 0.50(1) 1.374(8)
H39 H 0.243(1) 0.318(9) 1.342(6)
O4? O 0.2314(5) 0.500(5) 1.155(2)
H2? H 0.009(2) 0.02(1) 0.926(7)
loop_
_geom_bond_atom_site_label_1
_geom_bond_atom_site_label_2
_geom_bond_site_symmetry_1
_geom_bond_site_symmetry_2
O1 C3 1_555 1_555
O2 C18 1_555 1_555
O3 C22 1_555 1_555
C1 C2 1_555 1_555
C2 C3 1_555 1_555
C3 C4 1_555 1_555
C4 C5 1_555 1_555
C5 C6 1_555 1_555
C6 C7 1_555 1_555
C7 C8 1_555 1_555
C8 C9 1_555 1_555
C9 C10 1_555 1_555
C10 C1 1_555 1_555
C11 C9 1_555 1_555
C12 C11 1_555 1_555
C13 C12 1_555 1_555
C14 C8 1_555 1_555
C15 C8 1_555 1_555
C16 C4 1_555 1_555
C17 C4 1_555 1_555
C18 C14 1_555 1_555
C19 C10 1_555 1_555
C20 C13 1_555 1_555
C21 C22 1_555 1_555
C22 O2 1_555 1_555
H1 O1 1_555 1_555
H3 C1 1_555 1_555
H4 C1 1_555 1_555
H5 C2 1_555 1_555
H6 C2 1_555 1_555
H7 C3 1_555 1_555
H8 C5 1_555 1_555
H9 C6 1_555 1_555
H10 C6 1_555 1_555
H11 C7 1_555 1_555
H12 C7 1_555 1_555
H13 C9 1_555 1_555
H14 C11 1_555 1_555
H15 C11 1_555 1_555
H16 C12 1_555 1_555
H17 C12 1_555 1_555
H18 C13 1_555 1_555
H19 C14 1_555 1_555
H20 C15 1_555 1_555
H21 C15 1_555 1_555
H22 C15 1_555 1_555
H23 C16 1_555 1_555
H24 C16 1_555 1_555
H25 C16 1_555 1_555
H26 C17 1_555 1_555
H27 C17 1_555 1_555
H28 C17 1_555 1_555
H29 C18 1_555 1_555
H30 C18 1_555 1_555
H31 C19 1_555 1_555
H32 C19 1_555 1_555
H33 C19 1_555 1_555
H34 C20 1_555 1_555
H35 C20 1_555 1_555
H36 C20 1_555 1_555
H37 C21 1_555 1_555
H38 C21 1_555 1_555
H39 C21 1_555 1_555
C5 C10 1_555 1_555
C13 C14 1_555 1_555

#END
