
#######################################################################
#
#                 Cambridge Crystallographic Data Centre
#                                CCDC 
#
#######################################################################
#
# If this CIF has been generated from an entry in the Cambridge 
# Structural Database, then it will include bibliographic, chemical, 
# crystal, experimental, refinement or atomic coordinate data resulting 
# from the CCDC's data processing and validation procedures.
#
#######################################################################

data_HASXUW
_chemical_formula_moiety         'C42 H50 N6'
_chemical_name_systematic        
1^3^,1^4^,2^3^,2^4^,4^3^,4^4^,5^3^,5^4^-octaethyl-1,2,4,5(2,5)-tetrapyrrola-3,6(2,6)-dipyridinacyclohexaphane
_symmetry_cell_setting           triclinic
_symmetry_space_group_name_H-M   'P -1'
_symmetry_Int_Tables_number      2
_space_group_name_Hall           '-P 1'
loop_
_symmetry_equiv_pos_site_id
_symmetry_equiv_pos_as_xyz
1 x,y,z
2 -x,-y,-z
_cell_length_a                   11.1110(6)
_cell_length_b                   11.6920(6)
_cell_length_c                   15.2140(8)
_cell_angle_alpha                76.9390(10)
_cell_angle_beta                 83.6400(10)
_cell_angle_gamma                62.3720(10)
_cell_volume                     1705.75
_exptl_crystal_colour            yellow
_exptl_crystal_description       prism
_cell_formula_units_Z            2
loop_
_atom_site_label
_atom_site_type_symbol
_atom_site_fract_x
_atom_site_fract_y
_atom_site_fract_z
C1 C 0.54939(13) 0.08342(13) 0.26814(9)
C2 C 0.48913(14) 0.10894(13) 0.18588(9)
C3 C 0.34575(14) 0.16850(13) 0.19983(9)
C4 C 0.32214(13) 0.17733(13) 0.29011(9)
C5 C 0.20220(13) 0.21633(13) 0.34832(9)
C6 C 0.07095(14) 0.30378(13) 0.31660(9)
H1 H 0.0549 0.3400 0.2540
C7 C -0.03444(14) 0.33625(13) 0.37803(10)
H2 H -0.1238 0.3985 0.3583
C8 C -0.01070(13) 0.27860(13) 0.46847(9)
H3 H -0.0830 0.2998 0.5113
C9 C 0.12231(13) 0.18828(13) 0.49542(9)
C10 C 0.15963(13) 0.11539(13) 0.58761(9)
C11 C 0.08955(13) 0.08175(13) 0.66204(9)
C12 C 0.18666(13) 0.00018(13) 0.73125(9)
C13 C 0.31249(13) -0.01161(13) 0.69813(8)
C14 C 0.55983(15) 0.06883(15) 0.09992(9)
H4 H 0.5173 0.0233 0.0771
H5 H 0.6558 0.0048 0.1137
C15 C 0.55642(17) 0.18253(17) 0.02516(10)
H6 H 0.4619 0.2455 0.0096
H7 H 0.6045 0.1480 -0.0283
H8 H 0.6007 0.2269 0.0462
C16 C 0.24423(15) 0.19742(15) 0.13010(9)
H9 H 0.2869 0.2018 0.0696
H10 H 0.1662 0.2848 0.1316
C17 C 0.19229(18) 0.09490(17) 0.14432(11)
H11 H 0.2691 0.0078 0.1440
H12 H 0.1297 0.1168 0.0957
H13 H 0.1446 0.0941 0.2025
C18 C -0.05848(13) 0.11387(14) 0.66910(9)
H14 H -0.1136 0.2102 0.6501
H15 H -0.0810 0.0887 0.7330
C19 C -0.09724(14) 0.04442(14) 0.61191(10)
H16 H -0.0849 0.0763 0.5479
H17 H -0.1925 0.0632 0.6234
H18 H -0.0392 -0.0508 0.6277
C20 C 0.16067(14) -0.07269(14) 0.81935(9)
H19 H 0.2490 -0.1419 0.8454
H20 H 0.1087 -0.1173 0.8078
C21 C 0.08310(16) 0.01240(16) 0.88906(10)
H21 H 0.1302 0.0618 0.8982
H22 H 0.0784 -0.0441 0.9463
H23 H -0.0091 0.0741 0.8674
N1 N 0.44632(11) 0.12550(11) 0.32927(7)
H47 H 0.4583 0.1199 0.3866
N2 N 0.22725(11) 0.16172(11) 0.43629(7)
N3 N 0.29362(11) 0.05682(11) 0.61087(7)
H48 H 0.3589 0.0624 0.5746
C1A C 0.45061(13) -0.08342(13) 0.73186(9)
C2A C 0.51087(14) -0.10894(13) 0.81412(9)
C3A C 0.65425(14) -0.16850(13) 0.80017(9)
C4A C 0.67786(13) -0.17733(13) 0.70989(9)
C5A C 0.79780(13) -0.21633(13) 0.65168(9)
C6A C 0.92905(14) -0.30378(13) 0.68340(9)
H1A H 0.9451 -0.3400 0.7460
C7A C 1.03444(14) -0.33625(13) 0.62197(10)
H2A H 1.1238 -0.3985 0.6417
C8A C 1.01070(13) -0.27860(13) 0.53153(9)
H3A H 1.0830 -0.2998 0.4887
C9A C 0.87769(13) -0.18828(13) 0.50458(9)
C10A C 0.84037(13) -0.11539(13) 0.41239(9)
C11A C 0.91045(13) -0.08175(13) 0.33796(9)
C12A C 0.81334(13) -0.00018(13) 0.26875(9)
C13A C 0.68751(13) 0.01161(13) 0.30187(8)
C14A C 0.44017(15) -0.06883(15) 0.90008(9)
H4A H 0.4827 -0.0233 0.9229
H5A H 0.3442 -0.0048 0.8863
C15A C 0.44358(17) -0.18253(17) 0.97484(10)
H6A H 0.5381 -0.2455 0.9904
H7A H 0.3955 -0.1480 1.0283
H8A H 0.3993 -0.2269 0.9538
C16A C 0.75577(15) -0.19742(15) 0.86990(9)
H9A H 0.7131 -0.2018 0.9304
H10A H 0.8338 -0.2848 0.8684
C17A C 0.80771(18) -0.09490(17) 0.85568(11)
H11A H 0.7309 -0.0078 0.8560
H12A H 0.8703 -0.1168 0.9043
H13A H 0.8554 -0.0941 0.7975
C18A C 1.05848(13) -0.11387(14) 0.33090(9)
H14A H 1.1136 -0.2102 0.3499
H15A H 1.0810 -0.0887 0.2670
C19A C 1.09724(14) -0.04442(14) 0.38809(10)
H16A H 1.0849 -0.0763 0.4521
H17A H 1.1925 -0.0632 0.3766
H18A H 1.0392 0.0508 0.3723
C20A C 0.83933(14) 0.07269(14) 0.18065(9)
H19A H 0.7510 0.1419 0.1546
H20A H 0.8913 0.1173 0.1922
C21A C 0.91690(16) -0.01240(16) 0.11094(10)
H21A H 0.8698 -0.0618 0.1018
H22A H 0.9216 0.0441 0.0537
H23A H 1.0091 -0.0741 0.1326
N1A N 0.55368(11) -0.12550(11) 0.67073(7)
H47A H 0.5417 -0.1199 0.6134
N2A N 0.77275(11) -0.16172(11) 0.56371(7)
N3A N 0.70638(11) -0.05682(11) 0.38913(7)
H48A H 0.6411 -0.0624 0.4254
C22 C 0.23262(13) 0.50967(13) 0.32814(8)
C23 C 0.36152(13) 0.50143(13) 0.31040(9)
C24 C 0.44023(13) 0.42744(13) 0.38999(9)
C25 C 0.35673(13) 0.39411(13) 0.45413(9)
C26 C 0.37148(13) 0.33049(13) 0.54917(9)
C27 C 0.49676(14) 0.25106(14) 0.59208(10)
H24 H 0.5793 0.2312 0.5589
C28 C 0.49799(14) 0.20204(14) 0.68380(10)
H25 H 0.5820 0.1474 0.7142
C29 C 0.37752(14) 0.23222(13) 0.73122(9)
H26 H 0.3773 0.2017 0.7946
C30 C 0.25595(13) 0.30859(12) 0.68402(9)
C31 C 0.12209(13) 0.34490(12) 0.72665(9)
C32 C 0.07235(13) 0.35653(13) 0.81364(9)
C33 C -0.07116(13) 0.40855(13) 0.81077(9)
C34 C -0.10586(13) 0.42733(13) 0.72171(9)
C35 C 0.40699(15) 0.56618(15) 0.22615(10)
H27 H 0.4496 0.6159 0.2432
H28 H 0.3259 0.6305 0.1896
C36 C 0.50747(16) 0.47186(18) 0.16757(11)
H29 H 0.5963 0.4223 0.1970
H30 H 0.5163 0.5223 0.1085
H31 H 0.4742 0.4105 0.1596
C37 C 0.58588(13) 0.39571(14) 0.40060(10)
H32 H 0.5994 0.4004 0.4627
H33 H 0.6058 0.4628 0.3583
C38 C 0.68563(14) 0.25919(14) 0.38266(11)
H34 H 0.6664 0.1922 0.4243
H35 H 0.7787 0.2426 0.3918
H36 H 0.6757 0.2552 0.3204
C39 C 0.15034(14) 0.33700(14) 0.89499(9)
H37 H 0.2301 0.2491 0.9031
H38 H 0.0918 0.3394 0.9493
C40 C 0.19826(16) 0.44162(16) 0.88660(10)
H39 H 0.2572 0.4389 0.8334
H40 H 0.2490 0.4246 0.9407
H41 H 0.1194 0.5287 0.8803
C41 C -0.16563(14) 0.44832(14) 0.88884(9)
H42 H -0.2582 0.5089 0.8652
H43 H -0.1371 0.4976 0.9198
C42 C -0.17162(16) 0.33369(15) 0.95819(9)
H44 H -0.1991 0.2836 0.9283
H45 H -0.2378 0.3681 1.0055
H46 H -0.0818 0.2760 0.9851
N4 N 0.23219(11) 0.44601(11) 0.41551(7)
H49 H 0.1611 0.4394 0.4431
N5 N 0.25343(11) 0.35523(11) 0.59442(7)
N6 N 0.01268(11) 0.38838(11) 0.67282(7)
H50 H 0.0177 0.3910 0.6143
C22A C -0.23262(13) 0.49033(13) 0.67186(8)
C23A C -0.36152(13) 0.49857(13) 0.68960(9)
C24A C -0.44023(13) 0.57256(13) 0.61001(9)
C25A C -0.35673(13) 0.60589(13) 0.54587(9)
C26A C -0.37148(13) 0.66951(13) 0.45083(9)
C27A C -0.49676(14) 0.74894(14) 0.40792(10)
H24A H -0.5793 0.7688 0.4411
C28A C -0.49799(14) 0.79796(14) 0.31620(10)
H25A H -0.5820 0.8526 0.2858
C29A C -0.37752(14) 0.76778(13) 0.26878(9)
H26A H -0.3773 0.7983 0.2054
C30A C -0.25595(13) 0.69141(12) 0.31598(9)
C31A C -0.12209(13) 0.65510(12) 0.27335(9)
C32A C -0.07235(13) 0.64347(13) 0.18636(9)
C33A C 0.07116(13) 0.59145(13) 0.18923(9)
C34A C 0.10586(13) 0.57267(13) 0.27829(9)
C35A C -0.40699(15) 0.43382(15) 0.77385(10)
H27A H -0.4496 0.3841 0.7568
H28A H -0.3259 0.3695 0.8104
C36A C -0.50747(16) 0.52814(18) 0.83243(11)
H29A H -0.5963 0.5777 0.8030
H30A H -0.5163 0.4777 0.8915
H31A H -0.4742 0.5895 0.8404
C37A C -0.58588(13) 0.60429(14) 0.59940(10)
H32A H -0.5994 0.5996 0.5373
H33A H -0.6058 0.5372 0.6417
C38A C -0.68563(14) 0.74081(14) 0.61734(11)
H34A H -0.6664 0.8078 0.5757
H35A H -0.7787 0.7574 0.6082
H36A H -0.6757 0.7448 0.6796
C39A C -0.15034(14) 0.66300(14) 0.10501(9)
H37A H -0.2301 0.7509 0.0969
H38A H -0.0918 0.6606 0.0507
C40A C -0.19826(16) 0.55838(16) 0.11340(10)
H39A H -0.2572 0.5611 0.1666
H40A H -0.2490 0.5754 0.0593
H41A H -0.1194 0.4713 0.1197
C41A C 0.16563(14) 0.55168(14) 0.11116(9)
H42A H 0.2582 0.4911 0.1348
H43A H 0.1371 0.5024 0.0802
C42A C 0.17162(16) 0.66631(15) 0.04181(9)
H44A H 0.1991 0.7164 0.0717
H45A H 0.2378 0.6319 -0.0055
H46A H 0.0818 0.7240 0.0149
N4A N -0.23219(11) 0.55399(11) 0.58449(7)
H49A H -0.1611 0.5606 0.5569
N5A N -0.25343(11) 0.64477(11) 0.40558(7)
N6A N -0.01268(11) 0.61162(11) 0.32718(7)
H50A H -0.0177 0.6090 0.3857
loop_
_geom_bond_atom_site_label_1
_geom_bond_atom_site_label_2
_geom_bond_site_symmetry_1
_geom_bond_site_symmetry_2
C1 C2 1_555 1_555
C2 C3 1_555 1_555
C3 C4 1_555 1_555
C4 C5 1_555 1_555
C5 C6 1_555 1_555
C6 H1 1_555 1_555
C7 C6 1_555 1_555
H2 C7 1_555 1_555
C8 C7 1_555 1_555
H3 C8 1_555 1_555
C9 C8 1_555 1_555
C10 C9 1_555 1_555
C11 C10 1_555 1_555
C12 C11 1_555 1_555
C13 C12 1_555 1_555
C14 C2 1_555 1_555
H4 C14 1_555 1_555
H5 C14 1_555 1_555
C15 C14 1_555 1_555
H6 C15 1_555 1_555
H7 C15 1_555 1_555
H8 C15 1_555 1_555
C16 C3 1_555 1_555
H9 C16 1_555 1_555
H10 C16 1_555 1_555
C17 C16 1_555 1_555
H11 C17 1_555 1_555
H12 C17 1_555 1_555
H13 C17 1_555 1_555
C18 C11 1_555 1_555
H14 C18 1_555 1_555
H15 C18 1_555 1_555
C19 C18 1_555 1_555
H16 C19 1_555 1_555
H17 C19 1_555 1_555
H18 C19 1_555 1_555
C20 C12 1_555 1_555
H19 C20 1_555 1_555
H20 C20 1_555 1_555
C21 C20 1_555 1_555
H21 C21 1_555 1_555
H22 C21 1_555 1_555
H23 C21 1_555 1_555
C22 C23 1_555 1_555
C23 C24 1_555 1_555
C24 C25 1_555 1_555
C25 C26 1_555 1_555
C26 C27 1_555 1_555
C27 H24 1_555 1_555
C28 C27 1_555 1_555
H25 C28 1_555 1_555
C29 C28 1_555 1_555
H26 C29 1_555 1_555
C30 C29 1_555 1_555
C31 C30 1_555 1_555
C32 C31 1_555 1_555
C33 C32 1_555 1_555
C34 C33 1_555 1_555
C35 C23 1_555 1_555
H27 C35 1_555 1_555
H28 C35 1_555 1_555
C36 C35 1_555 1_555
H29 C36 1_555 1_555
H30 C36 1_555 1_555
H31 C36 1_555 1_555
C37 C24 1_555 1_555
H32 C37 1_555 1_555
H33 C37 1_555 1_555
C38 C37 1_555 1_555
H34 C38 1_555 1_555
H35 C38 1_555 1_555
H36 C38 1_555 1_555
C39 C32 1_555 1_555
H37 C39 1_555 1_555
H38 C39 1_555 1_555
C40 C39 1_555 1_555
H39 C40 1_555 1_555
H40 C40 1_555 1_555
H41 C40 1_555 1_555
C41 C33 1_555 1_555
H42 C41 1_555 1_555
H43 C41 1_555 1_555
C42 C41 1_555 1_555
H44 C42 1_555 1_555
H45 C42 1_555 1_555
H46 C42 1_555 1_555
N1 C1 1_555 1_555
H47 N1 1_555 1_555
N2 C5 1_555 1_555
N3 C10 1_555 1_555
H48 N3 1_555 1_555
N4 C22 1_555 1_555
H49 N4 1_555 1_555
N5 C26 1_555 1_555
N6 C31 1_555 1_555
H50 N6 1_555 1_555
C1A C13 1_555 1_555
C2A C1A 1_555 1_555
C3A C2A 1_555 1_555
C4A C3A 1_555 1_555
C5A C4A 1_555 1_555
C6A C5A 1_555 1_555
H1A C6A 1_555 1_555
C7A C6A 1_555 1_555
H2A C7A 1_555 1_555
C8A C7A 1_555 1_555
H3A C8A 1_555 1_555
C9A C8A 1_555 1_555
C10A C9A 1_555 1_555
C11A C10A 1_555 1_555
C12A C11A 1_555 1_555
C13A C1 1_555 1_555
C14A C2A 1_555 1_555
H4A C14A 1_555 1_555
H5A C14A 1_555 1_555
C15A C14A 1_555 1_555
H6A C15A 1_555 1_555
H7A C15A 1_555 1_555
H8A C15A 1_555 1_555
C16A C3A 1_555 1_555
H9A C16A 1_555 1_555
H10A C16A 1_555 1_555
C17A C16A 1_555 1_555
H11A C17A 1_555 1_555
H12A C17A 1_555 1_555
H13A C17A 1_555 1_555
C18A C11A 1_555 1_555
H14A C18A 1_555 1_555
H15A C18A 1_555 1_555
C19A C18A 1_555 1_555
H16A C19A 1_555 1_555
H17A C19A 1_555 1_555
H18A C19A 1_555 1_555
C20A C12A 1_555 1_555
H19A C20A 1_555 1_555
H20A C20A 1_555 1_555
C21A C20A 1_555 1_555
H21A C21A 1_555 1_555
H22A C21A 1_555 1_555
H23A C21A 1_555 1_555
C22A C34 1_555 1_555
C23A C22A 1_555 1_555
C24A C23A 1_555 1_555
C25A C24A 1_555 1_555
C26A C25A 1_555 1_555
C27A C26A 1_555 1_555
H24A C27A 1_555 1_555
C28A C27A 1_555 1_555
H25A C28A 1_555 1_555
C29A C28A 1_555 1_555
H26A C29A 1_555 1_555
C30A C29A 1_555 1_555
C31A C30A 1_555 1_555
C32A C31A 1_555 1_555
C33A C32A 1_555 1_555
C34A C22 1_555 1_555
C35A C23A 1_555 1_555
H27A C35A 1_555 1_555
H28A C35A 1_555 1_555
C36A C35A 1_555 1_555
H29A C36A 1_555 1_555
H30A C36A 1_555 1_555
H31A C36A 1_555 1_555
C37A C24A 1_555 1_555
H32A C37A 1_555 1_555
H33A C37A 1_555 1_555
C38A C37A 1_555 1_555
H34A C38A 1_555 1_555
H35A C38A 1_555 1_555
H36A C38A 1_555 1_555
C39A C32A 1_555 1_555
H37A C39A 1_555 1_555
H38A C39A 1_555 1_555
C40A C39A 1_555 1_555
H39A C40A 1_555 1_555
H40A C40A 1_555 1_555
H41A C40A 1_555 1_555
C41A C33A 1_555 1_555
H42A C41A 1_555 1_555
H43A C41A 1_555 1_555
C42A C41A 1_555 1_555
H44A C42A 1_555 1_555
H45A C42A 1_555 1_555
H46A C42A 1_555 1_555
N1A C1A 1_555 1_555
H47A N1A 1_555 1_555
N2A C5A 1_555 1_555
N3A C10A 1_555 1_555
H48A N3A 1_555 1_555
N4A C22A 1_555 1_555
H49A N4A 1_555 1_555
N5A C26A 1_555 1_555
N6A C31A 1_555 1_555
H50A N6A 1_555 1_555
C4 N1 1_555 1_555
C9 N2 1_555 1_555
C13 N3 1_555 1_555
C25 N4 1_555 1_555
C30 N5 1_555 1_555
C34 N6 1_555 1_555
C4A N1A 1_555 1_555
C9A N2A 1_555 1_555
C12A C13A 1_555 1_555
C13A N3A 1_555 1_555
C25A N4A 1_555 1_555
C30A N5A 1_555 1_555
C33A C34A 1_555 1_555
C34A N6A 1_555 1_555

#END
