
#######################################################################
#
#                 Cambridge Crystallographic Data Centre
#                                CCDC 
#
#######################################################################
#
# If this CIF has been generated from an entry in the Cambridge 
# Structural Database, then it will include bibliographic, chemical, 
# crystal, experimental, refinement or atomic coordinate data resulting 
# from the CCDC's data processing and validation procedures.
#
#######################################################################

data_HAVBIQ02
_chemical_formula_moiety         'C13 H10 N2 O1'
_chemical_name_systematic        2-(1H-Benzimidazol-2-yl)phenol
_symmetry_cell_setting           monoclinic
_symmetry_space_group_name_H-M   'P 21'
_symmetry_Int_Tables_number      4
_space_group_name_Hall           'P 2yb'
loop_
_symmetry_equiv_pos_site_id
_symmetry_equiv_pos_as_xyz
1 x,y,z
2 -x,1/2+y,-z
_cell_length_a                   3.8541(10)
_cell_length_b                   22.170(6)
_cell_length_c                   5.8638(15)
_cell_angle_alpha                90
_cell_angle_beta                 95.642(4)
_cell_angle_gamma                90
_cell_volume                     498.608
_cell_formula_units_Z            2
loop_
_atom_site_label
_atom_site_type_symbol
_atom_site_fract_x
_atom_site_fract_y
_atom_site_fract_z
C1 C 0.4724(5) 0.92397(9) 0.2413(3)
C2 C 0.3526(5) 0.98552(8) 0.1949(3)
C3 C 0.4223(5) 0.87821(9) 0.0797(3)
H1 H 0.3118 0.8869 -0.0647
C4 C 0.7530(6) 0.85122(9) 0.5046(3)
H2 H 0.8625 0.8418 0.6486
C5 C 0.6985(5) 0.80677(10) 0.3422(4)
H3 H 0.7731 0.7676 0.3759
C6 C 0.1052(4) 1.06439(9) 0.0145(3)
C7 C 0.6472(5) 0.90987(8) 0.4570(3)
C8 C 0.2287(6) 1.14025(9) 0.3061(3)
H4 H 0.3231 1.1520 0.4514
C9 C 0.2528(5) 1.08071(8) 0.2332(3)
C10 C -0.0642(5) 1.10536(9) -0.1358(3)
H5 H -0.1610 1.0939 -0.2808
C11 C -0.0826(5) 1.16381(10) -0.0605(4)
H6 H -0.1939 1.1926 -0.1572
C12 C 0.5329(6) 0.82023(9) 0.1290(3)
H7 H 0.4961 0.7902 0.0187
C13 C 0.0613(6) 1.18106(10) 0.1573(3)
H8 H 0.0436 1.2210 0.2026
N1 N 0.4058(4) 1.03040(7) 0.3425(2)
N2 N 0.1734(4) 1.00367(7) -0.0061(3)
O1 O 0.7115(4) 0.95263(6) 0.6209(2)
H9 H 0.6499 0.9857 0.5687
H10 H 0.097(7) 0.9801(11) -0.125(4)
loop_
_geom_bond_atom_site_label_1
_geom_bond_atom_site_label_2
_geom_bond_site_symmetry_1
_geom_bond_site_symmetry_2
C1 C2 1_555 1_555
C2 N1 1_555 1_555
C3 C1 1_555 1_555
H1 C3 1_555 1_555
C4 H2 1_555 1_555
C5 C4 1_555 1_555
H3 C5 1_555 1_555
C6 C9 1_555 1_555
C7 C1 1_555 1_555
C8 H4 1_555 1_555
C9 C8 1_555 1_555
C10 C6 1_555 1_555
H5 C10 1_555 1_555
C11 C10 1_555 1_555
H6 C11 1_555 1_555
C12 C3 1_555 1_555
H7 C12 1_555 1_555
C13 C8 1_555 1_555
H8 C13 1_555 1_555
N1 C9 1_555 1_555
N2 C2 1_555 1_555
O1 C7 1_555 1_555
H9 O1 1_555 1_555
H10 N2 1_555 1_555
C4 C7 1_555 1_555
C5 C12 1_555 1_555
C6 N2 1_555 1_555
C11 C13 1_555 1_555

#END
