
#######################################################################
#
#                 Cambridge Crystallographic Data Centre
#                                CCDC 
#
#######################################################################
#
# If this CIF has been generated from an entry in the Cambridge 
# Structural Database, then it will include bibliographic, chemical, 
# crystal, experimental, refinement or atomic coordinate data resulting 
# from the CCDC's data processing and validation procedures.
#
#######################################################################

data_HAVBIR
_chemical_formula_moiety         'C14 H12 N4'
_chemical_name_systematic        
2,2'-(4-Methyl-1H-pyrazole-3,5-diyl)dipyridine
_symmetry_cell_setting           orthorhombic
_symmetry_space_group_name_H-M   'P b c n'
_symmetry_Int_Tables_number      60
_space_group_name_Hall           '-P 2n 2ab'
loop_
_symmetry_equiv_pos_site_id
_symmetry_equiv_pos_as_xyz
1 x,y,z
2 1/2-x,1/2-y,1/2+z
3 -x,y,1/2-z
4 1/2+x,1/2-y,-z
5 -x,-y,-z
6 1/2+x,1/2+y,1/2-z
7 x,-y,1/2+z
8 1/2-x,1/2+y,z
_cell_length_a                   11.3145(13)
_cell_length_b                   11.7552(15)
_cell_length_c                   17.525(2)
_cell_angle_alpha                90
_cell_angle_beta                 90
_cell_angle_gamma                90
_cell_volume                     2330.9
_exptl_crystal_colour            colorless
_exptl_crystal_description       block
_cell_formula_units_Z            8
loop_
_atom_site_label
_atom_site_type_symbol
_atom_site_fract_x
_atom_site_fract_y
_atom_site_fract_z
C1 C 0.76491(7) 0.13573(8) 0.33836(5)
N1 N 0.58020(6) 0.19519(7) 0.33148(4)
H1 H 0.5129(17) 0.236(2) 0.3199(13)
C2 C 0.69091(7) 0.21492(8) 0.30451(5)
N2 N 0.57680(6) 0.10860(7) 0.38145(4)
C3 C 0.68903(7) 0.07168(8) 0.38595(5)
N3 N 0.62948(7) 0.33011(7) 0.19880(4)
C4 C 0.89171(8) 0.11551(11) 0.32012(6)
H2 H 0.9095 0.1464 0.2695
H3 H 0.9077 0.0336 0.3206
H4 H 0.9414 0.1533 0.3583
N4 N 0.83541(8) -0.03749(11) 0.45131(6)
C5 C 0.71555(7) 0.30498(8) 0.24922(5)
C6 C 0.82353(8) 0.36286(9) 0.24995(5)
H5 H 0.8824 0.3440 0.2865
C7 C 0.84363(9) 0.44788(10) 0.19687(6)
H6 H 0.9168 0.4875 0.1959
C8 C 0.75515(10) 0.47414(9) 0.14517(6)
H7 H 0.7663 0.5321 0.1081
C9 C 0.64960(9) 0.41374(9) 0.14880(5)
H8 H 0.5886 0.4330 0.1139
C10 C 0.71999(8) -0.02598(8) 0.43411(5)
C11 C 0.63415(11) -0.10183(10) 0.45981(6)
H9 H 0.5530 -0.0895 0.4486
C12 C 0.66945(15) -0.19562(11) 0.50200(7)
H10 H 0.6127 -0.2487 0.5201
C13 C 0.78830(14) -0.21093(11) 0.51748(7)
H11 H 0.8151 -0.2758 0.5447
C14 C 0.86693(12) -0.12923(14) 0.49220(7)
H12 H 0.9481 -0.1385 0.5045
loop_
_geom_bond_atom_site_label_1
_geom_bond_atom_site_label_2
_geom_bond_site_symmetry_1
_geom_bond_site_symmetry_2
C1 C2 1_555 1_555
N1 H1 1_555 1_555
C2 N1 1_555 1_555
N2 N1 1_555 1_555
C3 C1 1_555 1_555
N3 C5 1_555 1_555
C4 C1 1_555 1_555
H2 C4 1_555 1_555
H3 C4 1_555 1_555
H4 C4 1_555 1_555
N4 C10 1_555 1_555
C5 C2 1_555 1_555
C6 C5 1_555 1_555
H5 C6 1_555 1_555
C7 C6 1_555 1_555
H6 C7 1_555 1_555
C8 C7 1_555 1_555
H7 C8 1_555 1_555
C9 N3 1_555 1_555
H8 C9 1_555 1_555
C10 C3 1_555 1_555
C11 C10 1_555 1_555
H9 C11 1_555 1_555
C12 C11 1_555 1_555
H10 C12 1_555 1_555
C13 C12 1_555 1_555
H11 C13 1_555 1_555
C14 N4 1_555 1_555
H12 C14 1_555 1_555
N2 C3 1_555 1_555
C8 C9 1_555 1_555
C13 C14 1_555 1_555

#END
