
#######################################################################
#
#                 Cambridge Crystallographic Data Centre
#                                CCDC 
#
#######################################################################
#
# If this CIF has been generated from an entry in the Cambridge 
# Structural Database, then it will include bibliographic, chemical, 
# crystal, experimental, refinement or atomic coordinate data resulting 
# from the CCDC's data processing and validation procedures.
#
#######################################################################

data_HAVBUE
_chemical_formula_moiety         'C20 H32 O4'
_chemical_name_systematic        
14-ethyl-3,5,7,9,13-pentamethyloxacyclotetradec-5-ene-2,4,10-trione
_symmetry_cell_setting           orthorhombic
_symmetry_space_group_name_H-M   'P 21 21 21'
_symmetry_Int_Tables_number      19
_space_group_name_Hall           'P 2ac 2ab'
loop_
_symmetry_equiv_pos_site_id
_symmetry_equiv_pos_as_xyz
1 x,y,z
2 1/2+x,1/2-y,-z
3 -x,1/2+y,1/2-z
4 1/2-x,-y,1/2+z
_cell_length_a                   10.3662(7)
_cell_length_b                   11.9017(8)
_cell_length_c                   15.7854(10)
_cell_angle_alpha                90
_cell_angle_beta                 90
_cell_angle_gamma                90
_cell_volume                     1947.53
_exptl_crystal_colour            colorless
_exptl_crystal_description       block
_cell_formula_units_Z            4
loop_
_atom_site_label
_atom_site_type_symbol
_atom_site_fract_x
_atom_site_fract_y
_atom_site_fract_z
C1 C -0.11241(16) 0.48199(13) 0.58618(10)
C2 C -0.23706(16) 0.41703(14) 0.59543(10)
H1 H -0.2370 0.3542 0.5533
C3 C -0.24707(17) 0.36672(15) 0.68436(11)
C4 C -0.16280(17) 0.27251(14) 0.71105(10)
C5 C -0.07597(16) 0.22774(14) 0.65831(11)
H2 H -0.0764 0.2556 0.6019
C6 C 0.02189(17) 0.13877(14) 0.67781(11)
H3 H 0.0378 0.1386 0.7403
C7 C 0.14845(17) 0.16726(14) 0.63303(11)
H4 H 0.1325 0.1737 0.5714
H5 H 0.2107 0.1053 0.6420
C8 C 0.20793(17) 0.27776(14) 0.66552(11)
H6 H 0.1363 0.3325 0.6755
C9 C 0.29748(17) 0.32689(15) 0.59912(11)
C10 C 0.25624(17) 0.43386(14) 0.55626(11)
H7 H 0.3328 0.4745 0.5347
H8 H 0.2112 0.4830 0.5973
C11 C 0.16585(17) 0.40495(14) 0.48266(11)
H9 H 0.2123 0.3544 0.4433
H10 H 0.0913 0.3627 0.5055
C12 C 0.11486(16) 0.50513(14) 0.43230(10)
H11 H 0.1906 0.5533 0.4175
C13 C 0.02250(17) 0.57707(14) 0.48431(11)
H12 H 0.0662 0.5996 0.5382
C14 C -0.02663(19) 0.68155(15) 0.44024(12)
H13 H -0.0793 0.6590 0.3908
H14 H 0.0479 0.7253 0.4190
C15 C -0.1072(2) 0.75586(17) 0.49768(14)
H15 H -0.1834 0.7142 0.5169
H16 H -0.1347 0.8228 0.4664
H17 H -0.0557 0.7785 0.5468
C16 C -0.35225(17) 0.49375(16) 0.57661(12)
H18 H -0.3543 0.5553 0.6178
H19 H -0.4323 0.4503 0.5806
H20 H -0.3438 0.5247 0.5193
C17 C -0.1821(2) 0.23344(17) 0.80079(11)
H21 H -0.1197 0.1741 0.8139
H22 H -0.2699 0.2040 0.8073
H23 H -0.1694 0.2967 0.8396
C18 C -0.02716(19) 0.02264(15) 0.65212(12)
H24 H -0.1087 0.0071 0.6813
H25 H 0.0368 -0.0343 0.6679
H26 H -0.0411 0.0207 0.5907
C19 C 0.2799(2) 0.26129(17) 0.74883(11)
H27 H 0.3528 0.2102 0.7399
H28 H 0.2213 0.2291 0.7911
H29 H 0.3119 0.3340 0.7691
C20 C 0.05619(18) 0.46348(15) 0.34923(11)
H30 H -0.0146 0.4114 0.3615
H31 H 0.1225 0.4248 0.3160
H32 H 0.0230 0.5276 0.3169
O1 O -0.09117(11) 0.50829(10) 0.50497(7)
O2 O -0.04354(12) 0.50844(11) 0.64417(7)
O3 O -0.32375(15) 0.40649(13) 0.73452(9)
O4 O 0.39582(12) 0.27845(11) 0.57788(9)
loop_
_geom_bond_atom_site_label_1
_geom_bond_atom_site_label_2
_geom_bond_site_symmetry_1
_geom_bond_site_symmetry_2
C1 C2 1_555 1_555
C2 H1 1_555 1_555
C3 C2 1_555 1_555
C4 C3 1_555 1_555
C5 C4 1_555 1_555
H2 C5 1_555 1_555
C6 C5 1_555 1_555
H3 C6 1_555 1_555
C7 C6 1_555 1_555
H4 C7 1_555 1_555
H5 C7 1_555 1_555
C8 C7 1_555 1_555
H6 C8 1_555 1_555
C9 C8 1_555 1_555
C10 C9 1_555 1_555
H7 C10 1_555 1_555
H8 C10 1_555 1_555
C11 C10 1_555 1_555
H9 C11 1_555 1_555
H10 C11 1_555 1_555
C12 C11 1_555 1_555
H11 C12 1_555 1_555
C13 C12 1_555 1_555
H12 C13 1_555 1_555
C14 C13 1_555 1_555
H13 C14 1_555 1_555
H14 C14 1_555 1_555
C15 C14 1_555 1_555
H15 C15 1_555 1_555
H16 C15 1_555 1_555
H17 C15 1_555 1_555
C16 C2 1_555 1_555
H18 C16 1_555 1_555
H19 C16 1_555 1_555
H20 C16 1_555 1_555
C17 C4 1_555 1_555
H21 C17 1_555 1_555
H22 C17 1_555 1_555
H23 C17 1_555 1_555
C18 C6 1_555 1_555
H24 C18 1_555 1_555
H25 C18 1_555 1_555
H26 C18 1_555 1_555
C19 C8 1_555 1_555
H27 C19 1_555 1_555
H28 C19 1_555 1_555
H29 C19 1_555 1_555
C20 C12 1_555 1_555
H30 C20 1_555 1_555
H31 C20 1_555 1_555
H32 C20 1_555 1_555
O1 C1 1_555 1_555
O2 C1 1_555 1_555
O3 C3 1_555 1_555
O4 C9 1_555 1_555
C13 O1 1_555 1_555

#END
