
#######################################################################
#
#                 Cambridge Crystallographic Data Centre
#                                CCDC 
#
#######################################################################
#
# If this CIF has been generated from an entry in the Cambridge 
# Structural Database, then it will include bibliographic, chemical, 
# crystal, experimental, refinement or atomic coordinate data resulting 
# from the CCDC's data processing and validation procedures.
#
#######################################################################

data_HAVKUK01
_chemical_formula_moiety         'C23 H16 O1'
_chemical_name_systematic        cis-3-(9-anthryl)-1-phenylprop-2-en-1-one
_symmetry_cell_setting           monoclinic
_symmetry_space_group_name_H-M   'P 21/n'
_symmetry_Int_Tables_number      14
_space_group_name_Hall           '-P 2yn'
loop_
_symmetry_equiv_pos_site_id
_symmetry_equiv_pos_as_xyz
1 x,y,z
2 1/2-x,1/2+y,1/2-z
3 -x,-y,-z
4 1/2+x,1/2-y,1/2+z
_cell_length_a                   16.727(3)
_cell_length_b                   5.6410(11)
_cell_length_c                   18.544(4)
_cell_angle_alpha                90
_cell_angle_beta                 109.35(3)
_cell_angle_gamma                90
_cell_volume                     1650.92
_exptl_crystal_colour            orange
_exptl_crystal_description       rod
_cell_formula_units_Z            4
loop_
_atom_site_label
_atom_site_type_symbol
_atom_site_fract_x
_atom_site_fract_y
_atom_site_fract_z
O1 O 0.39362(14) 0.9800(4) 0.15277(15)
C1 C 0.5803(2) 0.8475(6) 0.2823(3)
C2 C 0.5530(2) 0.7422(8) 0.3401(3)
H1 H 0.5164 0.6130 0.3273
C3 C 0.5782(3) 0.8232(11) 0.4122(3)
H2 H 0.5600 0.7487 0.4487
C4 C 0.6325(3) 1.0215(12) 0.4326(3)
H3 H 0.6491 1.0785 0.4824
C5 C 0.6608(3) 1.1302(9) 0.3803(3)
H4 H 0.6967 1.2604 0.3947
C6 C 0.6358(2) 1.0454(7) 0.3034(3)
C7 C 0.6653(2) 1.1471(7) 0.2487(3)
H5 H 0.7007 1.2786 0.2620
C8 C 0.6438(2) 1.0593(7) 0.1755(3)
C9 C 0.6752(3) 1.1625(8) 0.1195(4)
H6 H 0.7108 1.2937 0.1324
C10 C 0.6541(3) 1.0725(11) 0.0490(4)
H7 H 0.6743 1.1443 0.0133
C11 C 0.6017(3) 0.8714(10) 0.0276(3)
H8 H 0.5892 0.8080 -0.0212
C12 C 0.5695(2) 0.7701(8) 0.0787(3)
H9 H 0.5339 0.6395 0.0638
C13 C 0.5890(2) 0.8593(7) 0.1546(3)
C14 C 0.5557(2) 0.7600(6) 0.2076(3)
C15 C 0.4958(2) 0.5587(6) 0.1851(2)
H10 H 0.5198 0.4096 0.1861
C16 C 0.4121(2) 0.5662(5) 0.16373(19)
H11 H 0.3830 0.4230 0.1540
C17 C 0.3619(2) 0.7849(6) 0.15432(18)
C18 C 0.2708(2) 0.7659(6) 0.14601(17)
C19 C 0.2178(2) 0.9509(6) 0.1115(2)
H12 H 0.2393 1.0809 0.0931
C20 C 0.1329(3) 0.9435(7) 0.1042(2)
H13 H 0.0973 1.0676 0.0805
C21 C 0.1012(3) 0.7538(8) 0.1320(2)
H14 H 0.0441 0.7493 0.1270
C22 C 0.1534(3) 0.5698(7) 0.1672(2)
H15 H 0.1320 0.4420 0.1867
C23 C 0.2378(2) 0.5761(6) 0.17350(18)
H16 H 0.2730 0.4506 0.1966
loop_
_geom_bond_atom_site_label_1
_geom_bond_atom_site_label_2
_geom_bond_site_symmetry_1
_geom_bond_site_symmetry_2
O1 C17 1_555 1_555
C1 C2 1_555 1_555
C2 H1 1_555 1_555
C3 C2 1_555 1_555
H2 C3 1_555 1_555
C4 C3 1_555 1_555
H3 C4 1_555 1_555
C5 C4 1_555 1_555
H4 C5 1_555 1_555
C6 C1 1_555 1_555
C7 C6 1_555 1_555
H5 C7 1_555 1_555
C8 C7 1_555 1_555
C9 C8 1_555 1_555
H6 C9 1_555 1_555
C10 C9 1_555 1_555
H7 C10 1_555 1_555
C11 C10 1_555 1_555
H8 C11 1_555 1_555
C12 C11 1_555 1_555
H9 C12 1_555 1_555
C13 C8 1_555 1_555
C14 C1 1_555 1_555
C15 C14 1_555 1_555
H10 C15 1_555 1_555
C16 C15 1_555 1_555
H11 C16 1_555 1_555
C17 C16 1_555 1_555
C18 C17 1_555 1_555
C19 C18 1_555 1_555
H12 C19 1_555 1_555
C20 C19 1_555 1_555
H13 C20 1_555 1_555
C21 C20 1_555 1_555
H14 C21 1_555 1_555
C22 C21 1_555 1_555
H15 C22 1_555 1_555
C23 C18 1_555 1_555
H16 C23 1_555 1_555
C5 C6 1_555 1_555
C12 C13 1_555 1_555
C13 C14 1_555 1_555
C22 C23 1_555 1_555

#END
