
#######################################################################
#
#                 Cambridge Crystallographic Data Centre
#                                CCDC 
#
#######################################################################
#
# If this CIF has been generated from an entry in the Cambridge 
# Structural Database, then it will include bibliographic, chemical, 
# crystal, experimental, refinement or atomic coordinate data resulting 
# from the CCDC's data processing and validation procedures.
#
#######################################################################

data_HAVZEJ
_chemical_formula_moiety         'C15 H22 O2'
_chemical_name_systematic        
(1RS,4RS,5RS,9RS)-4,5-Dimethyltricyclo(7.4.0.0^1,5^)tridecane-3,11-dione
_symmetry_cell_setting           triclinic
_symmetry_space_group_name_H-M   'P -1'
_symmetry_Int_Tables_number      2
_space_group_name_Hall           '-P 1'
loop_
_symmetry_equiv_pos_site_id
_symmetry_equiv_pos_as_xyz
1 x,y,z
2 -x,-y,-z
_cell_length_a                   6.639(3)
_cell_length_b                   9.532(3)
_cell_length_c                   10.659(6)
_cell_angle_alpha                103.06(4)
_cell_angle_beta                 93.81(5)
_cell_angle_gamma                100.83(4)
_cell_volume                     641.188
_chemical_melting_point          122deg.C
_cell_formula_units_Z            2
loop_
_atom_site_label
_atom_site_type_symbol
_atom_site_fract_x
_atom_site_fract_y
_atom_site_fract_z
O1 O 0.6533(2) -0.1193(1) 0.0081(1)
O2 O 1.0401(2) 0.6640(1) 0.1865(2)
C1 C 0.8397(2) 0.1244(2) 0.3098(1)
C2 C 1.0193(3) 0.0459(2) 0.3222(2)
C3 C 0.6502(3) 0.0093(2) 0.2319(2)
C4 C 0.5869(4) -0.1344(2) 0.2722(3)
C5 C 0.7062(2) -0.0089(2) 0.0946(2)
C6 C 0.8453(3) 0.1307(2) 0.0835(2)
C7 C 0.8831(2) 0.2347(1) 0.2199(1)
C8 C 1.1047(2) 0.3269(2) 0.2493(2)
C9 C 1.1491(3) 0.4376(2) 0.1659(2)
C10 C 0.9928(3) 0.5323(2) 0.1702(2)
C11 C 0.7722(3) 0.4509(2) 0.1498(2)
C12 C 0.7260(2) 0.3379(2) 0.2320(1)
C13 C 0.7120(3) 0.4135(2) 0.3730(2)
C14 C 0.6493(3) 0.3016(2) 0.4513(2)
C15 C 0.8002(3) 0.1996(2) 0.4466(2)
H1 H 1.141(3) 0.114(2) 0.373(2)
H2 H 0.984(3) -0.034(2) 0.368(2)
H3 H 1.061(3) -0.003(2) 0.237(2)
H4 H 0.531(3) 0.059(2) 0.229(2)
H5 H 0.464(3) -0.187(2) 0.227(2)
H6 H 0.685(3) -0.196(2) 0.259(2)
H7 H 0.581(3) -0.118(2) 0.369(2)
H8 H 0.780(3) 0.171(2) 0.017(2)
H9 H 0.675(3) 0.108(2) 0.054(2)
H10 H 1.134(3) 0.381(2) 0.344(2)
H11 H 1.202(3) 0.260(2) 0.233(2)
H12 H 1.136(3) 0.385(2) 0.077(2)
H13 H 1.285(3) 0.500(2) 0.192(2)
H14 H 0.684(3) 0.521(2) 0.166(2)
H15 H 0.740(3) 0.401(2) 0.057(2)
H16 H 0.585(3) 0.275(2) 0.193(2)
H17 H 0.849(3) 0.482(2) 0.414(2)
H18 H 0.616(3) 0.480(2) 0.374(2)
H19 H 0.509(3) 0.243(2) 0.417(2)
H20 H 0.644(3) 0.352(2) 0.541(2)
H21 H 0.940(3) 0.257(2) 0.495(2)
H22 H 0.750(3) 0.123(2) 0.494(2)
loop_
_geom_bond_atom_site_label_1
_geom_bond_atom_site_label_2
_geom_bond_site_symmetry_1
_geom_bond_site_symmetry_2
O1 C5 1_555 1_555
O2 C10 1_555 1_555
C1 C2 1_555 1_555
C2 H1 1_555 1_555
C3 C1 1_555 1_555
C4 C3 1_555 1_555
C5 C3 1_555 1_555
C6 C5 1_555 1_555
C7 C1 1_555 1_555
C8 C7 1_555 1_555
C9 C8 1_555 1_555
C10 C9 1_555 1_555
C11 C10 1_555 1_555
C12 C7 1_555 1_555
C13 C12 1_555 1_555
C14 C13 1_555 1_555
C15 C1 1_555 1_555
H2 C2 1_555 1_555
H3 C2 1_555 1_555
H4 C3 1_555 1_555
H5 C4 1_555 1_555
H6 C4 1_555 1_555
H7 C4 1_555 1_555
H8 C6 1_555 1_555
H9 C6 1_555 1_555
H10 C8 1_555 1_555
H11 C8 1_555 1_555
H12 C9 1_555 1_555
H13 C9 1_555 1_555
H14 C11 1_555 1_555
H15 C11 1_555 1_555
H16 C12 1_555 1_555
H17 C13 1_555 1_555
H18 C13 1_555 1_555
H19 C14 1_555 1_555
H20 C14 1_555 1_555
H21 C15 1_555 1_555
H22 C15 1_555 1_555
C6 C7 1_555 1_555
C11 C12 1_555 1_555
C14 C15 1_555 1_555

#END
