
#######################################################################
#
#                 Cambridge Crystallographic Data Centre
#                                CCDC 
#
#######################################################################
#
# If this CIF has been generated from an entry in the Cambridge 
# Structural Database, then it will include bibliographic, chemical, 
# crystal, experimental, refinement or atomic coordinate data resulting 
# from the CCDC's data processing and validation procedures.
#
#######################################################################

data_HAWFUJ
_chemical_formula_moiety         'C28 H20 N8 O5 S4'
_chemical_name_systematic        
'diethyl 22-oxa-2,7,12,17-tetrathia-4,5,14,15,30,31,34,35-octaazahexacyclo[21.2.2.2^3,6^.2^8,11^.2^13,16^.2^18,21^]pentatriaconta-1(25),3,5,8,10,13,15,18,20,23,26,28,30,32,34-pentadecaene-9,32-dicarboxylate'
_symmetry_cell_setting           monoclinic
_symmetry_space_group_name_H-M   'P 21/c'
_symmetry_Int_Tables_number      14
_space_group_name_Hall           '-P 2ybc'
loop_
_symmetry_equiv_pos_site_id
_symmetry_equiv_pos_as_xyz
1 x,y,z
2 -x,1/2+y,1/2-z
3 -x,-y,-z
4 x,1/2-y,1/2+z
_cell_length_a                   18.303(4)
_cell_length_b                   14.329(3)
_cell_length_c                   23.204(4)
_cell_angle_alpha                90
_cell_angle_beta                 91.27(2)
_cell_angle_gamma                90
_cell_volume                     6084.07
_exptl_crystal_colour            red
_exptl_crystal_description       block
_cell_formula_units_Z            8
loop_
_atom_site_label
_atom_site_type_symbol
_atom_site_fract_x
_atom_site_fract_y
_atom_site_fract_z
S1 S 0.30793(4) 0.17622(6) 0.13512(4)
S2 S 0.21658(5) 0.10919(8) 0.37994(4)
S3 S 0.71915(5) 0.39824(7) 0.40132(4)
S4 S 0.61243(5) 0.38777(6) 0.15364(4)
O1 O 0.46122(16) 0.2580(2) 0.52599(11)
O2 O 0.4527(2) 0.51852(19) 0.09244(12)
O3 O 0.45947(13) 0.52157(15) 0.18859(10)
O4 O 0.41124(12) 0.03747(16) 0.19255(11)
O5 O 0.52318(12) 0.04092(16) 0.15409(11)
N1 N 0.31741(18) 0.2117(3) 0.24738(14)
N2 N 0.29792(18) 0.1970(3) 0.30185(14)
N3 N 0.19624(16) 0.1098(2) 0.26800(14)
N4 N 0.21556(15) 0.1238(2) 0.21410(14)
N5 N 0.62810(15) 0.33142(19) 0.31822(12)
N6 N 0.60418(15) 0.32973(19) 0.26333(12)
N7 N 0.70990(16) 0.4132(2) 0.23578(14)
N8 N 0.73356(16) 0.4150(2) 0.29014(14)
C1 C 0.27945(17) 0.1686(2) 0.20649(15)
C2 C 0.24163(18) 0.1405(2) 0.31001(16)
C3 C 0.29100(19) 0.1550(3) 0.42209(15)
C4 C 0.3355(2) 0.0937(3) 0.45180(16)
H1 H 0.3275 0.0297 0.4488
C5 C 0.3927(2) 0.1277(3) 0.48645(16)
H2 H 0.4226 0.0867 0.5071
C6 C 0.4045(2) 0.2219(3) 0.48983(15)
C7 C 0.3591(2) 0.2832(3) 0.46100(17)
H3 H 0.3672 0.3471 0.4643
C8 C 0.3015(2) 0.2507(3) 0.42715(18)
H4 H 0.2702 0.2922 0.4081
C9 C 0.5230(2) 0.2887(3) 0.49673(15)
C10 C 0.5665(2) 0.2262(3) 0.46708(17)
H5 H 0.5548 0.1630 0.4660
C11 C 0.6276(2) 0.2587(3) 0.43917(16)
H6 H 0.6578 0.2173 0.4201
C12 C 0.64359(19) 0.3537(3) 0.43965(15)
C13 C 0.6007(2) 0.4140(3) 0.47108(16)
H7 H 0.6123 0.4771 0.4727
C14 C 0.5407(2) 0.3808(3) 0.50019(16)
H8 H 0.5127 0.4213 0.5220
C15 C 0.68866(18) 0.3804(2) 0.32992(15)
C16 C 0.64351(17) 0.3762(2) 0.22547(15)
C17 C 0.52768(17) 0.3272(2) 0.15430(13)
C18 C 0.52558(17) 0.2301(2) 0.16007(14)
H9 H 0.5690 0.1972 0.1655
C19 C 0.45959(17) 0.1819(2) 0.15782(13)
C20 C 0.39451(16) 0.2315(2) 0.14680(13)
C21 C 0.39700(18) 0.3275(2) 0.13974(14)
H10 H 0.3540 0.3600 0.1315
C22 C 0.46254(18) 0.3759(2) 0.14478(13)
C23 C 0.45884(19) 0.4800(2) 0.13802(15)
C24 C 0.4506(2) 0.6233(2) 0.18868(17)
H11 H 0.4325 0.6431 0.2257
H12 H 0.4149 0.6411 0.1592
C25 C 0.5214(2) 0.6714(3) 0.17769(19)
H13 H 0.5370 0.6567 0.1395
H14 H 0.5577 0.6507 0.2053
H15 H 0.5150 0.7376 0.1812
C26 C 0.53502(19) -0.0573(2) 0.16897(17)
H16 H 0.5139 -0.0973 0.1393
H17 H 0.5122 -0.0718 0.2052
C27 C 0.6151(2) -0.0726(3) 0.1739(2)
H18 H 0.6373 -0.0565 0.1382
H19 H 0.6247 -0.1370 0.1826
H20 H 0.6352 -0.0341 0.2042
C28 C 0.46037(17) 0.0794(2) 0.16975(14)
S5 S -0.12981(5) 0.88038(6) 0.15574(4)
S6 S -0.21604(5) 0.93686(7) 0.40224(4)
S7 S 0.28801(5) 0.64212(9) 0.40983(4)
S8 S 0.18032(4) 0.67975(6) 0.16300(4)
O6 O 0.03773(17) 0.7958(3) 0.53948(11)
O7 O 0.06762(16) 1.01790(19) 0.13682(14)
O8 O -0.02742(14) 0.98174(18) 0.07786(11)
O9 O 0.08068(14) 0.53979(18) 0.21706(14)
O10 O -0.03490(14) 0.54163(19) 0.18658(15)
N9 N -0.12548(16) 0.82590(19) 0.26769(12)
N10 N -0.14473(16) 0.8395(2) 0.32214(13)
N11 N -0.23602(16) 0.9461(2) 0.29042(14)
N12 N -0.21657(15) 0.9338(2) 0.23631(14)
N13 N 0.15912(15) 0.6902(2) 0.27686(13)
N14 N 0.18294(16) 0.6808(3) 0.33114(13)
N15 N 0.30239(15) 0.6474(2) 0.29813(13)
N16 N 0.27836(14) 0.6550(2) 0.24400(13)
C29 C 0.1588(3) 0.8131(3) 0.50115(19)
H21 H 0.1608 0.8734 0.5159
C30 C -0.15763(17) 0.8793(2) 0.22785(15)
C31 C -0.19479(17) 0.9049(2) 0.33155(15)
C32 C -0.13946(19) 0.8912(3) 0.44100(15)
C33 C -0.1473(2) 0.8169(3) 0.47826(17)
H22 H -0.1926 0.7884 0.4818
C34 C -0.0879(3) 0.7847(4) 0.51026(19)
H23 H -0.0936 0.7354 0.5358
C35 C -0.0207(2) 0.8254(3) 0.50438(16)
C36 C -0.0118(2) 0.8985(3) 0.46595(18)
H24 H 0.0343 0.9244 0.4610
C37 C -0.0712(2) 0.9328(3) 0.43518(18)
H25 H -0.0658 0.9836 0.4106
C38 C 0.0977(2) 0.7590(3) 0.50889(16)
C39 C 0.0949(2) 0.6677(3) 0.48989(16)
H26 H 0.0542 0.6309 0.4968
C40 C 0.1535(2) 0.6318(3) 0.46045(16)
H27 H 0.1520 0.5704 0.4474
C41 C 0.2145(2) 0.6864(3) 0.45021(16)
C42 C 0.2176(2) 0.7777(3) 0.47131(19)
H28 H 0.2587 0.8144 0.4654
C43 C 0.25280(18) 0.6580(2) 0.33954(15)
C44 C 0.20732(17) 0.6737(2) 0.23577(14)
C45 C 0.09182(16) 0.7304(2) 0.16703(13)
C46 C 0.02789(17) 0.6818(2) 0.18106(13)
C47 C -0.03898(17) 0.7289(2) 0.17818(13)
H29 H -0.0812 0.6976 0.1886
C48 C -0.04407(17) 0.8211(2) 0.16016(14)
C49 C 0.01920(18) 0.8674(2) 0.14326(14)
C50 C 0.08682(17) 0.8230(2) 0.14834(14)
H30 H 0.1291 0.8553 0.1392
C51 C 0.01663(19) 0.9627(2) 0.11572(16)
C52 C 0.0708(2) 1.1128(3) 0.1130(2)
H31 H 0.0592 1.1112 0.0720
H32 H 0.1199 1.1376 0.1182
C53 C 0.0176(3) 1.1743(3) 0.1430(2)
H33 H 0.0218 1.2369 0.1288
H34 H 0.0280 1.1735 0.1837
H35 H -0.0312 1.1519 0.1356
C54 C 0.02866(18) 0.5816(2) 0.19787(14)
C55 C -0.0437(3) 0.4442(3) 0.2043(3)
H36 H 0.0002 0.4093 0.1959
H37 H -0.0513 0.4412 0.2455
C56 C -0.1049(3) 0.4040(4) 0.1742(3)
H38 H -0.1005 0.4150 0.1336
H39 H -0.1491 0.4320 0.1873
H40 H -0.1061 0.3380 0.1813
loop_
_geom_bond_atom_site_label_1
_geom_bond_atom_site_label_2
_geom_bond_site_symmetry_1
_geom_bond_site_symmetry_2
S1 C1 1_555 1_555
S2 C2 1_555 1_555
S3 C12 1_555 1_555
S4 C16 1_555 1_555
O1 C6 1_555 1_555
O2 C23 1_555 1_555
O3 C23 1_555 1_555
O4 C28 1_555 1_555
O5 C26 1_555 1_555
N1 N2 1_555 1_555
N2 C2 1_555 1_555
N3 N4 1_555 1_555
N4 C1 1_555 1_555
N5 N6 1_555 1_555
N6 C16 1_555 1_555
N7 N8 1_555 1_555
N8 C15 1_555 1_555
C1 N1 1_555 1_555
C2 N3 1_555 1_555
C3 S2 1_555 1_555
C4 C3 1_555 1_555
H1 C4 1_555 1_555
C5 C4 1_555 1_555
H2 C5 1_555 1_555
C6 C5 1_555 1_555
C7 C6 1_555 1_555
H3 C7 1_555 1_555
C8 C3 1_555 1_555
H4 C8 1_555 1_555
C9 O1 1_555 1_555
C10 C9 1_555 1_555
H5 C10 1_555 1_555
C11 C10 1_555 1_555
H6 C11 1_555 1_555
C12 C11 1_555 1_555
C13 C12 1_555 1_555
H7 C13 1_555 1_555
C14 C9 1_555 1_555
H8 C14 1_555 1_555
C15 S3 1_555 1_555
C16 N7 1_555 1_555
C17 S4 1_555 1_555
C18 C17 1_555 1_555
H9 C18 1_555 1_555
C19 C18 1_555 1_555
C20 S1 1_555 1_555
C21 C20 1_555 1_555
H10 C21 1_555 1_555
C22 C17 1_555 1_555
C23 C22 1_555 1_555
C24 O3 1_555 1_555
H11 C24 1_555 1_555
H12 C24 1_555 1_555
C25 C24 1_555 1_555
H13 C25 1_555 1_555
H14 C25 1_555 1_555
H15 C25 1_555 1_555
C26 H16 1_555 1_555
H17 C26 1_555 1_555
C27 C26 1_555 1_555
H18 C27 1_555 1_555
H19 C27 1_555 1_555
H20 C27 1_555 1_555
C28 O5 1_555 1_555
S5 C30 1_555 1_555
S6 C31 1_555 1_555
S7 C41 1_555 1_555
S8 C44 1_555 1_555
O6 C35 1_555 1_555
O7 C51 1_555 1_555
O8 C51 1_555 1_555
O9 C54 1_555 1_555
O10 C54 1_555 1_555
N9 N10 1_555 1_555
N10 C31 1_555 1_555
N11 N12 1_555 1_555
N12 C30 1_555 1_555
N13 N14 1_555 1_555
N14 C43 1_555 1_555
N15 N16 1_555 1_555
N16 C44 1_555 1_555
C29 H21 1_555 1_555
C30 N9 1_555 1_555
C31 N11 1_555 1_555
C32 S6 1_555 1_555
C33 C32 1_555 1_555
H22 C33 1_555 1_555
C34 C33 1_555 1_555
H23 C34 1_555 1_555
C35 C34 1_555 1_555
C36 C35 1_555 1_555
H24 C36 1_555 1_555
C37 C32 1_555 1_555
H25 C37 1_555 1_555
C38 O6 1_555 1_555
C39 C38 1_555 1_555
H26 C39 1_555 1_555
C40 C39 1_555 1_555
H27 C40 1_555 1_555
C41 C40 1_555 1_555
C42 C29 1_555 1_555
H28 C42 1_555 1_555
C43 S7 1_555 1_555
C44 N13 1_555 1_555
C45 S8 1_555 1_555
C46 C45 1_555 1_555
C47 C46 1_555 1_555
H29 C47 1_555 1_555
C48 S5 1_555 1_555
C49 C48 1_555 1_555
C50 C45 1_555 1_555
H30 C50 1_555 1_555
C51 C49 1_555 1_555
C52 O7 1_555 1_555
H31 C52 1_555 1_555
H32 C52 1_555 1_555
C53 C52 1_555 1_555
H33 C53 1_555 1_555
H34 C53 1_555 1_555
H35 C53 1_555 1_555
C54 C46 1_555 1_555
C55 O10 1_555 1_555
H36 C55 1_555 1_555
H37 C55 1_555 1_555
C56 C55 1_555 1_555
H38 C56 1_555 1_555
H39 C56 1_555 1_555
H40 C56 1_555 1_555
N5 C15 1_555 1_555
C7 C8 1_555 1_555
C13 C14 1_555 1_555
C19 C20 1_555 1_555
C19 C28 1_555 1_555
C21 C22 1_555 1_555
N15 C43 1_555 1_555
C29 C38 1_555 1_555
C36 C37 1_555 1_555
C41 C42 1_555 1_555
C47 C48 1_555 1_555
C49 C50 1_555 1_555

#END
