
#######################################################################
#
#                 Cambridge Crystallographic Data Centre
#                                CCDC 
#
#######################################################################
#
# If this CIF has been generated from an entry in the Cambridge 
# Structural Database, then it will include bibliographic, chemical, 
# crystal, experimental, refinement or atomic coordinate data resulting 
# from the CCDC's data processing and validation procedures.
#
#######################################################################

data_HAYDOD
_chemical_name_common            
(3S*,7S*,11S*)-N-Tosyl-7-methyl-5-azatricyclo[9.3.0.0$3,7!]tetradec-1-ene-9-one
_chemical_formula_moiety         'C21 H27 N1 O3 S1'
_chemical_name_systematic        
3a-methyl-2-((4-methylphenyl)sulfonyl)-2,3,3a,4,6,6a,7,8,9,10a-decahydrocyclopenta[4,5]cycloocta[1,2-c]pyrrol-5(1H)-one
_symmetry_cell_setting           triclinic
_symmetry_space_group_name_H-M   'P -1'
_symmetry_Int_Tables_number      2
_space_group_name_Hall           '-P 1'
loop_
_symmetry_equiv_pos_site_id
_symmetry_equiv_pos_as_xyz
1 x,y,z
2 -x,-y,-z
_cell_length_a                   8.7986(18)
_cell_length_b                   9.772(2)
_cell_length_c                   11.919(2)
_cell_angle_alpha                91.04(3)
_cell_angle_beta                 91.12(3)
_cell_angle_gamma                105.94(3)
_cell_volume                     984.908
_exptl_crystal_colour            colorless
_exptl_crystal_description       block
_chemical_melting_point          '423 K'
_cell_formula_units_Z            2
_exptl_crystal_recrystallization_method 'petroleum ether/ethyl acetate'
loop_
_atom_site_label
_atom_site_type_symbol
_atom_site_fract_x
_atom_site_fract_y
_atom_site_fract_z
S1 S 0.32549(11) 0.22164(9) 0.10166(7)
O1 O 0.2755(3) 0.1539(2) -0.0052(2)
O2 O 0.4727(3) 0.2186(3) 0.1526(2)
O3 O -0.3473(5) -0.0842(4) 0.3994(4)
N1 N 0.1901(3) 0.1476(3) 0.1871(2)
C1 C 0.3264(4) 0.4023(3) 0.0936(3)
C2 C -0.0085(4) 0.3150(4) 0.3206(3)
H1 H 0.0510 0.3780 0.2701
C3 C 0.4224(4) 0.5018(4) 0.1660(3)
H2 H 0.4913 0.4755 0.2159
C4 C 0.0237(4) 0.0972(4) 0.1491(3)
H3 H 0.0065 0.0161 0.0976
H4 H -0.0110 0.1721 0.1133
C5 C 0.0350(4) 0.1780(4) 0.3381(3)
H5 H 0.0189 0.1498 0.4165
C6 C -0.0591(4) 0.0558(4) 0.2588(3)
C7 C 0.2048(4) 0.1924(4) 0.3075(3)
H6 H 0.2694 0.2899 0.3177
H7 H 0.2502 0.1306 0.3520
C8 C 0.2271(4) 0.4423(4) 0.0180(3)
H8 H 0.1633 0.3755 -0.0318
C9 C -0.1239(4) 0.3540(4) 0.3706(3)
C10 C 0.4153(5) 0.6413(4) 0.1638(3)
H9 H 0.4791 0.7082 0.2135
C11 C -0.2359(4) 0.0482(5) 0.2433(3)
H10 H -0.2454 0.1351 0.2096
H11 H -0.2859 -0.0306 0.1924
C12 C -0.2323(4) 0.2703(5) 0.4561(3)
H12 H -0.1719 0.2283 0.5088
C13 C 0.3161(5) 0.6833(4) 0.0899(3)
C14 C 0.2231(5) 0.5817(4) 0.0170(4)
H13 H 0.1559 0.6084 -0.0342
C15 C -0.3690(5) 0.1524(5) 0.4016(4)
H14 H -0.4475 0.1171 0.4579
H15 H -0.4187 0.1939 0.3430
C16 C -0.3203(5) 0.0289(5) 0.3520(4)
C17 C 0.3137(6) 0.8371(4) 0.0876(5)
H16 H 0.2391 0.8481 0.0311
H17 H 0.4171 0.8959 0.0708
H18 H 0.2835 0.8652 0.1596
C18 C -0.0390(6) -0.0883(4) 0.2944(4)
H19 H 0.0715 -0.0811 0.3046
H20 H -0.0839 -0.1591 0.2372
H21 H -0.0919 -0.1150 0.3636
C19 C -0.1645(6) 0.4929(5) 0.3535(5)
H22 H -0.0738 0.5732 0.3712
H23 H -0.1987 0.4997 0.2764
C20 C -0.2937(6) 0.3838(6) 0.5178(5)
H24 H -0.3991 0.3427 0.5453
H25 H -0.2239 0.4265 0.5806
C21 C -0.2952(8) 0.4900(8) 0.4318(5)
H26 H -0.2802 0.5832 0.4670
H27 H -0.3958 0.4647 0.3910
loop_
_geom_bond_atom_site_label_1
_geom_bond_atom_site_label_2
_geom_bond_site_symmetry_1
_geom_bond_site_symmetry_2
S1 O1 1_555 1_555
O2 S1 1_555 1_555
O3 C16 1_555 1_555
N1 S1 1_555 1_555
C1 S1 1_555 1_555
C2 H1 1_555 1_555
C3 C1 1_555 1_555
H2 C3 1_555 1_555
C4 N1 1_555 1_555
H3 C4 1_555 1_555
H4 C4 1_555 1_555
C5 C2 1_555 1_555
H5 C5 1_555 1_555
C6 C4 1_555 1_555
C7 N1 1_555 1_555
H6 C7 1_555 1_555
H7 C7 1_555 1_555
C8 C1 1_555 1_555
H8 C8 1_555 1_555
C9 C2 1_555 1_555
C10 C3 1_555 1_555
H9 C10 1_555 1_555
C11 C6 1_555 1_555
H10 C11 1_555 1_555
H11 C11 1_555 1_555
C12 C9 1_555 1_555
H12 C12 1_555 1_555
C13 C10 1_555 1_555
C14 C8 1_555 1_555
H13 C14 1_555 1_555
C15 C12 1_555 1_555
H14 C15 1_555 1_555
H15 C15 1_555 1_555
C16 C11 1_555 1_555
C17 C13 1_555 1_555
H16 C17 1_555 1_555
H17 C17 1_555 1_555
H18 C17 1_555 1_555
C18 C6 1_555 1_555
H19 C18 1_555 1_555
H20 C18 1_555 1_555
H21 C18 1_555 1_555
C19 C9 1_555 1_555
H22 C19 1_555 1_555
H23 C19 1_555 1_555
C20 C12 1_555 1_555
H24 C20 1_555 1_555
H25 C20 1_555 1_555
C21 C19 1_555 1_555
H26 C21 1_555 1_555
H27 C21 1_555 1_555
C5 C6 1_555 1_555
C5 C7 1_555 1_555
C13 C14 1_555 1_555
C15 C16 1_555 1_555
C20 C21 1_555 1_555

#END
