
#######################################################################
#
#                 Cambridge Crystallographic Data Centre
#                                CCDC 
#
#######################################################################
#
# If this CIF has been generated from an entry in the Cambridge 
# Structural Database, then it will include bibliographic, chemical, 
# crystal, experimental, refinement or atomic coordinate data resulting 
# from the CCDC's data processing and validation procedures.
#
#######################################################################

data_HAYSEG
_chemical_formula_moiety         'C9 H12 N4 O2 S1'
_chemical_name_systematic        
'Methyl N-((4,6-dimethylpyrimidin-2-ylamino)thiocarbonyl)carbamate'
_symmetry_cell_setting           monoclinic
_symmetry_space_group_name_H-M   'C 2/m'
_symmetry_Int_Tables_number      12
_space_group_name_Hall           '-C 2y'
loop_
_symmetry_equiv_pos_site_id
_symmetry_equiv_pos_as_xyz
1 x,y,z
2 1/2+x,1/2+y,z
3 -x,y,-z
4 1/2-x,1/2+y,-z
5 -x,-y,-z
6 1/2-x,1/2-y,-z
7 x,-y,z
8 1/2+x,1/2-y,z
_cell_length_a                   17.537(5)
_cell_length_b                   6.759(2)
_cell_length_c                   11.148(3)
_cell_angle_alpha                90
_cell_angle_beta                 118.557(4)
_cell_angle_gamma                90
_cell_volume                     1160.64
_exptl_crystal_colour            colorless
_exptl_crystal_description       block
_cell_formula_units_Z            4
_exptl_crystal_recrystallization_method dimethylformamide
loop_
_atom_site_label
_atom_site_type_symbol
_atom_site_fract_x
_atom_site_fract_y
_atom_site_fract_z
S1 S 0.42358(5) 0.0000 0.28149(7)
N1 N 0.36437(14) 0.0000 0.6602(2)
N2 N 0.23026(13) 0.0000 0.4527(2)
N3 N 0.36658(15) 0.0000 0.4587(2)
N4 N 0.25798(14) 0.0000 0.2360(2)
O1 O 0.24719(18) 0.0000 0.0222(2)
O2 O 0.13102(14) 0.0000 0.05291(19)
C1 C 0.3750(3) 0.0000 0.8824(3)
C2 C 0.32075(19) 0.0000 0.7309(3)
C3 C 0.23133(19) 0.0000 0.6655(3)
C4 C 0.18634(17) 0.0000 0.5252(3)
C5 C 0.0897(2) 0.0000 0.4438(4)
C6 C 0.31628(16) 0.0000 0.5246(2)
C7 C 0.34475(17) 0.0000 0.3232(3)
C8 C 0.2158(2) 0.0000 0.0947(3)
C9 C 0.0754(3) 0.0000 -0.0931(3)
H1 H 0.419(3) 0.0000 0.518(4)
H2 H 0.223(2) 0.0000 0.273(4)
H3 H 0.201(2) 0.0000 0.711(4)
H4 H 0.343(2) 0.0000 0.928(3)
H5 H 0.4056(16) 0.101(3) 0.917(2)
H6 H 0.068(3) 0.0000 0.497(3)
H7 H 0.0707(14) 0.116(4) 0.387(2)
H8 H 0.018(3) 0.0000 -0.103(3)
H9 H 0.0895(15) 0.106(3) -0.132(2)
H5F H 0.4056(16) -0.101(3) 0.917(2)
H7F H 0.0707(14) -0.116(4) 0.387(2)
H9F H 0.0895(15) -0.106(3) -0.132(2)
loop_
_geom_bond_atom_site_label_1
_geom_bond_atom_site_label_2
_geom_bond_site_symmetry_1
_geom_bond_site_symmetry_2
S1 C7 1_555 1_555
N1 C2 1_555 1_555
N2 C4 1_555 1_555
N3 C6 1_555 1_555
N4 C7 1_555 1_555
O1 C8 1_555 1_555
O2 C8 1_555 1_555
C1 C2 1_555 1_555
C2 C3 1_555 1_555
C3 C4 1_555 1_555
C4 C5 1_555 1_555
C5 H6 1_555 1_555
C6 N1 1_555 1_555
C7 N3 1_555 1_555
C8 N4 1_555 1_555
C9 O2 1_555 1_555
H1 N3 1_555 1_555
H2 N4 1_555 1_555
H3 C3 1_555 1_555
H4 C1 1_555 1_555
H5 C1 1_555 1_555
H7 C5 1_555 1_555
H8 C9 1_555 1_555
H9 C9 1_555 1_555
H5F C1 1_555 1_555
H7F C5 1_555 1_555
H9F C9 1_555 1_555
N2 C6 1_555 1_555

#END
