
#######################################################################
#
#                 Cambridge Crystallographic Data Centre
#                                CCDC 
#
#######################################################################
#
# If this CIF has been generated from an entry in the Cambridge 
# Structural Database, then it will include bibliographic, chemical, 
# crystal, experimental, refinement or atomic coordinate data resulting 
# from the CCDC's data processing and validation procedures.
#
#######################################################################

data_HAYZOX
_chemical_formula_moiety         'C37 H33 N1'
_chemical_name_systematic        
N,N-Dibenzyl-4-(4,4-diphenylbuta-1,3-dienyl)-3-methylaniline
_symmetry_cell_setting           triclinic
_symmetry_space_group_name_H-M   'P -1'
_symmetry_Int_Tables_number      2
_space_group_name_Hall           '-P 1'
loop_
_symmetry_equiv_pos_site_id
_symmetry_equiv_pos_as_xyz
1 x,y,z
2 -x,-y,-z
_cell_length_a                   6.1629(16)
_cell_length_b                   15.935(4)
_cell_length_c                   16.323(4)
_cell_angle_alpha                117.824(4)
_cell_angle_beta                 90.749(5)
_cell_angle_gamma                99.054(5)
_cell_volume                     1393.13
_exptl_crystal_colour            yellow
_exptl_crystal_description       plate
_chemical_melting_point          '420 K'
_cell_formula_units_Z            2
_exptl_crystal_recrystallization_method hexane
loop_
_atom_site_label
_atom_site_type_symbol
_atom_site_fract_x
_atom_site_fract_y
_atom_site_fract_z
N1 N 0.5128(3) 0.19725(14) 0.18886(15)
C1 C 0.0375(4) 0.73899(17) 0.27318(17)
C2 C -0.1596(4) 0.72156(18) 0.30632(18)
H1 H -0.2209 0.6586 0.2924
C3 C -0.2686(5) 0.7962(2) 0.3601(2)
H2 H -0.4018 0.7828 0.3817
C4 C -0.1809(5) 0.8891(2) 0.3816(2)
H3 H -0.2534 0.9392 0.4179
C5 C 0.0144(5) 0.90800(19) 0.3491(2)
H4 H 0.0744 0.9712 0.3636
C6 C 0.1233(4) 0.83421(18) 0.29494(18)
H5 H 0.2550 0.8481 0.2728
C7 C 0.1752(4) 0.64209(16) 0.11697(18)
C8 C 0.0105(4) 0.65621(19) 0.0679(2)
H6 H -0.1136 0.6779 0.0966
C9 C 0.0289(5) 0.6385(2) -0.0226(2)
H7 H -0.0841 0.6473 -0.0544
C10 C 0.2104(5) 0.6083(2) -0.0660(2)
H8 H 0.2213 0.5969 -0.1270
C11 C 0.3773(5) 0.5947(2) -0.0192(2)
H9 H 0.5016 0.5740 -0.0483
C12 C 0.3587(5) 0.61209(18) 0.0715(2)
H10 H 0.4728 0.6034 0.1029
C13 C 0.1544(4) 0.65992(16) 0.21373(17)
C14 C 0.2390(4) 0.60759(16) 0.24752(18)
H11 H 0.2917 0.5534 0.2052
C15 C 0.2540(4) 0.62885(17) 0.34325(18)
H12 H 0.2022 0.6837 0.3848
C16 C 0.3344(4) 0.57849(17) 0.37991(18)
H13 H 0.3571 0.6080 0.4445
C17 C 0.3901(4) 0.48203(16) 0.32873(17)
C18 C 0.2505(4) 0.40865(16) 0.25323(17)
H14 H 0.1252 0.4229 0.2339
C19 C 0.2900(4) 0.31596(16) 0.20607(17)
H15 H 0.1927 0.2694 0.1556
C20 C 0.4755(4) 0.29123(17) 0.23358(17)
C21 C 0.6171(4) 0.36473(17) 0.30876(17)
H16 H 0.7428 0.3502 0.3276
C22 C 0.5788(4) 0.45827(17) 0.35649(17)
C23 C 0.7395(4) 0.53356(18) 0.43739(19)
H17 H 0.6664 0.5561 0.4933
H18 H 0.7931 0.5867 0.4261
H19 H 0.8613 0.5057 0.4443
C24 C 0.7210(4) 0.1748(2) 0.20850(19)
H20 H 0.8401 0.2244 0.2120
H21 H 0.7403 0.1141 0.1566
C25 C 0.7428(4) 0.16712(17) 0.29677(18)
C26 C 0.5675(5) 0.1316(2) 0.3292(2)
H22 H 0.4272 0.1150 0.2982
C27 C 0.5952(6) 0.1199(2) 0.4075(2)
H23 H 0.4746 0.0954 0.4286
C28 C 0.8019(7) 0.1447(2) 0.4535(2)
H24 H 0.8221 0.1365 0.5058
C29 C 0.9765(6) 0.1810(2) 0.4228(2)
H25 H 1.1162 0.1982 0.4544
C30 C 0.9489(5) 0.1928(2) 0.3453(2)
H26 H 1.0701 0.2183 0.3253
C31 C 0.3526(4) 0.12062(17) 0.11640(18)
H27 H 0.2069 0.1263 0.1378
H28 H 0.3827 0.0592 0.1076
C32 C 0.3481(4) 0.11918(16) 0.02341(18)
C33 C 0.5377(5) 0.14524(19) -0.0090(2)
H29 H 0.6711 0.1659 0.0279
C34 C 0.5347(5) 0.1415(2) -0.0952(2)
H30 H 0.6649 0.1597 -0.1157
C35 C 0.3391(6) 0.1108(2) -0.1507(2)
H31 H 0.3366 0.1076 -0.2090
C36 C 0.1491(6) 0.0851(2) -0.1199(2)
H32 H 0.0163 0.0642 -0.1573
C37 C 0.1524(5) 0.08980(19) -0.0332(2)
H33 H 0.0211 0.0729 -0.0125
loop_
_geom_bond_atom_site_label_1
_geom_bond_atom_site_label_2
_geom_bond_site_symmetry_1
_geom_bond_site_symmetry_2
N1 C20 1_555 1_555
C1 C2 1_555 1_555
C2 H1 1_555 1_555
C3 C2 1_555 1_555
H2 C3 1_555 1_555
C4 C3 1_555 1_555
H3 C4 1_555 1_555
C5 C4 1_555 1_555
H4 C5 1_555 1_555
C6 C1 1_555 1_555
H5 C6 1_555 1_555
C7 C8 1_555 1_555
C8 H6 1_555 1_555
C9 C8 1_555 1_555
H7 C9 1_555 1_555
C10 C9 1_555 1_555
H8 C10 1_555 1_555
C11 C10 1_555 1_555
H9 C11 1_555 1_555
C12 C7 1_555 1_555
H10 C12 1_555 1_555
C13 C1 1_555 1_555
C14 C13 1_555 1_555
H11 C14 1_555 1_555
C15 C14 1_555 1_555
H12 C15 1_555 1_555
C16 C15 1_555 1_555
H13 C16 1_555 1_555
C17 C16 1_555 1_555
C18 C17 1_555 1_555
H14 C18 1_555 1_555
C19 C18 1_555 1_555
H15 C19 1_555 1_555
C20 C19 1_555 1_555
C21 C20 1_555 1_555
H16 C21 1_555 1_555
C22 C17 1_555 1_555
C23 C22 1_555 1_555
H17 C23 1_555 1_555
H18 C23 1_555 1_555
H19 C23 1_555 1_555
C24 N1 1_555 1_555
H20 C24 1_555 1_555
H21 C24 1_555 1_555
C25 C24 1_555 1_555
C26 C25 1_555 1_555
H22 C26 1_555 1_555
C27 C26 1_555 1_555
H23 C27 1_555 1_555
C28 C27 1_555 1_555
H24 C28 1_555 1_555
C29 C28 1_555 1_555
H25 C29 1_555 1_555
C30 C25 1_555 1_555
H26 C30 1_555 1_555
C31 N1 1_555 1_555
H27 C31 1_555 1_555
H28 C31 1_555 1_555
C32 C31 1_555 1_555
C33 C32 1_555 1_555
H29 C33 1_555 1_555
C34 C33 1_555 1_555
H30 C34 1_555 1_555
C35 C34 1_555 1_555
H31 C35 1_555 1_555
C36 C35 1_555 1_555
H32 C36 1_555 1_555
C37 C32 1_555 1_555
H33 C37 1_555 1_555
C5 C6 1_555 1_555
C7 C13 1_555 1_555
C11 C12 1_555 1_555
C21 C22 1_555 1_555
C29 C30 1_555 1_555
C36 C37 1_555 1_555

#END
