
#######################################################################
#
#                 Cambridge Crystallographic Data Centre
#                                CCDC 
#
#######################################################################
#
# If this CIF has been generated from an entry in the Cambridge 
# Structural Database, then it will include bibliographic, chemical, 
# crystal, experimental, refinement or atomic coordinate data resulting 
# from the CCDC's data processing and validation procedures.
#
#######################################################################

data_HAZBES
_chemical_formula_moiety         'C18 H18 O6'
_chemical_name_systematic        
'butane-1,4-diyl bis(3-(2-furyl)acrylate) polyladderane intermediate'
_symmetry_cell_setting           monoclinic
_symmetry_space_group_name_H-M   'P 21/n'
_symmetry_Int_Tables_number      14
_space_group_name_Hall           '-P 2yn'
loop_
_symmetry_equiv_pos_site_id
_symmetry_equiv_pos_as_xyz
1 x,y,z
2 1/2-x,1/2+y,1/2-z
3 -x,-y,-z
4 1/2+x,1/2-y,1/2+z
_cell_length_a                   7.7931(9)
_cell_length_b                   10.1473(12)
_cell_length_c                   10.1541(11)
_cell_angle_alpha                90
_cell_angle_beta                 91.361(8)
_cell_angle_gamma                90
_cell_volume                     802.749
_exptl_crystal_colour            yellow
_exptl_crystal_description       Plane
_cell_formula_units_Z            2
loop_
_atom_site_label
_atom_site_type_symbol
_atom_site_fract_x
_atom_site_fract_y
_atom_site_fract_z
O1 O 0.5649(3) 0.5354(2) 0.2456(2)
O2 O 0.8892(3) 0.3373(2) 0.6322(2)
O3 O 0.5947(4) 0.7116(2) 0.3790(2)
C1 C 1.0162(5) 0.3842(4) 0.8282(3)
H1 H 1.0772 0.3739 0.9096
C2 C 0.9499(4) 0.5040(3) 0.7737(3)
H2 H 0.9577 0.5894 0.8117
C3 C 0.8728(4) 0.4713(3) 0.6558(3)
C4 C 0.7819(4) 0.5490(3) 0.5593(3)
H3 H 0.7715 0.6406 0.5768
C5 C 0.7098(4) 0.5043(3) 0.4459(3)
H4 H 0.7173 0.4135 0.4239
C6 C 0.6198(4) 0.5961(3) 0.3566(3)
C7 C 0.4750(4) 0.6177(3) 0.1489(3)
H5 H 0.5511 0.6894 0.1191
H6 H 0.3722 0.6577 0.1880
C8 C 0.4234(4) 0.5306(3) 0.0346(3)
H7 H 0.3555 0.5831 -0.0302
H8 H 0.3488 0.4590 0.0667
C9 C 0.9748(5) 0.2883(3) 0.7406(3)
H9 H 1.0018 0.1977 0.7529
O1B O 0.4351(3) 0.4646(2) -0.2456(2)
O2B O 0.1108(3) 0.6627(2) -0.6322(2)
O3B O 0.4053(4) 0.2884(2) -0.3790(2)
C1B C -0.0162(5) 0.6158(4) -0.8282(3)
H1B H -0.0772 0.6261 -0.9096
C2B C 0.0501(4) 0.4960(3) -0.7737(3)
H2B H 0.0423 0.4106 -0.8117
C3B C 0.1272(4) 0.5287(3) -0.6558(3)
C4B C 0.2181(4) 0.4510(3) -0.5593(3)
H3B H 0.2285 0.3594 -0.5768
C5B C 0.2902(4) 0.4957(3) -0.4459(3)
H4B H 0.2827 0.5865 -0.4239
C6B C 0.3802(4) 0.4039(3) -0.3566(3)
C7B C 0.5250(4) 0.3823(3) -0.1489(3)
H5B H 0.4489 0.3106 -0.1191
H6B H 0.6278 0.3423 -0.1880
C8B C 0.5766(4) 0.4694(3) -0.0346(3)
H7B H 0.6445 0.4169 0.0302
H8B H 0.6512 0.5410 -0.0667
C9B C 0.0252(5) 0.7117(3) -0.7406(3)
H9B H -0.0018 0.8023 -0.7529
H10? H 1.0172 0.3883 0.9217
H11? H 0.8315 0.6316 0.5495
C10? C 1.068(6) 0.500(4) 0.702(4)
H12? H 1.0353 0.5912 0.7306
C11? C 0.952(5) 0.456(4) 0.579(4)
H13? H 0.7475 0.3992 0.4013
C12? C 0.872(5) 0.548(3) 0.508(4)
C13? C 0.787(6) 0.492(4) 0.388(5)
loop_
_geom_bond_atom_site_label_1
_geom_bond_atom_site_label_2
_geom_bond_site_symmetry_1
_geom_bond_site_symmetry_2
O1 C6 1_555 1_555
O2 C3 1_555 1_555
O3 C6 1_555 1_555
C1 H1 1_555 1_555
C2 C1 1_555 1_555
H2 C2 1_555 1_555
C3 C2 1_555 1_555
C4 C3 1_555 1_555
H3 C4 1_555 1_555
C5 C4 1_555 1_555
H4 C5 1_555 1_555
C6 C5 1_555 1_555
C7 O1 1_555 1_555
H5 C7 1_555 1_555
H6 C7 1_555 1_555
C8 C7 1_555 1_555
H7 C8 1_555 1_555
H8 C8 1_555 1_555
C9 O2 1_555 1_555
H9 C9 1_555 1_555
O1B C6B 1_555 1_555
O2B C3B 1_555 1_555
O3B C6B 1_555 1_555
C1B H1B 1_555 1_555
C2B C1B 1_555 1_555
H2B C2B 1_555 1_555
C3B C2B 1_555 1_555
C4B C3B 1_555 1_555
H3B C4B 1_555 1_555
C5B C4B 1_555 1_555
H4B C5B 1_555 1_555
C6B C5B 1_555 1_555
C7B O1B 1_555 1_555
H5B C7B 1_555 1_555
H6B C7B 1_555 1_555
C8B C8 1_555 1_555
H7B C8B 1_555 1_555
H8B C8B 1_555 1_555
C9B O2B 1_555 1_555
H9B C9B 1_555 1_555
C1 C9 1_555 1_555
C1B C9B 1_555 1_555
C7B C8B 1_555 1_555

#END
