
#######################################################################
#
#                 Cambridge Crystallographic Data Centre
#                                CCDC 
#
#######################################################################
#
# If this CIF has been generated from an entry in the Cambridge 
# Structural Database, then it will include bibliographic, chemical, 
# crystal, experimental, refinement or atomic coordinate data resulting 
# from the CCDC's data processing and validation procedures.
#
#######################################################################

data_HAZXOY
_chemical_formula_moiety         'C26 H31 O1 P1 S1'
_chemical_name_systematic        
'dicyclohexyl(3-phenyl-1-benzofuran-2-yl)phosphane sulfide'
_symmetry_cell_setting           triclinic
_symmetry_space_group_name_H-M   'P -1'
_symmetry_Int_Tables_number      2
_space_group_name_Hall           '-P 1'
loop_
_symmetry_equiv_pos_site_id
_symmetry_equiv_pos_as_xyz
1 x,y,z
2 -x,-y,-z
_cell_length_a                   9.7031(8)
_cell_length_b                   10.2466(5)
_cell_length_c                   12.6418(10)
_cell_angle_alpha                112.471(5)
_cell_angle_beta                 90.022(7)
_cell_angle_gamma                107.012(6)
_cell_volume                     1101.65
_exptl_crystal_colour            colorless
_exptl_crystal_description       prism
_cell_formula_units_Z            2
loop_
_atom_site_label
_atom_site_type_symbol
_atom_site_fract_x
_atom_site_fract_y
_atom_site_fract_z
P1 P 0.60155(3) 0.76186(3) 0.37179(2)
S1 S 0.67020(3) 0.93194(3) 0.32916(2)
O1 O 0.61449(8) 0.48557(8) 0.31488(6)
C1 C 0.65130(11) 0.37151(12) 0.23326(9)
C2 C 0.64226(13) 0.23689(12) 0.23901(9)
H1 H 0.6138 0.2167 0.3045
C3 C 0.67711(13) 0.13347(13) 0.14391(10)
H2 H 0.6727 0.0396 0.1439
C4 C 0.71879(13) 0.16465(13) 0.04754(10)
H3 H 0.7404 0.0907 -0.0169
C5 C 0.72907(12) 0.30072(12) 0.04429(9)
H4 H 0.7582 0.3212 -0.0210
C6 C 0.69526(11) 0.40721(12) 0.13994(9)
C7 C 0.68411(11) 0.55427(12) 0.16623(9)
C8 C 0.63488(11) 0.59581(11) 0.27147(9)
C9 C 0.72097(11) 0.63324(11) 0.08851(8)
C10 C 0.62236(11) 0.68643(12) 0.05024(9)
H5 H 0.5290 0.6738 0.0755
C11 C 0.65995(12) 0.75774(12) -0.02460(9)
H6 H 0.5923 0.7938 -0.0500
C12 C 0.79588(13) 0.77639(13) -0.06219(9)
H7 H 0.8218 0.8262 -0.1126
C13 C 0.89406(12) 0.72212(14) -0.02602(10)
H8 H 0.9869 0.7341 -0.0522
C14 C 0.85669(12) 0.65043(13) 0.04826(9)
H9 H 0.9239 0.6126 0.0720
C15 C 0.40570(11) 0.70996(12) 0.38231(9)
H10 H 0.3873 0.8021 0.4370
C16 C 0.34715(12) 0.59067(12) 0.43085(9)
H11 H 0.3569 0.4948 0.3772
H12 H 0.4042 0.6206 0.5060
C17 C 0.18651(12) 0.57213(13) 0.44665(10)
H13 H 0.1490 0.4958 0.4784
H14 H 0.1776 0.6674 0.5024
C18 C 0.09626(12) 0.52564(13) 0.33183(10)
H15 H -0.0059 0.5186 0.3445
H16 H 0.0981 0.4261 0.2785
C19 C 0.15498(12) 0.63749(14) 0.27734(11)
H17 H 0.1395 0.7330 0.3253
H18 H 0.1001 0.5997 0.2000
C20 C 0.31745(12) 0.66501(13) 0.26574(9)
H19 H 0.3530 0.7450 0.2373
H20 H 0.3316 0.5734 0.2086
C21 C 0.69363(11) 0.79182(11) 0.50970(9)
H21 H 0.6468 0.7039 0.5286
C22 C 0.85559(12) 0.80803(13) 0.50345(10)
H22 H 0.8658 0.7151 0.4450
H23 H 0.9020 0.8903 0.4794
C23 C 0.93228(13) 0.84022(14) 0.62099(11)
H24 H 0.8918 0.7536 0.6414
H25 H 1.0371 0.8545 0.6157
C24 C 0.91401(13) 0.97836(13) 0.71531(10)
H26 H 0.9633 1.0669 0.6992
H27 H 0.9601 0.9926 0.7905
C25 C 0.75339(14) 0.96374(14) 0.72187(9)
H28 H 0.7443 1.0573 0.7802
H29 H 0.7068 0.8823 0.7468
C26 C 0.67489(13) 0.93102(13) 0.60511(9)
H30 H 0.7140 1.0176 0.5844
H31 H 0.5701 0.9160 0.6112
loop_
_geom_bond_atom_site_label_1
_geom_bond_atom_site_label_2
_geom_bond_site_symmetry_1
_geom_bond_site_symmetry_2
P1 S1 1_555 1_555
O1 C1 1_555 1_555
C1 C2 1_555 1_555
C2 H1 1_555 1_555
C3 C2 1_555 1_555
H2 C3 1_555 1_555
C4 C3 1_555 1_555
H3 C4 1_555 1_555
C5 C4 1_555 1_555
H4 C5 1_555 1_555
C6 C1 1_555 1_555
C7 C6 1_555 1_555
C8 P1 1_555 1_555
C9 C7 1_555 1_555
C10 C9 1_555 1_555
H5 C10 1_555 1_555
C11 C10 1_555 1_555
H6 C11 1_555 1_555
C12 C11 1_555 1_555
H7 C12 1_555 1_555
C13 C12 1_555 1_555
H8 C13 1_555 1_555
C14 C9 1_555 1_555
H9 C14 1_555 1_555
C15 P1 1_555 1_555
H10 C15 1_555 1_555
C16 C15 1_555 1_555
H11 C16 1_555 1_555
H12 C16 1_555 1_555
C17 C16 1_555 1_555
H13 C17 1_555 1_555
H14 C17 1_555 1_555
C18 C17 1_555 1_555
H15 C18 1_555 1_555
H16 C18 1_555 1_555
C19 C18 1_555 1_555
H17 C19 1_555 1_555
H18 C19 1_555 1_555
C20 C15 1_555 1_555
H19 C20 1_555 1_555
H20 C20 1_555 1_555
C21 P1 1_555 1_555
H21 C21 1_555 1_555
C22 C21 1_555 1_555
H22 C22 1_555 1_555
H23 C22 1_555 1_555
C23 C22 1_555 1_555
H24 C23 1_555 1_555
H25 C23 1_555 1_555
C24 C23 1_555 1_555
H26 C24 1_555 1_555
H27 C24 1_555 1_555
C25 C24 1_555 1_555
H28 C25 1_555 1_555
H29 C25 1_555 1_555
C26 C21 1_555 1_555
H30 C26 1_555 1_555
H31 C26 1_555 1_555
O1 C8 1_555 1_555
C5 C6 1_555 1_555
C7 C8 1_555 1_555
C13 C14 1_555 1_555
C19 C20 1_555 1_555
C25 C26 1_555 1_555

#END
