
#######################################################################
#
#                 Cambridge Crystallographic Data Centre
#                                CCDC 
#
#######################################################################
#
# If this CIF has been generated from an entry in the Cambridge 
# Structural Database, then it will include bibliographic, chemical, 
# crystal, experimental, refinement or atomic coordinate data resulting 
# from the CCDC's data processing and validation procedures.
#
#######################################################################

data_HDASYC
_chemical_formula_moiety         'C21 H35 N3'
_chemical_name_systematic        Homodasycarpine
_symmetry_cell_setting           orthorhombic
_symmetry_space_group_name_H-M   'P 21 21 21'
_symmetry_Int_Tables_number      19
_space_group_name_Hall           'P 2ac 2ab'
loop_
_symmetry_equiv_pos_site_id
_symmetry_equiv_pos_as_xyz
1 x,y,z
2 1/2+x,1/2-y,-z
3 -x,1/2+y,1/2-z
4 1/2-x,-y,1/2+z
_cell_length_a                   6.835(1)
_cell_length_b                   9.243(1)
_cell_length_c                   29.420(2)
_cell_angle_alpha                90
_cell_angle_beta                 90
_cell_angle_gamma                90
_cell_volume                     1858.64
_cell_formula_units_Z            4
loop_
_atom_site_label
_atom_site_type_symbol
_atom_site_fract_x
_atom_site_fract_y
_atom_site_fract_z
N1 N 0.18400 0.60900 0.33311
C1 C 0.20070 0.69080 0.29083
C2 C 0.04420 0.65500 0.25539
C3 C -0.15760 0.67730 0.27609
C4 C -0.17830 0.58610 0.31931
C5 C -0.01200 0.62030 0.35293
C6 C -0.02770 0.53030 0.39669
C7 C 0.03390 0.37350 0.38794
C8 C 0.24930 0.37120 0.37318
C9 C 0.26420 0.46250 0.32951
C10 C 0.37770 0.42880 0.41251
N2 N 0.36630 0.32800 0.45135
C11 C 0.49580 0.37580 0.48855
C12 C 0.42850 0.51900 0.50761
C13 C 0.43190 0.63180 0.46983
C14 C 0.31430 0.58210 0.42815
C15 C 0.09460 0.59070 0.43602
C16 C 0.30810 0.21360 0.36110
C17 C 0.50240 0.19650 0.33481
C18 C 0.54120 0.03540 0.32486
C19 C 0.53260 -0.05500 0.36814
C20 C 0.33950 -0.02730 0.39283
N3 N 0.30170 0.12610 0.40275
C21 C 0.43000 0.18250 0.43803
H1 H 0.18400 0.80100 0.29660
H2 H 0.33700 0.68500 0.27800
H3 H 0.06200 0.71700 0.23170
H4 H 0.05700 0.55800 0.24740
H5 H -0.17000 0.77900 0.28390
H6 H -0.26000 0.65400 0.25450
H7 H -0.30700 0.60600 0.33550
H8 H -0.17900 0.47800 0.30930
H9 H -0.03300 0.72400 0.36170
H10 H -0.16300 0.52900 0.40540
H11 H -0.04400 0.33300 0.36360
H12 H 0.01900 0.31300 0.41710
H13 H 0.39900 0.47100 0.32090
H14 H 0.20400 0.40000 0.30350
H15 H 0.51100 0.43300 0.39940
H16 H 0.63700 0.38000 0.47760
H17 H 0.49900 0.30700 0.50960
H18 H 0.29100 0.50600 0.51950
H19 H 0.50600 0.54700 0.53090
H20 H 0.58400 0.65200 0.46150
H21 H 0.37800 0.72600 0.48100
H22 H 0.34500 0.65500 0.40350
H23 H 0.05600 0.68900 0.44230
H24 H 0.05500 0.53500 0.46690
H25 H 0.19800 0.17500 0.34100
H26 H 0.60900 0.24100 0.35210
H27 H 0.49600 0.24900 0.30170
H28 H 0.66900 0.02100 0.30960
H29 H 0.43500 0.00400 0.30190
H30 H 0.54200 -0.15600 0.36120
H31 H 0.64100 -0.03800 0.38870
H32 H 0.33700 -0.08500 0.42360
H33 H 0.20100 -0.06500 0.37190
H34 H 0.56800 0.19200 0.42650
H35 H 0.42300 0.11600 0.46500
loop_
_geom_bond_atom_site_label_1
_geom_bond_atom_site_label_2
_geom_bond_site_symmetry_1
_geom_bond_site_symmetry_2
N1 C1 1_555 1_555
C1 C2 1_555 1_555
C2 C3 1_555 1_555
C3 C4 1_555 1_555
C4 C5 1_555 1_555
C5 N1 1_555 1_555
C6 C5 1_555 1_555
C7 C6 1_555 1_555
C8 C7 1_555 1_555
C9 N1 1_555 1_555
C10 C8 1_555 1_555
N2 C10 1_555 1_555
C11 N2 1_555 1_555
C12 C11 1_555 1_555
C13 C12 1_555 1_555
C14 C10 1_555 1_555
C15 C6 1_555 1_555
C16 C8 1_555 1_555
C17 C16 1_555 1_555
C18 C17 1_555 1_555
C19 C18 1_555 1_555
C20 C19 1_555 1_555
N3 C16 1_555 1_555
C21 N2 1_555 1_555
H1 C1 1_555 1_555
H2 C1 1_555 1_555
H3 C2 1_555 1_555
H4 C2 1_555 1_555
H5 C3 1_555 1_555
H6 C3 1_555 1_555
H7 C4 1_555 1_555
H8 C4 1_555 1_555
H9 C5 1_555 1_555
H10 C6 1_555 1_555
H11 C7 1_555 1_555
H12 C7 1_555 1_555
H13 C9 1_555 1_555
H14 C9 1_555 1_555
H15 C10 1_555 1_555
H16 C11 1_555 1_555
H17 C11 1_555 1_555
H18 C12 1_555 1_555
H19 C12 1_555 1_555
H20 C13 1_555 1_555
H21 C13 1_555 1_555
H22 C14 1_555 1_555
H23 C15 1_555 1_555
H24 C15 1_555 1_555
H25 C16 1_555 1_555
H26 C17 1_555 1_555
H27 C17 1_555 1_555
H28 C18 1_555 1_555
H29 C18 1_555 1_555
H30 C19 1_555 1_555
H31 C19 1_555 1_555
H32 C20 1_555 1_555
H33 C20 1_555 1_555
H34 C21 1_555 1_555
H35 C21 1_555 1_555
C8 C9 1_555 1_555
C13 C14 1_555 1_555
C14 C15 1_555 1_555
C20 N3 1_555 1_555
N3 C21 1_555 1_555

#END
