
#######################################################################
#
#                 Cambridge Crystallographic Data Centre
#                                CCDC 
#
#######################################################################
#
# If this CIF has been generated from an entry in the Cambridge 
# Structural Database, then it will include bibliographic, chemical, 
# crystal, experimental, refinement or atomic coordinate data resulting 
# from the CCDC's data processing and validation procedures.
#
#######################################################################

data_HEBDUN
_chemical_formula_moiety         'C18 H21 N2 P1 S2'
_chemical_name_systematic        
3,4-Diphenyl-5-methyl-5-propyl-1,3,4-diazaphospholidin-2-thione-4-sulfide
_symmetry_cell_setting           triclinic
_symmetry_space_group_name_H-M   'P -1'
_symmetry_Int_Tables_number      2
_space_group_name_Hall           '-P 1'
loop_
_symmetry_equiv_pos_site_id
_symmetry_equiv_pos_as_xyz
1 x,y,z
2 -x,-y,-z
_cell_length_a                   11.989(6)
_cell_length_b                   12.322(4)
_cell_length_c                   13.788(8)
_cell_angle_alpha                72.32(5)
_cell_angle_beta                 75.44(5)
_cell_angle_gamma                80.89(4)
_cell_volume                     1870.91
_exptl_crystal_colour            'light yellow'
_cell_formula_units_Z            4
loop_
_atom_site_label
_atom_site_type_symbol
_atom_site_fract_x
_atom_site_fract_y
_atom_site_fract_z
S1 S 1.2886(4) -0.0490(2) 0.6653(2)
S2 S 1.2421(3) -0.0310(2) 1.0814(2)
P1 P 1.3063(3) 0.0351(2) 0.7556(2)
N1 N 1.3076(9) -0.0372(6) 0.8833(5)
N2 N 1.1812(9) 0.1101(6) 0.9101(6)
C1 C 1.245(1) 0.0134(7) 0.9547(6)
C2 C 1.180(1) 0.1290(7) 0.7990(7)
C3 C 1.436(1) 0.1046(8) 0.7121(7)
C4 C 1.467(1) 0.1585(9) 0.7787(9)
C5 C 1.570(1) 0.209(1) 0.744(1)
C6 C 1.637(2) 0.215(2) 0.649(2)
C7 C 1.610(2) 0.161(2) 0.584(1)
C8 C 1.505(1) 0.111(1) 0.616(1)
C9 C 1.389(1) -0.1378(7) 0.9096(7)
C10 C 1.491(1) -0.1258(8) 0.9342(8)
C11 C 1.568(1) -0.221(8) 0.9601(7)
C12 C 1.545(1) -0.3255(9) 0.9538(8)
C13 C 1.448(1) -0.3357(8) 0.9264(9)
C14 C 1.365(1) -0.2412(8) 0.9037(8)
C15 C 1.068(1) 0.0953(9) 0.791(1)
C23 C 1.193(1) 0.2598(7) 0.7440(8)
C24 C 1.201(1) 0.2883(9) 0.6252(8)
C25 C 1.248(2) 0.408(1) 0.572(1)
H1 H 1.139 0.162 0.949
S3 S 0.9257(4) 0.2594(3) 1.4634(2)
S4 S 0.9645(3) 0.2475(2) 1.0471(2)
P2 P 1.0156(3) 0.2889(2) 1.3240(2)
N3 N 0.9465(9) 0.2991(6) 1.2268(6)
N4 N 1.0998(9) 0.1783(6) 1.1837(6)
C16 C 1.004(1) 0.2403(7) 1.1561(7)
C17 C 1.120(1) 0.1697(7) 1.2887(7)
C18 C 1.085(1) 0.4207(7) 1.2790(8)
C19 C 1.139(1) 0.459(9) 1.1745(8)
C20 C 1.188(1) 0.565(1) 1.140(1)
C21 C 1.183(2) 0.624(1) 1.210(1)
C22 C 1.132(2) 0.583(1) 1.316(1)
C26 C 1.084(1) 0.4797(9) 1.350(1)
C27 C 0.845(1) 0.3793(8) 1.2135(8)
C28 C 0.859(1) 0.4824(8) 1.1329(8)
C29 C 0.762(1) 0.5579(9) 1.124(1)
C30 C 0.658(1) 0.5341(9) 1.185(1)
C31 C 0.646(1) 0.432(1) 1.268(1)
C32 C 0.744(1) 0.3547(9) 1.2761(9)
C33 C 1.079(1) 0.0539(8) 1.3657(9)
C34 C 1.243(1) 0.1842(8) 1.2800(7)
C35 C 1.273(1) 0.187(1) 1.3820(8)
C36 C 1.389(2) 0.2290(2) 1.360(1)
H2 H 1.153 0.141 1.137
loop_
_geom_bond_atom_site_label_1
_geom_bond_atom_site_label_2
_geom_bond_site_symmetry_1
_geom_bond_site_symmetry_2
S1 P1 1_555 1_555
S2 C1 1_555 1_555
P1 N1 1_555 1_555
N1 C1 1_555 1_555
N2 C1 1_555 1_555
C2 P1 1_555 1_555
C3 P1 1_555 1_555
C4 C3 1_555 1_555
C5 C4 1_555 1_555
C6 C5 1_555 1_555
C7 C6 1_555 1_555
C8 C3 1_555 1_555
C9 N1 1_555 1_555
C10 C9 1_555 1_555
C11 C10 1_555 1_555
C12 C11 1_555 1_555
C13 C12 1_555 1_555
C14 C9 1_555 1_555
C15 C2 1_555 1_555
S3 P2 1_555 1_555
S4 C16 1_555 1_555
P2 N3 1_555 1_555
N3 C16 1_555 1_555
N4 C16 1_555 1_555
C17 P2 1_555 1_555
C18 P2 1_555 1_555
C19 C18 1_555 1_555
C20 C19 1_555 1_555
C21 C20 1_555 1_555
C22 C21 1_555 1_555
C23 C2 1_555 1_555
C24 C23 1_555 1_555
C25 C24 1_555 1_555
H1 N2 1_555 1_555
C26 C18 1_555 1_555
C27 N3 1_555 1_555
C28 C27 1_555 1_555
C29 C28 1_555 1_555
C30 C29 1_555 1_555
C31 C30 1_555 1_555
C32 C27 1_555 1_555
C33 C17 1_555 1_555
C34 C17 1_555 1_555
C35 C34 1_555 1_555
C36 C35 1_555 1_555
H2 N4 1_555 1_555
N2 C2 1_555 1_555
C7 C8 1_555 1_555
C13 C14 1_555 1_555
N4 C17 1_555 1_555
C22 C26 1_555 1_555
C31 C32 1_555 1_555

#END
