
#######################################################################
#
#                 Cambridge Crystallographic Data Centre
#                                CCDC 
#
#######################################################################
#
# If this CIF has been generated from an entry in the Cambridge 
# Structural Database, then it will include bibliographic, chemical, 
# crystal, experimental, refinement or atomic coordinate data resulting 
# from the CCDC's data processing and validation procedures.
#
#######################################################################

data_HEBKEF
_chemical_formula_moiety         'C15 H12 N4 O2 S1'
_chemical_name_systematic        
3-(2-Hydroxybenzyl)-4-(4-hydroxybenzylideneamino)-1H-1,2,4-triazole-5-thione
_chemical_properties_biological  
'moderate antibacterial activity towards Staphylococcus aureus and Bacillus subtilis'
_symmetry_cell_setting           monoclinic
_symmetry_space_group_name_H-M   'C 2/c'
_symmetry_Int_Tables_number      15
_space_group_name_Hall           '-C 2yn'
loop_
_symmetry_equiv_pos_site_id
_symmetry_equiv_pos_as_xyz
1 x,y,z
2 1/2+x,1/2+y,z
3 -x,y,1/2-z
4 1/2-x,1/2+y,1/2-z
5 -x,-y,-z
6 1/2-x,1/2-y,-z
7 x,-y,1/2+z
8 1/2+x,1/2-y,1/2+z
_cell_length_a                   27.990(3)
_cell_length_b                   13.1326(14)
_cell_length_c                   7.9770(8)
_cell_angle_alpha                90
_cell_angle_beta                 105.787(2)
_cell_angle_gamma                90
_cell_volume                     2821.59
_exptl_crystal_colour            colorless
_exptl_crystal_description       block
_chemical_melting_point          232-233deg.C
_cell_formula_units_Z            8
_exptl_crystal_recrystallization_method EtOH
loop_
_atom_site_label
_atom_site_type_symbol
_atom_site_fract_x
_atom_site_fract_y
_atom_site_fract_z
S1 S 0.485536(17) 0.33486(3) -0.01836(6)
O1 O 0.32189(6) 0.59203(10) 0.2448(2)
O2 O 0.40014(6) -0.23792(10) 0.1375(2)
N1 N 0.40175(5) 0.34766(9) 0.09676(17)
N2 N 0.39501(5) 0.51093(9) 0.13985(19)
N3 N 0.43618(6) 0.48945(9) 0.08646(19)
N4 N 0.38807(5) 0.24406(9) 0.06730(18)
C1 C 0.44138(6) 0.39132(11) 0.0569(2)
C2 C 0.37336(6) 0.42267(11) 0.1436(2)
C3 C 0.32742(6) 0.41060(12) 0.1945(2)
C4 C 0.30465(8) 0.31654(15) 0.1960(3)
H1 H 0.3187 0.2589 0.1612
C5 C 0.26187(8) 0.30654(17) 0.2477(3)
H2 H 0.2473 0.2429 0.2476
C6 C 0.24093(8) 0.39076(19) 0.2992(3)
H3 H 0.2124 0.3840 0.3366
C7 C 0.26144(7) 0.48398(17) 0.2963(3)
H4 H 0.2465 0.5407 0.3304
C8 C 0.30454(7) 0.49616(14) 0.2431(2)
C9 C 0.41747(7) 0.18529(12) 0.1729(2)
C10 C 0.41093(6) 0.07558(12) 0.1644(2)
C11 C 0.44514(7) 0.01592(12) 0.2793(2)
H5 H 0.4709 0.0470 0.3625
C12 C 0.44215(8) -0.08852(13) 0.2737(3)
H6 H 0.4657 -0.1276 0.3521
C13 C 0.40407(7) -0.13489(13) 0.1517(3)
C14 C 0.36852(7) -0.07618(13) 0.0376(2)
H7 H 0.3423 -0.1075 -0.0433
C15 C 0.37188(7) 0.02774(13) 0.0437(2)
H8 H 0.3479 0.0668 -0.0332
H9 H 0.3466(7) 0.5953(16) 0.203(3)
H10 H 0.4250(11) -0.267(3) 0.228(4)
H11 H 0.4570(6) 0.5355(11) 0.076(2)
H12 H 0.4468(7) 0.2116(11) 0.270(2)
loop_
_geom_bond_atom_site_label_1
_geom_bond_atom_site_label_2
_geom_bond_site_symmetry_1
_geom_bond_site_symmetry_2
S1 C1 1_555 1_555
O1 C8 1_555 1_555
O2 C13 1_555 1_555
N1 N4 1_555 1_555
N2 N3 1_555 1_555
N3 C1 1_555 1_555
N4 C9 1_555 1_555
C1 N1 1_555 1_555
C2 N1 1_555 1_555
C3 C2 1_555 1_555
C4 C3 1_555 1_555
H1 C4 1_555 1_555
C5 C4 1_555 1_555
H2 C5 1_555 1_555
C6 C5 1_555 1_555
H3 C6 1_555 1_555
C7 C6 1_555 1_555
H4 C7 1_555 1_555
C8 C3 1_555 1_555
C9 C10 1_555 1_555
C10 C11 1_555 1_555
C11 H5 1_555 1_555
C12 C11 1_555 1_555
H6 C12 1_555 1_555
C13 C12 1_555 1_555
C14 C13 1_555 1_555
H7 C14 1_555 1_555
C15 C10 1_555 1_555
H8 C15 1_555 1_555
H9 O1 1_555 1_555
H10 O2 1_555 1_555
H11 N3 1_555 1_555
H12 C9 1_555 1_555
N2 C2 1_555 1_555
C7 C8 1_555 1_555
C14 C15 1_555 1_555

#END
