
#######################################################################
#
#                 Cambridge Crystallographic Data Centre
#                                CCDC 
#
#######################################################################
#
# If this CIF has been generated from an entry in the Cambridge 
# Structural Database, then it will include bibliographic, chemical, 
# crystal, experimental, refinement or atomic coordinate data resulting 
# from the CCDC's data processing and validation procedures.
#
#######################################################################

data_HEBLUV
_chemical_formula_moiety         'C13 H20 Br1 N2 O1 1+,Cl1 1-'
_chemical_name_systematic        
"2'-Bromophenylamide 3-diethylaminopropionic acid hydrochloride"
_symmetry_cell_setting           monoclinic
_symmetry_space_group_name_H-M   'P 21/c'
_symmetry_Int_Tables_number      14
_space_group_name_Hall           '-P 2ybc'
loop_
_symmetry_equiv_pos_site_id
_symmetry_equiv_pos_as_xyz
1 x,y,z
2 -x,1/2+y,1/2-z
3 -x,-y,-z
4 x,1/2-y,1/2+z
_cell_length_a                   11.288(4)
_cell_length_b                   7.398(2)
_cell_length_c                   18.963(6)
_cell_angle_alpha                90
_cell_angle_beta                 109.15(2)
_cell_angle_gamma                90
_cell_volume                     1495.94
_exptl_crystal_colour            colorless
_cell_formula_units_Z            4
loop_
_atom_site_label
_atom_site_type_symbol
_atom_site_fract_x
_atom_site_fract_y
_atom_site_fract_z
Cl1 Cl -0.0594(2) -0.2507(3) 0.1396(1)
Br1 Br 0.4389(1) 0.1568(1) 0.3951(1)
O1 O 0.1889(5) 0.0861(8) 0.1299(3)
N1 N -0.1172(5) 0.1413(7) 0.0835(3)
N2 N 0.2119(5) 0.0810(8) 0.2533(3)
C1 C -0.0892(7) 0.2100(11) 0.0158(4)
C2 C -0.1561(8) 0.3886(11) -0.0120(4)
C3 C -0.2559(7) 0.1085(10) 0.0696(4)
C4 C -0.3127(7) -0.0112(11) 0.0035(4)
C5 C -0.0638(7) 0.2523(10) 0.1537(4)
C6 C 0.0727(7) 0.3036(10) 0.1753(4)
C7 C 0.1629(6) 0.1473(11) 0.1831(4)
C8 C 0.2992(6) -0.0643(11) 0.2720(3)
C9 C 0.2808(7) -0.2225(11) 0.2303(4)
C10 C 0.3672(8) -0.3611(12) 0.2488(5)
C11 C 0.4734(8) -0.3436(13) 0.3095(6)
C12 C 0.4949(8) -0.1908(13) 0.3536(5)
C13 C 0.4079(7) -0.0520(11) 0.3338(4)
H1 H -0.090(5) 0.039(7) 0.096(3)
H2 H -0.124(5) 0.125(7) -0.021(3)
H3 H 0.000(5) 0.226(7) 0.030(3)
H4 H -0.389(8) -0.021(12) 0.002(4)
H5 H -0.324(5) 0.038(7) -0.044(3)
H6 H -0.273(9) -0.124(12) 0.014(5)
H7 H -0.261(6) 0.060(10) 0.118(3)
H8 H -0.293(5) 0.224(7) 0.066(3)
H9 H -0.121(7) 0.492(11) 0.026(4)
H10 H -0.240(7) 0.358(10) -0.044(4)
H11 H -0.131(6) 0.413(9) -0.053(3)
H12 H -0.107(4) 0.350(7) 0.148(3)
H13 H -0.075(5) 0.188(8) 0.191(3)
H14 H 0.092(5) 0.384(7) 0.140(3)
H15 H 0.098(6) 0.370(9) 0.219(4)
H16 H 0.197(6) 0.134(8) 0.291(3)
H17 H 0.215(5) -0.220(8) 0.196(3)
H18 H 0.344(6) -0.498(9) 0.220(3)
H19 H 0.530(3) -0.399(5) 0.320(2)
H20 H 0.572(6) -0.162(8) 0.397(3)
loop_
_geom_bond_atom_site_label_1
_geom_bond_atom_site_label_2
_geom_bond_site_symmetry_1
_geom_bond_site_symmetry_2
Br1 C13 1_555 1_555
O1 C7 1_555 1_555
N1 C1 1_555 1_555
N2 C7 1_555 1_555
C1 C2 1_555 1_555
C2 H9 1_555 1_555
C3 N1 1_555 1_555
C4 C3 1_555 1_555
C5 N1 1_555 1_555
C6 C5 1_555 1_555
C7 C6 1_555 1_555
C8 N2 1_555 1_555
C9 C8 1_555 1_555
C10 C9 1_555 1_555
C11 C10 1_555 1_555
C12 C11 1_555 1_555
C13 C8 1_555 1_555
H1 N1 1_555 1_555
H2 C1 1_555 1_555
H3 C1 1_555 1_555
H4 C4 1_555 1_555
H5 C4 1_555 1_555
H6 C4 1_555 1_555
H7 C3 1_555 1_555
H8 C3 1_555 1_555
H10 C2 1_555 1_555
H11 C2 1_555 1_555
H12 C5 1_555 1_555
H13 C5 1_555 1_555
H14 C6 1_555 1_555
H15 C6 1_555 1_555
H16 N2 1_555 1_555
H17 C9 1_555 1_555
H18 C10 1_555 1_555
H19 C11 1_555 1_555
H20 C12 1_555 1_555
C12 C13 1_555 1_555

#END
