
#######################################################################
#
#                 Cambridge Crystallographic Data Centre
#                                CCDC 
#
#######################################################################
#
# If this CIF has been generated from an entry in the Cambridge 
# Structural Database, then it will include bibliographic, chemical, 
# crystal, experimental, refinement or atomic coordinate data resulting 
# from the CCDC's data processing and validation procedures.
#
#######################################################################

data_HEBYOF
_chemical_formula_moiety         'C15 H19 F3 N2 O4 S1'
_chemical_name_systematic        
4-nitro-N-[2-(trifluoromethyl)cyclooctyl]benzene-1-sulfonamide
_symmetry_cell_setting           triclinic
_symmetry_space_group_name_H-M   'P -1'
_symmetry_Int_Tables_number      2
_space_group_name_Hall           '-P 1'
loop_
_symmetry_equiv_pos_site_id
_symmetry_equiv_pos_as_xyz
1 x,y,z
2 -x,-y,-z
_cell_length_a                   7.6537(13)
_cell_length_b                   10.3038(17)
_cell_length_c                   11.700(2)
_cell_angle_alpha                69.471(2)
_cell_angle_beta                 74.774(2)
_cell_angle_gamma                75.983(2)
_cell_volume                     822.175
_exptl_crystal_colour            colorless
_exptl_crystal_description       needle
_cell_formula_units_Z            2
_exptl_crystal_recrystallization_method 'used as received'
loop_
_atom_site_label
_atom_site_type_symbol
_atom_site_fract_x
_atom_site_fract_y
_atom_site_fract_z
S1 S 0.31217(5) 0.71103(4) 0.53468(3)
F1 F 0.53699(13) 0.48159(12) 0.79093(10)
F2 F 0.48056(15) 0.32277(11) 0.96553(10)
F3 F 0.33004(15) 0.53324(12) 0.93862(11)
O1 O 0.82150(19) 0.96204(16) 0.75913(13)
O2 O 0.13020(15) 0.78604(11) 0.52938(10)
O3 O 0.43862(16) 0.69750(12) 0.42286(10)
O4 O 0.5534(2) 1.04588(16) 0.84656(13)
N1 N 0.30103(18) 0.55367(14) 0.62510(12)
N2 N 0.6538(2) 0.97963(15) 0.77899(13)
C1 C 0.0580(2) 0.23578(17) 0.73185(15)
H1 H 0.1921 0.2171 0.7287
H2 H 0.0324 0.1751 0.6908
C2 C 0.3821(2) 0.91349(16) 0.75334(15)
H3 H 0.3102 0.9519 0.8171
C3 C 0.1150(2) 0.32888(17) 0.95702(14)
H4 H 0.1635 0.3129 1.0322
H5 H 0.0006 0.3985 0.9598
C4 C 0.4002(2) 0.43273(18) 0.88336(16)
C5 C -0.0404(2) 0.19435(17) 0.86850(16)
H6 H -0.1565 0.2613 0.8769
H7 H -0.0730 0.1001 0.8904
C6 C 0.1676(2) 0.51895(15) 0.74348(14)
H8 H 0.1378 0.6016 0.7753
C7 C 0.6792(2) 0.86148(17) 0.62476(15)
H9 H 0.8065 0.8668 0.6006
C8 C 0.0674(2) 0.19085(16) 0.96248(15)
H10 H 0.1837 0.1245 0.9528
H11 H -0.0037 0.1512 1.0468
C9 C 0.3024(2) 0.85396(16) 0.69479(15)
H12 H 0.1739 0.8534 0.7161
C10 C 0.5685(2) 0.91585(16) 0.71704(14)
C11 C 0.4126(2) 0.79486(15) 0.60418(14)
C12 C 0.0028(2) 0.38923(17) 0.65834(15)
H13 H 0.0927 0.4107 0.5789
H14 H -0.1179 0.3989 0.6375
C13 C 0.2570(2) 0.39280(15) 0.84065(14)
H15 H 0.3190 0.3181 0.8003
C14 C -0.0109(2) 0.50027(16) 0.71964(15)
H16 H -0.0978 0.4773 0.8004
H17 H -0.0653 0.5917 0.6668
C15 C 0.5993(2) 0.79895(16) 0.56849(15)
H18 H 0.6721 0.7591 0.5058
H19 H 0.388(3) 0.496(2) 0.6146(18)
loop_
_geom_bond_atom_site_label_1
_geom_bond_atom_site_label_2
_geom_bond_site_symmetry_1
_geom_bond_site_symmetry_2
S1 O2 1_555 1_555
F1 C4 1_555 1_555
F2 C4 1_555 1_555
F3 C4 1_555 1_555
O1 N2 1_555 1_555
O3 S1 1_555 1_555
O4 N2 1_555 1_555
N1 S1 1_555 1_555
N2 C10 1_555 1_555
C1 H1 1_555 1_555
H2 C1 1_555 1_555
C2 H3 1_555 1_555
C3 H4 1_555 1_555
H5 C3 1_555 1_555
C4 C13 1_555 1_555
C5 C1 1_555 1_555
H6 C5 1_555 1_555
H7 C5 1_555 1_555
C6 N1 1_555 1_555
H8 C6 1_555 1_555
C7 H9 1_555 1_555
C8 C3 1_555 1_555
H10 C8 1_555 1_555
H11 C8 1_555 1_555
C9 C2 1_555 1_555
H12 C9 1_555 1_555
C10 C2 1_555 1_555
C11 S1 1_555 1_555
C12 C1 1_555 1_555
H13 C12 1_555 1_555
H14 C12 1_555 1_555
C13 C3 1_555 1_555
H15 C13 1_555 1_555
C14 C6 1_555 1_555
H16 C14 1_555 1_555
H17 C14 1_555 1_555
C15 C7 1_555 1_555
H18 C15 1_555 1_555
H19 N1 1_555 1_555
C5 C8 1_555 1_555
C6 C13 1_555 1_555
C7 C10 1_555 1_555
C9 C11 1_555 1_555
C11 C15 1_555 1_555
C12 C14 1_555 1_555

#END
