
#######################################################################
#
#                 Cambridge Crystallographic Data Centre
#                                CCDC 
#
#######################################################################
#
# If this CIF has been generated from an entry in the Cambridge 
# Structural Database, then it will include bibliographic, chemical, 
# crystal, experimental, refinement or atomic coordinate data resulting 
# from the CCDC's data processing and validation procedures.
#
#######################################################################

data_HEBYEV
_chemical_formula_moiety         'C16 H26 F3 N1 O2'
_chemical_name_systematic        
't-butyl [6,6-dimethyl-2-(2,2,2-trifluoroethyl)bicyclo[3.1.1]heptan-2-yl]carbamate'
_symmetry_cell_setting           orthorhombic
_symmetry_space_group_name_H-M   'P 21 21 21'
_symmetry_Int_Tables_number      19
_space_group_name_Hall           'P 2ac 2ab'
loop_
_symmetry_equiv_pos_site_id
_symmetry_equiv_pos_as_xyz
1 x,y,z
2 1/2-x,-y,1/2+z
3 -x,1/2+y,1/2-z
4 1/2+x,1/2-y,-z
_cell_length_a                   11.5790(3)
_cell_length_b                   16.9733(5)
_cell_length_c                   18.2465(4)
_cell_angle_alpha                90
_cell_angle_beta                 90
_cell_angle_gamma                90
_cell_volume                     3586.05
_exptl_crystal_colour            colorless
_exptl_crystal_description       needle
_cell_formula_units_Z            8
_exptl_crystal_recrystallization_method 'used as received'
loop_
_atom_site_label
_atom_site_type_symbol
_atom_site_fract_x
_atom_site_fract_y
_atom_site_fract_z
F1 F 0.5877(3) 0.6269(2) 0.28339(17)
F2 F 0.6840(2) 0.5890(2) 0.37696(18)
F3 F 0.5717(3) 0.50972(19) 0.32313(19)
O1 O 0.2942(3) 0.43007(16) 0.29585(14)
O2 O 0.3488(2) 0.46348(16) 0.41126(12)
N1 N 0.3313(3) 0.55406(19) 0.32033(17)
C1 C 0.2790(3) 0.6356(2) 0.4259(2)
H1 H 0.2781 0.5919 0.4627
C2 C 0.2773(3) 0.7201(2) 0.4602(2)
C3 C 0.1970(4) 0.7418(3) 0.3953(2)
H2 H 0.1343 0.7804 0.4067
C4 C 0.1595(3) 0.6545(3) 0.3924(2)
H3 H 0.1482 0.6337 0.3422
H4 H 0.0934 0.6414 0.4245
C5 C 0.3666(3) 0.6240(2) 0.36319(19)
C6 C 0.3633(4) 0.6976(2) 0.3114(2)
H5 H 0.4386 0.7250 0.3151
H6 H 0.3551 0.6788 0.2603
C7 C 0.2663(4) 0.7585(3) 0.3266(3)
H7 H 0.3014 0.8115 0.3310
H8 H 0.2131 0.7595 0.2842
C8 C 0.3851(4) 0.7689(3) 0.4722(2)
H9 H 0.4347 0.7428 0.5083
H10 H 0.3634 0.8212 0.4903
H11 H 0.4269 0.7743 0.4258
C9 C 0.2137(4) 0.7161(3) 0.5338(2)
H12 H 0.1427 0.6853 0.5281
H13 H 0.1943 0.7696 0.5500
H14 H 0.2635 0.6909 0.5704
C10 C 0.4871(3) 0.6102(3) 0.3959(2)
H15 H 0.5120 0.6597 0.4199
H16 H 0.4800 0.5697 0.4347
C11 C 0.5808(4) 0.5850(3) 0.3450(2)
C12 C 0.3266(3) 0.4812(2) 0.34801(19)
C13 C 0.2980(5) 0.3448(3) 0.3091(2)
C14 C 0.4203(6) 0.3201(3) 0.3273(3)
H17 H 0.4735 0.3425 0.2911
H18 H 0.4258 0.2625 0.3264
H19 H 0.4407 0.3394 0.3763
C15 C 0.2117(6) 0.3222(3) 0.3687(3)
H20 H 0.2361 0.3450 0.4156
H21 H 0.2086 0.2647 0.3731
H22 H 0.1351 0.3423 0.3558
C16 C 0.2633(6) 0.3119(3) 0.2355(3)
H23 H 0.1857 0.3306 0.2229
H24 H 0.2632 0.2542 0.2377
H25 H 0.3183 0.3295 0.1981
H26 H 0.328(4) 0.558(3) 0.276(2)
F4 F 0.1329(4) 0.8024(2) 0.1418(2)
F5 F 0.2579(3) 0.7285(2) 0.0910(3)
F6 F 0.0950(4) 0.7444(2) 0.0413(2)
O3 O 0.3655(2) 0.53797(18) 0.04568(13)
O4 O 0.3117(2) 0.56892(17) 0.16189(13)
N2 N 0.1835(3) 0.5674(2) 0.06740(17)
C17 C 0.0531(3) 0.5224(3) 0.1646(2)
H27 H 0.1132 0.5161 0.2035
C18 C -0.0739(4) 0.5200(3) 0.1932(3)
C19 C -0.1008(4) 0.4738(4) 0.1216(4)
H28 H -0.1597 0.4310 0.1262
C20 C 0.0257(4) 0.4464(3) 0.1210(3)
H29 H 0.0611 0.4445 0.0716
H30 H 0.0399 0.3971 0.1485
C21 C 0.0784(3) 0.5879(3) 0.1087(2)
C22 C -0.0236(4) 0.5940(3) 0.0526(2)
H31 H -0.0614 0.6458 0.0592
H32 H 0.0094 0.5931 0.0025
C23 C -0.1171(4) 0.5295(4) 0.0575(3)
H33 H -0.1937 0.5550 0.0618
H34 H -0.1167 0.4986 0.0115
C24 C -0.1447(5) 0.5934(3) 0.2086(3)
H35 H -0.1102 0.6224 0.2496
H36 H -0.2239 0.5782 0.2213
H37 H -0.1458 0.6270 0.1650
C25 C -0.0811(6) 0.4674(4) 0.2618(4)
H38 H -0.0392 0.4182 0.2530
H39 H -0.1622 0.4556 0.2726
H40 H -0.0465 0.4950 0.3036
C26 C 0.0984(4) 0.6668(3) 0.1491(2)
H41 H 0.0239 0.6834 0.1708
H42 H 0.1523 0.6568 0.1901
C27 C 0.1448(5) 0.7346(3) 0.1055(3)
C28 C 0.2882(3) 0.5591(2) 0.09720(19)
C29 C 0.4895(3) 0.5358(3) 0.0622(2)
C30 C 0.5408(4) 0.5176(4) -0.0124(2)
H43 H 0.5131 0.4661 -0.0291
H44 H 0.6252 0.5168 -0.0088
H45 H 0.5172 0.5583 -0.0475
C31 C 0.5148(4) 0.4708(3) 0.1165(3)
H46 H 0.4817 0.4844 0.1642
H47 H 0.5986 0.4643 0.1213
H48 H 0.4806 0.4214 0.0990
C32 C 0.5300(4) 0.6159(3) 0.0891(3)
H49 H 0.5003 0.6571 0.0565
H50 H 0.6146 0.6175 0.0893
H51 H 0.5011 0.6249 0.1389
H52 H 0.184(4) 0.562(3) 0.025(2)
loop_
_geom_bond_atom_site_label_1
_geom_bond_atom_site_label_2
_geom_bond_site_symmetry_1
_geom_bond_site_symmetry_2
F1 C11 1_555 1_555
F2 C11 1_555 1_555
F3 C11 1_555 1_555
O1 C12 1_555 1_555
O2 C12 1_555 1_555
N1 C5 1_555 1_555
C1 H1 1_555 1_555
C2 C1 1_555 1_555
C3 C2 1_555 1_555
H2 C3 1_555 1_555
C4 C1 1_555 1_555
H3 C4 1_555 1_555
H4 C4 1_555 1_555
C5 C1 1_555 1_555
C6 C5 1_555 1_555
H5 C6 1_555 1_555
H6 C6 1_555 1_555
C7 C3 1_555 1_555
H7 C7 1_555 1_555
H8 C7 1_555 1_555
C8 C2 1_555 1_555
H9 C8 1_555 1_555
H10 C8 1_555 1_555
H11 C8 1_555 1_555
C9 C2 1_555 1_555
H12 C9 1_555 1_555
H13 C9 1_555 1_555
H14 C9 1_555 1_555
C10 C5 1_555 1_555
H15 C10 1_555 1_555
H16 C10 1_555 1_555
C11 C10 1_555 1_555
C12 N1 1_555 1_555
C13 O1 1_555 1_555
C14 C13 1_555 1_555
H17 C14 1_555 1_555
H18 C14 1_555 1_555
H19 C14 1_555 1_555
C15 C13 1_555 1_555
H20 C15 1_555 1_555
H21 C15 1_555 1_555
H22 C15 1_555 1_555
C16 C13 1_555 1_555
H23 C16 1_555 1_555
H24 C16 1_555 1_555
H25 C16 1_555 1_555
H26 N1 1_555 1_555
F4 C27 1_555 1_555
F5 C27 1_555 1_555
F6 C27 1_555 1_555
O3 C28 1_555 1_555
O4 C28 1_555 1_555
N2 C21 1_555 1_555
C17 H27 1_555 1_555
C18 C17 1_555 1_555
C19 C18 1_555 1_555
H28 C19 1_555 1_555
C20 C17 1_555 1_555
H29 C20 1_555 1_555
H30 C20 1_555 1_555
C21 C17 1_555 1_555
C22 C21 1_555 1_555
H31 C22 1_555 1_555
H32 C22 1_555 1_555
C23 C19 1_555 1_555
H33 C23 1_555 1_555
H34 C23 1_555 1_555
C24 C18 1_555 1_555
H35 C24 1_555 1_555
H36 C24 1_555 1_555
H37 C24 1_555 1_555
C25 C18 1_555 1_555
H38 C25 1_555 1_555
H39 C25 1_555 1_555
H40 C25 1_555 1_555
C26 C21 1_555 1_555
H41 C26 1_555 1_555
H42 C26 1_555 1_555
C27 C26 1_555 1_555
C28 N2 1_555 1_555
C29 O3 1_555 1_555
C30 C29 1_555 1_555
H43 C30 1_555 1_555
H44 C30 1_555 1_555
H45 C30 1_555 1_555
C31 C29 1_555 1_555
H46 C31 1_555 1_555
H47 C31 1_555 1_555
H48 C31 1_555 1_555
C32 C29 1_555 1_555
H49 C32 1_555 1_555
H50 C32 1_555 1_555
H51 C32 1_555 1_555
H52 N2 1_555 1_555
C3 C4 1_555 1_555
C6 C7 1_555 1_555
C19 C20 1_555 1_555
C22 C23 1_555 1_555

#END
