
#######################################################################
#
#                 Cambridge Crystallographic Data Centre
#                                CCDC 
#
#######################################################################
#
# If this CIF has been generated from an entry in the Cambridge 
# Structural Database, then it will include bibliographic, chemical, 
# crystal, experimental, refinement or atomic coordinate data resulting 
# from the CCDC's data processing and validation procedures.
#
#######################################################################

data_HEDCEB
_chemical_formula_moiety         'C26 H23 Br1 N2 O2 S1'
_chemical_name_systematic        
2-(3-bromophenyl)-10-methyl-1-[(4-methylphenyl)sulfonyl]-1,2,5,10-tetrahydroazepino[2,3-b]indole
_symmetry_cell_setting           triclinic
_symmetry_space_group_name_H-M   'P -1'
_symmetry_Int_Tables_number      2
_space_group_name_Hall           '-P 1'
loop_
_symmetry_equiv_pos_site_id
_symmetry_equiv_pos_as_xyz
1 x,y,z
2 -x,-y,-z
_cell_length_a                   8.2539(6)
_cell_length_b                   9.3035(6)
_cell_length_c                   15.4181(10)
_cell_angle_alpha                94.023(3)
_cell_angle_beta                 94.343(3)
_cell_angle_gamma                95.709(3)
_cell_volume                     1171.1
_exptl_crystal_colour            colorless
_exptl_crystal_description       plate
_cell_formula_units_Z            2
loop_
_atom_site_label
_atom_site_type_symbol
_atom_site_fract_x
_atom_site_fract_y
_atom_site_fract_z
Br1 Br 0.6352(4) -0.4273(3) 0.1414(2)
C1 C 0.4268(18) -0.2678(12) 0.2407(8)
H1 H 0.5215 -0.206 0.2569
C2 C 0.431(2) -0.3893(15) 0.1841(11)
C3 C 0.296(3) -0.4795(16) 0.1585(11)
H2 H 0.3017 -0.5598 0.1198
C4 C 0.150(3) -0.4531(16) 0.1895(11)
H3 H 0.0562 -0.5165 0.173
C5 C 0.1418(19) -0.3290(14) 0.2466(9)
H4 H 0.0421 -0.3086 0.2661
C6 C 0.2799(14) -0.2388(12) 0.2732(7)
C7 C 0.2827(14) -0.1026(12) 0.3359(7)
H5 H 0.3692 -0.1111 0.3819
C8 C 0.1267(16) -0.0949(14) 0.3824(8)
H6 H 0.1088 -0.1654 0.4215
C9 C 0.0119(15) -0.0043(14) 0.3765(8)
H7 H -0.0715 -0.0213 0.413
C10 C -0.0061(13) 0.1182(14) 0.3222(7)
H8 H 0.0364 0.2067 0.357
H9 H -0.1218 0.1234 0.3082
C11 C 0.0758(13) 0.1156(12) 0.2379(8)
C12 C 0.2293(12) 0.0727(10) 0.2286(7)
C13 C 0.1352(15) 0.1379(12) 0.0964(7)
C14 C 0.113(2) 0.1700(15) 0.0118(8)
H10 H 0.1913 0.1537 -0.0268
C15 C -0.029(2) 0.2272(15) -0.0157(10)
H11 H -0.0457 0.2529 -0.0726
C16 C -0.146(2) 0.2458(18) 0.0424(11)
H12 H -0.2418 0.2822 0.0225
C17 C -0.1289(17) 0.2140(12) 0.1260(10)
H13 H -0.2101 0.2291 0.1633
C18 C 0.0162(13) 0.1568(11) 0.1560(7)
C19 C 0.4126(16) 0.0437(16) 0.1036(9)
H14 H 0.4817 0.0033 0.1464
H15 H 0.4706 0.128 0.0836
H16 H 0.3818 -0.0269 0.0553
C20 C 0.3900(13) 0.2607(12) 0.4145(8)
C21 C 0.3561(14) 0.2146(13) 0.4958(7)
H17 H 0.381 0.1242 0.5117
C22 C 0.2855(15) 0.3050(16) 0.5515(8)
H18 H 0.2611 0.2745 0.6057
C23 C 0.2484(14) 0.4427(13) 0.5297(9)
C24 C 0.2872(15) 0.4852(13) 0.4504(8)
H19 H 0.2662 0.577 0.4354
C25 C 0.3560(14) 0.3974(14) 0.3923(8)
H20 H 0.3799 0.4287 0.3383
C26 C 0.1711(18) 0.5389(18) 0.5947(11)
H21 H 0.1754 0.6354 0.5759
H22 H 0.2297 0.5408 0.651
H23 H 0.0593 0.5015 0.5981
N1 N 0.3394(10) 0.0264(9) 0.2905(6)
N2 N 0.2662(11) 0.0841(10) 0.1427(6)
O1 O 0.5893(10) 0.0691(9) 0.3892(6)
O2 O 0.5419(10) 0.2319(9) 0.2745(6)
S1 S 0.4821(3) 0.1473(3) 0.34030(18)
loop_
_geom_bond_atom_site_label_1
_geom_bond_atom_site_label_2
_geom_bond_site_symmetry_1
_geom_bond_site_symmetry_2
Br1 C2 1_555 1_555
C1 H1 1_555 1_555
C2 C1 1_555 1_555
C3 C2 1_555 1_555
H2 C3 1_555 1_555
C4 C3 1_555 1_555
H3 C4 1_555 1_555
C5 C4 1_555 1_555
H4 C5 1_555 1_555
C6 C1 1_555 1_555
C7 C6 1_555 1_555
H5 C7 1_555 1_555
C8 C7 1_555 1_555
H6 C8 1_555 1_555
C9 C8 1_555 1_555
H7 C9 1_555 1_555
C10 C9 1_555 1_555
H8 C10 1_555 1_555
H9 C10 1_555 1_555
C11 C10 1_555 1_555
C12 C11 1_555 1_555
C13 C14 1_555 1_555
C14 H10 1_555 1_555
C15 C14 1_555 1_555
H11 C15 1_555 1_555
C16 C15 1_555 1_555
H12 C16 1_555 1_555
C17 C16 1_555 1_555
H13 C17 1_555 1_555
C18 C11 1_555 1_555
C19 H14 1_555 1_555
H15 C19 1_555 1_555
H16 C19 1_555 1_555
C20 C21 1_555 1_555
C21 H17 1_555 1_555
C22 C21 1_555 1_555
H18 C22 1_555 1_555
C23 C22 1_555 1_555
C24 C23 1_555 1_555
H19 C24 1_555 1_555
C25 C20 1_555 1_555
H20 C25 1_555 1_555
C26 C23 1_555 1_555
H21 C26 1_555 1_555
H22 C26 1_555 1_555
H23 C26 1_555 1_555
N1 C7 1_555 1_555
N2 C12 1_555 1_555
O1 S1 1_555 1_555
O2 S1 1_555 1_555
S1 C20 1_555 1_555
C5 C6 1_555 1_555
C12 N1 1_555 1_555
C13 C18 1_555 1_555
C13 N2 1_555 1_555
C17 C18 1_555 1_555
C19 N2 1_555 1_555
C24 C25 1_555 1_555
N1 S1 1_555 1_555

#END
