
#######################################################################
#
#                 Cambridge Crystallographic Data Centre
#                                CCDC 
#
#######################################################################
#
# If this CIF has been generated from an entry in the Cambridge 
# Structural Database, then it will include bibliographic, chemical, 
# crystal, experimental, refinement or atomic coordinate data resulting 
# from the CCDC's data processing and validation procedures.
#
#######################################################################

data_HEDNEM
_chemical_formula_moiety         'C18 H15 Br1 F2 O4 S1'
_chemical_name_systematic        
'3-[(3,5-difluorophenyl)sulfonyl]cyclopentyl 4-bromobenzoate'
_symmetry_cell_setting           orthorhombic
_symmetry_space_group_name_H-M   'P 21 21 21'
_symmetry_Int_Tables_number      19
_space_group_name_Hall           'P 2ac 2ab'
loop_
_symmetry_equiv_pos_site_id
_symmetry_equiv_pos_as_xyz
1 x,y,z
2 1/2-x,-y,1/2+z
3 -x,1/2+y,1/2-z
4 1/2+x,1/2-y,-z
_cell_length_a                   10.4069(3)
_cell_length_b                   12.6398(4)
_cell_length_c                   13.3704(4)
_cell_angle_alpha                90
_cell_angle_beta                 90
_cell_angle_gamma                90
_cell_volume                     1758.76
_exptl_crystal_colour            colorless
_exptl_crystal_description       block
_cell_formula_units_Z            4
loop_
_atom_site_label
_atom_site_type_symbol
_atom_site_fract_x
_atom_site_fract_y
_atom_site_fract_z
Br1 Br 0.00247(3) 0.68989(2) 0.64558(2)
S1 S 0.75839(8) 0.24694(8) 0.51243(6)
F1 F 0.9664(2) 0.0280(2) 0.23977(17)
F2 F 0.5183(2) 0.05607(16) 0.23577(16)
O1 O 0.8601(2) 0.20862(19) 0.57658(17)
O2 O 0.6302(2) 0.2545(2) 0.55384(18)
O3 O 0.6119(2) 0.5760(2) 0.50833(18)
O4 O 0.6646(2) 0.6750(2) 0.64230(18)
C1 C 0.7512(3) 0.1658(2) 0.4050(2)
C2 C 0.8654(3) 0.1274(3) 0.3661(3)
H1 H 0.9457 0.1427 0.3967
C3 C 0.8572(4) 0.0659(3) 0.2808(3)
C4 C 0.7419(4) 0.0394(3) 0.2357(3)
H2 H 0.7385 -0.0046 0.1782
C5 C 0.6323(4) 0.0802(3) 0.2787(3)
C6 C 0.6319(3) 0.1443(3) 0.3623(3)
H3 H 0.5546 0.1723 0.3892
C7 C 0.8052(3) 0.3719(3) 0.4630(3)
H4 H 0.8962 0.3666 0.4395
C8 C 0.7216(3) 0.4092(3) 0.3753(3)
H5 H 0.7476 0.3754 0.3117
H6 H 0.6293 0.3953 0.3877
C9 C 0.7512(3) 0.5276(3) 0.3754(3)
H7 H 0.8370 0.5416 0.3464
H8 H 0.6859 0.5672 0.3367
C10 C 0.7472(3) 0.5587(3) 0.4857(3)
H9 H 0.8004 0.6229 0.4996
C11 C 0.7970(4) 0.4605(3) 0.5429(3)
H10 H 0.7368 0.4406 0.5970
H11 H 0.8826 0.4746 0.5724
C12 C 0.5845(3) 0.6379(3) 0.5871(3)
C13 C 0.4438(3) 0.6543(3) 0.5970(3)
C14 C 0.3574(3) 0.6176(3) 0.5249(3)
H12 H 0.3890 0.5833 0.4667
C15 C 0.2264(3) 0.6308(3) 0.5373(2)
H13 H 0.1679 0.6077 0.4872
C16 C 0.1820(3) 0.6783(3) 0.6244(2)
C17 C 0.2660(3) 0.7162(3) 0.6969(2)
H14 H 0.2337 0.7495 0.7554
C18 C 0.3973(4) 0.7049(3) 0.6829(2)
H15 H 0.4556 0.7314 0.7315
loop_
_geom_bond_atom_site_label_1
_geom_bond_atom_site_label_2
_geom_bond_site_symmetry_1
_geom_bond_site_symmetry_2
Br1 C16 1_555 1_555
S1 O1 1_555 1_555
F1 C3 1_555 1_555
F2 C5 1_555 1_555
O2 S1 1_555 1_555
O3 C10 1_555 1_555
O4 C12 1_555 1_555
C1 S1 1_555 1_555
C2 C1 1_555 1_555
H1 C2 1_555 1_555
C3 C2 1_555 1_555
C4 C3 1_555 1_555
H2 C4 1_555 1_555
C5 C4 1_555 1_555
C6 C1 1_555 1_555
H3 C6 1_555 1_555
C7 S1 1_555 1_555
H4 C7 1_555 1_555
C8 C7 1_555 1_555
H5 C8 1_555 1_555
H6 C8 1_555 1_555
C9 C8 1_555 1_555
H7 C9 1_555 1_555
H8 C9 1_555 1_555
C10 C9 1_555 1_555
H9 C10 1_555 1_555
C11 C7 1_555 1_555
H10 C11 1_555 1_555
H11 C11 1_555 1_555
C12 O3 1_555 1_555
C13 C12 1_555 1_555
C14 C13 1_555 1_555
H12 C14 1_555 1_555
C15 C14 1_555 1_555
H13 C15 1_555 1_555
C16 C15 1_555 1_555
C17 C16 1_555 1_555
H14 C17 1_555 1_555
C18 C13 1_555 1_555
H15 C18 1_555 1_555
C5 C6 1_555 1_555
C10 C11 1_555 1_555
C17 C18 1_555 1_555

#END
