
#######################################################################
#
#                 Cambridge Crystallographic Data Centre
#                                CCDC 
#
#######################################################################
#
# If this CIF has been generated from an entry in the Cambridge 
# Structural Database, then it will include bibliographic, chemical, 
# crystal, experimental, refinement or atomic coordinate data resulting 
# from the CCDC's data processing and validation procedures.
#
#######################################################################

data_HEDNOW
_chemical_formula_moiety         'C23 H27 F2 N1 O2 S1'
_chemical_name_systematic        
N-benzyl-N-(cyclobutylmethyl)-3-[(3,5-difluorophenyl)sulfonyl]cyclopentan-1-amine
_symmetry_cell_setting           monoclinic
_symmetry_space_group_name_H-M   'P 21'
_symmetry_Int_Tables_number      4
_space_group_name_Hall           'P 2yb'
loop_
_symmetry_equiv_pos_site_id
_symmetry_equiv_pos_as_xyz
1 x,y,z
2 -x,1/2+y,-z
_cell_length_a                   5.4305(5)
_cell_length_b                   14.9364(14)
_cell_length_c                   12.9201(12)
_cell_angle_alpha                90
_cell_angle_beta                 91.931(2)
_cell_angle_gamma                90
_cell_volume                     1047.38
_exptl_crystal_colour            colorless
_exptl_crystal_description       Rod
_cell_formula_units_Z            2
loop_
_atom_site_label
_atom_site_type_symbol
_atom_site_fract_x
_atom_site_fract_y
_atom_site_fract_z
S1 S 0.50307(14) 0.68141(5) 0.11713(6)
F1 F 0.3290(4) 0.78612(14) 0.48092(16)
F2 F -0.1484(4) 0.90861(14) 0.20823(16)
O1 O 0.5328(5) 0.73214(16) 0.02377(19)
O2 O 0.7191(4) 0.64620(16) 0.17025(19)
N1 N 0.1126(4) 0.37956(16) 0.21361(18)
C1 C 0.2937(6) 0.59293(19) 0.0893(2)
H1 H 0.1409 0.6184 0.0554
C2 C 0.2228(6) 0.5401(2) 0.1844(2)
H2 H 0.0869 0.5695 0.2206
H3 H 0.3653 0.5322 0.2334
C3 C 0.1405(5) 0.45058(18) 0.1369(2)
H4 H -0.0203 0.4593 0.0983
C4 C 0.3417(6) 0.43232(19) 0.0591(2)
H5 H 0.2796 0.3919 0.0033
H6 H 0.4875 0.4044 0.0939
C5 C 0.4080(6) 0.5244(2) 0.0147(2)
H7 H 0.3374 0.5316 -0.0564
H8 H 0.5890 0.5320 0.0132
C6 C 0.0469(6) 0.2934(2) 0.1640(2)
H9 H 0.1401 0.2868 0.0999
H10 H -0.1309 0.2937 0.1443
C7 C 0.1015(6) 0.2143(2) 0.2341(2)
H11 H 0.0041 0.2186 0.2982
C8 C 0.0770(6) 0.1203(2) 0.1869(3)
H12 H 0.0962 0.1187 0.1110
H13 H -0.0735 0.0880 0.2066
C9 C 0.3117(6) 0.0922(2) 0.2501(3)
H14 H 0.4318 0.0581 0.2097
H15 H 0.2779 0.0616 0.3161
C10 C 0.3743(6) 0.1929(2) 0.2623(3)
H16 H 0.4263 0.2104 0.3336
H17 H 0.4915 0.2154 0.2113
C11 C -0.0745(5) 0.4043(2) 0.2889(2)
H18 H -0.1475 0.3490 0.3169
H19 H -0.2081 0.4382 0.2525
C12 C 0.0273(5) 0.4603(2) 0.3783(2)
C13 C 0.2473(6) 0.4377(2) 0.4292(2)
H20 H 0.3370 0.3869 0.4070
C14 C 0.3380(6) 0.4884(2) 0.5122(2)
H21 H 0.4883 0.4721 0.5469
C15 C 0.2086(6) 0.5627(2) 0.5442(3)
H22 H 0.2705 0.5975 0.6008
C16 C -0.0105(6) 0.5863(2) 0.4938(3)
H23 H -0.0990 0.6375 0.5155
C17 C -0.1007(6) 0.5348(2) 0.4114(2)
H24 H -0.2519 0.5508 0.3772
C18 C 0.3473(6) 0.7489(2) 0.2063(3)
C19 C 0.4066(6) 0.7408(2) 0.3112(3)
H25 H 0.5330 0.7015 0.3357
C20 C 0.2739(7) 0.7924(2) 0.3783(3)
C21 C 0.0883(7) 0.8492(2) 0.3467(3)
H26 H -0.0006 0.8836 0.3947
C22 C 0.0370(6) 0.8538(2) 0.2413(3)
C23 C 0.1612(6) 0.8053(2) 0.1695(3)
H27 H 0.1214 0.8101 0.0975
loop_
_geom_bond_atom_site_label_1
_geom_bond_atom_site_label_2
_geom_bond_site_symmetry_1
_geom_bond_site_symmetry_2
S1 O1 1_555 1_555
F1 C20 1_555 1_555
F2 C22 1_555 1_555
O2 S1 1_555 1_555
N1 C3 1_555 1_555
C1 S1 1_555 1_555
H1 C1 1_555 1_555
C2 C1 1_555 1_555
H2 C2 1_555 1_555
H3 C2 1_555 1_555
C3 C2 1_555 1_555
H4 C3 1_555 1_555
C4 C3 1_555 1_555
H5 C4 1_555 1_555
H6 C4 1_555 1_555
C5 C1 1_555 1_555
H7 C5 1_555 1_555
H8 C5 1_555 1_555
C6 N1 1_555 1_555
H9 C6 1_555 1_555
H10 C6 1_555 1_555
C7 C6 1_555 1_555
H11 C7 1_555 1_555
C8 C7 1_555 1_555
H12 C8 1_555 1_555
H13 C8 1_555 1_555
C9 C8 1_555 1_555
H14 C9 1_555 1_555
H15 C9 1_555 1_555
C10 C7 1_555 1_555
H16 C10 1_555 1_555
H17 C10 1_555 1_555
C11 N1 1_555 1_555
H18 C11 1_555 1_555
H19 C11 1_555 1_555
C12 C11 1_555 1_555
C13 C12 1_555 1_555
H20 C13 1_555 1_555
C14 C13 1_555 1_555
H21 C14 1_555 1_555
C15 C14 1_555 1_555
H22 C15 1_555 1_555
C16 C15 1_555 1_555
H23 C16 1_555 1_555
C17 C12 1_555 1_555
H24 C17 1_555 1_555
C18 S1 1_555 1_555
C19 C18 1_555 1_555
H25 C19 1_555 1_555
C20 C19 1_555 1_555
C21 C20 1_555 1_555
H26 C21 1_555 1_555
C22 C21 1_555 1_555
C23 C18 1_555 1_555
H27 C23 1_555 1_555
C4 C5 1_555 1_555
C9 C10 1_555 1_555
C16 C17 1_555 1_555
C22 C23 1_555 1_555

#END
