
#######################################################################
#
#                 Cambridge Crystallographic Data Centre
#                                CCDC 
#
#######################################################################
#
# If this CIF has been generated from an entry in the Cambridge 
# Structural Database, then it will include bibliographic, chemical, 
# crystal, experimental, refinement or atomic coordinate data resulting 
# from the CCDC's data processing and validation procedures.
#
#######################################################################

data_HEDNAI
_chemical_formula_moiety         'C11 H10 F2 O2 S1'
_chemical_name_systematic        
1-[(3,5-difluorophenyl)sulfonyl]bicyclo[2.1.0]pentane
_symmetry_cell_setting           orthorhombic
_symmetry_space_group_name_H-M   'P n a 21'
_symmetry_Int_Tables_number      33
_space_group_name_Hall           'P 2c -2n'
loop_
_symmetry_equiv_pos_site_id
_symmetry_equiv_pos_as_xyz
1 x,y,z
2 -x,-y,1/2+z
3 1/2-x,1/2+y,1/2+z
4 1/2+x,1/2-y,z
_cell_length_a                   6.7725(7)
_cell_length_b                   13.8233(13)
_cell_length_c                   11.1737(18)
_cell_angle_alpha                90
_cell_angle_beta                 90
_cell_angle_gamma                90
_cell_volume                     1046.06
_exptl_crystal_colour            colorless
_exptl_crystal_description       block
_cell_formula_units_Z            4
loop_
_atom_site_label
_atom_site_type_symbol
_atom_site_fract_x
_atom_site_fract_y
_atom_site_fract_z
S1 S 0.51139(6) 0.47136(3) 0.49856(16)
F1 F 0.5568(5) 0.7969(2) 0.2908(3)
O1 O 0.5921(5) 0.43825(18) 0.6119(3)
F2 F 0.5518(5) 0.7968(2) 0.7093(3)
O2 O 0.5989(5) 0.43910(18) 0.3890(3)
C1 C 0.5322(6) 0.6484(4) 0.3891(4)
H1 H 0.5275(6) 0.6152(4) 0.3147(4)
C2 C 0.5465(7) 0.7490(4) 0.3973(4)
C3 C 0.5251(2) 0.59961(12) 0.5011(6)
C4 C 0.5516(3) 0.79919(14) 0.5005(6)
H2 H 0.5609(3) 0.86777(14) 0.5008(6)
C5 C 0.2679(17) 0.4386(7) 0.4883(9)
C6 C 0.5288(6) 0.6470(3) 0.6078(4)
H3 H 0.5217(6) 0.6124(3) 0.6811(4)
C7 C 0.5429(7) 0.7465(4) 0.6073(4)
C8 C 0.1294(15) 0.4198(6) 0.5920(7)
H4 H 0.1980(15) 0.4043(6) 0.6678(7)
H5 H 0.0301(15) 0.4714(6) 0.6041(7)
C9 C 0.048(2) 0.3294(9) 0.5257(6)
H6 H 0.079(2) 0.2674(9) 0.5656(6)
H7 H -0.095(2) 0.3337(9) 0.5062(6)
C10 C 0.1508(12) 0.4532(5) 0.3722(6)
H8 H 0.0152(12) 0.4794(5) 0.3787(6)
H9 H 0.2245(12) 0.4739(5) 0.3001(6)
C11 C 0.1867(9) 0.3539(4) 0.4181(5)
H10 H 0.2712(9) 0.3051(4) 0.3764(5)
C12? C 0.127(3) 0.4182(11) 0.4022(12)
H11? H 0.209(3) 0.3981(11) 0.3334(12)
H12? H 0.022(3) 0.4638(11) 0.3773(12)
C13? C 0.052(5) 0.332(2) 0.4821(12)
H13? H -0.090(5) 0.337(2) 0.5018(12)
H14? H 0.080(5) 0.268(2) 0.4463(12)
C14? C 0.180(2) 0.3538(11) 0.5849(12)
H15? H 0.272(2) 0.3068(11) 0.6237(12)
C15? C 0.136(3) 0.4526(12) 0.6304(12)
H16? H -0.004(3) 0.4739(12) 0.6276(12)
H17? H 0.208(3) 0.4742(12) 0.7024(12)
C16? C 0.247(4) 0.4516(16) 0.5141(14)
loop_
_geom_bond_atom_site_label_1
_geom_bond_atom_site_label_2
_geom_bond_site_symmetry_1
_geom_bond_site_symmetry_2
S1 O1 1_555 1_555
F1 C2 1_555 1_555
F2 C7 1_555 1_555
O2 S1 1_555 1_555
C1 H1 1_555 1_555
C2 C1 1_555 1_555
C3 S1 1_555 1_555
C4 C2 1_555 1_555
H2 C4 1_555 1_555
C5 S1 1_555 1_555
C6 C3 1_555 1_555
H3 C6 1_555 1_555
C7 C4 1_555 1_555
C8 C5 1_555 1_555
H4 C8 1_555 1_555
H5 C8 1_555 1_555
C9 C8 1_555 1_555
H6 C9 1_555 1_555
H7 C9 1_555 1_555
C10 C5 1_555 1_555
H8 C10 1_555 1_555
H9 C10 1_555 1_555
C11 C5 1_555 1_555
H10 C11 1_555 1_555
C1 C3 1_555 1_555
C6 C7 1_555 1_555
C9 C11 1_555 1_555
C10 C11 1_555 1_555

#END
