
#######################################################################
#
#                 Cambridge Crystallographic Data Centre
#                                CCDC 
#
#######################################################################
#
# If this CIF has been generated from an entry in the Cambridge 
# Structural Database, then it will include bibliographic, chemical, 
# crystal, experimental, refinement or atomic coordinate data resulting 
# from the CCDC's data processing and validation procedures.
#
#######################################################################

data_HEDTUI
_chemical_formula_moiety         'C14 H21 N1 O4'
_chemical_name_systematic        N-t-butyl-3,4,5-trimethoxybenzamide
_symmetry_cell_setting           monoclinic
_symmetry_space_group_name_H-M   'P 21/c'
_symmetry_Int_Tables_number      14
_space_group_name_Hall           '-P 2ybc'
loop_
_symmetry_equiv_pos_site_id
_symmetry_equiv_pos_as_xyz
1 x,y,z
2 -x,1/2+y,1/2-z
3 -x,-y,-z
4 x,1/2-y,1/2+z
_cell_length_a                   9.5206(7)
_cell_length_b                   15.3557(8)
_cell_length_c                   10.1103(7)
_cell_angle_alpha                90
_cell_angle_beta                 105.753(2)
_cell_angle_gamma                90
_cell_volume                     1422.56
_exptl_crystal_colour            yellow
_exptl_crystal_description       parallelepiped
_cell_formula_units_Z            4
loop_
_atom_site_label
_atom_site_type_symbol
_atom_site_fract_x
_atom_site_fract_y
_atom_site_fract_z
O1 O -0.28133(12) 0.38152(8) 0.18337(12)
O2 O -0.35170(12) 0.44739(8) -0.07123(13)
O3 O -0.16230(13) 0.44078(8) -0.22701(12)
O4 O 0.19952(11) 0.22782(7) 0.24530(10)
N1 N 0.22773(13) 0.21213(8) 0.03148(13)
H1 H 0.199(2) 0.2281(12) -0.054(2)
C1 C -0.06045(16) 0.31592(10) 0.15088(15)
H2 H -0.0380 0.2889 0.2387
C2 C -0.18585(16) 0.36648(10) 0.10656(16)
C3 C -0.22041(16) 0.40548(10) -0.02308(16)
C4 C -0.12315(17) 0.39729(10) -0.10391(15)
C5 C 0.00278(16) 0.34675(10) -0.06004(15)
H3 H 0.0678 0.3410 -0.1161
C6 C 0.03227(15) 0.30492(9) 0.06653(14)
C7 C -0.24278(19) 0.34704(12) 0.31936(18)
H4 H -0.3188 0.3617 0.3644
H5 H -0.2335 0.2836 0.3155
H6 H -0.1496 0.3721 0.3717
C8 C -0.34696(18) 0.54008(11) -0.06104(17)
H7 H -0.4455 0.5637 -0.0979
H8 H -0.3094 0.5571 0.0356
H9 H -0.2828 0.5631 -0.1138
C9 C -0.0557(2) 0.44486(13) -0.30218(18)
H10 H -0.0954 0.4772 -0.3877
H11 H 0.0318 0.4745 -0.2468
H12 H -0.0302 0.3857 -0.3237
C10 C 0.16156(15) 0.24579(9) 0.12126(14)
C11 C 0.35658(16) 0.15321(10) 0.06878(15)
C12 C 0.3824(2) 0.12215(12) -0.06624(18)
H13 H 0.4667 0.0829 -0.0467
H14 H 0.2957 0.0911 -0.1201
H15 H 0.4012 0.1725 -0.1185
C13 C 0.48869(19) 0.20251(12) 0.1534(2)
H16 H 0.5731 0.1634 0.1776
H17 H 0.5096 0.2516 0.0997
H18 H 0.4687 0.2244 0.2374
C14 C 0.3261(2) 0.07404(11) 0.14746(17)
H19 H 0.4123 0.0362 0.1709
H20 H 0.3036 0.0932 0.2319
H21 H 0.2428 0.0418 0.0902
loop_
_geom_bond_atom_site_label_1
_geom_bond_atom_site_label_2
_geom_bond_site_symmetry_1
_geom_bond_site_symmetry_2
O1 C2 1_555 1_555
O2 C3 1_555 1_555
O3 C4 1_555 1_555
O4 C10 1_555 1_555
N1 H1 1_555 1_555
C1 H2 1_555 1_555
C2 C1 1_555 1_555
C3 C2 1_555 1_555
C4 C3 1_555 1_555
C5 C4 1_555 1_555
H3 C5 1_555 1_555
C6 C1 1_555 1_555
C7 O1 1_555 1_555
H4 C7 1_555 1_555
H5 C7 1_555 1_555
H6 C7 1_555 1_555
C8 O2 1_555 1_555
H7 C8 1_555 1_555
H8 C8 1_555 1_555
H9 C8 1_555 1_555
C9 O3 1_555 1_555
H10 C9 1_555 1_555
H11 C9 1_555 1_555
H12 C9 1_555 1_555
C10 N1 1_555 1_555
C11 N1 1_555 1_555
C12 C11 1_555 1_555
H13 C12 1_555 1_555
H14 C12 1_555 1_555
H15 C12 1_555 1_555
C13 C11 1_555 1_555
H16 C13 1_555 1_555
H17 C13 1_555 1_555
H18 C13 1_555 1_555
C14 C11 1_555 1_555
H19 C14 1_555 1_555
H20 C14 1_555 1_555
H21 C14 1_555 1_555
C5 C6 1_555 1_555
C6 C10 1_555 1_555

#END
