
#######################################################################
#
#                 Cambridge Crystallographic Data Centre
#                                CCDC 
#
#######################################################################
#
# If this CIF has been generated from an entry in the Cambridge 
# Structural Database, then it will include bibliographic, chemical, 
# crystal, experimental, refinement or atomic coordinate data resulting 
# from the CCDC's data processing and validation procedures.
#
#######################################################################

data_HEFHEI
_chemical_formula_moiety         'C17 H15 F2 N1 O1'
_chemical_name_systematic        
3,3-difluoro-1-(4-methylphenyl)-5-phenylpyrrolidin-2-one
_symmetry_cell_setting           orthorhombic
_symmetry_space_group_name_H-M   'P n a 21'
_symmetry_Int_Tables_number      33
_space_group_name_Hall           'P 2c -2n'
loop_
_symmetry_equiv_pos_site_id
_symmetry_equiv_pos_as_xyz
1 x,y,z
2 -x,-y,1/2+z
3 1/2+x,1/2-y,z
4 1/2-x,1/2+y,1/2+z
_cell_length_a                   13.023(3)
_cell_length_b                   6.1432(12)
_cell_length_c                   17.833(4)
_cell_angle_alpha                90
_cell_angle_beta                 90
_cell_angle_gamma                90
_cell_volume                     1426.69
_exptl_crystal_colour            colorless
_exptl_crystal_description       flake
_cell_formula_units_Z            4
loop_
_atom_site_label
_atom_site_type_symbol
_atom_site_fract_x
_atom_site_fract_y
_atom_site_fract_z
C1 C 0.07647(16) 0.4462(4) 0.23890(15)
C2 C -0.00108(17) 0.4636(5) 0.30174(15)
C3 C 0.00452(17) 0.6902(5) 0.32997(15)
H1 H -0.0050 0.6947 0.3839
H2 H -0.0472 0.7808 0.3064
C4 C 0.11329(17) 0.7660(4) 0.30834(13)
H3 H 0.1101 0.9171 0.2909
C5 C 0.19088(17) 0.7498(4) 0.37119(12)
C6 C 0.24655(16) 0.5631(4) 0.38453(13)
H4 H 0.2393 0.4442 0.3527
C7 C 0.31290(19) 0.5509(5) 0.44460(15)
H5 H 0.3496 0.4234 0.4531
C8 C 0.3253(2) 0.7244(6) 0.49195(16)
H6 H 0.3700 0.7150 0.5325
C9 C 0.2715(2) 0.9116(5) 0.47896(15)
H7 H 0.2797 1.0304 0.5107
C10 C 0.2046(2) 0.9252(4) 0.41858(15)
H8 H 0.1687 1.0536 0.4099
C11 C 0.22495(15) 0.6640(4) 0.19777(13)
C12 C 0.29877(17) 0.5054(4) 0.18718(14)
H9 H 0.2916 0.3697 0.2097
C13 C 0.38311(19) 0.5497(4) 0.14309(15)
H10 H 0.4330 0.4429 0.1369
C14 C 0.39554(17) 0.7473(5) 0.10804(14)
C15 C 0.32083(18) 0.9023(4) 0.11924(14)
H11 H 0.3278 1.0376 0.0964
C16 C 0.23590(18) 0.8626(4) 0.16343(14)
H12 H 0.1863 0.9699 0.1699
C17 C 0.4866(2) 0.7931(6) 0.05868(16)
H13 H 0.5303 0.6673 0.0571
H14 H 0.5243 0.9145 0.0785
H15 H 0.4635 0.8269 0.0089
N1 N 0.13780(13) 0.6233(3) 0.24428(10)
O1 O 0.08117(13) 0.2990(3) 0.19312(11)
F1 F 0.02502(12) 0.3140(3) 0.35552(9)
F2 F -0.09603(11) 0.4029(3) 0.27883(9)
loop_
_geom_bond_atom_site_label_1
_geom_bond_atom_site_label_2
_geom_bond_site_symmetry_1
_geom_bond_site_symmetry_2
C1 C2 1_555 1_555
C2 C3 1_555 1_555
C3 H1 1_555 1_555
H2 C3 1_555 1_555
C4 C3 1_555 1_555
H3 C4 1_555 1_555
C5 C4 1_555 1_555
C6 C5 1_555 1_555
H4 C6 1_555 1_555
C7 C6 1_555 1_555
H5 C7 1_555 1_555
C8 C7 1_555 1_555
H6 C8 1_555 1_555
C9 C8 1_555 1_555
H7 C9 1_555 1_555
C10 C5 1_555 1_555
H8 C10 1_555 1_555
C11 C12 1_555 1_555
C12 H9 1_555 1_555
C13 C12 1_555 1_555
H10 C13 1_555 1_555
C14 C13 1_555 1_555
C15 C14 1_555 1_555
H11 C15 1_555 1_555
C16 C11 1_555 1_555
H12 C16 1_555 1_555
C17 C14 1_555 1_555
H13 C17 1_555 1_555
H14 C17 1_555 1_555
H15 C17 1_555 1_555
N1 C1 1_555 1_555
O1 C1 1_555 1_555
F1 C2 1_555 1_555
F2 C2 1_555 1_555
C4 N1 1_555 1_555
C9 C10 1_555 1_555
C11 N1 1_555 1_555
C15 C16 1_555 1_555

#END
