
#######################################################################
#
#                 Cambridge Crystallographic Data Centre
#                                CCDC 
#
#######################################################################
#
# If this CIF has been generated from an entry in the Cambridge 
# Structural Database, then it will include bibliographic, chemical, 
# crystal, experimental, refinement or atomic coordinate data resulting 
# from the CCDC's data processing and validation procedures.
#
#######################################################################

data_HEFZOK
_chemical_formula_moiety         'C28 H30 N2 O2'
_chemical_name_systematic        
5-benzylidene-3-[(4-methoxyphenyl)methyl]-4-(2-methylpropyl)-1,3,4,5-tetrahydro-2H-1,3-benzodiazepin-2-one
_symmetry_cell_setting           triclinic
_symmetry_space_group_name_H-M   'P -1'
_symmetry_Int_Tables_number      2
_space_group_name_Hall           '-P 1'
loop_
_symmetry_equiv_pos_site_id
_symmetry_equiv_pos_as_xyz
1 x,y,z
2 -x,-y,-z
_cell_length_a                   10.9265(6)
_cell_length_b                   11.4072(5)
_cell_length_c                   11.6778(6)
_cell_angle_alpha                71.606(5)
_cell_angle_beta                 62.378(6)
_cell_angle_gamma                68.893(5)
_cell_volume                     1183.52
_exptl_crystal_colour            colorless
_exptl_crystal_description       block
_cell_formula_units_Z            2
loop_
_atom_site_label
_atom_site_type_symbol
_atom_site_fract_x
_atom_site_fract_y
_atom_site_fract_z
O1 O 0.96057(9) 0.48957(9) 0.37756(10)
O2 O 1.04735(10) 0.76321(9) -0.27315(10)
N1 N 0.75947(10) 0.63038(10) 0.35879(11)
N2 N 0.80962(11) 0.60284(11) 0.54067(11)
C1 C 0.84739(13) 0.57063(12) 0.42272(13)
C2 C 0.65341(12) 0.75362(11) 0.38152(13)
H1 H 0.6226 0.7861 0.3063
C3 C 0.52425(13) 0.72731(11) 0.50337(13)
C4 C 0.54157(13) 0.68869(12) 0.62965(13)
C5 C 0.41951(14) 0.71154(14) 0.74536(14)
H2 H 0.3293 0.7491 0.7392
C6 C 0.42405(15) 0.68222(15) 0.86754(15)
H3 H 0.3384 0.6974 0.9434
C7 C 0.55522(15) 0.63018(14) 0.87845(14)
H4 H 0.5604 0.6105 0.9617
C8 C 0.67764(14) 0.60745(13) 0.76707(14)
H5 H 0.7672 0.5723 0.7748
C9 C 0.67428(13) 0.63459(12) 0.64265(13)
C10 C 0.76246(13) 0.56820(12) 0.26475(13)
H6 H 0.6633 0.5712 0.2837
H7 H 0.8148 0.4772 0.2777
C11 C 0.83153(13) 0.62819(12) 0.12337(13)
C12 C 0.97657(13) 0.62515(12) 0.06870(14)
H8 H 1.0294 0.5898 0.1227
C13 C 1.04363(13) 0.67266(13) -0.06218(14)
H9 H 1.1421 0.6703 -0.0976
C14 C 0.96801(13) 0.72447(12) -0.14353(13)
C15 C 0.82337(13) 0.73076(12) -0.09063(14)
H10 H 0.7703 0.7674 -0.1444
C16 C 0.75664(13) 0.68257(12) 0.04272(14)
H11 H 0.6575 0.6872 0.0790
C17 C 0.97452(16) 0.82068(14) -0.35974(15)
H12 H 0.8983 0.8956 -0.3282
H13 H 0.9330 0.7588 -0.3623
H14 H 1.0422 0.8471 -0.4482
C18 C 0.71067(13) 0.85690(12) 0.38411(14)
H15 H 0.6332 0.9367 0.3961
H16 H 0.7361 0.8298 0.4613
C19 C 0.84097(14) 0.88578(13) 0.26117(15)
H17 H 0.9131 0.8029 0.2414
C20 C 0.90693(17) 0.96596(16) 0.28834(18)
H18 H 0.9412 0.9168 0.3580
H19 H 0.8348 1.0441 0.3162
H20 H 0.9872 0.9886 0.2082
C21 C 0.80302(18) 0.95309(15) 0.14198(16)
H21 H 0.7327 1.0349 0.1593
H22 H 0.7627 0.8993 0.1251
H23 H 0.8893 0.9683 0.0650
C22 C 0.40320(13) 0.73168(13) 0.49597(14)
H24 H 0.3306 0.7038 0.5753
C23 C 0.37242(13) 0.77546(13) 0.37676(14)
C24 C 0.39413(14) 0.89031(14) 0.29134(15)
H25 H 0.4271 0.9451 0.3111
C25 C 0.36812(16) 0.92568(16) 0.17748(16)
H26 H 0.3850 1.0035 0.1196
C26 C 0.31810(19) 0.84871(18) 0.14836(18)
H27 H 0.3014 0.8726 0.0702
C27 C 0.2923(2) 0.73614(19) 0.23399(19)
H28 H 0.2561 0.6833 0.2152
H29 H 0.8810(17) 0.5687(19) 0.568(2)
C28 C 0.31882(17) 0.70008(16) 0.34677(17)
H30 H 0.3003 0.6227 0.4047
loop_
_geom_bond_atom_site_label_1
_geom_bond_atom_site_label_2
_geom_bond_site_symmetry_1
_geom_bond_site_symmetry_2
O1 C1 1_555 1_555
O2 C14 1_555 1_555
N1 C1 1_555 1_555
N2 C1 1_555 1_555
C2 N1 1_555 1_555
H1 C2 1_555 1_555
C3 C2 1_555 1_555
C4 C3 1_555 1_555
C5 C4 1_555 1_555
H2 C5 1_555 1_555
C6 C5 1_555 1_555
H3 C6 1_555 1_555
C7 C6 1_555 1_555
H4 C7 1_555 1_555
C8 C7 1_555 1_555
H5 C8 1_555 1_555
C9 N2 1_555 1_555
C10 N1 1_555 1_555
H6 C10 1_555 1_555
H7 C10 1_555 1_555
C11 C10 1_555 1_555
C12 C11 1_555 1_555
H8 C12 1_555 1_555
C13 C12 1_555 1_555
H9 C13 1_555 1_555
C14 C13 1_555 1_555
C15 C14 1_555 1_555
H10 C15 1_555 1_555
C16 C11 1_555 1_555
H11 C16 1_555 1_555
C17 O2 1_555 1_555
H12 C17 1_555 1_555
H13 C17 1_555 1_555
H14 C17 1_555 1_555
C18 C2 1_555 1_555
H15 C18 1_555 1_555
H16 C18 1_555 1_555
C19 C18 1_555 1_555
H17 C19 1_555 1_555
C20 C19 1_555 1_555
H18 C20 1_555 1_555
H19 C20 1_555 1_555
H20 C20 1_555 1_555
C21 C19 1_555 1_555
H21 C21 1_555 1_555
H22 C21 1_555 1_555
H23 C21 1_555 1_555
C22 C3 1_555 1_555
H24 C22 1_555 1_555
C23 C22 1_555 1_555
C24 C23 1_555 1_555
H25 C24 1_555 1_555
C25 C24 1_555 1_555
H26 C25 1_555 1_555
C26 C25 1_555 1_555
H27 C26 1_555 1_555
C27 C26 1_555 1_555
H28 C27 1_555 1_555
H29 N2 1_555 1_555
C28 C23 1_555 1_555
H30 C28 1_555 1_555
C4 C9 1_555 1_555
C8 C9 1_555 1_555
C15 C16 1_555 1_555
C27 C28 1_555 1_555

#END
