
#######################################################################
#
#                 Cambridge Crystallographic Data Centre
#                                CCDC 
#
#######################################################################
#
# If this CIF has been generated from an entry in the Cambridge 
# Structural Database, then it will include bibliographic, chemical, 
# crystal, experimental, refinement or atomic coordinate data resulting 
# from the CCDC's data processing and validation procedures.
#
#######################################################################

data_HEGQAN
_chemical_formula_moiety         'C15 H15 N1'
_chemical_name_systematic        N-(1-Phenylpropylidene)aniline
_symmetry_cell_setting           monoclinic
_symmetry_space_group_name_H-M   'P 21/n'
_symmetry_Int_Tables_number      14
_space_group_name_Hall           '-P 2yn'
loop_
_symmetry_equiv_pos_site_id
_symmetry_equiv_pos_as_xyz
1 x,y,z
2 1/2-x,1/2+y,1/2-z
3 -x,-y,-z
4 1/2+x,1/2-y,1/2+z
_cell_length_a                   9.847(2)
_cell_length_b                   7.9292(16)
_cell_length_c                   15.252(3)
_cell_angle_alpha                90
_cell_angle_beta                 103.41(3)
_cell_angle_gamma                90
_cell_volume                     1158.39
_exptl_crystal_colour            'light yellow'
_exptl_crystal_description       prism
_cell_formula_units_Z            4
loop_
_atom_site_label
_atom_site_type_symbol
_atom_site_fract_x
_atom_site_fract_y
_atom_site_fract_z
C1 C 0.27223(9) 0.12367(12) 0.01798(6)
C2 C 0.24795(10) 0.19722(13) -0.07559(6)
H1 H 0.1859 0.2965 -0.0795
H2 H 0.1996 0.1125 -0.1196
C3 C 0.38268(12) 0.25060(14) -0.10112(7)
H3 H 0.4306 0.3355 -0.0583
H4 H 0.3605 0.2984 -0.1620
H5 H 0.4434 0.1521 -0.0995
C4 C 0.31583(9) 0.24074(12) 0.09624(6)
C5 C 0.35912(10) 0.17530(13) 0.18312(7)
H6 H 0.3630 0.0566 0.1918
C6 C 0.39634(11) 0.28089(14) 0.25660(7)
H7 H 0.4252 0.2345 0.3154
C7 C 0.39187(11) 0.45452(14) 0.24514(7)
H8 H 0.4178 0.5271 0.2958
C8 C 0.34942(11) 0.52109(14) 0.15955(7)
H9 H 0.3459 0.6399 0.1514
C9 C 0.31203(10) 0.41594(13) 0.08548(7)
H10 H 0.2835 0.4631 0.0268
C10 C 0.21840(10) -0.15123(12) -0.03467(6)
C11 C 0.31078(10) -0.20016(13) -0.08648(6)
H11 H 0.4005 -0.1495 -0.0764
C12 C 0.27305(11) -0.32203(13) -0.15253(7)
H12 H 0.3370 -0.3549 -0.1874
C13 C 0.14251(11) -0.39612(13) -0.16801(7)
H13 H 0.1161 -0.4787 -0.2140
C14 C 0.05086(11) -0.34943(13) -0.11632(7)
H14 H -0.0389 -0.4000 -0.1269
C15 C 0.08875(10) -0.22943(13) -0.04918(7)
H15 H 0.0259 -0.2004 -0.0129
N1 N 0.25670(8) -0.03184(10) 0.03570(5)
loop_
_geom_bond_atom_site_label_1
_geom_bond_atom_site_label_2
_geom_bond_site_symmetry_1
_geom_bond_site_symmetry_2
C1 C2 1_555 1_555
C2 H1 1_555 1_555
H2 C2 1_555 1_555
C3 C2 1_555 1_555
H3 C3 1_555 1_555
H4 C3 1_555 1_555
H5 C3 1_555 1_555
C4 C1 1_555 1_555
C5 C4 1_555 1_555
H6 C5 1_555 1_555
C6 C5 1_555 1_555
H7 C6 1_555 1_555
C7 C6 1_555 1_555
H8 C7 1_555 1_555
C8 C7 1_555 1_555
H9 C8 1_555 1_555
C9 C4 1_555 1_555
H10 C9 1_555 1_555
C10 C11 1_555 1_555
C11 H11 1_555 1_555
C12 C11 1_555 1_555
H12 C12 1_555 1_555
C13 C12 1_555 1_555
H13 C13 1_555 1_555
C14 C13 1_555 1_555
H14 C14 1_555 1_555
C15 C10 1_555 1_555
H15 C15 1_555 1_555
N1 C1 1_555 1_555
C8 C9 1_555 1_555
C10 N1 1_555 1_555
C14 C15 1_555 1_555

#END
