
#######################################################################
#
#                 Cambridge Crystallographic Data Centre
#                                CCDC 
#
#######################################################################
#
# If this CIF has been generated from an entry in the Cambridge 
# Structural Database, then it will include bibliographic, chemical, 
# crystal, experimental, refinement or atomic coordinate data resulting 
# from the CCDC's data processing and validation procedures.
#
#######################################################################

data_HEJJUE
_chemical_formula_moiety         'C42 H34 O4'
_chemical_name_systematic        
"ethyl 4'-benzoyl-2,3''-diphenyl-4'H-dispiro[cyclopropane-1,1'-naphthalene-3',1''-isochromene]-2-carboxylate"
_symmetry_cell_setting           triclinic
_symmetry_space_group_name_H-M   'P -1'
_symmetry_Int_Tables_number      2
_space_group_name_Hall           '-P 1'
loop_
_symmetry_equiv_pos_site_id
_symmetry_equiv_pos_as_xyz
1 x,y,z
2 -x,-y,-z
_cell_length_a                   9.789(2)
_cell_length_b                   10.872(2)
_cell_length_c                   30.161(6)
_cell_angle_alpha                83.215(3)
_cell_angle_beta                 88.189(3)
_cell_angle_gamma                79.947(3)
_cell_volume                     3138.3
_exptl_crystal_colour            colorless
_exptl_crystal_description       blade
_cell_formula_units_Z            4
loop_
_atom_site_label
_atom_site_type_symbol
_atom_site_fract_x
_atom_site_fract_y
_atom_site_fract_z
O1 O 0.36452(14) 0.82072(13) 0.29909(4)
O2 O 0.22123(16) 0.65448(15) 0.42491(5)
O3 O -0.11660(16) 0.63933(14) 0.41198(5)
O4 O -0.06235(16) 0.60489(16) 0.34123(5)
C1 C 0.4260(2) 0.60462(19) 0.33366(6)
C2 C 0.3872(2) 0.4884(2) 0.34627(7)
H1 H 0.2941 0.4845 0.3553
C3 C 0.4823(2) 0.3783(2) 0.34589(7)
H2 H 0.454 0.2996 0.3545
C4 C 0.6191(2) 0.3826(2) 0.33301(7)
H3 H 0.6845 0.307 0.3331
C5 C 0.6599(2) 0.4971(2) 0.32010(7)
H4 H 0.7534 0.500 0.3112
C6 C 0.5641(2) 0.60877(19) 0.32001(7)
C7 C 0.6018(2) 0.73030(19) 0.30462(7)
H5 H 0.6967 0.739 0.3024
C8 C 0.5030(2) 0.83004(19) 0.29361(6)
C9 C 0.5253(2) 0.95649(19) 0.27526(6)
C10 C 0.6479(2) 0.9728(2) 0.25197(7)
H6 H 0.7123 0.9014 0.2451
C11 C 0.6759(2) 1.0924(2) 0.23888(8)
H7 H 0.7603 1.1027 0.2236
C12 C 0.5819(2) 1.1962(2) 0.24789(8)
H8 H 0.6023 1.2781 0.2395
C13 C 0.4576(2) 1.1815(2) 0.26916(7)
H9 H 0.3915 1.2535 0.2744
C14 C 0.4286(2) 1.0626(2) 0.28286(7)
H10 H 0.343 1.0533 0.2974
C15 C 0.3303(2) 0.72991(19) 0.33570(6)
C16 C 0.3521(2) 0.78681(19) 0.37906(6)
H11 H 0.4511 0.7985 0.3795
C17 C 0.2619(2) 0.9145(2) 0.37954(7)
C18 C 0.3099(2) 1.0075(2) 0.39953(7)
H12 H 0.3972 0.9888 0.4139
C19 C 0.2320(3) 1.1270(2) 0.39875(8)
H13 H 0.2642 1.1891 0.4134
C20 C 0.1073(3) 1.1551(2) 0.37654(8)
H14 H 0.0553 1.2379 0.3747
C21 C 0.0580(2) 1.0635(2) 0.35697(8)
H15 H -0.0281 1.0842 0.3419
C22 C 0.1317(2) 0.9407(2) 0.35886(7)
C23 C 0.0746(2) 0.8374(2) 0.34092(7)
C24 C 0.1789(2) 0.7241(2) 0.32899(7)
H16 H 0.1568 0.648 0.3472
H17 H 0.1662 0.714 0.2973
C25 C 0.3242(2) 0.70365(19) 0.42148(7)
C26 C 0.4193(2) 0.69114(18) 0.46024(7)
C27 C 0.5532(2) 0.7176(2) 0.45680(7)
H18 H 0.5875 0.7498 0.4288
C28 C 0.6370(2) 0.6972(2) 0.49405(7)
H19 H 0.7288 0.7151 0.4915
C29 C 0.5875(2) 0.6510(2) 0.53495(7)
H20 H 0.6456 0.636 0.5603
C30 C 0.4531(2) 0.6265(2) 0.53894(7)
H21 H 0.4183 0.5961 0.5671
C31 C 0.3702(2) 0.64636(19) 0.50178(7)
H22 H 0.2783 0.6293 0.5046
C32 C -0.0572(2) 0.8659(2) 0.31501(7)
H23 H -0.0672 0.8115 0.2916
H24 H -0.0986 0.9555 0.3074
C33 C -0.0674(2) 0.8107(2) 0.36274(7)
C34 C -0.1366(2) 0.8910(2) 0.39736(8)
C35 C -0.0812(2) 0.8801(2) 0.43964(7)
H25 H 0.0022 0.8228 0.4468
C36 C -0.1475(3) 0.9531(2) 0.47168(8)
H26 H -0.1098 0.9444 0.5007
C37 C -0.2673(3) 1.0376(2) 0.46141(9)
H27 H -0.3122 1.0872 0.4833
C38 C -0.3222(3) 1.0501(2) 0.41904(9)
H28 H -0.4042 1.1091 0.4118
C39 C -0.2579(2) 0.9766(2) 0.38717(8)
H29 H -0.2968 0.9847 0.3583
C40 C -0.0818(2) 0.6755(2) 0.36974(8)
C41 C -0.1220(3) 0.5071(2) 0.42346(9)
H30 H -0.1515 0.4724 0.3971
H31 H -0.1915 0.4973 0.4476
C42 C 0.0154(3) 0.4359(3) 0.43838(11)
H32 H 0.0811 0.4354 0.4132
H33 H 0.0064 0.3492 0.4495
H34 H 0.0494 0.4759 0.4623
O5 O 0.85358(14) 0.75116(13) 0.19788(5)
O6 O 0.75198(17) 0.46326(16) 0.12386(6)
O7 O 0.39455(18) 0.46979(15) 0.13822(5)
O8 O 0.43536(17) 0.50988(16) 0.20751(5)
C43 C 0.9193(2) 0.5243(2) 0.21497(7)
C44 C 0.8808(2) 0.4080(2) 0.22827(8)
H35 H 0.794 0.3923 0.2192
C45 C 0.9672(2) 0.3151(2) 0.25445(8)
H36 H 0.9389 0.2367 0.2637
C46 C 1.0944(2) 0.3363(2) 0.26705(8)
H37 H 1.1532 0.2727 0.2853
C47 C 1.1369(2) 0.4497(2) 0.25329(7)
H38 H 1.2258 0.4629 0.2615
C48 C 1.0497(2) 0.5450(2) 0.22744(7)
C49 C 1.0871(2) 0.66810(19) 0.21402(7)
H39 H 1.1814 0.6783 0.2146
C50 C 0.9898(2) 0.76615(19) 0.20098(7)
C51 C 1.0103(2) 0.89751(19) 0.18921(7)
C52 C 1.1190(2) 0.9418(2) 0.20746(7)
H40 H 1.1771 0.8887 0.2291
C53 C 1.1430(2) 1.0626(2) 0.19430(8)
H41 H 1.2178 1.0918 0.2067
C54 C 1.0584(3) 1.1407(2) 0.16321(8)
H42 H 1.076 1.2231 0.1538
C55 C 0.9482(3) 1.0994(2) 0.14563(8)
H43 H 0.8891 1.154 0.1246
C56 C 0.9236(2) 0.9785(2) 0.15857(7)
H44 H 0.8474 0.9506 0.1465
C57 C 0.8306(2) 0.62981(19) 0.18586(7)
C58 C 0.8715(2) 0.6300(2) 0.13623(7)
H45 H 0.9712 0.6397 0.1332
C59 C 0.7861(2) 0.7426(2) 0.10919(7)
C60 C 0.8485(3) 0.8042(2) 0.07325(7)
H46 H 0.9417 0.773 0.0653
C61 C 0.7770(3) 0.9105(2) 0.04887(8)
H47 H 0.8196 0.9507 0.0238
C62 C 0.6427(3) 0.9574(2) 0.06141(8)
H48 H 0.593 1.0309 0.0451
C63 C 0.5807(2) 0.8978(2) 0.09752(8)
H49 H 0.4893 0.9324 0.1063
C64 C 0.6492(2) 0.7878(2) 0.12151(7)
C65 C 0.5806(2) 0.7172(2) 0.15910(7)
C66 C 0.6756(2) 0.6319(2) 0.19350(7)
H50 H 0.6504 0.6587 0.2234
H51 H 0.6574 0.545 0.1939
C67 C 0.8560(2) 0.5109(2) 0.11637(7)
C68 C 0.9664(2) 0.4570(2) 0.08543(7)
C69 C 1.0992(2) 0.4863(2) 0.08238(8)
H52 H 1.1237 0.5441 0.1007
C70 C 1.1959(3) 0.4323(2) 0.05292(8)
H53 H 1.2865 0.4529 0.0512
C71 C 1.1619(3) 0.3489(2) 0.02617(9)
H54 H 1.2286 0.3114 0.006
C72 C 1.0294(3) 0.3198(3) 0.02869(9)
H55 H 1.0051 0.2625 0.0101
C73 C 0.9330(3) 0.3734(2) 0.05791(8)
H56 H 0.8424 0.3529 0.0593
C74 C 0.4405(2) 0.7703(2) 0.17614(8)
H57 H 0.4 0.8573 0.1641
H58 H 0.4198 0.7482 0.2081
C75 C 0.4451(2) 0.6696(2) 0.14584(7)
C76 C 0.3941(2) 0.7032(2) 0.09854(8)
C77 C 0.4675(3) 0.6507(2) 0.06344(8)
H59 H 0.5506 0.5919 0.0693
C78 C 0.4215(3) 0.6826(3) 0.01987(9)
H60 H 0.4725 0.6459 -0.004
C79 C 0.3014(3) 0.7678(3) 0.01156(9)
H61 H 0.2695 0.7904 -0.0182
C80 C 0.2265(3) 0.8210(3) 0.04632(9)
H62 H 0.1434 0.8798 0.0403
C81 C 0.2725(3) 0.7887(2) 0.09000(8)
H63 H 0.2209 0.825 0.1138
C82 C 0.4250(2) 0.5424(2) 0.16770(8)
C83 C 0.3806(3) 0.3404(2) 0.15444(10)
H64 H 0.2888 0.3238 0.1463
H65 H 0.3887 0.3262 0.1874
C84 C 0.4952(4) 0.2536(3) 0.13296(11)
H66 H 0.485 0.2672 0.1004
H67 H 0.4891 0.166 0.1437
H68 H 0.5855 0.2715 0.1409
loop_
_geom_bond_atom_site_label_1
_geom_bond_atom_site_label_2
_geom_bond_site_symmetry_1
_geom_bond_site_symmetry_2
O1 C8 1_555 1_555
O2 C25 1_555 1_555
O3 C40 1_555 1_555
O4 C40 1_555 1_555
C1 C2 1_555 1_555
C2 H1 1_555 1_555
C3 C2 1_555 1_555
H2 C3 1_555 1_555
C4 C3 1_555 1_555
H3 C4 1_555 1_555
C5 C4 1_555 1_555
H4 C5 1_555 1_555
C6 C1 1_555 1_555
C7 C6 1_555 1_555
H5 C7 1_555 1_555
C8 C7 1_555 1_555
C9 C8 1_555 1_555
C10 C9 1_555 1_555
H6 C10 1_555 1_555
C11 C10 1_555 1_555
H7 C11 1_555 1_555
C12 C11 1_555 1_555
H8 C12 1_555 1_555
C13 C12 1_555 1_555
H9 C13 1_555 1_555
C14 C9 1_555 1_555
H10 C14 1_555 1_555
C15 O1 1_555 1_555
C16 C15 1_555 1_555
H11 C16 1_555 1_555
C17 C16 1_555 1_555
C18 C17 1_555 1_555
H12 C18 1_555 1_555
C19 C18 1_555 1_555
H13 C19 1_555 1_555
C20 C19 1_555 1_555
H14 C20 1_555 1_555
C21 C20 1_555 1_555
H15 C21 1_555 1_555
C22 C17 1_555 1_555
C23 C22 1_555 1_555
C24 C15 1_555 1_555
H16 C24 1_555 1_555
H17 C24 1_555 1_555
C25 C16 1_555 1_555
C26 C25 1_555 1_555
C27 C26 1_555 1_555
H18 C27 1_555 1_555
C28 C27 1_555 1_555
H19 C28 1_555 1_555
C29 C28 1_555 1_555
H20 C29 1_555 1_555
C30 C29 1_555 1_555
H21 C30 1_555 1_555
C31 C26 1_555 1_555
H22 C31 1_555 1_555
C32 C23 1_555 1_555
H23 C32 1_555 1_555
H24 C32 1_555 1_555
C33 C23 1_555 1_555
C34 C33 1_555 1_555
C35 C34 1_555 1_555
H25 C35 1_555 1_555
C36 C35 1_555 1_555
H26 C36 1_555 1_555
C37 C36 1_555 1_555
H27 C37 1_555 1_555
C38 C37 1_555 1_555
H28 C38 1_555 1_555
C39 C34 1_555 1_555
H29 C39 1_555 1_555
C40 C33 1_555 1_555
C41 O3 1_555 1_555
H30 C41 1_555 1_555
H31 C41 1_555 1_555
C42 C41 1_555 1_555
H32 C42 1_555 1_555
H33 C42 1_555 1_555
H34 C42 1_555 1_555
O5 C50 1_555 1_555
O6 C67 1_555 1_555
O7 C82 1_555 1_555
O8 C82 1_555 1_555
C43 C44 1_555 1_555
C44 H35 1_555 1_555
C45 C44 1_555 1_555
H36 C45 1_555 1_555
C46 C45 1_555 1_555
H37 C46 1_555 1_555
C47 C46 1_555 1_555
H38 C47 1_555 1_555
C48 C43 1_555 1_555
C49 C48 1_555 1_555
H39 C49 1_555 1_555
C50 C49 1_555 1_555
C51 C50 1_555 1_555
C52 C51 1_555 1_555
H40 C52 1_555 1_555
C53 C52 1_555 1_555
H41 C53 1_555 1_555
C54 C53 1_555 1_555
H42 C54 1_555 1_555
C55 C54 1_555 1_555
H43 C55 1_555 1_555
C56 C51 1_555 1_555
H44 C56 1_555 1_555
C57 O5 1_555 1_555
C58 C57 1_555 1_555
H45 C58 1_555 1_555
C59 C58 1_555 1_555
C60 C59 1_555 1_555
H46 C60 1_555 1_555
C61 C60 1_555 1_555
H47 C61 1_555 1_555
C62 C61 1_555 1_555
H48 C62 1_555 1_555
C63 C62 1_555 1_555
H49 C63 1_555 1_555
C64 C59 1_555 1_555
C65 C64 1_555 1_555
C66 C57 1_555 1_555
H50 C66 1_555 1_555
H51 C66 1_555 1_555
C67 C58 1_555 1_555
C68 C67 1_555 1_555
C69 C68 1_555 1_555
H52 C69 1_555 1_555
C70 C69 1_555 1_555
H53 C70 1_555 1_555
C71 C70 1_555 1_555
H54 C71 1_555 1_555
C72 C71 1_555 1_555
H55 C72 1_555 1_555
C73 C68 1_555 1_555
H56 C73 1_555 1_555
C74 C65 1_555 1_555
H57 C74 1_555 1_555
H58 C74 1_555 1_555
C75 C65 1_555 1_555
C76 C75 1_555 1_555
C77 C76 1_555 1_555
H59 C77 1_555 1_555
C78 C77 1_555 1_555
H60 C78 1_555 1_555
C79 C78 1_555 1_555
H61 C79 1_555 1_555
C80 C79 1_555 1_555
H62 C80 1_555 1_555
C81 C76 1_555 1_555
H63 C81 1_555 1_555
C82 C75 1_555 1_555
C83 O7 1_555 1_555
H64 C83 1_555 1_555
H65 C83 1_555 1_555
C84 C83 1_555 1_555
H66 C84 1_555 1_555
H67 C84 1_555 1_555
H68 C84 1_555 1_555
C1 C15 1_555 1_555
C5 C6 1_555 1_555
C13 C14 1_555 1_555
C21 C22 1_555 1_555
C23 C24 1_555 1_555
C30 C31 1_555 1_555
C32 C33 1_555 1_555
C38 C39 1_555 1_555
C43 C57 1_555 1_555
C47 C48 1_555 1_555
C55 C56 1_555 1_555
C63 C64 1_555 1_555
C65 C66 1_555 1_555
C72 C73 1_555 1_555
C74 C75 1_555 1_555
C80 C81 1_555 1_555

#END
