
#######################################################################
#
#                 Cambridge Crystallographic Data Centre
#                                CCDC 
#
#######################################################################
#
# If this CIF has been generated from an entry in the Cambridge 
# Structural Database, then it will include bibliographic, chemical, 
# crystal, experimental, refinement or atomic coordinate data resulting 
# from the CCDC's data processing and validation procedures.
#
#######################################################################

data_HEJLIU
_chemical_formula_moiety         'C18 H16 N2 O3 S1'
_chemical_name_systematic        
5-methyl-4,7-diphenyl-4,7-dihydro-2-[1,2]oxathiino[6,5-c]pyrazole-2,2(3H)-dione
_symmetry_cell_setting           triclinic
_symmetry_space_group_name_H-M   'P -1'
_symmetry_Int_Tables_number      2
_space_group_name_Hall           '-P 1'
loop_
_symmetry_equiv_pos_site_id
_symmetry_equiv_pos_as_xyz
1 x,y,z
2 -x,-y,-z
_cell_length_a                   8.8439(8)
_cell_length_b                   9.8381(9)
_cell_length_c                   10.1748(11)
_cell_angle_alpha                92.463(1)
_cell_angle_beta                 111.695(2)
_cell_angle_gamma                97.582(1)
_cell_volume                     811.324
_cell_formula_units_Z            2
_exptl_crystal_recrystallization_method 'Ethyl acetate'
loop_
_atom_site_label
_atom_site_type_symbol
_atom_site_fract_x
_atom_site_fract_y
_atom_site_fract_z
S1 S 0.4668(1) 0.8854(1) 0.7828(1)
N1 N 0.4819(3) 0.5062(2) 0.7269(2)
N2 N 0.5684(3) 0.4294(2) 0.8301(2)
O1 O 0.4557(2) 0.7411(2) 0.6955(2)
O2 O 0.3529(2) 0.8660(2) 0.8517(2)
O3 O 0.4483(3) 0.9817(2) 0.6813(2)
C1 C 0.5215(3) 0.6402(2) 0.7786(2)
C2 C 0.6319(3) 0.6546(2) 0.9147(2)
C3 C 0.6578(3) 0.5179(3) 0.9414(2)
C4 C 0.7698(3) 0.4683(3) 1.0731(3)
H1 H 0.7348 0.3718 1.0739
H2 H 0.7664 0.5185 1.1547
H3 H 0.8803 0.4826 1.0755
C5 C 0.6696(3) 0.9057(3) 0.9114(3)
H4 H 0.7469 0.9067 0.8642
H5 H 0.6942 0.9932 0.9686
C6 C 0.6903(3) 0.7884(3) 1.0081(3)
H6 H 0.6167 0.7942 1.0596
C7 C 0.8648(3) 0.8056(2) 1.1173(3)
C8 C 0.9956(3) 0.7786(3) 1.0819(3)
H7 H 0.9773 0.7516 0.9878
C9 C 1.1526(3) 0.7911(3) 1.1842(3)
H8 H 1.2389 0.7713 1.1591
C10 C 1.1817(4) 0.8323(3) 1.3222(3)
H9 H 1.2877 0.8414 1.3911
C11 C 1.0535(4) 0.8605(3) 1.3589(3)
H10 H 1.0731 0.8887 1.4530
C12 C 0.8963(4) 0.8473(3) 1.2575(3)
H11 H 0.8105 0.8665 1.2836
C13 C 0.3642(3) 0.4375(3) 0.5969(3)
C14 C 0.3710(4) 0.3031(3) 0.5616(3)
H12 H 0.4602 0.2619 0.6144
C15 C 0.242(6) 0.230(5) 0.446(6)
H13 H 0.2442 0.1373 0.4240
C16 C 0.114(3) 0.288(2) 0.363(2)
H14 H 0.0340 0.2394 0.2814
C17 C 0.103(4) 0.4199(15) 0.402(2)
H15 H 0.0130 0.4599 0.3491
C18 C 0.225(4) 0.494(3) 0.521(4)
H16 H 0.2146 0.5822 0.5500
C19? C 0.271(9) 0.231(8) 0.434(9)
H17? H 0.2823 0.1417 0.4109
C20? C 0.153(4) 0.296(3) 0.342(3)
H18? H 0.0734 0.2472 0.2604
C21? C 0.154(4) 0.434(3) 0.370(3)
H19? H 0.0806 0.4791 0.3022
C22? C 0.260(6) 0.507(5) 0.496(5)
H20? H 0.2607 0.6007 0.5130
loop_
_geom_bond_atom_site_label_1
_geom_bond_atom_site_label_2
_geom_bond_site_symmetry_1
_geom_bond_site_symmetry_2
S1 O1 1_555 1_555
N1 N2 1_555 1_555
N2 C3 1_555 1_555
O1 C1 1_555 1_555
O2 S1 1_555 1_555
O3 S1 1_555 1_555
C1 N1 1_555 1_555
C2 C1 1_555 1_555
C3 C2 1_555 1_555
C4 C3 1_555 1_555
H1 C4 1_555 1_555
H2 C4 1_555 1_555
H3 C4 1_555 1_555
C5 S1 1_555 1_555
H4 C5 1_555 1_555
H5 C5 1_555 1_555
C6 C2 1_555 1_555
H6 C6 1_555 1_555
C7 C6 1_555 1_555
C8 C7 1_555 1_555
H7 C8 1_555 1_555
C9 C8 1_555 1_555
H8 C9 1_555 1_555
C10 C9 1_555 1_555
H9 C10 1_555 1_555
C11 C10 1_555 1_555
H10 C11 1_555 1_555
C12 C7 1_555 1_555
H11 C12 1_555 1_555
C13 N1 1_555 1_555
C14 C13 1_555 1_555
H12 C14 1_555 1_555
C15 C14 1_555 1_555
H13 C15 1_555 1_555
C16 C15 1_555 1_555
H14 C16 1_555 1_555
C17 C16 1_555 1_555
H15 C17 1_555 1_555
C18 C13 1_555 1_555
H16 C18 1_555 1_555
C5 C6 1_555 1_555
C11 C12 1_555 1_555
C17 C18 1_555 1_555

#END
