
#######################################################################
#
#                 Cambridge Crystallographic Data Centre
#                                CCDC 
#
#######################################################################
#
# If this CIF has been generated from an entry in the Cambridge 
# Structural Database, then it will include bibliographic, chemical, 
# crystal, experimental, refinement or atomic coordinate data resulting 
# from the CCDC's data processing and validation procedures.
#
#######################################################################

data_HEJMOB
_chemical_formula_moiety         'C13 H13 N1 O4'
_chemical_name_systematic        
4-hydroxy-3-[1-(4-nitrophenyl)ethenyl]pent-3-en-2-one
_symmetry_cell_setting           triclinic
_symmetry_space_group_name_H-M   'P -1'
_symmetry_Int_Tables_number      2
_space_group_name_Hall           '-P 1'
loop_
_symmetry_equiv_pos_site_id
_symmetry_equiv_pos_as_xyz
1 x,y,z
2 -x,-y,-z
_cell_length_a                   7.4586(6)
_cell_length_b                   7.9601(7)
_cell_length_c                   11.5382(8)
_cell_angle_alpha                75.7480(10)
_cell_angle_beta                 75.0310(10)
_cell_angle_gamma                80.815(2)
_cell_volume                     638.04
_cell_formula_units_Z            2
loop_
_atom_site_label
_atom_site_type_symbol
_atom_site_fract_x
_atom_site_fract_y
_atom_site_fract_z
N1 N -0.1760(5) 1.2279(4) 0.5378(3)
O1 O 0.4260(3) 0.3866(2) 0.8489(2)
H1 H 0.3601 0.3641 0.9185
O2 O 0.2204(3) 0.4300(3) 1.04420(19)
O3 O -0.1318(4) 1.3618(3) 0.4653(3)
O4 O -0.3190(4) 1.1653(4) 0.5480(2)
C1 C 0.5394(5) 0.6141(4) 0.6857(3)
H2 H 0.6671 0.6070 0.6904
H3 H 0.4969 0.7325 0.6534
H4 H 0.5298 0.5415 0.6327
C2 C 0.4226(4) 0.5539(4) 0.8103(3)
C3 C 0.3202(4) 0.6672(3) 0.8844(2)
C4 C 0.2192(4) 0.5984(4) 1.0027(3)
C5 C 0.1082(5) 0.7064(5) 1.0877(3)
H5 H 0.0304 0.6352 1.1555
H6 H 0.0315 0.7967 1.0455
H7 H 0.1901 0.7580 1.1178
C6 C 0.4354(5) 0.9420(4) 0.8719(3)
H8 H 0.4357 1.0621 0.8452
H9 H 0.5136 0.8801 0.9224
C7 C 0.3238(4) 0.8591(3) 0.8382(2)
C8 C 0.1978(4) 0.9534(3) 0.7581(2)
C9 C 0.0374(4) 0.8852(4) 0.7594(2)
H10 H 0.0114 0.7770 0.8097
C10 C -0.0845(4) 0.9737(4) 0.6882(3)
H11 H -0.1923 0.9267 0.6909
C11 C -0.0447(4) 1.1318(4) 0.6134(3)
C12 C 0.1143(5) 1.2031(4) 0.6070(3)
H12 H 0.1404 1.3100 0.5548
C13 C 0.2345(4) 1.1138(3) 0.6792(3)
H13 H 0.3425 1.1615 0.6752
H14? H 0.2899 0.3797 0.9928
loop_
_geom_bond_atom_site_label_1
_geom_bond_atom_site_label_2
_geom_bond_site_symmetry_1
_geom_bond_site_symmetry_2
N1 O3 1_555 1_555
O1 H1 1_555 1_555
O2 C4 1_555 1_555
O4 N1 1_555 1_555
C1 H2 1_555 1_555
H3 C1 1_555 1_555
H4 C1 1_555 1_555
C2 O1 1_555 1_555
C3 C2 1_555 1_555
C4 C3 1_555 1_555
C5 C4 1_555 1_555
H5 C5 1_555 1_555
H6 C5 1_555 1_555
H7 C5 1_555 1_555
C6 H8 1_555 1_555
H9 C6 1_555 1_555
C7 C3 1_555 1_555
C8 C7 1_555 1_555
C9 C8 1_555 1_555
H10 C9 1_555 1_555
C10 C9 1_555 1_555
H11 C10 1_555 1_555
C11 N1 1_555 1_555
C12 C11 1_555 1_555
H12 C12 1_555 1_555
C13 C8 1_555 1_555
H13 C13 1_555 1_555
C1 C2 1_555 1_555
C6 C7 1_555 1_555
C10 C11 1_555 1_555
C12 C13 1_555 1_555

#END
