
#######################################################################
#
#                 Cambridge Crystallographic Data Centre
#                                CCDC 
#
#######################################################################
#
# If this CIF has been generated from an entry in the Cambridge 
# Structural Database, then it will include bibliographic, chemical, 
# crystal, experimental, refinement or atomic coordinate data resulting 
# from the CCDC's data processing and validation procedures.
#
#######################################################################

data_HEJPOD
_chemical_formula_moiety         'C18 H28 N2 O2'
_chemical_name_systematic        N,N-Diethyl-N^2^-(2-methylbenzoyl)leucinamide
_symmetry_cell_setting           monoclinic
_symmetry_space_group_name_H-M   'P 21/c'
_symmetry_Int_Tables_number      14
_space_group_name_Hall           '-P 2ybc'
loop_
_symmetry_equiv_pos_site_id
_symmetry_equiv_pos_as_xyz
1 x,y,z
2 -x,1/2+y,1/2-z
3 -x,-y,-z
4 x,1/2-y,1/2+z
_cell_length_a                   8.7443(2)
_cell_length_b                   17.3141(4)
_cell_length_c                   12.3464(3)
_cell_angle_alpha                90
_cell_angle_beta                 109.958(3)
_cell_angle_gamma                90
_cell_volume                     1756.98
_exptl_crystal_colour            colorless
_exptl_crystal_description       parallelepiped
_chemical_melting_point          '367 K'
_cell_formula_units_Z            4
_exptl_crystal_recrystallization_method hexane/dichloromethane
loop_
_atom_site_label
_atom_site_type_symbol
_atom_site_fract_x
_atom_site_fract_y
_atom_site_fract_z
O1 O 0.63828(14) -0.09751(7) 0.24001(10)
O2 O 0.83373(15) 0.09001(7) 0.43854(10)
N1 N 0.88605(17) -0.06019(8) 0.36043(12)
H1 H 0.965(3) -0.0688(12) 0.4226(19)
N2 N 0.6775(2) 0.11374(10) 0.25667(13)
C1 C 0.8863(2) -0.23607(9) 0.41093(14)
C2 C 0.8855(2) -0.30053(10) 0.47886(15)
H2 H 0.9596 -0.3402 0.4846
C3 C 0.7771(2) -0.30658(11) 0.53763(16)
H3 H 0.7801 -0.3496 0.5835
C4 C 0.6643(2) -0.24905(12) 0.52853(16)
H4 H 0.5920 -0.2529 0.5687
C5 C 0.6593(2) -0.18541(11) 0.45904(15)
H5 H 0.5815 -0.1472 0.4511
C6 C 0.77034(19) -0.17847(9) 0.40106(13)
C7 C 0.75865(19) -0.10854(9) 0.32605(14)
C8 C 0.88753(19) 0.01079(9) 0.29745(13)
H6 H 0.8355 0.0015 0.2146
C9 C 0.79524(19) 0.07462(9) 0.33579(13)
C10 C 0.6004(2) 0.17905(10) 0.29292(16)
H7 H 0.5921 0.1674 0.3676
H8 H 0.4908 0.1851 0.2386
C11 C 0.6903(2) 0.25440(12) 0.30115(18)
H9 H 0.6335 0.2945 0.3255
H10 H 0.6965 0.2672 0.2271
H11 H 0.7983 0.2494 0.3561
C12 C 0.5881(3) 0.08250(16) 0.1386(2)
H12 H 0.4743 0.0970 0.1151
H13 H 0.5948 0.0266 0.1396
C13 C 0.6627(3) 0.11470(16) 0.0537(3)
H14 H 0.6062 0.0942 -0.0217
H15 H 0.7754 0.1003 0.0773
H16 H 0.6538 0.1700 0.0517
C14 C 1.06304(19) 0.03774(9) 0.32197(14)
H17 H 1.1134 0.0458 0.4043
H18 H 1.0606 0.0872 0.2845
C15 C 1.1700(2) -0.01760(10) 0.28229(15)
H19 H 1.1632 -0.0689 0.3139
C16 C 1.1143(3) -0.02414(14) 0.15235(18)
H20 H 1.1839 -0.0594 0.1310
H21 H 1.1192 0.0257 0.1197
H22 H 1.0044 -0.0429 0.1239
C17 C 1.3456(3) 0.00880(18) 0.3290(2)
H23 H 1.4120 -0.0262 0.3040
H24 H 1.3819 0.0096 0.4116
H25 H 1.3541 0.0597 0.3008
C18 C 1.0085(2) -0.23146(11) 0.35116(17)
H26 H 0.9932 -0.1843 0.3079
H27 H 0.9947 -0.2747 0.2999
H28 H 1.1162 -0.2325 0.4073
C19? C 0.6826(7) 0.1187(3) 0.1273(6)
C20? C 0.5491(8) 0.0641(3) 0.0616(6)
H29? H 0.6607 0.1708 0.0970
H30? H 0.7872 0.1021 0.1246
H31? H 0.5423 0.0625 -0.0177
H32? H 0.4473 0.0816 0.0661
H33? H 0.5725 0.0133 0.0943
loop_
_geom_bond_atom_site_label_1
_geom_bond_atom_site_label_2
_geom_bond_site_symmetry_1
_geom_bond_site_symmetry_2
O1 C7 1_555 1_555
O2 C9 1_555 1_555
N1 H1 1_555 1_555
N2 C9 1_555 1_555
C1 C2 1_555 1_555
C2 H2 1_555 1_555
C3 C2 1_555 1_555
H3 C3 1_555 1_555
C4 C3 1_555 1_555
H4 C4 1_555 1_555
C5 C4 1_555 1_555
H5 C5 1_555 1_555
C6 C1 1_555 1_555
C7 N1 1_555 1_555
C8 N1 1_555 1_555
H6 C8 1_555 1_555
C9 C8 1_555 1_555
C10 N2 1_555 1_555
H7 C10 1_555 1_555
H8 C10 1_555 1_555
C11 C10 1_555 1_555
H9 C11 1_555 1_555
H10 C11 1_555 1_555
H11 C11 1_555 1_555
C12 N2 1_555 1_555
H12 C12 1_555 1_555
H13 C12 1_555 1_555
C13 C12 1_555 1_555
H14 C13 1_555 1_555
H15 C13 1_555 1_555
H16 C13 1_555 1_555
C14 C8 1_555 1_555
H17 C14 1_555 1_555
H18 C14 1_555 1_555
C15 C14 1_555 1_555
H19 C15 1_555 1_555
C16 C15 1_555 1_555
H20 C16 1_555 1_555
H21 C16 1_555 1_555
H22 C16 1_555 1_555
C17 C15 1_555 1_555
H23 C17 1_555 1_555
H24 C17 1_555 1_555
H25 C17 1_555 1_555
C18 C1 1_555 1_555
H26 C18 1_555 1_555
H27 C18 1_555 1_555
H28 C18 1_555 1_555
C5 C6 1_555 1_555
C6 C7 1_555 1_555

#END
