
#######################################################################
#
#                 Cambridge Crystallographic Data Centre
#                                CCDC 
#
#######################################################################
#
# If this CIF has been generated from an entry in the Cambridge 
# Structural Database, then it will include bibliographic, chemical, 
# crystal, experimental, refinement or atomic coordinate data resulting 
# from the CCDC's data processing and validation procedures.
#
#######################################################################

data_HEJPET
_chemical_formula_moiety         'C17 H25 Br1 N2 O2'
_chemical_name_systematic        N^2^-(4-Bromobenzoyl)-N,N-diethylleucinamide
_symmetry_cell_setting           orthorhombic
_symmetry_space_group_name_H-M   'P b c a'
_symmetry_Int_Tables_number      61
_space_group_name_Hall           '-P 2ac 2ab'
loop_
_symmetry_equiv_pos_site_id
_symmetry_equiv_pos_as_xyz
1 x,y,z
2 1/2-x,-y,1/2+z
3 -x,1/2+y,1/2-z
4 1/2+x,1/2-y,-z
5 -x,-y,-z
6 1/2+x,y,1/2-z
7 x,1/2-y,1/2+z
8 1/2-x,1/2+y,z
_cell_length_a                   10.2088(5)
_cell_length_b                   15.9887(11)
_cell_length_c                   22.2875(11)
_cell_angle_alpha                90
_cell_angle_beta                 90
_cell_angle_gamma                90
_cell_volume                     3637.89
_exptl_crystal_colour            colorless
_exptl_crystal_description       parallelepiped
_chemical_melting_point          '395 K'
_cell_formula_units_Z            8
_exptl_crystal_recrystallization_method hexane/dichloromethane
loop_
_atom_site_label
_atom_site_type_symbol
_atom_site_fract_x
_atom_site_fract_y
_atom_site_fract_z
Br1 Br 0.25694(3) 0.00504(3) 0.496260(13)
O1 O 0.50631(17) -0.19618(16) 0.25105(8)
O2 O 0.3216(2) -0.13837(18) 0.11591(10)
N1 N 0.2952(2) -0.21232(16) 0.22751(10)
H1 H 0.2147 -0.2020 0.2362
N2 N 0.4555(2) -0.24116(19) 0.08373(12)
C1 C 0.4527(3) -0.1073(2) 0.35547(15)
H2 H 0.5394 -0.1188 0.3457
C2 C 0.4255(3) -0.0663(2) 0.40777(14)
H3 H 0.4930 -0.0505 0.4334
C3 C 0.2978(3) -0.0484(2) 0.42228(13)
C4 C 0.1984(3) -0.0686(2) 0.38367(14)
H4 H 0.1124 -0.0542 0.3928
C5 C 0.2265(2) -0.11031(19) 0.33119(13)
H5 H 0.1589 -0.1241 0.3051
C6 C 0.3541(2) -0.13202(19) 0.31668(12)
C7 C 0.3899(3) -0.1817(2) 0.26239(12)
C8 C 0.3254(2) -0.2623(2) 0.17570(13)
H6 H 0.3969 -0.3006 0.1859
C9 C 0.3694(3) -0.2069(3) 0.12265(15)
C10 C 0.5155(3) -0.3240(2) 0.09023(14)
H7 H 0.5370 -0.3457 0.0508
H8 H 0.4527 -0.3618 0.1085
C11 C 0.6374(3) -0.3218(3) 0.12791(15)
H9 H 0.6727 -0.3772 0.1313
H10 H 0.6164 -0.3010 0.1671
H11 H 0.7009 -0.2858 0.1094
C12 C 0.4918(3) -0.1930(3) 0.02953(15)
H12 H 0.4782 -0.1338 0.0369
H13 H 0.5839 -0.2015 0.0208
C13 C 0.4123(5) -0.2195(3) -0.02259(18)
H14 H 0.4370 -0.1874 -0.0572
H15 H 0.3212 -0.2105 -0.0141
H16 H 0.4270 -0.2778 -0.0303
C14 C 0.2056(2) -0.3142(2) 0.15634(14)
H17 H 0.1312 -0.2769 0.1525
H18 H 0.2230 -0.3374 0.1169
C15 C 0.1676(4) -0.3855(3) 0.1982(2)
H19 H 0.1609 -0.3644 0.2394
C16 C 0.0355(3) -0.4203(3) 0.17854(18)
H20 H -0.0292 -0.3768 0.1802
H21 H 0.0103 -0.4651 0.2048
H22 H 0.0420 -0.4410 0.1382
C17 C 0.2711(4) -0.4556(3) 0.1956(2)
H23 H 0.3544 -0.4339 0.2081
H24 H 0.2779 -0.4762 0.1553
H25 H 0.2456 -0.5004 0.2218
loop_
_geom_bond_atom_site_label_1
_geom_bond_atom_site_label_2
_geom_bond_site_symmetry_1
_geom_bond_site_symmetry_2
Br1 C3 1_555 1_555
O1 C7 1_555 1_555
O2 C9 1_555 1_555
N1 H1 1_555 1_555
N2 C9 1_555 1_555
C1 H2 1_555 1_555
C2 C1 1_555 1_555
H3 C2 1_555 1_555
C3 C2 1_555 1_555
C4 C3 1_555 1_555
H4 C4 1_555 1_555
C5 C4 1_555 1_555
H5 C5 1_555 1_555
C6 C1 1_555 1_555
C7 N1 1_555 1_555
C8 N1 1_555 1_555
H6 C8 1_555 1_555
C9 C8 1_555 1_555
C10 N2 1_555 1_555
H7 C10 1_555 1_555
H8 C10 1_555 1_555
C11 C10 1_555 1_555
H9 C11 1_555 1_555
H10 C11 1_555 1_555
H11 C11 1_555 1_555
C12 N2 1_555 1_555
H12 C12 1_555 1_555
H13 C12 1_555 1_555
C13 C12 1_555 1_555
H14 C13 1_555 1_555
H15 C13 1_555 1_555
H16 C13 1_555 1_555
C14 C8 1_555 1_555
H17 C14 1_555 1_555
H18 C14 1_555 1_555
C15 C14 1_555 1_555
H19 C15 1_555 1_555
C16 C15 1_555 1_555
H20 C16 1_555 1_555
H21 C16 1_555 1_555
H22 C16 1_555 1_555
C17 C15 1_555 1_555
H23 C17 1_555 1_555
H24 C17 1_555 1_555
H25 C17 1_555 1_555
C5 C6 1_555 1_555
C6 C7 1_555 1_555

#END
