
#######################################################################
#
#                 Cambridge Crystallographic Data Centre
#                                CCDC 
#
#######################################################################
#
# If this CIF has been generated from an entry in the Cambridge 
# Structural Database, then it will include bibliographic, chemical, 
# crystal, experimental, refinement or atomic coordinate data resulting 
# from the CCDC's data processing and validation procedures.
#
#######################################################################

data_HEKBOR
_chemical_formula_moiety         'C12 H10 F1 N1 O4'
_chemical_name_systematic        
3-ethenyl-7-fluoro-3a-nitro-2,3,3a,8b-tetrahydrofuro[3,2-b][1]benzofuran
_symmetry_cell_setting           orthorhombic
_symmetry_space_group_name_H-M   'P 21 21 21'
_symmetry_Int_Tables_number      19
_space_group_name_Hall           'P 2ac 2ab'
loop_
_symmetry_equiv_pos_site_id
_symmetry_equiv_pos_as_xyz
1 x,y,z
2 1/2-x,-y,1/2+z
3 -x,1/2+y,1/2-z
4 1/2+x,1/2-y,-z
_cell_length_a                   6.5247(7)
_cell_length_b                   10.4460(12)
_cell_length_c                   16.3533(18)
_cell_angle_alpha                90
_cell_angle_beta                 90
_cell_angle_gamma                90
_cell_volume                     1114.59
_exptl_crystal_colour            colorless
_exptl_crystal_description       block
_cell_formula_units_Z            4
loop_
_atom_site_label
_atom_site_type_symbol
_atom_site_fract_x
_atom_site_fract_y
_atom_site_fract_z
F1 F 0.9293(4) 0.7301(2) 0.36686(13)
O1 O 0.3056(3) 0.4736(2) 0.51458(12)
O2 O 0.7340(3) 0.3487(2) 0.58622(14)
O3 O 0.1106(4) 0.5362(3) 0.64441(17)
O4 O 0.3570(4) 0.4802(3) 0.72462(13)
N1 N 0.2770(4) 0.4891(2) 0.65779(15)
C1 C 0.4558(4) 0.5408(3) 0.47249(15)
C2 C 0.4206(5) 0.5996(3) 0.39833(18)
H1 H 0.292851 0.597287 0.373164
C3 C 0.5859(6) 0.6626(3) 0.36325(19)
H2 H 0.570868 0.702967 0.312937
C4 C 0.7721(5) 0.6653(3) 0.4027(2)
C5 C 0.8079(5) 0.6057(3) 0.47643(18)
H3 H 0.935713 0.608423 0.501518
C6 C 0.6443(4) 0.5418(3) 0.51132(15)
C7 C 0.6262(4) 0.4671(3) 0.58847(16)
H4 H 0.661971 0.518187 0.636647
C8 C 0.3954(4) 0.4295(3) 0.58746(15)
C9 C 0.3925(4) 0.2823(3) 0.59556(18)
H5 H 0.388620 0.247928 0.539818
C10 C 0.6084(5) 0.2570(3) 0.6282(2)
H6 H 0.614318 0.269958 0.686852
H7 H 0.651787 0.170296 0.615820
C11 C 0.2157(6) 0.2252(3) 0.6398(2)
H8 H 0.085976 0.245631 0.620168
C12 C 0.2230(7) 0.1514(4) 0.7015(3)
H9 H 0.348927 0.127927 0.723486
H10 H 0.102329 0.120807 0.724627
loop_
_geom_bond_atom_site_label_1
_geom_bond_atom_site_label_2
_geom_bond_site_symmetry_1
_geom_bond_site_symmetry_2
F1 C4 1_555 1_555
O1 C1 1_555 1_555
O2 C7 1_555 1_555
O3 N1 1_555 1_555
O4 N1 1_555 1_555
N1 C8 1_555 1_555
C1 C2 1_555 1_555
C2 H1 1_555 1_555
C3 C2 1_555 1_555
H2 C3 1_555 1_555
C4 C3 1_555 1_555
C5 C4 1_555 1_555
H3 C5 1_555 1_555
C6 C1 1_555 1_555
C7 C6 1_555 1_555
H4 C7 1_555 1_555
C8 O1 1_555 1_555
C9 C8 1_555 1_555
H5 C9 1_555 1_555
C10 O2 1_555 1_555
H6 C10 1_555 1_555
H7 C10 1_555 1_555
C11 C9 1_555 1_555
H8 C11 1_555 1_555
C12 C11 1_555 1_555
H9 C12 1_555 1_555
H10 C12 1_555 1_555
C5 C6 1_555 1_555
C7 C8 1_555 1_555
C9 C10 1_555 1_555

#END
