
#######################################################################
#
#                 Cambridge Crystallographic Data Centre
#                                CCDC 
#
#######################################################################
#
# If this CIF has been generated from an entry in the Cambridge 
# Structural Database, then it will include bibliographic, chemical, 
# crystal, experimental, refinement or atomic coordinate data resulting 
# from the CCDC's data processing and validation procedures.
#
#######################################################################

data_HEKKAM
_chemical_formula_moiety         'C23 H24 F3 N1 O3'
_chemical_name_systematic        
't-butyl {(1-oxo-1,2,3,4-tetrahydronaphthalen-2-yl)[4-(trifluoromethyl)phenyl]methyl}carbamate'
_symmetry_cell_setting           orthorhombic
_symmetry_space_group_name_H-M   'P 21 21 2'
_symmetry_Int_Tables_number      18
_space_group_name_Hall           'P 2 2ab'
loop_
_symmetry_equiv_pos_site_id
_symmetry_equiv_pos_as_xyz
1 x,y,z
2 -x,-y,z
3 1/2-x,1/2+y,-z
4 1/2+x,1/2-y,-z
_cell_length_a                   17.9533(5)
_cell_length_b                   21.1200(5)
_cell_length_c                   5.48700(10)
_cell_angle_alpha                90
_cell_angle_beta                 90
_cell_angle_gamma                90
_cell_volume                     2080.53
_exptl_crystal_colour            colorless
_exptl_crystal_description       block
_cell_formula_units_Z            4
loop_
_atom_site_label
_atom_site_type_symbol
_atom_site_fract_x
_atom_site_fract_y
_atom_site_fract_z
O1 O 0.37190(8) 0.79426(7) 0.0543(2)
O2 O 0.44344(8) 0.83671(7) 0.3567(2)
O3 O 0.19859(8) 0.63421(6) 0.2406(3)
F1 F -0.02756(9) 0.83386(8) 0.8681(3)
F2 F -0.01400(9) 0.89970(8) 0.5793(3)
F3 F 0.03870(9) 0.91625(9) 0.9241(4)
N1 N 0.34998(9) 0.77405(8) 0.4564(3)
H1 H 0.3651(14) 0.7819(12) 0.604(4)
C1 C 0.54542(14) 0.90474(12) 0.3629(4)
H2 H 0.5162 0.9341 0.4628
H3 H 0.5827 0.9285 0.2699
H4 H 0.5705 0.8740 0.4687
C2 C 0.49416(11) 0.87006(9) 0.1883(4)
C3 C 0.38749(10) 0.80110(9) 0.2689(4)
C4 C 0.28357(11) 0.73558(9) 0.4155(4)
H5 H 0.2765 0.7333 0.2350
C5 C 0.29797(11) 0.66733(10) 0.5026(3)
H6 H 0.3471 0.6548 0.4316
C6 C 0.30560(11) 0.65878(10) 0.7792(3)
H7 H 0.3411 0.6903 0.8448
H8 H 0.2567 0.6657 0.8584
C7 C 0.33345(12) 0.59184(10) 0.8349(4)
H9 H 0.3856 0.5878 0.7785
H10 H 0.3329 0.5851 1.0135
C8 C 0.28673(11) 0.54142(9) 0.7143(4)
C9 C 0.28579(12) 0.47977(10) 0.8049(4)
H11 H 0.3141 0.4697 0.9459
C10 C 0.24422(13) 0.43309(10) 0.6927(5)
H12 H 0.2444 0.3913 0.7567
C11 C 0.20190(13) 0.44688(10) 0.4860(4)
H13 H 0.1738 0.4146 0.4080
C12 C 0.20123(12) 0.50783(10) 0.3961(4)
H14 H 0.1719 0.5176 0.2570
C13 C 0.24330(11) 0.55530(9) 0.5082(4)
C14 C 0.24167(11) 0.62040(9) 0.4037(4)
C15 C 0.21454(11) 0.76801(9) 0.5178(4)
C16 C 0.14887(12) 0.76855(10) 0.3812(4)
H15 H 0.1466 0.7454 0.2331
C17 C 0.08699(12) 0.80222(10) 0.4576(4)
H16 H 0.0428 0.8022 0.3624
C18 C 0.08997(12) 0.83618(10) 0.6750(4)
C19 C 0.15398(12) 0.83475(9) 0.8158(4)
H17 H 0.1555 0.8570 0.9663
C20 C 0.21577(11) 0.80108(9) 0.7382(4)
H18 H 0.2594 0.8005 0.8359
C21 C 0.02308(13) 0.87188(11) 0.7601(5)
C22 C 0.45178(13) 0.91675(10) 0.0310(4)
H19 H 0.4213 0.8936 -0.0873
H20 H 0.4871 0.9440 -0.0558
H21 H 0.4195 0.9429 0.1343
C23 C 0.53749(13) 0.82263(11) 0.0377(5)
H22 H 0.5612 0.7917 0.1460
H23 H 0.5758 0.8448 -0.0567
H24 H 0.5035 0.8007 -0.0735
loop_
_geom_bond_atom_site_label_1
_geom_bond_atom_site_label_2
_geom_bond_site_symmetry_1
_geom_bond_site_symmetry_2
O1 C3 1_555 1_555
O2 C2 1_555 1_555
O3 C14 1_555 1_555
F1 C21 1_555 1_555
F2 C21 1_555 1_555
F3 C21 1_555 1_555
N1 H1 1_555 1_555
C1 H2 1_555 1_555
H3 C1 1_555 1_555
H4 C1 1_555 1_555
C2 C1 1_555 1_555
C3 O2 1_555 1_555
C4 N1 1_555 1_555
H5 C4 1_555 1_555
C5 C4 1_555 1_555
H6 C5 1_555 1_555
C6 C5 1_555 1_555
H7 C6 1_555 1_555
H8 C6 1_555 1_555
C7 C6 1_555 1_555
H9 C7 1_555 1_555
H10 C7 1_555 1_555
C8 C7 1_555 1_555
C9 C8 1_555 1_555
H11 C9 1_555 1_555
C10 C9 1_555 1_555
H12 C10 1_555 1_555
C11 C10 1_555 1_555
H13 C11 1_555 1_555
C12 C11 1_555 1_555
H14 C12 1_555 1_555
C13 C8 1_555 1_555
C14 C5 1_555 1_555
C15 C4 1_555 1_555
C16 C15 1_555 1_555
H15 C16 1_555 1_555
C17 C16 1_555 1_555
H16 C17 1_555 1_555
C18 C17 1_555 1_555
C19 C18 1_555 1_555
H17 C19 1_555 1_555
C20 C15 1_555 1_555
H18 C20 1_555 1_555
C21 C18 1_555 1_555
C22 C2 1_555 1_555
H19 C22 1_555 1_555
H20 C22 1_555 1_555
H21 C22 1_555 1_555
C23 C2 1_555 1_555
H22 C23 1_555 1_555
H23 C23 1_555 1_555
H24 C23 1_555 1_555
N1 C3 1_555 1_555
C12 C13 1_555 1_555
C13 C14 1_555 1_555
C19 C20 1_555 1_555

#END
