
#######################################################################
#
#                 Cambridge Crystallographic Data Centre
#                                CCDC 
#
#######################################################################
#
# If this CIF has been generated from an entry in the Cambridge 
# Structural Database, then it will include bibliographic, chemical, 
# crystal, experimental, refinement or atomic coordinate data resulting 
# from the CCDC's data processing and validation procedures.
#
#######################################################################

data_HEMGIS
_chemical_formula_moiety         'C34 H33 F4 Mg1 N3,0.25(C6 H14)'
_chemical_name_systematic        
'(2,3,4,5-tetrafluoro-6-(pyridin-2-yl)phenyl)-(N^2^,N^4^-bis(2,4,6-trimethylphenyl)pentane-2,4-diiminato)-magnesium hexane solvate'
_symmetry_cell_setting           triclinic
_symmetry_space_group_name_H-M   'P -1'
_symmetry_Int_Tables_number      2
_space_group_name_Hall           '-P 1'
loop_
_symmetry_equiv_pos_site_id
_symmetry_equiv_pos_as_xyz
1 x,y,z
2 -x,-y,-z
_cell_length_a                   11.8799(7)
_cell_length_b                   16.0457(8)
_cell_length_c                   17.2413(8)
_cell_angle_alpha                83.738(4)
_cell_angle_beta                 85.661(4)
_cell_angle_gamma                88.935(4)
_cell_volume                     3257.41
_exptl_crystal_colour            'pale yellow'
_exptl_crystal_description       shards
_cell_formula_units_Z            4
loop_
_atom_site_label
_atom_site_type_symbol
_atom_site_fract_x
_atom_site_fract_y
_atom_site_fract_z
Mg1 Mg 0.46581(8) 0.50451(6) 0.24736(5)
N1 N 0.36267(19) 0.50608(13) 0.15883(14)
C1 C 0.3806(2) 0.46195(17) 0.09800(16)
C2 C 0.4654(2) 0.40074(18) 0.09191(17)
H1 H 0.4689 0.3740 0.0452
C3 C 0.5458(2) 0.37309(18) 0.14467(17)
N2 N 0.5555(2) 0.40448(15) 0.21213(14)
C4 C 0.3051(3) 0.4760(2) 0.03093(18)
H2 H 0.2280 0.4592 0.0494
H3 H 0.3330 0.4424 -0.0108
H4 H 0.3054 0.5355 0.0107
C5 C 0.6254(3) 0.3037(2) 0.1220(2)
H5 H 0.7009 0.3267 0.1077
H6 H 0.5981 0.2793 0.0774
H7 H 0.6288 0.2602 0.1664
C6 C 0.2639(2) 0.55841(16) 0.16345(16)
C7 C 0.1601(2) 0.52250(16) 0.19241(16)
C8 C 0.0659(3) 0.57454(18) 0.19881(17)
H8 H -0.0046 0.5502 0.2176
C9 C 0.0706(3) 0.66056(18) 0.17898(17)
C10 C 0.1744(3) 0.69458(17) 0.15092(17)
H9 H 0.1794 0.7534 0.1369
C11 C 0.2708(3) 0.64554(17) 0.14275(17)
C12 C 0.1489(3) 0.42963(18) 0.2159(2)
H10 H 0.0996 0.4058 0.1811
H11 H 0.1162 0.4199 0.2699
H12 H 0.2235 0.4028 0.2118
C13 C -0.0333(3) 0.7146(2) 0.1883(2)
H13 H -0.0532 0.7399 0.1368
H14 H -0.0184 0.7589 0.2210
H15 H -0.0959 0.6801 0.2133
C14 C 0.3824(3) 0.6851(2) 0.1128(2)
H16 H 0.4298 0.6877 0.1566
H17 H 0.3691 0.7419 0.0879
H18 H 0.4208 0.6513 0.0745
C15 C 0.6422(2) 0.37355(18) 0.26155(17)
C16 C 0.7464(3) 0.4134(2) 0.25369(19)
C17 C 0.8261(3) 0.3901(2) 0.3077(2)
H19 H 0.8968 0.4177 0.3026
C18 C 0.8041(3) 0.3274(2) 0.36851(18)
C19 C 0.7016(3) 0.2868(2) 0.37378(18)
H20 H 0.6868 0.2427 0.4145
C20 C 0.6195(3) 0.30822(18) 0.32144(18)
C21 C 0.7746(3) 0.4797(3) 0.1861(2)
H21 H 0.7208 0.4769 0.1461
H22 H 0.8513 0.4700 0.1635
H23 H 0.7698 0.5353 0.2049
C22 C 0.8909(3) 0.3034(3) 0.4272(2)
H24 H 0.8546 0.3010 0.4804
H25 H 0.9508 0.3453 0.4208
H26 H 0.9235 0.2483 0.4185
C23 C 0.5091(3) 0.2624(2) 0.3291(2)
H27 H 0.4485 0.3016 0.3135
H28 H 0.4929 0.2388 0.3835
H29 H 0.5141 0.2171 0.2951
N3 N 0.3844(2) 0.48865(16) 0.36330(15)
C24 C 0.3080(3) 0.4280(2) 0.3895(2)
H30 H 0.2918 0.3877 0.3556
C25 C 0.2533(3) 0.4225(3) 0.4629(2)
H31 H 0.1992 0.3801 0.4795
C26 C 0.2791(4) 0.4800(3) 0.5112(2)
H32 H 0.2439 0.4765 0.5628
C27 C 0.3542(3) 0.5424(3) 0.4874(2)
H33 H 0.3694 0.5828 0.5215
C28 C 0.4098(3) 0.5467(2) 0.41075(19)
C29 C 0.4928(3) 0.6095(2) 0.3766(2)
C30 C 0.5328(3) 0.6703(3) 0.4199(2)
F1 F 0.4995(2) 0.6727(2) 0.49738(15)
C31 C 0.6087(3) 0.7296(3) 0.3870(3)
F2 F 0.6461(3) 0.7863(2) 0.4316(2)
C32 C 0.6473(3) 0.7317(2) 0.3097(3)
F3 F 0.7205(2) 0.78980(16) 0.27833(19)
C33 C 0.6079(3) 0.6701(2) 0.2678(2)
F4 F 0.6489(2) 0.67392(15) 0.19214(14)
C34 C 0.5343(3) 0.60901(19) 0.2966(2)
Mg2 Mg 0.14451(10) 0.98069(6) 0.22198(6)
N4 N 0.1382(2) 0.92991(14) 0.33551(14)
C35 C 0.1643(3) 0.97309(19) 0.39292(18)
C36 C 0.1834(3) 1.0603(2) 0.38387(19)
H34 H 0.2120 1.0819 0.4276
C37 C 0.1663(3) 1.12000(18) 0.31945(18)
N5 N 0.1386(2) 1.10099(14) 0.25054(15)
C38 C 0.1746(4) 0.9285(2) 0.4739(2)
H35 H 0.0999 0.9099 0.4965
H36 H 0.2057 0.9668 0.5071
H37 H 0.2249 0.8797 0.4706
C39 C 0.1812(3) 1.2110(2) 0.3323(2)
H38 H 0.2369 1.2370 0.2926
H39 H 0.2075 1.2140 0.3845
H40 H 0.1088 1.2409 0.3282
C40 C 0.1089(2) 0.84335(17) 0.35385(16)
C41 C -0.0012(3) 0.82051(18) 0.38136(17)
C42 C -0.0282(3) 0.7359(2) 0.39435(18)
H41 H -0.1032 0.7206 0.4127
C43 C 0.0499(3) 0.67358(18) 0.38145(17)
C44 C 0.1590(3) 0.69724(18) 0.35400(17)
H42 H 0.2135 0.6548 0.3443
C45 C 0.1911(3) 0.78074(18) 0.34018(17)
C46 C -0.0896(3) 0.8869(2) 0.3970(2)
H43 H -0.0780 0.9084 0.4469
H44 H -0.1649 0.8623 0.3997
H45 H -0.0833 0.9330 0.3547
C47 C 0.0188(4) 0.5817(2) 0.3969(2)
H46 H 0.0803 0.5474 0.3754
H47 H -0.0504 0.5723 0.3717
H48 H 0.0066 0.5660 0.4534
C48 C 0.3107(3) 0.8033(2) 0.3114(2)
H49 H 0.3110 0.8367 0.2602
H50 H 0.3554 0.7520 0.3065
H51 H 0.3434 0.8360 0.3487
C49 C 0.1107(3) 1.16790(17) 0.19208(18)
C50 C 0.1929(3) 1.20194(18) 0.13611(19)
C51 C 0.1603(3) 1.26395(18) 0.07863(19)
H52 H 0.2158 1.2863 0.0397
C52 C 0.0507(3) 1.2941(2) 0.0759(2)
C53 C -0.0286(3) 1.2594(2) 0.1325(2)
H53 H -0.1044 1.2792 0.1317
C54 C -0.0019(3) 1.19660(19) 0.1908(2)
C55 C 0.3141(3) 1.1728(2) 0.1367(2)
H54 H 0.3395 1.1730 0.1894
H55 H 0.3612 1.2106 0.0998
H56 H 0.3204 1.1158 0.1212
C56 C 0.0193(5) 1.3633(3) 0.0143(3)
H57 H 0.0072 1.4158 0.0381
H58 H -0.0502 1.3485 -0.0080
H59 H 0.0805 1.3706 -0.0273
C57 C -0.0923(3) 1.1607(3) 0.2505(3)
H60 H -0.0998 1.1006 0.2462
H61 H -0.1643 1.1893 0.2409
H62 H -0.0716 1.1687 0.3031
N6 N 0.0175(3) 0.94625(17) 0.15057(17)
C58 C -0.0927(4) 0.9466(2) 0.1693(3)
H63 H -0.1187 0.9654 0.2179
C59 C -0.1736(5) 0.9209(2) 0.1215(3)
H64 H -0.2522 0.9212 0.1366
C60 C -0.1313(6) 0.8952(2) 0.0517(3)
H65 H -0.1824 0.8780 0.0169
C61 C -0.0180(6) 0.8935(2) 0.0306(3)
H66 H 0.0089 0.8743 -0.0177
C62 C 0.0581(5) 0.92029(19) 0.08078(19)
C63 C 0.1842(4) 0.92005(19) 0.0662(2)
C64 C 0.2412(6) 0.8998(2) -0.0043(2)
F5 F 0.1837(4) 0.88167(19) -0.06595(15)
C65 C 0.3554(7) 0.9001(3) -0.0151(3)
F6 F 0.4045(4) 0.88280(19) -0.0847(2)
C66 C 0.4182(5) 0.9166(2) 0.0437(3)
F7 F 0.5330(3) 0.91250(18) 0.0332(2)
C67 C 0.3653(4) 0.9381(2) 0.1132(3)
F8 F 0.4318(2) 0.95639(17) 0.16857(18)
C68 C 0.2485(4) 0.94057(19) 0.1255(2)
C69 C 0.389(2) 0.988(2) 0.6932(14)
H67 H 0.4167 0.9892 0.7452
H68 H 0.3378 1.0349 0.6820
H69 H 0.3494 0.9349 0.6917
C70 C 0.4872(18) 0.993(2) 0.6333(11)
H70 H 0.5282 1.0456 0.6357
H71 H 0.5399 0.9455 0.6454
C71 C 0.4513(17) 0.9907(18) 0.5526(12)
H72 H 0.4178 0.9352 0.5494
H73 H 0.3914 1.0336 0.5436
C72 C 0.542(2) 1.005(3) 0.4891(11)
H74 H 0.6072 0.9687 0.5023
H75 H 0.5668 1.0642 0.4865
C73 C 0.509(3) 0.990(3) 0.4104(13)
H76 H 0.4363 1.0190 0.4004
H77 H 0.4964 0.9288 0.4100
C74 C 0.596(3) 1.019(3) 0.3460(15)
H78 H 0.5701 1.0068 0.2956
H79 H 0.6071 1.0790 0.3454
H80 H 0.6672 0.9887 0.3549
C69A C 0.611(2) 1.012(2) 0.3068(14)
H67A H 0.5833 1.0108 0.2548
H68A H 0.6622 0.9651 0.3180
H69A H 0.6506 1.0651 0.3083
C70A C 0.5128(18) 1.007(2) 0.3667(11)
H70A H 0.4718 0.9544 0.3643
H71A H 0.4601 1.0545 0.3546
C71A C 0.5487(17) 1.0093(18) 0.4474(12)
H72A H 0.5822 1.0648 0.4506
H73A H 0.6086 0.9664 0.4564
C72A C 0.458(2) 0.995(3) 0.5109(11)
H74A H 0.3928 1.0313 0.4977
H75A H 0.4332 0.9358 0.5135
C73A C 0.491(3) 1.010(3) 0.5896(13)
H76A H 0.5637 0.9810 0.5996
H77A H 0.5036 1.0712 0.5900
C74A C 0.404(3) 0.981(3) 0.6540(15)
H78A H 0.4299 0.9932 0.7044
H79A H 0.3929 0.9210 0.6546
H80A H 0.3328 1.0113 0.6451
C75? C 0.388(3) 0.966(2) 0.729(2)
H81? H 0.3772 0.9993 0.7734
H82? H 0.3137 0.9499 0.7139
H83? H 0.4329 0.9162 0.7427
C76? C 0.447(4) 1.0184(19) 0.6609(16)
H84? H 0.4020 1.0696 0.6467
H85? H 0.5214 1.0357 0.6755
C77? C 0.463(4) 0.9682(17) 0.593(2)
H86? H 0.5206 0.9242 0.6038
H87? H 0.3910 0.9399 0.5871
C78? C 0.498(5) 1.019(2) 0.5174(16)
H88? H 0.5705 1.0461 0.5221
H89? H 0.4406 1.0631 0.5060
C79? C 0.510(5) 0.965(3) 0.451(2)
H90? H 0.4347 0.9549 0.4340
H91? H 0.5436 0.9104 0.4701
C80? C 0.583(4) 1.005(3) 0.383(2)
H92? H 0.5888 0.9677 0.3416
H93? H 0.5496 1.0587 0.3637
H94? H 0.6586 1.0142 0.3998
loop_
_geom_bond_atom_site_label_1
_geom_bond_atom_site_label_2
_geom_bond_site_symmetry_1
_geom_bond_site_symmetry_2
Mg1 N1 1_555 1_555
N1 C1 1_555 1_555
C1 C2 1_555 1_555
C2 H1 1_555 1_555
C3 C2 1_555 1_555
N2 Mg1 1_555 1_555
C4 C1 1_555 1_555
H2 C4 1_555 1_555
H3 C4 1_555 1_555
H4 C4 1_555 1_555
C5 C3 1_555 1_555
H5 C5 1_555 1_555
H6 C5 1_555 1_555
H7 C5 1_555 1_555
C6 N1 1_555 1_555
C7 C6 1_555 1_555
C8 C7 1_555 1_555
H8 C8 1_555 1_555
C9 C8 1_555 1_555
C10 C9 1_555 1_555
H9 C10 1_555 1_555
C11 C6 1_555 1_555
C12 C7 1_555 1_555
H10 C12 1_555 1_555
H11 C12 1_555 1_555
H12 C12 1_555 1_555
C13 C9 1_555 1_555
H13 C13 1_555 1_555
H14 C13 1_555 1_555
H15 C13 1_555 1_555
C14 C11 1_555 1_555
H16 C14 1_555 1_555
H17 C14 1_555 1_555
H18 C14 1_555 1_555
C15 N2 1_555 1_555
C16 C15 1_555 1_555
C17 C16 1_555 1_555
H19 C17 1_555 1_555
C18 C17 1_555 1_555
C19 C18 1_555 1_555
H20 C19 1_555 1_555
C20 C15 1_555 1_555
C21 C16 1_555 1_555
H21 C21 1_555 1_555
H22 C21 1_555 1_555
H23 C21 1_555 1_555
C22 C18 1_555 1_555
H24 C22 1_555 1_555
H25 C22 1_555 1_555
H26 C22 1_555 1_555
C23 C20 1_555 1_555
H27 C23 1_555 1_555
H28 C23 1_555 1_555
H29 C23 1_555 1_555
N3 Mg1 1_555 1_555
C24 N3 1_555 1_555
H30 C24 1_555 1_555
C25 C24 1_555 1_555
H31 C25 1_555 1_555
C26 C25 1_555 1_555
H32 C26 1_555 1_555
C27 C26 1_555 1_555
H33 C27 1_555 1_555
C28 N3 1_555 1_555
C29 C28 1_555 1_555
C30 C29 1_555 1_555
F1 C30 1_555 1_555
C31 C30 1_555 1_555
F2 C31 1_555 1_555
C32 C31 1_555 1_555
F3 C32 1_555 1_555
C33 C32 1_555 1_555
F4 C33 1_555 1_555
C34 Mg1 1_555 1_555
Mg2 N4 1_555 1_555
N4 C35 1_555 1_555
C35 C36 1_555 1_555
C36 H34 1_555 1_555
C37 C36 1_555 1_555
N5 Mg2 1_555 1_555
C38 C35 1_555 1_555
H35 C38 1_555 1_555
H36 C38 1_555 1_555
H37 C38 1_555 1_555
C39 C37 1_555 1_555
H38 C39 1_555 1_555
H39 C39 1_555 1_555
H40 C39 1_555 1_555
C40 N4 1_555 1_555
C41 C40 1_555 1_555
C42 C41 1_555 1_555
H41 C42 1_555 1_555
C43 C42 1_555 1_555
C44 C43 1_555 1_555
H42 C44 1_555 1_555
C45 C40 1_555 1_555
C46 C41 1_555 1_555
H43 C46 1_555 1_555
H44 C46 1_555 1_555
H45 C46 1_555 1_555
C47 C43 1_555 1_555
H46 C47 1_555 1_555
H47 C47 1_555 1_555
H48 C47 1_555 1_555
C48 C45 1_555 1_555
H49 C48 1_555 1_555
H50 C48 1_555 1_555
H51 C48 1_555 1_555
C49 N5 1_555 1_555
C50 C49 1_555 1_555
C51 C50 1_555 1_555
H52 C51 1_555 1_555
C52 C51 1_555 1_555
C53 C52 1_555 1_555
H53 C53 1_555 1_555
C54 C49 1_555 1_555
C55 C50 1_555 1_555
H54 C55 1_555 1_555
H55 C55 1_555 1_555
H56 C55 1_555 1_555
C56 C52 1_555 1_555
H57 C56 1_555 1_555
H58 C56 1_555 1_555
H59 C56 1_555 1_555
C57 C54 1_555 1_555
H60 C57 1_555 1_555
H61 C57 1_555 1_555
H62 C57 1_555 1_555
N6 Mg2 1_555 1_555
C58 N6 1_555 1_555
H63 C58 1_555 1_555
C59 C58 1_555 1_555
H64 C59 1_555 1_555
C60 C59 1_555 1_555
H65 C60 1_555 1_555
C61 C60 1_555 1_555
H66 C61 1_555 1_555
C62 N6 1_555 1_555
C63 C62 1_555 1_555
C64 C63 1_555 1_555
F5 C64 1_555 1_555
C65 C64 1_555 1_555
F6 C65 1_555 1_555
C66 C65 1_555 1_555
F7 C66 1_555 1_555
C67 C66 1_555 1_555
F8 C67 1_555 1_555
C68 Mg2 1_555 1_555
C69 H67 1_555 1_555
H68 C69 1_555 1_555
H69 C69 1_555 1_555
C70 C69 1_555 1_555
H70 C70 1_555 1_555
H71 C70 1_555 1_555
C71 C70 1_555 1_555
H72 C71 1_555 1_555
H73 C71 1_555 1_555
C72 C71 1_555 1_555
H74 C72 1_555 1_555
H75 C72 1_555 1_555
C73 C72 1_555 1_555
H76 C73 1_555 1_555
H77 C73 1_555 1_555
C74 C73 1_555 1_555
H78 C74 1_555 1_555
H79 C74 1_555 1_555
H80 C74 1_555 1_555
C69A H67A 1_555 1_555
H68A C69A 1_555 1_555
H69A C69A 1_555 1_555
C70A C69A 1_555 1_555
H70A C70A 1_555 1_555
H71A C70A 1_555 1_555
C71A C70A 1_555 1_555
H72A C71A 1_555 1_555
H73A C71A 1_555 1_555
C72A C71A 1_555 1_555
H74A C72A 1_555 1_555
H75A C72A 1_555 1_555
C73A C72A 1_555 1_555
H76A C73A 1_555 1_555
H77A C73A 1_555 1_555
C74A C73A 1_555 1_555
H78A C74A 1_555 1_555
H79A C74A 1_555 1_555
H80A C74A 1_555 1_555
C3 N2 1_555 1_555
C10 C11 1_555 1_555
C19 C20 1_555 1_555
C27 C28 1_555 1_555
C29 C34 1_555 1_555
C33 C34 1_555 1_555
C37 N5 1_555 1_555
C44 C45 1_555 1_555
C53 C54 1_555 1_555
C61 C62 1_555 1_555
C63 C68 1_555 1_555
C67 C68 1_555 1_555

#END
