
#######################################################################
#
#                 Cambridge Crystallographic Data Centre
#                                CCDC 
#
#######################################################################
#
# If this CIF has been generated from an entry in the Cambridge 
# Structural Database, then it will include bibliographic, chemical, 
# crystal, experimental, refinement or atomic coordinate data resulting 
# from the CCDC's data processing and validation procedures.
#
#######################################################################

data_HEMNOF
_chemical_formula_moiety         'C37 H35 Cl1 N2 O8'
_chemical_name_systematic        
"1,1''-di-t-butyl 4'-methyl 5'-(4-chlorophenyl)-2,2''-dioxodispiro[indole-3,1'-cyclopent[3]ene-2',3''-indole]-1,1'',4'(2H,2''H)-tricarboxylate"
_symmetry_cell_setting           monoclinic
_symmetry_space_group_name_H-M   'P 21/c'
_symmetry_Int_Tables_number      14
_space_group_name_Hall           '-P 2ybc'
loop_
_symmetry_equiv_pos_site_id
_symmetry_equiv_pos_as_xyz
1 x,y,z
2 -x,1/2+y,1/2-z
3 -x,-y,-z
4 x,1/2-y,1/2+z
_cell_length_a                   15.0500(15)
_cell_length_b                   15.9438(16)
_cell_length_c                   15.0274(15)
_cell_angle_alpha                90
_cell_angle_beta                 113.382(2)
_cell_angle_gamma                90
_cell_volume                     3309.77
_exptl_crystal_colour            colorless
_exptl_crystal_description       prism
_cell_formula_units_Z            4
loop_
_atom_site_label
_atom_site_type_symbol
_atom_site_fract_x
_atom_site_fract_y
_atom_site_fract_z
Cl1 Cl 0.45475(3) 0.21237(3) 0.46238(3)
O1 O 1.16900(6) 0.37130(5) 0.47192(7)
O2 O 0.69213(6) -0.00541(5) 0.31520(6)
O3 O 1.25295(7) 0.25570(6) 0.46320(8)
O4 O 0.98281(6) 0.36923(5) 0.38672(6)
O5 O 0.81142(7) -0.06108(5) 0.44858(6)
O6 O 0.75173(6) 0.11999(5) 0.23626(6)
O7 O 0.65096(7) 0.41766(6) 0.22975(7)
C1 C 1.32265(11) 0.43882(10) 0.49402(12)
H1 H 1.3529 0.3868 0.4854
H2 H 1.3727 0.4771 0.5358
H3 H 1.2878 0.4652 0.4308
N1 N 0.82389(7) 0.07200(6) 0.39607(7)
O8 O 0.70214(7) 0.39725(6) 0.10933(7)
C2 C 1.29856(12) 0.37175(9) 0.63565(10)
H4 H 1.2481 0.3528 0.6568
H5 H 1.3437 0.4088 0.6850
H6 H 1.3337 0.3230 0.6264
C3 C 1.25232(9) 0.41923(8) 0.54055(9)
C4 C 1.17970(8) 0.29488(7) 0.44331(8)
N2 N 1.08819(7) 0.26257(6) 0.38219(7)
C5 C 0.99784(8) 0.30113(7) 0.36119(8)
C6 C 0.91803(8) 0.23849(6) 0.30033(8)
C7 C 0.86157(8) 0.21131(6) 0.36474(8)
C8 C 0.80323(8) 0.13086(7) 0.32044(8)
C9 C 0.77693(8) -0.00625(7) 0.39022(8)
C10 C 0.63486(8) -0.08381(7) 0.28220(8)
C11 C 0.59932(9) -0.11430(8) 0.35815(9)
H7 H 0.6549 -0.1304 0.4170
H8 H 0.5568 -0.1629 0.3330
H9 H 0.5633 -0.0693 0.3734
C12 C 1.20285(10) 0.49863(8) 0.55423(10)
H10 H 1.1706 0.5268 0.4916
H11 H 1.2513 0.5363 0.5994
H12 H 1.1548 0.4839 0.5805
C13 C 1.07465(8) 0.18549(7) 0.32959(8)
C14 C 1.14491(9) 0.13300(7) 0.32171(9)
H13 H 1.2119 0.1423 0.3588
C15 C 1.11252(10) 0.06583(8) 0.25663(9)
H14 H 1.1586 0.0283 0.2502
C16 C 1.01479(10) 0.05264(7) 0.20122(9)
H15 H 0.9951 0.0077 0.1560
C17 C 0.94537(9) 0.10516(7) 0.21171(8)
H16 H 0.8784 0.0959 0.1747
C18 C 0.97584(8) 0.17131(7) 0.27719(8)
C19 C 0.84178(8) 0.28789(7) 0.22052(8)
H17 H 0.8419 0.2973 0.1581
C20 C 0.77410(8) 0.31668(7) 0.24949(8)
C21 C 0.79053(8) 0.28717(7) 0.35142(8)
H18 H 0.8283 0.3321 0.3972
C22 C 0.92121(8) 0.18542(7) 0.46793(8)
C23 C 0.89875(8) 0.10277(7) 0.48276(8)
C24 C 0.55076(9) -0.05402(8) 0.19138(9)
H19 H 0.5164 -0.0087 0.2084
H20 H 0.5062 -0.1008 0.1631
H21 H 0.5756 -0.0334 0.1442
C25 C 0.69618(10) -0.14919(8) 0.25893(10)
H22 H 0.7246 -0.1244 0.2166
H23 H 0.6554 -0.1970 0.2261
H24 H 0.7480 -0.1683 0.3192
C26 C 0.94534(8) 0.06174(7) 0.57080(8)
H25 H 0.9295 0.0056 0.5799
C27 C 1.01627(9) 0.10640(8) 0.64523(8)
H26 H 1.0503 0.0797 0.7058
C28 C 1.03823(8) 0.18914(7) 0.63250(8)
H27 H 1.0865 0.2182 0.6844
C29 C 0.98987(8) 0.22973(7) 0.54397(8)
H28 H 1.0036 0.2867 0.5358
C30 C 0.70412(8) 0.26763(7) 0.37532(8)
C31 C 0.70874(9) 0.28984(8) 0.46712(9)
H29 H 0.7651 0.3168 0.5116
C32 C 0.63232(10) 0.27323(9) 0.49456(10)
H30 H 0.6358 0.2893 0.5567
C33 C 0.55152(9) 0.23299(9) 0.42963(10)
C34 C 0.54464(9) 0.20946(8) 0.33786(10)
H31 H 0.4885 0.1815 0.2942
C35 C 0.62103(9) 0.22744(8) 0.31085(9)
H32 H 0.6166 0.2123 0.2481
C36 C 0.70173(8) 0.38154(7) 0.19701(8)
C37 C 0.63732(11) 0.46203(9) 0.05331(11)
H33 H 0.5714 0.4493 0.0470
H34 H 0.6389 0.4647 -0.0112
H35 H 0.6576 0.5161 0.0861
loop_
_geom_bond_atom_site_label_1
_geom_bond_atom_site_label_2
_geom_bond_site_symmetry_1
_geom_bond_site_symmetry_2
Cl1 C33 1_555 1_555
O1 C3 1_555 1_555
O2 C9 1_555 1_555
O3 C4 1_555 1_555
O4 C5 1_555 1_555
O5 C9 1_555 1_555
O6 C8 1_555 1_555
O7 C36 1_555 1_555
C1 H1 1_555 1_555
H2 C1 1_555 1_555
H3 C1 1_555 1_555
N1 C8 1_555 1_555
O8 C36 1_555 1_555
C2 H4 1_555 1_555
H5 C2 1_555 1_555
H6 C2 1_555 1_555
C3 C1 1_555 1_555
C4 O1 1_555 1_555
N2 C4 1_555 1_555
C5 N2 1_555 1_555
C6 C5 1_555 1_555
C7 C6 1_555 1_555
C8 C7 1_555 1_555
C9 N1 1_555 1_555
C10 O2 1_555 1_555
C11 C10 1_555 1_555
H7 C11 1_555 1_555
H8 C11 1_555 1_555
H9 C11 1_555 1_555
C12 C3 1_555 1_555
H10 C12 1_555 1_555
H11 C12 1_555 1_555
H12 C12 1_555 1_555
C13 N2 1_555 1_555
C14 C13 1_555 1_555
H13 C14 1_555 1_555
C15 C14 1_555 1_555
H14 C15 1_555 1_555
C16 C15 1_555 1_555
H15 C16 1_555 1_555
C17 C16 1_555 1_555
H16 C17 1_555 1_555
C18 C6 1_555 1_555
C19 C6 1_555 1_555
H17 C19 1_555 1_555
C20 C19 1_555 1_555
C21 C7 1_555 1_555
H18 C21 1_555 1_555
C22 C7 1_555 1_555
C23 N1 1_555 1_555
C24 C10 1_555 1_555
H19 C24 1_555 1_555
H20 C24 1_555 1_555
H21 C24 1_555 1_555
C25 C10 1_555 1_555
H22 C25 1_555 1_555
H23 C25 1_555 1_555
H24 C25 1_555 1_555
C26 C23 1_555 1_555
H25 C26 1_555 1_555
C27 C26 1_555 1_555
H26 C27 1_555 1_555
C28 C27 1_555 1_555
H27 C28 1_555 1_555
C29 C22 1_555 1_555
H28 C29 1_555 1_555
C30 C21 1_555 1_555
C31 C30 1_555 1_555
H29 C31 1_555 1_555
C32 C31 1_555 1_555
H30 C32 1_555 1_555
C33 C32 1_555 1_555
C34 C33 1_555 1_555
H31 C34 1_555 1_555
C35 C30 1_555 1_555
H32 C35 1_555 1_555
C36 C20 1_555 1_555
C37 O8 1_555 1_555
H33 C37 1_555 1_555
H34 C37 1_555 1_555
H35 C37 1_555 1_555
C2 C3 1_555 1_555
C13 C18 1_555 1_555
C17 C18 1_555 1_555
C20 C21 1_555 1_555
C22 C23 1_555 1_555
C28 C29 1_555 1_555
C34 C35 1_555 1_555

#END
