
#######################################################################
#
#                 Cambridge Crystallographic Data Centre
#                                CCDC 
#
#######################################################################
#
# If this CIF has been generated from an entry in the Cambridge 
# Structural Database, then it will include bibliographic, chemical, 
# crystal, experimental, refinement or atomic coordinate data resulting 
# from the CCDC's data processing and validation procedures.
#
#######################################################################

data_HENBUA
_chemical_formula_moiety         'C32 H35 F2 N1 O2'
_chemical_name_systematic        
4'-[2-(dibenzylamino)-3,5-difluorophenyl]-4'-hydroxy-1,1'-bi(cyclohexyl)-4-one
_symmetry_cell_setting           monoclinic
_symmetry_space_group_name_H-M   'P 21/c'
_symmetry_Int_Tables_number      14
_space_group_name_Hall           '-P 2ybc'
loop_
_symmetry_equiv_pos_site_id
_symmetry_equiv_pos_as_xyz
1 x,y,z
2 -x,1/2+y,1/2-z
3 -x,-y,-z
4 x,1/2-y,1/2+z
_cell_length_a                   9.5283(6)
_cell_length_b                   15.6601(9)
_cell_length_c                   17.5041(10)
_cell_angle_alpha                90
_cell_angle_beta                 94.3610(10)
_cell_angle_gamma                90
_cell_volume                     2604.3
_exptl_crystal_colour            colorless
_exptl_crystal_description       prism
_cell_formula_units_Z            4
loop_
_atom_site_label
_atom_site_type_symbol
_atom_site_fract_x
_atom_site_fract_y
_atom_site_fract_z
F1 F 0.41572(9) 0.89268(5) 0.37274(5)
O1 O 0.58440(9) 1.13914(5) 0.21105(5)
N1 N 0.47256(11) 1.05608(6) 0.32063(6)
C1 C 0.54072(13) 0.98106(7) 0.29215(7)
F2 F 0.74165(9) 0.76558(5) 0.22101(5)
O2 O 1.15885(11) 1.45489(7) -0.01800(6)
C2 C 0.51208(14) 0.89961(8) 0.31989(8)
C3 C 0.57473(15) 0.82581(8) 0.29689(8)
H1 H 0.5503 0.7712 0.3155
C4 C 0.67457(15) 0.83616(8) 0.24544(8)
C5 C 0.71057(14) 0.91400(8) 0.21638(8)
H2 H 0.7820 0.9174 0.1815
C6 C 0.64194(12) 0.98843(7) 0.23816(7)
C7 C 0.68586(13) 1.07358(7) 0.20268(7)
C8 C 0.82872(13) 1.10233(8) 0.24106(7)
H3 H 0.8212 1.1083 0.2969
H4 H 0.9004 1.0581 0.2331
C9 C 0.87610(14) 1.18756(8) 0.20849(7)
H5 H 0.8097 1.2329 0.2217
H6 H 0.9702 1.2023 0.2328
C10 C 0.88313(12) 1.18531(8) 0.12133(7)
H7 H 0.9592 1.1444 0.1095
C11 C 0.74377(13) 1.15164(8) 0.08329(7)
H8 H 0.6690 1.1943 0.0897
H9 H 0.7531 1.1447 0.0277
C12 C 0.69971(14) 1.06654(8) 0.11639(7)
H10 H 0.7706 1.0224 0.1066
H11 H 0.6084 1.0486 0.0906
C13 C 0.91869(13) 1.27310(8) 0.08759(7)
H12 H 0.8361 1.3115 0.0928
C14 C 1.04710(13) 1.31537(8) 0.12943(7)
H13 H 1.1308 1.2791 0.1241
H14 H 1.0322 1.3195 0.1847
C15 C 1.07515(15) 1.40483(9) 0.09838(8)
H15 H 1.0016 1.4442 0.1145
H16 H 1.1669 1.4253 0.1218
C16 C 1.07724(14) 1.40877(9) 0.01288(8)
C17 C 0.96877(17) 1.35597(10) -0.03259(8)
H17 H 0.9991 1.3481 -0.0850
H18 H 0.8787 1.3877 -0.0370
C18 C 0.94360(15) 1.26792(9) 0.00228(8)
H19 H 0.8608 1.2411 -0.0257
H20 H 1.0263 1.2311 -0.0043
C19 C 0.53154(16) 1.07899(8) 0.39930(8)
H21 H 0.6346 1.0695 0.4030
H22 H 0.4905 1.0407 0.4367
C20 C 0.50253(13) 1.17062(8) 0.42016(7)
C21 C 0.56790(14) 1.23799(8) 0.38448(8)
H23 H 0.6315 1.2263 0.3465
C22 C 0.54078(15) 1.32179(8) 0.40397(8)
H24 H 0.5854 1.3672 0.3791
C23 C 0.44923(15) 1.33974(9) 0.45936(8)
H25 H 0.4300 1.3973 0.4722
C24 C 0.38595(16) 1.27360(10) 0.49590(9)
H26 H 0.3241 1.2856 0.5346
C25 C 0.41248(15) 1.18960(9) 0.47628(8)
H27 H 0.3683 1.1445 0.5017
C26 C 0.31557(13) 1.05404(8) 0.31509(7)
H28 H 0.2799 1.1126 0.3224
H29 H 0.2840 1.0181 0.3570
C27 C 0.25200(12) 1.01976(8) 0.23934(7)
C28 C 0.26045(14) 1.06441(8) 0.17116(8)
H30 H 0.3102 1.1170 0.1714
C29 C 0.19714(15) 1.03311(9) 0.10282(8)
H31 H 0.2045 1.0641 0.0567
C30 C 0.12334(14) 0.95698(9) 0.10150(8)
H32 H 0.0789 0.9361 0.0548
C31 C 0.11487(15) 0.91168(9) 0.16854(9)
H33 H 0.0651 0.8591 0.1680
C32 C 0.17897(14) 0.94278(8) 0.23675(8)
H34 H 0.1729 0.9109 0.2826
H35 H 0.5308 1.1250 0.2531
loop_
_geom_bond_atom_site_label_1
_geom_bond_atom_site_label_2
_geom_bond_site_symmetry_1
_geom_bond_site_symmetry_2
F1 C2 1_555 1_555
O1 C7 1_555 1_555
N1 C1 1_555 1_555
C1 C2 1_555 1_555
F2 C4 1_555 1_555
O2 C16 1_555 1_555
C2 C3 1_555 1_555
C3 H1 1_555 1_555
C4 C3 1_555 1_555
C5 C4 1_555 1_555
H2 C5 1_555 1_555
C6 C1 1_555 1_555
C7 C6 1_555 1_555
C8 C7 1_555 1_555
H3 C8 1_555 1_555
H4 C8 1_555 1_555
C9 C8 1_555 1_555
H5 C9 1_555 1_555
H6 C9 1_555 1_555
C10 C9 1_555 1_555
H7 C10 1_555 1_555
C11 C10 1_555 1_555
H8 C11 1_555 1_555
H9 C11 1_555 1_555
C12 C7 1_555 1_555
H10 C12 1_555 1_555
H11 C12 1_555 1_555
C13 C10 1_555 1_555
H12 C13 1_555 1_555
C14 C13 1_555 1_555
H13 C14 1_555 1_555
H14 C14 1_555 1_555
C15 C14 1_555 1_555
H15 C15 1_555 1_555
H16 C15 1_555 1_555
C16 C15 1_555 1_555
C17 C16 1_555 1_555
H17 C17 1_555 1_555
H18 C17 1_555 1_555
C18 C13 1_555 1_555
H19 C18 1_555 1_555
H20 C18 1_555 1_555
C19 N1 1_555 1_555
H21 C19 1_555 1_555
H22 C19 1_555 1_555
C20 C19 1_555 1_555
C21 C20 1_555 1_555
H23 C21 1_555 1_555
C22 C21 1_555 1_555
H24 C22 1_555 1_555
C23 C22 1_555 1_555
H25 C23 1_555 1_555
C24 C23 1_555 1_555
H26 C24 1_555 1_555
C25 C20 1_555 1_555
H27 C25 1_555 1_555
C26 N1 1_555 1_555
H28 C26 1_555 1_555
H29 C26 1_555 1_555
C27 C26 1_555 1_555
C28 C27 1_555 1_555
H30 C28 1_555 1_555
C29 C28 1_555 1_555
H31 C29 1_555 1_555
C30 C29 1_555 1_555
H32 C30 1_555 1_555
C31 C30 1_555 1_555
H33 C31 1_555 1_555
C32 C27 1_555 1_555
H34 C32 1_555 1_555
H35 O1 1_555 1_555
C5 C6 1_555 1_555
C11 C12 1_555 1_555
C17 C18 1_555 1_555
C24 C25 1_555 1_555
C31 C32 1_555 1_555

#END
