
#######################################################################
#
#                 Cambridge Crystallographic Data Centre
#                                CCDC 
#
#######################################################################
#
# If this CIF has been generated from an entry in the Cambridge 
# Structural Database, then it will include bibliographic, chemical, 
# crystal, experimental, refinement or atomic coordinate data resulting 
# from the CCDC's data processing and validation procedures.
#
#######################################################################

data_HENHAM
_chemical_formula_moiety         'C14 H18 N6 O2,0.5(H2 O1)'
_chemical_name_systematic        
"N'-{[4-(diethylamino)-2-hydroxyphenyl]methylidene}-1H-1,2,4-triazole-3-carbohydrazide hemihydrate"
_symmetry_cell_setting           orthorhombic
_symmetry_space_group_name_H-M   'P b c a'
_symmetry_Int_Tables_number      61
_space_group_name_Hall           '-P 2ac 2ab'
loop_
_symmetry_equiv_pos_site_id
_symmetry_equiv_pos_as_xyz
1 x,y,z
2 1/2-x,-y,1/2+z
3 -x,1/2+y,1/2-z
4 1/2+x,1/2-y,-z
5 -x,-y,-z
6 1/2+x,y,1/2-z
7 x,1/2-y,1/2+z
8 1/2-x,1/2+y,z
_cell_length_a                   18.204(19)
_cell_length_b                   15.339(15)
_cell_length_c                   23.87(2)
_cell_angle_alpha                90
_cell_angle_beta                 90
_cell_angle_gamma                90
_cell_volume                     6665.25
_exptl_crystal_colour            yellow
_exptl_crystal_description       rod
_cell_formula_units_Z            16
loop_
_atom_site_label
_atom_site_type_symbol
_atom_site_fract_x
_atom_site_fract_y
_atom_site_fract_z
C1 C -0.0354(4) 0.7220(7) -0.0096(3)
H1 H -0.0407 0.7422 -0.0475
H2 H -0.0377 0.7708 0.0155
H3 H -0.0744 0.6820 -0.0011
O1 O 0.18839(18) 0.9156(2) 0.36725(11)
N1 N 0.19070(19) 0.9873(2) 0.28280(13)
H4 H 0.1983 1.0351 0.2648
N2 N 0.1694(2) 0.9108(2) 0.25316(13)
N3 N 0.2167(2) 1.0784(3) 0.41801(14)
C2 C 0.1989(2) 0.9853(3) 0.33860(16)
N4 N 0.2343(2) 1.1618(3) 0.42464(15)
H5 H 0.2384 1.1874 0.4565
O2 O 0.1311(2) 0.7470(2) 0.23788(12)
H6 H 0.1365 0.7908 0.2571
C3 C 0.1329(2) 0.8546(3) 0.16437(15)
C4 C 0.2182(2) 1.0693(3) 0.36366(15)
C5 C 0.1582(2) 0.9241(3) 0.20039(16)
H7 H 0.1666 0.9792 0.1854
C6 C 0.1184(3) 0.7707(3) 0.18331(16)
N5 N 0.2350(2) 1.1407(3) 0.33443(15)
N6 N 0.0546(3) 0.6591(3) 0.05540(16)
C7 C 0.0923(3) 0.7067(3) 0.14804(18)
H8 H 0.0835 0.6511 0.1621
C8 C 0.1213(2) 0.8705(3) 0.10773(16)
H9 H 0.1319 0.9255 0.0936
C9 C 0.0949(3) 0.8083(3) 0.07204(17)
H10 H 0.0876 0.8221 0.0345
C10 C 0.0787(3) 0.7241(3) 0.09113(18)
C11 C 0.2450(3) 1.2005(4) 0.3752(2)
H11 H 0.2572 1.2588 0.3698
C12 C 0.0447(4) 0.5690(4) 0.0748(2)
H12 H 0.0487 0.5298 0.0431
H13 H 0.0836 0.5546 0.1010
C13 C 0.0368(4) 0.6770(4) -0.0032(2)
H14 H 0.0357 0.6226 -0.0238
H15 H 0.0750 0.7132 -0.0193
C14 C -0.0261(4) 0.5559(5) 0.1019(3)
H16 H -0.0642 0.5557 0.0742
H17 H -0.0348 0.6022 0.1281
H18 H -0.0259 0.5011 0.1214
O3 O 0.25152(18) 0.8829(2) 0.70646(12)
H19 H 0.2218 0.9182 0.6910
H20 H 0.2278 0.8477 0.7271
O4 O 0.28901(17) 0.6731(2) 0.54569(11)
N7 N 0.32452(19) 0.6829(2) 0.65826(13)
N8 N 0.30014(19) 0.7526(2) 0.62612(12)
H21 H 0.2958 0.8033 0.6412
N9 N 0.2382(2) 0.8246(3) 0.49213(13)
N10 N 0.2528(2) 0.9034(2) 0.57140(14)
C15 C 0.2833(2) 0.7422(3) 0.57208(15)
O5 O 0.3523(2) 0.5178(2) 0.68315(12)
H22 H 0.3460 0.5585 0.6614
C16 C 0.2576(2) 0.8244(3) 0.54538(15)
N11 N 0.2198(2) 0.9078(3) 0.48394(14)
H23 H 0.2042 0.9287 0.4527
C17 C 0.3441(2) 0.7032(3) 0.70846(17)
H24 H 0.3413 0.7610 0.7200
C18 C 0.3704(2) 0.6378(3) 0.74726(17)
C19 C 0.2288(3) 0.9546(3) 0.53081(17)
H25 H 0.2197 1.0140 0.5343
C20 C 0.3740(2) 0.5496(3) 0.73469(17)
C21 C 0.3978(3) 0.4855(3) 0.77292(17)
H26 H 0.3994 0.4269 0.7629
C22 C 0.4190(3) 0.5132(4) 0.82687(18)
C23 C 0.3939(3) 0.6633(4) 0.80054(18)
H27 H 0.3933 0.7222 0.8097
N12 N 0.4400(3) 0.4514(3) 0.86626(16)
C24 C 0.4175(3) 0.6049(4) 0.83932(19)
H28 H 0.4328 0.6245 0.8743
C25 C 0.4604(3) 0.4777(4) 0.92290(19)
H29 H 0.4895 0.5306 0.9211
H30 H 0.4906 0.4325 0.9396
C26 C 0.3940(3) 0.4934(5) 0.9596(2)
H31 H 0.3657 0.5407 0.9446
H32 H 0.4097 0.5077 0.9968
H33 H 0.3643 0.4416 0.9606
C27 C 0.4412(4) 0.3631(4) 0.8545(2)
H34 H 0.4011 0.3496 0.8292
H35 H 0.4331 0.3309 0.8889
C28 C 0.5107(5) 0.3333(7) 0.8290(3)
H36 H 0.5174 0.3617 0.7935
H37 H 0.5089 0.2714 0.8235
H38 H 0.5509 0.3476 0.8533
loop_
_geom_bond_atom_site_label_1
_geom_bond_atom_site_label_2
_geom_bond_site_symmetry_1
_geom_bond_site_symmetry_2
C1 H1 1_555 1_555
H2 C1 1_555 1_555
H3 C1 1_555 1_555
O1 C2 1_555 1_555
N1 H4 1_555 1_555
N2 N1 1_555 1_555
N3 N4 1_555 1_555
C2 N1 1_555 1_555
N4 H5 1_555 1_555
O2 H6 1_555 1_555
C3 C5 1_555 1_555
C4 N3 1_555 1_555
C5 N2 1_555 1_555
H7 C5 1_555 1_555
C6 O2 1_555 1_555
N5 C4 1_555 1_555
N6 C10 1_555 1_555
C7 C6 1_555 1_555
H8 C7 1_555 1_555
C8 C3 1_555 1_555
H9 C8 1_555 1_555
C9 C8 1_555 1_555
H10 C9 1_555 1_555
C10 C7 1_555 1_555
C11 N4 1_555 1_555
H11 C11 1_555 1_555
C12 N6 1_555 1_555
H12 C12 1_555 1_555
H13 C12 1_555 1_555
C13 C1 1_555 1_555
H14 C13 1_555 1_555
H15 C13 1_555 1_555
C14 C12 1_555 1_555
H16 C14 1_555 1_555
H17 C14 1_555 1_555
H18 C14 1_555 1_555
O3 H19 1_555 1_555
H20 O3 1_555 1_555
O4 C15 1_555 1_555
N7 N8 1_555 1_555
N8 H21 1_555 1_555
N9 C16 1_555 1_555
N10 C16 1_555 1_555
C15 N8 1_555 1_555
O5 H22 1_555 1_555
C16 C15 1_555 1_555
N11 N9 1_555 1_555
H23 N11 1_555 1_555
C17 N7 1_555 1_555
H24 C17 1_555 1_555
C18 C17 1_555 1_555
C19 N10 1_555 1_555
H25 C19 1_555 1_555
C20 O5 1_555 1_555
C21 C20 1_555 1_555
H26 C21 1_555 1_555
C22 C21 1_555 1_555
C23 C18 1_555 1_555
H27 C23 1_555 1_555
N12 C22 1_555 1_555
C24 C22 1_555 1_555
H28 C24 1_555 1_555
C25 N12 1_555 1_555
H29 C25 1_555 1_555
H30 C25 1_555 1_555
C26 C25 1_555 1_555
H31 C26 1_555 1_555
H32 C26 1_555 1_555
H33 C26 1_555 1_555
C27 N12 1_555 1_555
H34 C27 1_555 1_555
H35 C27 1_555 1_555
C28 C27 1_555 1_555
H36 C28 1_555 1_555
H37 C28 1_555 1_555
H38 C28 1_555 1_555
C2 C4 1_555 1_555
C3 C6 1_555 1_555
N5 C11 1_555 1_555
N6 C13 1_555 1_555
C9 C10 1_555 1_555
N11 C19 1_555 1_555
C18 C20 1_555 1_555
C23 C24 1_555 1_555

#END
