
#######################################################################
#
#                 Cambridge Crystallographic Data Centre
#                                CCDC 
#
#######################################################################
#
# If this CIF has been generated from an entry in the Cambridge 
# Structural Database, then it will include bibliographic, chemical, 
# crystal, experimental, refinement or atomic coordinate data resulting 
# from the CCDC's data processing and validation procedures.
#
#######################################################################

data_HEPDUE
_chemical_name_common            'nandrolone monohydrate'
_chemical_formula_moiety         'C18 H26 O2,H2 O1'
_chemical_name_systematic        '17-hydroxyestr-4-en-3-one monohydrate'
_chemical_properties_biological  'Nandrolone is an anabolic androgenic steroid'
_symmetry_cell_setting           tetragonal
_symmetry_space_group_name_H-M   'P 43 21 2'
_symmetry_Int_Tables_number      96
_space_group_name_Hall           'P 4nw 2abw'
loop_
_symmetry_equiv_pos_site_id
_symmetry_equiv_pos_as_xyz
1 x,y,z
2 1/2-y,1/2+x,3/4+z
3 -x,-y,1/2+z
4 1/2+y,1/2-x,1/4+z
5 1/2+x,1/2-y,1/4-z
6 1/2-x,1/2+y,3/4-z
7 y,x,-z
8 -y,-x,1/2-z
_cell_length_a                   11.2383(4)
_cell_length_b                   11.2383(4)
_cell_length_c                   26.6043(11)
_cell_angle_alpha                90
_cell_angle_beta                 90
_cell_angle_gamma                90
_cell_volume                     3360.11
_exptl_crystal_colour            white
_cell_formula_units_Z            8
loop_
_atom_site_label
_atom_site_type_symbol
_atom_site_fract_x
_atom_site_fract_y
_atom_site_fract_z
O1 O 0.6014(3) 0.0609(3) 0.35118(10)
O2 O 0.4054(4) 0.4690(3) 0.71285(11)
C1 C 0.6013(4) 0.0918(4) 0.39606(16)
C2 C 0.5500(4) 0.0139(4) 0.43576(15)
H1 H 0.6108 -0.0404 0.4478
H2 H 0.4859 -0.0331 0.4216
C3 C 0.5029(4) 0.0866(4) 0.47944(15)
H3 H 0.4760 0.0328 0.5056
H4 H 0.4346 0.1321 0.4681
C4 C 0.5948(4) 0.1718(4) 0.50162(16)
H5 H 0.651(3) 0.123(3) 0.5223(10)
C5 C 0.5373(4) 0.2627(4) 0.53744(15)
H6 H 0.477(3) 0.306(3) 0.5194(10)
C6 C 0.4726(4) 0.2015(4) 0.58068(16)
H7 H 0.5288 0.1518 0.5988
H8 H 0.4115 0.1499 0.5670
C7 C 0.4150(4) 0.2884(4) 0.61772(15)
H9 H 0.3489 0.3281 0.6013
H10 H 0.3834 0.2442 0.6460
C8 C 0.5012(4) 0.3809(3) 0.63677(13)
C9 C 0.4435(4) 0.4878(4) 0.66185(15)
H11 H 0.3736 0.5101 0.6420
C10 C 0.5351(5) 0.5872(4) 0.65685(17)
H12 H 0.5800 0.5957 0.6878
H13 H 0.4961 0.6622 0.6496
C11 C 0.6187(4) 0.5510(4) 0.61282(15)
H14 H 0.6245 0.6141 0.5881
H15 H 0.6978 0.5319 0.6250
C12 C 0.5579(4) 0.4418(3) 0.59095(13)
H16 H 0.4912 0.4723 0.5710
C13 C 0.6240(3) 0.3570(3) 0.55667(12)
H17 H 0.6855 0.3169 0.5765
C14 C 0.6846(4) 0.4194(4) 0.51255(14)
H18 H 0.6256 0.4637 0.4936
H19 H 0.7428 0.4756 0.5253
C15 C 0.7463(4) 0.3310(4) 0.47783(15)
H20 H 0.7757 0.3727 0.4484
H21 H 0.8141 0.2967 0.4951
C16 C 0.6650(3) 0.2336(4) 0.46151(16)
C17 C 0.6602(4) 0.1995(4) 0.41277(15)
H22 H 0.6964 0.2476 0.3888
C18 C 0.5918(4) 0.3253(4) 0.67260(15)
H23 H 0.6306 0.2597 0.6562
H24 H 0.5518 0.2973 0.7022
H25 H 0.6500 0.3838 0.6819
H26 H 0.347(7) 0.510(7) 0.717(3)
O3 O 0.7191(5) -0.1248(5) 0.52143(17)
H27 H 0.752(5) -0.184(5) 0.5295(17)
H28 H 0.667(6) -0.135(6) 0.547(2)
loop_
_geom_bond_atom_site_label_1
_geom_bond_atom_site_label_2
_geom_bond_site_symmetry_1
_geom_bond_site_symmetry_2
O1 C1 1_555 1_555
O2 C9 1_555 1_555
C1 C2 1_555 1_555
C2 H1 1_555 1_555
H2 C2 1_555 1_555
C3 C2 1_555 1_555
H3 C3 1_555 1_555
H4 C3 1_555 1_555
C4 C3 1_555 1_555
H5 C4 1_555 1_555
C5 C4 1_555 1_555
H6 C5 1_555 1_555
C6 C5 1_555 1_555
H7 C6 1_555 1_555
H8 C6 1_555 1_555
C7 C6 1_555 1_555
H9 C7 1_555 1_555
H10 C7 1_555 1_555
C8 C7 1_555 1_555
C9 C8 1_555 1_555
H11 C9 1_555 1_555
C10 C9 1_555 1_555
H12 C10 1_555 1_555
H13 C10 1_555 1_555
C11 C10 1_555 1_555
H14 C11 1_555 1_555
H15 C11 1_555 1_555
C12 C8 1_555 1_555
H16 C12 1_555 1_555
C13 C5 1_555 1_555
H17 C13 1_555 1_555
C14 C13 1_555 1_555
H18 C14 1_555 1_555
H19 C14 1_555 1_555
C15 C14 1_555 1_555
H20 C15 1_555 1_555
H21 C15 1_555 1_555
C16 C4 1_555 1_555
C17 C1 1_555 1_555
H22 C17 1_555 1_555
C18 C8 1_555 1_555
H23 C18 1_555 1_555
H24 C18 1_555 1_555
H25 C18 1_555 1_555
H26 O2 1_555 1_555
O3 H27 1_555 1_555
H28 O3 1_555 1_555
C11 C12 1_555 1_555
C12 C13 1_555 1_555
C15 C16 1_555 1_555
C16 C17 1_555 1_555

#END
