
#######################################################################
#
#                 Cambridge Crystallographic Data Centre
#                                CCDC 
#
#######################################################################
#
# If this CIF has been generated from an entry in the Cambridge 
# Structural Database, then it will include bibliographic, chemical, 
# crystal, experimental, refinement or atomic coordinate data resulting 
# from the CCDC's data processing and validation procedures.
#
#######################################################################

data_HEPKAR05
_chemical_name_common            
'pentadeuteroimidazolium deuterium terephthalate'
_chemical_formula_moiety         'C8 H4 D1 O4 1-,C3 D5 N2 1+'
_chemical_name_systematic        
'pentadeuteroimidazolium 4-(deuterocarboxy)benzoate'
_symmetry_cell_setting           orthorhombic
_symmetry_space_group_name_H-M   'P n m a'
_symmetry_Int_Tables_number      62
_space_group_name_Hall           '-P 2ac 2n'
loop_
_symmetry_equiv_pos_site_id
_symmetry_equiv_pos_as_xyz
1 x,y,z
2 1/2-x,-y,1/2+z
3 -x,1/2+y,-z
4 1/2+x,1/2-y,1/2-z
5 -x,-y,-z
6 1/2+x,y,1/2-z
7 x,1/2-y,z
8 1/2-x,1/2+y,1/2+z
_cell_length_a                   9.688(9)
_cell_length_b                   7.109(6)
_cell_length_c                   15.861(14)
_cell_angle_alpha                90
_cell_angle_beta                 90
_cell_angle_gamma                90
_cell_volume                     1092.38
_exptl_crystal_colour            colorless
_exptl_crystal_description       block
_cell_formula_units_Z            4
loop_
_atom_site_label
_atom_site_type_symbol
_atom_site_fract_x
_atom_site_fract_y
_atom_site_fract_z
C1 C 0.2151(2) 0.2500 0.00949(16)
C2 C 0.3660(2) 0.2500 0.03253(15)
C3 C 0.4655(2) 0.2500 -0.03069(15)
H1 H 0.4384 0.2500 -0.0869
C4 C 0.6044(2) 0.2500 -0.01057(16)
H2 H 0.6702 0.2500 -0.0533
C5 C 0.6458(2) 0.2500 0.07318(14)
C6 C 0.7960(2) 0.2500 0.09629(17)
C7 C 0.5467(2) 0.2500 0.13650(16)
H3 H 0.5737 0.2500 0.1928
C8 C 0.4074(2) 0.2500 0.11592(16)
H4 H 0.3415 0.2500 0.1586
O1 O 0.13096(18) 0.2500 0.07056(12)
O2 O 0.1817(2) 0.2500 -0.06603(13)
O3 O 0.87929(18) 0.2500 0.03394(13)
O4 O 0.8335(2) 0.2500 0.16884(14)
D1 D 0.991(6) 0.2500 0.050(3)
C9? C 0.1315(9) 0.8938(14) 0.1837(6)
D2? D 0.1161 1.0096 0.1587
C10? C 0.1887(12) 0.642(3) 0.2527(9)
D3? D 0.2355 0.5695 0.2919
C11? C 0.0944(10) 0.5981(16) 0.1978(6)
D4? D 0.0585 0.4786 0.1901
N1? N 0.0570(3) 0.7500 0.15648(15)
D5? D -0.0075 0.7500 0.1133
N2? N 0.2117(10) 0.834(2) 0.2444(6)
D6? D 0.2795 0.8752 0.2811
loop_
_geom_bond_atom_site_label_1
_geom_bond_atom_site_label_2
_geom_bond_site_symmetry_1
_geom_bond_site_symmetry_2
C1 C2 1_555 1_555
C2 C3 1_555 1_555
C3 H1 1_555 1_555
C4 C3 1_555 1_555
H2 C4 1_555 1_555
C5 C4 1_555 1_555
C6 C5 1_555 1_555
C7 C5 1_555 1_555
H3 C7 1_555 1_555
C8 C2 1_555 1_555
H4 C8 1_555 1_555
O1 C1 1_555 1_555
O2 C1 1_555 1_555
O3 C6 1_555 1_555
O4 C6 1_555 1_555
D1 O3 1_555 1_555
C7 C8 1_555 1_555

#END
