
#######################################################################
#
#                 Cambridge Crystallographic Data Centre
#                                CCDC 
#
#######################################################################
#
# If this CIF has been generated from an entry in the Cambridge 
# Structural Database, then it will include bibliographic, chemical, 
# crystal, experimental, refinement or atomic coordinate data resulting 
# from the CCDC's data processing and validation procedures.
#
#######################################################################

data_HEPSAZ05
_chemical_name_common            
'1,3-dideuteroimidazolium deuterium terephthalate'
_chemical_formula_moiety         'C8 H4 D1 O4 1-,C3 H3 D2 N2 1+'
_chemical_name_systematic        
'1,3-dideuteroimidazolium 4-(deuterocarboxy)benzoate'
_symmetry_cell_setting           monoclinic
_symmetry_space_group_name_H-M   'P 21/n'
_symmetry_Int_Tables_number      14
_space_group_name_Hall           '-P 2yn'
loop_
_symmetry_equiv_pos_site_id
_symmetry_equiv_pos_as_xyz
1 x,y,z
2 1/2-x,1/2+y,1/2-z
3 -x,-y,-z
4 1/2+x,1/2-y,1/2+z
_cell_length_a                   9.768(5)
_cell_length_b                   15.869(9)
_cell_length_c                   13.867(8)
_cell_angle_alpha                90
_cell_angle_beta                 90.345(10)
_cell_angle_gamma                90
_cell_volume                     2149.46
_exptl_crystal_colour            colorless
_exptl_crystal_description       block
_cell_formula_units_Z            8
loop_
_atom_site_label
_atom_site_type_symbol
_atom_site_fract_x
_atom_site_fract_y
_atom_site_fract_z
C1 C 0.33571(16) 0.60585(11) 0.60832(13)
C2 C 0.18592(16) 0.58417(11) 0.62031(12)
C3 C 0.14456(16) 0.50035(11) 0.61540(13)
H1 H 0.2097 0.4580 0.6094
C4 C 0.00664(16) 0.47964(11) 0.61938(12)
H2 H -0.0203 0.4235 0.6166
C5 C -0.09130(15) 0.54282(11) 0.62744(11)
C6 C -0.23927(16) 0.51858(11) 0.62548(12)
C7 C -0.05079(16) 0.62656(11) 0.63503(13)
H3 H -0.1159 0.6688 0.6421
C8 C 0.08786(17) 0.64685(11) 0.63193(13)
H4 H 0.1151 0.7028 0.6377
O1 O 0.42123(12) 0.55040(9) 0.62857(12)
O2 O 0.36443(12) 0.67928(8) 0.57716(10)
O3 O -0.32318(13) 0.58323(8) 0.61951(11)
O4 O -0.27678(13) 0.44567(8) 0.62789(12)
D1 D -0.419(3) 0.5646(17) 0.6224(19)
C9 C 0.54931(18) 0.64668(12) 0.36592(15)
H5 H 0.4786 0.6079 0.3589
C10 C 0.6861(2) 0.74269(14) 0.42634(16)
H6 H 0.7252 0.7814 0.4686
C11 C 0.7297(2) 0.72350(13) 0.33761(15)
H7 H 0.8050 0.7467 0.3066
N1 N 0.57233(15) 0.69404(10) 0.44266(12)
D2 D 0.5240 0.6943 0.4943
N2 N 0.64331(15) 0.66367(9) 0.30096(11)
D3 D 0.6493 0.6409 0.2449
C12 C -0.27220(16) 0.50639(11) 0.12440(12)
C13 C -0.12194(15) 0.52804(10) 0.12586(11)
C14 C -0.07837(16) 0.61167(10) 0.12773(12)
H8 H -0.1425 0.6550 0.1279
C15 C 0.06062(16) 0.63060(10) 0.12942(12)
H9 H 0.0890 0.6865 0.1303
C16 C 0.15739(15) 0.56644(10) 0.12979(12)
C17 C 0.30642(16) 0.58870(11) 0.13240(13)
C18 C 0.11430(16) 0.48261(10) 0.12714(12)
H10 H 0.1785 0.4393 0.1268
C19 C -0.02470(16) 0.46382(11) 0.12500(12)
H11 H -0.0530 0.4079 0.1230
O5 O -0.35651(11) 0.56605(8) 0.13985(9)
O6 O -0.30564(13) 0.43209(8) 0.10776(11)
O7 O 0.38774(12) 0.52312(8) 0.13431(12)
O8 O 0.34707(12) 0.66124(8) 0.13319(11)
D4 D 0.489(3) 0.5402(17) 0.1352(18)
C20 C 0.4088(2) 0.30891(13) 0.03522(15)
H12 H 0.4329 0.3224 -0.0277
C21 C 0.3075(2) 0.25183(13) 0.15863(16)
H13 H 0.2493 0.2190 0.1958
C22 C 0.4049(2) 0.30497(14) 0.19131(16)
H14 H 0.4261 0.3158 0.2556
N3 N 0.31112(16) 0.25551(10) 0.06064(12)
D5 D 0.2589 0.2279 0.0218
N4 N 0.46597(15) 0.33959(9) 0.11384(12)
D6 D 0.5315 0.3758 0.1156
loop_
_geom_bond_atom_site_label_1
_geom_bond_atom_site_label_2
_geom_bond_site_symmetry_1
_geom_bond_site_symmetry_2
C1 C2 1_555 1_555
C2 C3 1_555 1_555
C3 H1 1_555 1_555
C4 C3 1_555 1_555
H2 C4 1_555 1_555
C5 C4 1_555 1_555
C6 C5 1_555 1_555
C7 C5 1_555 1_555
H3 C7 1_555 1_555
C8 C2 1_555 1_555
H4 C8 1_555 1_555
O1 C1 1_555 1_555
O2 C1 1_555 1_555
O3 C6 1_555 1_555
O4 C6 1_555 1_555
D1 O3 1_555 1_555
C9 H5 1_555 1_555
C10 H6 1_555 1_555
C11 C10 1_555 1_555
H7 C11 1_555 1_555
N1 C9 1_555 1_555
D2 N1 1_555 1_555
N2 C9 1_555 1_555
D3 N2 1_555 1_555
C12 C13 1_555 1_555
C13 C14 1_555 1_555
C14 H8 1_555 1_555
C15 C14 1_555 1_555
H9 C15 1_555 1_555
C16 C15 1_555 1_555
C17 C16 1_555 1_555
C18 C16 1_555 1_555
H10 C18 1_555 1_555
C19 C13 1_555 1_555
H11 C19 1_555 1_555
O5 C12 1_555 1_555
O6 C12 1_555 1_555
O7 C17 1_555 1_555
O8 C17 1_555 1_555
D4 O7 1_555 1_555
C20 H12 1_555 1_555
C21 H13 1_555 1_555
C22 C21 1_555 1_555
H14 C22 1_555 1_555
N3 C20 1_555 1_555
D5 N3 1_555 1_555
N4 C20 1_555 1_555
D6 N4 1_555 1_555
C7 C8 1_555 1_555
C10 N1 1_555 1_555
C11 N2 1_555 1_555
C18 C19 1_555 1_555
C21 N3 1_555 1_555
C22 N4 1_555 1_555

#END
