
#######################################################################
#
#                 Cambridge Crystallographic Data Centre
#                                CCDC 
#
#######################################################################
#
# If this CIF has been generated from an entry in the Cambridge 
# Structural Database, then it will include bibliographic, chemical, 
# crystal, experimental, refinement or atomic coordinate data resulting 
# from the CCDC's data processing and validation procedures.
#
#######################################################################

data_HEPSAZ09
_chemical_name_common            
'pentadeuteroimidazolium deuterium terephthalate'
_chemical_formula_moiety         'C8 H4 D1 O4 1-,C3 D5 N2 1+'
_chemical_name_systematic        
'pentadeuteroimidazolium 4-(deuterocarboxy)benzoate'
_symmetry_cell_setting           monoclinic
_symmetry_space_group_name_H-M   'P 21/c'
_symmetry_Int_Tables_number      14
_space_group_name_Hall           '-P 2ybc'
loop_
_symmetry_equiv_pos_site_id
_symmetry_equiv_pos_as_xyz
1 x,y,z
2 -x,1/2+y,1/2-z
3 -x,-y,-z
4 x,1/2-y,1/2+z
_cell_length_a                   7.073(8)
_cell_length_b                   15.884(17)
_cell_length_c                   9.688(10)
_cell_angle_alpha                90
_cell_angle_beta                 93.04(3)
_cell_angle_gamma                90
_cell_volume                     1086.89
_exptl_crystal_colour            colorless
_exptl_crystal_description       block
_cell_formula_units_Z            4
loop_
_atom_site_label
_atom_site_type_symbol
_atom_site_fract_x
_atom_site_fract_y
_atom_site_fract_z
C1 C 0.2488(3) 0.00857(12) 0.21686(18)
C2 C 0.2513(3) 0.03132(11) 0.36830(17)
C3 C 0.2543(3) 0.11488(12) 0.40996(18)
H1 H 0.2580 0.1575 0.3443
C4 C 0.2518(3) 0.13517(12) 0.54909(18)
H2 H 0.2531 0.1913 0.5762
C5 C 0.2474(3) 0.07217(11) 0.64819(18)
C6 C 0.2403(3) 0.09490(12) 0.79839(19)
C7 C 0.2477(3) -0.01164(12) 0.60670(18)
H3 H 0.2474 -0.0543 0.6724
C8 C 0.2485(3) -0.03164(12) 0.46745(18)
H4 H 0.2472 -0.0878 0.4402
O1 O 0.2517(2) 0.06954(9) 0.13245(14)
O2 O 0.2432(3) -0.06688(10) 0.18339(15)
O3 O 0.2649(3) 0.03304(10) 0.88230(14)
O4 O 0.2064(3) 0.16722(10) 0.83473(15)
D1 D 0.255(4) 0.0491(18) 0.988(3)
C9 C 0.9144(4) 0.19268(17) 0.1045(3)
D2 D 1.0367 0.1804 0.0799
C10 C 0.6128(4) 0.18851(19) 0.1175(4)
D3 D 0.4872 0.1718 0.1035
C11 C 0.6771(5) 0.24770(17) 0.2036(3)
D4 D 0.6055 0.2818 0.2587
N1 N 0.7606(3) 0.15681(12) 0.0539(2)
D5 D 0.7548 0.1190 -0.0097
N2 N 0.8684(4) 0.24893(13) 0.1957(2)
D6 D 0.9459 0.2811 0.2425
loop_
_geom_bond_atom_site_label_1
_geom_bond_atom_site_label_2
_geom_bond_site_symmetry_1
_geom_bond_site_symmetry_2
C1 C2 1_555 1_555
C2 C3 1_555 1_555
C3 H1 1_555 1_555
C4 C3 1_555 1_555
H2 C4 1_555 1_555
C5 C4 1_555 1_555
C6 C5 1_555 1_555
C7 C5 1_555 1_555
H3 C7 1_555 1_555
C8 C2 1_555 1_555
H4 C8 1_555 1_555
O1 C1 1_555 1_555
O2 C1 1_555 1_555
O3 C6 1_555 1_555
O4 C6 1_555 1_555
D1 O3 1_555 1_555
C9 D2 1_555 1_555
C10 D3 1_555 1_555
C11 C10 1_555 1_555
D4 C11 1_555 1_555
N1 C9 1_555 1_555
D5 N1 1_555 1_555
N2 C9 1_555 1_555
D6 N2 1_555 1_555
C7 C8 1_555 1_555
C10 N1 1_555 1_555
C11 N2 1_555 1_555

#END
