
#######################################################################
#
#                 Cambridge Crystallographic Data Centre
#                                CCDC 
#
#######################################################################
#
# If this CIF has been generated from an entry in the Cambridge 
# Structural Database, then it will include bibliographic, chemical, 
# crystal, experimental, refinement or atomic coordinate data resulting 
# from the CCDC's data processing and validation procedures.
#
#######################################################################

data_HEPSAZ01
_chemical_name_common            'imidazolium hydrogen terephthalate'
_chemical_formula_moiety         'C8 H5 O4 1-,C3 H5 N2 1+'
_chemical_name_systematic        'imidazolium 4-carboxybenzoate'
_symmetry_cell_setting           orthorhombic
_symmetry_space_group_name_H-M   'P n m a'
_symmetry_Int_Tables_number      62
_space_group_name_Hall           '-P 2ac 2n'
loop_
_symmetry_equiv_pos_site_id
_symmetry_equiv_pos_as_xyz
1 x,y,z
2 1/2-x,-y,1/2+z
3 -x,1/2+y,-z
4 1/2+x,1/2-y,1/2-z
5 -x,-y,-z
6 1/2+x,y,1/2-z
7 x,1/2-y,z
8 1/2-x,1/2+y,1/2+z
_cell_length_a                   9.670(9)
_cell_length_b                   7.112(7)
_cell_length_c                   15.869(15)
_cell_angle_alpha                90
_cell_angle_beta                 90
_cell_angle_gamma                90
_cell_volume                     1091.36
_exptl_crystal_colour            colorless
_exptl_crystal_description       block
_cell_formula_units_Z            4
loop_
_atom_site_label
_atom_site_type_symbol
_atom_site_fract_x
_atom_site_fract_y
_atom_site_fract_z
C1 C 0.2144(3) 0.2500 0.00901(18)
C2 C 0.3654(3) 0.2500 0.03223(16)
C3 C 0.4651(3) 0.2500 -0.03064(17)
H1 H 0.4380 0.2500 -0.0869
C4 C 0.6041(2) 0.2500 -0.01064(18)
H2 H 0.6700 0.2500 -0.0533
C5 C 0.6456(3) 0.2500 0.07298(16)
C6 C 0.7958(3) 0.2500 0.09607(19)
C7 C 0.5457(3) 0.2500 0.13628(18)
H3 H 0.5725 0.2500 0.1926
C8 C 0.4067(3) 0.2500 0.11558(18)
H4 H 0.3406 0.2500 0.1581
O1 O 0.1300(2) 0.2500 0.07021(13)
O2 O 0.1808(2) 0.2500 -0.06624(14)
O3 O 0.8791(2) 0.2500 0.03422(14)
O4 O 0.8328(2) 0.2500 0.16878(15)
H5 H 0.990(6) 0.2500 0.049(3)
C9? C 0.1310(11) 0.8940(16) 0.1834(7)
H6? H 0.1156 1.0098 0.1584
C10? C 0.1894(13) 0.643(3) 0.2532(9)
H7? H 0.2362 0.5711 0.2923
C11? C 0.0950(11) 0.5995(18) 0.1982(6)
H8? H 0.0591 0.4801 0.1906
N1? N 0.0574(3) 0.7500 0.15648(17)
H9? H -0.0071 0.7500 0.1133
N2? N 0.2116(12) 0.835(2) 0.2440(7)
H10? H 0.2793 0.8763 0.2807
loop_
_geom_bond_atom_site_label_1
_geom_bond_atom_site_label_2
_geom_bond_site_symmetry_1
_geom_bond_site_symmetry_2
C1 C2 1_555 1_555
C2 C3 1_555 1_555
C3 H1 1_555 1_555
C4 C3 1_555 1_555
H2 C4 1_555 1_555
C5 C4 1_555 1_555
C6 C5 1_555 1_555
C7 C5 1_555 1_555
H3 C7 1_555 1_555
C8 C2 1_555 1_555
H4 C8 1_555 1_555
O1 C1 1_555 1_555
O2 C1 1_555 1_555
O3 C6 1_555 1_555
O4 C6 1_555 1_555
H5 O3 1_555 1_555
C7 C8 1_555 1_555

#END
