
#######################################################################
#
#                 Cambridge Crystallographic Data Centre
#                                CCDC 
#
#######################################################################
#
# If this CIF has been generated from an entry in the Cambridge 
# Structural Database, then it will include bibliographic, chemical, 
# crystal, experimental, refinement or atomic coordinate data resulting 
# from the CCDC's data processing and validation procedures.
#
#######################################################################

data_HEPSAZ14
_chemical_name_common            'imidazolium hydrogen terephthalate'
_chemical_formula_moiety         'C8 H5 O4 1-,C3 H5 N2 1+'
_chemical_name_systematic        'imidazolium 4-carboxybenzoate'
_symmetry_cell_setting           monoclinic
_symmetry_space_group_name_H-M   'P 21/c'
_symmetry_Int_Tables_number      14
_space_group_name_Hall           '-P 2ybc'
loop_
_symmetry_equiv_pos_site_id
_symmetry_equiv_pos_as_xyz
1 x,y,z
2 -x,1/2+y,1/2-z
3 -x,-y,-z
4 x,1/2-y,1/2+z
_cell_length_a                   7.088(4)
_cell_length_b                   15.878(8)
_cell_length_c                   9.658(5)
_cell_angle_alpha                90
_cell_angle_beta                 92.955(10)
_cell_angle_gamma                90
_cell_volume                     1085.5
_exptl_crystal_colour            colorless
_exptl_crystal_description       block
_cell_formula_units_Z            4
loop_
_atom_site_label
_atom_site_type_symbol
_atom_site_fract_x
_atom_site_fract_y
_atom_site_fract_z
C1 C 0.2493(4) 0.00875(16) 0.2163(2)
C2 C 0.2514(3) 0.03183(14) 0.3677(2)
C3 C 0.2538(4) 0.11503(15) 0.4092(2)
H1 H 0.2569 0.1576 0.3433
C4 C 0.2515(4) 0.13534(16) 0.5483(2)
H2 H 0.2530 0.1915 0.5755
C5 C 0.2470(3) 0.07240(14) 0.6477(2)
C6 C 0.2410(4) 0.09538(16) 0.7982(2)
C7 C 0.2475(4) -0.01097(15) 0.6067(2)
H3 H 0.2469 -0.0536 0.6727
C8 C 0.2488(4) -0.03092(15) 0.4671(2)
H4 H 0.2480 -0.0871 0.4399
O1 O 0.2513(3) 0.06970(12) 0.13203(17)
O2 O 0.2460(4) -0.06626(12) 0.18258(19)
O3 O 0.2623(3) 0.03412(12) 0.88225(18)
O4 O 0.2104(4) 0.16758(13) 0.8343(2)
H5 H 0.256(5) 0.050(2) 0.993(5)
C9 C 0.9093(6) 0.1920(2) 0.1062(4)
H6 H 1.0317 0.1793 0.0828
C10 C 0.6113(6) 0.1888(2) 0.1169(4)
H7 H 0.4861 0.1721 0.1021
C11 C 0.6721(6) 0.2477(2) 0.2023(4)
H8 H 0.5993 0.2821 0.2562
N1 N 0.7580(4) 0.15663(16) 0.0546(3)
H9 H 0.7527 0.1187 -0.0091
N2 N 0.8633(5) 0.24857(18) 0.1966(3)
H10 H 0.9402 0.2806 0.2440
loop_
_geom_bond_atom_site_label_1
_geom_bond_atom_site_label_2
_geom_bond_site_symmetry_1
_geom_bond_site_symmetry_2
C1 C2 1_555 1_555
C2 C3 1_555 1_555
C3 H1 1_555 1_555
C4 C3 1_555 1_555
H2 C4 1_555 1_555
C5 C4 1_555 1_555
C6 C5 1_555 1_555
C7 C5 1_555 1_555
H3 C7 1_555 1_555
C8 C2 1_555 1_555
H4 C8 1_555 1_555
O1 C1 1_555 1_555
O2 C1 1_555 1_555
O3 C6 1_555 1_555
O4 C6 1_555 1_555
H5 O3 1_555 1_555
C9 H6 1_555 1_555
C10 H7 1_555 1_555
C11 C10 1_555 1_555
H8 C11 1_555 1_555
N1 C9 1_555 1_555
H9 N1 1_555 1_555
N2 C9 1_555 1_555
H10 N2 1_555 1_555
C7 C8 1_555 1_555
C10 N1 1_555 1_555
C11 N2 1_555 1_555

#END
