
#######################################################################
#
#                 Cambridge Crystallographic Data Centre
#                                CCDC 
#
#######################################################################
#
# If this CIF has been generated from an entry in the Cambridge 
# Structural Database, then it will include bibliographic, chemical, 
# crystal, experimental, refinement or atomic coordinate data resulting 
# from the CCDC's data processing and validation procedures.
#
#######################################################################

data_HEQDIT
_chemical_formula_moiety         'C14 H16 Br1 N1 O1'
_chemical_name_systematic        
N-[1-(4-bromophenyl)but-3-yn-2-yl]-2-methylpropanamide
_symmetry_cell_setting           monoclinic
_symmetry_space_group_name_H-M   'P 21'
_symmetry_Int_Tables_number      4
_space_group_name_Hall           'P 2yb'
loop_
_symmetry_equiv_pos_site_id
_symmetry_equiv_pos_as_xyz
1 x,y,z
2 -x,1/2+y,-z
_cell_length_a                   4.8610(2)
_cell_length_b                   9.8176(4)
_cell_length_c                   14.4748(5)
_cell_angle_alpha                90
_cell_angle_beta                 90.212(4)
_cell_angle_gamma                90
_cell_volume                     690.781
_exptl_crystal_colour            colorless
_exptl_crystal_description       needle
_cell_formula_units_Z            2
loop_
_atom_site_label
_atom_site_type_symbol
_atom_site_fract_x
_atom_site_fract_y
_atom_site_fract_z
Br1 Br 0.07549(17) 0.25505(8) 1.21689(4)
O1 O -0.1001(8) 0.4532(5) 0.6241(3)
N1 N 0.3354(9) 0.3863(5) 0.6518(3)
H1 H 0.532(13) 0.392(7) 0.636(4)
C1 C 0.1772(14) 0.3074(6) 1.0947(4)
C2 C 0.3801(13) 0.2344(8) 1.0510(4)
H2 H 0.4676 0.1627 1.0811
C3 C 0.4529(11) 0.2692(9) 0.9612(4)
H3 H 0.5917 0.2210 0.9316
C4 C 0.3210(11) 0.3747(6) 0.9153(4)
C5 C 0.1167(13) 0.4455(6) 0.9616(4)
H4 H 0.0271 0.5168 0.9317
C6 C 0.0421(14) 0.4124(7) 1.0518(4)
H5 H -0.0958 0.4604 1.0821
C7 C 0.3994(13) 0.4151(6) 0.8180(4)
H6 H 0.5982 0.4125 0.8129
H7 H 0.3413 0.5083 0.8075
C8 C 0.2743(12) 0.3242(6) 0.7415(4)
H8 H 0.0742 0.3232 0.7493
C9 C 0.3729(15) 0.1833(7) 0.7458(5)
C10 C 0.4594(19) 0.0721(8) 0.7490(5)
H9 H 0.5280 -0.0162 0.7515
C11 C 0.1441(11) 0.4543(6) 0.6037(3)
C12 C 0.2535(11) 0.5383(6) 0.5235(4)
H10 H 0.4196 0.4938 0.5000
C13 C 0.0471(17) 0.5497(11) 0.4448(5)
H11 H -0.1201 0.5897 0.4673
H12 H 0.0089 0.4607 0.4205
H13 H 0.1220 0.6061 0.3968
C14 C 0.333(2) 0.6785(8) 0.5603(5)
H14 H 0.1734 0.7227 0.5850
H15 H 0.4070 0.7325 0.5110
H16 H 0.4693 0.6686 0.6081
loop_
_geom_bond_atom_site_label_1
_geom_bond_atom_site_label_2
_geom_bond_site_symmetry_1
_geom_bond_site_symmetry_2
Br1 C1 1_555 1_555
O1 C11 1_555 1_555
N1 H1 1_555 1_555
C1 C2 1_555 1_555
C2 H2 1_555 1_555
C3 C2 1_555 1_555
H3 C3 1_555 1_555
C4 C3 1_555 1_555
C5 C4 1_555 1_555
H4 C5 1_555 1_555
C6 C1 1_555 1_555
H5 C6 1_555 1_555
C7 C4 1_555 1_555
H6 C7 1_555 1_555
H7 C7 1_555 1_555
C8 N1 1_555 1_555
H8 C8 1_555 1_555
C9 C8 1_555 1_555
C10 C9 1_555 1_555
H9 C10 1_555 1_555
C11 N1 1_555 1_555
C12 C11 1_555 1_555
H10 C12 1_555 1_555
C13 C12 1_555 1_555
H11 C13 1_555 1_555
H12 C13 1_555 1_555
H13 C13 1_555 1_555
C14 C12 1_555 1_555
H14 C14 1_555 1_555
H15 C14 1_555 1_555
H16 C14 1_555 1_555
C5 C6 1_555 1_555
C7 C8 1_555 1_555

#END
