
#######################################################################
#
#                 Cambridge Crystallographic Data Centre
#                                CCDC 
#
#######################################################################
#
# If this CIF has been generated from an entry in the Cambridge 
# Structural Database, then it will include bibliographic, chemical, 
# crystal, experimental, refinement or atomic coordinate data resulting 
# from the CCDC's data processing and validation procedures.
#
#######################################################################

data_HEQRAY
_chemical_formula_moiety         'C28 H30 N2 O6'
_chemical_name_systematic        
'Methyl 1-(2-methoxy-2-oxoethyl)-2,5-bis(4-methoxyphenyl)-3-phenylimidazolidine-4-carboxylate'
_symmetry_cell_setting           monoclinic
_symmetry_space_group_name_H-M   'P 21'
_symmetry_Int_Tables_number      4
_space_group_name_Hall           'P 2yb'
loop_
_symmetry_equiv_pos_site_id
_symmetry_equiv_pos_as_xyz
1 x,y,z
2 -x,1/2+y,-z
_cell_length_a                   10.628(2)
_cell_length_b                   18.617(4)
_cell_length_c                   12.955(3)
_cell_angle_alpha                90
_cell_angle_beta                 105.512(7)
_cell_angle_gamma                90
_cell_volume                     2469.93
_exptl_crystal_colour            colorless
_cell_formula_units_Z            4
loop_
_atom_site_label
_atom_site_type_symbol
_atom_site_fract_x
_atom_site_fract_y
_atom_site_fract_z
O1 O 0.36370(19) 0.72342(12) 0.43664(15)
O2 O 1.1834(2) 0.49445(12) 0.16679(15)
O3 O 1.0908(2) 0.67868(12) 0.70972(16)
O4 O 1.0652(2) 0.77739(11) 0.60696(16)
O5 O 0.71897(19) 0.44743(12) 0.45195(16)
O6 O 0.64559(19) 0.46051(12) 0.59877(16)
N1 N 0.9331(2) 0.59877(13) 0.53153(17)
N2 N 0.9732(2) 0.48314(13) 0.58439(18)
C1 C 0.2926(3) 0.75162(17) 0.5066(2)
H1 H 0.2752 0.7131 0.5524
H2 H 0.2097 0.7718 0.4642
H3 H 0.3441 0.7894 0.5514
C2 C 0.4777(3) 0.68923(15) 0.4832(2)
C3 C 0.5405(3) 0.65904(17) 0.4127(2)
H4 H 0.5018 0.6621 0.3377
C4 C 0.6595(3) 0.62435(17) 0.4510(2)
H5 H 0.7014 0.6036 0.4019
C5 C 0.7180(3) 0.61976(16) 0.5606(2)
C6 C 0.8515(3) 0.58583(16) 0.6034(2)
H6 H 0.8945 0.6074 0.6748
C7 C 1.0376(3) 0.54510(16) 0.5504(2)
H7 H 1.1140 0.5609 0.6095
C8 C 1.0784(3) 0.53262(16) 0.4484(2)
C9 C 0.9923(3) 0.50203(16) 0.3591(2)
H8 H 0.9067 0.4893 0.3617
C10 C 1.0302(3) 0.49003(16) 0.2665(2)
H9 H 0.9709 0.4687 0.2061
C11 C 1.1553(3) 0.50913(16) 0.2616(2)
C12 C 1.3083(3) 0.51683(19) 0.1568(3)
H10 H 1.3154 0.5692 0.1636
H11 H 1.3179 0.5023 0.0866
H12 H 1.3771 0.4944 0.2134
C13 C 0.5339(3) 0.68395(16) 0.5928(2)
H13 H 0.4908 0.7036 0.6418
C14 C 0.6540(3) 0.64961(16) 0.6301(2)
H14 H 0.6929 0.6467 0.7051
C15 C 0.9711(3) 0.67196(16) 0.5215(2)
H15 H 0.8911 0.7006 0.4916
H16 H 1.0237 0.6735 0.4690
C16 C 1.0490(3) 0.70817(16) 0.6243(2)
C17 C 1.1463(3) 0.81677(18) 0.6980(3)
H17 H 1.0995 0.8218 0.7533
H18 H 1.1661 0.8645 0.6745
H19 H 1.2279 0.7905 0.7275
C18 C 1.0408(3) 0.42063(16) 0.6234(2)
C19 C 0.9820(3) 0.36843(16) 0.6723(2)
H20 H 0.8966 0.3762 0.6799
C20 C 1.0477(3) 0.30522(18) 0.7099(2)
H21 H 1.0064 0.2705 0.7436
C21 C 1.1713(3) 0.29154(17) 0.6996(2)
H22 H 1.2147 0.2477 0.7244
C22 C 1.2304(3) 0.34349(18) 0.6522(2)
H23 H 1.3158 0.3352 0.6450
C23 C 1.1674(3) 0.40742(17) 0.6151(2)
H24 H 1.2105 0.4425 0.5837
C24 C 0.8567(3) 0.50294(16) 0.6138(2)
H25 H 0.8667 0.4894 0.6903
C25 C 0.7348(3) 0.46706(16) 0.5437(2)
C26 C 0.5193(3) 0.4331(2) 0.5395(3)
H26 H 0.4918 0.4572 0.4698
H27 H 0.4551 0.4424 0.5799
H28 H 0.5255 0.3813 0.5287
C27 C 1.2413(3) 0.54113(16) 0.3493(2)
H29 H 1.3258 0.5555 0.3458
C28 C 1.2024(3) 0.55192(16) 0.4424(2)
H30 H 1.2618 0.5729 0.5030
O7 O 0.3348(2) 0.34774(13) 1.34248(16)
O8 O 1.1248(2) 0.11153(12) 0.96546(16)
O9 O 0.85717(19) 0.38190(12) 0.89841(15)
O10 O 0.7898(2) 0.38575(12) 1.04867(15)
O11 O 0.4214(2) 0.06954(12) 0.92248(17)
O12 O 0.39073(19) 0.16300(11) 0.80965(15)
N3 N 0.5697(2) 0.24757(13) 0.97028(17)
N4 N 0.5292(2) 0.36241(13) 0.91539(18)
C29 C 0.2090(3) 0.32763(18) 1.3533(3)
H31 H 0.1410 0.3514 1.2975
H32 H 0.2012 0.3423 1.4240
H33 H 0.1986 0.2754 1.3459
C30 C 0.3591(3) 0.33415(16) 1.2460(2)
C31 C 0.2705(3) 0.30256(17) 1.1589(2)
H34 H 0.1867 0.2879 1.1639
C32 C 0.3068(3) 0.29270(16) 1.0639(2)
H35 H 0.2469 0.2709 1.0044
C33 C 0.4271(3) 0.31374(15) 1.0546(2)
C34 C 0.4659(3) 0.30121(15) 0.9523(2)
H36 H 0.3887 0.2849 0.8942
C35 C 0.6405(3) 0.25779(16) 0.8892(2)
H37 H 0.5859 0.2388 0.8192
C36 C 0.7720(3) 0.22032(15) 0.9160(2)
C37 C 0.8208(3) 0.19641(15) 0.8314(2)
H38 H 0.7714 0.2043 0.7595
C38 C 0.9394(3) 0.16166(15) 0.8515(2)
H39 H 0.9721 0.1466 0.7936
C39 C 1.0105(3) 0.14878(16) 0.9555(2)
C40 C 1.2005(3) 0.0962(2) 1.0706(2)
H40 H 1.2283 0.1413 1.1090
H41 H 1.2776 0.0683 1.0674
H42 H 1.1481 0.0684 1.1082
C41 C 0.4823(3) 0.35497(16) 1.2381(2)
H43 H 0.5429 0.3762 1.2978
C42 C 0.5157(3) 0.34468(16) 1.1439(2)
H44 H 0.5999 0.3587 1.1390
C43 C 0.6441(3) 0.34060(16) 0.8828(2)
H45 H 0.6347 0.3557 0.8070
C44 C 0.4621(3) 0.42510(16) 0.8751(2)
C45 C 0.3380(3) 0.44005(16) 0.8883(2)
H46 H 0.2967 0.4062 0.9234
C46 C 0.2751(3) 0.50383(17) 0.8505(2)
H47 H 0.1913 0.5134 0.8605
C47 C 0.3327(3) 0.55389(17) 0.7985(2)
H48 H 0.2892 0.5976 0.7733
C48 C 0.4542(3) 0.53941(17) 0.7836(2)
H49 H 0.4936 0.5730 0.7468
C49 C 0.5193(3) 0.47600(16) 0.8221(2)
H50 H 0.6034 0.4671 0.8124
C50 C 0.7693(3) 0.37231(16) 0.9550(2)
C51 C 0.9849(3) 0.4056(2) 0.9598(3)
H51 H 0.9776 0.4529 0.9908
H52 H 1.0432 0.4088 0.9128
H53 H 1.0205 0.3711 1.0174
C52 C 0.8441(3) 0.20778(16) 1.0199(2)
H54 H 0.8123 0.2236 1.0780
C53 C 0.9644(3) 0.17169(17) 1.0403(2)
H55 H 1.0139 0.1631 1.1119
C54 C 0.5334(3) 0.17464(16) 0.9895(2)
H56 H 0.4929 0.1755 1.0500
H57 H 0.6141 0.1456 1.0122
C55 C 0.4408(3) 0.13731(16) 0.8960(2)
C56 C 0.3307(3) 0.02859(18) 0.8413(3)
H58 H 0.2473 0.0542 0.8190
H59 H 0.3170 -0.0185 0.8702
H60 H 0.3661 0.0222 0.7793
H61? H 0.8798 0.5874 0.4641
H62? H 0.6285 0.2614 1.0342
loop_
_geom_bond_atom_site_label_1
_geom_bond_atom_site_label_2
_geom_bond_site_symmetry_1
_geom_bond_site_symmetry_2
O1 C1 1_555 1_555
O2 C11 1_555 1_555
O3 C16 1_555 1_555
O4 C16 1_555 1_555
O5 C25 1_555 1_555
O6 C25 1_555 1_555
N1 C6 1_555 1_555
N2 C7 1_555 1_555
C1 H1 1_555 1_555
H2 C1 1_555 1_555
H3 C1 1_555 1_555
C2 O1 1_555 1_555
C3 C2 1_555 1_555
H4 C3 1_555 1_555
C4 C3 1_555 1_555
H5 C4 1_555 1_555
C5 C4 1_555 1_555
C6 C5 1_555 1_555
H6 C6 1_555 1_555
C7 N1 1_555 1_555
H7 C7 1_555 1_555
C8 C7 1_555 1_555
C9 C8 1_555 1_555
H8 C9 1_555 1_555
C10 C9 1_555 1_555
H9 C10 1_555 1_555
C11 C10 1_555 1_555
C12 O2 1_555 1_555
H10 C12 1_555 1_555
H11 C12 1_555 1_555
H12 C12 1_555 1_555
C13 C2 1_555 1_555
H13 C13 1_555 1_555
C14 C5 1_555 1_555
H14 C14 1_555 1_555
C15 N1 1_555 1_555
H15 C15 1_555 1_555
H16 C15 1_555 1_555
C16 C15 1_555 1_555
C17 O4 1_555 1_555
H17 C17 1_555 1_555
H18 C17 1_555 1_555
H19 C17 1_555 1_555
C18 N2 1_555 1_555
C19 C18 1_555 1_555
H20 C19 1_555 1_555
C20 C19 1_555 1_555
H21 C20 1_555 1_555
C21 C20 1_555 1_555
H22 C21 1_555 1_555
C22 C21 1_555 1_555
H23 C22 1_555 1_555
C23 C18 1_555 1_555
H24 C23 1_555 1_555
C24 N2 1_555 1_555
H25 C24 1_555 1_555
C25 C24 1_555 1_555
C26 O6 1_555 1_555
H26 C26 1_555 1_555
H27 C26 1_555 1_555
H28 C26 1_555 1_555
C27 C11 1_555 1_555
H29 C27 1_555 1_555
C28 C8 1_555 1_555
H30 C28 1_555 1_555
O7 C29 1_555 1_555
O8 C39 1_555 1_555
O9 C50 1_555 1_555
O10 C50 1_555 1_555
O11 C55 1_555 1_555
O12 C55 1_555 1_555
N3 C34 1_555 1_555
N4 C34 1_555 1_555
C29 H31 1_555 1_555
H32 C29 1_555 1_555
H33 C29 1_555 1_555
C30 O7 1_555 1_555
C31 C30 1_555 1_555
H34 C31 1_555 1_555
C32 C31 1_555 1_555
H35 C32 1_555 1_555
C33 C32 1_555 1_555
C34 C33 1_555 1_555
H36 C34 1_555 1_555
C35 N3 1_555 1_555
H37 C35 1_555 1_555
C36 C35 1_555 1_555
C37 C36 1_555 1_555
H38 C37 1_555 1_555
C38 C37 1_555 1_555
H39 C38 1_555 1_555
C39 C38 1_555 1_555
C40 O8 1_555 1_555
H40 C40 1_555 1_555
H41 C40 1_555 1_555
H42 C40 1_555 1_555
C41 C30 1_555 1_555
H43 C41 1_555 1_555
C42 C33 1_555 1_555
H44 C42 1_555 1_555
C43 N4 1_555 1_555
H45 C43 1_555 1_555
C44 N4 1_555 1_555
C45 C44 1_555 1_555
H46 C45 1_555 1_555
C46 C45 1_555 1_555
H47 C46 1_555 1_555
C47 C46 1_555 1_555
H48 C47 1_555 1_555
C48 C47 1_555 1_555
H49 C48 1_555 1_555
C49 C44 1_555 1_555
H50 C49 1_555 1_555
C50 C43 1_555 1_555
C51 O9 1_555 1_555
H51 C51 1_555 1_555
H52 C51 1_555 1_555
H53 C51 1_555 1_555
C52 C36 1_555 1_555
H54 C52 1_555 1_555
C53 C39 1_555 1_555
H55 C53 1_555 1_555
C54 N3 1_555 1_555
H56 C54 1_555 1_555
H57 C54 1_555 1_555
C55 C54 1_555 1_555
C56 O11 1_555 1_555
H58 C56 1_555 1_555
H59 C56 1_555 1_555
H60 C56 1_555 1_555
C6 C24 1_555 1_555
C13 C14 1_555 1_555
C22 C23 1_555 1_555
C27 C28 1_555 1_555
C35 C43 1_555 1_555
C41 C42 1_555 1_555
C48 C49 1_555 1_555
C52 C53 1_555 1_555

#END
