
#######################################################################
#
#                 Cambridge Crystallographic Data Centre
#                                CCDC 
#
#######################################################################
#
# If this CIF has been generated from an entry in the Cambridge 
# Structural Database, then it will include bibliographic, chemical, 
# crystal, experimental, refinement or atomic coordinate data resulting 
# from the CCDC's data processing and validation procedures.
#
#######################################################################

data_HERBEL
_chemical_formula_moiety         'C38 H30 O1 S2'
_chemical_name_systematic        
(Pentaphenylcyclopenta-2,4-dienyl)ethoxydithiocarbonate
_symmetry_cell_setting           triclinic
_symmetry_space_group_name_H-M   'P 1'
_symmetry_Int_Tables_number      1
_space_group_name_Hall           'P 1'
loop_
_symmetry_equiv_pos_site_id
_symmetry_equiv_pos_as_xyz
1 x,y,z
_cell_length_a                   9.847(2)
_cell_length_b                   10.272(2)
_cell_length_c                   17.894(4)
_cell_angle_alpha                95.25(2)
_cell_angle_beta                 96.51(2)
_cell_angle_gamma                118.22(3)
_cell_volume                     1562.61
_exptl_crystal_colour            yellow
_chemical_melting_point          142-143deg.C
_cell_formula_units_Z            2
loop_
_atom_site_label
_atom_site_type_symbol
_atom_site_fract_x
_atom_site_fract_y
_atom_site_fract_z
S1 S 0.8866(11) 0.9735(7) 0.6681(3)
S3 S 0.9475(65) 1.2634(22) 0.7305(52)
O1 O 0.8248(51) 1.0054(63) 0.7965(24)
C1 C 0.8094(18) 0.7344(15) 0.7527(8)
C2 C 0.8960(18) 0.7304(15) 0.8182(8)
C3 C 1.0617(17) 0.8360(17) 0.8167(9)
C4 C 1.0855(17) 0.8996(16) 0.7568(9)
C5 C 0.9229(16) 0.8277(13) 0.7051(8)
C6 C 0.6405(10) 0.6657(10) 0.7293(4)
C7 C 0.5721(10) 0.6262(10) 0.6523(4)
C8 C 0.4103(10) 0.5635(10) 0.6311(4)
C9 C 0.3168(10) 0.5404(10) 0.6869(4)
C10 C 0.3852(10) 0.5799(10) 0.7639(4)
C11 C 0.5470(10) 0.6426(10) 0.7851(4)
C12 C 0.8369(10) 0.6390(7) 0.8773(5)
C13 C 0.8758(10) 0.6990(7) 0.9547(5)
C14 C 0.8125(10) 0.6064(7) 1.0081(5)
C15 C 0.7102(10) 0.4536(7) 0.9840(5)
C16 C 0.6712(10) 0.3935(7) 0.9066(5)
C17 C 0.7346(10) 0.4862(7) 0.8532(5)
C18 C 1.1920(11) 0.8658(9) 0.8838(5)
C19 C 1.2838(11) 1.0116(9) 0.9236(5)
C20 C 1.4021(11) 1.0429(9) 0.9846(5)
C21 C 1.4285(11) 0.9283(9) 1.0059(5)
C22 C 1.3366(11) 0.7825(9) 0.9661(5)
C23 C 1.2184(11) 0.7512(9) 0.9051(5)
C24 C 1.2349(10) 0.9877(9) 0.7309(5)
C25 C 1.2847(10) 1.1362(9) 0.7221(5)
C26 C 1.4229(10) 1.2174(9) 0.6945(5)
C27 C 1.5114(10) 1.1500(9) 0.6757(5)
C28 C 1.4617(10) 1.0015(9) 0.6844(5)
C29 C 1.3234(10) 0.9204(9) 0.7120(5)
C30 C 0.9305(11) 0.7338(10) 0.6339(4)
C31 C 0.9069(11) 0.5908(10) 0.6411(4)
C32 C 0.9211(11) 0.5041(10) 0.5810(4)
C33 C 0.9588(11) 0.5602(10) 0.5137(4)
C34 C 0.9824(11) 0.7032(10) 0.5065(4)
C35 C 0.9683(11) 0.7900(10) 0.5666(4)
C36 C 0.8946(19) 1.0935(15) 0.7457(9)
C37 C 0.8235(62) 1.1259(81) 0.8469(32)
C39 C 0.747(12) 1.0429(54) 0.8981(26)
H1 H 0.636(1) 0.642(1) 0.614(1)
H2 H 0.363(1) 0.536(1) 0.578(1)
H3 H 0.205(1) 0.497(1) 0.672(1)
H4 H 0.321(1) 0.564(1) 0.802(1)
H5 H 0.594(1) 0.670(1) 0.838(1)
H6 H 0.946(1) 0.804(1) 0.971(1)
H7 H 0.839(1) 0.648(1) 1.061(1)
H8 H 0.667(1) 0.390(1) 1.021(1)
H9 H 0.601(1) 0.288(1) 0.890(1)
H10 H 0.708(1) 0.445(1) 0.800(1)
H11 H 1.266(1) 1.090(1) 0.909(1)
H12 H 1.465(1) 1.143(1) 1.012(1)
H13 H 1.510(1) 0.950(1) 1.048(1)
H14 H 1.355(1) 0.704(1) 0.981(1)
H15 H 1.155(1) 0.651(1) 0.878(1)
H17 H 1.224(1) 1.183(1) 0.735(1)
H18 H 1.457(1) 1.320(1) 0.688(1)
H19 H 1.607(1) 1.206(1) 0.657(1)
H20 H 1.523(1) 0.955(1) 0.671(1)
H21 H 1.289(1) 0.818(1) 0.718(1)
H22 H 0.881(1) 0.552(1) 0.687(1)
H23 H 0.905(1) 0.406(1) 0.586(1)
H24 H 0.969(1) 0.501(1) 0.472(1)
H25 H 1.008(1) 0.742(1) 0.460(1)
H26 H 0.985(1) 0.888(1) 0.562(1)
H54 H 0.848 1.214 0.858
H56 H 0.700 1.107 0.946
H57 H 0.616 0.986 0.872
H58 H 0.728 0.969 0.935
S6 S 0.7832(8) 0.2979(11) 1.1687(3)
S8 S 0.5206(42) 0.2942(65) 1.2165(59)
O3 O 0.7348(33) 0.2559(29) 1.3057(9)
C41 C 1.0924(14) 0.4735(13) 1.2614(7)
C42 C 1.1530(14) 0.4376(14) 1.3216(6)
C43 C 1.0860(15) 0.2757(13) 1.3176(7)
C44 C 0.9725(15) 0.2021(13) 1.2519(7)
C45 C 0.9778(13) 0.3208(16) 1.2072(8)
C46 C 1.1380(8) 0.6190(9) 1.2382(5)
C47 C 1.0333(8) 0.6734(9) 1.2247(5)
C48 C 1.0819(8) 0.8101(9) 1.1989(5)
C49 C 1.2353(8) 0.8923(9) 1.1866(5)
C50 C 1.3400(8) 0.8379(9) 1.2000(5)
C51 C 1.2913(8) 0.7013(9) 1.2258(5)
C52 C 1.2912(10) 0.5496(8) 1.3793(5)
C53 C 1.4247(10) 0.5339(8) 1.3922(5)
C54 C 1.5574(10) 0.6426(8) 1.4430(5)
C55 C 1.5566(10) 0.7669(8) 1.4809(5)
C56 C 1.4231(10) 0.7826(8) 1.4681(5)
C57 C 1.2904(10) 0.6740(8) 1.4173(5)
C58 C 1.1366(11) 0.2070(10) 1.3769(4)
C59 C 1.1895(11) 0.1076(10) 1.3549(4)
C60 C 1.2419(11) 0.0456(10) 1.4097(4)
C61 C 1.2414(11) 0.0829(10) 1.4866(4)
C62 C 1.1885(11) 0.1824(10) 1.5086(4)
C63 C 1.1361(11) 0.2444(10) 1.4538(4)
C64 C 0.8652(10) 0.0416(9) 1.2278(4)
C65 C 0.8117(10) -0.0151(9) 1.1501(4)
C66 C 0.7088(10) -0.1677(9) 1.1258(4)
C67 C 0.6593(10) -0.2636(9) 1.1793(4)
C68 C 0.7128(10) -0.2069(9) 1.2570(4)
C69 C 0.8158(10) -0.0543(9) 1.2813(4)
C70 C 1.0573(10) 0.3301(10) 1.1367(5)
C71 C 1.0375(10) 0.4065(10) 1.0795(5)
C72 C 1.1218(10) 0.4269(10) 1.0200(5)
C73 C 1.2258(10) 0.3709(10) 1.0175(5)
C74 C 1.2456(10) 0.2945(10) 1.0747(5)
C75 C 1.1614(10) 0.2741(10) 1.1343(5)
C76 C 0.6841(16) 0.2963(17) 1.2433(9)
C77 C 0.6495(27) 0.2355(36) 1.3699(17)
C79 C 0.6881(26) 0.1631(22) 1.4202(16)
H27 H 0.928(1) 0.617(1) 1.233(1)
H28 H 1.010(1) 0.847(1) 1.190(1)
H29 H 1.269(1) 0.986(1) 1.169(1)
H30 H 1.445(1) 0.895(1) 1.192(1)
H31 H 1.363(1) 0.664(1) 1.235(1)
H32 H 1.425(1) 0.448(1) 1.366(1)
H33 H 1.649(1) 0.632(1) 1.452(1)
H34 H 1.648(1) 0.842(1) 1.516(1)
H35 H 1.423(1) 0.868(1) 1.494(1)
H36 H 1.199(1) 0.685(1) 1.408(1)
H37 H 1.190(1) 0.082(1) 1.302(1)
H38 H 1.278(1) -0.023(1) 1.395(1)
H39 H 1.277(1) 0.040(1) 1.524(1)
H40 H 1.188(1) 0.208(1) 1.562(1)
H41 H 1.100(1) 0.313(1) 1.469(1)
H42 H 0.846(1) 0.051(1) 1.113(1)
H43 H 0.672(1) -0.207(1) 1.072(1)
H44 H 0.589(1) -0.369(1) 1.163(1)
H45 H 0.679(1) -0.273(1) 1.294(1)
H46 H 0.853(1) -0.015(1) 1.335(1)
H47 H 0.966(1) 0.445(1) 1.081(1)
H48 H 1.108(1) 0.479(1) 0.981(1)
H49 H 1.284(1) 0.385(1) 0.977(1)
H50 H 1.317(1) 0.256(1) 1.073(1)
H51 H 1.175(1) 0.222(1) 1.174(1)
H62 H 0.528 0.160 1.342
H64 H 0.632 0.135 1.461
H65 H 0.684 0.066 1.396
H66 H 0.801 0.225 1.442
S2? S 0.9092(69) 0.9860(39) 0.6695(7)
S4? S 0.9184(63) 1.2521(27) 0.7252(23)
S5? S 0.8922(52) 1.2502(31) 0.7483(39)
O2? O 0.8894(24) 1.0405(21) 0.8122(9)
C38? C 0.8689(52) 1.1198(37) 0.8794(18)
C40? C 0.8084(54) 1.0361(40) 0.9331(20)
S7? S 0.7883(29) 0.3096(66) 1.1696(8)
S9? S 0.5385(42) 0.3234(74) 1.2160(37)
S10? S 0.5490(56) 0.3423(83) 1.2472(21)
O4? O 0.7505(81) 0.3071(71) 1.3157(23)
C78? C 0.659(16) 0.3039(93) 1.3774(78)
C80? C 0.705(42) 0.200(24) 1.398(12)
H16? H 1.111(1) 0.844(1) 0.842(1)
H52? H 0.924 1.213 0.885
H53? H 1.026 1.142 0.912
H55? H 0.944 1.153 0.904
H59? H 0.842 1.070 0.987
H60? H 0.707 1.029 0.918
H61? H 0.785 0.927 0.925
H63? H 0.644 0.318 1.389
H67? H 0.618 0.339 1.379
H68? H 0.702 0.262 1.419
H69? H 0.430 0.108 1.395
H70? H 0.432 0.105 1.307
H71? H 0.513 0.031 1.354
loop_
_geom_bond_atom_site_label_1
_geom_bond_atom_site_label_2
_geom_bond_site_symmetry_1
_geom_bond_site_symmetry_2
S1 C5 1_555 1_555
S3 C36 1_555 1_555
O1 C36 1_555 1_555
C1 C2 1_555 1_555
C2 C3 1_555 1_555
C3 C4 1_555 1_555
C4 C5 1_555 1_555
C5 C1 1_555 1_555
C6 C1 1_555 1_555
C7 C6 1_555 1_555
C8 C7 1_555 1_555
C9 C8 1_555 1_555
C10 C9 1_555 1_555
C11 C6 1_555 1_555
C12 C2 1_555 1_555
C13 C12 1_555 1_555
C14 C13 1_555 1_555
C15 C14 1_555 1_555
C16 C15 1_555 1_555
C17 C12 1_555 1_555
C18 C3 1_555 1_555
C19 C18 1_555 1_555
C20 C19 1_555 1_555
C21 C20 1_555 1_555
C22 C21 1_555 1_555
C23 C18 1_555 1_555
C24 C4 1_555 1_555
C25 C24 1_555 1_555
C26 C25 1_555 1_555
C27 C26 1_555 1_555
C28 C27 1_555 1_555
C29 C24 1_555 1_555
C30 C5 1_555 1_555
C31 C30 1_555 1_555
C32 C31 1_555 1_555
C33 C32 1_555 1_555
C34 C33 1_555 1_555
C35 C30 1_555 1_555
C36 S1 1_555 1_555
C37 O1 1_555 1_555
C39 C37 1_555 1_555
S6 C45 1_555 1_555
S8 C76 1_555 1_555
O3 C76 1_555 1_555
C41 C42 1_555 1_555
C42 C43 1_555 1_555
C43 C44 1_555 1_555
C44 C45 1_555 1_555
C45 C41 1_555 1_555
C46 C41 1_555 1_555
C47 C46 1_555 1_555
C48 C47 1_555 1_555
C49 C48 1_555 1_555
C50 C49 1_555 1_555
C51 C46 1_555 1_555
C52 C42 1_555 1_555
C53 C52 1_555 1_555
C54 C53 1_555 1_555
C55 C54 1_555 1_555
C56 C55 1_555 1_555
C57 C52 1_555 1_555
C58 C43 1_555 1_555
C59 C58 1_555 1_555
C60 C59 1_555 1_555
C61 C60 1_555 1_555
C62 C61 1_555 1_555
C63 C58 1_555 1_555
C64 C44 1_555 1_555
C65 C64 1_555 1_555
C66 C65 1_555 1_555
C67 C66 1_555 1_555
C68 C67 1_555 1_555
C69 C64 1_555 1_555
C70 C45 1_555 1_555
C71 C70 1_555 1_555
C72 C71 1_555 1_555
C73 C72 1_555 1_555
C74 C73 1_555 1_555
C75 C70 1_555 1_555
C76 S6 1_555 1_555
C77 O3 1_555 1_555
C79 C77 1_555 1_555
H1 C7 1_555 1_555
H2 C8 1_555 1_555
H3 C9 1_555 1_555
H4 C10 1_555 1_555
H5 C11 1_555 1_555
H6 C13 1_555 1_555
H7 C14 1_555 1_555
H8 C15 1_555 1_555
H9 C16 1_555 1_555
H10 C17 1_555 1_555
H11 C19 1_555 1_555
H12 C20 1_555 1_555
H13 C21 1_555 1_555
H14 C22 1_555 1_555
H15 C23 1_555 1_555
H17 C25 1_555 1_555
H18 C26 1_555 1_555
H19 C27 1_555 1_555
H20 C28 1_555 1_555
H21 C29 1_555 1_555
H22 C31 1_555 1_555
H23 C32 1_555 1_555
H24 C33 1_555 1_555
H25 C34 1_555 1_555
H26 C35 1_555 1_555
H27 C47 1_555 1_555
H28 C48 1_555 1_555
H29 C49 1_555 1_555
H30 C50 1_555 1_555
H31 C51 1_555 1_555
H32 C53 1_555 1_555
H33 C54 1_555 1_555
H34 C55 1_555 1_555
H35 C56 1_555 1_555
H36 C57 1_555 1_555
H37 C59 1_555 1_555
H38 C60 1_555 1_555
H39 C61 1_555 1_555
H40 C62 1_555 1_555
H41 C63 1_555 1_555
H42 C65 1_555 1_555
H43 C66 1_555 1_555
H44 C67 1_555 1_555
H45 C68 1_555 1_555
H46 C69 1_555 1_555
H47 C71 1_555 1_555
H48 C72 1_555 1_555
H49 C73 1_555 1_555
H50 C74 1_555 1_555
H51 C75 1_555 1_555
H54 C37 1_555 1_555
H56 C39 1_555 1_555
H57 C39 1_555 1_555
H58 C39 1_555 1_555
H62 C77 1_555 1_555
H64 C79 1_555 1_555
H65 C79 1_555 1_555
H66 C79 1_555 1_555
C10 C11 1_555 1_555
C16 C17 1_555 1_555
C22 C23 1_555 1_555
C28 C29 1_555 1_555
C34 C35 1_555 1_555
C50 C51 1_555 1_555
C56 C57 1_555 1_555
C62 C63 1_555 1_555
C68 C69 1_555 1_555
C74 C75 1_555 1_555

#END
