
#######################################################################
#
#                 Cambridge Crystallographic Data Centre
#                                CCDC 
#
#######################################################################
#
# If this CIF has been generated from an entry in the Cambridge 
# Structural Database, then it will include bibliographic, chemical, 
# crystal, experimental, refinement or atomic coordinate data resulting 
# from the CCDC's data processing and validation procedures.
#
#######################################################################

data_HERZIO
_chemical_name_common            'PDB Chemical Component code: E35'
_chemical_formula_moiety         'C9 H10 O4,0.5(H2 O1)'
_chemical_name_systematic        'Ethyl 3,5-dihydroxybenzoate hemihydrate'
_symmetry_cell_setting           monoclinic
_symmetry_space_group_name_H-M   'P 21/c'
_symmetry_Int_Tables_number      14
_space_group_name_Hall           '-P 2ybc'
loop_
_symmetry_equiv_pos_site_id
_symmetry_equiv_pos_as_xyz
1 x,y,z
2 -x,1/2+y,1/2-z
3 -x,-y,-z
4 x,1/2-y,1/2+z
_cell_length_a                   7.3533(15)
_cell_length_b                   14.523(3)
_cell_length_c                   17.585(4)
_cell_angle_alpha                90
_cell_angle_beta                 93.387(3)
_cell_angle_gamma                90
_cell_volume                     1874.66
_exptl_crystal_colour            'pale yellow'
_exptl_crystal_description       prism
_cell_formula_units_Z            8
loop_
_atom_site_label
_atom_site_type_symbol
_atom_site_fract_x
_atom_site_fract_y
_atom_site_fract_z
C1 C 0.7869(2) 0.21073(10) 1.07749(8)
H1 H 0.8384 0.2208 1.1264
C2 C 0.7635(2) 0.12223(10) 1.04986(8)
C3 C 0.6851(2) 0.10685(10) 0.97755(8)
H2 H 0.6686 0.0471 0.9595
C4 C 0.6316(2) 0.18088(10) 0.93240(7)
C5 C 0.6543(2) 0.26969(10) 0.95863(7)
H3 H 0.6177 0.3193 0.9280
C6 C 0.7329(2) 0.28424(9) 1.03158(7)
C7 C 0.7557(2) 0.38073(11) 1.05778(8)
C8 C 0.8109(3) 0.48379(10) 1.16051(8)
H4 H 0.6954 0.5156 1.1523
H5 H 0.9026 0.5173 1.1343
C9 C 0.8632(3) 0.47834(12) 1.24326(8)
H6 H 0.8689 0.5393 1.2644
H7 H 0.9803 0.4494 1.2506
H8 H 0.7742 0.4428 1.2683
O1 O 0.81878(17) 0.05105(7) 1.09672(6)
H9 H 0.811(2) -0.0003(10) 1.0727(8)
O2 O 0.55532(17) 0.16044(8) 0.86177(6)
H10 H 0.530(2) 0.2103(10) 0.8333(9)
O3 O 0.79590(15) 0.38972(7) 1.13174(5)
O4 O 0.74055(19) 0.44729(7) 1.01649(6)
C10 C 0.3265(2) 0.29835(10) 0.62278(7)
H11 H 0.3353 0.3622 0.6233
C11 C 0.3821(2) 0.24713(10) 0.68654(7)
C12 C 0.3672(2) 0.15292(10) 0.68621(8)
H12 H 0.4037 0.1193 0.7294
C13 C 0.2977(2) 0.10825(10) 0.62150(8)
C14 C 0.2427(2) 0.15750(9) 0.55691(7)
H13 H 0.1964 0.1273 0.5133
C15 C 0.25773(18) 0.25244(9) 0.55826(7)
C16 C 0.1999(2) 0.30908(11) 0.49046(7)
C17 C 0.0753(2) 0.30677(11) 0.36321(7)
H14 H 0.1743 0.3400 0.3415
H15 H -0.0184 0.3506 0.3752
C18 C -0.0008(2) 0.23592(12) 0.30814(8)
H16 H -0.0548 0.2660 0.2638
H17 H -0.0917 0.2003 0.3318
H18 H 0.0953 0.1961 0.2936
O5 O 0.45250(18) 0.28795(7) 0.75249(6)
H19 H 0.500(2) 0.3411(10) 0.7403(9)
O6 O 0.28714(18) 0.01409(7) 0.62501(5)
H20 H 0.269(2) -0.0089(11) 0.5800(7)
O7 O 0.14085(14) 0.25778(6) 0.43131(5)
O8 O 0.20495(15) 0.39201(7) 0.48907(5)
O9 O 0.6257(2) 0.06092(10) 1.23074(7)
H21 H 0.677(3) 0.0397(15) 1.2717(8)
H22 H 0.685(3) 0.0486(16) 1.1930(9)
loop_
_geom_bond_atom_site_label_1
_geom_bond_atom_site_label_2
_geom_bond_site_symmetry_1
_geom_bond_site_symmetry_2
C1 H1 1_555 1_555
C2 C1 1_555 1_555
C3 C2 1_555 1_555
H2 C3 1_555 1_555
C4 C3 1_555 1_555
C5 C4 1_555 1_555
H3 C5 1_555 1_555
C6 C1 1_555 1_555
C7 C6 1_555 1_555
C8 H4 1_555 1_555
H5 C8 1_555 1_555
C9 C8 1_555 1_555
H6 C9 1_555 1_555
H7 C9 1_555 1_555
H8 C9 1_555 1_555
O1 C2 1_555 1_555
H9 O1 1_555 1_555
O2 C4 1_555 1_555
H10 O2 1_555 1_555
O3 C7 1_555 1_555
O4 C7 1_555 1_555
C10 H11 1_555 1_555
C11 C10 1_555 1_555
C12 C11 1_555 1_555
H12 C12 1_555 1_555
C13 C12 1_555 1_555
C14 C13 1_555 1_555
H13 C14 1_555 1_555
C15 C10 1_555 1_555
C16 C15 1_555 1_555
C17 H14 1_555 1_555
H15 C17 1_555 1_555
C18 C17 1_555 1_555
H16 C18 1_555 1_555
H17 C18 1_555 1_555
H18 C18 1_555 1_555
O5 C11 1_555 1_555
H19 O5 1_555 1_555
O6 C13 1_555 1_555
H20 O6 1_555 1_555
O7 C16 1_555 1_555
O8 C16 1_555 1_555
O9 H21 1_555 1_555
H22 O9 1_555 1_555
C5 C6 1_555 1_555
C8 O3 1_555 1_555
C14 C15 1_555 1_555
C17 O7 1_555 1_555

#END
