
#######################################################################
#
#                 Cambridge Crystallographic Data Centre
#                                CCDC 
#
#######################################################################
#
# If this CIF has been generated from an entry in the Cambridge 
# Structural Database, then it will include bibliographic, chemical, 
# crystal, experimental, refinement or atomic coordinate data resulting 
# from the CCDC's data processing and validation procedures.
#
#######################################################################

data_HESBAJ
_chemical_formula_moiety         'C24 H16 N4 O6,2(C2 H6 O1 S1)'
_chemical_name_systematic        
"N,N'-bis(4-Nitrophenyl)-1,4-naphthalenedicarboxamide dimethylsulfoxide solvate"
_symmetry_cell_setting           monoclinic
_symmetry_space_group_name_H-M   'I 2/a'
_symmetry_Int_Tables_number      15
_space_group_name_Hall           '-I 2ya'
loop_
_symmetry_equiv_pos_site_id
_symmetry_equiv_pos_as_xyz
1 x,y,z
2 1/2+x,1/2+y,1/2+z
3 1/2-x,y,-z
4 -x,1/2+y,1/2-z
5 -x,-y,-z
6 1/2-x,1/2-y,1/2-z
7 1/2+x,-y,z
8 x,1/2-y,1/2+z
_cell_length_a                   23.820(5)
_cell_length_b                   9.166(3)
_cell_length_c                   26.778(6)
_cell_angle_alpha                90
_cell_angle_beta                 95.579(17)
_cell_angle_gamma                90
_cell_volume                     5818.86
_exptl_crystal_colour            brown
_exptl_crystal_description       block
_cell_formula_units_Z            8
loop_
_atom_site_label
_atom_site_type_symbol
_atom_site_fract_x
_atom_site_fract_y
_atom_site_fract_z
S1 S 0.57506(7) 0.6219(2) 0.08908(7)
O1 O 0.51668(19) 0.5786(5) 0.09998(19)
C1 C 0.5716(3) 0.8132(7) 0.0808(3)
H1 H 0.5685 0.8594 0.1126
H2 H 0.5392 0.8374 0.0582
H3 H 0.6051 0.8466 0.0672
C2 C 0.5802(3) 0.5722(8) 0.0267(2)
H4 H 0.5825 0.4679 0.0244
H5 H 0.6134 0.6153 0.0153
H6 H 0.5474 0.6061 0.0063
S2 S 0.67234(7) 0.6254(2) 0.20404(7)
O2 O 0.73169(16) 0.5674(5) 0.20114(18)
C3 C 0.6762(3) 0.8133(7) 0.1898(2)
H7 H 0.6802 0.8251 0.1547
H8 H 0.7081 0.8558 0.2092
H9 H 0.6423 0.8610 0.1978
C4 C 0.6642(3) 0.6423(8) 0.2692(2)
H10 H 0.6617 0.5470 0.2836
H11 H 0.6304 0.6961 0.2734
H12 H 0.6961 0.6931 0.2855
O3 O 0.76857(18) 0.0925(5) 0.11944(19)
O4 O 1.0252(2) 0.4744(7) 0.2349(2)
O5 O 1.03912(19) 0.2559(6) 0.20875(19)
O6 O 0.48159(18) 0.0680(6) 0.1205(2)
O7 O 0.2193(2) 0.5065(6) 0.0565(2)
O8 O 0.2064(2) 0.2755(6) 0.0643(2)
N1 N 0.77439(18) 0.3007(5) 0.16499(17)
H13 H 0.7546 0.3685 0.1768
N2 N 1.0080(2) 0.3563(9) 0.2171(2)
N3 N 0.4694(2) 0.3130(5) 0.11271(18)
H14 H 0.4876 0.3943 0.1149
N4 N 0.2368(2) 0.3821(8) 0.0655(2)
C5 C 0.6826(3) 0.2166(7) 0.1299(2)
C6 C 0.6537(3) 0.2485(7) 0.1690(3)
H15 H 0.6739 0.2715 0.1996
C7 C 0.5942(3) 0.2490(7) 0.1661(3)
H16 H 0.5759 0.2748 0.1939
C8 C 0.5636(3) 0.2112(7) 0.1220(3)
C9 C 0.5628(3) 0.1509(7) 0.0313(3)
H17 H 0.5236 0.1462 0.0287
C10 C 0.5891(3) 0.1281(9) -0.0099(3)
H18 H 0.5685 0.1110 -0.0407
C11 C 0.6485(3) 0.1304(8) -0.0059(3)
H19 H 0.6671 0.1148 -0.0343
C12 C 0.6790(3) 0.1550(7) 0.0389(3)
H20 H 0.7182 0.1527 0.0406
C13 C 0.6526(2) 0.1839(6) 0.0826(2)
C14 C 0.5919(3) 0.1817(6) 0.0784(2)
C15 C 0.7460(3) 0.1967(8) 0.1366(2)
C16 C 0.8334(2) 0.3079(7) 0.1769(2)
C17 C 0.8716(2) 0.2029(7) 0.1640(2)
H21 H 0.8585 0.1205 0.1463
C18 C 0.9283(3) 0.2192(7) 0.1770(2)
H22 H 0.9533 0.1482 0.1679
C19 C 0.9485(2) 0.3390(8) 0.2032(2)
C20 C 0.9115(3) 0.4459(8) 0.2172(2)
H23 H 0.9253 0.5282 0.2347
C21 C 0.8537(2) 0.4281(7) 0.2047(2)
H24 H 0.8286 0.4970 0.2150
C22 C 0.5012(3) 0.1915(8) 0.1191(3)
C23 C 0.4106(2) 0.3244(7) 0.1031(2)
C24 C 0.3897(2) 0.4625(7) 0.0895(2)
H25 H 0.4141 0.5415 0.0889
C25 C 0.3330(2) 0.4810(8) 0.0772(2)
H26 H 0.3185 0.5721 0.0678
C26 C 0.2983(2) 0.3631(9) 0.0791(2)
C27 C 0.3181(3) 0.2269(8) 0.0926(3)
H27 H 0.2934 0.1485 0.0932
C28 C 0.3744(3) 0.2077(7) 0.1051(2)
H28 H 0.3884 0.1163 0.1149
loop_
_geom_bond_atom_site_label_1
_geom_bond_atom_site_label_2
_geom_bond_site_symmetry_1
_geom_bond_site_symmetry_2
S1 O1 1_555 1_555
C1 S1 1_555 1_555
H1 C1 1_555 1_555
H2 C1 1_555 1_555
H3 C1 1_555 1_555
C2 S1 1_555 1_555
H4 C2 1_555 1_555
H5 C2 1_555 1_555
H6 C2 1_555 1_555
S2 O2 1_555 1_555
C3 S2 1_555 1_555
H7 C3 1_555 1_555
H8 C3 1_555 1_555
H9 C3 1_555 1_555
C4 S2 1_555 1_555
H10 C4 1_555 1_555
H11 C4 1_555 1_555
H12 C4 1_555 1_555
O3 C15 1_555 1_555
O4 N2 1_555 1_555
O5 N2 1_555 1_555
O6 C22 1_555 1_555
O7 N4 1_555 1_555
O8 N4 1_555 1_555
N1 H13 1_555 1_555
N2 C19 1_555 1_555
N3 H14 1_555 1_555
N4 C26 1_555 1_555
C5 C6 1_555 1_555
C6 H15 1_555 1_555
C7 C6 1_555 1_555
H16 C7 1_555 1_555
C8 C7 1_555 1_555
C9 H17 1_555 1_555
C10 C9 1_555 1_555
H18 C10 1_555 1_555
C11 C10 1_555 1_555
H19 C11 1_555 1_555
C12 C11 1_555 1_555
H20 C12 1_555 1_555
C13 C5 1_555 1_555
C14 C8 1_555 1_555
C15 N1 1_555 1_555
C16 N1 1_555 1_555
C17 C16 1_555 1_555
H21 C17 1_555 1_555
C18 C17 1_555 1_555
H22 C18 1_555 1_555
C19 C18 1_555 1_555
C20 C19 1_555 1_555
H23 C20 1_555 1_555
C21 C16 1_555 1_555
H24 C21 1_555 1_555
C22 N3 1_555 1_555
C23 N3 1_555 1_555
C24 C23 1_555 1_555
H25 C24 1_555 1_555
C25 C24 1_555 1_555
H26 C25 1_555 1_555
C26 C25 1_555 1_555
C27 C26 1_555 1_555
H27 C27 1_555 1_555
C28 C23 1_555 1_555
H28 C28 1_555 1_555
C5 C15 1_555 1_555
C8 C22 1_555 1_555
C9 C14 1_555 1_555
C12 C13 1_555 1_555
C13 C14 1_555 1_555
C20 C21 1_555 1_555
C27 C28 1_555 1_555

#END
