
#######################################################################
#
#                 Cambridge Crystallographic Data Centre
#                                CCDC 
#
#######################################################################
#
# If this CIF has been generated from an entry in the Cambridge 
# Structural Database, then it will include bibliographic, chemical, 
# crystal, experimental, refinement or atomic coordinate data resulting 
# from the CCDC's data processing and validation procedures.
#
#######################################################################

data_HESBOZ
_chemical_formula_moiety         'C35 H38 Cl1 F1 N2 O4'
_chemical_name_systematic        
't-butyl 3-(4-{2-(2-chloro-4-fluorophenyl)-1-hydroxy-1-[1-(oxan-2-yl)-1H-indazol-5-yl]butyl}phenyl)prop-2-enoate'
_symmetry_cell_setting           monoclinic
_symmetry_space_group_name_H-M   'P 21/c'
_symmetry_Int_Tables_number      14
_space_group_name_Hall           '-P 2ybc'
loop_
_symmetry_equiv_pos_site_id
_symmetry_equiv_pos_as_xyz
1 x,y,z
2 -x,1/2+y,1/2-z
3 -x,-y,-z
4 x,1/2-y,1/2+z
_cell_length_a                   9.2597(3)
_cell_length_b                   23.3729(8)
_cell_length_c                   15.3887(5)
_cell_angle_alpha                90
_cell_angle_beta                 97.662(2)
_cell_angle_gamma                90
_cell_volume                     3300.78
_exptl_crystal_colour            colorless
_exptl_crystal_description       prism
_cell_formula_units_Z            4
loop_
_atom_site_label
_atom_site_type_symbol
_atom_site_fract_x
_atom_site_fract_y
_atom_site_fract_z
C1 C 0.3156(3) 0.34235(14) 0.5382(2)
C2 C 0.2527(3) 0.28092(15) 0.5296(2)
H1 H 0.333609 0.254597 0.547546
C3 C 0.1908(4) 0.26548(17) 0.4343(3)
H2 H 0.102018 0.287095 0.417485
H3 H 0.260485 0.276660 0.395660
C4 C 0.1577(6) 0.2019(2) 0.4220(4)
H4 H 0.243769 0.180150 0.441719
H5 H 0.127096 0.194191 0.361071
H6 H 0.081467 0.191401 0.455489
C5 C 0.3590(3) 0.35689(14) 0.6353(2)
C6 C 0.4745(4) 0.32654(16) 0.6843(2)
H7 H 0.522897 0.298554 0.656370
C7 C 0.5175(4) 0.33690(17) 0.7713(3)
H8 H 0.592526 0.316160 0.802921
C8 C 0.4444(4) 0.37972(16) 0.8107(2)
C9 C 0.2825(6) 0.4484(2) 0.8253(3)
H9 H 0.206729 0.474410 0.812354
C10 C 0.3286(4) 0.41009(17) 0.7639(3)
C11 C 0.2861(4) 0.39860(16) 0.6750(3)
H10 H 0.210020 0.418786 0.643325
C12 C 0.5632(6) 0.3843(3) 0.9693(4)
H11 H 0.553787 0.342707 0.974460
C13 C 0.5269(8) 0.4077(4) 1.0532(4)
H12 H 0.432589 0.393793 1.064587
H13 H 0.523850 0.449184 1.050955
C14 C 0.6501(11) 0.3870(6) 1.1272(5)
H14 H 0.641353 0.407247 1.181286
H15 H 0.638260 0.346417 1.137764
C15 C 0.7902(9) 0.3970(4) 1.1024(6)
H16 H 0.864113 0.382125 1.147342
H17 H 0.805671 0.437860 1.097701
C16 C 0.8057(11) 0.3689(6) 1.0160(7)
H18 H 0.901965 0.376196 1.000229
H19 H 0.793148 0.327811 1.020506
C17 C 0.1394(3) 0.27084(15) 0.5907(2)
C18 C 0.1566(4) 0.23072(17) 0.6580(3)
C19 C 0.0515(5) 0.2212(2) 0.7132(3)
H20 H 0.064740 0.193844 0.757370
C20 C -0.0722(5) 0.2539(2) 0.6998(3)
C21 C -0.0975(4) 0.2937(2) 0.6352(3)
H21 H -0.183252 0.314841 0.627638
C22 C 0.0093(4) 0.30169(19) 0.5809(3)
H22 H -0.006667 0.328702 0.536289
C23 C 0.4501(4) 0.35141(14) 0.4907(2)
C24 C 0.5347(4) 0.30801(16) 0.4635(3)
H23 H 0.508364 0.270083 0.470679
C25 C 0.6588(4) 0.32049(17) 0.4255(3)
H24 H 0.714996 0.290659 0.408172
C26 C 0.7007(4) 0.37630(16) 0.4129(2)
C27 C 0.6148(5) 0.41979(18) 0.4392(3)
H25 H 0.639988 0.457743 0.431024
C28 C 0.4922(5) 0.40726(17) 0.4772(3)
H26 H 0.436024 0.437139 0.494457
C29 C 0.8355(4) 0.38830(17) 0.3754(2)
H27 H 0.892925 0.356661 0.366878
C30 C 0.8856(4) 0.43800(18) 0.3522(3)
H28 H 0.830151 0.470609 0.357990
C31 C 1.0238(4) 0.44410(16) 0.3180(2)
C32 C 1.1658(5) 0.5158(2) 0.2465(4)
C33 C 1.1207(8) 0.5749(3) 0.2152(6)
H29 H 1.023812 0.573675 0.184012
H30 H 1.186804 0.588767 0.176977
H31 H 1.122718 0.600065 0.264695
C34 C 1.1806(12) 0.4794(4) 0.1678(7)
H32 H 1.087852 0.476611 0.131808
H33 H 1.213121 0.441856 0.186698
H34 H 1.250177 0.496406 0.134671
C35 C 1.2957(8) 0.5143(6) 0.3130(8)
H35 H 1.368492 0.539694 0.295990
H36 H 1.333736 0.476058 0.317828
H37 H 1.269692 0.526175 0.368591
N1 N 0.4589(4) 0.40024(16) 0.8956(2)
N2 N 0.3597(5) 0.4428(2) 0.9037(3)
O1 O 0.2053(3) 0.38292(11) 0.50425(17)
H38 H 0.207193 0.387254 0.451537
O2 O 0.6933(6) 0.3927(3) 0.9486(3)
O3 O 1.1154(3) 0.40697(13) 0.3216(2)
O4 O 1.0351(3) 0.49529(13) 0.2835(2)
F1 F -0.1746(4) 0.2449(2) 0.7535(3)
Cl1 Cl 0.31256(12) 0.18897(6) 0.67880(9)
loop_
_geom_bond_atom_site_label_1
_geom_bond_atom_site_label_2
_geom_bond_site_symmetry_1
_geom_bond_site_symmetry_2
C1 C2 1_555 1_555
C2 H1 1_555 1_555
C3 C2 1_555 1_555
H2 C3 1_555 1_555
H3 C3 1_555 1_555
C4 C3 1_555 1_555
H4 C4 1_555 1_555
H5 C4 1_555 1_555
H6 C4 1_555 1_555
C5 C1 1_555 1_555
C6 C5 1_555 1_555
H7 C6 1_555 1_555
C7 C6 1_555 1_555
H8 C7 1_555 1_555
C8 C7 1_555 1_555
C9 H9 1_555 1_555
C10 C8 1_555 1_555
C11 C5 1_555 1_555
H10 C11 1_555 1_555
C12 H11 1_555 1_555
C13 C12 1_555 1_555
H12 C13 1_555 1_555
H13 C13 1_555 1_555
C14 C13 1_555 1_555
H14 C14 1_555 1_555
H15 C14 1_555 1_555
C15 C14 1_555 1_555
H16 C15 1_555 1_555
H17 C15 1_555 1_555
C16 C15 1_555 1_555
H18 C16 1_555 1_555
H19 C16 1_555 1_555
C17 C2 1_555 1_555
C18 C17 1_555 1_555
C19 C18 1_555 1_555
H20 C19 1_555 1_555
C20 C19 1_555 1_555
C21 C20 1_555 1_555
H21 C21 1_555 1_555
C22 C17 1_555 1_555
H22 C22 1_555 1_555
C23 C1 1_555 1_555
C24 C23 1_555 1_555
H23 C24 1_555 1_555
C25 C24 1_555 1_555
H24 C25 1_555 1_555
C26 C25 1_555 1_555
C27 C26 1_555 1_555
H25 C27 1_555 1_555
C28 C23 1_555 1_555
H26 C28 1_555 1_555
C29 C26 1_555 1_555
H27 C29 1_555 1_555
C30 C29 1_555 1_555
H28 C30 1_555 1_555
C31 C30 1_555 1_555
C32 C33 1_555 1_555
C33 H29 1_555 1_555
H30 C33 1_555 1_555
H31 C33 1_555 1_555
C34 C32 1_555 1_555
H32 C34 1_555 1_555
H33 C34 1_555 1_555
H34 C34 1_555 1_555
C35 C32 1_555 1_555
H35 C35 1_555 1_555
H36 C35 1_555 1_555
H37 C35 1_555 1_555
N1 C8 1_555 1_555
N2 C9 1_555 1_555
O1 C1 1_555 1_555
H38 O1 1_555 1_555
O2 C12 1_555 1_555
O3 C31 1_555 1_555
O4 C31 1_555 1_555
F1 C20 1_555 1_555
Cl1 C18 1_555 1_555
C9 C10 1_555 1_555
C10 C11 1_555 1_555
C12 N1 1_555 1_555
C16 O2 1_555 1_555
C21 C22 1_555 1_555
C27 C28 1_555 1_555
C32 O4 1_555 1_555
N1 N2 1_555 1_555

#END
