
#######################################################################
#
#                 Cambridge Crystallographic Data Centre
#                                CCDC 
#
#######################################################################
#
# If this CIF has been generated from an entry in the Cambridge 
# Structural Database, then it will include bibliographic, chemical, 
# crystal, experimental, refinement or atomic coordinate data resulting 
# from the CCDC's data processing and validation procedures.
#
#######################################################################

data_HESKEW
_chemical_formula_moiety         'C18 H16 F1 N3 O7 S1,C2 H3 N1'
_chemical_name_systematic        
'N-(4-Ethyl-7-fluoro-3-oxo-3,4-dihydro-2H-benzo(b)(1,4)oxazin-6-yl)-4-(methylsulfonyl)-2-nitrobenzamide acetonitrile solvate'
_symmetry_cell_setting           triclinic
_symmetry_space_group_name_H-M   'P -1'
_symmetry_Int_Tables_number      2
_space_group_name_Hall           '-P 1'
loop_
_symmetry_equiv_pos_site_id
_symmetry_equiv_pos_as_xyz
1 x,y,z
2 -x,-y,-z
_cell_length_a                   9.069(4)
_cell_length_b                   9.722(5)
_cell_length_c                   11.943(6)
_cell_angle_alpha                92.371(14)
_cell_angle_beta                 97.075(8)
_cell_angle_gamma                91.242(12)
_cell_volume                     1043.71
_exptl_crystal_colour            yellow
_exptl_crystal_description       block
_cell_formula_units_Z            2
loop_
_atom_site_label
_atom_site_type_symbol
_atom_site_fract_x
_atom_site_fract_y
_atom_site_fract_z
S1 S 0.39294(5) 1.27626(4) 1.07663(4)
F1 F 0.40770(11) 0.45641(10) 0.78300(9)
N1 N -0.16900(16) 0.33780(14) 0.59034(12)
N2 N 0.20293(17) 0.64622(14) 0.81687(13)
H1 H 0.290(2) 0.6508(19) 0.8426(16)
N3 N 0.09209(16) 0.82077(14) 1.08431(12)
O1 O -0.31641(14) 0.21916(13) 0.44752(10)
O2 O 0.05666(14) 0.16063(11) 0.55825(10)
O3 O -0.01802(13) 0.75623(12) 0.81303(10)
O4 O 0.08404(15) 0.69728(12) 1.05554(10)
O5 O 0.03971(16) 0.87061(13) 1.16599(11)
O6 O 0.52427(13) 1.30854(12) 1.02470(10)
O7 O 0.40978(15) 1.26006(12) 1.19667(10)
C1 C 0.0904(2) 0.28171(16) 0.62182(14)
C2 C 0.2348(2) 0.30746(17) 0.67166(14)
H2 H 0.3105 0.2436 0.6621
C3 C 0.26563(19) 0.42779(17) 0.73529(14)
C4 C 0.15880(19) 0.52430(16) 0.75179(14)
C5 C 0.01263(18) 0.49448(16) 0.70323(14)
H3 H -0.0636 0.5571 0.7147
C6 C -0.02120(19) 0.37337(17) 0.63829(14)
C7 C -0.1931(2) 0.24653(17) 0.49981(14)
C8 C -0.0558(2) 0.18017(17) 0.46479(14)
H4 H -0.0845 0.0897 0.4263
H5 H -0.0137 0.2385 0.4099
C9 C -0.29576(19) 0.40921(17) 0.63017(15)
H6 H -0.2743 0.4285 0.7127
H7 H -0.3850 0.3475 0.6163
C10 C -0.3293(2) 0.54350(18) 0.57291(16)
H8 H -0.2427 0.6065 0.5885
H9 H -0.4150 0.5855 0.6020
H10 H -0.3518 0.5252 0.4912
C11 C 0.11570(18) 0.75055(16) 0.84290(14)
C12 C 0.19678(18) 0.87269(16) 0.90732(14)
C13 C 0.28459(18) 0.95837(17) 0.85045(14)
H11 H 0.3035 0.9326 0.7761
C14 C 0.34492(19) 1.08186(17) 0.90215(14)
H12 H 0.4065 1.1391 0.8638
C15 C 0.31437(18) 1.12037(16) 1.00979(14)
C16 C 0.22804(18) 1.03650(16) 1.06871(13)
H13 H 0.2077 1.0631 1.1426
C17 C 0.17269(18) 0.91328(16) 1.01689(13)
C18 C 0.2616(2) 1.40202(17) 1.04207(15)
H14 H 0.1742 1.3854 1.0810
H15 H 0.2318 1.3977 0.9603
H16 H 0.3052 1.4933 1.0657
N4 N 0.4486(2) -0.11034(18) 0.29656(15)
C19 C 0.3339(2) 0.0863(2) 0.40623(17)
H17 H 0.3032 0.0515 0.4759
H18 H 0.2472 0.1208 0.3596
H19 H 0.4079 0.1612 0.4251
C20 C 0.3979(2) -0.02400(19) 0.34436(15)
loop_
_geom_bond_atom_site_label_1
_geom_bond_atom_site_label_2
_geom_bond_site_symmetry_1
_geom_bond_site_symmetry_2
S1 O6 1_555 1_555
F1 C3 1_555 1_555
N1 C6 1_555 1_555
N2 H1 1_555 1_555
N3 O4 1_555 1_555
N4 C20 1_555 1_555
O1 C7 1_555 1_555
O2 C1 1_555 1_555
O3 C11 1_555 1_555
O5 N3 1_555 1_555
O7 S1 1_555 1_555
C1 C2 1_555 1_555
C2 H2 1_555 1_555
C3 C2 1_555 1_555
C4 N2 1_555 1_555
C5 C4 1_555 1_555
H3 C5 1_555 1_555
C6 C1 1_555 1_555
C7 N1 1_555 1_555
C8 O2 1_555 1_555
H4 C8 1_555 1_555
H5 C8 1_555 1_555
C9 N1 1_555 1_555
H6 C9 1_555 1_555
H7 C9 1_555 1_555
C10 C9 1_555 1_555
H8 C10 1_555 1_555
H9 C10 1_555 1_555
H10 C10 1_555 1_555
C11 N2 1_555 1_555
C12 C11 1_555 1_555
C13 C12 1_555 1_555
H11 C13 1_555 1_555
C14 C13 1_555 1_555
H12 C14 1_555 1_555
C15 S1 1_555 1_555
C16 C15 1_555 1_555
H13 C16 1_555 1_555
C17 N3 1_555 1_555
C18 S1 1_555 1_555
H14 C18 1_555 1_555
H15 C18 1_555 1_555
H16 C18 1_555 1_555
C19 H17 1_555 1_555
H18 C19 1_555 1_555
H19 C19 1_555 1_555
C20 C19 1_555 1_555
C3 C4 1_555 1_555
C5 C6 1_555 1_555
C7 C8 1_555 1_555
C12 C17 1_555 1_555
C14 C15 1_555 1_555
C16 C17 1_555 1_555

#END
