
#######################################################################
#
#                 Cambridge Crystallographic Data Centre
#                                CCDC 
#
#######################################################################
#
# If this CIF has been generated from an entry in the Cambridge 
# Structural Database, then it will include bibliographic, chemical, 
# crystal, experimental, refinement or atomic coordinate data resulting 
# from the CCDC's data processing and validation procedures.
#
#######################################################################

data_HESSOO
_chemical_formula_moiety         'C8 H5 Cl3 O1'
_chemical_name_systematic        'Chloromethyl 2,4-dichlorophenyl ketone'
_symmetry_cell_setting           monoclinic
_symmetry_space_group_name_H-M   'P 21/n'
_symmetry_Int_Tables_number      14
_space_group_name_Hall           '-P 2yn'
loop_
_symmetry_equiv_pos_site_id
_symmetry_equiv_pos_as_xyz
1 x,y,z
2 1/2-x,1/2+y,1/2-z
3 -x,-y,-z
4 1/2+x,1/2-y,1/2+z
_cell_length_a                   4.6665(5)
_cell_length_b                   10.5576(11)
_cell_length_c                   17.9978(18)
_cell_angle_alpha                90
_cell_angle_beta                 92.299(2)
_cell_angle_gamma                90
_cell_volume                     885.985
_exptl_crystal_colour            colorless
_exptl_crystal_description       block
_cell_formula_units_Z            4
_exptl_crystal_recrystallization_method benzene/toluene
loop_
_atom_site_label
_atom_site_type_symbol
_atom_site_fract_x
_atom_site_fract_y
_atom_site_fract_z
Cl1 Cl 1.2174(2) 0.85232(10) 0.00834(5)
Cl2 Cl 0.6176(3) 0.46122(8) 0.10169(6)
Cl3 Cl 0.1063(2) 0.65621(10) 0.35376(6)
O1 O 0.2971(8) 0.5397(3) 0.22393(17)
C1 C 0.9783(7) 0.7925(3) 0.07060(17)
C2 C 0.8933(7) 0.6690(3) 0.06405(19)
H1 H 0.9602 0.6187 0.0260
C3 C 0.7073(7) 0.6195(3) 0.11425(18)
C4 C 0.6023(7) 0.6927(3) 0.17168(16)
C5 C 0.6939(7) 0.8184(3) 0.17520(18)
H2 H 0.6263 0.8703 0.2124
C6 C 0.8806(7) 0.8686(3) 0.12572(18)
H3 H 0.9392 0.9526 0.1297
C7 C 0.4039(7) 0.6433(3) 0.22746(18)
C8 C 0.3382(7) 0.7288(3) 0.29125(19)
H4 H 0.2498 0.8060 0.2720
H5 H 0.5158 0.7518 0.3177
loop_
_geom_bond_atom_site_label_1
_geom_bond_atom_site_label_2
_geom_bond_site_symmetry_1
_geom_bond_site_symmetry_2
Cl1 C1 1_555 1_555
Cl2 C3 1_555 1_555
Cl3 C8 1_555 1_555
O1 C7 1_555 1_555
C1 C2 1_555 1_555
C2 H1 1_555 1_555
C3 C2 1_555 1_555
C4 C3 1_555 1_555
C5 C4 1_555 1_555
H2 C5 1_555 1_555
C6 C1 1_555 1_555
H3 C6 1_555 1_555
C7 C4 1_555 1_555
C8 C7 1_555 1_555
H4 C8 1_555 1_555
H5 C8 1_555 1_555
C5 C6 1_555 1_555

#END
