
#######################################################################
#
#                 Cambridge Crystallographic Data Centre
#                                CCDC 
#
#######################################################################
#
# If this CIF has been generated from an entry in the Cambridge 
# Structural Database, then it will include bibliographic, chemical, 
# crystal, experimental, refinement or atomic coordinate data resulting 
# from the CCDC's data processing and validation procedures.
#
#######################################################################

data_HESYAI
_chemical_formula_moiety         'C25 H28 B2 N2 O2'
_chemical_name_systematic        
2-[1-phenyl-2-(4,4,5,5-tetramethyl-1,3,2-dioxaborolan-2-yl)prop-2-en-1-yl]-2,3-dihydro-1H-naphtho[1,8-de][1,3,2]diazaborinine
_symmetry_cell_setting           monoclinic
_symmetry_space_group_name_H-M   'P 21/n'
_symmetry_Int_Tables_number      14
_space_group_name_Hall           '-P 2yn'
loop_
_symmetry_equiv_pos_site_id
_symmetry_equiv_pos_as_xyz
1 x,y,z
2 1/2-x,1/2+y,1/2-z
3 -x,-y,-z
4 1/2+x,1/2-y,1/2+z
_cell_length_a                   11.8051(6)
_cell_length_b                   10.8518(4)
_cell_length_c                   17.6377(5)
_cell_angle_alpha                90
_cell_angle_beta                 98.007(4)
_cell_angle_gamma                90
_cell_volume                     2237.48
_exptl_crystal_colour            colorless
_exptl_crystal_description       rod
_cell_formula_units_Z            4
_exptl_crystal_recrystallization_method hexane
loop_
_atom_site_label
_atom_site_type_symbol
_atom_site_fract_x
_atom_site_fract_y
_atom_site_fract_z
O1 O 0.44039(8) 0.28721(9) 0.40928(5)
O2 O 0.38160(9) 0.08654(9) 0.41190(5)
N1 N 0.64809(10) 0.22078(10) 0.57256(6)
H1 H 0.6124 0.1494 0.5700
N2 N 0.64393(10) 0.44212(10) 0.58139(6)
H2 H 0.6055 0.5111 0.5842
C1 C 0.76678(12) 0.22153(12) 0.57295(7)
C2 C 0.82873(13) 0.11474(14) 0.56797(8)
H3 H 0.7907 0.0374 0.5636
C3 C 0.94802(13) 0.12020(15) 0.56931(8)
H4 H 0.9896 0.0461 0.5655
C4 C 1.00541(13) 0.22996(14) 0.57604(8)
H5 H 1.0861 0.2313 0.5771
C5 C 0.94492(12) 0.34169(14) 0.58145(8)
C6 C 1.00025(13) 0.45749(14) 0.58774(8)
H6 H 1.0812 0.4615 0.5913
C7 C 0.93844(13) 0.56331(14) 0.58876(8)
H7 H 0.9769 0.6404 0.5916
C8 C 0.81892(12) 0.56055(13) 0.58569(8)
H8 H 0.7772 0.6354 0.5859
C9 C 0.76219(12) 0.44932(12) 0.58238(7)
C10 C 0.82397(12) 0.33739(12) 0.57922(7)
C11 C 0.44736(11) 0.33042(12) 0.57382(7)
H9 H 0.4192 0.3980 0.5374
C12 C 0.41010(12) 0.36671(12) 0.64942(7)
C13 C 0.46282(13) 0.31953(13) 0.71881(8)
H10 H 0.5235 0.2620 0.7192
C14 C 0.42782(14) 0.35551(14) 0.78757(8)
H11 H 0.4648 0.3227 0.8345
C15 C 0.33946(14) 0.43882(15) 0.78778(9)
H12 H 0.3157 0.4635 0.8348
C16 C 0.28579(14) 0.48607(16) 0.71946(9)
H13 H 0.2246 0.5429 0.7193
C17 C 0.32120(13) 0.45055(14) 0.65092(9)
H14 H 0.2841 0.4840 0.6042
C18 C 0.39262(12) 0.21333(13) 0.53821(7)
C19 C 0.33326(13) 0.13433(14) 0.57479(8)
H15 H 0.3229 0.1495 0.6264
H16 H 0.3012 0.0627 0.5493
C20 C 0.45776(12) 0.23477(13) 0.33500(7)
C21 C 0.38035(13) 0.11797(13) 0.33041(7)
C22 C 0.42237(14) 0.33052(13) 0.27363(8)
H17 H 0.3446 0.3589 0.2775
H18 H 0.4244 0.2940 0.2230
H19 H 0.4752 0.4005 0.2807
C23 C 0.58414(14) 0.20567(15) 0.34056(9)
H20 H 0.6287 0.2805 0.3544
H21 H 0.6010 0.1751 0.2911
H22 H 0.6045 0.1426 0.3798
C24 C 0.42565(15) 0.00895(13) 0.29047(8)
H23 H 0.4994 -0.0167 0.3185
H24 H 0.4357 0.0323 0.2382
H25 H 0.3712 -0.0595 0.2888
C25 C 0.25642(13) 0.14229(14) 0.29740(8)
H26 H 0.2100 0.0697 0.3053
H27 H 0.2514 0.1593 0.2425
H28 H 0.2279 0.2135 0.3232
B1 B 0.58263(13) 0.32961(14) 0.57613(8)
B2 B 0.40594(13) 0.19310(14) 0.45249(8)
loop_
_geom_bond_atom_site_label_1
_geom_bond_atom_site_label_2
_geom_bond_site_symmetry_1
_geom_bond_site_symmetry_2
O1 C20 1_555 1_555
O2 C21 1_555 1_555
N1 H1 1_555 1_555
N2 H2 1_555 1_555
C1 N1 1_555 1_555
C2 C1 1_555 1_555
H3 C2 1_555 1_555
C3 C2 1_555 1_555
H4 C3 1_555 1_555
C4 C3 1_555 1_555
H5 C4 1_555 1_555
C5 C4 1_555 1_555
C6 C5 1_555 1_555
H6 C6 1_555 1_555
C7 C6 1_555 1_555
H7 C7 1_555 1_555
C8 C7 1_555 1_555
H8 C8 1_555 1_555
C9 N2 1_555 1_555
C10 C1 1_555 1_555
C11 H9 1_555 1_555
C12 C11 1_555 1_555
C13 C12 1_555 1_555
H10 C13 1_555 1_555
C14 C13 1_555 1_555
H11 C14 1_555 1_555
C15 C14 1_555 1_555
H12 C15 1_555 1_555
C16 C15 1_555 1_555
H13 C16 1_555 1_555
C17 C12 1_555 1_555
H14 C17 1_555 1_555
C18 C11 1_555 1_555
C19 C18 1_555 1_555
H15 C19 1_555 1_555
H16 C19 1_555 1_555
C20 C21 1_555 1_555
C21 C24 1_555 1_555
C22 C20 1_555 1_555
H17 C22 1_555 1_555
H18 C22 1_555 1_555
H19 C22 1_555 1_555
C23 C20 1_555 1_555
H20 C23 1_555 1_555
H21 C23 1_555 1_555
H22 C23 1_555 1_555
C24 H23 1_555 1_555
H24 C24 1_555 1_555
H25 C24 1_555 1_555
C25 C21 1_555 1_555
H26 C25 1_555 1_555
H27 C25 1_555 1_555
H28 C25 1_555 1_555
B1 N1 1_555 1_555
B2 O1 1_555 1_555
O2 B2 1_555 1_555
N2 B1 1_555 1_555
C5 C10 1_555 1_555
C8 C9 1_555 1_555
C9 C10 1_555 1_555
C11 B1 1_555 1_555
C16 C17 1_555 1_555
C18 B2 1_555 1_555

#END
