
#######################################################################
#
#                 Cambridge Crystallographic Data Centre
#                                CCDC 
#
#######################################################################
#
# If this CIF has been generated from an entry in the Cambridge 
# Structural Database, then it will include bibliographic, chemical, 
# crystal, experimental, refinement or atomic coordinate data resulting 
# from the CCDC's data processing and validation procedures.
#
#######################################################################

data_HETYAJ
_chemical_formula_moiety         'C29 H26 N2 O6'
_chemical_name_systematic        
'ethyl {4-hydroxy-1-(4-methoxybenzene-1-carbonyl)-3-[(4-methoxyphenyl)diazenyl]naphthalen-2-yl}acetate'
_symmetry_cell_setting           triclinic
_symmetry_space_group_name_H-M   'P -1'
_symmetry_Int_Tables_number      2
_space_group_name_Hall           '-P 1'
loop_
_symmetry_equiv_pos_site_id
_symmetry_equiv_pos_as_xyz
1 x,y,z
2 -x,-y,-z
_cell_length_a                   7.6510(6)
_cell_length_b                   10.0418(9)
_cell_length_c                   17.1347(16)
_cell_angle_alpha                106.237(2)
_cell_angle_beta                 99.595(2)
_cell_angle_gamma                95.2460(10)
_cell_volume                     1232.95
_exptl_crystal_colour            red
_exptl_crystal_description       block
_cell_formula_units_Z            2
loop_
_atom_site_label
_atom_site_type_symbol
_atom_site_fract_x
_atom_site_fract_y
_atom_site_fract_z
N1 N 0.2780(6) 0.4400(5) 0.0564(3)
N2 N 0.2475(6) 0.4762(5) -0.0112(3)
O1 O 0.0396(6) 0.2431(4) 0.1332(2)
O2 O 0.2556(6) 0.1190(4) 0.0923(3)
O3 O 0.1688(5) 0.7121(4) 0.0665(2)
H1 H 0.1797 0.6498 0.0256
O4 O 0.4566(5) 0.5643(4) 0.3983(2)
O5 O -0.2433(6) 0.2290(4) 0.4438(2)
O6 O 0.3520(6) 0.1071(4) -0.3039(2)
C1 C 0.2110(9) 0.2223(6) 0.1329(3)
C2 C 0.3416(8) 0.3473(6) 0.1918(3)
H2 H 0.4541 0.3473 0.1728
H3 H 0.3643 0.3329 0.2461
C3 C 0.2038(7) 0.6703(6) 0.1325(3)
C4 C 0.2549(7) 0.5353(6) 0.1271(3)
C5 C 0.2862(7) 0.4923(5) 0.2024(3)
C6 C 0.2676(7) 0.5795(6) 0.2762(3)
C7 C 0.2240(7) 0.7179(6) 0.2835(3)
C8 C 0.1927(7) 0.7639(6) 0.2112(3)
C9 C 0.1499(8) 0.9000(6) 0.2186(4)
H4 H 0.1315 0.9300 0.1716
C10 C 0.1347(8) 0.9886(6) 0.2926(4)
H5 H 0.1054 1.0776 0.2959
C11 C 0.1640(8) 0.9439(6) 0.3644(3)
H6 H 0.1548 1.0039 0.4154
C12 C 0.2064(7) 0.8112(6) 0.3588(3)
H7 H 0.2238 0.7829 0.4064
C13 C 0.3056(8) 0.5326(6) 0.3547(3)
C14 C 0.1593(7) 0.4502(5) 0.3750(3)
C15 C 0.1913(7) 0.4030(6) 0.4456(3)
H8 H 0.3054 0.4221 0.4788
C16 C 0.0546(8) 0.3294(6) 0.4653(3)
H9 H 0.0767 0.2988 0.5120
C17 C -0.1179(8) 0.2993(6) 0.4163(3)
C18 C -0.1508(8) 0.3436(6) 0.3462(3)
H10 H -0.2651 0.3239 0.3132
C19 C -0.0134(8) 0.4169(6) 0.3258(3)
H11 H -0.0359 0.4450 0.2782
C20 C -0.4265(8) 0.2105(6) 0.4022(4)
H12 H -0.4581 0.2993 0.3987
H13 H -0.5024 0.1733 0.4328
H14 H -0.4418 0.1466 0.3474
C21 C 0.2768(7) 0.3803(6) -0.0842(3)
C22 C 0.2399(7) 0.4158(6) -0.1579(3)
H15 H 0.1986 0.5004 -0.1569
C23 C 0.2633(7) 0.3278(6) -0.2322(3)
H16 H 0.2374 0.3535 -0.2805
C24 C 0.3252(7) 0.2018(6) -0.2350(3)
C25 C 0.3674(8) 0.1669(6) -0.1606(4)
H17 H 0.4135 0.0842 -0.1610
C26 C 0.3408(8) 0.2548(6) -0.0870(3)
H18 H 0.3663 0.2294 -0.0386
C27 C 0.3070(8) 0.1354(6) -0.3823(3)
H19 H 0.1823 0.1449 -0.3932
H20 H 0.3306 0.0593 -0.4257
H21 H 0.3781 0.2207 -0.3801
C28 C -0.0934(8) 0.1273(6) 0.0782(4)
H22 H -0.0724 0.0407 0.0903
H23 H -0.0856 0.1161 0.0208
C29 C -0.2743(8) 0.1605(6) 0.0920(4)
H24 H -0.2815 0.1695 0.1486
H25 H -0.3645 0.0864 0.0557
H26 H -0.2931 0.2470 0.0806
loop_
_geom_bond_atom_site_label_1
_geom_bond_atom_site_label_2
_geom_bond_site_symmetry_1
_geom_bond_site_symmetry_2
N1 N2 1_555 1_555
N2 C21 1_555 1_555
O1 C1 1_555 1_555
O2 C1 1_555 1_555
O3 H1 1_555 1_555
O4 C13 1_555 1_555
O5 C17 1_555 1_555
O6 C24 1_555 1_555
C1 C2 1_555 1_555
C2 H2 1_555 1_555
H3 C2 1_555 1_555
C3 O3 1_555 1_555
C4 N1 1_555 1_555
C5 C2 1_555 1_555
C6 C5 1_555 1_555
C7 C6 1_555 1_555
C8 C3 1_555 1_555
C9 C8 1_555 1_555
H4 C9 1_555 1_555
C10 C9 1_555 1_555
H5 C10 1_555 1_555
C11 C10 1_555 1_555
H6 C11 1_555 1_555
C12 C7 1_555 1_555
H7 C12 1_555 1_555
C13 C6 1_555 1_555
C14 C13 1_555 1_555
C15 C14 1_555 1_555
H8 C15 1_555 1_555
C16 C15 1_555 1_555
H9 C16 1_555 1_555
C17 C16 1_555 1_555
C18 C17 1_555 1_555
H10 C18 1_555 1_555
C19 C14 1_555 1_555
H11 C19 1_555 1_555
C20 O5 1_555 1_555
H12 C20 1_555 1_555
H13 C20 1_555 1_555
H14 C20 1_555 1_555
C21 C22 1_555 1_555
C22 H15 1_555 1_555
C23 C22 1_555 1_555
H16 C23 1_555 1_555
C24 C23 1_555 1_555
C25 C24 1_555 1_555
H17 C25 1_555 1_555
C26 C21 1_555 1_555
H18 C26 1_555 1_555
C27 O6 1_555 1_555
H19 C27 1_555 1_555
H20 C27 1_555 1_555
H21 C27 1_555 1_555
C28 O1 1_555 1_555
H22 C28 1_555 1_555
H23 C28 1_555 1_555
C29 C28 1_555 1_555
H24 C29 1_555 1_555
H25 C29 1_555 1_555
H26 C29 1_555 1_555
C3 C4 1_555 1_555
C4 C5 1_555 1_555
C7 C8 1_555 1_555
C11 C12 1_555 1_555
C18 C19 1_555 1_555
C25 C26 1_555 1_555

#END
