
#######################################################################
#
#                 Cambridge Crystallographic Data Centre
#                                CCDC 
#
#######################################################################
#
# If this CIF has been generated from an entry in the Cambridge 
# Structural Database, then it will include bibliographic, chemical, 
# crystal, experimental, refinement or atomic coordinate data resulting 
# from the CCDC's data processing and validation procedures.
#
#######################################################################

data_HEVRAD01
_chemical_formula_moiety         'C72 H84 N12,2(C8 H10)'
_chemical_name_systematic        
'3,5,9,11,15,17,21,23,26,28,31,33-dodecaaza-1,7,13,19(1,3,5)-tetrabenzena-4,10,16,22,27,32(1,3,5)-hexacyclohexano-bicyclo[17.11.5]tetratriacontaphane-2,5,8,11,14,17,20,23,25,28,30,33-dodecaene bis(p-xylene) clathrate'
_symmetry_cell_setting           monoclinic
_symmetry_space_group_name_H-M   'I 2'
_symmetry_Int_Tables_number      5
_space_group_name_Hall           'I 2y'
loop_
_symmetry_equiv_pos_site_id
_symmetry_equiv_pos_as_xyz
1 x,y,z
2 -x,y,-z
3 1/2+x,1/2+y,1/2+z
4 1/2-x,1/2+y,1/2-z
_cell_length_a                   17.7010(9)
_cell_length_b                   18.0260(9)
_cell_length_c                   24.9002(18)
_cell_angle_alpha                90
_cell_angle_beta                 90.2930(10)
_cell_angle_gamma                90
_cell_volume                     7945.01
_exptl_crystal_colour            colorless
_exptl_crystal_description       'trigonal plate'
_cell_formula_units_Z            4
loop_
_atom_site_label
_atom_site_type_symbol
_atom_site_fract_x
_atom_site_fract_y
_atom_site_fract_z
N1 N 0.75350(16) 0.21345(19) 1.09073(12)
N2 N 0.77235(15) 0.37480(17) 1.09783(10)
N3 N 0.58388(17) 0.02237(18) 0.91039(13)
N4 N 0.47243(18) 0.11181(17) 0.85316(13)
N5 N 0.9506(2) 0.04395(18) 0.90980(13)
N6 N 1.00475(16) 0.10925(18) 0.80958(12)
N7 N 0.93455(14) 0.55194(16) 0.90499(11)
N8 N 1.00961(16) 0.46016(15) 0.82338(12)
N9 N 0.57219(14) 0.55074(15) 0.92563(10)
N10 N 0.48682(15) 0.47371(17) 0.84034(11)
N11 N 0.63147(19) 0.27681(17) 0.65530(11)
N12 N 0.79521(18) 0.30115(17) 0.64540(11)
C1 C 0.7841(2) 0.1339(2) 1.01642(14)
C2 C 0.7092(2) 0.1165(2) 1.00435(14)
H1 H 0.6712 0.1351 1.0262
C3 C 0.6893(2) 0.0724(2) 0.96073(16)
C4 C 0.7479(2) 0.0447(2) 0.92882(16)
H2 H 0.7363 0.0148 0.8994
C5 C 0.8225(2) 0.0609(2) 0.94035(17)
C6 C 0.8401(2) 0.1052(2) 0.98351(15)
H3 H 0.8905 0.1161 0.9908
C7 C 0.8029(2) 0.1804(2) 1.06281(14)
H4 H 0.8535 0.1860 1.0723
C8 C 0.6106(2) 0.0562(2) 0.95042(16)
H5 H 0.5761 0.0724 0.9760
C9 C 0.8822(2) 0.0294(2) 0.90554(16)
H6 H 0.8674 -0.0035 0.8787
C10 C 0.74519(18) 0.45644(19) 1.02385(12)
C11 C 0.81982(17) 0.46723(19) 1.00794(13)
H7 H 0.8590 0.4462 1.0278
C12 C 0.83597(17) 0.50908(18) 0.96284(12)
C13 C 0.77728(18) 0.54183(18) 0.93376(13)
H8 H 0.7882 0.5706 0.9038
C14 C 0.70310(17) 0.53197(18) 0.94912(13)
C15 C 0.68804(18) 0.4897(2) 0.99427(13)
H9 H 0.6382 0.4835 1.0050
C16 C 0.72551(19) 0.4079(2) 1.06945(13)
H10 H 0.6746 0.4017 1.0774
C17 C 0.91485(18) 0.5165(2) 0.94539(13)
H11 H 0.9522 0.4933 0.9657
C18 C 0.64123(18) 0.56226(19) 0.91537(14)
H12 H 0.6535 0.5908 0.8855
C19 C 0.5102(2) 0.2145(2) 0.79697(13)
C20 C 0.48696(18) 0.2724(2) 0.82995(13)
H13 H 0.4626 0.2617 0.8620
C21 C 0.49922(18) 0.3450(2) 0.81609(13)
C22 C 0.5356(2) 0.3616(2) 0.76798(13)
H14 H 0.5435 0.4108 0.7583
C23 C 0.5600(2) 0.3054(2) 0.73456(12)
C24 C 0.5463(2) 0.2325(2) 0.74910(14)
H15 H 0.5617 0.1945 0.7263
C25 C 0.5014(2) 0.1365(2) 0.81029(16)
H16 H 0.5183 0.1019 0.7854
C26 C 0.47437(17) 0.4064(2) 0.85114(13)
H17 H 0.4485 0.3950 0.8825
C27 C 0.6014(2) 0.3238(2) 0.68560(13)
H18 H 0.6058 0.3736 0.6764
C28 C 0.97555(19) 0.23443(19) 0.78261(14)
C29 C 0.92394(19) 0.2188(2) 0.74192(13)
H19 H 0.9141 0.1696 0.7329
C30 C 0.88693(19) 0.27486(19) 0.71455(12)
C31 C 0.90088(19) 0.3484(2) 0.72826(13)
H20 H 0.8753 0.3861 0.7103
C32 C 0.95244(18) 0.36645(19) 0.76835(13)
C33 C 0.98997(18) 0.3086(2) 0.79503(14)
H21 H 1.0253 0.3200 0.8216
C34 C 1.01423(19) 0.1775(2) 0.81414(15)
H22 H 1.0489 0.1935 0.8398
C35 C 0.8324(2) 0.2551(2) 0.67260(13)
H23 H 0.8247 0.2049 0.6656
C36 C 0.96830(18) 0.44298(19) 0.78378(13)
H24 H 0.9470 0.4810 0.7635
C37 C 0.77827(18) 0.2523(2) 1.13907(13)
H25 H 0.8334 0.2569 1.1381
C38 C 0.74477(17) 0.3286(2) 1.14201(12)
H26 H 0.6897 0.3247 1.1394
C39 C 0.7657(2) 0.3665(3) 1.19507(14)
H27 H 0.8196 0.3758 1.1960
H28 H 0.7399 0.4139 1.1973
C40 C 0.7440(3) 0.3187(3) 1.24330(15)
H29 H 0.7605 0.3429 1.2761
H30 H 0.6895 0.3136 1.2446
C41 C 0.7794(3) 0.2439(3) 1.23961(16)
H31 H 0.7634 0.2138 1.2698
H32 H 0.8339 0.2488 1.2414
C42 C 0.7571(2) 0.2059(3) 1.18753(16)
H33 H 0.7821 0.1581 1.1854
H34 H 0.7030 0.1972 1.1873
C43 C 0.5035(2) 0.0066(2) 0.91008(15)
H35 H 0.4801 0.0333 0.9400
C44 C 0.4664(2) 0.0311(2) 0.85887(15)
H36 H 0.4921 0.0074 0.8286
C45 C 0.3826(3) 0.0095(3) 0.8574(2)
H37 H 0.3557 0.0373 0.8846
H38 H 0.3613 0.0225 0.8227
C46 C 0.3717(3) -0.0731(3) 0.8672(2)
H39 H 0.3181 -0.0843 0.8685
H40 H 0.3936 -0.1009 0.8378
C47 C 0.4089(3) -0.0959(3) 0.9196(2)
H41 H 0.4028 -0.1489 0.9248
H42 H 0.3847 -0.0705 0.9492
C48 C 0.4925(3) -0.0767(3) 0.9190(2)
H43 H 0.5172 -0.1040 0.8905
H44 H 0.5155 -0.0911 0.9528
C49 C 1.0023(2) 0.0063(2) 0.87293(15)
H45 H 0.9725 -0.0220 0.8467
C50 C 1.05069(18) 0.0608(2) 0.84345(14)
H46 H 1.0782 0.0912 0.8697
C51 C 1.1073(2) 0.0203(2) 0.80841(17)
H47 H 1.0804 -0.0082 0.7814
H48 H 1.1386 0.0563 0.7900
C52 C 1.1569(3) -0.0308(3) 0.8410(2)
H49 H 1.1920 -0.0562 0.8175
H50 H 1.1859 -0.0022 0.8669
C53 C 1.1092(3) -0.0863(3) 0.8696(2)
H51 H 1.1411 -0.1179 0.8916
H52 H 1.0834 -0.1174 0.8435
C54 C 1.0503(3) -0.0472(3) 0.90547(19)
H53 H 1.0180 -0.0841 0.9220
H54 H 1.0761 -0.0203 0.9339
C55 C 1.01485(16) 0.55632(18) 0.89205(12)
H55 H 1.0431 0.5212 0.9145
C56 C 1.02684(18) 0.53771(19) 0.83349(13)
H56 H 0.9945 0.5692 0.8110
C57 C 1.1096(2) 0.5504(2) 0.81909(16)
H57 H 1.1410 0.5168 0.8399
H58 H 1.1169 0.5390 0.7814
C58 C 1.1344(2) 0.6283(3) 0.82956(18)
H59 H 1.1044 0.6623 0.8081
H60 H 1.1869 0.6341 0.8196
C59 C 1.1248(2) 0.6460(3) 0.8885(2)
H61 H 1.1399 0.6969 0.8954
H62 H 1.1566 0.6136 0.9099
C60 C 1.0418(2) 0.6351(2) 0.90396(17)
H63 H 1.0358 0.6454 0.9419
H64 H 1.0107 0.6701 0.8841
C61 C 0.51506(17) 0.58594(18) 0.89140(13)
H65 H 0.5391 0.6049 0.8588
C62 C 0.45562(16) 0.53028(18) 0.87621(12)
H66 H 0.4367 0.5063 0.9088
C63 C 0.3897(2) 0.5676(2) 0.84679(16)
H67 H 0.4070 0.5860 0.8124
H68 H 0.3505 0.5311 0.8400
C64 C 0.3572(2) 0.6309(3) 0.8787(2)
H69 H 0.3171 0.6544 0.8581
H70 H 0.3355 0.6119 0.9117
C65 C 0.4157(3) 0.6865(2) 0.8918(2)
H71 H 0.3940 0.7255 0.9136
H72 H 0.4345 0.7086 0.8590
C66 C 0.4806(2) 0.6499(2) 0.92222(19)
H73 H 0.5194 0.6867 0.9294
H74 H 0.4623 0.6319 0.9565
C67 C 0.6678(2) 0.3031(2) 0.60600(12)
H75 H 0.6705 0.3574 0.6070
C68 C 0.7466(2) 0.27243(19) 0.60222(12)
H76 H 0.7446 0.2182 0.6046
C69 C 0.7831(3) 0.2947(3) 0.54844(14)
H77 H 0.7899 0.3480 0.5475
H78 H 0.8325 0.2717 0.5457
C70 C 0.7345(3) 0.2709(3) 0.50091(14)
H79 H 0.7318 0.2172 0.4996
H80 H 0.7574 0.2880 0.4678
C71 C 0.6548(3) 0.3031(3) 0.50573(14)
H81 H 0.6570 0.3568 0.5041
H82 H 0.6237 0.2858 0.4761
C72 C 0.6207(2) 0.2796(3) 0.55756(14)
H83 H 0.6154 0.2260 0.5577
H84 H 0.5706 0.3009 0.5605
C73 C 0.7345(4) 0.4898(4) 0.7818(3)
C74 C 0.6838(5) 0.5144(5) 0.7455(4)
H85 H 0.6404 0.4868 0.7388
C75 C 0.6949(5) 0.5780(5) 0.7190(3)
H86 H 0.6593 0.5933 0.6938
C76 C 0.7553(4) 0.6196(4) 0.7276(3)
C77 C 0.8014(4) 0.5958(6) 0.7688(4)
H87 H 0.8415 0.6259 0.7794
C78 C 0.7910(4) 0.5307(6) 0.7946(3)
H88 H 0.8246 0.5157 0.8213
C79 C 0.7253(6) 0.4173(6) 0.8121(4)
H89 H 0.7670 0.4110 0.8365
H90 H 0.7242 0.3769 0.7871
H91 H 0.6789 0.4183 0.8320
C80 C 0.7682(5) 0.6902(6) 0.6935(4)
H92 H 0.8131 0.7150 0.7056
H93 H 0.7257 0.7229 0.6972
H94 H 0.7737 0.6766 0.6564
C81 C 0.9435(3) 0.3063(3) 0.9611(2)
C82 C 0.9257(3) 0.3089(3) 1.0126(3)
H95 H 0.8752 0.3098 1.0229
C83 C 1.0176(4) 0.3101(4) 0.9487(2)
H96 H 1.0312 0.3137 0.9127
C84 C 0.8818(4) 0.3065(6) 0.9186(3)
H97 H 0.8333 0.3039 0.9356
H98 H 0.8881 0.2645 0.8954
H99 H 0.8849 0.3513 0.8979
C81A C 1.0565(3) 0.3063(3) 1.0389(2)
C82A C 1.0743(3) 0.3089(3) 0.9874(3)
H95A H 1.1248 0.3098 0.9771
C83A C 0.9824(4) 0.3101(4) 1.0513(2)
H96A H 0.9688 0.3137 1.0873
C84A C 1.1182(4) 0.3065(6) 1.0814(3)
H97A H 1.1667 0.3039 1.0644
H98A H 1.1119 0.2645 1.1046
H99A H 1.1151 0.3513 1.1021
C85? C 0.5664(8) 0.3092(9) 0.9636(6)
C86? C 0.5223(4) 0.3694(5) 0.9927(4)
H100? H 0.5378 0.4184 0.9891
C87? C 0.4580(7) 0.3540(8) 1.0254(5)
H101? H 0.4347 0.3901 1.0462
C88? C 0.4358(10) 0.2891(11) 1.0239(7)
C89? C 0.4693(7) 0.2383(8) 0.9924(6)
H102? H 0.4441 0.1932 0.9893
C90? C 0.5294(8) 0.2432(8) 0.9667(6)
H103? H 0.5490 0.2016 0.9497
C91? C 0.6332(9) 0.3268(10) 0.9293(6)
H104? H 0.6284 0.3764 0.9155
H105? H 0.6354 0.2924 0.8999
H106? H 0.6785 0.3231 0.9504
C92? C 0.3641(9) 0.2789(11) 1.0554(6)
H107? H 0.3626 0.3144 1.0841
H108? H 0.3626 0.2296 1.0699
H109? H 0.3213 0.2864 1.0321
loop_
_geom_bond_atom_site_label_1
_geom_bond_atom_site_label_2
_geom_bond_site_symmetry_1
_geom_bond_site_symmetry_2
N1 C7 1_555 1_555
N2 C16 1_555 1_555
N3 C8 1_555 1_555
N4 C25 1_555 1_555
N5 C9 1_555 1_555
N6 C34 1_555 1_555
N7 C17 1_555 1_555
N8 C36 1_555 1_555
N9 C18 1_555 1_555
N10 C26 1_555 1_555
N11 C27 1_555 1_555
N12 C35 1_555 1_555
C1 C2 1_555 1_555
C2 H1 1_555 1_555
C3 C2 1_555 1_555
C4 C3 1_555 1_555
H2 C4 1_555 1_555
C5 C4 1_555 1_555
C6 C1 1_555 1_555
H3 C6 1_555 1_555
C7 C1 1_555 1_555
H4 C7 1_555 1_555
C8 C3 1_555 1_555
H5 C8 1_555 1_555
C9 C5 1_555 1_555
H6 C9 1_555 1_555
C10 C11 1_555 1_555
C11 H7 1_555 1_555
C12 C11 1_555 1_555
C13 C12 1_555 1_555
H8 C13 1_555 1_555
C14 C13 1_555 1_555
C15 C10 1_555 1_555
H9 C15 1_555 1_555
C16 C10 1_555 1_555
H10 C16 1_555 1_555
C17 C12 1_555 1_555
H11 C17 1_555 1_555
C18 C14 1_555 1_555
H12 C18 1_555 1_555
C19 C20 1_555 1_555
C20 H13 1_555 1_555
C21 C20 1_555 1_555
C22 C21 1_555 1_555
H14 C22 1_555 1_555
C23 C22 1_555 1_555
C24 C19 1_555 1_555
H15 C24 1_555 1_555
C25 C19 1_555 1_555
H16 C25 1_555 1_555
C26 C21 1_555 1_555
H17 C26 1_555 1_555
C27 C23 1_555 1_555
H18 C27 1_555 1_555
C28 C29 1_555 1_555
C29 H19 1_555 1_555
C30 C29 1_555 1_555
C31 C30 1_555 1_555
H20 C31 1_555 1_555
C32 C31 1_555 1_555
C33 C28 1_555 1_555
H21 C33 1_555 1_555
C34 C28 1_555 1_555
H22 C34 1_555 1_555
C35 C30 1_555 1_555
H23 C35 1_555 1_555
C36 C32 1_555 1_555
H24 C36 1_555 1_555
C37 N1 1_555 1_555
H25 C37 1_555 1_555
C38 N2 1_555 1_555
H26 C38 1_555 1_555
C39 C38 1_555 1_555
H27 C39 1_555 1_555
H28 C39 1_555 1_555
C40 C39 1_555 1_555
H29 C40 1_555 1_555
H30 C40 1_555 1_555
C41 C40 1_555 1_555
H31 C41 1_555 1_555
H32 C41 1_555 1_555
C42 C37 1_555 1_555
H33 C42 1_555 1_555
H34 C42 1_555 1_555
C43 N3 1_555 1_555
H35 C43 1_555 1_555
C44 N4 1_555 1_555
H36 C44 1_555 1_555
C45 C44 1_555 1_555
H37 C45 1_555 1_555
H38 C45 1_555 1_555
C46 C45 1_555 1_555
H39 C46 1_555 1_555
H40 C46 1_555 1_555
C47 C46 1_555 1_555
H41 C47 1_555 1_555
H42 C47 1_555 1_555
C48 C43 1_555 1_555
H43 C48 1_555 1_555
H44 C48 1_555 1_555
C49 N5 1_555 1_555
H45 C49 1_555 1_555
C50 N6 1_555 1_555
H46 C50 1_555 1_555
C51 C50 1_555 1_555
H47 C51 1_555 1_555
H48 C51 1_555 1_555
C52 C51 1_555 1_555
H49 C52 1_555 1_555
H50 C52 1_555 1_555
C53 C52 1_555 1_555
H51 C53 1_555 1_555
H52 C53 1_555 1_555
C54 C49 1_555 1_555
H53 C54 1_555 1_555
H54 C54 1_555 1_555
C55 N7 1_555 1_555
H55 C55 1_555 1_555
C56 N8 1_555 1_555
H56 C56 1_555 1_555
C57 C56 1_555 1_555
H57 C57 1_555 1_555
H58 C57 1_555 1_555
C58 C57 1_555 1_555
H59 C58 1_555 1_555
H60 C58 1_555 1_555
C59 C58 1_555 1_555
H61 C59 1_555 1_555
H62 C59 1_555 1_555
C60 C55 1_555 1_555
H63 C60 1_555 1_555
H64 C60 1_555 1_555
C61 N9 1_555 1_555
H65 C61 1_555 1_555
C62 N10 1_555 1_555
H66 C62 1_555 1_555
C63 C62 1_555 1_555
H67 C63 1_555 1_555
H68 C63 1_555 1_555
C64 C63 1_555 1_555
H69 C64 1_555 1_555
H70 C64 1_555 1_555
C65 C64 1_555 1_555
H71 C65 1_555 1_555
H72 C65 1_555 1_555
C66 C61 1_555 1_555
H73 C66 1_555 1_555
H74 C66 1_555 1_555
C67 N11 1_555 1_555
H75 C67 1_555 1_555
C68 N12 1_555 1_555
H76 C68 1_555 1_555
C69 C68 1_555 1_555
H77 C69 1_555 1_555
H78 C69 1_555 1_555
C70 C69 1_555 1_555
H79 C70 1_555 1_555
H80 C70 1_555 1_555
C71 C70 1_555 1_555
H81 C71 1_555 1_555
H82 C71 1_555 1_555
C72 C67 1_555 1_555
H83 C72 1_555 1_555
H84 C72 1_555 1_555
C73 C74 1_555 1_555
C74 H85 1_555 1_555
C75 C74 1_555 1_555
H86 C75 1_555 1_555
C76 C75 1_555 1_555
C77 C76 1_555 1_555
H87 C77 1_555 1_555
C78 C73 1_555 1_555
H88 C78 1_555 1_555
C79 C73 1_555 1_555
H89 C79 1_555 1_555
H90 C79 1_555 1_555
H91 C79 1_555 1_555
C80 C76 1_555 1_555
H92 C80 1_555 1_555
H93 C80 1_555 1_555
H94 C80 1_555 1_555
C81 C82 1_555 1_555
C82 H95 1_555 1_555
C83 C81 1_555 1_555
H96 C83 1_555 1_555
C84 C81 1_555 1_555
H97 C84 1_555 1_555
H98 C84 1_555 1_555
H99 C84 1_555 1_555
C81A C82A 1_555 1_555
C82A C83 1_555 1_555
H95A C82A 1_555 1_555
C83A C82 1_555 1_555
H96A C83A 1_555 1_555
C84A C81A 1_555 1_555
H97A C84A 1_555 1_555
H98A C84A 1_555 1_555
H99A C84A 1_555 1_555
C5 C6 1_555 1_555
C14 C15 1_555 1_555
C23 C24 1_555 1_555
C32 C33 1_555 1_555
C37 C38 1_555 1_555
C41 C42 1_555 1_555
C43 C44 1_555 1_555
C47 C48 1_555 1_555
C49 C50 1_555 1_555
C53 C54 1_555 1_555
C55 C56 1_555 1_555
C59 C60 1_555 1_555
C61 C62 1_555 1_555
C65 C66 1_555 1_555
C67 C68 1_555 1_555
C71 C72 1_555 1_555
C77 C78 1_555 1_555
C81A C83A 1_555 1_555

#END
