
#######################################################################
#
#                 Cambridge Crystallographic Data Centre
#                                CCDC 
#
#######################################################################
#
# If this CIF has been generated from an entry in the Cambridge 
# Structural Database, then it will include bibliographic, chemical, 
# crystal, experimental, refinement or atomic coordinate data resulting 
# from the CCDC's data processing and validation procedures.
#
#######################################################################

data_HEVVAF02
_chemical_formula_moiety         'C23 H17 N1'
_chemical_name_systematic        2,4,6-triphenylpyridine
_symmetry_cell_setting           orthorhombic
_symmetry_space_group_name_H-M   'P n a 21'
_symmetry_Int_Tables_number      33
_space_group_name_Hall           'P 2c -2n'
loop_
_symmetry_equiv_pos_site_id
_symmetry_equiv_pos_as_xyz
1 x,y,z
2 -x,-y,1/2+z
3 1/2-x,1/2+y,1/2+z
4 1/2+x,1/2-y,z
_cell_length_a                   7.521(4)
_cell_length_b                   19.628(9)
_cell_length_c                   11.313(5)
_cell_angle_alpha                90
_cell_angle_beta                 90
_cell_angle_gamma                90
_cell_volume                     1670.05
_exptl_crystal_colour            colorless
_exptl_crystal_description       block
_cell_formula_units_Z            4
loop_
_atom_site_label
_atom_site_type_symbol
_atom_site_fract_x
_atom_site_fract_y
_atom_site_fract_z
N1 N 0.2512(2) 0.38865(8) 0.21421(14)
C1 C 0.4103(3) 0.38308(9) -0.02295(18)
H1 H 0.4529 0.4179 0.0252
C2 C 0.4464(3) 0.38429(11) -0.1428(2)
H2 H 0.5139 0.4196 -0.1744
C3 C 0.3833(3) 0.33369(11) -0.2155(2)
H3 H 0.4091 0.3343 -0.2959
C4 C 0.2819(3) 0.28225(12) -0.1684(2)
H4 H 0.2356 0.2488 -0.2177
C5 C 0.2477(3) 0.27967(10) -0.04800(17)
H5 H 0.1821 0.2437 -0.0169
C6 C 0.3110(2) 0.33055(8) 0.02655(17)
C7 C 0.2768(2) 0.32877(8) 0.15601(16)
C8 C 0.2762(2) 0.26692(8) 0.21625(16)
H6 H 0.2957 0.2265 0.1754
C9 C 0.2466(2) 0.26568(9) 0.33723(17)
C10 C 0.2446(2) 0.20017(9) 0.40366(17)
C11 C 0.1877(3) 0.14021(10) 0.3510(2)
H7 H 0.1499 0.1407 0.2727
C12 C 0.1866(3) 0.07941(10) 0.4136(2)
H8 H 0.1476 0.0397 0.3771
C13 C 0.2421(3) 0.07754(11) 0.5283(2)
H9 H 0.2415 0.0366 0.5698
C14 C 0.2986(4) 0.13600(12) 0.5822(2)
H10 H 0.3357 0.1348 0.6606
C15 C 0.3009(3) 0.19710(11) 0.52072(19)
H11 H 0.3405 0.2365 0.5581
C16 C 0.2204(2) 0.32642(8) 0.39470(16)
H12 H 0.2012 0.3268 0.4759
C17 C 0.2223(2) 0.38710(8) 0.33270(16)
C18 C 0.2366(3) 0.46074(11) 0.51348(18)
H13 H 0.2944 0.4256 0.5531
C19 C 0.1987(3) 0.52110(13) 0.5725(2)
H14 H 0.2331 0.5264 0.6509
C20 C 0.1108(3) 0.57297(11) 0.5156(2)
H15 H 0.0834 0.6129 0.5559
C21 C 0.0636(3) 0.56564(10) 0.3996(2)
H16 H 0.0048 0.6008 0.3608
C22 C 0.1030(2) 0.50610(9) 0.33939(19)
H17 H 0.0717 0.5020 0.2602
C23 C 0.1888(2) 0.45232(8) 0.39577(16)
loop_
_geom_bond_atom_site_label_1
_geom_bond_atom_site_label_2
_geom_bond_site_symmetry_1
_geom_bond_site_symmetry_2
N1 C7 1_555 1_555
C1 H1 1_555 1_555
C2 C1 1_555 1_555
H2 C2 1_555 1_555
C3 C2 1_555 1_555
H3 C3 1_555 1_555
C4 C3 1_555 1_555
H4 C4 1_555 1_555
C5 C4 1_555 1_555
H5 C5 1_555 1_555
C6 C1 1_555 1_555
C7 C6 1_555 1_555
C8 C7 1_555 1_555
H6 C8 1_555 1_555
C9 C8 1_555 1_555
C10 C9 1_555 1_555
C11 C10 1_555 1_555
H7 C11 1_555 1_555
C12 C11 1_555 1_555
H8 C12 1_555 1_555
C13 C12 1_555 1_555
H9 C13 1_555 1_555
C14 C13 1_555 1_555
H10 C14 1_555 1_555
C15 C10 1_555 1_555
H11 C15 1_555 1_555
C16 C9 1_555 1_555
H12 C16 1_555 1_555
C17 N1 1_555 1_555
C18 H13 1_555 1_555
C19 C18 1_555 1_555
H14 C19 1_555 1_555
C20 C19 1_555 1_555
H15 C20 1_555 1_555
C21 C20 1_555 1_555
H16 C21 1_555 1_555
C22 C21 1_555 1_555
H17 C22 1_555 1_555
C23 C17 1_555 1_555
C5 C6 1_555 1_555
C14 C15 1_555 1_555
C16 C17 1_555 1_555
C18 C23 1_555 1_555
C22 C23 1_555 1_555

#END
