
#######################################################################
#
#                 Cambridge Crystallographic Data Centre
#                                CCDC 
#
#######################################################################
#
# If this CIF has been generated from an entry in the Cambridge 
# Structural Database, then it will include bibliographic, chemical, 
# crystal, experimental, refinement or atomic coordinate data resulting 
# from the CCDC's data processing and validation procedures.
#
#######################################################################

data_HEVWIO
_chemical_formula_moiety         'C10 H11 Cl1 O4 S1'
_chemical_name_systematic        '3-Chloro-2-oxopropyl p-toluenesulfonate'
_symmetry_cell_setting           monoclinic
_symmetry_space_group_name_H-M   'P 21'
_symmetry_Int_Tables_number      4
_space_group_name_Hall           'P 2yb'
loop_
_symmetry_equiv_pos_site_id
_symmetry_equiv_pos_as_xyz
1 x,y,z
2 -x,1/2+y,-z
_cell_length_a                   10.888(8)
_cell_length_b                   5.095(3)
_cell_length_c                   10.923(8)
_cell_angle_alpha                90
_cell_angle_beta                 111.16(5)
_cell_angle_gamma                90
_cell_volume                     565.091
_exptl_crystal_colour            Colorless
_chemical_melting_point          75.4deg.C
_cell_formula_units_Z            2
loop_
_atom_site_label
_atom_site_type_symbol
_atom_site_fract_x
_atom_site_fract_y
_atom_site_fract_z
Cl1 Cl 0.17189(11) 0.2010(3) 0.04095(10)
S1 S 0.21188(10) 0.9788(2) 0.46500(9)
O1 O 0.1747(3) 0.8044(7) 0.3369(3)
O2 O 0.2973(3) 1.1728(7) 0.4447(3)
O3 O 0.0927(3) 1.0568(7) 0.4827(3)
O4 O -0.0181(3) 0.2578(8) 0.1743(3)
C1 C 0.3006(4) 0.7649(10) 0.5913(4)
C2 C 0.4303(4) 0.7003(11) 0.6077(4)
H1 H 0.4720(4) 0.7783(11) 0.5538(4)
C3 C 0.4966(4) 0.5219(9) 0.7032(4)
H2 H 0.5846(4) 0.4762(9) 0.7143(4)
C4 C 0.4373(4) 0.4061(10) 0.7843(4)
C5 C 0.3094(4) 0.4787(13) 0.7670(4)
H3 H 0.2687(4) 0.4050(13) 0.8226(4)
C6 C 0.2398(4) 0.6541(10) 0.6716(4)
H4 H 0.1517(4) 0.6992(10) 0.6606(4)
C7 C 0.5105(5) 0.2046(12) 0.8853(4)
H5 H 0.6029(10) 0.2574(37) 0.9266(25)
H6 H 0.5055(29) 0.0337(19) 0.8427(7)
H7 H 0.4705(23) 0.1917(51) 0.9524(19)
C8 C 0.0625(4) 0.6268(11) 0.3077(4)
H8 H -0.0205(4) 0.7286(11) 0.2739(4)
H9 H 0.0658(4) 0.5363(11) 0.3890(4)
C9 C 0.0649(4) 0.4267(10) 0.2068(4)
C10 C 0.1729(4) 0.4601(12) 0.1503(4)
H10 H 0.2595(4) 0.4648(12) 0.2230(4)
H11 H 0.1606(4) 0.6295(12) 0.1030(4)
loop_
_geom_bond_atom_site_label_1
_geom_bond_atom_site_label_2
_geom_bond_site_symmetry_1
_geom_bond_site_symmetry_2
Cl1 C10 1_555 1_555
S1 O1 1_555 1_555
O1 C8 1_555 1_555
O2 S1 1_555 1_555
O3 S1 1_555 1_555
O4 C9 1_555 1_555
C1 S1 1_555 1_555
C2 C1 1_555 1_555
H1 C2 1_555 1_555
C3 C2 1_555 1_555
H2 C3 1_555 1_555
C4 C3 1_555 1_555
C5 C4 1_555 1_555
H3 C5 1_555 1_555
C6 C1 1_555 1_555
H4 C6 1_555 1_555
C7 C4 1_555 1_555
H5 C7 1_555 1_555
H6 C7 1_555 1_555
H7 C7 1_555 1_555
C8 H8 1_555 1_555
H9 C8 1_555 1_555
C9 C8 1_555 1_555
C10 C9 1_555 1_555
H10 C10 1_555 1_555
H11 C10 1_555 1_555
C5 C6 1_555 1_555

#END
