
#######################################################################
#
#                 Cambridge Crystallographic Data Centre
#                                CCDC 
#
#######################################################################
#
# If this CIF has been generated from an entry in the Cambridge 
# Structural Database, then it will include bibliographic, chemical, 
# crystal, experimental, refinement or atomic coordinate data resulting 
# from the CCDC's data processing and validation procedures.
#
#######################################################################

data_HEVWUA
_chemical_formula_moiety         'C23 H25 N3 O2 S1'
_chemical_name_systematic        
"2-(2-(2'-Hydroxy-1'-oxo-1',2',3',4'-tetrahydronaphthyl)ethyl)-1,2,3,4-tetrahydronaphthylone thiosemicarbazone"
_symmetry_cell_setting           monoclinic
_symmetry_space_group_name_H-M   'P 21/a'
_symmetry_Int_Tables_number      14
_space_group_name_Hall           '-P 2yab'
loop_
_symmetry_equiv_pos_site_id
_symmetry_equiv_pos_as_xyz
1 x,y,z
2 1/2-x,1/2+y,-z
3 -x,-y,-z
4 1/2+x,1/2-y,z
_cell_length_a                   10.492(4)
_cell_length_b                   13.048(3)
_cell_length_c                   15.595(2)
_cell_angle_alpha                90
_cell_angle_beta                 99.54(3)
_cell_angle_gamma                90
_cell_volume                     2105.42
_exptl_crystal_colour            'light pink'
_cell_formula_units_Z            4
loop_
_atom_site_label
_atom_site_type_symbol
_atom_site_fract_x
_atom_site_fract_y
_atom_site_fract_z
S1 S 0.68174(8) 0.33120(6) 0.18805(6)
O1 O 0.49635(19) 1.05963(12) 0.22812(14)
O2 O 0.31184(18) 0.92564(13) 0.24066(14)
N1 N 0.44190(18) 0.46001(13) 0.31941(13)
N2 N 0.53219(20) 0.44679(13) 0.26566(13)
N3 N 0.47678(21) 0.27807(15) 0.25633(16)
C1 C 0.43259(21) 0.54882(16) 0.35344(15)
C2 C 0.50910(21) 0.64341(16) 0.34007(15)
C3 C 0.56525(25) 0.68571(19) 0.42932(17)
C4 C 0.4616(3) 0.71364(22) 0.48066(17)
C5 C 0.3603(3) 0.63216(22) 0.47997(17)
C6 C 0.2832(3) 0.6326(3) 0.54366(19)
C7 C 0.1873(4) 0.5620(4) 0.54282(25)
C8 C 0.1637(3) 0.4898(3) 0.4771(3)
C9 C 0.2405(3) 0.48698(21) 0.41329(20)
C10 C 0.34212(22) 0.55685(18) 0.41560(17)
C11 C 0.42363(23) 0.71836(16) 0.28104(15)
C12 C 0.49563(23) 0.81525(16) 0.26348(15)
C13 C 0.4162(3) 0.89097(17) 0.20093(17)
C14 C 0.5048(3) 0.97997(18) 0.18899(17)
C15 C 0.6003(3) 0.96463(18) 0.13057(16)
C16 C 0.7045(3) 1.03202(20) 0.13529(18)
C17 C 0.7960(3) 1.0178(3) 0.08299(21)
C18 C 0.7825(4) 0.9388(3) 0.02472(22)
C19 C 0.6797(4) 0.87350(24) 0.01779(19)
C20 C 0.5868(3) 0.88345(19) 0.07161(18)
C21 C 0.4756(4) 0.80915(21) 0.06671(18)
C22 C 0.3674(3) 0.84660(21) 0.11149(19)
C23 C 0.55598(25) 0.35098(17) 0.23899(16)
H1 H 0.267 0.966 0.205
H2 H 0.579 0.507 0.246
H3 H 0.504 0.211 0.234
H4 H 0.401 0.288 0.287
H5 H 0.583 0.623 0.310
H6 H 0.617 0.748 0.422
H7 H 0.623 0.633 0.462
H8 H 0.503 0.726 0.542
H9 H 0.419 0.778 0.456
H10 H 0.298 0.685 0.591
H11 H 0.133 0.562 0.590
H12 H 0.091 0.440 0.475
H13 H 0.224 0.435 0.366
H14 H 0.348 0.738 0.309
H15 H 0.392 0.684 0.224
H16 H 0.524 0.851 0.320
H17 H 0.574 0.795 0.238
H18 H 0.713 1.091 0.177
H19 H 0.872 1.065 0.087
H20 H 0.849 0.929 -0.014
H21 H 0.671 0.818 -0.027
H22 H 0.440 0.797 0.004
H23 H 0.509 0.743 0.094
H24 H 0.318 0.901 0.075
H25 H 0.308 0.788 0.118
loop_
_geom_bond_atom_site_label_1
_geom_bond_atom_site_label_2
_geom_bond_site_symmetry_1
_geom_bond_site_symmetry_2
S1 C23 1_555 1_555
O1 C14 1_555 1_555
O2 C13 1_555 1_555
N1 N2 1_555 1_555
N2 C23 1_555 1_555
N3 C23 1_555 1_555
C1 N1 1_555 1_555
C2 C1 1_555 1_555
C3 C2 1_555 1_555
C4 C3 1_555 1_555
C5 C4 1_555 1_555
C6 C5 1_555 1_555
C7 C6 1_555 1_555
C8 C7 1_555 1_555
C9 C8 1_555 1_555
C10 C1 1_555 1_555
C11 C2 1_555 1_555
C12 C11 1_555 1_555
C13 C12 1_555 1_555
C14 C13 1_555 1_555
C15 C14 1_555 1_555
C16 C15 1_555 1_555
C17 C16 1_555 1_555
C18 C17 1_555 1_555
C19 C18 1_555 1_555
C20 C15 1_555 1_555
C21 C20 1_555 1_555
C22 C13 1_555 1_555
H1 O2 1_555 1_555
H2 N2 1_555 1_555
H3 N3 1_555 1_555
H4 N3 1_555 1_555
H5 C2 1_555 1_555
H6 C3 1_555 1_555
H7 C3 1_555 1_555
H8 C4 1_555 1_555
H9 C4 1_555 1_555
H10 C6 1_555 1_555
H11 C7 1_555 1_555
H12 C8 1_555 1_555
H13 C9 1_555 1_555
H14 C11 1_555 1_555
H15 C11 1_555 1_555
H16 C12 1_555 1_555
H17 C12 1_555 1_555
H18 C16 1_555 1_555
H19 C17 1_555 1_555
H20 C18 1_555 1_555
H21 C19 1_555 1_555
H22 C21 1_555 1_555
H23 C21 1_555 1_555
H24 C22 1_555 1_555
H25 C22 1_555 1_555
C5 C10 1_555 1_555
C9 C10 1_555 1_555
C19 C20 1_555 1_555
C21 C22 1_555 1_555

#END
