
#######################################################################
#
#                 Cambridge Crystallographic Data Centre
#                                CCDC 
#
#######################################################################
#
# If this CIF has been generated from an entry in the Cambridge 
# Structural Database, then it will include bibliographic, chemical, 
# crystal, experimental, refinement or atomic coordinate data resulting 
# from the CCDC's data processing and validation procedures.
#
#######################################################################

data_HEWBEQ
_chemical_formula_moiety         'C24 H30 O5'
_chemical_name_systematic        
3,3,6,6-Tetramethyl-4a-hydroxy-9-(2-methoxyphenyl)-1,8-dioxo-2,3,4,4a,5,6,7,8,9,9a-decahydro-1H-xanthene
_symmetry_cell_setting           monoclinic
_symmetry_space_group_name_H-M   'C 2/c'
_symmetry_Int_Tables_number      15
_space_group_name_Hall           '-C 2yn'
loop_
_symmetry_equiv_pos_site_id
_symmetry_equiv_pos_as_xyz
1 x,y,z
2 -x,y,1/2-z
3 1/2+x,1/2+y,z
4 1/2-x,1/2+y,1/2-z
5 -x,-y,-z
6 x,-y,1/2+z
7 1/2-x,1/2-y,-z
8 1/2+x,1/2-y,1/2+z
_cell_length_a                   33.942(6)
_cell_length_b                   7.273(1)
_cell_length_c                   22.667(4)
_cell_angle_alpha                90
_cell_angle_beta                 128.989(9)
_cell_angle_gamma                90
_cell_volume                     4349.26
_chemical_melting_point          184-186deg.C
_cell_formula_units_Z            8
loop_
_atom_site_label
_atom_site_type_symbol
_atom_site_fract_x
_atom_site_fract_y
_atom_site_fract_z
O1 O 0.18386(5) 0.1420(2) 0.06222(8)
O2 O 0.12245(5) 0.2244(2) 0.07195(8)
O3 O 0.12763(8) -0.2011(3) -0.0727(1)
O4 O 0.18443(6) -0.4588(2) 0.14246(8)
O5 O 0.02180(5) -0.2588(2) -0.04589(9)
C1 C 0.12979(8) 0.1695(3) 0.0206(1)
C2 C 0.10238(7) -0.0129(3) -0.0146(1)
C3 C 0.12132(7) -0.1671(3) 0.0433(1)
C4 C 0.17862(7) -0.1568(3) 0.1014(1)
C5 C 0.20469(8) -0.0134(3) 0.1044(1)
C6 C 0.26166(8) -0.0048(3) 0.1535(1)
C7 C 0.28640(8) -0.1938(4) 0.1765(1)
C8 C 0.26346(8) -0.3040(4) 0.2057(1)
C9 C 0.20614(8) -0.3165(3) 0.1482(1)
C10 C 0.10673(9) -0.0621(3) -0.0758(1)
C11 C 0.0855(10) 0.0784(4) -0.1370(1)
C12 C 0.11171(9) 0.2661(3) -0.1056(1)
C13 C 0.11368(8) 0.3181(3) -0.0379(1)
C14 C 0.09356(8) -0.1775(3) 0.0760(1)
C15 C 0.04204(8) -0.2248(3) 0.0275(1)
C16 C 0.01499(9) -0.2362(4) 0.0545(2)
C17 C 0.0396(1) -0.2076(4) 0.1304(2)
C18 C 0.0901(10) -0.1648(4) 0.1791(1)
C19 C 0.11667(8) -0.1496(3) 0.1515(1)
C20 C 0.2765(1) -0.2901(4) 0.1086(2)
C21 C 0.34369(9) -0.1728(4) 0.2402(2)
C22 C 0.1649(1) 0.2573(4) -0.0822(2)
C23 C 0.0807(1) 0.4121(4) -0.1676(1)
C24 C -0.03226(9) -0.2843(4) -0.1008(1)
loop_
_geom_bond_atom_site_label_1
_geom_bond_atom_site_label_2
_geom_bond_site_symmetry_1
_geom_bond_site_symmetry_2
O1 C1 1_555 1_555
O2 C1 1_555 1_555
O3 C10 1_555 1_555
O4 C9 1_555 1_555
O5 C15 1_555 1_555
C1 C2 1_555 1_555
C2 C3 1_555 1_555
C3 C4 1_555 1_555
C4 C5 1_555 1_555
C5 O1 1_555 1_555
C6 C5 1_555 1_555
C7 C6 1_555 1_555
C8 C7 1_555 1_555
C9 C4 1_555 1_555
C10 C2 1_555 1_555
C11 C10 1_555 1_555
C12 C11 1_555 1_555
C13 C1 1_555 1_555
C14 C3 1_555 1_555
C15 C14 1_555 1_555
C16 C15 1_555 1_555
C17 C16 1_555 1_555
C18 C17 1_555 1_555
C19 C14 1_555 1_555
C20 C7 1_555 1_555
C21 C7 1_555 1_555
C22 C12 1_555 1_555
C23 C12 1_555 1_555
C24 O5 1_555 1_555
C8 C9 1_555 1_555
C12 C13 1_555 1_555
C18 C19 1_555 1_555

#END
