
#######################################################################
#
#                 Cambridge Crystallographic Data Centre
#                                CCDC 
#
#######################################################################
#
# If this CIF has been generated from an entry in the Cambridge 
# Structural Database, then it will include bibliographic, chemical, 
# crystal, experimental, refinement or atomic coordinate data resulting 
# from the CCDC's data processing and validation procedures.
#
#######################################################################

data_HEWNEF
_chemical_formula_moiety         'C19 H11 F7 N2 O1'
_chemical_name_systematic        
N-[5-(1,1,1,2,3,3,3-heptafluoropropan-2-yl)quinolin-8-yl]benzamide
_symmetry_cell_setting           monoclinic
_symmetry_space_group_name_H-M   'C 2/c'
_symmetry_Int_Tables_number      15
_space_group_name_Hall           '-C 2yn'
loop_
_symmetry_equiv_pos_site_id
_symmetry_equiv_pos_as_xyz
1 x,y,z
2 -x,y,1/2-z
3 1/2+x,1/2+y,z
4 1/2-x,1/2+y,1/2-z
5 -x,-y,-z
6 x,-y,1/2+z
7 1/2-x,1/2-y,-z
8 1/2+x,1/2-y,1/2+z
_cell_length_a                   27.9942(10)
_cell_length_b                   6.9110(2)
_cell_length_c                   19.9643(6)
_cell_angle_alpha                90
_cell_angle_beta                 110.720(4)
_cell_angle_gamma                90
_cell_volume                     3612.63
_exptl_crystal_colour            colorless
_exptl_crystal_description       prism
_cell_formula_units_Z            8
loop_
_atom_site_label
_atom_site_type_symbol
_atom_site_fract_x
_atom_site_fract_y
_atom_site_fract_z
F1 F 0.4245(2) 0.5585(7) 0.5703(3)
F2 F 0.4702(5) 0.624(2) 0.6690(5)
F3 F 0.4518(5) 1.1479(9) 0.5568(6)
F4 F 0.41544(18) 1.0112(9) 0.6529(2)
F5 F 0.47702(14) 0.8427(10) 0.5441(3)
F6 F 0.38527(18) 0.6437(12) 0.6468(3)
F7 F 0.50122(18) 0.9824(8) 0.6468(3)
O1 O 0.25240(10) 0.8373(4) 0.26093(11)
N1 N 0.23132(9) 0.9663(3) 0.35109(11)
H1 H 0.2067 1.0205 0.3603
N2 N 0.22539(9) 1.0222(3) 0.47704(12)
C1 C 0.14865(16) 0.8543(7) 0.1700(2)
H2 H 0.1676 0.7532 0.1613
C2 C 0.1007(2) 0.8938(10) 0.1214(2)
H3 H 0.0873 0.8184 0.0804
C3 C 0.07282(17) 1.0415(10) 0.1331(3)
H4 H 0.0404 1.0672 0.1003
C4 C 0.09246(16) 1.1524(8) 0.1929(2)
H5 H 0.0735 1.2548 0.2006
C5 C 0.14034(14) 1.1140(6) 0.24209(19)
H6 H 0.1534 1.1905 0.2829
C6 C 0.16883(12) 0.9639(5) 0.23143(15)
C7 C 0.22139(12) 0.9168(4) 0.28143(14)
C8 C 0.27639(11) 0.9399(4) 0.40901(14)
C9 C 0.32226(12) 0.8865(5) 0.40511(16)
H7 H 0.3251 0.8625 0.3609
C10 C 0.36475(13) 0.8683(5) 0.46764(18)
H8 H 0.3957 0.8325 0.4636
C11 C 0.36354(13) 0.9000(5) 0.53473(17)
C12 C 0.31599(12) 0.9525(4) 0.54172(14)
C13 C 0.27268(11) 0.9732(4) 0.47793(14)
C14 C 0.30634(14) 0.9838(4) 0.60618(16)
H9 H 0.3329 0.9711 0.6500
C15 C 0.25936(15) 1.0316(5) 0.60462(16)
H10 H 0.2534 1.0518 0.6470
C16 C 0.21973(14) 1.0505(4) 0.53880(16)
H11 H 0.1876 1.0850 0.5387
C17 C 0.41298(16) 0.8764(7) 0.5991(2)
C18 C 0.4233(3) 0.6775(14) 0.6249(4)
C19 C 0.4625(2) 0.9674(13) 0.5828(4)
F8? F 0.4620(5) 0.6974(16) 0.5550(6)
F9? F 0.4619(12) 0.682(5) 0.6794(12)
F10? F 0.4559(13) 1.082(3) 0.5658(16)
F11? F 0.3985(4) 0.815(2) 0.6645(5)
F12? F 0.4795(4) 1.015(2) 0.6844(6)
F13? F 0.4025(5) 0.523(3) 0.5780(8)
F14? F 0.4099(4) 1.177(2) 0.6406(7)
C20? C 0.4390(6) 0.667(4) 0.6027(9)
C21? C 0.4417(5) 1.052(2) 0.6254(9)
loop_
_geom_bond_atom_site_label_1
_geom_bond_atom_site_label_2
_geom_bond_site_symmetry_1
_geom_bond_site_symmetry_2
F1 C18 1_555 1_555
F2 C18 1_555 1_555
F3 C19 1_555 1_555
F4 C17 1_555 1_555
F5 C19 1_555 1_555
F6 C18 1_555 1_555
F7 C19 1_555 1_555
O1 C7 1_555 1_555
N1 H1 1_555 1_555
N2 C13 1_555 1_555
C1 H2 1_555 1_555
C2 C1 1_555 1_555
H3 C2 1_555 1_555
C3 C2 1_555 1_555
H4 C3 1_555 1_555
C4 C3 1_555 1_555
H5 C4 1_555 1_555
C5 C4 1_555 1_555
H6 C5 1_555 1_555
C6 C1 1_555 1_555
C7 N1 1_555 1_555
C8 N1 1_555 1_555
C9 C8 1_555 1_555
H7 C9 1_555 1_555
C10 C9 1_555 1_555
H8 C10 1_555 1_555
C11 C10 1_555 1_555
C12 C11 1_555 1_555
C13 C8 1_555 1_555
C14 C12 1_555 1_555
H9 C14 1_555 1_555
C15 C14 1_555 1_555
H10 C15 1_555 1_555
C16 N2 1_555 1_555
H11 C16 1_555 1_555
C17 C11 1_555 1_555
C18 C17 1_555 1_555
C19 C17 1_555 1_555
C5 C6 1_555 1_555
C6 C7 1_555 1_555
C12 C13 1_555 1_555
C15 C16 1_555 1_555

#END
