
#######################################################################
#
#                 Cambridge Crystallographic Data Centre
#                                CCDC 
#
#######################################################################
#
# If this CIF has been generated from an entry in the Cambridge 
# Structural Database, then it will include bibliographic, chemical, 
# crystal, experimental, refinement or atomic coordinate data resulting 
# from the CCDC's data processing and validation procedures.
#
#######################################################################

data_HEXJEA
_chemical_formula_moiety         'C23 H21 Cl1 F1 N1 O1'
_chemical_name_systematic        
2-((4-chlorophenyl)amino)-3-(4-fluorophenyl)-1-phenylpentan-1-one
_symmetry_cell_setting           orthorhombic
_symmetry_space_group_name_H-M   'P 21 21 21'
_symmetry_Int_Tables_number      19
_space_group_name_Hall           'P 2ac 2ab'
loop_
_symmetry_equiv_pos_site_id
_symmetry_equiv_pos_as_xyz
1 x,y,z
2 1/2-x,-y,1/2+z
3 -x,1/2+y,1/2-z
4 1/2+x,1/2-y,-z
_cell_length_a                   9.682(2)
_cell_length_b                   19.389(3)
_cell_length_c                   21.673(4)
_cell_angle_alpha                90
_cell_angle_beta                 90
_cell_angle_gamma                90
_cell_volume                     4068.55
_cell_formula_units_Z            8
loop_
_atom_site_label
_atom_site_type_symbol
_atom_site_fract_x
_atom_site_fract_y
_atom_site_fract_z
Cl1 Cl 0.60272(11) 0.85264(5) 0.33725(4)
F1 F 0.3550(3) 0.40036(15) 0.73370(12)
O1 O 0.6165(2) 0.49748(11) 0.50199(10)
N1 N 0.5675(3) 0.63060(14) 0.52354(13)
C1 C 0.4928(3) 0.68398(16) 0.42898(15)
H1 H 0.4280 0.6490 0.4240
C2 C 0.5007(4) 0.73563(18) 0.38581(15)
H2 H 0.4418 0.7352 0.3519
C3 C 0.5946(4) 0.78778(17) 0.39237(15)
C4 C 0.6817(4) 0.78828(16) 0.44191(16)
H3 H 0.7461 0.8235 0.4464
C5 C 0.6738(4) 0.73651(17) 0.48512(15)
H4 H 0.7332 0.7373 0.5188
C6 C 0.5793(3) 0.68302(15) 0.47962(14)
C7 C 0.6899(3) 0.60078(15) 0.55180(13)
H5 H 0.7697 0.6274 0.5375
C8 C 0.6893(3) 0.60375(17) 0.62389(13)
H6 H 0.7837 0.5937 0.6375
C9 C 0.5970(3) 0.54955(18) 0.65263(14)
C10 C 0.4562(4) 0.5542(2) 0.65239(15)
H7 H 0.4145 0.5916 0.6329
C11 C 0.3754(4) 0.5056(3) 0.67993(18)
H8 H 0.2799 0.5106 0.6805
C12 C 0.4346(6) 0.4509(3) 0.70614(17)
C13 C 0.5736(5) 0.4412(2) 0.70754(17)
H9 H 0.6123 0.4023 0.7258
C14 C 0.6555(4) 0.4918(2) 0.68066(16)
H10 H 0.7511 0.4871 0.6814
C15 C 0.6547(4) 0.6764(2) 0.64678(16)
H11 H 0.7112 0.7094 0.6246
H12 H 0.5588 0.6863 0.6373
C16 C 0.6777(5) 0.6862(2) 0.71585(17)
H13 H 0.7727 0.6772 0.7256
H14 H 0.6196 0.6549 0.7383
H15 H 0.6552 0.7328 0.7271
C17 C 0.7088(3) 0.52676(17) 0.52958(13)
C18 C 0.8373(3) 0.48937(17) 0.54577(13)
C19 C 0.8338(4) 0.41819(19) 0.54740(16)
H16 H 0.7530 0.3953 0.5366
C20 C 0.9483(4) 0.38045(19) 0.56482(18)
H17 H 0.9442 0.3326 0.5665
C21 C 1.0673(4) 0.4141(2) 0.57943(16)
H18 H 1.1442 0.3889 0.5919
C22 C 1.0753(3) 0.4842(2) 0.57607(15)
H19 H 1.1579 0.5066 0.5849
C23 C 0.9595(3) 0.52196(17) 0.55933(13)
H20 H 0.9647 0.5698 0.5573
H21 H 0.511(2) 0.5991(10) 0.5113(11)
Cl2 Cl 0.82584(12) 0.32888(5) 0.38284(5)
F2 F 0.8543(3) 0.33151(11) 0.72549(12)
O2 O 0.7858(2) -0.05423(11) 0.53145(10)
N2 N 0.8591(3) 0.07963(14) 0.53886(12)
C24 C 0.9313(3) 0.14575(17) 0.45163(14)
H22 H 0.9929 0.1107 0.4415
C25 C 0.9246(3) 0.20356(19) 0.41535(14)
H23 H 0.9817 0.2075 0.3810
C26 C 0.8341(4) 0.25548(17) 0.42943(15)
C27 C 0.7488(3) 0.24955(17) 0.47954(15)
H24 H 0.6850 0.2840 0.4884
C28 C 0.7581(3) 0.19150(16) 0.51722(14)
H25 H 0.7030 0.1886 0.5523
C29 C 0.8469(3) 0.13859(16) 0.50354(13)
C30 C 0.7555(3) 0.05422(15) 0.58079(12)
H26 H 0.6743 0.0843 0.5777
C31 C 0.8067(3) 0.05523(15) 0.64917(13)
H27 H 0.7335 0.0344 0.6742
C32 C 0.8218(3) 0.12923(16) 0.67049(13)
C33 C 0.9426(4) 0.16570(19) 0.66220(15)
H28 H 1.0179 0.1439 0.6440
C34 C 0.9547(5) 0.2345(2) 0.68043(17)
H29 H 1.0367 0.2588 0.6751
C35 C 0.8408(6) 0.2649(2) 0.70646(18)
C36 C 0.7208(4) 0.2317(2) 0.71519(17)
H30 H 0.6459 0.2540 0.7331
C37 C 0.7114(3) 0.16324(18) 0.69677(14)
H31 H 0.6285 0.1398 0.7023
C38 C 0.9349(3) 0.01026(17) 0.65703(13)
H32 H 0.9149 -0.0353 0.6409
H33 H 1.0089 0.0296 0.6324
C39 C 0.9851(4) 0.0029(2) 0.72283(14)
H34 H 0.9109 -0.0134 0.7483
H35 H 1.0161 0.0469 0.7377
H36 H 1.0601 -0.0294 0.7242
C40 C 0.7113(3) -0.01905(16) 0.56383(14)
C41 C 0.5802(3) -0.04729(17) 0.58896(13)
C42 C 0.5610(4) -0.11739(19) 0.58964(17)
H37 H 0.6320 -0.1463 0.5767
C43 C 0.4394(5) -0.1451(2) 0.6091(2)
H38 H 0.4285 -0.1928 0.6094
C44 C 0.3338(5) -0.1042(3) 0.62797(18)
H39 H 0.2508 -0.1237 0.6407
C45 C 0.3503(4) -0.0343(2) 0.62808(17)
H40 H 0.2786 -0.0060 0.6412
C46 C 0.4737(4) -0.00564(18) 0.60872(15)
H41 H 0.4849 0.0420 0.6090
H42 H 0.912(2) 0.0464(10) 0.5274(12)
loop_
_geom_bond_atom_site_label_1
_geom_bond_atom_site_label_2
_geom_bond_site_symmetry_1
_geom_bond_site_symmetry_2
Cl1 C3 1_555 1_555
F1 C12 1_555 1_555
O1 C17 1_555 1_555
N1 C6 1_555 1_555
C1 H1 1_555 1_555
C2 C1 1_555 1_555
H2 C2 1_555 1_555
C3 C2 1_555 1_555
C4 C3 1_555 1_555
H3 C4 1_555 1_555
C5 C4 1_555 1_555
H4 C5 1_555 1_555
C6 C1 1_555 1_555
C7 N1 1_555 1_555
H5 C7 1_555 1_555
C8 C7 1_555 1_555
H6 C8 1_555 1_555
C9 C8 1_555 1_555
C10 C9 1_555 1_555
H7 C10 1_555 1_555
C11 C10 1_555 1_555
H8 C11 1_555 1_555
C12 C11 1_555 1_555
C13 C12 1_555 1_555
H9 C13 1_555 1_555
C14 C9 1_555 1_555
H10 C14 1_555 1_555
C15 C8 1_555 1_555
H11 C15 1_555 1_555
H12 C15 1_555 1_555
C16 C15 1_555 1_555
H13 C16 1_555 1_555
H14 C16 1_555 1_555
H15 C16 1_555 1_555
C17 C7 1_555 1_555
C18 C17 1_555 1_555
C19 C18 1_555 1_555
H16 C19 1_555 1_555
C20 C19 1_555 1_555
H17 C20 1_555 1_555
C21 C20 1_555 1_555
H18 C21 1_555 1_555
C22 C21 1_555 1_555
H19 C22 1_555 1_555
C23 C18 1_555 1_555
H20 C23 1_555 1_555
H21 N1 1_555 1_555
Cl2 C26 1_555 1_555
F2 C35 1_555 1_555
O2 C40 1_555 1_555
N2 C29 1_555 1_555
C24 H22 1_555 1_555
C25 C24 1_555 1_555
H23 C25 1_555 1_555
C26 C25 1_555 1_555
C27 C26 1_555 1_555
H24 C27 1_555 1_555
C28 C27 1_555 1_555
H25 C28 1_555 1_555
C29 C24 1_555 1_555
C30 N2 1_555 1_555
H26 C30 1_555 1_555
C31 C30 1_555 1_555
H27 C31 1_555 1_555
C32 C31 1_555 1_555
C33 C32 1_555 1_555
H28 C33 1_555 1_555
C34 C33 1_555 1_555
H29 C34 1_555 1_555
C35 C34 1_555 1_555
C36 C35 1_555 1_555
H30 C36 1_555 1_555
C37 C32 1_555 1_555
H31 C37 1_555 1_555
C38 C31 1_555 1_555
H32 C38 1_555 1_555
H33 C38 1_555 1_555
C39 C38 1_555 1_555
H34 C39 1_555 1_555
H35 C39 1_555 1_555
H36 C39 1_555 1_555
C40 C30 1_555 1_555
C41 C40 1_555 1_555
C42 C41 1_555 1_555
H37 C42 1_555 1_555
C43 C42 1_555 1_555
H38 C43 1_555 1_555
C44 C43 1_555 1_555
H39 C44 1_555 1_555
C45 C44 1_555 1_555
H40 C45 1_555 1_555
C46 C41 1_555 1_555
H41 C46 1_555 1_555
H42 N2 1_555 1_555
C5 C6 1_555 1_555
C13 C14 1_555 1_555
C22 C23 1_555 1_555
C28 C29 1_555 1_555
C36 C37 1_555 1_555
C45 C46 1_555 1_555

#END
