
#######################################################################
#
#                 Cambridge Crystallographic Data Centre
#                                CCDC 
#
#######################################################################
#
# If this CIF has been generated from an entry in the Cambridge 
# Structural Database, then it will include bibliographic, chemical, 
# crystal, experimental, refinement or atomic coordinate data resulting 
# from the CCDC's data processing and validation procedures.
#
#######################################################################

data_HEXXUD
_chemical_formula_moiety         'C48 H24 O6,12(C2 H6 O1),6(C1 H4 O1),3(H2 O1)'
_chemical_name_systematic        
'1,4,7,10,13,16-Hexa-m-benzacyclo-octadecaphan-2,5,8,11,14,17-hexyn-1^5^,4^5^,7^5^,10^5^,13^5^,16^5^-hexaol dodecaethanol hexamethanol clathrate trihydrate'
_symmetry_cell_setting           trigonal
_symmetry_space_group_name_H-M   'P 31'
_symmetry_Int_Tables_number      144
_space_group_name_Hall           'P 31'
loop_
_symmetry_equiv_pos_site_id
_symmetry_equiv_pos_as_xyz
1 x,y,z
2 -y,x-y,1/3+z
3 -x+y,-x,2/3+z
_cell_length_a                   20.660(9)
_cell_length_b                   20.660(9)
_cell_length_c                   9.998(7)
_cell_angle_alpha                90
_cell_angle_beta                 90
_cell_angle_gamma                120
_cell_volume                     3695.77
_cell_formula_units_Z            3
loop_
_atom_site_label
_atom_site_type_symbol
_atom_site_fract_x
_atom_site_fract_y
_atom_site_fract_z
C1 C 0.7047(11) 0.3527(10) 0.0004(27)
C2 C -0.1373(11) -0.3832(11) -0.0179(24)
C3 C -0.1279(11) -0.3121(10) -0.0363(25)
C4 C -0.0567(10) -0.2508(10) -0.0284(25)
C5 C -0.0056(10) -0.3308(10) -0.0078(25)
C6 C -0.0774(10) -0.3943(11) -0.0073(27)
O1 O -0.2081(18) -0.4455(8) -0.0289(16)
C7 C -0.0489(13) -0.1787(11) -0.0465(25)
C8 C -0.0453(13) -0.1201(11) -0.0251(26)
C9 C -0.0872(10) 0.0350(10) -0.0540(24)
C10 C -0.0183(10) 0.1003(11) -0.0478(25)
C11 C 0.0459(10) 0.0927(10) -0.0417(25)
C12 C -0.0327(10) -0.0450(9) -0.0439(25)
C13 C -0.0954(11) -0.0355(11) -0.0348(25)
O2 O -0.1500(8) 0.0445(8) -0.0441(16)
C14 C 0.1204(11) 0.1571(12) -0.0447(26)
C15 C 0.1818(11) 0.2090(12) -0.0256(25)
C16 C 0.3398(10) 0.4084(10) -0.0108(25)
C17 C 0.4005(11) 0.3948(11) -0.0089(25)
C18 C 0.3888(10) 0.3226(10) -0.0080(25)
C19 C 0.2569(10) 0.2752(10) -0.0132(25)
C20 C 0.2666(10) 0.3459(10) -0.0150(26)
O3 O 0.3523(8) 0.4782(8) -0.0042(17)
C21 C 0.5099(12) 0.3081(13) -0.0107(25)
C22 C 0.4552(12) 0.3132(13) -0.0071(26)
C23 C 0.6967(11) 0.2825(10) 0.0179(27)
C24 C 0.6276(10) 0.2185(9) 0.0080(25)
C25 C 0.5728(10) 0.2975(10) 0.0034(26)
C26 C 0.6441(10) 0.3639(10) 0.0000(27)
O4 O 0.7742(8) 0.4192(8) 0.0051(17)
C27 C 0.6188(13) 0.1451(11) 0.0114(26)
C28 C 0.6124(13) 0.0849(11) 0.0088(25)
C29 C 0.6511(11) -0.0697(12) -0.0010(25)
C30 C 0.5823(10) -0.1317(12) -0.0095(25)
C31 C 0.5184(10) -0.1247(10) -0.0044(25)
C32 C 0.6013(10) 0.0104(10) 0.0082(24)
C33 C 0.6621(11) 0.0003(12) 0.0047(25)
O5 O 0.7159(8) -0.0795(8) -0.0092(17)
C34 C 0.4474(11) -0.1886(12) -0.0177(25)
C35 C 0.3851(11) -0.2404(12) -0.0118(27)
C36 C 0.2327(10) -0.4406(10) 0.0084(25)
C37 C 0.1697(11) -0.4326(11) 0.0064(25)
C38 C 0.1768(10) -0.3623(10) -0.0020(24)
C39 C 0.3123(10) -0.3070(10) -0.0030(26)
C40 C 0.3026(11) -0.3767(10) 0.0001(27)
O6 O 0.2248(8) -0.5107(8) 0.0181(16)
C41 C 0.0615(12) -0.3361(13) -0.0036(27)
C42 C 0.1132(12) -0.3503(13) -0.0073(26)
C43 C 0.0033(11) -0.2611(11) -0.0155(26)
C44 C 0.0365(11) 0.0206(10) -0.0412(26)
C45 C 0.3149(10) 0.2603(11) -0.0147(27)
C46 C 0.5645(11) 0.2268(11) 0.0030(26)
C47 C 0.5276(11) -0.0521(10) -0.0023(26)
C48 C 0.2480(10) -0.2978(11) -0.0063(26)
O7 O -0.3341(16) -0.4484(17) -0.0826(30)
C49 C -0.3918(14) -0.4340(14) -0.0461(27)
C57 C -0.3942(23) -0.4520(23) 0.1029(36)
O9 O -0.5054(11) -0.4134(11) 0.0213(23)
C51 C -0.4747(18) -0.3329(16) 0.0358(35)
O11 O 0.7324(12) 0.7989(12) 0.0539(24)
C53 C 0.7637(22) 0.8166(21) 0.1884(38)
C55 C 0.7931(22) 0.7651(22) 0.2103(40)
O13 O -0.0112(9) 0.2846(10) 0.1739(22)
O8? O 0.3006(10) 0.1126(9) 0.3082(19)
O10? O 0.8885(10) 0.3936(10) 0.0569(19)
O12? O 0.0875(18) 0.3665(18) -0.0091(31)
C50? C -0.1682(15) 0.2069(15) -0.0377(29)
C52? C 0.9579(16) 0.4395(18) -0.0209(36)
C54? C 0.0763(26) 0.3374(23) -0.1444(41)
C56? C 0.0942(36) 0.4046(32) -0.2239(48)
C58? C 0.9239(50) 0.4295(72) -0.1561(49)
loop_
_geom_bond_atom_site_label_1
_geom_bond_atom_site_label_2
_geom_bond_site_symmetry_1
_geom_bond_site_symmetry_2
C1 C23 1_555 1_555
C2 C3 1_555 1_555
C3 C4 1_555 1_555
C4 C7 1_555 1_555
C5 C6 1_555 1_555
C6 C2 1_555 1_555
O1 C2 1_555 1_555
C7 C8 1_555 1_555
C8 C12 1_555 1_555
C9 C10 1_555 1_555
C10 C11 1_555 1_555
C11 C14 1_555 1_555
C12 C13 1_555 1_555
C13 C9 1_555 1_555
O2 C9 1_555 1_555
C14 C15 1_555 1_555
C15 C19 1_555 1_555
C16 C17 1_555 1_555
C17 C18 1_555 1_555
C18 C22 1_555 1_555
C19 C20 1_555 1_555
C20 C16 1_555 1_555
O3 C16 1_555 1_555
C21 C22 1_555 1_555
C23 C24 1_555 1_555
C24 C27 1_555 1_555
C25 C21 1_555 1_555
C26 C1 1_555 1_555
O4 C1 1_555 1_555
C27 C28 1_555 1_555
C28 C32 1_555 1_555
C29 C30 1_555 1_555
C30 C31 1_555 1_555
C31 C34 1_555 1_555
C32 C33 1_555 1_555
C33 C29 1_555 1_555
O5 C29 1_555 1_555
C34 C35 1_555 1_555
C35 C39 1_555 1_555
C36 C37 1_555 1_555
C37 C38 1_555 1_555
C38 C42 1_555 1_555
C39 C40 1_555 1_555
C40 C36 1_555 1_555
O6 C36 1_555 1_555
C41 C5 1_555 1_555
C42 C41 1_555 1_555
C43 C4 1_555 1_555
C44 C11 1_555 1_555
C45 C18 1_555 1_555
C46 C24 1_555 1_555
C47 C31 1_555 1_555
C48 C38 1_555 1_555
O7 C49 1_555 1_555
O9 C51 1_555 1_555
O11 C53 1_555 1_555
C49 C57 1_555 1_555
C53 C55 1_555 1_555
C5 C43 1_555 1_555
C12 C44 1_555 1_555
C19 C45 1_555 1_555
C25 C26 1_555 1_555
C25 C46 1_555 1_555
C32 C47 1_555 1_555
C39 C48 1_555 1_555

#END
