
#######################################################################
#
#                 Cambridge Crystallographic Data Centre
#                                CCDC 
#
#######################################################################
#
# If this CIF has been generated from an entry in the Cambridge 
# Structural Database, then it will include bibliographic, chemical, 
# crystal, experimental, refinement or atomic coordinate data resulting 
# from the CCDC's data processing and validation procedures.
#
#######################################################################

data_HEYDEX
_chemical_formula_moiety         'C25 H4 Cl12'
_chemical_name_systematic        
1,1',1''-methanetriyltris(2,3,5,6-tetrachloro-4-ethynylbenzene)
_symmetry_cell_setting           monoclinic
_symmetry_space_group_name_H-M   'C 2/c'
_symmetry_Int_Tables_number      15
_space_group_name_Hall           '-C 2yn'
loop_
_symmetry_equiv_pos_site_id
_symmetry_equiv_pos_as_xyz
1 x,y,z
2 -x,y,1/2-z
3 1/2+x,1/2+y,z
4 1/2-x,1/2+y,1/2-z
5 -x,-y,-z
6 x,-y,1/2+z
7 1/2-x,1/2-y,-z
8 1/2+x,1/2-y,1/2+z
_cell_length_a                   12.9022(8)
_cell_length_b                   12.2463(8)
_cell_length_c                   18.4227(11)
_cell_angle_alpha                90
_cell_angle_beta                 109.376(2)
_cell_angle_gamma                90
_cell_volume                     2746
_exptl_crystal_colour            colorless
_exptl_crystal_description       Block
_cell_formula_units_Z            4
loop_
_atom_site_label
_atom_site_type_symbol
_atom_site_fract_x
_atom_site_fract_y
_atom_site_fract_z
Cl1 Cl 0.63365(8) 0.50765(8) 0.64857(6)
Cl2 Cl 0.58982(8) 0.62814(8) 0.49546(5)
Cl3 Cl 0.30207(11) 0.89245(10) 0.56180(7)
Cl4 Cl 0.32715(12) 0.76095(10) 0.70998(8)
Cl5 Cl 0.29918(11) 0.46288(14) 0.63961(7)
Cl6 Cl 0.30748(11) 0.21354(14) 0.63631(7)
C1 C 0.5368(3) 0.6108(3) 0.6255(2)
C2 C 0.5207(3) 0.6673(3) 0.5569(2)
C3 C 0.4500(3) 0.7561(3) 0.5370(2)
C4 C 0.3922(4) 0.7840(3) 0.5864(2)
C5 C 0.4062(4) 0.7252(3) 0.6539(3)
C6 C 0.4809(4) 0.6391(3) 0.6757(2)
C7 C 0.5389(6) 0.5781(5) 0.7573(4)
H1 H 0.622(7) 0.586(7) 0.766(5)
C8 C 0.5000 0.4561(4) 0.7500
C9 C 0.4132(3) 0.3975(3) 0.7005(2)
C10 C 0.4140(3) 0.2837(3) 0.6997(2)
C11 C 0.5000 0.2263(4) 0.7500
C12 C 0.4377(4) 0.8189(4) 0.4677(3)
C13 C 0.4311(5) 0.8687(5) 0.4160(3)
H2 H 0.4255 0.9113 0.3718
C14 C 0.5000 0.1091(6) 0.7500
C15 C 0.5000 0.0160(7) 0.7500
H3 H 0.5000 -0.0616 0.7500
Cl1A Cl 0.36635(8) 0.50765(8) 0.85143(6)
Cl2A Cl 0.41018(8) 0.62814(8) 1.00454(5)
Cl3A Cl 0.69793(11) 0.89245(10) 0.93820(7)
Cl4A Cl 0.67285(12) 0.76095(10) 0.79002(8)
Cl5A Cl 0.70082(11) 0.46288(14) 0.86039(7)
Cl6A Cl 0.69252(11) 0.21354(14) 0.86369(7)
C1A C 0.4632(3) 0.6108(3) 0.8745(2)
C2A C 0.4793(3) 0.6673(3) 0.9431(2)
C3A C 0.5500(3) 0.7561(3) 0.9630(2)
C4A C 0.6078(4) 0.7840(3) 0.9136(2)
C5A C 0.5938(4) 0.7252(3) 0.8461(3)
C6A C 0.5191(4) 0.6391(3) 0.8243(2)
C7A C 0.4611(6) 0.5781(5) 0.7427(4)
H1A H 0.378(7) 0.586(7) 0.734(5)
C9A C 0.5868(3) 0.3975(3) 0.7995(2)
C10A C 0.5860(3) 0.2837(3) 0.8003(2)
C12A C 0.5623(4) 0.8189(4) 1.0323(3)
C13A C 0.5689(5) 0.8687(5) 1.0840(3)
H2A H 0.5745 0.9113 1.1282
loop_
_geom_bond_atom_site_label_1
_geom_bond_atom_site_label_2
_geom_bond_site_symmetry_1
_geom_bond_site_symmetry_2
Cl1 C1 1_555 1_555
Cl2 C2 1_555 1_555
Cl3 C4 1_555 1_555
Cl4 C5 1_555 1_555
Cl5 C9 1_555 1_555
Cl6 C10 1_555 1_555
C1 C2 1_555 1_555
C2 C3 1_555 1_555
C3 C4 1_555 1_555
C4 C5 1_555 1_555
C5 C6 1_555 1_555
C6 C1 1_555 1_555
C7 C6 1_555 1_555
H1 C7 1_555 1_555
C8 C7 1_555 1_555
C9 C8 1_555 1_555
C10 C9 1_555 1_555
C11 C10 1_555 1_555
C12 C3 1_555 1_555
C13 C12 1_555 1_555
H2 C13 1_555 1_555
C14 C11 1_555 1_555
C15 C14 1_555 1_555
H3 C15 1_555 1_555
Cl1A C1A 1_555 1_555
Cl2A C2A 1_555 1_555
Cl3A C4A 1_555 1_555
Cl4A C5A 1_555 1_555
Cl5A C9A 1_555 1_555
Cl6A C10A 1_555 1_555
C1A C2A 1_555 1_555
C2A C3A 1_555 1_555
C3A C4A 1_555 1_555
C4A C5A 1_555 1_555
C5A C6A 1_555 1_555
C6A C7 1_555 1_555
C7A C6 1_555 1_555
H1A C7A 1_555 1_555
C9A C8 1_555 1_555
C10A C11 1_555 1_555
C12A C3A 1_555 1_555
C13A C12A 1_555 1_555
H2A C13A 1_555 1_555
C7 C7A 1_555 1_555
C8 C7A 1_555 1_555
C1A C6A 1_555 1_555
C6A C7A 1_555 1_555
C9A C10A 1_555 1_555

#END
