
#######################################################################
#
#                 Cambridge Crystallographic Data Centre
#                                CCDC 
#
#######################################################################
#
# If this CIF has been generated from an entry in the Cambridge 
# Structural Database, then it will include bibliographic, chemical, 
# crystal, experimental, refinement or atomic coordinate data resulting 
# from the CCDC's data processing and validation procedures.
#
#######################################################################

data_HEYDAT
_chemical_formula_moiety         'C20 H17 N1'
_chemical_name_systematic        2-methyl-4-phenyl-6-(2-phenylethenyl)pyridine
_symmetry_cell_setting           triclinic
_symmetry_space_group_name_H-M   'P -1'
_symmetry_Int_Tables_number      2
_space_group_name_Hall           '-P 1'
loop_
_symmetry_equiv_pos_site_id
_symmetry_equiv_pos_as_xyz
1 x,y,z
2 -x,-y,-z
_cell_length_a                   8.8266(18)
_cell_length_b                   9.6558(19)
_cell_length_c                   10.564(2)
_cell_angle_alpha                109.75(3)
_cell_angle_beta                 106.71(3)
_cell_angle_gamma                103.46(3)
_cell_volume                     755.288
_exptl_crystal_colour            colorless
_exptl_crystal_description       block
_cell_formula_units_Z            2
loop_
_atom_site_label
_atom_site_type_symbol
_atom_site_fract_x
_atom_site_fract_y
_atom_site_fract_z
C1 C 0.2209(2) 0.3802(2) 0.02294(18)
C2 C 0.2265(2) 0.0210(2) -0.72199(18)
C3 C 0.1435(2) 0.2162(2) -0.38675(19)
C4 C 0.2138(2) 0.1379(2) -0.47557(19)
H1 H 0.3031 0.1092 -0.4357
C5 C 0.1517(2) 0.1018(2) -0.62427(19)
N1 N 0.01175(19) 0.2583(2) -0.43976(17)
C6 C 0.2141(2) 0.2603(2) -0.22875(19)
H2 H 0.3104 0.2391 -0.1911
C7 C 0.1513(2) 0.3275(2) -0.13633(19)
H3 H 0.0519 0.3433 -0.1765
C8 C 0.2870(2) -0.0942(2) -0.7028(2)
H4 H 0.2818 -0.1207 -0.6269
C9 C 0.3911(2) 0.4118(2) 0.1051(2)
H5 H 0.4633 0.3936 0.0576
C10 C 0.0162(2) 0.1449(2) -0.6773(2)
H6 H -0.0298 0.1228 -0.7761
C11 C 0.1176(2) 0.4085(2) 0.0984(2)
H7 H 0.0038 0.3872 0.0461
C12 C 0.2371(2) 0.0592(2) -0.8356(2)
H8 H 0.1961 0.1352 -0.8507
C13 C 0.3553(2) -0.1703(2) -0.7962(2)
H9 H 0.3942 -0.2482 -0.7835
C14 C 0.1804(3) 0.4677(3) 0.2493(2)
H10 H 0.1090 0.4863 0.2976
C15 C -0.0511(2) 0.2209(2) -0.5833(2)
C16 C 0.4530(2) 0.4698(2) 0.2565(2)
H11 H 0.5659 0.4890 0.3098
C17 C 0.3480(3) 0.4991(3) 0.3283(2)
H12 H 0.3904 0.5401 0.4300
C18 C 0.3083(3) -0.0148(3) -0.9264(2)
H13 H 0.3175 0.0136 -1.0004
C19 C 0.3654(3) -0.1300(3) -0.9075(2)
H14 H 0.4109 -0.1809 -0.9701
C20 C -0.1990(3) 0.2686(3) -0.6388(2)
H15 H -0.2281 0.3195 -0.5590
H16 H -0.2950 0.1763 -0.7131
H17 H -0.1679 0.3403 -0.6796
loop_
_geom_bond_atom_site_label_1
_geom_bond_atom_site_label_2
_geom_bond_site_symmetry_1
_geom_bond_site_symmetry_2
C1 C7 1_555 1_555
C2 C5 1_555 1_555
C3 C4 1_555 1_555
C4 H1 1_555 1_555
C5 C4 1_555 1_555
N1 C3 1_555 1_555
C6 C3 1_555 1_555
H2 C6 1_555 1_555
C7 C6 1_555 1_555
H3 C7 1_555 1_555
C8 C2 1_555 1_555
H4 C8 1_555 1_555
C9 C1 1_555 1_555
H5 C9 1_555 1_555
C10 C5 1_555 1_555
H6 C10 1_555 1_555
C11 C1 1_555 1_555
H7 C11 1_555 1_555
C12 C2 1_555 1_555
H8 C12 1_555 1_555
C13 C8 1_555 1_555
H9 C13 1_555 1_555
C14 C11 1_555 1_555
H10 C14 1_555 1_555
C15 N1 1_555 1_555
C16 C9 1_555 1_555
H11 C16 1_555 1_555
C17 C14 1_555 1_555
H12 C17 1_555 1_555
C18 C12 1_555 1_555
H13 C18 1_555 1_555
C19 C13 1_555 1_555
H14 C19 1_555 1_555
C20 C15 1_555 1_555
H15 C20 1_555 1_555
H16 C20 1_555 1_555
H17 C20 1_555 1_555
C10 C15 1_555 1_555
C16 C17 1_555 1_555
C18 C19 1_555 1_555

#END
