
#######################################################################
#
#                 Cambridge Crystallographic Data Centre
#                                CCDC 
#
#######################################################################
#
# If this CIF has been generated from an entry in the Cambridge 
# Structural Database, then it will include bibliographic, chemical, 
# crystal, experimental, refinement or atomic coordinate data resulting 
# from the CCDC's data processing and validation procedures.
#
#######################################################################

data_HEYHUR
_chemical_formula_moiety         'C14 H23 O1 Si1 1+,C1 H6 B11 Br6 1-,C6 H4 Cl2'
_chemical_name_systematic        
'[(4-methylphenyl)methylidene](triethylsilyl)oxidanium 7,8,9,10,11,12-hexabromo-1-carba-closo-dodecaborate(6) 1,2-dichlorobenzene solvate'
_symmetry_cell_setting           orthorhombic
_symmetry_space_group_name_H-M   'P 21 21 21'
_symmetry_Int_Tables_number      19
_space_group_name_Hall           'P 2ac 2ab'
loop_
_symmetry_equiv_pos_site_id
_symmetry_equiv_pos_as_xyz
1 x,y,z
2 1/2-x,-y,1/2+z
3 -x,1/2+y,1/2-z
4 1/2+x,1/2-y,-z
_cell_length_a                   12.9052(3)
_cell_length_b                   14.0036(3)
_cell_length_c                   20.3019(5)
_cell_angle_alpha                90
_cell_angle_beta                 90
_cell_angle_gamma                90
_cell_volume                     3668.94
_exptl_crystal_colour            yellow
_exptl_crystal_description       block
_cell_formula_units_Z            4
_chemical_properties_physical    Air-sensitive,Moisture-sensitive
loop_
_atom_site_label
_atom_site_type_symbol
_atom_site_fract_x
_atom_site_fract_y
_atom_site_fract_z
C1 C 0.4736(5) 0.1220(5) 0.2796(4)
H1 H 0.497(5) 0.058(2) 0.268(3)
Br1 Br 0.55663(6) 0.31021(6) 0.45252(4)
Br2 Br 0.63483(5) 0.40724(5) 0.28415(4)
Br3 Br 0.39477(5) 0.39491(5) 0.17063(3)
Br4 Br 0.17112(5) 0.28595(5) 0.26751(4)
Br5 Br 0.27141(5) 0.22766(5) 0.44504(4)
Br6 Br 0.35989(6) 0.45968(5) 0.35350(4)
B1 B 0.4606(6) 0.1406(5) 0.3617(4)
H2 H 0.479(5) 0.088(4) 0.394(3)
B2 B 0.5644(6) 0.1900(5) 0.3164(4)
H3 H 0.643(6) 0.165(5) 0.320(3)
B3 B 0.5187(6) 0.2155(5) 0.2348(4)
H4 H 0.564(6) 0.215(6) 0.205(4)
B4 B 0.3874(6) 0.1795(5) 0.2303(4)
H5 H 0.361(6) 0.154(5) 0.186(4)
B5 B 0.3514(6) 0.1328(5) 0.3090(4)
H6 H 0.301(5) 0.073(5) 0.313(3)
B6 B 0.4931(5) 0.2624(5) 0.3714(4)
B7 B 0.5299(6) 0.3091(5) 0.2936(4)
B8 B 0.4202(5) 0.3024(5) 0.2410(3)
B9 B 0.3170(5) 0.2512(5) 0.2865(3)
B10 B 0.3610(5) 0.2254(5) 0.3672(4)
B11 B 0.4023(6) 0.3320(5) 0.3261(4)
Si1 Si 0.42016(15) 0.42738(14) 0.64519(12)
O1 O 0.4130(4) 0.3053(4) 0.6226(3)
C2 C 0.4834(5) 0.2462(5) 0.6093(4)
H7 H 0.5523 0.2687 0.6038
C3 C 0.4632(5) 0.1470(5) 0.6022(4)
C4 C 0.5464(6) 0.0849(6) 0.5902(4)
H8 H 0.6140 0.1099 0.5835
C5 C 0.5301(7) -0.0120(6) 0.5881(4)
H9 H 0.5864 -0.0534 0.5786
C6 C 0.4332(6) -0.0502(6) 0.5997(4)
C7 C 0.3502(6) 0.0119(6) 0.6124(4)
H10 H 0.2832 -0.0138 0.6203
C8 C 0.3640(6) 0.1079(6) 0.6137(4)
H11 H 0.3069 0.1489 0.6222
C9 C 0.4162(7) -0.1569(6) 0.5987(5)
H12 H 0.4779 -0.1884 0.5808
H13 H 0.3562 -0.1718 0.5710
H14 H 0.4036 -0.1796 0.6436
C10 C 0.5591(6) 0.4563(5) 0.6572(5)
H15 H 0.5888 0.4134 0.6911
H16 H 0.5971 0.4454 0.6155
C11 C 0.5730(7) 0.5613(7) 0.6790(6)
H17 H 0.6470 0.5772 0.6798
H18 H 0.5437 0.5699 0.7231
H19 H 0.5372 0.6034 0.6478
C12 C 0.3467(6) 0.4274(6) 0.7229(4)
H20 H 0.3652 0.4856 0.7480
H21 H 0.2719 0.4314 0.7123
C13 C 0.3641(9) 0.3412(9) 0.7669(5)
H22 H 0.3282 0.3508 0.8089
H23 H 0.4385 0.3332 0.7749
H24 H 0.3368 0.2839 0.7452
C14 C 0.3588(7) 0.4907(7) 0.5760(5)
H25 H 0.3515 0.5588 0.5883
H26 H 0.4062 0.4876 0.5377
C15 C 0.2542(7) 0.4543(6) 0.5547(4)
H27 H 0.2395 0.4763 0.5098
H28 H 0.2009 0.4786 0.5847
H29 H 0.2541 0.3843 0.5557
C16 C 0.2881(6) 0.2309(6) 0.9744(4)
C17 C 0.2601(6) 0.1372(6) 0.9621(4)
C18 C 0.3151(8) 0.0646(6) 0.9921(5)
H30 H 0.2947 0.0001 0.9856
C19 C 0.3993(7) 0.0848(8) 1.0314(5)
H31 H 0.4386 0.0344 1.0504
C20 C 0.4264(7) 0.1786(8) 1.0431(4)
H32 H 0.4835 0.1929 1.0709
C21 C 0.3714(6) 0.2507(6) 1.0147(4)
H33 H 0.3905 0.3152 1.0228
Cl1 Cl 0.21859(17) 0.32459(15) 0.94054(12)
Cl2 Cl 0.1529(2) 0.11109(19) 0.91435(13)
loop_
_geom_bond_atom_site_label_1
_geom_bond_atom_site_label_2
_geom_bond_site_symmetry_1
_geom_bond_site_symmetry_2
C1 H1 1_555 1_555
Br1 B6 1_555 1_555
Br2 B7 1_555 1_555
Br3 B8 1_555 1_555
Br4 B9 1_555 1_555
Br5 B10 1_555 1_555
Br6 B11 1_555 1_555
B1 C1 1_555 1_555
H2 B1 1_555 1_555
B2 C1 1_555 1_555
H3 B2 1_555 1_555
B3 C1 1_555 1_555
H4 B3 1_555 1_555
B4 C1 1_555 1_555
H5 B4 1_555 1_555
B5 C1 1_555 1_555
H6 B5 1_555 1_555
B6 B1 1_555 1_555
B7 B2 1_555 1_555
B8 B3 1_555 1_555
B9 B4 1_555 1_555
B10 B1 1_555 1_555
B11 B6 1_555 1_555
Si1 O1 1_555 1_555
O1 C2 1_555 1_555
C2 H7 1_555 1_555
C3 C2 1_555 1_555
C4 C3 1_555 1_555
H8 C4 1_555 1_555
C5 C4 1_555 1_555
H9 C5 1_555 1_555
C6 C5 1_555 1_555
C7 C6 1_555 1_555
H10 C7 1_555 1_555
C8 C3 1_555 1_555
H11 C8 1_555 1_555
C9 C6 1_555 1_555
H12 C9 1_555 1_555
H13 C9 1_555 1_555
H14 C9 1_555 1_555
C10 Si1 1_555 1_555
H15 C10 1_555 1_555
H16 C10 1_555 1_555
C11 C10 1_555 1_555
H17 C11 1_555 1_555
H18 C11 1_555 1_555
H19 C11 1_555 1_555
C12 Si1 1_555 1_555
H20 C12 1_555 1_555
H21 C12 1_555 1_555
C13 C12 1_555 1_555
H22 C13 1_555 1_555
H23 C13 1_555 1_555
H24 C13 1_555 1_555
C14 Si1 1_555 1_555
H25 C14 1_555 1_555
H26 C14 1_555 1_555
C15 C14 1_555 1_555
H27 C15 1_555 1_555
H28 C15 1_555 1_555
H29 C15 1_555 1_555
C16 C17 1_555 1_555
C17 C18 1_555 1_555
C18 H30 1_555 1_555
C19 C18 1_555 1_555
H31 C19 1_555 1_555
C20 C19 1_555 1_555
H32 C20 1_555 1_555
C21 C16 1_555 1_555
H33 C21 1_555 1_555
Cl1 C16 1_555 1_555
Cl2 C17 1_555 1_555
B1 B2 1_555 1_555
B1 B5 1_555 1_555
B2 B3 1_555 1_555
B2 B6 1_555 1_555
B3 B4 1_555 1_555
B3 B7 1_555 1_555
B4 B5 1_555 1_555
B4 B8 1_555 1_555
B5 B9 1_555 1_555
B5 B10 1_555 1_555
B6 B7 1_555 1_555
B6 B10 1_555 1_555
B7 B8 1_555 1_555
B7 B11 1_555 1_555
B8 B9 1_555 1_555
B8 B11 1_555 1_555
B9 B10 1_555 1_555
B9 B11 1_555 1_555
B10 B11 1_555 1_555
C7 C8 1_555 1_555
C20 C21 1_555 1_555

#END
