
#######################################################################
#
#                 Cambridge Crystallographic Data Centre
#                                CCDC 
#
#######################################################################
#
# If this CIF has been generated from an entry in the Cambridge 
# Structural Database, then it will include bibliographic, chemical, 
# crystal, experimental, refinement or atomic coordinate data resulting 
# from the CCDC's data processing and validation procedures.
#
#######################################################################

data_HEYHAV
_chemical_formula_moiety         'C28 H32 N6 O6,2(C3 H7 N1 O1)'
_chemical_name_systematic        
'1,4-bis(N-(6-t-Butoxycarbonylaminopyridin-2-yl)carbamoyl)benzene bis(dimethylformamide) clathrate'
_symmetry_cell_setting           orthorhombic
_symmetry_space_group_name_H-M   'P n a 21'
_symmetry_Int_Tables_number      33
_space_group_name_Hall           'P 2c -2n'
loop_
_symmetry_equiv_pos_site_id
_symmetry_equiv_pos_as_xyz
1 x,y,z
2 -x,-y,1/2+z
3 1/2-x,1/2+y,1/2+z
4 1/2+x,1/2-y,z
_cell_length_a                   17.304(7)
_cell_length_b                   10.002(6)
_cell_length_c                   21.924(8)
_cell_angle_alpha                90
_cell_angle_beta                 90
_cell_angle_gamma                90
_cell_volume                     3794.49
_exptl_crystal_colour            colorless
_exptl_crystal_description       plate
_cell_formula_units_Z            4
loop_
_atom_site_label
_atom_site_type_symbol
_atom_site_fract_x
_atom_site_fract_y
_atom_site_fract_z
O1 O 0.9598(4) 0.9087(8) 0.6398(3)
O2 O 0.9854(5) 1.0906(7) 0.5811(4)
O3 O 0.8104(6) 0.8443(9) 0.2684(4)
O4 O 0.7203(5) 0.1344(8) 0.2547(4)
O5 O 0.4905(5) 0.0810(7) -0.0878(4)
O6 O 0.4821(6) -0.1044(9) -0.0274(4)
N1 N 0.9176(6) 0.9111(8) 0.5462(4)
N2 N 0.8799(5) 0.8462(9) 0.4512(4)
N3 N 0.8384(5) 0.7570(8) 0.3603(4)
N4 N 0.7039(5) 0.2095(8) 0.1589(4)
N5 N 0.6297(5) 0.1305(8) 0.0803(4)
N6 N 0.5572(6) 0.0768(8) -0.0024(4)
C1 C 1.0163(8) 0.947(1) 0.6895(6)
C2 C 0.9996(9) 0.837(2) 0.7359(7)
C3 C 0.9953(8) 1.081(1) 0.7162(6)
C4 C 1.0974(9) 0.940(1) 0.6666(6)
C5 C 0.9575(7) 0.982(1) 0.5881(5)
C6 C 0.8999(7) 0.949(1) 0.4864(5)
C7 C 0.9048(9) 1.075(1) 0.4661(6)
C8 C 0.8835(8) 1.103(1) 0.4070(7)
C9 C 0.8618(7) 1.000(1) 0.3674(5)
C10 C 0.8607(6) 0.875(1) 0.3942(5)
C11 C 0.8152(6) 0.749(1) 0.3027(5)
C12 C 0.7956(7) 0.610(1) 0.2808(5)
C13 C 0.8249(7) 0.493(1) 0.3056(5)
C14 C 0.8025(8) 0.370(1) 0.2835(6)
C15 C 0.7515(7) 0.359(1) 0.2363(4)
C16 C 0.7219(7) 0.475(1) 0.2126(5)
C17 C 0.7423(7) 0.601(1) 0.2333(5)
C18 C 0.7233(6) 0.223(1) 0.2185(5)
C19 C 0.6658(7) 0.100(1) 0.1323(5)
C20 C 0.6685(8) -0.028(1) 0.1567(6)
C21 C 0.6292(8) -0.125(1) 0.1265(7)
C22 C 0.5893(7) -0.099(1) 0.0732(6)
C23 C 0.5933(6) 0.033(1) 0.0518(5)
C24 C 0.5068(8) 0.006(1) -0.0372(6)
C25 C 0.4290(9) 0.040(1) -0.1303(6)
C26 C 0.3539(10) 0.023(2) -0.0992(8)
C27 C 0.4534(9) -0.088(2) -0.1610(7)
C28 C 0.429(1) 0.153(2) -0.1759(7)
H1 H 0.8994 0.8258 0.5588
H2 H 0.8407 0.6748 0.3820
H3 H 0.7174 0.2810 0.1325
H4 H 0.5692 0.1648 -0.0157
H5 H 0.9468 0.8407 0.7477
H6 H 1.0102 0.7522 0.7182
H7 H 1.0314 0.8492 0.7709
H8 H 1.0252 1.0966 0.7520
H9 H 1.0056 1.1493 0.6872
H10 H 0.9420 1.0820 0.7265
H11 H 1.1085 0.8512 0.6538
H12 H 1.1035 0.9993 0.6332
H13 H 1.1320 0.9645 0.6984
H14 H 0.9228 1.1447 0.4922
H15 H 0.8835 1.1930 0.3931
H16 H 0.8490 1.0153 0.3258
H17 H 0.8609 0.4977 0.3383
H18 H 0.8228 0.2909 0.3016
H19 H 0.6855 0.4683 0.1804
H20 H 0.7205 0.6788 0.2156
H21 H 0.6966 -0.0474 0.1929
H22 H 0.6290 -0.2138 0.1424
H23 H 0.5609 -0.1666 0.0524
H24 H 0.3388 0.1052 -0.0813
H25 H 0.3160 -0.0046 -0.1280
H26 H 0.3586 -0.0434 -0.0683
H27 H 0.4606 -0.1557 -0.1311
H28 H 0.4145 -0.1153 -0.1889
H29 H 0.5005 -0.0738 -0.1823
H30 H 0.4785 0.1623 -0.1934
H31 H 0.3920 0.1348 -0.2071
H32 H 0.4148 0.2339 -0.1558
O7 O 0.7853(8) 0.532(1) 0.4385(5)
N7 N 0.663(1) 0.544(2) 0.4554(8)
C29 C 0.731(2) 0.590(3) 0.4668(9)
C30 C 0.602(2) 0.626(3) 0.488(1)
C31 C 0.633(2) 0.454(3) 0.416(2)
H33 H 0.7403 0.6618 0.4943
H34 H 0.6133 0.6271 0.5308
H35 H 0.6030 0.7152 0.4732
H36 H 0.5526 0.5884 0.4818
H37 H 0.5791 0.4445 0.4233
H38 H 0.6409 0.4848 0.3754
H39 H 0.6579 0.3706 0.4214
O8 O 0.7760(9) 0.387(1) 0.0708(6)
N8 N 0.833(1) 0.590(2) 0.0831(8)
C32 C 0.7807(14) 0.510(3) 0.0643(11)
C33 C 0.8925(17) 0.530(4) 0.1226(14)
C34 C 0.839(2) 0.729(2) 0.077(2)
H40 H 0.7396 0.5497 0.0422
H41 H 0.8689 0.4937 0.1582
H42 H 0.9180 0.4598 0.1010
H43 H 0.9290 0.5958 0.1339
H44 H 0.8846 0.7596 0.0956
H45 H 0.8394 0.7517 0.0346
H46 H 0.7952 0.7707 0.0956
loop_
_geom_bond_atom_site_label_1
_geom_bond_atom_site_label_2
_geom_bond_site_symmetry_1
_geom_bond_site_symmetry_2
O1 C1 1_555 1_555
O2 C5 1_555 1_555
O3 C11 1_555 1_555
O4 C18 1_555 1_555
O5 C24 1_555 1_555
O6 C24 1_555 1_555
N1 C5 1_555 1_555
N2 C6 1_555 1_555
N3 C10 1_555 1_555
N4 C18 1_555 1_555
N5 C19 1_555 1_555
N6 C23 1_555 1_555
C1 C2 1_555 1_555
C2 H5 1_555 1_555
C3 C1 1_555 1_555
C4 C1 1_555 1_555
C5 O1 1_555 1_555
C6 N1 1_555 1_555
C7 C6 1_555 1_555
C8 C7 1_555 1_555
C9 C8 1_555 1_555
C10 N2 1_555 1_555
C11 N3 1_555 1_555
C12 C11 1_555 1_555
C13 C12 1_555 1_555
C14 C13 1_555 1_555
C15 C14 1_555 1_555
C16 C15 1_555 1_555
C17 C12 1_555 1_555
C18 C15 1_555 1_555
C19 N4 1_555 1_555
C20 C19 1_555 1_555
C21 C20 1_555 1_555
C22 C21 1_555 1_555
C23 N5 1_555 1_555
C24 N6 1_555 1_555
C25 O5 1_555 1_555
C26 C25 1_555 1_555
C27 C25 1_555 1_555
C28 C25 1_555 1_555
H1 N1 1_555 1_555
H2 N3 1_555 1_555
H3 N4 1_555 1_555
H4 N6 1_555 1_555
H6 C2 1_555 1_555
H7 C2 1_555 1_555
H8 C3 1_555 1_555
H9 C3 1_555 1_555
H10 C3 1_555 1_555
H11 C4 1_555 1_555
H12 C4 1_555 1_555
H13 C4 1_555 1_555
H14 C7 1_555 1_555
H15 C8 1_555 1_555
H16 C9 1_555 1_555
H17 C13 1_555 1_555
H18 C14 1_555 1_555
H19 C16 1_555 1_555
H20 C17 1_555 1_555
H21 C20 1_555 1_555
H22 C21 1_555 1_555
H23 C22 1_555 1_555
H24 C26 1_555 1_555
H25 C26 1_555 1_555
H26 C26 1_555 1_555
H27 C27 1_555 1_555
H28 C27 1_555 1_555
H29 C27 1_555 1_555
H30 C28 1_555 1_555
H31 C28 1_555 1_555
H32 C28 1_555 1_555
O7 C29 1_555 1_555
N7 C29 1_555 1_555
C29 H33 1_555 1_555
C30 N7 1_555 1_555
C31 N7 1_555 1_555
H34 C30 1_555 1_555
H35 C30 1_555 1_555
H36 C30 1_555 1_555
H37 C31 1_555 1_555
H38 C31 1_555 1_555
H39 C31 1_555 1_555
O8 C32 1_555 1_555
N8 C32 1_555 1_555
C32 H40 1_555 1_555
C33 N8 1_555 1_555
C34 N8 1_555 1_555
H41 C33 1_555 1_555
H42 C33 1_555 1_555
H43 C33 1_555 1_555
H44 C34 1_555 1_555
H45 C34 1_555 1_555
H46 C34 1_555 1_555
C9 C10 1_555 1_555
C16 C17 1_555 1_555
C22 C23 1_555 1_555

#END
