
#######################################################################
#
#                 Cambridge Crystallographic Data Centre
#                                CCDC 
#
#######################################################################
#
# If this CIF has been generated from an entry in the Cambridge 
# Structural Database, then it will include bibliographic, chemical, 
# crystal, experimental, refinement or atomic coordinate data resulting 
# from the CCDC's data processing and validation procedures.
#
#######################################################################

data_HEZDUN
_chemical_formula_moiety         'C70 H68,3(C1 H2 Cl2)'
_chemical_name_systematic        
'9-(bis(4-t-butylphenyl)methylene)-10-(10-(bis(4-t-butylphenyl)methylene)anthracen-9(10H)-ylidene)-9,10-dihydroanthracene dichloromethane solvate'
_symmetry_cell_setting           triclinic
_symmetry_space_group_name_H-M   'P -1'
_symmetry_Int_Tables_number      2
_space_group_name_Hall           '-P 1'
loop_
_symmetry_equiv_pos_site_id
_symmetry_equiv_pos_as_xyz
1 x,y,z
2 -x,-y,-z
_cell_length_a                   11.7349(19)
_cell_length_b                   15.925(3)
_cell_length_c                   19.034(3)
_cell_angle_alpha                99.153(4)
_cell_angle_beta                 103.775(4)
_cell_angle_gamma                105.180(3)
_cell_volume                     3239.83
_exptl_crystal_colour            yellow
_exptl_crystal_description       Block
_cell_formula_units_Z            2
loop_
_atom_site_label
_atom_site_type_symbol
_atom_site_fract_x
_atom_site_fract_y
_atom_site_fract_z
C4 C 0.1962(10) 1.1015(8) 0.0677(8)
H10 H 0.1885 1.1541 0.0499
H11 H 0.2241 1.1169 0.1217
H12 H 0.1166 1.0551 0.0504
C5 C 0.4097(10) 1.1394(7) 0.0617(8)
H13 H 0.3974 1.1941 0.0501
H14 H 0.4641 1.1212 0.0356
H15 H 0.4465 1.1497 0.1149
C6 C 0.2397(14) 1.0416(9) -0.0461(6)
H16 H 0.2665 1.0936 -0.0657
H17 H 0.1501 1.0197 -0.0609
H18 H 0.2709 0.9950 -0.0655
C7 C 0.3140(3) 0.7358(3) 0.1281(2)
C8 C 0.2726(3) 0.6553(3) 0.0802(2)
C9 C 0.2296(4) 0.6416(3) -0.0022(2)
C10 C 0.2951(4) 0.6915(3) -0.0415(2)
H19 H 0.3666 0.7399 -0.0156
C11 C 0.2569(5) 0.6709(4) -0.1174(3)
H20 H 0.3028 0.7044 -0.1435
C12 C 0.1512(5) 0.6012(4) -0.1559(3)
H21 H 0.1255 0.5873 -0.2083
C13 C 0.0825(4) 0.5513(3) -0.1181(2)
H22 H 0.0097 0.5045 -0.1449
C14 C 0.1208(4) 0.5703(3) -0.0411(2)
C15 C 0.0613(4) 0.5147(2) 0.0046(2)
C16 C 0.1569(3) 0.4965(3) 0.0621(2)
C17 C 0.1476(4) 0.4116(3) 0.0746(2)
H23 H 0.0754 0.3635 0.0495
C18 C 0.2447(5) 0.3980(3) 0.1241(3)
H24 H 0.2385 0.3401 0.1314
C19 C 0.3494(5) 0.4674(3) 0.1626(3)
H25 H 0.4145 0.4573 0.1962
C20 C 0.3589(4) 0.5518(3) 0.1519(2)
H26 H 0.4304 0.5995 0.1792
C21 C 0.2637(3) 0.5683(3) 0.1008(2)
C22 C 0.3081(4) 0.8199(3) 0.1032(2)
C23 C 0.1964(4) 0.8312(3) 0.0704(3)
H27 H 0.1228 0.7843 0.0612
C24 C 0.1916(5) 0.9098(3) 0.0511(3)
H28 H 0.1137 0.9151 0.0295
C25 C 0.2946(5) 0.9814(3) 0.0616(3)
C26 C 0.4053(5) 0.9696(3) 0.0939(3)
H29 H 0.4787 1.0161 0.1017
C27 C 0.4129(5) 0.8924(3) 0.1154(3)
H30 H 0.4908 0.8885 0.1390
C28 C 0.2889(5) 1.0677(4) 0.0382(3)
C29 C 0.3556(3) 0.7480(3) 0.2106(2)
C30 C 0.2725(4) 0.7257(3) 0.2489(2)
H31 H 0.1881 0.7005 0.2227
C31 C 0.3095(4) 0.7393(4) 0.3258(3)
H32 H 0.2494 0.7228 0.3504
C32 C 0.4322(4) 0.7765(3) 0.3672(2)
C33 C 0.5150(4) 0.7983(4) 0.3279(3)
H33 H 0.5995 0.8229 0.3540
C34 C 0.4791(4) 0.7854(3) 0.2515(2)
H34 H 0.5390 0.8022 0.2268
C35 C 0.4766(5) 0.7960(3) 0.4526(2)
C36 C 0.5152(9) 0.8968(4) 0.4818(3)
H35 H 0.5925 0.9244 0.4725
H36 H 0.5258 0.9106 0.5349
H37 H 0.4519 0.9196 0.4567
C37 C 0.5823(6) 0.7583(4) 0.4777(3)
H38 H 0.6521 0.7882 0.4621
H39 H 0.5555 0.6946 0.4555
H40 H 0.6067 0.7683 0.5315
C38 C 0.3731(6) 0.7506(5) 0.4844(3)
H41 H 0.4079 0.7537 0.5367
H42 H 0.3351 0.6884 0.4574
H43 H 0.3112 0.7812 0.4789
C4A C -0.1962(10) -0.1015(8) -0.0677(8)
H10A H -0.1885 -0.1541 -0.0499
H11A H -0.2241 -0.1169 -0.1217
H12A H -0.1166 -0.0551 -0.0504
C5A C -0.4097(10) -0.1394(7) -0.0617(8)
H13A H -0.3974 -0.1941 -0.0501
H14A H -0.4641 -0.1212 -0.0356
H15A H -0.4465 -0.1497 -0.1149
C6A C -0.2397(14) -0.0416(9) 0.0461(6)
H16A H -0.2665 -0.0936 0.0657
H17A H -0.1501 -0.0197 0.0609
H18A H -0.2709 0.0050 0.0655
C7A C -0.3140(3) 0.2642(3) -0.1281(2)
C8A C -0.2726(3) 0.3447(3) -0.0802(2)
C9A C -0.2296(4) 0.3584(3) 0.0022(2)
C10A C -0.2951(4) 0.3085(3) 0.0415(2)
H19A H -0.3666 0.2601 0.0156
C11A C -0.2569(5) 0.3291(4) 0.1174(3)
H20A H -0.3028 0.2956 0.1435
C12A C -0.1512(5) 0.3988(4) 0.1559(3)
H21A H -0.1255 0.4127 0.2083
C13A C -0.0825(4) 0.4487(3) 0.1181(2)
H22A H -0.0097 0.4955 0.1449
C14A C -0.1208(4) 0.4297(3) 0.0411(2)
C15A C -0.0613(4) 0.4853(2) -0.0046(2)
C16A C -0.1569(3) 0.5035(3) -0.0621(2)
C17A C -0.1476(4) 0.5884(3) -0.0746(2)
H23A H -0.0754 0.6365 -0.0495
C18A C -0.2447(5) 0.6020(3) -0.1241(3)
H24A H -0.2385 0.6599 -0.1314
C19A C -0.3494(5) 0.5326(3) -0.1626(3)
H25A H -0.4145 0.5427 -0.1962
C20A C -0.3589(4) 0.4482(3) -0.1519(2)
H26A H -0.4304 0.4005 -0.1792
C21A C -0.2637(3) 0.4317(3) -0.1008(2)
C22A C -0.3081(4) 0.1801(3) -0.1032(2)
C23A C -0.1964(4) 0.1688(3) -0.0704(3)
H27A H -0.1228 0.2157 -0.0612
C24A C -0.1916(5) 0.0902(3) -0.0511(3)
H28A H -0.1137 0.0849 -0.0295
C25A C -0.2946(5) 0.0186(3) -0.0616(3)
C26A C -0.4053(5) 0.0304(3) -0.0939(3)
H29A H -0.4787 -0.0161 -0.1017
C27A C -0.4129(5) 0.1076(3) -0.1154(3)
H30A H -0.4908 0.1115 -0.1390
C28A C -0.2889(5) -0.0677(4) -0.0382(3)
C29A C -0.3556(3) 0.2520(3) -0.2106(2)
C30A C -0.2725(4) 0.2743(3) -0.2489(2)
H31A H -0.1881 0.2995 -0.2227
C31A C -0.3095(4) 0.2607(4) -0.3258(3)
H32A H -0.2494 0.2772 -0.3504
C32A C -0.4322(4) 0.2235(3) -0.3672(2)
C33A C -0.5150(4) 0.2017(4) -0.3279(3)
H33A H -0.5995 0.1771 -0.3540
C34A C -0.4791(4) 0.2146(3) -0.2515(2)
H34A H -0.5390 0.1978 -0.2268
C35A C -0.4766(5) 0.2040(3) -0.4526(2)
C36A C -0.5152(9) 0.1032(4) -0.4818(3)
H35A H -0.5925 0.0756 -0.4725
H36A H -0.5258 0.0894 -0.5349
H37A H -0.4519 0.0804 -0.4567
C37A C -0.5823(6) 0.2417(4) -0.4777(3)
H38A H -0.6521 0.2118 -0.4621
H39A H -0.5555 0.3054 -0.4555
H40A H -0.6067 0.2317 -0.5315
C38A C -0.3731(6) 0.2494(5) -0.4844(3)
H41A H -0.4079 0.2463 -0.5367
H42A H -0.3351 0.3116 -0.4574
H43A H -0.3112 0.2188 -0.4789
C39 C 0.9597(10) 0.7329(7) 0.7790(5)
H44 H 0.9230 0.6698 0.7782
H45 H 1.0169 0.7365 0.7487
Cl1 Cl 1.0371(4) 0.7933(3) 0.8689(3)
Cl2 Cl 0.8439(4) 0.7783(5) 0.7432(3)
C40 C 0.7469(10) 0.0358(6) 0.7337(8)
H46 H 0.7178 0.0643 0.7724
H47 H 0.7388 0.0669 0.6932
Cl3 Cl 0.6609(5) -0.0755(4) 0.7009(3)
Cl4 Cl 0.9023(7) 0.0418(6) 0.7706(5)
C41 C 0.9685(9) 0.1334(11) 0.5489(13)
H48 H 0.9699 0.1952 0.5657
H49 H 0.9629 0.1219 0.4958
Cl5 Cl 1.0988(5) 0.1148(4) 0.6005(5)
Cl6 Cl 0.8470(7) 0.0591(10) 0.5646(6)
C42 C 0.1478(4) 0.3925(3) 0.5454(2)
C43 C 0.2258(4) 0.4626(3) 0.5323(2)
C44 C 0.3291(4) 0.5329(3) 0.5904(2)
C45 C 0.3159(5) 0.5767(3) 0.6569(2)
H50 H 0.2399 0.5590 0.6672
C46 C 0.4123(5) 0.6448(4) 0.7066(3)
H51 H 0.4023 0.6728 0.7511
C47 C 0.5230(5) 0.6722(3) 0.6919(2)
H52 H 0.5886 0.7191 0.7264
C48 C 0.5390(4) 0.6314(3) 0.6267(2)
H53 H 0.6147 0.6515 0.6164
C49 C 0.4426(4) 0.5602(3) 0.5760(2)
C50 C 0.4519(3) 0.5142(2) 0.50437(19)
C51 C 0.3392(4) 0.5010(3) 0.4417(2)
C52 C 0.3447(4) 0.5206(3) 0.3734(2)
H54 H 0.4212 0.5378 0.3636
C53 C 0.2383(5) 0.5147(3) 0.3203(2)
H55 H 0.2421 0.5267 0.2740
C54 C 0.1264(5) 0.4913(3) 0.3351(2)
H56 H 0.0541 0.4881 0.2989
C55 C 0.1195(4) 0.4727(3) 0.4024(2)
H57 H 0.0427 0.4574 0.4119
C56 C 0.2248(4) 0.4763(3) 0.4563(2)
C57 C 0.0494(4) 0.3209(3) 0.4835(2)
C58 C -0.0725(4) 0.3197(3) 0.4628(3)
H58 H -0.0953 0.3659 0.4874
C59 C -0.1612(5) 0.2518(4) 0.4066(3)
H59 H -0.2429 0.2533 0.3935
C60 C -0.1337(5) 0.1819(4) 0.3692(3)
C61 C -0.0108(6) 0.1843(4) 0.3901(3)
H60 H 0.0128 0.1384 0.3660
C62 C 0.0778(5) 0.2536(4) 0.4461(3)
H61 H 0.1603 0.2537 0.4583
C63 C -0.2347(6) 0.1068(4) 0.3088(4)
C64 C -0.2997(12) 0.1438(7) 0.2532(6)
H62 H -0.2409 0.1814 0.2341
H63 H -0.3432 0.1794 0.2756
H64 H -0.3585 0.0955 0.2128
C65 C -0.1880(10) 0.0404(7) 0.2700(6)
H65 H -0.2560 -0.0034 0.2307
H66 H -0.1510 0.0104 0.3053
H67 H -0.1266 0.0709 0.2486
C66 C -0.3219(10) 0.0530(7) 0.3449(6)
H68 H -0.3678 0.0894 0.3635
H69 H -0.2744 0.0354 0.3859
H70 H -0.3789 -0.0001 0.3084
C67 C 0.1619(4) 0.3754(3) 0.6214(2)
C68 C 0.2701(4) 0.3680(3) 0.6626(3)
H71 H 0.3372 0.3748 0.6427
C69 C 0.2834(4) 0.3507(4) 0.7325(3)
H72 H 0.3595 0.3463 0.7590
C70 C 0.1877(4) 0.3395(3) 0.7648(3)
C71 C 0.0787(5) 0.3453(4) 0.7227(3)
H73 H 0.0110 0.3374 0.7421
C72 C 0.0654(4) 0.3624(4) 0.6530(3)
H74 H -0.0112 0.3653 0.6260
C73 C 0.2089(6) 0.3230(5) 0.8441(3)
C74 C 0.3034(7) 0.4110(7) 0.9001(4)
H75 H 0.2729 0.4611 0.8939
H76 H 0.3827 0.4219 0.8901
H77 H 0.3130 0.4040 0.9507
C75 C 0.0907(6) 0.3048(5) 0.8673(3)
H78 H 0.1083 0.2964 0.9177
H79 H 0.0295 0.2511 0.8338
H80 H 0.0593 0.3552 0.8653
C76 C 0.2574(10) 0.2438(7) 0.8464(5)
H81 H 0.3336 0.2560 0.8327
H82 H 0.1966 0.1908 0.8117
H83 H 0.2731 0.2339 0.8963
C42A C 0.8522(4) 0.6075(3) 0.4546(2)
C43A C 0.7742(4) 0.5374(3) 0.4677(2)
C44A C 0.6709(4) 0.4671(3) 0.4096(2)
C45A C 0.6841(5) 0.4233(3) 0.3431(2)
H50A H 0.7601 0.4410 0.3328
C46A C 0.5877(5) 0.3552(4) 0.2934(3)
H51A H 0.5977 0.3272 0.2489
C47A C 0.4770(5) 0.3278(3) 0.3081(2)
H52A H 0.4114 0.2809 0.2736
C48A C 0.4610(4) 0.3686(3) 0.3733(2)
H53A H 0.3853 0.3485 0.3836
C49A C 0.5574(4) 0.4398(3) 0.4240(2)
C50A C 0.5481(3) 0.4858(2) 0.49563(19)
C51A C 0.6608(4) 0.4990(3) 0.5583(2)
C52A C 0.6553(4) 0.4794(3) 0.6266(2)
H54A H 0.5788 0.4622 0.6364
C53A C 0.7617(5) 0.4853(3) 0.6797(2)
H55A H 0.7579 0.4733 0.7260
C54A C 0.8736(5) 0.5087(3) 0.6649(2)
H56A H 0.9459 0.5119 0.7011
C55A C 0.8805(4) 0.5273(3) 0.5976(2)
H57A H 0.9573 0.5426 0.5881
C56A C 0.7752(4) 0.5237(3) 0.5437(2)
C57A C 0.9506(4) 0.6791(3) 0.5165(2)
C58A C 1.0725(4) 0.6803(3) 0.5372(3)
H58A H 1.0953 0.6341 0.5126
C59A C 1.1612(5) 0.7482(4) 0.5934(3)
H59A H 1.2429 0.7467 0.6065
C60A C 1.1337(5) 0.8181(4) 0.6308(3)
C61A C 1.0108(6) 0.8157(4) 0.6099(3)
H60A H 0.9872 0.8616 0.6340
C62A C 0.9222(5) 0.7464(4) 0.5539(3)
H61A H 0.8397 0.7463 0.5417
C63A C 1.2347(6) 0.8932(4) 0.6912(4)
C64A C 1.2997(12) 0.8562(7) 0.7468(6)
H62A H 1.2409 0.8186 0.7659
H63A H 1.3432 0.8206 0.7244
H64A H 1.3585 0.9045 0.7872
C65A C 1.1880(10) 0.9596(7) 0.7300(6)
H65A H 1.2560 1.0034 0.7693
H66A H 1.1510 0.9896 0.6947
H67A H 1.1266 0.9291 0.7514
C66A C 1.3219(10) 0.9470(7) 0.6551(6)
H68A H 1.3678 0.9106 0.6365
H69A H 1.2744 0.9646 0.6141
H70A H 1.3789 1.0001 0.6916
C67A C 0.8381(4) 0.6246(3) 0.3786(2)
C68A C 0.7299(4) 0.6320(3) 0.3374(3)
H71A H 0.6628 0.6252 0.3573
C69A C 0.7166(4) 0.6493(4) 0.2675(3)
H72A H 0.6405 0.6537 0.2410
C70A C 0.8123(4) 0.6605(3) 0.2352(3)
C71A C 0.9213(5) 0.6547(4) 0.2773(3)
H73A H 0.9890 0.6626 0.2579
C72A C 0.9346(4) 0.6376(4) 0.3470(3)
H74A H 1.0112 0.6347 0.3740
C73A C 0.7911(6) 0.6770(5) 0.1559(3)
C74A C 0.6966(7) 0.5890(7) 0.0999(4)
H75A H 0.7271 0.5389 0.1061
H76A H 0.6173 0.5781 0.1099
H77A H 0.6870 0.5960 0.0493
C75A C 0.9093(6) 0.6952(5) 0.1327(3)
H78A H 0.8917 0.7036 0.0823
H79A H 0.9705 0.7489 0.1662
H80A H 0.9407 0.6448 0.1347
C76A C 0.7426(10) 0.7562(7) 0.1536(5)
H81A H 0.6664 0.7440 0.1673
H82A H 0.8034 0.8092 0.1883
H83A H 0.7269 0.7661 0.1037
C1? C 0.1640(9) 1.0737(12) 0.0083(8)
H1? H 0.1275 1.0375 -0.0423
H2? H 0.1693 1.1356 0.0086
H3? H 0.1130 1.0521 0.0390
C2? C 0.3592(13) 1.1447(12) 0.1079(7)
H4? H 0.3662 1.2016 0.0944
H5? H 0.4411 1.1408 0.1286
H6? H 0.3145 1.1401 0.1447
C3? C 0.3609(12) 1.0824(12) -0.0179(8)
H7? H 0.3205 1.0352 -0.0630
H8? H 0.4443 1.0816 0.0030
H9? H 0.3637 1.1399 -0.0295
loop_
_geom_bond_atom_site_label_1
_geom_bond_atom_site_label_2
_geom_bond_site_symmetry_1
_geom_bond_site_symmetry_2
C4 H10 1_555 1_555
H11 C4 1_555 1_555
H12 C4 1_555 1_555
C5 H13 1_555 1_555
H14 C5 1_555 1_555
H15 C5 1_555 1_555
C6 H16 1_555 1_555
H17 C6 1_555 1_555
H18 C6 1_555 1_555
C7 C8 1_555 1_555
C8 C9 1_555 1_555
C9 C10 1_555 1_555
C10 H19 1_555 1_555
C11 C10 1_555 1_555
H20 C11 1_555 1_555
C12 C11 1_555 1_555
H21 C12 1_555 1_555
C13 C12 1_555 1_555
H22 C13 1_555 1_555
C14 C9 1_555 1_555
C15 C14 1_555 1_555
C16 C15 1_555 1_555
C17 C16 1_555 1_555
H23 C17 1_555 1_555
C18 C17 1_555 1_555
H24 C18 1_555 1_555
C19 C18 1_555 1_555
H25 C19 1_555 1_555
C20 C19 1_555 1_555
H26 C20 1_555 1_555
C21 C8 1_555 1_555
C22 C7 1_555 1_555
C23 C22 1_555 1_555
H27 C23 1_555 1_555
C24 C23 1_555 1_555
H28 C24 1_555 1_555
C25 C24 1_555 1_555
C26 C25 1_555 1_555
H29 C26 1_555 1_555
C27 C22 1_555 1_555
H30 C27 1_555 1_555
C28 C4 1_555 1_555
C29 C7 1_555 1_555
C30 C29 1_555 1_555
H31 C30 1_555 1_555
C31 C30 1_555 1_555
H32 C31 1_555 1_555
C32 C31 1_555 1_555
C33 C32 1_555 1_555
H33 C33 1_555 1_555
C34 C29 1_555 1_555
H34 C34 1_555 1_555
C35 C32 1_555 1_555
C36 C35 1_555 1_555
H35 C36 1_555 1_555
H36 C36 1_555 1_555
H37 C36 1_555 1_555
C37 C35 1_555 1_555
H38 C37 1_555 1_555
H39 C37 1_555 1_555
H40 C37 1_555 1_555
C38 C35 1_555 1_555
H41 C38 1_555 1_555
H42 C38 1_555 1_555
H43 C38 1_555 1_555
C39 H44 1_555 1_555
H45 C39 1_555 1_555
Cl1 C39 1_555 1_555
Cl2 C39 1_555 1_555
C40 H46 1_555 1_555
H47 C40 1_555 1_555
Cl3 C40 1_555 1_555
Cl4 C40 1_555 1_555
C41 H48 1_555 1_555
H49 C41 1_555 1_555
Cl5 C41 1_555 1_555
Cl6 C41 1_555 1_555
C42 C43 1_555 1_555
C43 C44 1_555 1_555
C44 C45 1_555 1_555
C45 H50 1_555 1_555
C46 C45 1_555 1_555
H51 C46 1_555 1_555
C47 C46 1_555 1_555
H52 C47 1_555 1_555
C48 C47 1_555 1_555
H53 C48 1_555 1_555
C49 C44 1_555 1_555
C50 C49 1_555 1_555
C51 C50 1_555 1_555
C52 C51 1_555 1_555
H54 C52 1_555 1_555
C53 C52 1_555 1_555
H55 C53 1_555 1_555
C54 C53 1_555 1_555
H56 C54 1_555 1_555
C55 C54 1_555 1_555
H57 C55 1_555 1_555
C56 C43 1_555 1_555
C57 C42 1_555 1_555
C58 C57 1_555 1_555
H58 C58 1_555 1_555
C59 C58 1_555 1_555
H59 C59 1_555 1_555
C60 C59 1_555 1_555
C61 C60 1_555 1_555
H60 C61 1_555 1_555
C62 C57 1_555 1_555
H61 C62 1_555 1_555
C63 C60 1_555 1_555
C64 C63 1_555 1_555
H62 C64 1_555 1_555
H63 C64 1_555 1_555
H64 C64 1_555 1_555
C65 C63 1_555 1_555
H65 C65 1_555 1_555
H66 C65 1_555 1_555
H67 C65 1_555 1_555
C66 C63 1_555 1_555
H68 C66 1_555 1_555
H69 C66 1_555 1_555
H70 C66 1_555 1_555
C67 C42 1_555 1_555
C68 C67 1_555 1_555
H71 C68 1_555 1_555
C69 C68 1_555 1_555
H72 C69 1_555 1_555
C70 C69 1_555 1_555
C71 C70 1_555 1_555
H73 C71 1_555 1_555
C72 C67 1_555 1_555
H74 C72 1_555 1_555
C73 C70 1_555 1_555
C74 C73 1_555 1_555
H75 C74 1_555 1_555
H76 C74 1_555 1_555
H77 C74 1_555 1_555
C75 C73 1_555 1_555
H78 C75 1_555 1_555
H79 C75 1_555 1_555
H80 C75 1_555 1_555
C76 C73 1_555 1_555
H81 C76 1_555 1_555
H82 C76 1_555 1_555
H83 C76 1_555 1_555
C4A H10A 1_555 1_555
H11A C4A 1_555 1_555
H12A C4A 1_555 1_555
C5A H13A 1_555 1_555
H14A C5A 1_555 1_555
H15A C5A 1_555 1_555
C6A H16A 1_555 1_555
H17A C6A 1_555 1_555
H18A C6A 1_555 1_555
C7A C8A 1_555 1_555
C8A C9A 1_555 1_555
C9A C10A 1_555 1_555
C10A H19A 1_555 1_555
C11A C10A 1_555 1_555
H20A C11A 1_555 1_555
C12A C11A 1_555 1_555
H21A C12A 1_555 1_555
C13A C12A 1_555 1_555
H22A C13A 1_555 1_555
C14A C9A 1_555 1_555
C15A C15 1_555 1_555
C16A C15A 1_555 1_555
C17A C16A 1_555 1_555
H23A C17A 1_555 1_555
C18A C17A 1_555 1_555
H24A C18A 1_555 1_555
C19A C18A 1_555 1_555
H25A C19A 1_555 1_555
C20A C19A 1_555 1_555
H26A C20A 1_555 1_555
C21A C8A 1_555 1_555
C22A C7A 1_555 1_555
C23A C22A 1_555 1_555
H27A C23A 1_555 1_555
C24A C23A 1_555 1_555
H28A C24A 1_555 1_555
C25A C24A 1_555 1_555
C26A C25A 1_555 1_555
H29A C26A 1_555 1_555
C27A C22A 1_555 1_555
H30A C27A 1_555 1_555
C28A C4A 1_555 1_555
C29A C7A 1_555 1_555
C30A C29A 1_555 1_555
H31A C30A 1_555 1_555
C31A C30A 1_555 1_555
H32A C31A 1_555 1_555
C32A C31A 1_555 1_555
C33A C32A 1_555 1_555
H33A C33A 1_555 1_555
C34A C29A 1_555 1_555
H34A C34A 1_555 1_555
C35A C32A 1_555 1_555
C36A C35A 1_555 1_555
H35A C36A 1_555 1_555
H36A C36A 1_555 1_555
H37A C36A 1_555 1_555
C37A C35A 1_555 1_555
H38A C37A 1_555 1_555
H39A C37A 1_555 1_555
H40A C37A 1_555 1_555
C38A C35A 1_555 1_555
H41A C38A 1_555 1_555
H42A C38A 1_555 1_555
H43A C38A 1_555 1_555
C42A C43A 1_555 1_555
C43A C44A 1_555 1_555
C44A C45A 1_555 1_555
C45A H50A 1_555 1_555
C46A C45A 1_555 1_555
H51A C46A 1_555 1_555
C47A C46A 1_555 1_555
H52A C47A 1_555 1_555
C48A C47A 1_555 1_555
H53A C48A 1_555 1_555
C49A C44A 1_555 1_555
C50A C50 1_555 1_555
C51A C50A 1_555 1_555
C52A C51A 1_555 1_555
H54A C52A 1_555 1_555
C53A C52A 1_555 1_555
H55A C53A 1_555 1_555
C54A C53A 1_555 1_555
H56A C54A 1_555 1_555
C55A C54A 1_555 1_555
H57A C55A 1_555 1_555
C56A C43A 1_555 1_555
C57A C42A 1_555 1_555
C58A C57A 1_555 1_555
H58A C58A 1_555 1_555
C59A C58A 1_555 1_555
H59A C59A 1_555 1_555
C60A C59A 1_555 1_555
C61A C60A 1_555 1_555
H60A C61A 1_555 1_555
C62A C57A 1_555 1_555
H61A C62A 1_555 1_555
C63A C60A 1_555 1_555
C64A C63A 1_555 1_555
H62A C64A 1_555 1_555
H63A C64A 1_555 1_555
H64A C64A 1_555 1_555
C65A C63A 1_555 1_555
H65A C65A 1_555 1_555
H66A C65A 1_555 1_555
H67A C65A 1_555 1_555
C66A C63A 1_555 1_555
H68A C66A 1_555 1_555
H69A C66A 1_555 1_555
H70A C66A 1_555 1_555
C67A C42A 1_555 1_555
C68A C67A 1_555 1_555
H71A C68A 1_555 1_555
C69A C68A 1_555 1_555
H72A C69A 1_555 1_555
C70A C69A 1_555 1_555
C71A C70A 1_555 1_555
H73A C71A 1_555 1_555
C72A C67A 1_555 1_555
H74A C72A 1_555 1_555
C73A C70A 1_555 1_555
C74A C73A 1_555 1_555
H75A C74A 1_555 1_555
H76A C74A 1_555 1_555
H77A C74A 1_555 1_555
C75A C73A 1_555 1_555
H78A C75A 1_555 1_555
H79A C75A 1_555 1_555
H80A C75A 1_555 1_555
C76A C73A 1_555 1_555
H81A C76A 1_555 1_555
H82A C76A 1_555 1_555
H83A C76A 1_555 1_555
C5 C28 1_555 1_555
C6 C28 1_555 1_555
C13 C14 1_555 1_555
C16 C21 1_555 1_555
C20 C21 1_555 1_555
C25 C28 1_555 1_555
C26 C27 1_555 1_555
C33 C34 1_555 1_555
C48 C49 1_555 1_555
C51 C56 1_555 1_555
C55 C56 1_555 1_555
C61 C62 1_555 1_555
C71 C72 1_555 1_555
C5A C28A 1_555 1_555
C6A C28A 1_555 1_555
C13A C14A 1_555 1_555
C14A C15A 1_555 1_555
C16A C21A 1_555 1_555
C20A C21A 1_555 1_555
C25A C28A 1_555 1_555
C26A C27A 1_555 1_555
C33A C34A 1_555 1_555
C48A C49A 1_555 1_555
C49A C50A 1_555 1_555
C51A C56A 1_555 1_555
C55A C56A 1_555 1_555
C61A C62A 1_555 1_555
C71A C72A 1_555 1_555

#END
