
#######################################################################
#
#                 Cambridge Crystallographic Data Centre
#                                CCDC 
#
#######################################################################
#
# If this CIF has been generated from an entry in the Cambridge 
# Structural Database, then it will include bibliographic, chemical, 
# crystal, experimental, refinement or atomic coordinate data resulting 
# from the CCDC's data processing and validation procedures.
#
#######################################################################

data_HEZNAE
_chemical_formula_moiety         'C15 H13 F2 N3 O3'
_chemical_name_systematic        
'ethyl 2-(difluoromethyl)-6-methyl-5-oxo-5,6-dihydropyrazolo[1,5-c]quinazoline-1-carboxylate'
_symmetry_cell_setting           monoclinic
_symmetry_space_group_name_H-M   'P 21/c'
_symmetry_Int_Tables_number      14
_space_group_name_Hall           '-P 2ybc'
loop_
_symmetry_equiv_pos_site_id
_symmetry_equiv_pos_as_xyz
1 x,y,z
2 -x,1/2+y,1/2-z
3 -x,-y,-z
4 x,1/2-y,1/2+z
_cell_length_a                   11.2544(15)
_cell_length_b                   17.5322(14)
_cell_length_c                   7.5684(10)
_cell_angle_alpha                90
_cell_angle_beta                 108.024(13)
_cell_angle_gamma                90
_cell_volume                     1420.07
_exptl_crystal_colour            colorless
_exptl_crystal_description       block
_cell_formula_units_Z            4
loop_
_atom_site_label
_atom_site_type_symbol
_atom_site_fract_x
_atom_site_fract_y
_atom_site_fract_z
F1 F 0.00226(17) 0.12260(10) 0.1520(2)
F2 F -0.04206(16) 0.21045(11) 0.3216(2)
O1 O 0.11101(18) 0.34441(9) 0.3114(3)
O2 O 0.3077(2) 0.37967(11) 0.4485(3)
O3 O 0.3716(2) 0.00816(11) 0.5916(3)
N1 N 0.3323(2) 0.13509(11) 0.5353(3)
N2 N 0.5210(2) 0.09499(12) 0.7420(3)
N3 N 0.2166(2) 0.11971(11) 0.4132(3)
C1 C 0.2298(3) 0.33016(15) 0.4061(3)
C2 C 0.1690(3) 0.18798(14) 0.3600(3)
C3 C 0.2520(2) 0.24847(13) 0.4434(3)
C4 C 0.5574(3) 0.17121(14) 0.7802(3)
C5 C 0.4780(2) 0.23138(13) 0.6924(3)
C6 C 0.5173(3) 0.30657(14) 0.7380(3)
H1 H 0.465613 0.346686 0.680664
C7 C 0.6315(3) 0.32197(16) 0.8669(4)
H2 H 0.656541 0.372127 0.896966
C8 C 0.3585(2) 0.21193(13) 0.5594(3)
C9 C 0.7081(3) 0.26260(15) 0.9505(4)
H3 H 0.785135 0.273145 1.037196
C10 C 0.6733(3) 0.18823(15) 0.9088(4)
H4 H 0.726937 0.148971 0.966305
C11 C 0.0765(3) 0.42465(14) 0.2712(4)
H5 H 0.121471 0.446174 0.192502
H6 H 0.097096 0.453804 0.385677
C12 C 0.4085(3) 0.07309(15) 0.6235(4)
C13 C 0.0393(3) 0.19215(16) 0.2272(4)
H7 H 0.034854 0.229756 0.129512
C14 C -0.0608(3) 0.42738(18) 0.1748(5)
H8 H -0.078779 0.404105 0.054592
H9 H -0.088145 0.479518 0.160786
H10 H -0.103710 0.400278 0.247041
C15 C 0.6040(3) 0.03262(16) 0.8391(5)
H11 H 0.563580 -0.015522 0.800883
H12 H 0.621701 0.038481 0.970805
H13 H 0.680657 0.034379 0.808553
loop_
_geom_bond_atom_site_label_1
_geom_bond_atom_site_label_2
_geom_bond_site_symmetry_1
_geom_bond_site_symmetry_2
F1 C13 1_555 1_555
F2 C13 1_555 1_555
O1 C1 1_555 1_555
O2 C1 1_555 1_555
O3 C12 1_555 1_555
N1 N3 1_555 1_555
N2 C4 1_555 1_555
N3 C2 1_555 1_555
C1 C3 1_555 1_555
C2 C3 1_555 1_555
C3 C8 1_555 1_555
C4 C5 1_555 1_555
C5 C6 1_555 1_555
C6 H1 1_555 1_555
C7 C6 1_555 1_555
H2 C7 1_555 1_555
C8 N1 1_555 1_555
C9 C7 1_555 1_555
H3 C9 1_555 1_555
C10 C4 1_555 1_555
H4 C10 1_555 1_555
C11 O1 1_555 1_555
H5 C11 1_555 1_555
H6 C11 1_555 1_555
C12 N1 1_555 1_555
C13 C2 1_555 1_555
H7 C13 1_555 1_555
C14 C11 1_555 1_555
H8 C14 1_555 1_555
H9 C14 1_555 1_555
H10 C14 1_555 1_555
C15 N2 1_555 1_555
H11 C15 1_555 1_555
H12 C15 1_555 1_555
H13 C15 1_555 1_555
N2 C12 1_555 1_555
C5 C8 1_555 1_555
C9 C10 1_555 1_555

#END
