
#######################################################################
#
#                 Cambridge Crystallographic Data Centre
#                                CCDC 
#
#######################################################################
#
# If this CIF has been generated from an entry in the Cambridge 
# Structural Database, then it will include bibliographic, chemical, 
# crystal, experimental, refinement or atomic coordinate data resulting 
# from the CCDC's data processing and validation procedures.
#
#######################################################################

data_HIBZUQ
_chemical_formula_moiety         'C8 H20 N1 1+,C8 H16 B11 I1 N1 O1 1-'
_chemical_name_systematic        
'bis(tetraethylammonium) ((4-iodophenyl)amino)(1-carba-closo-dodecaboranid-1-yl)methanone'
_symmetry_cell_setting           triclinic
_symmetry_space_group_name_H-M   'P -1'
_symmetry_Int_Tables_number      2
_space_group_name_Hall           '-P 1'
loop_
_symmetry_equiv_pos_site_id
_symmetry_equiv_pos_as_xyz
1 x,y,z
2 -x,-y,-z
_cell_length_a                   9.1861(5)
_cell_length_b                   11.3166(6)
_cell_length_c                   13.6234(6)
_cell_angle_alpha                71.718(3)
_cell_angle_beta                 83.920(4)
_cell_angle_gamma                72.759(4)
_cell_volume                     1284.19
_exptl_crystal_colour            colorless
_exptl_crystal_description       block
_cell_formula_units_Z            2
loop_
_atom_site_label
_atom_site_type_symbol
_atom_site_fract_x
_atom_site_fract_y
_atom_site_fract_z
I1 I 0.70611(5) 0.80871(5) 0.06077(3)
O1 O 0.3526(6) 0.6122(4) 0.5532(4)
N1 N 0.3644(6) 0.8200(5) 0.4846(4)
H1 H 0.339308 0.895707 0.496384
C1 C 0.2322(7) 0.7617(5) 0.6479(4)
C2 C 0.3208(7) 0.7232(6) 0.5579(4)
C3 C 0.4462(7) 0.8126(6) 0.3907(4)
C4 C 0.4323(7) 0.9285(6) 0.3113(5)
H2 H 0.370514 1.007756 0.321141
C5 C 0.5091(8) 0.9278(6) 0.2178(5)
H3 H 0.501405 1.006587 0.163861
C6 C 0.5968(7) 0.8114(6) 0.2037(5)
C7 C 0.6148(7) 0.6972(6) 0.2835(4)
H4 H 0.679397 0.618565 0.274214
C8 C 0.5387(7) 0.6969(6) 0.3774(4)
H5 H 0.549990 0.618186 0.431914
B1 B 0.3200(9) 0.8092(7) 0.7291(5)
H6 H 0.438879 0.818981 0.717609
B2 B 0.1703(8) 0.9212(7) 0.6476(5)
H7 H 0.190595 1.004706 0.582730
B3 B 0.0412(8) 0.8353(7) 0.6351(5)
H8 H -0.022710 0.861449 0.562212
B4 B 0.1111(8) 0.6728(7) 0.7115(5)
H9 H 0.092607 0.591518 0.688821
B5 B 0.2830(8) 0.6544(7) 0.7690(5)
H10 H 0.377546 0.562023 0.783779
B6 B 0.1714(8) 0.9165(7) 0.7789(5)
H11 H 0.191515 0.997191 0.801790
B7 B -0.0031(8) 0.9346(7) 0.7205(6)
H12 H -0.098091 1.026711 0.704603
B8 B -0.0387(9) 0.7799(7) 0.7597(6)
H13 H -0.157807 0.770575 0.769618
B9 B 0.1107(8) 0.6677(7) 0.8428(5)
H14 H 0.089821 0.584499 0.907693
B10 B 0.2416(9) 0.7504(8) 0.8532(5)
H15 H 0.308866 0.720748 0.925131
B11 B 0.0432(9) 0.8294(8) 0.8484(6)
H16 H -0.021536 0.853010 0.917384
N2 N 0.8153(6) 0.3952(5) 0.7562(4)
C9 C 0.7102(7) 0.4951(6) 0.6731(4)
H17 H 0.698672 0.453895 0.621282
H18 H 0.608518 0.522071 0.704806
C10 C 0.7605(9) 0.6144(7) 0.6180(5)
H19 H 0.681875 0.675925 0.569208
H20 H 0.856082 0.590472 0.580201
H21 H 0.776206 0.654724 0.668537
C11 C 0.9721(7) 0.3468(6) 0.7127(5)
H22 H 1.034866 0.277832 0.768949
H23 H 1.019881 0.418970 0.690137
C12 C 0.9771(9) 0.2940(8) 0.6229(6)
H24 H 0.921173 0.228389 0.641604
H25 H 1.083378 0.254672 0.606308
H26 H 0.930123 0.364725 0.562547
C13 C 0.7407(8) 0.2849(6) 0.8024(5)
H27 H 0.640972 0.320066 0.833146
H28 H 0.720510 0.255154 0.745493
C14 C 0.8308(9) 0.1692(7) 0.8835(5)
H29 H 0.928627 0.131209 0.853710
H30 H 0.773428 0.104703 0.908041
H31 H 0.849070 0.196408 0.941590
C15 C 0.8359(8) 0.4537(6) 0.8399(5)
H32 H 0.896930 0.383606 0.896408
H33 H 0.895198 0.517121 0.809636
C16 C 0.6905(9) 0.5200(7) 0.8856(5)
H34 H 0.635802 0.597451 0.832649
H35 H 0.714216 0.545104 0.943355
H36 H 0.626517 0.460623 0.910663
loop_
_geom_bond_atom_site_label_1
_geom_bond_atom_site_label_2
_geom_bond_site_symmetry_1
_geom_bond_site_symmetry_2
I1 C6 1_555 1_555
O1 C2 1_555 1_555
N1 H1 1_555 1_555
C1 C2 1_555 1_555
C2 N1 1_555 1_555
C3 N1 1_555 1_555
C4 C3 1_555 1_555
H2 C4 1_555 1_555
C5 C4 1_555 1_555
H3 C5 1_555 1_555
C6 C5 1_555 1_555
C7 C6 1_555 1_555
H4 C7 1_555 1_555
C8 C3 1_555 1_555
H5 C8 1_555 1_555
B1 C1 1_555 1_555
H6 B1 1_555 1_555
B2 C1 1_555 1_555
H7 B2 1_555 1_555
B3 C1 1_555 1_555
H8 B3 1_555 1_555
B4 C1 1_555 1_555
H9 B4 1_555 1_555
B5 C1 1_555 1_555
H10 B5 1_555 1_555
B6 B1 1_555 1_555
H11 B6 1_555 1_555
B7 B2 1_555 1_555
H12 B7 1_555 1_555
B8 B3 1_555 1_555
H13 B8 1_555 1_555
B9 B4 1_555 1_555
H14 B9 1_555 1_555
B10 B1 1_555 1_555
H15 B10 1_555 1_555
B11 B6 1_555 1_555
H16 B11 1_555 1_555
N2 C9 1_555 1_555
C9 H17 1_555 1_555
H18 C9 1_555 1_555
C10 C9 1_555 1_555
H19 C10 1_555 1_555
H20 C10 1_555 1_555
H21 C10 1_555 1_555
C11 N2 1_555 1_555
H22 C11 1_555 1_555
H23 C11 1_555 1_555
C12 C11 1_555 1_555
H24 C12 1_555 1_555
H25 C12 1_555 1_555
H26 C12 1_555 1_555
C13 N2 1_555 1_555
H27 C13 1_555 1_555
H28 C13 1_555 1_555
C14 C13 1_555 1_555
H29 C14 1_555 1_555
H30 C14 1_555 1_555
H31 C14 1_555 1_555
C15 N2 1_555 1_555
H32 C15 1_555 1_555
H33 C15 1_555 1_555
C16 C15 1_555 1_555
H34 C16 1_555 1_555
H35 C16 1_555 1_555
H36 C16 1_555 1_555
C7 C8 1_555 1_555
B1 B2 1_555 1_555
B1 B5 1_555 1_555
B2 B3 1_555 1_555
B2 B6 1_555 1_555
B3 B4 1_555 1_555
B3 B7 1_555 1_555
B4 B5 1_555 1_555
B4 B8 1_555 1_555
B5 B9 1_555 1_555
B5 B10 1_555 1_555
B6 B7 1_555 1_555
B6 B10 1_555 1_555
B7 B8 1_555 1_555
B7 B11 1_555 1_555
B8 B9 1_555 1_555
B8 B11 1_555 1_555
B9 B10 1_555 1_555
B9 B11 1_555 1_555
B10 B11 1_555 1_555

#END
