
#######################################################################
#
#                 Cambridge Crystallographic Data Centre
#                                CCDC 
#
#######################################################################
#
# If this CIF has been generated from an entry in the Cambridge 
# Structural Database, then it will include bibliographic, chemical, 
# crystal, experimental, refinement or atomic coordinate data resulting 
# from the CCDC's data processing and validation procedures.
#
#######################################################################

data_HICGIM
_chemical_formula_moiety         'C54 H42 N2 S2'
_chemical_name_systematic        
2,7-di-t-butyl-9,16-diphenyl-12,13-bis(thiophen-2-yl)benzo[8,9]triphenyleno[2,3-g]quinoxaline
_symmetry_cell_setting           monoclinic
_symmetry_space_group_name_H-M   'P 21/c'
_symmetry_Int_Tables_number      14
_space_group_name_Hall           '-P 2ybc'
loop_
_symmetry_equiv_pos_site_id
_symmetry_equiv_pos_as_xyz
1 x,y,z
2 -x,1/2+y,1/2-z
3 -x,-y,-z
4 x,1/2-y,1/2+z
_cell_length_a                   6.1060(6)
_cell_length_b                   23.980(2)
_cell_length_c                   28.310(3)
_cell_angle_alpha                90
_cell_angle_beta                 90.530(2)
_cell_angle_gamma                90
_cell_volume                     4145.03
_exptl_crystal_colour            red
_exptl_crystal_description       BLOCK
_cell_formula_units_Z            4
loop_
_atom_site_label
_atom_site_type_symbol
_atom_site_fract_x
_atom_site_fract_y
_atom_site_fract_z
N1 N -0.1394(6) 0.61882(13) 0.27667(10)
N2 N -0.0021(6) 0.60325(13) 0.37172(11)
S1 S -0.5081(9) 0.6772(2) 0.23900(16)
S2 S -0.160(2) 0.7261(6) 0.4228(5)
C1 C -0.2450(7) 0.64318(15) 0.31200(14)
C2 C -0.1680(7) 0.63632(16) 0.36081(13)
C3 C -0.4387(7) 0.67653(17) 0.29765(15)
C4 C -0.599(4) 0.7081(10) 0.3221(7)
H1 H -0.5974 0.7117 0.3548
C5 C -0.7587(8) 0.73318(19) 0.29365(19)
H2 H -0.8687 0.7568 0.3041
C6 C -0.7273(8) 0.7175(2) 0.24831(19)
H3 H -0.8213 0.7283 0.2240
C7 C -0.2627(8) 0.6662(2) 0.40112(15)
C8 C -0.442(7) 0.6547(14) 0.4292(16)
H4 H -0.5223 0.6225 0.4236
C9 C -0.502(14) 0.689(3) 0.465(3)
H5 H -0.6214 0.6850 0.4847
C10 C -0.355(9) 0.732(2) 0.4656(13)
H6 H -0.3593 0.7610 0.4872
C11 C 0.0342(7) 0.58381(16) 0.28749(13)
C12 C 0.1513(7) 0.55786(16) 0.25151(14)
H7 H 0.1195 0.5670 0.2203
C13 C 0.3161(7) 0.51837(15) 0.26118(13)
C14 C 0.4502(6) 0.49397(16) 0.22436(12)
C15 C 0.5940(6) 0.45012(15) 0.23493(12)
C16 C 0.7365(6) 0.42367(15) 0.19831(12)
C17 C 0.6914(7) 0.42613(15) 0.14961(13)
H8 H 0.5628 0.4433 0.1394
C18 C 0.8342(7) 0.40347(16) 0.11536(12)
C19 C 1.0258(7) 0.37908(17) 0.13039(13)
H9 H 1.1271 0.3674 0.1081
C20 C 1.0725(7) 0.37129(15) 0.17889(13)
C21 C 1.2609(7) 0.33979(16) 0.19415(14)
H10 H 1.3692 0.3310 0.1725
C22 C 1.2831(7) 0.32253(16) 0.24010(14)
H11 H 1.4062 0.3024 0.2495
C23 C 1.1145(6) 0.33574(15) 0.27409(13)
C24 C 1.1087(7) 0.30756(15) 0.31777(13)
H12 H 1.2269 0.2854 0.3269
C25 C 0.9290(7) 0.31221(15) 0.34762(13)
C26 C 0.7691(7) 0.35255(15) 0.33514(13)
H13 H 0.6502 0.3571 0.3551
C27 C 0.7785(6) 0.38574(15) 0.29511(12)
C28 C 0.6225(6) 0.43187(15) 0.28439(12)
C29 C 0.5176(6) 0.46096(15) 0.32063(12)
C30 C 0.3638(6) 0.50469(15) 0.30992(13)
C31 C 0.2606(6) 0.53583(15) 0.34562(13)
H14 H 0.3024 0.5302 0.3769
C32 C 0.0973(7) 0.57489(15) 0.33527(13)
C33 C 0.9221(6) 0.39215(15) 0.21355(12)
C34 C 0.9449(6) 0.37343(15) 0.26145(13)
C35 C 0.4380(7) 0.52367(15) 0.17774(12)
C36 C 0.2537(7) 0.52004(17) 0.14752(14)
H15 H 0.1403 0.4956 0.1547
C37 C 0.2408(9) 0.5527(2) 0.10720(15)
H16 H 0.1186 0.5504 0.0875
C38 C 0.4094(11) 0.5889(2) 0.09631(16)
H17 H 0.4005 0.6108 0.0692
C39 C 0.5889(10) 0.59245(18) 0.12530(16)
H18 H 0.7018 0.6168 0.1178
C40 C 0.6048(7) 0.56015(17) 0.16583(14)
H19 H 0.7283 0.5630 0.1852
C41 C 0.5639(7) 0.45218(15) 0.37260(13)
C42 C 0.4061(7) 0.42899(16) 0.40262(14)
H20 H 0.2740 0.4161 0.3902
C43 C 0.4478(9) 0.4253(2) 0.45089(16)
H21 H 0.3445 0.4092 0.4706
C44 C 0.6436(10) 0.4457(2) 0.46988(15)
H22 H 0.6705 0.4438 0.5022
C45 C 0.7942(9) 0.46822(19) 0.44071(17)
H23 H 0.9244 0.4819 0.4535
C46 C 0.7590(7) 0.47145(17) 0.39222(14)
H24 H 0.8662 0.4865 0.3729
C47 C 0.7714(8) 0.40589(19) 0.06210(14)
C48 C 0.638(3) 0.3539(8) 0.0519(4)
H25 H 0.5731 0.3566 0.0209
H26 H 0.5239 0.3504 0.0749
H27 H 0.7310 0.3217 0.0533
C49 C 0.978(2) 0.4054(11) 0.0308(3)
H28 H 0.9369 0.4120 -0.0015
H29 H 1.0494 0.3697 0.0334
H30 H 1.0774 0.4341 0.0412
C50 C 0.638(4) 0.4572(8) 0.0488(6)
H31 H 0.7148 0.4901 0.0588
H32 H 0.4982 0.4556 0.0639
H33 H 0.6171 0.4582 0.0151
C51 C 0.9022(7) 0.27713(17) 0.39260(13)
C52 C 0.6632(8) 0.2610(2) 0.39973(17)
H34 H 0.5767 0.2940 0.4036
H35 H 0.6513 0.2380 0.4274
H36 H 0.6112 0.2406 0.3727
C53 C 1.0354(9) 0.2232(2) 0.38979(16)
H37 H 0.9854 0.2015 0.3633
H38 H 1.0167 0.2021 0.4183
H39 H 1.1875 0.2320 0.3860
C54 C 0.9822(11) 0.3110(2) 0.43545(16)
H40 H 1.1373 0.3169 0.4333
H41 H 0.9506 0.2910 0.4639
H42 H 0.9086 0.3464 0.4359
S3? S -0.586(6) 0.7153(14) 0.3350(10)
S4? S -0.467(8) 0.6405(18) 0.4285(16)
C55? C -0.553(14) 0.680(4) 0.255(2)
H43? H -0.5126 0.6567 0.2300
C56? C -0.18(3) 0.717(6) 0.416(5)
H44? H -0.0605 0.7357 0.4028
C57? C -0.30(3) 0.733(7) 0.453(4)
H45? H -0.2819 0.7668 0.4696
C58? C -0.47(4) 0.696(10) 0.465(8)
H46? H -0.5668 0.7013 0.4891
C59? C 0.522(2) 0.3984(12) 0.0540(4)
H47? H 0.4439 0.4252 0.0726
H48? H 0.4796 0.3614 0.0633
H49? H 0.4875 0.4038 0.0212
C60? C 0.885(4) 0.3612(10) 0.0333(5)
H50? H 0.8454 0.3653 0.0006
H51? H 0.8403 0.3250 0.0442
H52? H 1.0407 0.3649 0.0369
C61? C 0.826(6) 0.4637(10) 0.0457(6)
H53? H 0.9803 0.4661 0.0395
H54? H 0.7880 0.4901 0.0697
H55? H 0.7453 0.4718 0.0173
loop_
_geom_bond_atom_site_label_1
_geom_bond_atom_site_label_2
_geom_bond_site_symmetry_1
_geom_bond_site_symmetry_2
N1 C1 1_555 1_555
N2 C2 1_555 1_555
S1 C3 1_555 1_555
S2 C7 1_555 1_555
C1 C2 1_555 1_555
C2 C7 1_555 1_555
C3 C1 1_555 1_555
C4 C3 1_555 1_555
H1 C4 1_555 1_555
C5 C4 1_555 1_555
H2 C5 1_555 1_555
C6 S1 1_555 1_555
H3 C6 1_555 1_555
C7 C8 1_555 1_555
C8 H4 1_555 1_555
C9 C8 1_555 1_555
H5 C9 1_555 1_555
C10 S2 1_555 1_555
H6 C10 1_555 1_555
C11 N1 1_555 1_555
C12 C11 1_555 1_555
H7 C12 1_555 1_555
C13 C12 1_555 1_555
C14 C13 1_555 1_555
C15 C14 1_555 1_555
C16 C15 1_555 1_555
C17 C16 1_555 1_555
H8 C17 1_555 1_555
C18 C17 1_555 1_555
C19 C18 1_555 1_555
H9 C19 1_555 1_555
C20 C19 1_555 1_555
C21 C20 1_555 1_555
H10 C21 1_555 1_555
C22 C21 1_555 1_555
H11 C22 1_555 1_555
C23 C22 1_555 1_555
C24 C23 1_555 1_555
H12 C24 1_555 1_555
C25 C24 1_555 1_555
C26 C25 1_555 1_555
H13 C26 1_555 1_555
C27 C26 1_555 1_555
C28 C15 1_555 1_555
C29 C28 1_555 1_555
C30 C13 1_555 1_555
C31 C30 1_555 1_555
H14 C31 1_555 1_555
C32 N2 1_555 1_555
C33 C16 1_555 1_555
C34 C23 1_555 1_555
C35 C14 1_555 1_555
C36 C35 1_555 1_555
H15 C36 1_555 1_555
C37 C36 1_555 1_555
H16 C37 1_555 1_555
C38 C37 1_555 1_555
H17 C38 1_555 1_555
C39 C38 1_555 1_555
H18 C39 1_555 1_555
C40 C35 1_555 1_555
H19 C40 1_555 1_555
C41 C29 1_555 1_555
C42 C41 1_555 1_555
H20 C42 1_555 1_555
C43 C42 1_555 1_555
H21 C43 1_555 1_555
C44 C43 1_555 1_555
H22 C44 1_555 1_555
C45 C44 1_555 1_555
H23 C45 1_555 1_555
C46 C41 1_555 1_555
H24 C46 1_555 1_555
C47 C18 1_555 1_555
C48 C47 1_555 1_555
H25 C48 1_555 1_555
H26 C48 1_555 1_555
H27 C48 1_555 1_555
C49 C47 1_555 1_555
H28 C49 1_555 1_555
H29 C49 1_555 1_555
H30 C49 1_555 1_555
C50 C47 1_555 1_555
H31 C50 1_555 1_555
H32 C50 1_555 1_555
H33 C50 1_555 1_555
C51 C25 1_555 1_555
C52 C51 1_555 1_555
H34 C52 1_555 1_555
H35 C52 1_555 1_555
H36 C52 1_555 1_555
C53 C51 1_555 1_555
H37 C53 1_555 1_555
H38 C53 1_555 1_555
H39 C53 1_555 1_555
C54 C51 1_555 1_555
H40 C54 1_555 1_555
H41 C54 1_555 1_555
H42 C54 1_555 1_555
C5 C6 1_555 1_555
C9 C10 1_555 1_555
C11 C32 1_555 1_555
C20 C33 1_555 1_555
C27 C28 1_555 1_555
C27 C34 1_555 1_555
C29 C30 1_555 1_555
C31 C32 1_555 1_555
C33 C34 1_555 1_555
C39 C40 1_555 1_555
C45 C46 1_555 1_555

#END
