
#######################################################################
#
#                 Cambridge Crystallographic Data Centre
#                                CCDC 
#
#######################################################################
#
# If this CIF has been generated from an entry in the Cambridge 
# Structural Database, then it will include bibliographic, chemical, 
# crystal, experimental, refinement or atomic coordinate data resulting 
# from the CCDC's data processing and validation procedures.
#
#######################################################################

data_HICGAE
_chemical_formula_moiety         'C60 H44 N2'
_chemical_name_systematic        
13,18-di-t-butyl-11,20-diphenylbenzo[8,9]triphenyleno[2,3-i]phenanthro[4,5-abc]phenazine
_symmetry_cell_setting           monoclinic
_symmetry_space_group_name_H-M   'P 21/c'
_symmetry_Int_Tables_number      14
_space_group_name_Hall           '-P 2ybc'
loop_
_symmetry_equiv_pos_site_id
_symmetry_equiv_pos_as_xyz
1 x,y,z
2 -x,1/2+y,1/2-z
3 -x,-y,-z
4 x,1/2-y,1/2+z
_cell_length_a                   6.1050(6)
_cell_length_b                   24.371(2)
_cell_length_c                   27.517(2)
_cell_angle_alpha                90
_cell_angle_beta                 92.6430(10)
_cell_angle_gamma                90
_cell_volume                     4089.76
_exptl_crystal_colour            red
_exptl_crystal_description       BLOCK
_cell_formula_units_Z            4
loop_
_atom_site_label
_atom_site_type_symbol
_atom_site_fract_x
_atom_site_fract_y
_atom_site_fract_z
N1 N 0.5577(5) -0.10158(12) 0.24736(10)
N2 N 0.5024(5) -0.09019(12) 0.34776(9)
C1 C 0.6945(6) -0.12412(14) 0.27950(12)
C2 C 0.6635(7) -0.11882(15) 0.33103(12)
C3 C 0.8191(6) -0.14564(16) 0.36514(12)
C4 C 0.9968(6) -0.17477(15) 0.34767(13)
C5 C 1.0306(6) -0.17899(14) 0.29640(13)
C6 C 0.8792(6) -0.15470(15) 0.26272(12)
C7 C 0.9150(7) -0.15952(16) 0.21352(13)
H1 H 0.8143 -0.1446 0.1908
C8 C 1.0963(7) -0.18592(17) 0.19787(14)
H2 H 1.1191 -0.1878 0.1647
C9 C 1.2448(7) -0.20956(16) 0.23022(14)
H3 H 1.3667 -0.2276 0.2189
C10 C 1.2144(6) -0.20683(15) 0.28029(14)
C11 C 1.3631(7) -0.23189(15) 0.31446(15)
H4 H 1.4839 -0.2508 0.3037
C12 C 1.3314(7) -0.22864(18) 0.36228(16)
H5 H 1.4307 -0.2457 0.3840
C13 C 1.1515(7) -0.20006(16) 0.38059(14)
C14 C 1.1174(8) -0.1955(2) 0.43034(14)
H6 H 1.2172 -0.2115 0.4526
C15 C 0.9429(9) -0.1682(2) 0.44686(15)
H7 H 0.9237 -0.1667 0.4802
C16 C 0.7915(8) -0.14238(18) 0.41524(13)
H8 H 0.6738 -0.1232 0.4272
C17 C 0.3659(6) -0.06417(15) 0.31455(12)
C18 C 0.2044(6) -0.02959(15) 0.32980(11)
H9 H 0.1824 -0.0269 0.3629
C19 C 0.0720(6) 0.00174(15) 0.29746(11)
C20 C -0.0741(6) 0.04215(14) 0.31293(11)
C21 C -0.1978(6) 0.07317(14) 0.27964(11)
C22 C -0.3450(6) 0.11709(15) 0.29445(11)
C23 C -0.3198(7) 0.14562(15) 0.33877(11)
H10 H -0.1937 0.1396 0.3583
C24 C -0.4724(7) 0.18195(15) 0.35455(12)
C25 C -0.6624(7) 0.18940(16) 0.32633(12)
H11 H -0.7768 0.2096 0.3386
C26 C -0.6860(6) 0.16718(15) 0.27968(12)
C27 C -0.8638(7) 0.18245(15) 0.24725(12)
H12 H -0.9846 0.2001 0.2594
C28 C -0.8609(6) 0.17189(15) 0.19961(12)
H13 H -0.9763 0.1836 0.1789
C29 C -0.6822(6) 0.14293(15) 0.18050(12)
C30 C -0.6531(7) 0.14095(15) 0.12998(12)
H14 H -0.7619 0.1550 0.1087
C31 C -0.4712(7) 0.11910(15) 0.11172(12)
C32 C -0.3176(6) 0.09406(15) 0.14360(11)
H15 H -0.1924 0.0788 0.1311
C33 C -0.3452(6) 0.09106(14) 0.19358(11)
C34 C -0.1926(6) 0.06062(14) 0.22766(11)
C35 C -0.0567(6) 0.01967(15) 0.21259(11)
C36 C 0.0913(6) -0.00783(15) 0.24613(11)
C37 C 0.2474(6) -0.04467(15) 0.23155(12)
H16 H 0.2554 -0.0522 0.1985
C38 C 0.3926(6) -0.07086(15) 0.26405(12)
C39 C -0.5243(6) 0.13206(15) 0.26310(11)
C40 C -0.5216(6) 0.11916(14) 0.21226(11)
C41 C -0.0979(6) 0.04627(14) 0.36696(11)
C42 C -0.2844(7) 0.02837(17) 0.38678(13)
H17 H -0.3984 0.0150 0.3665
C43 C -0.3085(8) 0.02957(18) 0.43687(14)
H18 H -0.4371 0.0171 0.4500
C44 C 0.0720(7) 0.06570(16) 0.39735(12)
H19 H 0.2013 0.0780 0.3844
C45 C 0.0476(8) 0.06662(18) 0.44708(13)
H20 H 0.1619 0.0793 0.4676
C46 C -0.1405(9) 0.0493(2) 0.46639(14)
H21 H -0.1553 0.0508 0.4999
C47 C -0.0640(6) -0.00418(15) 0.16165(11)
C48 C -0.2379(7) -0.03839(16) 0.14829(12)
H22 H -0.3516 -0.0432 0.1693
C49 C -0.2440(8) -0.06532(18) 0.10433(15)
H23 H -0.3628 -0.0876 0.0955
C50 C -0.0769(10) -0.0594(2) 0.07387(15)
H24 H -0.0796 -0.0780 0.0444
C51 C 0.0943(9) -0.0260(2) 0.08682(14)
H25 H 0.2083 -0.0219 0.0659
C52 C 0.1019(7) 0.00194(17) 0.13069(12)
H26 H 0.2198 0.0248 0.1390
C53 C -0.4385(7) 0.21305(17) 0.40334(12)
C54 C -0.1955(7) 0.21699(18) 0.41854(13)
H27 H -0.1775 0.2396 0.4470
H28 H -0.1171 0.2329 0.3926
H29 H -0.1391 0.1810 0.4256
C55 C -0.5561(8) 0.1821(2) 0.44221(13)
H30 H -0.7098 0.1801 0.4333
H31 H -0.5360 0.2009 0.4727
H32 H -0.4972 0.1457 0.4452
C56 C -0.5272(8) 0.27101(18) 0.39860(14)
H33 H -0.6846 0.2700 0.3963
H34 H -0.4740 0.2877 0.3699
H35 H -0.4793 0.2920 0.4266
C57 C -0.4260(7) 0.12071(17) 0.05704(12)
C58 C -0.2011(8) 0.1426(3) 0.04987(15)
H36 H -0.1865 0.1781 0.0647
H37 H -0.1781 0.1456 0.0157
H38 H -0.0942 0.1181 0.0646
C59 C -0.4551(11) 0.0650(2) 0.03588(15)
H39 H -0.3451 0.0409 0.0499
H40 H -0.4413 0.0668 0.0013
H41 H -0.5979 0.0514 0.0428
C60 C -0.5896(9) 0.1587(2) 0.02946(15)
H42 H -0.7355 0.1447 0.0320
H43 H -0.5546 0.1604 -0.0042
H44 H -0.5807 0.1948 0.0433
loop_
_geom_bond_atom_site_label_1
_geom_bond_atom_site_label_2
_geom_bond_site_symmetry_1
_geom_bond_site_symmetry_2
N1 C1 1_555 1_555
N2 C2 1_555 1_555
C1 C2 1_555 1_555
C2 C3 1_555 1_555
C3 C4 1_555 1_555
C4 C5 1_555 1_555
C5 C6 1_555 1_555
C6 C1 1_555 1_555
C7 C6 1_555 1_555
H1 C7 1_555 1_555
C8 C7 1_555 1_555
H2 C8 1_555 1_555
C9 C8 1_555 1_555
H3 C9 1_555 1_555
C10 C5 1_555 1_555
C11 C10 1_555 1_555
H4 C11 1_555 1_555
C12 C11 1_555 1_555
H5 C12 1_555 1_555
C13 C4 1_555 1_555
C14 C13 1_555 1_555
H6 C14 1_555 1_555
C15 C14 1_555 1_555
H7 C15 1_555 1_555
C16 C3 1_555 1_555
H8 C16 1_555 1_555
C17 N2 1_555 1_555
C18 C17 1_555 1_555
H9 C18 1_555 1_555
C19 C18 1_555 1_555
C20 C19 1_555 1_555
C21 C20 1_555 1_555
C22 C21 1_555 1_555
C23 C22 1_555 1_555
H10 C23 1_555 1_555
C24 C23 1_555 1_555
C25 C24 1_555 1_555
H11 C25 1_555 1_555
C26 C25 1_555 1_555
C27 C26 1_555 1_555
H12 C27 1_555 1_555
C28 C27 1_555 1_555
H13 C28 1_555 1_555
C29 C28 1_555 1_555
C30 C29 1_555 1_555
H14 C30 1_555 1_555
C31 C30 1_555 1_555
C32 C31 1_555 1_555
H15 C32 1_555 1_555
C33 C32 1_555 1_555
C34 C21 1_555 1_555
C35 C34 1_555 1_555
C36 C19 1_555 1_555
C37 C36 1_555 1_555
H16 C37 1_555 1_555
C38 N1 1_555 1_555
C39 C22 1_555 1_555
C40 C29 1_555 1_555
C41 C20 1_555 1_555
C42 C41 1_555 1_555
H17 C42 1_555 1_555
C43 C42 1_555 1_555
H18 C43 1_555 1_555
C44 C41 1_555 1_555
H19 C44 1_555 1_555
C45 C44 1_555 1_555
H20 C45 1_555 1_555
C46 C43 1_555 1_555
H21 C46 1_555 1_555
C47 C35 1_555 1_555
C48 C47 1_555 1_555
H22 C48 1_555 1_555
C49 C48 1_555 1_555
H23 C49 1_555 1_555
C50 C49 1_555 1_555
H24 C50 1_555 1_555
C51 C50 1_555 1_555
H25 C51 1_555 1_555
C52 C47 1_555 1_555
H26 C52 1_555 1_555
C53 C24 1_555 1_555
C54 C53 1_555 1_555
H27 C54 1_555 1_555
H28 C54 1_555 1_555
H29 C54 1_555 1_555
C55 C53 1_555 1_555
H30 C55 1_555 1_555
H31 C55 1_555 1_555
H32 C55 1_555 1_555
C56 C53 1_555 1_555
H33 C56 1_555 1_555
H34 C56 1_555 1_555
H35 C56 1_555 1_555
C57 C31 1_555 1_555
C58 C57 1_555 1_555
H36 C58 1_555 1_555
H37 C58 1_555 1_555
H38 C58 1_555 1_555
C59 C57 1_555 1_555
H39 C59 1_555 1_555
H40 C59 1_555 1_555
H41 C59 1_555 1_555
C60 C57 1_555 1_555
H42 C60 1_555 1_555
H43 C60 1_555 1_555
H44 C60 1_555 1_555
C9 C10 1_555 1_555
C12 C13 1_555 1_555
C15 C16 1_555 1_555
C17 C38 1_555 1_555
C26 C39 1_555 1_555
C33 C34 1_555 1_555
C33 C40 1_555 1_555
C35 C36 1_555 1_555
C37 C38 1_555 1_555
C39 C40 1_555 1_555
C45 C46 1_555 1_555
C51 C52 1_555 1_555

#END
