
#######################################################################
#
#                 Cambridge Crystallographic Data Centre
#                                CCDC 
#
#######################################################################
#
# If this CIF has been generated from an entry in the Cambridge 
# Structural Database, then it will include bibliographic, chemical, 
# crystal, experimental, refinement or atomic coordinate data resulting 
# from the CCDC's data processing and validation procedures.
#
#######################################################################

data_HICYOK
_chemical_formula_moiety         'C19 H21 N1 O4 S1'
_chemical_name_systematic        
N-(5-hydroxy-6-methyl-5,6-dihydro-2H-pyran-2-yl)-4-methyl-N-phenylbenzene-1-sulfonamide
_symmetry_cell_setting           orthorhombic
_symmetry_space_group_name_H-M   'P 21 21 21'
_symmetry_Int_Tables_number      19
_space_group_name_Hall           'P 2ac 2ab'
loop_
_symmetry_equiv_pos_site_id
_symmetry_equiv_pos_as_xyz
1 x,y,z
2 1/2-x,-y,1/2+z
3 -x,1/2+y,1/2-z
4 1/2+x,1/2-y,-z
_cell_length_a                   9.8318(2)
_cell_length_b                   11.8791(3)
_cell_length_c                   14.9943(4)
_cell_angle_alpha                90
_cell_angle_beta                 90
_cell_angle_gamma                90
_cell_volume                     1751.23
_exptl_crystal_colour            colorless
_exptl_crystal_description       block
_cell_formula_units_Z            4
loop_
_atom_site_label
_atom_site_type_symbol
_atom_site_fract_x
_atom_site_fract_y
_atom_site_fract_z
N1 N 0.27461(17) 0.42905(15) 0.87272(11)
S1 S 0.16308(5) 0.48383(4) 0.80259(3)
O1 O 0.43202(16) 0.08514(14) 0.93423(10)
H1 H 0.441(3) 0.133(3) 0.894(2)
O2 O 0.20823(15) 0.24019(12) 0.88930(9)
O3 O 0.03225(15) 0.47215(13) 0.84400(11)
O4 O 0.21192(17) 0.59338(13) 0.77985(11)
C1 C 0.1399(2) 0.04873(18) 0.89434(16)
H2 H 0.060570 0.073503 0.859973
H3 H 0.113516 -0.013186 0.933927
H4 H 0.211104 0.022922 0.853439
C2 C 0.1930(2) 0.14567(17) 0.94932(14)
H5 H 0.123873 0.165275 0.995721
C3 C 0.3294(2) 0.12514(17) 0.99498(14)
H6 H 0.316087 0.067100 1.042489
C4 C 0.3738(2) 0.23287(18) 1.03866(13)
H7 H 0.435060 0.229786 1.087619
C5 C 0.3296(2) 0.33217(17) 1.01048(13)
H8 H 0.363126 0.398411 1.038367
C6 C 0.2284(2) 0.34350(17) 0.93598(13)
H9 H 0.139402 0.368099 0.961712
C7 C 0.4148(2) 0.42597(19) 0.84358(14)
C8 C 0.4962(2) 0.5199(2) 0.85925(15)
H10 H 0.459029 0.585087 0.886704
C9 C 0.6324(2) 0.5172(2) 0.83428(16)
H11 H 0.688020 0.581689 0.842992
C10 C 0.6872(2) 0.4205(2) 0.79660(16)
H12 H 0.781104 0.418002 0.781890
C11 C 0.6059(2) 0.3277(2) 0.78040(15)
H13 H 0.643849 0.261949 0.754339
C12 C 0.4682(2) 0.33083(19) 0.80232(15)
H14 H 0.411177 0.268428 0.789184
C13 C 0.0794(3) 0.24922(19) 0.61736(15)
H15 H 0.018602 0.187612 0.610752
C14 C 0.0766(2) 0.31159(18) 0.69503(15)
H16 H 0.014496 0.293419 0.741366
C15 C 0.1665(2) 0.40174(16) 0.70445(14)
C16 C 0.2594(2) 0.42794(19) 0.63792(15)
H17 H 0.321443 0.488555 0.645257
C17 C 0.2600(3) 0.3638(2) 0.56029(15)
H18 H 0.323406 0.381070 0.514460
C18 C 0.1694(3) 0.27468(19) 0.54840(15)
C19 C 0.1679(4) 0.2068(2) 0.46337(17)
H19 H 0.171950 0.126431 0.477833
H20 H 0.246649 0.227270 0.426746
H21 H 0.084064 0.222648 0.430297
loop_
_geom_bond_atom_site_label_1
_geom_bond_atom_site_label_2
_geom_bond_site_symmetry_1
_geom_bond_site_symmetry_2
N1 S1 1_555 1_555
S1 O3 1_555 1_555
O1 H1 1_555 1_555
O2 C2 1_555 1_555
O4 S1 1_555 1_555
C1 H2 1_555 1_555
H3 C1 1_555 1_555
H4 C1 1_555 1_555
C2 C1 1_555 1_555
H5 C2 1_555 1_555
C3 O1 1_555 1_555
H6 C3 1_555 1_555
C4 C3 1_555 1_555
H7 C4 1_555 1_555
C5 C4 1_555 1_555
H8 C5 1_555 1_555
C6 N1 1_555 1_555
H9 C6 1_555 1_555
C7 N1 1_555 1_555
C8 C7 1_555 1_555
H10 C8 1_555 1_555
C9 C8 1_555 1_555
H11 C9 1_555 1_555
C10 C9 1_555 1_555
H12 C10 1_555 1_555
C11 C10 1_555 1_555
H13 C11 1_555 1_555
C12 C7 1_555 1_555
H14 C12 1_555 1_555
C13 H15 1_555 1_555
C14 C13 1_555 1_555
H16 C14 1_555 1_555
C15 S1 1_555 1_555
C16 C15 1_555 1_555
H17 C16 1_555 1_555
C17 C16 1_555 1_555
H18 C17 1_555 1_555
C18 C13 1_555 1_555
C19 C18 1_555 1_555
H19 C19 1_555 1_555
H20 C19 1_555 1_555
H21 C19 1_555 1_555
O2 C6 1_555 1_555
C2 C3 1_555 1_555
C5 C6 1_555 1_555
C11 C12 1_555 1_555
C14 C15 1_555 1_555
C17 C18 1_555 1_555

#END
