
#######################################################################
#
#                 Cambridge Crystallographic Data Centre
#                                CCDC 
#
#######################################################################
#
# If this CIF has been generated from an entry in the Cambridge 
# Structural Database, then it will include bibliographic, chemical, 
# crystal, experimental, refinement or atomic coordinate data resulting 
# from the CCDC's data processing and validation procedures.
#
#######################################################################

data_HIDDAC
_chemical_formula_moiety         'C19 H16 Br1 N1 O2'
_chemical_name_systematic        
'(2-bromophenyl)(8-methylquinolin-3-yl)methyl acetate'
_symmetry_cell_setting           monoclinic
_symmetry_space_group_name_H-M   'I 2/a'
_symmetry_Int_Tables_number      15
_space_group_name_Hall           '-I 2ya'
loop_
_symmetry_equiv_pos_site_id
_symmetry_equiv_pos_as_xyz
1 x,y,z
2 1/2-x,y,-z
3 1/2+x,1/2+y,1/2+z
4 -x,1/2+y,1/2-z
5 -x,-y,-z
6 1/2+x,-y,z
7 1/2-x,1/2-y,1/2-z
8 x,1/2-y,1/2+z
_cell_length_a                   12.7051(3)
_cell_length_b                   10.1792(2)
_cell_length_c                   24.9442(6)
_cell_angle_alpha                90
_cell_angle_beta                 96.694(2)
_cell_angle_gamma                90
_cell_volume                     3203.99
_exptl_crystal_colour            colorless
_exptl_crystal_description       plate
_cell_formula_units_Z            8
loop_
_atom_site_label
_atom_site_type_symbol
_atom_site_fract_x
_atom_site_fract_y
_atom_site_fract_z
Br1 Br 0.63208(2) 0.05514(2) 0.45002(2)
C1 C 1.06421(17) 0.2524(2) 0.30474(9)
H1 H 1.111930 0.251510 0.277599
H2 H 1.051759 0.163967 0.315824
H3 H 1.094849 0.302356 0.335276
C2 C 0.96119(16) 0.3138(2) 0.28209(8)
C3 C 0.94533(16) 0.3638(2) 0.23072(8)
H4 H 1.000055 0.358923 0.209072
C4 C 0.84857(17) 0.4224(2) 0.20967(9)
H5 H 0.840036 0.453910 0.174430
C5 C 0.76730(17) 0.43313(19) 0.24088(8)
H6 H 0.704097 0.473141 0.227074
C6 C 0.77951(15) 0.38325(19) 0.29422(8)
C7 C 0.87641(16) 0.32164(19) 0.31480(8)
C8 C 0.81521(16) 0.2814(2) 0.39627(8)
H7 H 0.826161 0.246813 0.430981
C9 C 0.71710(15) 0.34278(19) 0.38021(8)
C10 C 0.69920(15) 0.39177(19) 0.32865(8)
H8 H 0.634448 0.430366 0.316489
C11 C 0.63816(15) 0.35886(19) 0.42042(8)
H9 H 0.669243 0.326046 0.455691
C12 C 0.53323(16) 0.28960(19) 0.40416(7)
C13 C 0.51933(16) 0.1561(2) 0.41375(8)
C14 C 0.42422(18) 0.0920(2) 0.39849(9)
H10 H 0.417304 0.002644 0.405061
C15 C 0.33981(17) 0.1633(2) 0.37334(9)
H11 H 0.275326 0.121872 0.363146
C16 C 0.35091(17) 0.2963(2) 0.36324(9)
H12 H 0.294003 0.343852 0.346261
C17 C 0.44686(16) 0.3583(2) 0.37846(8)
H13 H 0.453713 0.447389 0.371390
C18 C 0.61778(16) 0.54933(19) 0.47432(8)
C19 C 0.60625(17) 0.6950(2) 0.47124(8)
H14 H 0.665426 0.731927 0.455839
H15 H 0.604127 0.729871 0.506857
H16 H 0.541784 0.716944 0.449051
N1 N 0.89253(13) 0.26951(17) 0.36566(7)
O1 O 0.61986(11) 0.49892(14) 0.42402(5)
O2 O 0.62617(13) 0.48314(16) 0.51448(6)
loop_
_geom_bond_atom_site_label_1
_geom_bond_atom_site_label_2
_geom_bond_site_symmetry_1
_geom_bond_site_symmetry_2
Br1 C13 1_555 1_555
C1 H1 1_555 1_555
H2 C1 1_555 1_555
H3 C1 1_555 1_555
C2 C1 1_555 1_555
C3 C2 1_555 1_555
H4 C3 1_555 1_555
C4 C3 1_555 1_555
H5 C4 1_555 1_555
C5 C4 1_555 1_555
H6 C5 1_555 1_555
C6 C5 1_555 1_555
C7 C2 1_555 1_555
C8 H7 1_555 1_555
C9 C8 1_555 1_555
C10 C6 1_555 1_555
H8 C10 1_555 1_555
C11 C9 1_555 1_555
H9 C11 1_555 1_555
C12 C11 1_555 1_555
C13 C12 1_555 1_555
C14 C13 1_555 1_555
H10 C14 1_555 1_555
C15 C14 1_555 1_555
H11 C15 1_555 1_555
C16 C15 1_555 1_555
H12 C16 1_555 1_555
C17 C12 1_555 1_555
H13 C17 1_555 1_555
C18 C19 1_555 1_555
C19 H14 1_555 1_555
H15 C19 1_555 1_555
H16 C19 1_555 1_555
N1 C7 1_555 1_555
O1 C11 1_555 1_555
O2 C18 1_555 1_555
C6 C7 1_555 1_555
C8 N1 1_555 1_555
C9 C10 1_555 1_555
C16 C17 1_555 1_555
C18 O1 1_555 1_555

#END
