
#######################################################################
#
#                 Cambridge Crystallographic Data Centre
#                                CCDC 
#
#######################################################################
#
# If this CIF has been generated from an entry in the Cambridge 
# Structural Database, then it will include bibliographic, chemical, 
# crystal, experimental, refinement or atomic coordinate data resulting 
# from the CCDC's data processing and validation procedures.
#
#######################################################################

data_HIDVAT
_chemical_formula_moiety         'C24 H12 Cl2 F3 N3'
_chemical_name_systematic        
9,10-Dichloro-6-phenyl-13-(trifluoromethyl)-5H-indolo[2',3':4,5]pyrido[1,2-a]benzimidazole
_symmetry_cell_setting           monoclinic
_symmetry_space_group_name_H-M   'P 21/c'
_symmetry_Int_Tables_number      14
_space_group_name_Hall           '-P 2ybc'
loop_
_symmetry_equiv_pos_site_id
_symmetry_equiv_pos_as_xyz
1 x,y,z
2 -x,1/2+y,1/2-z
3 -x,-y,-z
4 x,1/2-y,1/2+z
_cell_length_a                   8.1864(12)
_cell_length_b                   10.575(2)
_cell_length_c                   22.441(4)
_cell_angle_alpha                90
_cell_angle_beta                 91.640(9)
_cell_angle_gamma                90
_cell_volume                     1941.95
_exptl_crystal_colour            yellow
_exptl_crystal_description       prism
_cell_formula_units_Z            4
loop_
_atom_site_label
_atom_site_type_symbol
_atom_site_fract_x
_atom_site_fract_y
_atom_site_fract_z
Cl1 Cl 0.24896(5) -0.38012(4) 0.502994(16)
Cl2 Cl 0.56215(5) -0.28271(4) 0.437168(15)
F1 F 0.92081(10) -0.07981(8) 0.57957(4)
F2 F 0.87683(12) 0.07839(9) 0.52016(4)
F3 F 1.05327(11) 0.09251(9) 0.59294(4)
N1 N 0.40183(14) -0.04870(11) 0.66508(5)
N2 N 0.63452(14) 0.01975(11) 0.62129(5)
N3 N 0.73466(15) 0.30582(12) 0.73964(5)
C1 C 0.32651(17) -0.21086(14) 0.58864(6)
C2 C 0.37078(18) -0.26270(14) 0.53489(6)
C3 C 0.50960(18) -0.21935(14) 0.50533(6)
C4 C 0.60817(17) -0.12432(14) 0.52898(6)
C5 C 0.56662(17) -0.07501(13) 0.58418(6)
C6 C 0.42534(17) -0.11525(13) 0.61333(6)
C7 C 0.52511(16) 0.03308(13) 0.66875(6)
C8 C 0.55205(16) 0.12798(13) 0.71230(6)
C9 C 0.44354(16) 0.13963(13) 0.76433(6)
C10 C 0.46104(17) 0.05659(14) 0.81235(6)
C11 C 0.36314(18) 0.06925(15) 0.86178(6)
C12 C 0.24707(18) 0.16448(15) 0.86344(6)
C13 C 0.22797(18) 0.24716(14) 0.81548(6)
C14 C 0.32557(17) 0.23512(14) 0.76616(6)
C15 C 0.68195(16) 0.20813(13) 0.70401(6)
C16 C 0.79626(16) 0.19283(14) 0.65599(6)
C17 C 0.77570(17) 0.09240(13) 0.61805(6)
C18 C 0.90631(17) 0.04670(14) 0.57742(6)
C19 C 0.91492(17) 0.29563(14) 0.66313(6)
C20 C 0.87089(17) 0.36147(14) 0.71510(6)
C21 C 0.95325(17) 0.46901(14) 0.73525(6)
C22 C 1.07840(18) 0.51413(15) 0.70065(7)
C23 C 1.11935(18) 0.45399(15) 0.64749(7)
C24 C 1.03951(17) 0.34558(15) 0.62837(6)
H1 H 0.2319 -0.2393 0.6082
H2 H 0.7002 -0.0940 0.5085
H3 H 0.5402 -0.0090 0.8114
H4 H 0.3760 0.0125 0.8944
H5 H 0.1807 0.1733 0.8972
H6 H 0.1479 0.3121 0.8165
H7 H 0.3121 0.2919 0.7336
H8 H 0.682(3) 0.340(2) 0.7677(10)
H9 H 0.9250 0.5099 0.7712
H10 H 1.1374 0.5872 0.7132
H11 H 1.2036 0.4884 0.6241
H12 H 1.0684 0.3055 0.5923
loop_
_geom_bond_atom_site_label_1
_geom_bond_atom_site_label_2
_geom_bond_site_symmetry_1
_geom_bond_site_symmetry_2
Cl1 C2 1_555 1_555
Cl2 C3 1_555 1_555
F1 C18 1_555 1_555
F2 C18 1_555 1_555
F3 C18 1_555 1_555
N1 C6 1_555 1_555
N2 C5 1_555 1_555
N3 C15 1_555 1_555
C1 C2 1_555 1_555
C2 C3 1_555 1_555
C3 C4 1_555 1_555
C4 C5 1_555 1_555
C5 C6 1_555 1_555
C6 C1 1_555 1_555
C7 N1 1_555 1_555
C8 C7 1_555 1_555
C9 C8 1_555 1_555
C10 C9 1_555 1_555
C11 C10 1_555 1_555
C12 C11 1_555 1_555
C13 C12 1_555 1_555
C14 C9 1_555 1_555
C15 C8 1_555 1_555
C16 C15 1_555 1_555
C17 N2 1_555 1_555
C18 C17 1_555 1_555
C19 C16 1_555 1_555
C20 N3 1_555 1_555
C21 C20 1_555 1_555
C22 C21 1_555 1_555
C23 C22 1_555 1_555
C24 C19 1_555 1_555
H1 C1 1_555 1_555
H2 C4 1_555 1_555
H3 C10 1_555 1_555
H4 C11 1_555 1_555
H5 C12 1_555 1_555
H6 C13 1_555 1_555
H7 C14 1_555 1_555
H8 N3 1_555 1_555
H9 C21 1_555 1_555
H10 C22 1_555 1_555
H11 C23 1_555 1_555
H12 C24 1_555 1_555
N2 C7 1_555 1_555
C13 C14 1_555 1_555
C16 C17 1_555 1_555
C19 C20 1_555 1_555
C23 C24 1_555 1_555

#END
