
#######################################################################
#
#                 Cambridge Crystallographic Data Centre
#                                CCDC 
#
#######################################################################
#
# If this CIF has been generated from an entry in the Cambridge 
# Structural Database, then it will include bibliographic, chemical, 
# crystal, experimental, refinement or atomic coordinate data resulting 
# from the CCDC's data processing and validation procedures.
#
#######################################################################

data_HIDWID
_chemical_formula_moiety         'C18 H20 N4 O5 S1'
_chemical_name_systematic        
'ethyl N-{[5-amino-4-cyano-3-(4-methoxyphenyl)-2,3-dihydrothiophene-2-carbonyl]carbamoyl}glycinate'
_symmetry_cell_setting           triclinic
_symmetry_space_group_name_H-M   'P -1'
_symmetry_Int_Tables_number      2
_space_group_name_Hall           '-P 1'
loop_
_symmetry_equiv_pos_site_id
_symmetry_equiv_pos_as_xyz
1 x,y,z
2 -x,-y,-z
_cell_length_a                   8.1334(13)
_cell_length_b                   9.0145(15)
_cell_length_c                   14.731(2)
_cell_angle_alpha                94.156(5)
_cell_angle_beta                 102.111(4)
_cell_angle_gamma                102.813(5)
_cell_volume                     1021.67
_exptl_crystal_colour            colorless
_exptl_crystal_description       block
_cell_formula_units_Z            2
loop_
_atom_site_label
_atom_site_type_symbol
_atom_site_fract_x
_atom_site_fract_y
_atom_site_fract_z
C1 C 0.5403(8) 0.5771(7) 0.7534(4)
H1 H 0.4945 0.6226 0.7025
C2 C 0.5902(11) 0.6580(9) 0.8388(5)
H2 H 0.5765 0.7576 0.8461
C3 C 0.6628(9) 0.5945(8) 0.9173(4)
C4 C 0.7865(14) 0.6241(13) 1.0812(5)
H3 H 0.7026 0.5387 1.0927
H4 H 0.8217 0.7014 1.1346
H5 H 0.8857 0.5904 1.0706
C5 C 0.6801(9) 0.4482(8) 0.9059(4)
H6 H 0.7281 0.4040 0.9569
C6 C 0.6248(7) 0.3648(7) 0.8164(4)
H7 H 0.6352 0.2642 0.8088
C7 C 0.5552(6) 0.4280(6) 0.7393(3)
C8 C 0.5000(6) 0.3429(6) 0.6410(3)
H8 H 0.5404 0.4130 0.5981
C9 C 0.5668(6) 0.2022(6) 0.6295(3)
C10 C 0.7446(7) 0.2139(7) 0.6306(4)
C11 C 0.4522(6) 0.0644(6) 0.6224(3)
C12 C 0.2981(6) 0.2845(6) 0.6084(3)
H9 H 0.2433 0.3421 0.6472
C13 C 0.2339(6) 0.3020(6) 0.5058(3)
C14 C -0.0313(7) 0.3317(6) 0.3963(4)
C15 C -0.0367(9) 0.3782(9) 0.2369(4)
H10 H 0.0334 0.4638 0.2151
H11 H -0.1451 0.4036 0.2407
C16 C -0.0736(13) 0.2418(14) 0.1684(6)
C17 C 0.006(2) 0.0310(19) 0.1200(9)
H12 H -0.1013 -0.0477 0.0987
H13 H 0.0232 0.0885 0.0682
C18 C 0.148(2) -0.0423(19) 0.1452(11)
H14 H 0.2529 0.0344 0.1718
H15 H 0.1604 -0.0987 0.0903
H16 H 0.1236 -0.1111 0.1901
N1 N 0.8878(6) 0.2278(7) 0.6334(4)
N2 N 0.4797(6) -0.0768(6) 0.6168(4)
H17 H 0.5819 -0.0887 0.6175
H18 H 0.3951 -0.1555 0.6125
N3 N 0.0647(5) 0.3084(5) 0.4819(3)
H19 H 0.0095 0.2964 0.5257
N4 N 0.0525(6) 0.3594(6) 0.3294(3)
H20 H 0.1622 0.3663 0.3411
O1 O 0.7119(9) 0.6862(7) 1.0010(3)
O2 O 0.3279(5) 0.3114(6) 0.4506(3)
O3 O -0.1838(5) 0.3300(5) 0.3895(3)
O4 O -0.1510(13) 0.2463(10) 0.0872(4)
O5 O -0.0116(14) 0.1342(11) 0.1964(5)
S1 S 0.24207(16) 0.08192(18) 0.62399(11)
loop_
_geom_bond_atom_site_label_1
_geom_bond_atom_site_label_2
_geom_bond_site_symmetry_1
_geom_bond_site_symmetry_2
C1 H1 1_555 1_555
C2 C1 1_555 1_555
H2 C2 1_555 1_555
C3 C2 1_555 1_555
C4 H3 1_555 1_555
H4 C4 1_555 1_555
H5 C4 1_555 1_555
C5 C3 1_555 1_555
H6 C5 1_555 1_555
C6 C5 1_555 1_555
H7 C6 1_555 1_555
C7 C1 1_555 1_555
C8 C7 1_555 1_555
H8 C8 1_555 1_555
C9 C8 1_555 1_555
C10 C9 1_555 1_555
C11 C9 1_555 1_555
C12 C8 1_555 1_555
H9 C12 1_555 1_555
C13 C12 1_555 1_555
C14 N3 1_555 1_555
C15 H10 1_555 1_555
H11 C15 1_555 1_555
C16 C15 1_555 1_555
C17 H12 1_555 1_555
H13 C17 1_555 1_555
C18 C17 1_555 1_555
H14 C18 1_555 1_555
H15 C18 1_555 1_555
H16 C18 1_555 1_555
N1 C10 1_555 1_555
N2 C11 1_555 1_555
H17 N2 1_555 1_555
H18 N2 1_555 1_555
N3 C13 1_555 1_555
H19 N3 1_555 1_555
N4 C14 1_555 1_555
H20 N4 1_555 1_555
O1 C3 1_555 1_555
O2 C13 1_555 1_555
O3 C14 1_555 1_555
O4 C16 1_555 1_555
O5 C16 1_555 1_555
S1 C11 1_555 1_555
C4 O1 1_555 1_555
C6 C7 1_555 1_555
C12 S1 1_555 1_555
C15 N4 1_555 1_555
C17 O5 1_555 1_555

#END
