
#######################################################################
#
#                 Cambridge Crystallographic Data Centre
#                                CCDC 
#
#######################################################################
#
# If this CIF has been generated from an entry in the Cambridge 
# Structural Database, then it will include bibliographic, chemical, 
# crystal, experimental, refinement or atomic coordinate data resulting 
# from the CCDC's data processing and validation procedures.
#
#######################################################################

data_HIDXOK
_chemical_formula_moiety         'C25 H24 N4 O5 S1'
_chemical_name_systematic        
'ethyl N-{[5-amino-4-cyano-3-(4-methoxyphenyl)thiophene-2-carbonyl]carbamoyl}phenylalaninate'
_symmetry_cell_setting           monoclinic
_symmetry_space_group_name_H-M   'C 2'
_symmetry_Int_Tables_number      5
_space_group_name_Hall           'C 2y'
loop_
_symmetry_equiv_pos_site_id
_symmetry_equiv_pos_as_xyz
1 x,y,z
2 -x,y,-z
3 1/2+x,1/2+y,z
4 1/2-x,1/2+y,-z
_cell_length_a                   19.0354(9)
_cell_length_b                   9.4928(4)
_cell_length_c                   14.2722(7)
_cell_angle_alpha                90
_cell_angle_beta                 109.6311(16)
_cell_angle_gamma                90
_cell_volume                     2429.07
_exptl_crystal_colour            colorless
_exptl_crystal_description       block
_cell_formula_units_Z            4
loop_
_atom_site_label
_atom_site_type_symbol
_atom_site_fract_x
_atom_site_fract_y
_atom_site_fract_z
C1 C 0.2066(2) 1.0082(4) 0.7387(2)
H1 H 0.1606 1.0414 0.7384
C2 C 0.2406(2) 0.8974(5) 0.8002(3)
H2 H 0.2175 0.8573 0.8418
C3 C 0.3081(2) 0.8461(4) 0.8005(3)
C4 C 0.4120(3) 0.6984(6) 0.8835(5)
H3 H 0.4170 0.6544 0.8255
H4 H 0.4273 0.6338 0.9384
H5 H 0.4428 0.7811 0.8996
C5 C 0.3425(2) 0.9048(4) 0.7386(3)
H6 H 0.3875 0.8690 0.7370
C6 C 0.3088(2) 1.0180(4) 0.6789(3)
H7 H 0.3327 1.0595 0.6388
C7 C 0.24154(19) 1.0702(4) 0.6771(2)
C8 C 0.14220(19) 1.2096(3) 0.5425(2)
C9 C 0.20830(19) 1.1982(3) 0.6200(2)
C10 C 0.24333(19) 1.3313(3) 0.6459(2)
C11 C 0.3137(2) 1.3543(4) 0.7215(3)
C12 C 0.2035(2) 1.4427(3) 0.5901(2)
C13 C 0.0915(2) 1.1062(4) 0.4768(3)
C14 C 0.08080(19) 0.8478(4) 0.4392(2)
C15 C -0.0544(2) 0.4148(4) 0.2638(3)
H8 H -0.0066 0.4108 0.3102
C16 C -0.0823(3) 0.2990(5) 0.2038(4)
H9 H -0.0536 0.2179 0.2106
C17 C -0.1517(3) 0.3045(5) 0.1351(4)
H10 H -0.1700 0.2283 0.0930
C18 C -0.1945(3) 0.4216(6) 0.1277(4)
H11 H -0.2425 0.4244 0.0816
C19 C -0.1669(2) 0.5359(5) 0.1884(3)
H12 H -0.1969 0.6149 0.1833
C20 C -0.0957(2) 0.5354(4) 0.2565(3)
C21 C -0.0645(2) 0.6617(4) 0.3211(3)
H13 H -0.0401 0.6293 0.3887
H14 H -0.1058 0.7215 0.3214
C22 C -0.0086(2) 0.7518(4) 0.2900(2)
H15 H 0.0329 0.6917 0.2886
C23 C -0.0450(2) 0.8154(4) 0.1876(3)
C24 C -0.0957(3) 0.7589(5) 0.0170(3)
H16 H -0.0689 0.8242 -0.0110
H17 H -0.1417 0.8033 0.0166
C25 C -0.1120(4) 0.6260(6) -0.0419(3)
H18 H -0.0660 0.5802 -0.0373
H19 H -0.1392 0.6474 -0.1102
H20 H -0.1413 0.5649 -0.0161
N1 N 0.37020(19) 1.3784(5) 0.7801(3)
N2 N 0.22427(19) 1.5790(3) 0.5994(3)
H21 H 0.2658 1.6035 0.6433
H22 H 0.1960 1.6415 0.5615
N3 N 0.11096(17) 0.9662(3) 0.4972(2)
H23 H 0.1460 0.9499 0.5526
N4 N 0.02074(15) 0.8665(3) 0.35918(19)
H24 H -0.0009 0.9473 0.3483
O1 O 0.33703(18) 0.7366(4) 0.8645(3)
O2 O 0.03860(16) 1.1426(3) 0.4070(2)
O3 O 0.11127(16) 0.7344(3) 0.46422(19)
O4 O -0.06906(17) 0.9331(3) 0.1734(2)
O5 O -0.05049(16) 0.7213(3) 0.11775(17)
S1 S 0.12121(5) 1.38468(9) 0.50527(6)
loop_
_geom_bond_atom_site_label_1
_geom_bond_atom_site_label_2
_geom_bond_site_symmetry_1
_geom_bond_site_symmetry_2
C1 H1 1_555 1_555
C2 C1 1_555 1_555
H2 C2 1_555 1_555
C3 C2 1_555 1_555
C4 H3 1_555 1_555
H4 C4 1_555 1_555
H5 C4 1_555 1_555
C5 C3 1_555 1_555
H6 C5 1_555 1_555
C6 C5 1_555 1_555
H7 C6 1_555 1_555
C7 C1 1_555 1_555
C8 C9 1_555 1_555
C9 C7 1_555 1_555
C10 C9 1_555 1_555
C11 C10 1_555 1_555
C12 C10 1_555 1_555
C13 C8 1_555 1_555
C14 N3 1_555 1_555
C15 H8 1_555 1_555
C16 C15 1_555 1_555
H9 C16 1_555 1_555
C17 C16 1_555 1_555
H10 C17 1_555 1_555
C18 C17 1_555 1_555
H11 C18 1_555 1_555
C19 C18 1_555 1_555
H12 C19 1_555 1_555
C20 C15 1_555 1_555
C21 C20 1_555 1_555
H13 C21 1_555 1_555
H14 C21 1_555 1_555
C22 C21 1_555 1_555
H15 C22 1_555 1_555
C23 C22 1_555 1_555
C24 H16 1_555 1_555
H17 C24 1_555 1_555
C25 C24 1_555 1_555
H18 C25 1_555 1_555
H19 C25 1_555 1_555
H20 C25 1_555 1_555
N1 C11 1_555 1_555
N2 C12 1_555 1_555
H21 N2 1_555 1_555
H22 N2 1_555 1_555
N3 C13 1_555 1_555
H23 N3 1_555 1_555
N4 C14 1_555 1_555
H24 N4 1_555 1_555
O1 C3 1_555 1_555
O2 C13 1_555 1_555
O3 C14 1_555 1_555
O4 C23 1_555 1_555
O5 C23 1_555 1_555
S1 C8 1_555 1_555
C4 O1 1_555 1_555
C6 C7 1_555 1_555
C12 S1 1_555 1_555
C19 C20 1_555 1_555
C22 N4 1_555 1_555
C24 O5 1_555 1_555

#END
