
#######################################################################
#
#                 Cambridge Crystallographic Data Centre
#                                CCDC 
#
#######################################################################
#
# If this CIF has been generated from an entry in the Cambridge 
# Structural Database, then it will include bibliographic, chemical, 
# crystal, experimental, refinement or atomic coordinate data resulting 
# from the CCDC's data processing and validation procedures.
#
#######################################################################

data_HIFFAD
_chemical_formula_moiety         'C1 H6 N3 1+,C14 H11 O6 S1 1-,C1 H4 O1'
_chemical_name_systematic        
'Guanidinium 5-benzoyl-4-hydroxy-2-methoxybenzenesulfonate methanol solvate'
_symmetry_cell_setting           orthorhombic
_symmetry_space_group_name_H-M   'P n a 21'
_symmetry_Int_Tables_number      33
_space_group_name_Hall           'P 2c -2n'
loop_
_symmetry_equiv_pos_site_id
_symmetry_equiv_pos_as_xyz
1 x,y,z
2 -x,-y,1/2+z
3 1/2-x,1/2+y,1/2+z
4 1/2+x,1/2-y,z
_cell_length_a                   18.640(5)
_cell_length_b                   13.088(8)
_cell_length_c                   7.502(4)
_cell_angle_alpha                90
_cell_angle_beta                 90
_cell_angle_gamma                90
_cell_volume                     1830.19
_exptl_crystal_colour            colorless
_chemical_melting_point          509-514K
_cell_formula_units_Z            4
loop_
_atom_site_label
_atom_site_type_symbol
_atom_site_fract_x
_atom_site_fract_y
_atom_site_fract_z
S1 S 0.30198(4) 0.23973(5) 0.7500
O1 O 0.2791(1) 0.3457(1) 0.7424(5)
O2 O 0.2975(1) 0.1890(2) 0.5756(4)
O3 O 0.2644(1) 0.1822(2) 0.8881(4)
O4 O 0.6030(1) 0.2417(3) 0.9868(6)
O5 O 0.5954(2) 0.4364(3) 1.0125(6)
O6 O 0.3977(1) 0.0646(2) 0.7809(4)
C1 C 0.3928(2) 0.2421(2) 0.8138(5)
C2 C 0.4256(2) 0.3340(2) 0.8559(5)
C3 C 0.4960(2) 0.3387(3) 0.9218(6)
C4 C 0.5347(2) 0.2459(3) 0.9326(5)
C5 C 0.5032(2) 0.1532(2) 0.8850(5)
C6 C 0.4326(2) 0.1509(2) 0.8285(5)
C7 C 0.4366(2) -0.0295(3) 0.7857(6)
C8 C 0.5309(2) 0.4348(3) 0.9723(6)
C9 C 0.4901(2) 0.5327(3) 0.9790(6)
C10 C 0.4209(2) 0.5407(3) 1.0469(6)
C11 C 0.3873(2) 0.6346(4) 1.0536(8)
C12 C 0.4208(3) 0.7209(3) 0.9895(9)
C13 C 0.4900(3) 0.7141(3) 0.9243(7)
C14 C 0.5247(2) 0.6210(3) 0.9202(6)
H1 H 0.615(3) 0.305(4) 1.013(8)
H2 H 0.4058 -0.0841 0.7521
H3 H 0.4759 -0.0260 0.7056
H4 H 0.4539 -0.0411 0.9033
H5 H 0.5302 0.0917 0.8917
H6 H 0.3969 0.4814 1.0886
H7 H 0.3405 0.6397 1.1034
H8 H 0.3963 0.7846 0.9897
H9 H 0.5138 0.7736 0.8825
H10 H 0.5725 0.6172 0.8767
H11 H 0.3996 0.3957 0.8396
N1 N 0.2663(2) 0.3018(3) 1.2396(7)
N2 N 0.2549(2) 0.4519(3) 1.3946(6)
N3 N 0.2392(2) 0.4498(3) 1.0929(6)
C15 C 0.2534(2) 0.4009(2) 1.2445(7)
H12 H 0.274(3) 0.274(4) 1.337(8)
H13 H 0.255(4) 0.266(5) 1.14(1)
H14 H 0.269(2) 0.422(3) 1.507(6)
H15 H 0.260(3) 0.523(4) 1.40(1)
H16 H 0.225(3) 0.517(4) 1.085(8)
H17 H 0.234(2) 0.414(3) 1.000(7)
O7 O 0.3948(2) 0.0641(4) 0.3800(6)
C16 C 0.3510(3) 0.0522(5) 0.2314(8)
H18 H 0.371(3) 0.113(5) 0.45(1)
H19 H 0.3468 0.1161 0.1708
H20 H 0.3712 0.0032 0.1536
H21 H 0.3048 0.0305 0.2686
loop_
_geom_bond_atom_site_label_1
_geom_bond_atom_site_label_2
_geom_bond_site_symmetry_1
_geom_bond_site_symmetry_2
S1 O1 1_555 1_555
O2 S1 1_555 1_555
O3 S1 1_555 1_555
O4 C4 1_555 1_555
O5 C8 1_555 1_555
O6 C6 1_555 1_555
C1 S1 1_555 1_555
C2 C1 1_555 1_555
C3 C2 1_555 1_555
C4 C3 1_555 1_555
C5 C4 1_555 1_555
C6 C1 1_555 1_555
C7 O6 1_555 1_555
C8 C3 1_555 1_555
C9 C8 1_555 1_555
C10 C9 1_555 1_555
C11 C10 1_555 1_555
C12 C11 1_555 1_555
C13 C12 1_555 1_555
C14 C9 1_555 1_555
H1 O4 1_555 1_555
H2 C7 1_555 1_555
H3 C7 1_555 1_555
H4 C7 1_555 1_555
H5 C5 1_555 1_555
H6 C10 1_555 1_555
H7 C11 1_555 1_555
H8 C12 1_555 1_555
H9 C13 1_555 1_555
H10 C14 1_555 1_555
H11 C2 1_555 1_555
N1 C15 1_555 1_555
N2 C15 1_555 1_555
N3 C15 1_555 1_555
H12 N1 1_555 1_555
H13 N1 1_555 1_555
H14 N2 1_555 1_555
H15 N2 1_555 1_555
H16 N3 1_555 1_555
H17 N3 1_555 1_555
O7 C16 1_555 1_555
C16 H19 1_555 1_555
H18 O7 1_555 1_555
H20 C16 1_555 1_555
H21 C16 1_555 1_555
C5 C6 1_555 1_555
C13 C14 1_555 1_555

#END
