
#######################################################################
#
#                 Cambridge Crystallographic Data Centre
#                                CCDC 
#
#######################################################################
#
# If this CIF has been generated from an entry in the Cambridge 
# Structural Database, then it will include bibliographic, chemical, 
# crystal, experimental, refinement or atomic coordinate data resulting 
# from the CCDC's data processing and validation procedures.
#
#######################################################################

data_HIFPET
_chemical_formula_moiety         'C21 H26 N2'
_chemical_name_systematic        
(1-Benzyl-8a-ethynyl-7-methyldecahydroquinolin-5-yl)acetonitrile
_symmetry_cell_setting           orthorhombic
_symmetry_space_group_name_H-M   'P 21 21 21'
_symmetry_Int_Tables_number      19
_space_group_name_Hall           'P 2ac 2ab'
loop_
_symmetry_equiv_pos_site_id
_symmetry_equiv_pos_as_xyz
1 x,y,z
2 1/2-x,-y,1/2+z
3 -x,1/2+y,1/2-z
4 1/2+x,1/2-y,-z
_cell_length_a                   10.7126(11)
_cell_length_b                   12.2124(12)
_cell_length_c                   13.2930(13)
_cell_angle_alpha                90
_cell_angle_beta                 90
_cell_angle_gamma                90
_cell_volume                     1739.08
_exptl_crystal_colour            colorless
_exptl_crystal_description       needle
_cell_formula_units_Z            4
loop_
_atom_site_label
_atom_site_type_symbol
_atom_site_fract_x
_atom_site_fract_y
_atom_site_fract_z
N1 N 0.67030(18) 0.46305(14) 0.49852(13)
N2 N 0.7834(2) -0.05634(16) 0.26725(15)
C1 C 0.7435(2) 0.44645(18) 0.59138(16)
H1 H 0.7261 0.5071 0.6388
H2 H 0.8336 0.4482 0.5749
C2 C 0.7125(2) 0.33876(18) 0.64143(16)
H3 H 0.6239 0.3384 0.6624
H4 H 0.7648 0.3293 0.7022
C3 C 0.7364(2) 0.24526(18) 0.56858(16)
H5 H 0.7122 0.1749 0.6001
H6 H 0.8263 0.2418 0.5518
C4 C 0.6606(2) 0.26324(17) 0.47330(15)
H7 H 0.5723 0.2712 0.4964
C5 C 0.6602(2) 0.16409(18) 0.40194(16)
H8 H 0.6194 0.1027 0.4393
C6 C 0.5786(2) 0.18717(18) 0.30966(16)
H9 H 0.5879 0.1262 0.2612
H10 H 0.4900 0.1896 0.3308
C7 C 0.6115(2) 0.29479(18) 0.25699(16)
H11 H 0.6985 0.2892 0.2302
C8 C 0.6059(2) 0.39015(18) 0.33141(16)
H12 H 0.5191 0.3983 0.3559
H13 H 0.6289 0.4586 0.2960
C9 C 0.6938(2) 0.37454(17) 0.42278(16)
C10 C 0.6975(2) 0.57340(18) 0.45941(17)
H14 H 0.6620 0.5801 0.3909
H15 H 0.7891 0.5825 0.4540
C11 C 0.6454(2) 0.66418(18) 0.52455(15)
C12 C 0.5373(2) 0.65021(19) 0.58108(16)
H16 H 0.4970 0.5809 0.5822
C13 C 0.4880(2) 0.73664(18) 0.63583(17)
H17 H 0.4151 0.7259 0.6753
C14 C 0.5445(2) 0.83855(19) 0.63322(17)
H18 H 0.5095 0.8982 0.6695
C15 C 0.6522(2) 0.85292(19) 0.57747(17)
H19 H 0.6920 0.9224 0.5762
C16 C 0.7024(2) 0.76626(18) 0.52341(17)
H20 H 0.7764 0.7769 0.4853
C17 C 0.8256(2) 0.37782(17) 0.38818(16)
C18 C 0.9308(2) 0.38587(17) 0.36114(17)
H21 H 1.0162 0.3895 0.3377
C19 C 0.7915(2) 0.12374(18) 0.37251(18)
H22 H 0.8339 0.1811 0.3325
H23 H 0.8411 0.1113 0.4343
C20 C 0.7869(2) 0.02237(19) 0.31404(17)
C21 C 0.5228(2) 0.3148(2) 0.16921(18)
H24 H 0.5278 0.2534 0.1220
H25 H 0.5463 0.3827 0.1347
H26 H 0.4372 0.3212 0.1945
loop_
_geom_bond_atom_site_label_1
_geom_bond_atom_site_label_2
_geom_bond_site_symmetry_1
_geom_bond_site_symmetry_2
N1 C1 1_555 1_555
N2 C20 1_555 1_555
C1 H1 1_555 1_555
H2 C1 1_555 1_555
C2 C1 1_555 1_555
H3 C2 1_555 1_555
H4 C2 1_555 1_555
C3 C2 1_555 1_555
H5 C3 1_555 1_555
H6 C3 1_555 1_555
C4 C3 1_555 1_555
H7 C4 1_555 1_555
C5 C4 1_555 1_555
H8 C5 1_555 1_555
C6 C5 1_555 1_555
H9 C6 1_555 1_555
H10 C6 1_555 1_555
C7 C6 1_555 1_555
H11 C7 1_555 1_555
C8 C7 1_555 1_555
H12 C8 1_555 1_555
H13 C8 1_555 1_555
C9 N1 1_555 1_555
C10 N1 1_555 1_555
H14 C10 1_555 1_555
H15 C10 1_555 1_555
C11 C10 1_555 1_555
C12 C11 1_555 1_555
H16 C12 1_555 1_555
C13 C12 1_555 1_555
H17 C13 1_555 1_555
C14 C13 1_555 1_555
H18 C14 1_555 1_555
C15 C14 1_555 1_555
H19 C15 1_555 1_555
C16 C11 1_555 1_555
H20 C16 1_555 1_555
C17 C9 1_555 1_555
C18 C17 1_555 1_555
H21 C18 1_555 1_555
C19 C5 1_555 1_555
H22 C19 1_555 1_555
H23 C19 1_555 1_555
C20 C19 1_555 1_555
C21 C7 1_555 1_555
H24 C21 1_555 1_555
H25 C21 1_555 1_555
H26 C21 1_555 1_555
C4 C9 1_555 1_555
C8 C9 1_555 1_555
C15 C16 1_555 1_555

#END
