
#######################################################################
#
#                 Cambridge Crystallographic Data Centre
#                                CCDC 
#
#######################################################################
#
# If this CIF has been generated from an entry in the Cambridge 
# Structural Database, then it will include bibliographic, chemical, 
# crystal, experimental, refinement or atomic coordinate data resulting 
# from the CCDC's data processing and validation procedures.
#
#######################################################################

data_HIFPIX
_chemical_formula_moiety         'C14 H21 N1 O2'
_chemical_name_systematic        
(3-Ethynyl-3-hydroxy-2-(3-hydroxypropyl)-5-methylcyclohexyl)acetonitrile
_symmetry_cell_setting           orthorhombic
_symmetry_space_group_name_H-M   'P 21 21 21'
_symmetry_Int_Tables_number      19
_space_group_name_Hall           'P 2ac 2ab'
loop_
_symmetry_equiv_pos_site_id
_symmetry_equiv_pos_as_xyz
1 x,y,z
2 1/2-x,-y,1/2+z
3 1/2+x,1/2-y,-z
4 -x,1/2+y,1/2-z
_cell_length_a                   8.3331(12)
_cell_length_b                   9.4612(15)
_cell_length_c                   16.866(2)
_cell_angle_alpha                90
_cell_angle_beta                 90
_cell_angle_gamma                90
_cell_volume                     1329.73
_exptl_crystal_colour            colorless
_exptl_crystal_description       needle
_cell_formula_units_Z            4
loop_
_atom_site_label
_atom_site_type_symbol
_atom_site_fract_x
_atom_site_fract_y
_atom_site_fract_z
C1 C 0.31604(17) 0.57166(14) 0.17398(8)
C2 C 0.43651(16) 0.54156(14) 0.10606(8)
C3 C 0.55116(16) 0.66719(14) 0.08954(8)
C4 C 0.45783(16) 0.80695(15) 0.08167(8)
C5 C 0.35278(17) 0.83738(14) 0.15372(8)
C6 C 0.23382(17) 0.71619(14) 0.16359(8)
C7 C 0.18887(18) 0.46123(15) 0.17305(8)
C8 C 0.0814(2) 0.37855(18) 0.16794(10)
C9 C 0.52249(18) 0.39921(14) 0.11796(8)
C10 C 0.62870(19) 0.35622(15) 0.04792(9)
C11 C 0.68143(19) 0.20272(16) 0.05042(9)
C12 C 0.68911(17) 0.68022(16) 0.15117(8)
C13 C 0.79603(17) 0.79672(15) 0.12812(8)
C14 C 0.2661(2) 0.97931(15) 0.14651(9)
N1 N 0.87368(15) 0.88885(13) 0.10630(7)
O1 O 0.40494(12) 0.56759(11) 0.24695(6)
O2 O 0.77538(13) 0.17787(11) 0.12082(6)
H1 H 0.348(2) 0.604(2) 0.2814(11)
H2 H 0.819(3) 0.102(3) 0.1145(14)
H3 H 0.369(2) 0.5359(17) 0.0572(9)
H4 H 0.603(2) 0.6459(16) 0.0377(9)
H5 H 0.533(2) 0.8861(18) 0.0728(10)
H6 H 0.388(2) 0.8021(18) 0.0352(10)
H7 H 0.4211(19) 0.8434(17) 0.2011(10)
H8 H 0.162(2) 0.7119(18) 0.1187(11)
H9 H 0.164(2) 0.7321(18) 0.2096(10)
H10 H 0.000(2) 0.317(2) 0.1628(13)
H11 H 0.437(2) 0.3275(18) 0.1241(10)
H12 H 0.586(2) 0.4006(19) 0.1667(10)
H13 H 0.567(2) 0.3722(17) -0.0004(9)
H14 H 0.722(2) 0.4146(19) 0.0447(10)
H15 H 0.746(2) 0.1800(19) 0.0039(10)
H16 H 0.587(2) 0.140(2) 0.0504(11)
H17 H 0.653(2) 0.6965(19) 0.2027(11)
H18 H 0.755(2) 0.5961(18) 0.1534(10)
H19 H 0.342(2) 1.057(2) 0.1414(11)
H20 H 0.197(2) 0.979(2) 0.0992(11)
H21 H 0.198(2) 1.0015(19) 0.1930(11)
loop_
_geom_bond_atom_site_label_1
_geom_bond_atom_site_label_2
_geom_bond_site_symmetry_1
_geom_bond_site_symmetry_2
C1 C2 1_555 1_555
C2 C3 1_555 1_555
C3 C4 1_555 1_555
C4 C5 1_555 1_555
C5 C6 1_555 1_555
C6 C1 1_555 1_555
C7 C1 1_555 1_555
C8 C7 1_555 1_555
C9 C2 1_555 1_555
C10 C9 1_555 1_555
C11 C10 1_555 1_555
C12 C3 1_555 1_555
C13 C12 1_555 1_555
C14 C5 1_555 1_555
N1 C13 1_555 1_555
O1 C1 1_555 1_555
O2 C11 1_555 1_555
H1 O1 1_555 1_555
H2 O2 1_555 1_555
H3 C2 1_555 1_555
H4 C3 1_555 1_555
H5 C4 1_555 1_555
H6 C4 1_555 1_555
H7 C5 1_555 1_555
H8 C6 1_555 1_555
H9 C6 1_555 1_555
H10 C8 1_555 1_555
H11 C9 1_555 1_555
H12 C9 1_555 1_555
H13 C10 1_555 1_555
H14 C10 1_555 1_555
H15 C11 1_555 1_555
H16 C11 1_555 1_555
H17 C12 1_555 1_555
H18 C12 1_555 1_555
H19 C14 1_555 1_555
H20 C14 1_555 1_555
H21 C14 1_555 1_555

#END
