
#######################################################################
#
#                 Cambridge Crystallographic Data Centre
#                                CCDC 
#
#######################################################################
#
# If this CIF has been generated from an entry in the Cambridge 
# Structural Database, then it will include bibliographic, chemical, 
# crystal, experimental, refinement or atomic coordinate data resulting 
# from the CCDC's data processing and validation procedures.
#
#######################################################################

data_HIGGAH
_chemical_formula_moiety         'C28 H25 N1 O6 S1'
_chemical_name_systematic        
'Dimethyl 1-((4-methylphenyl)sulfonyl)-4,6-diphenyl-1,6-dihydropyridine-2,3-dicarboxylate'
_symmetry_cell_setting           monoclinic
_symmetry_space_group_name_H-M   'P 21/c'
_symmetry_Int_Tables_number      14
_space_group_name_Hall           '-P 2ybc'
loop_
_symmetry_equiv_pos_site_id
_symmetry_equiv_pos_as_xyz
1 x,y,z
2 -x,1/2+y,1/2-z
3 -x,-y,-z
4 x,1/2-y,1/2+z
_cell_length_a                   13.4116(4)
_cell_length_b                   9.9944(3)
_cell_length_c                   19.1950(6)
_cell_angle_alpha                90
_cell_angle_beta                 93.348(2)
_cell_angle_gamma                90
_cell_volume                     2568.52
_exptl_crystal_colour            colorless
_exptl_crystal_description       block
_cell_formula_units_Z            4
loop_
_atom_site_label
_atom_site_type_symbol
_atom_site_fract_x
_atom_site_fract_y
_atom_site_fract_z
S1 S 0.05662(6) 0.13137(8) 0.22433(4)
O1 O -0.02081(17) 0.1794(3) 0.26502(11)
C1 C 0.0342(2) 0.1870(3) 0.13839(14)
C2 C 0.2038(2) 0.4255(3) 0.21156(15)
H1 H 0.1801 0.5107 0.2003
O2 O 0.0781(2) -0.0083(2) 0.22210(12)
C3 C 0.2082(2) 0.3850(3) 0.34020(15)
C4 C 0.2765(2) 0.3745(3) 0.17599(14)
C5 C 0.1584(2) 0.3496(3) 0.26958(14)
H2 H 0.0879 0.3753 0.2700
N1 N 0.16260(18) 0.2043(2) 0.25526(12)
C6 C 0.2029(2) 0.5176(3) 0.36212(16)
H3 H 0.1703 0.5807 0.3334
C7 C -0.0283(2) 0.2954(3) 0.12479(16)
H4 H -0.0563 0.3410 0.1611
C8 C 0.0765(2) 0.1194(3) 0.08464(16)
H5 H 0.1189 0.0472 0.0941
C9 C 0.3087(2) 0.2374(3) 0.19200(16)
C10 C 0.2516(2) 0.1555(3) 0.22772(17)
C11 C 0.2573(3) 0.2935(3) 0.38358(17)
H6 H 0.2604 0.2042 0.3702
C12 C 0.2456(3) 0.5560(4) 0.42621(19)
H7 H 0.2405 0.6444 0.4407
C13 C 0.3254(2) 0.4555(3) 0.12192(16)
C14 C 0.0550(3) 0.1603(4) 0.01721(17)
H8 H 0.0839 0.1155 -0.0190
O3 O 0.4207(2) 0.1933(4) 0.10067(17)
C15 C -0.0481(3) 0.3342(4) 0.05687(17)
H9 H -0.0890 0.4078 0.0473
O4 O 0.2776(3) -0.0313(3) 0.30281(19)
C16 C 0.2954(3) 0.4644(4) 0.46859(18)
H10 H 0.3246 0.4906 0.5116
C17 C -0.0079(3) 0.2653(4) 0.00189(17)
C18 C 0.3020(3) 0.3340(4) 0.44719(18)
H11 H 0.3368 0.2721 0.4755
O5 O 0.2931(3) -0.0554(3) 0.1873(2)
C19 C 0.2778(3) 0.4772(5) 0.0574(2)
H12 H 0.2166 0.4366 0.0461
C20 C 0.2759(3) 0.0123(4) 0.2449(3)
C21 C 0.4041(3) 0.1846(4) 0.1613(3)
O6 O 0.4640(3) 0.1327(5) 0.20777(19)
C22 C 0.4624(5) 0.5895(6) 0.0872(3)
H13 H 0.5258 0.6252 0.0967
C23 C 0.4197(3) 0.5090(5) 0.1361(2)
H14 H 0.4543 0.4909 0.1784
C24 C -0.0332(5) 0.3036(6) -0.0735(2)
H15 H 0.0013 0.2452 -0.1037
H16 H -0.0130 0.3944 -0.0811
H17 H -0.1039 0.2955 -0.0835
C25 C 0.4110(6) 0.6168(6) 0.0246(4)
H18 H 0.4384 0.6746 -0.0071
C26 C 0.3128(9) -0.1987(6) 0.2008(6)
H19 H 0.3247 -0.2430 0.1577
H20 H 0.2560 -0.2383 0.2210
H21 H 0.3705 -0.2078 0.2325
C27 C 0.3207(5) 0.5597(6) 0.0089(3)
H22 H 0.2874 0.5756 -0.0342
C28 C 0.5478(7) 0.0611(14) 0.1698(5)
H23 H 0.5937 0.0201 0.2036
H24 H 0.5827 0.1253 0.1430
H25 H 0.5189 -0.0063 0.1392
loop_
_geom_bond_atom_site_label_1
_geom_bond_atom_site_label_2
_geom_bond_site_symmetry_1
_geom_bond_site_symmetry_2
S1 O1 1_555 1_555
C1 S1 1_555 1_555
C2 H1 1_555 1_555
O2 S1 1_555 1_555
C3 C5 1_555 1_555
C4 C2 1_555 1_555
C5 C2 1_555 1_555
H2 C5 1_555 1_555
N1 S1 1_555 1_555
C6 C3 1_555 1_555
H3 C6 1_555 1_555
C7 C1 1_555 1_555
H4 C7 1_555 1_555
C8 C1 1_555 1_555
H5 C8 1_555 1_555
C9 C4 1_555 1_555
C10 N1 1_555 1_555
C11 C3 1_555 1_555
H6 C11 1_555 1_555
C12 C6 1_555 1_555
H7 C12 1_555 1_555
C13 C4 1_555 1_555
C14 C8 1_555 1_555
H8 C14 1_555 1_555
O3 C21 1_555 1_555
C15 C7 1_555 1_555
H9 C15 1_555 1_555
O4 C20 1_555 1_555
C16 C12 1_555 1_555
H10 C16 1_555 1_555
C17 C14 1_555 1_555
C18 C11 1_555 1_555
H11 C18 1_555 1_555
O5 C20 1_555 1_555
C19 C13 1_555 1_555
H12 C19 1_555 1_555
C20 C10 1_555 1_555
C21 C9 1_555 1_555
O6 C21 1_555 1_555
C22 H13 1_555 1_555
C23 C13 1_555 1_555
H14 C23 1_555 1_555
C24 C17 1_555 1_555
H15 C24 1_555 1_555
H16 C24 1_555 1_555
H17 C24 1_555 1_555
C25 C22 1_555 1_555
H18 C25 1_555 1_555
C26 O5 1_555 1_555
H19 C26 1_555 1_555
H20 C26 1_555 1_555
H21 C26 1_555 1_555
C27 C19 1_555 1_555
H22 C27 1_555 1_555
C28 O6 1_555 1_555
H23 C28 1_555 1_555
H24 C28 1_555 1_555
H25 C28 1_555 1_555
C5 N1 1_555 1_555
C9 C10 1_555 1_555
C15 C17 1_555 1_555
C16 C18 1_555 1_555
C22 C23 1_555 1_555
C25 C27 1_555 1_555

#END
