
#######################################################################
#
#                 Cambridge Crystallographic Data Centre
#                                CCDC 
#
#######################################################################
#
# If this CIF has been generated from an entry in the Cambridge 
# Structural Database, then it will include bibliographic, chemical, 
# crystal, experimental, refinement or atomic coordinate data resulting 
# from the CCDC's data processing and validation procedures.
#
#######################################################################

data_HIGKIS
_chemical_formula_moiety         'C10 H9 N2 1+,C24 H32 O8,C1 F3 O3 S1 1-'
_chemical_name_systematic        
"[2]-(4,4'-Bipyridinium)-(dibenzo-24-crown-8)-pseudorotaxane trifluoromethanesulfonate"
_symmetry_cell_setting           orthorhombic
_symmetry_space_group_name_H-M   'P b c n'
_symmetry_Int_Tables_number      60
_space_group_name_Hall           '-P 2n 2ab'
loop_
_symmetry_equiv_pos_site_id
_symmetry_equiv_pos_as_xyz
1 x,y,z
2 1/2-x,1/2-y,1/2+z
3 1/2+x,1/2-y,-z
4 -x,y,1/2-z
5 -x,-y,-z
6 1/2+x,1/2+y,1/2-z
7 1/2-x,1/2+y,z
8 x,-y,1/2+z
_cell_length_a                   19.539(3)
_cell_length_b                   19.289(3)
_cell_length_c                   19.541(3)
_cell_angle_alpha                90
_cell_angle_beta                 90
_cell_angle_gamma                90
_cell_volume                     7364.76
_exptl_crystal_colour            yellow
_exptl_crystal_description       block
_cell_formula_units_Z            8
loop_
_atom_site_label
_atom_site_type_symbol
_atom_site_fract_x
_atom_site_fract_y
_atom_site_fract_z
N1 N 0.5000 0.9514(2) 0.2500
H1 H 0.5000 0.9960 0.2500
N2 N 0.5000 0.58960(19) 0.2500
C1 C 0.5558(2) 0.91834(17) 0.22876(17)
H3 H 0.5939 0.9434 0.2145
C2 C 0.55700(19) 0.84743(16) 0.22796(17)
H4 H 0.5957 0.8239 0.2128
C3 C 0.5000 0.8112(2) 0.2500
C4 C 0.5000 0.7333(2) 0.2500
C5 C 0.5579(2) 0.69616(16) 0.26957(16)
H5 H 0.5975 0.7191 0.2830
C6 C 0.5554(2) 0.62510(17) 0.26873(18)
H6 H 0.5943 0.6006 0.2818
C1C C 0.4442(2) 0.91834(17) 0.27124(17)
H3C H 0.4061 0.9434 0.2855
C2C C 0.44300(19) 0.84743(16) 0.27204(17)
H4C H 0.4043 0.8239 0.2872
C5C C 0.4421(2) 0.69616(16) 0.23043(16)
H5C H 0.4025 0.7191 0.2170
C6C C 0.4446(2) 0.62510(17) 0.23127(18)
H6C H 0.4057 0.6006 0.2182
N3 N 0.5000 0.45122(19) 0.2500
H2 H 0.5000 0.4958 0.2500
N4 N 0.5000 0.08985(19) 0.2500
C19 C 0.51843(19) 0.41824(18) 0.1934(2)
H23 H 0.5312 0.4432 0.1548
C20 C 0.51859(18) 0.34735(16) 0.1920(2)
H24 H 0.5311 0.3240 0.1523
C21 C 0.5000 0.3103(2) 0.2500
C22 C 0.5000 0.2335(2) 0.2500
C23 C 0.47539(18) 0.19670(16) 0.19478(19)
H25 H 0.4581 0.2198 0.1568
C24 C 0.47670(18) 0.12514(17) 0.1965(2)
H26 H 0.4606 0.1007 0.1587
C19C C 0.48157(19) 0.41824(18) 0.3066(2)
H23C H 0.4688 0.4432 0.3452
C20C C 0.48141(18) 0.34735(16) 0.3080(2)
H24C H 0.4689 0.3240 0.3477
C23C C 0.52461(18) 0.19670(16) 0.30522(19)
H25C H 0.5419 0.2198 0.3432
C24C C 0.52330(18) 0.12514(17) 0.3035(2)
H26C H 0.5394 0.1007 0.3413
O1 O 0.09278(12) 0.46503(12) 0.12075(11)
O2 O 0.15910(12) 0.54721(13) 0.22072(12)
O3 O 0.14653(13) 0.55161(12) 0.35567(12)
O4 O 0.03216(12) 0.47875(11) 0.42011(11)
C7 C 0.16462(18) 0.46223(19) 0.13400(19)
H7 H 0.1890 0.4480 0.0931
H8 H 0.1741 0.4289 0.1699
C8 C 0.1873(2) 0.5325(2) 0.15546(18)
H9 H 0.2369 0.5342 0.1577
H10 H 0.1720 0.5667 0.1225
C9 C 0.1970(2) 0.59798(18) 0.25631(19)
H11 H 0.2004 0.6397 0.2288
H12 H 0.2429 0.5810 0.2650
C10 C 0.1624(2) 0.61424(18) 0.32250(19)
H13 H 0.1924 0.6420 0.3511
H14 H 0.1209 0.6405 0.3141
C11 C 0.1231(2) 0.55963(19) 0.42391(18)
H15 H 0.0860 0.5931 0.4255
H16 H 0.1600 0.5763 0.4528
C12 C 0.09862(18) 0.49063(18) 0.44875(18)
H17 H 0.1300 0.4545 0.4344
H18 H 0.0962 0.4904 0.4983
C13 C 0.00336(19) 0.41481(17) 0.43160(17)
C14 C 0.0360(2) 0.36073(18) 0.4636(2)
H19 H 0.0804 0.3662 0.4801
C15 C 0.0020(3) 0.2975(2) 0.4711(2)
H20 H 0.0240 0.2607 0.4926
C16 C -0.0630(3) 0.2893(2) 0.4472(2)
H21 H -0.0851 0.2469 0.4524
C17 C -0.0961(2) 0.34378(19) 0.41531(19)
H22 H -0.1404 0.3378 0.3987
C18 C 0.06380(19) 0.40692(18) 0.09196(16)
O1C O -0.09278(12) 0.46503(12) 0.37925(11)
O2C O -0.15910(12) 0.54721(13) 0.27928(12)
O3C O -0.14653(13) 0.55161(12) 0.14433(12)
O4C O -0.03216(12) 0.47875(11) 0.07989(11)
C7C C -0.16462(18) 0.46223(19) 0.36600(19)
H7C H -0.1890 0.4480 0.4069
H8C H -0.1741 0.4289 0.3301
C8C C -0.1873(2) 0.5325(2) 0.34454(18)
H9C H -0.2369 0.5342 0.3423
H10C H -0.1720 0.5667 0.3775
C9C C -0.1970(2) 0.59798(18) 0.24369(19)
H11C H -0.2004 0.6397 0.2712
H12C H -0.2429 0.5810 0.2350
C10C C -0.1624(2) 0.61424(18) 0.17750(19)
H13C H -0.1924 0.6420 0.1489
H14C H -0.1209 0.6405 0.1859
C11C C -0.1231(2) 0.55963(19) 0.07609(18)
H15C H -0.0860 0.5931 0.0745
H16C H -0.1600 0.5763 0.0472
C12C C -0.09862(18) 0.49063(18) 0.05125(18)
H17C H -0.1300 0.4545 0.0656
H18C H -0.0962 0.4904 0.0017
C13C C -0.00336(19) 0.41481(17) 0.06840(17)
C14C C -0.0360(2) 0.36073(18) 0.0364(2)
H19C H -0.0804 0.3662 0.0199
C15C C -0.0020(3) 0.2975(2) 0.0289(2)
H20C H -0.0240 0.2607 0.0074
C16C C 0.0630(3) 0.2893(2) 0.0528(2)
H21C H 0.0851 0.2469 0.0476
C17C C 0.0961(2) 0.34378(19) 0.08469(19)
H22C H 0.1404 0.3378 0.1013
C18C C -0.06380(19) 0.40692(18) 0.40804(16)
O5 O 0.64303(12) 0.46534(13) 0.32971(11)
O6 O 0.54489(13) 0.54256(12) 0.40895(12)
O7 O 0.40711(13) 0.54505(11) 0.41068(12)
O8 O 0.33007(12) 0.47769(12) 0.30001(11)
C25 C 0.6370(2) 0.4627(2) 0.40261(17)
H27 H 0.6808 0.4507 0.4227
H28 H 0.6040 0.4275 0.4155
C26 C 0.6145(2) 0.5308(2) 0.42833(18)
H29 H 0.6187 0.5321 0.4778
H30 H 0.6434 0.5670 0.4094
C27 C 0.5114(2) 0.58964(18) 0.45316(18)
H31 H 0.5385 0.6315 0.4578
H32 H 0.5063 0.5690 0.4982
C28 C 0.4431(2) 0.60698(17) 0.42474(19)
H33 H 0.4177 0.6347 0.4574
H34 H 0.4484 0.6337 0.3830
C29 C 0.3377(2) 0.55534(19) 0.39302(18)
H35 H 0.3343 0.5898 0.3570
H36 H 0.3125 0.5721 0.4325
C30 C 0.30783(19) 0.48824(18) 0.36908(17)
H37 H 0.3234 0.4505 0.3979
H38 H 0.2583 0.4901 0.3711
C31 C 0.31025(19) 0.41636(18) 0.27033(18)
C32 C 0.2767(2) 0.36371(19) 0.3033(2)
H39 H 0.2647 0.3688 0.3491
C33 C 0.2604(2) 0.3029(2) 0.2691(2)
H40 H 0.2376 0.2674 0.2918
C34 C 0.2780(3) 0.2955(2) 0.2026(3)
H41 H 0.2673 0.2545 0.1798
C35 C 0.3112(2) 0.3472(2) 0.1682(2)
H42 H 0.3234 0.3410 0.1226
C36 C 0.67309(19) 0.40890(19) 0.29915(19)
O5C O 0.35697(12) 0.46534(13) 0.17029(11)
O6C O 0.45511(13) 0.54256(12) 0.09105(12)
O7C O 0.59289(13) 0.54505(11) 0.08932(12)
O8C O 0.66993(12) 0.47769(12) 0.19999(11)
C25C C 0.3630(2) 0.4627(2) 0.09739(17)
H27C H 0.3192 0.4507 0.0773
H28C H 0.3960 0.4275 0.0845
C26C C 0.3855(2) 0.5308(2) 0.07167(18)
H29C H 0.3813 0.5321 0.0222
H30C H 0.3566 0.5670 0.0906
C27C C 0.4886(2) 0.58964(18) 0.04684(18)
H31C H 0.4615 0.6315 0.0422
H32C H 0.4937 0.5690 0.0018
C28C C 0.5569(2) 0.60698(17) 0.07526(19)
H33C H 0.5823 0.6347 0.0426
H34C H 0.5516 0.6337 0.1170
C29C C 0.6623(2) 0.55534(19) 0.10698(18)
H35C H 0.6657 0.5898 0.1430
H36C H 0.6875 0.5721 0.0675
C30C C 0.69217(19) 0.48824(18) 0.13092(17)
H37C H 0.6766 0.4505 0.1021
H38C H 0.7417 0.4901 0.1289
C31C C 0.68975(19) 0.41636(18) 0.22967(18)
C32C C 0.7233(2) 0.36371(19) 0.1967(2)
H39C H 0.7353 0.3688 0.1509
C33C C 0.7396(2) 0.3029(2) 0.2309(2)
H40C H 0.7624 0.2674 0.2082
C34C C 0.7220(3) 0.2955(2) 0.2974(3)
H41C H 0.7327 0.2545 0.3202
C35C C 0.6888(2) 0.3472(2) 0.3318(2)
H42C H 0.6766 0.3410 0.3774
C36C C 0.32691(19) 0.40890(19) 0.20085(19)
S1 S 0.76829(14) 0.68062(11) 0.46466(12)
O9 O 0.7034(4) 0.6907(6) 0.4232(3)
O10 O 0.7618(4) 0.6185(3) 0.5093(5)
O11 O 0.8336(2) 0.6966(3) 0.4353(2)
C37 C 0.7582(5) 0.7499(4) 0.5240(4)
F1 F 0.6977(3) 0.7461(2) 0.5587(2)
F2 F 0.8076(6) 0.7535(7) 0.5713(5)
F3 F 0.7567(5) 0.8136(4) 0.4947(5)
S2? S 0.7296(3) 0.6687(2) 0.4907(2)
O12? O 0.7223(7) 0.6811(10) 0.4153(4)
O13? O 0.7832(7) 0.6133(8) 0.5063(10)
O14? O 0.6703(4) 0.6768(5) 0.5367(4)
C38? C 0.7790(7) 0.7424(7) 0.5145(7)
F4? F 0.7412(11) 0.7997(10) 0.5076(12)
F5? F 0.7967(12) 0.7368(15) 0.5804(7)
F6? F 0.8360(5) 0.7495(5) 0.4776(5)
loop_
_geom_bond_atom_site_label_1
_geom_bond_atom_site_label_2
_geom_bond_site_symmetry_1
_geom_bond_site_symmetry_2
N1 H1 1_555 1_555
N2 C6 1_555 1_555
N3 H2 1_555 1_555
N4 C24 1_555 1_555
O1 C7 1_555 1_555
O2 C8 1_555 1_555
O3 C10 1_555 1_555
O4 C12 1_555 1_555
O5 C25 1_555 1_555
O6 C26 1_555 1_555
O7 C28 1_555 1_555
O8 C30 1_555 1_555
C1 N1 1_555 1_555
H3 C1 1_555 1_555
C2 C1 1_555 1_555
H4 C2 1_555 1_555
C3 C2 1_555 1_555
C4 C3 1_555 1_555
C5 C4 1_555 1_555
H5 C5 1_555 1_555
C6 C5 1_555 1_555
H6 C6 1_555 1_555
C7 H7 1_555 1_555
H8 C7 1_555 1_555
C8 C7 1_555 1_555
H9 C8 1_555 1_555
H10 C8 1_555 1_555
C9 O2 1_555 1_555
H11 C9 1_555 1_555
H12 C9 1_555 1_555
C10 C9 1_555 1_555
H13 C10 1_555 1_555
H14 C10 1_555 1_555
C11 O3 1_555 1_555
H15 C11 1_555 1_555
H16 C11 1_555 1_555
C12 C11 1_555 1_555
H17 C12 1_555 1_555
H18 C12 1_555 1_555
C13 O4 1_555 1_555
C14 C13 1_555 1_555
H19 C14 1_555 1_555
C15 C14 1_555 1_555
H20 C15 1_555 1_555
C16 C15 1_555 1_555
H21 C16 1_555 1_555
C17 C16 1_555 1_555
H22 C17 1_555 1_555
C18 O1 1_555 1_555
C19 N3 1_555 1_555
H23 C19 1_555 1_555
C20 C19 1_555 1_555
H24 C20 1_555 1_555
C21 C20 1_555 1_555
C22 C21 1_555 1_555
C23 C22 1_555 1_555
H25 C23 1_555 1_555
C24 C23 1_555 1_555
H26 C24 1_555 1_555
C25 H27 1_555 1_555
H28 C25 1_555 1_555
C26 C25 1_555 1_555
H29 C26 1_555 1_555
H30 C26 1_555 1_555
C27 O6 1_555 1_555
H31 C27 1_555 1_555
H32 C27 1_555 1_555
C28 C27 1_555 1_555
H33 C28 1_555 1_555
H34 C28 1_555 1_555
C29 O7 1_555 1_555
H35 C29 1_555 1_555
H36 C29 1_555 1_555
C30 C29 1_555 1_555
H37 C30 1_555 1_555
H38 C30 1_555 1_555
C31 O8 1_555 1_555
C32 C31 1_555 1_555
H39 C32 1_555 1_555
C33 C32 1_555 1_555
H40 C33 1_555 1_555
C34 C33 1_555 1_555
H41 C34 1_555 1_555
C35 C34 1_555 1_555
H42 C35 1_555 1_555
C36 O5 1_555 1_555
S1 O9 1_555 1_555
O10 S1 1_555 1_555
O11 S1 1_555 1_555
C37 S1 1_555 1_555
F1 C37 1_555 1_555
F2 C37 1_555 1_555
F3 C37 1_555 1_555
O1C C7C 1_555 1_555
O2C C8C 1_555 1_555
O3C C10C 1_555 1_555
O4C C12C 1_555 1_555
O5C C25C 1_555 1_555
O6C C26C 1_555 1_555
O7C C28C 1_555 1_555
O8C C30C 1_555 1_555
C1C N1 1_555 1_555
H3C C1C 1_555 1_555
C2C C3 1_555 1_555
H4C C2C 1_555 1_555
C5C C4 1_555 1_555
H5C C5C 1_555 1_555
C6C N2 1_555 1_555
H6C C6C 1_555 1_555
C7C H7C 1_555 1_555
H8C C7C 1_555 1_555
C8C C7C 1_555 1_555
H9C C8C 1_555 1_555
H10C C8C 1_555 1_555
C9C O2C 1_555 1_555
H11C C9C 1_555 1_555
H12C C9C 1_555 1_555
C10C C9C 1_555 1_555
H13C C10C 1_555 1_555
H14C C10C 1_555 1_555
C11C O3C 1_555 1_555
H15C C11C 1_555 1_555
H16C C11C 1_555 1_555
C12C C11C 1_555 1_555
H17C C12C 1_555 1_555
H18C C12C 1_555 1_555
C13C C18 1_555 1_555
C14C C13C 1_555 1_555
H19C C14C 1_555 1_555
C15C C14C 1_555 1_555
H20C C15C 1_555 1_555
C16C C15C 1_555 1_555
H21C C16C 1_555 1_555
C17C C18 1_555 1_555
H22C C17C 1_555 1_555
C18C C13 1_555 1_555
C19C N3 1_555 1_555
H23C C19C 1_555 1_555
C20C C21 1_555 1_555
H24C C20C 1_555 1_555
C23C C22 1_555 1_555
H25C C23C 1_555 1_555
C24C N4 1_555 1_555
H26C C24C 1_555 1_555
C25C H27C 1_555 1_555
H28C C25C 1_555 1_555
C26C C25C 1_555 1_555
H29C C26C 1_555 1_555
H30C C26C 1_555 1_555
C27C O6C 1_555 1_555
H31C C27C 1_555 1_555
H32C C27C 1_555 1_555
C28C C27C 1_555 1_555
H33C C28C 1_555 1_555
H34C C28C 1_555 1_555
C29C O7C 1_555 1_555
H35C C29C 1_555 1_555
H36C C29C 1_555 1_555
C30C C29C 1_555 1_555
H37C C30C 1_555 1_555
H38C C30C 1_555 1_555
C31C C36 1_555 1_555
C32C C31C 1_555 1_555
H39C C32C 1_555 1_555
C33C C32C 1_555 1_555
H40C C33C 1_555 1_555
C34C C33C 1_555 1_555
H41C C34C 1_555 1_555
C35C C36 1_555 1_555
H42C C35C 1_555 1_555
C36C C31 1_555 1_555
C17 C18C 1_555 1_555
C35 C36C 1_555 1_555
O1C C18C 1_555 1_555
O4C C13C 1_555 1_555
O5C C36C 1_555 1_555
O8C C31C 1_555 1_555
C1C C2C 1_555 1_555
C5C C6C 1_555 1_555
C16C C17C 1_555 1_555
C19C C20C 1_555 1_555
C23C C24C 1_555 1_555
C34C C35C 1_555 1_555

#END
