
#######################################################################
#
#                 Cambridge Crystallographic Data Centre
#                                CCDC 
#
#######################################################################
#
# If this CIF has been generated from an entry in the Cambridge 
# Structural Database, then it will include bibliographic, chemical, 
# crystal, experimental, refinement or atomic coordinate data resulting 
# from the CCDC's data processing and validation procedures.
#
#######################################################################

data_HIGWIE
_chemical_formula_moiety         'C15 H12 Cl1 N3 O1 S1'
_chemical_name_systematic        
4-Phenyl-3-(4-chlorophenoxymethyl)-1H-1,2,4-triazole-5(4H)-thione
_symmetry_cell_setting           triclinic
_symmetry_space_group_name_H-M   'P -1'
_symmetry_Int_Tables_number      2
_space_group_name_Hall           '-P 1'
loop_
_symmetry_equiv_pos_site_id
_symmetry_equiv_pos_as_xyz
1 x,y,z
2 -x,-y,-z
_cell_length_a                   7.221(3)
_cell_length_b                   10.251(4)
_cell_length_c                   11.641(5)
_cell_angle_alpha                101.140(9)
_cell_angle_beta                 102.734(7)
_cell_angle_gamma                110.388(7)
_cell_volume                     752.712
_exptl_crystal_colour            colorless
_exptl_crystal_description       plate
_chemical_melting_point          214-216deg.C
_cell_formula_units_Z            2
_exptl_crystal_recrystallization_method dmf/water
loop_
_atom_site_label
_atom_site_type_symbol
_atom_site_fract_x
_atom_site_fract_y
_atom_site_fract_z
C1 C 0.2679(3) 0.4690(2) 0.11755(18)
C2 C 0.4324(3) 0.3352(2) 0.05651(17)
C3 C 0.5871(3) 0.2704(2) 0.0597(2)
H1 H 0.5811 0.2267 -0.0235
H2 H 0.7263 0.3450 0.1027
C4 C 0.6909(3) 0.1156(2) 0.16253(18)
C5 C 0.8544(3) 0.1288(2) 0.1163(2)
H3 H 0.8685 0.1727 0.0541
C6 C 0.9977(4) 0.0758(2) 0.1637(2)
H4 H 1.1085 0.0839 0.1331
C7 C 0.9756(3) 0.0120(2) 0.2550(2)
C8 C 0.8127(4) -0.0022(3) 0.3009(2)
H5 H 0.7990 -0.0465 0.3630
C9 C 0.6699(4) 0.0498(2) 0.2545(2)
H6 H 0.5588 0.0405 0.2850
C10 C 0.5642(3) 0.4754(2) 0.28151(16)
C11 C 0.5391(3) 0.3824(3) 0.35311(19)
H7 H 0.4339 0.2889 0.3222
C12 C 0.6736(4) 0.4312(3) 0.4720(2)
H8 H 0.6600 0.3698 0.5219
C13 C 0.8261(4) 0.5689(3) 0.5164(2)
H9 H 0.9150 0.6013 0.5968
C14 C 0.8494(4) 0.6596(3) 0.4441(2)
H10 H 0.9546 0.7531 0.4751
C15 C 0.7172(4) 0.6129(3) 0.3249(2)
H11 H 0.7323 0.6743 0.2752
Cl1 Cl 1.15433(11) -0.05553(9) 0.31346(9)
N1 N 0.4256(2) 0.42697(18) 0.15732(14)
N2 N 0.1907(3) 0.3987(2) -0.00259(16)
N3 N 0.2898(3) 0.3155(2) -0.04265(15)
O1 O 0.5387(2) 0.16264(16) 0.12193(14)
S1 S 0.19304(10) 0.58280(7) 0.19962(5)
H12 H 0.091(4) 0.402(2) -0.051(2)
loop_
_geom_bond_atom_site_label_1
_geom_bond_atom_site_label_2
_geom_bond_site_symmetry_1
_geom_bond_site_symmetry_2
C1 N1 1_555 1_555
C2 C3 1_555 1_555
C3 H1 1_555 1_555
H2 C3 1_555 1_555
C4 C5 1_555 1_555
C5 H3 1_555 1_555
C6 C5 1_555 1_555
H4 C6 1_555 1_555
C7 C6 1_555 1_555
C8 C7 1_555 1_555
H5 C8 1_555 1_555
C9 C4 1_555 1_555
H6 C9 1_555 1_555
C10 C11 1_555 1_555
C11 H7 1_555 1_555
C12 C11 1_555 1_555
H8 C12 1_555 1_555
C13 C12 1_555 1_555
H9 C13 1_555 1_555
C14 C13 1_555 1_555
H10 C14 1_555 1_555
C15 C10 1_555 1_555
H11 C15 1_555 1_555
Cl1 C7 1_555 1_555
N1 C2 1_555 1_555
N2 C1 1_555 1_555
N3 C2 1_555 1_555
O1 C3 1_555 1_555
S1 C1 1_555 1_555
H12 N2 1_555 1_555
C4 O1 1_555 1_555
C8 C9 1_555 1_555
C10 N1 1_555 1_555
C14 C15 1_555 1_555
N2 N3 1_555 1_555

#END
