
#######################################################################
#
#                 Cambridge Crystallographic Data Centre
#                                CCDC 
#
#######################################################################
#
# If this CIF has been generated from an entry in the Cambridge 
# Structural Database, then it will include bibliographic, chemical, 
# crystal, experimental, refinement or atomic coordinate data resulting 
# from the CCDC's data processing and validation procedures.
#
#######################################################################

data_HIHWAX
_chemical_formula_moiety         'C15 H20 N2'
_chemical_name_systematic        (E)-N,N'-Diisopropyl-3-phenylpropiolamidine
_symmetry_cell_setting           orthorhombic
_symmetry_space_group_name_H-M   'P c a 21'
_symmetry_Int_Tables_number      29
_space_group_name_Hall           'P 2c -2ac'
loop_
_symmetry_equiv_pos_site_id
_symmetry_equiv_pos_as_xyz
1 x,y,z
2 -x,-y,1/2+z
3 1/2+x,-y,z
4 1/2-x,y,1/2+z
_cell_length_a                   8.5537(11)
_cell_length_b                   16.863(2)
_cell_length_c                   10.0178(13)
_cell_angle_alpha                90
_cell_angle_beta                 90
_cell_angle_gamma                90
_cell_volume                     1444.98
_cell_formula_units_Z            4
loop_
_atom_site_label
_atom_site_type_symbol
_atom_site_fract_x
_atom_site_fract_y
_atom_site_fract_z
C1 C 1.0096(3) 0.35815(15) 0.6279(3)
C2 C 0.9631(4) 0.36184(19) 0.7597(3)
H1 H 0.8976 0.3228 0.7939
C3 C 1.1102(4) 0.41524(17) 0.5791(3)
H2 H 1.1452 0.4124 0.4914
C4 C 1.1128(5) 0.48031(19) 0.7894(4)
H3 H 1.1468 0.5217 0.8434
C5 C 1.1609(4) 0.47556(19) 0.6610(4)
H4 H 1.2287 0.5138 0.6273
C6 C 1.0129(5) 0.4240(2) 0.8388(4)
H5 H 0.9798 0.4267 0.9272
C7 C 0.9141(3) 0.24427(17) 0.4687(3)
C8 C 0.8627(3) 0.18401(15) 0.3748(3)
C9 C 0.9565(3) 0.29573(17) 0.5414(3)
N1 N 0.7502(3) 0.13506(12) 0.4274(3)
H6 H 0.6692 0.1665 0.4496
N2 N 0.9159(3) 0.17627(12) 0.2576(3)
C10 C 1.0465(4) 0.22756(18) 0.2166(4)
H7 H 1.1009 0.2461 0.2968
C11 C 0.6863(3) 0.06903(15) 0.3526(3)
H8 H 0.7675 0.0470 0.2944
C12 C 0.6369(4) 0.00540(18) 0.4515(4)
H9 H 0.7255 -0.0087 0.5054
H10 H 0.6000 -0.0406 0.4048
H11 H 0.5552 0.0256 0.5077
C13 C 0.9897(5) 0.2960(3) 0.1425(7)
H12 H 0.9532 0.2792 0.0564
H13 H 1.0731 0.3336 0.1314
H14 H 0.9054 0.3205 0.1906
C14 C 1.1552(5) 0.1803(2) 0.1308(6)
H15 H 1.2035 0.1408 0.1863
H16 H 1.2343 0.2141 0.0936
H17 H 1.0989 0.1547 0.0600
C15 C 0.5508(4) 0.0935(2) 0.2683(4)
H18 H 0.4686 0.1134 0.3242
H19 H 0.5129 0.0492 0.2176
H20 H 0.5848 0.1345 0.2085
loop_
_geom_bond_atom_site_label_1
_geom_bond_atom_site_label_2
_geom_bond_site_symmetry_1
_geom_bond_site_symmetry_2
C1 C2 1_555 1_555
C2 H1 1_555 1_555
C3 C1 1_555 1_555
H2 C3 1_555 1_555
C4 H3 1_555 1_555
C5 C3 1_555 1_555
H4 C5 1_555 1_555
C6 C2 1_555 1_555
H5 C6 1_555 1_555
C7 C8 1_555 1_555
C8 N1 1_555 1_555
C9 C1 1_555 1_555
N1 H6 1_555 1_555
N2 C8 1_555 1_555
C10 N2 1_555 1_555
H7 C10 1_555 1_555
C11 N1 1_555 1_555
H8 C11 1_555 1_555
C12 C11 1_555 1_555
H9 C12 1_555 1_555
H10 C12 1_555 1_555
H11 C12 1_555 1_555
C13 C10 1_555 1_555
H12 C13 1_555 1_555
H13 C13 1_555 1_555
H14 C13 1_555 1_555
C14 C10 1_555 1_555
H15 C14 1_555 1_555
H16 C14 1_555 1_555
H17 C14 1_555 1_555
C15 C11 1_555 1_555
H18 C15 1_555 1_555
H19 C15 1_555 1_555
H20 C15 1_555 1_555
C4 C5 1_555 1_555
C4 C6 1_555 1_555
C7 C9 1_555 1_555

#END
