
#######################################################################
#
#                 Cambridge Crystallographic Data Centre
#                                CCDC 
#
#######################################################################
#
# If this CIF has been generated from an entry in the Cambridge 
# Structural Database, then it will include bibliographic, chemical, 
# crystal, experimental, refinement or atomic coordinate data resulting 
# from the CCDC's data processing and validation procedures.
#
#######################################################################

data_HIHYUU
_chemical_name_common            
'((2,6-Dioxopiperidin-1-yl)methyl)(dimethyl)silyl trifluoromethanesulfonate'
_chemical_formula_moiety         'C9 H14 F3 N1 O5 S1 Si1'
_chemical_name_systematic        
dimethyl-(trifluoromethanesulfonato)-((2,6-dioxopiperidin-1-yl)methyl)-silicon
_symmetry_cell_setting           triclinic
_symmetry_space_group_name_H-M   'P -1'
_symmetry_Int_Tables_number      2
_space_group_name_Hall           '-P 1'
loop_
_symmetry_equiv_pos_site_id
_symmetry_equiv_pos_as_xyz
1 x,y,z
2 -x,-y,-z
_cell_length_a                   8.3636(2)
_cell_length_b                   8.8564(4)
_cell_length_c                   18.6451(8)
_cell_angle_alpha                91.671(2)
_cell_angle_beta                 94.616(3)
_cell_angle_gamma                93.374(3)
_cell_volume                     1373.41
_exptl_crystal_colour            colorless
_exptl_crystal_description       Rod
_cell_formula_units_Z            4
loop_
_atom_site_label
_atom_site_type_symbol
_atom_site_fract_x
_atom_site_fract_y
_atom_site_fract_z
C1 C 0.7326(7) 1.1971(7) -0.1503(3)
C2 C 0.7543(7) 1.3374(7) -0.1931(3)
H1 H 0.6843 1.3252 -0.2386
H2 H 0.8671 1.3481 -0.2058
C3 C 0.7151(8) 1.4812(7) -0.1531(3)
H3 H 0.5984 1.4793 -0.1473
H4 H 0.7442 1.5706 -0.1811
C4 C 0.8087(8) 1.4923(7) -0.0794(3)
H5 H 0.9246 1.5107 -0.0855
H6 H 0.7736 1.5791 -0.0513
C5 C 0.7831(6) 1.3513(6) -0.0395(3)
C6 C 0.7266(7) 1.0874(6) -0.0280(3)
H7 H 0.8091 1.0146 -0.0364
H8 H 0.6191 1.0350 -0.0387
C7 C 0.5761(7) 1.2317(7) 0.1111(3)
H9 H 0.5302 1.1522 0.1402
H10 H 0.4948 1.2590 0.0737
H11 H 0.6107 1.3209 0.1420
C8 C 0.9492(7) 1.1653(7) 0.1211(3)
H12 H 0.9614 1.2542 0.1541
H13 H 1.0349 1.1703 0.0882
H14 H 0.9562 1.0732 0.1489
C9 C 0.7689(7) 0.7401(7) 0.1802(3)
N1 N 0.7454(5) 1.2183(5) -0.0747(3)
O1 O 0.7073(5) 1.0706(5) -0.1762(2)
O2 O 0.7992(5) 1.3526(4) 0.0283(2)
O3 O 0.6830(5) 0.9486(4) 0.0960(2)
O4 O 0.6118(5) 0.6890(5) 0.0565(2)
O5 O 0.8914(5) 0.7883(5) 0.0594(2)
F1 F 0.8809(4) 0.8306(4) 0.2162(2)
F2 F 0.8159(5) 0.5980(4) 0.1833(2)
F3 F 0.6347(5) 0.7473(5) 0.2134(2)
Si1 Si 0.75085(19) 1.16167(19) 0.06848(9)
S1 S 0.73643(17) 0.79370(16) 0.08698(8)
C10 C 0.7920(7) 0.7175(7) 0.6491(3)
C11 C 0.8343(7) 0.8636(7) 0.6911(3)
H15 H 0.9522 0.8743 0.7025
H16 H 0.7834 0.8598 0.7372
C12 C 0.7813(7) 1.0018(7) 0.6513(3)
H17 H 0.8245 1.0948 0.6787
H18 H 0.6625 1.0016 0.6473
C13 C 0.8418(7) 1.0013(7) 0.5760(3)
H19 H 0.7939 1.0833 0.5482
H20 H 0.9600 1.0205 0.5800
C14 C 0.7983(6) 0.8543(6) 0.5379(3)
C15 C 0.7324(7) 0.5903(6) 0.5271(3)
H21 H 0.6273 0.5423 0.5377
H22 H 0.8154 0.5163 0.5360
C16 C 0.9045(7) 0.6424(7) 0.3796(3)
H23 H 0.8964 0.5512 0.3482
H24 H 1.0003 0.6410 0.4135
H25 H 0.9127 0.7322 0.3503
C17 C 0.5367(7) 0.7115(7) 0.3845(3)
H26 H 0.5620 0.7997 0.3560
H27 H 0.4635 0.7389 0.4205
H28 H 0.4854 0.6295 0.3526
C18 C 0.6868(7) 0.2081(7) 0.3193(4)
N2 N 0.7714(5) 0.7262(5) 0.5735(3)
O6 O 0.7769(5) 0.5950(5) 0.6751(2)
O7 O 0.7867(5) 0.8452(4) 0.4698(2)
O8 O 0.6453(5) 0.4313(4) 0.4040(2)
O9 O 0.8698(5) 0.2761(5) 0.4359(2)
O10 O 0.5915(5) 0.1809(5) 0.4469(2)
F4 F 0.5363(4) 0.2110(5) 0.2903(2)
F5 F 0.7315(5) 0.0676(4) 0.3148(2)
F6 F 0.7808(4) 0.2942(4) 0.2799(2)
Si2 Si 0.72414(19) 0.64775(18) 0.43021(9)
S2 S 0.70249(17) 0.27825(16) 0.41251(8)
loop_
_geom_bond_atom_site_label_1
_geom_bond_atom_site_label_2
_geom_bond_site_symmetry_1
_geom_bond_site_symmetry_2
C1 C2 1_555 1_555
C2 H1 1_555 1_555
H2 C2 1_555 1_555
C3 C2 1_555 1_555
H3 C3 1_555 1_555
H4 C3 1_555 1_555
C4 C3 1_555 1_555
H5 C4 1_555 1_555
H6 C4 1_555 1_555
C5 C4 1_555 1_555
C6 H7 1_555 1_555
H8 C6 1_555 1_555
C7 H9 1_555 1_555
H10 C7 1_555 1_555
H11 C7 1_555 1_555
C8 H12 1_555 1_555
H13 C8 1_555 1_555
H14 C8 1_555 1_555
C9 F1 1_555 1_555
N1 C1 1_555 1_555
O1 C1 1_555 1_555
O2 C5 1_555 1_555
O3 Si1 1_555 1_555
O4 S1 1_555 1_555
O5 S1 1_555 1_555
F2 C9 1_555 1_555
F3 C9 1_555 1_555
Si1 C6 1_555 1_555
S1 C9 1_555 1_555
C10 C11 1_555 1_555
C11 H15 1_555 1_555
H16 C11 1_555 1_555
C12 C11 1_555 1_555
H17 C12 1_555 1_555
H18 C12 1_555 1_555
C13 C12 1_555 1_555
H19 C13 1_555 1_555
H20 C13 1_555 1_555
C14 C13 1_555 1_555
C15 H21 1_555 1_555
H22 C15 1_555 1_555
C16 H23 1_555 1_555
H24 C16 1_555 1_555
H25 C16 1_555 1_555
C17 H26 1_555 1_555
H27 C17 1_555 1_555
H28 C17 1_555 1_555
C18 F4 1_555 1_555
N2 C10 1_555 1_555
O6 C10 1_555 1_555
O7 C14 1_555 1_555
O8 Si2 1_555 1_555
O9 S2 1_555 1_555
O10 S2 1_555 1_555
F5 C18 1_555 1_555
F6 C18 1_555 1_555
Si2 C15 1_555 1_555
S2 C18 1_555 1_555
C5 N1 1_555 1_555
C6 N1 1_555 1_555
C7 Si1 1_555 1_555
C8 Si1 1_555 1_555
O2 Si1 1_555 1_555
O3 S1 1_555 1_555
C14 N2 1_555 1_555
C15 N2 1_555 1_555
C16 Si2 1_555 1_555
C17 Si2 1_555 1_555
O7 Si2 1_555 1_555
O8 S2 1_555 1_555

#END
