
#######################################################################
#
#                 Cambridge Crystallographic Data Centre
#                                CCDC 
#
#######################################################################
#
# If this CIF has been generated from an entry in the Cambridge 
# Structural Database, then it will include bibliographic, chemical, 
# crystal, experimental, refinement or atomic coordinate data resulting 
# from the CCDC's data processing and validation procedures.
#
#######################################################################

data_HIJBIO
_chemical_compound_source        
'trunks of ornamental shrub Jatropha multifida L. (Euphorbiaceae)'
_chemical_name_common            'jatromultone B'
_chemical_formula_moiety         'C20 H28 O4'
_chemical_name_systematic        
5,7-dihydroxy-1,1,2a,5,7a-pentamethyl-1a,2,2a,4,5,7,7a,8,9,9a-decahydro-1H-cyclopropa[4,5]cyclohepta[1,2-f]indene-3,6-dione
_chemical_properties_biological  'antiproliferative activity'
_symmetry_cell_setting           monoclinic
_symmetry_space_group_name_H-M   'P 21'
_symmetry_Int_Tables_number      4
_space_group_name_Hall           'P 2yb'
loop_
_symmetry_equiv_pos_site_id
_symmetry_equiv_pos_as_xyz
1 x,y,z
2 -x,1/2+y,-z
_cell_length_a                   10.3657(2)
_cell_length_b                   6.2147(1)
_cell_length_c                   13.1882(2)
_cell_angle_alpha                90
_cell_angle_beta                 100.0352(17)
_cell_angle_gamma                90
_cell_volume                     836.582
_exptl_crystal_colour            yellow
_exptl_crystal_description       needle
_cell_formula_units_Z            2
loop_
_atom_site_label
_atom_site_type_symbol
_atom_site_fract_x
_atom_site_fract_y
_atom_site_fract_z
O1 O 0.68249(10) 0.06309(18) 0.00246(8)
O2 O 1.15747(10) 0.20905(18) -0.08829(8)
O3 O 0.78163(10) -0.21641(17) -0.35401(8)
O4 O 0.93050(10) 0.34559(17) -0.00050(8)
C1 C 0.81023(14) 0.1152(2) -0.13288(11)
C2 C 0.67612(14) 0.1027(2) -0.10439(11)
C3 C 0.84454(14) 0.0252(2) -0.21700(11)
C4 C 0.58574(13) -0.0608(2) -0.17379(10)
C5 C 0.60346(13) -0.0331(2) -0.28992(10)
C6 C 0.44481(13) -0.0157(3) -0.15492(11)
C7 C 0.25153(14) -0.2259(2) -0.41256(11)
C8 C 0.74672(14) -0.0921(2) -0.29355(10)
C9 C 0.37461(14) -0.0876(2) -0.39809(11)
C10 C 1.03005(13) 0.2380(2) -0.14760(10)
C11 C 0.98517(14) 0.0588(2) -0.22676(11)
C12 C 0.28453(13) -0.0798(2) -0.31939(11)
C13 C 0.92264(14) 0.2412(2) -0.07976(11)
C14 C 0.51183(14) -0.1768(2) -0.36722(11)
C15 C 0.62575(14) -0.2906(2) -0.13674(11)
C16 C 0.33472(14) -0.1595(2) -0.21142(11)
C17 C 0.58726(14) 0.2030(2) -0.32678(11)
C18 C 0.14075(15) -0.1497(3) -0.49585(12)
C19 C 1.02994(16) 0.4587(3) -0.19785(12)
C20 C 0.25866(15) -0.4682(2) -0.40322(12)
H1 H 0.734(2) -0.052(4) 0.0206(16)
H2 H 1.1590(6) 0.096(2) -0.0535(14)
H3 H 0.63532(14) 0.2478(2) -0.11852(11)
H4 H 0.44488(13) -0.0283(3) -0.08008(11)
H5 H 0.42298(13) 0.1355(3) -0.17454(11)
H6 H 0.36858(14) 0.0409(2) -0.44433(11)
H7 H 1.03699(14) -0.0742(2) -0.20965(11)
H8 H 0.99300(14) 0.1052(2) -0.29724(11)
H9 H 0.22951(13) 0.0531(2) -0.32271(11)
H10 H 0.55114(14) -0.1953(2) -0.42991(11)
H11 H 0.50622(14) -0.3208(2) -0.33614(11)
H12 H 0.7199(3) -0.3100(7) -0.1349(9)
H13 H 0.6056(12) -0.3124(7) -0.0676(4)
H14 H 0.5771(9) -0.3955(2) -0.1842(6)
H15 H 0.36794(14) -0.3083(2) -0.21472(11)
H16 H 0.26157(14) -0.1628(2) -0.17217(11)
H17 H 0.4996(4) 0.2543(7) -0.3204(9)
H18 H 0.6534(7) 0.2927(4) -0.2843(6)
H19 H 0.5984(12) 0.2118(4) -0.3989(3)
H20 H 0.1440(8) 0.0074(3) -0.5014(7)
H21 H 0.1503(8) -0.2146(18) -0.5619(2)
H22 H 0.05657(16) -0.193(2) -0.4779(6)
H23 H 1.0467(14) 0.5696(3) -0.14434(12)
H24 H 1.0985(9) 0.4639(8) -0.2404(9)
H25 H 0.9445(5) 0.4846(9) -0.2411(9)
H26 H 0.2903(12) -0.5284(3) -0.4631(5)
H27 H 0.3190(10) -0.5077(2) -0.3402(5)
H28 H 0.1713(3) -0.5256(3) -0.4003(10)
loop_
_geom_bond_atom_site_label_1
_geom_bond_atom_site_label_2
_geom_bond_site_symmetry_1
_geom_bond_site_symmetry_2
O1 C2 1_555 1_555
O2 C10 1_555 1_555
O3 C8 1_555 1_555
O4 C13 1_555 1_555
C1 C2 1_555 1_555
C2 C4 1_555 1_555
C3 C1 1_555 1_555
C4 C5 1_555 1_555
C5 C8 1_555 1_555
C6 C4 1_555 1_555
C7 C9 1_555 1_555
C8 C3 1_555 1_555
C9 C12 1_555 1_555
C10 C11 1_555 1_555
C11 C3 1_555 1_555
C12 C7 1_555 1_555
C13 C1 1_555 1_555
C14 C5 1_555 1_555
C15 C4 1_555 1_555
C16 C6 1_555 1_555
C17 C5 1_555 1_555
C18 C7 1_555 1_555
C19 C10 1_555 1_555
C20 C7 1_555 1_555
H1 O1 1_555 1_555
H2 O2 1_555 1_555
H3 C2 1_555 1_555
H4 C6 1_555 1_555
H5 C6 1_555 1_555
H6 C9 1_555 1_555
H7 C11 1_555 1_555
H8 C11 1_555 1_555
H9 C12 1_555 1_555
H10 C14 1_555 1_555
H11 C14 1_555 1_555
H12 C15 1_555 1_555
H13 C15 1_555 1_555
H14 C15 1_555 1_555
H15 C16 1_555 1_555
H16 C16 1_555 1_555
H17 C17 1_555 1_555
H18 C17 1_555 1_555
H19 C17 1_555 1_555
H20 C18 1_555 1_555
H21 C18 1_555 1_555
H22 C18 1_555 1_555
H23 C19 1_555 1_555
H24 C19 1_555 1_555
H25 C19 1_555 1_555
H26 C20 1_555 1_555
H27 C20 1_555 1_555
H28 C20 1_555 1_555
C9 C14 1_555 1_555
C10 C13 1_555 1_555
C12 C16 1_555 1_555

#END
