
#######################################################################
#
#                 Cambridge Crystallographic Data Centre
#                                CCDC 
#
#######################################################################
#
# If this CIF has been generated from an entry in the Cambridge 
# Structural Database, then it will include bibliographic, chemical, 
# crystal, experimental, refinement or atomic coordinate data resulting 
# from the CCDC's data processing and validation procedures.
#
#######################################################################

data_HIJTOM
_chemical_formula_moiety         'C15 H20 B10 Cl1 N1 O1'
_chemical_name_systematic        
4-(4-chlorophenyl)-9-(benzoylamino)-1,2-dicarba-closo-dodecaborane
_symmetry_cell_setting           monoclinic
_symmetry_space_group_name_H-M   'P 21/n'
_symmetry_Int_Tables_number      14
_space_group_name_Hall           '-P 2yn'
loop_
_symmetry_equiv_pos_site_id
_symmetry_equiv_pos_as_xyz
1 x,y,z
2 1/2-x,1/2+y,1/2-z
3 -x,-y,-z
4 1/2+x,1/2-y,1/2+z
_cell_length_a                   9.7687(12)
_cell_length_b                   12.8969(17)
_cell_length_c                   15.702(2)
_cell_angle_alpha                90
_cell_angle_beta                 100.297(4)
_cell_angle_gamma                90
_cell_volume                     1946.37
_exptl_crystal_colour            colorless
_exptl_crystal_description       block
_cell_formula_units_Z            4
loop_
_atom_site_label
_atom_site_type_symbol
_atom_site_fract_x
_atom_site_fract_y
_atom_site_fract_z
Cl1 Cl 0.86530(8) 0.24522(5) 0.28739(5)
O1 O 0.38265(19) 0.83473(14) 0.42469(15)
N1 N 0.4608(2) 0.67830(14) 0.39238(13)
H1 H 0.5369 0.6414 0.3936
C1 C 0.7429(3) 0.74600(18) 0.46382(18)
H2 H 0.7307 0.6743 0.4506
C2 C 0.8742(3) 0.7836(2) 0.49442(19)
H3 H 0.9518 0.7381 0.5022
C3 C 0.8932(3) 0.8873(2) 0.51373(18)
H4 H 0.9838 0.9130 0.5355
C4 C 0.7810(3) 0.9538(2) 0.50151(19)
H5 H 0.7942 1.0256 0.5140
C5 C 0.6277(3) 0.81113(17) 0.45193(16)
C6 C 0.6502(3) 0.91606(19) 0.47124(17)
H6 H 0.5732 0.9623 0.4632
C7 C 0.4808(3) 0.77592(18) 0.42183(16)
C8 C 0.4840(3) 0.43710(16) 0.30867(15)
C9 C 0.5548(3) 0.45105(19) 0.24017(17)
H7 H 0.5223 0.5013 0.1971
C10 C 0.6728(3) 0.3925(2) 0.23355(18)
H8 H 0.7200 0.4028 0.1863
C11 C 0.7201(3) 0.32005(18) 0.29592(17)
C12 C 0.6539(3) 0.30446(19) 0.36515(17)
H9 H 0.6873 0.2544 0.4082
C13 C 0.5371(3) 0.36372(18) 0.37054(17)
H10 H 0.4916 0.3536 0.4186
C14 C 0.2023(3) 0.48453(18) 0.23595(18)
H11 H 0.2114 0.4352 0.1785
C15 C 0.0597(3) 0.48762(19) 0.27722(19)
H12 H -0.0328 0.4398 0.2485
B1 B 0.2807(3) 0.6022(2) 0.24462(19)
H13 H 0.3424 0.6346 0.1972
B2 B 0.3457(3) 0.4968(2) 0.31434(19)
B3 B 0.3289(3) 0.6240(2) 0.35810(19)
B4 B 0.2000(3) 0.4234(2) 0.3324(2)
H14 H 0.2067 0.3374 0.3419
B5 B 0.2763(3) 0.5113(2) 0.4123(2)
H15 H 0.3349 0.4846 0.4764
B6 B 0.0960(3) 0.5923(2) 0.2182(2)
H16 H 0.0354 0.6163 0.1538
B7 B 0.1731(3) 0.6821(2) 0.2983(2)
H17 H 0.1639 0.7678 0.2872
B8 B 0.1720(3) 0.6258(2) 0.4022(2)
H18 H 0.1625 0.6747 0.4598
B9 B 0.0929(3) 0.5014(2) 0.3859(2)
H19 H 0.0291 0.4673 0.4315
B10 B 0.0301(3) 0.6060(2) 0.3159(2)
H20 H -0.0750 0.6406 0.3158
loop_
_geom_bond_atom_site_label_1
_geom_bond_atom_site_label_2
_geom_bond_site_symmetry_1
_geom_bond_site_symmetry_2
Cl1 C11 1_555 1_555
O1 C7 1_555 1_555
N1 H1 1_555 1_555
C1 H2 1_555 1_555
C2 C1 1_555 1_555
H3 C2 1_555 1_555
C3 C2 1_555 1_555
H4 C3 1_555 1_555
C4 C3 1_555 1_555
H5 C4 1_555 1_555
C5 C1 1_555 1_555
C6 C4 1_555 1_555
H6 C6 1_555 1_555
C7 N1 1_555 1_555
C8 C9 1_555 1_555
C9 H7 1_555 1_555
C10 C9 1_555 1_555
H8 C10 1_555 1_555
C11 C10 1_555 1_555
C12 C11 1_555 1_555
H9 C12 1_555 1_555
C13 C8 1_555 1_555
H10 C13 1_555 1_555
C14 H11 1_555 1_555
C15 C14 1_555 1_555
H12 C15 1_555 1_555
B1 C14 1_555 1_555
H13 B1 1_555 1_555
B2 C8 1_555 1_555
B3 N1 1_555 1_555
B4 C14 1_555 1_555
H14 B4 1_555 1_555
B5 B2 1_555 1_555
H15 B5 1_555 1_555
B6 C14 1_555 1_555
H16 B6 1_555 1_555
B7 B1 1_555 1_555
H17 B7 1_555 1_555
B8 B3 1_555 1_555
H18 B8 1_555 1_555
B9 C15 1_555 1_555
H19 B9 1_555 1_555
B10 C15 1_555 1_555
H20 B10 1_555 1_555
C5 C6 1_555 1_555
C5 C7 1_555 1_555
C12 C13 1_555 1_555
C14 B2 1_555 1_555
C15 B4 1_555 1_555
C15 B6 1_555 1_555
B1 B2 1_555 1_555
B1 B3 1_555 1_555
B1 B6 1_555 1_555
B2 B3 1_555 1_555
B2 B4 1_555 1_555
B3 B5 1_555 1_555
B3 B7 1_555 1_555
B4 B5 1_555 1_555
B4 B9 1_555 1_555
B5 B8 1_555 1_555
B5 B9 1_555 1_555
B6 B7 1_555 1_555
B6 B10 1_555 1_555
B7 B8 1_555 1_555
B7 B10 1_555 1_555
B8 B9 1_555 1_555
B8 B10 1_555 1_555
B9 B10 1_555 1_555

#END
