
#######################################################################
#
#                 Cambridge Crystallographic Data Centre
#                                CCDC 
#
#######################################################################
#
# If this CIF has been generated from an entry in the Cambridge 
# Structural Database, then it will include bibliographic, chemical, 
# crystal, experimental, refinement or atomic coordinate data resulting 
# from the CCDC's data processing and validation procedures.
#
#######################################################################

data_HIJVEC
_chemical_formula_moiety         'C24 H34 N5 3+,3(H2 O4 P1 1-),H2 O1'
_chemical_name_systematic        
'6-(2-(Naphthylmethyammonio)ethyl)-6,15-diaza-3,9-diazoniabicyclo(9.3.1)pentadeca-1(15),11,13-triene tris(dihydrogenphosphate) monohydrate'
_symmetry_cell_setting           triclinic
_symmetry_space_group_name_H-M   'P -1'
_symmetry_Int_Tables_number      2
_space_group_name_Hall           '-P 1'
loop_
_symmetry_equiv_pos_site_id
_symmetry_equiv_pos_as_xyz
1 x,y,z
2 -x,-y,-z
_cell_length_a                   8.9080(2)
_cell_length_b                   12.6100(4)
_cell_length_c                   14.2710(5)
_cell_angle_alpha                94.5300(14)
_cell_angle_beta                 100.7720(13)
_cell_angle_gamma                98.1090(19)
_cell_volume                     1549.89
_exptl_crystal_colour            colorless
_cell_formula_units_Z            2
loop_
_atom_site_label
_atom_site_type_symbol
_atom_site_fract_x
_atom_site_fract_y
_atom_site_fract_z
P1 P 0.3389(2) 0.32185(16) 0.25121(15)
O7 O 0.3620(18) 0.4244(8) 0.2632(8)
O8 O 0.4302(8) 0.2829(9) 0.1989(6)
O10 O 0.3648(13) 0.2925(6) 0.3384(7)
H39 H 0.3522 0.2266 0.3354
O11 O 0.2004(9) 0.2775(11) 0.2125(6)
H40 H 0.1772 0.2961 0.1586
P2 P 0.7262(2) 0.00758(14) 0.22838(13)
O1 O 0.6457(6) 0.0891(4) 0.2559(4)
O2 O 0.8580(6) 0.0542(5) 0.2003(4)
H3 H 0.8338 0.0885 0.1549
O3 O 0.6245(7) -0.0567(5) 0.1540(4)
H14 H 0.6665 -0.1055 0.1345
O4 O 0.7646(7) -0.0512(6) 0.3048(5)
P3 P 0.7816(3) 0.60863(18) 0.09737(16)
O5 O 0.7978(9) 0.7123(6) 0.1349(6)
O6 O 0.6782(7) 0.5409(7) 0.1330(6)
H27 H 0.7042 0.5456 0.1916
O9 O 0.9198(11) 0.5766(7) 0.1136(8)
H38 H 0.9515 0.5786 0.1716
O12 O 0.7407(19) 0.6035(10) 0.0056(7)
N1 N 0.7360(6) 0.0239(5) -0.1743(4)
H1 H 0.7391 -0.0308 -0.1375
H2 H 0.6502 0.0524 -0.17
N2 N 0.7220(5) 0.2215(4) -0.0537(3)
N3 N 0.6045(5) 0.1361(4) -0.3039(4)
C1 C 0.6775(7) 0.2293(5) 0.0400(4)
H4 H 0.6514 0.1572 0.0574
H5 H 0.5855 0.2632 0.0348
N4 N 0.7557(6) 0.3093(5) 0.2116(4)
H6 H 0.7327 0.2449 0.233
H7 H 0.6697 0.3402 0.2032
C2 C 0.9056(7) 0.3373(5) 0.4596(5)
C3 C 0.8422(7) 0.3949(6) 0.3829(5)
C4 C 0.8824(7) 0.3675(7) 0.5526(5)
C5 C 0.5489(7) 0.2071(6) -0.3603(5)
C6 C 0.8618(8) 0.1674(7) -0.0457(6)
H8 H 0.8586 0.1172 0.0022
H9 H 0.9534 0.2213 -0.0236
N5 N 0.4996(6) 0.2902(5) -0.2068(5)
H10 H 0.4971 0.2214 -0.1937
H11 H 0.4184 0.3137 -0.1874
C7 C 0.8033(7) 0.2932(6) 0.1197(4)
H12 H 0.8921 0.2558 0.1285
H13 H 0.8358 0.3631 0.0996
C8 C 0.6734(7) 0.0617(5) -0.3418(5)
C9 C 0.7890(9) 0.4482(7) 0.5657(7)
H15 H 0.7719 0.4681 0.6265
C10 C 0.5558(10) 0.2032(8) -0.4557(6)
H16 H 0.5121 0.2523 -0.4932
C11 C 0.6876(10) 0.0563(8) -0.4392(6)
H17 H 0.7381 0.0047 -0.4647
C12 C 0.8800(8) 0.3791(7) 0.2852(5)
H18 H 0.9739 0.3474 0.2908
H19 H 0.9011 0.4491 0.2626
C13 C 0.4741(8) 0.2897(7) -0.3107(6)
H20 H 0.5139 0.3606 -0.3257
H21 H 0.3635 0.276 -0.3364
C14 C 0.7284(9) -0.0176(6) -0.2740(6)
H22 H 0.658 -0.0854 -0.2894
H23 H 0.83 -0.0309 -0.2822
C15 C 0.9963(8) 0.2543(7) 0.4473(7)
H24 H 1.0147 0.2334 0.387
C16 C 0.8755(8) 0.1079(7) -0.1377(6)
H25 H 0.8858 0.1582 -0.185
H26 H 0.9676 0.074 -0.1274
C17 C 0.7475(11) 0.3280(8) -0.0895(8)
H28 H 0.773 0.3826 -0.0347
H29 H 0.8373 0.3314 -0.1192
C18 C 0.7264(9) 0.4950(7) 0.4911(10)
H30 H 0.6627 0.5459 0.4997
C19 C 0.9526(10) 0.3143(9) 0.6305(7)
H31 H 0.94 0.3343 0.6924
C20 C 0.6390(15) 0.3525(8) -0.1480(10)
H32 H 0.6897 0.3893 -0.1935
H33 H 0.6016 0.408 -0.1118
C21 C 0.7546(8) 0.4690(7) 0.4004(7)
H34 H 0.711 0.5045 0.35
C22 C 0.6254(12) 0.1286(10) -0.4947(7)
H35 H 0.6313 0.1262 -0.5592
C23 C 1.0571(10) 0.2049(8) 0.5271(9)
H36 H 1.1133 0.1492 0.5193
C24 C 1.0353(11) 0.2373(9) 0.6160(11)
H37 H 1.0795 0.2044 0.6681
O13 O 0.2451(6) 0.1168(5) 0.0305(4)
H41 H 0.2962 0.1333 -0.0214
H42 H 0.2916 0.1474 0.0948
loop_
_geom_bond_atom_site_label_1
_geom_bond_atom_site_label_2
_geom_bond_site_symmetry_1
_geom_bond_site_symmetry_2
P1 O7 1_555 1_555
P2 O1 1_555 1_555
P3 O5 1_555 1_555
N1 H1 1_555 1_555
H2 N1 1_555 1_555
N2 C1 1_555 1_555
O2 P2 1_555 1_555
H3 O2 1_555 1_555
N3 C5 1_555 1_555
C1 H4 1_555 1_555
H5 C1 1_555 1_555
N4 H6 1_555 1_555
H7 N4 1_555 1_555
C2 C3 1_555 1_555
C3 C12 1_555 1_555
C4 C2 1_555 1_555
C5 C10 1_555 1_555
C6 N2 1_555 1_555
H8 C6 1_555 1_555
H9 C6 1_555 1_555
N5 H10 1_555 1_555
H11 N5 1_555 1_555
C7 C1 1_555 1_555
H12 C7 1_555 1_555
H13 C7 1_555 1_555
C8 N3 1_555 1_555
O3 P2 1_555 1_555
H14 O3 1_555 1_555
C9 C4 1_555 1_555
H15 C9 1_555 1_555
C10 H16 1_555 1_555
C11 C8 1_555 1_555
H17 C11 1_555 1_555
C12 N4 1_555 1_555
H18 C12 1_555 1_555
H19 C12 1_555 1_555
O4 P2 1_555 1_555
C13 C5 1_555 1_555
H20 C13 1_555 1_555
H21 C13 1_555 1_555
C14 N1 1_555 1_555
H22 C14 1_555 1_555
H23 C14 1_555 1_555
C15 C2 1_555 1_555
H24 C15 1_555 1_555
C16 N1 1_555 1_555
H25 C16 1_555 1_555
H26 C16 1_555 1_555
O6 P3 1_555 1_555
H27 O6 1_555 1_555
C17 N2 1_555 1_555
H28 C17 1_555 1_555
H29 C17 1_555 1_555
C18 C9 1_555 1_555
H30 C18 1_555 1_555
C19 C4 1_555 1_555
H31 C19 1_555 1_555
C20 N5 1_555 1_555
H32 C20 1_555 1_555
H33 C20 1_555 1_555
C21 C3 1_555 1_555
H34 C21 1_555 1_555
C22 C10 1_555 1_555
H35 C22 1_555 1_555
C23 C15 1_555 1_555
H36 C23 1_555 1_555
O8 P1 1_555 1_555
C24 C19 1_555 1_555
H37 C24 1_555 1_555
O9 P3 1_555 1_555
H38 O9 1_555 1_555
O10 P1 1_555 1_555
H39 O10 1_555 1_555
O11 P1 1_555 1_555
H40 O11 1_555 1_555
O12 P3 1_555 1_555
O13 H41 1_555 1_555
H42 O13 1_555 1_555
N4 C7 1_555 1_555
C6 C16 1_555 1_555
N5 C13 1_555 1_555
C8 C14 1_555 1_555
C11 C22 1_555 1_555
C17 C20 1_555 1_555
C18 C21 1_555 1_555
C23 C24 1_555 1_555

#END
