
#######################################################################
#
#                 Cambridge Crystallographic Data Centre
#                                CCDC 
#
#######################################################################
#
# If this CIF has been generated from an entry in the Cambridge 
# Structural Database, then it will include bibliographic, chemical, 
# crystal, experimental, refinement or atomic coordinate data resulting 
# from the CCDC's data processing and validation procedures.
#
#######################################################################

data_HIKKUJ
_chemical_formula_moiety         'C42 H42 B6 N4 O6'
_chemical_name_systematic        
1,3-bis(2,4,6-triphenylboroxin-2-yl)-1,3,5,7-tetraazatricyclo[3.3.1.1^3,7^]decane
_symmetry_cell_setting           monoclinic
_symmetry_space_group_name_H-M   'P 21/c'
_symmetry_Int_Tables_number      14
_space_group_name_Hall           '-P 2ybc'
loop_
_symmetry_equiv_pos_site_id
_symmetry_equiv_pos_as_xyz
1 x,y,z
2 -x,1/2+y,1/2-z
3 -x,-y,-z
4 x,1/2-y,1/2+z
_cell_length_a                   12.5746(6)
_cell_length_b                   19.6788(9)
_cell_length_c                   20.2832(10)
_cell_angle_alpha                90
_cell_angle_beta                 127.970(3)
_cell_angle_gamma                90
_cell_volume                     3956.75
_exptl_crystal_colour            colorless
_exptl_crystal_description       blocks
_cell_formula_units_Z            4
_exptl_crystal_recrystallization_method methanol
loop_
_atom_site_label
_atom_site_type_symbol
_atom_site_fract_x
_atom_site_fract_y
_atom_site_fract_z
O1 O -0.06463(14) -0.07584(8) 0.72201(9)
O2 O -0.21444(14) -0.12925(8) 0.74062(9)
O3 O -0.25605(13) -0.14141(7) 0.60972(8)
O4 O -0.30370(14) -0.08904(7) 0.33458(9)
O5 O -0.33734(15) -0.03481(8) 0.21843(9)
O6 O -0.44078(14) 0.01310(8) 0.27408(9)
N1 N -0.31530(16) -0.01112(8) 0.42495(10)
N2 N -0.18466(16) -0.04043(8) 0.57370(10)
N3 N -0.11878(19) 0.05653(10) 0.53114(12)
N4 N -0.3230(2) 0.06240(10) 0.51858(12)
C1 C -0.26396(19) -0.06660(10) 0.48713(12)
H1 H -0.3395 -0.0928 0.4749
H2 H -0.2078 -0.0967 0.4825
C2 C -0.4005(2) 0.03565(11) 0.43470(14)
H3 H -0.4339 0.0729 0.3952
H4 H -0.4776 0.0108 0.4222
C3 C -0.1950(2) 0.02929(11) 0.44730(14)
H5 H -0.1371 0.0003 0.4431
H6 H -0.2257 0.0663 0.4078
C4 C -0.2066(3) 0.10084(12) 0.53746(16)
H7 H -0.1555 0.1195 0.5935
H8 H -0.2383 0.1384 0.4985
C5 C -0.0688(2) 0.00179(11) 0.59104(13)
H9 H -0.0171 0.0205 0.6471
H10 H -0.0093 -0.0270 0.5879
C6 C -0.2744(2) 0.00714(12) 0.57803(14)
H11 H -0.3506 -0.0180 0.5663
H12 H -0.2243 0.0256 0.6341
C7 C -0.0328(2) -0.15174(11) 0.63258(12)
C8 C 0.1071(2) -0.13963(12) 0.68391(14)
H13 H 0.1445 -0.1066 0.7254
C9 C 0.1899(2) -0.17641(13) 0.67343(16)
H14 H 0.2819 -0.1671 0.7070
C10 C 0.1371(3) -0.22649(14) 0.61377(17)
H15 H 0.1934 -0.2510 0.6072
C11 C 0.0001(2) -0.24056(12) 0.56329(15)
H16 H -0.0360 -0.2745 0.5230
C12 C -0.0825(2) -0.20325(11) 0.57366(13)
H17 H -0.1742 -0.2131 0.5400
C13 C -0.0023(2) -0.07253(11) 0.86650(13)
C14 C -0.0261(2) -0.09256(11) 0.92224(14)
H18 H -0.1050 -0.1159 0.9023
C15 C 0.0661(3) -0.07829(12) 1.00704(14)
H19 H 0.0492 -0.0927 1.0435
C16 C 0.1818(3) -0.04294(14) 1.03720(14)
H20 H 0.2432 -0.0333 1.0940
C17 C 0.2070(3) -0.02181(15) 0.98327(16)
H21 H 0.2850 0.0025 1.0035
C18 C 0.1158(2) -0.03679(13) 0.89874(14)
H22 H 0.1341 -0.0226 0.8629
C19 C -0.41769(19) -0.19931(10) 0.62609(13)
C20 C -0.4379(2) -0.23001(12) 0.67973(15)
H23 H -0.3788 -0.2205 0.7367
C21 C -0.5445(2) -0.27431(14) 0.64964(18)
H24 H -0.5552 -0.2951 0.6864
C22 C -0.6350(2) -0.28752(12) 0.56470(18)
H25 H -0.7065 -0.3172 0.5444
C23 C -0.6193(2) -0.25663(12) 0.50998(17)
H26 H -0.6811 -0.2648 0.4528
C24 C -0.5110(2) -0.21351(11) 0.54079(14)
H27 H -0.5001 -0.1935 0.5037
C25 C -0.5288(2) -0.08624(11) 0.30982(12)
C26 C -0.5162(2) -0.15437(12) 0.33406(13)
H28 H -0.4330 -0.1758 0.3617
C27 C -0.6243(2) -0.19051(13) 0.31796(14)
H29 H -0.6129 -0.2353 0.3358
C28 C -0.7493(2) -0.15980(15) 0.27520(15)
H30 H -0.8222 -0.1841 0.2641
C29 C -0.7664(2) -0.09308(15) 0.24877(15)
H31 H -0.8509 -0.0727 0.2192
C30 C -0.6564(2) -0.05640(13) 0.26662(13)
H32 H -0.6682 -0.0114 0.2495
C31 C -0.1811(2) -0.13731(11) 0.28264(13)
C32 C -0.1103(2) -0.18473(11) 0.34733(14)
H33 H -0.1183 -0.1838 0.3900
C33 C -0.0285(2) -0.23313(12) 0.34938(17)
H34 H 0.0174 -0.2645 0.3928
C34 C -0.0152(2) -0.23472(12) 0.28672(17)
H35 H 0.0396 -0.2673 0.2879
C35 C -0.0832(2) -0.18799(14) 0.22225(15)
H36 H -0.0745 -0.1893 0.1799
C36 C -0.1643(2) -0.13929(12) 0.22064(14)
H37 H -0.2083 -0.1074 0.1777
C37 C -0.4860(2) 0.06927(11) 0.14699(13)
C38 C -0.4659(2) 0.07122(12) 0.08674(14)
H38 H -0.4060 0.0408 0.0903
C39 C -0.5333(3) 0.11766(13) 0.02158(15)
H39 H -0.5190 0.1180 -0.0183
C40 C -0.6216(3) 0.16336(13) 0.01600(16)
H40 H -0.6672 0.1944 -0.0278
C41 C -0.6424(2) 0.16303(13) 0.07581(16)
H41 H -0.7014 0.1941 0.0723
C42 C -0.5752(2) 0.11632(11) 0.14066(14)
H42 H -0.5896 0.1163 0.1805
B1 B -0.1310(2) -0.10701(13) 0.64105(15)
B2 B -0.0984(2) -0.09242(12) 0.77160(14)
B3 B -0.2908(2) -0.15441(12) 0.65992(14)
B4 B -0.4027(2) -0.04502(13) 0.32822(15)
B5 B -0.2784(2) -0.08491(12) 0.27909(14)
B6 B -0.4181(2) 0.01387(13) 0.21722(15)
loop_
_geom_bond_atom_site_label_1
_geom_bond_atom_site_label_2
_geom_bond_site_symmetry_1
_geom_bond_site_symmetry_2
O1 B1 1_555 1_555
O2 B2 1_555 1_555
O3 B1 1_555 1_555
O4 B4 1_555 1_555
O5 B5 1_555 1_555
O6 B4 1_555 1_555
N1 C1 1_555 1_555
N2 C1 1_555 1_555
N3 C3 1_555 1_555
N4 C2 1_555 1_555
C1 H1 1_555 1_555
H2 C1 1_555 1_555
C2 N1 1_555 1_555
H3 C2 1_555 1_555
H4 C2 1_555 1_555
C3 N1 1_555 1_555
H5 C3 1_555 1_555
H6 C3 1_555 1_555
C4 N3 1_555 1_555
H7 C4 1_555 1_555
H8 C4 1_555 1_555
C5 N2 1_555 1_555
H9 C5 1_555 1_555
H10 C5 1_555 1_555
C6 N2 1_555 1_555
H11 C6 1_555 1_555
H12 C6 1_555 1_555
C7 C8 1_555 1_555
C8 H13 1_555 1_555
C9 C8 1_555 1_555
H14 C9 1_555 1_555
C10 C9 1_555 1_555
H15 C10 1_555 1_555
C11 C10 1_555 1_555
H16 C11 1_555 1_555
C12 C7 1_555 1_555
H17 C12 1_555 1_555
C13 C14 1_555 1_555
C14 H18 1_555 1_555
C15 C14 1_555 1_555
H19 C15 1_555 1_555
C16 C15 1_555 1_555
H20 C16 1_555 1_555
C17 C16 1_555 1_555
H21 C17 1_555 1_555
C18 C13 1_555 1_555
H22 C18 1_555 1_555
C19 C20 1_555 1_555
C20 H23 1_555 1_555
C21 C20 1_555 1_555
H24 C21 1_555 1_555
C22 C21 1_555 1_555
H25 C22 1_555 1_555
C23 C22 1_555 1_555
H26 C23 1_555 1_555
C24 C19 1_555 1_555
H27 C24 1_555 1_555
C25 C26 1_555 1_555
C26 H28 1_555 1_555
C27 C26 1_555 1_555
H29 C27 1_555 1_555
C28 C27 1_555 1_555
H30 C28 1_555 1_555
C29 C28 1_555 1_555
H31 C29 1_555 1_555
C30 C25 1_555 1_555
H32 C30 1_555 1_555
C31 C32 1_555 1_555
C32 H33 1_555 1_555
C33 C32 1_555 1_555
H34 C33 1_555 1_555
C34 C33 1_555 1_555
H35 C34 1_555 1_555
C35 C34 1_555 1_555
H36 C35 1_555 1_555
C36 C31 1_555 1_555
H37 C36 1_555 1_555
C37 C38 1_555 1_555
C38 H38 1_555 1_555
C39 C38 1_555 1_555
H39 C39 1_555 1_555
C40 C39 1_555 1_555
H40 C40 1_555 1_555
C41 C40 1_555 1_555
H41 C41 1_555 1_555
C42 C37 1_555 1_555
H42 C42 1_555 1_555
B1 N2 1_555 1_555
B2 O1 1_555 1_555
B3 O2 1_555 1_555
B4 N1 1_555 1_555
B5 O4 1_555 1_555
B6 O5 1_555 1_555
O3 B3 1_555 1_555
O6 B6 1_555 1_555
N3 C5 1_555 1_555
N4 C4 1_555 1_555
N4 C6 1_555 1_555
C7 B1 1_555 1_555
C11 C12 1_555 1_555
C13 B2 1_555 1_555
C17 C18 1_555 1_555
C19 B3 1_555 1_555
C23 C24 1_555 1_555
C25 B4 1_555 1_555
C29 C30 1_555 1_555
C31 B5 1_555 1_555
C35 C36 1_555 1_555
C37 B6 1_555 1_555
C41 C42 1_555 1_555

#END
