
#######################################################################
#
#                 Cambridge Crystallographic Data Centre
#                                CCDC 
#
#######################################################################
#
# If this CIF has been generated from an entry in the Cambridge 
# Structural Database, then it will include bibliographic, chemical, 
# crystal, experimental, refinement or atomic coordinate data resulting 
# from the CCDC's data processing and validation procedures.
#
#######################################################################

data_HIKMEW
_chemical_formula_moiety         'C10 H14 N8 O6'
_chemical_name_systematic        
1,1'-[2,5-bis(nitroimino)hexahydroimidazo[4,5-d]imidazole-1,4-diyl]bis(propan-2-one)
_symmetry_cell_setting           monoclinic
_symmetry_space_group_name_H-M   'P 21/c'
_symmetry_Int_Tables_number      14
_space_group_name_Hall           '-P 2ybc'
loop_
_symmetry_equiv_pos_site_id
_symmetry_equiv_pos_as_xyz
1 x,y,z
2 -x,1/2+y,1/2-z
3 -x,-y,-z
4 x,1/2-y,1/2+z
_cell_length_a                   9.0860(18)
_cell_length_b                   7.9200(16)
_cell_length_c                   20.566(4)
_cell_angle_alpha                90
_cell_angle_beta                 92.77(3)
_cell_angle_gamma                90
_cell_volume                     1478.22
_cell_formula_units_Z            4
loop_
_atom_site_label
_atom_site_type_symbol
_atom_site_fract_x
_atom_site_fract_y
_atom_site_fract_z
O1 O 0.3985(3) 0.3045(3) 0.52860(13)
N1 N 0.2357(3) 0.5722(4) 0.51149(14)
H1 H 0.2309 0.4713 0.4960
C1 C 0.3361(4) 0.6236(5) 0.55762(17)
O2 O 0.2192(4) 0.8232(5) 0.69334(15)
O3 O 0.5301(3) 0.2894(3) 0.61824(14)
C2 C 0.1375(4) 0.7066(4) 0.49133(15)
H2 H 0.0341 0.6741 0.4946
N2 N 0.1646(3) 0.7811(4) 0.42802(13)
O4 O -0.1244(3) 0.7785(4) 0.38865(15)
N3 N 0.1991(3) 0.9934(4) 0.49596(13)
H3 H 0.2148 1.0950 0.5094
C3 C 0.1884(4) 0.9493(4) 0.43322(17)
N4 N 0.3162(3) 0.7885(4) 0.57033(13)
C4 C 0.1811(4) 0.8516(4) 0.53852(17)
H4 H 0.1050 0.8725 0.5697
O5 O 0.2327(4) 1.2862(3) 0.33666(14)
N5 N 0.4378(4) 0.5389(4) 0.59320(15)
C5 C 0.4007(4) 0.8827(5) 0.61930(16)
H5 H 0.4149 0.9965 0.6033
H6 H 0.4971 0.8310 0.6254
O6 O 0.1503(3) 1.2790(3) 0.43275(13)
N6 N 0.4551(4) 0.3724(4) 0.57924(16)
C6 C 0.3327(5) 0.8931(5) 0.68412(18)
N7 N 0.2003(3) 1.0370(4) 0.37859(14)
C7 C 0.4228(6) 0.9919(6) 0.7335(2)
H7 H 0.3742 0.9932 0.7739
H8 H 0.4341 1.1056 0.7183
H9 H 0.5181 0.9405 0.7400
N8 N 0.1962(4) 1.2070(4) 0.38382(16)
C8 C 0.1192(4) 0.6963(4) 0.36783(16)
H10 H 0.1531 0.5802 0.3698
H11 H 0.1658 0.7509 0.3319
C9 C -0.0456(5) 0.6979(5) 0.35473(19)
C10 C -0.1011(5) 0.5914(6) 0.2987(2)
H12 H -0.2064 0.6008 0.2939
H13 H -0.0745 0.4757 0.3067
H14 H -0.0581 0.6293 0.2596
loop_
_geom_bond_atom_site_label_1
_geom_bond_atom_site_label_2
_geom_bond_site_symmetry_1
_geom_bond_site_symmetry_2
O1 N6 1_555 1_555
N1 H1 1_555 1_555
C1 N1 1_555 1_555
O2 C6 1_555 1_555
O3 N6 1_555 1_555
C2 N1 1_555 1_555
H2 C2 1_555 1_555
N2 C2 1_555 1_555
O4 C9 1_555 1_555
N3 H3 1_555 1_555
C3 N2 1_555 1_555
N4 C1 1_555 1_555
C4 C2 1_555 1_555
H4 C4 1_555 1_555
O5 N8 1_555 1_555
N5 C1 1_555 1_555
C5 N4 1_555 1_555
H5 C5 1_555 1_555
H6 C5 1_555 1_555
O6 N8 1_555 1_555
N6 N5 1_555 1_555
C6 C5 1_555 1_555
N7 C3 1_555 1_555
C7 C6 1_555 1_555
H7 C7 1_555 1_555
H8 C7 1_555 1_555
H9 C7 1_555 1_555
N8 N7 1_555 1_555
C8 N2 1_555 1_555
H10 C8 1_555 1_555
H11 C8 1_555 1_555
C9 C8 1_555 1_555
C10 C9 1_555 1_555
H12 C10 1_555 1_555
H13 C10 1_555 1_555
H14 C10 1_555 1_555
N3 C3 1_555 1_555
N3 C4 1_555 1_555
N4 C4 1_555 1_555

#END
