
#######################################################################
#
#                 Cambridge Crystallographic Data Centre
#                                CCDC 
#
#######################################################################
#
# If this CIF has been generated from an entry in the Cambridge 
# Structural Database, then it will include bibliographic, chemical, 
# crystal, experimental, refinement or atomic coordinate data resulting 
# from the CCDC's data processing and validation procedures.
#
#######################################################################

data_HIKMOD
_chemical_formula_moiety         'C24 H20 N4 P1 1+,Cl1 O4 1-'
_chemical_name_systematic        
'(7-Amino-3,8-diazaindolizin-1-yl)triphenylphosphonium perchlorate'
_symmetry_cell_setting           monoclinic
_symmetry_space_group_name_H-M   'P 21/c'
_symmetry_Int_Tables_number      14
_space_group_name_Hall           '-P 2ybc'
loop_
_symmetry_equiv_pos_site_id
_symmetry_equiv_pos_as_xyz
1 x,y,z
2 -x,1/2+y,1/2-z
3 -x,-y,-z
4 x,1/2-y,1/2+z
_cell_length_a                   7.770(1)
_cell_length_b                   14.735(2)
_cell_length_c                   20.766(2)
_cell_angle_alpha                90
_cell_angle_beta                 91.82(1)
_cell_angle_gamma                90
_cell_volume                     2376.32
_chemical_melting_point          '290-293 deg.C'
_cell_formula_units_Z            4
_exptl_crystal_recrystallization_method water
loop_
_atom_site_label
_atom_site_type_symbol
_atom_site_fract_x
_atom_site_fract_y
_atom_site_fract_z
N1 N 0.5000(4) 0.0657(2) 0.1003(2)
C1 C 0.5282(5) -0.0202(3) 0.0833(2)
C2 C 0.3891(6) -0.0826(3) 0.0727(2)
C3 C 0.2279(7) -0.0542(3) 0.0775(2)
N2 N 0.1998(4) 0.0344(2) 0.0931(2)
C4 C 0.3370(5) 0.0911(3) 0.1058(2)
N3 N 0.0431(4) 0.0749(2) 0.1016(2)
C5 C 0.0848(6) 0.1579(4) 0.1196(2)
C6 C 0.2632(5) 0.1736(3) 0.1239(2)
N4 N 0.6903(5) -0.0450(3) 0.0753(2)
P1 P 0.3785(1) 0.2684(1) 0.1540(1)
C7 C 0.5116(5) 0.3226(3) 0.0970(2)
C8 C 0.5205(6) 0.4157(3) 0.0922(2)
C9 C 0.6337(6) 0.4560(4) 0.0521(3)
C10 C 0.7404(7) 0.4048(4) 0.0162(3)
C11 C 0.7348(7) 0.3120(4) 0.0201(2)
C12 C 0.6213(6) 0.2712(4) 0.0598(2)
C13 C 0.2293(5) 0.3502(3) 0.1821(2)
C14 C 0.2278(7) 0.3758(4) 0.2449(3)
C15 C 0.1180(8) 0.4434(4) 0.2649(3)
C16 C 0.0113(7) 0.4855(4) 0.2212(3)
C17 C 0.0074(6) 0.4606(3) 0.1585(3)
C18 C 0.1147(6) 0.3928(3) 0.1383(3)
C19 C 0.5179(5) 0.2322(3) 0.2203(2)
C20 C 0.4621(7) 0.1701(4) 0.2628(2)
C21 C 0.5659(10) 0.1461(5) 0.3160(3)
C22 C 0.7254(9) 0.1829(5) 0.3242(3)
C23 C 0.7810(8) 0.2437(5) 0.2822(3)
C24 C 0.6793(6) 0.2696(4) 0.2296(2)
Cl1 Cl 0.1745(1) 0.2146(1) 0.4287(1)
O1 O 0.3467(5) 0.2431(3) 0.4353(3)
O2 O 0.1346(6) 0.1488(3) 0.4745(2)
O3 O 0.0611(5) 0.2881(2) 0.4319(3)
O4 O 0.1552(6) 0.1711(4) 0.3685(2)
loop_
_geom_bond_atom_site_label_1
_geom_bond_atom_site_label_2
_geom_bond_site_symmetry_1
_geom_bond_site_symmetry_2
N1 C1 1_555 1_555
C1 C2 1_555 1_555
C2 C3 1_555 1_555
C3 N2 1_555 1_555
N2 C4 1_555 1_555
C4 N1 1_555 1_555
N3 N2 1_555 1_555
C5 N3 1_555 1_555
C6 C4 1_555 1_555
N4 C1 1_555 1_555
P1 C6 1_555 1_555
C7 P1 1_555 1_555
C8 C7 1_555 1_555
C9 C8 1_555 1_555
C10 C9 1_555 1_555
C11 C10 1_555 1_555
C12 C7 1_555 1_555
C13 P1 1_555 1_555
C14 C13 1_555 1_555
C15 C14 1_555 1_555
C16 C15 1_555 1_555
C17 C16 1_555 1_555
C18 C13 1_555 1_555
C19 P1 1_555 1_555
C20 C19 1_555 1_555
C21 C20 1_555 1_555
C22 C21 1_555 1_555
C23 C22 1_555 1_555
C24 C19 1_555 1_555
Cl1 O1 1_555 1_555
O2 Cl1 1_555 1_555
O3 Cl1 1_555 1_555
O4 Cl1 1_555 1_555
C5 C6 1_555 1_555
C11 C12 1_555 1_555
C17 C18 1_555 1_555
C23 C24 1_555 1_555

#END
