
#######################################################################
#
#                 Cambridge Crystallographic Data Centre
#                                CCDC 
#
#######################################################################
#
# If this CIF has been generated from an entry in the Cambridge 
# Structural Database, then it will include bibliographic, chemical, 
# crystal, experimental, refinement or atomic coordinate data resulting 
# from the CCDC's data processing and validation procedures.
#
#######################################################################

data_HILLAS
_chemical_formula_moiety         'C19 H23 Cl1 N4 O5'
_chemical_name_systematic        
'diethyl 1-{4-[(5-chloroquinolin-8-yl)amino]-4-oxobutan-2-yl}hydrazine-1,2-dicarboxylate'
_symmetry_cell_setting           monoclinic
_symmetry_space_group_name_H-M   'P 21/c'
_symmetry_Int_Tables_number      14
_space_group_name_Hall           '-P 2ybc'
loop_
_symmetry_equiv_pos_site_id
_symmetry_equiv_pos_as_xyz
1 x,y,z
2 -x,1/2+y,1/2-z
3 -x,-y,-z
4 x,1/2-y,1/2+z
_cell_length_a                   17.1481(5)
_cell_length_b                   8.6896(3)
_cell_length_c                   14.2565(4)
_cell_angle_alpha                90
_cell_angle_beta                 108.0720(10)
_cell_angle_gamma                90
_cell_volume                     2019.56
_exptl_crystal_colour            colorless
_exptl_crystal_description       block
_cell_formula_units_Z            4
loop_
_atom_site_label
_atom_site_type_symbol
_atom_site_fract_x
_atom_site_fract_y
_atom_site_fract_z
Cl1 Cl -0.24209(3) 0.46956(8) 0.36254(5)
O1 O 0.11312(9) 0.04381(16) 0.45508(13)
O2 O 0.43295(7) -0.11529(16) 0.37558(10)
O3 O 0.31248(8) -0.20662(15) 0.38614(10)
O4 O 0.36683(9) 0.22205(17) 0.30564(10)
O5 O 0.48900(9) 0.29790(17) 0.41080(10)
C1 C -0.03368(11) 0.2269(2) 0.42207(13)
H1 H -0.0172 0.1271 0.4423
N1 N 0.10452(9) 0.29908(18) 0.41968(11)
H2 H 0.1340 0.3774 0.4158
N2 N 0.35623(9) 0.02249(19) 0.45069(12)
N3 N 0.41225(9) 0.14268(19) 0.46697(12)
H3 H 0.4421 0.1674 0.5255
C2 C -0.14091(12) 0.4174(3) 0.37793(14)
C3 C -0.11543(12) 0.2723(2) 0.40743(14)
H4 H -0.1526 0.2018 0.4181
C4 C 0.02172(11) 0.3298(2) 0.40656(12)
C5 C -0.00397(12) 0.4835(2) 0.37534(12)
C6 C -0.08644(12) 0.5288(2) 0.36142(13)
C7 C -0.10667(15) 0.6842(3) 0.33436(14)
H5 H -0.1597 0.7199 0.3247
C8 C -0.04824(17) 0.7802(3) 0.32270(15)
H6 H -0.0607 0.8827 0.3059
C9 C 0.03113(16) 0.7247(2) 0.33609(15)
H7 H 0.0701 0.7924 0.3268
N4 N 0.05366(11) 0.58080(19) 0.36125(11)
C10 C 0.14427(12) 0.1623(2) 0.43782(14)
C11 C 0.23139(12) 0.1699(3) 0.43240(17)
H8 H 0.2294 0.1687 0.3637
H9 H 0.2560 0.2665 0.4608
C12 C 0.28440(11) 0.0402(2) 0.48513(14)
H10 H 0.2519 -0.0541 0.4665
C13 C 0.30952(15) 0.0501(4) 0.59456(17)
H11 H 0.3433 0.1393 0.6162
H12 H 0.3399 -0.0405 0.6226
H13 H 0.2616 0.0579 0.6155
C14 C 0.37218(11) -0.1017(2) 0.40157(13)
C15 C 0.41799(12) 0.2202(2) 0.38534(14)
C16 C 0.50630(16) 0.3842(3) 0.33216(16)
H14 H 0.4559 0.4268 0.2881
H15 H 0.5302 0.3170 0.2942
C17 C 0.56358(15) 0.5084(3) 0.3765(2)
H16 H 0.5383 0.5776 0.4109
H17 H 0.5777 0.5634 0.3257
H18 H 0.6123 0.4656 0.4221
C18 C 0.32528(14) -0.3470(2) 0.33829(17)
H19 H 0.3742 -0.3994 0.3783
H20 H 0.3316 -0.3244 0.2744
C19 C 0.25128(15) -0.4447(3) 0.32667(19)
H21 H 0.2439 -0.4606 0.3900
H22 H 0.2585 -0.5422 0.2988
H23 H 0.2038 -0.3940 0.2837
loop_
_geom_bond_atom_site_label_1
_geom_bond_atom_site_label_2
_geom_bond_site_symmetry_1
_geom_bond_site_symmetry_2
Cl1 C2 1_555 1_555
O1 C10 1_555 1_555
O2 C14 1_555 1_555
O3 C14 1_555 1_555
O4 C15 1_555 1_555
O5 C15 1_555 1_555
C1 H1 1_555 1_555
N1 H2 1_555 1_555
N2 N3 1_555 1_555
N3 H3 1_555 1_555
C2 C3 1_555 1_555
C3 C1 1_555 1_555
H4 C3 1_555 1_555
C4 C1 1_555 1_555
C5 C4 1_555 1_555
C6 C2 1_555 1_555
C7 C6 1_555 1_555
H5 C7 1_555 1_555
C8 C7 1_555 1_555
H6 C8 1_555 1_555
C9 C8 1_555 1_555
H7 C9 1_555 1_555
N4 C5 1_555 1_555
C10 N1 1_555 1_555
C11 C10 1_555 1_555
H8 C11 1_555 1_555
H9 C11 1_555 1_555
C12 N2 1_555 1_555
H10 C12 1_555 1_555
C13 C12 1_555 1_555
H11 C13 1_555 1_555
H12 C13 1_555 1_555
H13 C13 1_555 1_555
C14 N2 1_555 1_555
C15 N3 1_555 1_555
C16 O5 1_555 1_555
H14 C16 1_555 1_555
H15 C16 1_555 1_555
C17 C16 1_555 1_555
H16 C17 1_555 1_555
H17 C17 1_555 1_555
H18 C17 1_555 1_555
C18 O3 1_555 1_555
H19 C18 1_555 1_555
H20 C18 1_555 1_555
C19 C18 1_555 1_555
H21 C19 1_555 1_555
H22 C19 1_555 1_555
H23 C19 1_555 1_555
N1 C4 1_555 1_555
C5 C6 1_555 1_555
C9 N4 1_555 1_555
C11 C12 1_555 1_555

#END
