
#######################################################################
#
#                 Cambridge Crystallographic Data Centre
#                                CCDC 
#
#######################################################################
#
# If this CIF has been generated from an entry in the Cambridge 
# Structural Database, then it will include bibliographic, chemical, 
# crystal, experimental, refinement or atomic coordinate data resulting 
# from the CCDC's data processing and validation procedures.
#
#######################################################################

data_HILMOH
_chemical_formula_moiety         'C17 H18 O4'
_chemical_name_systematic        
6,7-dimethoxy-2-phenyl-3,4-dihydro-2H-1-benzopyran-3-ol
_symmetry_cell_setting           triclinic
_symmetry_space_group_name_H-M   'P -1'
_symmetry_Int_Tables_number      2
_space_group_name_Hall           '-P 1'
loop_
_symmetry_equiv_pos_site_id
_symmetry_equiv_pos_as_xyz
1 x,y,z
2 -x,-y,-z
_cell_length_a                   8.0587(6)
_cell_length_b                   8.8690(7)
_cell_length_c                   10.2746(8)
_cell_angle_alpha                82.634(3)
_cell_angle_beta                 75.552(3)
_cell_angle_gamma                88.084(3)
_cell_volume                     705.259
_exptl_crystal_colour            colorless
_exptl_crystal_description       Tabular
_cell_formula_units_Z            2
loop_
_atom_site_label
_atom_site_type_symbol
_atom_site_fract_x
_atom_site_fract_y
_atom_site_fract_z
C1 C 0.18297(15) 0.16882(14) 0.87658(12)
H1 H 0.1433 0.2164 0.9622
C2 C 0.02688(15) 0.15230(13) 0.81978(12)
H2 H -0.0483 0.0734 0.8836
O1 O 0.07459(10) 0.09549(9) 0.69042(8)
C3 C 0.22800(14) 0.14416(13) 0.60252(11)
C4 C 0.25643(14) 0.09823(12) 0.47360(11)
H3 H 0.1712 0.0425 0.4509
C5 C 0.40890(14) 0.13426(13) 0.37958(11)
C6 C 0.53466(14) 0.21880(13) 0.41265(12)
C7 C 0.50272(14) 0.26449(13) 0.53979(12)
H4 H 0.5869 0.3221 0.5620
C8 C 0.34860(14) 0.22794(13) 0.63756(12)
C9 C 0.31464(15) 0.27448(14) 0.77809(12)
H5 H 0.2715 0.3804 0.7770
H6 H 0.4226 0.2702 0.8079
C10 C -0.07973(14) 0.29593(13) 0.81477(12)
C11 C -0.16916(15) 0.34437(14) 0.93708(12)
H7 H -0.1579 0.2897 1.0202
C12 C -0.27411(16) 0.47136(15) 0.93831(13)
H8 H -0.3333 0.5040 1.0221
C13 C -0.29305(16) 0.55113(14) 0.81733(14)
H9 H -0.3661 0.6375 0.8183
C14 C -0.20509(16) 0.50421(14) 0.69550(13)
H10 H -0.2173 0.5588 0.6126
C15 C -0.09867(15) 0.37710(13) 0.69414(12)
H11 H -0.0385 0.3456 0.6101
C16 C 0.32293(15) 0.01680(15) 0.21129(12)
H12 H 0.2960 -0.0803 0.2693
H13 H 0.3653 -0.0020 0.1167
H14 H 0.2193 0.0797 0.2205
C17 C 0.82162(16) 0.30951(16) 0.34549(13)
H15 H 0.7885 0.4081 0.3779
H16 H 0.9186 0.3233 0.2656
H17 H 0.8548 0.2403 0.4170
O2 O 0.25082(11) 0.02288(10) 0.90983(8)
H18 H 0.3089 -0.0092 0.8389
O3 O 0.45164(10) 0.09415(9) 0.25118(8)
O4 O 0.68069(10) 0.24688(10) 0.31060(8)
loop_
_geom_bond_atom_site_label_1
_geom_bond_atom_site_label_2
_geom_bond_site_symmetry_1
_geom_bond_site_symmetry_2
C1 H1 1_555 1_555
C2 C1 1_555 1_555
H2 C2 1_555 1_555
O1 C2 1_555 1_555
C3 O1 1_555 1_555
C4 C3 1_555 1_555
H3 C4 1_555 1_555
C5 C4 1_555 1_555
C6 C5 1_555 1_555
C7 C6 1_555 1_555
H4 C7 1_555 1_555
C8 C3 1_555 1_555
C9 C1 1_555 1_555
H5 C9 1_555 1_555
H6 C9 1_555 1_555
C10 C2 1_555 1_555
C11 C10 1_555 1_555
H7 C11 1_555 1_555
C12 C11 1_555 1_555
H8 C12 1_555 1_555
C13 C12 1_555 1_555
H9 C13 1_555 1_555
C14 C13 1_555 1_555
H10 C14 1_555 1_555
C15 C10 1_555 1_555
H11 C15 1_555 1_555
C16 H12 1_555 1_555
H13 C16 1_555 1_555
H14 C16 1_555 1_555
C17 H15 1_555 1_555
H16 C17 1_555 1_555
H17 C17 1_555 1_555
O2 C1 1_555 1_555
H18 O2 1_555 1_555
O3 C5 1_555 1_555
O4 C6 1_555 1_555
C7 C8 1_555 1_555
C8 C9 1_555 1_555
C14 C15 1_555 1_555
C16 O3 1_555 1_555
C17 O4 1_555 1_555

#END
