
#######################################################################
#
#                 Cambridge Crystallographic Data Centre
#                                CCDC 
#
#######################################################################
#
# If this CIF has been generated from an entry in the Cambridge 
# Structural Database, then it will include bibliographic, chemical, 
# crystal, experimental, refinement or atomic coordinate data resulting 
# from the CCDC's data processing and validation procedures.
#
#######################################################################

data_HILRUR
_chemical_formula_moiety         'C21 H20 N4 O7 S1'
_chemical_name_systematic        
'2,6-dimethoxy-4-((4-(pyrimidin-2-ylsulfamoyl)phenyl)carbamoyl)phenyl acetate'
_symmetry_cell_setting           monoclinic
_symmetry_space_group_name_H-M   'P 21/c'
_symmetry_Int_Tables_number      14
_space_group_name_Hall           '-P 2ybc'
loop_
_symmetry_equiv_pos_site_id
_symmetry_equiv_pos_as_xyz
1 x,y,z
2 -x,1/2+y,1/2-z
3 -x,-y,-z
4 x,1/2-y,1/2+z
_cell_length_a                   17.0030(18)
_cell_length_b                   14.4028(15)
_cell_length_c                   9.2105(10)
_cell_angle_alpha                90
_cell_angle_beta                 97.941(2)
_cell_angle_gamma                90
_cell_volume                     2233.94
_exptl_crystal_colour            colorless
_exptl_crystal_description       block
_cell_formula_units_Z            4
loop_
_atom_site_label
_atom_site_type_symbol
_atom_site_fract_x
_atom_site_fract_y
_atom_site_fract_z
S1 S 0.37447(3) 0.55438(4) 1.25024(6)
O1 O -0.22482(8) 0.99671(9) 0.78017(17)
O2 O 0.03579(10) 0.68274(12) 0.80398(19)
C1 C 0.29363(11) 0.62141(14) 1.1698(2)
O3 O -0.12955(9) 1.00744(11) 1.03399(19)
N1 N 0.43962(10) 0.55731(12) 1.1361(2)
H1 H 0.4477 0.5063 1.0919
C2 C 0.16373(11) 0.72087(14) 1.0408(2)
O4 O -0.19883(9) 0.87616(11) 0.57338(18)
C3 C -0.07926(12) 0.81747(15) 0.7219(2)
H2 H -0.0687 0.7755 0.6503
O5 O 0.35054(9) 0.45924(11) 1.24624(19)
C4 C -0.04414(12) 0.88463(14) 0.9628(2)
H3 H -0.0106 0.8872 1.0514
C5 C -0.10977(12) 0.94287(13) 0.9368(2)
N2 N 0.09830(10) 0.77540(12) 0.9815(2)
H4 H 0.0967 0.8304 1.0173
C6 C 0.03790(11) 0.75362(14) 0.8766(2)
N3 N 0.53871(11) 0.61599(13) 1.0180(2)
C7 C -0.02944(11) 0.82248(14) 0.8542(2)
C8 C 0.48348(12) 0.63409(14) 1.1032(2)
N4 N 0.46653(11) 0.71610(13) 1.1579(2)
C9 C -0.15934(12) 0.93798(13) 0.8047(2)
C10 C 0.17729(12) 0.63169(14) 0.9914(2)
H5 H 0.1429 0.6054 0.9151
C11 C 0.24236(12) 0.58288(14) 1.0571(2)
H6 H 0.2517 0.5232 1.0250
O6 O 0.40632(10) 0.59570(13) 1.38551(18)
C12 C -0.14494(12) 0.87547(14) 0.6968(2)
C13 C 0.28080(13) 0.71016(16) 1.2196(3)
H7 H 0.3153 0.7362 1.2959
C14 C -0.29408(13) 0.96225(18) 0.8173(3)
C15 C 0.51281(14) 0.78599(16) 1.1271(3)
H8 H 0.5033 0.8447 1.1628
C16 C 0.21580(13) 0.75900(16) 1.1539(3)
H9 H 0.2067 0.8188 1.1861
O7 O -0.29811(12) 0.88634(15) 0.8626(3)
C17 C -0.19031(17) 0.8116(2) 0.4615(3)
H10 H -0.2324 0.8202 0.3818
H11 H -0.1927 0.7497 0.4994
H12 H -0.1401 0.8209 0.4273
C18 C 0.57350(15) 0.77549(17) 1.0456(3)
H13 H 0.6063 0.8248 1.0286
C19 C 0.58360(14) 0.68879(18) 0.9903(3)
H14 H 0.6231 0.6800 0.9311
C20 C -0.35901(14) 1.0318(2) 0.7902(3)
H15 H -0.4070 1.0059 0.8170
H16 H -0.3672 1.0481 0.6881
H17 H -0.3448 1.0863 0.8478
C21 C -0.1092(2) 0.9894(2) 1.1855(3)
H18 H -0.1267 1.0400 1.2409
H19 H -0.0527 0.9828 1.2082
H20 H -0.1345 0.9331 1.2103
loop_
_geom_bond_atom_site_label_1
_geom_bond_atom_site_label_2
_geom_bond_site_symmetry_1
_geom_bond_site_symmetry_2
S1 C1 1_555 1_555
O1 C9 1_555 1_555
O2 C6 1_555 1_555
C1 C11 1_555 1_555
O3 C5 1_555 1_555
N1 S1 1_555 1_555
H1 N1 1_555 1_555
C2 N2 1_555 1_555
O4 C12 1_555 1_555
C3 H2 1_555 1_555
O5 S1 1_555 1_555
C4 H3 1_555 1_555
C5 C4 1_555 1_555
N2 H4 1_555 1_555
C6 N2 1_555 1_555
N3 C8 1_555 1_555
C7 C3 1_555 1_555
C8 N1 1_555 1_555
N4 C8 1_555 1_555
C9 C5 1_555 1_555
C10 C2 1_555 1_555
H5 C10 1_555 1_555
C11 C10 1_555 1_555
H6 C11 1_555 1_555
O6 S1 1_555 1_555
C12 C3 1_555 1_555
C13 C1 1_555 1_555
H7 C13 1_555 1_555
C14 O1 1_555 1_555
C15 N4 1_555 1_555
H8 C15 1_555 1_555
C16 C2 1_555 1_555
H9 C16 1_555 1_555
O7 C14 1_555 1_555
C17 O4 1_555 1_555
H10 C17 1_555 1_555
H11 C17 1_555 1_555
H12 C17 1_555 1_555
C18 C15 1_555 1_555
H13 C18 1_555 1_555
C19 N3 1_555 1_555
H14 C19 1_555 1_555
C20 C14 1_555 1_555
H15 C20 1_555 1_555
H16 C20 1_555 1_555
H17 C20 1_555 1_555
C21 O3 1_555 1_555
H18 C21 1_555 1_555
H19 C21 1_555 1_555
H20 C21 1_555 1_555
C4 C7 1_555 1_555
C6 C7 1_555 1_555
C9 C12 1_555 1_555
C13 C16 1_555 1_555
C18 C19 1_555 1_555

#END
