
#######################################################################
#
#                 Cambridge Crystallographic Data Centre
#                                CCDC 
#
#######################################################################
#
# If this CIF has been generated from an entry in the Cambridge 
# Structural Database, then it will include bibliographic, chemical, 
# crystal, experimental, refinement or atomic coordinate data resulting 
# from the CCDC's data processing and validation procedures.
#
#######################################################################

data_HILVUU01
_chemical_formula_moiety         'C22 H24 N2'
_chemical_name_systematic        
N-(2,6-diisopropylphenyl)-1-(quinolin-2-yl)methanimine
_symmetry_cell_setting           monoclinic
_symmetry_space_group_name_H-M   'P 21/c'
_symmetry_Int_Tables_number      14
_space_group_name_Hall           '-P 2ybc'
loop_
_symmetry_equiv_pos_site_id
_symmetry_equiv_pos_as_xyz
1 x,y,z
2 -x,1/2+y,1/2-z
3 -x,-y,-z
4 x,1/2-y,1/2+z
_cell_length_a                   13.925(3)
_cell_length_b                   11.094(3)
_cell_length_c                   12.227(3)
_cell_angle_alpha                90
_cell_angle_beta                 93.562(3)
_cell_angle_gamma                90
_cell_volume                     1885.23
_exptl_crystal_colour            yellow
_exptl_crystal_description       block
_cell_formula_units_Z            4
loop_
_atom_site_label
_atom_site_type_symbol
_atom_site_fract_x
_atom_site_fract_y
_atom_site_fract_z
N1 N 0.16752(12) 0.18431(15) 0.67475(13)
N2 N 0.32763(13) -0.06105(15) 0.71352(14)
C1 C 0.22677(15) 0.11141(17) 0.73267(15)
C2 C 0.24041(15) 0.11608(18) 0.84775(16)
H1 H 0.2823 0.0627 0.8850
C3 C 0.19133(16) 0.19999(19) 0.90385(16)
H2 H 0.2001 0.2049 0.9797
C4 C 0.12724(15) 0.27938(18) 0.84612(16)
C5 C 0.07344(17) 0.3689(2) 0.89753(19)
H3 H 0.0801 0.3779 0.9732
C6 C 0.01225(19) 0.4416(2) 0.8376(2)
H4 H -0.0231 0.4995 0.8726
C7 C 0.00171(18) 0.4305(2) 0.7234(2)
H5 H -0.0402 0.4812 0.6831
C8 C 0.05286(17) 0.3454(2) 0.67118(19)
H6 H 0.0454 0.3387 0.5953
C9 C 0.11670(15) 0.26784(17) 0.73075(16)
C10 C 0.27941(15) 0.02396(19) 0.66804(18)
H7 H 0.2771 0.0314 0.5922
C11 C 0.37611(17) -0.14670(19) 0.64797(17)
C12 C 0.32351(18) -0.2275(2) 0.57867(19)
C13 C 0.3764(2) -0.3113(2) 0.5221(2)
H8 H 0.3439 -0.3663 0.4758
C14 C 0.4748(2) -0.3149(2) 0.5327(2)
H9 H 0.5080 -0.3718 0.4939
C15 C 0.52498(19) -0.2346(2) 0.6006(2)
H10 H 0.5918 -0.2376 0.6066
C16 C 0.47717(17) -0.14927(18) 0.66036(17)
C17 C 0.53182(16) -0.05784(19) 0.73190(18)
H11 H 0.4898 -0.0345 0.7897
C18 C 0.5519(2) 0.0559(2) 0.6674(2)
H12 H 0.5865 0.1125 0.7143
H13 H 0.5896 0.0358 0.6069
H14 H 0.4921 0.0912 0.6403
C19 C 0.21359(19) -0.2292(2) 0.5642(2)
H15 H 0.1894 -0.1678 0.6132
C20 C 0.62475(19) -0.1076(3) 0.7890(2)
H16 H 0.6558 -0.0455 0.8329
H17 H 0.6095 -0.1742 0.8351
H18 H 0.6670 -0.1344 0.7349
C21 C 0.1794(3) -0.1951(3) 0.4476(3)
H19 H 0.2070 -0.1191 0.4290
H20 H 0.1992 -0.2560 0.3979
H21 H 0.1105 -0.1889 0.4423
C22 C 0.1707(2) -0.3501(3) 0.5959(3)
H22 H 0.1018 -0.3465 0.5854
H23 H 0.1947 -0.4127 0.5507
H24 H 0.1885 -0.3670 0.6714
loop_
_geom_bond_atom_site_label_1
_geom_bond_atom_site_label_2
_geom_bond_site_symmetry_1
_geom_bond_site_symmetry_2
N1 C1 1_555 1_555
N2 C10 1_555 1_555
C1 C2 1_555 1_555
C2 H1 1_555 1_555
C3 C2 1_555 1_555
H2 C3 1_555 1_555
C4 C3 1_555 1_555
C5 C4 1_555 1_555
H3 C5 1_555 1_555
C6 C5 1_555 1_555
H4 C6 1_555 1_555
C7 C6 1_555 1_555
H5 C7 1_555 1_555
C8 C7 1_555 1_555
H6 C8 1_555 1_555
C9 N1 1_555 1_555
C10 C1 1_555 1_555
H7 C10 1_555 1_555
C11 N2 1_555 1_555
C12 C11 1_555 1_555
C13 C12 1_555 1_555
H8 C13 1_555 1_555
C14 C13 1_555 1_555
H9 C14 1_555 1_555
C15 C14 1_555 1_555
H10 C15 1_555 1_555
C16 C11 1_555 1_555
C17 C16 1_555 1_555
H11 C17 1_555 1_555
C18 C17 1_555 1_555
H12 C18 1_555 1_555
H13 C18 1_555 1_555
H14 C18 1_555 1_555
C19 C12 1_555 1_555
H15 C19 1_555 1_555
C20 C17 1_555 1_555
H16 C20 1_555 1_555
H17 C20 1_555 1_555
H18 C20 1_555 1_555
C21 C19 1_555 1_555
H19 C21 1_555 1_555
H20 C21 1_555 1_555
H21 C21 1_555 1_555
C22 C19 1_555 1_555
H22 C22 1_555 1_555
H23 C22 1_555 1_555
H24 C22 1_555 1_555
C4 C9 1_555 1_555
C8 C9 1_555 1_555
C15 C16 1_555 1_555

#END
