
#######################################################################
#
#                 Cambridge Crystallographic Data Centre
#                                CCDC 
#
#######################################################################
#
# If this CIF has been generated from an entry in the Cambridge 
# Structural Database, then it will include bibliographic, chemical, 
# crystal, experimental, refinement or atomic coordinate data resulting 
# from the CCDC's data processing and validation procedures.
#
#######################################################################

data_HIMJOF
_chemical_compound_source        'Ainsliaea fragrans'
_chemical_name_common            'ainsliatriolide B monohydrate'
_chemical_formula_moiety         'C45 H48 O12,H2 O1'
_chemical_name_systematic        
"5a',9a',18a'-trihydroxy-3,3',6,11',14'-pentamethylidene-3a,3a',4,5,5',5a',6,6',6a,7,7',9a,9b,10a',11',12',13',13a',14',16a',16b',17',18',18a',18b',18c'-hexacosahydro-2H,4'H,9a'H-spiro[azuleno[4,5-b]furan-9,8'-[8b,16c]epoxybenzo[3,4]furo[3',2':7,8]azuleno[2,1-b]furo[3',2':7,8]azuleno[1,2-f]oxepine]-2,2',8,15'(3H,3'H,10'H)-tetrone monohydrate"
_chemical_properties_biological  
'tested for cytotoxicity against A-549, HT-29, BEL-7402 and HL-60 cancer cell lines'
_symmetry_cell_setting           orthorhombic
_symmetry_space_group_name_H-M   'P 21 21 21'
_symmetry_Int_Tables_number      19
_space_group_name_Hall           'P 2ac 2ab'
loop_
_symmetry_equiv_pos_site_id
_symmetry_equiv_pos_as_xyz
1 x,y,z
2 1/2-x,-y,1/2+z
3 -x,1/2+y,1/2-z
4 1/2+x,1/2-y,-z
_cell_length_a                   14.8145(14)
_cell_length_b                   15.5156(15)
_cell_length_c                   19.1787(19)
_cell_angle_alpha                90
_cell_angle_beta                 90
_cell_angle_gamma                90
_cell_volume                     4408.34
_exptl_crystal_colour            colorless
_exptl_crystal_description       block
_chemical_melting_point          '553 K'
_cell_formula_units_Z            4
_exptl_crystal_recrystallization_method 
'Re-crystallisation from solvent: Acetone'
loop_
_atom_site_label
_atom_site_type_symbol
_atom_site_fract_x
_atom_site_fract_y
_atom_site_fract_z
O1 O 0.22834(12) 0.46754(11) 0.62424(9)
O2 O 0.17295(13) 0.33461(11) 0.64630(10)
O3 O 0.33019(14) 0.47082(12) 0.74877(11)
H1 H 0.3806 0.4530 0.7365
O4 O 0.26309(16) 0.17855(13) 0.54117(11)
O5 O 0.29704(14) 0.34154(14) 0.88134(10)
O6 O 0.02340(14) 0.36587(13) 0.67536(11)
H2 H 0.0417 0.3368 0.7089
O7 O 0.00906(17) 0.63163(14) 0.67088(11)
O8 O 0.45196(18) 0.48388(15) 0.58317(13)
O9 O 0.51825(15) 0.27578(14) 0.71949(12)
H3 H 0.5242 0.3240 0.7014
O10 O 0.28693(18) 0.32375(17) 0.99712(12)
O11 O 0.1823(2) 0.05720(17) 0.55067(16)
O12 O -0.0409(3) 0.75709(19) 0.71074(15)
C1 C 0.13401(18) 0.48069(17) 0.64627(14)
C2 C 0.33402(19) 0.34215(17) 0.63756(14)
C3 C 0.36269(19) 0.29630(17) 0.69267(15)
C4 C 0.2494(2) 0.39048(16) 0.65851(14)
C5 C 0.1342(2) 0.50656(18) 0.72302(14)
H4 H 0.0719 0.5162 0.7383
H5 H 0.1671 0.5610 0.7282
C6 C 0.09679(19) 0.38889(17) 0.63300(14)
C7 C 0.26451(19) 0.40512(17) 0.73779(14)
C8 C 0.4407(2) 0.23387(18) 0.69065(16)
C9 C 0.0869(2) 0.47738(18) 0.52588(14)
H6 H 0.1485 0.4737 0.5060
C10 C 0.4030(2) 0.43938(19) 0.54805(16)
C11 C 0.1782(2) 0.43765(18) 0.77046(15)
H7 H 0.1913 0.4627 0.8163
H8 H 0.1362 0.3895 0.7771
C12 C 0.0242(2) 0.50061(18) 0.46629(15)
C13 C 0.0016(2) 0.57842(18) 0.60851(15)
H9 H -0.0432 0.5321 0.6163
C14 C 0.0927(2) 0.53928(17) 0.59069(14)
H10 H 0.1358 0.5863 0.5801
C15 C 0.37644(19) 0.34540(18) 0.56615(15)
C16 C 0.3912(2) 0.34690(19) 0.38938(16)
C17 C 0.4594(2) 0.21146(19) 0.61398(16)
H11 H 0.5161 0.1793 0.6108
H12 H 0.4109 0.1743 0.5965
C18 C 0.3609(2) 0.2164(2) 0.92418(17)
C19 C 0.3077(2) 0.32238(18) 0.50725(14)
H13 H 0.2469 0.3375 0.5249
C20 C 0.2503(2) 0.20742(19) 0.41911(15)
H14 H 0.2003 0.2494 0.4142
C21 C 0.3494(2) 0.30234(18) 0.82492(15)
H15 H 0.4101 0.3288 0.8227
C22 C 0.3043(2) 0.22804(17) 0.48535(15)
H16 H 0.3669 0.2073 0.4788
C23 C 0.3127(2) 0.2962(2) 0.94160(17)
C24 C 0.4656(2) 0.2921(2) 0.56817(16)
H17 H 0.4813 0.2747 0.5206
H18 H 0.5143 0.3289 0.5857
C25 C 0.3013(2) 0.31442(17) 0.75643(14)
H19 H 0.2502 0.2733 0.7549
C26 C 0.0653(2) 0.38819(18) 0.55707(15)
H20 H 0.0003 0.3770 0.5547
H21 H 0.0968 0.3430 0.5310
C27 C 0.3619(3) 0.4666(2) 0.48069(18)
H22 H 0.4068 0.4959 0.4516
H23 H 0.3115 0.5063 0.4890
C28 C 0.3574(2) 0.20749(19) 0.84645(16)
H24 H 0.2992 0.1795 0.8349
C29 C -0.0316(2) 0.63918(19) 0.55028(16)
H25 H 0.0207 0.6537 0.5204
C30 C 0.2121(2) 0.1202(2) 0.43773(18)
C31 C -0.0759(2) 0.5084(2) 0.47973(18)
H26 H -0.0935 0.4663 0.5153
H27 H -0.1087 0.4945 0.4368
C32 C 0.3280(2) 0.38424(19) 0.44439(15)
H28 H 0.2700 0.3979 0.4214
C33 C -0.0584(2) 0.7188(2) 0.58924(17)
C34 C 0.2146(2) 0.1118(2) 0.51341(18)
C35 C 0.0564(3) 0.5084(2) 0.40143(17)
H29 H 0.0167 0.5187 0.3641
H30 H 0.1187 0.5035 0.3932
C36 C 0.4220(2) 0.1500(2) 0.73198(17)
H31 H 0.3610 0.1302 0.7205
H32 H 0.4643 0.1057 0.7158
C37 C 0.3074(2) 0.2082(2) 0.35283(16)
H33 H 0.2706 0.1863 0.3142
H34 H 0.3582 0.1685 0.3591
C38 C 0.4298(2) 0.1566(2) 0.81157(17)
H35 H 0.4296 0.0982 0.8310
H36 H 0.4882 0.1828 0.8230
C39 C 0.3448(3) 0.2972(2) 0.33234(17)
H37 H 0.3877 0.2894 0.2940
H38 H 0.2947 0.3322 0.3146
C40 C 0.4001(3) 0.1665(3) 0.9720(2)
H39 H 0.3976 0.1819 1.0194
H40 H 0.4303 0.1159 0.9584
C41 C -0.0314(3) 0.7080(2) 0.66206(19)
C42 C 0.4791(3) 0.3591(2) 0.3896(2)
H41 H 0.5147 0.3366 0.3534
H42 H 0.5062 0.3905 0.4260
C43 C -0.1037(3) 0.5993(2) 0.50434(19)
H43 H -0.1139 0.6362 0.4636
H44 H -0.1605 0.5956 0.5304
C44 C -0.0956(2) 0.7913(2) 0.5657(2)
H45 H -0.1054 0.8378 0.5963
H46 H -0.1121 0.7961 0.5185
C45 C 0.1831(3) 0.0575(3) 0.3972(2)
H47 H 0.1632 0.0054 0.4169
H48 H 0.1823 0.0649 0.3485
O13 O 0.5100(2) 0.4511(2) 0.72294(17)
H49 H 0.560(2) 0.443(2) 0.744(2)
H50 H 0.513(4) 0.458(4) 0.6752(13)
loop_
_geom_bond_atom_site_label_1
_geom_bond_atom_site_label_2
_geom_bond_site_symmetry_1
_geom_bond_site_symmetry_2
O1 C1 1_555 1_555
O2 C4 1_555 1_555
O3 H1 1_555 1_555
O4 C22 1_555 1_555
O5 C21 1_555 1_555
O6 H2 1_555 1_555
O7 C13 1_555 1_555
O8 C10 1_555 1_555
O9 H3 1_555 1_555
O10 C23 1_555 1_555
O11 C34 1_555 1_555
O12 C41 1_555 1_555
C1 C5 1_555 1_555
C2 C3 1_555 1_555
C3 C8 1_555 1_555
C4 O1 1_555 1_555
C5 H4 1_555 1_555
H5 C5 1_555 1_555
C6 O2 1_555 1_555
C7 O3 1_555 1_555
C8 O9 1_555 1_555
C9 H6 1_555 1_555
C10 C15 1_555 1_555
C11 C5 1_555 1_555
H7 C11 1_555 1_555
H8 C11 1_555 1_555
C12 C9 1_555 1_555
C13 H9 1_555 1_555
C14 C1 1_555 1_555
H10 C14 1_555 1_555
C15 C2 1_555 1_555
C16 C32 1_555 1_555
C17 C8 1_555 1_555
H11 C17 1_555 1_555
H12 C17 1_555 1_555
C18 C23 1_555 1_555
C19 C15 1_555 1_555
H13 C19 1_555 1_555
C20 H14 1_555 1_555
C21 H15 1_555 1_555
C22 C19 1_555 1_555
H16 C22 1_555 1_555
C23 O5 1_555 1_555
C24 C15 1_555 1_555
H17 C24 1_555 1_555
H18 C24 1_555 1_555
C25 C3 1_555 1_555
H19 C25 1_555 1_555
C26 C6 1_555 1_555
H20 C26 1_555 1_555
H21 C26 1_555 1_555
C27 C10 1_555 1_555
H22 C27 1_555 1_555
H23 C27 1_555 1_555
C28 C18 1_555 1_555
H24 C28 1_555 1_555
C29 C13 1_555 1_555
H25 C29 1_555 1_555
C30 C20 1_555 1_555
C31 C12 1_555 1_555
H26 C31 1_555 1_555
H27 C31 1_555 1_555
C32 C19 1_555 1_555
H28 C32 1_555 1_555
C33 C29 1_555 1_555
C34 O4 1_555 1_555
C35 C12 1_555 1_555
H29 C35 1_555 1_555
H30 C35 1_555 1_555
C36 C8 1_555 1_555
H31 C36 1_555 1_555
H32 C36 1_555 1_555
C37 C20 1_555 1_555
H33 C37 1_555 1_555
H34 C37 1_555 1_555
C38 C28 1_555 1_555
H35 C38 1_555 1_555
H36 C38 1_555 1_555
C39 C16 1_555 1_555
H37 C39 1_555 1_555
H38 C39 1_555 1_555
C40 C18 1_555 1_555
H39 C40 1_555 1_555
H40 C40 1_555 1_555
C41 O7 1_555 1_555
C42 C16 1_555 1_555
H41 C42 1_555 1_555
H42 C42 1_555 1_555
C43 C29 1_555 1_555
H43 C43 1_555 1_555
H44 C43 1_555 1_555
C44 C33 1_555 1_555
H45 C44 1_555 1_555
H46 C44 1_555 1_555
C45 C30 1_555 1_555
H47 C45 1_555 1_555
H48 C45 1_555 1_555
O13 H49 1_555 1_555
H50 O13 1_555 1_555
O6 C6 1_555 1_555
C1 C6 1_555 1_555
C2 C4 1_555 1_555
C4 C7 1_555 1_555
C7 C11 1_555 1_555
C7 C25 1_555 1_555
C9 C14 1_555 1_555
C9 C26 1_555 1_555
C13 C14 1_555 1_555
C17 C24 1_555 1_555
C20 C22 1_555 1_555
C21 C25 1_555 1_555
C21 C28 1_555 1_555
C27 C32 1_555 1_555
C30 C34 1_555 1_555
C31 C43 1_555 1_555
C33 C41 1_555 1_555
C36 C38 1_555 1_555
C37 C39 1_555 1_555

#END
