
#######################################################################
#
#                 Cambridge Crystallographic Data Centre
#                                CCDC 
#
#######################################################################
#
# If this CIF has been generated from an entry in the Cambridge 
# Structural Database, then it will include bibliographic, chemical, 
# crystal, experimental, refinement or atomic coordinate data resulting 
# from the CCDC's data processing and validation procedures.
#
#######################################################################

data_HIMXEJ
_chemical_formula_moiety         'C16 H21 Cl1 O3 S1'
_chemical_name_systematic        
(E)-3-(2-chloropropan-2-yl)-4-{[(4-methylphenyl)sulfonyl]methylidene}tetrahydro-2H-pyran
_symmetry_cell_setting           triclinic
_symmetry_space_group_name_H-M   'P -1'
_symmetry_Int_Tables_number      2
_space_group_name_Hall           '-P 1'
loop_
_symmetry_equiv_pos_site_id
_symmetry_equiv_pos_as_xyz
1 x,y,z
2 -x,-y,-z
_cell_length_a                   8.3060(10)
_cell_length_b                   10.2320(13)
_cell_length_c                   10.7397(14)
_cell_angle_alpha                67.659(4)
_cell_angle_beta                 74.659(4)
_cell_angle_gamma                78.673(4)
_cell_volume                     809.429
_exptl_crystal_colour            colorless
_exptl_crystal_description       block
_cell_formula_units_Z            2
loop_
_atom_site_label
_atom_site_type_symbol
_atom_site_fract_x
_atom_site_fract_y
_atom_site_fract_z
C1 C 0.5737(3) 0.8013(2) -0.0134(3)
H1 H 0.5524 0.8199 -0.1035
H2 H 0.4685 0.8222 0.0450
C2 C 0.6381(3) 0.6456(2) 0.0476(2)
H3 H 0.5521 0.5866 0.0616
H4 H 0.7359 0.6217 -0.0159
C3 C 0.6837(2) 0.61694(19) 0.1825(2)
C4 C 0.7837(3) 0.7252(2) 0.1862(2)
H5 H 0.7608 0.7186 0.2826
C5 C 0.7119(3) 0.8755(2) 0.1064(2)
H6 H 0.6039 0.8990 0.1601
H7 H 0.7864 0.9429 0.0958
C6 C 0.9759(3) 0.6928(2) 0.1437(3)
C7 C 1.0471(3) 0.7197(3) -0.0118(3)
H8 H 1.1675 0.7056 -0.0288
H9 H 1.0112 0.8155 -0.0643
H10 H 1.0066 0.6547 -0.0384
C8 C 1.0376(3) 0.5448(3) 0.2305(3)
H11 H 1.0014 0.5339 0.3262
H12 H 1.1580 0.5313 0.2072
H13 H 0.9923 0.4755 0.2130
C9 C 0.6346(3) 0.5132(2) 0.2999(2)
H14 H 0.6745 0.5096 0.3744
C10 C 0.6173(3) 0.2215(2) 0.4201(2)
C11 C 0.6714(3) 0.1186(2) 0.3596(2)
H15 H 0.6541 0.1355 0.2725
C12 C 0.7516(3) -0.0097(2) 0.4304(3)
H16 H 0.7866 -0.0795 0.3904
C13 C 0.7809(3) -0.0371(2) 0.5593(2)
C14 C 0.7240(3) 0.0673(2) 0.6179(2)
H17 H 0.7404 0.0500 0.7054
C15 C 0.6435(3) 0.1962(2) 0.5499(2)
H18 H 0.6072 0.2655 0.5906
C16 C 0.8695(3) -0.1762(2) 0.6343(3)
H19 H 0.9366 -0.1608 0.6869
H20 H 0.9405 -0.2171 0.5690
H21 H 0.7882 -0.2397 0.6951
Cl1 Cl 1.06904(9) 0.81679(9) 0.18144(9)
O1 O 0.4810(2) 0.37299(16) 0.21073(16)
O2 O 0.35838(19) 0.40827(18) 0.43263(17)
O3 O 0.6911(2) 0.89097(15) -0.02573(16)
S1 S 0.50499(7) 0.38197(5) 0.33454(5)
loop_
_geom_bond_atom_site_label_1
_geom_bond_atom_site_label_2
_geom_bond_site_symmetry_1
_geom_bond_site_symmetry_2
C1 H1 1_555 1_555
H2 C1 1_555 1_555
C2 C1 1_555 1_555
H3 C2 1_555 1_555
H4 C2 1_555 1_555
C3 C2 1_555 1_555
C4 C3 1_555 1_555
H5 C4 1_555 1_555
C5 C4 1_555 1_555
H6 C5 1_555 1_555
H7 C5 1_555 1_555
C6 C4 1_555 1_555
C7 C6 1_555 1_555
H8 C7 1_555 1_555
H9 C7 1_555 1_555
H10 C7 1_555 1_555
C8 C6 1_555 1_555
H11 C8 1_555 1_555
H12 C8 1_555 1_555
H13 C8 1_555 1_555
C9 C3 1_555 1_555
H14 C9 1_555 1_555
C10 C11 1_555 1_555
C11 H15 1_555 1_555
C12 C11 1_555 1_555
H16 C12 1_555 1_555
C13 C12 1_555 1_555
C14 C13 1_555 1_555
H17 C14 1_555 1_555
C15 C10 1_555 1_555
H18 C15 1_555 1_555
C16 C13 1_555 1_555
H19 C16 1_555 1_555
H20 C16 1_555 1_555
H21 C16 1_555 1_555
Cl1 C6 1_555 1_555
O1 S1 1_555 1_555
O2 S1 1_555 1_555
O3 C1 1_555 1_555
S1 C9 1_555 1_555
C5 O3 1_555 1_555
C10 S1 1_555 1_555
C14 C15 1_555 1_555

#END
