
#######################################################################
#
#                 Cambridge Crystallographic Data Centre
#                                CCDC 
#
#######################################################################
#
# If this CIF has been generated from an entry in the Cambridge 
# Structural Database, then it will include bibliographic, chemical, 
# crystal, experimental, refinement or atomic coordinate data resulting 
# from the CCDC's data processing and validation procedures.
#
#######################################################################

data_HIMXIN
_chemical_formula_moiety         'C19 H21 Cl1 O3 S2'
_chemical_name_systematic        
3-(2-chloropropan-2-yl)-5-[(4-methylphenyl)sulfonyl]-4-(thiophen-2-yl)-3,6-dihydro-2H-pyran
_symmetry_cell_setting           monoclinic
_symmetry_space_group_name_H-M   'C 2/c'
_symmetry_Int_Tables_number      15
_space_group_name_Hall           '-C 2yn'
loop_
_symmetry_equiv_pos_site_id
_symmetry_equiv_pos_as_xyz
1 x,y,z
2 -x,y,1/2-z
3 1/2+x,1/2+y,z
4 1/2-x,1/2+y,1/2-z
5 -x,-y,-z
6 x,-y,1/2+z
7 1/2-x,1/2-y,-z
8 1/2+x,1/2-y,1/2+z
_cell_length_a                   20.240(2)
_cell_length_b                   15.5412(15)
_cell_length_c                   13.6040(13)
_cell_angle_alpha                90
_cell_angle_beta                 118.262(3)
_cell_angle_gamma                90
_cell_volume                     3769.08
_exptl_crystal_colour            brown
_exptl_crystal_description       block
_cell_formula_units_Z            8
loop_
_atom_site_label
_atom_site_type_symbol
_atom_site_fract_x
_atom_site_fract_y
_atom_site_fract_z
S1 S 0.36083(3) 0.19630(3) 0.02707(4)
S2 S 0.42441(4) 0.32753(4) -0.20671(5)
Cl1 Cl 0.38417(4) 0.62154(3) -0.07186(6)
O1 O 0.29105(8) 0.16958(10) -0.06417(13)
O2 O 0.37579(9) 0.17287(10) 0.13806(13)
C1 C 0.37356(9) 0.35637(12) -0.05211(14)
C2 C 0.35845(11) 0.31879(12) -0.16042(14)
O3 O 0.39733(9) 0.43830(9) 0.14576(11)
C3 C 0.39923(10) 0.45012(11) -0.03092(15)
H1 H 0.4362 0.4568 -0.0575
C4 C 0.37162(9) 0.31069(12) 0.03033(14)
C5 C 0.43521(11) 0.15717(12) 0.00643(17)
C6 C 0.33595(11) 0.51601(12) -0.09684(17)
C7 C 0.38768(11) 0.34857(13) 0.14116(15)
H2 H 0.3909 0.3159 0.2006
C8 C 0.29426(13) 0.27965(13) -0.24029(16)
H3 H 0.2519 0.2693 -0.2321
C9 C 0.30062(18) 0.25715(16) -0.33651(19)
H4 H 0.2626 0.2299 -0.3982
C10 C 0.55440(15) 0.09885(15) -0.0214(3)
C11 C 0.29872(14) 0.50487(16) -0.22232(19)
H5 H 0.2685 0.5545 -0.2578
H6 H 0.2676 0.4545 -0.2432
H7 H 0.3365 0.4986 -0.2455
C12 C 0.42147(13) 0.11858(15) -0.09255(18)
H8 H 0.3727 0.1122 -0.1499
C13 C 0.44101(12) 0.46508(14) 0.09462(16)
H9 H 0.4878 0.4333 0.1267
H10 H 0.4528 0.5257 0.1094
C14 C 0.56634(14) 0.13691(18) 0.0766(3)
H11 H 0.6151 0.1433 0.1340
C15 C 0.27852(15) 0.52358(17) -0.0555(3)
H12 H 0.3030 0.5415 0.0212
H13 H 0.2550 0.4688 -0.0617
H14 H 0.2412 0.5653 -0.0997
C16 C 0.50751(13) 0.16581(17) 0.0916(2)
H15 H 0.5165 0.1910 0.1588
C17 C 0.48171(16) 0.08939(17) -0.1050(2)
H16 H 0.4729 0.0628 -0.1713
C18 C 0.6196(2) 0.0674(2) -0.0370(3)
H17 H 0.6454 0.1158 -0.0467
H18 H 0.6012 0.0312 -0.1018
H19 H 0.6535 0.0353 0.0276
C19 C 0.36666(19) 0.27886(17) -0.3300(2)
H20 H 0.3794 0.2685 -0.3863
loop_
_geom_bond_atom_site_label_1
_geom_bond_atom_site_label_2
_geom_bond_site_symmetry_1
_geom_bond_site_symmetry_2
S1 O1 1_555 1_555
S2 C2 1_555 1_555
Cl1 C6 1_555 1_555
O2 S1 1_555 1_555
C1 C2 1_555 1_555
C2 C8 1_555 1_555
O3 C7 1_555 1_555
C3 C1 1_555 1_555
H1 C3 1_555 1_555
C4 S1 1_555 1_555
C5 S1 1_555 1_555
C6 C3 1_555 1_555
C7 C4 1_555 1_555
H2 C7 1_555 1_555
C8 H3 1_555 1_555
C9 C8 1_555 1_555
H4 C9 1_555 1_555
C10 C14 1_555 1_555
C11 C6 1_555 1_555
H5 C11 1_555 1_555
H6 C11 1_555 1_555
H7 C11 1_555 1_555
C12 C5 1_555 1_555
H8 C12 1_555 1_555
C13 O3 1_555 1_555
H9 C13 1_555 1_555
H10 C13 1_555 1_555
C14 H11 1_555 1_555
C15 C6 1_555 1_555
H12 C15 1_555 1_555
H13 C15 1_555 1_555
H14 C15 1_555 1_555
C16 C5 1_555 1_555
H15 C16 1_555 1_555
C17 C10 1_555 1_555
H16 C17 1_555 1_555
C18 C10 1_555 1_555
H17 C18 1_555 1_555
H18 C18 1_555 1_555
H19 C18 1_555 1_555
C19 S2 1_555 1_555
H20 C19 1_555 1_555
C1 C4 1_555 1_555
C3 C13 1_555 1_555
C9 C19 1_555 1_555
C12 C17 1_555 1_555
C14 C16 1_555 1_555

#END
