
#######################################################################
#
#                 Cambridge Crystallographic Data Centre
#                                CCDC 
#
#######################################################################
#
# If this CIF has been generated from an entry in the Cambridge 
# Structural Database, then it will include bibliographic, chemical, 
# crystal, experimental, refinement or atomic coordinate data resulting 
# from the CCDC's data processing and validation procedures.
#
#######################################################################

data_HINBUD
_chemical_formula_moiety         'C29 H26 N2'
_chemical_name_systematic        
2,7-Dimethyl-N,N-bis(4-methylphenyl)acridin-9-amine
_symmetry_cell_setting           triclinic
_symmetry_space_group_name_H-M   'P -1'
_symmetry_Int_Tables_number      2
_space_group_name_Hall           '-P 1'
loop_
_symmetry_equiv_pos_site_id
_symmetry_equiv_pos_as_xyz
1 x,y,z
2 -x,-y,-z
_cell_length_a                   8.7616(5)
_cell_length_b                   9.8458(5)
_cell_length_c                   13.1903(7)
_cell_angle_alpha                81.637(3)
_cell_angle_beta                 79.205(2)
_cell_angle_gamma                89.956(3)
_cell_volume                     1105.43
_exptl_crystal_colour            yellow
_exptl_crystal_description       block
_cell_formula_units_Z            2
loop_
_atom_site_label
_atom_site_type_symbol
_atom_site_fract_x
_atom_site_fract_y
_atom_site_fract_z
N1 N 0.2191(4) 0.7013(3) 0.2564(3)
N2 N 0.2832(4) 0.2703(3) 0.2670(2)
C1 C 0.1244(5) 0.6232(4) 0.2174(3)
C2 C -0.0013(5) 0.6883(4) 0.1758(3)
C3 C -0.1036(5) 0.6154(5) 0.1371(3)
C4 C -0.0888(4) 0.4712(4) 0.1368(3)
C5 C 0.0300(4) 0.4056(4) 0.1762(3)
C6 C 0.1409(4) 0.4780(4) 0.2165(3)
C7 C 0.2633(4) 0.4147(4) 0.2596(3)
C8 C 0.3671(4) 0.4949(4) 0.2974(3)
C9 C 0.4999(4) 0.4414(4) 0.3371(3)
C10 C 0.5982(4) 0.5225(4) 0.3726(3)
C11 C 0.5656(5) 0.6645(4) 0.3719(3)
C12 C 0.4411(5) 0.7205(4) 0.3346(3)
C13 C 0.3371(4) 0.6388(4) 0.2952(3)
C14 C 0.3074(4) 0.2075(4) 0.1749(3)
C15 C 0.3884(4) 0.2799(4) 0.0818(3)
C16 C 0.4031(4) 0.2245(4) -0.0108(3)
C17 C 0.3378(5) 0.0950(4) -0.0129(3)
C18 C 0.2649(5) 0.0215(4) 0.0826(3)
C19 C 0.2481(4) 0.0761(4) 0.1752(3)
C20 C 0.2522(4) 0.1910(4) 0.3688(3)
C21 C 0.1326(4) 0.2265(4) 0.4459(3)
C22 C 0.1032(4) 0.1476(4) 0.5447(3)
C23 C 0.1885(4) 0.0316(4) 0.5680(3)
C24 C 0.3077(5) -0.0017(4) 0.4903(3)
C25 C 0.3409(4) 0.0771(4) 0.3923(3)
C26 C -0.2063(5) 0.3931(5) 0.0952(4)
C27 C 0.7407(5) 0.4671(5) 0.4125(3)
C28 C 0.3462(6) 0.0354(5) -0.1130(4)
C29 C 0.1559(5) -0.0565(5) 0.6740(3)
H1 H -0.009(6) 0.786(5) 0.176(4)
H2 H -0.193(6) 0.662(5) 0.109(4)
H3 H 0.035(6) 0.312(5) 0.173(4)
H4 H 0.518(6) 0.349(5) 0.337(4)
H5 H 0.639(6) 0.719(5) 0.402(4)
H6 H 0.424(6) 0.807(5) 0.332(4)
H7 H 0.425(5) 0.373(5) 0.083(4)
H8 H 0.465(5) 0.277(5) -0.080(4)
H9 H 0.222(6) -0.071(6) 0.082(4)
H10 H 0.198(6) 0.028(5) 0.241(4)
H11 H 0.075(6) 0.307(5) 0.432(4)
H12 H 0.024(6) 0.174(5) 0.601(4)
H13 H 0.369(6) -0.086(6) 0.501(4)
H14 H 0.427(6) 0.043(5) 0.337(4)
H15 H -0.175(8) 0.294(8) 0.088(5)
H16 H -0.304(7) 0.392(6) 0.138(5)
H17 H -0.214(6) 0.434(6) 0.025(4)
H18 H 0.756(7) 0.369(7) 0.409(5)
H19 H 0.847(5) 0.504(4) 0.364(3)
H20 H 0.730(6) 0.489(6) 0.485(4)
H21 H 0.251(12) -0.032(11) -0.110(8)
H22 H 0.314(12) 0.093(11) -0.161(8)
H23 H 0.440(10) 0.010(8) -0.144(6)
H24 H 0.113(7) -0.003(6) 0.735(4)
H25 H 0.096(7) -0.137(6) 0.674(5)
H26 H 0.254(7) -0.092(6) 0.690(4)
loop_
_geom_bond_atom_site_label_1
_geom_bond_atom_site_label_2
_geom_bond_site_symmetry_1
_geom_bond_site_symmetry_2
N1 C1 1_555 1_555
N2 C7 1_555 1_555
C1 C2 1_555 1_555
C2 C3 1_555 1_555
C3 C4 1_555 1_555
C4 C5 1_555 1_555
C5 C6 1_555 1_555
C6 C1 1_555 1_555
C7 C6 1_555 1_555
C8 C7 1_555 1_555
C9 C8 1_555 1_555
C10 C9 1_555 1_555
C11 C10 1_555 1_555
C12 C11 1_555 1_555
C13 N1 1_555 1_555
C14 N2 1_555 1_555
C15 C14 1_555 1_555
C16 C15 1_555 1_555
C17 C16 1_555 1_555
C18 C17 1_555 1_555
C19 C14 1_555 1_555
C20 N2 1_555 1_555
C21 C20 1_555 1_555
C22 C21 1_555 1_555
C23 C22 1_555 1_555
C24 C23 1_555 1_555
C25 C20 1_555 1_555
C26 C4 1_555 1_555
C27 C10 1_555 1_555
C28 C17 1_555 1_555
C29 C23 1_555 1_555
H1 C2 1_555 1_555
H2 C3 1_555 1_555
H3 C5 1_555 1_555
H4 C9 1_555 1_555
H5 C11 1_555 1_555
H6 C12 1_555 1_555
H7 C15 1_555 1_555
H8 C16 1_555 1_555
H9 C18 1_555 1_555
H10 C19 1_555 1_555
H11 C21 1_555 1_555
H12 C22 1_555 1_555
H13 C24 1_555 1_555
H14 C25 1_555 1_555
H15 C26 1_555 1_555
H16 C26 1_555 1_555
H17 C26 1_555 1_555
H18 C27 1_555 1_555
H19 C27 1_555 1_555
H20 C27 1_555 1_555
H21 C28 1_555 1_555
H22 C28 1_555 1_555
H23 C28 1_555 1_555
H24 C29 1_555 1_555
H25 C29 1_555 1_555
H26 C29 1_555 1_555
C8 C13 1_555 1_555
C12 C13 1_555 1_555
C18 C19 1_555 1_555
C24 C25 1_555 1_555

#END
