
#######################################################################
#
#                 Cambridge Crystallographic Data Centre
#                                CCDC 
#
#######################################################################
#
# If this CIF has been generated from an entry in the Cambridge 
# Structural Database, then it will include bibliographic, chemical, 
# crystal, experimental, refinement or atomic coordinate data resulting 
# from the CCDC's data processing and validation procedures.
#
#######################################################################

data_HINCAK
_chemical_formula_moiety         'C25 H19 N2 1+,Cl1 O4 1-'
_chemical_name_systematic        '9-(diphenylamino)acridinium perchlorate'
_symmetry_cell_setting           orthorhombic
_symmetry_space_group_name_H-M   'P b c a'
_symmetry_Int_Tables_number      61
_space_group_name_Hall           '-P 2ac 2ab'
loop_
_symmetry_equiv_pos_site_id
_symmetry_equiv_pos_as_xyz
1 x,y,z
2 1/2-x,-y,1/2+z
3 -x,1/2+y,1/2-z
4 1/2+x,1/2-y,-z
5 -x,-y,-z
6 1/2+x,y,1/2-z
7 x,1/2-y,1/2+z
8 1/2-x,1/2+y,z
_cell_length_a                   9.248(9)
_cell_length_b                   17.331(17)
_cell_length_c                   26.24(3)
_cell_angle_alpha                90
_cell_angle_beta                 90
_cell_angle_gamma                90
_cell_volume                     4205.67
_exptl_crystal_colour            purple
_exptl_crystal_description       plate
_cell_formula_units_Z            8
loop_
_atom_site_label
_atom_site_type_symbol
_atom_site_fract_x
_atom_site_fract_y
_atom_site_fract_z
Cl1 Cl 0.16542(14) 0.69916(5) 0.82433(4)
O1 O 0.1087(16) 0.6285(7) 0.8047(6)
O2 O 0.1973(14) 0.6912(7) 0.8786(3)
O3 O 0.0750(12) 0.7596(6) 0.8160(4)
O4 O 0.3107(11) 0.7124(7) 0.8002(4)
N1 N 0.2887(4) 0.56258(19) 0.72340(15)
H1 H 0.250(5) 0.581(3) 0.7432(18)
N2 N 0.4551(3) 0.43412(18) 0.60306(12)
C1 C 0.2431(4) 0.5802(2) 0.67607(16)
C2 C 0.1418(5) 0.6401(2) 0.66876(18)
H2 H 0.1050 0.6682 0.6970
C3 C 0.0981(5) 0.6567(2) 0.62095(19)
H3 H 0.0285 0.6962 0.6158
C4 C 0.1536(5) 0.6165(2) 0.57840(18)
H4 H 0.1224 0.6299 0.5451
C5 C 0.2520(5) 0.5585(2) 0.58484(16)
H5 H 0.2887 0.5321 0.5559
C6 C 0.3002(4) 0.5373(2) 0.63423(15)
C7 C 0.4001(4) 0.4787(2) 0.64380(14)
C8 C 0.4451(4) 0.4628(2) 0.69384(15)
C9 C 0.5417(5) 0.4014(2) 0.70713(16)
H6 H 0.5858 0.3719 0.6809
C10 C 0.5711(5) 0.3846(2) 0.75631(16)
H7 H 0.6352 0.3436 0.7645
C11 C 0.5055(5) 0.4286(3) 0.79580(17)
H8 H 0.5245 0.4155 0.8303
C12 C 0.4168(5) 0.4886(2) 0.78546(16)
H9 H 0.3763 0.5184 0.8123
C13 C 0.3853(4) 0.5061(2) 0.73434(15)
C14 C 0.6029(4) 0.4380(2) 0.59056(14)
C15 C 0.6730(4) 0.5088(2) 0.59140(15)
H10 H 0.6224 0.5544 0.6005
C16 C 0.8183(5) 0.5113(3) 0.57868(17)
H11 H 0.8672 0.5595 0.5794
C17 C 0.8936(5) 0.4462(3) 0.56504(16)
H12 H 0.9927 0.4493 0.5557
C18 C 0.8223(5) 0.3758(2) 0.56521(17)
H13 H 0.8736 0.3301 0.5566
C19 C 0.6785(5) 0.3715(2) 0.57771(16)
H14 H 0.6306 0.3230 0.5776
C20 C 0.3594(4) 0.3836(2) 0.57702(15)
C21 C 0.2563(4) 0.3430(2) 0.60396(17)
H15 H 0.2485 0.3494 0.6398
C22 C 0.1631(5) 0.2924(2) 0.5784(2)
H16 H 0.0925 0.2643 0.5970
C23 C 0.1731(5) 0.2832(2) 0.5271(2)
H17 H 0.1092 0.2490 0.5099
C24 C 0.2762(5) 0.3237(3) 0.4999(2)
H18 H 0.2831 0.3171 0.4641
C25 C 0.3698(5) 0.3739(2) 0.52455(17)
H19 H 0.4406 0.4015 0.5057
O5? O 0.131(2) 0.6210(7) 0.8054(5)
O6? O 0.2076(18) 0.7437(9) 0.7807(5)
O7? O 0.0207(15) 0.7303(10) 0.8393(7)
O8? O 0.2603(15) 0.6970(7) 0.8640(5)
O9? O 0.1685(19) 0.6173(8) 0.8108(7)
O10? O 0.185(2) 0.7068(12) 0.8767(5)
O11? O 0.2632(19) 0.7383(10) 0.7936(6)
O12? O 0.0134(14) 0.7274(9) 0.8131(6)
O13? O 0.118(2) 0.6403(11) 0.7924(7)
O14? O 0.150(2) 0.7734(9) 0.8012(7)
O15? O 0.101(2) 0.6967(9) 0.8738(5)
O16? O 0.3255(18) 0.6895(13) 0.8332(10)
loop_
_geom_bond_atom_site_label_1
_geom_bond_atom_site_label_2
_geom_bond_site_symmetry_1
_geom_bond_site_symmetry_2
Cl1 O1 1_555 1_555
O2 Cl1 1_555 1_555
O3 Cl1 1_555 1_555
O4 Cl1 1_555 1_555
N1 H1 1_555 1_555
N2 C7 1_555 1_555
C1 N1 1_555 1_555
C2 C1 1_555 1_555
H2 C2 1_555 1_555
C3 C2 1_555 1_555
H3 C3 1_555 1_555
C4 C3 1_555 1_555
H4 C4 1_555 1_555
C5 C4 1_555 1_555
H5 C5 1_555 1_555
C6 C1 1_555 1_555
C7 C6 1_555 1_555
C8 C7 1_555 1_555
C9 C8 1_555 1_555
H6 C9 1_555 1_555
C10 C9 1_555 1_555
H7 C10 1_555 1_555
C11 C10 1_555 1_555
H8 C11 1_555 1_555
C12 C11 1_555 1_555
H9 C12 1_555 1_555
C13 N1 1_555 1_555
C14 N2 1_555 1_555
C15 C14 1_555 1_555
H10 C15 1_555 1_555
C16 C15 1_555 1_555
H11 C16 1_555 1_555
C17 C16 1_555 1_555
H12 C17 1_555 1_555
C18 C17 1_555 1_555
H13 C18 1_555 1_555
C19 C14 1_555 1_555
H14 C19 1_555 1_555
C20 N2 1_555 1_555
C21 C20 1_555 1_555
H15 C21 1_555 1_555
C22 C21 1_555 1_555
H16 C22 1_555 1_555
C23 C22 1_555 1_555
H17 C23 1_555 1_555
C24 C23 1_555 1_555
H18 C24 1_555 1_555
C25 C20 1_555 1_555
H19 C25 1_555 1_555
C5 C6 1_555 1_555
C8 C13 1_555 1_555
C12 C13 1_555 1_555
C18 C19 1_555 1_555
C24 C25 1_555 1_555

#END
