
#######################################################################
#
#                 Cambridge Crystallographic Data Centre
#                                CCDC 
#
#######################################################################
#
# If this CIF has been generated from an entry in the Cambridge 
# Structural Database, then it will include bibliographic, chemical, 
# crystal, experimental, refinement or atomic coordinate data resulting 
# from the CCDC's data processing and validation procedures.
#
#######################################################################

data_HIPDES
_chemical_formula_moiety         'C9 H11 Br1 O2'
_chemical_name_systematic        
8-bromo-3,3a,4,5,6,8a-hexahydro-2H-cyclohepta[b]furan-2-one
_symmetry_cell_setting           monoclinic
_symmetry_space_group_name_H-M   'P 21/n'
_symmetry_Int_Tables_number      14
_space_group_name_Hall           '-P 2yn'
loop_
_symmetry_equiv_pos_site_id
_symmetry_equiv_pos_as_xyz
1 x,y,z
2 1/2-x,1/2+y,1/2-z
3 -x,-y,-z
4 1/2+x,1/2-y,1/2+z
_cell_length_a                   9.7058(8)
_cell_length_b                   8.7259(7)
_cell_length_c                   10.6058(9)
_cell_angle_alpha                90
_cell_angle_beta                 93.731(2)
_cell_angle_gamma                90
_cell_volume                     896.321
_exptl_crystal_colour            colorless
_exptl_crystal_description       Block
_cell_formula_units_Z            4
loop_
_atom_site_label
_atom_site_type_symbol
_atom_site_fract_x
_atom_site_fract_y
_atom_site_fract_z
Br1 Br 0.17802(3) 0.45858(4) 0.52081(3)
O1 O 0.3432(3) 0.9923(2) 0.5648(2)
C1 C 0.3410(3) 0.4732(3) 0.6295(3)
C2 C 0.4155(4) 0.3487(4) 0.6507(3)
H1 H 0.382867 0.257671 0.609707
C3 C 0.5487(4) 0.3358(4) 0.7343(4)
H2 H 0.558536 0.228504 0.763941
H3 H 0.627271 0.357882 0.682114
C4 C 0.5591(4) 0.4394(4) 0.8475(3)
H4 H 0.629445 0.397348 0.909963
H5 H 0.469461 0.438895 0.886931
C5 C 0.3849(3) 0.8755(3) 0.6128(3)
O2 O 0.3032(3) 0.7484(3) 0.6102(3)
C6 C 0.5972(3) 0.6048(4) 0.8185(3)
H6 H 0.576439 0.670133 0.891162
H7 H 0.697763 0.610685 0.808579
C7 C 0.5171(3) 0.8430(3) 0.6886(3)
H8 H 0.517478 0.891550 0.773015
H9 H 0.597319 0.881229 0.644760
C8 C 0.5210(3) 0.6675(4) 0.7000(3)
H10 H 0.564113 0.624549 0.624533
C9 C 0.3664(3) 0.6290(3) 0.6900(3)
H11 H 0.328715 0.631713 0.775463
O3? O 0.3625(18) 0.7445(13) 0.5456(15)
H12? H 0.678395 0.606340 0.766657
H13? H 0.621729 0.660098 0.898298
H14? H 0.538274 0.921388 0.754564
H15? H 0.596263 0.832118 0.634910
C10? C 0.473(3) 0.686(3) 0.7458(19)
H16? H 0.389223 0.693423 0.795454
C11? C 0.443(2) 0.625(2) 0.6116(17)
H17? H 0.528516 0.597964 0.569006
loop_
_geom_bond_atom_site_label_1
_geom_bond_atom_site_label_2
_geom_bond_site_symmetry_1
_geom_bond_site_symmetry_2
Br1 C1 1_555 1_555
O1 C5 1_555 1_555
C1 C2 1_555 1_555
C2 H1 1_555 1_555
C3 C2 1_555 1_555
H2 C3 1_555 1_555
H3 C3 1_555 1_555
C4 C3 1_555 1_555
H4 C4 1_555 1_555
H5 C4 1_555 1_555
C5 O2 1_555 1_555
O2 C9 1_555 1_555
C6 C4 1_555 1_555
H6 C6 1_555 1_555
H7 C6 1_555 1_555
C7 C5 1_555 1_555
H8 C7 1_555 1_555
H9 C7 1_555 1_555
C8 C6 1_555 1_555
H10 C8 1_555 1_555
C9 C1 1_555 1_555
H11 C9 1_555 1_555
C7 C8 1_555 1_555
C8 C9 1_555 1_555

#END
