
#######################################################################
#
#                 Cambridge Crystallographic Data Centre
#                                CCDC 
#
#######################################################################
#
# If this CIF has been generated from an entry in the Cambridge 
# Structural Database, then it will include bibliographic, chemical, 
# crystal, experimental, refinement or atomic coordinate data resulting 
# from the CCDC's data processing and validation procedures.
#
#######################################################################

data_HIPQOM
_chemical_formula_moiety         'C4 H12 N1 1+,C38 H28 B1 1-'
_chemical_name_systematic        
'Tetramethylammonium triphenyl(9-triptycyl)borate'
_symmetry_cell_setting           monoclinic
_symmetry_space_group_name_H-M   'C c'
_symmetry_Int_Tables_number      9
_space_group_name_Hall           'C -2yc'
loop_
_symmetry_equiv_pos_site_id
_symmetry_equiv_pos_as_xyz
1 x,y,z
2 x,-y,1/2+z
3 1/2+x,1/2+y,z
4 1/2+x,1/2-y,1/2+z
_cell_length_a                   17.171(2)
_cell_length_b                   9.658(1)
_cell_length_c                   19.742(2)
_cell_angle_alpha                90
_cell_angle_beta                 104.63(1)
_cell_angle_gamma                90
_cell_volume                     3167.81
_exptl_crystal_colour            colorless
_exptl_crystal_description       prism
_cell_formula_units_Z            4
loop_
_atom_site_label
_atom_site_type_symbol
_atom_site_fract_x
_atom_site_fract_y
_atom_site_fract_z
C1 C 0.52339(37) 0.10463(39) 0.95062(32)
C2 C 0.56723(38) 0.36773(40) 0.94591(33)
H1 H 0.55661(38) 0.36539(40) 0.89579(33)
C3 C 0.59587(38) 0.48844(42) 0.98273(35)
H2 H 0.60384(38) 0.56938(42) 0.95706(35)
C4 C 0.61297(39) 0.49500(44) 1.05410(34)
H3 H 0.63454(39) 0.57814(44) 1.07835(34)
C5 C 0.59851(39) 0.37903(43) 1.09107(34)
H4 H 0.60898(39) 0.38188(43) 1.14117(34)
C6 C 0.54994(38) 0.12978(42) 1.09044(32)
H5 H 0.55895(38) 0.13889(42) 1.14024(32)
C7 C 0.65391(40) -0.06470(46) 1.11564(34)
H6 H 0.65947(40) -0.05524(46) 1.16504(34)
C8 C 0.69987(41) -0.16063(45) 1.09097(36)
H7 H 0.73822(41) -0.21714(45) 1.12303(36)
C9 C 0.68983(40) -0.17405(45) 1.02004(36)
H8 H 0.72167(40) -0.24042(45) 1.00270(36)
C10 C 0.63485(39) -0.09359(42) 0.97317(34)
H9 H 0.62875(39) -0.10523(42) 0.92381(34)
C11 C 0.37080(38) 0.04653(43) 0.94502(34)
H10 H 0.35785(38) 0.03651(43) 0.89504(34)
C12 C 0.31150(40) 0.02689(46) 0.98137(37)
H11 H 0.25819(40) 0.00127(46) 0.95570(37)
C13 C 0.32698(41) 0.04296(47) 1.05166(38)
H12 H 0.28494(41) 0.02962(47) 1.07514(38)
C14 C 0.40455(41) 0.07904(46) 1.08992(35)
H13 H 0.41643(41) 0.09220(46) 1.13969(35)
C15 C 0.46394(39) 0.09541(39) 1.05404(33)
C16 C 0.44938(37) 0.08096(37) 0.98216(32)
C17 C 0.55416(37) 0.25017(39) 0.98298(31)
C18 C 0.56911(38) 0.26061(40) 1.05517(33)
C19 C 0.60059(38) 0.01648(42) 1.06947(32)
C20 C 0.58828(38) 0.00371(41) 0.99669(32)
B1 B 0.50740 0.08782(48) 0.86140
C21 C 0.42080(39) 0.15891(42) 0.81932(33)
C22 C 0.39083(41) 0.28524(47) 0.83833(37)
H14 H 0.42181(41) 0.33343(47) 0.87874(37)
C23 C 0.31894(43) 0.34258(54) 0.80154(40)
H15 H 0.30162(43) 0.42946(54) 0.81632(40)
C24 C 0.27187(43) 0.27659(58) 0.74395(38)
H16 H 0.22145(43) 0.31534(58) 0.71856(38)
C25 C 0.29915(42) 0.15371(58) 0.72370(35)
H17 H 0.26703(42) 0.10566(58) 0.68377(35)
C26 C 0.37236(40) 0.09728(49) 0.75990(33)
H18 H 0.39009(40) 0.01261(49) 0.74315(33)
C27 C 0.50414(38) -0.07796(42) 0.83756(31)
C28 C 0.54868(47) -0.12923(50) 0.79384(37)
H19 H 0.57990(47) -0.06527(50) 0.77433(37)
C29 C 0.55067(54) -0.26846(55) 0.77664(40)
H20 H 0.58638(54) -0.29928(55) 0.74936(40)
C30 C 0.50178(49) -0.36281(51) 0.79841(37)
H21 H 0.50026(49) -0.45802(51) 0.78417(37)
C31 C 0.45585(46) -0.31701(50) 0.84044(40)
H22 H 0.42217(46) -0.38079(50) 0.85728(40)
C32 C 0.45742(43) -0.17662(47) 0.85961(38)
H23 H 0.42429(43) -0.14759(47) 0.88956(38)
C33 C 0.58001(38) 0.16385(42) 0.83265(33)
C34 C 0.56348(42) 0.23429(49) 0.76962(34)
H24 H 0.50903(42) 0.23607(49) 0.74142(34)
C35 C 0.62247(46) 0.30272(59) 0.74542(37)
H25 H 0.60766(46) 0.35163(59) 0.70171(37)
C36 C 0.70044(45) 0.30129(58) 0.78248(40)
H26 H 0.74100(45) 0.34899(58) 0.76580(40)
C37 C 0.71966(43) 0.23056(58) 0.84389(39)
H27 H 0.77462(43) 0.22756(58) 0.87091(39)
C38 C 0.66106(40) 0.16285(50) 0.86789(35)
H28 H 0.67708(40) 0.11262(50) 0.91114(35)
N1 N 0.88073(39) 0.10461(40) 0.06362(33)
C39 C 0.90264(48) 0.03407(79) 0.13194(41)
H29 H 0.86559(48) -0.04022(79) 0.13222(41)
H30 H 0.90044(48) 0.09905(79) 0.16821(41)
H31 H 0.95620(48) -0.00243(79) 0.13998(41)
C40 C 0.88164(51) 0.00607(71) 0.00624(41)
H32 H 0.86720(51) 0.05397(71) -0.03777(41)
H33 H 0.84369(51) -0.06693(71) 0.00621(41)
H34 H 0.93458(51) -0.03254(71) 0.01307(41)
C41 C 0.79779(42) 0.16519(54) 0.05335(42)
H35 H 0.78262(42) 0.21143(54) 0.00891(42)
H36 H 0.79780(42) 0.23036(54) 0.09007(42)
H37 H 0.76006(42) 0.09243(54) 0.05450(42)
C42 C 0.93880(47) 0.21887(61) 0.06439(47)
H38 H 0.92527(47) 0.26575(61) 0.02008(47)
H39 H 0.99221(47) 0.18163(61) 0.07269(47)
H40 H 0.93645(47) 0.28312(61) 0.10092(47)
loop_
_geom_bond_atom_site_label_1
_geom_bond_atom_site_label_2
_geom_bond_site_symmetry_1
_geom_bond_site_symmetry_2
C1 C16 1_555 1_555
C2 H1 1_555 1_555
C3 C2 1_555 1_555
H2 C3 1_555 1_555
C4 C3 1_555 1_555
H3 C4 1_555 1_555
C5 C4 1_555 1_555
H4 C5 1_555 1_555
C6 H5 1_555 1_555
C7 H6 1_555 1_555
C8 C7 1_555 1_555
H7 C8 1_555 1_555
C9 C8 1_555 1_555
H8 C9 1_555 1_555
C10 C9 1_555 1_555
H9 C10 1_555 1_555
C11 H10 1_555 1_555
C12 C11 1_555 1_555
H11 C12 1_555 1_555
C13 C12 1_555 1_555
H12 C13 1_555 1_555
C14 C13 1_555 1_555
H13 C14 1_555 1_555
C15 C6 1_555 1_555
C16 C11 1_555 1_555
C17 C1 1_555 1_555
C18 C5 1_555 1_555
C19 C6 1_555 1_555
C20 C1 1_555 1_555
B1 C1 1_555 1_555
C21 B1 1_555 1_555
C22 C21 1_555 1_555
H14 C22 1_555 1_555
C23 C22 1_555 1_555
H15 C23 1_555 1_555
C24 C23 1_555 1_555
H16 C24 1_555 1_555
C25 C24 1_555 1_555
H17 C25 1_555 1_555
C26 C21 1_555 1_555
H18 C26 1_555 1_555
C27 B1 1_555 1_555
C28 C27 1_555 1_555
H19 C28 1_555 1_555
C29 C28 1_555 1_555
H20 C29 1_555 1_555
C30 C29 1_555 1_555
H21 C30 1_555 1_555
C31 C30 1_555 1_555
H22 C31 1_555 1_555
C32 C27 1_555 1_555
H23 C32 1_555 1_555
C33 B1 1_555 1_555
C34 C33 1_555 1_555
H24 C34 1_555 1_555
C35 C34 1_555 1_555
H25 C35 1_555 1_555
C36 C35 1_555 1_555
H26 C36 1_555 1_555
C37 C36 1_555 1_555
H27 C37 1_555 1_555
C38 C33 1_555 1_555
H28 C38 1_555 1_555
N1 C39 1_555 1_555
C39 H29 1_555 1_555
H30 C39 1_555 1_555
H31 C39 1_555 1_555
C40 N1 1_555 1_555
H32 C40 1_555 1_555
H33 C40 1_555 1_555
H34 C40 1_555 1_555
C41 N1 1_555 1_555
H35 C41 1_555 1_555
H36 C41 1_555 1_555
H37 C41 1_555 1_555
C42 N1 1_555 1_555
H38 C42 1_555 1_555
H39 C42 1_555 1_555
H40 C42 1_555 1_555
C2 C17 1_555 1_555
C6 C18 1_555 1_555
C7 C19 1_555 1_555
C10 C20 1_555 1_555
C14 C15 1_555 1_555
C15 C16 1_555 1_555
C17 C18 1_555 1_555
C19 C20 1_555 1_555
C25 C26 1_555 1_555
C31 C32 1_555 1_555
C37 C38 1_555 1_555

#END
