
#######################################################################
#
#                 Cambridge Crystallographic Data Centre
#                                CCDC 
#
#######################################################################
#
# If this CIF has been generated from an entry in the Cambridge 
# Structural Database, then it will include bibliographic, chemical, 
# crystal, experimental, refinement or atomic coordinate data resulting 
# from the CCDC's data processing and validation procedures.
#
#######################################################################

data_HIPTAE
_chemical_formula_moiety         'C18 H28 B10'
_chemical_name_systematic        
1,2-diphenyl-9-t-butyl-1,2-dicarba-closo-dodecaborane(9)
_symmetry_cell_setting           triclinic
_symmetry_space_group_name_H-M   'P -1'
_symmetry_Int_Tables_number      2
_space_group_name_Hall           '-P 1'
loop_
_symmetry_equiv_pos_site_id
_symmetry_equiv_pos_as_xyz
1 x,y,z
2 -x,-y,-z
_cell_length_a                   8.9801(3)
_cell_length_b                   10.7996(4)
_cell_length_c                   12.6811(4)
_cell_angle_alpha                112.3619(13)
_cell_angle_beta                 97.0307(13)
_cell_angle_gamma                106.7173(12)
_cell_volume                     1051.3
_exptl_crystal_colour            colorless
_exptl_crystal_description       block
_cell_formula_units_Z            2
loop_
_atom_site_label
_atom_site_type_symbol
_atom_site_fract_x
_atom_site_fract_y
_atom_site_fract_z
C1 C 0.7839(2) 0.9235(2) 0.23789(16)
C2 C 0.6336(2) 0.9934(2) 0.25766(16)
C3 C 0.7448(2) 0.7658(2) 0.20298(18)
C4 C 0.7398(3) 0.7118(3) 0.2857(2)
H1 H 0.7566 0.7728 0.3647
C5 C 0.7097(4) 0.5663(3) 0.2509(3)
H2 H 0.7046 0.5304 0.3069
C6 C 0.6876(3) 0.4763(3) 0.1366(3)
H3 H 0.6677 0.3793 0.1143
C7 C 0.6947(3) 0.5288(3) 0.0539(3)
H4 H 0.6809 0.4673 -0.0245
C8 C 0.7222(3) 0.6729(2) 0.0862(2)
H5 H 0.7255 0.7074 0.0292
C9 C 0.4650(2) 0.8958(2) 0.23975(18)
C10 C 0.3476(3) 0.8527(3) 0.1388(2)
H6 H 0.3738 0.8821 0.0812
C11 C 0.1914(3) 0.7662(3) 0.1224(2)
H7 H 0.1137 0.7372 0.0535
C12 C 0.1498(3) 0.7229(3) 0.2066(2)
H8 H 0.0446 0.6644 0.1950
C13 C 0.2647(3) 0.7668(3) 0.3078(2)
H9 H 0.2373 0.7384 0.3656
C14 C 0.4213(3) 0.8532(3) 0.3251(2)
H10 H 0.4980 0.8829 0.3947
C15 C 1.1930(3) 1.2902(3) 0.3051(2)
C16 C 1.3129(4) 1.2546(6) 0.3733(5)
H11 H 1.2950 1.2722 0.4499
H12 H 1.2986 1.1552 0.3310
H13 H 1.4206 1.3139 0.3820
C17 C 1.2313(5) 1.2595(8) 0.1907(4)
H14 H 1.2079 1.1582 0.1484
H15 H 1.1674 1.2889 0.1454
H16 H 1.3435 1.3113 0.2033
C18 C 1.2271(5) 1.4465(4) 0.3748(6)
H17 H 1.2008 1.4625 0.4488
H18 H 1.3393 1.5000 0.3891
H19 H 1.1632 1.4776 0.3312
B1 B 0.7831(3) 1.0337(2) 0.37799(19)
H20 H 0.7602 0.9954 0.4454
B2 B 0.9638(3) 1.0489(2) 0.3324(2)
H21 H 1.0593 1.0220 0.3710
B3 B 0.9163(3) 1.0109(2) 0.1805(2)
H22 H 0.9813 0.9595 0.1199
B4 B 0.7063(3) 0.9715(3) 0.1344(2)
H23 H 0.6337 0.8928 0.0444
B5 B 0.7135(3) 1.1665(3) 0.3655(2)
H24 H 0.6471 1.2163 0.4256
B6 B 0.9231(3) 1.2051(3) 0.4125(2)
H25 H 0.9933 1.2808 0.5038
B7 B 1.0099(3) 1.1941(3) 0.2902(2)
B8 B 0.8453(3) 1.1422(3) 0.1665(2)
H26 H 0.8644 1.1768 0.0965
B9 B 0.6664(3) 1.1282(3) 0.2138(2)
H27 H 0.5694 1.1534 0.1749
B10 B 0.8510(3) 1.2639(3) 0.3103(2)
H28 H 0.8745 1.3783 0.3346
loop_
_geom_bond_atom_site_label_1
_geom_bond_atom_site_label_2
_geom_bond_site_symmetry_1
_geom_bond_site_symmetry_2
C1 C2 1_555 1_555
C2 C9 1_555 1_555
C3 C1 1_555 1_555
C4 C3 1_555 1_555
H1 C4 1_555 1_555
C5 C4 1_555 1_555
H2 C5 1_555 1_555
C6 C5 1_555 1_555
H3 C6 1_555 1_555
C7 C6 1_555 1_555
H4 C7 1_555 1_555
C8 C3 1_555 1_555
H5 C8 1_555 1_555
C9 C10 1_555 1_555
C10 H6 1_555 1_555
C11 C10 1_555 1_555
H7 C11 1_555 1_555
C12 C11 1_555 1_555
H8 C12 1_555 1_555
C13 C12 1_555 1_555
H9 C13 1_555 1_555
C14 C9 1_555 1_555
H10 C14 1_555 1_555
C15 C16 1_555 1_555
C16 H11 1_555 1_555
H12 C16 1_555 1_555
H13 C16 1_555 1_555
C17 C15 1_555 1_555
H14 C17 1_555 1_555
H15 C17 1_555 1_555
H16 C17 1_555 1_555
C18 C15 1_555 1_555
H17 C18 1_555 1_555
H18 C18 1_555 1_555
H19 C18 1_555 1_555
B1 C1 1_555 1_555
H20 B1 1_555 1_555
B2 C1 1_555 1_555
H21 B2 1_555 1_555
B3 C1 1_555 1_555
H22 B3 1_555 1_555
B4 C1 1_555 1_555
H23 B4 1_555 1_555
B5 C2 1_555 1_555
H24 B5 1_555 1_555
B6 B1 1_555 1_555
H25 B6 1_555 1_555
B7 C15 1_555 1_555
B8 B3 1_555 1_555
H26 B8 1_555 1_555
B9 C2 1_555 1_555
H27 B9 1_555 1_555
B10 B5 1_555 1_555
H28 B10 1_555 1_555
C2 B1 1_555 1_555
C2 B4 1_555 1_555
C7 C8 1_555 1_555
C13 C14 1_555 1_555
B1 B2 1_555 1_555
B1 B5 1_555 1_555
B2 B3 1_555 1_555
B2 B6 1_555 1_555
B2 B7 1_555 1_555
B3 B4 1_555 1_555
B3 B7 1_555 1_555
B4 B8 1_555 1_555
B4 B9 1_555 1_555
B5 B6 1_555 1_555
B5 B9 1_555 1_555
B6 B7 1_555 1_555
B6 B10 1_555 1_555
B7 B8 1_555 1_555
B7 B10 1_555 1_555
B8 B9 1_555 1_555
B8 B10 1_555 1_555
B9 B10 1_555 1_555

#END
