
#######################################################################
#
#                 Cambridge Crystallographic Data Centre
#                                CCDC 
#
#######################################################################
#
# If this CIF has been generated from an entry in the Cambridge 
# Structural Database, then it will include bibliographic, chemical, 
# crystal, experimental, refinement or atomic coordinate data resulting 
# from the CCDC's data processing and validation procedures.
#
#######################################################################

data_HIPVEK
_chemical_formula_moiety         'C17 H30 B10'
_chemical_name_systematic        
1-(2-phenylethynyl)-2-methyl-3,6-di-isopropyl-1,2-dicarba-closo-dodecaborane(8)
_symmetry_cell_setting           monoclinic
_symmetry_space_group_name_H-M   'P 21/c'
_symmetry_Int_Tables_number      14
_space_group_name_Hall           '-P 2ybc'
loop_
_symmetry_equiv_pos_site_id
_symmetry_equiv_pos_as_xyz
1 x,y,z
2 -x,1/2+y,1/2-z
3 -x,-y,-z
4 x,1/2-y,1/2+z
_cell_length_a                   10.2270(5)
_cell_length_b                   7.9359(3)
_cell_length_c                   26.7561(13)
_cell_angle_alpha                90
_cell_angle_beta                 91.4085(16)
_cell_angle_gamma                90
_cell_volume                     2170.88
_exptl_crystal_colour            colorless
_exptl_crystal_description       block
_cell_formula_units_Z            4
loop_
_atom_site_label
_atom_site_type_symbol
_atom_site_fract_x
_atom_site_fract_y
_atom_site_fract_z
C1 C 0.1370(2) 0.8212(3) 0.17573(9)
C2 C 0.2179(2) 0.8446(3) 0.12308(8)
C3 C 0.1423(3) 0.6523(3) 0.20173(12)
H1 H 0.0916 0.6569 0.2314
H2 H 0.1073 0.5672 0.1797
H3 H 0.2315 0.6256 0.2106
C4 C 0.2889(2) 0.7015(3) 0.10515(8)
C5 C 0.3492(2) 0.5845(3) 0.09032(8)
C6 C 0.4264(2) 0.4486(3) 0.07153(8)
C7 C 0.5395(2) 0.4005(3) 0.09663(11)
H4 H 0.5637 0.4515 0.1267
C8 C 0.6168(3) 0.2752(4) 0.07656(17)
H5 H 0.6931 0.2416 0.0933
C9 C 0.5809(4) 0.2005(4) 0.03192(18)
H6 H 0.6340 0.1183 0.0182
C10 C 0.4687(4) 0.2463(4) 0.00787(13)
H7 H 0.4441 0.1938 -0.0220
C11 C 0.3905(3) 0.3699(3) 0.02723(10)
H8 H 0.3134 0.4006 0.0105
C12 C -0.0215(3) 0.6686(4) 0.09691(18)
H9 H 0.0354 0.5729 0.1055
C13 C -0.1538(4) 0.6340(6) 0.1196(2)
H10 H -0.1442 0.6298 0.1553
H11 H -0.2137 0.7223 0.1102
H12 H -0.1869 0.5281 0.1074
C14 C -0.0333(5) 0.6761(7) 0.0401(2)
H13 H 0.0511 0.6980 0.0266
H14 H -0.0658 0.5704 0.0276
H15 H -0.0926 0.7647 0.0304
C15 C 0.4108(3) 0.8662(4) 0.20350(11)
H16 H 0.4060 0.7431 0.2012
C16 C 0.4183(4) 0.9112(5) 0.25900(13)
H17 H 0.3394 0.8758 0.2747
H18 H 0.4918 0.8551 0.2746
H19 H 0.4283 1.0308 0.2627
C17 C 0.5356(3) 0.9212(5) 0.17758(16)
H20 H 0.5292 0.8920 0.1428
H21 H 0.5461 1.0409 0.1809
H22 H 0.6096 0.8651 0.1928
B1 B 0.0466(3) 0.8316(4) 0.11882(13)
B2 B 0.0001(3) 0.9404(4) 0.17393(13)
H23 H -0.0901 0.9052 0.1929
B3 B 0.1395(3) 1.0047(4) 0.20810(12)
H24 H 0.1397 1.0118 0.2492
B4 B 0.2831(3) 0.9390(3) 0.17711(10)
B5 B -0.0010(3) 1.0452(4) 0.11562(13)
H25 H -0.0924 1.0808 0.0958
B6 B 0.0531(3) 1.1504(4) 0.17028(13)
H26 H -0.0032 1.2545 0.1863
B7 B 0.2261(3) 1.1493(3) 0.17168(13)
H27 H 0.2832 1.2531 0.1886
B8 B 0.2772(3) 1.0433(3) 0.11798(11)
H28 H 0.3685 1.0754 0.0992
B9 B 0.1387(3) 0.9794(4) 0.08350(11)
H29 H 0.1406 0.9698 0.0425
B10 B 0.1389(3) 1.1747(4) 0.11442(12)
H30 H 0.1390 1.2947 0.0939
loop_
_geom_bond_atom_site_label_1
_geom_bond_atom_site_label_2
_geom_bond_site_symmetry_1
_geom_bond_site_symmetry_2
C1 C2 1_555 1_555
C2 C4 1_555 1_555
C3 C1 1_555 1_555
H1 C3 1_555 1_555
H2 C3 1_555 1_555
H3 C3 1_555 1_555
C4 C5 1_555 1_555
C5 C6 1_555 1_555
C6 C7 1_555 1_555
C7 H4 1_555 1_555
C8 C7 1_555 1_555
H5 C8 1_555 1_555
C9 C8 1_555 1_555
H6 C9 1_555 1_555
C10 C9 1_555 1_555
H7 C10 1_555 1_555
C11 C6 1_555 1_555
H8 C11 1_555 1_555
C12 H9 1_555 1_555
C13 C12 1_555 1_555
H10 C13 1_555 1_555
H11 C13 1_555 1_555
H12 C13 1_555 1_555
C14 C12 1_555 1_555
H13 C14 1_555 1_555
H14 C14 1_555 1_555
H15 C14 1_555 1_555
C15 H16 1_555 1_555
C16 C15 1_555 1_555
H17 C16 1_555 1_555
H18 C16 1_555 1_555
H19 C16 1_555 1_555
C17 C15 1_555 1_555
H20 C17 1_555 1_555
H21 C17 1_555 1_555
H22 C17 1_555 1_555
B1 C1 1_555 1_555
B2 C1 1_555 1_555
H23 B2 1_555 1_555
B3 C1 1_555 1_555
H24 B3 1_555 1_555
B4 C1 1_555 1_555
B5 B1 1_555 1_555
H25 B5 1_555 1_555
B6 B2 1_555 1_555
H26 B6 1_555 1_555
B7 B3 1_555 1_555
H27 B7 1_555 1_555
B8 C2 1_555 1_555
H28 B8 1_555 1_555
B9 C2 1_555 1_555
H29 B9 1_555 1_555
B10 B5 1_555 1_555
H30 B10 1_555 1_555
C2 B1 1_555 1_555
C2 B4 1_555 1_555
C10 C11 1_555 1_555
C12 B1 1_555 1_555
C15 B4 1_555 1_555
B1 B2 1_555 1_555
B1 B9 1_555 1_555
B2 B3 1_555 1_555
B2 B5 1_555 1_555
B3 B4 1_555 1_555
B3 B6 1_555 1_555
B4 B7 1_555 1_555
B4 B8 1_555 1_555
B5 B6 1_555 1_555
B5 B9 1_555 1_555
B6 B7 1_555 1_555
B6 B10 1_555 1_555
B7 B8 1_555 1_555
B7 B10 1_555 1_555
B8 B9 1_555 1_555
B8 B10 1_555 1_555
B9 B10 1_555 1_555

#END
