
#######################################################################
#
#                 Cambridge Crystallographic Data Centre
#                                CCDC 
#
#######################################################################
#
# If this CIF has been generated from an entry in the Cambridge 
# Structural Database, then it will include bibliographic, chemical, 
# crystal, experimental, refinement or atomic coordinate data resulting 
# from the CCDC's data processing and validation procedures.
#
#######################################################################

data_HIQRAD
_chemical_formula_moiety         'C41 H36 P2'
_chemical_name_systematic        
(6,7,8,9-tetrahydro-5H-dibenzo[a,c][9]annulene-1,13-diyl)bis(diphenylphosphine)
_symmetry_cell_setting           monoclinic
_symmetry_space_group_name_H-M   'C 2'
_symmetry_Int_Tables_number      5
_space_group_name_Hall           'C 2y'
loop_
_symmetry_equiv_pos_site_id
_symmetry_equiv_pos_as_xyz
1 x,y,z
2 -x,y,-z
3 1/2+x,1/2+y,z
4 1/2-x,1/2+y,-z
_cell_length_a                   20.4128(4)
_cell_length_b                   10.4888(2)
_cell_length_c                   15.8277(3)
_cell_angle_alpha                90
_cell_angle_beta                 99.378(2)
_cell_angle_gamma                90
_cell_volume                     3343.51
_exptl_crystal_colour            white
_exptl_crystal_description       block
_cell_formula_units_Z            4
loop_
_atom_site_label
_atom_site_type_symbol
_atom_site_fract_x
_atom_site_fract_y
_atom_site_fract_z
P1 P 0.36411(3) 0.27781(6) 0.30471(4)
P2 P 0.26076(3) 0.54647(7) 0.20926(4)
C1 C 0.44642(13) 0.2151(3) 0.29608(16)
C2 C 0.39247(13) 0.4421(3) 0.44926(17)
H1 H 0.3845 0.3721 0.4822
C3 C 0.25780(12) 0.7215(3) 0.20828(16)
C4 C 0.38720(11) 0.4291(2) 0.36084(15)
C5 C 0.19440(13) 0.5027(3) 0.12094(18)
C6 C 0.39706(12) 0.5190(3) 0.21703(17)
C7 C 0.39985(11) 0.5350(3) 0.31169(15)
C8 C 0.56346(15) 0.1873(4) 0.3451(2)
H2 H 0.6004 0.1981 0.3873
C9 C 0.33584(13) 0.5177(3) 0.16158(16)
C10 C 0.33724(15) 0.1829(3) 0.39001(19)
C11 C 0.50204(15) 0.2305(3) 0.35818(18)
H3 H 0.4979 0.2705 0.4095
C12 C 0.40945(14) 0.5580(3) 0.48860(17)
H4 H 0.4132 0.5655 0.5477
C13 C 0.45382(15) 0.1544(3) 0.22018(19)
H5 H 0.4170 0.1423 0.1779
C14 C 0.45659(14) 0.5033(3) 0.18487(19)
C15 C 0.33428(16) 0.4940(4) 0.07499(19)
H6 H 0.2939 0.4915 0.0380
C16 C 0.42063(14) 0.6607(3) 0.4410(2)
H7 H 0.4313 0.7383 0.4682
C17 C 0.56977(16) 0.1281(4) 0.2690(2)
H8 H 0.6111 0.0991 0.2598
C18 C 0.43153(17) 0.7695(3) 0.3037(2)
H9 H 0.4123 0.8431 0.3276
H10 H 0.4100 0.7609 0.2447
C19 C 0.56587(17) 0.6243(5) 0.2254(3)
H11 H 0.6054 0.6254 0.2687
H12 H 0.5802 0.6117 0.1705
C20 C 0.15193(15) 0.5894(5) 0.07379(19)
H13 H 0.1584 0.6762 0.0837
C21 C 0.41657(12) 0.6529(3) 0.35221(19)
C22 C 0.52367(15) 0.5090(4) 0.2424(2)
H14 H 0.5481 0.4317 0.2346
H15 H 0.5168 0.5115 0.3016
C23 C 0.23612(15) 0.7810(4) 0.27685(19)
H16 H 0.2239 0.7326 0.3210
C24 C 0.3690(2) 0.0777(3) 0.4281(2)
H17 H 0.4092 0.0516 0.4134
C25 C 0.45294(17) 0.4778(5) 0.0981(2)
H18 H 0.4919 0.4630 0.0762
C26 C 0.39313(19) 0.4740(5) 0.0440(2)
H19 H 0.3921 0.4579 -0.0140
C27 C 0.50648(19) 0.7953(4) 0.3048(3)
H20 H 0.5145 0.8859 0.3132
H21 H 0.5315 0.7513 0.3535
C28 C 0.51557(18) 0.1120(4) 0.2072(2)
H22 H 0.5201 0.0722 0.1559
C29 C 0.10012(18) 0.5487(7) 0.0122(2)
H23 H 0.0719 0.6082 -0.0183
C30 C 0.1835(2) 0.3736(5) 0.1056(3)
H24 H 0.2109 0.3140 0.1374
C31 C 0.1317(3) 0.3325(6) 0.0425(3)
H25 H 0.1248 0.2460 0.0315
C32 C 0.27745(16) 0.7969(4) 0.1446(2)
H26 H 0.2930 0.7584 0.0988
C33 C 0.0904(2) 0.4233(7) -0.0038(3)
H27 H 0.0559 0.3969 -0.0460
C34 C 0.2824(3) 0.0483(5) 0.5115(3)
H28 H 0.2641 0.0030 0.5526
C35 C 0.2510(3) 0.1501(5) 0.4753(3)
H29 H 0.2114 0.1763 0.4918
C36 C 0.27679(19) 0.2175(4) 0.4131(3)
H30 H 0.2535 0.2866 0.3864
C37 C 0.5330(2) 0.7542(5) 0.2244(3)
H31 H 0.4964 0.7559 0.1769
H32 H 0.5650 0.8175 0.2127
C38 C 0.2327(2) 0.9139(5) 0.2794(3)
H33 H 0.2174 0.9535 0.3251
C39 C 0.2513(2) 0.9860(5) 0.2162(3)
H34 H 0.2485 1.0744 0.2186
C40 C 0.2742(2) 0.9288(4) 0.1487(3)
H35 H 0.2874 0.9783 0.1058
C41 C 0.3408(3) 0.0094(4) 0.4894(3)
H36 H 0.3621 -0.0625 0.5150
loop_
_geom_bond_atom_site_label_1
_geom_bond_atom_site_label_2
_geom_bond_site_symmetry_1
_geom_bond_site_symmetry_2
P1 C1 1_555 1_555
P2 C3 1_555 1_555
C1 C11 1_555 1_555
C2 H1 1_555 1_555
C3 C23 1_555 1_555
C4 P1 1_555 1_555
C5 P2 1_555 1_555
C6 C7 1_555 1_555
C7 C4 1_555 1_555
C8 H2 1_555 1_555
C9 P2 1_555 1_555
C10 P1 1_555 1_555
C11 C8 1_555 1_555
H3 C11 1_555 1_555
C12 C2 1_555 1_555
H4 C12 1_555 1_555
C13 C1 1_555 1_555
H5 C13 1_555 1_555
C14 C6 1_555 1_555
C15 C9 1_555 1_555
H6 C15 1_555 1_555
C16 C12 1_555 1_555
H7 C16 1_555 1_555
C17 C8 1_555 1_555
H8 C17 1_555 1_555
C18 H9 1_555 1_555
H10 C18 1_555 1_555
C19 H11 1_555 1_555
H12 C19 1_555 1_555
C20 C5 1_555 1_555
H13 C20 1_555 1_555
C21 C7 1_555 1_555
C22 C14 1_555 1_555
H14 C22 1_555 1_555
H15 C22 1_555 1_555
C23 H16 1_555 1_555
C24 C10 1_555 1_555
H17 C24 1_555 1_555
C25 C14 1_555 1_555
H18 C25 1_555 1_555
C26 C15 1_555 1_555
H19 C26 1_555 1_555
C27 C18 1_555 1_555
H20 C27 1_555 1_555
H21 C27 1_555 1_555
C28 C13 1_555 1_555
H22 C28 1_555 1_555
C29 C20 1_555 1_555
H23 C29 1_555 1_555
C30 C5 1_555 1_555
H24 C30 1_555 1_555
C31 C30 1_555 1_555
H25 C31 1_555 1_555
C32 C3 1_555 1_555
H26 C32 1_555 1_555
C33 C29 1_555 1_555
H27 C33 1_555 1_555
C34 H28 1_555 1_555
C35 C34 1_555 1_555
H29 C35 1_555 1_555
C36 C10 1_555 1_555
H30 C36 1_555 1_555
C37 C19 1_555 1_555
H31 C37 1_555 1_555
H32 C37 1_555 1_555
C38 C23 1_555 1_555
H33 C38 1_555 1_555
C39 C38 1_555 1_555
H34 C39 1_555 1_555
C40 C32 1_555 1_555
H35 C40 1_555 1_555
C41 C24 1_555 1_555
H36 C41 1_555 1_555
C2 C4 1_555 1_555
C6 C9 1_555 1_555
C16 C21 1_555 1_555
C17 C28 1_555 1_555
C18 C21 1_555 1_555
C19 C22 1_555 1_555
C25 C26 1_555 1_555
C27 C37 1_555 1_555
C31 C33 1_555 1_555
C34 C41 1_555 1_555
C35 C36 1_555 1_555
C39 C40 1_555 1_555

#END
