
#######################################################################
#
#                 Cambridge Crystallographic Data Centre
#                                CCDC 
#
#######################################################################
#
# If this CIF has been generated from an entry in the Cambridge 
# Structural Database, then it will include bibliographic, chemical, 
# crystal, experimental, refinement or atomic coordinate data resulting 
# from the CCDC's data processing and validation procedures.
#
#######################################################################

data_HIQXEN
_chemical_name_common            'Triamterene furosemide'
_chemical_formula_moiety         'C12 H10 Cl1 N2 O5 S1 1-,C12 H12 N7 1+'
_chemical_name_systematic        
'2,4,7-triamino-6-phenylpteridin-1-ium 4-chloro-2-{[(furan-2-yl)methyl]amino}-5-sulfamoylbenzoate'
_symmetry_cell_setting           triclinic
_symmetry_space_group_name_H-M   'P -1'
_symmetry_Int_Tables_number      2
_space_group_name_Hall           '-P 1'
loop_
_symmetry_equiv_pos_site_id
_symmetry_equiv_pos_as_xyz
1 x,y,z
2 -x,-y,-z
_cell_length_a                   7.522(5)
_cell_length_b                   8.110(5)
_cell_length_c                   20.892(14)
_cell_angle_alpha                92.574(16)
_cell_angle_beta                 98.836(17)
_cell_angle_gamma                103.844(16)
_cell_volume                     1218.34
_exptl_crystal_colour            'light yellow'
_exptl_crystal_description       plate
_cell_formula_units_Z            2
loop_
_atom_site_label
_atom_site_type_symbol
_atom_site_fract_x
_atom_site_fract_y
_atom_site_fract_z
S1 S -0.04814(12) -0.19449(11) 0.23218(5)
Cl1 Cl -0.03715(16) -0.12973(12) 0.08126(5)
O1 O 0.2495(3) 0.4149(3) 0.34543(12)
O2 O 0.3799(3) 0.5833(3) 0.27597(12)
O3 O -0.0120(4) -0.1773(3) 0.30149(12)
O4 O -0.2346(3) -0.2580(3) 0.19946(14)
N1 N 0.3547(4) 0.4664(4) 0.15553(15)
H1 H 0.3732 0.5583 0.1814
N2 N 0.0669(5) -0.3236(4) 0.21087(19)
H2 H 0.069(6) -0.328(5) 0.168(2)
H3 H 0.154(6) -0.338(5) 0.235(2)
C1 C 0.2165(4) 0.3009(4) 0.23670(16)
C2 C 0.2845(4) 0.4409(4) 0.28976(17)
C3 C 0.1227(4) 0.1437(4) 0.25234(17)
H4 H 0.1087 0.1301 0.2959
C4 C 0.0479(4) 0.0048(4) 0.20669(17)
C5 C 0.2466(5) 0.3202(4) 0.17199(16)
C6 C 0.1598(5) 0.1835(4) 0.12512(18)
H5 H 0.1685 0.1968 0.0812
C7 C 0.0625(5) 0.0311(4) 0.14234(17)
C8 C 0.4423(5) 0.4802(5) 0.09744(17)
H6 H 0.5761 0.5290 0.1106
H7 H 0.4247 0.3657 0.0764
C9 C 0.3687(5) 0.5849(5) 0.05053(17)
C10 C 0.2664(11) 0.7627(10) -0.0141(3)
H8 H 0.2544 0.8649 -0.0317
C11 C 0.1714(11) 0.6118(10) -0.0347(4)
H9 H 0.0744 0.5856 -0.0706
C12 C 0.3915(13) 0.7438(9) 0.0399(4)
H10 H 0.4802 0.8342 0.0652
O5 O 0.2304(9) 0.4901(7) 0.0033(3)
N3 N 0.4675(4) 0.6687(4) 0.44060(14)
H14 H 0.3869 0.5965 0.4119
N4 N 0.5257(4) 0.8572(3) 0.60352(14)
N5 N 0.2573(4) 0.6313(3) 0.51227(14)
N6 N 0.6728(4) 0.7027(4) 0.36940(14)
H15 H 0.7801 0.7482 0.3587
H16 H 0.5885 0.6300 0.3420
N7 N 0.7686(4) 0.8550(4) 0.46776(14)
N8 N 0.0529(4) 0.6110(4) 0.58332(15)
H17 H -0.0317 0.5466 0.5534
H18 H 0.0256 0.6350 0.6211
N9 N 0.8582(4) 1.0073(4) 0.56643(15)
H19 H 0.9652 1.0525 0.5555
H20 H 0.8355 1.0356 0.6045
C16 C 0.4235(4) 0.7070(4) 0.49948(16)
C17 C 0.3523(4) 0.8095(4) 0.68865(17)
C18 C 0.5547(4) 0.8224(4) 0.54304(16)
C19 C 0.7310(5) 0.8964(4) 0.52554(17)
C20 C 0.4472(5) 0.9645(4) 0.72195(17)
H21 H 0.5048 1.0534 0.6990
C21 C 0.4586(5) 0.9904(4) 0.78729(18)
H22 H 0.5252 1.0960 0.8093
C22 C 0.6380(5) 0.7440(4) 0.42690(17)
C23 C 0.2238(4) 0.6727(4) 0.57132(17)
C24 C 0.3666(4) 0.7812(4) 0.61943(16)
C25 C 0.2653(5) 0.6800(5) 0.72314(18)
H23 H 0.1990 0.5742 0.7013
C26 C 0.3724(5) 0.8615(5) 0.82140(18)
H24 H 0.3794 0.8795 0.8666
C27 C 0.2762(5) 0.7071(5) 0.78923(19)
H25 H 0.2176 0.6194 0.8125
O6? O 0.2139(11) 0.5345(9) -0.0006(4)
C13? C 0.1942(15) 0.6812(14) -0.0329(5)
H11? H 0.1028 0.6844 -0.0686
C14? C 0.3369(16) 0.8222(9) -0.0016(6)
H12? H 0.3565 0.9352 -0.0130
C15? C 0.4447(12) 0.7627(5) 0.0499(5)
H13? H 0.5483 0.8293 0.0786
loop_
_geom_bond_atom_site_label_1
_geom_bond_atom_site_label_2
_geom_bond_site_symmetry_1
_geom_bond_site_symmetry_2
S1 O3 1_555 1_555
Cl1 C7 1_555 1_555
O1 C2 1_555 1_555
O2 C2 1_555 1_555
O4 S1 1_555 1_555
N1 H1 1_555 1_555
N2 S1 1_555 1_555
H2 N2 1_555 1_555
H3 N2 1_555 1_555
C1 C2 1_555 1_555
C3 C1 1_555 1_555
H4 C3 1_555 1_555
C4 S1 1_555 1_555
C5 N1 1_555 1_555
C6 C5 1_555 1_555
H5 C6 1_555 1_555
C7 C4 1_555 1_555
C8 N1 1_555 1_555
H6 C8 1_555 1_555
H7 C8 1_555 1_555
C9 C8 1_555 1_555
C10 H8 1_555 1_555
C11 C10 1_555 1_555
H9 C11 1_555 1_555
C12 C9 1_555 1_555
H10 C12 1_555 1_555
O5 C9 1_555 1_555
N3 H14 1_555 1_555
N4 C18 1_555 1_555
N5 C16 1_555 1_555
N6 H15 1_555 1_555
H16 N6 1_555 1_555
N7 C19 1_555 1_555
N8 H17 1_555 1_555
H18 N8 1_555 1_555
N9 H19 1_555 1_555
H20 N9 1_555 1_555
C16 N3 1_555 1_555
C17 C20 1_555 1_555
C18 C16 1_555 1_555
C19 N9 1_555 1_555
C20 H21 1_555 1_555
C21 C20 1_555 1_555
H22 C21 1_555 1_555
C22 N3 1_555 1_555
C23 N5 1_555 1_555
C24 N4 1_555 1_555
C25 C17 1_555 1_555
H23 C25 1_555 1_555
C26 C21 1_555 1_555
H24 C26 1_555 1_555
C27 C25 1_555 1_555
H25 C27 1_555 1_555
C1 C5 1_555 1_555
C3 C4 1_555 1_555
C6 C7 1_555 1_555
C10 C12 1_555 1_555
C11 O5 1_555 1_555
N6 C22 1_555 1_555
N7 C22 1_555 1_555
N8 C23 1_555 1_555
C17 C24 1_555 1_555
C18 C19 1_555 1_555
C23 C24 1_555 1_555
C26 C27 1_555 1_555

#END
