
#######################################################################
#
#                 Cambridge Crystallographic Data Centre
#                                CCDC 
#
#######################################################################
#
# If this CIF has been generated from an entry in the Cambridge 
# Structural Database, then it will include bibliographic, chemical, 
# crystal, experimental, refinement or atomic coordinate data resulting 
# from the CCDC's data processing and validation procedures.
#
#######################################################################

data_HIRGEV
_chemical_name_common            '(3-(Propen-3-amido)phenyl)boronic acid'
_chemical_formula_moiety         'C9 H10 B1 N1 O3'
_chemical_name_systematic        '(3-(acryloylamino)phenyl)boronic acid'
_symmetry_cell_setting           orthorhombic
_symmetry_space_group_name_H-M   'F d d 2'
_symmetry_Int_Tables_number      43
_space_group_name_Hall           'F 2 -2d'
loop_
_symmetry_equiv_pos_site_id
_symmetry_equiv_pos_as_xyz
1 x,y,z
2 -x,-y,z
3 1/4+x,1/4-y,1/4+z
4 1/4-x,1/4+y,1/4+z
5 x,1/2+y,1/2+z
6 -x,1/2-y,1/2+z
7 1/4+x,3/4-y,3/4+z
8 1/4-x,3/4+y,3/4+z
9 1/2+x,y,1/2+z
10 1/2-x,-y,1/2+z
11 3/4+x,1/4-y,3/4+z
12 3/4-x,1/4+y,3/4+z
13 1/2+x,1/2+y,z
14 1/2-x,1/2-y,z
15 3/4+x,3/4-y,1/4+z
16 3/4-x,3/4+y,1/4+z
_cell_length_a                   18.626(4)
_cell_length_b                   42.112(8)
_cell_length_c                   5.0536(10)
_cell_angle_alpha                90
_cell_angle_beta                 90
_cell_angle_gamma                90
_cell_volume                     3963.93
_exptl_crystal_colour            colorless
_exptl_crystal_description       needle
_cell_formula_units_Z            16
_exptl_crystal_recrystallization_method water
loop_
_atom_site_label
_atom_site_type_symbol
_atom_site_fract_x
_atom_site_fract_y
_atom_site_fract_z
O1 O 0.34232(7) 0.11569(4) 1.1454(4)
O2 O 0.43076(12) 0.01158(6) 0.3738(4)
H1 H 0.466(3) 0.0024(17) 0.394(16)
O3 O 0.43531(9) 0.01566(4) 0.8312(3)
H3 H 0.414(4) 0.0220(15) 0.944(17)
N1 N 0.23312(9) 0.10547(4) 0.9628(3)
H5 H 0.1859(16) 0.1131(6) 0.949(6)
B1 B 0.39944(13) 0.02160(6) 0.6027(5)
C1 C 0.24915(10) 0.08023(4) 0.7901(4)
C2 C 0.19502(12) 0.07111(5) 0.6107(5)
H6 H 0.1493(13) 0.0830(5) 0.624(6)
C3 C 0.20685(14) 0.04743(6) 0.4318(5)
H7 H 0.1704(15) 0.0419(6) 0.324(7)
C4 C 0.27236(13) 0.03202(5) 0.4223(4)
H8 H 0.2783(13) 0.0162(6) 0.288(6)
C5 C 0.32638(10) 0.03966(4) 0.6037(4)
C6 C 0.31372(10) 0.06372(5) 0.7880(4)
H9 H 0.3479(12) 0.0696(5) 0.914(5)
C7 C 0.27804(10) 0.12142(5) 1.1262(4)
C8 C 0.24262(14) 0.14649(6) 1.2856(6)
H10 H 0.1923(18) 0.1488(7) 1.258(8)
C9 C 0.2770(2) 0.16236(8) 1.4653(8)
H11 H 0.2548(17) 0.1772(8) 1.613(9)
H12 H 0.322(2) 0.1570(8) 1.511(9)
H2? H 0.413(4) 0.0131(15) 0.237(17)
H4? H 0.478(3) 0.0072(14) 0.827(14)
loop_
_geom_bond_atom_site_label_1
_geom_bond_atom_site_label_2
_geom_bond_site_symmetry_1
_geom_bond_site_symmetry_2
O1 C7 1_555 1_555
O2 H1 1_555 1_555
O3 H3 1_555 1_555
N1 H5 1_555 1_555
B1 O2 1_555 1_555
C1 N1 1_555 1_555
C2 C1 1_555 1_555
H6 C2 1_555 1_555
C3 C2 1_555 1_555
H7 C3 1_555 1_555
C4 C3 1_555 1_555
H8 C4 1_555 1_555
C5 B1 1_555 1_555
C6 C1 1_555 1_555
H9 C6 1_555 1_555
C7 N1 1_555 1_555
C8 C7 1_555 1_555
H10 C8 1_555 1_555
C9 C8 1_555 1_555
H11 C9 1_555 1_555
H12 C9 1_555 1_555
O3 B1 1_555 1_555
C4 C5 1_555 1_555
C5 C6 1_555 1_555

#END
