
#######################################################################
#
#                 Cambridge Crystallographic Data Centre
#                                CCDC 
#
#######################################################################
#
# If this CIF has been generated from an entry in the Cambridge 
# Structural Database, then it will include bibliographic, chemical, 
# crystal, experimental, refinement or atomic coordinate data resulting 
# from the CCDC's data processing and validation procedures.
#
#######################################################################

data_HIRPAB
_chemical_formula_moiety         'C17 H12 I2 N2 O2'
_chemical_name_systematic        
1-(4-Iodophenyl)-3-((4-iodophenyl)(methyl)amino)-1H-pyrrole-2,5-dione
_symmetry_cell_setting           monoclinic
_symmetry_space_group_name_H-M   'C 2'
_symmetry_Int_Tables_number      5
_space_group_name_Hall           'C 2y'
loop_
_symmetry_equiv_pos_site_id
_symmetry_equiv_pos_as_xyz
1 x,y,z
2 -x,y,-z
3 1/2+x,1/2+y,z
4 1/2-x,1/2+y,-z
_cell_length_a                   25.385(4)
_cell_length_b                   4.1207(6)
_cell_length_c                   15.706(2)
_cell_angle_alpha                90
_cell_angle_beta                 98.230(4)
_cell_angle_gamma                90
_cell_volume                     1625.99
_exptl_crystal_colour            yellow
_exptl_crystal_description       needle
_cell_formula_units_Z            4
loop_
_atom_site_label
_atom_site_type_symbol
_atom_site_fract_x
_atom_site_fract_y
_atom_site_fract_z
C1 C 0.52481(19) 0.3628(11) 0.2481(3)
C2 C 0.57201(19) 0.5371(13) 0.2498(3)
H1 H 0.5815 0.6228 0.1994
C3 C 0.6048(2) 0.5811(13) 0.3283(3)
H2 H 0.6364 0.6972 0.3308
C4 C 0.58985(19) 0.4512(13) 0.4020(3)
C5 C 0.54221(16) 0.286(2) 0.4001(3)
H3 H 0.5322 0.2053 0.4507
C6 C 0.50940(17) 0.240(2) 0.3222(3)
H4 H 0.4774 0.1283 0.3202
C7 C 0.71302(19) 0.5325(12) 0.7668(3)
C8 C 0.76361(19) 0.6180(12) 0.7488(3)
H5 H 0.7673 0.7224 0.6975
C9 C 0.8086(2) 0.5463(12) 0.8082(3)
H6 H 0.8423 0.6029 0.7963
C10 C 0.80314(19) 0.3910(12) 0.8847(3)
C11 C 0.75258(18) 0.305(2) 0.9026(3)
H7 H 0.7489 0.2001 0.9538
C12 C 0.7082(2) 0.3769(12) 0.8441(3)
H8 H 0.6746 0.3208 0.8565
C13 C 0.67514(16) 0.295(2) 0.4938(3)
C14 C 0.69715(18) 0.3355(11) 0.5838(3)
H9 H 0.7296 0.2525 0.6097
C15 C 0.61555(19) 0.6030(13) 0.5572(3)
C16 C 0.62224(15) 0.763(3) 0.7420(2)
H10 H 0.6162 0.9746 0.7172
H11 H 0.6306 0.7817 0.8034
H12 H 0.5908 0.6329 0.728
I1 I 0.478452(11) 0.26610(10) 0.128465(16)
I2 I 0.870075(11) 0.27635(13) 0.974289(16)
N1 N 0.66682(15) 0.6078(10) 0.7076(2)
N2 N 0.62590(15) 0.4683(10) 0.4816(2)
O1 O 0.57709(11) 0.7633(18) 0.56768(16)
O2 O 0.69256(13) 0.1542(10) 0.4368(2)
C17 C 0.66325(18) 0.5127(13) 0.6243(3)
loop_
_geom_bond_atom_site_label_1
_geom_bond_atom_site_label_2
_geom_bond_site_symmetry_1
_geom_bond_site_symmetry_2
C1 C2 1_555 1_555
C2 H1 1_555 1_555
C3 C2 1_555 1_555
H2 C3 1_555 1_555
C4 C3 1_555 1_555
C5 C4 1_555 1_555
H3 C5 1_555 1_555
C6 C1 1_555 1_555
H4 C6 1_555 1_555
C7 C8 1_555 1_555
C8 H5 1_555 1_555
C9 C8 1_555 1_555
H6 C9 1_555 1_555
C10 C9 1_555 1_555
C11 C10 1_555 1_555
H7 C11 1_555 1_555
C12 C7 1_555 1_555
H8 C12 1_555 1_555
C13 C14 1_555 1_555
C14 H9 1_555 1_555
C15 N2 1_555 1_555
C16 H10 1_555 1_555
H11 C16 1_555 1_555
H12 C16 1_555 1_555
I1 C1 1_555 1_555
I2 C10 1_555 1_555
N1 C7 1_555 1_555
N2 C4 1_555 1_555
O1 C15 1_555 1_555
O2 C13 1_555 1_555
C17 C14 1_555 1_555
C5 C6 1_555 1_555
C11 C12 1_555 1_555
C13 N2 1_555 1_555
C15 C17 1_555 1_555
C16 N1 1_555 1_555
N1 C17 1_555 1_555

#END
