
#######################################################################
#
#                 Cambridge Crystallographic Data Centre
#                                CCDC 
#
#######################################################################
#
# If this CIF has been generated from an entry in the Cambridge 
# Structural Database, then it will include bibliographic, chemical, 
# crystal, experimental, refinement or atomic coordinate data resulting 
# from the CCDC's data processing and validation procedures.
#
#######################################################################

data_HISGEW
_chemical_compound_source        'seeds of Sophora davidii'
_chemical_name_common            
'3-Hydroxy-8,9-methylenedioxypterocarpan hemihydrate'
_chemical_formula_moiety         'C16 H12 O5,0.5(H2 O1)'
_chemical_name_systematic        
'6a,12a-dihydro-6H-[1,3]dioxolo[5,6][1]benzofuro[3,2-c]chromen-3-ol hemihydrate'
_chemical_properties_biological  
'Effective alpha-glucosidase and beta-amylase inhibitor'
_symmetry_cell_setting           monoclinic
_symmetry_space_group_name_H-M   'P 21'
_symmetry_Int_Tables_number      4
_space_group_name_Hall           'P 2yb'
loop_
_symmetry_equiv_pos_site_id
_symmetry_equiv_pos_as_xyz
1 x,y,z
2 -x,1/2+y,-z
_cell_length_a                   6.5998(13)
_cell_length_b                   7.6711(16)
_cell_length_c                   26.547(5)
_cell_angle_alpha                90
_cell_angle_beta                 91.318(7)
_cell_angle_gamma                90
_cell_volume                     1343.66
_exptl_crystal_colour            colorless
_exptl_crystal_description       prism
_chemical_melting_point          '448-449 K'
_cell_formula_units_Z            4
_exptl_crystal_recrystallization_method ethanol
loop_
_atom_site_label
_atom_site_type_symbol
_atom_site_fract_x
_atom_site_fract_y
_atom_site_fract_z
C1 C 0.3735(4) 0.2865(4) 0.28681(9)
C2 C 0.1732(4) 0.2929(4) 0.27036(9)
H1 H 0.0696 0.2652 0.2921
C3 C 0.5265(4) 0.3225(4) 0.25426(9)
H2 H 0.6610 0.3173 0.2654
C4 C 0.1291(4) 0.3409(4) 0.22136(9)
H3 H -0.0057 0.3487 0.2106
C5 C 0.4796(4) 0.3666(4) 0.20467(9)
C6 C 0.2810(4) 0.3781(3) 0.18742(9)
C7 C 0.2321(4) 0.4413(3) 0.13512(9)
H4 H 0.1476 0.5459 0.1374
C8 C 0.5951(4) 0.3719(5) 0.12170(9)
H5 H 0.5624 0.2500 0.1162
H6 H 0.7131 0.3998 0.1021
C9 C 0.4173(4) 0.4844(4) 0.10406(9)
H7 H 0.4508 0.6087 0.1062
C10 C 0.3451(3) 0.4357(3) 0.05191(9)
C11 C 0.1733(4) 0.3339(3) 0.05624(9)
C12 C 0.0649(4) 0.2655(4) 0.01535(9)
H8 H -0.0514 0.1985 0.0187
C13 C 0.4257(4) 0.4705(4) 0.00480(9)
H9 H 0.5434 0.5355 0.0011
C14 C 0.3202(4) 0.4027(3) -0.03548(9)
C15 C 0.1455(4) 0.3060(3) -0.03058(9)
C16 C 0.1876(4) 0.3583(5) -0.11197(10)
H10 H 0.2212 0.2887 -0.1411
H11 H 0.1096 0.4586 -0.1234
O1 O 0.4273(3) 0.2438(3) 0.33548(7)
H12 H 0.3249 0.2244 0.3515
O2 O 0.6410(2) 0.3999(3) 0.17416(6)
O3 O 0.1194(2) 0.3076(3) 0.10559(6)
O4 O 0.0730(3) 0.2572(3) -0.07755(7)
O5 O 0.3679(3) 0.4137(3) -0.08601(6)
C17 C 0.1839(4) 0.2268(3) 0.45496(9)
C18 C 0.3757(4) 0.2741(4) 0.47033(9)
H13 H 0.4652 0.3213 0.4475
C19 C 0.0490(4) 0.1544(4) 0.48846(9)
H14 H -0.0814 0.1235 0.4779
C20 C 0.1122(4) 0.1293(4) 0.53751(9)
H15 H 0.0234 0.0781 0.5598
C21 C 0.3043(3) 0.1777(3) 0.55505(8)
C22 C 0.4352(3) 0.2507(3) 0.52047(9)
C23 C 0.6668(4) 0.3281(4) 0.58512(9)
H16 H 0.5928 0.4313 0.5951
H17 H 0.8100 0.3502 0.5911
C24 C 0.3761(4) 0.1382(3) 0.60767(9)
H18 H 0.3492 0.0152 0.6149
C25 C 0.6023(3) 0.1750(3) 0.61713(9)
H19 H 0.6852 0.0715 0.6110
C26 C 0.6054(4) 0.2242(3) 0.67194(9)
C27 C 0.4108(4) 0.2677(4) 0.68482(9)
C28 C 0.3581(4) 0.3335(4) 0.73156(9)
H20 H 0.2263 0.3636 0.7397
C29 C 0.7658(4) 0.2426(4) 0.70657(9)
H21 H 0.8983 0.2141 0.6987
C30 C 0.7161(4) 0.3051(4) 0.75271(9)
C31 C 0.5217(4) 0.3496(4) 0.76451(9)
C32 C 0.7197(4) 0.4165(4) 0.83025(10)
H22 H 0.7354 0.3608 0.8629
H23 H 0.7606 0.5375 0.8336
O6 O 0.1322(3) 0.2541(3) 0.40500(6)
H24 H 0.0151 0.2224 0.3996
O7 O 0.6306(2) 0.2972(3) 0.53267(6)
O8 O 0.2721(2) 0.2476(3) 0.64510(6)
O9 O 0.8427(3) 0.3305(3) 0.79441(7)
O10 O 0.5157(3) 0.4066(4) 0.81333(7)
O11 O 0.7950(3) 0.1124(3) 0.37226(9)
H25 H 0.6647 0.1553 0.3623
H26 H 0.8030 -0.0173 0.3708
loop_
_geom_bond_atom_site_label_1
_geom_bond_atom_site_label_2
_geom_bond_site_symmetry_1
_geom_bond_site_symmetry_2
C1 C2 1_555 1_555
C2 H1 1_555 1_555
C3 C1 1_555 1_555
H2 C3 1_555 1_555
C4 C2 1_555 1_555
H3 C4 1_555 1_555
C5 C3 1_555 1_555
C6 C4 1_555 1_555
C7 C6 1_555 1_555
H4 C7 1_555 1_555
C8 H5 1_555 1_555
H6 C8 1_555 1_555
C9 C7 1_555 1_555
H7 C9 1_555 1_555
C10 C9 1_555 1_555
C11 C10 1_555 1_555
C12 C11 1_555 1_555
H8 C12 1_555 1_555
C13 C10 1_555 1_555
H9 C13 1_555 1_555
C14 C13 1_555 1_555
C15 C12 1_555 1_555
C16 H10 1_555 1_555
H11 C16 1_555 1_555
O1 C1 1_555 1_555
H12 O1 1_555 1_555
O2 C5 1_555 1_555
O3 C7 1_555 1_555
O4 C15 1_555 1_555
O5 C14 1_555 1_555
C17 C18 1_555 1_555
C18 H13 1_555 1_555
C19 C17 1_555 1_555
H14 C19 1_555 1_555
C20 C19 1_555 1_555
H15 C20 1_555 1_555
C21 C20 1_555 1_555
C22 C18 1_555 1_555
C23 H16 1_555 1_555
H17 C23 1_555 1_555
C24 C21 1_555 1_555
H18 C24 1_555 1_555
C25 C23 1_555 1_555
H19 C25 1_555 1_555
C26 C25 1_555 1_555
C27 C26 1_555 1_555
C28 C27 1_555 1_555
H20 C28 1_555 1_555
C29 C26 1_555 1_555
H21 C29 1_555 1_555
C30 C29 1_555 1_555
C31 C28 1_555 1_555
C32 H22 1_555 1_555
H23 C32 1_555 1_555
O6 C17 1_555 1_555
H24 O6 1_555 1_555
O7 C22 1_555 1_555
O8 C24 1_555 1_555
O9 C30 1_555 1_555
O10 C31 1_555 1_555
O11 H25 1_555 1_555
H26 O11 1_555 1_555
C5 C6 1_555 1_555
C8 C9 1_555 1_555
C8 O2 1_555 1_555
C11 O3 1_555 1_555
C14 C15 1_555 1_555
C16 O4 1_555 1_555
C16 O5 1_555 1_555
C21 C22 1_555 1_555
C23 O7 1_555 1_555
C24 C25 1_555 1_555
C27 O8 1_555 1_555
C30 C31 1_555 1_555
C32 O9 1_555 1_555
C32 O10 1_555 1_555

#END
