
#######################################################################
#
#                 Cambridge Crystallographic Data Centre
#                                CCDC 
#
#######################################################################
#
# If this CIF has been generated from an entry in the Cambridge 
# Structural Database, then it will include bibliographic, chemical, 
# crystal, experimental, refinement or atomic coordinate data resulting 
# from the CCDC's data processing and validation procedures.
#
#######################################################################

data_HISKOL
_chemical_formula_moiety         'C16 H10 O8,2(C2 H4 O2)'
_chemical_name_systematic        
"Biphenyl-2,2',6,6'-tetracarboxylic acid bis(acetic acid)"
_symmetry_cell_setting           orthorhombic
_symmetry_space_group_name_H-M   'P b c n'
_symmetry_Int_Tables_number      60
_space_group_name_Hall           '-P 2n 2ab'
loop_
_symmetry_equiv_pos_site_id
_symmetry_equiv_pos_as_xyz
1 x,y,z
2 1/2-x,1/2-y,1/2+z
3 -x,y,1/2-z
4 1/2+x,1/2-y,-z
5 -x,-y,-z
6 1/2+x,1/2+y,1/2-z
7 x,-y,1/2+z
8 1/2-x,1/2+y,z
_cell_length_a                   12.0559(11)
_cell_length_b                   12.1955(11)
_cell_length_c                   14.2776(13)
_cell_angle_alpha                90
_cell_angle_beta                 90
_cell_angle_gamma                90
_cell_volume                     2099.2
_exptl_crystal_colour            colorless
_exptl_crystal_description       block
_cell_formula_units_Z            4
loop_
_atom_site_label
_atom_site_type_symbol
_atom_site_fract_x
_atom_site_fract_y
_atom_site_fract_z
O1 O -0.22796(15) 0.33547(15) 0.63925(13)
H1 H -0.280(2) 0.370(2) 0.666(2)
O2 O -0.14899(15) 0.31612(18) 0.77817(13)
O3 O 0.13615(12) -0.02313(14) 0.77635(12)
O4 O 0.22196(17) -0.03779(19) 0.64012(14)
H2 H 0.259(2) -0.068(3) 0.660(2)
C1 C 0.07538(14) 0.08665(15) 0.64711(15)
C2 C 0.00071(12) 0.15256(13) 0.69786(14)
C3 C -0.07169(15) 0.22146(15) 0.64644(15)
C4 C -0.06665(17) 0.22431(16) 0.54888(16)
H3 H -0.1159 0.2684 0.5158
C5 C 0.01035(18) 0.16274(17) 0.50105(17)
H4 H 0.0150 0.1673 0.4362
C6 C 0.08032(17) 0.09446(17) 0.54971(16)
H5 H 0.1320 0.0526 0.5171
C7 C 0.14745(14) 0.00453(17) 0.69436(16)
C8 C -0.15243(15) 0.29473(17) 0.69424(17)
O1B O 0.22796(15) 0.33547(15) 0.86075(13)
H1B H 0.280(2) 0.370(2) 0.834(2)
O2B O 0.14899(15) 0.31612(18) 0.72183(13)
O3B O -0.13615(12) -0.02313(14) 0.72365(12)
O4B O -0.22196(17) -0.03779(19) 0.85988(14)
H2B H -0.259(2) -0.068(3) 0.840(2)
C1B C -0.07538(14) 0.08665(15) 0.85289(15)
C2B C -0.00071(12) 0.15256(13) 0.80214(14)
C3B C 0.07169(15) 0.22146(15) 0.85356(15)
C4B C 0.06665(17) 0.22431(16) 0.95112(16)
H3B H 0.1159 0.2684 0.9842
C5B C -0.01035(18) 0.16274(17) 0.99895(17)
H4B H -0.0150 0.1673 1.0638
C6B C -0.08032(17) 0.09446(17) 0.95029(16)
H5B H -0.1320 0.0526 0.9829
C7B C -0.14745(14) 0.00453(17) 0.80564(16)
C8B C 0.15243(15) 0.29473(17) 0.80576(17)
C9 C 0.5841(2) 0.0928(2) 0.6351(2)
C10 C 0.6480(3) 0.0836(3) 0.5475(2)
H6 H 0.5979 0.0773 0.4955
H7 H 0.6945 0.0197 0.5502
H8 H 0.6933 0.1477 0.5398
O5 O 0.6314(2) 0.1019(4) 0.7111(2)
O6 O 0.4795(2) 0.0975(4) 0.63008(19)
loop_
_geom_bond_atom_site_label_1
_geom_bond_atom_site_label_2
_geom_bond_site_symmetry_1
_geom_bond_site_symmetry_2
O1 H1 1_555 1_555
O2 C8 1_555 1_555
O3 C7 1_555 1_555
O4 H2 1_555 1_555
C1 C2 1_555 1_555
C2 C3 1_555 1_555
C3 C4 1_555 1_555
C4 H3 1_555 1_555
C5 C4 1_555 1_555
H4 C5 1_555 1_555
C6 C1 1_555 1_555
H5 C6 1_555 1_555
C7 O4 1_555 1_555
C8 O1 1_555 1_555
C9 C10 1_555 1_555
C10 H6 1_555 1_555
H7 C10 1_555 1_555
H8 C10 1_555 1_555
O5 C9 1_555 1_555
O6 C9 1_555 1_555
O1B H1B 1_555 1_555
O2B C8B 1_555 1_555
O3B C7B 1_555 1_555
O4B H2B 1_555 1_555
C1B C2B 1_555 1_555
C2B C2 1_555 1_555
C3B C2B 1_555 1_555
C4B C3B 1_555 1_555
H3B C4B 1_555 1_555
C5B C4B 1_555 1_555
H4B C5B 1_555 1_555
C6B C1B 1_555 1_555
H5B C6B 1_555 1_555
C7B O4B 1_555 1_555
C8B O1B 1_555 1_555
C1 C7 1_555 1_555
C3 C8 1_555 1_555
C5 C6 1_555 1_555
C1B C7B 1_555 1_555
C3B C8B 1_555 1_555
C5B C6B 1_555 1_555

#END
