
#######################################################################
#
#                 Cambridge Crystallographic Data Centre
#                                CCDC 
#
#######################################################################
#
# If this CIF has been generated from an entry in the Cambridge 
# Structural Database, then it will include bibliographic, chemical, 
# crystal, experimental, refinement or atomic coordinate data resulting 
# from the CCDC's data processing and validation procedures.
#
#######################################################################

data_HISNON
_chemical_formula_moiety         'C17 H20 O3'
_chemical_name_systematic        
(1S*,2'R*)-5-Acetoxy-1',6-dimethyl-3H-spiro[benzofuran-2,2'-bicyclo[3.2.1]hexane]
_symmetry_cell_setting           monoclinic
_symmetry_space_group_name_H-M   'P 21/n'
_symmetry_Int_Tables_number      14
_space_group_name_Hall           '-P 2yn'
loop_
_symmetry_equiv_pos_site_id
_symmetry_equiv_pos_as_xyz
1 x,y,z
2 1/2-x,1/2+y,1/2-z
3 -x,-y,-z
4 1/2+x,1/2-y,1/2+z
_cell_length_a                   12.702(3)
_cell_length_b                   6.0228(13)
_cell_length_c                   20.158(4)
_cell_angle_alpha                90
_cell_angle_beta                 104.289(4)
_cell_angle_gamma                90
_cell_volume                     1494.41
_exptl_crystal_colour            colorless
_exptl_crystal_description       prismatic
_chemical_melting_point          86-88deg.C
_cell_formula_units_Z            4
loop_
_atom_site_label
_atom_site_type_symbol
_atom_site_fract_x
_atom_site_fract_y
_atom_site_fract_z
O1 O 0.0108(2) 0.9545(4) 0.15453(12)
O2 O 0.3553(2) 0.4322(4) 0.13669(11)
O3 O 0.3732(3) 0.6020(7) 0.04267(17)
C1 C -0.1626(5) 0.9440(8) 0.0803(3)
C2 C -0.2799(5) 0.8611(14) 0.0783(6)
H1 H -0.3358 0.8830 0.0363
H2 H -0.2871 0.7259 0.1030
C3 C -0.2377(5) 1.0552(13) 0.1180(5)
H3 H -0.2676 1.2044 0.1067
C4 C -0.1954(7) 0.9728(15) 0.1920(6)
H4 H -0.1509 1.0867 0.2194
H5 H -0.2561 0.9417 0.2118
C5 C -0.1310(5) 0.7709(10) 0.1921(3)
H6 H -0.1763 0.6391 0.1860
H7 H -0.0743 0.7572 0.2341
C6 C -0.0833(3) 0.8108(6) 0.1300(2)
C7 C -0.0411(3) 0.5992(6) 0.10287(19)
H8 H -0.0619 0.4677 0.1243
H9 H -0.0682 0.5869 0.0536
C8 C 0.0798(3) 0.6321(6) 0.12263(15)
C9 C 0.1023(3) 0.8357(5) 0.15314(15)
C10 C 0.2069(3) 0.9101(6) 0.17848(14)
H10 H 0.2196 1.0485 0.1994
C11 C 0.2928(3) 0.7782(6) 0.17267(14)
C12 C 0.2686(3) 0.5733(6) 0.14085(15)
C13 C 0.1647(3) 0.4993(6) 0.11618(15)
H11 H 0.1516 0.3609 0.0953
C14 C -0.1314(7) 1.0468(10) 0.0240(3)
H12 H -0.0711 1.1444 0.0411
H13 H -0.1915 1.1305 -0.0026
H14 H -0.1109 0.9346 -0.0042
C15 C 0.4079(3) 0.8508(7) 0.20273(19)
H15 H 0.4080 0.9958 0.2225
H16 H 0.4465 0.8555 0.1674
H17 H 0.4428 0.7475 0.2375
C16 C 0.4026(4) 0.4622(8) 0.0855(2)
C17 C 0.4917(4) 0.3015(9) 0.0865(2)
H18 H 0.5298 0.3438 0.0528
H19 H 0.4616 0.1556 0.0762
H20 H 0.5411 0.3013 0.1310
loop_
_geom_bond_atom_site_label_1
_geom_bond_atom_site_label_2
_geom_bond_site_symmetry_1
_geom_bond_site_symmetry_2
O1 C6 1_555 1_555
O2 C12 1_555 1_555
O3 C16 1_555 1_555
C1 C2 1_555 1_555
C2 H1 1_555 1_555
H2 C2 1_555 1_555
C3 C1 1_555 1_555
H3 C3 1_555 1_555
C4 C3 1_555 1_555
H4 C4 1_555 1_555
H5 C4 1_555 1_555
C5 C4 1_555 1_555
H6 C5 1_555 1_555
H7 C5 1_555 1_555
C6 C1 1_555 1_555
C7 C6 1_555 1_555
H8 C7 1_555 1_555
H9 C7 1_555 1_555
C8 C7 1_555 1_555
C9 O1 1_555 1_555
C10 C9 1_555 1_555
H10 C10 1_555 1_555
C11 C10 1_555 1_555
C12 C11 1_555 1_555
C13 C8 1_555 1_555
H11 C13 1_555 1_555
C14 C1 1_555 1_555
H12 C14 1_555 1_555
H13 C14 1_555 1_555
H14 C14 1_555 1_555
C15 C11 1_555 1_555
H15 C15 1_555 1_555
H16 C15 1_555 1_555
H17 C15 1_555 1_555
C16 O2 1_555 1_555
C17 C16 1_555 1_555
H18 C17 1_555 1_555
H19 C17 1_555 1_555
H20 C17 1_555 1_555
C2 C3 1_555 1_555
C5 C6 1_555 1_555
C8 C9 1_555 1_555
C12 C13 1_555 1_555

#END
