
#######################################################################
#
#                 Cambridge Crystallographic Data Centre
#                                CCDC 
#
#######################################################################
#
# If this CIF has been generated from an entry in the Cambridge 
# Structural Database, then it will include bibliographic, chemical, 
# crystal, experimental, refinement or atomic coordinate data resulting 
# from the CCDC's data processing and validation procedures.
#
#######################################################################

data_HISREI
_chemical_formula_moiety         '2(C16 H9 O8 1-),2(H2 O1),C10 H10 N2 S2 2+'
_chemical_name_systematic        
"4,4'-disulfanediyldipyridinium bis(2',6,6'-tricarboxybiphenyl-2-carboxylate) dihydrate"
_symmetry_cell_setting           triclinic
_symmetry_space_group_name_H-M   'P -1'
_symmetry_Int_Tables_number      2
_space_group_name_Hall           '-P 1'
loop_
_symmetry_equiv_pos_site_id
_symmetry_equiv_pos_as_xyz
1 x,y,z
2 -x,-y,-z
_cell_length_a                   12.235(3)
_cell_length_b                   12.600(3)
_cell_length_c                   15.087(3)
_cell_angle_alpha                105.380(7)
_cell_angle_beta                 92.414(7)
_cell_angle_gamma                114.958(6)
_cell_volume                     2001.31
_exptl_crystal_colour            colorless
_exptl_crystal_description       needle-like
_cell_formula_units_Z            2
loop_
_atom_site_label
_atom_site_type_symbol
_atom_site_fract_x
_atom_site_fract_y
_atom_site_fract_z
S1 S 0.7037(4) 0.5776(4) 0.4478(3)
S2 S 0.6646(7) 0.6805(5) 0.3696(5)
N1 N 0.7686(5) 0.5627(5) 0.0906(3)
N2 N 0.3915(5) 0.2188(5) 0.3886(4)
C1 C 0.4962(9) 0.2763(11) 0.4506(6)
C2 C 0.5801(12) 0.4078(13) 0.4426(9)
C3 C 0.5661(10) 0.4578(12) 0.3748(9)
C4 C 0.4540(13) 0.3694(15) 0.3038(10)
C5 C 0.3701(7) 0.2705(8) 0.3295(8)
C6 C 0.7851(6) 0.6714(7) 0.1397(6)
H1 H 0.8214 0.7383 0.1176
C7 C 0.7467(6) 0.6863(7) 0.2279(6)
H2 H 0.7574 0.7634 0.2642
C8 C 0.6942(6) 0.5869(8) 0.2587(5)
C9 C 0.6786(6) 0.4756(7) 0.2026(6)
H3 H 0.6419 0.4058 0.2215
C10 C 0.7163(6) 0.4669(6) 0.1202(5)
H4 H 0.7049 0.3902 0.0824
O1 O 0.4246(6) 0.4553(6) 0.0588(4)
O2 O 0.6292(6) 0.7830(6) -0.0646(5)
O3 O 0.3978(4) 0.7358(4) 0.3447(3)
O4 O 0.4315(4) 0.6133(4) 0.2288(3)
O5 O 0.0356(4) 0.7472(3) 0.0777(3)
O6 O 0.1352(4) 0.9479(4) 0.1443(3)
C11 C 0.2659(5) 0.7682(4) 0.1873(3)
C12 C 0.3763(5) 0.7588(5) 0.1938(4)
C13 C 0.4639(6) 0.8109(6) 0.1425(4)
H5 H 0.5349 0.8008 0.1443
C14 C 0.4469(6) 0.8779(7) 0.0885(5)
H6 H 0.5072 0.9143 0.0557
C15 C 0.3420(6) 0.8902(6) 0.0836(4)
H7 H 0.3315 0.9366 0.0483
C16 C 0.2484(5) 0.8332(5) 0.1317(4)
C17 C 0.4017(5) 0.6966(6) 0.2577(5)
C18 C 0.1298(5) 0.8390(5) 0.1161(4)
O7 O 0.1627(4) 0.5194(4) 0.0765(3)
O8 O -0.0362(3) 0.4132(4) 0.0759(3)
O9 O 0.2321(4) 0.9995(4) 0.3872(3)
O10 O 0.3715(4) 0.9318(4) 0.3840(3)
C19 C 0.1688(5) 0.7114(5) 0.2404(4)
C20 C 0.0745(5) 0.5884(5) 0.2045(4)
C21 C -0.0165(5) 0.5445(5) 0.2552(4)
H8 H -0.0777 0.4639 0.2312
C22 C -0.0184(5) 0.6168(6) 0.3395(4)
H9 H -0.0798 0.5848 0.3728
C23 C 0.0703(5) 0.7373(6) 0.3756(4)
H10 H 0.0680 0.7871 0.4326
C24 C 0.1632(5) 0.7836(5) 0.3260(4)
C25 C 0.0730(6) 0.5055(5) 0.1123(4)
C26 C 0.2638(5) 0.9139(5) 0.3684(4)
O11 O 0.9264(4) 0.9337(3) 0.0958(3)
O12 O 0.7853(4) 0.9983(4) 0.0936(3)
O13 O 1.0061(4) 0.9622(4) 0.3556(4)
O14 O 1.1010(4) 1.1646(4) 0.3994(4)
C27 C 0.9635(5) 1.2047(4) 0.2597(3)
C28 C 0.9840(5) 1.1455(5) 0.1755(3)
C29 C 1.0862(5) 1.2048(5) 0.1383(4)
H11 H 1.0987 1.1638 0.0816
C30 C 1.1696(5) 1.3260(5) 0.1864(4)
H12 H 1.2382 1.3661 0.1619
C31 C 1.1511(5) 1.3860(5) 0.2692(4)
H13 H 1.2069 1.4671 0.3010
C32 C 1.0487(5) 1.3259(4) 0.3062(3)
C33 C 0.8913(5) 1.0159(5) 0.1182(4)
C34 C 1.0303(5) 1.3984(5) 0.3966(4)
O15 O 0.6588(6) 1.2549(5) 0.2707(4)
O16 O 0.7365(4) 1.1818(4) 0.1537(3)
O17 O 0.9300(4) 1.3670(4) 0.4196(3)
O18 O 1.1266(3) 1.4978(3) 0.4455(3)
C35 C 0.8843(5) 1.0648(4) 0.3566(3)
C36 C 0.8618(5) 1.1319(4) 0.3032(3)
C37 C 0.7451(5) 1.1260(5) 0.2940(4)
C38 C 0.6567(5) 1.0599(5) 0.3395(4)
H14 H 0.5807 1.0601 0.3352
C39 C 0.6806(5) 0.9952(5) 0.3901(4)
H15 H 0.6211 0.9515 0.4204
C40 C 0.7908(5) 0.9942(5) 0.3967(4)
H16 H 0.8045 0.9456 0.4283
C41 C 0.7101(6) 1.1931(6) 0.2387(5)
C42 C 1.0070(6) 1.0704(5) 0.3728(4)
C43? C 0.5749(17) 0.3622(19) 0.4624(12)
C44? C 0.579(2) 0.4412(13) 0.418(2)
C45? C 0.461(2) 0.4036(18) 0.3564(15)
S3? S 0.6627(2) 0.5991(3) 0.37241(19)
loop_
_geom_bond_atom_site_label_1
_geom_bond_atom_site_label_2
_geom_bond_site_symmetry_1
_geom_bond_site_symmetry_2
S1 S2 1_555 1_555
S2 C8 1_555 1_555
N1 C6 1_555 1_555
N2 C1 1_555 1_555
C1 C2 1_555 1_555
C2 C3 1_555 1_555
C3 S1 1_555 1_555
C4 C3 1_555 1_555
C5 N2 1_555 1_555
C6 H1 1_555 1_555
C7 C6 1_555 1_555
H2 C7 1_555 1_555
C8 C7 1_555 1_555
C9 C8 1_555 1_555
H3 C9 1_555 1_555
C10 N1 1_555 1_555
H4 C10 1_555 1_555
O3 C17 1_555 1_555
O4 C17 1_555 1_555
O5 C18 1_555 1_555
O6 C18 1_555 1_555
C11 C12 1_555 1_555
C12 C13 1_555 1_555
C13 H5 1_555 1_555
C14 C13 1_555 1_555
H6 C14 1_555 1_555
C15 C14 1_555 1_555
H7 C15 1_555 1_555
C16 C11 1_555 1_555
C17 C12 1_555 1_555
C18 C16 1_555 1_555
O7 C25 1_555 1_555
O8 C25 1_555 1_555
O9 C26 1_555 1_555
O10 C26 1_555 1_555
C19 C11 1_555 1_555
C20 C19 1_555 1_555
C21 C20 1_555 1_555
H8 C21 1_555 1_555
C22 C21 1_555 1_555
H9 C22 1_555 1_555
C23 C22 1_555 1_555
H10 C23 1_555 1_555
C24 C19 1_555 1_555
C25 C20 1_555 1_555
C26 C24 1_555 1_555
O11 C33 1_555 1_555
O12 C33 1_555 1_555
O13 C42 1_555 1_555
O14 C42 1_555 1_555
C27 C28 1_555 1_555
C28 C29 1_555 1_555
C29 H11 1_555 1_555
C30 C29 1_555 1_555
H12 C30 1_555 1_555
C31 C30 1_555 1_555
H13 C31 1_555 1_555
C32 C27 1_555 1_555
C33 C28 1_555 1_555
C34 C32 1_555 1_555
O15 C41 1_555 1_555
O16 C41 1_555 1_555
O17 C34 1_555 1_555
O18 C34 1_555 1_555
C35 C36 1_555 1_555
C36 C27 1_555 1_555
C37 C36 1_555 1_555
C38 C37 1_555 1_555
H14 C38 1_555 1_555
C39 C38 1_555 1_555
H15 C39 1_555 1_555
C40 C35 1_555 1_555
H16 C40 1_555 1_555
C41 C37 1_555 1_555
C42 C35 1_555 1_555
C4 C5 1_555 1_555
C9 C10 1_555 1_555
C15 C16 1_555 1_555
C23 C24 1_555 1_555
C31 C32 1_555 1_555
C39 C40 1_555 1_555

#END
