
#######################################################################
#
#                 Cambridge Crystallographic Data Centre
#                                CCDC 
#
#######################################################################
#
# If this CIF has been generated from an entry in the Cambridge 
# Structural Database, then it will include bibliographic, chemical, 
# crystal, experimental, refinement or atomic coordinate data resulting 
# from the CCDC's data processing and validation procedures.
#
#######################################################################

data_HISXIT
_chemical_formula_moiety         'C21 H16 Cl1 N3 O4 S1'
_chemical_name_systematic        
8-[(4-chlorophenyl)sulfanyl]-6-ethyl-2,4-dimethylpyrimido[4,5-c]isoquinoline-1,3,7,10(2H,4H)-tetrone
_symmetry_cell_setting           orthorhombic
_symmetry_space_group_name_H-M   'F d d 2'
_symmetry_Int_Tables_number      43
_space_group_name_Hall           'F 2 -2d'
loop_
_symmetry_equiv_pos_site_id
_symmetry_equiv_pos_as_xyz
1 x,y,z
2 -x,-y,z
3 1/4+x,1/4-y,1/4+z
4 1/4-x,1/4+y,1/4+z
5 x,1/2+y,1/2+z
6 -x,1/2-y,1/2+z
7 1/4+x,3/4-y,3/4+z
8 1/4-x,3/4+y,3/4+z
9 1/2+x,y,1/2+z
10 1/2-x,-y,1/2+z
11 3/4+x,1/4-y,3/4+z
12 3/4-x,1/4+y,3/4+z
13 1/2+x,1/2+y,z
14 1/2-x,1/2-y,z
15 3/4+x,3/4-y,1/4+z
16 3/4-x,3/4+y,1/4+z
_cell_length_a                   31.777(2)
_cell_length_b                   55.879(6)
_cell_length_c                   4.4937(3)
_cell_angle_alpha                90
_cell_angle_beta                 90
_cell_angle_gamma                90
_cell_volume                     7979.31
_exptl_crystal_colour            orange
_exptl_crystal_description       prism
_cell_formula_units_Z            16
loop_
_atom_site_label
_atom_site_type_symbol
_atom_site_fract_x
_atom_site_fract_y
_atom_site_fract_z
C1 C 0.71157(11) 0.36903(6) 0.2861(9)
C2 C 0.81774(11) 0.47236(6) 1.0272(9)
C3 C 0.83358(13) 0.49100(7) 0.8635(12)
H1 H 0.815367 0.501729 0.771602
C4 C 0.64936(12) 0.35746(7) -0.0068(10)
C5 C 0.87654(14) 0.49385(7) 0.8349(15)
H2 H 0.887464 0.506527 0.725229
C6 C 0.90275(13) 0.47787(7) 0.9695(13)
C7 C 0.88742(13) 0.45892(8) 1.1288(12)
H3 H 0.905801 0.448003 1.215569
C8 C 0.63711(10) 0.42669(6) 0.5849(9)
C9 C 0.84438(12) 0.45610(7) 1.1601(9)
H4 H 0.833560 0.443381 1.269441
C10 C 0.69982(10) 0.44618(6) 0.8396(10)
C11 C 0.74656(10) 0.44761(5) 0.8613(8)
C12 C 0.77096(10) 0.43203(6) 0.7197(8)
H5 H 0.799784 0.432097 0.755499
C13 C 0.75362(10) 0.41489(5) 0.5103(8)
C14 C 0.70699(9) 0.41043(5) 0.5160(7)
C15 C 0.68905(10) 0.39121(5) 0.3624(8)
C16 C 0.64608(10) 0.39259(6) 0.3017(9)
C17 C 0.68105(10) 0.42780(6) 0.6424(8)
C18 C 0.71297(14) 0.33325(7) -0.0224(11)
H6 H 0.738308 0.337770 -0.124219
H7 H 0.695151 0.324410 -0.155350
H8 H 0.719918 0.323450 0.146123
C19 C 0.58161(11) 0.37776(7) 0.0550(12)
H9 H 0.566521 0.366505 0.176113
H10 H 0.576757 0.374246 -0.151297
H11 H 0.571987 0.393672 0.098130
C20 C 0.60631(11) 0.44453(7) 0.7084(11)
H12 H 0.616389 0.460489 0.662338
H13 H 0.605934 0.442954 0.923388
C21 C 0.56171(12) 0.44222(8) 0.5952(14)
H14 H 0.561303 0.444742 0.383873
H15 H 0.544258 0.453964 0.690509
H16 H 0.551250 0.426501 0.639212
Cl1 Cl 0.95655(4) 0.48171(3) 0.9346(6)
N1 N 0.69097(9) 0.35471(5) 0.0786(8)
N2 N 0.62719(9) 0.37600(5) 0.1198(8)
N3 N 0.62094(9) 0.41008(5) 0.4091(7)
O1 O 0.77547(7) 0.40653(4) 0.3136(6)
O2 O 0.74422(8) 0.36255(4) 0.3964(7)
O3 O 0.63328(9) 0.34401(5) -0.1877(9)
O4 O 0.67865(8) 0.45958(5) 0.9924(8)
S1 S 0.76242(3) 0.47151(2) 1.0850(2)
loop_
_geom_bond_atom_site_label_1
_geom_bond_atom_site_label_2
_geom_bond_site_symmetry_1
_geom_bond_site_symmetry_2
C1 C15 1_555 1_555
C2 C3 1_555 1_555
C3 H1 1_555 1_555
C4 N1 1_555 1_555
C5 C3 1_555 1_555
H2 C5 1_555 1_555
C6 C5 1_555 1_555
C7 C6 1_555 1_555
H3 C7 1_555 1_555
C8 C17 1_555 1_555
C9 C2 1_555 1_555
H4 C9 1_555 1_555
C10 C11 1_555 1_555
C11 C12 1_555 1_555
C12 H5 1_555 1_555
C13 C12 1_555 1_555
C14 C13 1_555 1_555
C15 C14 1_555 1_555
C16 C15 1_555 1_555
C17 C10 1_555 1_555
C18 H6 1_555 1_555
H7 C18 1_555 1_555
H8 C18 1_555 1_555
C19 H9 1_555 1_555
H10 C19 1_555 1_555
H11 C19 1_555 1_555
C20 C8 1_555 1_555
H12 C20 1_555 1_555
H13 C20 1_555 1_555
C21 C20 1_555 1_555
H14 C21 1_555 1_555
H15 C21 1_555 1_555
H16 C21 1_555 1_555
Cl1 C6 1_555 1_555
N1 C1 1_555 1_555
N2 C4 1_555 1_555
N3 C8 1_555 1_555
O1 C13 1_555 1_555
O2 C1 1_555 1_555
O3 C4 1_555 1_555
O4 C10 1_555 1_555
S1 C2 1_555 1_555
C7 C9 1_555 1_555
C11 S1 1_555 1_555
C14 C17 1_555 1_555
C16 N2 1_555 1_555
C16 N3 1_555 1_555
C18 N1 1_555 1_555
C19 N2 1_555 1_555

#END
