
#######################################################################
#
#                 Cambridge Crystallographic Data Centre
#                                CCDC 
#
#######################################################################
#
# If this CIF has been generated from an entry in the Cambridge 
# Structural Database, then it will include bibliographic, chemical, 
# crystal, experimental, refinement or atomic coordinate data resulting 
# from the CCDC's data processing and validation procedures.
#
#######################################################################

data_HIVBOE
_chemical_formula_moiety         'C13 H12 O2 S2'
_chemical_name_systematic        
2-(1,3-Dithian-2-ylidene)-1-phenylbutane-1,3-dione
_symmetry_cell_setting           monoclinic
_symmetry_space_group_name_H-M   'P 21'
_symmetry_Int_Tables_number      4
_space_group_name_Hall           'P 2yb'
loop_
_symmetry_equiv_pos_site_id
_symmetry_equiv_pos_as_xyz
1 x,y,z
2 -x,1/2+y,-z
_cell_length_a                   7.812(3)
_cell_length_b                   5.5115(18)
_cell_length_c                   14.628(5)
_cell_angle_alpha                90
_cell_angle_beta                 103.876(4)
_cell_angle_gamma                90
_cell_volume                     611.441
_exptl_crystal_colour            yellow
_exptl_crystal_description       block
_chemical_melting_point          '404 K'
_cell_formula_units_Z            2
_exptl_crystal_recrystallization_method ethanol
loop_
_atom_site_label
_atom_site_type_symbol
_atom_site_fract_x
_atom_site_fract_y
_atom_site_fract_z
S1 S 0.45599(7) 0.16653(13) 0.16380(4)
S2 S 0.11323(8) 0.39993(14) 0.08953(4)
O1 O 0.4104(2) -0.2094(4) 0.27828(13)
O2 O -0.1208(2) 0.2157(4) 0.17817(13)
C1 C 0.2829(3) -0.1090(5) 0.29623(15)
C2 C 0.1629(3) 0.0454(5) 0.22544(15)
C3 C -0.0288(3) 0.0456(5) 0.21677(16)
C4 C -0.1148(3) -0.1726(6) 0.24704(18)
H1 H -0.2388 -0.1430 0.2380
H2 H -0.0636 -0.2046 0.3124
H3 H -0.0971 -0.3102 0.2101
C5 C 0.2343(3) 0.1860(5) 0.16689(14)
C6 C 0.4601(4) 0.4458(6) 0.1000(2)
H4 H 0.4788 0.5824 0.1431
H5 H 0.5552 0.4423 0.0679
C7 C 0.2864(4) 0.4705(7) 0.0300(2)
H6 H 0.2807 0.3597 -0.0222
H7 H 0.2720 0.6346 0.0055
C8 C 0.2575(3) -0.1219(5) 0.39431(15)
C9 C 0.3325(3) -0.3133(5) 0.45259(16)
H8 H 0.3892 -0.4378 0.4286
C10 C 0.3233(3) -0.3194(6) 0.54551(17)
H9 H 0.3714 -0.4495 0.5836
C11 C 0.2424(3) -0.1316(6) 0.58230(17)
H10 H 0.2390 -0.1337 0.6454
C12 C 0.1671(3) 0.0579(6) 0.52532(17)
H11 H 0.1111 0.1825 0.5497
C13 C 0.1749(3) 0.0631(5) 0.43144(16)
H12 H 0.1243 0.1917 0.3932
loop_
_geom_bond_atom_site_label_1
_geom_bond_atom_site_label_2
_geom_bond_site_symmetry_1
_geom_bond_site_symmetry_2
S1 C5 1_555 1_555
S2 C5 1_555 1_555
O1 C1 1_555 1_555
O2 C3 1_555 1_555
C1 C2 1_555 1_555
C2 C3 1_555 1_555
C3 C4 1_555 1_555
C4 H1 1_555 1_555
H2 C4 1_555 1_555
H3 C4 1_555 1_555
C5 C2 1_555 1_555
C6 S1 1_555 1_555
H4 C6 1_555 1_555
H5 C6 1_555 1_555
C7 S2 1_555 1_555
H6 C7 1_555 1_555
H7 C7 1_555 1_555
C8 C1 1_555 1_555
C9 C8 1_555 1_555
H8 C9 1_555 1_555
C10 C9 1_555 1_555
H9 C10 1_555 1_555
C11 C10 1_555 1_555
H10 C11 1_555 1_555
C12 C11 1_555 1_555
H11 C12 1_555 1_555
C13 C8 1_555 1_555
H12 C13 1_555 1_555
C6 C7 1_555 1_555
C12 C13 1_555 1_555

#END
