
#######################################################################
#
#                 Cambridge Crystallographic Data Centre
#                                CCDC 
#
#######################################################################
#
# If this CIF has been generated from an entry in the Cambridge 
# Structural Database, then it will include bibliographic, chemical, 
# crystal, experimental, refinement or atomic coordinate data resulting 
# from the CCDC's data processing and validation procedures.
#
#######################################################################

data_HIVLUV
_chemical_formula_moiety         'C23 H18 N2 O1 S1'
_chemical_name_systematic        
3-(2-(1,3-benzoxazol-2-yl)vinyl)-10-ethyl-10H-phenothiazine
_symmetry_cell_setting           monoclinic
_symmetry_space_group_name_H-M   'P 21/c'
_symmetry_Int_Tables_number      14
_space_group_name_Hall           '-P 2ybc'
loop_
_symmetry_equiv_pos_site_id
_symmetry_equiv_pos_as_xyz
1 x,y,z
2 -x,1/2+y,1/2-z
3 -x,-y,-z
4 x,1/2-y,1/2+z
_cell_length_a                   13.690(3)
_cell_length_b                   21.558(4)
_cell_length_c                   6.2444(12)
_cell_angle_alpha                90
_cell_angle_beta                 95.33(3)
_cell_angle_gamma                90
_cell_volume                     1834.94
_exptl_crystal_colour            yellow
_exptl_crystal_description       block
_cell_formula_units_Z            4
_exptl_crystal_preparation       Luminescent
loop_
_atom_site_label
_atom_site_type_symbol
_atom_site_fract_x
_atom_site_fract_y
_atom_site_fract_z
S1 S 0.06403(4) 0.53828(3) 0.79973(10)
O1 O 0.27258(9) 0.40609(7) -0.1660(2)
N1 N 0.43750(12) 0.40564(8) -0.1685(3)
C1 C 0.04547(18) 0.71273(13) 1.1925(4)
H1 H 0.0411 0.7475 1.2794
C2 C 0.43864(17) 0.33795(10) -0.5013(3)
H2 H 0.5063 0.3367 -0.5055
C3 C -0.03877(17) 0.68339(12) 1.1086(4)
H3 H -0.1000 0.6981 1.1378
C4 C 0.36517(18) 0.70150(11) 1.0030(4)
H4 H 0.4225 0.7153 1.0902
H5 H 0.3155 0.7330 0.9997
H6 H 0.3817 0.6936 0.8594
C5 C 0.23108(17) 0.34200(11) -0.4918(3)
H7 H 0.1634 0.3438 -0.4884
C6 C 0.3763(2) 0.30759(11) -0.6541(4)
H8 H 0.4027 0.2851 -0.7620
C7 C 0.27504(19) 0.30992(11) -0.6498(4)
H9 H 0.2355 0.2893 -0.7563
C8 C -0.03133(15) 0.63210(12) 0.9813(4)
H10 H -0.0881 0.6124 0.9227
C9 C 0.13696(16) 0.69098(11) 1.1487(4)
H11 H 0.1930 0.7117 1.2056
C10 C 0.34449(13) 0.57633(9) 0.7091(3)
H12 H 0.3985 0.5961 0.7805
C11 C 0.14646(14) 0.63835(10) 1.0205(3)
C12 C 0.32697(14) 0.64233(10) 1.0974(3)
H13 H 0.3788 0.6115 1.1054
H14 H 0.3117 0.6508 1.2432
C13 C 0.18635(14) 0.51840(10) 0.4906(3)
H15 H 0.1319 0.5004 0.4147
C14 C 0.05976(14) 0.60901(10) 0.9381(3)
C15 C 0.36324(14) 0.42512(9) -0.0724(3)
C16 C 0.27772(14) 0.51345(9) 0.4088(3)
C17 C 0.17436(13) 0.54914(9) 0.6803(3)
C18 C 0.39620(14) 0.37045(9) -0.3414(3)
C19 C 0.25259(13) 0.58186(9) 0.7901(3)
C20 C 0.28475(14) 0.47785(9) 0.2124(3)
H16 H 0.2257 0.4637 0.1440
C21 C 0.29495(15) 0.37112(9) -0.3397(3)
C22 C 0.36510(15) 0.46294(9) 0.1180(3)
H17 H 0.4253 0.4777 0.1783
N2 N 0.23940(11) 0.61578(8) 0.9768(2)
C23 C 0.35686(13) 0.54238(9) 0.5260(3)
H18 H 0.4192 0.5387 0.4797
loop_
_geom_bond_atom_site_label_1
_geom_bond_atom_site_label_2
_geom_bond_site_symmetry_1
_geom_bond_site_symmetry_2
S1 C14 1_555 1_555
O1 C15 1_555 1_555
N1 C15 1_555 1_555
C1 H1 1_555 1_555
C2 H2 1_555 1_555
C3 C1 1_555 1_555
H3 C3 1_555 1_555
C4 H4 1_555 1_555
H5 C4 1_555 1_555
H6 C4 1_555 1_555
C5 H7 1_555 1_555
C6 C2 1_555 1_555
H8 C6 1_555 1_555
C7 C5 1_555 1_555
H9 C7 1_555 1_555
C8 C3 1_555 1_555
H10 C8 1_555 1_555
C9 C1 1_555 1_555
H11 C9 1_555 1_555
C10 H12 1_555 1_555
C11 C9 1_555 1_555
C12 C4 1_555 1_555
H13 C12 1_555 1_555
H14 C12 1_555 1_555
C13 H15 1_555 1_555
C14 C8 1_555 1_555
C15 C22 1_555 1_555
C16 C13 1_555 1_555
C17 S1 1_555 1_555
C18 N1 1_555 1_555
C19 C10 1_555 1_555
C20 C16 1_555 1_555
H16 C20 1_555 1_555
C21 O1 1_555 1_555
C22 C20 1_555 1_555
H17 C22 1_555 1_555
N2 C11 1_555 1_555
C23 C10 1_555 1_555
H18 C23 1_555 1_555
C2 C18 1_555 1_555
C5 C21 1_555 1_555
C6 C7 1_555 1_555
C11 C14 1_555 1_555
C12 N2 1_555 1_555
C13 C17 1_555 1_555
C16 C23 1_555 1_555
C17 C19 1_555 1_555
C18 C21 1_555 1_555
C19 N2 1_555 1_555

#END
