
#######################################################################
#
#                 Cambridge Crystallographic Data Centre
#                                CCDC 
#
#######################################################################
#
# If this CIF has been generated from an entry in the Cambridge 
# Structural Database, then it will include bibliographic, chemical, 
# crystal, experimental, refinement or atomic coordinate data resulting 
# from the CCDC's data processing and validation procedures.
#
#######################################################################

data_HIXJOO
_chemical_formula_moiety         'C17 H20 F3 N2 1+,C8 H6 Cl1 O3 1-,C1 H4 O1'
_chemical_name_systematic        
'(4aR,11R,11aS)-11-Methyl-9-(trifluoromethyl)-1,2,2,3,4,4a,5,6,11,11a-decahydro-pyrido[4,3-b]carbazole (R)-2-chloromandelate methanol solvate'
_symmetry_cell_setting           monoclinic
_symmetry_space_group_name_H-M   'P 21'
_symmetry_Int_Tables_number      4
_space_group_name_Hall           'P 2yb'
loop_
_symmetry_equiv_pos_site_id
_symmetry_equiv_pos_as_xyz
1 x,y,z
2 -x,1/2+y,-z
_cell_length_a                   12.749(3)
_cell_length_b                   7.451(2)
_cell_length_c                   13.531(2)
_cell_angle_alpha                90
_cell_angle_beta                 100.77(2)
_cell_angle_gamma                90
_cell_volume                     1262.71
_exptl_crystal_colour            colorless
_exptl_crystal_description       block
_cell_formula_units_Z            2
loop_
_atom_site_label
_atom_site_type_symbol
_atom_site_fract_x
_atom_site_fract_y
_atom_site_fract_z
Cl1 Cl 0.8309(2) -0.3121(3) 0.8502(2)
O1 O 0.5055(5) -0.0387(8) 0.8356(4)
O2 O 0.4858(5) -0.0588(8) 0.9959(5)
O3 O 0.6569(4) -0.2891(8) 1.0406(4)
C18 C 0.5349(7) -0.092(1) 0.9264(6)
C19 C 0.6415(6) -0.194(1) 0.9488(6)
C20 C 0.7315(7) -0.063(1) 0.9523(6)
C21 C 0.8231(7) -0.105(1) 0.9093(6)
C22 C 0.9062(7) 0.011(1) 0.9141(7)
C23 C 0.9037(8) 0.175(1) 0.9621(7)
C24 C 0.8165(8) 0.220(1) 1.0035(7)
C25 C 0.7328(8) 0.103(1) 0.9982(7)
H21 H 0.9645 -0.0197 0.8852
H22 H 0.9608 0.2539 0.9664
H23 H 0.8144 0.3307 1.0351
H24 H 0.6746 0.1357 1.0266
H25 H 0.6434 -0.2798 0.8941
H26 H 0.5897 -0.3247 1.0546
F1 F 1.0707(5) 0.314(1) 0.5143(5)
F2 F 1.0561(5) 0.175(1) 0.3750(5)
F3 F 1.0689(5) 0.459(1) 0.3765(6)
N1 N 0.4645(5) 0.3246(9) 0.8095(5)
N2 N 0.5787(5) 0.370(1) 0.3626(5)
C1 C 0.3709(7) 0.413(1) 0.7477(7)
C2 C 0.3641(7) 0.371(1) 0.6367(6)
C3 C 0.4665(6) 0.408(1) 0.6019(6)
C4 C 0.5621(6) 0.315(1) 0.6673(5)
C5 C 0.5665(7) 0.365(1) 0.7764(6)
C6 C 0.4567(7) 0.362(1) 0.4900(6)
C7 C 0.5630(7) 0.364(1) 0.4596(6)
C8 C 0.6621(7) 0.354(1) 0.5261(6)
C9 C 0.6709(6) 0.353(1) 0.6377(5)
C10 C 0.7555(7) 0.224(2) 0.6909(7)
C11 C 0.6870(7) 0.359(1) 0.3612(6)
C12 C 0.7405(7) 0.352(1) 0.4642(6)
C13 C 0.8543(7) 0.340(1) 0.4805(7)
C14 C 0.9047(7) 0.336(1) 0.4024(7)
C15 C 0.8505(8) 0.350(1) 0.3005(6)
C16 C 0.7393(8) 0.363(1) 0.2822(7)
C17 C 1.0236(9) 0.324(2) 0.4164(8)
H1 H 0.4541 0.2051 0.8073
H2 H 0.4696 0.3598 0.8739
H3 H 0.6240 0.2995 0.8182
H4 H 0.5819 0.4923 0.7852
H5 H 0.4792 0.5380 0.6086
H6 H 0.4246 0.2444 0.4773
H7 H 0.3458 0.2453 0.6250
H8 H 0.3076 0.4421 0.5974
H9 H 0.3762 0.5417 0.7578
H10 H 0.3063 0.3720 0.7688
H11 H 0.5496 0.1854 0.6613
H12 H 0.4102 0.4487 0.4499
H13 H 0.6925 0.4739 0.6616
H14 H 0.7607 0.2348 0.7623
H15 H 0.8232 0.2528 0.6734
H16 H 0.7361 0.1033 0.6705
H17 H 0.5290 0.3791 0.3103
H18 H 0.8934 0.3340 0.5457
H19 H 0.8881 0.3498 0.2479
H20 H 0.7014 0.3739 0.2167
O4 O 0.8740(5) -0.339(1) 1.1326(5)
C26 C 0.9106(8) -0.207(2) 1.2036(9)
H27 H 0.8740 -0.0961 1.1838
H28 H 0.9860 -0.1899 1.2077
H29 H 0.8970 -0.2428 1.2681
H30 H 0.8150 -0.3999 1.1511
loop_
_geom_bond_atom_site_label_1
_geom_bond_atom_site_label_2
_geom_bond_site_symmetry_1
_geom_bond_site_symmetry_2
Cl1 C21 1_555 1_555
F1 C17 1_555 1_555
F2 C17 1_555 1_555
F3 C17 1_555 1_555
O1 C18 1_555 1_555
O2 C18 1_555 1_555
O3 C19 1_555 1_555
O4 C26 1_555 1_555
N1 C1 1_555 1_555
N2 C7 1_555 1_555
C1 C2 1_555 1_555
C2 C3 1_555 1_555
C3 C4 1_555 1_555
C4 C5 1_555 1_555
C5 N1 1_555 1_555
C6 C3 1_555 1_555
C7 C6 1_555 1_555
C8 C7 1_555 1_555
C9 C4 1_555 1_555
C10 C9 1_555 1_555
C11 N2 1_555 1_555
C12 C8 1_555 1_555
C13 C12 1_555 1_555
C14 C13 1_555 1_555
C15 C14 1_555 1_555
C16 C11 1_555 1_555
C17 C14 1_555 1_555
C18 C19 1_555 1_555
C19 C20 1_555 1_555
C20 C21 1_555 1_555
C21 C22 1_555 1_555
C22 C23 1_555 1_555
C23 C24 1_555 1_555
C24 C25 1_555 1_555
C25 C20 1_555 1_555
C26 H27 1_555 1_555
H1 N1 1_555 1_555
H2 N1 1_555 1_555
H3 C5 1_555 1_555
H4 C5 1_555 1_555
H5 C3 1_555 1_555
H6 C6 1_555 1_555
H7 C2 1_555 1_555
H8 C2 1_555 1_555
H9 C1 1_555 1_555
H10 C1 1_555 1_555
H11 C4 1_555 1_555
H12 C6 1_555 1_555
H13 C9 1_555 1_555
H14 C10 1_555 1_555
H15 C10 1_555 1_555
H16 C10 1_555 1_555
H17 N2 1_555 1_555
H18 C13 1_555 1_555
H19 C15 1_555 1_555
H20 C16 1_555 1_555
H21 C22 1_555 1_555
H22 C23 1_555 1_555
H23 C24 1_555 1_555
H24 C25 1_555 1_555
H25 C19 1_555 1_555
H26 O3 1_555 1_555
H28 C26 1_555 1_555
H29 C26 1_555 1_555
H30 O4 1_555 1_555
C8 C9 1_555 1_555
C11 C12 1_555 1_555
C15 C16 1_555 1_555

#END
