
#######################################################################
#
#                 Cambridge Crystallographic Data Centre
#                                CCDC 
#
#######################################################################
#
# If this CIF has been generated from an entry in the Cambridge 
# Structural Database, then it will include bibliographic, chemical, 
# crystal, experimental, refinement or atomic coordinate data resulting 
# from the CCDC's data processing and validation procedures.
#
#######################################################################

data_HIXMAE
_chemical_formula_moiety         'C14 H18 Br1 N1 O4'
_chemical_name_systematic        
'2-(1-(4-bromophenyl)-2-nitroethyl)hexanoic acid'
_symmetry_cell_setting           triclinic
_symmetry_space_group_name_H-M   'P -1'
_symmetry_Int_Tables_number      2
_space_group_name_Hall           '-P 1'
loop_
_symmetry_equiv_pos_site_id
_symmetry_equiv_pos_as_xyz
1 x,y,z
2 -x,-y,-z
_cell_length_a                   7.2825(11)
_cell_length_b                   8.7850(13)
_cell_length_c                   13.026(2)
_cell_angle_alpha                107.882(3)
_cell_angle_beta                 93.156(3)
_cell_angle_gamma                101.555(3)
_cell_volume                     770.933
_exptl_crystal_colour            colorless
_exptl_crystal_description       block
_cell_formula_units_Z            2
loop_
_atom_site_label
_atom_site_type_symbol
_atom_site_fract_x
_atom_site_fract_y
_atom_site_fract_z
Br1 Br 0.43884(4) 0.25204(4) 1.00399(2)
N1 N -0.2878(3) -0.0037(2) 0.57284(16)
O1 O -0.2159(3) -0.1173(2) 0.53116(18)
O2 O -0.4281(3) -0.0168(2) 0.61913(17)
O3 O -0.2581(2) 0.5058(2) 0.50126(13)
H1 H -0.3560 0.5143 0.4683
O4 O -0.4590(2) 0.4623(2) 0.61743(15)
C1 C -0.2028(3) 0.1613(3) 0.56541(18)
H2 H -0.2850 0.1860 0.5125
H3 H -0.0781 0.1604 0.5389
C2 C -0.1790(3) 0.2947(3) 0.67608(17)
H4 H -0.3015 0.2804 0.7070
C3 C -0.1361(3) 0.4661(3) 0.66194(17)
H5 H -0.0170 0.4809 0.6278
C4 C -0.2969(3) 0.4783(3) 0.58874(18)
C5 C -0.1128(4) 0.6028(3) 0.77204(18)
H6 H -0.2300 0.5861 0.8062
H7 H -0.0086 0.5936 0.8202
C6 C -0.0709(4) 0.7759(3) 0.7638(2)
H8 H -0.1778 0.7865 0.7182
H9 H -0.0629 0.8560 0.8374
C7 C 0.1105(4) 0.8203(3) 0.7162(2)
H10 H 0.1270 0.9341 0.7145
H11 H 0.0984 0.7465 0.6403
C8 C 0.2860(5) 0.8075(4) 0.7796(3)
H12 H 0.2911 0.8700 0.8567
H13 H 0.3990 0.8524 0.7513
H14 H 0.2806 0.6920 0.7714
C9 C -0.0284(3) 0.2792(3) 0.75450(17)
C10 C 0.1607(3) 0.3049(3) 0.73681(19)
H15 H 0.1946 0.3273 0.6727
C11 C 0.2991(3) 0.2982(3) 0.8106(2)
H16 H 0.4278 0.3183 0.7984
C12 C 0.2485(4) 0.2619(3) 0.90266(19)
C13 C 0.0628(4) 0.2332(3) 0.92160(19)
H17 H 0.0295 0.2076 0.9848
C14 C -0.0752(3) 0.2422(3) 0.84734(18)
H18 H -0.2036 0.2226 0.8602
loop_
_geom_bond_atom_site_label_1
_geom_bond_atom_site_label_2
_geom_bond_site_symmetry_1
_geom_bond_site_symmetry_2
Br1 C12 1_555 1_555
N1 O1 1_555 1_555
O2 N1 1_555 1_555
O3 H1 1_555 1_555
O4 C4 1_555 1_555
C1 N1 1_555 1_555
H2 C1 1_555 1_555
H3 C1 1_555 1_555
C2 C1 1_555 1_555
H4 C2 1_555 1_555
C3 C2 1_555 1_555
H5 C3 1_555 1_555
C4 O3 1_555 1_555
C5 C3 1_555 1_555
H6 C5 1_555 1_555
H7 C5 1_555 1_555
C6 C5 1_555 1_555
H8 C6 1_555 1_555
H9 C6 1_555 1_555
C7 C6 1_555 1_555
H10 C7 1_555 1_555
H11 C7 1_555 1_555
C8 C7 1_555 1_555
H12 C8 1_555 1_555
H13 C8 1_555 1_555
H14 C8 1_555 1_555
C9 C2 1_555 1_555
C10 C9 1_555 1_555
H15 C10 1_555 1_555
C11 C10 1_555 1_555
H16 C11 1_555 1_555
C12 C11 1_555 1_555
C13 C12 1_555 1_555
H17 C13 1_555 1_555
C14 C9 1_555 1_555
H18 C14 1_555 1_555
C3 C4 1_555 1_555
C13 C14 1_555 1_555

#END
