
#######################################################################
#
#                 Cambridge Crystallographic Data Centre
#                                CCDC 
#
#######################################################################
#
# If this CIF has been generated from an entry in the Cambridge 
# Structural Database, then it will include bibliographic, chemical, 
# crystal, experimental, refinement or atomic coordinate data resulting 
# from the CCDC's data processing and validation procedures.
#
#######################################################################

data_HIXROX
_chemical_formula_moiety         'C29 H23 N1 O2'
_chemical_name_systematic        
2-(2'-methoxybiphenyl-4-yl)-6-(2-methoxyphenyl)quinoline
_symmetry_cell_setting           monoclinic
_symmetry_space_group_name_H-M   'P 21/n'
_symmetry_Int_Tables_number      14
_space_group_name_Hall           '-P 2yn'
loop_
_symmetry_equiv_pos_site_id
_symmetry_equiv_pos_as_xyz
1 x,y,z
2 1/2-x,1/2+y,1/2-z
3 -x,-y,-z
4 1/2+x,1/2-y,1/2+z
_cell_length_a                   12.397(5)
_cell_length_b                   13.109(5)
_cell_length_c                   13.546(5)
_cell_angle_alpha                90
_cell_angle_beta                 93.129(5)
_cell_angle_gamma                90
_cell_volume                     2198.11
_exptl_crystal_colour            yellow
_exptl_crystal_description       block
_cell_formula_units_Z            4
loop_
_atom_site_label
_atom_site_type_symbol
_atom_site_fract_x
_atom_site_fract_y
_atom_site_fract_z
C1 C 0.33250(17) 0.51057(18) -0.01114(18)
C2 C 0.3839(2) 0.45161(18) -0.08176(19)
H1 H 0.3997 0.4796 -0.1424
C3 C 0.4100(2) 0.3527(2) -0.05971(19)
H2 H 0.4417 0.3120 -0.1064
C4 C 0.38903(16) 0.31214(18) 0.03395(17)
C5 C 0.41706(17) 0.21013(18) 0.06261(19)
H3 H 0.4470 0.1665 0.0174
C6 C 0.39997(16) 0.17607(18) 0.15665(17)
C7 C 0.35247(17) 0.24428(17) 0.22195(18)
H4 H 0.3407 0.2225 0.2858
C8 C 0.32313(18) 0.34079(18) 0.19501(18)
H5 H 0.2905 0.3829 0.2399
C9 C 0.34159(16) 0.37724(17) 0.10056(18)
C10 C 0.42739(17) 0.06914(18) 0.18655(18)
C11 C 0.3921(2) -0.0123(2) 0.1281(2)
H6 H 0.3511 0.0008 0.0700
C12 C 0.4157(2) -0.1123(2) 0.1530(2)
H7 H 0.3911 -0.1655 0.1123
C13 C 0.4761(2) -0.1319(2) 0.2390(3)
H8 H 0.4919 -0.1990 0.2569
C14 C 0.5134(2) -0.0535(2) 0.2987(2)
H9 H 0.5553 -0.0676 0.3561
C15 C 0.48856(18) 0.04668(18) 0.27361(19)
C16 C 0.5894(3) 0.1126(2) 0.4166(2)
H10 H 0.5521 0.0695 0.4607
H11 H 0.6055 0.1767 0.4482
H12 H 0.6555 0.0802 0.3998
C17 C 0.29395(17) 0.61565(16) -0.03585(17)
C18 C 0.33703(18) 0.67348(19) -0.10819(19)
H13 H 0.3944 0.6477 -0.1420
C19 C 0.29760(18) 0.76812(18) -0.13163(18)
H14 H 0.3288 0.8055 -0.1810
C20 C 0.21216(16) 0.80988(17) -0.08366(16)
C21 C 0.16838(18) 0.75293(16) -0.00897(17)
H15 H 0.1114 0.7794 0.0249
C22 C 0.20886(18) 0.65737(17) 0.01540(18)
H16 H 0.1795 0.6204 0.0661
C23 C 0.17277(18) 0.91399(17) -0.10926(16)
C24 C 0.06248(19) 0.93779(17) -0.11966(17)
C25 C 0.0291(2) 1.03634(19) -0.14104(19)
H17 H -0.0443 1.0514 -0.1470
C26 C 0.1036(3) 1.1123(2) -0.1535(2)
H18 H 0.0803 1.1785 -0.1673
C27 C 0.2112(3) 1.0913(2) -0.1459(2)
H19 H 0.2613 1.1428 -0.1551
C28 C 0.2458(2) 0.99325(19) -0.12434(18)
H20 H 0.3195 0.9795 -0.1197
C29 C -0.1200(2) 0.8778(2) -0.1239(3)
H21 H -0.1412 0.9268 -0.0760
H22 H -0.1593 0.8155 -0.1160
H23 H -0.1355 0.9042 -0.1893
N1 N 0.31139(14) 0.47680(14) 0.07612(15)
O1 O 0.52298(14) 0.12932(13) 0.32907(14)
O2 O -0.00690(12) 0.85827(12) -0.10992(14)
loop_
_geom_bond_atom_site_label_1
_geom_bond_atom_site_label_2
_geom_bond_site_symmetry_1
_geom_bond_site_symmetry_2
C1 C2 1_555 1_555
C2 H1 1_555 1_555
C3 C2 1_555 1_555
H2 C3 1_555 1_555
C4 C3 1_555 1_555
C5 C4 1_555 1_555
H3 C5 1_555 1_555
C6 C5 1_555 1_555
C7 C6 1_555 1_555
H4 C7 1_555 1_555
C8 C7 1_555 1_555
H5 C8 1_555 1_555
C9 C4 1_555 1_555
C10 C6 1_555 1_555
C11 C10 1_555 1_555
H6 C11 1_555 1_555
C12 C11 1_555 1_555
H7 C12 1_555 1_555
C13 C12 1_555 1_555
H8 C13 1_555 1_555
C14 C13 1_555 1_555
H9 C14 1_555 1_555
C15 C10 1_555 1_555
C16 H10 1_555 1_555
H11 C16 1_555 1_555
H12 C16 1_555 1_555
C17 C1 1_555 1_555
C18 C17 1_555 1_555
H13 C18 1_555 1_555
C19 C18 1_555 1_555
H14 C19 1_555 1_555
C20 C19 1_555 1_555
C21 C20 1_555 1_555
H15 C21 1_555 1_555
C22 C17 1_555 1_555
H16 C22 1_555 1_555
C23 C20 1_555 1_555
C24 C23 1_555 1_555
C25 C24 1_555 1_555
H17 C25 1_555 1_555
C26 C25 1_555 1_555
H18 C26 1_555 1_555
C27 C26 1_555 1_555
H19 C27 1_555 1_555
C28 C23 1_555 1_555
H20 C28 1_555 1_555
C29 H21 1_555 1_555
H22 C29 1_555 1_555
H23 C29 1_555 1_555
N1 C1 1_555 1_555
O1 C15 1_555 1_555
O2 C24 1_555 1_555
C8 C9 1_555 1_555
C9 N1 1_555 1_555
C14 C15 1_555 1_555
C16 O1 1_555 1_555
C21 C22 1_555 1_555
C27 C28 1_555 1_555
C29 O2 1_555 1_555

#END
