
#######################################################################
#
#                 Cambridge Crystallographic Data Centre
#                                CCDC 
#
#######################################################################
#
# If this CIF has been generated from an entry in the Cambridge 
# Structural Database, then it will include bibliographic, chemical, 
# crystal, experimental, refinement or atomic coordinate data resulting 
# from the CCDC's data processing and validation procedures.
#
#######################################################################

data_HIXSOY
_chemical_formula_moiety         'C68 H44 Si1'
_chemical_name_systematic        
bis(7,10-Diphenylfluoranthen-8-yl)(diphenyl)silane
_symmetry_cell_setting           triclinic
_symmetry_space_group_name_H-M   'P -1'
_symmetry_Int_Tables_number      2
_space_group_name_Hall           '-P 1'
loop_
_symmetry_equiv_pos_site_id
_symmetry_equiv_pos_as_xyz
1 x,y,z
2 -x,-y,-z
_cell_length_a                   10.7328(18)
_cell_length_b                   14.526(2)
_cell_length_c                   16.453(3)
_cell_angle_alpha                89.774(3)
_cell_angle_beta                 76.306(3)
_cell_angle_gamma                79.437(2)
_cell_volume                     2447.86
_cell_formula_units_Z            2
loop_
_atom_site_label
_atom_site_type_symbol
_atom_site_fract_x
_atom_site_fract_y
_atom_site_fract_z
Si1 Si 0.76149(5) 0.73073(4) 0.26047(4)
C1 C 0.51758(19) 1.14086(14) 0.37271(12)
C2 C 0.93227(19) 0.75712(14) 0.09938(13)
C3 C 0.59394(18) 1.04526(13) 0.35059(12)
C4 C 0.69787(19) 0.85907(14) 0.28997(12)
C5 C 0.75742(19) 0.57426(14) -0.03061(13)
C6 C 0.88559(19) 0.67545(14) 0.31859(13)
C7 C 0.60011(19) 0.91345(14) 0.25584(12)
C8 C 0.82356(19) 0.63415(14) 0.01231(13)
C9 C 0.69746(19) 0.99532(14) 0.37921(12)
C10 C 0.74472(19) 0.90256(14) 0.34958(12)
H1 H 0.8110 0.8676 0.3705
C11 C 0.92639(19) 0.67552(14) -0.02994(13)
C12 C 0.98024(19) 0.73664(14) 0.01392(13)
C13 C 0.54684(18) 1.00446(14) 0.28830(12)
C14 C 0.7810(2) 0.65218(14) 0.09852(13)
H2 H 0.7147 0.6230 0.1278
C15 C 0.83190(19) 0.71157(14) 0.14410(13)
C16 C 0.7598(2) 1.03885(14) 0.43762(13)
C17 C 0.5612(2) 0.87941(15) 0.18066(14)
C18 C 0.43971(19) 1.07522(14) 0.26897(13)
C19 C 1.0007(2) 0.66645(15) -0.11828(13)
C20 C 0.62379(19) 0.66547(14) 0.30098(13)
C21 C 0.9830(2) 0.82968(15) 0.14010(14)
C22 C 1.0971(2) 0.72185(16) -0.12446(14)
C23 C 0.8634(2) 0.68735(17) 0.40553(14)
H3 H 0.7885 0.7275 0.4347
C24 C 0.42704(19) 1.15459(14) 0.32196(13)
C25 C 0.3375(2) 1.23793(16) 0.32293(15)
C26 C 0.5179(2) 1.21311(15) 0.42645(14)
H4 H 0.5752 1.2060 0.4615
C27 C 0.9986(2) 0.61224(16) 0.27914(15)
H5 H 1.0164 0.6012 0.2215
C28 C 1.0909(2) 0.76599(16) -0.04674(14)
C29 C 0.9987(2) 0.61637(16) -0.18888(14)
H6 H 0.9379 0.5777 -0.1867
C30 C 0.6387(2) 0.56944(16) 0.28408(16)
H7 H 0.7153 0.5383 0.2482
C31 C 0.3429(2) 1.31124(16) 0.37756(17)
H8 H 0.2870 1.3687 0.3795
C32 C 0.3572(2) 1.07907(17) 0.21621(16)
H9 H 0.3625 1.0283 0.1805
C33 C 0.6860(2) 0.61184(18) -0.08683(15)
H10 H 0.6814 0.6748 -0.0989
C34 C 0.5084(2) 0.70878(17) 0.35679(16)
H11 H 0.4957 0.7725 0.3701
C35 C 1.0906(2) 0.62472(19) -0.26456(15)
H12 H 1.0877 0.5923 -0.3125
C36 C 1.1843(2) 0.81833(18) -0.04233(17)
H13 H 1.1839 0.8479 0.0078
C37 C 1.0677(2) 0.80787(19) 0.19132(15)
H14 H 1.0969 0.7454 0.2010
C38 C 1.1921(2) 0.72885(19) -0.19802(16)
C39 C 0.2637(2) 1.1624(2) 0.21760(18)
H15 H 0.2071 1.1651 0.1824
C40 C 1.0845(2) 0.56585(18) 0.32262(17)
H16 H 1.1588 0.5245 0.2943
C41 C 0.4294(3) 1.29848(17) 0.42744(17)
H17 H 0.4301 1.3476 0.4633
C42 C 0.5429(2) 0.51940(19) 0.3191(2)
H18 H 0.5547 0.4557 0.3058
C43 C 0.8385(2) 1.10360(18) 0.40860(16)
H19 H 0.8510 1.1203 0.3530
C44 C 0.9495(2) 0.6412(2) 0.44941(16)
H20 H 0.9325 0.6511 0.5071
C45 C 1.1838(3) 0.6789(2) -0.26965(17)
H21 H 1.2423 0.6829 -0.3207
C46 C 0.7620(3) 0.48083(17) -0.01326(17)
H22 H 0.8081 0.4542 0.0249
C47 C 0.4680(3) 0.82350(19) 0.1864(2)
H23 H 0.4266 0.8046 0.2383
C48 C 0.8810(3) 1.1192(2) 0.5431(2)
H24 H 0.9222 1.1453 0.5785
C49 C 0.6172(3) 0.9075(2) 0.10299(17)
H25 H 0.6775 0.9470 0.0980
C50 C 0.6281(3) 0.4644(2) -0.10800(19)
H26 H 0.5852 0.4274 -0.1338
C51 C 0.6212(3) 0.5574(2) -0.12554(17)
H27 H 0.5735 0.5837 -0.1630
C52 C 1.0695(3) 0.9693(2) 0.2159(2)
H28 H 1.0965 1.0157 0.2426
C53 C 0.6977(3) 0.4263(2) -0.0528(2)
H29 H 0.7024 0.3632 -0.0413
C54 C 0.7430(3) 1.0152(2) 0.51995(15)
H30 H 0.6914 0.9714 0.5405
C55 C 1.1102(3) 0.8778(2) 0.22881(18)
H31 H 1.1675 0.8615 0.2632
C56 C 1.0603(2) 0.5807(2) 0.40784(18)
H32 H 1.1186 0.5499 0.4373
C57 C 0.4123(2) 0.6587(2) 0.39283(19)
H33 H 0.3362 0.6888 0.4298
C58 C 1.2804(3) 0.8259(2) -0.11564(19)
H34 H 1.3433 0.8614 -0.1129
C59 C 0.2536(2) 1.23857(18) 0.26834(18)
H35 H 0.1908 1.2916 0.2671
C60 C 1.2855(3) 0.7836(2) -0.19062(19)
H36 H 1.3509 0.7908 -0.2373
C61 C 0.9454(3) 0.92367(18) 0.1255(2)
H37 H 0.8905 0.9409 0.0896
C62 C 0.4368(4) 0.7959(3) 0.1142(3)
H38 H 0.3739 0.7586 0.1186
C63 C 0.4298(3) 0.5641(2) 0.3737(2)
H39 H 0.3654 0.5305 0.3977
C64 C 0.8028(4) 1.0565(3) 0.57248(19)
H40 H 0.7893 1.0412 0.6284
C65 C 0.8990(3) 1.1439(2) 0.4615(2)
H41 H 0.9514 1.1873 0.4414
C66 C 0.5852(4) 0.8778(3) 0.0320(2)
H42 H 0.6254 0.8965 -0.0203
C67 C 0.9894(3) 0.9925(2) 0.1642(2)
H43 H 0.9631 1.0552 0.1542
C68 C 0.4951(5) 0.8215(3) 0.0381(3)
H44 H 0.4741 0.8012 -0.0097
loop_
_geom_bond_atom_site_label_1
_geom_bond_atom_site_label_2
_geom_bond_site_symmetry_1
_geom_bond_site_symmetry_2
Si1 C4 1_555 1_555
C1 C3 1_555 1_555
C2 C12 1_555 1_555
C3 C9 1_555 1_555
C4 C7 1_555 1_555
C5 C8 1_555 1_555
C6 Si1 1_555 1_555
C7 C13 1_555 1_555
C8 C11 1_555 1_555
C9 C10 1_555 1_555
C10 C4 1_555 1_555
H1 C10 1_555 1_555
C11 C12 1_555 1_555
C12 C28 1_555 1_555
C13 C3 1_555 1_555
C14 C8 1_555 1_555
H2 C14 1_555 1_555
C15 Si1 1_555 1_555
C16 C9 1_555 1_555
C17 C7 1_555 1_555
C18 C13 1_555 1_555
C19 C11 1_555 1_555
C20 Si1 1_555 1_555
C21 C2 1_555 1_555
C22 C19 1_555 1_555
C23 C6 1_555 1_555
H3 C23 1_555 1_555
C24 C1 1_555 1_555
C25 C24 1_555 1_555
C26 C1 1_555 1_555
H4 C26 1_555 1_555
C27 C6 1_555 1_555
H5 C27 1_555 1_555
C28 C22 1_555 1_555
C29 C19 1_555 1_555
H6 C29 1_555 1_555
C30 C20 1_555 1_555
H7 C30 1_555 1_555
C31 C25 1_555 1_555
H8 C31 1_555 1_555
C32 C18 1_555 1_555
H9 C32 1_555 1_555
C33 C5 1_555 1_555
H10 C33 1_555 1_555
C34 C20 1_555 1_555
H11 C34 1_555 1_555
C35 C29 1_555 1_555
H12 C35 1_555 1_555
C36 C28 1_555 1_555
H13 C36 1_555 1_555
C37 C21 1_555 1_555
H14 C37 1_555 1_555
C38 C22 1_555 1_555
C39 C32 1_555 1_555
H15 C39 1_555 1_555
C40 C27 1_555 1_555
H16 C40 1_555 1_555
C41 C26 1_555 1_555
H17 C41 1_555 1_555
C42 C30 1_555 1_555
H18 C42 1_555 1_555
C43 C16 1_555 1_555
H19 C43 1_555 1_555
C44 C23 1_555 1_555
H20 C44 1_555 1_555
C45 C35 1_555 1_555
H21 C45 1_555 1_555
C46 C5 1_555 1_555
H22 C46 1_555 1_555
C47 C17 1_555 1_555
H23 C47 1_555 1_555
C48 H24 1_555 1_555
C49 C17 1_555 1_555
H25 C49 1_555 1_555
C50 H26 1_555 1_555
C51 C33 1_555 1_555
H27 C51 1_555 1_555
C52 H28 1_555 1_555
C53 C46 1_555 1_555
H29 C53 1_555 1_555
C54 C16 1_555 1_555
H30 C54 1_555 1_555
C55 C37 1_555 1_555
H31 C55 1_555 1_555
C56 C40 1_555 1_555
H32 C56 1_555 1_555
C57 C34 1_555 1_555
H33 C57 1_555 1_555
C58 C36 1_555 1_555
H34 C58 1_555 1_555
C59 C25 1_555 1_555
H35 C59 1_555 1_555
C60 C38 1_555 1_555
H36 C60 1_555 1_555
C61 C21 1_555 1_555
H37 C61 1_555 1_555
C62 C47 1_555 1_555
H38 C62 1_555 1_555
C63 C42 1_555 1_555
H39 C63 1_555 1_555
C64 C48 1_555 1_555
H40 C64 1_555 1_555
C65 C43 1_555 1_555
H41 C65 1_555 1_555
C66 C49 1_555 1_555
H42 C66 1_555 1_555
C67 C52 1_555 1_555
H43 C67 1_555 1_555
C68 C62 1_555 1_555
H44 C68 1_555 1_555
C2 C15 1_555 1_555
C14 C15 1_555 1_555
C18 C24 1_555 1_555
C31 C41 1_555 1_555
C38 C45 1_555 1_555
C39 C59 1_555 1_555
C44 C56 1_555 1_555
C48 C65 1_555 1_555
C50 C51 1_555 1_555
C50 C53 1_555 1_555
C52 C55 1_555 1_555
C54 C64 1_555 1_555
C57 C63 1_555 1_555
C58 C60 1_555 1_555
C61 C67 1_555 1_555
C66 C68 1_555 1_555

#END
