
#######################################################################
#
#                 Cambridge Crystallographic Data Centre
#                                CCDC 
#
#######################################################################
#
# If this CIF has been generated from an entry in the Cambridge 
# Structural Database, then it will include bibliographic, chemical, 
# crystal, experimental, refinement or atomic coordinate data resulting 
# from the CCDC's data processing and validation procedures.
#
#######################################################################

data_HIYKAB
_chemical_formula_moiety         'C22 H29 N1 O4'
_chemical_name_systematic        
cis,cis-N-(4-n-Butylphenyl)-5-carboxy-1,3,5-trimethylcyclohexane-1,3-dicarboximide
_symmetry_cell_setting           monoclinic
_symmetry_space_group_name_H-M   'P 21/n'
_symmetry_Int_Tables_number      14
_space_group_name_Hall           '-P 2yn'
loop_
_symmetry_equiv_pos_site_id
_symmetry_equiv_pos_as_xyz
1 x,y,z
2 1/2-x,1/2+y,1/2-z
3 -x,-y,-z
4 1/2+x,1/2-y,1/2+z
_cell_length_a                   13.2852(4)
_cell_length_b                   11.4419(3)
_cell_length_c                   13.5434(4)
_cell_angle_alpha                90
_cell_angle_beta                 98.438(2)
_cell_angle_gamma                90
_cell_volume                     2036.42
_exptl_crystal_colour            colorless
_exptl_crystal_description       platelet
_cell_formula_units_Z            4
_exptl_crystal_recrystallization_method benzene
loop_
_atom_site_label
_atom_site_type_symbol
_atom_site_fract_x
_atom_site_fract_y
_atom_site_fract_z
N1 N 0.74591(10) 0.19237(12) 0.02414(10)
O1 O 0.76918(10) 0.31137(11) -0.10464(9)
O2 O 0.71245(10) 0.07725(11) 0.15215(9)
O3 O 0.95628(10) 0.03681(10) 0.11449(9)
O4 O 0.99819(10) 0.14577(11) -0.01007(9)
C1 C 0.79795(13) 0.25833(15) 0.20094(12)
C2 C 0.78592(13) 0.37967(15) 0.15453(13)
H1 H 0.81817 0.43692 0.20173
H2 H 0.71420 0.39892 0.13949
C3 C 0.83397(12) 0.38469(14) 0.05908(13)
C4 C 0.94890(12) 0.35628(14) 0.08335(13)
H3 H 0.97631 0.35103 0.02094
H4 H 0.98243 0.42132 0.12061
C5 C 0.97702(13) 0.24336(14) 0.14311(12)
C6 C 0.91269(13) 0.23002(15) 0.22756(12)
H5 H 0.94109 0.28049 0.28216
H6 H 0.91927 0.15016 0.25168
C7 C 0.74904(15) 0.2533(2) 0.29643(13)
H7 H 0.7802 0.3105 0.3430
H8 H 0.7587 0.1768 0.3255
H9 H 0.6776 0.2693 0.2807
C8 C 0.82191(14) 0.50660(15) 0.01189(14)
H10 H 0.8588 0.5625 0.0561
H11 H 0.7512 0.5274 0.0004
H12 H 0.8483 0.5062 -0.0504
C9 C 0.97479(12) 0.13683(15) 0.07541(12)
C10 C 1.09075(13) 0.2496(2) 0.18967(14)
H13 H 1.1016 0.3169 0.2323
H14 H 1.13218 0.2556 0.13746
H15 H 1.1088 0.1803 0.2281
C11 C 0.78143(12) 0.29638(14) -0.01507(12)
C12 C 0.74848(13) 0.16820(15) 0.12671(12)
C13 C 0.69471(13) 0.10892(14) -0.04726(12)
C14 C 0.59043(13) 0.09616(14) -0.05485(12)
H16 H 0.55383 0.14060 -0.01491
C15 C 0.54045(13) 0.01632(14) -0.12270(12)
H17 H 0.47050 0.00644 -0.12653
C16 C 0.59349(13) -0.04880(15) -0.18476(12)
C17 C 0.69855(13) -0.0324(2) -0.17714(13)
H18 H 0.73511 -0.0742 -0.21890
C18 C 0.74925(13) 0.0450(2) -0.10842(13)
H19 H 0.81939 0.0541 -0.10337
C19 C 0.53923(14) -0.13426(15) -0.25942(13)
H20 H 0.55524 -0.11504 -0.32512
H21 H 0.46644 -0.12462 -0.26129
C20 C 0.56632(15) -0.2621(2) -0.23738(13)
H22 H 0.52933 -0.3100 -0.28965
H23 H 0.63837 -0.2727 -0.23974
C21 C 0.5431(2) -0.3056(2) -0.13735(14)
H24 H 0.4748 -0.2821 -0.12884
H25 H 0.5902 -0.2701 -0.08425
C22 C 0.5520(2) -0.4383(2) -0.1298(2)
H26 H 0.4987 -0.4736 -0.1757
H27 H 0.5460 -0.4625 -0.0630
H28 H 0.6168 -0.4624 -0.1459
H29 H 0.9594 -0.0263 0.0695
loop_
_geom_bond_atom_site_label_1
_geom_bond_atom_site_label_2
_geom_bond_site_symmetry_1
_geom_bond_site_symmetry_2
N1 C11 1_555 1_555
O1 C11 1_555 1_555
O2 C12 1_555 1_555
O3 C9 1_555 1_555
O4 C9 1_555 1_555
C1 C2 1_555 1_555
C2 H1 1_555 1_555
H2 C2 1_555 1_555
C3 C2 1_555 1_555
C4 C3 1_555 1_555
H3 C4 1_555 1_555
H4 C4 1_555 1_555
C5 C4 1_555 1_555
C6 C1 1_555 1_555
H5 C6 1_555 1_555
H6 C6 1_555 1_555
C7 C1 1_555 1_555
H7 C7 1_555 1_555
H8 C7 1_555 1_555
H9 C7 1_555 1_555
C8 C3 1_555 1_555
H10 C8 1_555 1_555
H11 C8 1_555 1_555
H12 C8 1_555 1_555
C9 C5 1_555 1_555
C10 C5 1_555 1_555
H13 C10 1_555 1_555
H14 C10 1_555 1_555
H15 C10 1_555 1_555
C11 C3 1_555 1_555
C12 N1 1_555 1_555
C13 N1 1_555 1_555
C14 C13 1_555 1_555
H16 C14 1_555 1_555
C15 C14 1_555 1_555
H17 C15 1_555 1_555
C16 C15 1_555 1_555
C17 C16 1_555 1_555
H18 C17 1_555 1_555
C18 C13 1_555 1_555
H19 C18 1_555 1_555
C19 C16 1_555 1_555
H20 C19 1_555 1_555
H21 C19 1_555 1_555
C20 C19 1_555 1_555
H22 C20 1_555 1_555
H23 C20 1_555 1_555
C21 C20 1_555 1_555
H24 C21 1_555 1_555
H25 C21 1_555 1_555
C22 C21 1_555 1_555
H26 C22 1_555 1_555
H27 C22 1_555 1_555
H28 C22 1_555 1_555
H29 O3 1_555 1_555
C1 C12 1_555 1_555
C5 C6 1_555 1_555
C17 C18 1_555 1_555

#END
