
#######################################################################
#
#                 Cambridge Crystallographic Data Centre
#                                CCDC 
#
#######################################################################
#
# If this CIF has been generated from an entry in the Cambridge 
# Structural Database, then it will include bibliographic, chemical, 
# crystal, experimental, refinement or atomic coordinate data resulting 
# from the CCDC's data processing and validation procedures.
#
#######################################################################

data_HIYWIX
_chemical_formula_moiety         'C24 H22 F3 N1 O2 S1 Si1'
_chemical_name_systematic        
2-Phenyl-1-((2-(trifluoromethyl)phenyl)sulfonyl)-3-(trimethylsilyl)-1H-indole
_symmetry_cell_setting           monoclinic
_symmetry_space_group_name_H-M   'P 21/c'
_symmetry_Int_Tables_number      14
_space_group_name_Hall           '-P 2ybc'
loop_
_symmetry_equiv_pos_site_id
_symmetry_equiv_pos_as_xyz
1 x,y,z
2 -x,1/2+y,1/2-z
3 -x,-y,-z
4 x,1/2-y,1/2+z
_cell_length_a                   12.927(2)
_cell_length_b                   10.4922(16)
_cell_length_c                   16.826(3)
_cell_angle_alpha                90
_cell_angle_beta                 95.739(3)
_cell_angle_gamma                90
_cell_volume                     2270.72
_exptl_crystal_colour            colorless
_exptl_crystal_description       Prism
_cell_formula_units_Z            4
loop_
_atom_site_label
_atom_site_type_symbol
_atom_site_fract_x
_atom_site_fract_y
_atom_site_fract_z
S1 S 0.07085(2) 0.38219(3) 0.678524(19)
Si1 Si 0.44074(3) 0.20051(4) 0.84562(2)
O1 O 0.01325(9) 0.28380(12) 0.71257(7)
O2 O 0.03043(9) 0.50835(12) 0.67614(7)
N1 N 0.18830(9) 0.38707(11) 0.72912(7)
C1 C 0.22676(10) 0.48688(13) 0.78049(8)
C2 C 0.18955(12) 0.61012(14) 0.79011(9)
H1 H 0.1281 0.6399 0.7601
C3 C 0.24608(14) 0.68700(15) 0.84522(10)
H2 H 0.2222 0.7710 0.8540
C4 C 0.33719(14) 0.64442(16) 0.88821(11)
H3 H 0.3750 0.7003 0.9248
C5 C 0.37331(12) 0.52197(14) 0.87835(9)
H4 H 0.4357 0.4938 0.9078
C6 C 0.31688(10) 0.43980(13) 0.82443(8)
C7 C 0.33295(10) 0.30742(13) 0.80182(8)
C8 C 0.25426(10) 0.27878(12) 0.74448(7)
C9 C 0.23913(10) 0.16136(13) 0.69516(7)
C10 C 0.17307(12) 0.06335(14) 0.71432(8)
H5 H 0.1344 0.0716 0.7592
C11 C 0.16375(14) -0.04640(15) 0.66788(10)
H6 H 0.1198 -0.1137 0.6817
C12 C 0.21839(15) -0.05786(16) 0.60150(11)
H7 H 0.2111 -0.1324 0.5694
C13 C 0.28384(14) 0.03956(16) 0.58188(10)
H8 H 0.3210 0.0318 0.5362
C14 C 0.29503(12) 0.14829(14) 0.62895(9)
H9 H 0.3410 0.2141 0.6160
C15 C 0.09093(10) 0.33331(14) 0.57973(8)
C16 C 0.03789(13) 0.22345(16) 0.55418(9)
H10 H -0.0011 0.1781 0.5899
C17 C 0.04148(15) 0.17936(19) 0.47668(10)
H11 H 0.0052 0.1038 0.4597
C18 C 0.09737(15) 0.2448(2) 0.42447(10)
H12 H 0.0997 0.2145 0.3715
C19 C 0.15015(14) 0.35461(18) 0.44928(9)
H13 H 0.1884 0.3993 0.4128
C20 C 0.14848(11) 0.40101(13) 0.52654(8)
C21 C 0.41635(18) 0.02987(16) 0.82255(13)
H14 H 0.4145 0.0165 0.7648
H15 H 0.3496 0.0046 0.8406
H16 H 0.4721 -0.0217 0.8500
C22 C 0.44919(18) 0.2165(2) 0.95678(11)
H17 H 0.4983 0.1534 0.9815
H18 H 0.3804 0.2022 0.9749
H19 H 0.4733 0.3024 0.9722
C23 C 0.56411(16) 0.2510(3) 0.8087(2)
H20 H 0.6213 0.1993 0.8342
H21 H 0.5768 0.3410 0.8217
H22 H 0.5597 0.2393 0.7507
C24 C 0.2179(3) 0.5120(3) 0.5533(2)
F1 F 0.2447(4) 0.5717(6) 0.4889(3)
F2 F 0.30671(19) 0.4771(2) 0.59489(19)
F3 F 0.17583(19) 0.60101(19) 0.59617(17)
C25? C 0.2032(3) 0.5274(3) 0.5386(4)
F4? F 0.2660(6) 0.5632(10) 0.4850(3)
F5? F 0.2604(5) 0.5261(6) 0.6089(2)
F6? F 0.1349(4) 0.6215(3) 0.5409(5)
loop_
_geom_bond_atom_site_label_1
_geom_bond_atom_site_label_2
_geom_bond_site_symmetry_1
_geom_bond_site_symmetry_2
S1 O1 1_555 1_555
Si1 C7 1_555 1_555
O2 S1 1_555 1_555
N1 S1 1_555 1_555
C1 N1 1_555 1_555
C2 C1 1_555 1_555
H1 C2 1_555 1_555
C3 C2 1_555 1_555
H2 C3 1_555 1_555
C4 C3 1_555 1_555
H3 C4 1_555 1_555
C5 C4 1_555 1_555
H4 C5 1_555 1_555
C6 C1 1_555 1_555
C7 C6 1_555 1_555
C8 N1 1_555 1_555
C9 C8 1_555 1_555
C10 C9 1_555 1_555
H5 C10 1_555 1_555
C11 C10 1_555 1_555
H6 C11 1_555 1_555
C12 C11 1_555 1_555
H7 C12 1_555 1_555
C13 C12 1_555 1_555
H8 C13 1_555 1_555
C14 C9 1_555 1_555
H9 C14 1_555 1_555
C15 S1 1_555 1_555
C16 C15 1_555 1_555
H10 C16 1_555 1_555
C17 C16 1_555 1_555
H11 C17 1_555 1_555
C18 C17 1_555 1_555
H12 C18 1_555 1_555
C19 C18 1_555 1_555
H13 C19 1_555 1_555
C20 C15 1_555 1_555
C21 Si1 1_555 1_555
H14 C21 1_555 1_555
H15 C21 1_555 1_555
H16 C21 1_555 1_555
C22 Si1 1_555 1_555
H17 C22 1_555 1_555
H18 C22 1_555 1_555
H19 C22 1_555 1_555
C23 Si1 1_555 1_555
H20 C23 1_555 1_555
H21 C23 1_555 1_555
H22 C23 1_555 1_555
C24 C20 1_555 1_555
F1 C24 1_555 1_555
F2 C24 1_555 1_555
F3 C24 1_555 1_555
C5 C6 1_555 1_555
C7 C8 1_555 1_555
C13 C14 1_555 1_555
C19 C20 1_555 1_555

#END
