
#######################################################################
#
#                 Cambridge Crystallographic Data Centre
#                                CCDC 
#
#######################################################################
#
# If this CIF has been generated from an entry in the Cambridge 
# Structural Database, then it will include bibliographic, chemical, 
# crystal, experimental, refinement or atomic coordinate data resulting 
# from the CCDC's data processing and validation procedures.
#
#######################################################################

data_HIYXES
_chemical_formula_moiety         'C18 H44 B8 Si2'
_chemical_name_systematic        
nido-2,8-bis(Trimethylsilyl)-3,9-di-n-butyl-2,3,8,9-tetracarbadodecaborane
_symmetry_cell_setting           orthorhombic
_symmetry_space_group_name_H-M   'P b c a'
_symmetry_Int_Tables_number      61
_space_group_name_Hall           '-P 2ac 2ab'
loop_
_symmetry_equiv_pos_site_id
_symmetry_equiv_pos_as_xyz
1 x,y,z
2 1/2-x,-y,1/2+z
3 1/2+x,1/2-y,-z
4 -x,1/2+y,1/2-z
5 -x,-y,-z
6 1/2+x,y,1/2-z
7 1/2-x,1/2+y,z
8 x,1/2-y,1/2+z
_cell_length_a                   16.465(2)
_cell_length_b                   17.225(2)
_cell_length_c                   18.898(2)
_cell_angle_alpha                90
_cell_angle_beta                 90
_cell_angle_gamma                90
_cell_volume                     5359.65
_chemical_melting_point          60-62deg.C
_cell_formula_units_Z            8
loop_
_atom_site_label
_atom_site_type_symbol
_atom_site_fract_x
_atom_site_fract_y
_atom_site_fract_z
Si1 Si 0.2339(2) 0.8928(2) 0.4017(1)
Si2 Si 0.1562(2) 0.8507(2) 0.1416(1)
C1 C 0.2635(5) 0.9537(4) 0.3235(4)
C2 C 0.2207(5) 1.0119(4) 0.2853(4)
C3 C 0.2421(5) 0.9117(4) 0.1750(4)
C4 C 0.3196(5) 0.8897(5) 0.2002(4)
B1 B 0.3544(6) 0.9474(6) 0.2952(5)
B2 B 0.3116(6) 1.0400(7) 0.3248(6)
B3 B 0.2776(6) 1.0746(5) 0.2412(5)
B4 B 0.2340(6) 1.0041(7) 0.1752(5)
B5 B 0.3169(6) 0.9552(7) 0.1305(5)
B6 B 0.3902(6) 0.9584(6) 0.2009(5)
B7 B 0.3801(6) 1.0409(6) 0.2548(6)
B8 B 0.3383(6) 1.0442(6) 0.1686(6)
C5 C 0.1342(4) 1.0373(5) 0.3026(4)
C6 C 0.1319(5) 1.0953(5) 0.3631(5)
C7 C 0.0463(5) 1.1202(6) 0.3820(5)
C8 C 0.0414(6) 1.1765(7) 0.4406(6)
C9 C 0.3487(5) 0.8058(5) 0.2033(4)
C10 C 0.4031(5) 0.7815(5) 0.1432(5)
C11 C 0.4303(6) 0.6975(6) 0.1480(5)
C12 C 0.4889(6) 0.6729(5) 0.0915(5)
C13 C 0.1267(6) 0.8995(6) 0.4294(6)
C14 C 0.2984(6) 0.9245(7) 0.4765(5)
C15 C 0.2564(7) 0.7900(5) 0.3808(5)
C16 C 0.1931(6) 0.7799(6) 0.0757(6)
C17 C 0.0797(6) 0.9142(6) 0.0987(5)
C18 C 0.1073(6) 0.8001(6) 0.2162(5)
H1 H 0.3932 0.9023 0.3244
H2 H 0.3209 1.0689 0.3753
H3 H 0.2537 1.1440 0.2427
H4 H 0.1722 1.0293 0.1537
H5 H 0.3362 0.9501 0.0720
H6 H 0.4549 0.9244 0.1902
H7 H 0.4315 1.0741 0.2681
H8 H 0.3612 1.0992 0.1267
H9 H 0.1033 0.9924 0.3158
H10 H 0.1106 1.0607 0.2613
H11 H 0.1623 1.1404 0.3494
H12 H 0.1564 1.0721 0.4040
H13 H 0.0161 1.0748 0.3952
H14 H 0.0221 1.1433 0.3409
H15 H -0.0145 1.1893 0.4493
H16 H 0.0707 1.2228 0.4282
H17 H 0.0647 1.1543 0.4825
H18 H 0.3017 0.7727 0.2033
H19 H 0.3781 0.7988 0.2467
H20 H 0.3740 0.7884 0.0996
H21 H 0.4505 0.8140 0.1432
H22 H 0.3830 0.6650 0.1447
H23 H 0.4558 0.6899 0.1932
H24 H 0.5031 0.6194 0.0981
H25 H 0.5370 0.7043 0.0943
H26 H 0.4642 0.6794 0.0459
H27 H 0.0922 0.8831 0.3913
H28 H 0.1143 0.9522 0.4417
H29 H 0.1179 0.8666 0.4697
H30 H 0.2852 0.8946 0.5178
H31 H 0.2888 0.9785 0.4858
H32 H 0.3545 0.9168 0.4647
H33 H 0.3121 0.7853 0.3663
H34 H 0.2215 0.7727 0.3434
H35 H 0.2475 0.7587 0.4221
H36 H 0.2327 0.7466 0.0973
H37 H 0.2174 0.8070 0.0367
H38 H 0.1484 0.7492 0.0589
H39 H 0.0398 0.8828 0.0753
H40 H 0.1061 0.9470 0.0647
H41 H 0.0536 0.9457 0.1339
H42 H 0.1463 0.7669 0.2389
H43 H 0.0629 0.7693 0.1989
H44 H 0.0873 0.8374 0.2497
loop_
_geom_bond_atom_site_label_1
_geom_bond_atom_site_label_2
_geom_bond_site_symmetry_1
_geom_bond_site_symmetry_2
Si1 C1 1_555 1_555
Si2 C3 1_555 1_555
C1 C2 1_555 1_555
C2 B2 1_555 1_555
C3 C4 1_555 1_555
C4 B5 1_555 1_555
B1 C1 1_555 1_555
B2 C1 1_555 1_555
B3 C2 1_555 1_555
B4 C3 1_555 1_555
B5 C3 1_555 1_555
B6 C4 1_555 1_555
B7 B1 1_555 1_555
B8 B3 1_555 1_555
C5 C2 1_555 1_555
C6 C5 1_555 1_555
C7 C6 1_555 1_555
C8 C7 1_555 1_555
C9 C4 1_555 1_555
C10 C9 1_555 1_555
C11 C10 1_555 1_555
C12 C11 1_555 1_555
C13 Si1 1_555 1_555
C14 Si1 1_555 1_555
C15 Si1 1_555 1_555
C16 Si2 1_555 1_555
C17 Si2 1_555 1_555
C18 Si2 1_555 1_555
H1 B1 1_555 1_555
H2 B2 1_555 1_555
H3 B3 1_555 1_555
H4 B4 1_555 1_555
H5 B5 1_555 1_555
H6 B6 1_555 1_555
H7 B7 1_555 1_555
H8 B8 1_555 1_555
H9 C5 1_555 1_555
H10 C5 1_555 1_555
H11 C6 1_555 1_555
H12 C6 1_555 1_555
H13 C7 1_555 1_555
H14 C7 1_555 1_555
H15 C8 1_555 1_555
H16 C8 1_555 1_555
H17 C8 1_555 1_555
H18 C9 1_555 1_555
H19 C9 1_555 1_555
H20 C10 1_555 1_555
H21 C10 1_555 1_555
H22 C11 1_555 1_555
H23 C11 1_555 1_555
H24 C12 1_555 1_555
H25 C12 1_555 1_555
H26 C12 1_555 1_555
H27 C13 1_555 1_555
H28 C13 1_555 1_555
H29 C13 1_555 1_555
H30 C14 1_555 1_555
H31 C14 1_555 1_555
H32 C14 1_555 1_555
H33 C15 1_555 1_555
H34 C15 1_555 1_555
H35 C15 1_555 1_555
H36 C16 1_555 1_555
H37 C16 1_555 1_555
H38 C16 1_555 1_555
H39 C17 1_555 1_555
H40 C17 1_555 1_555
H41 C17 1_555 1_555
H42 C18 1_555 1_555
H43 C18 1_555 1_555
H44 C18 1_555 1_555
B1 B6 1_555 1_555
B1 B2 1_555 1_555
B2 B3 1_555 1_555
B2 B7 1_555 1_555
B3 B4 1_555 1_555
B3 B7 1_555 1_555
B4 B8 1_555 1_555
B4 B5 1_555 1_555
B5 B6 1_555 1_555
B5 B8 1_555 1_555
B6 B8 1_555 1_555
B6 B7 1_555 1_555
B7 B8 1_555 1_555

#END
