
#######################################################################
#
#                 Cambridge Crystallographic Data Centre
#                                CCDC 
#
#######################################################################
#
# If this CIF has been generated from an entry in the Cambridge 
# Structural Database, then it will include bibliographic, chemical, 
# crystal, experimental, refinement or atomic coordinate data resulting 
# from the CCDC's data processing and validation procedures.
#
#######################################################################

data_HOBCOR
_chemical_formula_moiety         'C36 H34 N2'
_chemical_name_systematic        
1^9^,4^9^-di-n-butyl-1,4(3,6)-dicarbazolacyclohexaphane-2,5-diene
_symmetry_cell_setting           orthorhombic
_symmetry_space_group_name_H-M   'P b c a'
_symmetry_Int_Tables_number      61
_space_group_name_Hall           '-P 2ac 2ab'
loop_
_symmetry_equiv_pos_site_id
_symmetry_equiv_pos_as_xyz
1 x,y,z
2 1/2-x,-y,1/2+z
3 -x,1/2+y,1/2-z
4 1/2+x,1/2-y,-z
5 -x,-y,-z
6 1/2+x,y,1/2-z
7 x,1/2-y,1/2+z
8 1/2-x,1/2+y,z
_cell_length_a                   15.618(3)
_cell_length_b                   8.4122(17)
_cell_length_c                   19.403(4)
_cell_angle_alpha                90
_cell_angle_beta                 90
_cell_angle_gamma                90
_cell_volume                     2549.2
_chemical_melting_point          '260 deg.C'
_cell_formula_units_Z            4
_exptl_crystal_recrystallization_method dichloromethane
loop_
_atom_site_label
_atom_site_type_symbol
_atom_site_fract_x
_atom_site_fract_y
_atom_site_fract_z
N1 N 0.12929(13) 0.0186(3) 0.47465(10)
C1 C 0.13064(16) 0.1102(3) 0.53410(12)
C2 C 0.18758(16) 0.1066(3) 0.58868(13)
H1 H 0.2289 0.0275 0.5923
C3 C 0.18041(16) 0.2263(3) 0.63787(13)
H2 H 0.2185 0.2266 0.6747
C4 C 0.11811(16) 0.3469(3) 0.63440(12)
C5 C 0.05691(16) 0.3383(3) 0.58228(12)
H3 H 0.0109 0.4085 0.5820
C6 C 0.06489(15) 0.2247(3) 0.53084(12)
C7 C 0.02363(15) 0.2043(3) 0.46462(12)
C8 C -0.03653(15) 0.2947(3) 0.42890(12)
H4 H -0.0673 0.3735 0.4517
C9 C -0.05053(15) 0.2671(3) 0.35930(12)
C10 C -0.01111(15) 0.1330(3) 0.32914(13)
H5 H -0.0239 0.1087 0.2835
C11 C 0.04525(16) 0.0369(3) 0.36394(13)
H6 H 0.0688 -0.0525 0.3431
C12 C 0.06591(15) 0.0777(3) 0.43132(12)
C13 C -0.10015(15) 0.3712(3) 0.31278(13)
H7 H -0.1186 0.3187 0.2733
C14 C 0.12472(16) 0.4758(3) 0.68560(13)
H8 H 0.1521 0.4440 0.7259
C15 C 0.18338(16) -0.1189(3) 0.46228(13)
H9 H 0.1522 -0.1940 0.4338
H10 H 0.1951 -0.1704 0.5060
C16 C 0.26835(16) -0.0808(3) 0.42725(13)
H11 H 0.2964 0.0036 0.4528
H12 H 0.3048 -0.1740 0.4297
C17 C 0.26065(16) -0.0306(3) 0.35269(13)
H13 H 0.2276 0.0669 0.3504
H14 H 0.2294 -0.1117 0.3276
C18 C 0.34633(17) -0.0037(4) 0.31760(15)
H15 H 0.3766 0.0801 0.3407
H16 H 0.3371 0.0253 0.2703
H17 H 0.3795 -0.0997 0.3196
N1D N -0.12929(13) 0.9814(3) 0.52535(10)
C1D C -0.13064(16) 0.8898(3) 0.46590(12)
C2D C -0.18758(16) 0.8934(3) 0.41132(13)
H1D H -0.2289 0.9725 0.4077
C3D C -0.18041(16) 0.7737(3) 0.36213(13)
H2D H -0.2185 0.7734 0.3253
C4D C -0.11811(16) 0.6531(3) 0.36560(12)
C5D C -0.05691(16) 0.6617(3) 0.41772(12)
H3D H -0.0109 0.5915 0.4180
C6D C -0.06489(15) 0.7753(3) 0.46916(12)
C7D C -0.02363(15) 0.7957(3) 0.53538(12)
C8D C 0.03653(15) 0.7053(3) 0.57110(12)
H4D H 0.0673 0.6265 0.5483
C9D C 0.05053(15) 0.7329(3) 0.64070(12)
C10D C 0.01111(15) 0.8670(3) 0.67086(13)
H5D H 0.0239 0.8913 0.7165
C11D C -0.04525(16) 0.9631(3) 0.63606(13)
H6D H -0.0688 1.0525 0.6569
C12D C -0.06591(15) 0.9223(3) 0.56868(12)
C13D C 0.10015(15) 0.6288(3) 0.68722(13)
H7D H 0.1186 0.6813 0.7267
C14D C -0.12472(16) 0.5242(3) 0.31440(13)
H8D H -0.1521 0.5560 0.2741
C15D C -0.18338(16) 1.1189(3) 0.53772(13)
H9D H -0.1522 1.1940 0.5662
H10D H -0.1951 1.1704 0.4940
C16D C -0.26835(16) 1.0808(3) 0.57275(13)
H11D H -0.2964 0.9964 0.5472
H12D H -0.3048 1.1740 0.5703
C17D C -0.26065(16) 1.0306(3) 0.64731(13)
H13D H -0.2276 0.9331 0.6496
H14D H -0.2294 1.1117 0.6724
C18D C -0.34633(17) 1.0037(4) 0.68240(15)
H15D H -0.3766 0.9199 0.6593
H16D H -0.3371 0.9747 0.7297
H17D H -0.3795 1.0997 0.6804
loop_
_geom_bond_atom_site_label_1
_geom_bond_atom_site_label_2
_geom_bond_site_symmetry_1
_geom_bond_site_symmetry_2
N1 C1 1_555 1_555
C1 C2 1_555 1_555
C2 H1 1_555 1_555
C3 C2 1_555 1_555
H2 C3 1_555 1_555
C4 C3 1_555 1_555
C5 C4 1_555 1_555
H3 C5 1_555 1_555
C6 C1 1_555 1_555
C7 C6 1_555 1_555
C8 C7 1_555 1_555
H4 C8 1_555 1_555
C9 C8 1_555 1_555
C10 C9 1_555 1_555
H5 C10 1_555 1_555
C11 C10 1_555 1_555
H6 C11 1_555 1_555
C12 N1 1_555 1_555
C13 C9 1_555 1_555
H7 C13 1_555 1_555
C14 C4 1_555 1_555
H8 C14 1_555 1_555
C15 N1 1_555 1_555
H9 C15 1_555 1_555
H10 C15 1_555 1_555
C16 C15 1_555 1_555
H11 C16 1_555 1_555
H12 C16 1_555 1_555
C17 C16 1_555 1_555
H13 C17 1_555 1_555
H14 C17 1_555 1_555
C18 C17 1_555 1_555
H15 C18 1_555 1_555
H16 C18 1_555 1_555
H17 C18 1_555 1_555
N1D C1D 1_555 1_555
C1D C2D 1_555 1_555
C2D H1D 1_555 1_555
C3D C2D 1_555 1_555
H2D C3D 1_555 1_555
C4D C3D 1_555 1_555
C5D C4D 1_555 1_555
H3D C5D 1_555 1_555
C6D C1D 1_555 1_555
C7D C6D 1_555 1_555
C8D C7D 1_555 1_555
H4D C8D 1_555 1_555
C9D C8D 1_555 1_555
C10D C9D 1_555 1_555
H5D C10D 1_555 1_555
C11D C10D 1_555 1_555
H6D C11D 1_555 1_555
C12D N1D 1_555 1_555
C13D C14 1_555 1_555
H7D C13D 1_555 1_555
C14D C13 1_555 1_555
H8D C14D 1_555 1_555
C15D N1D 1_555 1_555
H9D C15D 1_555 1_555
H10D C15D 1_555 1_555
C16D C15D 1_555 1_555
H11D C16D 1_555 1_555
H12D C16D 1_555 1_555
C17D C16D 1_555 1_555
H13D C17D 1_555 1_555
H14D C17D 1_555 1_555
C18D C17D 1_555 1_555
H15D C18D 1_555 1_555
H16D C18D 1_555 1_555
H17D C18D 1_555 1_555
C5 C6 1_555 1_555
C7 C12 1_555 1_555
C11 C12 1_555 1_555
C4D C14D 1_555 1_555
C5D C6D 1_555 1_555
C7D C12D 1_555 1_555
C9D C13D 1_555 1_555
C11D C12D 1_555 1_555

#END
