
#######################################################################
#
#                 Cambridge Crystallographic Data Centre
#                                CCDC 
#
#######################################################################
#
# If this CIF has been generated from an entry in the Cambridge 
# Structural Database, then it will include bibliographic, chemical, 
# crystal, experimental, refinement or atomic coordinate data resulting 
# from the CCDC's data processing and validation procedures.
#
#######################################################################

data_HOBFUB
_chemical_formula_moiety         'C27 H27 N1 O5'
_chemical_name_systematic        
'benzyl 2,6-bis(4-methoxyphenyl)-4-oxopiperidine-1-carboxylate'
_symmetry_cell_setting           monoclinic
_symmetry_space_group_name_H-M   'C 2/c'
_symmetry_Int_Tables_number      15
_space_group_name_Hall           '-C 2yn'
loop_
_symmetry_equiv_pos_site_id
_symmetry_equiv_pos_as_xyz
1 x,y,z
2 -x,y,1/2-z
3 1/2+x,1/2+y,z
4 1/2-x,1/2+y,1/2-z
5 -x,-y,-z
6 x,-y,1/2+z
7 1/2-x,1/2-y,-z
8 1/2+x,1/2-y,1/2+z
_cell_length_a                   27.410(3)
_cell_length_b                   7.7863(8)
_cell_length_c                   22.292(2)
_cell_angle_alpha                90
_cell_angle_beta                 107.210(1)
_cell_angle_gamma                90
_cell_volume                     4544.6
_exptl_crystal_colour            colorless
_exptl_crystal_description       Plate
_cell_formula_units_Z            8
loop_
_atom_site_label
_atom_site_type_symbol
_atom_site_fract_x
_atom_site_fract_y
_atom_site_fract_z
O1 O 0.03105(6) 1.37534(19) 0.32778(8)
O2 O 0.24671(4) 1.15960(16) 0.58677(6)
O3 O -0.16106(4) 0.68174(17) 0.17847(6)
O4 O -0.00324(4) 0.72925(15) 0.47014(5)
O5 O 0.07638(4) 0.69322(14) 0.46088(5)
N1 N 0.02896(5) 0.91275(16) 0.41195(6)
C1 C 0.07272(6) 0.9578(2) 0.38934(7)
H1 H 0.0843 0.8497 0.3735
C2 C 0.05589(7) 1.0820(2) 0.33360(7)
H2 H 0.0866 1.1254 0.3238
H3 H 0.0351 1.0182 0.2964
C3 C 0.02571(7) 1.2314(2) 0.34504(8)
C4 C -0.01164(7) 1.1927(2) 0.38036(8)
H4 H -0.0448 1.2457 0.3578
H5 H 0.0005 1.2473 0.4223
C5 C -0.02022(6) 1.0010(2) 0.38925(7)
H6 H -0.0369 0.9923 0.4234
C6 C 0.11752(6) 1.02535(19) 0.44183(7)
C7 C 0.11198(6) 1.0994(2) 0.49587(7)
H7 H 0.0786 1.1170 0.4994
C8 C 0.15397(6) 1.1485(2) 0.54495(8)
H8 H 0.1493 1.1992 0.5817
C9 C 0.20246(6) 1.1234(2) 0.54016(8)
C10 C 0.20894(6) 1.0533(2) 0.48574(8)
H9 H 0.2423 1.0389 0.4819
C11 C 0.16703(6) 1.0049(2) 0.43747(8)
H10 H 0.1718 0.9566 0.4005
C12 C 0.24220(8) 1.2352(3) 0.64246(10)
H11 H 0.2763 1.2548 0.6716
H12 H 0.2230 1.1583 0.6620
H13 H 0.2242 1.3450 0.6325
C13 C -0.05604(6) 0.9137(2) 0.33162(7)
C14 C -0.10607(6) 0.9731(2) 0.30698(8)
H14 H -0.1170 1.0699 0.3256
C15 C -0.13980(6) 0.8940(2) 0.25621(8)
H15 H -0.1736 0.9370 0.2399
C16 C -0.12466(6) 0.7513(2) 0.22867(8)
C17 C -0.07547(6) 0.6886(2) 0.25265(7)
H16 H -0.0647 0.5911 0.2343
C18 C -0.04198(6) 0.7702(2) 0.30393(7)
H17 H -0.0084 0.7261 0.3205
C19 C -0.14585(8) 0.5403(3) 0.14715(9)
H18 H -0.1746 0.5048 0.1114
H19 H -0.1354 0.4440 0.1765
H20 H -0.1172 0.5751 0.1321
C20 C 0.03127(6) 0.7743(2) 0.44966(7)
C21 C 0.08615(7) 0.5495(2) 0.50454(9)
H21 H 0.0975 0.4489 0.4851
H22 H 0.0543 0.5181 0.5141
C22 C 0.12653(6) 0.5960(2) 0.56427(8)
C23 C 0.16905(7) 0.6915(2) 0.56330(9)
H23 H 0.1722 0.7309 0.5243
C24 C 0.20675(7) 0.7300(2) 0.61801(9)
H24 H 0.2356 0.7956 0.6165
C25 C 0.20267(8) 0.6733(2) 0.67478(9)
H25 H 0.2286 0.7001 0.7125
C26 C 0.16094(8) 0.5779(2) 0.67679(9)
H26 H 0.1582 0.5385 0.7160
C27 C 0.12283(7) 0.5389(2) 0.62173(9)
H27 H 0.0941 0.4728 0.6234
loop_
_geom_bond_atom_site_label_1
_geom_bond_atom_site_label_2
_geom_bond_site_symmetry_1
_geom_bond_site_symmetry_2
O1 C3 1_555 1_555
O2 C9 1_555 1_555
O3 C16 1_555 1_555
O4 C20 1_555 1_555
O5 C20 1_555 1_555
N1 C1 1_555 1_555
C1 H1 1_555 1_555
C2 C1 1_555 1_555
H2 C2 1_555 1_555
H3 C2 1_555 1_555
C3 C2 1_555 1_555
C4 C3 1_555 1_555
H4 C4 1_555 1_555
H5 C4 1_555 1_555
C5 N1 1_555 1_555
H6 C5 1_555 1_555
C6 C1 1_555 1_555
C7 C6 1_555 1_555
H7 C7 1_555 1_555
C8 C7 1_555 1_555
H8 C8 1_555 1_555
C9 C8 1_555 1_555
C10 C9 1_555 1_555
H9 C10 1_555 1_555
C11 C6 1_555 1_555
H10 C11 1_555 1_555
C12 O2 1_555 1_555
H11 C12 1_555 1_555
H12 C12 1_555 1_555
H13 C12 1_555 1_555
C13 C5 1_555 1_555
C14 C13 1_555 1_555
H14 C14 1_555 1_555
C15 C14 1_555 1_555
H15 C15 1_555 1_555
C16 C15 1_555 1_555
C17 C16 1_555 1_555
H16 C17 1_555 1_555
C18 C13 1_555 1_555
H17 C18 1_555 1_555
C19 O3 1_555 1_555
H18 C19 1_555 1_555
H19 C19 1_555 1_555
H20 C19 1_555 1_555
C20 N1 1_555 1_555
C21 O5 1_555 1_555
H21 C21 1_555 1_555
H22 C21 1_555 1_555
C22 C21 1_555 1_555
C23 C22 1_555 1_555
H23 C23 1_555 1_555
C24 C23 1_555 1_555
H24 C24 1_555 1_555
C25 C24 1_555 1_555
H25 C25 1_555 1_555
C26 C25 1_555 1_555
H26 C26 1_555 1_555
C27 C22 1_555 1_555
H27 C27 1_555 1_555
C4 C5 1_555 1_555
C10 C11 1_555 1_555
C17 C18 1_555 1_555
C26 C27 1_555 1_555

#END
