
#######################################################################
#
#                 Cambridge Crystallographic Data Centre
#                                CCDC 
#
#######################################################################
#
# If this CIF has been generated from an entry in the Cambridge 
# Structural Database, then it will include bibliographic, chemical, 
# crystal, experimental, refinement or atomic coordinate data resulting 
# from the CCDC's data processing and validation procedures.
#
#######################################################################

data_HOBWOM
_chemical_formula_moiety         'C33 H38 N2 O3,2(C1 H1 Cl3)'
_chemical_name_systematic        
'2-(2,4-bis(4-Methylphenyl)but-1-en-3-yn-1-yl)-1,3-dicyclohexyl-2-hydroxyimidazolidine-4,5-dione chloroform solvate'
_symmetry_cell_setting           monoclinic
_symmetry_space_group_name_H-M   'P 21/n'
_symmetry_Int_Tables_number      14
_space_group_name_Hall           '-P 2yn'
loop_
_symmetry_equiv_pos_site_id
_symmetry_equiv_pos_as_xyz
1 x,y,z
2 1/2-x,1/2+y,1/2-z
3 -x,-y,-z
4 1/2+x,1/2-y,1/2+z
_cell_length_a                   10.058(2)
_cell_length_b                   25.771(5)
_cell_length_c                   14.912(3)
_cell_angle_alpha                90
_cell_angle_beta                 106.01(3)
_cell_angle_gamma                90
_cell_volume                     3715.34
_cell_formula_units_Z            4
loop_
_atom_site_label
_atom_site_type_symbol
_atom_site_fract_x
_atom_site_fract_y
_atom_site_fract_z
C1 C 0.9479(5) 0.0570(2) 0.4669(4)
C2 C 0.8573(5) 0.0338(2) 0.3750(4)
C3 C 0.7330(5) 0.0366(2) 0.4884(4)
C4 C 0.6189(5) -0.0037(2) 0.3291(4)
H1 H 0.5504 -0.0103 0.3653
C5 C 0.6584(5) -0.0573(2) 0.2980(4)
H2 H 0.7260 -0.0527 0.2613
H3 H 0.7028 -0.0784 0.3536
C6 C 0.5302(6) -0.0858(2) 0.2385(4)
H4 H 0.5584 -0.1188 0.2153
H5 H 0.4671 -0.0939 0.2771
C7 C 0.4557(6) -0.0518(2) 0.1564(4)
H6 H 0.3693 -0.0694 0.1217
H7 H 0.5149 -0.0481 0.1136
C8 C 0.4196(6) 0.0025(2) 0.1851(4)
H8 H 0.3794 0.0234 0.1284
H9 H 0.3491 -0.0006 0.2198
C9 C 0.5448(5) 0.0301(2) 0.2452(4)
H10 H 0.5159 0.0632 0.2678
H11 H 0.6093 0.0382 0.2076
C10 C 0.9291(5) 0.0821(2) 0.6217(3)
H12 H 1.0303 0.0740 0.6416
C11 C 0.8661(5) 0.0590(2) 0.6953(3)
H13 H 0.8762 0.0208 0.6970
H14 H 0.7664 0.0676 0.6802
C12 C 0.9432(6) 0.0824(2) 0.7902(4)
H15 H 0.9023 0.0686 0.8386
H16 H 1.0411 0.0713 0.8063
C13 C 0.9376(6) 0.1408(3) 0.7916(4)
H17 H 0.9952 0.1536 0.8525
H18 H 0.8411 0.1521 0.7844
C14 C 0.9902(6) 0.1645(2) 0.7121(4)
H19 H 0.9759 0.2025 0.7105
H20 H 1.0907 0.1579 0.7249
C15 C 0.9149(5) 0.1415(2) 0.6174(4)
H21 H 0.9551 0.1554 0.5688
H22 H 0.8159 0.1512 0.6010
C16 C 0.6160(5) 0.0737(2) 0.4883(3)
H23 H 0.5535 0.0636 0.5226
C17 C 0.5929(5) 0.1193(2) 0.4445(4)
C18 C 0.4755(5) 0.1539(2) 0.4502(3)
C19 C 0.3722(5) 0.1381(2) 0.4891(4)
H24 H 0.3727 0.1034 0.5107
C20 C 0.2693(5) 0.1710(2) 0.4975(4)
H25 H 0.2002 0.1583 0.5243
C21 C 0.2629(5) 0.2220(2) 0.4680(4)
C22 C 0.3643(5) 0.2382(2) 0.4258(4)
H26 H 0.3623 0.2727 0.4027
C23 C 0.4676(5) 0.2044(2) 0.4174(4)
H27 H 0.5349 0.2162 0.3883
C24 C 0.1500(5) 0.2586(2) 0.4777(4)
H28 H 0.0642 0.2390 0.4710
H29 H 0.1350 0.2853 0.4291
H30 H 0.1777 0.2751 0.5393
C25 C 0.6844(5) 0.1392(2) 0.3943(4)
C26 C 0.7568(5) 0.1580(2) 0.3529(4)
C27 C 0.8458(5) 0.1843(2) 0.3041(4)
C28 C 0.8051(5) 0.2326(2) 0.2628(4)
H31 H 0.7184 0.2469 0.2636
C29 C 0.8907(5) 0.2598(2) 0.2208(4)
H32 H 0.8628 0.2927 0.1934
C30 C 1.0165(5) 0.2392(2) 0.2187(4)
C31 C 1.0557(5) 0.1909(2) 0.2579(4)
H33 H 1.1420 0.1766 0.2560
C32 C 0.9713(5) 0.1632(2) 0.2997(3)
H34 H 0.9989 0.1299 0.3253
C33 C 1.1111(6) 0.2699(2) 0.1741(4)
H35 H 1.2070 0.2586 0.2005
H36 H 1.1036 0.3070 0.1866
H37 H 1.0836 0.2640 0.1066
N1 N 0.8717(4) 0.05884(15) 0.5277(3)
N2 N 0.7365(4) 0.02217(16) 0.3926(3)
O1 O 1.0701(3) 0.07123(13) 0.4792(2)
O2 O 0.8917(3) 0.02890(14) 0.3040(2)
O3 O 0.7106(3) -0.00776(14) 0.5374(3)
H38 H 0.7732 -0.0296 0.5390
C34 C 0.4069(6) 0.4278(2) 0.6127(4)
H39 H 0.3828 0.4229 0.6728
Cl1 Cl 0.3200(2) 0.48230(8) 0.55689(13)
Cl2 Cl 0.3616(3) 0.37194(8) 0.54619(15)
Cl3 Cl 0.5875(2) 0.43609(9) 0.63776(17)
C35 C 0.3029(8) 0.1641(3) 0.0496(5)
H40 H 0.2107 0.1574 0.0605
Cl4 Cl 0.29047(19) 0.22447(8) -0.00258(14)
Cl5 Cl 0.4216(2) 0.16503(9) 0.15999(16)
Cl6 Cl 0.3270(3) 0.11617(10) -0.01922(18)
loop_
_geom_bond_atom_site_label_1
_geom_bond_atom_site_label_2
_geom_bond_site_symmetry_1
_geom_bond_site_symmetry_2
C1 C2 1_555 1_555
C2 N2 1_555 1_555
C3 C16 1_555 1_555
C4 H1 1_555 1_555
C5 C4 1_555 1_555
H2 C5 1_555 1_555
H3 C5 1_555 1_555
C6 C5 1_555 1_555
H4 C6 1_555 1_555
H5 C6 1_555 1_555
C7 C6 1_555 1_555
H6 C7 1_555 1_555
H7 C7 1_555 1_555
C8 C7 1_555 1_555
H8 C8 1_555 1_555
H9 C8 1_555 1_555
C9 C4 1_555 1_555
H10 C9 1_555 1_555
H11 C9 1_555 1_555
C10 H12 1_555 1_555
C11 C10 1_555 1_555
H13 C11 1_555 1_555
H14 C11 1_555 1_555
C12 C11 1_555 1_555
H15 C12 1_555 1_555
H16 C12 1_555 1_555
C13 C12 1_555 1_555
H17 C13 1_555 1_555
H18 C13 1_555 1_555
C14 C13 1_555 1_555
H19 C14 1_555 1_555
H20 C14 1_555 1_555
C15 C10 1_555 1_555
H21 C15 1_555 1_555
H22 C15 1_555 1_555
C16 H23 1_555 1_555
C17 C16 1_555 1_555
C18 C17 1_555 1_555
C19 C18 1_555 1_555
H24 C19 1_555 1_555
C20 C19 1_555 1_555
H25 C20 1_555 1_555
C21 C20 1_555 1_555
C22 C21 1_555 1_555
H26 C22 1_555 1_555
C23 C18 1_555 1_555
H27 C23 1_555 1_555
C24 C21 1_555 1_555
H28 C24 1_555 1_555
H29 C24 1_555 1_555
H30 C24 1_555 1_555
C25 C17 1_555 1_555
C26 C25 1_555 1_555
C27 C26 1_555 1_555
C28 C27 1_555 1_555
H31 C28 1_555 1_555
C29 C28 1_555 1_555
H32 C29 1_555 1_555
C30 C29 1_555 1_555
C31 C30 1_555 1_555
H33 C31 1_555 1_555
C32 C27 1_555 1_555
H34 C32 1_555 1_555
C33 C30 1_555 1_555
H35 C33 1_555 1_555
H36 C33 1_555 1_555
H37 C33 1_555 1_555
N1 C1 1_555 1_555
N2 C3 1_555 1_555
O1 C1 1_555 1_555
O2 C2 1_555 1_555
O3 C3 1_555 1_555
H38 O3 1_555 1_555
C34 H39 1_555 1_555
Cl1 C34 1_555 1_555
Cl2 C34 1_555 1_555
Cl3 C34 1_555 1_555
C35 H40 1_555 1_555
Cl4 C35 1_555 1_555
Cl5 C35 1_555 1_555
Cl6 C35 1_555 1_555
C3 N1 1_555 1_555
C4 N2 1_555 1_555
C8 C9 1_555 1_555
C10 N1 1_555 1_555
C14 C15 1_555 1_555
C22 C23 1_555 1_555
C31 C32 1_555 1_555

#END
