
#######################################################################
#
#                 Cambridge Crystallographic Data Centre
#                                CCDC 
#
#######################################################################
#
# If this CIF has been generated from an entry in the Cambridge 
# Structural Database, then it will include bibliographic, chemical, 
# crystal, experimental, refinement or atomic coordinate data resulting 
# from the CCDC's data processing and validation procedures.
#
#######################################################################

data_HOCRUO
_chemical_formula_moiety         'C8 H8 F3 N1 O2 S1'
_chemical_name_systematic        4-(methylsulfonyl)-2-(trifluoromethyl)aniline
_symmetry_cell_setting           orthorhombic
_symmetry_space_group_name_H-M   'P b c a'
_symmetry_Int_Tables_number      61
_space_group_name_Hall           '-P 2ac 2ab'
loop_
_symmetry_equiv_pos_site_id
_symmetry_equiv_pos_as_xyz
1 x,y,z
2 1/2-x,-y,1/2+z
3 -x,1/2+y,1/2-z
4 1/2+x,1/2-y,-z
5 -x,-y,-z
6 1/2+x,y,1/2-z
7 x,1/2-y,1/2+z
8 1/2-x,1/2+y,z
_cell_length_a                   7.9680(16)
_cell_length_b                   15.300(3)
_cell_length_c                   16.954(3)
_cell_angle_alpha                90
_cell_angle_beta                 90
_cell_angle_gamma                90
_cell_volume                     2066.87
_cell_formula_units_Z            8
loop_
_atom_site_label
_atom_site_type_symbol
_atom_site_fract_x
_atom_site_fract_y
_atom_site_fract_z
S1 S 0.11692(13) 0.01074(6) 0.34682(7)
N1 N -0.2211(5) 0.35378(19) 0.3508(2)
H1 H -0.1861 0.3937 0.3191
H2 H -0.3026 0.3646 0.3826
F1 F -0.3761(4) 0.14879(19) 0.49898(18)
O1 O 0.1408(5) -0.0137(2) 0.2661(2)
C1 C 0.3144(6) 0.0303(3) 0.3878(4)
H3 H 0.3773 -0.0231 0.3891
H4 H 0.3014 0.0524 0.4404
H5 H 0.3730 0.0726 0.3563
F2 F -0.3179(4) 0.28492(19) 0.50590(16)
C2 C 0.0154(5) 0.1119(2) 0.3476(2)
O2 O 0.0293(4) -0.04852(17) 0.3982(2)
F3 F -0.4823(3) 0.23779(19) 0.41808(16)
C3 C -0.1136(4) 0.1260(2) 0.3999(2)
H6 H -0.1448 0.0819 0.4347
C4 C -0.1980(4) 0.2056(2) 0.40150(19)
C5 C -0.1476(4) 0.2736(2) 0.3507(2)
C6 C -0.0149(5) 0.2569(2) 0.2986(2)
H7 H 0.0204 0.3010 0.2646
C7 C 0.0636(5) 0.1780(3) 0.2964(2)
H8 H 0.1499 0.1683 0.2605
C8 C -0.3416(5) 0.2186(2) 0.4561(2)
loop_
_geom_bond_atom_site_label_1
_geom_bond_atom_site_label_2
_geom_bond_site_symmetry_1
_geom_bond_site_symmetry_2
S1 O1 1_555 1_555
N1 H1 1_555 1_555
H2 N1 1_555 1_555
F1 C8 1_555 1_555
C1 S1 1_555 1_555
H3 C1 1_555 1_555
H4 C1 1_555 1_555
H5 C1 1_555 1_555
F2 C8 1_555 1_555
C2 S1 1_555 1_555
O2 S1 1_555 1_555
F3 C8 1_555 1_555
C3 C2 1_555 1_555
H6 C3 1_555 1_555
C4 C3 1_555 1_555
C5 N1 1_555 1_555
C6 C5 1_555 1_555
H7 C6 1_555 1_555
C7 C2 1_555 1_555
H8 C7 1_555 1_555
C8 C4 1_555 1_555
C4 C5 1_555 1_555
C6 C7 1_555 1_555

#END
