
#######################################################################
#
#                 Cambridge Crystallographic Data Centre
#                                CCDC 
#
#######################################################################
#
# If this CIF has been generated from an entry in the Cambridge 
# Structural Database, then it will include bibliographic, chemical, 
# crystal, experimental, refinement or atomic coordinate data resulting 
# from the CCDC's data processing and validation procedures.
#
#######################################################################

data_HOCVUQ
_chemical_formula_moiety         'C27 H24 F6 O3 S1'
_chemical_name_systematic        
Tetrahydro-3-((4-methylphenylthio)(phenyl)methyl)-4-phenyl-2,6-bis(trifluoromethyl)-2H-pyran-2,6-diol
_symmetry_cell_setting           orthorhombic
_symmetry_space_group_name_H-M   'P n 21 a'
_symmetry_Int_Tables_number      33
_space_group_name_Hall           'P -2ac -2n'
loop_
_symmetry_equiv_pos_site_id
_symmetry_equiv_pos_as_xyz
1 x,y,z
2 -x,1/2+y,-z
3 1/2+x,y,1/2-z
4 1/2-x,1/2+y,1/2+z
_cell_length_a                   19.560(4)
_cell_length_b                   26.039(5)
_cell_length_c                   10.367(2)
_cell_angle_alpha                90
_cell_angle_beta                 90
_cell_angle_gamma                90
_cell_volume                     5280.15
_exptl_crystal_colour            colorless
_exptl_crystal_description       plate
_chemical_melting_point          '156-157 deg.C'
_cell_formula_units_Z            8
_exptl_crystal_recrystallization_method hexane
loop_
_atom_site_label
_atom_site_type_symbol
_atom_site_fract_x
_atom_site_fract_y
_atom_site_fract_z
S1 S -0.28573(10) -0.34325(11) -0.8299(2)
O1 O -0.4057(4) -0.3528(2) -1.2268(6)
H1 H -0.3938(44) -0.3275(14) -1.2683(98)
O2 O -0.2721(4) -0.3175(2) -1.1173(5)
H2 H -0.3017(43) -0.3060(15) -1.1653(72)
O3 O -0.2936(4) -0.3811(2) -1.2670(5)
F1 F -0.3727(4) -0.3772(3) -1.4818(5)
F2 F -0.4443(5) -0.4293(3) -1.3996(7)
F3 F -0.3423(5) -0.4535(3) -1.4277(6)
F4 F -0.1785(4) -0.3365(2) -1.3063(6)
F5 F -0.1381(3) -0.3507(3) -1.1214(7)
F6 F -0.1631(3) -0.4139(2) -1.2439(7)
C1 C -0.3605(4) -0.4612(3) -0.9276(7)
C2 C -0.4013(4) -0.4497(4) -0.8221(8)
H3 H -0.4163(4) -0.4162(4) -0.8096(8)
C3 C -0.4202(5) -0.4876(5) -0.7350(10)
H4 H -0.4482(5) -0.4795(5) -0.6656(10)
C4 C -0.3976(7) -0.5371(5) -0.7511(14)
H5 H -0.4092(7) -0.5624(5) -0.6918(14)
C5 C -0.3573(6) -0.5487(4) -0.8568(13)
H6 H -0.3422(6) -0.5822(4) -0.8691(13)
C6 C -0.3393(5) -0.5114(3) -0.9434(10)
H7 H -0.3124(5) -0.5201(3) -1.0141(10)
C7 C -0.2039(4) -0.4331(3) -0.8342(9)
C8 C -0.1444(5) -0.4572(3) -0.8767(11)
H8 H -0.1225(5) -0.4466(3) -0.9518(11)
C9 C -0.1183(7) -0.4985(4) -0.8014(16)
H9 H -0.0799(7) -0.5161(4) -0.8308(16)
C10 C -0.1472(10) -0.5133(5) -0.6888(18)
H10 H -0.1272(10) -0.5389(5) -0.6388(18)
C11 C -0.2054(9) -0.4904(6) -0.6501(16)
H11 H -0.2267(9) -0.5020(6) -0.5753(16)
C12 C -0.2351(5) -0.4495(4) -0.7191(11)
H12 H -0.2746(5) -0.4337(4) -0.6892(11)
C13 C -0.2245(4) -0.3033(3) -0.7551(7)
C14 C -0.2197(4) -0.3002(3) -0.6206(7)
H13 H -0.2454(4) -0.3228(3) -0.5706(7)
C15 C -0.1788(4) -0.2655(3) -0.5606(8)
H14 H -0.1780(4) -0.2639(3) -0.4710(8)
C16 C -0.1384(4) -0.2324(3) -0.6317(8)
C17 C -0.1405(5) -0.2358(3) -0.7622(8)
H15 H -0.1130(5) -0.2139(3) -0.8105(8)
C18 C -0.1816(5) -0.2704(3) -0.8259(8)
H16 H -0.1811(5) -0.2719(3) -0.9155(8)
C19 C -0.0951(5) -0.1925(4) -0.5659(11)
H17 H -0.0507(14) -0.1917(21) -0.6052(51)
H18 H -0.0906(33) -0.2010(17) -0.4761(20)
H19 H -0.1164(21) -0.1595(6) -0.5743(66)
C20 C -0.2569(5) -0.3685(2) -1.1529(7)
C21 C -0.2675(4) -0.4076(3) -1.0421(7)
H20 H -0.2451(4) -0.4396(3) -1.0687(7)
C22 C -0.3446(4) -0.4198(3) -1.0270(7)
H21 H -0.3675(4) -0.3882(3) -0.9991(7)
C23 C -0.3761(5) -0.4357(3) -1.1561(8)
H22 H -0.3558(5) -0.4678(3) -1.1844(8)
H23 H -0.4248(5) -0.4412(3) -1.1455(8)
C24 C -0.3638(6) -0.3943(3) -1.2581(8)
C25 C -0.3802(9) -0.4134(4) -1.3914(10)
C26 C -0.1844(6) -0.3672(4) -1.2054(10)
C27 C -0.2309(4) -0.3894(3) -0.9169(7)
H24 H -0.1907(4) -0.3699(3) -0.9453(7)
S2 S -0.38604(10) -0.24158(10) -1.6820(2)
O4 O -0.2680(4) -0.2333(2) -1.2895(6)
H25 H -0.2753(49) -0.2567(17) -1.2383(75)
O5 O -0.4035(3) -0.2661(2) -1.3924(6)
H26 H -0.4397(7) -0.2805(13) -1.409(12)
O6 O -0.3785(4) -0.2029(2) -1.2471(5)
F7 F -0.2983(4) -0.2091(2) -1.0337(5)
F8 F -0.2242(5) -0.1581(3) -1.1155(6)
F9 F -0.3271(5) -0.1333(2) -1.0828(5)
F10 F -0.4974(4) -0.2434(3) -1.2036(6)
F11 F -0.5355(3) -0.2279(4) -1.3924(8)
F12 F -0.5066(4) -0.1664(3) -1.2703(7)
C28 C -0.3112(4) -0.1243(3) -1.5878(7)
C29 C -0.2672(5) -0.1350(4) -1.6886(8)
H27 H -0.2479(5) -0.1675(4) -1.6968(8)
C30 C -0.2520(6) -0.0960(6) -1.7792(10)
H28 H -0.2209(6) -0.1023(6) -1.8452(10)
C31 C -0.2827(7) -0.0490(5) -1.7701(12)
H29 H -0.2747(7) -0.0240(5) -1.8324(12)
C32 C -0.3249(6) -0.0390(4) -1.6694(10)
H30 H -0.3441(6) -0.0065(4) -1.6615(10)
C33 C -0.3398(5) -0.0755(3) -1.5797(8)
H31 H -0.3694(5) -0.0677(3) -1.5123(8)
C34 C -0.4635(4) -0.1490(3) -1.6821(8)
C35 C -0.5149(5) -0.1184(3) -1.6342(11)
H32 H -0.5338(5) -0.1254(3) -1.5538(11)
C36 C -0.5390(6) -0.0766(4) -1.7070(15)
H33 H -0.5735(6) -0.0558(4) -1.6743(15)
C37 C -0.5114(8) -0.0664(4) -1.8271(15)
H34 H -0.5276(8) -0.0392(4) -1.8764(15)
C38 C -0.4606(5) -0.0967(4) -1.8714(12)
H35 H -0.4418(5) -0.0895(4) -1.9518(12)
C39 C -0.4355(5) -0.1378(3) -1.8027(8)
H36 H -0.4003(5) -0.1579(3) -1.8361(8)
C40 C -0.4479(4) -0.2817(3) -1.7570(7)
C41 C -0.4492(4) -0.2839(3) -1.8915(8)
H37 H -0.4221(4) -0.2617(3) -1.9396(8)
C42 C -0.4909(4) -0.3193(3) -1.9534(7)
H38 H -0.4906(4) -0.3208(3) -2.0431(7)
C43 C -0.5331(4) -0.3526(3) -1.8851(8)
C44 C -0.5310(4) -0.3488(3) -1.7489(8)
H39 H -0.5589(4) -0.3702(3) -1.7000(8)
C45 C -0.4888(5) -0.3147(3) -1.6872(7)
H40 H -0.4878(5) -0.3138(3) -1.5976(7)
C46 C -0.5751(5) -0.3919(4) -1.9492(9)
H41 H -0.5590(26) -0.3968(21) -2.0359(26)
H42 H -0.6219(8) -0.3809(14) -1.9509(66)
H43 H -0.5716(31) -0.4237(9) -1.9027(43)
C47 C -0.4161(5) -0.2152(3) -1.3588(8)
C48 C -0.4029(4) -0.1771(3) -1.4715(7)
H44 H -0.4242(4) -0.1446(3) -1.4459(7)
C49 C -0.3266(4) -0.1656(3) -1.4878(7)
H45 H -0.3041(4) -0.1973(3) -1.5156(7)
C50 C -0.2957(5) -0.1499(3) -1.3573(8)
H46 H -0.2470(5) -0.1443(3) -1.3671(8)
H47 H -0.3163(5) -0.1180(3) -1.3286(8)
C51 C -0.3078(5) -0.1912(3) -1.2572(8)
C52 C -0.2904(7) -0.1726(4) -1.1242(9)
C53 C -0.4897(6) -0.2130(5) -1.3052(12)
C54 C -0.4395(4) -0.1940(3) -1.5980(7)
H48 H -0.4809(4) -0.2123(3) -1.5712(7)
loop_
_geom_bond_atom_site_label_1
_geom_bond_atom_site_label_2
_geom_bond_site_symmetry_1
_geom_bond_site_symmetry_2
S1 C13 1_555 1_555
O1 H1 1_555 1_555
O2 H2 1_555 1_555
O3 C20 1_555 1_555
F1 C25 1_555 1_555
F2 C25 1_555 1_555
F3 C25 1_555 1_555
F4 C26 1_555 1_555
F5 C26 1_555 1_555
F6 C26 1_555 1_555
C1 C2 1_555 1_555
C2 H3 1_555 1_555
C3 C2 1_555 1_555
H4 C3 1_555 1_555
C4 C3 1_555 1_555
H5 C4 1_555 1_555
C5 C4 1_555 1_555
H6 C5 1_555 1_555
C6 C1 1_555 1_555
H7 C6 1_555 1_555
C7 C8 1_555 1_555
C8 H8 1_555 1_555
C9 C8 1_555 1_555
H9 C9 1_555 1_555
C10 C9 1_555 1_555
H10 C10 1_555 1_555
C11 C10 1_555 1_555
H11 C11 1_555 1_555
C12 C7 1_555 1_555
H12 C12 1_555 1_555
C13 C14 1_555 1_555
C14 H13 1_555 1_555
C15 C14 1_555 1_555
H14 C15 1_555 1_555
C16 C15 1_555 1_555
C17 C16 1_555 1_555
H15 C17 1_555 1_555
C18 C13 1_555 1_555
H16 C18 1_555 1_555
C19 C16 1_555 1_555
H17 C19 1_555 1_555
H18 C19 1_555 1_555
H19 C19 1_555 1_555
C20 O2 1_555 1_555
C21 C20 1_555 1_555
H20 C21 1_555 1_555
C22 C1 1_555 1_555
H21 C22 1_555 1_555
C23 C22 1_555 1_555
H22 C23 1_555 1_555
H23 C23 1_555 1_555
C24 O1 1_555 1_555
C25 C24 1_555 1_555
C26 C20 1_555 1_555
C27 S1 1_555 1_555
H24 C27 1_555 1_555
S2 C40 1_555 1_555
O4 H25 1_555 1_555
O5 H26 1_555 1_555
O6 C47 1_555 1_555
F7 C52 1_555 1_555
F8 C52 1_555 1_555
F9 C52 1_555 1_555
F10 C53 1_555 1_555
F11 C53 1_555 1_555
F12 C53 1_555 1_555
C28 C29 1_555 1_555
C29 H27 1_555 1_555
C30 C29 1_555 1_555
H28 C30 1_555 1_555
C31 C30 1_555 1_555
H29 C31 1_555 1_555
C32 C31 1_555 1_555
H30 C32 1_555 1_555
C33 C28 1_555 1_555
H31 C33 1_555 1_555
C34 C35 1_555 1_555
C35 H32 1_555 1_555
C36 C35 1_555 1_555
H33 C36 1_555 1_555
C37 C36 1_555 1_555
H34 C37 1_555 1_555
C38 C37 1_555 1_555
H35 C38 1_555 1_555
C39 C34 1_555 1_555
H36 C39 1_555 1_555
C40 C41 1_555 1_555
C41 H37 1_555 1_555
C42 C41 1_555 1_555
H38 C42 1_555 1_555
C43 C42 1_555 1_555
C44 C43 1_555 1_555
H39 C44 1_555 1_555
C45 C40 1_555 1_555
H40 C45 1_555 1_555
C46 C43 1_555 1_555
H41 C46 1_555 1_555
H42 C46 1_555 1_555
H43 C46 1_555 1_555
C47 O5 1_555 1_555
C48 C47 1_555 1_555
H44 C48 1_555 1_555
C49 C28 1_555 1_555
H45 C49 1_555 1_555
C50 C49 1_555 1_555
H46 C50 1_555 1_555
H47 C50 1_555 1_555
C51 O4 1_555 1_555
C52 C51 1_555 1_555
C53 C47 1_555 1_555
C54 S2 1_555 1_555
H48 C54 1_555 1_555
O3 C24 1_555 1_555
C5 C6 1_555 1_555
C7 C27 1_555 1_555
C11 C12 1_555 1_555
C17 C18 1_555 1_555
C21 C27 1_555 1_555
C21 C22 1_555 1_555
C23 C24 1_555 1_555
O6 C51 1_555 1_555
C32 C33 1_555 1_555
C34 C54 1_555 1_555
C38 C39 1_555 1_555
C44 C45 1_555 1_555
C48 C54 1_555 1_555
C48 C49 1_555 1_555
C50 C51 1_555 1_555

#END
