
#######################################################################
#
#                 Cambridge Crystallographic Data Centre
#                                CCDC 
#
#######################################################################
#
# If this CIF has been generated from an entry in the Cambridge 
# Structural Database, then it will include bibliographic, chemical, 
# crystal, experimental, refinement or atomic coordinate data resulting 
# from the CCDC's data processing and validation procedures.
#
#######################################################################

data_HODKIV
_chemical_formula_moiety         'C19 H25 O2 P1,0.5(H2 O1)'
_chemical_name_systematic        
'2-(bis(3,5-Dimethylphenyl)phosphoryl)propan-2-ol hemihydrate'
_symmetry_cell_setting           monoclinic
_symmetry_space_group_name_H-M   'C 2/c'
_symmetry_Int_Tables_number      15
_space_group_name_Hall           '-C 2yn'
loop_
_symmetry_equiv_pos_site_id
_symmetry_equiv_pos_as_xyz
1 x,y,z
2 1/2+x,1/2+y,z
3 -x,y,1/2-z
4 1/2-x,1/2+y,1/2-z
5 -x,-y,-z
6 1/2-x,1/2-y,-z
7 x,-y,1/2+z
8 1/2+x,1/2-y,1/2+z
_cell_length_a                   30.129(6)
_cell_length_b                   6.2830(13)
_cell_length_c                   20.192(4)
_cell_angle_alpha                90
_cell_angle_beta                 106.76(3)
_cell_angle_gamma                90
_cell_volume                     3659.99
_exptl_crystal_colour            colorless
_exptl_crystal_description       needle
_cell_formula_units_Z            8
_exptl_crystal_recrystallization_method acetone
loop_
_atom_site_label
_atom_site_type_symbol
_atom_site_fract_x
_atom_site_fract_y
_atom_site_fract_z
P1 P 0.40003(3) 0.20845(15) 0.59292(5)
O2 O 0.39553(9) -0.2053(4) 0.58847(14)
H2 H 0.4058 -0.3239 0.6013
C1 C 0.44847(16) 0.5766(9) 0.3932(3)
H3 H 0.4461 0.5651 0.3449
H4 H 0.4804 0.5651 0.4199
H5 H 0.4364 0.7117 0.4020
O3 O 0.42908(8) 0.3898(4) 0.62967(13)
C2 C 0.42087(13) 0.3997(7) 0.4134(2)
C3 C 0.41939(12) 0.3820(6) 0.4812(2)
H6 H 0.4345 0.4833 0.5135
C4 C 0.39592(11) 0.2167(6) 0.50207(18)
C5 C 0.37267(12) 0.0663(6) 0.45310(19)
H7 H 0.3567 -0.0450 0.4664
C6 C 0.37332(13) 0.0829(7) 0.3851(2)
C7 C 0.39760(14) 0.2487(7) 0.3663(2)
H8 H 0.3982 0.2587 0.3206
C8 C 0.34811(16) -0.0813(9) 0.3322(2)
H9 H 0.3523 -0.0481 0.2880
H10 H 0.3157 -0.0793 0.3288
H11 H 0.3605 -0.2202 0.3465
C9 C 0.28814(17) 0.5685(10) 0.7141(3)
H12 H 0.2571 0.5631 0.7178
H13 H 0.2937 0.7059 0.6973
H14 H 0.3097 0.5442 0.7587
C10 C 0.29420(14) 0.3982(7) 0.6642(2)
C11 C 0.33647(13) 0.3767(6) 0.65031(19)
H15 H 0.3607 0.4685 0.6710
C12 C 0.34291(12) 0.2187(6) 0.60557(17)
C13 C 0.30647(12) 0.0836(6) 0.57377(19)
H16 H 0.3107 -0.0214 0.5437
C14 C 0.26351(13) 0.1041(7) 0.5865(2)
C15 C 0.25866(14) 0.2611(7) 0.6316(2)
H17 H 0.2302 0.2755 0.6405
C16 C 0.22411(15) -0.0427(8) 0.5522(3)
H18 H 0.2189 -0.0389 0.5030
H19 H 0.1965 0.0025 0.5629
H20 H 0.2317 -0.1852 0.5687
C17 C 0.42596(12) -0.0481(6) 0.62715(19)
C18 C 0.42841(16) -0.0606(7) 0.7034(2)
H21 H 0.4425 -0.1927 0.7222
H22 H 0.3977 -0.0528 0.7082
H23 H 0.4466 0.0558 0.7277
C19 C 0.47388(13) -0.0667(7) 0.6165(2)
H24 H 0.4874 -0.2009 0.6343
H25 H 0.4932 0.0469 0.6406
H26 H 0.4712 -0.0577 0.5681
O1 O 0.5000 0.4938(10) 0.7500
H1 H 0.5127 0.5453 0.7899
H1B H 0.4873 0.5453 0.7101
loop_
_geom_bond_atom_site_label_1
_geom_bond_atom_site_label_2
_geom_bond_site_symmetry_1
_geom_bond_site_symmetry_2
P1 O3 1_555 1_555
O1 H1 1_555 1_555
O2 H2 1_555 1_555
C1 H3 1_555 1_555
H4 C1 1_555 1_555
H5 C1 1_555 1_555
C2 C1 1_555 1_555
C3 C2 1_555 1_555
H6 C3 1_555 1_555
C4 P1 1_555 1_555
C5 C4 1_555 1_555
H7 C5 1_555 1_555
C6 C5 1_555 1_555
C7 C2 1_555 1_555
H8 C7 1_555 1_555
C8 C6 1_555 1_555
H9 C8 1_555 1_555
H10 C8 1_555 1_555
H11 C8 1_555 1_555
C9 H12 1_555 1_555
H13 C9 1_555 1_555
H14 C9 1_555 1_555
C10 C9 1_555 1_555
C11 C10 1_555 1_555
H15 C11 1_555 1_555
C12 P1 1_555 1_555
C13 C12 1_555 1_555
H16 C13 1_555 1_555
C14 C13 1_555 1_555
C15 C10 1_555 1_555
H17 C15 1_555 1_555
C16 C14 1_555 1_555
H18 C16 1_555 1_555
H19 C16 1_555 1_555
H20 C16 1_555 1_555
C17 P1 1_555 1_555
C18 C17 1_555 1_555
H21 C18 1_555 1_555
H22 C18 1_555 1_555
H23 C18 1_555 1_555
C19 C17 1_555 1_555
H24 C19 1_555 1_555
H25 C19 1_555 1_555
H26 C19 1_555 1_555
H1B O1 1_555 1_555
O2 C17 1_555 1_555
C3 C4 1_555 1_555
C6 C7 1_555 1_555
C11 C12 1_555 1_555
C14 C15 1_555 1_555

#END
