
#######################################################################
#
#                 Cambridge Crystallographic Data Centre
#                                CCDC 
#
#######################################################################
#
# If this CIF has been generated from an entry in the Cambridge 
# Structural Database, then it will include bibliographic, chemical, 
# crystal, experimental, refinement or atomic coordinate data resulting 
# from the CCDC's data processing and validation procedures.
#
#######################################################################

data_HODKER
_chemical_formula_moiety         'C21 H18 O7'
_chemical_name_systematic        
'4-(7-Acetoxy-6-methoxy-4-methyl-2-oxo-2H-chromen-3-yl)phenyl acetate'
_symmetry_cell_setting           triclinic
_symmetry_space_group_name_H-M   'P -1'
_symmetry_Int_Tables_number      2
_space_group_name_Hall           '-P 1'
loop_
_symmetry_equiv_pos_site_id
_symmetry_equiv_pos_as_xyz
1 x,y,z
2 -x,-y,-z
_cell_length_a                   8.142(3)
_cell_length_b                   11.167(4)
_cell_length_c                   11.756(4)
_cell_angle_alpha                65.130(4)
_cell_angle_beta                 75.392(4)
_cell_angle_gamma                79.055(4)
_cell_volume                     934.12
_exptl_crystal_colour            colorless
_exptl_crystal_description       sheet
_cell_formula_units_Z            2
loop_
_atom_site_label
_atom_site_type_symbol
_atom_site_fract_x
_atom_site_fract_y
_atom_site_fract_z
O1 O 0.3185(3) 0.17959(18) 0.16190(17)
O2 O 0.3094(3) 0.3939(2) 0.1010(2)
O3 O 0.2256(3) 0.8533(2) -0.4110(2)
O4 O 0.2670(3) -0.27608(18) 0.10771(19)
O5 O 0.3460(2) -0.28758(18) 0.31855(17)
O6 O 0.0661(3) -0.3060(2) 0.3850(2)
C1 C 0.2997(4) 0.3052(3) 0.0710(3)
C2 C 0.2680(3) 0.3215(3) -0.0519(3)
C3 C 0.2529(3) 0.2128(3) -0.0733(2)
C4 C 0.2552(3) -0.0362(3) 0.0142(2)
H1 H 0.2329 -0.0317 -0.0613
C5 C 0.2753(3) -0.1569(3) 0.1113(3)
C6 C 0.3133(3) -0.1642(3) 0.2232(3)
C7 C 0.3266(4) -0.0521(3) 0.2393(3)
H2 H 0.3507 -0.0578 0.3148
C8 C 0.3036(3) 0.0699(3) 0.1407(2)
C9 C 0.2678(3) 0.0826(3) 0.0268(2)
C10 C 0.2208(4) 0.2260(3) -0.1983(3)
H3 H 0.2364 0.3147 -0.2601
H4 H 0.1061 0.2074 -0.1871
H5 H 0.2992 0.1644 -0.2276
C11 C 0.2578(3) 0.4597(3) -0.1475(3)
C12 C 0.1053(4) 0.5256(3) -0.1852(3)
H6 H 0.0075 0.4810 -0.1518
C13 C 0.0962(4) 0.6549(3) -0.2704(3)
H7 H -0.0067 0.6966 -0.2953
C14 C 0.2384(4) 0.7232(3) -0.3192(3)
C15 C 0.3906(4) 0.6615(3) -0.2841(3)
H8 H 0.4875 0.7072 -0.3181
C16 C 0.3995(4) 0.5314(3) -0.1982(3)
H9 H 0.5028 0.4907 -0.1737
C17 C 0.2305(6) 0.9555(4) -0.3829(4)
O7 O 0.1775(16) 0.9331(7) -0.2672(6)
C18 C 0.2078(6) 1.0852(3) -0.4860(4)
H10 H 0.1643 1.1509 -0.4506
H11 H 0.1287 1.0822 -0.5329
H12 H 0.3155 1.1075 -0.5424
C19 C 0.2417(4) -0.2736(3) -0.0087(3)
H13 H 0.1307 -0.2306 -0.0234
H14 H 0.2502 -0.3627 -0.0032
H15 H 0.3270 -0.2258 -0.0781
C20 C 0.2086(4) -0.3556(3) 0.3919(3)
C21 C 0.2624(5) -0.4899(3) 0.4777(3)
H16 H 0.2921 -0.4860 0.5500
H17 H 0.3596 -0.5265 0.4327
H18 H 0.1707 -0.5449 0.5065
O8? O 0.3254(11) 0.9405(7) -0.3076(8)
loop_
_geom_bond_atom_site_label_1
_geom_bond_atom_site_label_2
_geom_bond_site_symmetry_1
_geom_bond_site_symmetry_2
O1 C1 1_555 1_555
O2 C1 1_555 1_555
O3 C14 1_555 1_555
O4 C5 1_555 1_555
O5 C6 1_555 1_555
O6 C20 1_555 1_555
C1 C2 1_555 1_555
C2 C3 1_555 1_555
C3 C9 1_555 1_555
C4 H1 1_555 1_555
C5 C4 1_555 1_555
C6 C5 1_555 1_555
C7 C6 1_555 1_555
H2 C7 1_555 1_555
C8 O1 1_555 1_555
C9 C4 1_555 1_555
C10 C3 1_555 1_555
H3 C10 1_555 1_555
H4 C10 1_555 1_555
H5 C10 1_555 1_555
C11 C2 1_555 1_555
C12 C11 1_555 1_555
H6 C12 1_555 1_555
C13 C12 1_555 1_555
H7 C13 1_555 1_555
C14 C13 1_555 1_555
C15 C14 1_555 1_555
H8 C15 1_555 1_555
C16 C11 1_555 1_555
H9 C16 1_555 1_555
C17 O3 1_555 1_555
O7 C17 1_555 1_555
C18 C17 1_555 1_555
H10 C18 1_555 1_555
H11 C18 1_555 1_555
H12 C18 1_555 1_555
C19 O4 1_555 1_555
H13 C19 1_555 1_555
H14 C19 1_555 1_555
H15 C19 1_555 1_555
C20 O5 1_555 1_555
C21 C20 1_555 1_555
H16 C21 1_555 1_555
H17 C21 1_555 1_555
H18 C21 1_555 1_555
C7 C8 1_555 1_555
C8 C9 1_555 1_555
C15 C16 1_555 1_555

#END
