
#######################################################################
#
#                 Cambridge Crystallographic Data Centre
#                                CCDC 
#
#######################################################################
#
# If this CIF has been generated from an entry in the Cambridge 
# Structural Database, then it will include bibliographic, chemical, 
# crystal, experimental, refinement or atomic coordinate data resulting 
# from the CCDC's data processing and validation procedures.
#
#######################################################################

data_HODSAV
_chemical_formula_moiety         'C13 H11 N4 O3 1+,Cl1 1-'
_chemical_name_systematic        
'3a,11b-Dihydroxy-2-oxo-2,3,3a,11b-tetrahydro-1H-imidazo(4,5-f)(1,10)phenanthrolin-7-ium chloride'
_symmetry_cell_setting           monoclinic
_symmetry_space_group_name_H-M   'P 21/c'
_symmetry_Int_Tables_number      14
_space_group_name_Hall           '-P 2ybc'
loop_
_symmetry_equiv_pos_site_id
_symmetry_equiv_pos_as_xyz
1 x,y,z
2 -x,1/2+y,1/2-z
3 -x,-y,-z
4 x,1/2-y,1/2+z
_cell_length_a                   7.9420(13)
_cell_length_b                   20.352(3)
_cell_length_c                   8.2972(14)
_cell_angle_alpha                90
_cell_angle_beta                 106.620(5)
_cell_angle_gamma                90
_cell_volume                     1285.09
_exptl_crystal_colour            colorless
_exptl_crystal_description       prism
_cell_formula_units_Z            4
loop_
_atom_site_label
_atom_site_type_symbol
_atom_site_fract_x
_atom_site_fract_y
_atom_site_fract_z
C1 C -0.0113(3) 0.58542(11) 0.2547(3)
H1 H -0.0891 0.5658 0.1616
C2 C -0.0166(3) 0.65219(11) 0.2779(3)
H2 H -0.0982 0.6781 0.2015
C3 C 0.1010(2) 0.68003(10) 0.4159(3)
H3 H 0.0960 0.7249 0.4352
C4 C 0.2275(2) 0.64158(9) 0.5271(2)
C5 C 0.3591(2) 0.67304(8) 0.6779(2)
C6 C 0.6083(2) 0.70941(8) 0.6106(2)
C7 C 0.5217(2) 0.62729(8) 0.7653(2)
C8 C 0.4878(2) 0.55393(8) 0.7408(2)
C9 C 0.6001(2) 0.50849(9) 0.8421(2)
H4 H 0.6963 0.5226 0.9282
C10 C 0.5678(2) 0.44209(9) 0.8141(2)
H5 H 0.6423 0.4111 0.8805
C11 C 0.4231(3) 0.42256(9) 0.6860(2)
H6 H 0.4009 0.3778 0.6693
C12 C 0.3479(2) 0.52914(8) 0.6134(2)
C13 C 0.2261(2) 0.57459(8) 0.5007(2)
N1 N 0.10578(19) 0.54886(8) 0.36612(19)
H7 H 0.1046 0.5070 0.3516
N2 N 0.3139(2) 0.46487(7) 0.58529(19)
N3 N 0.44790(19) 0.72802(7) 0.6258(2)
H8 H 0.4054 0.7671 0.6071
N4 N 0.64752(19) 0.64940(7) 0.68046(18)
H9 H 0.7373 0.6268 0.6752
O1 O 0.70045(17) 0.74179(6) 0.54285(17)
O2 O 0.26989(17) 0.69570(7) 0.79061(17)
H10 H 0.2216 0.6647 0.8224
O3 O 0.58135(18) 0.63742(6) 0.93855(15)
H11 H 0.6013 0.6766 0.9577
Cl1 Cl 0.03122(6) 0.58193(2) 0.83116(6)
loop_
_geom_bond_atom_site_label_1
_geom_bond_atom_site_label_2
_geom_bond_site_symmetry_1
_geom_bond_site_symmetry_2
C1 H1 1_555 1_555
C2 C1 1_555 1_555
H2 C2 1_555 1_555
C3 C2 1_555 1_555
H3 C3 1_555 1_555
C4 C3 1_555 1_555
C5 C4 1_555 1_555
C6 N3 1_555 1_555
C7 C5 1_555 1_555
C8 C7 1_555 1_555
C9 C8 1_555 1_555
H4 C9 1_555 1_555
C10 C9 1_555 1_555
H5 C10 1_555 1_555
C11 C10 1_555 1_555
H6 C11 1_555 1_555
C12 C8 1_555 1_555
C13 C4 1_555 1_555
N1 C1 1_555 1_555
H7 N1 1_555 1_555
N2 C11 1_555 1_555
N3 C5 1_555 1_555
H8 N3 1_555 1_555
N4 C6 1_555 1_555
H9 N4 1_555 1_555
O1 C6 1_555 1_555
O2 C5 1_555 1_555
H10 O2 1_555 1_555
O3 C7 1_555 1_555
H11 O3 1_555 1_555
C7 N4 1_555 1_555
C12 C13 1_555 1_555
C12 N2 1_555 1_555
C13 N1 1_555 1_555

#END
