
#######################################################################
#
#                 Cambridge Crystallographic Data Centre
#                                CCDC 
#
#######################################################################
#
# If this CIF has been generated from an entry in the Cambridge 
# Structural Database, then it will include bibliographic, chemical, 
# crystal, experimental, refinement or atomic coordinate data resulting 
# from the CCDC's data processing and validation procedures.
#
#######################################################################

data_HOFCIP
_chemical_formula_moiety         'C20 H19 N1 O1'
_chemical_name_systematic        2-(6-Methyl-2-pyridyl)-1,1-diphenylethanol
_symmetry_cell_setting           monoclinic
_symmetry_space_group_name_H-M   'P 21/c'
_symmetry_Int_Tables_number      14
_space_group_name_Hall           '-P 2ybc'
loop_
_symmetry_equiv_pos_site_id
_symmetry_equiv_pos_as_xyz
1 x,y,z
2 -x,1/2+y,1/2-z
3 -x,-y,-z
4 x,1/2-y,1/2+z
_cell_length_a                   13.466(2)
_cell_length_b                   8.0220(10)
_cell_length_c                   30.220(3)
_cell_angle_alpha                90
_cell_angle_beta                 102.874(3)
_cell_angle_gamma                90
_cell_volume                     3182.43
_exptl_crystal_colour            colorless
_exptl_crystal_description       block
_cell_formula_units_Z            8
_exptl_crystal_recrystallization_method 'light petroleum/ethyl acetate'
loop_
_atom_site_label
_atom_site_type_symbol
_atom_site_fract_x
_atom_site_fract_y
_atom_site_fract_z
C1 C 0.55525(11) 0.30363(18) 0.12015(5)
C2 C 0.52945(10) 0.15683(18) 0.14763(5)
C3 C 0.46070(12) 0.1698(2) 0.17575(5)
H1 H 0.4257 0.2692 0.1767
C4 C 0.44374(14) 0.0364(3) 0.20236(6)
H2 H 0.3981 0.0474 0.2212
C5 C 0.49408(16) -0.1119(3) 0.20098(7)
H3 H 0.4823 -0.2014 0.2187
C6 C 0.56142(15) -0.1273(2) 0.17356(7)
H4 H 0.5959 -0.2274 0.1728
C7 C 0.57882(12) 0.0055(2) 0.14681(6)
H5 H 0.6244 -0.0072 0.1280
C8 C 0.64575(11) 0.40377(18) 0.14754(5)
C9 C 0.67094(12) 0.4062(2) 0.19461(6)
H6 H 0.6339 0.3416 0.2108
C10 C 0.75135(13) 0.5046(2) 0.21792(7)
H7 H 0.7665 0.5063 0.2495
C11 C 0.80791(14) 0.5984(2) 0.19495(8)
H8 H 0.8616 0.6630 0.2107
C12 C 0.78427(14) 0.5961(3) 0.14796(9)
H9 H 0.8224 0.6593 0.1320
C13 C 0.70373(13) 0.4996(2) 0.12451(7)
H10 H 0.6885 0.4992 0.0929
C14 C 0.46541(11) 0.42749(19) 0.10506(5)
H11 H 0.4463 0.4708 0.1320
H12 H 0.4889 0.5207 0.0897
C15 C 0.37153(11) 0.35434(19) 0.07395(5)
C16 C 0.27485(13) 0.3698(2) 0.08237(6)
H13 H 0.2649 0.4206 0.1087
C17 C 0.19352(14) 0.3071(3) 0.05024(8)
H14 H 0.1277 0.3158 0.0548
C18 C 0.20984(15) 0.2327(3) 0.01190(7)
H15 H 0.1552 0.1917 -0.0098
C19 C 0.30793(15) 0.2184(2) 0.00548(6)
C20 C 0.3320(2) 0.1393(3) -0.03588(7)
H16 H 0.3601 0.2215 -0.0527
H17 H 0.2708 0.0944 -0.0546
H18 H 0.3806 0.0512 -0.0268
N1 N 0.38751(11) 0.28000(18) 0.03621(5)
O1 O 0.58575(9) 0.24349(15) 0.08070(4)
H37 H 0.5263(15) 0.224(2) 0.0571(7)
C21 C 0.06735(10) 0.80270(18) 0.12103(5)
C22 C 0.00363(11) 0.90017(18) 0.14826(5)
C23 C -0.07527(13) 1.0013(2) 0.12473(7)
H19 H -0.0884 1.0060 0.0932
C24 C -0.13383(15) 1.0943(3) 0.14768(9)
H20 H -0.1863 1.1604 0.1316
C25 C -0.11486(15) 1.0896(3) 0.19424(8)
H21 H -0.1544 1.1524 0.2097
C26 C -0.03709(15) 0.9914(3) 0.21801(7)
H22 H -0.0241 0.9879 0.2495
C27 C 0.02182(12) 0.8979(2) 0.19507(6)
H23 H 0.0744 0.8326 0.2114
C28 C 0.12469(11) 0.65852(18) 0.14885(5)
C29 C 0.07775(13) 0.5045(2) 0.14868(6)
H24 H 0.0135 0.4876 0.1302
C30 C 0.12589(15) 0.3745(2) 0.17595(7)
H25 H 0.0939 0.2716 0.1754
C31 C 0.22188(17) 0.3991(3) 0.20394(7)
H26 H 0.2533 0.3132 0.2226
C32 C 0.26986(14) 0.5481(3) 0.20410(6)
H27 H 0.3346 0.5633 0.2224
C33 C 0.22213(12) 0.6781(2) 0.17688(6)
H28 H 0.2555 0.7798 0.1773
C34 C 0.14015(11) 0.92662(19) 0.10486(5)
H29 H 0.1001 1.0187 0.0895
H30 H 0.1868 0.9716 0.1313
C35 C 0.20135(12) 0.85435(19) 0.07364(5)
C36 C 0.30642(13) 0.8702(2) 0.08174(6)
H31 H 0.3428 0.9219 0.1079
C37 C 0.35558(15) 0.8070(3) 0.04974(7)
H32 H 0.4260 0.8155 0.0542
C38 C 0.29968(16) 0.7313(3) 0.01125(7)
H33 H 0.3320 0.6899 -0.0106
C39 C 0.19560(14) 0.7175(2) 0.00542(6)
C40 C 0.12872(14) 0.6369(3) -0.03596(6)
H34 H 0.0893 0.5496 -0.0265
H35 H 0.1707 0.5909 -0.0548
H36 H 0.0838 0.7190 -0.0528
N2 N 0.14697(11) 0.77822(18) 0.03610(4)
O2 O -0.00304(8) 0.73711(15) 0.08224(4)
H38 H 0.0333(14) 0.704(2) 0.0597(7)
loop_
_geom_bond_atom_site_label_1
_geom_bond_atom_site_label_2
_geom_bond_site_symmetry_1
_geom_bond_site_symmetry_2
C1 C2 1_555 1_555
C2 C3 1_555 1_555
C3 H1 1_555 1_555
C4 C3 1_555 1_555
H2 C4 1_555 1_555
C5 C4 1_555 1_555
H3 C5 1_555 1_555
C6 C5 1_555 1_555
H4 C6 1_555 1_555
C7 C2 1_555 1_555
H5 C7 1_555 1_555
C8 C1 1_555 1_555
C9 C8 1_555 1_555
H6 C9 1_555 1_555
C10 C9 1_555 1_555
H7 C10 1_555 1_555
C11 C10 1_555 1_555
H8 C11 1_555 1_555
C12 C11 1_555 1_555
H9 C12 1_555 1_555
C13 C8 1_555 1_555
H10 C13 1_555 1_555
C14 C1 1_555 1_555
H11 C14 1_555 1_555
H12 C14 1_555 1_555
C15 C14 1_555 1_555
C16 C15 1_555 1_555
H13 C16 1_555 1_555
C17 C16 1_555 1_555
H14 C17 1_555 1_555
C18 C17 1_555 1_555
H15 C18 1_555 1_555
C19 C18 1_555 1_555
C20 C19 1_555 1_555
H16 C20 1_555 1_555
H17 C20 1_555 1_555
H18 C20 1_555 1_555
C21 C22 1_555 1_555
C22 C23 1_555 1_555
C23 H19 1_555 1_555
C24 C23 1_555 1_555
H20 C24 1_555 1_555
C25 C24 1_555 1_555
H21 C25 1_555 1_555
C26 C25 1_555 1_555
H22 C26 1_555 1_555
C27 C22 1_555 1_555
H23 C27 1_555 1_555
C28 C21 1_555 1_555
C29 C28 1_555 1_555
H24 C29 1_555 1_555
C30 C29 1_555 1_555
H25 C30 1_555 1_555
C31 C30 1_555 1_555
H26 C31 1_555 1_555
C32 C31 1_555 1_555
H27 C32 1_555 1_555
C33 C28 1_555 1_555
H28 C33 1_555 1_555
C34 C21 1_555 1_555
H29 C34 1_555 1_555
H30 C34 1_555 1_555
C35 C34 1_555 1_555
C36 C35 1_555 1_555
H31 C36 1_555 1_555
C37 C36 1_555 1_555
H32 C37 1_555 1_555
C38 C37 1_555 1_555
H33 C38 1_555 1_555
C39 C38 1_555 1_555
C40 C39 1_555 1_555
H34 C40 1_555 1_555
H35 C40 1_555 1_555
H36 C40 1_555 1_555
N1 C15 1_555 1_555
N2 C35 1_555 1_555
O1 C1 1_555 1_555
H37 O1 1_555 1_555
O2 C21 1_555 1_555
H38 O2 1_555 1_555
C6 C7 1_555 1_555
C12 C13 1_555 1_555
C19 N1 1_555 1_555
C26 C27 1_555 1_555
C32 C33 1_555 1_555
C39 N2 1_555 1_555

#END
