
#######################################################################
#
#                 Cambridge Crystallographic Data Centre
#                                CCDC 
#
#######################################################################
#
# If this CIF has been generated from an entry in the Cambridge 
# Structural Database, then it will include bibliographic, chemical, 
# crystal, experimental, refinement or atomic coordinate data resulting 
# from the CCDC's data processing and validation procedures.
#
#######################################################################

data_HOFFOY
_chemical_formula_moiety         'C18 H19 F3 N2 O7'
_chemical_name_systematic        
'3-Ethyl 5-methyl 2-hydroxy-6-methyl-4-(4-nitrophenyl)-2-trifluoromethyl-1,2,3,4-tetrahydropyridine-3,5-dicarboxylate'
_symmetry_cell_setting           monoclinic
_symmetry_space_group_name_H-M   'C 2/c'
_symmetry_Int_Tables_number      15
_space_group_name_Hall           '-C 2yn'
loop_
_symmetry_equiv_pos_site_id
_symmetry_equiv_pos_as_xyz
1 x,y,z
2 1/2+x,1/2+y,z
3 -x,y,1/2-z
4 1/2-x,1/2+y,1/2-z
5 -x,-y,-z
6 1/2-x,1/2-y,-z
7 x,-y,1/2+z
8 1/2+x,1/2-y,1/2+z
_cell_length_a                   28.678(6)
_cell_length_b                   9.6678(19)
_cell_length_c                   14.120(3)
_cell_angle_alpha                90
_cell_angle_beta                 95.72(3)
_cell_angle_gamma                90
_cell_volume                     3895.32
_exptl_crystal_colour            colorless
_exptl_crystal_description       prism
_cell_formula_units_Z            8
_exptl_crystal_recrystallization_method ethanol
loop_
_atom_site_label
_atom_site_type_symbol
_atom_site_fract_x
_atom_site_fract_y
_atom_site_fract_z
F1 F 0.08689(6) 0.58977(17) 0.93658(13)
F2 F 0.15032(7) 0.70065(15) 0.97856(12)
F3 F 0.12464(6) 0.68534(15) 0.83137(11)
O2 O 0.06713(19) -0.1837(7) 0.5322(3)
O3 O 0.01478(8) -0.1793(3) 0.63009(19)
O4 O 0.13847(6) 0.44788(18) 0.67834(12)
O5 O 0.06795(6) 0.44145(19) 0.73469(12)
O6 O 0.21673(6) 0.00503(18) 1.01751(13)
O7 O 0.21490(6) 0.01870(17) 0.85947(12)
O8 O 0.19972(6) 0.52220(18) 0.86560(12)
H1 H 0.2218 0.5189 0.9071
N1 N 0.05038(9) -0.1349(3) 0.6024(2)
N2 N 0.16656(7) 0.42268(18) 0.99703(13)
H2 H 0.1630 0.4725 1.0463
C1 C 0.13495(7) 0.1409(2) 0.77500(16)
C2 C 0.14347(8) 0.1173(2) 0.68116(16)
H3 H 0.1683 0.1621 0.6565
C3 C 0.11549(9) 0.0281(2) 0.62409(18)
H4 H 0.1210 0.0132 0.5611
C4 C 0.07957(8) -0.0378(2) 0.66212(18)
C5 C 0.07026(9) -0.0190(3) 0.75489(19)
H5 H 0.0458 -0.0659 0.7793
C6 C 0.09829(8) 0.0715(2) 0.81067(17)
H6 H 0.0924 0.0860 0.8735
C7 C 0.16340(7) 0.2485(2) 0.83367(15)
H7 H 0.1902 0.2747 0.7996
C8 C 0.18168(7) 0.2018(2) 0.93315(15)
C9 C 0.18004(7) 0.2873(2) 1.00940(15)
C10 C 0.15830(8) 0.4834(2) 0.90448(17)
C11 C 0.13175(8) 0.3763(2) 0.83985(16)
H8 H 0.1044 0.3473 0.8711
C12 C 0.11414(9) 0.4275(2) 0.74130(17)
C13 C 0.04231(12) 0.4735(4) 0.6429(2)
H9 H 0.0637 0.5090 0.5997
H10 H 0.0189 0.5439 0.6509
C14 C 0.01957(13) 0.3484(4) 0.6032(2)
H11 H 0.0430 0.2830 0.5884
H12 H -0.0001 0.3712 0.5462
H13 H 0.0008 0.3086 0.6488
C15 C 0.20522(8) 0.0677(2) 0.94376(17)
C16 C 0.23732(10) -0.1148(3) 0.8569(2)
H14 H 0.2607 -0.1231 0.9101
H15 H 0.2518 -0.1237 0.7987
H16 H 0.2143 -0.1864 0.8601
C17 C 0.19319(8) 0.2520(2) 1.11186(15)
H17 H 0.1907 0.3331 1.1502
H18 H 0.2249 0.2184 1.1198
H19 H 0.1725 0.1818 1.1313
C18 C 0.12955(10) 0.6156(2) 0.91287(19)
O1? O 0.0452(7) -0.100(2) 0.5112(8)
loop_
_geom_bond_atom_site_label_1
_geom_bond_atom_site_label_2
_geom_bond_site_symmetry_1
_geom_bond_site_symmetry_2
F1 C18 1_555 1_555
F2 C18 1_555 1_555
F3 C18 1_555 1_555
O2 N1 1_555 1_555
O3 N1 1_555 1_555
O4 C12 1_555 1_555
O5 C12 1_555 1_555
O6 C15 1_555 1_555
O7 C15 1_555 1_555
O8 H1 1_555 1_555
N1 C4 1_555 1_555
N2 H2 1_555 1_555
C1 C2 1_555 1_555
C2 H3 1_555 1_555
C3 C2 1_555 1_555
H4 C3 1_555 1_555
C4 C3 1_555 1_555
C5 C4 1_555 1_555
H5 C5 1_555 1_555
C6 C1 1_555 1_555
H6 C6 1_555 1_555
C7 C1 1_555 1_555
H7 C7 1_555 1_555
C8 C7 1_555 1_555
C9 N2 1_555 1_555
C10 O8 1_555 1_555
C11 C7 1_555 1_555
H8 C11 1_555 1_555
C12 C11 1_555 1_555
C13 O5 1_555 1_555
H9 C13 1_555 1_555
H10 C13 1_555 1_555
C14 C13 1_555 1_555
H11 C14 1_555 1_555
H12 C14 1_555 1_555
H13 C14 1_555 1_555
C15 C8 1_555 1_555
C16 O7 1_555 1_555
H14 C16 1_555 1_555
H15 C16 1_555 1_555
H16 C16 1_555 1_555
C17 C9 1_555 1_555
H17 C17 1_555 1_555
H18 C17 1_555 1_555
H19 C17 1_555 1_555
C18 C10 1_555 1_555
N2 C10 1_555 1_555
C5 C6 1_555 1_555
C8 C9 1_555 1_555
C10 C11 1_555 1_555

#END
