
#######################################################################
#
#                 Cambridge Crystallographic Data Centre
#                                CCDC 
#
#######################################################################
#
# If this CIF has been generated from an entry in the Cambridge 
# Structural Database, then it will include bibliographic, chemical, 
# crystal, experimental, refinement or atomic coordinate data resulting 
# from the CCDC's data processing and validation procedures.
#
#######################################################################

data_HOFPOJ
_chemical_formula_moiety         'C20 H19 N1 O2'
_chemical_name_systematic        
3-(3-(5,6,7,8-Tetrahydroindolizin-1-yl)but-2-en-1-ylidene)-1-benzofuran-2(3H)-one
_symmetry_cell_setting           triclinic
_symmetry_space_group_name_H-M   'P -1'
_symmetry_Int_Tables_number      2
_space_group_name_Hall           '-P 1'
loop_
_symmetry_equiv_pos_site_id
_symmetry_equiv_pos_as_xyz
1 x,y,z
2 -x,-y,-z
_cell_length_a                   7.2672(8)
_cell_length_b                   8.9589(9)
_cell_length_c                   12.7454(17)
_cell_angle_alpha                109.570(10)
_cell_angle_beta                 95.718(10)
_cell_angle_gamma                96.578(9)
_cell_volume                     768.233
_exptl_crystal_colour            colorless
_exptl_crystal_description       block
_cell_formula_units_Z            2
loop_
_atom_site_label
_atom_site_type_symbol
_atom_site_fract_x
_atom_site_fract_y
_atom_site_fract_z
O1 O 0.3831(2) 0.40282(17) 0.63438(13)
O2 O 0.3384(2) 0.16806(16) 0.66388(14)
N1 N 0.1542(2) 0.6934(2) 1.35062(15)
C1 C 0.1497(3) 0.8554(3) 1.4296(2)
H1 H 0.2166 0.8689 1.5027
H2 H 0.0210 0.8694 1.4382
C2 C 0.2387(3) 0.9797(3) 1.3866(2)
H3 H 0.3730 0.9807 1.3928
H4 H 0.2161 1.0851 1.4318
C3 C 0.1570(3) 0.9416(2) 1.2648(2)
H5 H 0.2061 1.0268 1.2394
H6 H 0.0220 0.9352 1.2583
C4 C 0.2064(3) 0.7822(2) 1.19080(19)
H7 H 0.1287 0.7467 1.1178
H8 H 0.3360 0.7987 1.1792
C5 C 0.1795(3) 0.6545(2) 1.24116(18)
C6 C 0.1685(3) 0.4866(2) 1.19559(18)
C7 C 0.1321(3) 0.4293(3) 1.2850(2)
H9 H 0.1162 0.3226 1.2801
C8 C 0.1248(3) 0.5568(3) 1.3776(2)
H10 H 0.1036 0.5530 1.4475
C9 C 0.1902(3) 0.3870(2) 1.08293(18)
C10 C 0.2489(3) 0.4476(2) 1.00462(18)
H11 H 0.2722 0.5588 1.0262
C11 C 0.2781(3) 0.3592(2) 0.89394(18)
H12 H 0.2646 0.2483 0.8743
C12 C 0.3238(3) 0.4193(2) 0.81365(18)
C13 C 0.3483(3) 0.5796(2) 0.80820(19)
C14 C 0.3422(3) 0.7335(2) 0.8823(2)
H13 H 0.3224 0.7504 0.9561
C15 C 0.3664(3) 0.8611(3) 0.8436(2)
H14 H 0.3619 0.9641 0.8923
C16 C 0.3971(3) 0.8383(3) 0.7347(2)
H15 H 0.4102 0.9260 0.7110
C17 C 0.4087(3) 0.6869(3) 0.6593(2)
H16 H 0.4327 0.6709 0.5863
C18 C 0.3826(3) 0.5626(2) 0.69952(19)
C19 C 0.3477(3) 0.3126(2) 0.70193(19)
C20 C 0.1469(3) 0.2082(2) 1.0577(2)
H17 H 0.1647 0.1520 0.9817
H18 H 0.0194 0.1804 1.0667
H19 H 0.2293 0.1789 1.1086
loop_
_geom_bond_atom_site_label_1
_geom_bond_atom_site_label_2
_geom_bond_site_symmetry_1
_geom_bond_site_symmetry_2
O1 C18 1_555 1_555
O2 C19 1_555 1_555
N1 C1 1_555 1_555
C1 H1 1_555 1_555
H2 C1 1_555 1_555
C2 C1 1_555 1_555
H3 C2 1_555 1_555
H4 C2 1_555 1_555
C3 C2 1_555 1_555
H5 C3 1_555 1_555
H6 C3 1_555 1_555
C4 C3 1_555 1_555
H7 C4 1_555 1_555
H8 C4 1_555 1_555
C5 N1 1_555 1_555
C6 C5 1_555 1_555
C7 C6 1_555 1_555
H9 C7 1_555 1_555
C8 N1 1_555 1_555
H10 C8 1_555 1_555
C9 C6 1_555 1_555
C10 C9 1_555 1_555
H11 C10 1_555 1_555
C11 C10 1_555 1_555
H12 C11 1_555 1_555
C12 C11 1_555 1_555
C13 C12 1_555 1_555
C14 C13 1_555 1_555
H13 C14 1_555 1_555
C15 C14 1_555 1_555
H14 C15 1_555 1_555
C16 C15 1_555 1_555
H15 C16 1_555 1_555
C17 C16 1_555 1_555
H16 C17 1_555 1_555
C18 C13 1_555 1_555
C19 O1 1_555 1_555
C20 C9 1_555 1_555
H17 C20 1_555 1_555
H18 C20 1_555 1_555
H19 C20 1_555 1_555
C4 C5 1_555 1_555
C7 C8 1_555 1_555
C12 C19 1_555 1_555
C17 C18 1_555 1_555

#END
