
#######################################################################
#
#                 Cambridge Crystallographic Data Centre
#                                CCDC 
#
#######################################################################
#
# If this CIF has been generated from an entry in the Cambridge 
# Structural Database, then it will include bibliographic, chemical, 
# crystal, experimental, refinement or atomic coordinate data resulting 
# from the CCDC's data processing and validation procedures.
#
#######################################################################

data_HOFREB
_chemical_formula_moiety         'C25 H23 N1 O2 S1'
_chemical_name_systematic        
1-((4-Methylphenyl)sulfonyl)-2,6-diphenyl-2,5-dihydro-1H-azepine
_symmetry_cell_setting           orthorhombic
_symmetry_space_group_name_H-M   'P 21 21 21'
_symmetry_Int_Tables_number      19
_space_group_name_Hall           'P 2ac 2ab'
loop_
_symmetry_equiv_pos_site_id
_symmetry_equiv_pos_as_xyz
1 x,y,z
2 1/2-x,-y,1/2+z
3 -x,1/2+y,1/2-z
4 1/2+x,1/2-y,-z
_cell_length_a                   6.7297(13)
_cell_length_b                   9.3412(19)
_cell_length_c                   32.855(7)
_cell_angle_alpha                90
_cell_angle_beta                 90
_cell_angle_gamma                90
_cell_volume                     2065.38
_exptl_crystal_colour            colorless
_exptl_crystal_description       block
_cell_formula_units_Z            4
loop_
_atom_site_label
_atom_site_type_symbol
_atom_site_fract_x
_atom_site_fract_y
_atom_site_fract_z
S1 S 0.33344(5) 0.49237(4) 0.851838(11)
O1 O 0.18219(16) 0.49406(13) 0.88254(3)
O2 O 0.28584(17) 0.52575(12) 0.81031(3)
N1 N 0.4341(2) 0.33298(14) 0.85238(4)
C1 C 1.0094(3) 0.8755(2) 0.90513(7)
H1 H 1.1241 0.8147 0.9112
H2 H 0.9720 0.9296 0.9295
H3 H 1.0439 0.9423 0.8832
C2 C 0.8375(3) 0.78348(17) 0.89188(5)
C3 C 0.6886(3) 0.74564(18) 0.91922(5)
H4 H 0.6946 0.7801 0.9464
C4 C 0.5311(2) 0.65825(18) 0.90752(5)
H5 H 0.4306 0.6326 0.9265
C5 C 0.5236(2) 0.60918(17) 0.86765(5)
C6 C 0.6705(3) 0.64631(18) 0.83964(5)
H6 H 0.6639 0.6128 0.8124
C7 C 0.8264(3) 0.73292(18) 0.85218(6)
H7 H 0.9274 0.7581 0.8333
C8 C 0.5269(2) 0.27037(17) 0.81568(5)
H8 H 0.5246 0.3465 0.7943
C9 C 0.7409(2) 0.22808(18) 0.82118(5)
H9 H 0.8042 0.1921 0.7974
C10 C 0.8542(2) 0.23340(17) 0.85393(5)
H10 H 0.9884 0.2046 0.8503
C11 C 0.7979(2) 0.27949(19) 0.89657(5)
H11 H 0.7978 0.3854 0.8977
H12 H 0.9007 0.2448 0.9157
C12 C 0.5969(2) 0.22544(17) 0.91066(5)
C13 C 0.4314(2) 0.25697(16) 0.89006(5)
H13 H 0.3070 0.2276 0.9009
C14 C 0.4008(2) 0.14726(17) 0.79970(5)
C15 C 0.4335(3) 0.0066(2) 0.81193(5)
H14 H 0.5382 -0.0147 0.8303
C16 C 0.3134(3) -0.10270(19) 0.79727(6)
H15 H 0.3360 -0.1985 0.8058
C17 C 0.1605(3) -0.07249(19) 0.77026(5)
H16 H 0.0789 -0.1477 0.7603
C18 C 0.1267(2) 0.06705(19) 0.75787(5)
H17 H 0.0218 0.0880 0.7395
C19 C 0.2472(2) 0.17641(18) 0.77251(5)
H18 H 0.2245 0.2721 0.7639
C20 C 0.5820(2) 0.13981(17) 0.94871(5)
C21 C 0.4312(2) 0.03864(17) 0.95359(5)
H19 H 0.3427 0.0203 0.9317
C22 C 0.4079(3) -0.03566(18) 0.98989(5)
H20 H 0.3022 -0.1022 0.9928
C23 C 0.5390(3) -0.01296(19) 1.02190(5)
H21 H 0.5239 -0.0640 1.0467
C24 C 0.6922(3) 0.08503(18) 1.01729(5)
H22 H 0.7832 0.1004 1.0390
C25 C 0.7136(2) 0.16106(18) 0.98110(5)
H23 H 0.8188 0.2282 0.9784
loop_
_geom_bond_atom_site_label_1
_geom_bond_atom_site_label_2
_geom_bond_site_symmetry_1
_geom_bond_site_symmetry_2
S1 O1 1_555 1_555
O2 S1 1_555 1_555
N1 S1 1_555 1_555
C1 H1 1_555 1_555
H2 C1 1_555 1_555
H3 C1 1_555 1_555
C2 C1 1_555 1_555
C3 C2 1_555 1_555
H4 C3 1_555 1_555
C4 C3 1_555 1_555
H5 C4 1_555 1_555
C5 S1 1_555 1_555
C6 C5 1_555 1_555
H6 C6 1_555 1_555
C7 C2 1_555 1_555
H7 C7 1_555 1_555
C8 N1 1_555 1_555
H8 C8 1_555 1_555
C9 C8 1_555 1_555
H9 C9 1_555 1_555
C10 C9 1_555 1_555
H10 C10 1_555 1_555
C11 C10 1_555 1_555
H11 C11 1_555 1_555
H12 C11 1_555 1_555
C12 C11 1_555 1_555
C13 N1 1_555 1_555
H13 C13 1_555 1_555
C14 C8 1_555 1_555
C15 C14 1_555 1_555
H14 C15 1_555 1_555
C16 C15 1_555 1_555
H15 C16 1_555 1_555
C17 C16 1_555 1_555
H16 C17 1_555 1_555
C18 C17 1_555 1_555
H17 C18 1_555 1_555
C19 C14 1_555 1_555
H18 C19 1_555 1_555
C20 C12 1_555 1_555
C21 C20 1_555 1_555
H19 C21 1_555 1_555
C22 C21 1_555 1_555
H20 C22 1_555 1_555
C23 C22 1_555 1_555
H21 C23 1_555 1_555
C24 C23 1_555 1_555
H22 C24 1_555 1_555
C25 C20 1_555 1_555
H23 C25 1_555 1_555
C4 C5 1_555 1_555
C6 C7 1_555 1_555
C12 C13 1_555 1_555
C18 C19 1_555 1_555
C24 C25 1_555 1_555

#END
