
#######################################################################
#
#                 Cambridge Crystallographic Data Centre
#                                CCDC 
#
#######################################################################
#
# If this CIF has been generated from an entry in the Cambridge 
# Structural Database, then it will include bibliographic, chemical, 
# crystal, experimental, refinement or atomic coordinate data resulting 
# from the CCDC's data processing and validation procedures.
#
#######################################################################

data_HOGPOK
_chemical_formula_moiety         'C32 H30 N3 O2 1+,C1 F3 O3 S1 1-'
_chemical_name_systematic        
'3-Benzyl-4-((4-methoxyphenyl)carbamoyl)-2-phenyl-1-(1-phenylvinyl)-4,5-dihydro-1H-imidazol-3-ium trifluoromethanesulfonate'
_symmetry_cell_setting           triclinic
_symmetry_space_group_name_H-M   'P -1'
_symmetry_Int_Tables_number      2
_space_group_name_Hall           '-P 1'
loop_
_symmetry_equiv_pos_site_id
_symmetry_equiv_pos_as_xyz
1 x,y,z
2 -x,-y,-z
_cell_length_a                   8.012(2)
_cell_length_b                   13.115(4)
_cell_length_c                   15.516(5)
_cell_angle_alpha                102.467(3)
_cell_angle_beta                 104.463(4)
_cell_angle_gamma                98.556(3)
_cell_volume                     1505.65
_exptl_crystal_colour            colorless
_exptl_crystal_description       block
_cell_formula_units_Z            2
loop_
_atom_site_label
_atom_site_type_symbol
_atom_site_fract_x
_atom_site_fract_y
_atom_site_fract_z
S1 S 0.95421(5) 0.16530(3) 0.09538(3)
F1 F 0.91505(19) 0.33595(9) 0.20767(10)
F2 F 0.67383(17) 0.22467(15) 0.12892(10)
F3 F 0.84524(19) 0.19184(10) 0.24368(8)
O1 O 0.91947(18) 0.21361(12) 0.01994(9)
O2 O 0.8677(2) 0.05528(11) 0.07472(10)
O3 O 1.13605(16) 0.19236(11) 0.15106(9)
C1 C 0.8421(2) 0.23263(14) 0.17266(12)
O4 O 0.58758(16) 0.02708(9) 0.31315(8)
O5 O 0.8201(2) 0.51182(10) 0.56489(9)
N1 N 0.48405(17) -0.16616(10) 0.12292(9)
N2 N 0.28138(16) -0.12185(10) 0.18748(8)
N3 N 0.43895(18) 0.15540(10) 0.27650(9)
H1 H 0.3480 0.1652 0.2361
C2 C 0.3573(2) -0.02144(12) 0.17063(10)
H2 H 0.2637 0.0107 0.1374
C3 C 0.35982(19) -0.19890(12) 0.16014(10)
C4 C 0.4755(2) -0.05822(12) 0.11065(11)
H3 H 0.4216 -0.0611 0.0452
H4 H 0.5941 -0.0105 0.1330
C5 C 0.4720(2) 0.05660(12) 0.26246(10)
C6 C 0.5371(2) 0.24562(13) 0.35046(11)
C7 C 0.5438(2) 0.34575(14) 0.33529(12)
H5 H 0.4844 0.3524 0.2762
C8 C 0.6364(3) 0.43734(14) 0.40523(12)
H6 H 0.6396 0.5059 0.3939
C9 C 0.7238(2) 0.42800(14) 0.49124(12)
C10 C 0.7180(3) 0.32708(14) 0.50666(12)
H7 H 0.7789 0.3204 0.5654
C11 C 0.6242(2) 0.23624(14) 0.43723(12)
H8 H 0.6193 0.1677 0.4487
C12 C 0.8286(3) 0.61675(16) 0.55226(15)
H9 H 0.8832 0.6230 0.5032
H10 H 0.8993 0.6693 0.6099
H11 H 0.7091 0.6300 0.5350
C13 C 0.1167(2) -0.13431(13) 0.21304(11)
H12 H 0.0820 -0.2088 0.2162
H13 H 0.0221 -0.1211 0.1646
C14 C 0.1341(2) -0.05853(12) 0.30490(11)
C15 C 0.0265(2) 0.01475(13) 0.30927(12)
H14 H -0.0545 0.0185 0.2543
C16 C 0.0361(3) 0.08274(15) 0.39319(13)
H15 H -0.0396 0.1319 0.3958
C17 C 0.1563(3) 0.07873(16) 0.47313(13)
H16 H 0.1645 0.1262 0.5305
C18 C 0.2643(3) 0.00607(16) 0.46995(12)
H17 H 0.3462 0.0031 0.5250
C19 C 0.2527(2) -0.06242(14) 0.38612(12)
H18 H 0.3265 -0.1127 0.3840
C20 C 0.8348(2) -0.30755(15) 0.30630(12)
H19 H 0.8826 -0.2782 0.3711
C21 C 0.3120(2) -0.30971(12) 0.16622(11)
C22 C 0.3443(2) -0.33336(14) 0.25137(12)
H20 H 0.3923 -0.2777 0.3069
C23 C 0.3057(3) -0.43881(15) 0.25449(14)
H21 H 0.3294 -0.4558 0.3123
C24 C 0.2326(2) -0.51943(14) 0.17346(15)
H22 H 0.2075 -0.5917 0.1757
C25 C 0.1961(2) -0.49524(14) 0.08932(14)
H23 H 0.1424 -0.5508 0.0341
C26 C 0.2373(2) -0.39041(13) 0.08489(12)
H24 H 0.2146 -0.3740 0.0269
C27 C 0.6101(2) -0.22298(12) 0.09701(11)
C28 C 0.6697(2) -0.20718(15) 0.02753(12)
H25 H 0.6285 -0.1580 -0.0051
H26 H 0.7537 -0.2451 0.0103
C29 C 0.6830(2) -0.28938(13) 0.15719(11)
C30 C 0.6946(3) -0.39263(15) 0.11775(13)
H27 H 0.6454 -0.4228 0.0531
C31 C 0.7777(3) -0.45197(17) 0.17234(16)
H28 H 0.7858 -0.5224 0.1447
C32 C 0.8487(3) -0.40983(17) 0.26624(14)
H29 H 0.9067 -0.4505 0.3032
C33 C 0.7514(2) -0.24780(13) 0.25248(11)
H30 H 0.7409 -0.1781 0.2806
loop_
_geom_bond_atom_site_label_1
_geom_bond_atom_site_label_2
_geom_bond_site_symmetry_1
_geom_bond_site_symmetry_2
S1 O1 1_555 1_555
F1 C1 1_555 1_555
F2 C1 1_555 1_555
F3 C1 1_555 1_555
O2 S1 1_555 1_555
O3 S1 1_555 1_555
C1 S1 1_555 1_555
O4 C5 1_555 1_555
O5 C9 1_555 1_555
N1 C3 1_555 1_555
N2 C2 1_555 1_555
N3 H1 1_555 1_555
C2 H2 1_555 1_555
C3 N2 1_555 1_555
C4 N1 1_555 1_555
H3 C4 1_555 1_555
H4 C4 1_555 1_555
C5 N3 1_555 1_555
C6 N3 1_555 1_555
C7 C6 1_555 1_555
H5 C7 1_555 1_555
C8 C7 1_555 1_555
H6 C8 1_555 1_555
C9 C8 1_555 1_555
C10 C9 1_555 1_555
H7 C10 1_555 1_555
C11 C6 1_555 1_555
H8 C11 1_555 1_555
C12 O5 1_555 1_555
H9 C12 1_555 1_555
H10 C12 1_555 1_555
H11 C12 1_555 1_555
C13 N2 1_555 1_555
H12 C13 1_555 1_555
H13 C13 1_555 1_555
C14 C13 1_555 1_555
C15 C14 1_555 1_555
H14 C15 1_555 1_555
C16 C15 1_555 1_555
H15 C16 1_555 1_555
C17 C16 1_555 1_555
H16 C17 1_555 1_555
C18 C17 1_555 1_555
H17 C18 1_555 1_555
C19 C14 1_555 1_555
H18 C19 1_555 1_555
C20 H19 1_555 1_555
C21 C3 1_555 1_555
C22 C21 1_555 1_555
H20 C22 1_555 1_555
C23 C22 1_555 1_555
H21 C23 1_555 1_555
C24 C23 1_555 1_555
H22 C24 1_555 1_555
C25 C24 1_555 1_555
H23 C25 1_555 1_555
C26 C21 1_555 1_555
H24 C26 1_555 1_555
C27 N1 1_555 1_555
C28 C27 1_555 1_555
H25 C28 1_555 1_555
H26 C28 1_555 1_555
C29 C27 1_555 1_555
C30 C29 1_555 1_555
H27 C30 1_555 1_555
C31 C30 1_555 1_555
H28 C31 1_555 1_555
C32 C20 1_555 1_555
H29 C32 1_555 1_555
C33 C20 1_555 1_555
H30 C33 1_555 1_555
C2 C4 1_555 1_555
C2 C5 1_555 1_555
C10 C11 1_555 1_555
C18 C19 1_555 1_555
C25 C26 1_555 1_555
C29 C33 1_555 1_555
C31 C32 1_555 1_555

#END
