
#######################################################################
#
#                 Cambridge Crystallographic Data Centre
#                                CCDC 
#
#######################################################################
#
# If this CIF has been generated from an entry in the Cambridge 
# Structural Database, then it will include bibliographic, chemical, 
# crystal, experimental, refinement or atomic coordinate data resulting 
# from the CCDC's data processing and validation procedures.
#
#######################################################################

data_HOGROK02
_chemical_formula_moiety         'C24 H20 Cl1 N1 O2 S1'
_chemical_name_systematic        
2-Chloro-2,2a,3,4-tetrahydro-2a-phenyl-4-(4-methoxyphenyl)-1H-azeto(2,1-d)(1,5)benzothiazepin-1-one
_symmetry_cell_setting           monoclinic
_symmetry_space_group_name_H-M   'P 21/c'
_symmetry_Int_Tables_number      14
_space_group_name_Hall           '-P 2ybc'
loop_
_symmetry_equiv_pos_site_id
_symmetry_equiv_pos_as_xyz
1 x,y,z
2 -x,1/2+y,1/2-z
3 -x,-y,-z
4 x,1/2-y,1/2+z
_cell_length_a                   12.547(3)
_cell_length_b                   10.614(2)
_cell_length_c                   15.881(3)
_cell_angle_alpha                90
_cell_angle_beta                 105.91(3)
_cell_angle_gamma                90
_cell_volume                     2033.92
_exptl_crystal_colour            colorless
_exptl_crystal_description       block
_chemical_melting_point          '196-198 deg.C'
_cell_formula_units_Z            4
loop_
_atom_site_label
_atom_site_type_symbol
_atom_site_fract_x
_atom_site_fract_y
_atom_site_fract_z
Cl1 Cl 0.3297(1) 0.7481(1) 0.8878(1)
S1 S 0.1269(1) 0.2162(1) 0.7767(1)
O1 O 0.2356(3) 0.5472(3) 1.0141(2)
O2 O -0.1393(3) 0.2377(3) 0.3744(2)
N1 N 0.2632(3) 0.4346(3) 0.8952(2)
C1 C 0.2354(4) 0.2060(4) 0.8746(3)
C2 C 0.2617(4) 0.0857(4) 0.9084(3)
C3 C 0.3342(4) 0.0672(5) 0.9901(3)
C4 C 0.3845(4) 0.1685(5) 1.0388(3)
C5 C 0.3618(4) 0.2885(4) 1.0053(3)
C6 C 0.2880(4) 0.3083(4) 0.9240(3)
C7 C 0.2591(4) 0.5057(4) 0.8127(3)
C8 C 0.1611(4) 0.4693(4) 0.7368(3)
C9 C 0.1649(4) 0.3342(4) 0.7051(3)
C10 C 0.3680(4) 0.5108(4) 0.7889(3)
C11 C 0.4611(4) 0.4451(5) 0.8339(3)
C12 C 0.5596(4) 0.4539(5) 0.8106(4)
C13 C 0.5662(5) 0.5304(5) 0.7437(4)
C14 C 0.4750(5) 0.5981(5) 0.6978(4)
C15 C 0.3763(4) 0.5883(4) 0.7198(3)
C16 C 0.2328(4) 0.6233(4) 0.8637(3)
C17 C 0.2428(4) 0.5371(4) 0.9407(3)
C18 C 0.0837(3) 0.3095(4) 0.6163(3)
C19 C -0.0130(4) 0.3779(5) 0.5850(3)
C20 C -0.0850(4) 0.3503(5) 0.5049(3)
C21 C -0.0641(4) 0.2540(4) 0.4536(3)
C22 C 0.0318(4) 0.1850(5) 0.4847(3)
C23 C 0.1031(4) 0.2122(4) 0.5644(3)
C24 C -0.1316(4) 0.1271(5) 0.3268(3)
H1 H 0.2287 0.0141 0.8742
H2 H 0.3495 -0.0167 1.0130
H3 H 0.4351 0.1560 1.0956
H4 H 0.3977 0.3594 1.0390
H5 H 0.0947 0.4794 0.7551
H6 H 0.1590 0.5250 0.6888
H7 H 0.2406 0.3260 0.7038
H8 H 0.4576 0.3924 0.8822
H9 H 0.6230 0.4059 0.8418
H10 H 0.6347 0.5373 0.7282
H11 H 0.4801 0.6521 0.6506
H12 H 0.3128 0.6351 0.6874
H13 H 0.1687 0.6735 0.8372
H14 H -0.0301 0.4452 0.6196
H15 H -0.1514 0.3993 0.4842
H16 H 0.0484 0.1175 0.4501
H17 H 0.1689 0.1622 0.5850
H18 H -0.1891 0.1273 0.2725
H19 H -0.1399 0.0546 0.3605
H20 H -0.0606 0.1243 0.3149
loop_
_geom_bond_atom_site_label_1
_geom_bond_atom_site_label_2
_geom_bond_site_symmetry_1
_geom_bond_site_symmetry_2
Cl1 C16 1_555 1_555
S1 C1 1_555 1_555
O1 C17 1_555 1_555
O2 C21 1_555 1_555
N1 C6 1_555 1_555
C1 C2 1_555 1_555
C2 C3 1_555 1_555
C3 C4 1_555 1_555
C4 C5 1_555 1_555
C5 C6 1_555 1_555
C6 C1 1_555 1_555
C7 N1 1_555 1_555
C8 C7 1_555 1_555
C9 S1 1_555 1_555
C10 C7 1_555 1_555
C11 C10 1_555 1_555
C12 C11 1_555 1_555
C13 C12 1_555 1_555
C14 C13 1_555 1_555
C15 C10 1_555 1_555
C16 C7 1_555 1_555
C17 N1 1_555 1_555
C18 C9 1_555 1_555
C19 C18 1_555 1_555
C20 C19 1_555 1_555
C21 C20 1_555 1_555
C22 C21 1_555 1_555
C23 C18 1_555 1_555
C24 O2 1_555 1_555
H1 C2 1_555 1_555
H2 C3 1_555 1_555
H3 C4 1_555 1_555
H4 C5 1_555 1_555
H5 C8 1_555 1_555
H6 C8 1_555 1_555
H7 C9 1_555 1_555
H8 C11 1_555 1_555
H9 C12 1_555 1_555
H10 C13 1_555 1_555
H11 C14 1_555 1_555
H12 C15 1_555 1_555
H13 C16 1_555 1_555
H14 C19 1_555 1_555
H15 C20 1_555 1_555
H16 C22 1_555 1_555
H17 C23 1_555 1_555
H18 C24 1_555 1_555
H19 C24 1_555 1_555
H20 C24 1_555 1_555
C8 C9 1_555 1_555
C14 C15 1_555 1_555
C16 C17 1_555 1_555
C22 C23 1_555 1_555

#END
