
#######################################################################
#
#                 Cambridge Crystallographic Data Centre
#                                CCDC 
#
#######################################################################
#
# If this CIF has been generated from an entry in the Cambridge 
# Structural Database, then it will include bibliographic, chemical, 
# crystal, experimental, refinement or atomic coordinate data resulting 
# from the CCDC's data processing and validation procedures.
#
#######################################################################

data_HOGXUW
_chemical_formula_moiety         'C24 H22 O2 S4'
_chemical_name_systematic        'bis(5-Ethoxy-3-phenyl-2-thienyl) disulfide'
_symmetry_cell_setting           monoclinic
_symmetry_space_group_name_H-M   'P 21/n'
_symmetry_Int_Tables_number      14
_space_group_name_Hall           '-P 2yn'
loop_
_symmetry_equiv_pos_site_id
_symmetry_equiv_pos_as_xyz
1 x,y,z
2 1/2-x,1/2+y,1/2-z
3 -x,-y,-z
4 1/2+x,1/2-y,1/2+z
_cell_length_a                   15.722(3)
_cell_length_b                   10.401(3)
_cell_length_c                   15.839(4)
_cell_angle_alpha                90
_cell_angle_beta                 116.70(1)
_cell_angle_gamma                90
_cell_volume                     2313.89
_exptl_crystal_colour            yellow
_exptl_crystal_description       plate
_chemical_melting_point          '93-94 deg.C'
_cell_formula_units_Z            4
loop_
_atom_site_label
_atom_site_type_symbol
_atom_site_fract_x
_atom_site_fract_y
_atom_site_fract_z
S1 S 0.8419(2) 0.0562(3) 0.0731(2)
S2 S 0.6961(2) 0.2641(3) 0.0208(2)
C1 C 0.8102(6) 0.2186(9) 0.0433(5)
C2 C 0.8883(6) 0.2918(9) 0.0567(6)
C3 C 0.9735(6) 0.2168(9) 0.0918(6)
C4 C 0.9593(7) 0.0918(10) 0.1020(6)
C5 C 0.8877(7) 0.4305(10) 0.0444(7)
C6 C 0.8149(6) 0.4948(10) -0.0323(6)
C7 C 0.8156(7) 0.6262(11) -0.0418(7)
C8 C 0.8893(8) 0.6992(10) 0.0248(7)
C9 C 0.9628(8) 0.6400(10) 0.0987(7)
C10 C 0.9613(7) 0.5063(10) 0.1076(7)
O1 O 1.0187(4) -0.0130(6) 0.1285(4)
C11 C 1.1184(6) 0.0157(9) 0.1600(6)
C12 C 1.1709(5) -0.1101(9) 0.1883(6)
S3 S 0.6331(2) -0.0399(3) -0.1418(2)
S4 S 0.6158(2) 0.2468(3) -0.1256(2)
C13 C 0.5660(6) 0.0944(10) -0.1420(6)
C14 C 0.4790(6) 0.0569(12) -0.1497(6)
C15 C 0.4664(7) -0.0793(11) -0.1560(6)
C16 C 0.5430(7) -0.1425(12) -0.1542(7)
C17 C 0.4041(6) 0.1482(11) -0.1533(6)
C18 C 0.3784(6) 0.2572(12) -0.2105(6)
C19 C 0.3093(6) 0.3413(11) -0.2117(6)
C20 C 0.2681(6) 0.3189(10) -0.1519(6)
C21 C 0.2936(6) 0.2110(11) -0.0949(7)
C22 C 0.3613(6) 0.1260(10) -0.0957(6)
O2 O 0.5593(5) -0.2690(8) -0.1601(5)
C23 C 0.4898(6) -0.3566(9) -0.1618(8)
C25 C 0.5339(16) -0.4884(12) -0.1350(16)
H1 H 1.0343(6) 0.2521(9) 0.1066(6)
H2 H 0.7641(6) 0.4464(10) -0.0786(6)
H3 H 0.7655(7) 0.6672(11) -0.0940(7)
H4 H 0.8886(8) 0.7902(10) 0.0189(7)
H5 H 1.0143(8) 0.6890(10) 0.1434(7)
H6 H 1.0128(7) 0.4659(10) 0.1591(7)
H7 H 1.1416(6) 0.0754(9) 0.2145(6)
H8 H 1.1281(6) 0.0562(9) 0.1084(6)
H9 H 1.2391(5) -0.0950(9) 0.2103(6)
H10 H 1.1472(5) -0.1682(9) 0.1338(6)
H11 H 1.1606(5) -0.1490(9) 0.2394(6)
H12 H 0.4106(7) -0.1212(11) -0.1609(6)
H13 H 0.4087(6) 0.2743(12) -0.2494(6)
H14 H 0.2905(6) 0.4133(11) -0.2530(6)
H15 H 0.2226(6) 0.3775(10) -0.1501(6)
H16 H 0.2645(6) 0.1949(11) -0.0547(7)
H17 H 0.3781(6) 0.0521(10) -0.0564(6)
H20 H 0.4356(6) -0.3591(9) -0.2259(8)
H21 H 0.4658(6) -0.3287(9) -0.1168(8)
H25 H 0.4860(16) -0.5496(12) -0.1361(16)
H26 H 0.5872(16) -0.4855(12) -0.0714(16)
H27 H 0.5571(16) -0.5158(12) -0.1802(16)
C24? C 0.5010(6) -0.4025(9) -0.0727(8)
H18? H 0.4893(6) -0.4316(9) -0.2005(8)
H19? H 0.4267(6) -0.3147(9) -0.1943(8)
H22? H 0.4492(6) -0.4622(9) -0.0824(8)
H23? H 0.4994(6) -0.3298(9) -0.0341(8)
H24? H 0.5622(6) -0.4472(9) -0.0402(8)
loop_
_geom_bond_atom_site_label_1
_geom_bond_atom_site_label_2
_geom_bond_site_symmetry_1
_geom_bond_site_symmetry_2
S1 C1 1_555 1_555
S2 C1 1_555 1_555
C1 C2 1_555 1_555
C2 C3 1_555 1_555
C3 C4 1_555 1_555
C4 S1 1_555 1_555
C5 C2 1_555 1_555
C6 C5 1_555 1_555
C7 C6 1_555 1_555
C8 C7 1_555 1_555
C9 C8 1_555 1_555
C10 C5 1_555 1_555
O1 C4 1_555 1_555
C11 O1 1_555 1_555
C12 C11 1_555 1_555
S3 C13 1_555 1_555
S4 S2 1_555 1_555
C13 S4 1_555 1_555
C14 C13 1_555 1_555
C15 C14 1_555 1_555
C16 S3 1_555 1_555
C17 C14 1_555 1_555
C18 C17 1_555 1_555
C19 C18 1_555 1_555
C20 C19 1_555 1_555
C21 C20 1_555 1_555
C22 C17 1_555 1_555
O2 C16 1_555 1_555
C23 O2 1_555 1_555
C25 C23 1_555 1_555
H1 C3 1_555 1_555
H2 C6 1_555 1_555
H3 C7 1_555 1_555
H4 C8 1_555 1_555
H5 C9 1_555 1_555
H6 C10 1_555 1_555
H7 C11 1_555 1_555
H8 C11 1_555 1_555
H9 C12 1_555 1_555
H10 C12 1_555 1_555
H11 C12 1_555 1_555
H12 C15 1_555 1_555
H13 C18 1_555 1_555
H14 C19 1_555 1_555
H15 C20 1_555 1_555
H16 C21 1_555 1_555
H17 C22 1_555 1_555
H20 C23 1_555 1_555
H21 C23 1_555 1_555
H25 C25 1_555 1_555
H26 C25 1_555 1_555
H27 C25 1_555 1_555
C9 C10 1_555 1_555
C15 C16 1_555 1_555
C21 C22 1_555 1_555

#END
