
#######################################################################
#
#                 Cambridge Crystallographic Data Centre
#                                CCDC 
#
#######################################################################
#
# If this CIF has been generated from an entry in the Cambridge 
# Structural Database, then it will include bibliographic, chemical, 
# crystal, experimental, refinement or atomic coordinate data resulting 
# from the CCDC's data processing and validation procedures.
#
#######################################################################

data_HOHDIS
_chemical_formula_moiety         'C25 H20 O2'
_chemical_name_systematic        '1,2,5-triphenylpent-2-en-4-yn-1-yl acetate'
_symmetry_cell_setting           triclinic
_symmetry_space_group_name_H-M   'P -1'
_symmetry_Int_Tables_number      2
_space_group_name_Hall           '-P 1'
loop_
_symmetry_equiv_pos_site_id
_symmetry_equiv_pos_as_xyz
1 x,y,z
2 -x,-y,-z
_cell_length_a                   9.0481(10)
_cell_length_b                   10.2658(11)
_cell_length_c                   11.0276(12)
_cell_angle_alpha                80.396(2)
_cell_angle_beta                 84.297(2)
_cell_angle_gamma                77.867(2)
_cell_volume                     985.194
_cell_formula_units_Z            2
loop_
_atom_site_label
_atom_site_type_symbol
_atom_site_fract_x
_atom_site_fract_y
_atom_site_fract_z
O1 O 1.0575(1) 0.3769(1) 0.2740(1)
O2 O 1.1550(2) 0.4614(2) 0.0918(1)
C1 C 0.9672(2) 0.3098(2) 0.2127(1)
C2 C 0.8192(2) 0.3047(2) 0.2876(1)
C3 C 0.7933(2) 0.3358(2) 0.4012(2)
C4 C 0.6554(2) 0.3276(2) 0.4745(2)
C5 C 0.5407(2) 0.3170(2) 0.5355(2)
C6 C 0.4040(2) 0.2973(2) 0.6064(1)
C7 C 0.3699(2) 0.3371(2) 0.7209(2)
C8 C 0.2391(2) 0.3155(2) 0.7894(2)
C9 C 0.1406(2) 0.2557(2) 0.7434(2)
C10 C 0.1713(2) 0.2167(2) 0.6293(2)
C11 C 0.3022(2) 0.2374(2) 0.5602(2)
C12 C 1.0540(2) 0.1712(2) 0.1987(1)
C13 C 1.1050(2) 0.0809(2) 0.3007(2)
C14 C 1.1878(3) -0.0458(3) 0.2881(3)
C15 C 1.2191(3) -0.0835(3) 0.1734(4)
C16 C 1.1674(3) 0.0032(3) 0.0722(3)
C17 C 1.0860(2) 0.1292(2) 0.0852(2)
C18 C 0.7062(2) 0.2585(2) 0.2248(1)
C19 C 0.6507(2) 0.1436(2) 0.2751(2)
C20 C 0.5449(3) 0.1026(3) 0.2178(2)
C21 C 0.4895(2) 0.1759(3) 0.1111(3)
C22 C 0.5435(2) 0.2887(2) 0.0599(2)
C23 C 0.6520(2) 0.3302(2) 0.1154(2)
C24 C 1.1507(2) 0.4476(2) 0.2012(2)
C25 C 1.2463(2) 0.5009(2) 0.2760(2)
H1 H 0.9466 0.3611 0.1309
H2 H 0.8691 0.3645 0.4347
H3 H 0.4362 0.3790 0.7525
H4 H 0.2180 0.3418 0.8670
H5 H 0.0522 0.2412 0.7896
H6 H 0.1035 0.1760 0.5981
H7 H 0.3223 0.2111 0.4826
H8 H 1.0832 0.1060 0.3788
H9 H 1.2222 -0.1055 0.3572
H10 H 1.2758 -0.1686 0.1646
H11 H 1.1874 -0.0231 -0.0055
H12 H 1.0515 0.1879 0.0155
H13 H 0.6858 0.0939 0.3488
H14 H 0.5106 0.0243 0.2516
H15 H 0.4155 0.1491 0.0736
H16 H 0.5068 0.3382 -0.0133
H17 H 0.6888 0.4067 0.0791
H18 H 1.3343 0.4332 0.2971
H19 H 1.1890 0.5245 0.3500
H20 H 1.2772 0.5794 0.2291
loop_
_geom_bond_atom_site_label_1
_geom_bond_atom_site_label_2
_geom_bond_site_symmetry_1
_geom_bond_site_symmetry_2
O1 C1 1_555 1_555
O2 C24 1_555 1_555
C1 C2 1_555 1_555
C2 C3 1_555 1_555
C3 C4 1_555 1_555
C4 C5 1_555 1_555
C5 C6 1_555 1_555
C6 C7 1_555 1_555
C7 C8 1_555 1_555
C8 C9 1_555 1_555
C9 C10 1_555 1_555
C10 C11 1_555 1_555
C11 C6 1_555 1_555
C12 C1 1_555 1_555
C13 C12 1_555 1_555
C14 C13 1_555 1_555
C15 C14 1_555 1_555
C16 C15 1_555 1_555
C17 C12 1_555 1_555
C18 C2 1_555 1_555
C19 C18 1_555 1_555
C20 C19 1_555 1_555
C21 C20 1_555 1_555
C22 C21 1_555 1_555
C23 C18 1_555 1_555
C24 O1 1_555 1_555
C25 C24 1_555 1_555
H1 C1 1_555 1_555
H2 C3 1_555 1_555
H3 C7 1_555 1_555
H4 C8 1_555 1_555
H5 C9 1_555 1_555
H6 C10 1_555 1_555
H7 C11 1_555 1_555
H8 C13 1_555 1_555
H9 C14 1_555 1_555
H10 C15 1_555 1_555
H11 C16 1_555 1_555
H12 C17 1_555 1_555
H13 C19 1_555 1_555
H14 C20 1_555 1_555
H15 C21 1_555 1_555
H16 C22 1_555 1_555
H17 C23 1_555 1_555
H18 C25 1_555 1_555
H19 C25 1_555 1_555
H20 C25 1_555 1_555
C16 C17 1_555 1_555
C22 C23 1_555 1_555

#END
