
#######################################################################
#
#                 Cambridge Crystallographic Data Centre
#                                CCDC 
#
#######################################################################
#
# If this CIF has been generated from an entry in the Cambridge 
# Structural Database, then it will include bibliographic, chemical, 
# crystal, experimental, refinement or atomic coordinate data resulting 
# from the CCDC's data processing and validation procedures.
#
#######################################################################

data_HOHQEC
_chemical_name_common            trixanthone
_chemical_formula_moiety         'C27 H12 O6'
_chemical_name_systematic        
6H,12H,18H-dichromeno[2,3-a:2',3'-c]xanthene-6,12,18-trione
_symmetry_cell_setting           monoclinic
_symmetry_space_group_name_H-M   'I 2/a'
_symmetry_Int_Tables_number      15
_space_group_name_Hall           '-I 2ya'
loop_
_symmetry_equiv_pos_site_id
_symmetry_equiv_pos_as_xyz
1 x,y,z
2 1/2-x,y,-z
3 1/2+x,1/2+y,1/2+z
4 -x,1/2+y,1/2-z
5 -x,-y,-z
6 1/2+x,-y,z
7 1/2-x,1/2-y,1/2-z
8 x,1/2-y,1/2+z
_cell_length_a                   7.1767(6)
_cell_length_b                   12.8407(12)
_cell_length_c                   20.5152(15)
_cell_angle_alpha                90
_cell_angle_beta                 95.033(7)
_cell_angle_gamma                90
_cell_volume                     1883.27
_exptl_crystal_colour            colorless
_exptl_crystal_description       platelet
_chemical_melting_point          'above 573 K'
_cell_formula_units_Z            4
loop_
_atom_site_label
_atom_site_type_symbol
_atom_site_fract_x
_atom_site_fract_y
_atom_site_fract_z
C1 C 0.2730(3) 0.06207(19) 0.46694(10)
C2 C 0.2936(3) 0.1554(2) 0.43467(10)
C3 C 0.2706(3) 0.2509(2) 0.46730(11)
C4 C 0.3406(3) -0.0322(2) 0.36911(11)
C5 C 0.3621(3) 0.0608(2) 0.33719(11)
C6 C 0.3405(3) 0.15587(18) 0.36961(9)
C7 C 0.2688(4) 0.4400(2) 0.46733(12)
C8 C 0.2874(4) 0.5334(2) 0.43479(14)
H1 H 0.3128 0.5337 0.3911
C9 C 0.2683(4) 0.6251(2) 0.46727(15)
H2 H 0.2797 0.6879 0.4455
C10 C 0.3647(4) -0.1256(2) 0.33694(13)
H3 H 0.3499 -0.1886 0.3583
C11 C 0.4105(4) -0.1246(3) 0.27328(14)
H4 H 0.4287 -0.1870 0.2517
C12 C 0.4295(4) -0.0310(3) 0.24115(12)
H5 H 0.4599 -0.0310 0.1980
C13 C 0.4044(3) 0.0610(2) 0.27205(11)
H6 H 0.4153 0.1236 0.2499
O1 O 0.3695(8) 0.2479(3) 0.33651(18)
O2 O 0.2735(6) -0.1288(3) 0.46302(17)
O3 O 0.2941(3) -0.03218(19) 0.43487(9)
O4 O 0.2862(3) 0.34514(18) 0.43480(11)
C1A C 0.2270(3) 0.06207(19) 0.53306(10)
C2A C 0.2064(3) 0.1554(2) 0.56533(10)
C3A C 0.2294(3) 0.2509(2) 0.53270(11)
C4A C 0.1594(3) -0.0322(2) 0.63089(11)
C5A C 0.1379(3) 0.0608(2) 0.66281(11)
C6A C 0.1595(3) 0.15587(18) 0.63039(9)
C7A C 0.2312(4) 0.4400(2) 0.53267(12)
C8A C 0.2126(4) 0.5334(2) 0.56521(14)
H1A H 0.1872 0.5337 0.6089
C9A C 0.2317(4) 0.6251(2) 0.53273(15)
H2A H 0.2203 0.6879 0.5545
C10A C 0.1353(4) -0.1256(2) 0.66306(13)
H3A H 0.1501 -0.1886 0.6417
C11A C 0.0895(4) -0.1246(3) 0.72672(14)
H4A H 0.0713 -0.1870 0.7483
C12A C 0.0705(4) -0.0310(3) 0.75885(12)
H5A H 0.0401 -0.0310 0.8020
C13A C 0.0956(3) 0.0610(2) 0.72795(11)
H6A H 0.0847 0.1236 0.7501
O1A O 0.1305(8) 0.2479(3) 0.66349(18)
O2A O 0.2265(6) -0.1288(3) 0.53698(17)
O3A O 0.2059(3) -0.03218(19) 0.56513(9)
O4A O 0.2138(3) 0.34514(18) 0.56520(11)
C14? C 0.2862(3) 0.34514(18) 0.43480(11)
O5? O 0.3238(8) 0.3507(3) 0.36735(18)
O6? O 0.3405(3) 0.15587(18) 0.36961(9)
C15? C 0.2941(3) -0.03218(19) 0.43487(9)
loop_
_geom_bond_atom_site_label_1
_geom_bond_atom_site_label_2
_geom_bond_site_symmetry_1
_geom_bond_site_symmetry_2
C1 C2 1_555 1_555
C2 C3 1_555 1_555
C3 O4 1_555 1_555
C4 C5 1_555 1_555
C5 C6 1_555 1_555
C6 C2 1_555 1_555
C7 C8 1_555 1_555
C8 H1 1_555 1_555
C9 C8 1_555 1_555
H2 C9 1_555 1_555
C10 C4 1_555 1_555
H3 C10 1_555 1_555
C11 C10 1_555 1_555
H4 C11 1_555 1_555
C12 C11 1_555 1_555
H5 C12 1_555 1_555
C13 C5 1_555 1_555
H6 C13 1_555 1_555
O1 C6 1_555 1_555
O2 O3 1_555 1_555
O3 C1 1_555 1_555
O4 C7 1_555 1_555
C1A C1 1_555 1_555
C2A C1A 1_555 1_555
C3A C3 1_555 1_555
C4A C5A 1_555 1_555
C5A C6A 1_555 1_555
C6A C2A 1_555 1_555
C7A C7 1_555 1_555
C8A C7A 1_555 1_555
H1A C8A 1_555 1_555
C9A C9 1_555 1_555
H2A C9A 1_555 1_555
C10A C4A 1_555 1_555
H3A C10A 1_555 1_555
C11A C10A 1_555 1_555
H4A C11A 1_555 1_555
C12A C11A 1_555 1_555
H5A C12A 1_555 1_555
C13A C5A 1_555 1_555
H6A C13A 1_555 1_555
O1A C6A 1_555 1_555
O2A O2 1_555 1_555
O3A C1A 1_555 1_555
O4A C3A 1_555 1_555
C4 O3 1_555 1_555
C12 C13 1_555 1_555
C2A C3A 1_555 1_555
C4A O3A 1_555 1_555
C7A O4A 1_555 1_555
C8A C9A 1_555 1_555
C12A C13A 1_555 1_555
O2A O3A 1_555 1_555

#END
