
#######################################################################
#
#                 Cambridge Crystallographic Data Centre
#                                CCDC 
#
#######################################################################
#
# If this CIF has been generated from an entry in the Cambridge 
# Structural Database, then it will include bibliographic, chemical, 
# crystal, experimental, refinement or atomic coordinate data resulting 
# from the CCDC's data processing and validation procedures.
#
#######################################################################

data_HOHYEK
_chemical_formula_moiety         'C15 H23 N1 O3'
_chemical_name_systematic        
2-((1S,2S,3R,10R,Z)-2-hydroxy-6,10-dimethyl-11-oxabicyclo[8.1.0]undec-6-en-3-yl)acrylamide
_symmetry_cell_setting           orthorhombic
_symmetry_space_group_name_H-M   'P 21 21 21'
_symmetry_Int_Tables_number      19
_space_group_name_Hall           'P 2ac 2ab'
loop_
_symmetry_equiv_pos_site_id
_symmetry_equiv_pos_as_xyz
1 x,y,z
2 1/2-x,-y,1/2+z
3 -x,1/2+y,1/2-z
4 1/2+x,1/2-y,-z
_cell_length_a                   11.012(2)
_cell_length_b                   11.015(2)
_cell_length_c                   12.183(2)
_cell_angle_alpha                90
_cell_angle_beta                 90
_cell_angle_gamma                90
_cell_volume                     1477.76
_cell_formula_units_Z            4
loop_
_atom_site_label
_atom_site_type_symbol
_atom_site_fract_x
_atom_site_fract_y
_atom_site_fract_z
O1 O -0.09881(10) 0.39813(9) 0.34953(8)
H1 H -0.0751 0.3346 0.3180
O2 O -0.15967(9) 0.56366(9) 0.56083(10)
O3 O 0.01484(11) 0.20722(9) 0.27241(9)
N1 N 0.15726(12) 0.07148(12) 0.31859(11)
H2 H 0.1468 0.0316 0.2567
H3 H 0.2112 0.0462 0.3667
C1 C -0.03920(13) 0.40946(12) 0.45272(11)
H4 H -0.0816 0.3552 0.5062
C2 C -0.05754(12) 0.53873(12) 0.48963(12)
H5 H -0.0430 0.6012 0.4316
C3 C -0.03665(13) 0.58111(13) 0.60244(12)
C4 C -0.00065(14) 0.71295(13) 0.62111(13)
H6 H 0.0180 0.7246 0.6999
H7 H -0.0706 0.7656 0.6028
C5 C 0.10989(15) 0.75365(13) 0.55280(15)
H8 H 0.0865 0.7561 0.4744
H9 H 0.1328 0.8370 0.5750
C6 C 0.21791(14) 0.67227(13) 0.56573(14)
H10 H 0.2618 0.6799 0.6325
C7 C 0.25981(13) 0.59037(13) 0.49452(12)
C8 C 0.20682(13) 0.56782(13) 0.38298(13)
H11 H 0.2661 0.5946 0.3269
H12 H 0.1331 0.6185 0.3746
C9 C 0.17288(13) 0.43468(13) 0.36018(12)
H13 H 0.2487 0.3877 0.3501
H14 H 0.1274 0.4312 0.2902
C10 C 0.09636(13) 0.37220(11) 0.44972(12)
H15 H 0.1315 0.3992 0.5214
C11 C 0.11304(13) 0.23520(12) 0.44616(13)
C12 C 0.14478(14) 0.17356(13) 0.53581(13)
H16 H 0.1541 0.0879 0.5325
H17 H 0.1581 0.2153 0.6030
C13 C 0.09176(14) 0.16967(13) 0.33928(12)
C14 C 0.36987(14) 0.51540(16) 0.52370(14)
H18 H 0.3460 0.4302 0.5320
H19 H 0.4045 0.5449 0.5929
H20 H 0.4306 0.5225 0.4652
C15 C -0.00282(17) 0.49570(15) 0.69394(13)
H21 H -0.0307 0.4136 0.6759
H22 H -0.0413 0.5226 0.7623
H23 H 0.0856 0.4954 0.7032
loop_
_geom_bond_atom_site_label_1
_geom_bond_atom_site_label_2
_geom_bond_site_symmetry_1
_geom_bond_site_symmetry_2
O1 H1 1_555 1_555
O2 C2 1_555 1_555
O3 C13 1_555 1_555
N1 H2 1_555 1_555
H3 N1 1_555 1_555
C1 O1 1_555 1_555
H4 C1 1_555 1_555
C2 C1 1_555 1_555
H5 C2 1_555 1_555
C3 O2 1_555 1_555
C4 C3 1_555 1_555
H6 C4 1_555 1_555
H7 C4 1_555 1_555
C5 C4 1_555 1_555
H8 C5 1_555 1_555
H9 C5 1_555 1_555
C6 C5 1_555 1_555
H10 C6 1_555 1_555
C7 C6 1_555 1_555
C8 C7 1_555 1_555
H11 C8 1_555 1_555
H12 C8 1_555 1_555
C9 C8 1_555 1_555
H13 C9 1_555 1_555
H14 C9 1_555 1_555
C10 C1 1_555 1_555
H15 C10 1_555 1_555
C11 C10 1_555 1_555
C12 C11 1_555 1_555
H16 C12 1_555 1_555
H17 C12 1_555 1_555
C13 N1 1_555 1_555
C14 C7 1_555 1_555
H18 C14 1_555 1_555
H19 C14 1_555 1_555
H20 C14 1_555 1_555
C15 C3 1_555 1_555
H21 C15 1_555 1_555
H22 C15 1_555 1_555
H23 C15 1_555 1_555
C2 C3 1_555 1_555
C9 C10 1_555 1_555
C11 C13 1_555 1_555

#END
