
#######################################################################
#
#                 Cambridge Crystallographic Data Centre
#                                CCDC 
#
#######################################################################
#
# If this CIF has been generated from an entry in the Cambridge 
# Structural Database, then it will include bibliographic, chemical, 
# crystal, experimental, refinement or atomic coordinate data resulting 
# from the CCDC's data processing and validation procedures.
#
#######################################################################

data_HOJGOE
_chemical_formula_moiety         'C26 H24 N1 S1 Se1 1+,C1 F3 O3 S1 1-'
_chemical_name_systematic        
'(Diphenyl-\l^4^-selanyl)((methylimino)(diphenyl)-\l^6^-sulfanyl)methylium trifluoromethanesulfonate'
_symmetry_cell_setting           orthorhombic
_symmetry_space_group_name_H-M   'P b c a'
_symmetry_Int_Tables_number      61
_space_group_name_Hall           '-P 2ac 2ab'
loop_
_symmetry_equiv_pos_site_id
_symmetry_equiv_pos_as_xyz
1 x,y,z
2 1/2-x,-y,1/2+z
3 1/2+x,1/2-y,-z
4 -x,1/2+y,1/2-z
5 -x,-y,-z
6 1/2+x,y,1/2-z
7 1/2-x,1/2+y,z
8 x,1/2-y,1/2+z
_cell_length_a                   16.752(4)
_cell_length_b                   17.369(4)
_cell_length_c                   18.319(3)
_cell_angle_alpha                90
_cell_angle_beta                 90
_cell_angle_gamma                90
_cell_volume                     5330.2
_exptl_crystal_colour            colorless
_exptl_crystal_description       block
_chemical_melting_point          '461-462 K'
_cell_formula_units_Z            8
_exptl_crystal_recrystallization_method 'methanol/diethyl ether'
loop_
_atom_site_label
_atom_site_type_symbol
_atom_site_fract_x
_atom_site_fract_y
_atom_site_fract_z
C1 C 0.17209(19) 0.10553(18) 0.10360(17)
H1 H 0.1919(19) 0.0955(19) 0.0592(17)
Se1 Se 0.187575(18) 0.039810(17) 0.181527(15)
C2 C 0.30279(17) 0.02820(18) 0.18070(16)
C3 C 0.3495(2) 0.0836(2) 0.1479(2)
H2 H 0.3257 0.1253 0.1223
C4 C 0.4315(2) 0.0773(2) 0.1529(2)
H3 H 0.4647 0.1148 0.1306
C5 C 0.4650(2) 0.0166(2) 0.1903(2)
H4 H 0.5215 0.0125 0.1939
C6 C 0.4173(2) -0.0382(2) 0.2223(2)
H5 H 0.4409 -0.0803 0.2474
C7 C 0.3350(2) -0.0326(2) 0.21815(19)
H6 H 0.3018 -0.0700 0.2407
C8 C 0.15745(18) -0.06100(17) 0.14587(16)
C9 C 0.1098(2) -0.1045(2) 0.19037(19)
H7 H 0.0959 -0.0867 0.2377
C10 C 0.0823(2) -0.1750(2) 0.1652(2)
H8 H 0.0485 -0.2056 0.1951
C11 C 0.1040(2) -0.2006(2) 0.09701(19)
H9 H 0.0841 -0.2483 0.0795
C12 C 0.1538(3) -0.1577(2) 0.05440(19)
H10 H 0.1701 -0.1769 0.0082
C13 C 0.1811(2) -0.0864(2) 0.07768(19)
H11 H 0.2150 -0.0560 0.0477
C14 C 0.00857(18) 0.14834(17) 0.12616(17)
C15 C -0.0126(2) 0.0779(2) 0.0979(2)
H12 H 0.0264 0.0456 0.0761
C16 C -0.0918(2) 0.0549(2) 0.1017(2)
H13 H -0.1073 0.0063 0.0826
C17 C -0.1476(2) 0.1018(3) 0.1328(2)
H14 H -0.2016 0.0855 0.1357
C18 C -0.1263(2) 0.1722(3) 0.1597(2)
H15 H -0.1658 0.2050 0.1800
C19 C -0.0467(2) 0.1962(2) 0.1578(2)
H16 H -0.0313 0.2444 0.1778
C20 C 0.11610(18) 0.23406(17) 0.03945(18)
C21 C 0.1233(3) 0.2029(2) -0.0293(2)
H17 H 0.1258 0.1487 -0.0357
C22 C 0.1268(3) 0.2517(3) -0.0893(2)
H18 H 0.1304 0.2308 -0.1371
C23 C 0.1251(2) 0.3302(3) -0.0797(3)
H19 H 0.1296 0.3634 -0.1206
C24 C 0.1168(3) 0.3603(2) -0.0112(3)
H20 H 0.1142 0.4145 -0.0050
C25 C 0.1123(2) 0.3122(2) 0.0495(2)
H21 H 0.1066 0.3332 0.0971
S1 S 0.11038(4) 0.17741(4) 0.12132(4)
N1 N 0.12067(17) 0.22251(16) 0.19259(14)
C26 C 0.2018(2) 0.2513(2) 0.2077(2)
H22 H 0.2388 0.2078 0.2112
H23 H 0.2018 0.2798 0.2538
H24 H 0.2187 0.2855 0.1680
S2 S 0.29847(5) 0.06881(5) -0.10891(4)
O1 O 0.25300(15) 0.04571(15) -0.04635(13)
O2 O 0.26793(17) 0.13371(15) -0.14835(14)
O3 O 0.32647(13) 0.00700(13) -0.15381(12)
C27 C 0.3900(3) 0.1064(2) -0.0687(2)
F1 F 0.37591(17) 0.16693(14) -0.02690(13)
F2 F 0.42716(16) 0.05349(15) -0.02924(15)
F3 F 0.44105(14) 0.12807(14) -0.12124(14)
loop_
_geom_bond_atom_site_label_1
_geom_bond_atom_site_label_2
_geom_bond_site_symmetry_1
_geom_bond_site_symmetry_2
C1 H1 1_555 1_555
Se1 C1 1_555 1_555
C2 Se1 1_555 1_555
C3 C2 1_555 1_555
H2 C3 1_555 1_555
C4 C3 1_555 1_555
H3 C4 1_555 1_555
C5 C4 1_555 1_555
H4 C5 1_555 1_555
C6 C5 1_555 1_555
H5 C6 1_555 1_555
C7 C2 1_555 1_555
H6 C7 1_555 1_555
C8 Se1 1_555 1_555
C9 C8 1_555 1_555
H7 C9 1_555 1_555
C10 C9 1_555 1_555
H8 C10 1_555 1_555
C11 C10 1_555 1_555
H9 C11 1_555 1_555
C12 C11 1_555 1_555
H10 C12 1_555 1_555
C13 C8 1_555 1_555
H11 C13 1_555 1_555
C14 C15 1_555 1_555
C15 H12 1_555 1_555
C16 C15 1_555 1_555
H13 C16 1_555 1_555
C17 C16 1_555 1_555
H14 C17 1_555 1_555
C18 C17 1_555 1_555
H15 C18 1_555 1_555
C19 C14 1_555 1_555
H16 C19 1_555 1_555
C20 C21 1_555 1_555
C21 H17 1_555 1_555
C22 C21 1_555 1_555
H18 C22 1_555 1_555
C23 C22 1_555 1_555
H19 C23 1_555 1_555
C24 C23 1_555 1_555
H20 C24 1_555 1_555
C25 C20 1_555 1_555
H21 C25 1_555 1_555
S1 C1 1_555 1_555
N1 S1 1_555 1_555
C26 N1 1_555 1_555
H22 C26 1_555 1_555
H23 C26 1_555 1_555
H24 C26 1_555 1_555
S2 O1 1_555 1_555
O2 S2 1_555 1_555
O3 S2 1_555 1_555
C27 S2 1_555 1_555
F1 C27 1_555 1_555
F2 C27 1_555 1_555
F3 C27 1_555 1_555
C6 C7 1_555 1_555
C12 C13 1_555 1_555
C14 S1 1_555 1_555
C18 C19 1_555 1_555
C20 S1 1_555 1_555
C24 C25 1_555 1_555

#END
