
#######################################################################
#
#                 Cambridge Crystallographic Data Centre
#                                CCDC 
#
#######################################################################
#
# If this CIF has been generated from an entry in the Cambridge 
# Structural Database, then it will include bibliographic, chemical, 
# crystal, experimental, refinement or atomic coordinate data resulting 
# from the CCDC's data processing and validation procedures.
#
#######################################################################

data_HOJMID
_chemical_formula_moiety         'C26 H20 N6 O4,2(C1 H4 O1)'
_chemical_name_systematic        
"3,3'-bis((2-Salicylidenehydrazino)carbonyl)-2,2'-bipyridine methanol solvate"
_symmetry_cell_setting           monoclinic
_symmetry_space_group_name_H-M   'C 2/c'
_symmetry_Int_Tables_number      15
_space_group_name_Hall           '-C 2yn'
loop_
_symmetry_equiv_pos_site_id
_symmetry_equiv_pos_as_xyz
1 x,y,z
2 1/2+x,1/2+y,z
3 -x,y,1/2-z
4 1/2-x,1/2+y,1/2-z
5 -x,-y,-z
6 1/2-x,1/2-y,-z
7 x,-y,1/2+z
8 1/2+x,1/2-y,1/2+z
_cell_length_a                   24.084(5)
_cell_length_b                   8.6422(13)
_cell_length_c                   16.236(3)
_cell_angle_alpha                90
_cell_angle_beta                 129.927(5)
_cell_angle_gamma                90
_cell_volume                     2591.49
_exptl_crystal_colour            yellow
_exptl_crystal_description       prism
_cell_formula_units_Z            4
_exptl_crystal_recrystallization_method methanol
loop_
_atom_site_label
_atom_site_type_symbol
_atom_site_fract_x
_atom_site_fract_y
_atom_site_fract_z
O1 O 0.07183(7) 0.20573(18) -0.09421(12)
O2 O 0.21349(7) 0.36410(16) 0.20277(10)
H1 H 0.1757 0.3265 0.1461
N1 N -0.08635(7) -0.09506(16) -0.33643(10)
N2 N 0.01745(8) 0.21393(18) -0.02197(11)
N3 N 0.07554(7) 0.29344(16) 0.06534(11)
C1 C -0.03381(8) -0.00432(18) -0.25664(11)
C2 C -0.14826(9) -0.1063(2) -0.35324(13)
H3 H -0.1854 -0.1713 -0.4097
C3 C -0.16080(9) -0.0283(2) -0.29262(13)
H4 H -0.2060 -0.0368 -0.3082
C4 C -0.10609(9) 0.0627(2) -0.20875(13)
H5 H -0.1132 0.1171 -0.1653
C5 C -0.04045(8) 0.07434(18) -0.18798(12)
C6 C 0.02135(9) 0.1704(2) -0.09842(13)
C7 C 0.06700(9) 0.3564(2) 0.12808(13)
H6 H 0.0213 0.3511 0.1112
C8 C 0.12671(9) 0.43552(18) 0.22451(12)
C9 C 0.11450(9) 0.5121(2) 0.28761(14)
H7 H 0.0671 0.5128 0.2654
C10 C 0.16974(10) 0.5864(2) 0.38130(14)
H8 H 0.1607 0.6380 0.4233
C11 C 0.23866(10) 0.5847(2) 0.41332(14)
H9 H 0.2770 0.6359 0.4778
C12 C 0.25262(9) 0.5099(2) 0.35313(13)
H10 H 0.3002 0.5096 0.3763
C13 C 0.19696(9) 0.43508(18) 0.25874(12)
H14 H -0.0183(13) 0.197(3) -0.0259(18)
O1B O -0.07183(7) 0.20573(18) -0.40579(12)
O2B O -0.21349(7) 0.36410(16) -0.70277(10)
H1B H -0.1757 0.3265 -0.6461
N1B N 0.08635(7) -0.09506(16) -0.16357(10)
N2B N -0.01745(8) 0.21393(18) -0.47803(11)
N3B N -0.07554(7) 0.29344(16) -0.56534(11)
C1B C 0.03381(8) -0.00432(18) -0.24336(11)
C2B C 0.14826(9) -0.1063(2) -0.14676(13)
H3B H 0.1854 -0.1713 -0.0903
C3B C 0.16080(9) -0.0283(2) -0.20738(13)
H4B H 0.2060 -0.0368 -0.1918
C4B C 0.10609(9) 0.0627(2) -0.29125(13)
H5B H 0.1132 0.1171 -0.3347
C5B C 0.04045(8) 0.07434(18) -0.31202(12)
C6B C -0.02135(9) 0.1704(2) -0.40158(13)
C7B C -0.06700(9) 0.3564(2) -0.62808(13)
H6B H -0.0213 0.3511 -0.6112
C8B C -0.12671(9) 0.43552(18) -0.72451(12)
C9B C -0.11450(9) 0.5121(2) -0.78761(14)
H7B H -0.0671 0.5128 -0.7654
C10B C -0.16974(10) 0.5864(2) -0.88130(14)
H8B H -0.1607 0.6380 -0.9233
C11B C -0.23866(10) 0.5847(2) -0.91332(14)
H9B H -0.2770 0.6359 -0.9778
C12B C -0.25262(9) 0.5099(2) -0.85313(13)
H10B H -0.3002 0.5096 -0.8763
C13B C -0.19696(9) 0.43508(18) -0.75874(12)
H14B H 0.0183(13) 0.197(3) -0.4741(18)
O3 O 0.09057(6) 0.80602(14) 0.00166(9)
H2 H 0.0846 0.8400 -0.0520
C14 C 0.13763(11) 0.6763(2) 0.04423(15)
H11 H 0.1740 0.6913 0.0356
H12 H 0.1095 0.5826 0.0058
H13 H 0.1619 0.6654 0.1207
loop_
_geom_bond_atom_site_label_1
_geom_bond_atom_site_label_2
_geom_bond_site_symmetry_1
_geom_bond_site_symmetry_2
O1 C6 1_555 1_555
O2 H1 1_555 1_555
O3 H2 1_555 1_555
N1 C1 1_555 1_555
N2 N3 1_555 1_555
N3 C7 1_555 1_555
C1 C5 1_555 1_555
C2 N1 1_555 1_555
H3 C2 1_555 1_555
C3 C2 1_555 1_555
H4 C3 1_555 1_555
C4 C3 1_555 1_555
H5 C4 1_555 1_555
C5 C4 1_555 1_555
C6 N2 1_555 1_555
C7 H6 1_555 1_555
C8 C7 1_555 1_555
C9 C8 1_555 1_555
H7 C9 1_555 1_555
C10 C9 1_555 1_555
H8 C10 1_555 1_555
C11 C10 1_555 1_555
H9 C11 1_555 1_555
C12 C11 1_555 1_555
H10 C12 1_555 1_555
C13 O2 1_555 1_555
C14 O3 1_555 1_555
H11 C14 1_555 1_555
H12 C14 1_555 1_555
H13 C14 1_555 1_555
H14 N2 1_555 1_555
O1B C6B 1_555 1_555
O2B H1B 1_555 1_555
N1B C1B 1_555 1_555
N2B N3B 1_555 1_555
N3B C7B 1_555 1_555
C1B C1 1_555 1_555
C2B N1B 1_555 1_555
H3B C2B 1_555 1_555
C3B C2B 1_555 1_555
H4B C3B 1_555 1_555
C4B C3B 1_555 1_555
H5B C4B 1_555 1_555
C5B C1B 1_555 1_555
C6B N2B 1_555 1_555
C7B H6B 1_555 1_555
C8B C7B 1_555 1_555
C9B C8B 1_555 1_555
H7B C9B 1_555 1_555
C10B C9B 1_555 1_555
H8B C10B 1_555 1_555
C11B C10B 1_555 1_555
H9B C11B 1_555 1_555
C12B C11B 1_555 1_555
H10B C12B 1_555 1_555
C13B O2B 1_555 1_555
H14B N2B 1_555 1_555
C5 C6 1_555 1_555
C8 C13 1_555 1_555
C12 C13 1_555 1_555
C4B C5B 1_555 1_555
C5B C6B 1_555 1_555
C8B C13B 1_555 1_555
C12B C13B 1_555 1_555

#END
