
#######################################################################
#
#                 Cambridge Crystallographic Data Centre
#                                CCDC 
#
#######################################################################
#
# If this CIF has been generated from an entry in the Cambridge 
# Structural Database, then it will include bibliographic, chemical, 
# crystal, experimental, refinement or atomic coordinate data resulting 
# from the CCDC's data processing and validation procedures.
#
#######################################################################

data_HOKDAO
_chemical_formula_moiety         'C26 H23 N1 S2'
_chemical_name_systematic        
"(diphenyl sulfide)(1,1'-(N-methylsulfinimidoyl)dibenzene)carbone"
_symmetry_cell_setting           monoclinic
_symmetry_space_group_name_H-M   'P 21/a'
_symmetry_Int_Tables_number      14
_space_group_name_Hall           '-P 2yab'
loop_
_symmetry_equiv_pos_site_id
_symmetry_equiv_pos_as_xyz
1 x,y,z
2 1/2-x,1/2+y,-z
3 -x,-y,-z
4 1/2+x,1/2-y,z
_cell_length_a                   8.756(3)
_cell_length_b                   24.922(8)
_cell_length_c                   10.294(3)
_cell_angle_alpha                90
_cell_angle_beta                 108.530(14)
_cell_angle_gamma                90
_cell_volume                     2129.87
_exptl_crystal_colour            yellow
_exptl_crystal_description       block
_chemical_melting_point          '383-384 K'
_cell_formula_units_Z            4
_chemical_properties_physical    'Air-sensitive, Moisture-sensitive'
_exptl_crystal_recrystallization_method 'diethyl ether'
loop_
_atom_site_label
_atom_site_type_symbol
_atom_site_fract_x
_atom_site_fract_y
_atom_site_fract_z
C1 C 0.5569(3) 0.14470(10) 0.8760(2)
S1 S 0.54680(8) 0.11131(2) 0.73528(6)
N1 N 0.4013(3) 0.07737(9) 0.6478(2)
C2 C 0.2404(3) 0.10056(12) 0.6306(3)
H1 H 0.2425 0.1197 0.7143
H2 H 0.1603 0.0717 0.6130
H3 H 0.2118 0.1256 0.5532
C3 C 0.5987(3) 0.16285(10) 0.6346(2)
C4 C 0.5137(3) 0.16385(11) 0.4957(3)
H4 H 0.4349 0.1372 0.4563
C5 C 0.5453(4) 0.20448(12) 0.4149(3)
H5 H 0.4846 0.2064 0.3204
C6 C 0.6637(4) 0.24173(11) 0.4708(3)
H6 H 0.6851 0.2690 0.4145
C7 C 0.7522(4) 0.23972(12) 0.6091(3)
H7 H 0.8353 0.2651 0.6468
C8 C 0.7190(4) 0.20054(11) 0.6921(3)
H8 H 0.7776 0.1994 0.7872
C9 C 0.7079(3) 0.06421(10) 0.7505(2)
C10 C 0.6859(3) 0.01825(10) 0.6705(2)
H9 H 0.5839 0.0106 0.6056
C11 C 0.8148(4) -0.01638(11) 0.6866(3)
H10 H 0.8008 -0.0480 0.6324
C12 C 0.9619(4) -0.00537(12) 0.7800(3)
H11 H 1.0494 -0.0294 0.7904
C13 C 0.9838(4) 0.04052(13) 0.8592(3)
H12 H 1.0864 0.0483 0.9232
C14 C 0.8560(4) 0.07516(11) 0.8451(3)
H13 H 0.8703 0.1064 0.9004
C15 C 0.6275(3) 0.09877(10) 1.1418(2)
C16 C 0.7339(3) 0.14037(11) 1.1948(3)
H14 H 0.7388 0.1706 1.1399
C17 C 0.8332(4) 0.13695(13) 1.3299(3)
H15 H 0.9069 0.1651 1.3685
C18 C 0.8248(4) 0.09261(13) 1.4082(3)
H16 H 0.8902 0.0911 1.5016
C19 C 0.7233(4) 0.05083(12) 1.3529(3)
H17 H 0.7213 0.0201 1.4069
C20 C 0.6240(3) 0.05331(11) 1.2185(3)
H18 H 0.5543 0.0243 1.1792
C21 C 0.3345(3) 0.14292(9) 1.0214(2)
C22 C 0.2701(3) 0.12302(11) 1.1181(3)
H19 H 0.3075 0.0901 1.1634
C23 C 0.1508(4) 0.15177(12) 1.1479(3)
H20 H 0.1049 0.1383 1.2135
C24 C 0.0974(4) 0.20011(11) 1.0830(3)
H21 H 0.0157 0.2198 1.1046
C25 C 0.1631(4) 0.21991(11) 0.9865(3)
H22 H 0.1276 0.2533 0.9425
C26 C 0.2815(3) 0.19035(10) 0.9548(3)
H23 H 0.3255 0.2030 0.8872
S2 S 0.48315(8) 0.10314(2) 0.97370(6)
loop_
_geom_bond_atom_site_label_1
_geom_bond_atom_site_label_2
_geom_bond_site_symmetry_1
_geom_bond_site_symmetry_2
C1 S1 1_555 1_555
S1 N1 1_555 1_555
N1 C2 1_555 1_555
C2 H1 1_555 1_555
H2 C2 1_555 1_555
H3 C2 1_555 1_555
C3 S1 1_555 1_555
C4 C3 1_555 1_555
H4 C4 1_555 1_555
C5 C4 1_555 1_555
H5 C5 1_555 1_555
C6 C5 1_555 1_555
H6 C6 1_555 1_555
C7 C6 1_555 1_555
H7 C7 1_555 1_555
C8 C3 1_555 1_555
H8 C8 1_555 1_555
C9 S1 1_555 1_555
C10 C9 1_555 1_555
H9 C10 1_555 1_555
C11 C10 1_555 1_555
H10 C11 1_555 1_555
C12 C11 1_555 1_555
H11 C12 1_555 1_555
C13 C12 1_555 1_555
H12 C13 1_555 1_555
C14 C9 1_555 1_555
H13 C14 1_555 1_555
C15 C16 1_555 1_555
C16 H14 1_555 1_555
C17 C16 1_555 1_555
H15 C17 1_555 1_555
C18 C17 1_555 1_555
H16 C18 1_555 1_555
C19 C18 1_555 1_555
H17 C19 1_555 1_555
C20 C15 1_555 1_555
H18 C20 1_555 1_555
C21 C22 1_555 1_555
C22 H19 1_555 1_555
C23 C22 1_555 1_555
H20 C23 1_555 1_555
C24 C23 1_555 1_555
H21 C24 1_555 1_555
C25 C24 1_555 1_555
H22 C25 1_555 1_555
C26 C21 1_555 1_555
H23 C26 1_555 1_555
S2 C1 1_555 1_555
C7 C8 1_555 1_555
C13 C14 1_555 1_555
C15 S2 1_555 1_555
C19 C20 1_555 1_555
C21 S2 1_555 1_555
C25 C26 1_555 1_555

#END
