
#######################################################################
#
#                 Cambridge Crystallographic Data Centre
#                                CCDC 
#
#######################################################################
#
# If this CIF has been generated from an entry in the Cambridge 
# Structural Database, then it will include bibliographic, chemical, 
# crystal, experimental, refinement or atomic coordinate data resulting 
# from the CCDC's data processing and validation procedures.
#
#######################################################################

data_HOKGEU
_chemical_name_common            
(mu!2$-(p-Phenylene)bis(phenylbis(pyrazolyl)borato))-bis((12-crown-4)-lithium)
_chemical_formula_moiety         'C46 H58 B2 Li2 N8 O8'
_chemical_name_systematic        
(\m~2~-(1,4-Phenylene)bis(phenylbis(pyrazolyl)borato))-bis((12-crown-4)-lithium)
_symmetry_cell_setting           monoclinic
_symmetry_space_group_name_H-M   'P 21/n'
_symmetry_Int_Tables_number      14
_space_group_name_Hall           '-P 2yn'
loop_
_symmetry_equiv_pos_site_id
_symmetry_equiv_pos_as_xyz
1 x,y,z
2 1/2-x,1/2+y,1/2-z
3 -x,-y,-z
4 1/2+x,1/2-y,1/2+z
_cell_length_a                   8.6293(18)
_cell_length_b                   15.113(6)
_cell_length_c                   18.731(4)
_cell_angle_alpha                90
_cell_angle_beta                 101.906(17)
_cell_angle_gamma                90
_cell_volume                     2390.25
_exptl_crystal_colour            colorless
_exptl_crystal_description       needle
_cell_formula_units_Z            2
loop_
_atom_site_label
_atom_site_type_symbol
_atom_site_fract_x
_atom_site_fract_y
_atom_site_fract_z
C1 C -0.0091(16) 0.7877(16) 0.7990(15)
H1 H -0.0545 0.7590 0.7518
H2 H -0.0858 0.8323 0.8091
C2 C 0.0194(19) 0.7202(14) 0.8582(12)
H3 H 0.0534 0.7496 0.9060
H4 H -0.0798 0.6874 0.8586
C3 C 0.254(2) 0.6386(12) 0.9106(9)
H5 H 0.3216 0.5893 0.8999
H6 H 0.1989 0.6186 0.9490
C4 C 0.3605(15) 0.7188(9) 0.9391(7)
H7 H 0.2963 0.7702 0.9484
H8 H 0.4375 0.7039 0.9844
C5 C 0.5103(11) 0.8226(9) 0.8843(6)
H9 H 0.6096 0.8230 0.9219
H10 H 0.4375 0.8672 0.8980
C6 C 0.5449(11) 0.8447(9) 0.8121(7)
H11 H 0.5854 0.9061 0.8129
H12 H 0.6280 0.8045 0.8016
C7 C 0.3116(16) 0.9134(9) 0.7508(7)
H13 H 0.3348 0.9529 0.7122
H14 H 0.3324 0.9461 0.7976
C8 C 0.1418(16) 0.8828(12) 0.7321(9)
H15 H 0.0670 0.9331 0.7273
H16 H 0.1200 0.8474 0.6866
O1 O 0.1399(11) 0.6598(7) 0.8461(6)
O2 O 0.4385(8) 0.7361(5) 0.8805(4)
O3 O 0.4062(8) 0.8365(5) 0.7563(4)
O4 O 0.1353(9) 0.8294(8) 0.7950(7)
Li1 Li 0.3099(15) 0.7051(13) 0.7693(9)
B1 B 0.4160(9) 0.6240(7) 0.6176(5)
N1 N 0.2327(6) 0.6107(5) 0.6204(4)
N2 N 0.1731(6) 0.6453(5) 0.6769(4)
C9 C 0.0139(7) 0.6300(6) 0.6582(5)
H17 H -0.0598 0.6477 0.6868
C10 C -0.0259(7) 0.5859(7) 0.5932(5)
H18 H -0.1284 0.5670 0.5692
C11 C 0.1175(7) 0.5743(6) 0.5693(5)
H19 H 0.1303 0.5463 0.5255
N3 N 0.5173(6) 0.5930(5) 0.6919(3)
N4 N 0.5012(6) 0.6257(5) 0.7577(4)
C12 C 0.6239(9) 0.5974(7) 0.8076(5)
H20 H 0.6402 0.6100 0.8582
C13 C 0.7255(8) 0.5466(7) 0.7751(5)
H21 H 0.8209 0.5184 0.7983
C14 C 0.6570(8) 0.5466(6) 0.7023(5)
H22 H 0.6994 0.5189 0.6650
C15 C 0.4482(8) 0.7272(6) 0.6042(5)
C16 C 0.3305(9) 0.7873(7) 0.5672(5)
H23 H 0.2248 0.7666 0.5526
C17 C 0.3627(12) 0.8744(7) 0.5517(6)
H24 H 0.2795 0.9103 0.5258
C18 C 0.5134(12) 0.9105(8) 0.5730(6)
H25 H 0.5362 0.9705 0.5643
C19 C 0.6319(10) 0.8495(7) 0.6092(6)
H26 H 0.7381 0.8698 0.6232
C20 C 0.5994(9) 0.7641(6) 0.6245(5)
H27 H 0.6831 0.7281 0.6500
C21 C 0.4561(7) 0.5595(6) 0.5537(4)
C22 C 0.4364(8) 0.4678(7) 0.5554(5)
H28 H 0.3941 0.4429 0.5938
C23 C 0.5236(8) 0.5893(6) 0.4973(4)
H29 H 0.5439 0.6508 0.4941
C1B C 1.0091(16) 0.2123(16) 0.2010(15)
H1B H 1.0545 0.2410 0.2482
H2B H 1.0858 0.1677 0.1909
C2B C 0.9806(19) 0.2798(14) 0.1418(12)
H3B H 0.9466 0.2504 0.0940
H4B H 1.0798 0.3126 0.1414
C3B C 0.746(2) 0.3614(12) 0.0894(9)
H5B H 0.6784 0.4107 0.1001
H6B H 0.8011 0.3814 0.0510
C4B C 0.6395(15) 0.2812(9) 0.0609(7)
H7B H 0.7037 0.2298 0.0516
H8B H 0.5625 0.2961 0.0156
C5B C 0.4897(11) 0.1774(9) 0.1157(6)
H9B H 0.3904 0.1770 0.0781
H10B H 0.5625 0.1328 0.1020
C6B C 0.4551(11) 0.1553(9) 0.1879(7)
H11B H 0.4146 0.0939 0.1871
H12B H 0.3720 0.1955 0.1984
C7B C 0.6884(16) 0.0866(9) 0.2492(7)
H13B H 0.6652 0.0471 0.2878
H14B H 0.6676 0.0539 0.2024
C8B C 0.8582(16) 0.1172(12) 0.2679(9)
H15B H 0.9330 0.0669 0.2727
H16B H 0.8800 0.1526 0.3134
O1B O 0.8601(11) 0.3402(7) 0.1539(6)
O2B O 0.5615(8) 0.2639(5) 0.1195(4)
O3B O 0.5938(8) 0.1635(5) 0.2437(4)
O4B O 0.8647(9) 0.1706(8) 0.2050(7)
Li1B Li 0.6901(15) 0.2949(13) 0.2307(9)
B1B B 0.5840(9) 0.3760(7) 0.3824(5)
N1B N 0.7673(6) 0.3893(5) 0.3796(4)
N2B N 0.8269(6) 0.3547(5) 0.3231(4)
C9B C 0.9861(7) 0.3700(6) 0.3418(5)
H17B H 1.0598 0.3523 0.3132
C10B C 1.0259(7) 0.4141(7) 0.4068(5)
H18B H 1.1284 0.4330 0.4308
C11B C 0.8825(7) 0.4257(6) 0.4307(5)
H19B H 0.8697 0.4537 0.4745
N3B N 0.4827(6) 0.4070(5) 0.3081(3)
N4B N 0.4988(6) 0.3743(5) 0.2423(4)
C12B C 0.3761(9) 0.4026(7) 0.1924(5)
H20B H 0.3598 0.3900 0.1418
C13B C 0.2745(8) 0.4534(7) 0.2249(5)
H21B H 0.1791 0.4816 0.2017
C14B C 0.3430(8) 0.4534(6) 0.2977(5)
H22B H 0.3006 0.4811 0.3350
C15B C 0.5518(8) 0.2728(6) 0.3958(5)
C16B C 0.6695(9) 0.2127(7) 0.4328(5)
H23B H 0.7752 0.2334 0.4474
C17B C 0.6373(12) 0.1256(7) 0.4483(6)
H24B H 0.7205 0.0897 0.4742
C18B C 0.4866(12) 0.0895(8) 0.4270(6)
H25B H 0.4638 0.0295 0.4357
C19B C 0.3681(10) 0.1505(7) 0.3908(6)
H26B H 0.2619 0.1302 0.3768
C20B C 0.4006(9) 0.2359(6) 0.3755(5)
H27B H 0.3169 0.2719 0.3500
C21B C 0.5439(7) 0.4405(6) 0.4463(4)
C22B C 0.5636(8) 0.5322(7) 0.4446(5)
H28B H 0.6059 0.5571 0.4062
C23B C 0.4764(8) 0.4107(6) 0.5027(4)
H29B H 0.4561 0.3492 0.5059
loop_
_geom_bond_atom_site_label_1
_geom_bond_atom_site_label_2
_geom_bond_site_symmetry_1
_geom_bond_site_symmetry_2
C1 H1 1_555 1_555
H2 C1 1_555 1_555
C2 C1 1_555 1_555
H3 C2 1_555 1_555
H4 C2 1_555 1_555
C3 H5 1_555 1_555
H6 C3 1_555 1_555
C4 C3 1_555 1_555
H7 C4 1_555 1_555
H8 C4 1_555 1_555
C5 H9 1_555 1_555
H10 C5 1_555 1_555
C6 C5 1_555 1_555
H11 C6 1_555 1_555
H12 C6 1_555 1_555
C7 H13 1_555 1_555
H14 C7 1_555 1_555
C8 C7 1_555 1_555
H15 C8 1_555 1_555
H16 C8 1_555 1_555
O1 C2 1_555 1_555
O2 C4 1_555 1_555
O3 C6 1_555 1_555
O4 C1 1_555 1_555
Li1 O1 1_555 1_555
B1 N1 1_555 1_555
N1 N2 1_555 1_555
N2 Li1 1_555 1_555
C9 N2 1_555 1_555
H17 C9 1_555 1_555
C10 C9 1_555 1_555
H18 C10 1_555 1_555
C11 N1 1_555 1_555
H19 C11 1_555 1_555
N3 B1 1_555 1_555
N4 Li1 1_555 1_555
C12 N4 1_555 1_555
H20 C12 1_555 1_555
C13 C12 1_555 1_555
H21 C13 1_555 1_555
C14 N3 1_555 1_555
H22 C14 1_555 1_555
C15 B1 1_555 1_555
C16 C15 1_555 1_555
H23 C16 1_555 1_555
C17 C16 1_555 1_555
H24 C17 1_555 1_555
C18 C17 1_555 1_555
H25 C18 1_555 1_555
C19 C18 1_555 1_555
H26 C19 1_555 1_555
C20 C15 1_555 1_555
H27 C20 1_555 1_555
C21 B1 1_555 1_555
C22 C21 1_555 1_555
H28 C22 1_555 1_555
C23 C21 1_555 1_555
H29 C23 1_555 1_555
C1B H1B 1_555 1_555
H2B C1B 1_555 1_555
C2B C1B 1_555 1_555
H3B C2B 1_555 1_555
H4B C2B 1_555 1_555
C3B H5B 1_555 1_555
H6B C3B 1_555 1_555
C4B C3B 1_555 1_555
H7B C4B 1_555 1_555
H8B C4B 1_555 1_555
C5B H9B 1_555 1_555
H10B C5B 1_555 1_555
C6B C5B 1_555 1_555
H11B C6B 1_555 1_555
H12B C6B 1_555 1_555
C7B H13B 1_555 1_555
H14B C7B 1_555 1_555
C8B C7B 1_555 1_555
H15B C8B 1_555 1_555
H16B C8B 1_555 1_555
O1B C2B 1_555 1_555
O2B C4B 1_555 1_555
O3B C6B 1_555 1_555
O4B C1B 1_555 1_555
Li1B O1B 1_555 1_555
B1B N1B 1_555 1_555
N1B N2B 1_555 1_555
N2B Li1B 1_555 1_555
C9B N2B 1_555 1_555
H17B C9B 1_555 1_555
C10B C9B 1_555 1_555
H18B C10B 1_555 1_555
C11B N1B 1_555 1_555
H19B C11B 1_555 1_555
N3B B1B 1_555 1_555
N4B Li1B 1_555 1_555
C12B N4B 1_555 1_555
H20B C12B 1_555 1_555
C13B C12B 1_555 1_555
H21B C13B 1_555 1_555
C14B N3B 1_555 1_555
H22B C14B 1_555 1_555
C15B B1B 1_555 1_555
C16B C15B 1_555 1_555
H23B C16B 1_555 1_555
C17B C16B 1_555 1_555
H24B C17B 1_555 1_555
C18B C17B 1_555 1_555
H25B C18B 1_555 1_555
C19B C18B 1_555 1_555
H26B C19B 1_555 1_555
C20B C15B 1_555 1_555
H27B C20B 1_555 1_555
C21B B1B 1_555 1_555
C22B C23 1_555 1_555
H28B C22B 1_555 1_555
C23B C22 1_555 1_555
H29B C23B 1_555 1_555
C3 O1 1_555 1_555
C5 O2 1_555 1_555
C7 O3 1_555 1_555
C8 O4 1_555 1_555
O2 Li1 1_555 1_555
O3 Li1 1_555 1_555
O4 Li1 1_555 1_555
C10 C11 1_555 1_555
N3 N4 1_555 1_555
C13 C14 1_555 1_555
C19 C20 1_555 1_555
C3B O1B 1_555 1_555
C5B O2B 1_555 1_555
C7B O3B 1_555 1_555
C8B O4B 1_555 1_555
O2B Li1B 1_555 1_555
O3B Li1B 1_555 1_555
O4B Li1B 1_555 1_555
C10B C11B 1_555 1_555
N3B N4B 1_555 1_555
C13B C14B 1_555 1_555
C19B C20B 1_555 1_555
C21B C22B 1_555 1_555
C21B C23B 1_555 1_555

#END
