
#######################################################################
#
#                 Cambridge Crystallographic Data Centre
#                                CCDC 
#
#######################################################################
#
# If this CIF has been generated from an entry in the Cambridge 
# Structural Database, then it will include bibliographic, chemical, 
# crystal, experimental, refinement or atomic coordinate data resulting 
# from the CCDC's data processing and validation procedures.
#
#######################################################################

data_HOKHIZ
_chemical_name_common            m-bis(bis(Dimethylamino)boryl)benzene
_chemical_formula_moiety         'C14 H28 B2 N4'
_chemical_name_systematic        1,3-bis(bis(Dimethylamino)boryl)benzene
_symmetry_cell_setting           triclinic
_symmetry_space_group_name_H-M   'P -1'
_symmetry_Int_Tables_number      2
_space_group_name_Hall           '-P 1'
loop_
_symmetry_equiv_pos_site_id
_symmetry_equiv_pos_as_xyz
1 x,y,z
2 -x,-y,-z
_cell_length_a                   8.0240(12)
_cell_length_b                   10.0761(14)
_cell_length_c                   11.0822(16)
_cell_angle_alpha                88.784(11)
_cell_angle_beta                 70.959(11)
_cell_angle_gamma                84.598(12)
_cell_volume                     843.174
_exptl_crystal_colour            colorless
_exptl_crystal_description       block
_cell_formula_units_Z            2
loop_
_atom_site_label
_atom_site_type_symbol
_atom_site_fract_x
_atom_site_fract_y
_atom_site_fract_z
C1 C 0.40224(18) 0.70049(14) 0.20435(12)
C2 C 0.45953(18) 0.59656(14) 0.27273(12)
H1 H 0.5506 0.6114 0.3069
C3 C 0.38976(18) 0.47289(14) 0.29312(13)
C4 C 0.25770(18) 0.45300(15) 0.23989(13)
H2 H 0.2059 0.3707 0.2526
C5 C 0.20133(19) 0.55182(14) 0.16870(14)
H3 H 0.1146 0.5354 0.1308
C6 C 0.27102(18) 0.67402(14) 0.15282(13)
H4 H 0.2288 0.7414 0.1059
B1 B 0.4854(2) 0.83903(16) 0.18327(15)
N1 N 0.37017(17) 0.95858(12) 0.21379(12)
N2 N 0.67283(16) 0.83867(12) 0.13410(11)
C7 C 0.1882(2) 0.96380(18) 0.29964(16)
H5 H 0.1648 0.8762 0.3383
H6 H 0.1070 0.9883 0.2515
H7 H 0.1703 1.0304 0.3669
C8 C 0.4152(3) 1.08878(16) 0.15791(17)
H8 H 0.4285 1.1475 0.2229
H9 H 0.3207 1.1283 0.1268
H10 H 0.5267 1.0777 0.0866
C9 C 0.7728(2) 0.94716(19) 0.14719(17)
H11 H 0.8209 0.9897 0.0642
H12 H 0.8703 0.9121 0.1772
H13 H 0.6948 1.0129 0.2089
C10 C 0.7887(2) 0.72571(17) 0.06482(15)
H14 H 0.7170 0.6561 0.0544
H15 H 0.8660 0.6903 0.1128
H16 H 0.8612 0.7548 -0.0193
B2 B 0.4631(2) 0.35774(16) 0.36809(15)
N3 N 0.34273(16) 0.29781(12) 0.47429(11)
N4 N 0.64804(16) 0.31561(12) 0.32257(11)
C11 C 0.1719(2) 0.36406(17) 0.54907(14)
H17 H 0.1587 0.4545 0.5170
H18 H 0.1650 0.3686 0.6388
H19 H 0.0769 0.3137 0.5417
C12 C 0.3728(2) 0.16362(15) 0.51918(15)
H20 H 0.4722 0.1148 0.4544
H21 H 0.2660 0.1170 0.5346
H22 H 0.4004 0.1687 0.5987
C13 C 0.7612(2) 0.33857(16) 0.19264(14)
H23 H 0.6887 0.3786 0.1429
H24 H 0.8217 0.2535 0.1532
H25 H 0.8492 0.3990 0.1945
C14 C 0.7490(2) 0.25066(16) 0.39938(15)
H26 H 0.6741 0.2510 0.4892
H27 H 0.8526 0.2989 0.3909
H28 H 0.7879 0.1585 0.3696
loop_
_geom_bond_atom_site_label_1
_geom_bond_atom_site_label_2
_geom_bond_site_symmetry_1
_geom_bond_site_symmetry_2
C1 C2 1_555 1_555
C2 H1 1_555 1_555
C3 C2 1_555 1_555
C4 C3 1_555 1_555
H2 C4 1_555 1_555
C5 C4 1_555 1_555
H3 C5 1_555 1_555
C6 C1 1_555 1_555
H4 C6 1_555 1_555
B1 C1 1_555 1_555
N1 B1 1_555 1_555
N2 B1 1_555 1_555
C7 N1 1_555 1_555
H5 C7 1_555 1_555
H6 C7 1_555 1_555
H7 C7 1_555 1_555
C8 N1 1_555 1_555
H8 C8 1_555 1_555
H9 C8 1_555 1_555
H10 C8 1_555 1_555
C9 N2 1_555 1_555
H11 C9 1_555 1_555
H12 C9 1_555 1_555
H13 C9 1_555 1_555
C10 N2 1_555 1_555
H14 C10 1_555 1_555
H15 C10 1_555 1_555
H16 C10 1_555 1_555
B2 C3 1_555 1_555
N3 B2 1_555 1_555
N4 B2 1_555 1_555
C11 N3 1_555 1_555
H17 C11 1_555 1_555
H18 C11 1_555 1_555
H19 C11 1_555 1_555
C12 N3 1_555 1_555
H20 C12 1_555 1_555
H21 C12 1_555 1_555
H22 C12 1_555 1_555
C13 N4 1_555 1_555
H23 C13 1_555 1_555
H24 C13 1_555 1_555
H25 C13 1_555 1_555
C14 N4 1_555 1_555
H26 C14 1_555 1_555
H27 C14 1_555 1_555
H28 C14 1_555 1_555
C5 C6 1_555 1_555

#END
