
#######################################################################
#
#                 Cambridge Crystallographic Data Centre
#                                CCDC 
#
#######################################################################
#
# If this CIF has been generated from an entry in the Cambridge 
# Structural Database, then it will include bibliographic, chemical, 
# crystal, experimental, refinement or atomic coordinate data resulting 
# from the CCDC's data processing and validation procedures.
#
#######################################################################

data_HOKLAW
_chemical_formula_moiety         'C20 H14 Br1 N1 O3'
_chemical_name_systematic        
6-(4-bromophenoxy)-2-ethyl-1H-benzo[de]isoquinoline-1,3(2H)-dione
_symmetry_cell_setting           monoclinic
_symmetry_space_group_name_H-M   'P 21/c'
_symmetry_Int_Tables_number      14
_space_group_name_Hall           '-P 2ybc'
loop_
_symmetry_equiv_pos_site_id
_symmetry_equiv_pos_as_xyz
1 x,y,z
2 -x,1/2+y,1/2-z
3 -x,-y,-z
4 x,1/2-y,1/2+z
_cell_length_a                   9.008(7)
_cell_length_b                   7.848(6)
_cell_length_c                   24.086(19)
_cell_angle_alpha                90
_cell_angle_beta                 100.229(13)
_cell_angle_gamma                90
_cell_volume                     1675.69
_exptl_crystal_colour            yellow
_exptl_crystal_description       rectangular
_cell_formula_units_Z            4
loop_
_atom_site_label
_atom_site_type_symbol
_atom_site_fract_x
_atom_site_fract_y
_atom_site_fract_z
O1 O 0.3058(4) 0.0866(4) 0.10452(16)
C1 C 0.5621(5) 0.3101(5) -0.03840(16)
C2 C 0.7012(6) 0.1064(5) 0.10511(19)
C3 C 0.4254(5) 0.2023(5) 0.03293(17)
C4 C 0.4233(6) 0.1170(5) 0.0879(2)
C5 C 0.5619(5) 0.2335(5) 0.01521(16)
C6 C 0.8325(5) 0.2196(6) 0.03165(19)
H1 H 0.917(5) 0.1934(18) 0.0533(14)
O2 O 0.8152(4) 0.0689(4) 0.13666(15)
C7 C 0.4230(6) 0.3567(6) -0.0716(2)
H2 H 0.4212(6) 0.408(3) -0.105(2)
C8 C 0.6997(5) 0.1884(5) 0.04946(17)
C9 C 0.2912(6) 0.3238(6) -0.0533(2)
H3 H 0.205(6) 0.3513(19) -0.0746(14)
C10 C 0.5619(7) -0.0106(7) 0.1749(2)
H4 H 0.641(3) -0.082(3) 0.1821(4)
H5 H 0.477(4) -0.072(3) 0.1732(2)
C11 C 0.2914(6) 0.2460(5) -0.0005(2)
H6 H 0.198(5) 0.2238(14) 0.0119(8)
C12 C 0.8338(6) 0.2935(7) -0.02127(18)
H7 H 0.917(6) 0.3100(14) -0.0323(8)
N1 N 0.5607(5) 0.0745(4) 0.11984(16)
C13 C 0.7024(6) 0.3391(6) -0.05516(18)
C14 C 0.5720(9) 0.1180(9) 0.2223(2)
H8 H 0.574(6) 0.055(3) 0.2600(17)
H9 H 0.480(5) 0.198(6) 0.2148(12)
H10 H 0.669(5) 0.189(5) 0.2245(14)
O3 O 0.6932(4) 0.4153(5) -0.10704(13)
C15 C 0.8753(6) 0.2640(6) -0.14954(17)
H11 H 0.835(2) 0.162(6) -0.1407(5)
C16 C 0.8191(6) 0.4141(6) -0.13345(18)
C17 C 0.9930(5) 0.2670(6) -0.17912(17)
H12 H 1.031(2) 0.171(6) -0.1898(6)
C18 C 0.9924(6) 0.5750(6) -0.1756(2)
H13 H 1.034(2) 0.684(6) -0.1848(5)
C19 C 0.8749(6) 0.5698(6) -0.14627(19)
H14 H 0.837(3) 0.660(6) -0.1363(7)
C20 C 1.0497(6) 0.4241(5) -0.19175(17)
Br1 Br 1.21441(7) 0.42851(8) -0.23095(2)
loop_
_geom_bond_atom_site_label_1
_geom_bond_atom_site_label_2
_geom_bond_site_symmetry_1
_geom_bond_site_symmetry_2
O1 C4 1_555 1_555
C1 C5 1_555 1_555
C2 O2 1_555 1_555
C3 C4 1_555 1_555
C4 N1 1_555 1_555
C5 C3 1_555 1_555
C6 H1 1_555 1_555
C7 C1 1_555 1_555
H2 C7 1_555 1_555
C8 C2 1_555 1_555
C9 C7 1_555 1_555
H3 C9 1_555 1_555
C10 H4 1_555 1_555
H5 C10 1_555 1_555
C11 C3 1_555 1_555
H6 C11 1_555 1_555
C12 C6 1_555 1_555
H7 C12 1_555 1_555
N1 C2 1_555 1_555
C13 C1 1_555 1_555
C14 C10 1_555 1_555
H8 C14 1_555 1_555
H9 C14 1_555 1_555
H10 C14 1_555 1_555
O3 C13 1_555 1_555
C15 H11 1_555 1_555
C16 O3 1_555 1_555
C17 C15 1_555 1_555
H12 C17 1_555 1_555
C18 H13 1_555 1_555
C19 C16 1_555 1_555
H14 C19 1_555 1_555
C20 C17 1_555 1_555
Br1 C20 1_555 1_555
C5 C8 1_555 1_555
C6 C8 1_555 1_555
C9 C11 1_555 1_555
C10 N1 1_555 1_555
C12 C13 1_555 1_555
C15 C16 1_555 1_555
C18 C19 1_555 1_555
C18 C20 1_555 1_555

#END
