
#######################################################################
#
#                 Cambridge Crystallographic Data Centre
#                                CCDC 
#
#######################################################################
#
# If this CIF has been generated from an entry in the Cambridge 
# Structural Database, then it will include bibliographic, chemical, 
# crystal, experimental, refinement or atomic coordinate data resulting 
# from the CCDC's data processing and validation procedures.
#
#######################################################################

data_HOLKIE
_chemical_formula_moiety         'C39 H34 N2 O2 S1'
_chemical_name_systematic        
N-(1-Benzyl-3-(4-methylphenyl)-4-((4-methylphenyl)ethynyl)-4-phenylazetidin-2-ylidene)-4-methylbenzenesulfonamide
_symmetry_cell_setting           monoclinic
_symmetry_space_group_name_H-M   'P 21/n'
_symmetry_Int_Tables_number      14
_space_group_name_Hall           '-P 2yn'
loop_
_symmetry_equiv_pos_site_id
_symmetry_equiv_pos_as_xyz
1 x,y,z
2 1/2-x,1/2+y,1/2-z
3 -x,-y,-z
4 1/2+x,1/2-y,1/2+z
_cell_length_a                   13.2199(5)
_cell_length_b                   11.4301(4)
_cell_length_c                   21.0851(8)
_cell_angle_alpha                90
_cell_angle_beta                 90.191(4)
_cell_angle_gamma                90
_cell_volume                     3186.04
_exptl_crystal_colour            colorless
_exptl_crystal_description       block
_cell_formula_units_Z            4
loop_
_atom_site_label
_atom_site_type_symbol
_atom_site_fract_x
_atom_site_fract_y
_atom_site_fract_z
S1 S 0.29893(4) -0.09589(5) 0.16864(3)
O1 O 0.23725(13) -0.18324(15) 0.19795(9)
O2 O 0.35383(12) -0.12920(14) 0.11236(7)
N1 N 0.22559(11) 0.01589(15) 0.15704(7)
N2 N 0.18678(11) 0.17824(14) 0.09381(7)
C1 C 0.38762(14) -0.04701(17) 0.22577(9)
C2 C 0.48308(16) -0.09432(19) 0.22560(11)
H1 H 0.5003 -0.1505 0.1956
C3 C 0.55319(17) -0.0583(2) 0.26994(11)
H2 H 0.6169 -0.0927 0.2705
C4 C 0.53080(16) 0.02807(19) 0.31370(9)
C5 C 0.43471(16) 0.0738(2) 0.31304(9)
H3 H 0.4177 0.1311 0.3424
C6 C 0.36288(15) 0.0368(2) 0.26993(9)
H4 H 0.2980 0.0684 0.2707
C7 C 0.60997(18) 0.0722(2) 0.35949(12)
H5 H 0.6510 0.1301 0.3389
H6 H 0.6518 0.0082 0.3730
H7 H 0.5775 0.1064 0.3957
C8 C 0.24581(13) 0.08987(17) 0.11192(8)
C9 C 0.32633(13) 0.11437(16) 0.06248(8)
H8 H 0.3296 0.0511 0.0312
C10 C 0.25013(13) 0.21632(17) 0.03951(8)
C11 C 0.43000(13) 0.15026(15) 0.08340(8)
C12 C 0.50999(14) 0.14380(17) 0.04129(9)
H9 H 0.4993 0.1132 0.0009
C13 C 0.60517(15) 0.18195(18) 0.05824(10)
H10 H 0.6576 0.1770 0.0290
C14 C 0.62425(14) 0.22743(17) 0.11778(10)
C15 C 0.54485(15) 0.23220(18) 0.16016(9)
H11 H 0.5562 0.2608 0.2009
C16 C 0.44888(14) 0.19532(17) 0.14329(8)
H12 H 0.3964 0.2008 0.1724
C17 C 0.72746(16) 0.2741(2) 0.13582(13)
H13 H 0.7387 0.3475 0.1149
H14 H 0.7785 0.2192 0.1231
H15 H 0.7307 0.2852 0.1809
C18 C 0.28752(13) 0.34109(17) 0.04271(9)
C19 C 0.32928(16) 0.3928(2) -0.01059(10)
H16 H 0.3311 0.3518 -0.0487
C20 C 0.36826(18) 0.5049(2) -0.00750(12)
H17 H 0.3975 0.5381 -0.0433
C21 C 0.36421(17) 0.5675(2) 0.04782(13)
H18 H 0.3901 0.6431 0.0496
C22 C 0.32205(17) 0.5183(2) 0.09997(12)
H19 H 0.3180 0.5611 0.1374
C23 C 0.28480(16) 0.40470(19) 0.09826(10)
H20 H 0.2579 0.3714 0.1347
C24 C 0.20630(15) 0.18465(18) -0.02221(9)
C25 C 0.17945(15) 0.14855(19) -0.07239(9)
C26 C 0.14831(15) 0.09908(18) -0.13216(9)
C27 C 0.05037(16) 0.1105(2) -0.15488(10)
H21 H 0.0038 0.1551 -0.1324
C28 C 0.02131(19) 0.0563(2) -0.21066(10)
H22 H -0.0448 0.0647 -0.2252
C29 C 0.0882(2) -0.0099(2) -0.24499(11)
C30 C 0.1858(2) -0.0198(2) -0.22243(11)
H23 H 0.2325 -0.0636 -0.2453
C31 C 0.21577(18) 0.0335(2) -0.16683(10)
H24 H 0.2821 0.0252 -0.1526
C32 C 0.0570(3) -0.0692(3) -0.30625(13)
H25 H -0.0082 -0.1048 -0.3010
H26 H 0.1058 -0.1281 -0.3170
H27 H 0.0536 -0.0122 -0.3396
C33 C 0.08823(14) 0.2164(2) 0.11758(9)
H28 H 0.0962 0.2911 0.1389
H29 H 0.0643 0.1602 0.1486
C34 C 0.01009(13) 0.22888(17) 0.06598(9)
C35 C -0.03770(15) 0.13206(18) 0.04115(10)
H30 H -0.0210 0.0580 0.0561
C36 C -0.11003(15) 0.1439(2) -0.00572(11)
H31 H -0.1411 0.0776 -0.0224
C37 C -0.13638(15) 0.2517(2) -0.02782(10)
H32 H -0.1853 0.2591 -0.0594
C38 C -0.09064(17) 0.3485(2) -0.00337(11)
H33 H -0.1088 0.4223 -0.0180
C39 C -0.01716(15) 0.33752(18) 0.04328(10)
H34 H 0.0141 0.4041 0.0594
loop_
_geom_bond_atom_site_label_1
_geom_bond_atom_site_label_2
_geom_bond_site_symmetry_1
_geom_bond_site_symmetry_2
S1 O1 1_555 1_555
O2 S1 1_555 1_555
N1 S1 1_555 1_555
N2 C8 1_555 1_555
C1 S1 1_555 1_555
C2 C1 1_555 1_555
H1 C2 1_555 1_555
C3 C2 1_555 1_555
H2 C3 1_555 1_555
C4 C3 1_555 1_555
C5 C4 1_555 1_555
H3 C5 1_555 1_555
C6 C1 1_555 1_555
H4 C6 1_555 1_555
C7 C4 1_555 1_555
H5 C7 1_555 1_555
H6 C7 1_555 1_555
H7 C7 1_555 1_555
C8 N1 1_555 1_555
C9 C8 1_555 1_555
H8 C9 1_555 1_555
C10 N2 1_555 1_555
C11 C9 1_555 1_555
C12 C11 1_555 1_555
H9 C12 1_555 1_555
C13 C12 1_555 1_555
H10 C13 1_555 1_555
C14 C13 1_555 1_555
C15 C14 1_555 1_555
H11 C15 1_555 1_555
C16 C11 1_555 1_555
H12 C16 1_555 1_555
C17 C14 1_555 1_555
H13 C17 1_555 1_555
H14 C17 1_555 1_555
H15 C17 1_555 1_555
C18 C10 1_555 1_555
C19 C18 1_555 1_555
H16 C19 1_555 1_555
C20 C19 1_555 1_555
H17 C20 1_555 1_555
C21 C20 1_555 1_555
H18 C21 1_555 1_555
C22 C21 1_555 1_555
H19 C22 1_555 1_555
C23 C18 1_555 1_555
H20 C23 1_555 1_555
C24 C10 1_555 1_555
C25 C24 1_555 1_555
C26 C25 1_555 1_555
C27 C26 1_555 1_555
H21 C27 1_555 1_555
C28 C27 1_555 1_555
H22 C28 1_555 1_555
C29 C28 1_555 1_555
C30 C29 1_555 1_555
H23 C30 1_555 1_555
C31 C26 1_555 1_555
H24 C31 1_555 1_555
C32 C29 1_555 1_555
H25 C32 1_555 1_555
H26 C32 1_555 1_555
H27 C32 1_555 1_555
C33 N2 1_555 1_555
H28 C33 1_555 1_555
H29 C33 1_555 1_555
C34 C33 1_555 1_555
C35 C34 1_555 1_555
H30 C35 1_555 1_555
C36 C35 1_555 1_555
H31 C36 1_555 1_555
C37 C36 1_555 1_555
H32 C37 1_555 1_555
C38 C37 1_555 1_555
H33 C38 1_555 1_555
C39 C34 1_555 1_555
H34 C39 1_555 1_555
C5 C6 1_555 1_555
C9 C10 1_555 1_555
C15 C16 1_555 1_555
C22 C23 1_555 1_555
C30 C31 1_555 1_555
C38 C39 1_555 1_555

#END
