
#######################################################################
#
#                 Cambridge Crystallographic Data Centre
#                                CCDC 
#
#######################################################################
#
# If this CIF has been generated from an entry in the Cambridge 
# Structural Database, then it will include bibliographic, chemical, 
# crystal, experimental, refinement or atomic coordinate data resulting 
# from the CCDC's data processing and validation procedures.
#
#######################################################################

data_HOLLAW
_chemical_compound_source        'dried leaves of Litsea machilifolia'
_chemical_name_common            'Accanthomine A'
_chemical_formula_moiety         'C15 H13 N5'
_chemical_name_systematic        
4-(3,4-Dihydro-\b-carbolin-1-yl)pyrimidin-2-amine
_symmetry_cell_setting           monoclinic
_symmetry_space_group_name_H-M   'P 21/c'
_symmetry_Int_Tables_number      14
_space_group_name_Hall           '-P 2ybc'
loop_
_symmetry_equiv_pos_site_id
_symmetry_equiv_pos_as_xyz
1 x,y,z
2 -x,1/2+y,1/2-z
3 -x,-y,-z
4 x,1/2-y,1/2+z
_cell_length_a                   11.4758(2)
_cell_length_b                   12.6095(2)
_cell_length_c                   8.9241(2)
_cell_angle_alpha                90
_cell_angle_beta                 102.116(1)
_cell_angle_gamma                90
_cell_volume                     1262.59
_exptl_crystal_colour            'light brown'
_exptl_crystal_description       'irregular block'
_cell_formula_units_Z            4
loop_
_atom_site_label
_atom_site_type_symbol
_atom_site_fract_x
_atom_site_fract_y
_atom_site_fract_z
N1 N 0.50153(18) 0.76301(16) 0.7128(2)
N2 N 0.55480(17) 0.65191(15) 0.9213(2)
N3 N 0.60199(16) 0.61005(14) 0.6777(2)
N4 N 0.73723(17) 0.59739(15) 0.4478(2)
C1 C 0.55292(19) 0.67210(17) 0.7718(2)
C2 C 0.6123(2) 0.56393(18) 0.9781(3)
H1 H 0.6172 0.5480 1.0833
C3 C 0.6649(2) 0.49480(17) 0.8924(3)
H2 H 0.7049 0.4325 0.9356
C4 C 0.65609(18) 0.52161(17) 0.7390(2)
C5 C 0.70796(18) 0.45156(17) 0.6351(2)
C6 C 0.7651(2) 0.28242(17) 0.5636(3)
H3 H 0.6977 0.2605 0.4809
H4 H 0.7970 0.2176 0.6203
C7 C 0.8626(2) 0.32896(17) 0.4896(3)
H5 H 0.9393 0.3309 0.5650
H6 H 0.8728 0.2843 0.4020
C8 C 0.82678(19) 0.43888(17) 0.4355(2)
C9 C 0.75008(19) 0.49495(17) 0.5047(2)
C10 C 0.86494(19) 0.50915(17) 0.3305(2)
C11 C 0.9446(2) 0.50053(18) 0.2302(3)
H7 H 0.9863 0.4362 0.2233
C12 C 0.9608(2) 0.58717(19) 0.1426(3)
H8 H 1.0146 0.5823 0.0751
C13 C 0.8991(2) 0.68278(19) 0.1512(3)
H9 H 0.9111 0.7406 0.0879
C14 C 0.8217(2) 0.69440(18) 0.2493(3)
H10 H 0.7809 0.7593 0.2554
C15 C 0.80577(19) 0.60715(17) 0.3395(2)
N5 N 0.71831(17) 0.35226(14) 0.6694(2)
H11 H 0.503(3) 0.778(2) 0.616(2)
H12 H 0.448(3) 0.796(2) 0.759(4)
H13 H 0.686(2) 0.643(2) 0.472(3)
loop_
_geom_bond_atom_site_label_1
_geom_bond_atom_site_label_2
_geom_bond_site_symmetry_1
_geom_bond_site_symmetry_2
N1 C1 1_555 1_555
N2 C1 1_555 1_555
N3 C1 1_555 1_555
N4 C9 1_555 1_555
C2 N2 1_555 1_555
H1 C2 1_555 1_555
C3 C2 1_555 1_555
H2 C3 1_555 1_555
C4 N3 1_555 1_555
C5 C4 1_555 1_555
C6 H3 1_555 1_555
H4 C6 1_555 1_555
C7 C6 1_555 1_555
H5 C7 1_555 1_555
H6 C7 1_555 1_555
C8 C7 1_555 1_555
C9 C5 1_555 1_555
C10 C8 1_555 1_555
C11 C10 1_555 1_555
H7 C11 1_555 1_555
C12 C11 1_555 1_555
H8 C12 1_555 1_555
C13 C12 1_555 1_555
H9 C13 1_555 1_555
C14 C13 1_555 1_555
H10 C14 1_555 1_555
C15 N4 1_555 1_555
N5 C5 1_555 1_555
H11 N1 1_555 1_555
H12 N1 1_555 1_555
H13 N4 1_555 1_555
C3 C4 1_555 1_555
C6 N5 1_555 1_555
C8 C9 1_555 1_555
C10 C15 1_555 1_555
C14 C15 1_555 1_555

#END
