
#######################################################################
#
#                 Cambridge Crystallographic Data Centre
#                                CCDC 
#
#######################################################################
#
# If this CIF has been generated from an entry in the Cambridge 
# Structural Database, then it will include bibliographic, chemical, 
# crystal, experimental, refinement or atomic coordinate data resulting 
# from the CCDC's data processing and validation procedures.
#
#######################################################################

data_HOLVIO
_chemical_formula_moiety         'C15 H15 N1 O4 S1'
_chemical_name_systematic        
4-Tosyl-1-oxa-4-azaspiro(4.5)deca-6,9-dien-8-one
_symmetry_cell_setting           monoclinic
_symmetry_space_group_name_H-M   'P 21/c'
_symmetry_Int_Tables_number      14
_space_group_name_Hall           '-P 2ybc'
loop_
_symmetry_equiv_pos_site_id
_symmetry_equiv_pos_as_xyz
1 x,y,z
2 -x,1/2+y,1/2-z
3 -x,-y,-z
4 x,1/2-y,1/2+z
_cell_length_a                   11.882(3)
_cell_length_b                   14.973(6)
_cell_length_c                   8.369(5)
_cell_angle_alpha                90
_cell_angle_beta                 107.00(3)
_cell_angle_gamma                90
_cell_volume                     1423.86
_exptl_crystal_colour            colorless
_exptl_crystal_description       block
_cell_formula_units_Z            4
_exptl_crystal_recrystallization_method cyclohexane/ether
loop_
_atom_site_label
_atom_site_type_symbol
_atom_site_fract_x
_atom_site_fract_y
_atom_site_fract_z
S1 S 0.28106(6) 0.58803(5) 0.06825(9)
O1 O 0.09259(19) 0.57997(15) -0.3866(3)
O2 O -0.1639(2) 0.7616(2) -0.1273(4)
O3 O 0.20120(17) 0.62375(14) 0.1501(3)
O4 O 0.35194(17) 0.51210(13) 0.1369(3)
N1 N 0.20196(18) 0.55681(15) -0.1165(3)
C1 C 0.0935(2) 0.60359(18) -0.2213(4)
C2 C 0.0995(3) 0.70272(19) -0.2139(4)
H1 H 0.1650 0.7308 -0.2304
C3 C 0.0165(3) 0.7524(2) -0.1852(4)
H2 H 0.0239 0.8142 -0.1869
C4 C -0.0868(3) 0.7143(3) -0.1509(5)
C5 C -0.0943(3) 0.6167(2) -0.1518(4)
H3 H -0.1587 0.5897 -0.1301
C6 C -0.0124(3) 0.5663(2) -0.1826(4)
H4 H -0.0207 0.5046 -0.1802
C7 C 0.1620(3) 0.5036(2) -0.3849(4)
H5 H 0.1950 0.5048 -0.4780
H6 H 0.1151 0.4498 -0.3926
C8 C 0.2563(3) 0.5062(2) -0.2247(4)
H7 H 0.2779 0.4465 -0.1815
H8 H 0.3257 0.5364 -0.2365
C9 C 0.3779(2) 0.67304(18) 0.0454(3)
C10 C 0.3497(3) 0.7621(2) 0.0559(4)
H9 H 0.2795 0.7780 0.0765
C11 C 0.4264(3) 0.8267(2) 0.0357(4)
H10 H 0.4072 0.8865 0.0431
C12 C 0.5312(3) 0.8055(2) 0.0047(4)
C13 C 0.5568(3) 0.7168(2) -0.0071(4)
H11 H 0.6266 0.7012 -0.0288
C14 C 0.4821(2) 0.6503(2) 0.0123(4)
H12 H 0.5012 0.5907 0.0034
C15 C 0.6133(3) 0.8785(2) -0.0157(4)
H13 H 0.5717 0.9187 -0.1021
H14 H 0.6783 0.8526 -0.0456
H15 H 0.6421 0.9105 0.0875
loop_
_geom_bond_atom_site_label_1
_geom_bond_atom_site_label_2
_geom_bond_site_symmetry_1
_geom_bond_site_symmetry_2
S1 O3 1_555 1_555
O1 C1 1_555 1_555
O2 C4 1_555 1_555
O4 S1 1_555 1_555
N1 S1 1_555 1_555
C1 N1 1_555 1_555
C2 C1 1_555 1_555
H1 C2 1_555 1_555
C3 C2 1_555 1_555
H2 C3 1_555 1_555
C4 C3 1_555 1_555
C5 C4 1_555 1_555
H3 C5 1_555 1_555
C6 C1 1_555 1_555
H4 C6 1_555 1_555
C7 O1 1_555 1_555
H5 C7 1_555 1_555
H6 C7 1_555 1_555
C8 N1 1_555 1_555
H7 C8 1_555 1_555
H8 C8 1_555 1_555
C9 S1 1_555 1_555
C10 C9 1_555 1_555
H9 C10 1_555 1_555
C11 C10 1_555 1_555
H10 C11 1_555 1_555
C12 C11 1_555 1_555
C13 C12 1_555 1_555
H11 C13 1_555 1_555
C14 C9 1_555 1_555
H12 C14 1_555 1_555
C15 C12 1_555 1_555
H13 C15 1_555 1_555
H14 C15 1_555 1_555
H15 C15 1_555 1_555
C5 C6 1_555 1_555
C7 C8 1_555 1_555
C13 C14 1_555 1_555

#END
