
#######################################################################
#
#                 Cambridge Crystallographic Data Centre
#                                CCDC 
#
#######################################################################
#
# If this CIF has been generated from an entry in the Cambridge 
# Structural Database, then it will include bibliographic, chemical, 
# crystal, experimental, refinement or atomic coordinate data resulting 
# from the CCDC's data processing and validation procedures.
#
#######################################################################

data_HONVIQ02
_chemical_formula_moiety         '3(C8 H12 N2),2(C7 H6 O3)'
_chemical_name_systematic        
'bis(3-Hydroxybenzoic acid) tris(tetramethylpyrazine)'
_symmetry_cell_setting           monoclinic
_symmetry_space_group_name_H-M   'P 21/c'
_symmetry_Int_Tables_number      14
_space_group_name_Hall           '-P 2ybc'
loop_
_symmetry_equiv_pos_site_id
_symmetry_equiv_pos_as_xyz
1 x,y,z
2 -x,1/2+y,1/2-z
3 -x,-y,-z
4 x,1/2-y,1/2+z
_cell_length_a                   9.3995(12)
_cell_length_b                   17.904(2)
_cell_length_c                   11.3775(13)
_cell_angle_alpha                90
_cell_angle_beta                 93.243(2)
_cell_angle_gamma                90
_cell_volume                     1911.64
_exptl_crystal_colour            colorless
_exptl_crystal_description       block
_cell_formula_units_Z            2
loop_
_atom_site_label
_atom_site_type_symbol
_atom_site_fract_x
_atom_site_fract_y
_atom_site_fract_z
N1 N 0.48055(16) 0.06578(9) 0.66884(13)
N2 N 0.68787(18) -0.04119(10) 0.70253(15)
C1 C 0.44519(19) -0.00652(11) 0.67682(16)
C2 C 0.5515(2) -0.06045(10) 0.69351(17)
C3 C 0.6183(2) 0.08526(10) 0.67586(17)
C4 C 0.7231(2) 0.03099(12) 0.69320(17)
C5 C 0.6544(3) 0.16659(12) 0.6640(2)
H1 H 0.5682 0.1951 0.6528
H2 H 0.7116 0.1734 0.5976
H3 H 0.7065 0.1832 0.7342
C6 C 0.8790(2) 0.05012(16) 0.7027(3)
H4 H 0.9339 0.0053 0.7147
H5 H 0.8979 0.0833 0.7681
H6 H 0.9049 0.0741 0.6315
C7 C 0.2907(2) -0.02584(15) 0.6677(2)
H7 H 0.2353 0.0190 0.6584
H8 H 0.2659 -0.0512 0.7380
H9 H 0.2713 -0.0578 0.6010
C8 C 0.5156(3) -0.14189(12) 0.6994(2)
H10 H 0.6019 -0.1704 0.7101
H11 H 0.4651 -0.1568 0.6275
H12 H 0.4570 -0.1506 0.7644
N3 N 1.39669(16) -0.44744(8) 0.50839(13)
C9 C 1.36023(19) -0.51911(11) 0.49411(16)
C10 C 1.5330(2) -0.42692(10) 0.51388(16)
C11 C 1.2053(2) -0.53906(15) 0.4883(2)
H13 H 1.1495 -0.4947 0.4969
H14 H 1.1871 -0.5733 0.5506
H15 H 1.1799 -0.5620 0.4137
C12 C 1.5684(3) -0.34574(12) 0.5294(2)
H16 H 1.4819 -0.3175 0.5330
H17 H 1.6200 -0.3288 0.4640
H18 H 1.6258 -0.3389 0.6011
N3B N 1.60331(16) -0.55256(8) 0.49161(13)
C9B C 1.63977(19) -0.48089(11) 0.50589(16)
C10B C 1.4670(2) -0.57308(10) 0.48612(16)
C11B C 1.7947(2) -0.46094(15) 0.5117(2)
H13B H 1.8505 -0.5053 0.5031
H14B H 1.8129 -0.4267 0.4494
H15B H 1.8201 -0.4380 0.5863
C12B C 1.4316(3) -0.65426(12) 0.4706(2)
H16B H 1.5181 -0.6825 0.4670
H17B H 1.3800 -0.6712 0.5360
H18B H 1.3742 -0.6611 0.3989
C13 C 1.01820(19) -0.26211(10) 0.46557(15)
O1 O 1.20686(19) -0.33805(9) 0.53681(14)
C14 C 0.8271(2) -0.14788(11) 0.49511(18)
H19 H 0.7621 -0.1097 0.5058
C15 C 0.9122(2) -0.24792(11) 0.38027(17)
H20 H 0.9056 -0.2769 0.3123
O2 O 0.7130(2) -0.18048(11) 0.30788(16)
H21 H 0.6629 -0.1450 0.3246
O3 O 1.1186(2) -0.36007(11) 0.35698(15)
C16 C 1.0309(2) -0.21819(11) 0.56620(16)
H22 H 1.1033 -0.2272 0.6236
C17 C 1.1185(2) -0.32436(12) 0.44640(18)
C18 C 0.8154(2) -0.19099(11) 0.39468(18)
C19 C 0.9351(3) -0.16123(11) 0.58000(18)
H23 H 0.9430 -0.1314 0.6470
H24 H 1.274(3) -0.3757(15) 0.520(2)
loop_
_geom_bond_atom_site_label_1
_geom_bond_atom_site_label_2
_geom_bond_site_symmetry_1
_geom_bond_site_symmetry_2
N1 C1 1_555 1_555
N2 C2 1_555 1_555
C1 C2 1_555 1_555
C2 C8 1_555 1_555
C3 N1 1_555 1_555
C4 N2 1_555 1_555
C5 C3 1_555 1_555
H1 C5 1_555 1_555
H2 C5 1_555 1_555
H3 C5 1_555 1_555
C6 C4 1_555 1_555
H4 C6 1_555 1_555
H5 C6 1_555 1_555
H6 C6 1_555 1_555
C7 C1 1_555 1_555
H7 C7 1_555 1_555
H8 C7 1_555 1_555
H9 C7 1_555 1_555
C8 H10 1_555 1_555
H11 C8 1_555 1_555
H12 C8 1_555 1_555
N3 C9 1_555 1_555
C9 C11 1_555 1_555
C10 N3 1_555 1_555
C11 H13 1_555 1_555
H14 C11 1_555 1_555
H15 C11 1_555 1_555
C12 C10 1_555 1_555
H16 C12 1_555 1_555
H17 C12 1_555 1_555
H18 C12 1_555 1_555
C13 C15 1_555 1_555
O1 C17 1_555 1_555
C14 H19 1_555 1_555
C15 H20 1_555 1_555
O2 H21 1_555 1_555
O3 C17 1_555 1_555
C16 C13 1_555 1_555
H22 C16 1_555 1_555
C17 C13 1_555 1_555
C18 C14 1_555 1_555
C19 C14 1_555 1_555
H23 C19 1_555 1_555
H24 O1 1_555 1_555
N3B C9B 1_555 1_555
C9B C10 1_555 1_555
C10B C9 1_555 1_555
C11B C9B 1_555 1_555
H13B C11B 1_555 1_555
H14B C11B 1_555 1_555
H15B C11B 1_555 1_555
C12B C10B 1_555 1_555
H16B C12B 1_555 1_555
H17B C12B 1_555 1_555
H18B C12B 1_555 1_555
C3 C4 1_555 1_555
C15 C18 1_555 1_555
O2 C18 1_555 1_555
C16 C19 1_555 1_555
N3B C10B 1_555 1_555

#END
