
#######################################################################
#
#                 Cambridge Crystallographic Data Centre
#                                CCDC 
#
#######################################################################
#
# If this CIF has been generated from an entry in the Cambridge 
# Structural Database, then it will include bibliographic, chemical, 
# crystal, experimental, refinement or atomic coordinate data resulting 
# from the CCDC's data processing and validation procedures.
#
#######################################################################

data_HOQBOG
_chemical_formula_moiety         'C31 H31 N5'
_chemical_name_systematic        
4,4'-((6-(2-phenylvinyl)-1,3,5-triazine-2,4-diyl)diethene-2,1-diyl)bis(N,N-dimethylaniline)
_symmetry_cell_setting           monoclinic
_symmetry_space_group_name_H-M   'P 21/c'
_symmetry_Int_Tables_number      14
_space_group_name_Hall           '-P 2ybc'
loop_
_symmetry_equiv_pos_site_id
_symmetry_equiv_pos_as_xyz
1 x,y,z
2 -x,1/2+y,1/2-z
3 -x,-y,-z
4 x,1/2-y,1/2+z
_cell_length_a                   9.6948(11)
_cell_length_b                   27.379(4)
_cell_length_c                   9.8590(13)
_cell_angle_alpha                90
_cell_angle_beta                 96.755(8)
_cell_angle_gamma                90
_cell_volume                     2598.75
_exptl_crystal_colour            brown
_exptl_crystal_description       needle
_cell_formula_units_Z            4
loop_
_atom_site_label
_atom_site_type_symbol
_atom_site_fract_x
_atom_site_fract_y
_atom_site_fract_z
C1 C 0.7941(9) 0.9066(3) 0.7061(9)
H1 H 0.8867 0.9165 0.7403
H2 H 0.7947 0.8918 0.6179
H3 H 0.7608 0.8835 0.7679
C2 C 0.5621(9) 0.9402(3) 0.6428(9)
H4 H 0.5111 0.9703 0.6403
H5 H 0.5225 0.9174 0.7014
H6 H 0.5573 0.9269 0.5523
C3 C 0.7503(8) 0.9941(2) 0.7465(7)
C4 C 0.6625(8) 1.0346(3) 0.7390(7)
H7 H 0.5707 1.0312 0.7006
C5 C 0.7098(11) 1.0792(3) 0.7874(8)
H8 H 0.6498 1.1058 0.7803
C6 C 0.8445(11) 1.0852(3) 0.8463(9)
C7 C 0.9287(9) 1.0456(3) 0.8522(8)
H9 H 1.0204 1.0491 0.8911
C8 C 0.8853(8) 1.0009(3) 0.8037(7)
H10 H 0.9472 0.9748 0.8092
C9 C 0.9176(13) 1.1318(4) 0.9200(12)
H11 H 1.0023 1.1273 0.9736
C10 C 0.8749(15) 1.1682(5) 0.9115(13)
H12 H 0.7920 1.1742 0.8564
C11 C 0.9541(11) 1.2111(4) 0.9928(10)
C12 C 0.9566(11) 1.2922(4) 1.0129(12)
C13 C 0.9140(11) 1.3466(5) 0.9825(13)
H13 H 0.9348 1.3693 1.0519
C14 C 0.8604(11) 1.3598(4) 0.8830(11)
H14 H 0.8359 1.3364 0.8161
C15 C 0.8234(9) 1.4128(3) 0.8465(10)
C16 C 0.7749(9) 1.4206(3) 0.7109(9)
H15 H 0.7686 1.3942 0.6513
C17 C 0.7360(7) 1.4654(3) 0.6613(7)
H16 H 0.7023 1.4689 0.5696
C18 C 0.7461(8) 1.5061(3) 0.7470(7)
C19 C 0.7995(8) 1.4985(3) 0.8844(8)
H17 H 0.8094 1.5249 0.9442
C20 C 0.8371(9) 1.4525(3) 0.9312(8)
H18 H 0.8726 1.4483 1.0222
C21 C 0.6459(10) 1.5598(3) 0.5626(8)
H19 H 0.6356 1.5289 0.5162
H20 H 0.7064 1.5804 0.5177
H21 H 0.5566 1.5751 0.5610
C22 C 0.7288(11) 1.5952(3) 0.7865(9)
H22 H 0.7694 1.5857 0.8762
H23 H 0.6423 1.6116 0.7929
H24 H 0.7910 1.6168 0.7468
C23 C 1.0941(9) 1.2473(4) 1.1565(9)
C24 C 1.2075(15) 1.2366(5) 1.2747(14)
H25 H 1.2314 1.2040 1.2906
C25 C 1.2631(14) 1.2638(5) 1.3425(14)
H26 H 1.2319 1.2958 1.3309
C26 C 1.3878(10) 1.2557(4) 1.4556(9)
C27 C 1.4308(13) 1.2966(4) 1.5247(12)
H27 H 1.3855 1.3261 1.5039
C28 C 1.5411(12) 1.2949(4) 1.6256(12)
H28 H 1.5698 1.3235 1.6713
C29 C 1.6081(11) 1.2536(4) 1.6601(11)
H29 H 1.6835 1.2530 1.7278
C30 C 1.5629(12) 1.2127(4) 1.5935(11)
H30 H 1.6080 1.1832 1.6152
C31 C 1.4514(12) 1.2137(4) 1.4941(10)
H31 H 1.4193 1.1847 1.4527
N1 N 0.7037(7) 0.9491(2) 0.6942(6)
N2 N 1.0499(9) 1.2063(3) 1.0981(8)
N3 N 0.9016(8) 1.2542(3) 0.9442(7)
N4 N 1.0502(8) 1.2906(3) 1.1217(9)
N5 N 0.7042(7) 1.5521(2) 0.7015(7)
loop_
_geom_bond_atom_site_label_1
_geom_bond_atom_site_label_2
_geom_bond_site_symmetry_1
_geom_bond_site_symmetry_2
C1 H1 1_555 1_555
H2 C1 1_555 1_555
H3 C1 1_555 1_555
C2 H4 1_555 1_555
H5 C2 1_555 1_555
H6 C2 1_555 1_555
C3 C4 1_555 1_555
C4 H7 1_555 1_555
C5 C4 1_555 1_555
H8 C5 1_555 1_555
C6 C5 1_555 1_555
C7 C6 1_555 1_555
H9 C7 1_555 1_555
C8 C3 1_555 1_555
H10 C8 1_555 1_555
C9 C6 1_555 1_555
H11 C9 1_555 1_555
C10 C9 1_555 1_555
H12 C10 1_555 1_555
C11 C10 1_555 1_555
C12 C13 1_555 1_555
C13 H13 1_555 1_555
C14 C13 1_555 1_555
H14 C14 1_555 1_555
C15 C14 1_555 1_555
C16 C15 1_555 1_555
H15 C16 1_555 1_555
C17 C16 1_555 1_555
H16 C17 1_555 1_555
C18 C17 1_555 1_555
C19 C18 1_555 1_555
H17 C19 1_555 1_555
C20 C15 1_555 1_555
H18 C20 1_555 1_555
C21 H19 1_555 1_555
H20 C21 1_555 1_555
H21 C21 1_555 1_555
C22 H22 1_555 1_555
H23 C22 1_555 1_555
H24 C22 1_555 1_555
C23 C24 1_555 1_555
C24 H25 1_555 1_555
C25 C24 1_555 1_555
H26 C25 1_555 1_555
C26 C25 1_555 1_555
C27 C26 1_555 1_555
H27 C27 1_555 1_555
C28 C27 1_555 1_555
H28 C28 1_555 1_555
C29 C28 1_555 1_555
H29 C29 1_555 1_555
C30 C29 1_555 1_555
H30 C30 1_555 1_555
C31 C26 1_555 1_555
H31 C31 1_555 1_555
N1 C1 1_555 1_555
N2 C11 1_555 1_555
N3 C11 1_555 1_555
N4 C12 1_555 1_555
N5 C18 1_555 1_555
C2 N1 1_555 1_555
C3 N1 1_555 1_555
C7 C8 1_555 1_555
C12 N3 1_555 1_555
C19 C20 1_555 1_555
C21 N5 1_555 1_555
C22 N5 1_555 1_555
C23 N2 1_555 1_555
C23 N4 1_555 1_555
C30 C31 1_555 1_555

#END
