
#######################################################################
#
#                 Cambridge Crystallographic Data Centre
#                                CCDC 
#
#######################################################################
#
# If this CIF has been generated from an entry in the Cambridge 
# Structural Database, then it will include bibliographic, chemical, 
# crystal, experimental, refinement or atomic coordinate data resulting 
# from the CCDC's data processing and validation procedures.
#
#######################################################################

data_HOQVAL
_chemical_formula_moiety         'C24 H21 N3 O1'
_chemical_name_systematic        
1-(5-(1-Cyclohexen-1-yl)-2-phenyl-2H-1,2,3-triazol-4-yl)-2-naphthol
_symmetry_cell_setting           monoclinic
_symmetry_space_group_name_H-M   'P 21/c'
_symmetry_Int_Tables_number      14
_space_group_name_Hall           '-P 2ybc'
loop_
_symmetry_equiv_pos_site_id
_symmetry_equiv_pos_as_xyz
1 x,y,z
2 -x,1/2+y,1/2-z
3 -x,-y,-z
4 x,1/2-y,1/2+z
_cell_length_a                   11.6325(10)
_cell_length_b                   20.372(2)
_cell_length_c                   16.4678(16)
_cell_angle_alpha                90
_cell_angle_beta                 97.997(2)
_cell_angle_gamma                90
_cell_volume                     3864.54
_exptl_crystal_colour            colorless
_chemical_melting_point          '124-126 deg.C'
_cell_formula_units_Z            8
loop_
_atom_site_label
_atom_site_type_symbol
_atom_site_fract_x
_atom_site_fract_y
_atom_site_fract_z
O1 O 0.88298(16) 0.11844(9) 1.11325(11)
H1 H 0.9213 0.0917 1.0912
N1 N 0.96885(12) 0.00508(8) 0.89366(10)
N2 N 1.03246(12) 0.05947(8) 0.90642(10)
N3 N 0.97879(13) 0.11033(8) 0.93553(11)
C1 C 0.86583(14) 0.02156(9) 0.91526(12)
C2 C 0.87302(15) 0.08758(10) 0.94194(13)
C3 C 0.76795(15) -0.02470(9) 0.90424(13)
C4 C 0.66356(17) -0.00853(11) 0.92893(16)
H3 H 0.6566 0.0314 0.9551
C5 C 0.56131(17) -0.05298(12) 0.91501(17)
H4 H 0.4912 -0.0269 0.9030
H5 H 0.5562 -0.0779 0.9646
C6 C 0.5692(2) -0.09937(16) 0.8457(2)
H6 H 0.5087 -0.1322 0.8448
H7 H 0.5557 -0.0753 0.7944
C7 C 0.68164(19) -0.13226(13) 0.8517(2)
H8 H 0.6843 -0.1575 0.8020
H9 H 0.6880 -0.1629 0.8972
C8 C 0.78448(17) -0.08690(10) 0.86375(15)
H10 H 0.8486 -0.1099 0.8956
H11 H 0.8071 -0.0775 0.8104
C9 C 1.14499(15) 0.06690(10) 0.88280(13)
C10 C 1.21255(17) 0.11882(11) 0.91492(15)
H12 H 1.1856 0.1475 0.9520
C11 C 1.32011(19) 0.12757(13) 0.89143(18)
H13 H 1.3662 0.1626 0.9124
C12 C 1.36000(18) 0.08504(14) 0.83733(18)
H14 H 1.4330 0.0913 0.8217
C13 C 1.29249(19) 0.03327(14) 0.80613(17)
H15 H 1.3204 0.0041 0.7700
C14 C 1.18321(16) 0.02418(11) 0.82811(14)
H16 H 1.1364 -0.0103 0.8062
C15 C 0.78916(17) 0.13224(10) 0.97389(16)
C16 C 0.7994(2) 0.14439(11) 1.05626(18)
C17 C 0.7208(2) 0.18642(12) 1.0884(2)
H17 H 0.7269 0.1932 1.1447
C18 C 0.6367(2) 0.21684(12) 1.0376(2)
H18 H 0.5842 0.2435 1.0598
C19 C 0.62596(19) 0.20937(11) 0.9513(2)
C20 C 0.5438(2) 0.24408(13) 0.8972(3)
H19 H 0.4937 0.2730 0.9184
C21 C 0.5357(2) 0.23650(14) 0.8154(3)
H20 H 0.4806 0.2601 0.7809
C22 C 0.6105(2) 0.19283(14) 0.7821(2)
H21 H 0.6043 0.1873 0.7256
C23 C 0.6924(2) 0.15856(12) 0.83302(19)
H22 H 0.7416 0.1299 0.8105
C24 C 0.70340(17) 0.16585(10) 0.91862(18)
O2 O 0.35983(13) 0.38421(8) -0.12509(10)
H2 H 0.3998 0.4132 -0.1008
N4 N 0.50802(12) 0.49059(8) 0.10929(10)
N5 N 0.56788(12) 0.43694(8) 0.09623(11)
N6 N 0.50513(13) 0.38780(8) 0.06050(11)
C25 C 0.39771(15) 0.47549(9) 0.08016(12)
C26 C 0.39637(15) 0.41070(9) 0.04917(13)
C27 C 0.3014(9) 0.5231(7) 0.0854(13)
C28 C 0.1890(11) 0.5093(7) 0.0581(14)
H23 H 0.1706 0.4712 0.0280
C29 C 0.0931(9) 0.5545(5) 0.0754(9)
H24 H 0.0554 0.5362 0.1192
H25 H 0.0357 0.5577 0.0269
C30 C 0.1387(6) 0.6239(4) 0.1004(7)
H26 H 0.1569 0.6469 0.0522
H27 H 0.0783 0.6484 0.1222
C31 C 0.2455(7) 0.6216(5) 0.1638(6)
H28 H 0.2278 0.5995 0.2127
H29 H 0.2709 0.6659 0.1788
C32 C 0.3429(10) 0.5844(6) 0.1281(8)
H30 H 0.3753 0.6129 0.0899
H31 H 0.4043 0.5739 0.1723
C33 C 0.68921(15) 0.42983(10) 0.12355(14)
C34 C 0.74815(16) 0.47635(11) 0.17305(14)
H32 H 0.7095 0.5129 0.1895
C35 C 0.86568(18) 0.46831(13) 0.19821(16)
H33 H 0.9066 0.5002 0.2308
C36 C 0.92211(19) 0.41413(15) 0.17580(19)
H34 H 1.0009 0.4084 0.1938
C37 C 0.8617(2) 0.36823(15) 0.1265(2)
H35 H 0.9002 0.3314 0.1108
C38 C 0.74457(19) 0.37546(12) 0.09972(18)
H36 H 0.7042 0.3440 0.0661
C39 C 0.30315(15) 0.36707(9) 0.00921(14)
C40 C 0.29086(17) 0.35706(10) -0.07377(14)
C41 C 0.20367(18) 0.31510(11) -0.11284(15)
H37 H 0.1946 0.3099 -0.1695
C42 C 0.13321(18) 0.28238(11) -0.06796(17)
H38 H 0.0751 0.2556 -0.0946
C43 C 0.14571(16) 0.28789(10) 0.01828(15)
C44 C 0.07812(18) 0.25155(11) 0.06638(19)
H39 H 0.0214 0.2233 0.0410
C45 C 0.0939(2) 0.25690(12) 0.1493(2)
H40 H 0.0494 0.2317 0.1803
C46 C 0.1772(2) 0.30041(12) 0.18826(17)
H41 H 0.1865 0.3048 0.2450
C47 C 0.24431(19) 0.33627(11) 0.14357(15)
H42 H 0.2997 0.3646 0.1704
C48 C 0.23186(16) 0.33143(9) 0.05755(14)
C49? C 0.3090(12) 0.5229(8) 0.0903(17)
C50? C 0.1980(13) 0.5079(8) 0.0678(15)
C51? C 0.0970(12) 0.5542(8) 0.0682(13)
C52? C 0.1259(7) 0.6009(5) 0.1419(7)
C53? C 0.2356(8) 0.6369(5) 0.1239(8)
C54? C 0.3353(10) 0.5895(5) 0.1276(10)
H43? H 0.1811 0.4652 0.0503
H44? H 0.0268 0.5298 0.0731
H45? H 0.0848 0.5792 0.0175
H46? H 0.0629 0.6316 0.1453
H47? H 0.1408 0.5765 0.1929
H48? H 0.2214 0.6567 0.0699
H49? H 0.2548 0.6716 0.1638
H50? H 0.3673 0.5835 0.1847
H51? H 0.3952 0.6096 0.1004
loop_
_geom_bond_atom_site_label_1
_geom_bond_atom_site_label_2
_geom_bond_site_symmetry_1
_geom_bond_site_symmetry_2
O1 H1 1_555 1_555
O2 H2 1_555 1_555
N1 N2 1_555 1_555
N2 N3 1_555 1_555
N3 C2 1_555 1_555
N4 N5 1_555 1_555
N5 N6 1_555 1_555
N6 C26 1_555 1_555
C1 N1 1_555 1_555
C2 C1 1_555 1_555
C3 C1 1_555 1_555
C4 C3 1_555 1_555
H3 C4 1_555 1_555
C5 C4 1_555 1_555
H4 C5 1_555 1_555
H5 C5 1_555 1_555
C6 C5 1_555 1_555
H6 C6 1_555 1_555
H7 C6 1_555 1_555
C7 C6 1_555 1_555
H8 C7 1_555 1_555
H9 C7 1_555 1_555
C8 C3 1_555 1_555
H10 C8 1_555 1_555
H11 C8 1_555 1_555
C9 N2 1_555 1_555
C10 C9 1_555 1_555
H12 C10 1_555 1_555
C11 C10 1_555 1_555
H13 C11 1_555 1_555
C12 C11 1_555 1_555
H14 C12 1_555 1_555
C13 C12 1_555 1_555
H15 C13 1_555 1_555
C14 C9 1_555 1_555
H16 C14 1_555 1_555
C15 C2 1_555 1_555
C16 O1 1_555 1_555
C17 C16 1_555 1_555
H17 C17 1_555 1_555
C18 C17 1_555 1_555
H18 C18 1_555 1_555
C19 C18 1_555 1_555
C20 C19 1_555 1_555
H19 C20 1_555 1_555
C21 C20 1_555 1_555
H20 C21 1_555 1_555
C22 C21 1_555 1_555
H21 C22 1_555 1_555
C23 C22 1_555 1_555
H22 C23 1_555 1_555
C24 C15 1_555 1_555
C25 N4 1_555 1_555
C26 C25 1_555 1_555
C27 C25 1_555 1_555
C28 C27 1_555 1_555
H23 C28 1_555 1_555
C29 C28 1_555 1_555
H24 C29 1_555 1_555
H25 C29 1_555 1_555
C30 C29 1_555 1_555
H26 C30 1_555 1_555
H27 C30 1_555 1_555
C31 C30 1_555 1_555
H28 C31 1_555 1_555
H29 C31 1_555 1_555
C32 C27 1_555 1_555
H30 C32 1_555 1_555
H31 C32 1_555 1_555
C33 N5 1_555 1_555
C34 C33 1_555 1_555
H32 C34 1_555 1_555
C35 C34 1_555 1_555
H33 C35 1_555 1_555
C36 C35 1_555 1_555
H34 C36 1_555 1_555
C37 C36 1_555 1_555
H35 C37 1_555 1_555
C38 C33 1_555 1_555
H36 C38 1_555 1_555
C39 C26 1_555 1_555
C40 O2 1_555 1_555
C41 C40 1_555 1_555
H37 C41 1_555 1_555
C42 C41 1_555 1_555
H38 C42 1_555 1_555
C43 C42 1_555 1_555
C44 C43 1_555 1_555
H39 C44 1_555 1_555
C45 C44 1_555 1_555
H40 C45 1_555 1_555
C46 C45 1_555 1_555
H41 C46 1_555 1_555
C47 C46 1_555 1_555
H42 C47 1_555 1_555
C48 C39 1_555 1_555
C7 C8 1_555 1_555
C13 C14 1_555 1_555
C15 C16 1_555 1_555
C19 C24 1_555 1_555
C23 C24 1_555 1_555
C31 C32 1_555 1_555
C37 C38 1_555 1_555
C39 C40 1_555 1_555
C43 C48 1_555 1_555
C47 C48 1_555 1_555

#END
